
#######################################################################
#
#                 Cambridge Crystallographic Data Centre
#                                CCDC 
#
#######################################################################
#
# If this CIF has been generated from an entry in the Cambridge 
# Structural Database, then it will include bibliographic, chemical, 
# crystal, experimental, refinement or atomic coordinate data resulting 
# from the CCDC's data processing and validation procedures.
#
#######################################################################

data_ACEHIB
_chemical_formula_moiety         '2(C24 H20 B1 1-),C10 H26 N4 2+,C2 H3 N1'
_chemical_name_systematic        
'3-(((Dimethylamino)(dimethyliminio)methyl)amino)-N,N-dimethylpropan-1-aminium bis(tetraphenylborate) acetonitrile solvate'
_symmetry_cell_setting           monoclinic
_symmetry_space_group_name_H-M   'P 21/n'
_symmetry_Int_Tables_number      14
_space_group_name_Hall           '-P 2yn'
loop_
_symmetry_equiv_pos_site_id
_symmetry_equiv_pos_as_xyz
1 x,y,z
2 1/2-x,1/2+y,1/2-z
3 -x,-y,-z
4 1/2+x,1/2-y,1/2+z
_cell_length_a                   18.7966(5)
_cell_length_b                   11.8444(3)
_cell_length_c                   22.8844(8)
_cell_angle_alpha                90
_cell_angle_beta                 97.330(1)
_cell_angle_gamma                90
_cell_volume                     5053.22
_exptl_crystal_colour            colorless
_exptl_crystal_description       plate
_cell_formula_units_Z            4
loop_
_atom_site_label
_atom_site_type_symbol
_atom_site_fract_x
_atom_site_fract_y
_atom_site_fract_z
C1 C 0.88048(12) 0.47074(19) 0.14591(9)
N1 N 0.86279(10) 0.54880(17) 0.10434(8)
N2 N 0.86102(10) 0.36350(16) 0.13596(7)
N3 N 0.91963(10) 0.50127(18) 0.19621(8)
H1 H 0.9188(13) 0.568(2) 0.2056(10)
C2 C 0.90282(15) 0.6536(2) 0.10211(12)
H2 H 0.8796 0.7131 0.1227
H3 H 0.9037 0.6756 0.0609
H4 H 0.9520 0.6426 0.1212
C3 C 0.79531(13) 0.5438(2) 0.06469(10)
H5 H 0.8055 0.5316 0.0242
H6 H 0.7692 0.6150 0.0668
H7 H 0.7660 0.4813 0.0765
C4 C 0.83829(13) 0.2908(2) 0.18163(10)
H8 H 0.8759 0.2352 0.1938
H9 H 0.7940 0.2516 0.1661
H10 H 0.8298 0.3367 0.2157
C5 C 0.85619(13) 0.3148(2) 0.07674(9)
H11 H 0.8057 0.3104 0.0596
H12 H 0.8771 0.2389 0.0791
H13 H 0.8825 0.3626 0.0519
C6 C 0.96190(12) 0.4253(2) 0.23704(9)
H14 H 0.9803 0.3622 0.2149
H15 H 0.9312 0.3934 0.2650
C7 C 1.02441(12) 0.4889(2) 0.27082(9)
H16 H 1.0599 0.5083 0.2440
H17 H 1.0070 0.5599 0.2868
C8 C 1.05928(12) 0.4160(2) 0.32063(10)
H18 H 1.0222 0.3910 0.3449
H19 H 1.0795 0.3478 0.3039
N4 N 1.11793(11) 0.47563(17) 0.35955(8)
H20 H 1.1525(17) 0.503(3) 0.3342(13)
C9 C 1.15398(14) 0.3959(2) 0.40461(11)
H21 H 1.1917 0.4360 0.4300
H22 H 1.1753 0.3335 0.3848
H23 H 1.1186 0.3661 0.4286
C10 C 1.09139(14) 0.5773(2) 0.38888(10)
H24 H 1.0527 0.5551 0.4114
H25 H 1.0733 0.6329 0.3589
H26 H 1.1308 0.6104 0.4155
B1 B 0.80769(14) 0.4996(2) 0.38191(10)
C11 C 0.84124(11) 0.62355(18) 0.40280(9)
C12 C 0.81700(12) 0.69005(19) 0.44706(9)
H27 H 0.7788 0.6622 0.4664
C13 C 0.84623(12) 0.79474(19) 0.46390(9)
H28 H 0.8278 0.8365 0.4941
C14 C 0.90179(12) 0.83812(19) 0.43703(9)
H29 H 0.9216 0.9100 0.4480
C15 C 0.92832(12) 0.7748(2) 0.39362(9)
H30 H 0.9667 0.8034 0.3747
C16 C 0.89910(12) 0.67031(19) 0.37778(9)
H31 H 0.9191 0.6281 0.3486
C17 C 0.87200(12) 0.40507(19) 0.39574(9)
C18 C 0.92395(12) 0.4153(2) 0.44559(9)
H32 H 0.9260 0.4838 0.4674
C19 C 0.97207(12) 0.3306(2) 0.46427(10)
H33 H 1.0055 0.3411 0.4986
C20 C 0.97167(12) 0.2303(2) 0.43301(10)
H34 H 1.0042 0.1713 0.4459
C21 C 0.92301(12) 0.2178(2) 0.38269(10)
H35 H 0.9226 0.1501 0.3604
C22 C 0.87465(12) 0.30369(19) 0.36461(9)
H36 H 0.8421 0.2931 0.3297
C23 C 0.77273(11) 0.50028(19) 0.31202(9)
C24 C 0.78307(12) 0.58507(19) 0.27123(9)
H37 H 0.8147 0.6455 0.2835
C25 C 0.74902(13) 0.5847(2) 0.21341(10)
H38 H 0.7577 0.6444 0.1875
C26 C 0.70288(12) 0.4986(2) 0.19359(9)
H39 H 0.6794 0.4983 0.1543
C27 C 0.69150(12) 0.4127(2) 0.23215(10)
H40 H 0.6604 0.3520 0.2192
C28 C 0.72520(12) 0.41450(19) 0.28949(9)
H41 H 0.7157 0.3546 0.3150
C29 C 0.74272(12) 0.46326(18) 0.42019(9)
C30 C 0.67284(12) 0.50628(19) 0.40553(9)
H42 H 0.6644 0.5582 0.3738
C31 C 0.61586(13) 0.4765(2) 0.43522(10)
H43 H 0.5698 0.5080 0.4236
C32 C 0.62580(14) 0.4011(2) 0.48156(10)
H44 H 0.5868 0.3799 0.5019
C33 C 0.69310(14) 0.3574(2) 0.49776(10)
H45 H 0.7007 0.3058 0.5297
C34 C 0.75046(13) 0.38778(19) 0.46780(9)
H46 H 0.7964 0.3562 0.4801
B2 B 0.19083(14) 0.5422(2) 0.15079(10)
C35 C 0.21415(12) 0.55183(19) 0.22246(9)
C36 C 0.20359(13) 0.6460(2) 0.25728(9)
H47 H 0.1755 0.7069 0.2400
C37 C 0.23273(14) 0.6539(2) 0.31629(10)
H48 H 0.2250 0.7201 0.3381
C38 C 0.27279(14) 0.5663(2) 0.34323(10)
H49 H 0.2931 0.5719 0.3833
C39 C 0.28300(13) 0.4695(2) 0.31081(9)
H50 H 0.3090 0.4073 0.3289
C40 C 0.25495(13) 0.4648(2) 0.25191(10)
H51 H 0.2638 0.3990 0.2302
C41 C 0.26577(12) 0.5113(2) 0.12390(9)
C42 C 0.27330(13) 0.4241(2) 0.08428(9)
H52 H 0.2328 0.3783 0.0715
C43 C 0.33786(14) 0.4013(2) 0.06259(10)
H53 H 0.3407 0.3404 0.0359
C44 C 0.39719(14) 0.4663(2) 0.07961(11)
H54 H 0.4411 0.4517 0.0646
C45 C 0.39200(13) 0.5545(2) 0.11951(11)
H55 H 0.4327 0.6001 0.1320
C46 C 0.32786(12) 0.5751(2) 0.14066(10)
H56 H 0.3256 0.6352 0.1678
C47 C 0.13120(12) 0.4420(2) 0.13257(10)
C48 C 0.12340(13) 0.3453(2) 0.16619(11)
H57 H 0.1505 0.3398 0.2041
C49 C 0.07769(15) 0.2567(2) 0.14663(13)
H58 H 0.0748 0.1920 0.1708
C50 C 0.03657(15) 0.2627(2) 0.09225(14)
H59 H 0.0054 0.2026 0.0786
C51 C 0.04156(14) 0.3569(3) 0.05825(12)
H60 H 0.0132 0.3624 0.0209
C52 C 0.08744(13) 0.4441(2) 0.07779(11)
H61 H 0.0895 0.5083 0.0532
C53 C 0.15756(12) 0.66115(19) 0.12215(9)
C54 C 0.18638(12) 0.72305(19) 0.07841(9)
H62 H 0.2300 0.6978 0.0659
C55 C 0.15407(12) 0.8198(2) 0.05241(9)
H63 H 0.1759 0.8592 0.0232
C56 C 0.09044(12) 0.8582(2) 0.06905(9)
H64 H 0.0679 0.9236 0.0512
C57 C 0.05957(13) 0.8003(2) 0.11219(10)
H65 H 0.0158 0.8261 0.1242
C58 C 0.09289(13) 0.7047(2) 0.13774(10)
H66 H 0.0709 0.6666 0.1673
N5 N 0.96103(13) 0.7488(2) 0.23894(9)
C59 C 0.98181(17) 0.8382(3) 0.24094(11)
C60 C 1.0050(3) 0.9561(3) 0.24196(17)
H67 H 1.0199 0.9759 0.2038
H68 H 1.0455 0.9664 0.2730
H69 H 0.9652 1.0049 0.2498
loop_
_geom_bond_atom_site_label_1
_geom_bond_atom_site_label_2
_geom_bond_site_symmetry_1
_geom_bond_site_symmetry_2
C1 N1 1_555 1_555
N1 C2 1_555 1_555
N2 C1 1_555 1_555
N3 C1 1_555 1_555
H1 N3 1_555 1_555
C2 H2 1_555 1_555
H3 C2 1_555 1_555
H4 C2 1_555 1_555
C3 N1 1_555 1_555
H5 C3 1_555 1_555
H6 C3 1_555 1_555
H7 C3 1_555 1_555
C4 N2 1_555 1_555
H8 C4 1_555 1_555
H9 C4 1_555 1_555
H10 C4 1_555 1_555
C5 N2 1_555 1_555
H11 C5 1_555 1_555
H12 C5 1_555 1_555
H13 C5 1_555 1_555
C6 N3 1_555 1_555
H14 C6 1_555 1_555
H15 C6 1_555 1_555
C7 C6 1_555 1_555
H16 C7 1_555 1_555
H17 C7 1_555 1_555
C8 C7 1_555 1_555
H18 C8 1_555 1_555
H19 C8 1_555 1_555
N4 C8 1_555 1_555
H20 N4 1_555 1_555
C9 N4 1_555 1_555
H21 C9 1_555 1_555
H22 C9 1_555 1_555
H23 C9 1_555 1_555
C10 N4 1_555 1_555
H24 C10 1_555 1_555
H25 C10 1_555 1_555
H26 C10 1_555 1_555
B1 C11 1_555 1_555
C11 C12 1_555 1_555
C12 H27 1_555 1_555
C13 C12 1_555 1_555
H28 C13 1_555 1_555
C14 C13 1_555 1_555
H29 C14 1_555 1_555
C15 C14 1_555 1_555
H30 C15 1_555 1_555
C16 C11 1_555 1_555
H31 C16 1_555 1_555
C17 B1 1_555 1_555
C18 C17 1_555 1_555
H32 C18 1_555 1_555
C19 C18 1_555 1_555
H33 C19 1_555 1_555
C20 C19 1_555 1_555
H34 C20 1_555 1_555
C21 C20 1_555 1_555
H35 C21 1_555 1_555
C22 C17 1_555 1_555
H36 C22 1_555 1_555
C23 B1 1_555 1_555
C24 C23 1_555 1_555
H37 C24 1_555 1_555
C25 C24 1_555 1_555
H38 C25 1_555 1_555
C26 C25 1_555 1_555
H39 C26 1_555 1_555
C27 C26 1_555 1_555
H40 C27 1_555 1_555
C28 C23 1_555 1_555
H41 C28 1_555 1_555
C29 B1 1_555 1_555
C30 C29 1_555 1_555
H42 C30 1_555 1_555
C31 C30 1_555 1_555
H43 C31 1_555 1_555
C32 C31 1_555 1_555
H44 C32 1_555 1_555
C33 C32 1_555 1_555
H45 C33 1_555 1_555
C34 C29 1_555 1_555
H46 C34 1_555 1_555
B2 C35 1_555 1_555
C35 C36 1_555 1_555
C36 H47 1_555 1_555
C37 C36 1_555 1_555
H48 C37 1_555 1_555
C38 C37 1_555 1_555
H49 C38 1_555 1_555
C39 C38 1_555 1_555
H50 C39 1_555 1_555
C40 C35 1_555 1_555
H51 C40 1_555 1_555
C41 B2 1_555 1_555
C42 C41 1_555 1_555
H52 C42 1_555 1_555
C43 C42 1_555 1_555
H53 C43 1_555 1_555
C44 C43 1_555 1_555
H54 C44 1_555 1_555
C45 C44 1_555 1_555
H55 C45 1_555 1_555
C46 C41 1_555 1_555
H56 C46 1_555 1_555
C47 B2 1_555 1_555
C48 C47 1_555 1_555
H57 C48 1_555 1_555
C49 C48 1_555 1_555
H58 C49 1_555 1_555
C50 C49 1_555 1_555
H59 C50 1_555 1_555
C51 C50 1_555 1_555
H60 C51 1_555 1_555
C52 C47 1_555 1_555
H61 C52 1_555 1_555
C53 B2 1_555 1_555
C54 C53 1_555 1_555
H62 C54 1_555 1_555
C55 C54 1_555 1_555
H63 C55 1_555 1_555
C56 C55 1_555 1_555
H64 C56 1_555 1_555
C57 C56 1_555 1_555
H65 C57 1_555 1_555
C58 C53 1_555 1_555
H66 C58 1_555 1_555
N5 C59 1_555 1_555
C59 C60 1_555 1_555
C60 H67 1_555 1_555
H68 C60 1_555 1_555
H69 C60 1_555 1_555
C15 C16 1_555 1_555
C21 C22 1_555 1_555
C27 C28 1_555 1_555
C33 C34 1_555 1_555
C39 C40 1_555 1_555
C45 C46 1_555 1_555
C51 C52 1_555 1_555
C57 C58 1_555 1_555

#END
