
#######################################################################
#
#                 Cambridge Crystallographic Data Centre
#                                CCDC 
#
#######################################################################
#
# If this CIF has been generated from an entry in the Cambridge 
# Structural Database, then it will include bibliographic, chemical, 
# crystal, experimental, refinement or atomic coordinate data resulting 
# from the CCDC's data processing and validation procedures.
#
#######################################################################

data_ACEHAT
_chemical_formula_moiety         'C24 H20 B1 1-,C9 H23 N4 1+'
_chemical_name_systematic        
'N-(bis(dimethylamino)methylene)-2-(dimethylamino)ethanaminium tetraphenylborate'
_symmetry_cell_setting           monoclinic
_symmetry_space_group_name_H-M   'P 21/n'
_symmetry_Int_Tables_number      14
_space_group_name_Hall           '-P 2yn'
loop_
_symmetry_equiv_pos_site_id
_symmetry_equiv_pos_as_xyz
1 x,y,z
2 1/2-x,1/2+y,1/2-z
3 -x,-y,-z
4 1/2+x,1/2-y,1/2+z
_cell_length_a                   10.2684(3)
_cell_length_b                   18.5696(8)
_cell_length_c                   15.4477(5)
_cell_angle_alpha                90
_cell_angle_beta                 92.348(2)
_cell_angle_gamma                90
_cell_volume                     2943.1
_exptl_crystal_colour            colorless
_exptl_crystal_description       block
_cell_formula_units_Z            4
loop_
_atom_site_label
_atom_site_type_symbol
_atom_site_fract_x
_atom_site_fract_y
_atom_site_fract_z
N1 N 0.73070(16) 0.12619(9) 0.18338(11)
N2 N 0.53394(16) 0.09070(9) 0.23841(11)
N3 N 0.65544(18) 0.18125(10) 0.30650(12)
H1 H 0.579(3) 0.1943(15) 0.3348(16)
N4 N 0.78097(18) 0.06713(10) 0.40702(12)
C1 C 0.63958(18) 0.13226(10) 0.24282(12)
C2 C 0.7623(2) 0.05643(12) 0.14621(14)
H2 H 0.7247 0.0180 0.1808
H3 H 0.8571 0.0507 0.1463
H4 H 0.7262 0.0538 0.0866
C3 C 0.8074(2) 0.18790(12) 0.15659(15)
H5 H 0.7669 0.2324 0.1763
H6 H 0.8108 0.1885 0.0933
H7 H 0.8961 0.1842 0.1822
C4 C 0.4604(2) 0.07530(14) 0.31503(14)
H8 H 0.5192 0.0765 0.3666
H9 H 0.4207 0.0274 0.3094
H10 H 0.3919 0.1116 0.3206
C5 C 0.47792(19) 0.06334(12) 0.15595(13)
H11 H 0.5163 0.0891 0.1079
H12 H 0.3834 0.0708 0.1538
H13 H 0.4967 0.0118 0.1511
C6 C 0.7800(2) 0.19417(12) 0.35408(15)
H14 H 0.7626 0.2173 0.4102
H15 H 0.8326 0.2281 0.3205
C7 C 0.8588(2) 0.12573(14) 0.37116(16)
H16 H 0.8953 0.1093 0.3162
H17 H 0.9327 0.1368 0.4122
C8 C 0.8487(3) -0.00058(16) 0.39712(19)
H18 H 0.9317 0.0008 0.4307
H19 H 0.8652 -0.0084 0.3358
H20 H 0.7949 -0.0400 0.4182
C9 C 0.7532(3) 0.08061(16) 0.49723(17)
H21 H 0.7013 0.0408 0.5193
H22 H 0.7044 0.1257 0.5016
H23 H 0.8353 0.0844 0.5316
B1 B 1.2168(2) -0.14408(12) 0.18902(13)
C10 C 1.16715(18) -0.20213(11) 0.11390(12)
C11 C 1.0420(2) -0.19887(12) 0.07374(13)
H24 H 0.9870 -0.1594 0.0860
C12 C 0.9961(2) -0.25233(14) 0.01599(13)
H25 H 0.9114 -0.2483 -0.0106
C13 C 1.0733(2) -0.31085(13) -0.00249(13)
H26 H 1.0421 -0.3471 -0.0414
C14 C 1.1968(2) -0.31598(12) 0.03645(13)
H27 H 1.2507 -0.3560 0.0245
C15 C 1.2419(2) -0.26237(11) 0.09313(13)
H28 H 1.3271 -0.2668 0.1189
C16 C 1.15323(18) -0.17595(10) 0.27695(12)
C17 C 1.20999(19) -0.23268(11) 0.32534(13)
H29 H 1.2929 -0.2502 0.3102
C18 C 1.1488(2) -0.26425(11) 0.39502(13)
H30 H 1.1905 -0.3023 0.4265
C19 C 1.0275(2) -0.24023(12) 0.41821(13)
H31 H 0.9858 -0.2613 0.4658
C20 C 0.9673(2) -0.18493(11) 0.37109(13)
H32 H 0.8836 -0.1683 0.3859
C21 C 1.03019(19) -0.15400(11) 0.30203(12)
H33 H 0.9875 -0.1163 0.2706
C22 C 1.37679(18) -0.13908(10) 0.19297(12)
C23 C 1.44520(19) -0.13495(10) 0.11590(12)
H34 H 1.3972 -0.1380 0.0621
C24 C 1.5794(2) -0.12662(11) 0.11495(14)
H35 H 1.6212 -0.1241 0.0613
C25 C 1.6527(2) -0.12198(11) 0.19231(15)
H36 H 1.7448 -0.1171 0.1923
C26 C 1.5892(2) -0.12454(12) 0.26907(14)
H37 H 1.6380 -0.1208 0.3225
C27 C 1.4539(2) -0.13256(12) 0.26927(13)
H38 H 1.4129 -0.1336 0.3233
C28 C 1.16991(17) -0.06142(11) 0.16866(12)
C29 C 1.16061(19) -0.00983(11) 0.23508(13)
H39 H 1.1721 -0.0251 0.2936
C30 C 1.13538(19) 0.06242(12) 0.21828(15)
H40 H 1.1295 0.0954 0.2649
C31 C 1.11873(19) 0.08653(12) 0.13347(15)
H41 H 1.1019 0.1360 0.1218
C32 C 1.12684(19) 0.03795(12) 0.06636(14)
H42 H 1.1159 0.0538 0.0080
C33 C 1.15116(19) -0.03431(11) 0.08445(13)
H43 H 1.1553 -0.0669 0.0373
loop_
_geom_bond_atom_site_label_1
_geom_bond_atom_site_label_2
_geom_bond_site_symmetry_1
_geom_bond_site_symmetry_2
N1 C1 1_555 1_555
N2 C1 1_555 1_555
N3 H1 1_555 1_555
N4 C7 1_555 1_555
C1 N3 1_555 1_555
C2 N1 1_555 1_555
H2 C2 1_555 1_555
H3 C2 1_555 1_555
H4 C2 1_555 1_555
C3 N1 1_555 1_555
H5 C3 1_555 1_555
H6 C3 1_555 1_555
H7 C3 1_555 1_555
C4 N2 1_555 1_555
H8 C4 1_555 1_555
H9 C4 1_555 1_555
H10 C4 1_555 1_555
C5 N2 1_555 1_555
H11 C5 1_555 1_555
H12 C5 1_555 1_555
H13 C5 1_555 1_555
C6 N3 1_555 1_555
H14 C6 1_555 1_555
H15 C6 1_555 1_555
C7 C6 1_555 1_555
H16 C7 1_555 1_555
H17 C7 1_555 1_555
C8 N4 1_555 1_555
H18 C8 1_555 1_555
H19 C8 1_555 1_555
H20 C8 1_555 1_555
C9 N4 1_555 1_555
H21 C9 1_555 1_555
H22 C9 1_555 1_555
H23 C9 1_555 1_555
B1 C10 1_555 1_555
C10 C11 1_555 1_555
C11 H24 1_555 1_555
C12 C11 1_555 1_555
H25 C12 1_555 1_555
C13 C12 1_555 1_555
H26 C13 1_555 1_555
C14 C13 1_555 1_555
H27 C14 1_555 1_555
C15 C10 1_555 1_555
H28 C15 1_555 1_555
C16 B1 1_555 1_555
C17 C16 1_555 1_555
H29 C17 1_555 1_555
C18 C17 1_555 1_555
H30 C18 1_555 1_555
C19 C18 1_555 1_555
H31 C19 1_555 1_555
C20 C19 1_555 1_555
H32 C20 1_555 1_555
C21 C16 1_555 1_555
H33 C21 1_555 1_555
C22 B1 1_555 1_555
C23 C22 1_555 1_555
H34 C23 1_555 1_555
C24 C23 1_555 1_555
H35 C24 1_555 1_555
C25 C24 1_555 1_555
H36 C25 1_555 1_555
C26 C25 1_555 1_555
H37 C26 1_555 1_555
C27 C22 1_555 1_555
H38 C27 1_555 1_555
C28 B1 1_555 1_555
C29 C28 1_555 1_555
H39 C29 1_555 1_555
C30 C29 1_555 1_555
H40 C30 1_555 1_555
C31 C30 1_555 1_555
H41 C31 1_555 1_555
C32 C31 1_555 1_555
H42 C32 1_555 1_555
C33 C28 1_555 1_555
H43 C33 1_555 1_555
C14 C15 1_555 1_555
C20 C21 1_555 1_555
C26 C27 1_555 1_555
C32 C33 1_555 1_555

#END
