
#######################################################################
#
#                 Cambridge Crystallographic Data Centre
#                                CCDC 
#
#######################################################################
#
# If this CIF has been generated from an entry in the Cambridge 
# Structural Database, then it will include bibliographic, chemical, 
# crystal, experimental, refinement or atomic coordinate data resulting 
# from the CCDC's data processing and validation procedures.
#
#######################################################################

data_ACEHEX
_chemical_formula_moiety         'C24 H20 B1 1-,C8 H20 N3 O1 1+,C2 H3 N1'
_chemical_name_systematic        
'2-((Dimethylcarbamoyl)amino)-N,N,N-trimethylethanaminium tetraphenylborate acetonitrile solvate'
_symmetry_cell_setting           triclinic
_symmetry_space_group_name_H-M   'P 1'
_symmetry_Int_Tables_number      1
_space_group_name_Hall           'P 1'
loop_
_symmetry_equiv_pos_site_id
_symmetry_equiv_pos_as_xyz
1 x,y,z
_cell_length_a                   10.1663(3)
_cell_length_b                   11.2017(4)
_cell_length_c                   14.5409(6)
_cell_angle_alpha                67.745(1)
_cell_angle_beta                 89.789(2)
_cell_angle_gamma                85.877(1)
_cell_volume                     1528.1
_exptl_crystal_colour            colorless
_exptl_crystal_description       block
_cell_formula_units_Z            2
loop_
_atom_site_label
_atom_site_type_symbol
_atom_site_fract_x
_atom_site_fract_y
_atom_site_fract_z
N1 N -0.70233(16) -0.70425(16) -0.01312(11)
N2 N -0.76704(15) -0.65800(15) 0.12333(11)
H1 H -0.8326 -0.7075 0.1293
N3 N -0.69932(14) -0.62913(14) 0.37035(10)
O1 O -0.57941(13) -0.58253(13) 0.04387(9)
C1 C -0.67670(17) -0.64507(17) 0.05114(12)
C2 C -0.6107(2) -0.6915(2) -0.09290(14)
H2 H -0.5657 -0.6119 -0.1086
H3 H -0.6594 -0.6879 -0.1521
H4 H -0.5454 -0.7660 -0.0718
C3 C -0.7908(2) -0.8072(2) 0.01055(14)
H5 H -0.7540 -0.8826 0.0671
H6 H -0.8012 -0.8309 -0.0472
H7 H -0.8769 -0.7774 0.0278
C4 C -0.7553(2) -0.59051(19) 0.19003(13)
H8 H -0.8408 -0.5440 0.1928
H9 H -0.6885 -0.5262 0.1655
C5 C -0.71439(17) -0.68795(17) 0.29314(12)
H10 H -0.7811 -0.7526 0.3157
H11 H -0.6294 -0.7343 0.2887
C6 C -0.59874(19) -0.53136(19) 0.34047(14)
H12 H -0.6296 -0.4585 0.2799
H13 H -0.5152 -0.5713 0.3279
H14 H -0.5854 -0.5001 0.3940
C7 C -0.6542(2) -0.73605(18) 0.46618(13)
H15 H -0.5702 -0.7779 0.4566
H16 H -0.7205 -0.7998 0.4873
H17 H -0.6424 -0.7003 0.5173
C8 C -0.82778(18) -0.56689(19) 0.38689(13)
H18 H -0.8172 -0.5381 0.4420
H19 H -0.8951 -0.6296 0.4030
H20 H -0.8551 -0.4923 0.3264
N4 N -0.22275(16) -0.51671(17) 0.17305(11)
N5 N -0.27577(15) -0.56557(16) 0.03702(11)
H21 H -0.3533 -0.5239 0.0342
N6 N -0.16530(14) -0.58988(14) -0.20496(11)
O2 O -0.07060(13) -0.62048(14) 0.10765(10)
C9 C -0.18276(18) -0.56979(17) 0.10560(12)
C10 C -0.3359(2) -0.4233(2) 0.15426(16)
H22 H -0.3165 -0.3424 0.1004
H23 H -0.3551 -0.4068 0.2146
H24 H -0.4125 -0.4578 0.1350
C11 C -0.1240(2) -0.5131(2) 0.24345(16)
H25 H -0.0637 -0.5913 0.2628
H26 H -0.1674 -0.5087 0.3025
H27 H -0.0741 -0.4367 0.2126
C12 C -0.2468(2) -0.62970(19) -0.03111(13)
H28 H -0.3252 -0.6719 -0.0403
H29 H -0.1735 -0.6973 -0.0036
C13 C -0.20852(17) -0.53079(17) -0.13073(12)
H30 H -0.2849 -0.4674 -0.1595
H31 H -0.1358 -0.4833 -0.1195
C14 C -0.26770(18) -0.67106(19) -0.21880(14)
H32 H -0.3533 -0.6208 -0.2339
H33 H -0.2733 -0.7479 -0.1577
H34 H -0.2437 -0.6978 -0.2739
C15 C -0.1458(2) -0.48166(18) -0.30182(13)
H35 H -0.1165 -0.5172 -0.3512
H36 H -0.0790 -0.4278 -0.2931
H37 H -0.2293 -0.4290 -0.3248
C16 C -0.03746(18) -0.6702(2) -0.17234(15)
H38 H -0.0497 -0.7441 -0.1104
H39 H 0.0290 -0.6176 -0.1613
H40 H -0.0079 -0.7016 -0.2239
B1 B -0.19774(18) -0.08677(18) -0.19635(13)
C17 C -0.18824(16) 0.04981(16) -0.29231(12)
C18 C -0.29633(17) 0.11893(17) -0.35377(12)
H41 H -0.3796 0.0832 -0.3418
C19 C -0.28667(19) 0.23795(17) -0.43162(13)
H42 H -0.3623 0.2809 -0.4719
C20 C -0.1671(2) 0.29399(17) -0.45052(13)
H43 H -0.1597 0.3745 -0.5041
C21 C -0.05838(18) 0.23030(17) -0.38971(13)
H44 H 0.0238 0.2683 -0.4007
C22 C -0.06927(17) 0.11116(17) -0.31282(12)
H45 H 0.0066 0.0694 -0.2724
C23 C -0.06784(16) -0.18832(16) -0.18560(12)
C24 C 0.00160(17) -0.19295(17) -0.26798(13)
H46 H -0.0237 -0.1312 -0.3322
C25 C 0.10619(18) -0.28444(19) -0.25946(15)
H47 H 0.1509 -0.2837 -0.3171
C26 C 0.14483(18) -0.37614(18) -0.16728(16)
H48 H 0.2168 -0.4379 -0.1611
C27 C 0.07740(18) -0.37720(18) -0.08368(14)
H49 H 0.1021 -0.4407 -0.0200
C28 C -0.02681(17) -0.28448(17) -0.09365(13)
H50 H -0.0718 -0.2866 -0.0358
C29 C -0.20813(17) -0.04609(16) -0.09894(12)
C30 C -0.09553(18) -0.03814(18) -0.04648(13)
H51 H -0.0113 -0.0584 -0.0677
C31 C -0.1015(2) -0.00191(19) 0.03546(14)
H52 H -0.0226 0.0019 0.0687
C32 C -0.2229(2) 0.02849(18) 0.06813(14)
H53 H -0.2282 0.0513 0.1247
C33 C -0.33643(19) 0.02517(18) 0.01708(13)
H54 H -0.4201 0.0471 0.0382
C34 C -0.32862(17) -0.01038(17) -0.06545(12)
H55 H -0.4078 -0.0103 -0.1000
C35 C -0.32092(16) -0.16669(16) -0.20946(12)
C36 C -0.39593(16) -0.24175(17) -0.13022(12)
H56 H -0.3797 -0.2409 -0.0662
C37 C -0.49325(17) -0.31769(18) -0.14079(13)
H57 H -0.5429 -0.3654 -0.0852
C38 C -0.51722(17) -0.32319(17) -0.23292(14)
H58 H -0.5829 -0.3749 -0.2409
C39 C -0.44395(18) -0.25217(17) -0.31321(13)
H59 H -0.4593 -0.2558 -0.3765
C40 C -0.34842(17) -0.17590(17) -0.30182(12)
H60 H -0.2998 -0.1282 -0.3580
B2 B 0.34293(18) -0.12361(18) 0.34470(13)
C41 C 0.45867(15) -0.02265(15) 0.32760(12)
C42 C 0.48559(16) 0.07134(16) 0.23500(12)
H61 H 0.4392 0.0730 0.1779
C43 C 0.57742(17) 0.16262(17) 0.22278(13)
H62 H 0.5932 0.2235 0.1582
C44 C 0.64559(17) 0.16488(18) 0.30430(14)
H63 H 0.7079 0.2271 0.2964
C45 C 0.62085(18) 0.07402(18) 0.39814(14)
H64 H 0.6667 0.0737 0.4550
C46 C 0.52926(17) -0.01593(17) 0.40846(12)
H65 H 0.5133 -0.0760 0.4733
C47 C 0.38317(17) -0.26117(16) 0.43707(12)
C48 C 0.51326(18) -0.31902(17) 0.44938(13)
H66 H 0.5789 -0.2739 0.4060
C49 C 0.54905(19) -0.43964(18) 0.52271(14)
H67 H 0.6379 -0.4749 0.5290
C50 C 0.4550(2) -0.50886(18) 0.58691(14)
H68 H 0.4791 -0.5912 0.6372
C51 C 0.3259(2) -0.45591(18) 0.57645(13)
H69 H 0.2606 -0.5023 0.6194
C52 C 0.29177(18) -0.33487(17) 0.50311(12)
H70 H 0.2026 -0.3006 0.4975
C53 C 0.21210(16) -0.04508(16) 0.36819(12)
C54 C 0.19480(18) -0.03795(17) 0.46198(12)
H71 H 0.2555 -0.0871 0.5144
C55 C 0.09255(18) 0.03803(18) 0.48118(13)
H72 H 0.0847 0.0399 0.5458
C56 C 0.00148(18) 0.11151(18) 0.40621(15)
H73 H -0.0688 0.1632 0.4190
C57 C 0.01563(17) 0.10761(17) 0.31246(14)
H74 H -0.0456 0.1569 0.2604
C58 C 0.11902(17) 0.03188(17) 0.29419(12)
H75 H 0.1272 0.0321 0.2290
C59 C 0.31760(16) -0.16311(16) 0.24849(11)
C60 C 0.19542(17) -0.20349(16) 0.23084(12)
H76 H 0.1260 -0.2063 0.2753
C61 C 0.17218(18) -0.23951(17) 0.15095(13)
H77 H 0.0878 -0.2652 0.1415
C62 C 0.2713(2) -0.23811(18) 0.08521(13)
H78 H 0.2554 -0.2613 0.0300
C63 C 0.39406(19) -0.20230(18) 0.10140(13)
H79 H 0.4635 -0.2019 0.0574
C64 C 0.41633(17) -0.16686(17) 0.18169(12)
H80 H 0.5019 -0.1443 0.1917
N7 N 0.9293(2) -0.3892(2) 0.41433(17)
C65 C 0.9008(2) -0.3022(2) 0.4302(2)
C66 C 0.8633(4) -0.1838(4) 0.4441(4)
H81 H 0.7948 -0.1992 0.4940
H82 H 0.8292 -0.1178 0.3810
H83 H 0.9405 -0.1538 0.4667
N8 N -0.7387(2) 0.2084(2) -0.27952(16)
C67 C -0.7185(2) 0.1002(2) -0.25420(17)
C68 C -0.6946(3) -0.0392(3) -0.2198(3)
H84 H -0.6516 -0.0723 -0.1537
H85 H -0.6373 -0.0613 -0.2663
H86 H -0.7787 -0.0782 -0.2161
loop_
_geom_bond_atom_site_label_1
_geom_bond_atom_site_label_2
_geom_bond_site_symmetry_1
_geom_bond_site_symmetry_2
N1 C1 1_555 1_555
N2 H1 1_555 1_555
N3 C5 1_555 1_555
O1 C1 1_555 1_555
C1 N2 1_555 1_555
C2 N1 1_555 1_555
H2 C2 1_555 1_555
H3 C2 1_555 1_555
H4 C2 1_555 1_555
C3 N1 1_555 1_555
H5 C3 1_555 1_555
H6 C3 1_555 1_555
H7 C3 1_555 1_555
C4 N2 1_555 1_555
H8 C4 1_555 1_555
H9 C4 1_555 1_555
C5 C4 1_555 1_555
H10 C5 1_555 1_555
H11 C5 1_555 1_555
C6 N3 1_555 1_555
H12 C6 1_555 1_555
H13 C6 1_555 1_555
H14 C6 1_555 1_555
C7 N3 1_555 1_555
H15 C7 1_555 1_555
H16 C7 1_555 1_555
H17 C7 1_555 1_555
C8 N3 1_555 1_555
H18 C8 1_555 1_555
H19 C8 1_555 1_555
H20 C8 1_555 1_555
N4 C9 1_555 1_555
N5 H21 1_555 1_555
N6 C13 1_555 1_555
O2 C9 1_555 1_555
C9 N5 1_555 1_555
C10 N4 1_555 1_555
H22 C10 1_555 1_555
H23 C10 1_555 1_555
H24 C10 1_555 1_555
C11 N4 1_555 1_555
H25 C11 1_555 1_555
H26 C11 1_555 1_555
H27 C11 1_555 1_555
C12 N5 1_555 1_555
H28 C12 1_555 1_555
H29 C12 1_555 1_555
C13 C12 1_555 1_555
H30 C13 1_555 1_555
H31 C13 1_555 1_555
C14 N6 1_555 1_555
H32 C14 1_555 1_555
H33 C14 1_555 1_555
H34 C14 1_555 1_555
C15 N6 1_555 1_555
H35 C15 1_555 1_555
H36 C15 1_555 1_555
H37 C15 1_555 1_555
C16 N6 1_555 1_555
H38 C16 1_555 1_555
H39 C16 1_555 1_555
H40 C16 1_555 1_555
B1 C17 1_555 1_555
C17 C18 1_555 1_555
C18 H41 1_555 1_555
C19 C18 1_555 1_555
H42 C19 1_555 1_555
C20 C19 1_555 1_555
H43 C20 1_555 1_555
C21 C20 1_555 1_555
H44 C21 1_555 1_555
C22 C17 1_555 1_555
H45 C22 1_555 1_555
C23 B1 1_555 1_555
C24 C23 1_555 1_555
H46 C24 1_555 1_555
C25 C24 1_555 1_555
H47 C25 1_555 1_555
C26 C25 1_555 1_555
H48 C26 1_555 1_555
C27 C26 1_555 1_555
H49 C27 1_555 1_555
C28 C23 1_555 1_555
H50 C28 1_555 1_555
C29 B1 1_555 1_555
C30 C29 1_555 1_555
H51 C30 1_555 1_555
C31 C30 1_555 1_555
H52 C31 1_555 1_555
C32 C31 1_555 1_555
H53 C32 1_555 1_555
C33 C32 1_555 1_555
H54 C33 1_555 1_555
C34 C29 1_555 1_555
H55 C34 1_555 1_555
C35 B1 1_555 1_555
C36 C35 1_555 1_555
H56 C36 1_555 1_555
C37 C36 1_555 1_555
H57 C37 1_555 1_555
C38 C37 1_555 1_555
H58 C38 1_555 1_555
C39 C38 1_555 1_555
H59 C39 1_555 1_555
C40 C35 1_555 1_555
H60 C40 1_555 1_555
B2 C41 1_555 1_555
C41 C42 1_555 1_555
C42 H61 1_555 1_555
C43 C42 1_555 1_555
H62 C43 1_555 1_555
C44 C43 1_555 1_555
H63 C44 1_555 1_555
C45 C44 1_555 1_555
H64 C45 1_555 1_555
C46 C41 1_555 1_555
H65 C46 1_555 1_555
C47 B2 1_555 1_555
C48 C47 1_555 1_555
H66 C48 1_555 1_555
C49 C48 1_555 1_555
H67 C49 1_555 1_555
C50 C49 1_555 1_555
H68 C50 1_555 1_555
C51 C50 1_555 1_555
H69 C51 1_555 1_555
C52 C47 1_555 1_555
H70 C52 1_555 1_555
C53 B2 1_555 1_555
C54 C53 1_555 1_555
H71 C54 1_555 1_555
C55 C54 1_555 1_555
H72 C55 1_555 1_555
C56 C55 1_555 1_555
H73 C56 1_555 1_555
C57 C56 1_555 1_555
H74 C57 1_555 1_555
C58 C53 1_555 1_555
H75 C58 1_555 1_555
C59 B2 1_555 1_555
C60 C59 1_555 1_555
H76 C60 1_555 1_555
C61 C60 1_555 1_555
H77 C61 1_555 1_555
C62 C61 1_555 1_555
H78 C62 1_555 1_555
C63 C62 1_555 1_555
H79 C63 1_555 1_555
C64 C59 1_555 1_555
H80 C64 1_555 1_555
N7 C65 1_555 1_555
C65 C66 1_555 1_555
C66 H81 1_555 1_555
H82 C66 1_555 1_555
H83 C66 1_555 1_555
N8 C67 1_555 1_555
C67 C68 1_555 1_555
C68 H84 1_555 1_555
H85 C68 1_555 1_555
H86 C68 1_555 1_555
C21 C22 1_555 1_555
C27 C28 1_555 1_555
C33 C34 1_555 1_555
C39 C40 1_555 1_555
C45 C46 1_555 1_555
C51 C52 1_555 1_555
C57 C58 1_555 1_555
C63 C64 1_555 1_555

#END
