
#######################################################################
#
#                 Cambridge Crystallographic Data Centre
#                                CCDC 
#
#######################################################################
#
# If this CIF has been generated from an entry in the Cambridge 
# Structural Database, then it will include bibliographic, chemical, 
# crystal, experimental, refinement or atomic coordinate data resulting 
# from the CCDC's data processing and validation procedures.
#
#######################################################################

data_ACEJAV
_chemical_name_common            
"N''-(2-Dimethylammonioethyl)-N,N,N',N'-tetramethylguanidinium bis(chloride)"
_chemical_formula_moiety         'C9 H24 N4 2+,2(Cl1 1-)'
_chemical_name_systematic        
'2-(((Dimethylamino)(dimethyliminio)methyl)amino)-N,N-dimethylethanaminium dichloride'
_symmetry_cell_setting           tetragonal
_symmetry_space_group_name_H-M   'I 41/a'
_symmetry_Int_Tables_number      88
_space_group_name_Hall           '-I 4ad'
loop_
_symmetry_equiv_pos_site_id
_symmetry_equiv_pos_as_xyz
1 x,y,z
2 1/2-x,-y,1/2+z
3 3/4-y,1/4+x,1/4+z
4 3/4+y,3/4-x,3/4+z
5 1/2+x,1/2+y,1/2+z
6 -x,1/2-y,z
7 1/4-y,3/4+x,3/4+z
8 1/4+y,1/4-x,1/4+z
9 -x,-y,-z
10 1/2+x,y,1/2-z
11 1/4+y,3/4-x,3/4-z
12 1/4-y,1/4+x,1/4-z
13 1/2-x,1/2-y,1/2-z
14 x,1/2+y,-z
15 3/4+y,1/4-x,1/4-z
16 3/4-y,3/4+x,3/4-z
_cell_length_a                   18.9125(9)
_cell_length_b                   18.9125(9)
_cell_length_c                   16.0163(7)
_cell_angle_alpha                90
_cell_angle_beta                 90
_cell_angle_gamma                90
_cell_volume                     5728.75
_exptl_crystal_colour            colorless
_exptl_crystal_description       polyhedral
_cell_formula_units_Z            16
loop_
_atom_site_label
_atom_site_type_symbol
_atom_site_fract_x
_atom_site_fract_y
_atom_site_fract_z
Cl1 Cl 0.10230(2) -0.10973(2) -0.02912(2)
Cl2 Cl 0.10985(2) -0.10841(2) -0.45991(2)
N1 N 0.07798(7) -0.63822(6) -0.26044(7)
N2 N 0.09718(7) -0.53085(7) -0.32582(7)
N3 N -0.00315(7) -0.54865(6) -0.24394(7)
H1 H -0.0352(10) -0.5789(10) -0.2317(10)
N4 N -0.10697(6) -0.38075(6) -0.21729(7)
H2 H -0.1061(9) -0.3817(9) -0.1625(11)
C1 C 0.05760(8) -0.57180(8) -0.27704(8)
C2 C 0.05044(8) -0.67442(8) -0.18642(9)
H3 H 0.0010 -0.6876 -0.1959
H4 H 0.0535 -0.6428 -0.1381
H5 H 0.0784 -0.7171 -0.1758
C3 C 0.11315(9) -0.68231(9) -0.32297(9)
H6 H 0.1134 -0.6577 -0.3768
H7 H 0.0877 -0.7272 -0.3286
H8 H 0.1619 -0.6916 -0.3054
C4 C 0.17400(8) -0.53675(9) -0.33038(10)
H9 H 0.1876 -0.5559 -0.3849
H10 H 0.1908 -0.5684 -0.2862
H11 H 0.1953 -0.4899 -0.3231
C5 C 0.06680(9) -0.47638(8) -0.37949(9)
H12 H 0.0805 -0.4296 -0.3587
H13 H 0.0151 -0.4805 -0.3792
H14 H 0.0843 -0.4825 -0.4366
C6 C -0.01646(8) -0.47705(8) -0.21446(9)
H15 H 0.0214 -0.4450 -0.2342
H16 H -0.0168 -0.4762 -0.1527
C7 C -0.08774(8) -0.45250(7) -0.24786(9)
H17 H -0.0862 -0.4520 -0.3096
H18 H -0.1247 -0.4865 -0.2305
C8 C -0.05721(8) -0.32521(8) -0.24698(10)
H19 H -0.0557 -0.3255 -0.3081
H20 H -0.0098 -0.3347 -0.2249
H21 H -0.0733 -0.2788 -0.2275
C9 C -0.18088(8) -0.36290(9) -0.24153(10)
H22 H -0.2136 -0.3961 -0.2148
H23 H -0.1858 -0.3662 -0.3023
H24 H -0.1919 -0.3146 -0.2234
loop_
_geom_bond_atom_site_label_1
_geom_bond_atom_site_label_2
_geom_bond_site_symmetry_1
_geom_bond_site_symmetry_2
N1 C1 1_555 1_555
N2 C1 1_555 1_555
N3 H1 1_555 1_555
N4 H2 1_555 1_555
C1 N3 1_555 1_555
C2 N1 1_555 1_555
H3 C2 1_555 1_555
H4 C2 1_555 1_555
H5 C2 1_555 1_555
C3 N1 1_555 1_555
H6 C3 1_555 1_555
H7 C3 1_555 1_555
H8 C3 1_555 1_555
C4 N2 1_555 1_555
H9 C4 1_555 1_555
H10 C4 1_555 1_555
H11 C4 1_555 1_555
C5 N2 1_555 1_555
H12 C5 1_555 1_555
H13 C5 1_555 1_555
H14 C5 1_555 1_555
C6 N3 1_555 1_555
H15 C6 1_555 1_555
H16 C6 1_555 1_555
C7 N4 1_555 1_555
H17 C7 1_555 1_555
H18 C7 1_555 1_555
C8 N4 1_555 1_555
H19 C8 1_555 1_555
H20 C8 1_555 1_555
H21 C8 1_555 1_555
C9 N4 1_555 1_555
H22 C9 1_555 1_555
H23 C9 1_555 1_555
H24 C9 1_555 1_555
C6 C7 1_555 1_555

#END
