
#######################################################################
#
#                 Cambridge Crystallographic Data Centre
#                                CCDC 
#
#######################################################################
#
# If this CIF has been generated from an entry in the Cambridge 
# Structural Database, then it will include bibliographic, chemical, 
# crystal, experimental, refinement or atomic coordinate data resulting 
# from the CCDC's data processing and validation procedures.
#
#######################################################################

data_ACEJEX
_chemical_formula_moiety         'C16 H13 N1 O1'
_chemical_name_systematic        2-(4'-methyl-2'-quinolinylium)phenolate
_symmetry_cell_setting           monoclinic
_symmetry_space_group_name_H-M   'I 2/a'
_symmetry_Int_Tables_number      15
_space_group_name_Hall           '-I 2ya'
loop_
_symmetry_equiv_pos_site_id
_symmetry_equiv_pos_as_xyz
1 x,y,z
2 1/2-x,y,-z
3 1/2+x,1/2+y,1/2+z
4 -x,1/2+y,1/2-z
5 -x,-y,-z
6 1/2+x,-y,z
7 1/2-x,1/2-y,1/2-z
8 x,1/2-y,1/2+z
_cell_length_a                   22.686(7)
_cell_length_b                   9.309(5)
_cell_length_c                   23.114(5)
_cell_angle_alpha                90
_cell_angle_beta                 98.123(16)
_cell_angle_gamma                90
_cell_volume                     4832.33
_cell_formula_units_Z            16
loop_
_atom_site_label
_atom_site_type_symbol
_atom_site_fract_x
_atom_site_fract_y
_atom_site_fract_z
N1 N 0.2753(3) 0.5075(9) 0.2819(4)
O1 O 0.3507(3) 0.6723(7) 0.2478(3)
C1 C 0.3128(5) 0.6885(12) 0.1979(5)
C3 C 0.3292(4) 0.7770(12) 0.1536(5)
C5 C 0.2921(5) 0.7957(12) 0.1022(5)
C7 C 0.2390(5) 0.7281(12) 0.0915(5)
C9 C 0.2221(5) 0.6401(12) 0.1346(5)
C11 C 0.2581(4) 0.6155(11) 0.1880(5)
C13 C 0.2396(4) 0.5180(11) 0.2309(5)
C15 C 0.1879(4) 0.4286(10) 0.2223(4)
C17 C 0.1727(4) 0.3347(11) 0.2632(4)
C19 C 0.2108(4) 0.3282(12) 0.3178(4)
C21 C 0.2009(5) 0.2357(12) 0.3632(5)
C23 C 0.2403(6) 0.2344(12) 0.4144(5)
C25 C 0.2909(5) 0.3222(14) 0.4211(6)
C27 C 0.3010(5) 0.4121(12) 0.3782(5)
C29 C 0.2615(5) 0.4177(12) 0.3250(5)
C31 C 0.1184(4) 0.2429(10) 0.2486(4)
H2 H 0.3659 0.8234 0.1592
H4 H 0.3036 0.8566 0.0740
H6 H 0.2145 0.7403 0.0561
H8 H 0.1851 0.5954 0.1277
H10 H 0.1631 0.4346 0.1868
H12 H 0.1678 0.1754 0.3588
H14 H 0.2332 0.1744 0.4449
H16 H 0.3176 0.3183 0.4555
H18 H 0.3343 0.4715 0.3835
H20 H 0.1132 0.1843 0.2817
H21 H 0.1231 0.1823 0.2159
H22 H 0.0841 0.3031 0.2388
H26 H 0.3277 0.5809 0.2868
C2 C -0.0678(5) 0.4244(12) 0.5321(5)
O2 O -0.1035(3) 0.4173(8) 0.4799(3)
N2 N -0.0290(4) 0.2392(9) 0.4488(4)
C4 C -0.0831(5) 0.5167(12) 0.5742(6)
C6 C -0.0481(6) 0.5278(13) 0.6282(5)
C8 C 0.0030(6) 0.4529(13) 0.6411(5)
C10 C 0.0188(5) 0.3593(12) 0.5997(5)
C12 C -0.0158(5) 0.3434(10) 0.5448(4)
C14 C 0.0032(4) 0.2453(11) 0.5017(4)
C16 C 0.0557(4) 0.1565(10) 0.5107(4)
C18 C 0.0726(4) 0.0691(11) 0.4690(5)
C20 C 0.0366(5) 0.0709(12) 0.4132(4)
C22 C 0.0515(5) -0.0166(11) 0.3668(5)
C24 C 0.0154(6) -0.0097(12) 0.3134(5)
C26 C -0.0347(5) 0.0793(13) 0.3055(5)
C28 C -0.0497(4) 0.1607(11) 0.3491(5)
C30 C -0.0146(5) 0.1575(13) 0.4055(5)
C32 C 0.1272(4) -0.0214(10) 0.4825(4)
H1 H -0.0710(40) 0.3040(90) 0.4430(30)
H3 H -0.1174 0.5722 0.5662
H5 H -0.0601 0.5883 0.6564
H7 H 0.0270 0.4643 0.6769
H9 H 0.0533 0.3050 0.6085
H11 H 0.0793 0.1593 0.5470
H13 H 0.0845 -0.0768 0.3723
H15 H 0.0247 -0.0649 0.2824
H17 H -0.0582 0.0822 0.2691
H19 H -0.0832 0.2194 0.3426
H23 H 0.1328 -0.0765 0.4486
H24 H 0.1226 -0.0853 0.5141
H25 H 0.1611 0.0393 0.4934
loop_
_geom_bond_atom_site_label_1
_geom_bond_atom_site_label_2
_geom_bond_site_symmetry_1
_geom_bond_site_symmetry_2
N1 C13 1_555 1_555
O1 C1 1_555 1_555
C1 C3 1_555 1_555
C2 O2 1_555 1_555
N2 C14 1_555 1_555
C3 C5 1_555 1_555
C4 C2 1_555 1_555
C5 C7 1_555 1_555
C6 C4 1_555 1_555
C7 C9 1_555 1_555
C8 C6 1_555 1_555
C9 C11 1_555 1_555
C10 C8 1_555 1_555
C11 C1 1_555 1_555
C12 C2 1_555 1_555
C13 C11 1_555 1_555
C14 C12 1_555 1_555
C15 C13 1_555 1_555
C16 C14 1_555 1_555
C17 C15 1_555 1_555
C18 C16 1_555 1_555
C19 C17 1_555 1_555
C20 C18 1_555 1_555
C21 C19 1_555 1_555
C22 C20 1_555 1_555
C23 C21 1_555 1_555
C24 C22 1_555 1_555
C25 C23 1_555 1_555
C26 C24 1_555 1_555
C27 C25 1_555 1_555
C28 C26 1_555 1_555
C29 N1 1_555 1_555
C30 N2 1_555 1_555
C31 C17 1_555 1_555
C32 C18 1_555 1_555
H1 N2 1_555 1_555
H2 C3 1_555 1_555
H3 C4 1_555 1_555
H4 C5 1_555 1_555
H5 C6 1_555 1_555
H6 C7 1_555 1_555
H7 C8 1_555 1_555
H8 C9 1_555 1_555
H9 C10 1_555 1_555
H10 C15 1_555 1_555
H11 C16 1_555 1_555
H12 C21 1_555 1_555
H13 C22 1_555 1_555
H14 C23 1_555 1_555
H15 C24 1_555 1_555
H16 C25 1_555 1_555
H17 C26 1_555 1_555
H18 C27 1_555 1_555
H19 C28 1_555 1_555
H20 C31 1_555 1_555
H21 C31 1_555 1_555
H22 C31 1_555 1_555
H23 C32 1_555 1_555
H24 C32 1_555 1_555
H25 C32 1_555 1_555
H26 N1 1_555 1_555
C10 C12 1_555 1_555
C19 C29 1_555 1_555
C20 C30 1_555 1_555
C27 C29 1_555 1_555
C28 C30 1_555 1_555

#END
