
#######################################################################
#
#                 Cambridge Crystallographic Data Centre
#                                CCDC 
#
#######################################################################
#
# If this CIF has been generated from an entry in the Cambridge 
# Structural Database, then it will include bibliographic, chemical, 
# crystal, experimental, refinement or atomic coordinate data resulting 
# from the CCDC's data processing and validation procedures.
#
#######################################################################

data_ACEJIB
_chemical_formula_moiety         'C28 H22 B1 N1 O1'
_chemical_name_systematic        
(2-(4'-methyl-2'-quinolinyl)phenolato)-diphenylboron
_symmetry_cell_setting           monoclinic
_symmetry_space_group_name_H-M   'P 21/c'
_symmetry_Int_Tables_number      14
_space_group_name_Hall           '-P 2ybc'
loop_
_symmetry_equiv_pos_site_id
_symmetry_equiv_pos_as_xyz
1 x,y,z
2 -x,1/2+y,1/2-z
3 -x,-y,-z
4 x,1/2-y,1/2+z
_cell_length_a                   12.3227(14)
_cell_length_b                   9.684(4)
_cell_length_c                   17.684(9)
_cell_angle_alpha                90
_cell_angle_beta                 95.503(14)
_cell_angle_gamma                90
_cell_volume                     2100.56
_exptl_crystal_colour            yellow
_chemical_melting_point          210deg.C
_cell_formula_units_Z            4
_exptl_crystal_recrystallization_method dichloromethane/hexane
_exptl_crystal_preparation       luminescent
loop_
_atom_site_label
_atom_site_type_symbol
_atom_site_fract_x
_atom_site_fract_y
_atom_site_fract_z
O1 O 0.6878(2) 0.0424(3) 0.3019(1)
N1 N 0.6902(2) 0.1307(3) 0.4355(2)
C1 C 0.7760(3) -0.1122(4) 0.4056(2)
B1 B 0.7584(4) 0.0433(5) 0.3747(3)
C2 C 0.7704(3) -0.2217(4) 0.3541(3)
C3 C 0.7885(4) -0.3571(5) 0.3754(3)
C4 C 0.8133(4) -0.3913(5) 0.4499(3)
C5 C 0.8186(4) -0.2873(5) 0.5031(3)
C6 C 0.8001(3) -0.1517(5) 0.4812(3)
C7 C 0.8657(3) 0.1249(4) 0.3531(2)
C8 C 0.9627(4) 0.0594(5) 0.3433(2)
C9 C 1.0510(4) 0.1291(6) 0.3185(3)
C10 C 1.0442(4) 0.2668(6) 0.3030(3)
C11 C 0.9490(4) 0.3356(5) 0.3124(3)
C12 C 0.8625(4) 0.2654(4) 0.3368(3)
C13 C 0.7403(3) 0.2042(4) 0.4973(2)
C14 C 0.8544(3) 0.1956(4) 0.5159(2)
C15 C 0.9031(4) 0.2657(5) 0.5767(2)
C16 C 0.8421(4) 0.3469(5) 0.6226(3)
C17 C 0.7332(4) 0.3548(5) 0.6067(3)
C18 C 0.6787(3) 0.2840(4) 0.5438(2)
C19 C 0.5632(4) 0.2852(5) 0.5285(2)
C20 C 0.4923(4) 0.3671(6) 0.5771(3)
C21 C 0.5174(4) 0.2088(5) 0.4700(2)
C22 C 0.5801(3) 0.1295(4) 0.4246(2)
C23 C 0.5259(3) 0.0453(4) 0.3627(2)
C24 C 0.4158(4) 0.0079(5) 0.3610(3)
C25 C 0.3661(4) -0.0696(5) 0.3025(3)
C26 C 0.4250(4) -0.1097(5) 0.2439(3)
C27 C 0.5330(4) -0.0749(5) 0.2446(3)
C28 C 0.5840(3) 0.0034(4) 0.3034(2)
H1 H 0.7536 -0.2023 0.3028
H2 H 0.7838 -0.4260 0.3386
H3 H 0.8263 -0.4826 0.4643
H4 H 0.8348 -0.3085 0.5543
H5 H 0.8039 -0.0838 0.5185
H6 H 0.9691 -0.0345 0.3536
H7 H 1.1151 0.0816 0.3125
H8 H 1.1033 0.3136 0.2863
H9 H 0.9433 0.4296 0.3023
H10 H 0.7987 0.3138 0.3426
H11 H 0.8964 0.1416 0.4864
H12 H 0.9782 0.2596 0.5878
H13 H 0.8765 0.3949 0.6637
H14 H 0.6928 0.4080 0.6376
H15 H 0.5375 0.4153 0.6157
H16 H 0.4444 0.3056 0.6005
H17 H 0.4500 0.4325 0.5459
H18 H 0.4420 0.2091 0.4596
H19 H 0.3757 0.0360 0.4002
H20 H 0.2933 -0.0948 0.3025
H21 H 0.3914 -0.1607 0.2036
H22 H 0.5725 -0.1040 0.2052
loop_
_geom_bond_atom_site_label_1
_geom_bond_atom_site_label_2
_geom_bond_site_symmetry_1
_geom_bond_site_symmetry_2
O1 B1 1_555 1_555
N1 B1 1_555 1_555
C1 B1 1_555 1_555
B1 C7 1_555 1_555
C2 C1 1_555 1_555
C3 C2 1_555 1_555
C4 C3 1_555 1_555
C5 C4 1_555 1_555
C6 C1 1_555 1_555
C7 C8 1_555 1_555
C8 C9 1_555 1_555
C9 C10 1_555 1_555
C10 C11 1_555 1_555
C11 C12 1_555 1_555
C12 C7 1_555 1_555
C13 N1 1_555 1_555
C14 C13 1_555 1_555
C15 C14 1_555 1_555
C16 C15 1_555 1_555
C17 C16 1_555 1_555
C18 C13 1_555 1_555
C19 C18 1_555 1_555
C20 C19 1_555 1_555
C21 C19 1_555 1_555
C22 N1 1_555 1_555
C23 C22 1_555 1_555
C24 C23 1_555 1_555
C25 C24 1_555 1_555
C26 C25 1_555 1_555
C27 C26 1_555 1_555
C28 O1 1_555 1_555
H1 C2 1_555 1_555
H2 C3 1_555 1_555
H3 C4 1_555 1_555
H4 C5 1_555 1_555
H5 C6 1_555 1_555
H6 C8 1_555 1_555
H7 C9 1_555 1_555
H8 C10 1_555 1_555
H9 C11 1_555 1_555
H10 C12 1_555 1_555
H11 C14 1_555 1_555
H12 C15 1_555 1_555
H13 C16 1_555 1_555
H14 C17 1_555 1_555
H15 C20 1_555 1_555
H16 C20 1_555 1_555
H17 C20 1_555 1_555
H18 C21 1_555 1_555
H19 C24 1_555 1_555
H20 C25 1_555 1_555
H21 C26 1_555 1_555
H22 C27 1_555 1_555
C5 C6 1_555 1_555
C17 C18 1_555 1_555
C21 C22 1_555 1_555
C23 C28 1_555 1_555
C27 C28 1_555 1_555

#END
