
#######################################################################
#
#                 Cambridge Crystallographic Data Centre
#                                CCDC 
#
#######################################################################
#
# If this CIF has been generated from an entry in the Cambridge 
# Structural Database, then it will include bibliographic, chemical, 
# crystal, experimental, refinement or atomic coordinate data resulting 
# from the CCDC's data processing and validation procedures.
#
#######################################################################

data_ACEKIC
_chemical_formula_moiety         'C23 H25 Cl1 O3'
_chemical_name_systematic        
3,3,6,6-tetramethyl-9-(4-chlorophenyl)-1,8-dioxo-2,3,4,5,6,7-hexahydroxanthene
_symmetry_cell_setting           monoclinic
_symmetry_space_group_name_H-M   'P 21/n'
_symmetry_Int_Tables_number      14
_space_group_name_Hall           '-P 2yn'
loop_
_symmetry_equiv_pos_site_id
_symmetry_equiv_pos_as_xyz
1 x,y,z
2 1/2-x,1/2+y,1/2-z
3 -x,-y,-z
4 1/2+x,1/2-y,1/2+z
_cell_length_a                   6.048(1)
_cell_length_b                   19.543(3)
_cell_length_c                   17.420(3)
_cell_angle_alpha                90
_cell_angle_beta                 97.29(1)
_cell_angle_gamma                90
_cell_volume                     2042.33
_cell_formula_units_Z            4
loop_
_atom_site_label
_atom_site_type_symbol
_atom_site_fract_x
_atom_site_fract_y
_atom_site_fract_z
Cl1 Cl 0.0588(1) 0.61408(4) 0.01272(4)
O1 O 0.0061(2) 0.79687(7) -0.38206(8)
O2 O -0.6095(3) 0.6771(1) -0.3084(1)
O3 O -0.3036(3) 0.90507(9) -0.1784(1)
C1 C 0.0055(4) 0.7142(1) -0.1879(1)
C2 C 0.0894(4) 0.6758(1) -0.1236(1)
C3 C -0.0418(4) 0.6660(1) -0.0657(1)
C4 C -0.2497(4) 0.6946(1) -0.0691(1)
C5 C -0.3291(4) 0.7335(1) -0.1332(1)
C6 C -0.2038(3) 0.7428(1) -0.1938(1)
C7 C -0.2942(3) 0.7829(1) -0.2665(1)
C8 C -0.1533(4) 0.8451(1) -0.2761(1)
C9 C -0.0124(4) 0.8485(1) -0.3292(1)
C10 C -0.1504(4) 0.7455(1) -0.3875(1)
C11 C -0.2991(3) 0.7384(1) -0.3378(1)
C12 C -0.4703(4) 0.6858(1) -0.3526(1)
C13 C -0.4760(4) 0.6443(1) -0.4261(1)
C14 C -0.2474(4) 0.6320(1) -0.4518(1)
C15 C -0.1311(4) 0.7010(1) -0.4560(1)
C16 C 0.1438(4) 0.9057(1) -0.3398(1)
C17 C 0.0797(4) 0.9733(1) -0.3036(1)
C18 C 0.0121(5) 0.9578(1) -0.2236(1)
C19 C -0.1634(4) 0.9032(1) -0.2229(1)
C20 C -0.1089(4) 0.5855(1) -0.3932(2)
C21 C -0.2712(5) 0.5987(2) -0.5319(2)
C22 C 0.2815(5) 1.0208(1) -0.2949(2)
C23 C -0.1130(5) 1.0069(1) -0.3543(2)
loop_
_geom_bond_atom_site_label_1
_geom_bond_atom_site_label_2
_geom_bond_site_symmetry_1
_geom_bond_site_symmetry_2
Cl1 C3 1_555 1_555
O1 C9 1_555 1_555
O2 C12 1_555 1_555
O3 C19 1_555 1_555
C1 C2 1_555 1_555
C2 C3 1_555 1_555
C3 C4 1_555 1_555
C4 C5 1_555 1_555
C5 C6 1_555 1_555
C6 C1 1_555 1_555
C7 C6 1_555 1_555
C8 C7 1_555 1_555
C9 C8 1_555 1_555
C10 O1 1_555 1_555
C11 C7 1_555 1_555
C12 C11 1_555 1_555
C13 C12 1_555 1_555
C14 C13 1_555 1_555
C15 C10 1_555 1_555
C16 C9 1_555 1_555
C17 C16 1_555 1_555
C18 C17 1_555 1_555
C19 C8 1_555 1_555
C20 C14 1_555 1_555
C21 C14 1_555 1_555
C22 C17 1_555 1_555
C23 C17 1_555 1_555
C10 C11 1_555 1_555
C14 C15 1_555 1_555
C18 C19 1_555 1_555

#END
