
#######################################################################
#
#                 Cambridge Crystallographic Data Centre
#                                CCDC 
#
#######################################################################
#
# If this CIF has been generated from an entry in the Cambridge 
# Structural Database, then it will include bibliographic, chemical, 
# crystal, experimental, refinement or atomic coordinate data resulting 
# from the CCDC's data processing and validation procedures.
#
#######################################################################

data_ACELOK
_chemical_formula_moiety         'C17 H32 N2 2+,2(C1 F3 O3 S1 1-)'
_chemical_name_systematic        
'N-Ethylsparteinium bis(trifluoromethanesulfonate)'
_symmetry_cell_setting           monoclinic
_symmetry_space_group_name_H-M   'P 21'
_symmetry_Int_Tables_number      4
_space_group_name_Hall           'P 2yb'
loop_
_symmetry_equiv_pos_site_id
_symmetry_equiv_pos_as_xyz
1 x,y,z
2 -x,1/2+y,-z
_cell_length_a                   7.4698(5)
_cell_length_b                   13.8328(10)
_cell_length_c                   11.9431(9)
_cell_angle_alpha                90
_cell_angle_beta                 100.3620(10)
_cell_angle_gamma                90
_cell_volume                     1213.93
_exptl_crystal_colour            colorless
_exptl_crystal_description       block
_cell_formula_units_Z            2
_exptl_crystal_recrystallization_method ethanol/water
loop_
_atom_site_label
_atom_site_type_symbol
_atom_site_fract_x
_atom_site_fract_y
_atom_site_fract_z
N1 N 0.28941(19) 0.32443(12) 0.75174(12)
N2 N 0.3840(2) 0.58653(11) 0.74133(13)
H1 H 0.4548 0.5416 0.7112
C1 C 0.1592(3) 0.25782(14) 0.80072(16)
H2 H 0.2310 0.2084 0.8494
H3 H 0.0919 0.2963 0.8494
C2 C 0.0241(3) 0.20753(15) 0.70958(17)
H4 H -0.0630 0.1701 0.7458
H5 H 0.0895 0.1616 0.6677
C3 C -0.0799(3) 0.27986(15) 0.62622(17)
H6 H -0.1502 0.3242 0.6670
H7 H -0.1664 0.2453 0.5672
C4 C 0.0541(2) 0.33752(15) 0.57062(15)
H8 H -0.0138 0.3837 0.5154
H9 H 0.1213 0.2929 0.5283
C5 C 0.1902(2) 0.39332(13) 0.65857(15)
H10 H 0.2852 0.4191 0.6173
C6 C 0.1023(2) 0.48248(14) 0.70660(16)
H11 H -0.0287 0.4845 0.6693
C7 C 0.1908(2) 0.57657(14) 0.67738(16)
H12 H 0.1910 0.5784 0.5945
H13 H 0.1178 0.6320 0.6962
C8 C 0.4570(3) 0.68626(14) 0.72137(16)
H14 H 0.4423 0.6988 0.6386
H15 H 0.3873 0.7359 0.7550
C9 C 0.6566(3) 0.69264(14) 0.77512(16)
H16 H 0.7027 0.7582 0.7630
H17 H 0.7270 0.6457 0.7379
C10 C 0.6847(3) 0.67154(14) 0.90191(16)
H18 H 0.6246 0.7222 0.9406
H19 H 0.8163 0.6723 0.9343
C11 C 0.6047(3) 0.57266(14) 0.92211(16)
H20 H 0.6733 0.5217 0.8897
H21 H 0.6181 0.5610 1.0050
C12 C 0.4044(3) 0.56645(14) 0.86779(15)
H22 H 0.3402 0.6196 0.9012
C13 C 0.3095(3) 0.47142(14) 0.88919(16)
H23 H 0.3165 0.4643 0.9732
C14 C 0.4030(2) 0.38219(13) 0.84624(15)
H24 H 0.5140 0.4044 0.8194
H25 H 0.4423 0.3384 0.9117
C15 C 0.1093(2) 0.48056(15) 0.83451(16)
H26 H 0.0392 0.4249 0.8559
H27 H 0.0571 0.5408 0.8599
C16 C 0.4195(2) 0.26235(14) 0.69659(16)
H28 H 0.3464 0.2218 0.6370
H29 H 0.4952 0.3058 0.6585
C17 C 0.5451(3) 0.19673(15) 0.77756(16)
H30 H 0.6198 0.2359 0.8366
H31 H 0.6243 0.1609 0.7351
H32 H 0.4722 0.1511 0.8132
S1 S 0.59836(7) 0.53249(3) 0.50162(4)
F1 F 0.38839(18) 0.39143(10) 0.41064(11)
F2 F 0.51584(18) 0.47103(10) 0.29178(9)
F3 F 0.67232(16) 0.37066(8) 0.40656(10)
O1 O 0.60506(17) 0.48152(10) 0.60968(10)
O2 O 0.44760(19) 0.59845(10) 0.47476(11)
O3 O 0.77144(19) 0.56817(10) 0.48328(11)
C18 C 0.5408(3) 0.43652(15) 0.39667(16)
S2 S 0.83142(6) 0.33259(3) 0.07802(4)
F4 F 0.93809(18) 0.51394(9) 0.10542(12)
F5 F 1.15400(16) 0.41085(9) 0.13902(11)
F6 F 0.97631(19) 0.43045(11) 0.25978(10)
O4 O 0.65303(17) 0.36247(10) 0.09325(11)
O5 O 0.89958(19) 0.24672(10) 0.13930(13)
O6 O 0.86143(18) 0.33730(11) -0.03796(11)
C19 C 0.9825(3) 0.42662(15) 0.14988(18)
loop_
_geom_bond_atom_site_label_1
_geom_bond_atom_site_label_2
_geom_bond_site_symmetry_1
_geom_bond_site_symmetry_2
N1 C1 1_555 1_555
N2 H1 1_555 1_555
C1 H2 1_555 1_555
H3 C1 1_555 1_555
C2 C1 1_555 1_555
H4 C2 1_555 1_555
H5 C2 1_555 1_555
C3 C2 1_555 1_555
H6 C3 1_555 1_555
H7 C3 1_555 1_555
C4 C3 1_555 1_555
H8 C4 1_555 1_555
H9 C4 1_555 1_555
C5 N1 1_555 1_555
H10 C5 1_555 1_555
C6 C5 1_555 1_555
H11 C6 1_555 1_555
C7 N2 1_555 1_555
H12 C7 1_555 1_555
H13 C7 1_555 1_555
C8 N2 1_555 1_555
H14 C8 1_555 1_555
H15 C8 1_555 1_555
C9 C8 1_555 1_555
H16 C9 1_555 1_555
H17 C9 1_555 1_555
C10 C9 1_555 1_555
H18 C10 1_555 1_555
H19 C10 1_555 1_555
C11 C10 1_555 1_555
H20 C11 1_555 1_555
H21 C11 1_555 1_555
C12 N2 1_555 1_555
H22 C12 1_555 1_555
C13 C12 1_555 1_555
H23 C13 1_555 1_555
C14 N1 1_555 1_555
H24 C14 1_555 1_555
H25 C14 1_555 1_555
C15 C6 1_555 1_555
H26 C15 1_555 1_555
H27 C15 1_555 1_555
C16 N1 1_555 1_555
H28 C16 1_555 1_555
H29 C16 1_555 1_555
C17 C16 1_555 1_555
H30 C17 1_555 1_555
H31 C17 1_555 1_555
H32 C17 1_555 1_555
S1 O1 1_555 1_555
F1 C18 1_555 1_555
F2 C18 1_555 1_555
F3 C18 1_555 1_555
O2 S1 1_555 1_555
O3 S1 1_555 1_555
C18 S1 1_555 1_555
S2 O4 1_555 1_555
F4 C19 1_555 1_555
F5 C19 1_555 1_555
F6 C19 1_555 1_555
O5 S2 1_555 1_555
O6 S2 1_555 1_555
C19 S2 1_555 1_555
C4 C5 1_555 1_555
C6 C7 1_555 1_555
C11 C12 1_555 1_555
C13 C14 1_555 1_555
C13 C15 1_555 1_555

#END
