
#######################################################################
#
#                 Cambridge Crystallographic Data Centre
#                                CCDC 
#
#######################################################################
#
# If this CIF has been generated from an entry in the Cambridge 
# Structural Database, then it will include bibliographic, chemical, 
# crystal, experimental, refinement or atomic coordinate data resulting 
# from the CCDC's data processing and validation procedures.
#
#######################################################################

data_ACELUQ
_chemical_formula_moiety         'C17 H32 N2 2+,2(C1 F3 O3 S1 1-)'
_chemical_name_systematic        
"N,N'-Dimethylsparteinium bis(trifluoromethanesulfonate)"
_symmetry_cell_setting           triclinic
_symmetry_space_group_name_H-M   'P 1'
_symmetry_Int_Tables_number      1
_space_group_name_Hall           'P 1'
loop_
_symmetry_equiv_pos_site_id
_symmetry_equiv_pos_as_xyz
1 x,y,z
_cell_length_a                   7.5548(5)
_cell_length_b                   11.7640(8)
_cell_length_c                   13.5178(10)
_cell_angle_alpha                98.7310(10)
_cell_angle_beta                 93.5510(10)
_cell_angle_gamma                92.4900(10)
_cell_volume                     1183.49
_exptl_crystal_colour            colorless
_exptl_crystal_description       blade
_cell_formula_units_Z            2
_exptl_crystal_recrystallization_method methanol
loop_
_atom_site_label
_atom_site_type_symbol
_atom_site_fract_x
_atom_site_fract_y
_atom_site_fract_z
N1 N 0.5974(2) -0.15897(17) 0.18138(15)
N2 N 0.4433(2) 0.15049(16) 0.26319(14)
C1 C 0.4650(3) -0.2514(2) 0.12411(18)
H1 H 0.3499 -0.2169 0.1120
H2 H 0.5095 -0.2804 0.0581
C2 C 0.4366(3) -0.3514(2) 0.18150(19)
H3 H 0.3439 -0.4066 0.1444
H4 H 0.5481 -0.3922 0.1859
C3 C 0.3810(3) -0.3115(2) 0.28606(19)
H5 H 0.3798 -0.3772 0.3239
H6 H 0.2590 -0.2844 0.2817
C4 C 0.5062(3) -0.2140(2) 0.34283(18)
H7 H 0.4601 -0.1853 0.4084
H8 H 0.6252 -0.2433 0.3553
C5 C 0.5204(3) -0.1177(2) 0.28200(17)
H9 H 0.3960 -0.0972 0.2658
C6 C 0.6205(3) -0.0046(2) 0.33733(17)
H10 H 0.6678 -0.0207 0.4042
C7 C 0.5042(3) 0.0982(2) 0.35658(17)
H11 H 0.5707 0.1592 0.4050
H12 H 0.3975 0.0740 0.3887
C8 C 0.4026(3) 0.2753(2) 0.29918(19)
H13 H 0.3065 0.2771 0.3459
H14 H 0.5094 0.3165 0.3362
C9 C 0.3460(3) 0.3367(2) 0.2118(2)
H15 H 0.2288 0.3032 0.1818
H16 H 0.3326 0.4190 0.2374
C10 C 0.4784(3) 0.3271(2) 0.1309(2)
H17 H 0.5857 0.3770 0.1558
H18 H 0.4252 0.3553 0.0710
C11 C 0.5322(3) 0.2037(2) 0.10092(19)
H19 H 0.4293 0.1555 0.0665
H20 H 0.6280 0.2024 0.0541
C12 C 0.5964(3) 0.1561(2) 0.19441(18)
H21 H 0.6816 0.2176 0.2316
C13 C 0.7043(3) 0.0486(2) 0.17925(18)
H22 H 0.8082 0.0671 0.1410
C14 C 0.6082(3) -0.0618(2) 0.12085(18)
H23 H 0.4864 -0.0440 0.0989
H24 H 0.6714 -0.0870 0.0600
C15 C 0.7774(3) 0.0320(2) 0.28345(18)
H25 H 0.8658 -0.0280 0.2785
H26 H 0.8353 0.1048 0.3199
C16 C 0.7783(3) -0.2118(2) 0.19022(19)
H27 H 0.7668 -0.2934 0.1610
H28 H 0.8201 -0.2042 0.2611
H29 H 0.8637 -0.1714 0.1542
C17 C 0.2739(3) 0.0894(2) 0.21667(18)
H30 H 0.2240 0.1309 0.1648
H31 H 0.1891 0.0863 0.2683
H32 H 0.2976 0.0109 0.1864
N3 N 0.4009(2) 0.44394(18) 0.75301(14)
N4 N 0.5686(2) 0.73425(17) 0.67297(15)
C18 C 0.5279(3) 0.3755(2) 0.80880(19)
H33 H 0.4790 0.3638 0.8730
H34 H 0.6428 0.4203 0.8246
C19 C 0.5595(3) 0.2589(2) 0.7488(2)
H35 H 0.6494 0.2201 0.7862
H36 H 0.4478 0.2101 0.7402
C20 C 0.6232(3) 0.2711(2) 0.6464(2)
H37 H 0.6268 0.1937 0.6059
H38 H 0.7452 0.3070 0.6546
C21 C 0.5013(3) 0.3445(2) 0.59104(19)
H39 H 0.5517 0.3566 0.5273
H40 H 0.3833 0.3038 0.5748
C22 C 0.4810(3) 0.4599(2) 0.65491(18)
H41 H 0.6041 0.4943 0.6737
C23 C 0.3816(3) 0.5485(2) 0.60093(18)
H42 H 0.3312 0.5069 0.5344
C24 C 0.5015(3) 0.6485(2) 0.58091(18)
H43 H 0.4358 0.6907 0.5336
H44 H 0.6055 0.6169 0.5473
C25 C 0.6114(3) 0.8490(2) 0.63787(18)
H45 H 0.7060 0.8391 0.5902
H46 H 0.5045 0.8728 0.6019
C26 C 0.6721(3) 0.9432(2) 0.72480(19)
H47 H 0.6809 1.0178 0.6995
H48 H 0.7923 0.9274 0.7511
C27 C 0.5487(3) 0.9537(2) 0.81064(19)
H49 H 0.4386 0.9890 0.7899
H50 H 0.6073 1.0051 0.8694
C28 C 0.5011(3) 0.8363(2) 0.84047(18)
H51 H 0.6087 0.8038 0.8682
H52 H 0.4137 0.8446 0.8923
C29 C 0.4229(3) 0.7571(2) 0.74698(18)
H53 H 0.3394 0.8059 0.7140
C30 C 0.3067(3) 0.6514(2) 0.76122(19)
H54 H 0.2050 0.6809 0.7998
C31 C 0.3902(3) 0.5606(2) 0.81799(18)
H55 H 0.5115 0.5893 0.8450
H56 H 0.3193 0.5509 0.8756
C32 C 0.2285(3) 0.5975(2) 0.65691(18)
H57 H 0.1374 0.5359 0.6618
H58 H 0.1729 0.6565 0.6220
C33 C 0.2197(3) 0.3789(2) 0.7382(2)
H59 H 0.2260 0.3084 0.7684
H60 H 0.1857 0.3589 0.6663
H61 H 0.1312 0.4277 0.7704
C34 C 0.7402(3) 0.6963(2) 0.71840(19)
H62 H 0.8013 0.7616 0.7630
H63 H 0.8166 0.6687 0.6648
H64 H 0.7139 0.6341 0.7568
S1 S 0.06709(7) -0.04548(5) 0.93439(5)
O1 O 0.0858(2) -0.10300(15) 0.83497(12)
O2 O 0.2165(2) -0.04839(15) 1.00423(12)
O3 O -0.1032(2) -0.06284(17) 0.97175(14)
F1 F -0.06116(19) 0.13009(12) 0.85777(11)
F2 F 0.2212(2) 0.14326(13) 0.88828(12)
F3 F 0.0513(2) 0.17188(13) 1.00969(11)
C35 C 0.0686(3) 0.1066(2) 0.9212(2)
S2 S 0.93049(8) 0.58346(6) 0.95503(5)
O4 O 1.0738(2) 0.65891(17) 1.00165(17)
O5 O 0.9421(2) 0.54276(17) 0.85071(13)
O6 O 0.7550(2) 0.61396(18) 0.97988(14)
F4 F 1.1186(2) 0.41318(16) 0.99189(16)
F5 F 0.8385(2) 0.37144(17) 0.97243(18)
F6 F 0.9533(3) 0.4732(3) 1.10758(16)
C36 C 0.9617(4) 0.4537(3) 1.0093(2)
S3 S 0.08635(8) 0.89909(6) 0.47410(5)
O7 O -0.0990(2) 0.86415(17) 0.46651(14)
O8 O 0.1510(2) 0.92952(15) 0.38241(13)
O9 O 0.2019(2) 0.83180(16) 0.52549(14)
F7 F -0.0023(3) 1.11147(17) 0.52027(15)
F8 F 0.2648(2) 1.08246(16) 0.56842(13)
F9 F 0.0489(2) 1.02675(17) 0.64653(12)
C37 C 0.0992(4) 1.0362(3) 0.5567(2)
S4 S 0.92564(12) 0.40233(9) 0.45831(8)
O10 O 0.8057(6) 0.3129(4) 0.4052(4)
O11 O 1.1098(9) 0.3762(8) 0.4639(7)
O12 O 0.8645(3) 0.4620(2) 0.54933(19)
F10 F 1.0280(5) 0.6030(3) 0.4197(3)
F11 F 0.9840(5) 0.4751(3) 0.2911(2)
F12 F 0.7571(5) 0.5441(4) 0.3629(3)
C38 C 0.9228(9) 0.5104(5) 0.3795(6)
S5? S 0.9495(2) 0.35541(17) 0.39709(16)
O13? O 0.9726(6) 0.3079(4) 0.2949(3)
O14? O 0.7879(12) 0.3158(10) 0.4354(7)
O15? O 1.1028(15) 0.3577(14) 0.4638(9)
F13? F 1.0399(6) 0.5578(5) 0.3539(4)
F14? F 0.7671(10) 0.5162(7) 0.3298(5)
F15? F 0.8859(5) 0.5632(4) 0.4810(3)
C39? C 0.9087(14) 0.5043(7) 0.3906(8)
loop_
_geom_bond_atom_site_label_1
_geom_bond_atom_site_label_2
_geom_bond_site_symmetry_1
_geom_bond_site_symmetry_2
N1 C1 1_555 1_555
N2 C7 1_555 1_555
C1 H1 1_555 1_555
H2 C1 1_555 1_555
C2 C1 1_555 1_555
H3 C2 1_555 1_555
H4 C2 1_555 1_555
C3 C2 1_555 1_555
H5 C3 1_555 1_555
H6 C3 1_555 1_555
C4 C3 1_555 1_555
H7 C4 1_555 1_555
H8 C4 1_555 1_555
C5 N1 1_555 1_555
H9 C5 1_555 1_555
C6 C5 1_555 1_555
H10 C6 1_555 1_555
C7 C6 1_555 1_555
H11 C7 1_555 1_555
H12 C7 1_555 1_555
C8 N2 1_555 1_555
H13 C8 1_555 1_555
H14 C8 1_555 1_555
C9 C8 1_555 1_555
H15 C9 1_555 1_555
H16 C9 1_555 1_555
C10 C9 1_555 1_555
H17 C10 1_555 1_555
H18 C10 1_555 1_555
C11 C10 1_555 1_555
H19 C11 1_555 1_555
H20 C11 1_555 1_555
C12 N2 1_555 1_555
H21 C12 1_555 1_555
C13 C12 1_555 1_555
H22 C13 1_555 1_555
C14 N1 1_555 1_555
H23 C14 1_555 1_555
H24 C14 1_555 1_555
C15 C6 1_555 1_555
H25 C15 1_555 1_555
H26 C15 1_555 1_555
C16 N1 1_555 1_555
H27 C16 1_555 1_555
H28 C16 1_555 1_555
H29 C16 1_555 1_555
C17 N2 1_555 1_555
H30 C17 1_555 1_555
H31 C17 1_555 1_555
H32 C17 1_555 1_555
N3 C18 1_555 1_555
N4 C24 1_555 1_555
C18 H33 1_555 1_555
H34 C18 1_555 1_555
C19 C18 1_555 1_555
H35 C19 1_555 1_555
H36 C19 1_555 1_555
C20 C19 1_555 1_555
H37 C20 1_555 1_555
H38 C20 1_555 1_555
C21 C20 1_555 1_555
H39 C21 1_555 1_555
H40 C21 1_555 1_555
C22 N3 1_555 1_555
H41 C22 1_555 1_555
C23 C22 1_555 1_555
H42 C23 1_555 1_555
C24 C23 1_555 1_555
H43 C24 1_555 1_555
H44 C24 1_555 1_555
C25 N4 1_555 1_555
H45 C25 1_555 1_555
H46 C25 1_555 1_555
C26 C25 1_555 1_555
H47 C26 1_555 1_555
H48 C26 1_555 1_555
C27 C26 1_555 1_555
H49 C27 1_555 1_555
H50 C27 1_555 1_555
C28 C27 1_555 1_555
H51 C28 1_555 1_555
H52 C28 1_555 1_555
C29 N4 1_555 1_555
H53 C29 1_555 1_555
C30 C29 1_555 1_555
H54 C30 1_555 1_555
C31 N3 1_555 1_555
H55 C31 1_555 1_555
H56 C31 1_555 1_555
C32 C23 1_555 1_555
H57 C32 1_555 1_555
H58 C32 1_555 1_555
C33 N3 1_555 1_555
H59 C33 1_555 1_555
H60 C33 1_555 1_555
H61 C33 1_555 1_555
C34 N4 1_555 1_555
H62 C34 1_555 1_555
H63 C34 1_555 1_555
H64 C34 1_555 1_555
S1 O1 1_555 1_555
O2 S1 1_555 1_555
O3 S1 1_555 1_555
F1 C35 1_555 1_555
F2 C35 1_555 1_555
F3 C35 1_555 1_555
C35 S1 1_555 1_555
S2 O4 1_555 1_555
O5 S2 1_555 1_555
O6 S2 1_555 1_555
F4 C36 1_555 1_555
F5 C36 1_555 1_555
F6 C36 1_555 1_555
C36 S2 1_555 1_555
S3 O7 1_555 1_555
O8 S3 1_555 1_555
O9 S3 1_555 1_555
F7 C37 1_555 1_555
F8 C37 1_555 1_555
F9 C37 1_555 1_555
C37 S3 1_555 1_555
S4 O10 1_555 1_555
O11 S4 1_555 1_555
O12 S4 1_555 1_555
F10 C38 1_555 1_555
F11 C38 1_555 1_555
F12 C38 1_555 1_555
C38 S4 1_555 1_555
C4 C5 1_555 1_555
C11 C12 1_555 1_555
C13 C14 1_555 1_555
C13 C15 1_555 1_555
C21 C22 1_555 1_555
C28 C29 1_555 1_555
C30 C31 1_555 1_555
C30 C32 1_555 1_555

#END
