
#######################################################################
#
#                 Cambridge Crystallographic Data Centre
#                                CCDC 
#
#######################################################################
#
# If this CIF has been generated from an entry in the Cambridge 
# Structural Database, then it will include bibliographic, chemical, 
# crystal, experimental, refinement or atomic coordinate data resulting 
# from the CCDC's data processing and validation procedures.
#
#######################################################################

data_ACEMAW
_chemical_formula_moiety         'C44 H68'
_chemical_name_systematic        
2,3,5,6,7,8,10,11,13,14,15,16-dodecamethylpentacyclo[10.4.0.0^2,11^.0^3,10^.0^4,9^]hexadeca-1(16),4,6,8,12,14-hexaene
_symmetry_cell_setting           monoclinic
_symmetry_space_group_name_H-M   'P 21/n'
_symmetry_Int_Tables_number      14
_space_group_name_Hall           '-P 2yn'
loop_
_symmetry_equiv_pos_site_id
_symmetry_equiv_pos_as_xyz
1 x,y,z
2 1/2-x,1/2+y,1/2-z
3 -x,-y,-z
4 1/2+x,1/2-y,1/2+z
_cell_length_a                   10.7689(5)
_cell_length_b                   9.8235(4)
_cell_length_c                   18.4390(7)
_cell_angle_alpha                90
_cell_angle_beta                 100.456(4)
_cell_angle_gamma                90
_cell_volume                     1918.24
_exptl_crystal_colour            colorless
_exptl_crystal_description       prismatic
_cell_formula_units_Z            2
loop_
_atom_site_label
_atom_site_type_symbol
_atom_site_fract_x
_atom_site_fract_y
_atom_site_fract_z
C1 C 0.0095(1) 0.4522(1) 0.55660(6)
C2 C -0.0036(1) 0.3970(1) 0.47297(6)
C3 C 0.1442(1) 0.3946(1) 0.56766(7)
C4 C 0.1325(1) 0.3488(1) 0.49591(7)
C5 C 0.2309(1) 0.2877(1) 0.46852(7)
C6 C 0.3444(1) 0.2718(1) 0.52004(9)
C7 C 0.3552(1) 0.3153(2) 0.59386(8)
C8 C 0.2545(1) 0.3809(1) 0.61958(7)
C9 C -0.0758(1) 0.4206(1) 0.61201(7)
C10 C -0.0581(2) 0.2858(2) 0.6528(1)
C11 C -0.1380(3) 0.2719(3) 0.7105(1)
C12 C -0.1025(1) 0.2996(1) 0.43345(8)
C13 C -0.1036(2) 0.1572(2) 0.4646(1)
C14 C -0.1886(3) 0.0595(2) 0.4169(1)
C15 C 0.2144(2) 0.2411(2) 0.38900(9)
C16 C 0.1906(3) 0.0889(2) 0.3770(2)
C17 C 0.4580(2) 0.2115(2) 0.4930(1)
C18 C 0.5389(3) 0.3219(4) 0.4660(3)
C19 C 0.4766(2) 0.2863(2) 0.6486(1)
C20 C 0.4787(2) 0.1451(3) 0.6826(2)
C21 C 0.2638(2) 0.4316(2) 0.69809(8)
C22 C 0.3406(2) 0.5618(2) 0.7166(1)
H1 H -0.169(2) 0.437(2) 0.585(1)
H2 H -0.057(2) 0.494(2) 0.655(1)
H3 H -0.067(3) 0.209(3) 0.623(2)
H4 H 0.040(3) 0.274(3) 0.677(1)
H5 H -0.131(3) 0.185(3) 0.736(2)
H6 H -0.208(3) 0.320(3) 0.706(2)
H7 H -0.100(4) 0.362(5) 0.750(2)
H8 H -0.091(2) 0.293(2) 0.382(1)
H9 H -0.187(2) 0.340(2) 0.430(1)
H10 H -0.140(3) 0.168(3) 0.510(2)
H11 H -0.025(3) 0.126(3) 0.489(2)
H12 H -0.194(3) -0.026(3) 0.438(2)
H13 H -0.270(3) 0.101(3) 0.389(2)
H14 H -0.143(3) 0.038(4) 0.373(2)
H15 H 0.290(2) 0.266(2) 0.368(1)
H16 H 0.140(2) 0.295(2) 0.358(1)
H17 H 0.256(3) 0.024(4) 0.402(2)
H18 H 0.118(4) 0.062(3) 0.394(2)
H19 H 0.184(3) 0.068(3) 0.322(2)
H20 H 0.510(2) 0.151(3) 0.531(1)
H21 H 0.427(2) 0.140(2) 0.448(1)
H22 H 0.576(3) 0.388(4) 0.509(2)
H23 H 0.610(3) 0.280(3) 0.452(2)
H24 H 0.480(4) 0.380(4) 0.427(2)
H25 H 0.549(2) 0.301(2) 0.623(1)
H26 H 0.491(2) 0.360(2) 0.693(1)
H27 H 0.562(3) 0.136(3) 0.724(2)
H28 H 0.470(3) 0.067(3) 0.642(2)
H29 H 0.412(3) 0.139(3) 0.711(2)
H30 H 0.297(2) 0.360(2) 0.738(1)
H31 H 0.176(2) 0.446(2) 0.711(1)
H32 H 0.301(3) 0.646(3) 0.692(2)
H33 H 0.430(3) 0.551(3) 0.711(2)
H34 H 0.345(3) 0.587(3) 0.767(2)
C1B C -0.0095(1) 0.5478(1) 0.44340(6)
C2B C 0.0036(1) 0.6030(1) 0.52703(6)
C4B C -0.1325(1) 0.6512(1) 0.50409(7)
C3B C -0.1442(1) 0.6054(1) 0.43234(7)
C9B C 0.0758(1) 0.5794(1) 0.38799(7)
C10B C 0.0581(2) 0.7142(2) 0.3472(1)
C11B C 0.1380(3) 0.7281(3) 0.2895(1)
H5B H 0.131(3) 0.815(3) 0.264(2)
H6B H 0.208(3) 0.680(3) 0.294(2)
H7B H 0.100(4) 0.638(5) 0.250(2)
H3B H 0.067(3) 0.791(3) 0.377(2)
H4B H -0.040(3) 0.726(3) 0.323(1)
H1B H 0.169(2) 0.563(2) 0.415(1)
H2B H 0.057(2) 0.506(2) 0.345(1)
C8B C -0.2545(1) 0.6191(1) 0.38042(7)
C7B C -0.3552(1) 0.6847(2) 0.40614(8)
C6B C -0.3444(1) 0.7282(1) 0.47996(9)
C5B C -0.2309(1) 0.7123(1) 0.53148(7)
C15B C -0.2144(2) 0.7589(2) 0.61100(9)
C16B C -0.1906(3) 0.9111(2) 0.6230(2)
H17B H -0.256(3) 0.976(4) 0.598(2)
H18B H -0.118(4) 0.938(3) 0.606(2)
H19B H -0.184(3) 0.932(3) 0.678(2)
H15B H -0.290(2) 0.734(2) 0.632(1)
H16B H -0.140(2) 0.705(2) 0.642(1)
C17B C -0.4580(2) 0.7885(2) 0.5070(1)
C18B C -0.5389(3) 0.6781(4) 0.5340(3)
H22B H -0.576(3) 0.612(4) 0.491(2)
H23B H -0.610(3) 0.720(3) 0.548(2)
H24B H -0.480(4) 0.620(4) 0.573(2)
H20B H -0.510(2) 0.849(3) 0.469(1)
H21B H -0.427(2) 0.860(2) 0.552(1)
C19B C -0.4766(2) 0.7137(2) 0.3514(1)
C20B C -0.4787(2) 0.8549(3) 0.3174(2)
H27B H -0.562(3) 0.864(3) 0.276(2)
H28B H -0.470(3) 0.933(3) 0.358(2)
H29B H -0.412(3) 0.861(3) 0.289(2)
H25B H -0.549(2) 0.699(2) 0.377(1)
H26B H -0.491(2) 0.640(2) 0.307(1)
C21B C -0.2638(2) 0.5684(2) 0.30191(8)
C22B C -0.3406(2) 0.4382(2) 0.2834(1)
H32B H -0.301(3) 0.354(3) 0.308(2)
H33B H -0.430(3) 0.449(3) 0.289(2)
H34B H -0.345(3) 0.413(3) 0.233(2)
H30B H -0.297(2) 0.640(2) 0.262(1)
H31B H -0.176(2) 0.554(2) 0.289(1)
C12B C 0.1025(1) 0.7004(1) 0.56655(8)
C13B C 0.1036(2) 0.8428(2) 0.5354(1)
C14B C 0.1886(3) 0.9405(2) 0.5831(1)
H12B H 0.194(3) 1.026(3) 0.562(2)
H13B H 0.270(3) 0.899(3) 0.611(2)
H14B H 0.143(3) 0.962(4) 0.627(2)
H10B H 0.140(3) 0.832(3) 0.490(2)
H11B H 0.025(3) 0.874(3) 0.511(2)
H8B H 0.091(2) 0.707(2) 0.618(1)
H9B H 0.187(2) 0.660(2) 0.570(1)
loop_
_geom_bond_atom_site_label_1
_geom_bond_atom_site_label_2
_geom_bond_site_symmetry_1
_geom_bond_site_symmetry_2
C1 C2 1_555 1_555
C2 C4 1_555 1_555
C3 C1 1_555 1_555
C4 C3 1_555 1_555
C5 C4 1_555 1_555
C6 C5 1_555 1_555
C7 C6 1_555 1_555
C8 C3 1_555 1_555
C9 C1 1_555 1_555
C10 C9 1_555 1_555
C11 C10 1_555 1_555
C12 C2 1_555 1_555
C13 C12 1_555 1_555
C14 C13 1_555 1_555
C15 C5 1_555 1_555
C16 C15 1_555 1_555
C17 C6 1_555 1_555
C18 C17 1_555 1_555
C19 C7 1_555 1_555
C20 C19 1_555 1_555
C21 C8 1_555 1_555
C22 C21 1_555 1_555
H1 C9 1_555 1_555
H2 C9 1_555 1_555
H3 C10 1_555 1_555
H4 C10 1_555 1_555
H5 C11 1_555 1_555
H6 C11 1_555 1_555
H7 C11 1_555 1_555
H8 C12 1_555 1_555
H9 C12 1_555 1_555
H10 C13 1_555 1_555
H11 C13 1_555 1_555
H12 C14 1_555 1_555
H13 C14 1_555 1_555
H14 C14 1_555 1_555
H15 C15 1_555 1_555
H16 C15 1_555 1_555
H17 C16 1_555 1_555
H18 C16 1_555 1_555
H19 C16 1_555 1_555
H20 C17 1_555 1_555
H21 C17 1_555 1_555
H22 C18 1_555 1_555
H23 C18 1_555 1_555
H24 C18 1_555 1_555
H25 C19 1_555 1_555
H26 C19 1_555 1_555
H27 C20 1_555 1_555
H28 C20 1_555 1_555
H29 C20 1_555 1_555
H30 C21 1_555 1_555
H31 C21 1_555 1_555
H32 C22 1_555 1_555
H33 C22 1_555 1_555
H34 C22 1_555 1_555
C1B C2 1_555 1_555
C2B C1 1_555 1_555
C4B C2B 1_555 1_555
C3B C1B 1_555 1_555
C9B C1B 1_555 1_555
C10B C9B 1_555 1_555
C11B C10B 1_555 1_555
H5B C11B 1_555 1_555
H6B C11B 1_555 1_555
H7B C11B 1_555 1_555
H3B C10B 1_555 1_555
H4B C10B 1_555 1_555
H1B C9B 1_555 1_555
H2B C9B 1_555 1_555
C8B C3B 1_555 1_555
C7B C8B 1_555 1_555
C6B C7B 1_555 1_555
C5B C4B 1_555 1_555
C15B C5B 1_555 1_555
C16B C15B 1_555 1_555
H17B C16B 1_555 1_555
H18B C16B 1_555 1_555
H19B C16B 1_555 1_555
H15B C15B 1_555 1_555
H16B C15B 1_555 1_555
C17B C6B 1_555 1_555
C18B C17B 1_555 1_555
H22B C18B 1_555 1_555
H23B C18B 1_555 1_555
H24B C18B 1_555 1_555
H20B C17B 1_555 1_555
H21B C17B 1_555 1_555
C19B C7B 1_555 1_555
C20B C19B 1_555 1_555
H27B C20B 1_555 1_555
H28B C20B 1_555 1_555
H29B C20B 1_555 1_555
H25B C19B 1_555 1_555
H26B C19B 1_555 1_555
C21B C8B 1_555 1_555
C22B C21B 1_555 1_555
H32B C22B 1_555 1_555
H33B C22B 1_555 1_555
H34B C22B 1_555 1_555
H30B C21B 1_555 1_555
H31B C21B 1_555 1_555
C12B C2B 1_555 1_555
C13B C12B 1_555 1_555
C14B C13B 1_555 1_555
H12B C14B 1_555 1_555
H13B C14B 1_555 1_555
H14B C14B 1_555 1_555
H10B C13B 1_555 1_555
H11B C13B 1_555 1_555
H8B C12B 1_555 1_555
H9B C12B 1_555 1_555
C7 C8 1_555 1_555
C1B C2B 1_555 1_555
C4B C3B 1_555 1_555
C6B C5B 1_555 1_555

#END
