
#######################################################################
#
#                 Cambridge Crystallographic Data Centre
#                                CCDC 
#
#######################################################################
#
# If this CIF has been generated from an entry in the Cambridge 
# Structural Database, then it will include bibliographic, chemical, 
# crystal, experimental, refinement or atomic coordinate data resulting 
# from the CCDC's data processing and validation procedures.
#
#######################################################################

data_ACENON
_chemical_formula_moiety         'C22 H24 N2 O1'
_chemical_name_systematic        
4-(2-((2,2-Dimethyl-2,3-dihydroquinolin-4(1H)-ylidene)amino)phenyl)-2-methylbut-3-yn-2-ol
_symmetry_cell_setting           monoclinic
_symmetry_space_group_name_H-M   'C 2/c'
_symmetry_Int_Tables_number      15
_space_group_name_Hall           '-C 2yn'
loop_
_symmetry_equiv_pos_site_id
_symmetry_equiv_pos_as_xyz
1 x,y,z
2 -x,y,1/2-z
3 1/2+x,1/2+y,z
4 1/2-x,1/2+y,1/2-z
5 -x,-y,-z
6 x,-y,1/2+z
7 1/2-x,1/2-y,-z
8 1/2+x,1/2-y,1/2+z
_cell_length_a                   25.654(7)
_cell_length_b                   8.808(2)
_cell_length_c                   19.318(5)
_cell_angle_alpha                90
_cell_angle_beta                 119.538(2)
_cell_angle_gamma                90
_cell_volume                     3797.77
_exptl_crystal_colour            colorless
_exptl_crystal_description       block
_cell_formula_units_Z            8
loop_
_atom_site_label
_atom_site_type_symbol
_atom_site_fract_x
_atom_site_fract_y
_atom_site_fract_z
N1 N 0.11162(10) 1.0025(3) 0.14685(13)
C1 C 0.09887(12) 0.8653(3) 0.17300(17)
C2 C 0.05404(12) 0.7632(3) 0.03711(18)
C3 C 0.04272(13) 0.7847(3) -0.02989(18)
O1 O -0.03023(9) 0.7864(3) -0.16736(12)
H1 H -0.0518 0.8383 -0.1565
C4 C 0.06863(12) 0.7458(3) 0.11891(16)
C5 C 0.10952(14) 0.8516(4) 0.25017(18)
H2 H 0.1290 0.9297 0.2863
C6 C 0.15182(13) 1.0108(3) 0.12585(16)
C7 C 0.05196(14) 0.6173(4) 0.14431(19)
H3 H 0.0329 0.5380 0.1090
C8 C 0.16102(14) 1.1532(4) 0.09430(17)
C9 C 0.03061(13) 0.8159(3) -0.11171(17)
C10 C 0.19199(14) 0.8823(4) 0.1297(2)
H4 H 0.1781 0.8425 0.0767
H5 H 0.1901 0.8011 0.1623
C11 C 0.06351(15) 0.6063(4) 0.2219(2)
H6 H 0.0522 0.5195 0.2387
N2 N 0.25731(13) 1.0611(4) 0.11705(19)
H7 H 0.2848 1.0652 0.1039
C12 C 0.11786(15) 1.2674(4) 0.06401(19)
H8 H 0.0820 1.2535 0.0641
C13 C 0.25636(14) 0.9359(4) 0.1646(2)
C14 C 0.09163(16) 0.7234(4) 0.2746(2)
H9 H 0.0986 0.7165 0.3266
C15 C 0.21458(15) 1.1745(4) 0.0924(2)
C16 C 0.12701(18) 1.3994(4) 0.0341(2)
H10 H 0.0973 1.4733 0.0134
C17 C 0.06644(16) 0.7083(5) -0.1331(2)
H11 H 0.0541 0.6058 -0.1321
H12 H 0.1083 0.7191 -0.0954
H13 H 0.0596 0.7319 -0.1855
C18 C 0.17996(19) 1.4220(4) 0.0349(2)
H14 H 0.1866 1.5132 0.0161
C19 C 0.04631(16) 0.9813(4) -0.1172(2)
H15 H 0.0359 1.0043 -0.1711
H16 H 0.0885 0.9967 -0.0830
H17 H 0.0244 1.0468 -0.1009
C20 C 0.29642(19) 0.8099(5) 0.1631(3)
H18 H 0.2832 0.7813 0.1090
H19 H 0.2943 0.7236 0.1919
H20 H 0.3370 0.8454 0.1874
C21 C 0.22346(18) 1.3122(4) 0.0630(2)
H21 H 0.2591 1.3289 0.0625
C22 C 0.27922(17) 0.9870(5) 0.2534(3)
H22 H 0.3206 1.0158 0.2777
H23 H 0.2749 0.9043 0.2826
H24 H 0.2560 1.0719 0.2540
loop_
_geom_bond_atom_site_label_1
_geom_bond_atom_site_label_2
_geom_bond_site_symmetry_1
_geom_bond_site_symmetry_2
N1 C1 1_555 1_555
C1 C4 1_555 1_555
C2 C3 1_555 1_555
C3 C9 1_555 1_555
O1 H1 1_555 1_555
C4 C2 1_555 1_555
C5 C1 1_555 1_555
H2 C5 1_555 1_555
C6 N1 1_555 1_555
C7 C4 1_555 1_555
H3 C7 1_555 1_555
C8 C6 1_555 1_555
C9 O1 1_555 1_555
C10 C6 1_555 1_555
H4 C10 1_555 1_555
H5 C10 1_555 1_555
C11 C7 1_555 1_555
H6 C11 1_555 1_555
N2 H7 1_555 1_555
C12 C8 1_555 1_555
H8 C12 1_555 1_555
C13 C10 1_555 1_555
C14 C5 1_555 1_555
H9 C14 1_555 1_555
C15 C8 1_555 1_555
C16 C12 1_555 1_555
H10 C16 1_555 1_555
C17 C9 1_555 1_555
H11 C17 1_555 1_555
H12 C17 1_555 1_555
H13 C17 1_555 1_555
C18 C16 1_555 1_555
H14 C18 1_555 1_555
C19 C9 1_555 1_555
H15 C19 1_555 1_555
H16 C19 1_555 1_555
H17 C19 1_555 1_555
C20 C13 1_555 1_555
H18 C20 1_555 1_555
H19 C20 1_555 1_555
H20 C20 1_555 1_555
C21 C15 1_555 1_555
H21 C21 1_555 1_555
C22 C13 1_555 1_555
H22 C22 1_555 1_555
H23 C22 1_555 1_555
H24 C22 1_555 1_555
C11 C14 1_555 1_555
N2 C13 1_555 1_555
N2 C15 1_555 1_555
C18 C21 1_555 1_555

#END
