
#######################################################################
#
#                 Cambridge Crystallographic Data Centre
#                                CCDC 
#
#######################################################################
#
# If this CIF has been generated from an entry in the Cambridge 
# Structural Database, then it will include bibliographic, chemical, 
# crystal, experimental, refinement or atomic coordinate data resulting 
# from the CCDC's data processing and validation procedures.
#
#######################################################################

data_ACENHT
_chemical_formula_moiety         'C14 H15 N3 O3 S1'
_chemical_name_systematic        
(2Z)-3-(2'-Acetylaminoethyl)-2-nitromethylene-4-phenyl-2,3-dihydrothiazole
_symmetry_cell_setting           monoclinic
_symmetry_space_group_name_H-M   'P 21/c'
_symmetry_Int_Tables_number      14
_space_group_name_Hall           '-P 2ybc'
loop_
_symmetry_equiv_pos_site_id
_symmetry_equiv_pos_as_xyz
1 x,y,z
2 -x,1/2+y,1/2-z
3 -x,-y,-z
4 x,1/2-y,1/2+z
_cell_length_a                   11.994(3)
_cell_length_b                   8.791(3)
_cell_length_c                   13.230(4)
_cell_angle_alpha                90
_cell_angle_beta                 92.85(3)
_cell_angle_gamma                90
_cell_volume                     1393.24
_chemical_melting_point          237-8deg.C
_cell_formula_units_Z            4
loop_
_atom_site_label
_atom_site_type_symbol
_atom_site_fract_x
_atom_site_fract_y
_atom_site_fract_z
S1 S -0.06900 -0.24910 0.11690
O1 O -0.14170 -0.52500 0.12420
O2 O -0.05170 -0.74080 0.14080
O3 O 0.47470 -0.18020 0.22200
N1 N 0.14050 -0.28040 0.10540
N2 N -0.05060 -0.59820 0.13040
N3 N 0.30520 -0.23020 0.28100
C1 C 0.01190 -0.09000 0.10880
C2 C 0.12100 -0.12290 0.10000
C3 C 0.04710 -0.36390 0.11570
C4 C 0.04580 -0.52080 0.12510
C5 C 0.25380 -0.34760 0.11390
C6 C 0.28940 -0.37090 0.22520
C7 C 0.39910 -0.14670 0.27630
C8 C 0.40570 -0.01270 0.34640
C9 C 0.21040 -0.01340 0.07800
C10 C 0.23380 0.10820 0.14080
C11 C 0.31780 0.21080 0.11890
C12 C 0.37400 0.19460 0.03230
C13 C 0.35140 0.07580 -0.03150
C14 C 0.26960 -0.03020 -0.01030
H1 H -0.01900 0.00200 0.10000
H2 H 0.24600 -0.20300 0.30900
H3 H 0.10600 -0.57800 0.12100
H4 H 0.30400 -0.27200 0.08700
H5 H 0.24800 -0.43200 0.08200
H6 H 0.23600 -0.43800 0.25900
H7 H 0.35500 -0.42700 0.22200
H8 H 0.33400 0.01900 0.38500
H9 H 0.46300 -0.02800 0.40300
H10 H 0.43000 0.06400 0.32300
H11 H 0.18800 0.12000 0.20100
H12 H 0.33100 0.27700 0.15900
H13 H 0.42100 0.25200 0.02000
H14 H 0.38000 0.05600 -0.08600
H15 H 0.24500 -0.10600 -0.05700
loop_
_geom_bond_atom_site_label_1
_geom_bond_atom_site_label_2
_geom_bond_site_symmetry_1
_geom_bond_site_symmetry_2
S1 C1 1_555 1_555
O1 N2 1_555 1_555
O2 N2 1_555 1_555
O3 C7 1_555 1_555
N1 C2 1_555 1_555
N2 C4 1_555 1_555
N3 C6 1_555 1_555
C1 C2 1_555 1_555
C2 C9 1_555 1_555
C3 S1 1_555 1_555
C4 C3 1_555 1_555
C5 N1 1_555 1_555
C6 C5 1_555 1_555
C7 N3 1_555 1_555
C8 C7 1_555 1_555
C9 C10 1_555 1_555
C10 C11 1_555 1_555
C11 C12 1_555 1_555
C12 C13 1_555 1_555
C13 C14 1_555 1_555
C14 C9 1_555 1_555
H1 C1 1_555 1_555
H2 N3 1_555 1_555
H3 C4 1_555 1_555
H4 C5 1_555 1_555
H5 C5 1_555 1_555
H6 C6 1_555 1_555
H7 C6 1_555 1_555
H8 C8 1_555 1_555
H9 C8 1_555 1_555
H10 C8 1_555 1_555
H11 C10 1_555 1_555
H12 C11 1_555 1_555
H13 C12 1_555 1_555
H14 C13 1_555 1_555
H15 C14 1_555 1_555
N1 C3 1_555 1_555

#END
