
#######################################################################
#
#                 Cambridge Crystallographic Data Centre
#                                CCDC 
#
#######################################################################
#
# If this CIF has been generated from an entry in the Cambridge 
# Structural Database, then it will include bibliographic, chemical, 
# crystal, experimental, refinement or atomic coordinate data resulting 
# from the CCDC's data processing and validation procedures.
#
#######################################################################

data_ACENAZ
_chemical_formula_moiety         'C16 H15 Cl1 N2 O2'
_chemical_name_systematic        
4-Chloro-N'-(1-(4-methoxyphenyl)ethylidene)benzohydrazide
_symmetry_cell_setting           orthorhombic
_symmetry_space_group_name_H-M   'P c a 21'
_symmetry_Int_Tables_number      29
_space_group_name_Hall           'P 2c -2ac'
loop_
_symmetry_equiv_pos_site_id
_symmetry_equiv_pos_as_xyz
1 x,y,z
2 -x,-y,1/2+z
3 1/2+x,-y,z
4 1/2-x,y,1/2+z
_cell_length_a                   8.507(5)
_cell_length_b                   5.571(3)
_cell_length_c                   32.154(18)
_cell_angle_alpha                90
_cell_angle_beta                 90
_cell_angle_gamma                90
_cell_volume                     1523.86
_exptl_crystal_colour            colorless
_exptl_crystal_description       block
_cell_formula_units_Z            4
loop_
_atom_site_label
_atom_site_type_symbol
_atom_site_fract_x
_atom_site_fract_y
_atom_site_fract_z
Cl1 Cl 0.63402(10) -0.35608(17) 0.55401(2)
O1 O 0.23395(19) -0.2368(3) 0.73101(6)
O2 O 0.1544(3) 0.2637(4) 0.97407(6)
N1 N 0.4220(2) 0.0368(4) 0.74761(6)
H1 H 0.4997 0.1247 0.7398
N2 N 0.3562(2) 0.0582(4) 0.78732(6)
C1 C 0.5573(3) -0.2877(5) 0.60312(7)
C2 C 0.6004(3) -0.0757(5) 0.62228(8)
H2 H 0.6699 0.0291 0.6093
C3 C 0.5392(3) -0.0206(5) 0.66114(8)
H3 H 0.5674 0.1225 0.6740
C4 C 0.4351(3) -0.1777(4) 0.68127(7)
C5 C 0.3943(3) -0.3911(5) 0.66070(9)
H4 H 0.3251 -0.4975 0.6734
C6 C 0.4545(3) -0.4464(5) 0.62207(8)
H5 H 0.4265 -0.5887 0.6089
C7 C 0.3574(2) -0.1287(4) 0.72220(7)
C8 C 0.3939(2) 0.2444(4) 0.80955(8)
C9 C 0.4957(3) 0.4479(4) 0.79492(9)
H6 H 0.5988 0.4321 0.8068
H7 H 0.4502 0.5976 0.8035
H8 H 0.5031 0.4441 0.7651
C10 C 0.3284(3) 0.2476(4) 0.85240(7)
C11 C 0.3688(3) 0.4267(5) 0.88099(8)
H9 H 0.4363 0.5493 0.8728
C12 C 0.3105(4) 0.4250(5) 0.92094(8)
H10 H 0.3403 0.5450 0.9394
C13 C 0.2073(3) 0.2457(4) 0.93404(8)
C14 C 0.1656(3) 0.0666(5) 0.90604(8)
H11 H 0.0972 -0.0549 0.9142
C15 C 0.2258(3) 0.0687(4) 0.86598(7)
H12 H 0.1970 -0.0526 0.8476
C16 C 0.0616(4) 0.0732(7) 0.99019(10)
H13 H -0.0352 0.0634 0.9750
H14 H 0.0394 0.1027 1.0190
H15 H 0.1180 -0.0753 0.9875
loop_
_geom_bond_atom_site_label_1
_geom_bond_atom_site_label_2
_geom_bond_site_symmetry_1
_geom_bond_site_symmetry_2
Cl1 C1 1_555 1_555
O1 C7 1_555 1_555
O2 C13 1_555 1_555
N1 H1 1_555 1_555
N2 N1 1_555 1_555
C1 C2 1_555 1_555
C2 H2 1_555 1_555
C3 C2 1_555 1_555
H3 C3 1_555 1_555
C4 C3 1_555 1_555
C5 C4 1_555 1_555
H4 C5 1_555 1_555
C6 C1 1_555 1_555
H5 C6 1_555 1_555
C7 N1 1_555 1_555
C8 N2 1_555 1_555
C9 C8 1_555 1_555
H6 C9 1_555 1_555
H7 C9 1_555 1_555
H8 C9 1_555 1_555
C10 C8 1_555 1_555
C11 C10 1_555 1_555
H9 C11 1_555 1_555
C12 C11 1_555 1_555
H10 C12 1_555 1_555
C13 C12 1_555 1_555
C14 C13 1_555 1_555
H11 C14 1_555 1_555
C15 C10 1_555 1_555
H12 C15 1_555 1_555
C16 O2 1_555 1_555
H13 C16 1_555 1_555
H14 C16 1_555 1_555
H15 C16 1_555 1_555
C4 C7 1_555 1_555
C5 C6 1_555 1_555
C14 C15 1_555 1_555

#END
