
#######################################################################
#
#                 Cambridge Crystallographic Data Centre
#                                CCDC 
#
#######################################################################
#
# If this CIF has been generated from an entry in the Cambridge 
# Structural Database, then it will include bibliographic, chemical, 
# crystal, experimental, refinement or atomic coordinate data resulting 
# from the CCDC's data processing and validation procedures.
#
#######################################################################

data_ACEPEE
_chemical_formula_moiety         'C22 H20 N2 O3'
_chemical_name_systematic        
2-Amino-6-methoxy-4-(4-methoxyphenyl)-9,10-dihydro-4H-benzo(f)chromene-3-carbonitrile
_symmetry_cell_setting           monoclinic
_symmetry_space_group_name_H-M   'P 21/c'
_symmetry_Int_Tables_number      14
_space_group_name_Hall           '-P 2ybc'
loop_
_symmetry_equiv_pos_site_id
_symmetry_equiv_pos_as_xyz
1 x,y,z
2 x,1/2-y,1/2+z
3 -x,-y,-z
4 -x,1/2+y,1/2-z
_cell_length_a                   10.267(2)
_cell_length_b                   7.0110(10)
_cell_length_c                   26.352(3)
_cell_angle_alpha                90
_cell_angle_beta                 93.940(10)
_cell_angle_gamma                90
_cell_volume                     1892.38
_exptl_crystal_colour            colorless
_exptl_crystal_description       block
_chemical_melting_point          '464-466 K'
_cell_formula_units_Z            4
_exptl_crystal_recrystallization_method ethanol
loop_
_atom_site_label
_atom_site_type_symbol
_atom_site_fract_x
_atom_site_fract_y
_atom_site_fract_z
O1 O 0.55965(11) 0.56348(17) 0.40812(5)
O2 O 0.10412(15) 0.4190(2) 0.18624(5)
O3 O -0.14968(12) 0.6129(2) 0.45355(5)
N1 N 0.61999(18) 0.3506(3) 0.46760(7)
N2 N 0.38465(17) -0.0303(2) 0.45513(6)
C1 C 0.49057(17) 0.6150(2) 0.36315(7)
C2 C 0.55173(18) 0.7821(2) 0.33962(7)
H1 H 0.6210 0.7394 0.3191
H2 H 0.5897 0.8654 0.3660
C3 C 0.4503(2) 0.8905(3) 0.30662(7)
H3 H 0.3970 0.9653 0.3282
H4 H 0.4941 0.9780 0.2849
C4 C 0.36354(19) 0.7597(3) 0.27399(7)
C5 C 0.3162(2) 0.8090(3) 0.22557(8)
H5 H 0.3424 0.9238 0.2118
C6 C 0.2317(2) 0.6945(3) 0.19707(8)
H6 H 0.2025 0.7309 0.1643
C7 C 0.18990(19) 0.5251(3) 0.21697(7)
C8 C 0.23750(17) 0.4693(3) 0.26529(6)
H7 H 0.2104 0.3545 0.2788
C9 C 0.32608(17) 0.5852(2) 0.29380(6)
C10 C 0.38416(17) 0.5244(2) 0.34412(6)
C11 C 0.32297(16) 0.3658(2) 0.37346(6)
H8 H 0.3013 0.2608 0.3498
C12 C 0.42317(17) 0.2936(2) 0.41403(6)
C13 C 0.53041(17) 0.3943(3) 0.43024(7)
C14 C 0.19714(16) 0.4328(2) 0.39540(6)
C15 C 0.18579(17) 0.6156(3) 0.41393(6)
H9 H 0.2567 0.6978 0.4130
C16 C 0.07305(17) 0.6813(3) 0.43390(7)
H10 H 0.0687 0.8055 0.4461
C17 C -0.03256(17) 0.5616(3) 0.43564(6)
C18 C -0.02284(18) 0.3766(3) 0.41834(7)
H11 H -0.0928 0.2935 0.4206
C19 C 0.08951(18) 0.3135(3) 0.39771(7)
H12 H 0.0932 0.1897 0.3852
C20 C 0.0475(2) 0.2551(4) 0.20630(8)
H13 H 0.1142 0.1623 0.2147
H14 H -0.0154 0.2025 0.1815
H15 H 0.0049 0.2886 0.2364
C21 C -0.1748(2) 0.8085(3) 0.46063(9)
H16 H -0.1186 0.8562 0.4884
H17 H -0.2643 0.8254 0.4681
H18 H -0.1586 0.8772 0.4302
C22 C 0.40198(17) 0.1158(3) 0.43696(6)
H19 H 0.6098(18) 0.2512(19) 0.4869(6)
H20 H 0.6887(14) 0.421(2) 0.4697(8)
loop_
_geom_bond_atom_site_label_1
_geom_bond_atom_site_label_2
_geom_bond_site_symmetry_1
_geom_bond_site_symmetry_2
O1 C1 1_555 1_555
O2 C7 1_555 1_555
O3 C17 1_555 1_555
N1 C13 1_555 1_555
N2 C22 1_555 1_555
C1 C2 1_555 1_555
C2 H1 1_555 1_555
H2 C2 1_555 1_555
C3 C2 1_555 1_555
H3 C3 1_555 1_555
H4 C3 1_555 1_555
C4 C3 1_555 1_555
C5 C4 1_555 1_555
H5 C5 1_555 1_555
C6 C5 1_555 1_555
H6 C6 1_555 1_555
C7 C6 1_555 1_555
C8 C7 1_555 1_555
H7 C8 1_555 1_555
C9 C4 1_555 1_555
C10 C1 1_555 1_555
C11 C10 1_555 1_555
H8 C11 1_555 1_555
C12 C11 1_555 1_555
C13 O1 1_555 1_555
C14 C11 1_555 1_555
C15 C14 1_555 1_555
H9 C15 1_555 1_555
C16 C15 1_555 1_555
H10 C16 1_555 1_555
C17 C16 1_555 1_555
C18 C17 1_555 1_555
H11 C18 1_555 1_555
C19 C14 1_555 1_555
H12 C19 1_555 1_555
C20 O2 1_555 1_555
H13 C20 1_555 1_555
H14 C20 1_555 1_555
H15 C20 1_555 1_555
C21 O3 1_555 1_555
H16 C21 1_555 1_555
H17 C21 1_555 1_555
H18 C21 1_555 1_555
C22 C12 1_555 1_555
H19 N1 1_555 1_555
H20 N1 1_555 1_555
C8 C9 1_555 1_555
C9 C10 1_555 1_555
C12 C13 1_555 1_555
C18 C19 1_555 1_555

#END
