
#######################################################################
#
#                 Cambridge Crystallographic Data Centre
#                                CCDC 
#
#######################################################################
#
# If this CIF has been generated from an entry in the Cambridge 
# Structural Database, then it will include bibliographic, chemical, 
# crystal, experimental, refinement or atomic coordinate data resulting 
# from the CCDC's data processing and validation procedures.
#
#######################################################################

data_ACEQAB
_chemical_formula_moiety         'C8 H7 N1 O1'
_chemical_name_systematic        p-Anisolecarbonitrile
_symmetry_cell_setting           monoclinic
_symmetry_space_group_name_H-M   'P 21/c'
_symmetry_Int_Tables_number      14
_space_group_name_Hall           '-P 2ybc'
loop_
_symmetry_equiv_pos_site_id
_symmetry_equiv_pos_as_xyz
1 x,y,z
2 x,1/2-y,1/2+z
3 -x,-y,-z
4 -x,1/2+y,1/2-z
_cell_length_a                   7.5924(7)
_cell_length_b                   8.6639(8)
_cell_length_c                   21.7191(19)
_cell_angle_alpha                90
_cell_angle_beta                 107.396(2)
_cell_angle_gamma                90
_cell_volume                     1363.33
_exptl_crystal_colour            colorless
_exptl_crystal_description       block
_cell_formula_units_Z            8
loop_
_atom_site_label
_atom_site_type_symbol
_atom_site_fract_x
_atom_site_fract_y
_atom_site_fract_z
C1 C 0.41852(14) 0.32076(13) 0.25063(5)
C2 C 0.39507(14) 0.32069(12) 0.31368(5)
C3 C 0.39048(15) 0.18219(13) 0.34590(5)
C4 C 0.36668(14) 0.18284(12) 0.40658(5)
C5 C 0.34752(14) 0.32307(12) 0.43541(5)
C6 C 0.35151(14) 0.46203(12) 0.40322(5)
C7 C 0.37630(14) 0.46113(13) 0.34312(5)
C8 C 0.34057(17) 0.20016(15) 0.53290(6)
H1 H 0.2429 0.1272 0.5114
H2 H 0.3290 0.2269 0.5754
H3 H 0.4614 0.1527 0.5382
H7 H 0.4031(18) 0.0822(18) 0.3242(7)
H8 H 0.3606(18) 0.0842(17) 0.4286(7)
H9 H 0.3383(18) 0.5572(17) 0.4243(7)
H10 H 0.3848(17) 0.5596(16) 0.3211(6)
N1 N 0.43502(14) 0.32228(12) 0.19962(5)
O1 O 0.32373(11) 0.33654(9) 0.49469(4)
C9 C 0.15365(15) 0.71638(13) 0.01046(5)
C10 C 0.14131(14) 0.77237(12) 0.07127(5)
C11 C 0.12877(15) 0.66969(12) 0.11939(5)
C12 C 0.11522(14) 0.72441(12) 0.17781(5)
C13 C 0.11236(13) 0.88292(12) 0.18798(5)
C14 C 0.12606(15) 0.98575(12) 0.13996(5)
C15 C 0.14057(14) 0.93144(12) 0.08229(5)
C16 C 0.09368(16) 0.84855(13) 0.29489(5)
H4 H -0.0100 0.7765 0.2804
H5 H 0.0795 0.9100 0.3310
H6 H 0.2096 0.7904 0.3089
H11 H 0.1281(18) 0.5583(18) 0.1126(7)
H12 H 0.1059(17) 0.6526(15) 0.2110(7)
H13 H 0.1253(17) 1.0930(18) 0.1476(6)
H14 H 0.1532(17) 1.0014(16) 0.0494(6)
N2 N 0.16209(16) 0.67242(12) -0.03857(5)
O2 O 0.09666(10) 0.94893(9) 0.24283(3)
loop_
_geom_bond_atom_site_label_1
_geom_bond_atom_site_label_2
_geom_bond_site_symmetry_1
_geom_bond_site_symmetry_2
C1 C2 1_555 1_555
C2 C3 1_555 1_555
C3 C4 1_555 1_555
C4 C5 1_555 1_555
C5 C6 1_555 1_555
C6 C7 1_555 1_555
C7 C2 1_555 1_555
C8 H1 1_555 1_555
H2 C8 1_555 1_555
H3 C8 1_555 1_555
C9 C10 1_555 1_555
C10 C11 1_555 1_555
C11 C12 1_555 1_555
C12 C13 1_555 1_555
C13 C14 1_555 1_555
C14 C15 1_555 1_555
C15 C10 1_555 1_555
C16 H4 1_555 1_555
H5 C16 1_555 1_555
H6 C16 1_555 1_555
H7 C3 1_555 1_555
H8 C4 1_555 1_555
H9 C6 1_555 1_555
H10 C7 1_555 1_555
H11 C11 1_555 1_555
H12 C12 1_555 1_555
H13 C14 1_555 1_555
H14 C15 1_555 1_555
N1 C1 1_555 1_555
N2 C9 1_555 1_555
O1 C5 1_555 1_555
O2 C13 1_555 1_555
C8 O1 1_555 1_555
C16 O2 1_555 1_555

#END
