
#######################################################################
#
#                 Cambridge Crystallographic Data Centre
#                                CCDC 
#
#######################################################################
#
# If this CIF has been generated from an entry in the Cambridge 
# Structural Database, then it will include bibliographic, chemical, 
# crystal, experimental, refinement or atomic coordinate data resulting 
# from the CCDC's data processing and validation procedures.
#
#######################################################################

data_ACERIK01
_chemical_formula_moiety         'C13 H10 N4 O4'
_chemical_name_systematic        
'(E)-2-Nitrobenzaldehyde 4-nitrophenylhydrazone'
_symmetry_cell_setting           monoclinic
_symmetry_space_group_name_H-M   'P 21/n'
_symmetry_Int_Tables_number      14
_space_group_name_Hall           '-P 2yn'
loop_
_symmetry_equiv_pos_site_id
_symmetry_equiv_pos_as_xyz
1 x,y,z
2 1/2-x,1/2+y,1/2-z
3 -x,-y,-z
4 1/2+x,1/2-y,1/2+z
_cell_length_a                   7.1134(2)
_cell_length_b                   12.0842(5)
_cell_length_c                   14.3190(6)
_cell_angle_alpha                90
_cell_angle_beta                 92.624(2)
_cell_angle_gamma                90
_cell_volume                     1229.57
_exptl_crystal_colour            colorless
_exptl_crystal_description       plate
_cell_formula_units_Z            4
_exptl_crystal_recrystallization_method ethanol
loop_
_atom_site_label
_atom_site_type_symbol
_atom_site_fract_x
_atom_site_fract_y
_atom_site_fract_z
O1 O 0.73241(15) 0.33101(8) 0.82298(7)
O2 O 0.70871(16) 0.16840(9) 0.88338(7)
O3 O -0.00609(14) 0.81117(8) 0.30158(6)
O4 O 0.03642(14) 0.94804(8) 0.39777(7)
N1 N 0.34709(16) 0.55738(9) 0.64646(8)
N2 N 0.36844(15) 0.44833(9) 0.62764(8)
N3 N 0.04478(14) 0.84879(9) 0.37967(7)
N4 N 0.67585(16) 0.23528(9) 0.82027(8)
C1 C 0.27104(17) 0.62700(11) 0.57939(9)
C2 C 0.26017(18) 0.74045(11) 0.60029(9)
C3 C 0.18288(18) 0.81329(11) 0.53564(9)
C4 C 0.11711(17) 0.77266(10) 0.44916(9)
C5 C 0.12580(18) 0.66068(11) 0.42772(9)
C6 C 0.20225(18) 0.58757(11) 0.49214(9)
C7 C 0.47066(17) 0.27057(10) 0.67573(9)
C8 C 0.56730(18) 0.19667(11) 0.73658(9)
C9 C 0.57388(18) 0.08369(11) 0.71966(9)
C10 C 0.48742(19) 0.04096(11) 0.63951(10)
C11 C 0.39468(18) 0.11216(12) 0.57631(9)
C12 C 0.38577(18) 0.22401(11) 0.59457(9)
C13 C 0.44610(17) 0.38921(11) 0.69311(9)
H1 H 0.3822 0.5835 0.7019
H2 H 0.3065 0.7669 0.6594
H3 H 0.1744 0.8899 0.5497
H4 H 0.0788 0.6348 0.3685
H5 H 0.2086 0.5109 0.4779
H6 H 0.6378 0.0360 0.7632
H7 H 0.4910 -0.0363 0.6275
H8 H 0.3372 0.0835 0.5202
H9 H 0.3202 0.2709 0.5509
H10 H 0.4865 0.4214 0.7512
loop_
_geom_bond_atom_site_label_1
_geom_bond_atom_site_label_2
_geom_bond_site_symmetry_1
_geom_bond_site_symmetry_2
O1 N4 1_555 1_555
O2 N4 1_555 1_555
O3 N3 1_555 1_555
O4 N3 1_555 1_555
N1 N2 1_555 1_555
N2 C13 1_555 1_555
N3 C4 1_555 1_555
N4 C8 1_555 1_555
C1 N1 1_555 1_555
C2 C1 1_555 1_555
C3 C2 1_555 1_555
C4 C3 1_555 1_555
C5 C4 1_555 1_555
C6 C1 1_555 1_555
C7 C8 1_555 1_555
C8 C9 1_555 1_555
C9 C10 1_555 1_555
C10 C11 1_555 1_555
C11 C12 1_555 1_555
C12 C7 1_555 1_555
C13 C7 1_555 1_555
H1 N1 1_555 1_555
H2 C2 1_555 1_555
H3 C3 1_555 1_555
H4 C5 1_555 1_555
H5 C6 1_555 1_555
H6 C9 1_555 1_555
H7 C10 1_555 1_555
H8 C11 1_555 1_555
H9 C12 1_555 1_555
H10 C13 1_555 1_555
C5 C6 1_555 1_555

#END
