
#######################################################################
#
#                 Cambridge Crystallographic Data Centre
#                                CCDC 
#
#######################################################################
#
# If this CIF has been generated from an entry in the Cambridge 
# Structural Database, then it will include bibliographic, chemical, 
# crystal, experimental, refinement or atomic coordinate data resulting 
# from the CCDC's data processing and validation procedures.
#
#######################################################################

data_ACERIK
_chemical_formula_moiety         'C13 H10 N4 O4'
_chemical_name_systematic        '2-Nitrobenzaldehyde 4-nitrophenylhydrazone'
_symmetry_cell_setting           monoclinic
_symmetry_space_group_name_H-M   'P 21/n'
_symmetry_Int_Tables_number      14
_space_group_name_Hall           '-P 2yn'
loop_
_symmetry_equiv_pos_site_id
_symmetry_equiv_pos_as_xyz
1 x,y,z
2 1/2-x,1/2+y,1/2-z
3 -x,-y,-z
4 1/2+x,1/2-y,1/2+z
_cell_length_a                   7.2570(7)
_cell_length_b                   12.0869(11)
_cell_length_c                   14.4455(11)
_cell_angle_alpha                90
_cell_angle_beta                 93.465(2)
_cell_angle_gamma                90
_cell_volume                     1264.77
_exptl_crystal_colour            red
_exptl_crystal_description       prism
_cell_formula_units_Z            4
_exptl_crystal_recrystallization_method ethanol/acetone
loop_
_atom_site_label
_atom_site_type_symbol
_atom_site_fract_x
_atom_site_fract_y
_atom_site_fract_z
O1 O -0.00642(17) 0.19208(10) 0.30321(7)
O2 O 0.03558(17) 0.05519(9) 0.39773(8)
O3 O 0.7286(2) 0.66890(10) 0.82471(9)
O4 O 0.7094(2) 0.83026(11) 0.88241(9)
N1 N 0.34927(19) 0.44231(9) 0.64730(8)
H1 H 0.3837 0.4164 0.7010
N2 N 0.37078(17) 0.55105(9) 0.62929(8)
N3 N 0.04482(17) 0.15383(11) 0.38014(8)
N4 N 0.67471(18) 0.76378(11) 0.82075(9)
C1 C 0.27283(19) 0.37307(11) 0.58029(9)
C2 C 0.2606(2) 0.26020(12) 0.60004(10)
H2 H 0.3051 0.2336 0.6575
C3 C 0.1835(2) 0.18865(11) 0.53533(10)
H3 H 0.1747 0.1136 0.5486
C4 C 0.11859(19) 0.22946(12) 0.44984(9)
C5 C 0.1285(2) 0.34100(12) 0.42940(10)
H4 H 0.0830 0.3670 0.3719
C6 C 0.2053(2) 0.41295(12) 0.49376(10)
H5 H 0.2127 0.4880 0.4801
C7 C 0.4481(2) 0.60993(12) 0.69375(10)
H6 H 0.4883 0.5785 0.7502
C8 C 0.47217(19) 0.72834(11) 0.67676(9)
C9 C 0.5683(2) 0.80205(12) 0.73694(10)
C10 C 0.5749(2) 0.91451(12) 0.71953(11)
H7 H 0.6374 0.9614 0.7617
C11 C 0.4892(2) 0.95664(13) 0.64008(12)
H8 H 0.4932 1.0322 0.6281
C12 C 0.3967(2) 0.88605(14) 0.57783(11)
H9 H 0.3403 0.9141 0.5233
C13 C 0.3879(2) 0.77497(12) 0.59618(10)
H10 H 0.3238 0.7291 0.5537
loop_
_geom_bond_atom_site_label_1
_geom_bond_atom_site_label_2
_geom_bond_site_symmetry_1
_geom_bond_site_symmetry_2
O1 N3 1_555 1_555
O2 N3 1_555 1_555
O3 N4 1_555 1_555
O4 N4 1_555 1_555
N1 H1 1_555 1_555
N2 N1 1_555 1_555
N3 C4 1_555 1_555
N4 C9 1_555 1_555
C1 N1 1_555 1_555
C2 C1 1_555 1_555
H2 C2 1_555 1_555
C3 C2 1_555 1_555
H3 C3 1_555 1_555
C4 C3 1_555 1_555
C5 C4 1_555 1_555
H4 C5 1_555 1_555
C6 C1 1_555 1_555
H5 C6 1_555 1_555
C7 N2 1_555 1_555
H6 C7 1_555 1_555
C8 C7 1_555 1_555
C9 C8 1_555 1_555
C10 C9 1_555 1_555
H7 C10 1_555 1_555
C11 C10 1_555 1_555
H8 C11 1_555 1_555
C12 C11 1_555 1_555
H9 C12 1_555 1_555
C13 C8 1_555 1_555
H10 C13 1_555 1_555
C5 C6 1_555 1_555
C12 C13 1_555 1_555

#END
