
#######################################################################
#
#                 Cambridge Crystallographic Data Centre
#                                CCDC 
#
#######################################################################
#
# If this CIF has been generated from an entry in the Cambridge 
# Structural Database, then it will include bibliographic, chemical, 
# crystal, experimental, refinement or atomic coordinate data resulting 
# from the CCDC's data processing and validation procedures.
#
#######################################################################

data_ACETAE01
_chemical_name_common            'beta-D-O-Acetylglycopyranosyl azide'
_chemical_formula_moiety         'C14 H19 N3 O9'
_chemical_name_systematic        '2,3,4,6-Tetra-O-acetylglycopyranosyl azide'
_symmetry_cell_setting           monoclinic
_symmetry_space_group_name_H-M   'P 21'
_symmetry_Int_Tables_number      4
_space_group_name_Hall           'P 2yb'
loop_
_symmetry_equiv_pos_site_id
_symmetry_equiv_pos_as_xyz
1 x,y,z
2 -x,1/2+y,-z
_cell_length_a                   7.596(6)
_cell_length_b                   15.184(13)
_cell_length_c                   16.412(14)
_cell_angle_alpha                90
_cell_angle_beta                 90.045(11)
_cell_angle_gamma                90
_cell_volume                     1892.92
_exptl_crystal_colour            colorless
_exptl_crystal_description       block
_cell_formula_units_Z            4
loop_
_atom_site_label
_atom_site_type_symbol
_atom_site_fract_x
_atom_site_fract_y
_atom_site_fract_z
N1 N 1.2771(4) 0.9831(2) 0.96887(18)
N2 N 1.4387(5) 1.0011(2) 0.96182(19)
N3 N 1.5829(5) 1.0217(3) 0.9647(3)
O1 O 1.1521(3) 1.01649(15) 0.83972(13)
O2 O 0.9781(3) 1.13011(17) 0.72083(14)
O3 O 1.0310(6) 1.1842(3) 0.5940(2)
O4 O 0.7922(3) 0.92233(16) 0.71364(13)
O5 O 0.5269(4) 0.9736(3) 0.76276(18)
O6 O 0.7413(3) 0.83681(15) 0.87861(13)
O7 O 0.7353(4) 0.72259(19) 0.78744(17)
O8 O 1.0735(3) 0.81276(16) 0.96118(13)
O9 O 0.9577(6) 0.8571(2) 1.08370(18)
C1 C 1.1926(5) 0.9441(2) 0.8942(2)
H1 H 1.2740 0.9030 0.8677
C2 C 1.0235(5) 0.8951(2) 0.92070(19)
H2 H 0.9551 0.9320 0.9580
C3 C 1.0281(6) 0.7999(3) 1.0419(2)
C4 C 1.0763(7) 0.7060(3) 1.0693(2)
H3 H 0.9811 0.6667 1.0566
H4 H 1.0973 0.7055 1.1270
H5 H 1.1806 0.6871 1.0413
C5 C 0.9085(5) 0.8689(2) 0.84565(19)
H6 H 0.9667 0.8215 0.8154
C6 C 0.6714(5) 0.7591(2) 0.8478(2)
C7 C 0.5125(6) 0.7317(3) 0.8942(3)
H7 H 0.5224 0.6706 0.9087
H8 H 0.4096 0.7402 0.8611
H9 H 0.5029 0.7666 0.9428
C8 C 0.8839(5) 0.9518(2) 0.78806(19)
H10 H 0.8181 0.9987 0.8156
C9 C 0.6121(5) 0.9385(3) 0.7078(2)
C10 C 0.5463(5) 0.9102(3) 0.6248(2)
H11 H 0.4478 0.9461 0.6093
H12 H 0.5104 0.8496 0.6269
H13 H 0.6389 0.9168 0.5855
C11 C 1.0706(4) 0.9828(2) 0.76524(19)
H14 H 1.1377 0.9310 0.7478
C12 C 1.0830(5) 1.0529(2) 0.69657(19)
H15 H 1.2048 1.0699 0.6883
H16 H 1.0381 1.0288 0.6459
C13 C 0.9648(6) 1.1937(3) 0.6614(2)
C14 C 0.8674(8) 1.2738(4) 0.6923(3)
H17 H 0.8109 1.3030 0.6475
H18 H 0.9492 1.3134 0.7178
H19 H 0.7803 1.2559 0.7313
N4 N 0.2261(4) 0.0033(3) 0.46747(18)
N5 N 0.0627(4) -0.0137(2) 0.46203(17)
N6 N -0.0819(6) -0.0355(4) 0.4654(3)
O10 O 0.3477(3) -0.02948(15) 0.33959(12)
O11 O 0.5229(3) -0.14248(17) 0.22009(14)
O12 O 0.4698(5) -0.1971(3) 0.09376(18)
O13 O 0.7069(3) 0.06298(16) 0.21326(13)
O14 O 0.9727(4) 0.0141(3) 0.26209(18)
O15 O 0.7598(3) 0.15014(15) 0.37908(14)
O16 O 0.7641(4) 0.26408(19) 0.28815(17)
O17 O 0.4262(3) 0.17401(17) 0.46154(13)
O18 O 0.5415(6) 0.1302(2) 0.58362(18)
C15 C 0.3047(5) 0.0420(2) 0.39399(18)
H20 H 0.2221 0.0829 0.3679
C16 C 0.4760(5) 0.0915(2) 0.42074(19)
H21 H 0.5445 0.0545 0.4580
C17 C 0.4697(6) 0.1864(3) 0.5423(2)
C18 C 0.4236(7) 0.2783(3) 0.5680(2)
H22 H 0.5240 0.3159 0.5607
H23 H 0.3896 0.2783 0.6243
H24 H 0.3277 0.2995 0.5353
C19 C 0.5892(4) 0.1162(2) 0.34571(18)
H25 H 0.5304 0.1635 0.3155
C20 C 0.8275(5) 0.2249(2) 0.3475(2)
C21 C 0.9906(6) 0.2566(3) 0.3949(3)
H26 H 0.9564 0.3014 0.4331
H27 H 1.0753 0.2804 0.3575
H28 H 1.0418 0.2079 0.4237
C22 C 0.6171(4) 0.0373(2) 0.28868(19)
H29 H 0.6835 -0.0091 0.3166
C23 C 0.8862(5) 0.0472(2) 0.2073(2)
C24 C 0.9563(6) 0.0774(3) 0.1260(2)
H30 H 0.9138 0.0390 0.0839
H31 H 1.0827 0.0760 0.1269
H32 H 0.9171 0.1364 0.1155
C25 C 0.4294(5) 0.0033(2) 0.26486(19)
H33 H 0.3608 0.0543 0.2467
C26 C 0.4207(5) -0.0657(2) 0.1971(2)
H34 H 0.2992 -0.0826 0.1877
H35 H 0.4669 -0.0410 0.1469
C27 C 0.5349(6) -0.2068(3) 0.1599(3)
C28 C 0.6321(9) -0.2880(4) 0.1917(4)
H36 H 0.6497 -0.3289 0.1479
H37 H 0.5635 -0.3154 0.2337
H38 H 0.7442 -0.2706 0.2135
loop_
_geom_bond_atom_site_label_1
_geom_bond_atom_site_label_2
_geom_bond_site_symmetry_1
_geom_bond_site_symmetry_2
N1 N2 1_555 1_555
N2 N3 1_555 1_555
N4 N5 1_555 1_555
N5 N6 1_555 1_555
O1 C1 1_555 1_555
O2 C12 1_555 1_555
O3 C13 1_555 1_555
O4 C8 1_555 1_555
O5 C9 1_555 1_555
O6 C5 1_555 1_555
O7 C6 1_555 1_555
O8 C2 1_555 1_555
O9 C3 1_555 1_555
O10 C15 1_555 1_555
O11 C26 1_555 1_555
O12 C27 1_555 1_555
O13 C22 1_555 1_555
O14 C23 1_555 1_555
O15 C19 1_555 1_555
O16 C20 1_555 1_555
O17 C16 1_555 1_555
O18 C17 1_555 1_555
C1 N1 1_555 1_555
H1 C1 1_555 1_555
C2 C1 1_555 1_555
H2 C2 1_555 1_555
C3 O8 1_555 1_555
C4 C3 1_555 1_555
H3 C4 1_555 1_555
H4 C4 1_555 1_555
H5 C4 1_555 1_555
C5 C2 1_555 1_555
H6 C5 1_555 1_555
C6 O6 1_555 1_555
C7 C6 1_555 1_555
H7 C7 1_555 1_555
H8 C7 1_555 1_555
H9 C7 1_555 1_555
C8 C5 1_555 1_555
H10 C8 1_555 1_555
C9 O4 1_555 1_555
C10 C9 1_555 1_555
H11 C10 1_555 1_555
H12 C10 1_555 1_555
H13 C10 1_555 1_555
C11 O1 1_555 1_555
H14 C11 1_555 1_555
C12 C11 1_555 1_555
H15 C12 1_555 1_555
H16 C12 1_555 1_555
C13 O2 1_555 1_555
C14 C13 1_555 1_555
H17 C14 1_555 1_555
H18 C14 1_555 1_555
H19 C14 1_555 1_555
C15 N4 1_555 1_555
H20 C15 1_555 1_555
C16 C15 1_555 1_555
H21 C16 1_555 1_555
C17 O17 1_555 1_555
C18 C17 1_555 1_555
H22 C18 1_555 1_555
H23 C18 1_555 1_555
H24 C18 1_555 1_555
C19 C16 1_555 1_555
H25 C19 1_555 1_555
C20 O15 1_555 1_555
C21 C20 1_555 1_555
H26 C21 1_555 1_555
H27 C21 1_555 1_555
H28 C21 1_555 1_555
C22 C19 1_555 1_555
H29 C22 1_555 1_555
C23 O13 1_555 1_555
C24 C23 1_555 1_555
H30 C24 1_555 1_555
H31 C24 1_555 1_555
H32 C24 1_555 1_555
C25 O10 1_555 1_555
H33 C25 1_555 1_555
C26 C25 1_555 1_555
H34 C26 1_555 1_555
H35 C26 1_555 1_555
C27 O11 1_555 1_555
C28 C27 1_555 1_555
H36 C28 1_555 1_555
H37 C28 1_555 1_555
H38 C28 1_555 1_555
C8 C11 1_555 1_555
C22 C25 1_555 1_555

#END
