
#######################################################################
#
#                 Cambridge Crystallographic Data Centre
#                                CCDC 
#
#######################################################################
#
# If this CIF has been generated from an entry in the Cambridge 
# Structural Database, then it will include bibliographic, chemical, 
# crystal, experimental, refinement or atomic coordinate data resulting 
# from the CCDC's data processing and validation procedures.
#
#######################################################################

data_ACETIM
_chemical_formula_moiety         'C20 H22 N8 S2'
_chemical_name_systematic        
1,6-bis(1-Phenyl-1H-tetrazol-5-ylsulfanyl)hexane
_symmetry_cell_setting           monoclinic
_symmetry_space_group_name_H-M   'P 21/c'
_symmetry_Int_Tables_number      14
_space_group_name_Hall           '-P 2ybc'
loop_
_symmetry_equiv_pos_site_id
_symmetry_equiv_pos_as_xyz
1 x,y,z
2 x,1/2-y,1/2+z
3 -x,-y,-z
4 -x,1/2+y,1/2-z
_cell_length_a                   7.467(3)
_cell_length_b                   16.753(6)
_cell_length_c                   8.606(3)
_cell_angle_alpha                90
_cell_angle_beta                 101.587(7)
_cell_angle_gamma                90
_cell_volume                     1054.63
_exptl_crystal_colour            colorless
_exptl_crystal_description       block
_chemical_melting_point          '432-433 K'
_cell_formula_units_Z            2
_exptl_crystal_recrystallization_method acetonitrile
loop_
_atom_site_label
_atom_site_type_symbol
_atom_site_fract_x
_atom_site_fract_y
_atom_site_fract_z
S1 S 0.08429(9) 0.72180(4) -0.04977(9)
N1 N 0.4253(3) 0.66771(11) 0.0816(2)
N2 N 0.4226(3) 0.79034(12) 0.0002(3)
N3 N 0.5963(3) 0.76709(14) 0.0664(3)
N4 N 0.6009(3) 0.69470(13) 0.1156(3)
C1 C 0.3846(3) 0.58713(13) 0.1158(3)
C2 C 0.4712(3) 0.55395(15) 0.2570(3)
H1 H 0.5499 0.5842 0.3317
C3 C 0.4388(4) 0.47447(16) 0.2857(3)
H2 H 0.4986 0.4509 0.3797
C4 C 0.3200(4) 0.43030(15) 0.1777(3)
H3 H 0.2987 0.3770 0.1984
C5 C 0.2323(3) 0.46478(14) 0.0387(3)
H4 H 0.1496 0.4350 -0.0338
C6 C 0.2657(3) 0.54314(13) 0.0058(3)
H5 H 0.2085 0.5661 -0.0898
C7 C 0.3187(3) 0.72793(14) 0.0109(3)
C8 C 0.0337(4) 0.82298(14) -0.1190(3)
H6 H 0.1225 0.8387 -0.1815
H7 H -0.0857 0.8234 -0.1887
C9 C 0.0347(3) 0.88453(14) 0.0091(3)
H8 H 0.1526 0.8839 0.0813
H9 H -0.0580 0.8711 0.0692
C10 C -0.0019(3) 0.96732(14) -0.0605(3)
H10 H 0.0888 0.9792 -0.1236
H11 H -0.1207 0.9674 -0.1312
C10B C 0.0019(3) 1.03268(14) 0.0605(3)
C9B C -0.0347(3) 1.11547(14) -0.0091(3)
C8B C -0.0337(4) 1.17702(14) 0.1190(3)
S1B S -0.08429(9) 1.27820(4) 0.04977(9)
C7B C -0.3187(3) 1.27207(14) -0.0109(3)
N1B N -0.4253(3) 1.33229(11) -0.0816(2)
N4B N -0.6009(3) 1.30530(13) -0.1156(3)
N3B N -0.5963(3) 1.23291(14) -0.0664(3)
N2B N -0.4226(3) 1.20966(12) -0.0002(3)
C1B C -0.3846(3) 1.41287(13) -0.1158(3)
C2B C -0.4712(3) 1.44605(15) -0.2570(3)
H1B H -0.5499 1.4158 -0.3317
C3B C -0.4388(4) 1.52553(16) -0.2857(3)
H2B H -0.4986 1.5491 -0.3797
C4B C -0.3200(4) 1.56970(15) -0.1777(3)
H3B H -0.2987 1.6230 -0.1984
C5B C -0.2323(3) 1.53522(14) -0.0387(3)
H4B H -0.1496 1.5650 0.0338
C6B C -0.2657(3) 1.45686(13) -0.0058(3)
H5B H -0.2085 1.4339 0.0898
H6B H -0.1225 1.1613 0.1815
H7B H 0.0857 1.1766 0.1887
H8B H -0.1526 1.1161 -0.0813
H9B H 0.0580 1.1289 -0.0692
H10B H -0.0888 1.0208 0.1236
H11B H 0.1207 1.0326 0.1312
loop_
_geom_bond_atom_site_label_1
_geom_bond_atom_site_label_2
_geom_bond_site_symmetry_1
_geom_bond_site_symmetry_2
S1 C7 1_555 1_555
N1 N4 1_555 1_555
N2 N3 1_555 1_555
N3 N4 1_555 1_555
C1 N1 1_555 1_555
C2 C1 1_555 1_555
H1 C2 1_555 1_555
C3 C2 1_555 1_555
H2 C3 1_555 1_555
C4 C3 1_555 1_555
H3 C4 1_555 1_555
C5 C4 1_555 1_555
H4 C5 1_555 1_555
C6 C1 1_555 1_555
H5 C6 1_555 1_555
C7 N1 1_555 1_555
C8 S1 1_555 1_555
H6 C8 1_555 1_555
H7 C8 1_555 1_555
C9 C8 1_555 1_555
H8 C9 1_555 1_555
H9 C9 1_555 1_555
C10 C9 1_555 1_555
H10 C10 1_555 1_555
H11 C10 1_555 1_555
C10B C10 1_555 1_555
C9B C10B 1_555 1_555
C8B C9B 1_555 1_555
S1B C8B 1_555 1_555
C7B S1B 1_555 1_555
N1B C7B 1_555 1_555
N4B N1B 1_555 1_555
N3B N4B 1_555 1_555
N2B C7B 1_555 1_555
C1B N1B 1_555 1_555
C2B C1B 1_555 1_555
H1B C2B 1_555 1_555
C3B C2B 1_555 1_555
H2B C3B 1_555 1_555
C4B C3B 1_555 1_555
H3B C4B 1_555 1_555
C5B C4B 1_555 1_555
H4B C5B 1_555 1_555
C6B C1B 1_555 1_555
H5B C6B 1_555 1_555
H6B C8B 1_555 1_555
H7B C8B 1_555 1_555
H8B C9B 1_555 1_555
H9B C9B 1_555 1_555
H10B C10B 1_555 1_555
H11B C10B 1_555 1_555
N2 C7 1_555 1_555
C5 C6 1_555 1_555
N3B N2B 1_555 1_555
C5B C6B 1_555 1_555

#END
