
#######################################################################
#
#                 Cambridge Crystallographic Data Centre
#                                CCDC 
#
#######################################################################
#
# If this CIF has been generated from an entry in the Cambridge 
# Structural Database, then it will include bibliographic, chemical, 
# crystal, experimental, refinement or atomic coordinate data resulting 
# from the CCDC's data processing and validation procedures.
#
#######################################################################

data_ACEVOU
_chemical_formula_moiety         'C16 H10 Cl2 N2 O3,C2 H6 O1'
_chemical_name_systematic        
'2-Amino-3-cyano-4-(2,4-dichlorophenyl)-8-methylpyrano(3,2-c)pyran-5(4H)-one ethanol solvate'
_symmetry_cell_setting           triclinic
_symmetry_space_group_name_H-M   'P -1'
_symmetry_Int_Tables_number      2
_space_group_name_Hall           '-P 1'
loop_
_symmetry_equiv_pos_site_id
_symmetry_equiv_pos_as_xyz
1 x,y,z
2 -x,-y,-z
_cell_length_a                   9.2879(12)
_cell_length_b                   10.4526(12)
_cell_length_c                   11.0678(10)
_cell_angle_alpha                63.905(10)
_cell_angle_beta                 75.826(14)
_cell_angle_gamma                80.288(15)
_cell_volume                     933.29
_exptl_crystal_colour            colorless
_exptl_crystal_description       block
_chemical_melting_point          '503-504 K'
_cell_formula_units_Z            2
_exptl_crystal_recrystallization_method 'aqueous ethanol'
loop_
_atom_site_label
_atom_site_type_symbol
_atom_site_fract_x
_atom_site_fract_y
_atom_site_fract_z
Cl1 Cl 0.13535(7) 0.13002(7) 0.90105(6)
Cl2 Cl 0.42099(14) -0.35050(10) 0.88044(11)
O1 O -0.01040(18) 0.44676(18) 0.69492(18)
O2 O -0.0972(2) 0.0657(2) 0.6044(2)
O3 O -0.27994(19) 0.1663(2) 0.71198(19)
N1 N 0.1967(3) 0.5552(2) 0.6383(3)
N2 N 0.4792(2) 0.3789(3) 0.4595(3)
C1 C 0.1377(3) 0.4510(3) 0.6331(2)
C2 C 0.2047(3) 0.3575(3) 0.5777(2)
C3 C 0.1283(3) 0.2354(2) 0.5865(2)
H1 H 0.1355 0.2467 0.4907
C4 C -0.0338(3) 0.2500(3) 0.6468(2)
C5 C -0.0928(3) 0.3496(3) 0.6958(2)
C6 C -0.1320(3) 0.1556(3) 0.6500(3)
C7 C -0.3347(3) 0.2676(3) 0.7613(3)
C8 C -0.2458(3) 0.3597(3) 0.7544(3)
H2 H -0.2844 0.4305 0.7880
C9 C 0.3559(3) 0.3707(3) 0.5124(3)
C10 C 0.2035(2) 0.0898(3) 0.6642(3)
C11 C 0.2106(3) 0.0333(3) 0.8029(3)
C12 C 0.2769(3) -0.1000(3) 0.8696(3)
H3 H 0.2788 -0.1365 0.9645
C13 C 0.3407(3) -0.1795(3) 0.7954(3)
C14 C 0.3400(3) -0.1281(3) 0.6580(3)
H4 H 0.3861 -0.1829 0.6078
C15 C 0.2705(3) 0.0053(3) 0.5946(3)
H5 H 0.2684 0.0407 0.4999
C16 C -0.4959(3) 0.2581(4) 0.8216(3)
H6 H -0.5322 0.3371 0.8488
H7 H -0.5118 0.1670 0.9023
H8 H -0.5502 0.2639 0.7537
H9 H 0.137(3) 0.621(3) 0.657(3)
H10 H 0.281(4) 0.567(3) 0.609(3)
O4 O 0.0135(3) 0.2371(2) 0.3022(2)
C17 C 0.0689(7) 0.2488(5) 0.1691(4)
C19 C 0.1302(18) 0.3840(11) 0.0673(9)
H11 H 0.010(5) 0.149(5) 0.363(4)
C18? C 0.2278(16) 0.2732(18) 0.1393(17)
loop_
_geom_bond_atom_site_label_1
_geom_bond_atom_site_label_2
_geom_bond_site_symmetry_1
_geom_bond_site_symmetry_2
Cl1 C11 1_555 1_555
Cl2 C13 1_555 1_555
O1 C1 1_555 1_555
O2 C6 1_555 1_555
O3 C6 1_555 1_555
O4 C17 1_555 1_555
N1 C1 1_555 1_555
N2 C9 1_555 1_555
C1 C2 1_555 1_555
C2 C3 1_555 1_555
C3 H1 1_555 1_555
C4 C3 1_555 1_555
C5 O1 1_555 1_555
C6 C4 1_555 1_555
C7 O3 1_555 1_555
C8 C5 1_555 1_555
H2 C8 1_555 1_555
C9 C2 1_555 1_555
C10 C3 1_555 1_555
C11 C10 1_555 1_555
C12 C11 1_555 1_555
H3 C12 1_555 1_555
C13 C12 1_555 1_555
C14 C13 1_555 1_555
H4 C14 1_555 1_555
C15 C10 1_555 1_555
H5 C15 1_555 1_555
C16 C7 1_555 1_555
H6 C16 1_555 1_555
H7 C16 1_555 1_555
H8 C16 1_555 1_555
C17 C19 1_555 1_555
H9 N1 1_555 1_555
H10 N1 1_555 1_555
H11 O4 1_555 1_555
C4 C5 1_555 1_555
C7 C8 1_555 1_555
C14 C15 1_555 1_555

#END
