
#######################################################################
#
#                 Cambridge Crystallographic Data Centre
#                                CCDC 
#
#######################################################################
#
# If this CIF has been generated from an entry in the Cambridge 
# Structural Database, then it will include bibliographic, chemical, 
# crystal, experimental, refinement or atomic coordinate data resulting 
# from the CCDC's data processing and validation procedures.
#
#######################################################################

data_ACEVIO
_chemical_formula_moiety         'C16 H15 Br1 N2 O1'
_chemical_name_systematic        
3-(4-Bromophenyl)-2,2-dimethyl-2,3-dihydroquinazolin-4(1H)-one
_chemical_properties_biological  'potential pharmacological activity'
_symmetry_cell_setting           triclinic
_symmetry_space_group_name_H-M   'P -1'
_symmetry_Int_Tables_number      2
_space_group_name_Hall           '-P 1'
loop_
_symmetry_equiv_pos_site_id
_symmetry_equiv_pos_as_xyz
1 x,y,z
2 -x,-y,-z
_cell_length_a                   6.8865(6)
_cell_length_b                   9.9508(6)
_cell_length_c                   11.6702(8)
_cell_angle_alpha                65.397(4)
_cell_angle_beta                 88.452(6)
_cell_angle_gamma                86.194(6)
_cell_volume                     725.508
_exptl_crystal_colour            colorless
_exptl_crystal_description       block
_chemical_melting_point          '537-538 K'
_cell_formula_units_Z            2
_exptl_crystal_recrystallization_method ethanol
loop_
_atom_site_label
_atom_site_type_symbol
_atom_site_fract_x
_atom_site_fract_y
_atom_site_fract_z
Br1 Br -0.32962(3) -0.18161(2) 1.02521(2)
O1 O -0.16653(19) 0.28373(17) 0.45556(14)
N1 N 0.1215(2) 0.19553(18) 0.55721(15)
N2 N 0.4172(3) 0.2491(2) 0.44279(18)
C1 C 0.0132(3) 0.2848(2) 0.45484(19)
C2 C 0.3339(3) 0.2146(2) 0.56747(19)
C3 C 0.3246(3) 0.3513(2) 0.3383(2)
C4 C 0.4222(3) 0.4264(3) 0.2243(2)
H1 H 0.5591 0.4102 0.2196
C5 C 0.3210(3) 0.5230(3) 0.1196(2)
H2 H 0.3894 0.5732 0.0433
C6 C 0.1204(3) 0.5491(2) 0.1227(2)
H3 H 0.0520 0.6169 0.0498
C7 C 0.0230(3) 0.4746(2) 0.2335(2)
H4 H -0.1142 0.4909 0.2367
C8 C 0.1217(3) 0.3761(2) 0.34075(19)
C9 C 0.0184(3) 0.1062(2) 0.66984(19)
C10 C -0.0021(3) -0.0420(2) 0.6987(2)
H5 H 0.0534 -0.0844 0.6450
C11 C -0.1030(3) -0.1284(2) 0.8054(2)
H6 H -0.1175 -0.2301 0.8254
C12 C -0.1826(3) -0.0645(2) 0.88246(19)
C13 C -0.1625(3) 0.0825(2) 0.8558(2)
H7 H -0.2163 0.1242 0.9104
C14 C -0.0627(3) 0.1683(2) 0.7480(2)
H8 H -0.0498 0.2702 0.7276
C15 C 0.4351(3) 0.0722(3) 0.6580(2)
H9 H 0.4094 -0.0080 0.6335
H10 H 0.3861 0.0483 0.7435
H11 H 0.5756 0.0836 0.6558
C16 C 0.3563(3) 0.3399(3) 0.6087(2)
H12 H 0.4948 0.3531 0.6146
H13 H 0.2947 0.3150 0.6911
H14 H 0.2936 0.4319 0.5467
H15 H 0.525(4) 0.253(3) 0.443(2)
loop_
_geom_bond_atom_site_label_1
_geom_bond_atom_site_label_2
_geom_bond_site_symmetry_1
_geom_bond_site_symmetry_2
Br1 C12 1_555 1_555
O1 C1 1_555 1_555
N1 C1 1_555 1_555
N2 C2 1_555 1_555
C1 C8 1_555 1_555
C2 N1 1_555 1_555
C3 N2 1_555 1_555
C4 C3 1_555 1_555
H1 C4 1_555 1_555
C5 C4 1_555 1_555
H2 C5 1_555 1_555
C6 C5 1_555 1_555
H3 C6 1_555 1_555
C7 C6 1_555 1_555
H4 C7 1_555 1_555
C8 C3 1_555 1_555
C9 N1 1_555 1_555
C10 C9 1_555 1_555
H5 C10 1_555 1_555
C11 C10 1_555 1_555
H6 C11 1_555 1_555
C12 C11 1_555 1_555
C13 C12 1_555 1_555
H7 C13 1_555 1_555
C14 C9 1_555 1_555
H8 C14 1_555 1_555
C15 C2 1_555 1_555
H9 C15 1_555 1_555
H10 C15 1_555 1_555
H11 C15 1_555 1_555
C16 C2 1_555 1_555
H12 C16 1_555 1_555
H13 C16 1_555 1_555
H14 C16 1_555 1_555
H15 N2 1_555 1_555
C7 C8 1_555 1_555
C13 C14 1_555 1_555

#END
