
#######################################################################
#
#                 Cambridge Crystallographic Data Centre
#                                CCDC 
#
#######################################################################
#
# If this CIF has been generated from an entry in the Cambridge 
# Structural Database, then it will include bibliographic, chemical, 
# crystal, experimental, refinement or atomic coordinate data resulting 
# from the CCDC's data processing and validation procedures.
#
#######################################################################

data_ACEWOW
_chemical_formula_moiety         'C23 H36 O5 Si1'
_chemical_name_systematic        
'Methyl 4,6-dimethyl-5-oxo-9-((trimethylsilyl)oxy)-17-oxatetracyclo[7.7.1.0^1,11^.0^4,8^]heptadec-6-ene-7-carboxylate'
_symmetry_cell_setting           triclinic
_symmetry_space_group_name_H-M   'P -1'
_symmetry_Int_Tables_number      2
_space_group_name_Hall           '-P 1'
loop_
_symmetry_equiv_pos_site_id
_symmetry_equiv_pos_as_xyz
1 x,y,z
2 -x,-y,-z
_cell_length_a                   7.0236(14)
_cell_length_b                   8.8974(18)
_cell_length_c                   18.735(4)
_cell_angle_alpha                86.39(3)
_cell_angle_beta                 88.86(3)
_cell_angle_gamma                79.72(3)
_cell_volume                     1149.66
_exptl_crystal_colour            colorless
_exptl_crystal_description       prism
_cell_formula_units_Z            2
loop_
_atom_site_label
_atom_site_type_symbol
_atom_site_fract_x
_atom_site_fract_y
_atom_site_fract_z
C1 C 0.3227(3) 0.6822(2) 0.13120(11)
C2 C 0.3674(3) 0.5169(2) 0.11833(10)
C3 C 0.5573(3) 0.4696(2) 0.12570(10)
C4 C 0.6632(3) 0.5885(2) 0.15327(11)
C5 C 0.7338(3) 0.5421(2) 0.23045(11)
C6 C 0.8661(3) 0.6439(2) 0.25911(11)
H1 H 0.8999 0.7159 0.2204
H2 H 0.9871 0.5804 0.2778
C7 C 0.7540(3) 0.7331(2) 0.31957(11)
C8 C 0.8619(3) 0.7087(3) 0.39066(12)
H3 H 0.8634 0.6021 0.4096
H4 H 0.9978 0.7207 0.3814
C9 C 0.7775(4) 0.8166(3) 0.44822(13)
H5 H 0.8805 0.8209 0.4830
H6 H 0.7389 0.9207 0.4253
C10 C 0.6034(4) 0.7730(3) 0.48906(13)
H7 H 0.6440 0.6711 0.5140
H8 H 0.5646 0.8473 0.5261
C11 C 0.4286(4) 0.7677(3) 0.44420(12)
H9 H 0.3888 0.8689 0.4187
H10 H 0.3207 0.7491 0.4764
C12 C 0.4609(3) 0.6448(2) 0.38912(11)
H11 H 0.5456 0.5530 0.4108
H12 H 0.3346 0.6155 0.3797
C13 C 0.5504(3) 0.6882(2) 0.31730(11)
C14 C 0.4124(3) 0.8084(2) 0.27377(11)
H13 H 0.3800 0.9004 0.3018
H14 H 0.2911 0.7689 0.2674
C15 C 0.4849(3) 0.8571(2) 0.20035(11)
H15 H 0.6108 0.8898 0.2067
H16 H 0.3932 0.9481 0.1817
C16 C 0.5120(3) 0.7391(2) 0.14286(11)
C17 C 0.5583(3) 0.8221(2) 0.07151(11)
H17 H 0.5692 0.7510 0.0332
H18 H 0.6808 0.8590 0.0756
H19 H 0.4542 0.9091 0.0604
C18 C 0.2131(3) 0.4327(3) 0.09762(13)
H20 H 0.2727 0.3313 0.0827
H21 H 0.1385 0.4902 0.0580
H22 H 0.1270 0.4214 0.1386
C19 C 0.6568(3) 0.3144(2) 0.10683(11)
C20 C 0.9212(3) 0.1782(2) 0.04450(13)
H23 H 0.9886 0.1191 0.0853
H24 H 1.0159 0.1975 0.0075
H25 H 0.8300 0.1201 0.0251
C21 C 0.9196(4) 0.2715(3) 0.37635(13)
H26 H 1.0474 0.2995 0.3684
H27 H 0.9324 0.1762 0.4064
H28 H 0.8349 0.3533 0.4003
C22 C 0.9694(3) 0.0812(2) 0.24865(14)
H29 H 0.9042 0.0518 0.2073
H30 H 0.9942 -0.0057 0.2841
H31 H 1.0923 0.1108 0.2332
C23 C 0.5630(3) 0.2091(2) 0.30303(13)
H32 H 0.4865 0.2942 0.3274
H33 H 0.5653 0.1137 0.3324
H34 H 0.5047 0.2006 0.2567
O1 O 0.1634(2) 0.76122(17) 0.12878(8)
O2 O 0.5970(2) 0.19730(17) 0.12184(8)
O3 O 0.8164(2) 0.32298(16) 0.06767(8)
O4 O 0.82834(19) 0.38804(14) 0.22925(7)
O5 O 0.57747(19) 0.54705(14) 0.27981(7)
Si1 Si 0.81350(9) 0.24435(7) 0.28894(3)
H35 H 0.779(3) 0.5955(19) 0.1254(9)
H36 H 0.735(3) 0.844(2) 0.3085(9)
loop_
_geom_bond_atom_site_label_1
_geom_bond_atom_site_label_2
_geom_bond_site_symmetry_1
_geom_bond_site_symmetry_2
C1 C2 1_555 1_555
C2 C3 1_555 1_555
C3 C4 1_555 1_555
C4 C5 1_555 1_555
C5 C6 1_555 1_555
C6 H1 1_555 1_555
H2 C6 1_555 1_555
C7 C6 1_555 1_555
C8 C7 1_555 1_555
H3 C8 1_555 1_555
H4 C8 1_555 1_555
C9 C8 1_555 1_555
H5 C9 1_555 1_555
H6 C9 1_555 1_555
C10 C9 1_555 1_555
H7 C10 1_555 1_555
H8 C10 1_555 1_555
C11 C10 1_555 1_555
H9 C11 1_555 1_555
H10 C11 1_555 1_555
C12 C11 1_555 1_555
H11 C12 1_555 1_555
H12 C12 1_555 1_555
C13 C7 1_555 1_555
C14 C13 1_555 1_555
H13 C14 1_555 1_555
H14 C14 1_555 1_555
C15 C14 1_555 1_555
H15 C15 1_555 1_555
H16 C15 1_555 1_555
C16 C1 1_555 1_555
C17 C16 1_555 1_555
H17 C17 1_555 1_555
H18 C17 1_555 1_555
H19 C17 1_555 1_555
C18 C2 1_555 1_555
H20 C18 1_555 1_555
H21 C18 1_555 1_555
H22 C18 1_555 1_555
C19 C3 1_555 1_555
C20 H23 1_555 1_555
H24 C20 1_555 1_555
H25 C20 1_555 1_555
C21 H26 1_555 1_555
H27 C21 1_555 1_555
H28 C21 1_555 1_555
C22 H29 1_555 1_555
H30 C22 1_555 1_555
H31 C22 1_555 1_555
C23 H32 1_555 1_555
H33 C23 1_555 1_555
H34 C23 1_555 1_555
O1 C1 1_555 1_555
O2 C19 1_555 1_555
O3 C19 1_555 1_555
O4 C5 1_555 1_555
O5 C5 1_555 1_555
Si1 C21 1_555 1_555
H35 C4 1_555 1_555
H36 C7 1_555 1_555
C4 C16 1_555 1_555
C12 C13 1_555 1_555
C13 O5 1_555 1_555
C15 C16 1_555 1_555
C20 O3 1_555 1_555
C22 Si1 1_555 1_555
C23 Si1 1_555 1_555
O4 Si1 1_555 1_555

#END
