
#######################################################################
#
#                 Cambridge Crystallographic Data Centre
#                                CCDC 
#
#######################################################################
#
# If this CIF has been generated from an entry in the Cambridge 
# Structural Database, then it will include bibliographic, chemical, 
# crystal, experimental, refinement or atomic coordinate data resulting 
# from the CCDC's data processing and validation procedures.
#
#######################################################################

data_ACEWEM
_chemical_formula_moiety         'C22 H30 O5'
_chemical_name_systematic        
12,14-Dimethyl-17,21,23-trioxahexacyclo[10.9.1.1^1,9^.0^3,9^.0^15,22^.0^16,20^]tricosane-13,18-dione
_symmetry_cell_setting           orthorhombic
_symmetry_space_group_name_H-M   'P b c a'
_symmetry_Int_Tables_number      61
_space_group_name_Hall           '-P 2ac 2ab'
loop_
_symmetry_equiv_pos_site_id
_symmetry_equiv_pos_as_xyz
1 x,y,z
2 1/2-x,-y,1/2+z
3 -x,1/2+y,1/2-z
4 1/2+x,1/2-y,-z
5 -x,-y,-z
6 1/2+x,y,1/2-z
7 x,1/2-y,1/2+z
8 1/2-x,1/2+y,z
_cell_length_a                   11.263(2)
_cell_length_b                   12.808(3)
_cell_length_c                   25.941(5)
_cell_angle_alpha                90
_cell_angle_beta                 90
_cell_angle_gamma                90
_cell_volume                     3742.16
_exptl_crystal_colour            colorless
_exptl_crystal_description       platelet
_cell_formula_units_Z            8
loop_
_atom_site_label
_atom_site_type_symbol
_atom_site_fract_x
_atom_site_fract_y
_atom_site_fract_z
O1 O 0.0969(3) 0.1311(2) 0.35511(12)
O2 O 0.0997(3) -0.0275(2) 0.31239(12)
O3 O 0.2440(3) -0.2447(3) 0.23021(13)
O4 O 0.3253(3) -0.1119(3) 0.27331(12)
O5 O 0.4006(3) 0.2383(3) 0.42018(15)
C1 C 0.0281(4) 0.1686(3) 0.39881(17)
C2 C -0.0390(4) 0.2630(4) 0.37839(19)
H1 H -0.0768 0.2435 0.3453
H2 H 0.0192 0.3190 0.3710
C3 C -0.1342(4) 0.3074(4) 0.4138(2)
H3 H -0.1412 0.3834 0.4075
H4 H -0.1091 0.2975 0.4500
C4 C -0.2561(4) 0.2569(4) 0.4063(2)
H5 H -0.3151 0.2965 0.4268
H6 H -0.2787 0.2632 0.3696
C5 C -0.2626(4) 0.1433(5) 0.4217(2)
H7 H -0.3440 0.1178 0.4148
H8 H -0.2491 0.1384 0.4593
C6 C -0.1744(4) 0.0701(4) 0.3945(2)
H9 H -0.2041 -0.0024 0.3975
H10 H -0.1724 0.0881 0.3574
C7 C -0.0477(4) 0.0738(4) 0.41557(19)
H11 H -0.0519 0.0733 0.4541
C8 C 0.0275(4) -0.0206(4) 0.39828(19)
H12 H -0.0231 -0.0732 0.3809
H13 H 0.0662 -0.0539 0.4284
C9 C 0.1218(4) 0.0226(3) 0.36047(18)
C10 C 0.2501(4) 0.0056(4) 0.37750(18)
H14 H 0.2603 -0.0694 0.3873
C11 C 0.2928(4) 0.0747(4) 0.42277(18)
C12 C 0.2012(4) 0.1171(4) 0.46136(19)
H15 H 0.1540 0.0575 0.4744
H16 H 0.2448 0.1469 0.4911
C13 C 0.1151(4) 0.2000(4) 0.4414(2)
H17 H 0.1627 0.2596 0.4285
H18 H 0.0682 0.2257 0.4710
C14 C 0.1692(4) 0.0099(4) 0.26975(17)
H19 H 0.1461 0.0817 0.2584
C15 C 0.1513(5) -0.0717(4) 0.22832(18)
H20 H 0.1674 -0.0427 0.1937
H21 H 0.0696 -0.1001 0.2291
C16 C 0.2415(4) -0.1546(4) 0.24253(18)
C17 C 0.3007(4) -0.0008(4) 0.28071(19)
H22 H 0.3460 0.0401 0.2544
C18 C 0.3405(4) 0.0323(4) 0.33395(18)
H23 H 0.4163 -0.0053 0.3418
C19 C 0.3645(4) 0.1495(4) 0.33878(18)
H24 H 0.2965 0.1876 0.3226
C20 C 0.4781(4) 0.1897(4) 0.3147(2)
H25 H 0.4834 0.2654 0.3198
H26 H 0.4780 0.1741 0.2777
H27 H 0.5463 0.1558 0.3311
C21 C 0.3574(4) 0.1657(4) 0.39676(19)
C22 C 0.3880(5) 0.0151(4) 0.4538(2)
H28 H 0.4152 0.0586 0.4826
H29 H 0.4554 -0.0012 0.4313
H30 H 0.3540 -0.0498 0.4672
loop_
_geom_bond_atom_site_label_1
_geom_bond_atom_site_label_2
_geom_bond_site_symmetry_1
_geom_bond_site_symmetry_2
O1 C1 1_555 1_555
O2 C9 1_555 1_555
O3 C16 1_555 1_555
O4 C16 1_555 1_555
O5 C21 1_555 1_555
C1 C2 1_555 1_555
C2 H1 1_555 1_555
H2 C2 1_555 1_555
C3 C2 1_555 1_555
H3 C3 1_555 1_555
H4 C3 1_555 1_555
C4 C3 1_555 1_555
H5 C4 1_555 1_555
H6 C4 1_555 1_555
C5 C4 1_555 1_555
H7 C5 1_555 1_555
H8 C5 1_555 1_555
C6 C5 1_555 1_555
H9 C6 1_555 1_555
H10 C6 1_555 1_555
C7 C1 1_555 1_555
H11 C7 1_555 1_555
C8 C7 1_555 1_555
H12 C8 1_555 1_555
H13 C8 1_555 1_555
C9 O1 1_555 1_555
C10 C9 1_555 1_555
H14 C10 1_555 1_555
C11 C10 1_555 1_555
C12 C11 1_555 1_555
H15 C12 1_555 1_555
H16 C12 1_555 1_555
C13 C1 1_555 1_555
H17 C13 1_555 1_555
H18 C13 1_555 1_555
C14 O2 1_555 1_555
H19 C14 1_555 1_555
C15 C14 1_555 1_555
H20 C15 1_555 1_555
H21 C15 1_555 1_555
C16 C15 1_555 1_555
C17 O4 1_555 1_555
H22 C17 1_555 1_555
C18 C10 1_555 1_555
H23 C18 1_555 1_555
C19 C18 1_555 1_555
H24 C19 1_555 1_555
C20 C19 1_555 1_555
H25 C20 1_555 1_555
H26 C20 1_555 1_555
H27 C20 1_555 1_555
C21 C11 1_555 1_555
C22 C11 1_555 1_555
H28 C22 1_555 1_555
H29 C22 1_555 1_555
H30 C22 1_555 1_555
C6 C7 1_555 1_555
C8 C9 1_555 1_555
C12 C13 1_555 1_555
C14 C17 1_555 1_555
C17 C18 1_555 1_555
C19 C21 1_555 1_555

#END
