
#######################################################################
#
#                 Cambridge Crystallographic Data Centre
#                                CCDC 
#
#######################################################################
#
# If this CIF has been generated from an entry in the Cambridge 
# Structural Database, then it will include bibliographic, chemical, 
# crystal, experimental, refinement or atomic coordinate data resulting 
# from the CCDC's data processing and validation procedures.
#
#######################################################################

data_ACEWIQ
_chemical_formula_moiety         'C18 H22 O4'
_chemical_name_systematic        
6-Methyl-9,18-dioxapentacyclo[8.7.1.1^4,7^.0^1,12^.0^10,19^]nonadec-6-ene-5,8-dione
_symmetry_cell_setting           orthorhombic
_symmetry_space_group_name_H-M   'P b c a'
_symmetry_Int_Tables_number      61
_space_group_name_Hall           '-P 2ac 2ab'
loop_
_symmetry_equiv_pos_site_id
_symmetry_equiv_pos_as_xyz
1 x,y,z
2 1/2-x,-y,1/2+z
3 -x,1/2+y,1/2-z
4 1/2+x,1/2-y,-z
5 -x,-y,-z
6 1/2+x,y,1/2-z
7 x,1/2-y,1/2+z
8 1/2-x,1/2+y,z
_cell_length_a                   11.819(2)
_cell_length_b                   10.377(2)
_cell_length_c                   25.282(5)
_cell_angle_alpha                90
_cell_angle_beta                 90
_cell_angle_gamma                90
_cell_volume                     3100.73
_cell_formula_units_Z            8
loop_
_atom_site_label
_atom_site_type_symbol
_atom_site_fract_x
_atom_site_fract_y
_atom_site_fract_z
C1 C 0.4595(2) 0.2226(3) 0.56938(13)
C2 C 0.4013(2) 0.1090(3) 0.54254(14)
H1 H 0.4442 0.0315 0.5502
H2 H 0.4038 0.1223 0.5046
C3 C 0.2782(3) 0.0866(4) 0.55881(16)
H3 H 0.2389 0.1686 0.5576
H4 H 0.2432 0.0307 0.5327
C4 C 0.2599(3) 0.0276(4) 0.61319(16)
H5 H 0.2887 -0.0599 0.6126
H6 H 0.1791 0.0227 0.6197
C5 C 0.3148(2) 0.0987(4) 0.65951(14)
H7 H 0.2883 0.0612 0.6924
H8 H 0.2911 0.1882 0.6588
C6 C 0.4449(2) 0.0930(4) 0.65823(13)
H9 H 0.4725 0.0976 0.6943
H10 H 0.4673 0.0101 0.6440
C7 C 0.5025(2) 0.1976(3) 0.62629(12)
C8 C 0.5088(2) 0.3258(3) 0.65746(11)
H11 H 0.5051 0.3972 0.6328
H12 H 0.4437 0.3318 0.6807
C9 C 0.6167(2) 0.3377(3) 0.69035(11)
H13 H 0.6386 0.2530 0.7030
H14 H 0.6018 0.3914 0.7210
C10 C 0.7149(2) 0.3964(4) 0.65824(12)
C11 C 0.7384(2) 0.3361(3) 0.60390(12)
C12 C 0.6647(2) 0.2307(3) 0.57823(12)
C13 C 0.5679(2) 0.2679(3) 0.54142(12)
H15 H 0.5761 0.2257 0.5074
H16 H 0.5663 0.3604 0.5359
C14 C 0.8259(2) 0.3753(3) 0.68859(13)
C15 C 0.8977(2) 0.2816(3) 0.65857(13)
C16 C 0.8465(2) 0.2635(3) 0.61229(12)
C17 C 0.8534(2) 0.1627(3) 0.57149(13)
C18 C 1.0013(3) 0.2201(4) 0.68069(15)
H17 H 1.0301 0.1582 0.6559
H18 H 0.9829 0.1776 0.7133
H19 H 1.0575 0.2849 0.6871
O1 O 0.84879(19) 0.4198(3) 0.73147(10)
O2 O 0.93129(17) 0.0965(2) 0.55685(9)
O3 O 0.74744(17) 0.1507(2) 0.54960(7)
O4 O 0.61733(14) 0.14868(19) 0.61676(7)
H20 H 0.7048(19) 0.491(3) 0.6574(10)
H21 H 0.750(2) 0.396(3) 0.5812(11)
H22 H 0.407(2) 0.288(3) 0.5721(12)
loop_
_geom_bond_atom_site_label_1
_geom_bond_atom_site_label_2
_geom_bond_site_symmetry_1
_geom_bond_site_symmetry_2
C1 C2 1_555 1_555
C2 H1 1_555 1_555
H2 C2 1_555 1_555
C3 C2 1_555 1_555
H3 C3 1_555 1_555
H4 C3 1_555 1_555
C4 C3 1_555 1_555
H5 C4 1_555 1_555
H6 C4 1_555 1_555
C5 C4 1_555 1_555
H7 C5 1_555 1_555
H8 C5 1_555 1_555
C6 C5 1_555 1_555
H9 C6 1_555 1_555
H10 C6 1_555 1_555
C7 C1 1_555 1_555
C8 C7 1_555 1_555
H11 C8 1_555 1_555
H12 C8 1_555 1_555
C9 C8 1_555 1_555
H13 C9 1_555 1_555
H14 C9 1_555 1_555
C10 C9 1_555 1_555
C11 C10 1_555 1_555
C12 C11 1_555 1_555
C13 C1 1_555 1_555
H15 C13 1_555 1_555
H16 C13 1_555 1_555
C14 C10 1_555 1_555
C15 C14 1_555 1_555
C16 C11 1_555 1_555
C17 C16 1_555 1_555
C18 C15 1_555 1_555
H17 C18 1_555 1_555
H18 C18 1_555 1_555
H19 C18 1_555 1_555
O1 C14 1_555 1_555
O2 C17 1_555 1_555
O3 C12 1_555 1_555
O4 C7 1_555 1_555
H20 C10 1_555 1_555
H21 C11 1_555 1_555
H22 C1 1_555 1_555
C6 C7 1_555 1_555
C12 C13 1_555 1_555
C12 O4 1_555 1_555
C15 C16 1_555 1_555
C17 O3 1_555 1_555

#END
