
#######################################################################
#
#                 Cambridge Crystallographic Data Centre
#                                CCDC 
#
#######################################################################
#
# If this CIF has been generated from an entry in the Cambridge 
# Structural Database, then it will include bibliographic, chemical, 
# crystal, experimental, refinement or atomic coordinate data resulting 
# from the CCDC's data processing and validation procedures.
#
#######################################################################

data_ACEWAH
_chemical_formula_moiety         'C20 H15 N1 O1'
_chemical_name_systematic        
N-(9H-Fluoren-9-ylidene)-N-(-2-methoxyphenyl)amine
_symmetry_cell_setting           monoclinic
_symmetry_space_group_name_H-M   'P 21/c'
_symmetry_Int_Tables_number      14
_space_group_name_Hall           '-P 2ybc'
loop_
_symmetry_equiv_pos_site_id
_symmetry_equiv_pos_as_xyz
1 x,y,z
2 x,1/2-y,1/2+z
3 -x,-y,-z
4 -x,1/2+y,1/2-z
_cell_length_a                   11.0517(5)
_cell_length_b                   9.3304(4)
_cell_length_c                   15.6876(9)
_cell_angle_alpha                90
_cell_angle_beta                 116.8320(10)
_cell_angle_gamma                90
_cell_volume                     1443.49
_exptl_crystal_colour            orange
_exptl_crystal_description       block
_chemical_melting_point          '407 K'
_cell_formula_units_Z            4
loop_
_atom_site_label
_atom_site_type_symbol
_atom_site_fract_x
_atom_site_fract_y
_atom_site_fract_z
O1 O 0.84155(10) 0.21629(10) 0.19758(7)
N1 N 0.89284(11) 0.41806(11) 0.09280(8)
C1 C 0.68909(13) 0.19529(13) -0.07085(9)
H1 H 0.7697 0.1428 -0.0340
C2 C 0.57988(14) 0.13121(14) -0.14745(9)
H2 H 0.5868 0.0343 -0.1634
C3 C 0.46097(14) 0.20717(15) -0.20084(9)
H3 H 0.3878 0.1615 -0.2526
C4 C 0.44796(13) 0.34949(15) -0.17924(9)
H4 H 0.3663 0.4008 -0.2152
C5 C 0.48311(14) 0.67726(14) -0.09553(10)
H5 H 0.3939 0.6679 -0.1460
C6 C 0.52862(15) 0.80676(14) -0.04736(11)
H6 H 0.4694 0.8871 -0.0658
C7 C 0.65843(16) 0.82111(14) 0.02695(11)
H7 H 0.6870 0.9112 0.0578
C8 C 0.74776(14) 0.70452(14) 0.05697(10)
H8 H 0.8361 0.7131 0.1087
C9 C 0.77374(12) 0.43601(12) 0.02524(8)
C10 C 0.67717(12) 0.33749(13) -0.04984(8)
C11 C 0.55665(12) 0.41459(13) -0.10429(9)
C12 C 0.57253(13) 0.56218(13) -0.06729(9)
C13 C 0.70251(13) 0.57638(12) 0.00852(9)
C14 C 0.95705(12) 0.28210(13) 0.10895(9)
C15 C 0.93461(12) 0.17910(13) 0.16577(9)
C16 C 1.00403(13) 0.04971(14) 0.18537(9)
H9 H 0.9889 -0.0203 0.2235
C17 C 1.09583(13) 0.02271(14) 0.14901(9)
H10 H 1.1423 -0.0664 0.1619
C18 C 1.11985(14) 0.12432(15) 0.09440(10)
H11 H 1.1828 0.1052 0.0700
C19 C 1.05154(13) 0.25466(14) 0.07532(9)
H12 H 1.0696 0.3254 0.0390
C20 C 0.81970(14) 0.11575(15) 0.25791(10)
H13 H 0.7531 0.1546 0.2769
H14 H 0.9054 0.0980 0.3150
H15 H 0.7856 0.0256 0.2232
loop_
_geom_bond_atom_site_label_1
_geom_bond_atom_site_label_2
_geom_bond_site_symmetry_1
_geom_bond_site_symmetry_2
O1 C15 1_555 1_555
N1 C9 1_555 1_555
C1 H1 1_555 1_555
C2 C1 1_555 1_555
H2 C2 1_555 1_555
C3 C2 1_555 1_555
H3 C3 1_555 1_555
C4 C3 1_555 1_555
H4 C4 1_555 1_555
C5 H5 1_555 1_555
C6 C5 1_555 1_555
H6 C6 1_555 1_555
C7 C6 1_555 1_555
H7 C7 1_555 1_555
C8 C7 1_555 1_555
H8 C8 1_555 1_555
C9 C10 1_555 1_555
C10 C1 1_555 1_555
C11 C4 1_555 1_555
C12 C5 1_555 1_555
C13 C8 1_555 1_555
C14 N1 1_555 1_555
C15 C14 1_555 1_555
C16 C15 1_555 1_555
H9 C16 1_555 1_555
C17 C16 1_555 1_555
H10 C17 1_555 1_555
C18 C17 1_555 1_555
H11 C18 1_555 1_555
C19 C14 1_555 1_555
H12 C19 1_555 1_555
C20 O1 1_555 1_555
H13 C20 1_555 1_555
H14 C20 1_555 1_555
H15 C20 1_555 1_555
C9 C13 1_555 1_555
C10 C11 1_555 1_555
C11 C12 1_555 1_555
C12 C13 1_555 1_555
C18 C19 1_555 1_555

#END
