
#######################################################################
#
#                 Cambridge Crystallographic Data Centre
#                                CCDC 
#
#######################################################################
#
# If this CIF has been generated from an entry in the Cambridge 
# Structural Database, then it will include bibliographic, chemical, 
# crystal, experimental, refinement or atomic coordinate data resulting 
# from the CCDC's data processing and validation procedures.
#
#######################################################################

data_ACEWUC
_chemical_formula_moiety         'C24 H38 O4 Si1'
_chemical_name_systematic        
7-(1-Hydroxyprop-2-en-1-yl)-4,6-dimethyl-9-((trimethylsilyl)oxy)-17-oxatetracyclo[7.7.1.0^1,11^.0^4,8^]heptadec-6-en-5-one
_symmetry_cell_setting           monoclinic
_symmetry_space_group_name_H-M   'P 21/c'
_symmetry_Int_Tables_number      14
_space_group_name_Hall           '-P 2ybc'
loop_
_symmetry_equiv_pos_site_id
_symmetry_equiv_pos_as_xyz
1 x,y,z
2 -x,1/2+y,1/2-z
3 -x,-y,-z
4 x,1/2-y,1/2+z
_cell_length_a                   19.988(4)
_cell_length_b                   8.8188(18)
_cell_length_c                   14.066(3)
_cell_angle_alpha                90
_cell_angle_beta                 105.53(3)
_cell_angle_gamma                90
_cell_volume                     2388.89
_cell_formula_units_Z            4
loop_
_atom_site_label
_atom_site_type_symbol
_atom_site_fract_x
_atom_site_fract_y
_atom_site_fract_z
C1 C 0.18935(10) 0.67300(19) 0.87505(12)
C2 C 0.17736(10) 0.8044(2) 0.94150(13)
H1 H 0.1922 0.8991 0.9169
C3 C 0.22863(11) 0.76738(19) 1.04203(13)
H2 H 0.2683 0.8352 1.0547
H3 H 0.2061 0.7790 1.0947
C4 C 0.25211(9) 0.60246(18) 1.03670(11)
C5 C 0.33154(9) 0.5880(2) 1.05205(12)
H4 H 0.3557 0.6477 1.1098
C6 C 0.35692(10) 0.6379(2) 0.96102(13)
C7 C 0.31619(11) 0.7561(2) 0.88881(14)
H5 H 0.3101 0.8445 0.9267
H6 H 0.3447 0.7869 0.8461
C8 C 0.24497(10) 0.7112(2) 0.82330(13)
H7 H 0.2279 0.7938 0.7777
H8 H 0.2509 0.6239 0.7844
C9 C 0.12503(11) 0.6115(2) 0.80065(14)
H9 H 0.0960 0.5616 0.8365
H10 H 0.1396 0.5352 0.7607
C10 C 0.08072(12) 0.7300(3) 0.73129(16)
H11 H 0.1111 0.8087 0.7184
H12 H 0.0585 0.6816 0.6689
C11 C 0.02576(13) 0.8025(3) 0.77134(19)
H13 H -0.0030 0.7230 0.7873
H14 H -0.0037 0.8643 0.7198
C12 C 0.05290(13) 0.9010(3) 0.86259(19)
H15 H 0.0134 0.9374 0.8838
H16 H 0.0756 0.9889 0.8437
C13 C 0.10356(11) 0.8258(2) 0.95053(16)
H17 H 0.1056 0.8863 1.0088
H18 H 0.0852 0.7272 0.9608
C14 C 0.35594(9) 0.4244(2) 1.06647(13)
C15 C 0.36559(9) 0.3641(2) 0.98310(13)
C16 C 0.36171(10) 0.4861(2) 0.91185(13)
C17 C 0.37410(10) 0.3558(2) 1.16843(14)
H19 H 0.3439 0.3978 1.2064
C18 C 0.44821(13) 0.3961(3) 1.21716(18)
H20 H 0.4807 0.3491 1.1904
C19 C 0.38253(12) 0.2054(2) 0.95944(17)
H21 H 0.4070 0.1547 1.0190
H22 H 0.4112 0.2081 0.9145
H23 H 0.3403 0.1517 0.9297
C20 C 0.43237(11) 0.6963(3) 0.99995(17)
H24 H 0.4585 0.6269 1.0484
H25 H 0.4320 0.7944 1.0294
H26 H 0.4533 0.7037 0.9462
C21 C 0.19995(13) 0.2115(2) 1.02147(19)
H27 H 0.1974 0.2495 0.9566
H28 H 0.1668 0.1312 1.0169
H29 H 0.2458 0.1735 1.0509
C22 C 0.19505(14) 0.3057(3) 1.22892(17)
H30 H 0.2392 0.2558 1.2504
H31 H 0.1589 0.2370 1.2340
H32 H 0.1946 0.3928 1.2697
C23 C 0.08733(11) 0.4177(3) 1.04954(18)
H33 H 0.0768 0.5030 1.0854
H34 H 0.0589 0.3331 1.0569
H35 H 0.0782 0.4435 0.9809
O1 O 0.21510(6) 0.54744(12) 0.94236(8)
O2 O 0.36805(8) 0.47325(18) 0.82787(10)
O3 O 0.36652(11) 0.19666(19) 1.16207(12)
H36 H 0.3681 0.1621 1.2167
O4 O 0.23315(6) 0.51429(13) 1.10906(8)
Si1 Si 0.18034(3) 0.36664(6) 1.09862(4)
C24 C 0.47229(19) 0.4791(4) 1.2850(2)
H37 H 0.4432 0.5304 1.3157
H38 H 0.5201 0.4924 1.3069
loop_
_geom_bond_atom_site_label_1
_geom_bond_atom_site_label_2
_geom_bond_site_symmetry_1
_geom_bond_site_symmetry_2
C1 C2 1_555 1_555
C2 H1 1_555 1_555
C3 C2 1_555 1_555
H2 C3 1_555 1_555
H3 C3 1_555 1_555
C4 C3 1_555 1_555
C5 C4 1_555 1_555
H4 C5 1_555 1_555
C6 C5 1_555 1_555
C7 C6 1_555 1_555
H5 C7 1_555 1_555
H6 C7 1_555 1_555
C8 C1 1_555 1_555
H7 C8 1_555 1_555
H8 C8 1_555 1_555
C9 C1 1_555 1_555
H9 C9 1_555 1_555
H10 C9 1_555 1_555
C10 C9 1_555 1_555
H11 C10 1_555 1_555
H12 C10 1_555 1_555
C11 C10 1_555 1_555
H13 C11 1_555 1_555
H14 C11 1_555 1_555
C12 C11 1_555 1_555
H15 C12 1_555 1_555
H16 C12 1_555 1_555
C13 C2 1_555 1_555
H17 C13 1_555 1_555
H18 C13 1_555 1_555
C14 C5 1_555 1_555
C15 C14 1_555 1_555
C16 C6 1_555 1_555
C17 C14 1_555 1_555
H19 C17 1_555 1_555
C18 C17 1_555 1_555
H20 C18 1_555 1_555
C19 C15 1_555 1_555
H21 C19 1_555 1_555
H22 C19 1_555 1_555
H23 C19 1_555 1_555
C20 C6 1_555 1_555
H24 C20 1_555 1_555
H25 C20 1_555 1_555
H26 C20 1_555 1_555
C21 H27 1_555 1_555
H28 C21 1_555 1_555
H29 C21 1_555 1_555
C22 H30 1_555 1_555
H31 C22 1_555 1_555
H32 C22 1_555 1_555
C23 H33 1_555 1_555
H34 C23 1_555 1_555
H35 C23 1_555 1_555
O1 C1 1_555 1_555
O2 C16 1_555 1_555
O3 C17 1_555 1_555
H36 O3 1_555 1_555
O4 C4 1_555 1_555
Si1 C21 1_555 1_555
C24 C18 1_555 1_555
H37 C24 1_555 1_555
H38 C24 1_555 1_555
C4 O1 1_555 1_555
C7 C8 1_555 1_555
C12 C13 1_555 1_555
C15 C16 1_555 1_555
C22 Si1 1_555 1_555
C23 Si1 1_555 1_555
O4 Si1 1_555 1_555

#END
