
#######################################################################
#
#                 Cambridge Crystallographic Data Centre
#                                CCDC 
#
#######################################################################
#
# If this CIF has been generated from an entry in the Cambridge 
# Structural Database, then it will include bibliographic, chemical, 
# crystal, experimental, refinement or atomic coordinate data resulting 
# from the CCDC's data processing and validation procedures.
#
#######################################################################

data_ACEWUB
_chemical_formula_moiety         'C14 H11 F1 N2 O2'
_chemical_name_systematic        
2'-(2-Fluorobenzylidene)-2-hydroxybenzohydrazide
_chemical_properties_biological  'potential antibacterial activity'
_symmetry_cell_setting           monoclinic
_symmetry_space_group_name_H-M   'P 21/c'
_symmetry_Int_Tables_number      14
_space_group_name_Hall           '-P 2ybc'
loop_
_symmetry_equiv_pos_site_id
_symmetry_equiv_pos_as_xyz
1 x,y,z
2 x,1/2-y,1/2+z
3 -x,-y,-z
4 -x,1/2+y,1/2-z
_cell_length_a                   4.9184(8)
_cell_length_b                   23.655(4)
_cell_length_c                   10.6092(17)
_cell_angle_alpha                90
_cell_angle_beta                 101.556(3)
_cell_angle_gamma                90
_cell_volume                     1209.3
_exptl_crystal_colour            colorless
_exptl_crystal_description       block
_cell_formula_units_Z            4
_exptl_crystal_recrystallization_method DMF
loop_
_atom_site_label
_atom_site_type_symbol
_atom_site_fract_x
_atom_site_fract_y
_atom_site_fract_z
O1 O 0.6833(3) 0.27703(6) 0.54273(12)
O2 O 1.2128(3) 0.25805(6) 0.89889(13)
N1 N 0.7708(3) 0.22816(6) 0.72823(16)
N2 N 0.5610(3) 0.19035(6) 0.68623(14)
F1 F 0.5519(3) 0.05635(6) 0.91684(12)
C1 C 0.8221(4) 0.27020(7) 0.65177(17)
C2 C 1.0573(4) 0.30864(7) 0.70406(16)
C3 C 1.2451(4) 0.30180(7) 0.82047(17)
C4 C 1.4623(4) 0.33952(8) 0.8553(2)
C5 C 1.4925(5) 0.38435(9) 0.7774(2)
C6 C 1.3060(5) 0.39294(9) 0.6642(2)
C7 C 1.0925(4) 0.35514(8) 0.62825(19)
C8 C 0.5416(4) 0.15094(8) 0.76425(19)
C9 C 0.3324(4) 0.10676(8) 0.73338(17)
C10 C 0.1188(4) 0.10818(9) 0.6263(2)
C11 C -0.0719(5) 0.06531(9) 0.6017(2)
C12 C -0.0569(5) 0.01991(10) 0.6845(2)
C13 C 0.1519(5) 0.01713(10) 0.7919(2)
C14 C 0.3410(4) 0.06011(8) 0.81343(19)
H1 H 0.874(5) 0.2244(8) 0.806(2)
H2 H 1.363(6) 0.2514(11) 0.960(3)
H3 H 1.590(4) 0.3328(10) 0.933(2)
H4 H 1.642(5) 0.4067(10) 0.799(2)
H5 H 1.324(4) 0.4254(10) 0.608(2)
H6 H 0.958(4) 0.3581(9) 0.550(2)
H7 H 0.673(4) 0.1495(9) 0.847(2)
H8 H 0.108(4) 0.1366(9) 0.566(2)
H9 H -0.233(5) 0.0680(11) 0.535(3)
H10 H -0.193(5) -0.0095(12) 0.677(2)
H11 H 0.171(5) -0.0112(11) 0.842(2)
loop_
_geom_bond_atom_site_label_1
_geom_bond_atom_site_label_2
_geom_bond_site_symmetry_1
_geom_bond_site_symmetry_2
O1 C1 1_555 1_555
O2 C3 1_555 1_555
N1 N2 1_555 1_555
N2 C8 1_555 1_555
F1 C14 1_555 1_555
C1 N1 1_555 1_555
C2 C1 1_555 1_555
C3 C2 1_555 1_555
C4 C3 1_555 1_555
C5 C4 1_555 1_555
C6 C5 1_555 1_555
C7 C2 1_555 1_555
C8 C9 1_555 1_555
C9 C10 1_555 1_555
C10 C11 1_555 1_555
C11 C12 1_555 1_555
C12 C13 1_555 1_555
C13 C14 1_555 1_555
C14 C9 1_555 1_555
H1 N1 1_555 1_555
H2 O2 1_555 1_555
H3 C4 1_555 1_555
H4 C5 1_555 1_555
H5 C6 1_555 1_555
H6 C7 1_555 1_555
H7 C8 1_555 1_555
H8 C10 1_555 1_555
H9 C11 1_555 1_555
H10 C12 1_555 1_555
H11 C13 1_555 1_555
C6 C7 1_555 1_555

#END
