
#######################################################################
#
#                 Cambridge Crystallographic Data Centre
#                                CCDC 
#
#######################################################################
#
# If this CIF has been generated from an entry in the Cambridge 
# Structural Database, then it will include bibliographic, chemical, 
# crystal, experimental, refinement or atomic coordinate data resulting 
# from the CCDC's data processing and validation procedures.
#
#######################################################################

data_ACEWAI
_chemical_formula_moiety         'C23 H32 O5'
_chemical_name_systematic        
12,14,19-Trimethyl-17,21,23-trioxahexacyclo[10.9.1.1^1,9^.0^3,9^.0^15,22^.0^16,20^]tricosane-13,18-dione
_symmetry_cell_setting           monoclinic
_symmetry_space_group_name_H-M   'P 21/c'
_symmetry_Int_Tables_number      14
_space_group_name_Hall           '-P 2ybc'
loop_
_symmetry_equiv_pos_site_id
_symmetry_equiv_pos_as_xyz
1 x,y,z
2 -x,1/2+y,1/2-z
3 -x,-y,-z
4 x,1/2-y,1/2+z
_cell_length_a                   15.937(3)
_cell_length_b                   11.460(2)
_cell_length_c                   11.771(2)
_cell_angle_alpha                90
_cell_angle_beta                 110.68(3)
_cell_angle_gamma                90
_cell_volume                     2011.31
_exptl_crystal_colour            colorless
_exptl_crystal_description       plate
_cell_formula_units_Z            4
loop_
_atom_site_label
_atom_site_type_symbol
_atom_site_fract_x
_atom_site_fract_y
_atom_site_fract_z
O1 O 0.73987(17) 0.9562(2) 0.8245(2)
O2 O 0.81272(17) 0.9547(2) 0.6865(2)
O3 O 0.57671(19) 0.6767(3) 0.8240(3)
O4 O 0.85276(18) 0.7303(2) 0.5946(2)
O5 O 0.9432(2) 0.8068(3) 0.5062(3)
C1 C 0.6768(3) 1.0373(3) 0.8443(3)
C2 C 0.7182(3) 1.0825(4) 0.9750(4)
H1 H 0.6848 1.1533 0.9822
H2 H 0.7083 1.0228 1.0298
C3 C 0.8176(3) 1.1123(4) 1.0209(4)
H3 H 0.8500 1.0477 0.9985
H4 H 0.8391 1.1160 1.1107
C4 C 0.8428(3) 1.2260(4) 0.9740(4)
H5 H 0.8171 1.2916 1.0057
H6 H 0.9088 1.2342 1.0075
C5 C 0.8117(3) 1.2369(4) 0.8364(4)
H7 H 0.8337 1.1686 0.8036
H8 H 0.8391 1.3076 0.8157
C6 C 0.7102(3) 1.2445(3) 0.7748(4)
H9 H 0.6972 1.2906 0.6994
H10 H 0.6864 1.2889 0.8289
C7 C 0.6581(3) 1.1296(3) 0.7418(4)
H11 H 0.5926 1.1483 0.7119
C8 C 0.6781(3) 1.0627(3) 0.6406(3)
H12 H 0.6217 1.0441 0.5732
H13 H 0.7165 1.1102 0.6082
C9 C 0.7265(2) 0.9507(3) 0.6986(3)
C10 C 0.6787(2) 0.8377(3) 0.6427(3)
H14 H 0.6613 0.8430 0.5525
C11 C 0.5929(2) 0.8086(3) 0.6724(3)
C12 C 0.5248(3) 0.7446(4) 0.5627(4)
H15 H 0.4706 0.7266 0.5804
H16 H 0.5515 0.6720 0.5474
H17 H 0.5092 0.7948 0.4907
C13 C 0.5429(3) 0.9094(3) 0.7084(4)
H18 H 0.5289 0.9697 0.6441
H19 H 0.4850 0.8787 0.7091
C14 C 0.5908(3) 0.9689(3) 0.8302(4)
H20 H 0.6059 0.9083 0.8942
H21 H 0.5479 1.0232 0.8460
C15 C 0.6247(3) 0.7190(3) 0.7751(3)
C16 C 0.7211(3) 0.6865(3) 0.8014(3)
H22 H 0.7591 0.7348 0.8714
C17 C 0.7413(3) 0.5573(4) 0.8352(4)
H23 H 0.7291 0.5403 0.9095
H24 H 0.8045 0.5412 0.8487
H25 H 0.7032 0.5082 0.7689
C18 C 0.7384(3) 0.7271(3) 0.6875(3)
H26 H 0.7156 0.6652 0.6242
C19 C 0.8374(3) 0.7455(3) 0.7097(4)
H27 H 0.8734 0.6864 0.7696
C20 C 0.8736(3) 0.8663(3) 0.7521(4)
H28 H 0.8917 0.8757 0.8421
C21 C 0.9538(3) 0.8726(4) 0.7093(4)
H29 H 1.0042 0.8275 0.7683
C22 C 0.9890(3) 0.9921(4) 0.6951(5)
H30 H 1.0399 0.9839 0.6673
H31 H 1.0085 1.0327 0.7734
H32 H 0.9414 1.0371 0.6353
C23 C 0.9188(3) 0.8029(4) 0.5921(4)
loop_
_geom_bond_atom_site_label_1
_geom_bond_atom_site_label_2
_geom_bond_site_symmetry_1
_geom_bond_site_symmetry_2
O1 C1 1_555 1_555
O2 C9 1_555 1_555
O3 C15 1_555 1_555
O4 C19 1_555 1_555
O5 C23 1_555 1_555
C1 C2 1_555 1_555
C2 H1 1_555 1_555
H2 C2 1_555 1_555
C3 C2 1_555 1_555
H3 C3 1_555 1_555
H4 C3 1_555 1_555
C4 C3 1_555 1_555
H5 C4 1_555 1_555
H6 C4 1_555 1_555
C5 C4 1_555 1_555
H7 C5 1_555 1_555
H8 C5 1_555 1_555
C6 C5 1_555 1_555
H9 C6 1_555 1_555
H10 C6 1_555 1_555
C7 C1 1_555 1_555
H11 C7 1_555 1_555
C8 C7 1_555 1_555
H12 C8 1_555 1_555
H13 C8 1_555 1_555
C9 O1 1_555 1_555
C10 C9 1_555 1_555
H14 C10 1_555 1_555
C11 C10 1_555 1_555
C12 C11 1_555 1_555
H15 C12 1_555 1_555
H16 C12 1_555 1_555
H17 C12 1_555 1_555
C13 C11 1_555 1_555
H18 C13 1_555 1_555
H19 C13 1_555 1_555
C14 C1 1_555 1_555
H20 C14 1_555 1_555
H21 C14 1_555 1_555
C15 C11 1_555 1_555
C16 C15 1_555 1_555
H22 C16 1_555 1_555
C17 C16 1_555 1_555
H23 C17 1_555 1_555
H24 C17 1_555 1_555
H25 C17 1_555 1_555
C18 C10 1_555 1_555
H26 C18 1_555 1_555
C19 C18 1_555 1_555
H27 C19 1_555 1_555
C20 O2 1_555 1_555
H28 C20 1_555 1_555
C21 C20 1_555 1_555
H29 C21 1_555 1_555
C22 C21 1_555 1_555
H30 C22 1_555 1_555
H31 C22 1_555 1_555
H32 C22 1_555 1_555
C23 O4 1_555 1_555
C6 C7 1_555 1_555
C8 C9 1_555 1_555
C13 C14 1_555 1_555
C16 C18 1_555 1_555
C19 C20 1_555 1_555
C21 C23 1_555 1_555

#END
