
#######################################################################
#
#                 Cambridge Crystallographic Data Centre
#                                CCDC 
#
#######################################################################
#
# If this CIF has been generated from an entry in the Cambridge 
# Structural Database, then it will include bibliographic, chemical, 
# crystal, experimental, refinement or atomic coordinate data resulting 
# from the CCDC's data processing and validation procedures.
#
#######################################################################

data_ACEXOX
_chemical_formula_moiety         'C16 H28 O3 Si1'
_chemical_name_systematic        
6-((t-Butyl(dimethyl)silyl)oxy)-3,3-dimethyl-3a,4,7,7a-tetrahydro-2-benzofuran-1(3H)-one
_symmetry_cell_setting           monoclinic
_symmetry_space_group_name_H-M   'P 21/c'
_symmetry_Int_Tables_number      14
_space_group_name_Hall           '-P 2ybc'
loop_
_symmetry_equiv_pos_site_id
_symmetry_equiv_pos_as_xyz
1 x,y,z
2 -x,1/2+y,1/2-z
3 -x,-y,-z
4 x,1/2-y,1/2+z
_cell_length_a                   6.2990(13)
_cell_length_b                   26.629(5)
_cell_length_c                   10.436(2)
_cell_angle_alpha                90
_cell_angle_beta                 90.20(3)
_cell_angle_gamma                90
_cell_volume                     1750.48
_cell_formula_units_Z            4
loop_
_atom_site_label
_atom_site_type_symbol
_atom_site_fract_x
_atom_site_fract_y
_atom_site_fract_z
C1 C -0.1401(5) 0.77921(11) 0.3905(3)
C2 C 0.0437(5) 0.75294(9) 0.3310(3)
H1 H 0.1525 0.7553 0.3981
C3 C 0.0365(4) 0.69825(7) 0.3051(2)
H2 H -0.0962 0.6897 0.2631
H3 H 0.0447 0.6798 0.3851
C4 C 0.2194(3) 0.68431(7) 0.2210(2)
C5 C 0.3459(4) 0.71690(8) 0.1669(2)
H4 H 0.4577 0.7045 0.1183
C6 C 0.3239(4) 0.77324(8) 0.1777(2)
H5 H 0.4396 0.7867 0.2287
H6 H 0.3300 0.7883 0.0932
C7 C 0.1209(4) 0.78517(8) 0.2381(3)
H7 H 0.0222 0.7783 0.1674
C8 C 0.0527(5) 0.83796(8) 0.2762(3)
C9 C 0.2122(5) 0.86689(10) 0.3552(3)
H8 H 0.1483 0.8973 0.3857
H9 H 0.3332 0.8749 0.3034
H10 H 0.2566 0.8468 0.4269
C10 C -0.0321(5) 0.86814(10) 0.1650(3)
H11 H -0.1424 0.8495 0.1226
H12 H 0.0806 0.8748 0.1057
H13 H -0.0886 0.8993 0.1960
C11 C 0.5490(4) 0.61706(9) 0.3994(2)
H14 H 0.5841 0.6521 0.3956
H15 H 0.6744 0.5980 0.4186
H16 H 0.4450 0.6116 0.4650
C12 C 0.6455(4) 0.59958(9) 0.1170(2)
H17 H 0.5822 0.5921 0.0354
H18 H 0.7546 0.5754 0.1353
H19 H 0.7063 0.6326 0.1148
C13 C 0.3227(4) 0.53249(7) 0.2522(2)
C14 C 0.1532(4) 0.53049(8) 0.3571(3)
H20 H 0.0430 0.5543 0.3379
H21 H 0.2166 0.5386 0.4382
H22 H 0.0938 0.4973 0.3608
C15 C 0.2179(4) 0.51811(8) 0.1242(2)
H23 H 0.1575 0.4851 0.1310
H24 H 0.3226 0.5184 0.0577
H25 H 0.1081 0.5419 0.1041
C16 C 0.4963(4) 0.49384(9) 0.2826(3)
H26 H 0.5625 0.5021 0.3629
H27 H 0.6008 0.4942 0.2159
H28 H 0.4342 0.4610 0.2881
O1 O -0.1298(3) 0.82703(7) 0.36056(19)
O2 O -0.2752(4) 0.76193(7) 0.4594(2)
O3 O 0.2356(2) 0.63304(5) 0.20605(15)
Si1 Si 0.44001(10) 0.59679(2) 0.24312(6)
loop_
_geom_bond_atom_site_label_1
_geom_bond_atom_site_label_2
_geom_bond_site_symmetry_1
_geom_bond_site_symmetry_2
C1 C2 1_555 1_555
C2 H1 1_555 1_555
C3 C2 1_555 1_555
H2 C3 1_555 1_555
H3 C3 1_555 1_555
C4 C3 1_555 1_555
C5 C4 1_555 1_555
H4 C5 1_555 1_555
C6 C5 1_555 1_555
H5 C6 1_555 1_555
H6 C6 1_555 1_555
C7 C2 1_555 1_555
H7 C7 1_555 1_555
C8 C7 1_555 1_555
C9 C8 1_555 1_555
H8 C9 1_555 1_555
H9 C9 1_555 1_555
H10 C9 1_555 1_555
C10 C8 1_555 1_555
H11 C10 1_555 1_555
H12 C10 1_555 1_555
H13 C10 1_555 1_555
C11 H14 1_555 1_555
H15 C11 1_555 1_555
H16 C11 1_555 1_555
C12 H17 1_555 1_555
H18 C12 1_555 1_555
H19 C12 1_555 1_555
C13 C14 1_555 1_555
C14 H20 1_555 1_555
H21 C14 1_555 1_555
H22 C14 1_555 1_555
C15 C13 1_555 1_555
H23 C15 1_555 1_555
H24 C15 1_555 1_555
H25 C15 1_555 1_555
C16 C13 1_555 1_555
H26 C16 1_555 1_555
H27 C16 1_555 1_555
H28 C16 1_555 1_555
O1 C1 1_555 1_555
O2 C1 1_555 1_555
O3 C4 1_555 1_555
Si1 C11 1_555 1_555
C6 C7 1_555 1_555
C8 O1 1_555 1_555
C12 Si1 1_555 1_555
C13 Si1 1_555 1_555
O3 Si1 1_555 1_555

#END
