
#######################################################################
#
#                 Cambridge Crystallographic Data Centre
#                                CCDC 
#
#######################################################################
#
# If this CIF has been generated from an entry in the Cambridge 
# Structural Database, then it will include bibliographic, chemical, 
# crystal, experimental, refinement or atomic coordinate data resulting 
# from the CCDC's data processing and validation procedures.
#
#######################################################################

data_ACEXAI
_chemical_formula_moiety         'C14 H11 Cl1 N2 O1'
_chemical_name_systematic        
3-(4-Chlorophenyl)-3,4-dihydroquinazolin-2(1H)-one
_symmetry_cell_setting           monoclinic
_symmetry_space_group_name_H-M   'P 21/c'
_symmetry_Int_Tables_number      14
_space_group_name_Hall           '-P 2ybc'
loop_
_symmetry_equiv_pos_site_id
_symmetry_equiv_pos_as_xyz
1 x,y,z
2 x,1/2-y,1/2+z
3 -x,-y,-z
4 -x,1/2+y,1/2-z
_cell_length_a                   9.788(2)
_cell_length_b                   13.142(3)
_cell_length_c                   10.114(2)
_cell_angle_alpha                90
_cell_angle_beta                 111.329(4)
_cell_angle_gamma                90
_cell_volume                     1211.89
_exptl_crystal_colour            colorless
_exptl_crystal_description       block
_chemical_melting_point          '552-553 K'
_cell_formula_units_Z            4
loop_
_atom_site_label
_atom_site_type_symbol
_atom_site_fract_x
_atom_site_fract_y
_atom_site_fract_z
Cl1 Cl 1.17552(4) 0.08482(3) 1.23922(4)
O1 O 0.65179(10) 0.40940(7) 1.05253(10)
N1 N 0.57442(13) 0.51126(9) 0.85885(13)
N2 N 0.76210(12) 0.39581(9) 0.88803(11)
C1 C 0.66197(13) 0.43694(10) 0.93965(14)
C2 C 0.74234(17) 0.40419(11) 0.73756(14)
H1 H 0.6756 0.3497 0.6833
H2 H 0.8381 0.3948 0.7267
C3 C 0.67993(14) 0.50578(10) 0.67866(14)
C4 C 0.59493(14) 0.55671(11) 0.74218(14)
C5 C 0.69748(15) 0.54795(11) 0.55997(15)
H3 H 0.7539 0.5130 0.5152
C6 C 0.63332(16) 0.64073(12) 0.50611(16)
H4 H 0.6457 0.6692 0.4249
C7 C 0.55076(17) 0.69171(12) 0.57205(16)
H5 H 0.5073 0.7554 0.5359
C8 C 0.53153(15) 0.65020(11) 0.68998(15)
H6 H 0.4754 0.6853 0.7349
C9 C 0.86292(13) 0.32077(10) 0.97114(13)
C10 C 0.86808(14) 0.22494(10) 0.91564(14)
H7 H 0.8039 0.2086 0.8221
C11 C 0.96687(15) 0.15283(10) 0.99654(15)
H8 H 0.9715 0.0874 0.9585
C12 C 1.05842(14) 0.17722(10) 1.13298(14)
C13 C 1.05681(15) 0.27301(11) 1.18835(15)
H9 H 1.1219 0.2894 1.2815
C14 C 0.95910(15) 0.34496(11) 1.10649(15)
H10 H 0.9579 0.4113 1.1433
H11 H 0.511(2) 0.5347(13) 0.8912(18)
loop_
_geom_bond_atom_site_label_1
_geom_bond_atom_site_label_2
_geom_bond_site_symmetry_1
_geom_bond_site_symmetry_2
Cl1 C12 1_555 1_555
O1 C1 1_555 1_555
N1 C1 1_555 1_555
N2 C1 1_555 1_555
C2 N2 1_555 1_555
H1 C2 1_555 1_555
H2 C2 1_555 1_555
C3 C2 1_555 1_555
C4 N1 1_555 1_555
C5 C3 1_555 1_555
H3 C5 1_555 1_555
C6 C5 1_555 1_555
H4 C6 1_555 1_555
C7 C6 1_555 1_555
H5 C7 1_555 1_555
C8 C4 1_555 1_555
H6 C8 1_555 1_555
C9 N2 1_555 1_555
C10 C9 1_555 1_555
H7 C10 1_555 1_555
C11 C10 1_555 1_555
H8 C11 1_555 1_555
C12 C11 1_555 1_555
C13 C12 1_555 1_555
H9 C13 1_555 1_555
C14 C9 1_555 1_555
H10 C14 1_555 1_555
H11 N1 1_555 1_555
C3 C4 1_555 1_555
C7 C8 1_555 1_555
C13 C14 1_555 1_555

#END
