
#######################################################################
#
#                 Cambridge Crystallographic Data Centre
#                                CCDC 
#
#######################################################################
#
# If this CIF has been generated from an entry in the Cambridge 
# Structural Database, then it will include bibliographic, chemical, 
# crystal, experimental, refinement or atomic coordinate data resulting 
# from the CCDC's data processing and validation procedures.
#
#######################################################################

data_ACEXUD
_chemical_formula_moiety         'C17 H27 Br1 O4 Si1'
_chemical_name_systematic        
6-Bromo-3,3-dimethyl-8a-((triethylsilyl)oxy)-3a,4,8,8a-tetrahydro-1H-cyclohepta[c]furan-1,7(3H)-dione
_symmetry_cell_setting           monoclinic
_symmetry_space_group_name_H-M   'P 21/n'
_symmetry_Int_Tables_number      14
_space_group_name_Hall           '-P 2yn'
loop_
_symmetry_equiv_pos_site_id
_symmetry_equiv_pos_as_xyz
1 x,y,z
2 1/2-x,1/2+y,1/2-z
3 -x,-y,-z
4 1/2+x,1/2-y,1/2+z
_cell_length_a                   12.684(3)
_cell_length_b                   11.251(2)
_cell_length_c                   14.317(3)
_cell_angle_alpha                90
_cell_angle_beta                 110.92(3)
_cell_angle_gamma                90
_cell_volume                     1908.46
_cell_formula_units_Z            4
loop_
_atom_site_label
_atom_site_type_symbol
_atom_site_fract_x
_atom_site_fract_y
_atom_site_fract_z
Br1 Br 0.16190(6) 0.57448(6) 1.03451(5)
C1 C 0.2672(5) 1.0449(4) 0.8460(4)
C2 C 0.2189(3) 0.9358(4) 0.8816(3)
C3 C 0.3052(4) 0.8338(4) 0.8996(3)
H1 H 0.3013 0.8015 0.8356
H2 H 0.3806 0.8654 0.9325
C4 C 0.2854(5) 0.7341(4) 0.9632(4)
C5 C 0.1695(5) 0.6861(4) 0.9380(4)
C6 C 0.0799(4) 0.7080(4) 0.8608(4)
H3 H 0.0131 0.6727 0.8594
C7 C 0.0736(4) 0.7847(4) 0.7735(4)
H4 H -0.0032 0.7824 0.7257
H5 H 0.1218 0.7504 0.7412
C8 C 0.1073(4) 0.9146(4) 0.7975(3)
H6 H 0.0488 0.9511 0.8179
C9 C 0.1120(4) 0.9871(4) 0.7061(4)
C10 C 0.1513(5) 0.9187(4) 0.6316(4)
H7 H 0.1643 0.9736 0.5855
H8 H 0.0942 0.8628 0.5954
H9 H 0.2200 0.8771 0.6672
C11 C 0.0021(4) 1.0565(5) 0.6549(4)
H10 H -0.0131 1.1061 0.7031
H11 H -0.0592 1.0017 0.6269
H12 H 0.0098 1.1051 0.6026
C12 C 0.2256(5) 1.2047(4) 1.0373(4)
H13 H 0.2411 1.2496 1.0986
H14 H 0.2750 1.2347 1.0043
C13 C 0.1024(6) 1.2275(5) 0.9690(5)
H15 H 0.0903 1.1972 0.9033
H16 H 0.0876 1.3114 0.9652
H17 H 0.0525 1.1882 0.9960
C14 C 0.4136(4) 1.0206(5) 1.1331(4)
H18 H 0.4252 0.9359 1.1451
H19 H 0.4515 1.0435 1.0879
C15 C 0.4703(4) 1.0854(5) 1.2325(4)
H20 H 0.4651 1.1697 1.2212
H21 H 0.5483 1.0626 1.2605
H22 H 0.4331 1.0647 1.2780
C16 C 0.1865(4) 1.0007(5) 1.1542(4)
H23 H 0.2047 1.0568 1.2091
H24 H 0.1059 1.0059 1.1176
C17 C 0.2128(5) 0.8766(5) 1.1978(5)
H25 H 0.1837 0.8190 1.1453
H26 H 0.1782 0.8652 1.2468
H27 H 0.2930 0.8671 1.2287
O1 O 0.3479(3) 1.1014(3) 0.8928(3)
O2 O 0.2024(3) 1.0753(3) 0.7517(2)
O3 O 0.3644(3) 0.6979(3) 1.0335(3)
O4 O 0.2030(2) 0.9599(3) 0.9719(2)
Si1 Si 0.26076(11) 1.04749(12) 1.07000(10)
loop_
_geom_bond_atom_site_label_1
_geom_bond_atom_site_label_2
_geom_bond_site_symmetry_1
_geom_bond_site_symmetry_2
Br1 C5 1_555 1_555
C1 C2 1_555 1_555
C2 C3 1_555 1_555
C3 H1 1_555 1_555
H2 C3 1_555 1_555
C4 C3 1_555 1_555
C5 C4 1_555 1_555
C6 C5 1_555 1_555
H3 C6 1_555 1_555
C7 C6 1_555 1_555
H4 C7 1_555 1_555
H5 C7 1_555 1_555
C8 C2 1_555 1_555
H6 C8 1_555 1_555
C9 C8 1_555 1_555
C10 C9 1_555 1_555
H7 C10 1_555 1_555
H8 C10 1_555 1_555
H9 C10 1_555 1_555
C11 C9 1_555 1_555
H10 C11 1_555 1_555
H11 C11 1_555 1_555
H12 C11 1_555 1_555
C12 H13 1_555 1_555
H14 C12 1_555 1_555
C13 C12 1_555 1_555
H15 C13 1_555 1_555
H16 C13 1_555 1_555
H17 C13 1_555 1_555
C14 H18 1_555 1_555
H19 C14 1_555 1_555
C15 C14 1_555 1_555
H20 C15 1_555 1_555
H21 C15 1_555 1_555
H22 C15 1_555 1_555
C16 H23 1_555 1_555
H24 C16 1_555 1_555
C17 C16 1_555 1_555
H25 C17 1_555 1_555
H26 C17 1_555 1_555
H27 C17 1_555 1_555
O1 C1 1_555 1_555
O2 C1 1_555 1_555
O3 C4 1_555 1_555
O4 C2 1_555 1_555
Si1 C12 1_555 1_555
C7 C8 1_555 1_555
C9 O2 1_555 1_555
C14 Si1 1_555 1_555
C16 Si1 1_555 1_555
O4 Si1 1_555 1_555

#END
