
#######################################################################
#
#                 Cambridge Crystallographic Data Centre
#                                CCDC 
#
#######################################################################
#
# If this CIF has been generated from an entry in the Cambridge 
# Structural Database, then it will include bibliographic, chemical, 
# crystal, experimental, refinement or atomic coordinate data resulting 
# from the CCDC's data processing and validation procedures.
#
#######################################################################

data_ACEYIR
_chemical_formula_moiety         'C22 H14 Cl1 N3 O1,C3 H7 N1 O1'
_chemical_name_systematic        
'9-Chloro-2,3-diphenyl-5,6-dihydroimidazo(1,2-c)quinazolin-5-one N,N-dimethylformamide solvate'
_symmetry_cell_setting           monoclinic
_symmetry_space_group_name_H-M   'P 21/n'
_symmetry_Int_Tables_number      14
_space_group_name_Hall           '-P 2yn'
loop_
_symmetry_equiv_pos_site_id
_symmetry_equiv_pos_as_xyz
1 x,y,z
2 1/2+x,1/2-y,1/2+z
3 -x,-y,-z
4 1/2-x,1/2+y,1/2-z
_cell_length_a                   8.9157(10)
_cell_length_b                   11.2560(13)
_cell_length_c                   21.496(3)
_cell_angle_alpha                90
_cell_angle_beta                 97.370(3)
_cell_angle_gamma                90
_cell_volume                     2139.41
_exptl_crystal_colour            colorless
_exptl_crystal_description       block
_chemical_melting_point          '593-595 K'
_cell_formula_units_Z            4
loop_
_atom_site_label
_atom_site_type_symbol
_atom_site_fract_x
_atom_site_fract_y
_atom_site_fract_z
Cl1 Cl -0.09225(5) 0.86381(4) 0.43593(2)
O1 O 0.42240(13) 0.28989(10) 0.51081(5)
N1 N 0.00996(14) 0.39204(11) 0.37607(6)
N2 N 0.21852(14) 0.35085(11) 0.44122(6)
N3 N 0.32771(15) 0.47540(12) 0.52014(6)
C1 C 0.10656(16) 0.43284(13) 0.42195(7)
C2 C 0.05961(17) 0.27827(13) 0.36436(7)
C3 C 0.19065(17) 0.25081(13) 0.40308(7)
C4 C 0.33172(17) 0.36701(14) 0.49283(7)
C5 C 0.22872(17) 0.56743(13) 0.50081(7)
C6 C 0.11329(16) 0.54810(13) 0.45122(7)
C7 C 0.24335(18) 0.67780(15) 0.53042(7)
H1 H 0.3213 0.6906 0.5642
C8 C 0.14457(19) 0.76845(14) 0.51053(8)
H2 H 0.1543 0.8440 0.5304
C9 C 0.03073(18) 0.74831(14) 0.46118(8)
C10 C 0.01275(18) 0.63999(13) 0.43137(7)
H3 H -0.0664 0.6279 0.3980
C11 C -0.02644(17) 0.20665(14) 0.31467(7)
C12 C -0.1109(2) 0.26281(16) 0.26411(8)
H4 H -0.1104 0.3471 0.2615
C13 C -0.1958(2) 0.19732(18) 0.21744(9)
H5 H -0.2522 0.2371 0.1831
C14 C -0.1989(2) 0.07489(17) 0.22043(9)
H6 H -0.2578 0.0303 0.1886
C15 C -0.1153(2) 0.01808(16) 0.27017(9)
H7 H -0.1161 -0.0662 0.2724
C16 C -0.03008(19) 0.08312(15) 0.31694(8)
H8 H 0.0266 0.0427 0.3510
C17 C 0.30355(17) 0.15424(14) 0.40135(7)
C18 C 0.2886(2) 0.04401(15) 0.42878(8)
H9 H 0.2031 0.0280 0.4496
C19 C 0.3980(2) -0.04317(17) 0.42596(9)
H10 H 0.3880 -0.1180 0.4454
C20 C 0.5208(2) -0.02097(18) 0.39497(10)
H11 H 0.5944 -0.0812 0.3924
C21 C 0.5377(2) 0.08873(19) 0.36751(9)
H12 H 0.6230 0.1038 0.3463
C22 C 0.42973(18) 0.17675(16) 0.37101(8)
H13 H 0.4419 0.2524 0.3527
H21 H 0.400(2) 0.4871(19) 0.5538(10)
O2 O 0.44875(14) 0.49490(11) 0.37901(5)
N4 N 0.28686(17) 0.60844(13) 0.31392(7)
C23 C 0.3921(2) 0.59168(16) 0.36244(8)
H14 H 0.4267 0.6595 0.3864
C24 C 0.2278(2) 0.51044(18) 0.27456(9)
H15 H 0.2800 0.4370 0.2891
H16 H 0.2441 0.5261 0.2311
H17 H 0.1192 0.5019 0.2768
C25 C 0.2255(3) 0.72548(19) 0.29793(10)
H18 H 0.2734 0.7838 0.3280
H19 H 0.1161 0.7249 0.2995
H20 H 0.2455 0.7467 0.2556
loop_
_geom_bond_atom_site_label_1
_geom_bond_atom_site_label_2
_geom_bond_site_symmetry_1
_geom_bond_site_symmetry_2
Cl1 C9 1_555 1_555
O1 C4 1_555 1_555
O2 C23 1_555 1_555
N1 C1 1_555 1_555
N2 C1 1_555 1_555
N3 C4 1_555 1_555
N4 C23 1_555 1_555
C1 C6 1_555 1_555
C2 N1 1_555 1_555
C3 N2 1_555 1_555
C4 N2 1_555 1_555
C5 N3 1_555 1_555
C6 C5 1_555 1_555
C7 C5 1_555 1_555
H1 C7 1_555 1_555
C8 C7 1_555 1_555
H2 C8 1_555 1_555
C9 C8 1_555 1_555
C10 C6 1_555 1_555
H3 C10 1_555 1_555
C11 C2 1_555 1_555
C12 C11 1_555 1_555
H4 C12 1_555 1_555
C13 C12 1_555 1_555
H5 C13 1_555 1_555
C14 C13 1_555 1_555
H6 C14 1_555 1_555
C15 C14 1_555 1_555
H7 C15 1_555 1_555
C16 C11 1_555 1_555
H8 C16 1_555 1_555
C17 C3 1_555 1_555
C18 C17 1_555 1_555
H9 C18 1_555 1_555
C19 C18 1_555 1_555
H10 C19 1_555 1_555
C20 C19 1_555 1_555
H11 C20 1_555 1_555
C21 C20 1_555 1_555
H12 C21 1_555 1_555
C22 C17 1_555 1_555
H13 C22 1_555 1_555
C23 H14 1_555 1_555
C24 N4 1_555 1_555
H15 C24 1_555 1_555
H16 C24 1_555 1_555
H17 C24 1_555 1_555
C25 N4 1_555 1_555
H18 C25 1_555 1_555
H19 C25 1_555 1_555
H20 C25 1_555 1_555
H21 N3 1_555 1_555
C2 C3 1_555 1_555
C9 C10 1_555 1_555
C15 C16 1_555 1_555
C21 C22 1_555 1_555

#END
