
#######################################################################
#
#                 Cambridge Crystallographic Data Centre
#                                CCDC 
#
#######################################################################
#
# If this CIF has been generated from an entry in the Cambridge 
# Structural Database, then it will include bibliographic, chemical, 
# crystal, experimental, refinement or atomic coordinate data resulting 
# from the CCDC's data processing and validation procedures.
#
#######################################################################

data_ACEYEN
_chemical_formula_moiety         'C10 H10 N2 2+,2(C14 H9 O4 S2 1-),2(H2 O1)'
_chemical_name_systematic        
"(4,4'-Bipyridylium) bis(hydrogen 2,2'-dithiodibenzoate) dihydrate"
_symmetry_cell_setting           triclinic
_symmetry_space_group_name_H-M   'P -1'
_symmetry_Int_Tables_number      2
_space_group_name_Hall           '-P 1'
loop_
_symmetry_equiv_pos_site_id
_symmetry_equiv_pos_as_xyz
1 x,y,z
2 -x,-y,-z
_cell_length_a                   7.913(2)
_cell_length_b                   11.192(2)
_cell_length_c                   11.438(3)
_cell_angle_alpha                64.80(2)
_cell_angle_beta                 82.26(3)
_cell_angle_gamma                77.32(3)
_cell_volume                     893.238
_exptl_crystal_colour            colorless
_exptl_crystal_description       prism
_cell_formula_units_Z            1
_exptl_crystal_recrystallization_method ethanol/methanol
loop_
_atom_site_label
_atom_site_type_symbol
_atom_site_fract_x
_atom_site_fract_y
_atom_site_fract_z
S1 S 0.51749(14) 0.19868(10) 0.26432(10)
S2 S 0.62103(14) 0.00481(10) 0.28699(11)
O1 O 0.1382(4) 0.5754(3) 0.1103(3)
H1 H 0.0922 0.5964 0.1692
O2 O 0.3007(4) 0.4177(3) 0.2676(3)
O3 O 0.9871(4) -0.3504(3) 0.2877(3)
O4 O 0.7378(4) -0.2463(3) 0.3422(3)
C1 C 0.4429(5) 0.2827(4) 0.1024(4)
C2 C 0.5041(5) 0.2291(4) 0.0112(4)
H2 H 0.5850 0.1497 0.0342
C3 C 0.4454(6) 0.2928(5) -0.1127(4)
H3 H 0.4843 0.2547 -0.1717
C4 C 0.3306(6) 0.4115(5) -0.1491(5)
H4 H 0.2931 0.4545 -0.2332
C5 C 0.2704(6) 0.4676(4) -0.0622(4)
H5 H 0.1923 0.5485 -0.0880
C6 C 0.3249(5) 0.4048(4) 0.0646(4)
C7 C 0.2546(5) 0.4657(4) 0.1571(4)
C8 C 0.8397(5) 0.0074(4) 0.2184(4)
C9 C 0.9021(5) 0.1276(4) 0.1585(4)
H6 H 0.8314 0.2075 0.1543
C10 C 1.0703(5) 0.1274(4) 0.1052(4)
H7 H 1.1131 0.2073 0.0671
C11 C 1.1737(6) 0.0112(5) 0.1081(5)
H8 H 1.2857 0.0127 0.0712
C12 C 1.1128(5) -0.1081(4) 0.1654(4)
H9 H 1.1843 -0.1868 0.1672
C13 C 0.9447(5) -0.1121(4) 0.2209(4)
C14 C 0.8865(5) -0.2458(4) 0.2869(4)
N1 N 0.2185(5) 0.6895(3) 0.5036(3)
H10 H 0.2715 0.6138 0.5033
C15 C 0.2997(7) 0.7938(5) 0.4564(5)
H11 H 0.4138 0.7843 0.4239
C16 C 0.2166(6) 0.9155(4) 0.4554(5)
H12 H 0.2759 0.9871 0.4225
C17 C 0.0479(5) 0.9341(4) 0.5017(4)
C18 C -0.0310(6) 0.8216(4) 0.5521(4)
H13 H -0.1442 0.8282 0.5868
C19 C 0.0550(6) 0.7015(4) 0.5516(5)
H14 H -0.0006 0.6279 0.5848
C17A C -0.0479(5) 1.0659(4) 0.4983(4)
C16A C -0.2166(6) 1.0845(4) 0.5446(5)
C15A C -0.2997(7) 1.2062(5) 0.5436(5)
N1A N -0.2185(5) 1.3105(3) 0.4964(3)
H10A H -0.2715 1.3862 0.4967
C19A C -0.0550(6) 1.2985(4) 0.4484(5)
C18A C 0.0310(6) 1.1784(4) 0.4479(4)
H13A H 0.1442 1.1718 0.4132
H14A H 0.0006 1.3721 0.4152
H11A H -0.4138 1.2157 0.5761
H12A H -0.2759 1.0129 0.5775
O5 O 0.3367(4) 0.4652(3) 0.4780(3)
H15 H 0.3027 0.4010 0.5415
H16 H 0.3037 0.4700 0.4094
loop_
_geom_bond_atom_site_label_1
_geom_bond_atom_site_label_2
_geom_bond_site_symmetry_1
_geom_bond_site_symmetry_2
S1 S2 1_555 1_555
S2 C8 1_555 1_555
O1 H1 1_555 1_555
O2 C7 1_555 1_555
O3 C14 1_555 1_555
O4 C14 1_555 1_555
C1 S1 1_555 1_555
C2 C1 1_555 1_555
H2 C2 1_555 1_555
C3 C2 1_555 1_555
H3 C3 1_555 1_555
C4 C3 1_555 1_555
H4 C4 1_555 1_555
C5 C4 1_555 1_555
H5 C5 1_555 1_555
C6 C1 1_555 1_555
C7 O1 1_555 1_555
C8 C9 1_555 1_555
C9 H6 1_555 1_555
C10 C9 1_555 1_555
H7 C10 1_555 1_555
C11 C10 1_555 1_555
H8 C11 1_555 1_555
C12 C11 1_555 1_555
H9 C12 1_555 1_555
C13 C8 1_555 1_555
C14 C13 1_555 1_555
N1 H10 1_555 1_555
C15 N1 1_555 1_555
H11 C15 1_555 1_555
C16 C15 1_555 1_555
H12 C16 1_555 1_555
C17 C16 1_555 1_555
C18 C17 1_555 1_555
H13 C18 1_555 1_555
C19 N1 1_555 1_555
H14 C19 1_555 1_555
O5 H15 1_555 1_555
H16 O5 1_555 1_555
C17A C17 1_555 1_555
C16A C17A 1_555 1_555
C15A C16A 1_555 1_555
N1A C15A 1_555 1_555
H10A N1A 1_555 1_555
C19A N1A 1_555 1_555
C18A C17A 1_555 1_555
H13A C18A 1_555 1_555
H14A C19A 1_555 1_555
H11A C15A 1_555 1_555
H12A C16A 1_555 1_555
C5 C6 1_555 1_555
C6 C7 1_555 1_555
C12 C13 1_555 1_555
C18 C19 1_555 1_555
C19A C18A 1_555 1_555

#END
