
#######################################################################
#
#                 Cambridge Crystallographic Data Centre
#                                CCDC 
#
#######################################################################
#
# If this CIF has been generated from an entry in the Cambridge 
# Structural Database, then it will include bibliographic, chemical, 
# crystal, experimental, refinement or atomic coordinate data resulting 
# from the CCDC's data processing and validation procedures.
#
#######################################################################

data_ACEZOY
_chemical_formula_moiety         'C34 H32 N4'
_chemical_name_systematic        
1,2-bis(3,5-Dimethylpyrazol-1-yl)-anti-(2.2)paracyclonaphthane
_symmetry_cell_setting           orthorhombic
_symmetry_space_group_name_H-M   'I b c a'
_symmetry_Int_Tables_number      73
_space_group_name_Hall           '-I 2b 2c'
loop_
_symmetry_equiv_pos_site_id
_symmetry_equiv_pos_as_xyz
1 x,y,z
2 1/2+x,1/2+y,1/2+z
3 1/2+x,y,1/2-z
4 x,1/2-y,1/2+z
5 1/2-x,1/2+y,z
6 x,1/2+y,-z
7 1/2+x,-y,z
8 -x,y,1/2+z
9 -x,-y,-z
10 1/2-x,1/2-y,1/2-z
11 1/2-x,-y,1/2+z
12 -x,1/2+y,1/2-z
13 1/2+x,1/2-y,-z
14 -x,1/2-y,z
15 1/2-x,y,-z
16 x,-y,1/2-z
_cell_length_a                   16.6732(18)
_cell_length_b                   16.674(2)
_cell_length_c                   39.267(8)
_cell_angle_alpha                90
_cell_angle_beta                 90
_cell_angle_gamma                90
_cell_volume                     10916.6
_exptl_crystal_colour            colorless
_exptl_crystal_description       prism
_cell_formula_units_Z            16
loop_
_atom_site_label
_atom_site_type_symbol
_atom_site_fract_x
_atom_site_fract_y
_atom_site_fract_z
N1 N 0.52791(17) 0.84588(15) 0.52268(6)
N2 N 0.60947(17) 0.84088(17) 0.52440(6)
C1 C 0.4761(2) 0.82831(18) 0.46406(7)
C2 C 0.5437(2) 0.85487(18) 0.44805(8)
H1 H 0.5872 0.8721 0.4609
C3 C 0.5485(2) 0.85644(18) 0.41239(8)
H2 H 0.5951 0.8749 0.4020
C4 C 0.4862(2) 0.8314(2) 0.39261(7)
C5 C 0.40990(19) 0.82178(19) 0.40847(7)
C6 C 0.3394(2) 0.8080(2) 0.38930(8)
H3 H 0.3419 0.8097 0.3657
C7 C 0.2688(2) 0.7924(3) 0.40459(9)
H4 H 0.2233 0.7834 0.3914
C8 C 0.2633(2) 0.7896(2) 0.43994(9)
H5 H 0.2142 0.7790 0.4503
C9 C 0.32916(19) 0.8024(2) 0.45932(8)
H6 H 0.3246 0.8000 0.4829
C10 C 0.40486(18) 0.81942(18) 0.44465(7)
C11 C 0.4818(2) 0.79382(19) 0.49999(7)
H7 H 0.4272 0.7903 0.5091
C12 C 0.5027(2) 0.7969(2) 0.35764(7)
H8 H 0.5559 0.8130 0.3503
H9 H 0.4643 0.8184 0.3415
C13 C 0.5002(2) 0.9135(2) 0.53758(8)
C14 C 0.5654(2) 0.9526(2) 0.55020(8)
H10 H 0.5657 1.0007 0.5622
C15 C 0.6314(2) 0.9062(2) 0.54159(8)
C16 C 0.4133(2) 0.9346(2) 0.53808(10)
H11 H 0.3951 0.9439 0.5152
H12 H 0.4055 0.9822 0.5514
H13 H 0.3834 0.8912 0.5479
C17 C 0.7178(2) 0.9215(3) 0.54951(11)
H14 H 0.7509 0.8926 0.5337
H15 H 0.7293 0.9038 0.5723
H16 H 0.7287 0.9779 0.5477
C12M C 0.4973(2) 0.7031(2) 0.35764(7)
C4M C 0.5138(2) 0.6686(2) 0.39261(7)
C3M C 0.4515(2) 0.64356(18) 0.41239(8)
C2M C 0.4563(2) 0.64513(18) 0.44805(8)
C1M C 0.5239(2) 0.67169(18) 0.46406(7)
C10M C 0.59514(18) 0.68058(18) 0.44465(7)
C5M C 0.59010(19) 0.67822(19) 0.40847(7)
C6M C 0.6606(2) 0.6920(2) 0.38930(8)
H3M H 0.6581 0.6903 0.3657
C7M C 0.7312(2) 0.7076(3) 0.40459(9)
H4M H 0.7767 0.7166 0.3914
C8M C 0.7367(2) 0.7104(2) 0.43994(9)
H5M H 0.7858 0.7210 0.4503
C9M C 0.67084(19) 0.6976(2) 0.45932(8)
H6M H 0.6754 0.7000 0.4829
C11M C 0.5182(2) 0.70618(19) 0.49999(7)
N1M N 0.47209(17) 0.65412(15) 0.52268(6)
N2M N 0.39053(17) 0.65912(17) 0.52440(6)
C15M C 0.3686(2) 0.5938(2) 0.54159(8)
C14M C 0.4346(2) 0.5474(2) 0.55020(8)
C13M C 0.4998(2) 0.5865(2) 0.53758(8)
C16M C 0.5867(2) 0.5654(2) 0.53808(10)
H11M H 0.6049 0.5561 0.5152
H12M H 0.5945 0.5178 0.5514
H13M H 0.6166 0.6088 0.5479
H10M H 0.4343 0.4993 0.5622
C17M C 0.2822(2) 0.5785(3) 0.54951(11)
H14M H 0.2491 0.6074 0.5337
H15M H 0.2707 0.5962 0.5723
H16M H 0.2713 0.5221 0.5477
H7M H 0.5728 0.7097 0.5091
H1M H 0.4128 0.6279 0.4609
H2M H 0.4049 0.6251 0.4020
H8M H 0.4441 0.6870 0.3503
H9M H 0.5357 0.6816 0.3415
N3 N 0.40497(14) 0.22133(17) 0.72563(6)
N4 N 0.41191(16) 0.13985(17) 0.72280(6)
C18 C 0.42118(18) 0.2706(2) 0.78436(7)
C19 C 0.39728(18) 0.2021(2) 0.79998(7)
H17 H 0.3812 0.1585 0.7869
C20 C 0.39656(19) 0.1959(2) 0.83584(7)
H18 H 0.3812 0.1479 0.8460
C21 C 0.4179(2) 0.2592(2) 0.85588(8)
C22 C 0.42299(19) 0.3365(2) 0.84031(7)
C23 C 0.4325(2) 0.4069(2) 0.85986(9)
H19 H 0.4301 0.4037 0.8835
C24 C 0.4450(3) 0.4793(2) 0.84487(10)
H20 H 0.4500 0.5251 0.8582
C25 C 0.4502(2) 0.4849(2) 0.80979(10)
H21 H 0.4601 0.5344 0.7997
C26 C 0.4409(2) 0.4188(2) 0.78982(8)
H22 H 0.4441 0.4240 0.7663
C27 C 0.42665(18) 0.34221(19) 0.80423(7)
C28 C 0.45589(18) 0.2671(2) 0.74867(6)
H23 H 0.4583 0.3222 0.7400
C29 C 0.4528(2) 0.2445(2) 0.89073(7)
H24 H 0.4396 0.1905 0.8980
H25 H 0.4290 0.2817 0.9068
C30 C 0.3364(2) 0.24863(19) 0.71081(8)
C31 C 0.2999(2) 0.1829(2) 0.69694(9)
H26 H 0.2523 0.1822 0.6846
C32 C 0.3478(2) 0.1173(2) 0.70493(8)
C33 C 0.3113(2) 0.3334(2) 0.71232(10)
H27 H 0.2931 0.3458 0.7349
H28 H 0.2684 0.3423 0.6964
H29 H 0.3559 0.3672 0.7066
C34 C 0.3352(3) 0.0313(3) 0.69641(13)
H30 H 0.3862 0.0054 0.6937
H31 H 0.3054 0.0272 0.6756
H32 H 0.3058 0.0058 0.7144
C29M C 0.5472(2) 0.2555(2) 0.89073(7)
C21M C 0.5821(2) 0.2408(2) 0.85588(8)
C20M C 0.60344(19) 0.3041(2) 0.83584(7)
C19M C 0.60272(18) 0.2979(2) 0.79998(7)
C18M C 0.57882(18) 0.2294(2) 0.78436(7)
C27M C 0.57335(18) 0.15779(19) 0.80423(7)
C22M C 0.57701(19) 0.1635(2) 0.84031(7)
C23M C 0.5675(2) 0.0931(2) 0.85986(9)
H19M H 0.5699 0.0963 0.8835
C24M C 0.5550(3) 0.0207(2) 0.84487(10)
H20M H 0.5500 -0.0251 0.8582
C25M C 0.5498(2) 0.0151(2) 0.80979(10)
H21M H 0.5399 -0.0344 0.7997
C26M C 0.5591(2) 0.0812(2) 0.78982(8)
H22M H 0.5559 0.0760 0.7663
C28M C 0.54411(18) 0.2329(2) 0.74867(6)
N3M N 0.59503(14) 0.27867(17) 0.72563(6)
N4M N 0.58809(16) 0.36015(17) 0.72280(6)
C32M C 0.6522(2) 0.3827(2) 0.70493(8)
C31M C 0.7001(2) 0.3171(2) 0.69694(9)
C30M C 0.6636(2) 0.25137(19) 0.71081(8)
C33M C 0.6887(2) 0.1666(2) 0.71232(10)
H27M H 0.7069 0.1542 0.7349
H28M H 0.7316 0.1577 0.6964
H29M H 0.6441 0.1328 0.7066
H26M H 0.7477 0.3178 0.6846
C34M C 0.6648(3) 0.4687(3) 0.69641(13)
H30M H 0.6138 0.4946 0.6937
H31M H 0.6946 0.4728 0.6756
H32M H 0.6942 0.4942 0.7144
H23M H 0.5417 0.1778 0.7400
H17M H 0.6188 0.3415 0.7869
H18M H 0.6188 0.3521 0.8460
H24M H 0.5604 0.3095 0.8980
H25M H 0.5710 0.2183 0.9068
loop_
_geom_bond_atom_site_label_1
_geom_bond_atom_site_label_2
_geom_bond_site_symmetry_1
_geom_bond_site_symmetry_2
N1 N2 1_555 1_555
N2 C15 1_555 1_555
C1 C2 1_555 1_555
C2 H1 1_555 1_555
C3 C2 1_555 1_555
H2 C3 1_555 1_555
C4 C3 1_555 1_555
C5 C4 1_555 1_555
C6 C5 1_555 1_555
H3 C6 1_555 1_555
C7 C6 1_555 1_555
H4 C7 1_555 1_555
C8 C7 1_555 1_555
H5 C8 1_555 1_555
C9 C8 1_555 1_555
H6 C9 1_555 1_555
C10 C1 1_555 1_555
C11 N1 1_555 1_555
H7 C11 1_555 1_555
C12 C4 1_555 1_555
H8 C12 1_555 1_555
H9 C12 1_555 1_555
C13 N1 1_555 1_555
C14 C13 1_555 1_555
H10 C14 1_555 1_555
C15 C14 1_555 1_555
C16 C13 1_555 1_555
H11 C16 1_555 1_555
H12 C16 1_555 1_555
H13 C16 1_555 1_555
C17 C15 1_555 1_555
H14 C17 1_555 1_555
H15 C17 1_555 1_555
H16 C17 1_555 1_555
N3 N4 1_555 1_555
N4 C32 1_555 1_555
C18 C19 1_555 1_555
C19 H17 1_555 1_555
C20 C19 1_555 1_555
H18 C20 1_555 1_555
C21 C20 1_555 1_555
C22 C21 1_555 1_555
C23 C22 1_555 1_555
H19 C23 1_555 1_555
C24 C23 1_555 1_555
H20 C24 1_555 1_555
C25 C24 1_555 1_555
H21 C25 1_555 1_555
C26 C25 1_555 1_555
H22 C26 1_555 1_555
C27 C18 1_555 1_555
C28 N3 1_555 1_555
H23 C28 1_555 1_555
C29 C21 1_555 1_555
H24 C29 1_555 1_555
H25 C29 1_555 1_555
C30 N3 1_555 1_555
C31 C30 1_555 1_555
H26 C31 1_555 1_555
C32 C31 1_555 1_555
C33 C30 1_555 1_555
H27 C33 1_555 1_555
H28 C33 1_555 1_555
H29 C33 1_555 1_555
C34 C32 1_555 1_555
H30 C34 1_555 1_555
H31 C34 1_555 1_555
H32 C34 1_555 1_555
C12M C12 1_555 1_555
C4M C12M 1_555 1_555
C3M C4M 1_555 1_555
C2M C3M 1_555 1_555
C1M C2M 1_555 1_555
C10M C1M 1_555 1_555
C5M C4M 1_555 1_555
C6M C5M 1_555 1_555
H3M C6M 1_555 1_555
C7M C6M 1_555 1_555
H4M C7M 1_555 1_555
C8M C7M 1_555 1_555
H5M C8M 1_555 1_555
C9M C10M 1_555 1_555
H6M C9M 1_555 1_555
C11M C11 1_555 1_555
N1M C11M 1_555 1_555
N2M N1M 1_555 1_555
C15M N2M 1_555 1_555
C14M C15M 1_555 1_555
C13M N1M 1_555 1_555
C16M C13M 1_555 1_555
H11M C16M 1_555 1_555
H12M C16M 1_555 1_555
H13M C16M 1_555 1_555
H10M C14M 1_555 1_555
C17M C15M 1_555 1_555
H14M C17M 1_555 1_555
H15M C17M 1_555 1_555
H16M C17M 1_555 1_555
H7M C11M 1_555 1_555
H1M C2M 1_555 1_555
H2M C3M 1_555 1_555
H8M C12M 1_555 1_555
H9M C12M 1_555 1_555
C29M C29 1_555 1_555
C21M C29M 1_555 1_555
C20M C21M 1_555 1_555
C19M C20M 1_555 1_555
C18M C19M 1_555 1_555
C27M C18M 1_555 1_555
C22M C21M 1_555 1_555
C23M C22M 1_555 1_555
H19M C23M 1_555 1_555
C24M C23M 1_555 1_555
H20M C24M 1_555 1_555
C25M C24M 1_555 1_555
H21M C25M 1_555 1_555
C26M C27M 1_555 1_555
H22M C26M 1_555 1_555
C28M C28 1_555 1_555
N3M C28M 1_555 1_555
N4M N3M 1_555 1_555
C32M N4M 1_555 1_555
C31M C32M 1_555 1_555
C30M N3M 1_555 1_555
C33M C30M 1_555 1_555
H27M C33M 1_555 1_555
H28M C33M 1_555 1_555
H29M C33M 1_555 1_555
H26M C31M 1_555 1_555
C34M C32M 1_555 1_555
H30M C34M 1_555 1_555
H31M C34M 1_555 1_555
H32M C34M 1_555 1_555
H23M C28M 1_555 1_555
H17M C19M 1_555 1_555
H18M C20M 1_555 1_555
H24M C29M 1_555 1_555
H25M C29M 1_555 1_555
C1 C11 1_555 1_555
C5 C10 1_555 1_555
C9 C10 1_555 1_555
C18 C28 1_555 1_555
C22 C27 1_555 1_555
C26 C27 1_555 1_555
C1M C11M 1_555 1_555
C10M C5M 1_555 1_555
C8M C9M 1_555 1_555
C14M C13M 1_555 1_555
C18M C28M 1_555 1_555
C27M C22M 1_555 1_555
C25M C26M 1_555 1_555
C31M C30M 1_555 1_555

#END
