
#######################################################################
#
#                 Cambridge Crystallographic Data Centre
#                                CCDC 
#
#######################################################################
#
# If this CIF has been generated from an entry in the Cambridge 
# Structural Database, then it will include bibliographic, chemical, 
# crystal, experimental, refinement or atomic coordinate data resulting 
# from the CCDC's data processing and validation procedures.
#
#######################################################################

data_ACEZAK
_chemical_formula_moiety         'C23 H26 N6 O4'
_chemical_name_systematic        
1-((2,6-Dimethylphenyl)aminocarbonylmethyl)-4-((3-(4-nitrophenyl)-1,2,4-oxadiazol-5-yl)methyl)piperazine
_chemical_properties_biological  'potential physiological activity'
_symmetry_cell_setting           monoclinic
_symmetry_space_group_name_H-M   'P 21/c'
_symmetry_Int_Tables_number      14
_space_group_name_Hall           '-P 2ybc'
loop_
_symmetry_equiv_pos_site_id
_symmetry_equiv_pos_as_xyz
1 x,y,z
2 x,1/2-y,1/2+z
3 -x,-y,-z
4 -x,1/2+y,1/2-z
_cell_length_a                   7.2240(14)
_cell_length_b                   9.5650(19)
_cell_length_c                   33.245(7)
_cell_angle_alpha                90
_cell_angle_beta                 95.22(3)
_cell_angle_gamma                90
_cell_volume                     2287.62
_exptl_crystal_colour            colorless
_exptl_crystal_description       block
_cell_formula_units_Z            4
_exptl_crystal_recrystallization_method ethanol
loop_
_atom_site_label
_atom_site_type_symbol
_atom_site_fract_x
_atom_site_fract_y
_atom_site_fract_z
O1 O 1.8788(7) 0.4733(5) 0.58690(18)
O2 O 1.6967(5) 0.6481(4) 0.58167(13)
O3 O 1.0678(5) 0.0232(3) 0.45423(9)
O4 O 0.4168(4) 0.1776(3) 0.24756(8)
N1 N 1.7262(6) 0.5252(5) 0.57816(13)
N2 N 1.2290(5) 0.0682(4) 0.47816(11)
N3 N 1.0023(5) 0.2308(4) 0.47869(10)
N4 N 0.7285(4) 0.1971(3) 0.39802(9)
N5 N 0.6681(4) 0.2514(3) 0.31297(9)
N6 N 0.3833(4) 0.4042(3) 0.22882(9)
H1 H 0.4340 0.4856 0.2300
C1 C 1.5798(6) 0.4369(5) 0.55821(13)
C2 C 1.6269(6) 0.3037(5) 0.54670(13)
H2 H 1.7467 0.2696 0.5529
C3 C 1.4938(6) 0.2230(4) 0.52599(13)
H3 H 1.5228 0.1328 0.5183
C4 C 1.3156(6) 0.2749(4) 0.51642(12)
C5 C 1.2699(6) 0.4067(4) 0.52980(12)
H4 H 1.1491 0.4400 0.5246
C6 C 1.4030(6) 0.4889(4) 0.55076(13)
H5 H 1.3735 0.5776 0.5597
C7 C 1.1810(6) 0.1891(4) 0.49123(12)
C8 C 0.9414(6) 0.1257(4) 0.45614(12)
C9 C 0.7604(6) 0.1012(5) 0.43166(12)
H6 H 0.7580 0.0062 0.4214
H7 H 0.6602 0.1106 0.4490
C10 C 0.8804(5) 0.1926(4) 0.37181(11)
H8 H 0.8951 0.0979 0.3622
H9 H 0.9955 0.2200 0.3871
C11 C 0.8416(5) 0.2892(4) 0.33638(12)
H10 H 0.8334 0.3846 0.3459
H11 H 0.9431 0.2843 0.3192
C12 C 0.5178(5) 0.2560(4) 0.33946(11)
H12 H 0.4015 0.2307 0.3243
H13 H 0.5057 0.3503 0.3497
C13 C 0.5571(5) 0.1572(4) 0.37401(12)
H14 H 0.4544 0.1584 0.3909
H15 H 0.5691 0.0629 0.3638
C14 C 0.6330(5) 0.3456(4) 0.27838(11)
H16 H 0.7422 0.3483 0.2634
H17 H 0.6116 0.4393 0.2881
C15 C 0.4680(5) 0.3006(4) 0.25053(11)
C16 C 0.2112(5) 0.3866(4) 0.20343(12)
C17 C 0.0577(6) 0.4557(5) 0.21543(14)
C18 C -0.1104(6) 0.4418(6) 0.19084(18)
H18 H -0.2169 0.4870 0.1979
C19 C -0.1174(8) 0.3608(7) 0.15622(19)
H19 H -0.2289 0.3524 0.1401
C20 C 0.0349(8) 0.2940(6) 0.14553(15)
H20 H 0.0263 0.2387 0.1224
C21 C 0.2053(6) 0.3065(4) 0.16861(12)
C22 C 0.0681(6) 0.5409(5) 0.25327(15)
H21 H 0.1924 0.5378 0.2662
H22 H -0.0165 0.5037 0.2712
H23 H 0.0351 0.6360 0.2467
C23 C 0.3727(7) 0.2354(5) 0.15469(14)
H24 H 0.4786 0.2538 0.1735
H25 H 0.3957 0.2703 0.1285
H26 H 0.3511 0.1364 0.1531
loop_
_geom_bond_atom_site_label_1
_geom_bond_atom_site_label_2
_geom_bond_site_symmetry_1
_geom_bond_site_symmetry_2
O1 N1 1_555 1_555
O2 N1 1_555 1_555
O3 N2 1_555 1_555
O4 C15 1_555 1_555
N1 C1 1_555 1_555
N2 C7 1_555 1_555
N3 C7 1_555 1_555
N4 C9 1_555 1_555
N5 C11 1_555 1_555
N6 H1 1_555 1_555
C1 C2 1_555 1_555
C2 H2 1_555 1_555
C3 C2 1_555 1_555
H3 C3 1_555 1_555
C4 C3 1_555 1_555
C5 C4 1_555 1_555
H4 C5 1_555 1_555
C6 C1 1_555 1_555
H5 C6 1_555 1_555
C7 C4 1_555 1_555
C8 O3 1_555 1_555
C9 C8 1_555 1_555
H6 C9 1_555 1_555
H7 C9 1_555 1_555
C10 N4 1_555 1_555
H8 C10 1_555 1_555
H9 C10 1_555 1_555
C11 C10 1_555 1_555
H10 C11 1_555 1_555
H11 C11 1_555 1_555
C12 N5 1_555 1_555
H12 C12 1_555 1_555
H13 C12 1_555 1_555
C13 N4 1_555 1_555
H14 C13 1_555 1_555
H15 C13 1_555 1_555
C14 N5 1_555 1_555
H16 C14 1_555 1_555
H17 C14 1_555 1_555
C15 N6 1_555 1_555
C16 N6 1_555 1_555
C17 C16 1_555 1_555
C18 C17 1_555 1_555
H18 C18 1_555 1_555
C19 C18 1_555 1_555
H19 C19 1_555 1_555
C20 C19 1_555 1_555
H20 C20 1_555 1_555
C21 C16 1_555 1_555
C22 C17 1_555 1_555
H21 C22 1_555 1_555
H22 C22 1_555 1_555
H23 C22 1_555 1_555
C23 C21 1_555 1_555
H24 C23 1_555 1_555
H25 C23 1_555 1_555
H26 C23 1_555 1_555
N3 C8 1_555 1_555
C5 C6 1_555 1_555
C12 C13 1_555 1_555
C14 C15 1_555 1_555
C20 C21 1_555 1_555

#END
