
#######################################################################
#
#                 Cambridge Crystallographic Data Centre
#                                CCDC 
#
#######################################################################
#
# If this CIF has been generated from an entry in the Cambridge 
# Structural Database, then it will include bibliographic, chemical, 
# crystal, experimental, refinement or atomic coordinate data resulting 
# from the CCDC's data processing and validation procedures.
#
#######################################################################

data_ACIBOD
_chemical_compound_source        'whole herb of Rabdosia var lophanthoides'
_chemical_name_common            'Ludongnin B'
_chemical_formula_moiety         'C20 H26 O5'
_chemical_name_systematic        
Octahydro-7a,8'-dimethylspiro(isobenzofuran-4(1H),4'(3'H)-(1H-7,9a)methanocyclohepta(c)pyran)-1',3,9'(3aH,4'aH)-trione
_chemical_properties_biological  
'source plant is widely used in folk medicine in China'
_symmetry_cell_setting           monoclinic
_symmetry_space_group_name_H-M   'P 21'
_symmetry_Int_Tables_number      4
_space_group_name_Hall           'P 2yb'
loop_
_symmetry_equiv_pos_site_id
_symmetry_equiv_pos_as_xyz
1 x,y,z
2 -x,1/2+y,-z
_cell_length_a                   7.569(2)
_cell_length_b                   9.397(2)
_cell_length_c                   12.310(3)
_cell_angle_alpha                90
_cell_angle_beta                 92.62(2)
_cell_angle_gamma                90
_cell_volume                     874.644
_exptl_crystal_colour            colorless
_exptl_crystal_description       prism
_chemical_melting_point          569-571K
_cell_formula_units_Z            2
_exptl_crystal_recrystallization_method aqueous/chloroform/methanol
loop_
_atom_site_label
_atom_site_type_symbol
_atom_site_fract_x
_atom_site_fract_y
_atom_site_fract_z
O1 O 0.6597(4) 0.8513(3) 1.0259(2)
O2 O 0.3713(4) 0.8213(4) 0.6934(3)
O3 O 0.5983(4) 0.6198(4) 1.0273(3)
O4 O 0.2426(4) 0.7159(5) 0.5532(2)
O5 O 0.1478(3) 0.5268(4) 0.7755(2)
C1 C 0.7476(5) 0.7709(4) 0.6820(3)
H1 H 0.8468 0.7075 0.6723
H2 H 0.6727 0.7682 0.6160
C2 C 0.8163(6) 0.9219(5) 0.6999(4)
H3 H 0.8723 0.9548 0.6352
H4 H 0.7185 0.9851 0.7136
C3 C 0.9479(5) 0.9245(5) 0.7955(3)
H5 H 0.9778 1.0229 0.8117
H6 H 1.0552 0.8774 0.7745
C4 C 0.8858(5) 0.8539(4) 0.8997(3)
C5 C 0.7698(4) 0.7204(4) 0.8812(3)
H7 H 0.8465 0.6364 0.8806
C6 C 0.6681(6) 0.7189(6) 0.9843(3)
C7 C 0.3358(5) 0.7048(6) 0.6345(4)
C8 C 0.4117(5) 0.5627(5) 0.6710(3)
C9 C 0.5709(5) 0.5640(4) 0.7592(3)
H8 H 0.5213 0.5345 0.8278
C10 C 0.6417(4) 0.7174(5) 0.7778(3)
C11 C 0.7056(5) 0.4510(5) 0.7318(4)
H9 H 0.7910 0.4413 0.7926
H10 H 0.7688 0.4821 0.6693
C12 C 0.6222(6) 0.3059(5) 0.7070(4)
H11 H 0.7076 0.2457 0.6727
H12 H 0.5920 0.2608 0.7746
C13 C 0.4565(5) 0.3184(5) 0.6326(4)
H13 H 0.4526 0.2415 0.5787
C14 C 0.4519(5) 0.4614(6) 0.5765(3)
H14 H 0.3596 0.4651 0.5193
H15 H 0.5647 0.4836 0.5462
C15 C 0.2615(5) 0.4759(6) 0.7234(3)
C16 C 0.2857(6) 0.3197(6) 0.6958(5)
H16 H 0.3098 0.2684 0.7642
C17 C 0.1287(7) 0.2563(7) 0.6424(6)
H17 H 0.0916 0.3130 0.5806
H18 H 0.0354 0.2524 0.6926
H19 H 0.1558 0.1617 0.6188
C18 C 1.0503(5) 0.8124(5) 0.9721(3)
H20 H 1.0129 0.7690 1.0379
H21 H 1.1185 0.8961 0.9897
H22 H 1.1213 0.7463 0.9338
C19 C 0.7665(6) 0.9488(5) 0.9650(4)
H23 H 0.8363 1.0100 1.0138
H24 H 0.6922 1.0078 0.9170
C20 C 0.4783(5) 0.8075(5) 0.7926(3)
H25 H 0.4082 0.7647 0.8479
H26 H 0.5143 0.9014 0.8178
loop_
_geom_bond_atom_site_label_1
_geom_bond_atom_site_label_2
_geom_bond_site_symmetry_1
_geom_bond_site_symmetry_2
O1 C6 1_555 1_555
O2 C7 1_555 1_555
O3 C6 1_555 1_555
O4 C7 1_555 1_555
O5 C15 1_555 1_555
C1 H1 1_555 1_555
H2 C1 1_555 1_555
C2 C1 1_555 1_555
H3 C2 1_555 1_555
H4 C2 1_555 1_555
C3 C2 1_555 1_555
H5 C3 1_555 1_555
H6 C3 1_555 1_555
C4 C3 1_555 1_555
C5 C4 1_555 1_555
H7 C5 1_555 1_555
C6 C5 1_555 1_555
C7 C8 1_555 1_555
C8 C9 1_555 1_555
C9 H8 1_555 1_555
C10 C1 1_555 1_555
C11 C9 1_555 1_555
H9 C11 1_555 1_555
H10 C11 1_555 1_555
C12 C11 1_555 1_555
H11 C12 1_555 1_555
H12 C12 1_555 1_555
C13 C12 1_555 1_555
H13 C13 1_555 1_555
C14 C8 1_555 1_555
H14 C14 1_555 1_555
H15 C14 1_555 1_555
C15 C8 1_555 1_555
C16 C13 1_555 1_555
H16 C16 1_555 1_555
C17 C16 1_555 1_555
H17 C17 1_555 1_555
H18 C17 1_555 1_555
H19 C17 1_555 1_555
C18 C4 1_555 1_555
H20 C18 1_555 1_555
H21 C18 1_555 1_555
H22 C18 1_555 1_555
C19 O1 1_555 1_555
H23 C19 1_555 1_555
H24 C19 1_555 1_555
C20 O2 1_555 1_555
H25 C20 1_555 1_555
H26 C20 1_555 1_555
C4 C19 1_555 1_555
C5 C10 1_555 1_555
C9 C10 1_555 1_555
C10 C20 1_555 1_555
C13 C14 1_555 1_555
C15 C16 1_555 1_555

#END
