
#######################################################################
#
#                 Cambridge Crystallographic Data Centre
#                                CCDC 
#
#######################################################################
#
# If this CIF has been generated from an entry in the Cambridge 
# Structural Database, then it will include bibliographic, chemical, 
# crystal, experimental, refinement or atomic coordinate data resulting 
# from the CCDC's data processing and validation procedures.
#
#######################################################################

data_ACICAR01
_chemical_formula_moiety         'C18 H14 N4'
_chemical_name_systematic        
N,N'-bis(pyridin-3-ylmethylene)benzene-1,4-diamine
_symmetry_cell_setting           monoclinic
_symmetry_space_group_name_H-M   'P 21/c'
_symmetry_Int_Tables_number      14
_space_group_name_Hall           '-P 2ybc'
loop_
_symmetry_equiv_pos_site_id
_symmetry_equiv_pos_as_xyz
1 x,y,z
2 -x,1/2+y,1/2-z
3 -x,-y,-z
4 x,1/2-y,1/2+z
_cell_length_a                   16.622(6)
_cell_length_b                   6.171(2)
_cell_length_c                   7.159(2)
_cell_angle_alpha                90
_cell_angle_beta                 95.732(8)
_cell_angle_gamma                90
_cell_volume                     730.658
_exptl_crystal_colour            yellow
_exptl_crystal_description       plate
_cell_formula_units_Z            2
_exptl_crystal_recrystallization_method 'ethyl acetate'
loop_
_atom_site_label
_atom_site_type_symbol
_atom_site_fract_x
_atom_site_fract_y
_atom_site_fract_z
N1 N 0.40327(10) 0.2126(3) 0.3182(2)
N2 N 0.16109(9) 0.0893(2) 0.4230(2)
C1 C 0.32643(12) 0.1772(3) 0.3548(3)
H1 H 0.3091 0.0310 0.3622
C2 C 0.27031(11) 0.3394(3) 0.3825(3)
C3 C 0.29604(12) 0.5530(3) 0.3732(3)
H2 H 0.2602 0.6690 0.3922
C4 C 0.37490(13) 0.5940(3) 0.3356(3)
H3 H 0.3938 0.7387 0.3282
C5 C 0.42572(13) 0.4208(3) 0.3092(3)
H4 H 0.4795 0.4514 0.2831
C6 C 0.18734(11) 0.2849(3) 0.4232(3)
H5 H 0.1520 0.3990 0.4507
C7 C 0.07963(11) 0.0508(3) 0.4617(2)
C8 C 0.06382(11) -0.1381(3) 0.5601(2)
H6 H 0.1070 -0.2333 0.6006
C9 C 0.01465(11) 0.1882(3) 0.4004(2)
H7 H 0.0243 0.3158 0.3318
N1B N -0.40327(10) -0.2126(3) 0.6818(2)
N2B N -0.16109(9) -0.0893(2) 0.5770(2)
C1B C -0.32643(12) -0.1772(3) 0.6452(3)
H1B H -0.3091 -0.0310 0.6378
C2B C -0.27031(11) -0.3394(3) 0.6175(3)
C3B C -0.29604(12) -0.5530(3) 0.6268(3)
H2B H -0.2602 -0.6690 0.6078
C4B C -0.37490(13) -0.5940(3) 0.6644(3)
H3B H -0.3938 -0.7387 0.6718
C5B C -0.42572(13) -0.4208(3) 0.6908(3)
H4B H -0.4795 -0.4514 0.7169
C6B C -0.18734(11) -0.2849(3) 0.5768(3)
H5B H -0.1520 -0.3990 0.5493
C7B C -0.07963(11) -0.0508(3) 0.5383(2)
C8B C -0.06382(11) 0.1381(3) 0.4399(2)
H6B H -0.1070 0.2333 0.3994
C9B C -0.01465(11) -0.1882(3) 0.5996(2)
H7B H -0.0243 -0.3158 0.6682
loop_
_geom_bond_atom_site_label_1
_geom_bond_atom_site_label_2
_geom_bond_site_symmetry_1
_geom_bond_site_symmetry_2
N1 C1 1_555 1_555
N2 C6 1_555 1_555
C1 H1 1_555 1_555
C2 C1 1_555 1_555
C3 C2 1_555 1_555
H2 C3 1_555 1_555
C4 C3 1_555 1_555
H3 C4 1_555 1_555
C5 N1 1_555 1_555
H4 C5 1_555 1_555
C6 C2 1_555 1_555
H5 C6 1_555 1_555
C7 N2 1_555 1_555
C8 C7 1_555 1_555
H6 C8 1_555 1_555
C9 C7 1_555 1_555
H7 C9 1_555 1_555
N1B C1B 1_555 1_555
N2B C6B 1_555 1_555
C1B H1B 1_555 1_555
C2B C1B 1_555 1_555
C3B C2B 1_555 1_555
H2B C3B 1_555 1_555
C4B C3B 1_555 1_555
H3B C4B 1_555 1_555
C5B N1B 1_555 1_555
H4B C5B 1_555 1_555
C6B C2B 1_555 1_555
H5B C6B 1_555 1_555
C7B N2B 1_555 1_555
C8B C9 1_555 1_555
H6B C8B 1_555 1_555
C9B C8 1_555 1_555
H7B C9B 1_555 1_555
C4 C5 1_555 1_555
C4B C5B 1_555 1_555
C7B C8B 1_555 1_555
C7B C9B 1_555 1_555

#END
