
#######################################################################
#
#                 Cambridge Crystallographic Data Centre
#                                CCDC 
#
#######################################################################
#
# If this CIF has been generated from an entry in the Cambridge 
# Structural Database, then it will include bibliographic, chemical, 
# crystal, experimental, refinement or atomic coordinate data resulting 
# from the CCDC's data processing and validation procedures.
#
#######################################################################

data_ACICOD
_chemical_formula_moiety         'C20 H22 I1 N1 O4'
_chemical_name_systematic        6-Acetyl-1-iodocodeine
_symmetry_cell_setting           monoclinic
_symmetry_space_group_name_H-M   'P 21'
_symmetry_Int_Tables_number      4
_space_group_name_Hall           'P 2yb'
loop_
_symmetry_equiv_pos_site_id
_symmetry_equiv_pos_as_xyz
1 x,y,z
2 -x,1/2+y,-z
_cell_length_a                   13.564(24)
_cell_length_b                   7.287(8)
_cell_length_c                   9.757(8)
_cell_angle_alpha                90
_cell_angle_beta                 101.43(4)
_cell_angle_gamma                90
_cell_volume                     945.264
_cell_formula_units_Z            2
loop_
_atom_site_label
_atom_site_type_symbol
_atom_site_fract_x
_atom_site_fract_y
_atom_site_fract_z
I1 I 0.23090 1.25230 1.09360
O1 O 0.12900 0.61900 0.80700
O2 O 0.24600 0.75300 0.60700
O3 O 0.11100 0.83000 0.39900
O4 O 0.17700 0.63600 0.26400
N1 N 0.50600 1.26700 0.71100
C1 C 0.24300 1.06900 0.93500
C2 C 0.19000 0.89500 0.93000
C3 C 0.18800 0.78300 0.82500
C4 C 0.24200 0.81400 0.72800
C5 C 0.29100 0.85000 0.51600
C6 C 0.20400 0.93600 0.41100
C7 C 0.17300 1.13900 0.45000
C8 C 0.24000 1.23700 0.51800
C9 C 0.40200 1.29900 0.69100
C10 C 0.34500 1.29400 0.81900
C11 C 0.29500 1.10400 0.83600
C12 C 0.30100 0.98500 0.73300
C13 C 0.35200 0.98600 0.61400
C14 C 0.34700 1.19500 0.56200
C15 C 0.46200 0.93100 0.64200
C16 C 0.52200 1.04800 0.75100
C17 C 0.56600 1.36800 0.80800
C18 C 0.05700 0.59200 0.89500
C19 C 0.11300 0.66900 0.32300
C20 C 0.01800 0.58000 0.32300
H1 H 0.15000 0.87000 1.01000
H2 H 0.34000 0.78000 0.47000
H3 H 0.22000 0.95000 0.31000
H4 H 0.10000 1.19000 0.43000
H5 H 0.22000 1.38000 0.55000
H6 H 0.40000 1.44000 0.66000
H7 H 0.39000 1.33000 0.91000
H8 H 0.29000 1.40000 0.81000
H9 H 0.39000 1.22000 0.48000
H10 H 0.49000 0.95000 0.55000
H11 H 0.47000 0.81000 0.67000
H12 H 0.60000 1.03000 0.76000
H13 H 0.50000 1.03000 0.85000
H14 H 0.54000 1.38000 0.90000
H15 H 0.57000 1.51000 0.77000
H16 H 0.64000 1.32000 0.82000
H17 H 0.02000 0.49000 0.87000
H18 H 0.01000 0.71000 0.88000
H19 H 0.09000 0.60000 0.99000
H20 H -0.03000 0.63000 0.24000
H21 H -0.01000 0.61000 0.41000
H22 H 0.03000 0.45000 0.31000
loop_
_geom_bond_atom_site_label_1
_geom_bond_atom_site_label_2
_geom_bond_site_symmetry_1
_geom_bond_site_symmetry_2
I1 C1 1_555 1_555
O1 C3 1_555 1_555
O2 C4 1_555 1_555
O3 C6 1_555 1_555
O4 C19 1_555 1_555
N1 C9 1_555 1_555
C1 C2 1_555 1_555
C2 C3 1_555 1_555
C3 C4 1_555 1_555
C4 C12 1_555 1_555
C5 O2 1_555 1_555
C6 C5 1_555 1_555
C7 C6 1_555 1_555
C8 C7 1_555 1_555
C9 C10 1_555 1_555
C10 C11 1_555 1_555
C11 C1 1_555 1_555
C12 C11 1_555 1_555
C13 C5 1_555 1_555
C14 C8 1_555 1_555
C15 C13 1_555 1_555
C16 N1 1_555 1_555
C17 N1 1_555 1_555
C18 O1 1_555 1_555
C19 O3 1_555 1_555
C20 C19 1_555 1_555
H1 C2 1_555 1_555
H2 C5 1_555 1_555
H3 C6 1_555 1_555
H4 C7 1_555 1_555
H5 C8 1_555 1_555
H6 C9 1_555 1_555
H7 C10 1_555 1_555
H8 C10 1_555 1_555
H9 C14 1_555 1_555
H10 C15 1_555 1_555
H11 C15 1_555 1_555
H12 C16 1_555 1_555
H13 C16 1_555 1_555
H14 C17 1_555 1_555
H15 C17 1_555 1_555
H16 C17 1_555 1_555
H17 C18 1_555 1_555
H18 C18 1_555 1_555
H19 C18 1_555 1_555
H20 C20 1_555 1_555
H21 C20 1_555 1_555
H22 C20 1_555 1_555
C9 C14 1_555 1_555
C12 C13 1_555 1_555
C13 C14 1_555 1_555
C15 C16 1_555 1_555

#END
