
#######################################################################
#
#                 Cambridge Crystallographic Data Centre
#                                CCDC 
#
#######################################################################
#
# If this CIF has been generated from an entry in the Cambridge 
# Structural Database, then it will include bibliographic, chemical, 
# crystal, experimental, refinement or atomic coordinate data resulting 
# from the CCDC's data processing and validation procedures.
#
#######################################################################

data_ACICOG
_chemical_name_common            
'2-(Acetoxymethyl)-6-((5-(4-fluorophenyl)-1-phenyl-1H-pyrazol-3-yl)oxy)tetrahydro-2H-pyran-3,4,5-triyl triacetate'
_chemical_formula_moiety         'C29 H29 F1 N2 O10'
_chemical_name_systematic        
3-(2',3',4',6'-tetra-O-acetyl-\b-D-glucopyranosyloxy)-1-phenyl-5-(4-fluorophenyl)-1H-pyrazole
_symmetry_cell_setting           orthorhombic
_symmetry_space_group_name_H-M   'P 21 21 21'
_symmetry_Int_Tables_number      19
_space_group_name_Hall           'P 2ac 2ab'
loop_
_symmetry_equiv_pos_site_id
_symmetry_equiv_pos_as_xyz
1 x,y,z
2 1/2-x,-y,1/2+z
3 -x,1/2+y,1/2-z
4 1/2+x,1/2-y,-z
_cell_length_a                   8.222(2)
_cell_length_b                   14.205(5)
_cell_length_c                   24.558(7)
_cell_angle_alpha                90
_cell_angle_beta                 90
_cell_angle_gamma                90
_cell_volume                     2868.22
_exptl_crystal_colour            colorless
_exptl_crystal_description       needle
_cell_formula_units_Z            4
loop_
_atom_site_label
_atom_site_type_symbol
_atom_site_fract_x
_atom_site_fract_y
_atom_site_fract_z
O1 O 0.37975(19) 0.41917(10) 0.09611(6)
O2 O 0.5823(2) 0.32334(11) 0.23604(6)
N1 N 0.4515(2) 0.70076(12) 0.05811(7)
O3 O 0.4641(2) 0.56955(10) 0.11229(6)
N2 N 0.4352(2) 0.71823(12) 0.00307(7)
O4 O 0.7064(2) 0.49291(11) 0.18605(7)
O5 O 0.1514(2) 0.27124(11) 0.08319(7)
O6 O 0.5194(2) 0.19133(10) 0.14751(7)
C1 C 0.5795(3) 0.34443(15) 0.17841(8)
H1 H 0.6881 0.3285 0.1626
C2 C 0.4278(3) 0.32293(14) 0.09197(9)
H2 H 0.5358 0.3208 0.0733
C3 C 0.4506(3) 0.28527(14) 0.15001(9)
H3 H 0.3458 0.2857 0.1707
C4 C 0.4402(3) 0.56347(14) 0.00992(8)
H4 H 0.4389 0.4979 0.0024
O7 O 0.2743(3) 0.12084(14) 0.15145(9)
O8 O 0.0815(2) 0.15050(13) 0.02934(8)
C5 C 0.4540(3) 0.60801(14) 0.06079(8)
C6 C 0.4059(3) 0.62982(15) -0.08610(9)
F1 F 0.3358(3) 0.59295(15) -0.25088(7)
C7 C 0.4290(3) 0.63690(15) -0.02646(9)
C8 C 0.5522(3) 0.45090(14) 0.17274(9)
H5 H 0.4647 0.4732 0.1979
O9 O 0.5854(3) 0.61314(14) 0.23012(8)
C9 C 0.5120(3) 0.47466(14) 0.11369(9)
H6 H 0.6089 0.4642 0.0898
C10 C 0.4985(3) 0.56481(17) -0.11491(9)
H7 H 0.5775 0.5282 -0.0963
C11 C 0.2871(3) 0.68209(16) -0.11409(10)
H8 H 0.2218 0.7261 -0.0948
C12 C 0.0501(3) 0.20232(16) 0.06686(10)
C13 C 0.7068(3) 0.57562(17) 0.21358(10)
C14 C 0.4436(3) 0.81389(14) -0.01437(9)
C15 C 0.5395(3) 0.83908(16) -0.05878(10)
H9 H 0.5994 0.7926 -0.0780
C16 C 0.3068(3) 0.27196(16) 0.05656(9)
H10 H 0.2977 0.3040 0.0209
H11 H 0.3438 0.2066 0.0501
C17 C 0.4191(4) 0.11559(17) 0.15045(11)
C18 C 0.5469(3) 0.93249(19) -0.07462(11)
H12 H 0.6096 0.9499 -0.1055
C19 C 0.3584(3) 0.88200(16) 0.01453(11)
H13 H 0.2931 0.8647 0.0448
C20 C 0.8764(4) 0.6131(2) 0.21790(13)
H14 H 0.9030 0.6487 0.1849
H15 H 0.9527 0.5606 0.2219
H16 H 0.8844 0.6545 0.2497
C21 C 0.2646(4) 0.66980(18) -0.16967(10)
H17 H 0.1843 0.7050 -0.1886
C22 C 0.7157(3) 0.27687(19) 0.25548(10)
C23 C 0.4770(4) 0.5526(2) -0.17084(10)
H18 H 0.5411 0.5086 -0.1905
O10 O 0.8279(3) 0.2554(2) 0.22780(9)
C24 C 0.7009(4) 0.2591(2) 0.31466(10)
H19 H 0.6388 0.2011 0.3206
H20 H 0.6446 0.3120 0.3320
H21 H 0.8096 0.2523 0.3306
C25 C 0.3604(4) 0.6060(2) -0.19676(10)
C26 C 0.4633(4) 1.00061(18) -0.04570(13)
H22 H 0.4703 1.0647 -0.0565
C27 C 0.3696(4) 0.97592(17) -0.00130(14)
H23 H 0.3127 1.0230 0.0185
C28 C -0.1012(4) 0.2007(3) 0.09917(14)
H24 H -0.1520 0.1385 0.0962
H25 H -0.1762 0.2487 0.0853
H26 H -0.0759 0.2140 0.1374
C29 C 0.5180(5) 0.02740(19) 0.15121(16)
H27 H 0.4507 -0.0250 0.1642
H28 H 0.6113 0.0356 0.1756
H29 H 0.5569 0.0137 0.1143
loop_
_geom_bond_atom_site_label_1
_geom_bond_atom_site_label_2
_geom_bond_site_symmetry_1
_geom_bond_site_symmetry_2
O1 C2 1_555 1_555
O2 C1 1_555 1_555
N1 N2 1_555 1_555
O3 C5 1_555 1_555
N2 C7 1_555 1_555
O4 C8 1_555 1_555
O5 C12 1_555 1_555
O6 C3 1_555 1_555
C1 H1 1_555 1_555
C2 H2 1_555 1_555
C3 C1 1_555 1_555
H3 C3 1_555 1_555
C4 H4 1_555 1_555
O7 C17 1_555 1_555
O8 C12 1_555 1_555
C5 N1 1_555 1_555
C6 C7 1_555 1_555
F1 C25 1_555 1_555
C7 C4 1_555 1_555
C8 C1 1_555 1_555
H5 C8 1_555 1_555
O9 C13 1_555 1_555
C9 O1 1_555 1_555
H6 C9 1_555 1_555
C10 C6 1_555 1_555
H7 C10 1_555 1_555
C11 C6 1_555 1_555
H8 C11 1_555 1_555
C12 C28 1_555 1_555
C13 O4 1_555 1_555
C14 N2 1_555 1_555
C15 C14 1_555 1_555
H9 C15 1_555 1_555
C16 O5 1_555 1_555
H10 C16 1_555 1_555
H11 C16 1_555 1_555
C17 O6 1_555 1_555
C18 C15 1_555 1_555
H12 C18 1_555 1_555
C19 C14 1_555 1_555
H13 C19 1_555 1_555
C20 C13 1_555 1_555
H14 C20 1_555 1_555
H15 C20 1_555 1_555
H16 C20 1_555 1_555
C21 C11 1_555 1_555
H17 C21 1_555 1_555
C22 O2 1_555 1_555
C23 C10 1_555 1_555
H18 C23 1_555 1_555
O10 C22 1_555 1_555
C24 C22 1_555 1_555
H19 C24 1_555 1_555
H20 C24 1_555 1_555
H21 C24 1_555 1_555
C25 C21 1_555 1_555
C26 C18 1_555 1_555
H22 C26 1_555 1_555
C27 C19 1_555 1_555
H23 C27 1_555 1_555
C28 H24 1_555 1_555
H25 C28 1_555 1_555
H26 C28 1_555 1_555
C29 C17 1_555 1_555
H27 C29 1_555 1_555
H28 C29 1_555 1_555
H29 C29 1_555 1_555
O3 C9 1_555 1_555
C2 C3 1_555 1_555
C2 C16 1_555 1_555
C4 C5 1_555 1_555
C8 C9 1_555 1_555
C23 C25 1_555 1_555
C26 C27 1_555 1_555

#END
