
#######################################################################
#
#                 Cambridge Crystallographic Data Centre
#                                CCDC 
#
#######################################################################
#
# If this CIF has been generated from an entry in the Cambridge 
# Structural Database, then it will include bibliographic, chemical, 
# crystal, experimental, refinement or atomic coordinate data resulting 
# from the CCDC's data processing and validation procedures.
#
#######################################################################

data_ACICAR
_chemical_formula_moiety         'C18 H14 N4'
_chemical_name_systematic        
N,N'-bis(3-Pyridylmethylene)-p-phenylenediamine
_symmetry_cell_setting           monoclinic
_symmetry_space_group_name_H-M   'P 21'
_symmetry_Int_Tables_number      4
_space_group_name_Hall           'P 2yb'
loop_
_symmetry_equiv_pos_site_id
_symmetry_equiv_pos_as_xyz
1 x,y,z
2 -x,1/2+y,-z
_cell_length_a                   11.6043(11)
_cell_length_b                   4.7732(9)
_cell_length_c                   12.8607(13)
_cell_angle_alpha                90
_cell_angle_beta                 92.330(9)
_cell_angle_gamma                90
_cell_volume                     711.761
_exptl_crystal_colour            yellow
_exptl_crystal_description       block
_chemical_melting_point          '155-157 deg.C'
_cell_formula_units_Z            2
loop_
_atom_site_label
_atom_site_type_symbol
_atom_site_fract_x
_atom_site_fract_y
_atom_site_fract_z
N1 N 0.1807(3) -1.194(2) 0.4588(3)
N2 N 0.3697(3) -0.6069(12) 0.6399(3)
N3 N 0.6307(3) 0.1979(12) 0.8606(3)
N4 N 0.8197(3) 0.786(2) 1.0410(3)
C1 C 0.2402(4) -1.008(2) 0.5166(4)
H1 H 0.2917 -0.8973 0.4814
C2 C 0.1124(4) -1.3333(19) 0.5186(4)
H2 H 0.0656 -1.4682 0.4861
C3 C 0.1012(4) -1.299(2) 0.6352(4)
H3 H 0.0499 -1.4140 0.6690
C4 C 0.1632(4) -1.1074(17) 0.6919(4)
H4 H 0.1573 -1.0834 0.7632
C5 C 0.2347(3) -0.9550(14) 0.6333(4)
C6 C 0.3031(3) -0.7505(16) 0.6912(3)
H5 H 0.2976 -0.7277 0.7626
C7 C 0.4336(3) -0.4081(15) 0.6990(3)
C8 C 0.4281(3) -0.3383(16) 0.8160(3)
H6 H 0.3765 -0.4387 0.8551
C9 C 0.4934(3) -0.1407(15) 0.8650(3)
H7 H 0.4893 -0.1011 0.9355
C10 C 0.5673(3) -0.0021(15) 0.8001(3)
C11 C 0.5717(3) -0.0669(14) 0.6833(3)
H8 H 0.6218 0.0358 0.6435
C12 C 0.5052(3) -0.2683(15) 0.6352(3)
H9 H 0.5084 -0.3073 0.5645
C13 C 0.6970(3) 0.3377(16) 0.8088(3)
H10 H 0.7040 0.3108 0.7377
C14 C 0.7638(3) 0.5485(13) 0.8675(3)
C15 C 0.7593(4) 0.6004(19) 0.9835(4)
H11 H 0.7082 0.4891 1.0191
C16 C 0.8992(3) 0.889(2) 0.8650(4)
H12 H 0.9510 1.0024 0.8311
C17 C 0.8881(4) 0.9280(19) 0.9808(4)
H13 H 0.9341 1.0653 1.0127
C18 C 0.8365(3) 0.6952(18) 0.8071(4)
H14 H 0.8430 0.6678 0.7360
loop_
_geom_bond_atom_site_label_1
_geom_bond_atom_site_label_2
_geom_bond_site_symmetry_1
_geom_bond_site_symmetry_2
N1 C1 1_555 1_555
N2 C6 1_555 1_555
N3 C10 1_555 1_555
N4 C15 1_555 1_555
C1 H1 1_555 1_555
C2 N1 1_555 1_555
H2 C2 1_555 1_555
C3 C2 1_555 1_555
H3 C3 1_555 1_555
C4 C3 1_555 1_555
H4 C4 1_555 1_555
C5 C1 1_555 1_555
C6 C5 1_555 1_555
H5 C6 1_555 1_555
C7 N2 1_555 1_555
C8 C7 1_555 1_555
H6 C8 1_555 1_555
C9 C8 1_555 1_555
H7 C9 1_555 1_555
C10 C9 1_555 1_555
C11 C10 1_555 1_555
H8 C11 1_555 1_555
C12 C7 1_555 1_555
H9 C12 1_555 1_555
C13 N3 1_555 1_555
H10 C13 1_555 1_555
C14 C13 1_555 1_555
C15 C14 1_555 1_555
H11 C15 1_555 1_555
C16 H12 1_555 1_555
C17 N4 1_555 1_555
H13 C17 1_555 1_555
C18 C14 1_555 1_555
H14 C18 1_555 1_555
C4 C5 1_555 1_555
C11 C12 1_555 1_555
C16 C17 1_555 1_555
C16 C18 1_555 1_555

#END
