
#######################################################################
#
#                 Cambridge Crystallographic Data Centre
#                                CCDC 
#
#######################################################################
#
# If this CIF has been generated from an entry in the Cambridge 
# Structural Database, then it will include bibliographic, chemical, 
# crystal, experimental, refinement or atomic coordinate data resulting 
# from the CCDC's data processing and validation procedures.
#
#######################################################################

data_ACICEV01
_chemical_formula_moiety         'C12 H9 N3'
_chemical_name_systematic        2-(pyridin-3-yl)-1H-benzimidazole
_symmetry_cell_setting           monoclinic
_symmetry_space_group_name_H-M   'P 21/n'
_symmetry_Int_Tables_number      14
_space_group_name_Hall           '-P 2yn'
loop_
_symmetry_equiv_pos_site_id
_symmetry_equiv_pos_as_xyz
1 x,y,z
2 1/2-x,1/2+y,1/2-z
3 -x,-y,-z
4 1/2+x,1/2-y,1/2+z
_cell_length_a                   10.1177(5)
_cell_length_b                   11.4813(5)
_cell_length_c                   17.7958(8)
_cell_angle_alpha                90
_cell_angle_beta                 104.033(3)
_cell_angle_gamma                90
_cell_volume                     2005.54
_cell_formula_units_Z            8
loop_
_atom_site_label
_atom_site_type_symbol
_atom_site_fract_x
_atom_site_fract_y
_atom_site_fract_z
N1 N 0.47722(16) 0.54532(13) 0.13852(10)
N2 N 0.40905(15) 0.36036(13) 0.11602(9)
H1 H 0.4088 0.2891 0.1012
N3 N 0.73691(16) 0.29394(14) 0.00945(10)
C1 C 0.8315(2) 0.37560(18) 0.01352(13)
H2 H 0.9051 0.3601 -0.0077
C2 C 0.63268(19) 0.31819(16) 0.04023(11)
H3 H 0.5657 0.2617 0.0371
C3 C 0.61764(18) 0.42243(15) 0.07671(10)
C4 C 0.7181(2) 0.50638(17) 0.07973(12)
H4 H 0.7124 0.5780 0.1031
C5 C 0.8250(2) 0.48234(19) 0.04791(14)
H5 H 0.8929 0.5375 0.0494
C6 C 0.50225(18) 0.44409(14) 0.11011(10)
C7 C 0.31584(19) 0.41207(17) 0.15022(11)
C8 C 0.1996(2) 0.3713(2) 0.16965(13)
H6 H 0.1706 0.2947 0.1601
C9 C 0.1291(2) 0.4498(3) 0.20383(15)
H7 H 0.0509 0.4253 0.2179
C10 C 0.1722(3) 0.5649(3) 0.21780(15)
H8 H 0.1219 0.6154 0.2409
C11 C 0.2865(2) 0.6053(2) 0.19829(13)
H9 H 0.3144 0.6822 0.2077
C12 C 0.35997(19) 0.52768(17) 0.16394(11)
N4 N 0.64617(17) 1.07245(14) 0.94416(10)
H10 H 0.6905 1.1337 0.9636
N5 N 0.59759(17) 0.88450(14) 0.92201(10)
N6 N 0.9540(2) 0.7783(2) 1.08440(15)
C13 C 1.0304(3) 0.8580(3) 1.12560(18)
H11 H 1.1072 0.8340 1.1626
C14 C 0.8449(2) 0.8126(2) 1.03264(15)
H12 H 0.7897 0.7560 1.0034
C15 C 0.80685(19) 0.92967(19) 1.01899(12)
C16 C 0.8928(2) 1.0112(2) 1.06459(15)
H13 H 0.8743 1.0905 1.0589
C17 C 1.0050(3) 0.9715(3) 1.11789(16)
H14 H 1.0638 1.0242 1.1488
C18 C 0.6823(2) 0.96139(17) 0.96014(12)
C19 C 0.4917(2) 0.95310(18) 0.87568(12)
C20 C 0.3740(2) 0.9201(2) 0.82442(14)
H15 H 0.3544 0.8416 0.8149
C21 C 0.2862(2) 1.0025(3) 0.78761(14)
H16 H 0.2058 0.9805 0.7528
C22 C 0.3164(3) 1.1228(3) 0.80198(16)
H17 H 0.2554 1.1790 0.7767
C23 C 0.4371(2) 1.1567(2) 0.85373(14)
H18 H 0.4596 1.2346 0.8638
C24 C 0.52030(19) 1.06826(18) 0.88876(12)
loop_
_geom_bond_atom_site_label_1
_geom_bond_atom_site_label_2
_geom_bond_site_symmetry_1
_geom_bond_site_symmetry_2
N1 C6 1_555 1_555
N2 H1 1_555 1_555
N3 C1 1_555 1_555
C1 H2 1_555 1_555
C2 N3 1_555 1_555
H3 C2 1_555 1_555
C3 C2 1_555 1_555
C4 C3 1_555 1_555
H4 C4 1_555 1_555
C5 C1 1_555 1_555
H5 C5 1_555 1_555
C6 N2 1_555 1_555
C7 N2 1_555 1_555
C8 C7 1_555 1_555
H6 C8 1_555 1_555
C9 C8 1_555 1_555
H7 C9 1_555 1_555
C10 C9 1_555 1_555
H8 C10 1_555 1_555
C11 C10 1_555 1_555
H9 C11 1_555 1_555
C12 N1 1_555 1_555
N4 H10 1_555 1_555
N5 C18 1_555 1_555
N6 C13 1_555 1_555
C13 H11 1_555 1_555
C14 N6 1_555 1_555
H12 C14 1_555 1_555
C15 C14 1_555 1_555
C16 C15 1_555 1_555
H13 C16 1_555 1_555
C17 C13 1_555 1_555
H14 C17 1_555 1_555
C18 N4 1_555 1_555
C19 N5 1_555 1_555
C20 C19 1_555 1_555
H15 C20 1_555 1_555
C21 C20 1_555 1_555
H16 C21 1_555 1_555
C22 C21 1_555 1_555
H17 C22 1_555 1_555
C23 C22 1_555 1_555
H18 C23 1_555 1_555
C24 N4 1_555 1_555
C3 C6 1_555 1_555
C4 C5 1_555 1_555
C7 C12 1_555 1_555
C11 C12 1_555 1_555
C15 C18 1_555 1_555
C16 C17 1_555 1_555
C19 C24 1_555 1_555
C23 C24 1_555 1_555

#END
