
#######################################################################
#
#                 Cambridge Crystallographic Data Centre
#                                CCDC 
#
#######################################################################
#
# If this CIF has been generated from an entry in the Cambridge 
# Structural Database, then it will include bibliographic, chemical, 
# crystal, experimental, refinement or atomic coordinate data resulting 
# from the CCDC's data processing and validation procedures.
#
#######################################################################

data_ACICEV02
_chemical_formula_moiety         'C12 H9 N3'
_chemical_name_systematic        2-(pyridin-3-yl)-1H-benzimidazole
_symmetry_cell_setting           monoclinic
_symmetry_space_group_name_H-M   'P 21/n'
_symmetry_Int_Tables_number      14
_space_group_name_Hall           '-P 2yn'
loop_
_symmetry_equiv_pos_site_id
_symmetry_equiv_pos_as_xyz
1 x,y,z
2 1/2-x,1/2+y,1/2-z
3 -x,-y,-z
4 1/2+x,1/2-y,1/2+z
_cell_length_a                   10.1952(6)
_cell_length_b                   11.4311(6)
_cell_length_c                   17.2491(9)
_cell_angle_alpha                90
_cell_angle_beta                 103.490(6)
_cell_angle_gamma                90
_cell_volume                     1954.79
_exptl_crystal_colour            yellow
_exptl_crystal_description       prism
_cell_formula_units_Z            8
loop_
_atom_site_label
_atom_site_type_symbol
_atom_site_fract_x
_atom_site_fract_y
_atom_site_fract_z
N1 N 0.73998(15) 0.79287(13) 0.50864(9)
N2 N 0.40929(15) 0.86209(13) 0.61628(9)
H1 H 0.408(2) 0.7879(10) 0.6020(13)
N3 N 0.47803(15) 1.04846(13) 0.63942(9)
C1 C 0.83509(18) 0.87466(16) 0.51319(11)
H2 H 0.9104 0.8579 0.4914
C2 C 0.82856(19) 0.98298(16) 0.54840(11)
H3 H 0.8978 1.0393 0.5502
C3 C 0.71978(18) 1.00771(15) 0.58080(10)
H4 H 0.7133 1.0813 0.6053
C4 C 0.61960(17) 0.92317(15) 0.57709(10)
C5 C 0.63454(17) 0.81756(15) 0.53981(10)
H5 H 0.5663 0.7599 0.5363
C6 C 0.50291(17) 0.94585(15) 0.61103(10)
C7 C 0.35952(17) 1.03184(15) 0.66466(10)
C8 C 0.28553(19) 1.11134(17) 0.69875(10)
H6 H 0.3142 1.1902 0.7084
C9 C 0.1692(2) 1.07143(18) 0.71791(11)
H7 H 0.1176 1.1238 0.7416
C10 C 0.12549(19) 0.95514(19) 0.70324(11)
H8 H 0.0450 0.9307 0.7172
C11 C 0.19720(18) 0.87532(17) 0.66883(11)
H9 H 0.1672 0.7970 0.6583
C12 C 0.31524(17) 0.91550(15) 0.65048(10)
N4 N 0.04623(18) 0.72485(16) 0.41552(11)
N5 N 0.40417(16) 0.61708(13) 0.57846(9)
N6 N 0.35376(16) 0.42746(14) 0.55725(10)
H10 H 0.299(2) 0.3700(19) 0.5337(16)
C13 C -0.0318(2) 0.6440(2) 0.37357(13)
H11 H -0.1103 0.6687 0.3357
C14 C -0.0061(2) 0.5274(2) 0.38155(12)
H12 H -0.0658 0.4730 0.3497
C15 C 0.1067(2) 0.48820(17) 0.43597(12)
H13 H 0.1260 0.4070 0.4423
C16 C 0.19256(18) 0.57152(18) 0.48171(11)
C17 C 0.1558(2) 0.69001(17) 0.46803(12)
H14 H 0.2126 0.7479 0.4981
C18 C 0.31704(19) 0.54000(16) 0.54028(11)
C19 C 0.47938(18) 0.43163(17) 0.61122(10)
C20 C 0.5641(2) 0.34240(17) 0.64661(12)
H15 H 0.5413 0.2623 0.6368
C21 C 0.6855(2) 0.37738(19) 0.69769(12)
H16 H 0.7478 0.3198 0.7235
C22 C 0.71698(19) 0.49806(18) 0.71156(11)
H17 H 0.7999 0.5201 0.7464
C23 C 0.6288(2) 0.58245(18) 0.67514(11)
H18 H 0.6494 0.6629 0.6849
C24 C 0.50938(19) 0.54899(17) 0.62407(11)
loop_
_geom_bond_atom_site_label_1
_geom_bond_atom_site_label_2
_geom_bond_site_symmetry_1
_geom_bond_site_symmetry_2
N1 C1 1_555 1_555
N2 H1 1_555 1_555
N3 C6 1_555 1_555
C1 H2 1_555 1_555
C2 C1 1_555 1_555
H3 C2 1_555 1_555
C3 C2 1_555 1_555
H4 C3 1_555 1_555
C4 C3 1_555 1_555
C5 N1 1_555 1_555
H5 C5 1_555 1_555
C6 N2 1_555 1_555
C7 N3 1_555 1_555
C8 C7 1_555 1_555
H6 C8 1_555 1_555
C9 C8 1_555 1_555
H7 C9 1_555 1_555
C10 C9 1_555 1_555
H8 C10 1_555 1_555
C11 C10 1_555 1_555
H9 C11 1_555 1_555
C12 N2 1_555 1_555
N4 C13 1_555 1_555
N5 C18 1_555 1_555
N6 H10 1_555 1_555
C13 H11 1_555 1_555
C14 C13 1_555 1_555
H12 C14 1_555 1_555
C15 C14 1_555 1_555
H13 C15 1_555 1_555
C16 C15 1_555 1_555
C17 N4 1_555 1_555
H14 C17 1_555 1_555
C18 N6 1_555 1_555
C19 N6 1_555 1_555
C20 C19 1_555 1_555
H15 C20 1_555 1_555
C21 C20 1_555 1_555
H16 C21 1_555 1_555
C22 C21 1_555 1_555
H17 C22 1_555 1_555
C23 C22 1_555 1_555
H18 C23 1_555 1_555
C24 N5 1_555 1_555
C4 C5 1_555 1_555
C4 C6 1_555 1_555
C7 C12 1_555 1_555
C11 C12 1_555 1_555
C16 C17 1_555 1_555
C16 C18 1_555 1_555
C19 C24 1_555 1_555
C23 C24 1_555 1_555

#END
