
#######################################################################
#
#                 Cambridge Crystallographic Data Centre
#                                CCDC 
#
#######################################################################
#
# If this CIF has been generated from an entry in the Cambridge 
# Structural Database, then it will include bibliographic, chemical, 
# crystal, experimental, refinement or atomic coordinate data resulting 
# from the CCDC's data processing and validation procedures.
#
#######################################################################

data_ACICEV
_chemical_formula_moiety         'C12 H9 N3'
_chemical_name_systematic        2-(3-Pyridyl)-1H-benzoimidazole
_symmetry_cell_setting           monoclinic
_symmetry_space_group_name_H-M   'P 21/n'
_symmetry_Int_Tables_number      14
_space_group_name_Hall           '-P 2yn'
loop_
_symmetry_equiv_pos_site_id
_symmetry_equiv_pos_as_xyz
1 x,y,z
2 1/2-x,1/2+y,1/2-z
3 -x,-y,-z
4 1/2+x,1/2-y,1/2+z
_cell_length_a                   10.1469(14)
_cell_length_b                   11.492(2)
_cell_length_c                   17.774(3)
_cell_angle_alpha                90
_cell_angle_beta                 103.931(9)
_cell_angle_gamma                90
_cell_volume                     2011.63
_exptl_crystal_colour            colorless
_exptl_crystal_description       block
_chemical_melting_point          '217-219 deg.C'
_cell_formula_units_Z            8
loop_
_atom_site_label
_atom_site_type_symbol
_atom_site_fract_x
_atom_site_fract_y
_atom_site_fract_z
N1 N 1.14565(18) -0.42729(14) -0.05616(10)
N2 N 1.09720(16) -0.61525(13) -0.07825(9)
N3 N 1.4527(2) -0.7229(2) 0.08404(14)
C1 C 1.0214(2) -0.43094(16) -0.11082(11)
C2 C 0.9369(3) -0.3425(2) -0.14684(14)
C3 C 0.8184(3) -0.3779(3) -0.19813(16)
C4 C 0.7877(3) -0.4965(3) -0.21237(15)
C5 C 0.8739(2) -0.5807(2) -0.17606(13)
C6 C 0.9923(2) -0.54700(17) -0.12444(11)
C7 C 1.1826(2) -0.53881(16) -0.03947(11)
C8 C 1.30693(19) -0.57036(18) 0.01897(11)
C9 C 1.3913(2) -0.4888(2) 0.06415(14)
C10 C 1.5042(3) -0.5278(3) 0.11819(15)
C11 C 1.5296(3) -0.6424(3) 0.12561(17)
C12 C 1.3442(3) -0.6866(2) 0.03240(15)
H1 H 1.196(2) -0.361(2) -0.0318(14)
H2 H 0.960(2) -0.261(2) -0.1352(13)
H3 H 0.754(3) -0.327(2) -0.2218(14)
H4 H 0.701(3) -0.519(2) -0.2446(14)
H5 H 0.853(2) -0.669(2) -0.1844(14)
H6 H 1.371(3) -0.408(2) 0.0576(14)
H7 H 1.564(3) -0.472(2) 0.1479(17)
H8 H 1.612(3) -0.673(2) 0.1650(15)
H9 H 1.284(3) -0.745(2) 0.0028(16)
N4 N 0.97794(17) 0.04558(13) 0.13855(9)
N5 N 0.91009(16) -0.13947(14) 0.11603(9)
N6 N 1.23778(17) -0.20659(13) 0.00928(10)
C13 C 0.8610(2) 0.02806(16) 0.16407(11)
C14 C 0.7871(3) 0.1058(2) 0.19783(13)
C15 C 0.6730(3) 0.0661(3) 0.21730(15)
C16 C 0.6299(3) -0.0488(3) 0.20370(15)
C17 C 0.7003(2) -0.1278(2) 0.16934(14)
C18 C 0.8167(2) -0.08727(17) 0.15024(11)
C19 C 1.00344(19) -0.05578(15) 0.11040(10)
C20 C 1.11875(18) -0.07760(15) 0.07648(10)
C21 C 1.2183(2) 0.00619(17) 0.07936(12)
C22 C 1.3252(2) -0.01774(19) 0.04723(14)
C23 C 1.3320(2) -0.12428(18) 0.01315(13)
C24 C 1.1338(2) -0.18195(16) 0.04059(12)
H10 H 0.906(2) -0.215(2) 0.1013(12)
H11 H 0.818(2) 0.186(2) 0.2073(13)
H12 H 0.618(3) 0.120(2) 0.2421(15)
H13 H 0.550(3) -0.072(2) 0.2166(13)
H14 H 0.674(2) -0.209(2) 0.1584(12)
H15 H 1.210(2) 0.0823(19) 0.1031(12)
H16 H 1.397(2) 0.0386(19) 0.0502(13)
H17 H 1.406(2) -0.1454(19) -0.0102(12)
H18 H 1.063(2) -0.2436(17) 0.0354(11)
loop_
_geom_bond_atom_site_label_1
_geom_bond_atom_site_label_2
_geom_bond_site_symmetry_1
_geom_bond_site_symmetry_2
N1 C1 1_555 1_555
N2 C6 1_555 1_555
N3 C11 1_555 1_555
C1 C2 1_555 1_555
C2 C3 1_555 1_555
C3 C4 1_555 1_555
C4 C5 1_555 1_555
C5 C6 1_555 1_555
C6 C1 1_555 1_555
C7 N1 1_555 1_555
C8 C7 1_555 1_555
C9 C8 1_555 1_555
C10 C9 1_555 1_555
C11 C10 1_555 1_555
C12 N3 1_555 1_555
H1 N1 1_555 1_555
H2 C2 1_555 1_555
H3 C3 1_555 1_555
H4 C4 1_555 1_555
H5 C5 1_555 1_555
H6 C9 1_555 1_555
H7 C10 1_555 1_555
H8 C11 1_555 1_555
H9 C12 1_555 1_555
N4 C13 1_555 1_555
N5 C18 1_555 1_555
N6 C23 1_555 1_555
C13 C14 1_555 1_555
C14 C15 1_555 1_555
C15 C16 1_555 1_555
C16 C17 1_555 1_555
C17 C18 1_555 1_555
C18 C13 1_555 1_555
C19 N4 1_555 1_555
C20 C19 1_555 1_555
C21 C20 1_555 1_555
C22 C21 1_555 1_555
C23 C22 1_555 1_555
C24 N6 1_555 1_555
H10 N5 1_555 1_555
H11 C14 1_555 1_555
H12 C15 1_555 1_555
H13 C16 1_555 1_555
H14 C17 1_555 1_555
H15 C21 1_555 1_555
H16 C22 1_555 1_555
H17 C23 1_555 1_555
H18 C24 1_555 1_555
N2 C7 1_555 1_555
C8 C12 1_555 1_555
N5 C19 1_555 1_555
C20 C24 1_555 1_555

#END
