
#######################################################################
#
#                 Cambridge Crystallographic Data Centre
#                                CCDC 
#
#######################################################################
#
# If this CIF has been generated from an entry in the Cambridge 
# Structural Database, then it will include bibliographic, chemical, 
# crystal, experimental, refinement or atomic coordinate data resulting 
# from the CCDC's data processing and validation procedures.
#
#######################################################################

data_ACICIA
_chemical_name_common            
'2-((5-(4-Fluorophenyl)-1-(4-isopropylphenyl)-1H-pyrazol-3-yl)oxy)-6-(hydroxymethyl)tetrahydro-2H-pyran-3,4,5-triol monohydrate'
_chemical_formula_moiety         'C24 H27 F1 N2 O6,H2 O1'
_chemical_name_systematic        
'3-(\b-D-glucopyranosyloxy)-1-(4-isopropylphenyl)-5-(4-fluorophenyl)-1H-pyrazole monohydrate'
_symmetry_cell_setting           monoclinic
_symmetry_space_group_name_H-M   'P 21'
_symmetry_Int_Tables_number      4
_space_group_name_Hall           'P 2yb'
loop_
_symmetry_equiv_pos_site_id
_symmetry_equiv_pos_as_xyz
1 x,y,z
2 -x,1/2+y,-z
_cell_length_a                   8.216(2)
_cell_length_b                   9.149(2)
_cell_length_c                   15.529(4)
_cell_angle_alpha                90
_cell_angle_beta                 94.766(3)
_cell_angle_gamma                90
_cell_volume                     1163.25
_exptl_crystal_colour            colorless
_exptl_crystal_description       block
_cell_formula_units_Z            2
loop_
_atom_site_label
_atom_site_type_symbol
_atom_site_fract_x
_atom_site_fract_y
_atom_site_fract_z
C1 C 0.6705(6) 0.2979(6) 0.2706(3)
C2 C 0.7987(6) 0.2650(6) 0.3256(3)
H1 H 0.8898 0.3229 0.3403
C3 C 0.7672(5) 0.1258(5) 0.3562(3)
C4 C 0.6422(6) 0.4283(6) 0.2145(3)
C5 C 0.6877(6) 0.5619(6) 0.2467(3)
H2 H 0.7315 0.5706 0.3037
C6 C 0.6687(6) 0.6868(7) 0.1941(4)
H3 H 0.6998 0.7786 0.2154
C7 C 0.6045(7) 0.6701(7) 0.1124(4)
C8 C 0.5557(6) 0.5405(6) 0.0779(3)
H4 H 0.5088 0.5345 0.0214
C9 C 0.5769(7) 0.4176(6) 0.1284(3)
H5 H 0.5478 0.3266 0.1053
C10 C 0.4105(6) 0.1623(6) 0.2232(3)
C11 C 0.2921(6) 0.2643(6) 0.2269(3)
H6 H 0.3094 0.3451 0.2629
C12 C 0.1450(6) 0.2486(7) 0.1772(3)
H7 H 0.0645 0.3190 0.1814
C13 C 0.1145(6) 0.1354(6) 0.1231(4)
C14 C 0.2348(6) 0.0276(7) 0.1223(4)
H8 H 0.2146 -0.0559 0.0890
C15 C 0.3842(6) 0.0430(6) 0.1705(3)
H9 H 0.4655 -0.0270 0.1671
C16 C -0.0459(6) 0.1313(7) 0.0701(3)
H10 H -0.0867 0.2317 0.0730
C17 C -0.1671(6) 0.0433(6) 0.1144(3)
H11 H -0.2697 0.0941 0.1114
H12 H -0.1282 0.0292 0.1738
H13 H -0.1815 -0.0500 0.0865
C18 C -0.0317(6) 0.1068(6) -0.0239(3)
H14 H 0.0295 0.0190 -0.0317
H15 H 0.0234 0.1882 -0.0475
H16 H -0.1388 0.0972 -0.0532
C19 C 1.0227(6) 0.0250(6) 0.3992(3)
H17 H 1.0542 0.0977 0.3573
C20 C 1.1936(6) -0.1582(5) 0.3451(3)
H18 H 1.2292 -0.0912 0.3011
C21 C 1.3146(5) -0.1489(5) 0.4259(3)
H19 H 1.2819 -0.2191 0.4689
C22 C 1.3057(6) 0.0051(5) 0.4627(3)
H20 H 1.3387 0.0756 0.4200
C23 C 1.1312(6) 0.0369(5) 0.4826(3)
H21 H 1.0967 -0.0350 0.5242
C24 C 1.1741(7) -0.3099(6) 0.3063(3)
H22 H 1.1114 -0.3037 0.2507
H23 H 1.2809 -0.3490 0.2969
F1 F 0.5825(4) 0.7915(4) 0.06233(18)
N1 N 0.6257(5) 0.0701(5) 0.3233(3)
N2 N 0.5667(4) 0.1811(5) 0.2703(3)
O1 O 0.8594(4) 0.0432(4) 0.4155(2)
O2 O 1.0329(4) -0.1180(4) 0.3648(2)
O3 O 1.0942(4) -0.4062(4) 0.3608(2)
O4 O 1.4745(4) -0.1854(4) 0.4032(2)
O5 O 1.4122(4) 0.0171(4) 0.5396(2)
H24 H 1.4417 -0.0792 0.5598
H25 H 1.5060 -0.2716 0.4204
O6 O 1.1226(4) 0.1791(4) 0.5180(2)
H26 H 1.1347 0.2498 0.4733
H29 H 1.0444 -0.3615 0.4003
O7 O 0.2897(5) 0.3805(4) 0.4221(3)
H27 H 0.2431 0.4482 0.3818
H28 H 0.3009 0.4445 0.4663
loop_
_geom_bond_atom_site_label_1
_geom_bond_atom_site_label_2
_geom_bond_site_symmetry_1
_geom_bond_site_symmetry_2
C1 C2 1_555 1_555
C2 H1 1_555 1_555
C3 C2 1_555 1_555
C4 C1 1_555 1_555
C5 C4 1_555 1_555
H2 C5 1_555 1_555
C6 C5 1_555 1_555
H3 C6 1_555 1_555
C7 C6 1_555 1_555
C8 C7 1_555 1_555
H4 C8 1_555 1_555
C9 C4 1_555 1_555
H5 C9 1_555 1_555
C10 C11 1_555 1_555
C11 H6 1_555 1_555
C12 C11 1_555 1_555
H7 C12 1_555 1_555
C13 C12 1_555 1_555
C14 C13 1_555 1_555
H8 C14 1_555 1_555
C15 C10 1_555 1_555
H9 C15 1_555 1_555
C16 C13 1_555 1_555
H10 C16 1_555 1_555
C17 C16 1_555 1_555
H11 C17 1_555 1_555
H12 C17 1_555 1_555
H13 C17 1_555 1_555
C18 C16 1_555 1_555
H14 C18 1_555 1_555
H15 C18 1_555 1_555
H16 C18 1_555 1_555
C19 H17 1_555 1_555
C20 H18 1_555 1_555
C21 C20 1_555 1_555
H19 C21 1_555 1_555
C22 C21 1_555 1_555
H20 C22 1_555 1_555
C23 C19 1_555 1_555
H21 C23 1_555 1_555
C24 C20 1_555 1_555
H22 C24 1_555 1_555
H23 C24 1_555 1_555
F1 C7 1_555 1_555
N1 C3 1_555 1_555
N2 C1 1_555 1_555
O1 C3 1_555 1_555
O2 C19 1_555 1_555
O3 C24 1_555 1_555
O4 C21 1_555 1_555
O5 C22 1_555 1_555
H24 O5 1_555 1_555
H25 O4 1_555 1_555
O6 C23 1_555 1_555
H26 O6 1_555 1_555
O7 H27 1_555 1_555
H28 O7 1_555 1_555
H29 O3 1_555 1_555
C8 C9 1_555 1_555
C10 N2 1_555 1_555
C14 C15 1_555 1_555
C19 O1 1_555 1_555
C20 O2 1_555 1_555
C22 C23 1_555 1_555
N1 N2 1_555 1_555

#END
