
#######################################################################
#
#                 Cambridge Crystallographic Data Centre
#                                CCDC 
#
#######################################################################
#
# If this CIF has been generated from an entry in the Cambridge 
# Structural Database, then it will include bibliographic, chemical, 
# crystal, experimental, refinement or atomic coordinate data resulting 
# from the CCDC's data processing and validation procedures.
#
#######################################################################

data_ACIDIZ
_chemical_formula_moiety         'C34 H28 N4 O4,C4 H8 O2'
_chemical_name_systematic        
'r-1,c-2,t-3,t-4-1,3-bis(4-Methoxyphenyl)-2,4-bis(5-phenyl-1,3,4-oxadiazol-2-yl)cyclobutane 1,4-dioxane solvate'
_symmetry_cell_setting           triclinic
_symmetry_space_group_name_H-M   'P -1'
_symmetry_Int_Tables_number      2
_space_group_name_Hall           '-P 1'
loop_
_symmetry_equiv_pos_site_id
_symmetry_equiv_pos_as_xyz
1 x,y,z
2 -x,-y,-z
_cell_length_a                   5.995(2)
_cell_length_b                   10.242(4)
_cell_length_c                   14.292(5)
_cell_angle_alpha                93.370(6)
_cell_angle_beta                 90.595(6)
_cell_angle_gamma                103.557(6)
_cell_volume                     851.35
_exptl_crystal_colour            colorless
_exptl_crystal_description       plate
_cell_formula_units_Z            1
loop_
_atom_site_label
_atom_site_type_symbol
_atom_site_fract_x
_atom_site_fract_y
_atom_site_fract_z
C1 C -0.3133(12) -0.1523(6) -0.0055(3)
H1 H -0.4122 -0.1540 -0.0590
H2 H -0.3095 -0.2427 0.0074
H3 H -0.1611 -0.1025 -0.0182
O1 O 0.3104(3) 0.3051(2) 0.57005(15)
O2 O -0.3966(6) -0.0904(3) 0.0726(2)
C2 C -0.2768(8) -0.0801(4) 0.1579(3)
C3 C -0.0896(8) -0.1309(4) 0.1727(3)
H4 H -0.0353 -0.1785 0.1241
C4 C 0.0216(6) -0.1115(3) 0.2611(3)
H5 H 0.1524 -0.1437 0.2703
C5 C -0.0618(5) -0.0454(3) 0.3341(2)
C6 C -0.2565(6) 0.0027(3) 0.3178(2)
H6 H -0.3149 0.0479 0.3665
C7 C -0.3649(6) -0.0159(4) 0.2303(3)
H7 H -0.4968 0.0151 0.2207
C8 C 0.0598(5) -0.0253(3) 0.4283(2)
H8 H 0.2160 -0.0380 0.4219
C9 C 0.0628(5) 0.1072(3) 0.4897(2)
H9 H -0.0388 0.1573 0.4617
C10 C 0.2916(6) 0.1959(3) 0.5100(2)
N1 N 0.4888(5) 0.1817(3) 0.4801(2)
N2 N 0.6531(5) 0.2931(3) 0.5227(2)
C11 C 0.5393(5) 0.3593(3) 0.5743(2)
C12 C 0.6285(6) 0.4813(3) 0.6347(2)
C13 C 0.8570(6) 0.5469(3) 0.6323(2)
H10 H 0.9538 0.5126 0.5923
C14 C 0.9436(7) 0.6617(4) 0.6876(3)
H11 H 1.0983 0.7045 0.6852
C15 C 0.8032(7) 0.7132(4) 0.7462(3)
H12 H 0.8627 0.7910 0.7839
C16 C 0.5771(7) 0.6517(4) 0.7498(3)
H13 H 0.4817 0.6883 0.7891
C17 C 0.4878(6) 0.5334(3) 0.6945(3)
H14 H 0.3337 0.4900 0.6980
C8A C -0.0598(5) 0.0253(3) 0.5717(2)
C5A C 0.0618(5) 0.0454(3) 0.6659(2)
C4A C -0.0216(6) 0.1115(3) 0.7389(3)
C3A C 0.0896(8) 0.1309(4) 0.8273(3)
C2A C 0.2768(8) 0.0801(4) 0.8421(3)
O2A O 0.3966(6) 0.0904(3) 0.9274(2)
C1A C 0.3133(12) 0.1523(6) 1.0055(3)
H1A H 0.4122 0.1540 1.0590
H2A H 0.3095 0.2427 0.9926
H3A H 0.1611 0.1025 1.0182
C7A C 0.3649(6) 0.0159(4) 0.7697(3)
C6A C 0.2565(6) -0.0027(3) 0.6822(2)
H6A H 0.3149 -0.0479 0.6335
H7A H 0.4968 -0.0151 0.7793
H4A H 0.0353 0.1785 0.8759
H5A H -0.1524 0.1437 0.7297
H8A H -0.2160 0.0380 0.5781
C9A C -0.0628(5) -0.1072(3) 0.5103(2)
H9A H 0.0388 -0.1573 0.5383
C10A C -0.2916(6) -0.1959(3) 0.4900(2)
O1A O -0.3104(3) -0.3051(2) 0.42995(15)
C11A C -0.5393(5) -0.3593(3) 0.4257(2)
N2A N -0.6531(5) -0.2931(3) 0.4773(2)
N1A N -0.4888(5) -0.1817(3) 0.5199(2)
C12A C -0.6285(6) -0.4813(3) 0.3653(2)
C13A C -0.8570(6) -0.5469(3) 0.3677(2)
H10A H -0.9538 -0.5126 0.4077
C14A C -0.9436(7) -0.6617(4) 0.3124(3)
H11A H -1.0983 -0.7045 0.3148
C15A C -0.8032(7) -0.7132(4) 0.2538(3)
H12A H -0.8627 -0.7910 0.2161
C16A C -0.5771(7) -0.6517(4) 0.2502(3)
H13A H -0.4817 -0.6883 0.2109
C17A C -0.4878(6) -0.5334(3) 0.3055(3)
H14A H -0.3337 -0.4900 0.3020
C18 C -0.2010(15) -0.4902(10) 0.0342(10)
H15 H -0.1529 -0.3928 0.0360
H16 H -0.3574 -0.5175 0.0552
O3 O -0.169(2) -0.5559(10) -0.0619(9)
C19 C -0.067(2) -0.5407(16) 0.0782(9)
H17 H -0.0709 -0.6315 0.0534
H18 H -0.1013 -0.5423 0.1444
C19A C 0.067(2) -0.4593(16) -0.0782(9)
C18A C 0.2010(15) -0.5098(10) -0.0342(10)
H15A H 0.1529 -0.6072 -0.0360
H16A H 0.3574 -0.4825 -0.0552
O3A O 0.169(2) -0.4441(10) 0.0619(9)
H17A H 0.0709 -0.3685 -0.0534
H18A H 0.1013 -0.4577 -0.1444
loop_
_geom_bond_atom_site_label_1
_geom_bond_atom_site_label_2
_geom_bond_site_symmetry_1
_geom_bond_site_symmetry_2
C1 H1 1_555 1_555
H2 C1 1_555 1_555
H3 C1 1_555 1_555
O1 C10 1_555 1_555
O2 C1 1_555 1_555
C2 O2 1_555 1_555
C3 C2 1_555 1_555
H4 C3 1_555 1_555
C4 C3 1_555 1_555
H5 C4 1_555 1_555
C5 C4 1_555 1_555
C6 C5 1_555 1_555
H6 C6 1_555 1_555
C7 C2 1_555 1_555
H7 C7 1_555 1_555
C8 C5 1_555 1_555
H8 C8 1_555 1_555
C9 C8 1_555 1_555
H9 C9 1_555 1_555
C10 C9 1_555 1_555
N1 C10 1_555 1_555
N2 N1 1_555 1_555
C11 O1 1_555 1_555
C12 C11 1_555 1_555
C13 C12 1_555 1_555
H10 C13 1_555 1_555
C14 C13 1_555 1_555
H11 C14 1_555 1_555
C15 C14 1_555 1_555
H12 C15 1_555 1_555
C16 C15 1_555 1_555
H13 C16 1_555 1_555
C17 C12 1_555 1_555
H14 C17 1_555 1_555
C18 H15 1_555 1_555
H16 C18 1_555 1_555
O3 C18 1_555 1_555
C19 C18 1_555 1_555
H17 C19 1_555 1_555
H18 C19 1_555 1_555
C8A C9 1_555 1_555
C5A C8A 1_555 1_555
C4A C5A 1_555 1_555
C3A C4A 1_555 1_555
C2A C3A 1_555 1_555
O2A C2A 1_555 1_555
C1A O2A 1_555 1_555
H1A C1A 1_555 1_555
H2A C1A 1_555 1_555
H3A C1A 1_555 1_555
C7A C2A 1_555 1_555
C6A C5A 1_555 1_555
H6A C6A 1_555 1_555
H7A C7A 1_555 1_555
H4A C3A 1_555 1_555
H5A C4A 1_555 1_555
H8A C8A 1_555 1_555
C9A C8 1_555 1_555
H9A C9A 1_555 1_555
C10A C9A 1_555 1_555
O1A C10A 1_555 1_555
C11A O1A 1_555 1_555
N2A C11A 1_555 1_555
N1A C10A 1_555 1_555
C12A C11A 1_555 1_555
C13A C12A 1_555 1_555
H10A C13A 1_555 1_555
C14A C13A 1_555 1_555
H11A C14A 1_555 1_555
C15A C14A 1_555 1_555
H12A C15A 1_555 1_555
C16A C15A 1_555 1_555
H13A C16A 1_555 1_555
C17A C12A 1_555 1_555
H14A C17A 1_555 1_555
C19A O3 1_555 1_555
C18A C19A 1_555 1_555
H15A C18A 1_555 1_555
H16A C18A 1_555 1_555
O3A C19 1_555 1_555
H17A C19A 1_555 1_555
H18A C19A 1_555 1_555
C6 C7 1_555 1_555
N2 C11 1_555 1_555
C16 C17 1_555 1_555
C8A C9A 1_555 1_555
C7A C6A 1_555 1_555
N2A N1A 1_555 1_555
C16A C17A 1_555 1_555
C18A O3A 1_555 1_555

#END
