
#######################################################################
#
#                 Cambridge Crystallographic Data Centre
#                                CCDC 
#
#######################################################################
#
# If this CIF has been generated from an entry in the Cambridge 
# Structural Database, then it will include bibliographic, chemical, 
# crystal, experimental, refinement or atomic coordinate data resulting 
# from the CCDC's data processing and validation procedures.
#
#######################################################################

data_ACIDUO
_chemical_formula_moiety         'C34 H60 B40,C1 H1 Cl3'
_chemical_name_systematic        
"1,1',1'',1'''-ethene-1,1,2,2-tetrayltetrakis(4-(1,2-dicarba-1-yl-closo-dodecaborane(11))benzene) chloroform solvate"
_symmetry_cell_setting           triclinic
_symmetry_space_group_name_H-M   'P -1'
_symmetry_Int_Tables_number      2
_space_group_name_Hall           '-P 1'
loop_
_symmetry_equiv_pos_site_id
_symmetry_equiv_pos_as_xyz
1 x,y,z
2 -x,-y,-z
_cell_length_a                   11.1571(7)
_cell_length_b                   14.0318(10)
_cell_length_c                   20.0553(13)
_cell_angle_alpha                72.0310(10)
_cell_angle_beta                 85.7360(10)
_cell_angle_gamma                71.0190(10)
_cell_volume                     2823.03
_exptl_crystal_colour            white
_exptl_crystal_description       block
_cell_formula_units_Z            2
loop_
_atom_site_label
_atom_site_type_symbol
_atom_site_fract_x
_atom_site_fract_y
_atom_site_fract_z
B1 B 0.4663(2) 1.56407(18) 0.22327(12)
B2 B 0.5323(2) 1.59920(17) 0.13935(12)
B3 B 0.4328(2) 1.59487(17) 0.07572(12)
B4 B 0.3037(2) 1.55642(18) 0.11924(13)
B5 B 0.3157(2) 1.65996(18) 0.22207(13)
B6 B 0.4439(2) 1.69861(18) 0.17783(13)
B7 B 0.4235(2) 1.71802(18) 0.08694(12)
B8 B 0.2820(2) 1.69117(18) 0.07486(13)
B9 B 0.2165(2) 1.65509(18) 0.15880(13)
B10 B 0.2889(2) 1.75523(18) 0.13804(12)
B11 B 0.8446(2) 1.09826(18) 0.56715(12)
B12 B 0.6907(2) 1.19305(17) 0.54783(11)
B13 B 0.5765(2) 1.12609(18) 0.57438(12)
B14 B 0.6581(2) 0.98928(18) 0.61140(11)
B15 B 0.8606(2) 1.03923(19) 0.65985(12)
B16 B 0.7786(2) 1.17635(19) 0.62319(12)
B17 B 0.6123(2) 1.19364(18) 0.62831(12)
B18 B 0.5931(2) 1.06704(19) 0.66738(12)
B19 B 0.7469(2) 0.97236(19) 0.68639(12)
B20 B 0.7178(2) 1.0985(2) 0.69756(12)
B21 B 0.9723(2) 0.49345(18) 0.23692(12)
B22 B 1.0631(2) 0.45963(17) 0.31486(12)
B23 B 0.9617(2) 0.44632(17) 0.38777(11)
B24 B 0.8058(2) 0.47186(18) 0.35587(12)
B25 B 0.9143(2) 0.38782(18) 0.24167(13)
B26 B 1.0698(2) 0.36175(18) 0.27421(13)
B27 B 1.0631(2) 0.33222(18) 0.36744(13)
B28 B 0.9042(2) 0.34032(18) 0.39249(13)
B29 B 0.8124(2) 0.37458(17) 0.31458(13)
B30 B 0.9705(2) 0.28821(18) 0.32218(13)
B31 B 0.7746(2) 0.73832(18) 0.03770(12)
B32 B 0.6927(2) 0.8390(2) -0.03723(13)
B33 B 0.8035(2) 0.89224(18) -0.09194(11)
B34 B 0.9563(2) 0.82416(17) -0.05098(11)
B35 B 0.8835(2) 0.63564(19) 0.00891(13)
B36 B 0.7311(2) 0.7034(2) -0.03206(13)
B37 B 0.7481(2) 0.7983(2) -0.11220(12)
B38 B 0.9125(2) 0.78874(19) -0.12063(12)
B39 B 0.9950(2) 0.68821(18) -0.04550(12)
B40 B 0.8676(2) 0.67219(19) -0.08377(12)
C1 C 0.76094(17) 0.98821(14) 0.27209(10)
C2 C 0.73402(17) 1.06169(14) 0.20815(10)
C3 C 0.66219(17) 1.17598(14) 0.19668(9)
C4 C 0.70292(19) 1.25412(15) 0.14931(10)
H1 H 0.7766 1.2348 0.1249
C5 C 0.63566(19) 1.36053(15) 0.13765(10)
H2 H 0.6655 1.4115 0.1063
C6 C 0.52408(17) 1.39143(14) 0.17247(10)
C7 C 0.47996(18) 1.31336(15) 0.21800(11)
H3 H 0.4039 1.3326 0.2404
C8 C 0.54857(18) 1.20715(15) 0.23020(10)
H4 H 0.5183 1.1561 0.2612
C9 C 0.45362(17) 1.50760(14) 0.15893(10)
C10 C 0.33003(19) 1.54483(15) 0.20537(11)
C11 C 0.74761(17) 1.01228(14) 0.34010(10)
C12 C 0.77532(19) 1.09746(15) 0.34900(10)
H5 H 0.8004 1.1435 0.3107
C13 C 0.76623(19) 1.11502(15) 0.41370(10)
H6 H 0.7858 1.1722 0.4184
C14 C 0.72793(17) 1.04770(15) 0.47200(10)
C15 C 0.7011(2) 0.96192(16) 0.46365(10)
H7 H 0.6759 0.9159 0.5019
C16 C 0.7115(2) 0.94458(16) 0.39895(10)
H8 H 0.6941 0.8863 0.3946
C17 C 0.71802(17) 1.06882(14) 0.54173(9)
C18 C 0.81492(19) 0.98175(16) 0.60699(10)
C19 C 0.80205(18) 0.87254(14) 0.27931(9)
C20 C 0.91036(19) 0.80190(15) 0.31804(11)
H9 H 0.9604 0.8272 0.3388
C21 C 0.94548(19) 0.69415(15) 0.32643(11)
H10 H 1.0195 0.6485 0.3516
C22 C 0.87005(17) 0.65451(14) 0.29727(10)
C23 C 0.76027(18) 0.72433(15) 0.25969(10)
H11 H 0.7085 0.6987 0.2405
C24 C 0.72714(18) 0.83168(15) 0.25052(10)
H12 H 0.6538 0.8773 0.2248
C25 C 0.90753(17) 0.53761(14) 0.30794(10)
C26 C 0.82465(19) 0.49363(15) 0.26703(11)
C27 C 0.76576(18) 1.02652(14) 0.14434(9)
C28 C 0.88651(18) 0.96019(14) 0.13624(10)
H13 H 0.9534 0.9506 0.1653
C29 C 0.90799(18) 0.90863(15) 0.08566(10)
H14 H 0.9892 0.8655 0.0805
C30 C 0.80846(18) 0.92107(14) 0.04242(9)
C31 C 0.6922(2) 0.99689(16) 0.04459(10)
H15 H 0.6279 1.0122 0.0122
C32 C 0.67154(19) 1.04979(15) 0.09456(10)
H16 H 0.5941 1.1013 0.0949
C33 C 0.82151(17) 0.84992(14) -0.00234(9)
C34 C 0.92999(18) 0.73215(15) 0.02296(10)
H17 H 0.305(2) 1.488(2) 0.2393(13)
H18 H 0.872(2) 0.922(2) 0.5955(12)
H19 H 0.755(2) 0.5446(19) 0.2387(12)
H20 H 0.977(2) 0.7216(18) 0.0656(12)
H21 H 0.521(2) 1.515(2) 0.2710(13)
H22 H 0.636(2) 1.5702(17) 0.1374(11)
H23 H 0.481(2) 1.5627(19) 0.0337(12)
H24 H 0.267(2) 1.503(2) 0.1090(13)
H25 H 0.278(2) 1.6681(18) 0.2720(12)
H26 H 0.494(2) 1.744(2) 0.1966(13)
H27 H 0.460(2) 1.7741(18) 0.0481(12)
H28 H 0.222(2) 1.7315(19) 0.0267(13)
H29 H 0.120(2) 1.6607(18) 0.1699(12)
H30 H 0.234(2) 1.836(2) 0.1313(12)
H31 H 0.921(2) 1.0981(17) 0.5324(11)
H32 H 0.678(2) 1.2569(18) 0.4991(12)
H33 H 0.492(2) 1.1480(18) 0.5398(12)
H34 H 0.632(2) 0.9257(17) 0.6042(11)
H35 H 0.952(2) 1.002(2) 0.6824(13)
H36 H 0.817(2) 1.2367(19) 0.6260(12)
H37 H 0.547(2) 1.2621(19) 0.6374(12)
H38 H 0.514(3) 1.051(2) 0.6989(14)
H39 H 0.774(2) 0.896(2) 0.7237(13)
H40 H 0.719(2) 1.107(2) 0.7500(14)
H41 H 0.980(2) 0.5520(19) 0.1893(12)
H42 H 1.132(2) 0.4988(18) 0.3135(11)
H43 H 0.970(2) 0.4764(18) 0.4301(12)
H44 H 0.723(2) 0.5182(17) 0.3737(11)
H45 H 0.887(2) 0.3824(19) 0.1938(13)
H46 H 1.155(2) 0.3251(18) 0.2490(12)
H47 H 1.146(2) 0.2772(19) 0.4014(12)
H48 H 0.880(2) 0.295(2) 0.4418(13)
H49 H 0.726(2) 0.363(2) 0.3096(13)
H50 H 0.987(2) 0.2067(18) 0.3284(11)
H51 H 0.742(2) 0.7290(17) 0.0916(11)
H52 H 0.598(2) 0.890(2) -0.0301(13)
H53 H 0.778(2) 0.977(2) -0.1161(13)
H54 H 1.026(2) 0.8599(18) -0.0478(11)
H55 H 0.917(2) 0.559(2) 0.0461(13)
H56 H 0.658(2) 0.667(2) -0.0257(13)
H57 H 0.686(2) 0.822(2) -0.1584(14)
H58 H 0.958(2) 0.8078(18) -0.1733(12)
H59 H 1.093(2) 0.6408(19) -0.0416(12)
H60 H 0.884(2) 0.6117(19) -0.1105(12)
C35 C 0.6189(3) 0.60679(19) 0.53134(13)
H61 H 0.5454 0.6331 0.4992
Cl1 Cl 0.74347(7) 0.64614(6) 0.48445(4)
Cl2 Cl 0.66155(13) 0.46887(7) 0.56204(6)
Cl3 Cl 0.57533(7) 0.66203(6) 0.60073(3)
loop_
_geom_bond_atom_site_label_1
_geom_bond_atom_site_label_2
_geom_bond_site_symmetry_1
_geom_bond_site_symmetry_2
B1 B2 1_555 1_555
B2 B3 1_555 1_555
B3 B4 1_555 1_555
B4 B8 1_555 1_555
B5 B1 1_555 1_555
B6 B1 1_555 1_555
B7 B2 1_555 1_555
B8 B3 1_555 1_555
B9 B4 1_555 1_555
B10 B5 1_555 1_555
B11 B12 1_555 1_555
B12 B13 1_555 1_555
B13 B14 1_555 1_555
B14 B18 1_555 1_555
B15 B11 1_555 1_555
B16 B11 1_555 1_555
B17 B12 1_555 1_555
B18 B13 1_555 1_555
B19 B14 1_555 1_555
B20 B15 1_555 1_555
B21 B22 1_555 1_555
B22 B23 1_555 1_555
B23 B24 1_555 1_555
B24 B28 1_555 1_555
B25 B21 1_555 1_555
B26 B21 1_555 1_555
B27 B22 1_555 1_555
B28 B23 1_555 1_555
B29 B24 1_555 1_555
B30 B25 1_555 1_555
B31 B32 1_555 1_555
B32 B33 1_555 1_555
B33 B34 1_555 1_555
B34 B38 1_555 1_555
B35 B31 1_555 1_555
B36 B31 1_555 1_555
B37 B32 1_555 1_555
B38 B33 1_555 1_555
B39 B34 1_555 1_555
B40 B35 1_555 1_555
C1 C2 1_555 1_555
C2 C3 1_555 1_555
C3 C4 1_555 1_555
C4 H1 1_555 1_555
C5 C4 1_555 1_555
H2 C5 1_555 1_555
C6 C5 1_555 1_555
C7 C6 1_555 1_555
H3 C7 1_555 1_555
C8 C3 1_555 1_555
H4 C8 1_555 1_555
C9 B1 1_555 1_555
C10 B1 1_555 1_555
C11 C1 1_555 1_555
C12 C11 1_555 1_555
H5 C12 1_555 1_555
C13 C12 1_555 1_555
H6 C13 1_555 1_555
C14 C13 1_555 1_555
C15 C14 1_555 1_555
H7 C15 1_555 1_555
C16 C11 1_555 1_555
H8 C16 1_555 1_555
C17 B11 1_555 1_555
C18 B11 1_555 1_555
C19 C1 1_555 1_555
C20 C19 1_555 1_555
H9 C20 1_555 1_555
C21 C20 1_555 1_555
H10 C21 1_555 1_555
C22 C21 1_555 1_555
C23 C22 1_555 1_555
H11 C23 1_555 1_555
C24 C19 1_555 1_555
H12 C24 1_555 1_555
C25 B21 1_555 1_555
C26 B21 1_555 1_555
C27 C2 1_555 1_555
C28 C27 1_555 1_555
H13 C28 1_555 1_555
C29 C28 1_555 1_555
H14 C29 1_555 1_555
C30 C29 1_555 1_555
C31 C30 1_555 1_555
H15 C31 1_555 1_555
C32 C27 1_555 1_555
H16 C32 1_555 1_555
C33 B31 1_555 1_555
C34 B31 1_555 1_555
H17 C10 1_555 1_555
H18 C18 1_555 1_555
H19 C26 1_555 1_555
H20 C34 1_555 1_555
H21 B1 1_555 1_555
H22 B2 1_555 1_555
H23 B3 1_555 1_555
H24 B4 1_555 1_555
H25 B5 1_555 1_555
H26 B6 1_555 1_555
H27 B7 1_555 1_555
H28 B8 1_555 1_555
H29 B9 1_555 1_555
H30 B10 1_555 1_555
H31 B11 1_555 1_555
H32 B12 1_555 1_555
H33 B13 1_555 1_555
H34 B14 1_555 1_555
H35 B15 1_555 1_555
H36 B16 1_555 1_555
H37 B17 1_555 1_555
H38 B18 1_555 1_555
H39 B19 1_555 1_555
H40 B20 1_555 1_555
H41 B21 1_555 1_555
H42 B22 1_555 1_555
H43 B23 1_555 1_555
H44 B24 1_555 1_555
H45 B25 1_555 1_555
H46 B26 1_555 1_555
H47 B27 1_555 1_555
H48 B28 1_555 1_555
H49 B29 1_555 1_555
H50 B30 1_555 1_555
H51 B31 1_555 1_555
H52 B32 1_555 1_555
H53 B33 1_555 1_555
H54 B34 1_555 1_555
H55 B35 1_555 1_555
H56 B36 1_555 1_555
H57 B37 1_555 1_555
H58 B38 1_555 1_555
H59 B39 1_555 1_555
H60 B40 1_555 1_555
C35 H61 1_555 1_555
Cl1 C35 1_555 1_555
Cl2 C35 1_555 1_555
Cl3 C35 1_555 1_555
B2 B6 1_555 1_555
B2 C9 1_555 1_555
B3 B7 1_555 1_555
B3 C9 1_555 1_555
B4 C9 1_555 1_555
B4 C10 1_555 1_555
B5 B6 1_555 1_555
B5 B9 1_555 1_555
B5 C10 1_555 1_555
B6 B7 1_555 1_555
B6 B10 1_555 1_555
B7 B8 1_555 1_555
B7 B10 1_555 1_555
B8 B9 1_555 1_555
B8 B10 1_555 1_555
B9 B10 1_555 1_555
B9 C10 1_555 1_555
B12 B16 1_555 1_555
B12 C17 1_555 1_555
B13 B17 1_555 1_555
B13 C17 1_555 1_555
B14 C17 1_555 1_555
B14 C18 1_555 1_555
B15 B16 1_555 1_555
B15 B19 1_555 1_555
B15 C18 1_555 1_555
B16 B17 1_555 1_555
B16 B20 1_555 1_555
B17 B18 1_555 1_555
B17 B20 1_555 1_555
B18 B19 1_555 1_555
B18 B20 1_555 1_555
B19 B20 1_555 1_555
B19 C18 1_555 1_555
B22 B26 1_555 1_555
B22 C25 1_555 1_555
B23 B27 1_555 1_555
B23 C25 1_555 1_555
B24 C25 1_555 1_555
B24 C26 1_555 1_555
B25 B26 1_555 1_555
B25 B29 1_555 1_555
B25 C26 1_555 1_555
B26 B27 1_555 1_555
B26 B30 1_555 1_555
B27 B28 1_555 1_555
B27 B30 1_555 1_555
B28 B29 1_555 1_555
B28 B30 1_555 1_555
B29 B30 1_555 1_555
B29 C26 1_555 1_555
B32 B36 1_555 1_555
B32 C33 1_555 1_555
B33 B37 1_555 1_555
B33 C33 1_555 1_555
B34 C33 1_555 1_555
B34 C34 1_555 1_555
B35 B36 1_555 1_555
B35 B39 1_555 1_555
B35 C34 1_555 1_555
B36 B37 1_555 1_555
B36 B40 1_555 1_555
B37 B38 1_555 1_555
B37 B40 1_555 1_555
B38 B39 1_555 1_555
B38 B40 1_555 1_555
B39 B40 1_555 1_555
B39 C34 1_555 1_555
C6 C9 1_555 1_555
C7 C8 1_555 1_555
C9 C10 1_555 1_555
C14 C17 1_555 1_555
C15 C16 1_555 1_555
C17 C18 1_555 1_555
C22 C25 1_555 1_555
C23 C24 1_555 1_555
C25 C26 1_555 1_555
C30 C33 1_555 1_555
C31 C32 1_555 1_555
C33 C34 1_555 1_555

#END
