
#######################################################################
#
#                 Cambridge Crystallographic Data Centre
#                                CCDC 
#
#######################################################################
#
# If this CIF has been generated from an entry in the Cambridge 
# Structural Database, then it will include bibliographic, chemical, 
# crystal, experimental, refinement or atomic coordinate data resulting 
# from the CCDC's data processing and validation procedures.
#
#######################################################################

data_ACIDEV03
_chemical_formula_moiety         'C18 H20 N2 O2'
_chemical_name_systematic        
2,2'-(butane-1,4-diylbis(nitrilomethylylidene))diphenol
_symmetry_cell_setting           monoclinic
_symmetry_space_group_name_H-M   'P 21/a'
_symmetry_Int_Tables_number      14
_space_group_name_Hall           '-P 2yab'
loop_
_symmetry_equiv_pos_site_id
_symmetry_equiv_pos_as_xyz
1 x,y,z
2 1/2-x,1/2+y,-z
3 -x,-y,-z
4 1/2+x,1/2-y,z
_cell_length_a                   8.7330(2)
_cell_length_b                   5.8710(3)
_cell_length_c                   15.3070(6)
_cell_angle_alpha                90
_cell_angle_beta                 90.535(1)
_cell_angle_gamma                90
_cell_volume                     784.778
_cell_formula_units_Z            2
loop_
_atom_site_label
_atom_site_type_symbol
_atom_site_fract_x
_atom_site_fract_y
_atom_site_fract_z
O1 O 0.1790(2) 0.7137(3) 0.32013(12)
N1 N 0.0452(2) 0.3245(4) 0.34121(14)
C1 C 0.0451(3) 0.0878(5) 0.4742(2)
C2 C -0.0418(3) 0.1595(5) 0.3919(2)
C3 C 0.0870(3) 0.2682(5) 0.2638(2)
C4 C 0.1796(3) 0.4203(5) 0.2104(2)
C5 C 0.2285(3) 0.3505(5) 0.1278(2)
C6 C 0.3224(3) 0.4866(5) 0.0780(2)
C7 C 0.3686(3) 0.6968(5) 0.1103(2)
C8 C 0.3201(3) 0.7715(5) 0.1909(2)
C9 C 0.2250(3) 0.6354(5) 0.2414(2)
H1 H 0.193(3) 0.199(5) 0.1071(16)
H2 H 0.059(3) 0.116(5) 0.2399(16)
H3 H -0.068(3) 0.020(5) 0.3579(17)
H4 H 0.352(2) 0.918(5) 0.2138(15)
H5 H -0.144(3) 0.238(5) 0.4099(17)
H6 H 0.146(3) 0.016(4) 0.4559(15)
H7 H 0.436(3) 0.797(5) 0.0770(17)
H8 H 0.351(3) 0.433(5) 0.0200(18)
H9 H 0.069(3) 0.233(5) 0.5100(19)
H10 H 0.119(4) 0.583(7) 0.348(3)
C1B C -0.0451(3) -0.0878(5) 0.5258(2)
C2B C 0.0418(3) -0.1595(5) 0.6081(2)
N1B N -0.0452(2) -0.3245(4) 0.65879(14)
C3B C -0.0870(3) -0.2682(5) 0.7362(2)
C4B C -0.1796(3) -0.4203(5) 0.7896(2)
C5B C -0.2285(3) -0.3505(5) 0.8722(2)
C6B C -0.3224(3) -0.4866(5) 0.9220(2)
C7B C -0.3686(3) -0.6968(5) 0.8897(2)
C8B C -0.3201(3) -0.7715(5) 0.8091(2)
C9B C -0.2250(3) -0.6354(5) 0.7586(2)
O1B O -0.1790(2) -0.7137(3) 0.67987(12)
H10B H -0.119(4) -0.583(7) 0.652(3)
H4B H -0.352(2) -0.918(5) 0.7862(15)
H7B H -0.436(3) -0.797(5) 0.9230(17)
H8B H -0.351(3) -0.433(5) 0.9800(18)
H1B H -0.193(3) -0.199(5) 0.8929(16)
H2B H -0.059(3) -0.116(5) 0.7601(16)
H3B H 0.068(3) -0.020(5) 0.6421(17)
H5B H 0.144(3) -0.238(5) 0.5901(17)
H6B H -0.146(3) -0.016(4) 0.5441(15)
H9B H -0.069(3) -0.233(5) 0.4900(19)
loop_
_geom_bond_atom_site_label_1
_geom_bond_atom_site_label_2
_geom_bond_site_symmetry_1
_geom_bond_site_symmetry_2
O1 C9 1_555 1_555
N1 C2 1_555 1_555
C1 C2 1_555 1_555
C2 H3 1_555 1_555
C3 N1 1_555 1_555
C4 C3 1_555 1_555
C5 C4 1_555 1_555
C6 C5 1_555 1_555
C7 C6 1_555 1_555
C8 C7 1_555 1_555
C9 C4 1_555 1_555
H1 C5 1_555 1_555
H2 C3 1_555 1_555
H4 C8 1_555 1_555
H5 C2 1_555 1_555
H6 C1 1_555 1_555
H7 C7 1_555 1_555
H8 C6 1_555 1_555
H9 C1 1_555 1_555
H10 O1 1_555 1_555
C1B C1 1_555 1_555
C2B C1B 1_555 1_555
N1B C2B 1_555 1_555
C3B N1B 1_555 1_555
C4B C3B 1_555 1_555
C5B C4B 1_555 1_555
C6B C5B 1_555 1_555
C7B C6B 1_555 1_555
C8B C7B 1_555 1_555
C9B C4B 1_555 1_555
O1B C9B 1_555 1_555
H10B O1B 1_555 1_555
H4B C8B 1_555 1_555
H7B C7B 1_555 1_555
H8B C6B 1_555 1_555
H1B C5B 1_555 1_555
H2B C3B 1_555 1_555
H3B C2B 1_555 1_555
H5B C2B 1_555 1_555
H6B C1B 1_555 1_555
H9B C1B 1_555 1_555
C8 C9 1_555 1_555
C8B C9B 1_555 1_555

#END
