
#######################################################################
#
#                 Cambridge Crystallographic Data Centre
#                                CCDC 
#
#######################################################################
#
# If this CIF has been generated from an entry in the Cambridge 
# Structural Database, then it will include bibliographic, chemical, 
# crystal, experimental, refinement or atomic coordinate data resulting 
# from the CCDC's data processing and validation procedures.
#
#######################################################################

data_ACIDOI
_chemical_formula_moiety         'C34 H34 B10'
_chemical_name_systematic        
1-(4-(triphenylethenyl)phenyl)-2-phenyl-1,2-dicarba-closo-dodecaborane(11)
_symmetry_cell_setting           monoclinic
_symmetry_space_group_name_H-M   'P 21/c'
_symmetry_Int_Tables_number      14
_space_group_name_Hall           '-P 2ybc'
loop_
_symmetry_equiv_pos_site_id
_symmetry_equiv_pos_as_xyz
1 x,y,z
2 -x,1/2+y,1/2-z
3 -x,-y,-z
4 x,1/2-y,1/2+z
_cell_length_a                   13.5900(14)
_cell_length_b                   10.2354(11)
_cell_length_c                   24.573(3)
_cell_angle_alpha                90
_cell_angle_beta                 91.139(2)
_cell_angle_gamma                90
_cell_volume                     3417.41
_exptl_crystal_colour            white
_cell_formula_units_Z            4
loop_
_atom_site_label
_atom_site_type_symbol
_atom_site_fract_x
_atom_site_fract_y
_atom_site_fract_z
B1 B -0.02265(13) 0.97145(18) 0.10557(8)
H1 H 0.0046 0.9214 0.0692
B2 B -0.05963(14) 0.8840(2) 0.16409(9)
H2 H -0.0577 0.7766 0.1657
B3 B -0.03058(14) 0.9810(2) 0.22239(8)
H3 H -0.0101 0.9371 0.2619
B4 B 0.02487(14) 1.12716(18) 0.19871(8)
H4 H 0.0829 1.1774 0.2225
B5 B -0.09300(14) 1.1171(2) 0.10065(9)
H5 H -0.1130 1.1612 0.0611
B6 B -0.14793(14) 0.9707(2) 0.12335(10)
H6 H -0.2041 0.9195 0.0986
B7 B -0.15343(15) 0.9770(2) 0.19578(11)
H7 H -0.2133 0.9300 0.2180
B8 B -0.09998(15) 1.1289(2) 0.21745(9)
H8 H -0.1248 1.1809 0.2539
B9 B -0.06301(14) 1.21368(19) 0.15844(9)
H9 H -0.0632 1.3210 0.1564
B10 B -0.17282(15) 1.1213(2) 0.15680(10)
H10 H -0.2456 1.1682 0.1540
C1 C 0.47933(11) 0.70614(15) 0.12581(6)
C2 C 0.43117(11) 0.74120(15) 0.17122(6)
C3 C 0.33129(11) 0.80127(15) 0.16943(6)
C4 C 0.31131(11) 0.90986(16) 0.20172(6)
H11 H 0.3607 0.9436 0.2244
C5 C 0.21926(11) 0.96843(15) 0.20067(6)
H12 H 0.2078 1.0410 0.2224
C6 C 0.14414(10) 0.91968(14) 0.16752(6)
C7 C 0.16296(11) 0.80957(15) 0.13601(7)
H13 H 0.1131 0.7747 0.1140
C8 C 0.25465(11) 0.75162(15) 0.13703(7)
H14 H 0.2655 0.6781 0.1157
C9 C 0.04299(11) 0.97936(15) 0.16640(6)
C10 C 0.02348(11) 1.11871(15) 0.12851(6)
C11 C 0.10956(12) 1.17936(16) 0.10029(7)
C12 C 0.14807(17) 1.1264(2) 0.05367(8)
H15 H 0.1216 1.0497 0.0394
C13 C 0.2257(2) 1.1863(3) 0.02794(11)
H16 H 0.2507 1.1486 -0.0033
C14 C 0.2661(2) 1.2985(3) 0.04719(11)
H17 H 0.3180 1.3378 0.0293
C15 C 0.22944(18) 1.3532(2) 0.09337(11)
H18 H 0.2568 1.4301 0.1070
C16 C 0.15124(16) 1.29473(19) 0.12037(9)
H19 H 0.1270 1.3328 0.1517
C17 C 0.44197(11) 0.73457(17) 0.06979(7)
C18 C 0.42168(16) 0.8608(2) 0.05265(8)
H20 H 0.4307 0.9307 0.0764
C19 C 0.3876(2) 0.8822(3) -0.00046(10)
H21 H 0.3752 0.9670 -0.0124
C20 C 0.3722(2) 0.7786(3) -0.03553(9)
H22 H 0.3483 0.7937 -0.0707
C21 C 0.39220(19) 0.6523(3) -0.01860(9)
H23 H 0.3812 0.5824 -0.0421
C22 C 0.42845(14) 0.6312(2) 0.03326(8)
H24 H 0.4443 0.5467 0.0442
C23 C 0.57570(11) 0.63572(15) 0.12831(6)
C24 C 0.65565(12) 0.68757(17) 0.10129(7)
H25 H 0.6480 0.7644 0.0814
C25 C 0.74638(13) 0.6266(2) 0.10350(9)
H26 H 0.7996 0.6633 0.0858
C26 C 0.75789(14) 0.5106(2) 0.13208(8)
H27 H 0.8188 0.4692 0.1337
C27 C 0.67850(14) 0.45686(17) 0.15816(7)
H28 H 0.6858 0.3785 0.1770
C28 C 0.58828(13) 0.51885(16) 0.15650(6)
H29 H 0.5354 0.4821 0.1744
C29 C 0.47602(11) 0.72470(16) 0.22663(6)
C30 C 0.56755(12) 0.77863(17) 0.24000(7)
H30 H 0.6017 0.8249 0.2139
C31 C 0.60809(14) 0.7641(2) 0.29174(8)
H31 H 0.6687 0.8018 0.3003
C32 C 0.55872(16) 0.6934(2) 0.33090(8)
H32 H 0.5865 0.6824 0.3655
C33 C 0.46843(15) 0.6397(2) 0.31817(8)
H33 H 0.4352 0.5922 0.3443
C34 C 0.42629(13) 0.65583(18) 0.26662(7)
H34 H 0.3646 0.6205 0.2587
loop_
_geom_bond_atom_site_label_1
_geom_bond_atom_site_label_2
_geom_bond_site_symmetry_1
_geom_bond_site_symmetry_2
B1 H1 1_555 1_555
B2 B1 1_555 1_555
H2 B2 1_555 1_555
B3 B2 1_555 1_555
H3 B3 1_555 1_555
B4 B3 1_555 1_555
H4 B4 1_555 1_555
B5 B1 1_555 1_555
H5 B5 1_555 1_555
B6 B1 1_555 1_555
H6 B6 1_555 1_555
B7 B2 1_555 1_555
H7 B7 1_555 1_555
B8 B3 1_555 1_555
H8 B8 1_555 1_555
B9 B4 1_555 1_555
H9 B9 1_555 1_555
B10 B5 1_555 1_555
H10 B10 1_555 1_555
C1 C2 1_555 1_555
C2 C3 1_555 1_555
C3 C4 1_555 1_555
C4 H11 1_555 1_555
C5 C4 1_555 1_555
H12 C5 1_555 1_555
C6 C5 1_555 1_555
C7 C6 1_555 1_555
H13 C7 1_555 1_555
C8 C3 1_555 1_555
H14 C8 1_555 1_555
C9 B1 1_555 1_555
C10 B1 1_555 1_555
C11 C10 1_555 1_555
C12 C11 1_555 1_555
H15 C12 1_555 1_555
C13 C12 1_555 1_555
H16 C13 1_555 1_555
C14 C13 1_555 1_555
H17 C14 1_555 1_555
C15 C14 1_555 1_555
H18 C15 1_555 1_555
C16 C11 1_555 1_555
H19 C16 1_555 1_555
C17 C1 1_555 1_555
C18 C17 1_555 1_555
H20 C18 1_555 1_555
C19 C18 1_555 1_555
H21 C19 1_555 1_555
C20 C19 1_555 1_555
H22 C20 1_555 1_555
C21 C20 1_555 1_555
H23 C21 1_555 1_555
C22 C17 1_555 1_555
H24 C22 1_555 1_555
C23 C1 1_555 1_555
C24 C23 1_555 1_555
H25 C24 1_555 1_555
C25 C24 1_555 1_555
H26 C25 1_555 1_555
C26 C25 1_555 1_555
H27 C26 1_555 1_555
C27 C26 1_555 1_555
H28 C27 1_555 1_555
C28 C23 1_555 1_555
H29 C28 1_555 1_555
C29 C2 1_555 1_555
C30 C29 1_555 1_555
H30 C30 1_555 1_555
C31 C30 1_555 1_555
H31 C31 1_555 1_555
C32 C31 1_555 1_555
H32 C32 1_555 1_555
C33 C32 1_555 1_555
H33 C33 1_555 1_555
C34 C29 1_555 1_555
H34 C34 1_555 1_555
B2 B6 1_555 1_555
B2 C9 1_555 1_555
B3 B7 1_555 1_555
B3 C9 1_555 1_555
B4 B8 1_555 1_555
B4 C9 1_555 1_555
B4 C10 1_555 1_555
B5 B6 1_555 1_555
B5 B9 1_555 1_555
B5 C10 1_555 1_555
B6 B7 1_555 1_555
B6 B10 1_555 1_555
B7 B8 1_555 1_555
B7 B10 1_555 1_555
B8 B9 1_555 1_555
B8 B10 1_555 1_555
B9 B10 1_555 1_555
B9 C10 1_555 1_555
C6 C9 1_555 1_555
C7 C8 1_555 1_555
C9 C10 1_555 1_555
C15 C16 1_555 1_555
C21 C22 1_555 1_555
C27 C28 1_555 1_555
C33 C34 1_555 1_555

#END
