
#######################################################################
#
#                 Cambridge Crystallographic Data Centre
#                                CCDC 
#
#######################################################################
#
# If this CIF has been generated from an entry in the Cambridge 
# Structural Database, then it will include bibliographic, chemical, 
# crystal, experimental, refinement or atomic coordinate data resulting 
# from the CCDC's data processing and validation procedures.
#
#######################################################################

data_ACIDEY
_chemical_formula_moiety         'C28 H30 B10'
_chemical_name_systematic        
1-(4-(triphenylethenyl)phenyl)-1,2-dicarba-closo-dodecaborane(11)
_symmetry_cell_setting           orthorhombic
_symmetry_space_group_name_H-M   'P n a 21'
_symmetry_Int_Tables_number      33
_space_group_name_Hall           'P 2c -2n'
loop_
_symmetry_equiv_pos_site_id
_symmetry_equiv_pos_as_xyz
1 x,y,z
2 -x,-y,1/2+z
3 1/2+x,1/2-y,z
4 1/2-x,1/2+y,1/2+z
_cell_length_a                   27.110(15)
_cell_length_b                   10.023(6)
_cell_length_c                   10.566(6)
_cell_angle_alpha                90
_cell_angle_beta                 90
_cell_angle_gamma                90
_cell_volume                     2871.03
_exptl_crystal_colour            white
_exptl_crystal_description       block
_cell_formula_units_Z            4
loop_
_atom_site_label
_atom_site_type_symbol
_atom_site_fract_x
_atom_site_fract_y
_atom_site_fract_z
B1 B 0.80572(15) 0.8600(5) 0.6027(4)
H1 H 0.8387 0.8966 0.5529
B2 B 0.79052(14) 0.6927(5) 0.6059(4)
H2 H 0.8134 0.6178 0.5576
B3 B 0.76164(13) 0.6562(5) 0.7498(4)
H3 H 0.7658 0.5578 0.7946
B4 B 0.75884(13) 0.8031(6) 0.8403(4)
H4 H 0.7614 0.8035 0.9442
B5 B 0.75068(18) 0.9532(7) 0.6111(7)
H5 H 0.7475 1.0524 0.5672
B6 B 0.75301(16) 0.8073(7) 0.5226(5)
H6 H 0.7511 0.8085 0.4186
B7 B 0.72514(14) 0.6822(5) 0.6134(4)
H7 H 0.7045 0.6003 0.5685
B8 B 0.70627(14) 0.7483(6) 0.7581(4)
H8 H 0.6737 0.7106 0.8091
B9 B 0.72143(16) 0.9167(7) 0.7567(7)
H9 H 0.6992 0.9915 0.8071
B10 B 0.70109(15) 0.8407(6) 0.6162(5)
H10 H 0.6651 0.8642 0.5736
C1 C 1.01335(9) 0.7994(3) 1.0692(3)
C2 C 0.99708(9) 0.7064(3) 0.9878(3)
C3 C 0.94924(9) 0.7222(3) 0.9191(3)
C4 C 0.91540(11) 0.6181(3) 0.9145(3)
H11 H 0.9236 0.5362 0.9500
C5 C 0.86997(11) 0.6344(3) 0.8585(3)
H12 H 0.8474 0.5645 0.8594
C6 C 0.85745(9) 0.7531(3) 0.8008(3)
C7 C 0.89203(9) 0.8541(3) 0.7987(3)
H13 H 0.8849 0.9338 0.7574
C8 C 0.93722(10) 0.8379(3) 0.8574(3)
H14 H 0.9600 0.9073 0.8550
C9 C 0.80775(10) 0.7710(3) 0.7403(3)
C10 C 0.78420(13) 0.9197(4) 0.7416(5)
C11 C 0.98378(9) 0.9184(3) 1.1051(3)
C12 C 0.93829(13) 0.9061(4) 1.1623(4)
H15 H 0.9260 0.8215 1.1799
C13 C 0.91067(14) 1.0161(5) 1.1939(4)
H16 H 0.8802 1.0055 1.2332
C14 C 0.92794(13) 1.1403(4) 1.1675(4)
H17 H 0.9093 1.2149 1.1888
C15 C 0.97242(12) 1.1554(4) 1.1102(4)
H18 H 0.9840 1.2405 1.0912
C16 C 1.00064(11) 1.0449(3) 1.0799(3)
H19 H 1.0313 1.0564 1.0420
C17 C 1.06274(9) 0.7891(3) 1.1314(3)
C18 C 1.06620(11) 0.7923(3) 1.2620(3)
H20 H 1.0380 0.8066 1.3104
C19 C 1.11070(13) 0.7748(4) 1.3204(3)
H21 H 1.1125 0.7756 1.4083
C20 C 1.15267(13) 0.7560(4) 1.2508(4)
H22 H 1.1828 0.7431 1.2912
C21 C 1.15021(12) 0.7561(4) 1.1218(4)
H23 H 1.1787 0.7443 1.0740
C22 C 1.10534(10) 0.7739(4) 1.0627(3)
H24 H 1.1039 0.7756 0.9748
C23 C 1.02566(10) 0.5825(3) 0.9601(3)
C24 C 1.04320(10) 0.5006(3) 1.0550(3)
H25 H 1.0362 0.5210 1.1390
C25 C 1.07080(12) 0.3893(4) 1.0275(3)
H26 H 1.0820 0.3345 1.0926
C26 C 1.08180(14) 0.3591(4) 0.9046(4)
H27 H 1.1012 0.2853 0.8858
C27 C 1.06422(16) 0.4377(4) 0.8098(4)
H28 H 1.0714 0.4170 0.7260
C28 C 1.03585(13) 0.5478(3) 0.8377(3)
H29 H 1.0234 0.5995 0.7721
H30 H 0.8027(15) 0.985(4) 0.785(4)
loop_
_geom_bond_atom_site_label_1
_geom_bond_atom_site_label_2
_geom_bond_site_symmetry_1
_geom_bond_site_symmetry_2
B1 H1 1_555 1_555
B2 B1 1_555 1_555
H2 B2 1_555 1_555
B3 B2 1_555 1_555
H3 B3 1_555 1_555
B4 B3 1_555 1_555
H4 B4 1_555 1_555
B5 B1 1_555 1_555
H5 B5 1_555 1_555
B6 B1 1_555 1_555
H6 B6 1_555 1_555
B7 B2 1_555 1_555
H7 B7 1_555 1_555
B8 B3 1_555 1_555
H8 B8 1_555 1_555
B9 B4 1_555 1_555
H9 B9 1_555 1_555
B10 B5 1_555 1_555
H10 B10 1_555 1_555
C1 C2 1_555 1_555
C2 C3 1_555 1_555
C3 C4 1_555 1_555
C4 H11 1_555 1_555
C5 C4 1_555 1_555
H12 C5 1_555 1_555
C6 C5 1_555 1_555
C7 C6 1_555 1_555
H13 C7 1_555 1_555
C8 C3 1_555 1_555
H14 C8 1_555 1_555
C9 B1 1_555 1_555
C10 B1 1_555 1_555
C11 C1 1_555 1_555
C12 C11 1_555 1_555
H15 C12 1_555 1_555
C13 C12 1_555 1_555
H16 C13 1_555 1_555
C14 C13 1_555 1_555
H17 C14 1_555 1_555
C15 C14 1_555 1_555
H18 C15 1_555 1_555
C16 C11 1_555 1_555
H19 C16 1_555 1_555
C17 C1 1_555 1_555
C18 C17 1_555 1_555
H20 C18 1_555 1_555
C19 C18 1_555 1_555
H21 C19 1_555 1_555
C20 C19 1_555 1_555
H22 C20 1_555 1_555
C21 C20 1_555 1_555
H23 C21 1_555 1_555
C22 C17 1_555 1_555
H24 C22 1_555 1_555
C23 C2 1_555 1_555
C24 C23 1_555 1_555
H25 C24 1_555 1_555
C25 C24 1_555 1_555
H26 C25 1_555 1_555
C26 C25 1_555 1_555
H27 C26 1_555 1_555
C27 C26 1_555 1_555
H28 C27 1_555 1_555
C28 C23 1_555 1_555
H29 C28 1_555 1_555
H30 C10 1_555 1_555
B2 B6 1_555 1_555
B2 C9 1_555 1_555
B3 B7 1_555 1_555
B3 C9 1_555 1_555
B4 B8 1_555 1_555
B4 C9 1_555 1_555
B4 C10 1_555 1_555
B5 B6 1_555 1_555
B5 B9 1_555 1_555
B5 C10 1_555 1_555
B6 B7 1_555 1_555
B6 B10 1_555 1_555
B7 B8 1_555 1_555
B7 B10 1_555 1_555
B8 B9 1_555 1_555
B8 B10 1_555 1_555
B9 B10 1_555 1_555
B9 C10 1_555 1_555
C6 C9 1_555 1_555
C7 C8 1_555 1_555
C9 C10 1_555 1_555
C15 C16 1_555 1_555
C21 C22 1_555 1_555
C27 C28 1_555 1_555

#END
