
#######################################################################
#
#                 Cambridge Crystallographic Data Centre
#                                CCDC 
#
#######################################################################
#
# If this CIF has been generated from an entry in the Cambridge 
# Structural Database, then it will include bibliographic, chemical, 
# crystal, experimental, refinement or atomic coordinate data resulting 
# from the CCDC's data processing and validation procedures.
#
#######################################################################

data_ACIFOH
_chemical_formula_moiety         'C21 H16 N2 O1'
_chemical_name_systematic        
'p-Methoxybenzaldehyde 9-fluorenylidenehydrazone'
_symmetry_cell_setting           orthorhombic
_symmetry_space_group_name_H-M   'P c a 21'
_symmetry_Int_Tables_number      29
_space_group_name_Hall           'P 2c -2ac'
loop_
_symmetry_equiv_pos_site_id
_symmetry_equiv_pos_as_xyz
1 x,y,z
2 -x,-y,1/2+z
3 1/2+x,-y,z
4 1/2-x,y,1/2+z
_cell_length_a                   22.9292(6)
_cell_length_b                   9.5033(3)
_cell_length_c                   7.5152(2)
_cell_angle_alpha                90
_cell_angle_beta                 90
_cell_angle_gamma                90
_cell_volume                     1637.59
_exptl_crystal_colour            yellow
_exptl_crystal_description       slab
_cell_formula_units_Z            4
_exptl_crystal_recrystallization_method methanol
loop_
_atom_site_label
_atom_site_type_symbol
_atom_site_fract_x
_atom_site_fract_y
_atom_site_fract_z
O1 O -0.10511(10) 1.1471(2) 0.3296(4)
N1 N 0.04878(12) 0.5876(3) 0.2902(5)
N2 N 0.06588(12) 0.4479(2) 0.3307(4)
C1 C 0.00027(12) 0.8645(3) 0.2518(5)
H1 H 0.0366 0.8495 0.1999
C2 C -0.02362(14) 0.9980(3) 0.2463(5)
H2 H -0.0037 1.0717 0.1921
C3 C -0.07783(13) 1.0199(3) 0.3231(5)
C4 C -0.10676(14) 0.9104(3) 0.4018(5)
H3 H -0.1430 0.9254 0.4540
C5 C -0.08262(15) 0.7795(3) 0.4040(5)
H4 H -0.1032 0.7056 0.4553
C6 C -0.02760(13) 0.7537(3) 0.3311(4)
C7 C -0.00173(14) 0.6147(3) 0.3481(5)
H5 H -0.0230 0.5437 0.4032
C8 C 0.11957(14) 0.4243(3) 0.2910(4)
C9 C 0.14565(14) 0.2831(3) 0.3218(4)
C10 C 0.12210(17) 0.1625(3) 0.3896(5)
H6 H 0.0837 0.1609 0.4292
C11 C 0.1562(2) 0.0431(4) 0.3985(6)
H7 H 0.1407 -0.0401 0.4433
C12 C 0.2133(2) 0.0472(4) 0.3409(6)
H8 H 0.2359 -0.0339 0.3472
C13 C 0.23738(17) 0.1685(4) 0.2745(6)
H9 H 0.2759 0.1697 0.2355
C14 C 0.20386(14) 0.2882(3) 0.2662(5)
C15 C 0.21708(14) 0.4309(3) 0.2045(4)
C16 C 0.26881(15) 0.4906(4) 0.1473(5)
H10 H 0.3028 0.4375 0.1426
C17 C 0.26909(18) 0.6319(5) 0.0968(5)
H11 H 0.3037 0.6738 0.0604
C18 C 0.21857(19) 0.7095(4) 0.1005(5)
H12 H 0.2193 0.8025 0.0621
C19 C 0.16691(15) 0.6525(3) 0.1598(5)
H13 H 0.1332 0.7066 0.1644
C20 C 0.16623(14) 0.5129(3) 0.2124(4)
C21 C -0.07641(17) 1.2673(3) 0.2620(7)
H14 H -0.0998 1.3492 0.2839
H15 H -0.0705 1.2565 0.1363
H16 H -0.0393 1.2778 0.3199
loop_
_geom_bond_atom_site_label_1
_geom_bond_atom_site_label_2
_geom_bond_site_symmetry_1
_geom_bond_site_symmetry_2
O1 C3 1_555 1_555
N1 N2 1_555 1_555
N2 C8 1_555 1_555
C1 H1 1_555 1_555
C2 C1 1_555 1_555
H2 C2 1_555 1_555
C3 C2 1_555 1_555
C4 C3 1_555 1_555
H3 C4 1_555 1_555
C5 C4 1_555 1_555
H4 C5 1_555 1_555
C6 C1 1_555 1_555
C7 N1 1_555 1_555
H5 C7 1_555 1_555
C8 C9 1_555 1_555
C9 C10 1_555 1_555
C10 H6 1_555 1_555
C11 C10 1_555 1_555
H7 C11 1_555 1_555
C12 C11 1_555 1_555
H8 C12 1_555 1_555
C13 C12 1_555 1_555
H9 C13 1_555 1_555
C14 C9 1_555 1_555
C15 C14 1_555 1_555
C16 C15 1_555 1_555
H10 C16 1_555 1_555
C17 C16 1_555 1_555
H11 C17 1_555 1_555
C18 C17 1_555 1_555
H12 C18 1_555 1_555
C19 C18 1_555 1_555
H13 C19 1_555 1_555
C20 C8 1_555 1_555
C21 O1 1_555 1_555
H14 C21 1_555 1_555
H15 C21 1_555 1_555
H16 C21 1_555 1_555
C5 C6 1_555 1_555
C6 C7 1_555 1_555
C13 C14 1_555 1_555
C15 C20 1_555 1_555
C19 C20 1_555 1_555

#END
