
#######################################################################
#
#                 Cambridge Crystallographic Data Centre
#                                CCDC 
#
#######################################################################
#
# If this CIF has been generated from an entry in the Cambridge 
# Structural Database, then it will include bibliographic, chemical, 
# crystal, experimental, refinement or atomic coordinate data resulting 
# from the CCDC's data processing and validation procedures.
#
#######################################################################

data_ACIHOK
_chemical_formula_moiety         'C40 H44 N24 O12,10(H2 O1)'
_chemical_name_systematic        
"\a,\a',\f,\f'-Tetramethylcucurbit(6)uril unknown solvent decahydrate"
_symmetry_cell_setting           monoclinic
_symmetry_space_group_name_H-M   'C 2/c'
_symmetry_Int_Tables_number      15
_space_group_name_Hall           '-C 2yn'
loop_
_symmetry_equiv_pos_site_id
_symmetry_equiv_pos_as_xyz
1 x,y,z
2 -x,y,1/2-z
3 1/2+x,1/2+y,z
4 1/2-x,1/2+y,1/2-z
5 -x,-y,-z
6 x,-y,1/2+z
7 1/2-x,1/2-y,-z
8 1/2+x,1/2-y,1/2+z
_cell_length_a                   28.017(4)
_cell_length_b                   11.6263(17)
_cell_length_c                   23.255(3)
_cell_angle_alpha                90
_cell_angle_beta                 110.596(2)
_cell_angle_gamma                90
_cell_volume                     7090.79
_exptl_crystal_colour            colorless
_cell_formula_units_Z            4
loop_
_atom_site_label
_atom_site_type_symbol
_atom_site_fract_x
_atom_site_fract_y
_atom_site_fract_z
O1 O 0.0323(13) 0.989(4) 0.550(2)
O2 O 0.0457(13) 1.143(5) 0.5077(10)
O3 O 0.3620(13) 1.2667(13) 0.6106(10)
O4 O 0.3490(10) 1.2334(13) 0.4867(10)
O5 O 0.0339(9) 1.240(2) 0.4164(14)
O6 O 0.0770(6) 0.3301(14) 0.2790(11)
O7 O 0.4886(5) 0.9234(12) 0.4567(6)
O8 O 0.0530(4) 0.5292(16) 0.1497(5)
O9 O 0.3469(3) 0.4813(6) 0.0246(18)
O10 O 0.2495(3) 0.5277(6) -0.1555(3)
O11 O 0.1498(3) 0.5119(6) -0.1145(4)
O12 O 0.1429(3) 0.5024(6) 0.0432(3)
O13 O 0.2534(3) 0.0214(6) -0.1591(3)
O14 O 0.1484(3) -0.0082(6) -0.1331(3)
N1 N 0.3980(3) 0.3637(7) 0.0161(4)
N2 N 0.3636(3) 0.3705(7) -0.0852(4)
N3 N 0.2928(3) 0.3846(7) -0.1833(4)
N4 N 0.2089(3) 0.3803(8) -0.2186(4)
N5 N 0.1353(3) 0.3647(7) -0.1849(4)
N6 N 0.1016(3) 0.3530(7) -0.1128(4)
N7 N 0.0994(3) 0.3450(7) -0.0096(4)
N8 N 0.3699(3) 0.1626(7) -0.0906(4)
N9 N 0.2946(3) 0.1731(7) -0.1841(4)
N10 N 0.2105(3) 0.1702(7) -0.2212(4)
N11 N 0.1351(3) 0.1564(7) -0.1916(4)
N12 N 0.1003(3) 0.1442(7) -0.1206(4)
C1 C 0.3674(4) 0.4266(9) -0.0327(5)
C2 C 0.3429(4) 0.4239(8) -0.1438(5)
C3 C 0.2509(4) 0.4385(7) -0.1821(4)
C4 C 0.1578(4) 0.4178(8) -0.2253(5)
C5 C 0.1314(4) 0.4206(9) -0.1348(5)
C6 C 0.0795(4) 0.3988(9) -0.0691(5)
C7 C 0.4191(4) 0.2655(9) -0.0032(4)
C8 C 0.3963(4) 0.2712(9) -0.0743(5)
C9 C 0.3071(4) 0.2818(9) -0.2688(5)
C10 C 0.2822(4) 0.2806(9) -0.2216(4)
C11 C 0.2211(4) 0.2786(9) -0.2478(4)
C12 C 0.1962(4) 0.2793(10) -0.3160(5)
C13 C 0.1057(4) 0.2606(9) -0.2004(5)
C14 C 0.0816(4) 0.2530(9) -0.1493(5)
C15 C 0.1266(4) 0.4044(9) 0.0421(5)
C16 C 0.3450(4) 0.1266(10) -0.1550(4)
C17 C 0.2530(4) 0.1119(9) -0.1859(4)
C18 C 0.1605(4) 0.1213(9) -0.2333(5)
C19 C 0.1300(4) 0.0880(9) -0.1471(4)
C20 C 0.4186(4) 0.4099(8) 0.0783(4)
O9F O 0.1531(3) 0.0187(6) -0.0246(18)
O10F O 0.2505(3) -0.0277(6) 0.1555(3)
O11F O 0.3502(3) -0.0119(6) 0.1145(4)
O12F O 0.3571(3) -0.0024(6) -0.0432(3)
O13F O 0.2466(3) 0.4786(6) 0.1591(3)
O14F O 0.3516(3) 0.5082(6) 0.1331(3)
N1F N 0.1020(3) 0.1363(7) -0.0161(4)
N2F N 0.1364(3) 0.1295(7) 0.0852(4)
N3F N 0.2072(3) 0.1154(7) 0.1833(4)
N4F N 0.2911(3) 0.1197(8) 0.2186(4)
N5F N 0.3647(3) 0.1353(7) 0.1849(4)
N6F N 0.3984(3) 0.1470(7) 0.1128(4)
N7F N 0.4006(3) 0.1550(7) 0.0096(4)
N8F N 0.1301(3) 0.3374(7) 0.0906(4)
N9F N 0.2054(3) 0.3269(7) 0.1841(4)
N10F N 0.2895(3) 0.3298(7) 0.2212(4)
N11F N 0.3649(3) 0.3436(7) 0.1916(4)
N12F N 0.3997(3) 0.3558(7) 0.1206(4)
C1F C 0.1326(4) 0.0734(9) 0.0327(5)
C2F C 0.1571(4) 0.0761(8) 0.1438(5)
C3F C 0.2491(4) 0.0615(7) 0.1821(4)
C4F C 0.3422(4) 0.0822(8) 0.2253(5)
C5F C 0.3686(4) 0.0794(9) 0.1348(5)
C6F C 0.4205(4) 0.1012(9) 0.0691(5)
C7F C 0.0809(4) 0.2345(9) 0.0032(4)
C8F C 0.1037(4) 0.2288(9) 0.0743(5)
C9F C 0.1929(4) 0.2182(9) 0.2688(5)
C10F C 0.2178(4) 0.2194(9) 0.2216(4)
C11F C 0.2789(4) 0.2214(9) 0.2478(4)
C12F C 0.3038(4) 0.2207(10) 0.3160(5)
C13F C 0.3943(4) 0.2394(9) 0.2004(5)
C14F C 0.4184(4) 0.2470(9) 0.1493(5)
C15F C 0.3734(4) 0.0956(9) -0.0421(5)
C16F C 0.1550(4) 0.3734(10) 0.1550(4)
C17F C 0.2470(4) 0.3881(9) 0.1859(4)
C18F C 0.3395(4) 0.3787(9) 0.2333(5)
C19F C 0.3700(4) 0.4120(9) 0.1471(4)
C20F C 0.0814(4) 0.0901(8) -0.0783(4)
O15? O 0.4796(9) 0.4521(12) 0.2701(8)
N13? N 0.2441(6) 1.3708(10) 0.4427(5)
C21? C 0.2488(9) 1.490(9) 0.476(3)
N14? N 0.2495(8) 1.446(5) 0.5513(11)
C22? C 0.2497(18) 1.713(3) 0.438(3)
C23? C 0.2498(11) 1.705(4) 0.4869(12)
C24? C 0.4511(17) 0.594(14) 0.284(3)
O16? O 0.4617(10) 0.6782(14) 0.3201(11)
loop_
_geom_bond_atom_site_label_1
_geom_bond_atom_site_label_2
_geom_bond_site_symmetry_1
_geom_bond_site_symmetry_2
O9 C1 1_555 1_555
O10 C3 1_555 1_555
O11 C5 1_555 1_555
O12 C15 1_555 1_555
O13 C17 1_555 1_555
O14 C19 1_555 1_555
N1 C1 1_555 1_555
N2 C1 1_555 1_555
N3 C2 1_555 1_555
N4 C3 1_555 1_555
N5 C4 1_555 1_555
N6 C5 1_555 1_555
N7 C6 1_555 1_555
N8 C8 1_555 1_555
N9 C10 1_555 1_555
N10 C11 1_555 1_555
N11 C13 1_555 1_555
N12 C14 1_555 1_555
C2 N2 1_555 1_555
C3 N3 1_555 1_555
C4 N4 1_555 1_555
C5 N5 1_555 1_555
C6 N6 1_555 1_555
C7 N1 1_555 1_555
C8 N2 1_555 1_555
C9 C10 1_555 1_555
C10 N3 1_555 1_555
C11 N4 1_555 1_555
C12 C11 1_555 1_555
C13 N5 1_555 1_555
C14 N6 1_555 1_555
C15 N7 1_555 1_555
C16 N8 1_555 1_555
C17 N9 1_555 1_555
C18 N10 1_555 1_555
C19 N11 1_555 1_555
C20 N1 1_555 1_555
O9F C1F 1_555 1_555
O10F C3F 1_555 1_555
O11F C5F 1_555 1_555
O12F C15F 1_555 1_555
O13F C17F 1_555 1_555
O14F C19F 1_555 1_555
N1F C1F 1_555 1_555
N2F C1F 1_555 1_555
N3F C2F 1_555 1_555
N4F C3F 1_555 1_555
N5F C4F 1_555 1_555
N6F C5F 1_555 1_555
N7F C7 1_555 1_555
N8F C15 1_555 1_555
N9F C10F 1_555 1_555
N10F C11F 1_555 1_555
N11F C13F 1_555 1_555
N12F C20 1_555 1_555
C2F N2F 1_555 1_555
C3F N3F 1_555 1_555
C4F N4F 1_555 1_555
C5F N5F 1_555 1_555
C6F N6F 1_555 1_555
C7F N7 1_555 1_555
C8F N2F 1_555 1_555
C9F C10F 1_555 1_555
C10F N3F 1_555 1_555
C11F N4F 1_555 1_555
C12F C11F 1_555 1_555
C13F N5F 1_555 1_555
C14F N6F 1_555 1_555
C15F N8 1_555 1_555
C16F N8F 1_555 1_555
C17F N9F 1_555 1_555
C18F N10F 1_555 1_555
C19F N11F 1_555 1_555
C20F N12 1_555 1_555
N9 C16 1_555 1_555
N10 C17 1_555 1_555
N11 C18 1_555 1_555
N12 C19 1_555 1_555
C7 C8 1_555 1_555
C10 C11 1_555 1_555
C13 C14 1_555 1_555
N1F C7F 1_555 1_555
N1F C20F 1_555 1_555
N7F C6F 1_555 1_555
N7F C15F 1_555 1_555
N8F C8F 1_555 1_555
N9F C16F 1_555 1_555
N10F C17F 1_555 1_555
N11F C18F 1_555 1_555
N12F C14F 1_555 1_555
N12F C19F 1_555 1_555
C7F C8F 1_555 1_555
C10F C11F 1_555 1_555
C13F C14F 1_555 1_555

#END
