
#######################################################################
#
#                 Cambridge Crystallographic Data Centre
#                                CCDC 
#
#######################################################################
#
# If this CIF has been generated from an entry in the Cambridge 
# Structural Database, then it will include bibliographic, chemical, 
# crystal, experimental, refinement or atomic coordinate data resulting 
# from the CCDC's data processing and validation procedures.
#
#######################################################################

data_ACIJOM01
_chemical_formula_moiety         'C20 H24 N2 O4'
_chemical_name_systematic        
N,N'-bis(Salicylidene)-3,6-dioxa-1,8-diaminooctane
_symmetry_cell_setting           monoclinic
_symmetry_space_group_name_H-M   'P 21/n'
_symmetry_Int_Tables_number      14
_space_group_name_Hall           '-P 2yn'
loop_
_symmetry_equiv_pos_site_id
_symmetry_equiv_pos_as_xyz
1 x,y,z
2 1/2-x,1/2+y,1/2-z
3 -x,-y,-z
4 1/2+x,1/2-y,1/2+z
_cell_length_a                   10.2652(12)
_cell_length_b                   4.8695(6)
_cell_length_c                   19.402(2)
_cell_angle_alpha                90
_cell_angle_beta                 98.475(8)
_cell_angle_gamma                90
_cell_volume                     959.246
_exptl_crystal_colour            yellow
_exptl_crystal_description       block
_cell_formula_units_Z            2
loop_
_atom_site_label
_atom_site_type_symbol
_atom_site_fract_x
_atom_site_fract_y
_atom_site_fract_z
O1 O 0.58824(15) 0.5159(4) 0.10920(8)
H1 H 0.5388 0.4051 0.0869
O2 O 0.13157(14) 0.2615(3) 0.02388(6)
N1 N 0.40116(15) 0.1599(3) 0.08473(9)
C1 C 0.55299(17) 0.5486(4) 0.17284(10)
C2 C 0.61963(19) 0.7378(4) 0.21829(12)
H2 H 0.6875 0.8414 0.2046
C3 C 0.5859(2) 0.7727(5) 0.28329(12)
H3 H 0.6314 0.8997 0.3136
C4 C 0.4858(2) 0.6228(5) 0.30444(11)
H4 H 0.4628 0.6486 0.3486
C5 C 0.4204(2) 0.4352(5) 0.25985(10)
H5 H 0.3534 0.3316 0.2745
C6 C 0.45118(16) 0.3948(4) 0.19307(9)
C7 C 0.37921(17) 0.1965(4) 0.14647(11)
H6 H 0.3142 0.0918 0.1627
C8 C 0.3192(2) -0.0340(5) 0.04091(11)
H7 H 0.2712 -0.1483 0.0695
H8 H 0.3741 -0.1522 0.0171
C9 C 0.2235(2) 0.1189(5) -0.01175(11)
H9 H 0.2706 0.2487 -0.0369
H10 H 0.1773 -0.0091 -0.0451
C10 C 0.0398(2) 0.4172(5) -0.02129(9)
H11 H -0.0171 0.2962 -0.0520
H12 H 0.0856 0.5372 -0.0497
O1B O -0.58824(15) 0.4841(4) -0.10920(8)
H1B H -0.5388 0.5949 -0.0869
O2B O -0.13157(14) 0.7385(3) -0.02388(6)
N1B N -0.40116(15) 0.8401(3) -0.08473(9)
C1B C -0.55299(17) 0.4514(4) -0.17284(10)
C2B C -0.61963(19) 0.2622(4) -0.21829(12)
H2B H -0.6875 0.1586 -0.2046
C3B C -0.5859(2) 0.2273(5) -0.28329(12)
H3B H -0.6314 0.1003 -0.3136
C4B C -0.4858(2) 0.3772(5) -0.30444(11)
H4B H -0.4628 0.3514 -0.3486
C5B C -0.4204(2) 0.5648(5) -0.25985(10)
H5B H -0.3534 0.6684 -0.2745
C6B C -0.45118(16) 0.6052(4) -0.19307(9)
C7B C -0.37921(17) 0.8035(4) -0.14647(11)
H6B H -0.3142 0.9082 -0.1627
C8B C -0.3192(2) 1.0340(5) -0.04091(11)
H7B H -0.2712 1.1483 -0.0695
H8B H -0.3741 1.1522 -0.0171
C9B C -0.2235(2) 0.8811(5) 0.01175(11)
H9B H -0.2706 0.7513 0.0369
H10B H -0.1773 1.0091 0.0451
C10B C -0.0398(2) 0.5828(5) 0.02129(9)
H11B H 0.0171 0.7038 0.0520
H12B H -0.0856 0.4628 0.0497
loop_
_geom_bond_atom_site_label_1
_geom_bond_atom_site_label_2
_geom_bond_site_symmetry_1
_geom_bond_site_symmetry_2
O1 H1 1_555 1_555
O2 C9 1_555 1_555
N1 C7 1_555 1_555
C1 O1 1_555 1_555
C2 C1 1_555 1_555
H2 C2 1_555 1_555
C3 C2 1_555 1_555
H3 C3 1_555 1_555
C4 C3 1_555 1_555
H4 C4 1_555 1_555
C5 C4 1_555 1_555
H5 C5 1_555 1_555
C6 C1 1_555 1_555
C7 C6 1_555 1_555
H6 C7 1_555 1_555
C8 N1 1_555 1_555
H7 C8 1_555 1_555
H8 C8 1_555 1_555
C9 C8 1_555 1_555
H9 C9 1_555 1_555
H10 C9 1_555 1_555
C10 O2 1_555 1_555
H11 C10 1_555 1_555
H12 C10 1_555 1_555
O1B H1B 1_555 1_555
O2B C9B 1_555 1_555
N1B C7B 1_555 1_555
C1B O1B 1_555 1_555
C2B C1B 1_555 1_555
H2B C2B 1_555 1_555
C3B C2B 1_555 1_555
H3B C3B 1_555 1_555
C4B C3B 1_555 1_555
H4B C4B 1_555 1_555
C5B C4B 1_555 1_555
H5B C5B 1_555 1_555
C6B C1B 1_555 1_555
C7B C6B 1_555 1_555
H6B C7B 1_555 1_555
C8B N1B 1_555 1_555
H7B C8B 1_555 1_555
H8B C8B 1_555 1_555
C9B C8B 1_555 1_555
H9B C9B 1_555 1_555
H10B C9B 1_555 1_555
C10B C10 1_555 1_555
H11B C10B 1_555 1_555
H12B C10B 1_555 1_555
C5 C6 1_555 1_555
O2B C10B 1_555 1_555
C5B C6B 1_555 1_555

#END
