
#######################################################################
#
#                 Cambridge Crystallographic Data Centre
#                                CCDC 
#
#######################################################################
#
# If this CIF has been generated from an entry in the Cambridge 
# Structural Database, then it will include bibliographic, chemical, 
# crystal, experimental, refinement or atomic coordinate data resulting 
# from the CCDC's data processing and validation procedures.
#
#######################################################################

data_ACILEG
_chemical_formula_moiety         'C24 H27 B10 N3'
_chemical_name_systematic        
1-(5'-(diphenylamino)-2,2'-bipyridin-5-yl)-1,2-dicarba-closo-dodecaborane
_symmetry_cell_setting           monoclinic
_symmetry_space_group_name_H-M   'P 21/c'
_symmetry_Int_Tables_number      14
_space_group_name_Hall           '-P 2ybc'
loop_
_symmetry_equiv_pos_site_id
_symmetry_equiv_pos_as_xyz
1 x,y,z
2 -x,1/2+y,1/2-z
3 -x,-y,-z
4 x,1/2-y,1/2+z
_cell_length_a                   11.738(2)
_cell_length_b                   7.3043(14)
_cell_length_c                   29.418(6)
_cell_angle_alpha                90
_cell_angle_beta                 94.827(4)
_cell_angle_gamma                90
_cell_volume                     2513.29
_exptl_crystal_colour            white
_exptl_crystal_description       block
_cell_formula_units_Z            4
_exptl_crystal_recrystallization_method dichloromethane
loop_
_atom_site_label
_atom_site_type_symbol
_atom_site_fract_x
_atom_site_fract_y
_atom_site_fract_z
C1 C 0.1624(3) 0.5237(5) 0.06000(12)
H1 H 0.0962 0.5593 0.0729
C2 C 0.2612(3) 0.6121(5) 0.07030(12)
C3 C 0.2540(3) 0.3236(5) 0.01033(12)
C4 C 0.2426(3) 0.1816(5) -0.02686(12)
N1 N 0.2941(3) 1.2303(4) 0.18457(11)
C5 C 0.2610(3) 0.7754(5) 0.09964(12)
C6 C 0.2782(3) 1.0761(5) 0.15585(13)
C7 C 0.1891(3) 0.9512(5) 0.15966(14)
H2 H 0.1373 0.9683 0.1815
C8 C 0.3441(3) 0.8959(5) 0.09536(12)
H3 H 0.3963 0.8780 0.0737
C9 C 0.1610(3) 0.3845(5) 0.03105(14)
H4 H 0.0920 0.3239 0.0243
C10 C 0.1982(3) 1.3277(5) 0.19893(13)
C11 C 0.3581(3) 0.4096(6) 0.02296(15)
H5 H 0.4247 0.3680 0.0114
C12 C 0.4045(3) 1.3146(5) 0.18962(13)
N2 N 0.1791(3) 0.8027(5) 0.13067(13)
C13 C 0.2075(4) 1.4100(6) 0.24115(14)
H6 H 0.2739 1.3950 0.2603
N3 N 0.3620(3) 0.5556(5) 0.05242(14)
B1 B 0.2905(3) -0.0318(5) -0.01811(14)
C14 C 0.3520(4) 1.0426(6) 0.12238(15)
H7 H 0.4099 1.1268 0.1186
C15 C 0.0985(3) 1.3495(5) 0.17082(14)
H8 H 0.0919 1.2966 0.1420
B2 B 0.1469(4) 0.0074(6) -0.02029(17)
C16 C 0.1184(4) 1.5155(6) 0.25543(16)
H9 H 0.1263 1.5731 0.2837
B3 B 0.2107(4) -0.1374(7) -0.10548(17)
C17 C 0.3613(4) 0.1064(7) -0.05270(18)
B4 B 0.3371(4) -0.1223(7) -0.06632(19)
C18 C 0.4986(4) 1.2164(6) 0.20678(16)
H10 H 0.4907 1.0960 0.2163
B5 B 0.0949(4) -0.0562(7) -0.07611(18)
C19 C 0.0182(4) 1.5346(6) 0.22749(18)
H11 H -0.0420 1.6038 0.2370
B6 B 0.2540(5) 0.2440(7) -0.08230(16)
B7 B 0.2027(5) -0.1864(6) -0.04720(17)
C20 C 0.4178(4) 1.4955(6) 0.17794(15)
H12 H 0.3545 1.5648 0.1675
C21 C 0.0086(4) 1.4499(6) 0.18552(18)
H13 H -0.0591 1.4602 0.1668
B8 B 0.1216(4) 0.1770(7) -0.06264(16)
B9 B 0.3115(5) 0.0495(7) -0.10841(19)
C22 C 0.5246(5) 1.5737(7) 0.18172(19)
H14 H 0.5327 1.6955 0.1734
B10 B 0.1622(5) 0.0929(8) -0.11483(18)
C23 C 0.6163(4) 1.4791(8) 0.1970(2)
H15 H 0.6879 1.5344 0.1992
C24 C 0.6055(4) 1.2996(8) 0.2098(2)
H16 H 0.6699 1.2333 0.2204
loop_
_geom_bond_atom_site_label_1
_geom_bond_atom_site_label_2
_geom_bond_site_symmetry_1
_geom_bond_site_symmetry_2
C1 H1 1_555 1_555
C2 C1 1_555 1_555
C3 C4 1_555 1_555
C4 B1 1_555 1_555
N1 C6 1_555 1_555
C5 C2 1_555 1_555
C6 C7 1_555 1_555
C7 H2 1_555 1_555
C8 C5 1_555 1_555
H3 C8 1_555 1_555
C9 C1 1_555 1_555
H4 C9 1_555 1_555
C10 N1 1_555 1_555
C11 C3 1_555 1_555
H5 C11 1_555 1_555
C12 N1 1_555 1_555
N2 C5 1_555 1_555
C13 C10 1_555 1_555
H6 C13 1_555 1_555
N3 C2 1_555 1_555
B1 B2 1_555 1_555
C14 C6 1_555 1_555
H7 C14 1_555 1_555
C15 C10 1_555 1_555
H8 C15 1_555 1_555
B2 C4 1_555 1_555
C16 C13 1_555 1_555
H9 C16 1_555 1_555
B3 B4 1_555 1_555
C17 C4 1_555 1_555
B4 B1 1_555 1_555
C18 C12 1_555 1_555
H10 C18 1_555 1_555
B5 B2 1_555 1_555
C19 C16 1_555 1_555
H11 C19 1_555 1_555
B6 C4 1_555 1_555
B7 B1 1_555 1_555
C20 C12 1_555 1_555
H12 C20 1_555 1_555
C21 C15 1_555 1_555
H13 C21 1_555 1_555
B8 C4 1_555 1_555
B9 B3 1_555 1_555
C22 C20 1_555 1_555
H14 C22 1_555 1_555
B10 B3 1_555 1_555
C23 C22 1_555 1_555
H15 C23 1_555 1_555
C24 C18 1_555 1_555
H16 C24 1_555 1_555
C3 C9 1_555 1_555
C7 N2 1_555 1_555
C8 C14 1_555 1_555
C11 N3 1_555 1_555
B1 C17 1_555 1_555
B2 B7 1_555 1_555
B2 B8 1_555 1_555
B3 B5 1_555 1_555
B3 B7 1_555 1_555
C17 B4 1_555 1_555
C17 B6 1_555 1_555
C17 B9 1_555 1_555
B4 B7 1_555 1_555
B4 B9 1_555 1_555
B5 B7 1_555 1_555
B5 B8 1_555 1_555
B5 B10 1_555 1_555
C19 C21 1_555 1_555
B6 B8 1_555 1_555
B6 B9 1_555 1_555
B6 B10 1_555 1_555
B8 B10 1_555 1_555
B9 B10 1_555 1_555
C23 C24 1_555 1_555

#END
