
#######################################################################
#
#                 Cambridge Crystallographic Data Centre
#                                CCDC 
#
#######################################################################
#
# If this CIF has been generated from an entry in the Cambridge 
# Structural Database, then it will include bibliographic, chemical, 
# crystal, experimental, refinement or atomic coordinate data resulting 
# from the CCDC's data processing and validation procedures.
#
#######################################################################

data_ACIQAE
_chemical_formula_moiety         'C12 H17 O2 P1 Se2'
_chemical_name_systematic        
'4,8-Dimethyl-2-phenyl-1,3,6,2-dioxaselenaphosphocane 2-selenide'
_symmetry_cell_setting           orthorhombic
_symmetry_space_group_name_H-M   'P b c a'
_symmetry_Int_Tables_number      61
_space_group_name_Hall           '-P 2ac 2ab'
loop_
_symmetry_equiv_pos_site_id
_symmetry_equiv_pos_as_xyz
1 x,y,z
2 1/2-x,-y,1/2+z
3 -x,1/2+y,1/2-z
4 1/2+x,1/2-y,-z
5 -x,-y,-z
6 1/2+x,y,1/2-z
7 x,1/2-y,1/2+z
8 1/2-x,1/2+y,z
_cell_length_a                   9.270(2)
_cell_length_b                   16.083(3)
_cell_length_c                   19.858(4)
_cell_angle_alpha                90
_cell_angle_beta                 90
_cell_angle_gamma                90
_cell_volume                     2960.62
_exptl_crystal_colour            colorless
_chemical_melting_point          105-107deg.C
_cell_formula_units_Z            8
loop_
_atom_site_label
_atom_site_type_symbol
_atom_site_fract_x
_atom_site_fract_y
_atom_site_fract_z
Se1 Se 0.14551(7) 0.46548(5) 0.44573(3)
Se2 Se 0.41428(7) 0.60983(5) 0.23129(3)
P1 P 0.32772(15) 0.45253(10) 0.38621(7)
C1 C 0.4516(5) 0.3726(4) 0.4107(3)
C2 C 0.5940(6) 0.3898(4) 0.4272(3)
H1 H 0.6292 0.4460 0.4259
C3 C 0.6855(7) 0.3234(5) 0.4445(3)
H2 H 0.7849 0.3338 0.4551
C4 C 0.6316(8) 0.2445(5) 0.4468(3)
H3 H 0.6947 0.1999 0.4596
C5 C 0.4924(8) 0.2284(4) 0.4313(3)
H4 H 0.4573 0.1723 0.4328
C6 C 0.4025(7) 0.2916(4) 0.4136(3)
H5 H 0.3033 0.2802 0.4031
O1 O 0.4332(4) 0.5294(2) 0.38207(19)
O2 O 0.2800(4) 0.4330(3) 0.31143(18)
C7 C 0.5161(7) 0.6674(4) 0.3904(4)
H6 H 0.5577 0.6526 0.4330
H7 H 0.5847 0.6572 0.3551
H8 H 0.4908 0.7253 0.3907
C8 C 0.3833(6) 0.6156(4) 0.3791(3)
H9 H 0.3167 0.6248 0.4153
C9 C 0.3083(6) 0.6307(4) 0.3130(3)
H10 H 0.2209 0.5988 0.3116
H11 H 0.2816 0.6883 0.3127
C10 C 0.3479(7) 0.4989(4) 0.2084(3)
H12 H 0.3892 0.4847 0.1656
H13 H 0.2451 0.5002 0.2029
C11 C 0.3841(6) 0.4301(4) 0.2572(3)
H14 H 0.4793 0.4389 0.2749
C12 C 0.3759(9) 0.3456(5) 0.2252(4)
H15 H 0.3996 0.3034 0.2575
H16 H 0.2797 0.3366 0.2088
H17 H 0.4427 0.3432 0.1883
loop_
_geom_bond_atom_site_label_1
_geom_bond_atom_site_label_2
_geom_bond_site_symmetry_1
_geom_bond_site_symmetry_2
Se1 P1 1_555 1_555
Se2 C9 1_555 1_555
P1 C1 1_555 1_555
C1 C2 1_555 1_555
C2 H1 1_555 1_555
C3 C2 1_555 1_555
H2 C3 1_555 1_555
C4 C3 1_555 1_555
H3 C4 1_555 1_555
C5 C4 1_555 1_555
H4 C5 1_555 1_555
C6 C1 1_555 1_555
H5 C6 1_555 1_555
O1 P1 1_555 1_555
O2 P1 1_555 1_555
C7 H6 1_555 1_555
H7 C7 1_555 1_555
H8 C7 1_555 1_555
C8 O1 1_555 1_555
H9 C8 1_555 1_555
C9 C8 1_555 1_555
H10 C9 1_555 1_555
H11 C9 1_555 1_555
C10 Se2 1_555 1_555
H12 C10 1_555 1_555
H13 C10 1_555 1_555
C11 O2 1_555 1_555
H14 C11 1_555 1_555
C12 C11 1_555 1_555
H15 C12 1_555 1_555
H16 C12 1_555 1_555
H17 C12 1_555 1_555
C5 C6 1_555 1_555
C7 C8 1_555 1_555
C10 C11 1_555 1_555

#END
