
#######################################################################
#
#                 Cambridge Crystallographic Data Centre
#                                CCDC 
#
#######################################################################
#
# If this CIF has been generated from an entry in the Cambridge 
# Structural Database, then it will include bibliographic, chemical, 
# crystal, experimental, refinement or atomic coordinate data resulting 
# from the CCDC's data processing and validation procedures.
#
#######################################################################

data_ACIRUB01
_chemical_formula_moiety         'C18 H20 I2 N4'
_chemical_name_systematic        
1,1'-(1,4-phenylenebis(methylene))bis(4-iodo-3,5-dimethyl-1H-pyrazole)
_symmetry_cell_setting           monoclinic
_symmetry_space_group_name_H-M   'P 21/c'
_symmetry_Int_Tables_number      14
_space_group_name_Hall           '-P 2ybc'
loop_
_symmetry_equiv_pos_site_id
_symmetry_equiv_pos_as_xyz
1 x,y,z
2 -x,1/2+y,1/2-z
3 -x,-y,-z
4 x,1/2-y,1/2+z
_cell_length_a                   7.5347(11)
_cell_length_b                   14.945(2)
_cell_length_c                   8.7180(12)
_cell_angle_alpha                90
_cell_angle_beta                 95.782(2)
_cell_angle_gamma                90
_cell_volume                     976.705
_exptl_crystal_colour            white
_exptl_crystal_description       block
_cell_formula_units_Z            2
loop_
_atom_site_label
_atom_site_type_symbol
_atom_site_fract_x
_atom_site_fract_y
_atom_site_fract_z
C1 C 1.0427(8) 0.1370(4) 0.5930(6)
H1 H 0.9471 0.1309 0.5122
H2 H 1.1228 0.0872 0.5900
H3 H 1.1061 0.1917 0.5789
C2 C 0.9679(6) 0.1391(3) 0.7462(5)
C3 C 1.0500(6) 0.1288(2) 0.8925(5)
C4 C 0.9156(7) 0.1326(3) 0.9928(5)
C5 C 0.9280(8) 0.1218(3) 1.1636(6)
H4 H 0.8107 0.1246 1.1972
H5 H 1.0002 0.1689 1.2117
H6 H 0.9811 0.0650 1.1917
C6 C 0.6476(6) 0.1644(3) 0.6428(5)
H7 H 0.6879 0.2030 0.5640
H8 H 0.5512 0.1949 0.6872
C7 C 0.5753(6) 0.0780(3) 0.5672(4)
C8 C 0.5927(7) -0.0028(3) 0.6440(5)
H9 H 0.6558 -0.0056 0.7412
C9 C 0.4827(7) 0.0798(3) 0.4225(5)
H10 H 0.4707 0.1336 0.3687
N1 N 0.7932(5) 0.1512(2) 0.7620(4)
N2 N 0.7577(5) 0.1467(3) 0.9119(4)
I1 I 1.32359(4) 0.12132(2) 0.94804(4)
C1B C -0.0427(8) -0.1370(4) 0.4070(6)
H1B H 0.0529 -0.1309 0.4878
H2B H -0.1228 -0.0872 0.4100
H3B H -0.1061 -0.1917 0.4211
C2B C 0.0321(6) -0.1391(3) 0.2538(5)
C3B C -0.0500(6) -0.1288(2) 0.1075(5)
C4B C 0.0844(7) -0.1326(3) 0.0072(5)
C5B C 0.0720(8) -0.1218(3) -0.1636(6)
H4B H 0.1893 -0.1246 -0.1972
H5B H -0.0002 -0.1689 -0.2117
H6B H 0.0189 -0.0650 -0.1917
C6B C 0.3524(6) -0.1644(3) 0.3572(5)
H7B H 0.3121 -0.2030 0.4360
H8B H 0.4488 -0.1949 0.3128
C7B C 0.4247(6) -0.0780(3) 0.4328(4)
C8B C 0.4073(7) 0.0028(3) 0.3560(5)
H9B H 0.3442 0.0056 0.2588
C9B C 0.5173(7) -0.0798(3) 0.5775(5)
H10B H 0.5293 -0.1336 0.6313
N1B N 0.2068(5) -0.1512(2) 0.2380(4)
N2B N 0.2423(5) -0.1467(3) 0.0881(4)
I1B I -0.32359(4) -0.12132(2) 0.05196(4)
loop_
_geom_bond_atom_site_label_1
_geom_bond_atom_site_label_2
_geom_bond_site_symmetry_1
_geom_bond_site_symmetry_2
C1 H1 1_555 1_555
H2 C1 1_555 1_555
H3 C1 1_555 1_555
C2 C1 1_555 1_555
C3 C2 1_555 1_555
C4 C3 1_555 1_555
C5 C4 1_555 1_555
H4 C5 1_555 1_555
H5 C5 1_555 1_555
H6 C5 1_555 1_555
C6 H7 1_555 1_555
H8 C6 1_555 1_555
C7 C6 1_555 1_555
C8 C7 1_555 1_555
H9 C8 1_555 1_555
C9 C7 1_555 1_555
H10 C9 1_555 1_555
N1 C2 1_555 1_555
N2 C4 1_555 1_555
I1 C3 1_555 1_555
C1B H1B 1_555 1_555
H2B C1B 1_555 1_555
H3B C1B 1_555 1_555
C2B C1B 1_555 1_555
C3B C2B 1_555 1_555
C4B C3B 1_555 1_555
C5B C4B 1_555 1_555
H4B C5B 1_555 1_555
H5B C5B 1_555 1_555
H6B C5B 1_555 1_555
C6B H7B 1_555 1_555
H8B C6B 1_555 1_555
C7B C6B 1_555 1_555
C8B C9 1_555 1_555
H9B C8B 1_555 1_555
C9B C8 1_555 1_555
H10B C9B 1_555 1_555
N1B C2B 1_555 1_555
N2B C4B 1_555 1_555
I1B C3B 1_555 1_555
C6 N1 1_555 1_555
N1 N2 1_555 1_555
C6B N1B 1_555 1_555
C7B C8B 1_555 1_555
C7B C9B 1_555 1_555
N1B N2B 1_555 1_555

#END
