
#######################################################################
#
#                 Cambridge Crystallographic Data Centre
#                                CCDC 
#
#######################################################################
#
# If this CIF has been generated from an entry in the Cambridge 
# Structural Database, then it will include bibliographic, chemical, 
# crystal, experimental, refinement or atomic coordinate data resulting 
# from the CCDC's data processing and validation procedures.
#
#######################################################################

data_ACISAI
_chemical_name_common            
1,4-bis((4-Nitro-1H-pyrazol-1-yl)methyl)benzene
_chemical_formula_moiety         'C14 H12 N6 O4'
_chemical_name_systematic        
1,1'-(1,4-Phenylenebis(methylene))bis(4-nitro-1H-pyrazole)
_symmetry_cell_setting           monoclinic
_symmetry_space_group_name_H-M   'P 21/c'
_symmetry_Int_Tables_number      14
_space_group_name_Hall           '-P 2ybc'
loop_
_symmetry_equiv_pos_site_id
_symmetry_equiv_pos_as_xyz
1 x,y,z
2 -x,1/2+y,1/2-z
3 -x,-y,-z
4 x,1/2-y,1/2+z
_cell_length_a                   11.151(2)
_cell_length_b                   4.5954(9)
_cell_length_c                   14.707(3)
_cell_angle_alpha                90
_cell_angle_beta                 106.20(3)
_cell_angle_gamma                90
_cell_volume                     723.711
_cell_formula_units_Z            2
loop_
_atom_site_label
_atom_site_type_symbol
_atom_site_fract_x
_atom_site_fract_y
_atom_site_fract_z
C1 C 1.0583(2) 0.0513(5) 0.09390(16)
H1 H 1.0984 0.0852 0.1575
C2 C 0.9467(2) 0.1893(5) 0.05189(16)
C3 C 0.8886(2) 0.1368(5) -0.04268(16)
H2 H 0.8134 0.2284 -0.0721
C4 C 0.8895(2) 0.3917(5) 0.10897(18)
H3 H 0.9529 0.4502 0.1658
H4 H 0.8595 0.5654 0.0721
C5 C 0.6997(2) -0.0361(6) 0.21097(17)
H5 H 0.6865 -0.1750 0.2531
C6 C 0.6058(2) 0.1082(5) 0.14487(15)
C7 C 0.6644(2) 0.2939(5) 0.09792(16)
H6 H 0.6267 0.4218 0.0494
N1 N 0.78538(17) 0.2538(4) 0.13572(13)
N2 N 0.81071(19) 0.0501(5) 0.20603(14)
N3 N 0.47510(19) 0.0782(5) 0.12930(15)
O1 O 0.43663(17) -0.1030(5) 0.17508(14)
O2 O 0.40517(18) 0.2365(5) 0.07121(15)
C1B C 0.9417(2) -0.0513(5) -0.09390(16)
H1B H 0.9016 -0.0852 -0.1575
C2B C 1.0533(2) -0.1893(5) -0.05189(16)
C3B C 1.1114(2) -0.1368(5) 0.04268(16)
H2B H 1.1866 -0.2284 0.0721
C4B C 1.1105(2) -0.3917(5) -0.10897(18)
H3B H 1.0471 -0.4502 -0.1658
H4B H 1.1405 -0.5654 -0.0721
C5B C 1.3003(2) 0.0361(6) -0.21097(17)
H5B H 1.3135 0.1750 -0.2531
C6B C 1.3942(2) -0.1082(5) -0.14487(15)
C7B C 1.3356(2) -0.2939(5) -0.09792(16)
H6B H 1.3733 -0.4218 -0.0494
N1B N 1.21462(17) -0.2538(4) -0.13572(13)
N2B N 1.18929(19) -0.0501(5) -0.20603(14)
N3B N 1.52490(19) -0.0782(5) -0.12930(15)
O1B O 1.56337(17) 0.1030(5) -0.17508(14)
O2B O 1.59483(18) -0.2365(5) -0.07121(15)
loop_
_geom_bond_atom_site_label_1
_geom_bond_atom_site_label_2
_geom_bond_site_symmetry_1
_geom_bond_site_symmetry_2
C1 H1 1_555 1_555
C2 C1 1_555 1_555
C3 C2 1_555 1_555
H2 C3 1_555 1_555
C4 C2 1_555 1_555
H3 C4 1_555 1_555
H4 C4 1_555 1_555
C5 H5 1_555 1_555
C6 C5 1_555 1_555
C7 C6 1_555 1_555
H6 C7 1_555 1_555
N1 C4 1_555 1_555
N2 C5 1_555 1_555
N3 C6 1_555 1_555
O1 N3 1_555 1_555
O2 N3 1_555 1_555
C1B C3 1_555 1_555
H1B C1B 1_555 1_555
C2B C1B 1_555 1_555
C3B C1 1_555 1_555
H2B C3B 1_555 1_555
C4B C2B 1_555 1_555
H3B C4B 1_555 1_555
H4B C4B 1_555 1_555
C5B H5B 1_555 1_555
C6B C5B 1_555 1_555
C7B C6B 1_555 1_555
H6B C7B 1_555 1_555
N1B C4B 1_555 1_555
N2B C5B 1_555 1_555
N3B C6B 1_555 1_555
O1B N3B 1_555 1_555
O2B N3B 1_555 1_555
C7 N1 1_555 1_555
N1 N2 1_555 1_555
C2B C3B 1_555 1_555
C7B N1B 1_555 1_555
N1B N2B 1_555 1_555

#END
