
#######################################################################
#
#                 Cambridge Crystallographic Data Centre
#                                CCDC 
#
#######################################################################
#
# If this CIF has been generated from an entry in the Cambridge 
# Structural Database, then it will include bibliographic, chemical, 
# crystal, experimental, refinement or atomic coordinate data resulting 
# from the CCDC's data processing and validation procedures.
#
#######################################################################

data_ACITOX
_chemical_formula_moiety         'C20 H18 N2 O1'
_chemical_name_systematic        
1-(5-Methyl-5,10-dihydroindeno[1,2-b]indol-10-yl)pyrrolidin-2-one
_symmetry_cell_setting           triclinic
_symmetry_space_group_name_H-M   'P -1'
_symmetry_Int_Tables_number      2
_space_group_name_Hall           '-P 1'
loop_
_symmetry_equiv_pos_site_id
_symmetry_equiv_pos_as_xyz
1 x,y,z
2 -x,-y,-z
_cell_length_a                   10.250(2)
_cell_length_b                   11.3649(19)
_cell_length_c                   14.355(3)
_cell_angle_alpha                93.549(15)
_cell_angle_beta                 106.698(18)
_cell_angle_gamma                92.775(15)
_cell_volume                     1594.79
_exptl_crystal_colour            colorless
_chemical_melting_point          '137.4-138.7 deg.C'
_cell_formula_units_Z            4
loop_
_atom_site_label
_atom_site_type_symbol
_atom_site_fract_x
_atom_site_fract_y
_atom_site_fract_z
O1 O 0.1893(3) 0.6917(2) 0.39452(18)
N1 N 0.5185(3) 0.2659(2) 0.39999(18)
N2 N 0.1487(3) 0.4983(2) 0.33337(17)
C1 C 0.5731(3) 0.3615(3) 0.3649(2)
C2 C 0.6936(4) 0.3727(4) 0.3397(3)
H1 H 0.7507 0.3109 0.3440
C3 C 0.7247(4) 0.4783(5) 0.3082(3)
H2 H 0.8055 0.4879 0.2914
C4 C 0.6409(4) 0.5731(4) 0.3000(3)
H3 H 0.6657 0.6432 0.2774
C5 C 0.5217(4) 0.5619(3) 0.3255(2)
H4 H 0.4656 0.6246 0.3206
C6 C 0.4855(3) 0.4550(3) 0.3589(2)
C7 C 0.3744(3) 0.4120(3) 0.3909(2)
C8 C 0.2489(3) 0.4511(3) 0.4135(2)
H5 H 0.2764 0.5115 0.4684
C9 C 0.1997(3) 0.3376(3) 0.4492(2)
C10 C 0.0866(4) 0.3174(3) 0.4807(2)
H6 H 0.0245 0.3750 0.4778
C11 C 0.0663(4) 0.2094(4) 0.5170(3)
H7 H -0.0103 0.1951 0.5380
C12 C 0.1570(5) 0.1242(4) 0.5223(3)
H8 H 0.1426 0.0536 0.5485
C13 C 0.2704(4) 0.1414(3) 0.4891(2)
H9 H 0.3309 0.0825 0.4914
C14 C 0.2918(3) 0.2486(3) 0.4523(2)
C15 C 0.3981(3) 0.2994(3) 0.4148(2)
C16 C 0.5814(4) 0.1547(3) 0.4210(3)
H10 H 0.6470 0.1633 0.4845
H11 H 0.6264 0.1336 0.3729
H12 H 0.5124 0.0939 0.4196
C17 C 0.0800(4) 0.4279(4) 0.2436(3)
H13 H 0.0113 0.3720 0.2531
H14 H 0.1446 0.3848 0.2193
C18 C 0.0148(4) 0.5179(4) 0.1737(3)
H15 H 0.0547 0.5189 0.1201
H16 H -0.0826 0.4981 0.1472
C19 C 0.0409(4) 0.6362(4) 0.2307(3)
H17 H 0.0835 0.6931 0.1989
H18 H -0.0439 0.6655 0.2368
C20 C 0.1345(3) 0.6158(3) 0.3290(2)
O2 O 0.2316(3) 0.1985(3) -0.12075(17)
N3 N 0.0160(3) 0.0478(3) 0.2063(2)
N4 N 0.3025(3) 0.2060(2) 0.04560(18)
C21 C 0.1279(4) 0.0421(3) 0.1734(2)
C22 C 0.2578(4) -0.0161(3) 0.1991(3)
C23 C 0.3201(5) -0.0893(4) 0.2713(3)
H19 H 0.2762 -0.1135 0.3159
C24 C 0.4484(6) -0.1249(4) 0.2750(4)
H20 H 0.4909 -0.1736 0.3227
C25 C 0.5140(5) -0.0898(4) 0.2096(4)
H21 H 0.6005 -0.1146 0.2138
C26 C 0.4529(4) -0.0174(3) 0.1371(3)
H22 H 0.4973 0.0062 0.0926
C27 C 0.3248(4) 0.0184(3) 0.1328(2)
C28 C 0.2352(3) 0.0942(3) 0.0570(2)
H23 H 0.2053 0.0481 -0.0064
C29 C 0.1159(3) 0.1059(3) 0.0952(2)
C30 C -0.0121(3) 0.1591(3) 0.0752(2)
C31 C -0.0840(4) 0.2321(3) 0.0063(3)
H24 H -0.0480 0.2582 -0.0419
C32 C -0.2101(5) 0.2647(4) 0.0115(4)
H25 H -0.2593 0.3138 -0.0333
C33 C -0.2633(5) 0.2249(5) 0.0825(5)
H26 H -0.3486 0.2480 0.0838
C34 C -0.1977(5) 0.1538(5) 0.1504(4)
H27 H -0.2361 0.1282 0.1977
C35 C -0.0722(4) 0.1211(3) 0.1466(3)
C36 C -0.0113(5) -0.0172(4) 0.2848(3)
H28 H -0.0872 -0.0742 0.2578
H29 H -0.0326 0.0371 0.3314
H30 H 0.0680 -0.0571 0.3166
C37 C 0.3732(4) 0.2864(3) 0.1287(2)
H31 H 0.4592 0.2568 0.1642
H32 H 0.3178 0.2979 0.1727
C38 C 0.3968(5) 0.4004(4) 0.0850(3)
H33 H 0.3368 0.4589 0.0975
H34 H 0.4906 0.4321 0.1123
C39 C 0.3659(4) 0.3685(3) -0.0226(3)
H35 H 0.3102 0.4261 -0.0595
H36 H 0.4496 0.3657 -0.0411
C40 C 0.2904(3) 0.2496(3) -0.0415(3)
loop_
_geom_bond_atom_site_label_1
_geom_bond_atom_site_label_2
_geom_bond_site_symmetry_1
_geom_bond_site_symmetry_2
O1 C20 1_555 1_555
O2 C40 1_555 1_555
N1 C1 1_555 1_555
N2 C8 1_555 1_555
N3 C21 1_555 1_555
N4 C28 1_555 1_555
C1 C2 1_555 1_555
C2 H1 1_555 1_555
C3 C2 1_555 1_555
H2 C3 1_555 1_555
C4 C3 1_555 1_555
H3 C4 1_555 1_555
C5 C4 1_555 1_555
H4 C5 1_555 1_555
C6 C1 1_555 1_555
C7 C6 1_555 1_555
C8 C7 1_555 1_555
H5 C8 1_555 1_555
C9 C8 1_555 1_555
C10 C9 1_555 1_555
H6 C10 1_555 1_555
C11 C10 1_555 1_555
H7 C11 1_555 1_555
C12 C11 1_555 1_555
H8 C12 1_555 1_555
C13 C12 1_555 1_555
H9 C13 1_555 1_555
C14 C9 1_555 1_555
C15 N1 1_555 1_555
C16 N1 1_555 1_555
H10 C16 1_555 1_555
H11 C16 1_555 1_555
H12 C16 1_555 1_555
C17 N2 1_555 1_555
H13 C17 1_555 1_555
H14 C17 1_555 1_555
C18 C17 1_555 1_555
H15 C18 1_555 1_555
H16 C18 1_555 1_555
C19 C18 1_555 1_555
H17 C19 1_555 1_555
H18 C19 1_555 1_555
C20 N2 1_555 1_555
C21 C22 1_555 1_555
C22 C23 1_555 1_555
C23 H19 1_555 1_555
C24 C23 1_555 1_555
H20 C24 1_555 1_555
C25 C24 1_555 1_555
H21 C25 1_555 1_555
C26 C25 1_555 1_555
H22 C26 1_555 1_555
C27 C22 1_555 1_555
C28 C27 1_555 1_555
H23 C28 1_555 1_555
C29 C21 1_555 1_555
C30 C29 1_555 1_555
C31 C30 1_555 1_555
H24 C31 1_555 1_555
C32 C31 1_555 1_555
H25 C32 1_555 1_555
C33 C32 1_555 1_555
H26 C33 1_555 1_555
C34 C33 1_555 1_555
H27 C34 1_555 1_555
C35 N3 1_555 1_555
C36 N3 1_555 1_555
H28 C36 1_555 1_555
H29 C36 1_555 1_555
H30 C36 1_555 1_555
C37 N4 1_555 1_555
H31 C37 1_555 1_555
H32 C37 1_555 1_555
C38 C37 1_555 1_555
H33 C38 1_555 1_555
H34 C38 1_555 1_555
C39 C38 1_555 1_555
H35 C39 1_555 1_555
H36 C39 1_555 1_555
C40 N4 1_555 1_555
C5 C6 1_555 1_555
C7 C15 1_555 1_555
C13 C14 1_555 1_555
C14 C15 1_555 1_555
C19 C20 1_555 1_555
C26 C27 1_555 1_555
C28 C29 1_555 1_555
C30 C35 1_555 1_555
C34 C35 1_555 1_555
C39 C40 1_555 1_555

#END
