
#######################################################################
#
#                 Cambridge Crystallographic Data Centre
#                                CCDC 
#
#######################################################################
#
# If this CIF has been generated from an entry in the Cambridge 
# Structural Database, then it will include bibliographic, chemical, 
# crystal, experimental, refinement or atomic coordinate data resulting 
# from the CCDC's data processing and validation procedures.
#
#######################################################################

data_ACITUE
_chemical_formula_moiety         'C60 H58 B1 F2 N3,2(H2 O1)'
_chemical_name_systematic        
"7,13-di-t-butyl-9,11-bis(4-t-butylphenyl)-21,21-difluoro-21H-22\l^5^,21\l^5^-dibenzo[e,g]dibenzo[4',5':6',7']indolo[1',2':3,4][1,3,5,2]triazaborinino[1,6-a]indole dihydrate"
_symmetry_cell_setting           monoclinic
_symmetry_space_group_name_H-M   'C 2/c'
_symmetry_Int_Tables_number      15
_space_group_name_Hall           '-C 2yn'
loop_
_symmetry_equiv_pos_site_id
_symmetry_equiv_pos_as_xyz
1 x,y,z
2 -x,y,1/2-z
3 1/2+x,1/2+y,z
4 1/2-x,1/2+y,1/2-z
5 -x,-y,-z
6 x,-y,1/2+z
7 1/2-x,1/2-y,-z
8 1/2+x,1/2-y,1/2+z
_cell_length_a                   19.342(2)
_cell_length_b                   23.909(3)
_cell_length_c                   12.0627(14)
_cell_angle_alpha                90
_cell_angle_beta                 109.283(2)
_cell_angle_gamma                90
_cell_volume                     5265.42
_exptl_crystal_colour            green
_exptl_crystal_description       block
_cell_formula_units_Z            4
_exptl_crystal_recrystallization_method 'dichloromethane, methanol'
_exptl_crystal_preparation       Luminescent
loop_
_atom_site_label
_atom_site_type_symbol
_atom_site_fract_x
_atom_site_fract_y
_atom_site_fract_z
B1 B 0.0000 0.2793(2) 0.2500
C1 C 0.1094(2) 0.30586(15) 0.4451(3)
C2 C 0.14229(19) 0.35718(15) 0.4983(3)
C3 C 0.10322(18) 0.40097(14) 0.4291(3)
C4 C 0.04871(18) 0.37544(14) 0.3352(3)
C5 C 0.1377(2) 0.25300(15) 0.4984(4)
C6 C 0.1047(3) 0.20010(17) 0.4515(4)
H1 H 0.0628 0.1993 0.3856
C7 C 0.1349(3) 0.15188(18) 0.5035(5)
H2 H 0.1121 0.1180 0.4754
C8 C 0.1991(3) 0.1521(2) 0.5980(5)
H3 H 0.2209 0.1185 0.6300
C9 C 0.2306(3) 0.2016(2) 0.6444(4)
H4 H 0.2737 0.2011 0.7084
C10 C 0.2002(2) 0.25306(16) 0.5986(3)
C11 C 0.2356(2) 0.30522(17) 0.6492(3)
C12 C 0.2998(3) 0.3061(2) 0.7478(4)
H5 H 0.3198 0.2724 0.7818
C13 C 0.3339(3) 0.3551(2) 0.7954(4)
H6 H 0.3761 0.3537 0.8608
C14 C 0.3063(2) 0.40704(19) 0.7473(3)
C15 C 0.2435(2) 0.40671(17) 0.6507(3)
H7 H 0.2242 0.4407 0.6171
C16 C 0.20788(19) 0.35767(16) 0.6015(3)
C17 C 0.3482(2) 0.4597(2) 0.7991(4)
C18 C 0.3492(5) 0.4668(3) 0.9258(5)
H8 H 0.3002 0.4642 0.9280
H9 H 0.3694 0.5027 0.9548
H10 H 0.3788 0.4379 0.9740
C19 C 0.4268(3) 0.4579(3) 0.7948(9)
H11 H 0.4517 0.4256 0.8367
H12 H 0.4525 0.4911 0.8304
H13 H 0.4252 0.4558 0.7145
C20 C 0.3104(4) 0.5136(2) 0.7273(5)
H14 H 0.3055 0.5089 0.6460
H15 H 0.3401 0.5459 0.7580
H16 H 0.2628 0.5187 0.7346
C21 C 0.11112(18) 0.46189(15) 0.4389(3)
C22 C 0.0945(2) 0.49234(17) 0.5250(4)
H17 H 0.0798 0.4735 0.5809
C23 C 0.0995(2) 0.55026(17) 0.5294(4)
H18 H 0.0875 0.5695 0.5875
C24 C 0.1218(2) 0.57978(15) 0.4497(3)
C25 C 0.1366(3) 0.55003(18) 0.3645(4)
H19 H 0.1501 0.5690 0.3076
C26 C 0.1322(3) 0.49235(17) 0.3598(4)
H20 H 0.1440 0.4737 0.3009
C27 C 0.1313(3) 0.64342(17) 0.4582(4)
C28 C 0.0847(6) 0.6698(2) 0.5183(10)
H21 H 0.0913 0.7096 0.5197
H22 H 0.0982 0.6560 0.5974
H23 H 0.0343 0.6609 0.4772
C29 C 0.2154(5) 0.6546(3) 0.5309(8)
H24 H 0.2285 0.6347 0.6040
H25 H 0.2230 0.6940 0.5462
H26 H 0.2454 0.6420 0.4863
C30 C 0.1238(5) 0.6706(2) 0.3426(6)
H27 H 0.1637 0.6593 0.3172
H28 H 0.1244 0.7105 0.3515
H29 H 0.0783 0.6594 0.2852
F1 F 0.04107(12) 0.24618(8) 0.2010(2)
N1 N 0.05250(15) 0.31740(11) 0.3456(3)
N2 N 0.0000 0.40271(16) 0.2500
C1A C -0.1094(2) 0.30586(15) 0.0549(3)
C2A C -0.14229(19) 0.35718(15) 0.0017(3)
C3A C -0.10322(18) 0.40097(14) 0.0709(3)
C4A C -0.04871(18) 0.37544(14) 0.1648(3)
C5A C -0.1377(2) 0.25300(15) 0.0016(4)
C6A C -0.1047(3) 0.20010(17) 0.0485(4)
H1A H -0.0628 0.1993 0.1144
C7A C -0.1349(3) 0.15188(18) -0.0035(5)
H2A H -0.1121 0.1180 0.0246
C8A C -0.1991(3) 0.1521(2) -0.0980(5)
H3A H -0.2209 0.1185 -0.1300
C9A C -0.2306(3) 0.2016(2) -0.1444(4)
H4A H -0.2737 0.2011 -0.2084
C10A C -0.2002(2) 0.25306(16) -0.0986(3)
C11A C -0.2356(2) 0.30522(17) -0.1492(3)
C12A C -0.2998(3) 0.3061(2) -0.2478(4)
H5A H -0.3198 0.2724 -0.2818
C13A C -0.3339(3) 0.3551(2) -0.2954(4)
H6A H -0.3761 0.3537 -0.3608
C14A C -0.3063(2) 0.40704(19) -0.2473(3)
C15A C -0.2435(2) 0.40671(17) -0.1507(3)
H7A H -0.2242 0.4407 -0.1171
C16A C -0.20788(19) 0.35767(16) -0.1015(3)
C17A C -0.3482(2) 0.4597(2) -0.2991(4)
C18A C -0.3492(5) 0.4668(3) -0.4258(5)
H8A H -0.3002 0.4642 -0.4280
H9A H -0.3694 0.5027 -0.4548
H10A H -0.3788 0.4379 -0.4740
C19A C -0.4268(3) 0.4579(3) -0.2948(9)
H11A H -0.4517 0.4256 -0.3367
H12A H -0.4525 0.4911 -0.3304
H13A H -0.4252 0.4558 -0.2145
C20A C -0.3104(4) 0.5136(2) -0.2273(5)
H14A H -0.3055 0.5089 -0.1460
H15A H -0.3401 0.5459 -0.2580
H16A H -0.2628 0.5187 -0.2346
C21A C -0.11112(18) 0.46189(15) 0.0611(3)
C22A C -0.0945(2) 0.49234(17) -0.0250(4)
H17A H -0.0798 0.4735 -0.0809
C23A C -0.0995(2) 0.55026(17) -0.0294(4)
H18A H -0.0875 0.5695 -0.0875
C24A C -0.1218(2) 0.57978(15) 0.0503(3)
C25A C -0.1366(3) 0.55003(18) 0.1355(4)
H19A H -0.1501 0.5690 0.1924
C26A C -0.1322(3) 0.49235(17) 0.1402(4)
H20A H -0.1440 0.4737 0.1991
C27A C -0.1313(3) 0.64342(17) 0.0418(4)
C28A C -0.0847(6) 0.6698(2) -0.0183(10)
H21A H -0.0913 0.7096 -0.0197
H22A H -0.0982 0.6560 -0.0974
H23A H -0.0343 0.6609 0.0228
C29A C -0.2154(5) 0.6546(3) -0.0309(8)
H24A H -0.2285 0.6347 -0.1040
H25A H -0.2230 0.6940 -0.0462
H26A H -0.2454 0.6420 0.0137
C30A C -0.1238(5) 0.6706(2) 0.1574(6)
H27A H -0.1637 0.6593 0.1828
H28A H -0.1244 0.7105 0.1485
H29A H -0.0783 0.6594 0.2148
F1A F -0.04107(12) 0.24618(8) 0.2990(2)
N1A N -0.05250(15) 0.31740(11) 0.1544(3)
O1 O 0.0697(7) 0.8383(3) 0.3484(9)
loop_
_geom_bond_atom_site_label_1
_geom_bond_atom_site_label_2
_geom_bond_site_symmetry_1
_geom_bond_site_symmetry_2
B1 F1 1_555 1_555
C1 C2 1_555 1_555
C2 C3 1_555 1_555
C3 C4 1_555 1_555
C4 N1 1_555 1_555
C5 C1 1_555 1_555
C6 C5 1_555 1_555
H1 C6 1_555 1_555
C7 C6 1_555 1_555
H2 C7 1_555 1_555
C8 C7 1_555 1_555
H3 C8 1_555 1_555
C9 C8 1_555 1_555
H4 C9 1_555 1_555
C10 C5 1_555 1_555
C11 C10 1_555 1_555
C12 C11 1_555 1_555
H5 C12 1_555 1_555
C13 C12 1_555 1_555
H6 C13 1_555 1_555
C14 C13 1_555 1_555
C15 C14 1_555 1_555
H7 C15 1_555 1_555
C16 C2 1_555 1_555
C17 C14 1_555 1_555
C18 C17 1_555 1_555
H8 C18 1_555 1_555
H9 C18 1_555 1_555
H10 C18 1_555 1_555
C19 C17 1_555 1_555
H11 C19 1_555 1_555
H12 C19 1_555 1_555
H13 C19 1_555 1_555
C20 C17 1_555 1_555
H14 C20 1_555 1_555
H15 C20 1_555 1_555
H16 C20 1_555 1_555
C21 C3 1_555 1_555
C22 C21 1_555 1_555
H17 C22 1_555 1_555
C23 C22 1_555 1_555
H18 C23 1_555 1_555
C24 C23 1_555 1_555
C25 C24 1_555 1_555
H19 C25 1_555 1_555
C26 C21 1_555 1_555
H20 C26 1_555 1_555
C27 C24 1_555 1_555
C28 C27 1_555 1_555
H21 C28 1_555 1_555
H22 C28 1_555 1_555
H23 C28 1_555 1_555
C29 C27 1_555 1_555
H24 C29 1_555 1_555
H25 C29 1_555 1_555
H26 C29 1_555 1_555
C30 C27 1_555 1_555
H27 C30 1_555 1_555
H28 C30 1_555 1_555
H29 C30 1_555 1_555
N1 B1 1_555 1_555
N2 C4 1_555 1_555
C1A C2A 1_555 1_555
C2A C3A 1_555 1_555
C3A C4A 1_555 1_555
C4A N2 1_555 1_555
C5A C1A 1_555 1_555
C6A C5A 1_555 1_555
H1A C6A 1_555 1_555
C7A C6A 1_555 1_555
H2A C7A 1_555 1_555
C8A C7A 1_555 1_555
H3A C8A 1_555 1_555
C9A C8A 1_555 1_555
H4A C9A 1_555 1_555
C10A C5A 1_555 1_555
C11A C10A 1_555 1_555
C12A C11A 1_555 1_555
H5A C12A 1_555 1_555
C13A C12A 1_555 1_555
H6A C13A 1_555 1_555
C14A C13A 1_555 1_555
C15A C14A 1_555 1_555
H7A C15A 1_555 1_555
C16A C2A 1_555 1_555
C17A C14A 1_555 1_555
C18A C17A 1_555 1_555
H8A C18A 1_555 1_555
H9A C18A 1_555 1_555
H10A C18A 1_555 1_555
C19A C17A 1_555 1_555
H11A C19A 1_555 1_555
H12A C19A 1_555 1_555
H13A C19A 1_555 1_555
C20A C17A 1_555 1_555
H14A C20A 1_555 1_555
H15A C20A 1_555 1_555
H16A C20A 1_555 1_555
C21A C3A 1_555 1_555
C22A C21A 1_555 1_555
H17A C22A 1_555 1_555
C23A C22A 1_555 1_555
H18A C23A 1_555 1_555
C24A C23A 1_555 1_555
C25A C24A 1_555 1_555
H19A C25A 1_555 1_555
C26A C21A 1_555 1_555
H20A C26A 1_555 1_555
C27A C24A 1_555 1_555
C28A C27A 1_555 1_555
H21A C28A 1_555 1_555
H22A C28A 1_555 1_555
H23A C28A 1_555 1_555
C29A C27A 1_555 1_555
H24A C29A 1_555 1_555
H25A C29A 1_555 1_555
H26A C29A 1_555 1_555
C30A C27A 1_555 1_555
H27A C30A 1_555 1_555
H28A C30A 1_555 1_555
H29A C30A 1_555 1_555
F1A B1 1_555 1_555
N1A B1 1_555 1_555
C1 N1 1_555 1_555
C9 C10 1_555 1_555
C11 C16 1_555 1_555
C15 C16 1_555 1_555
C25 C26 1_555 1_555
C1A N1A 1_555 1_555
C4A N1A 1_555 1_555
C9A C10A 1_555 1_555
C11A C16A 1_555 1_555
C15A C16A 1_555 1_555
C25A C26A 1_555 1_555

#END
