
#######################################################################
#
#                 Cambridge Crystallographic Data Centre
#                                CCDC 
#
#######################################################################
#
# If this CIF has been generated from an entry in the Cambridge 
# Structural Database, then it will include bibliographic, chemical, 
# crystal, experimental, refinement or atomic coordinate data resulting 
# from the CCDC's data processing and validation procedures.
#
#######################################################################

data_ACIVAM
_chemical_formula_moiety         'C54 H46 B1 F2 N3 O2,C1 H2 Cl2'
_chemical_name_systematic        
"9,11-bis(4-t-butylphenyl)-21,21-difluoro-7,13-dimethoxy-21H-22\l^5^,21\l^5^-dibenzo[e,g]dibenzo[4',5':6',7']indolo[1',2':3,4][1,3,5,2]triazaborinino[1,6-a]indole dichloromethane solvate"
_symmetry_cell_setting           triclinic
_symmetry_space_group_name_H-M   'P -1'
_symmetry_Int_Tables_number      2
_space_group_name_Hall           '-P 1'
loop_
_symmetry_equiv_pos_site_id
_symmetry_equiv_pos_as_xyz
1 x,y,z
2 -x,-y,-z
_cell_length_a                   11.273(4)
_cell_length_b                   14.768(5)
_cell_length_c                   15.052(5)
_cell_angle_alpha                100.814(5)
_cell_angle_beta                 111.548(4)
_cell_angle_gamma                93.395(5)
_cell_volume                     2266.7
_exptl_crystal_colour            green
_exptl_crystal_description       block
_cell_formula_units_Z            2
_exptl_crystal_recrystallization_method 'dichloromethane, methanol'
_exptl_crystal_preparation       Luminescent
loop_
_atom_site_label
_atom_site_type_symbol
_atom_site_fract_x
_atom_site_fract_y
_atom_site_fract_z
B1 B 0.7584(6) 0.9574(4) 0.3720(5)
C1 C 0.8765(5) 1.1076(3) 0.5163(4)
C2 C 0.9534(5) 1.1571(4) 0.4767(4)
C3 C 0.9514(6) 1.1283(4) 0.3817(5)
H1 H 0.8936 1.0769 0.3390
C4 C 1.0331(6) 1.1744(5) 0.3504(5)
H2 H 1.0308 1.1542 0.2873
C5 C 1.1187(6) 1.2511(5) 0.4139(5)
H3 H 1.1756 1.2817 0.3939
C6 C 1.1204(6) 1.2822(4) 0.5059(5)
H4 H 1.1782 1.3344 0.5469
C7 C 1.0378(5) 1.2382(4) 0.5408(4)
C8 C 1.0383(5) 1.2758(4) 0.6384(4)
C9 C 1.1167(6) 1.3589(4) 0.6997(5)
H5 H 1.1732 1.3889 0.6789
C10 C 1.1130(7) 1.3970(4) 0.7882(5)
H6 H 1.1671 1.4516 0.8269
C11 C 1.0281(6) 1.3541(4) 0.8204(5)
C12 C 0.9514(6) 1.2713(4) 0.7630(4)
H7 H 0.8948 1.2423 0.7845
C13 C 0.9573(5) 1.2305(3) 0.6735(4)
C14 C 0.8821(5) 1.1412(3) 0.6135(4)
C15 C 0.8071(5) 1.0747(3) 0.6327(4)
C16 C 0.7536(5) 1.0030(3) 0.5453(4)
C17 C 0.6360(5) 0.8633(4) 0.4484(4)
C18 C 0.5510(5) 0.7790(3) 0.4242(4)
C19 C 0.5298(5) 0.7368(3) 0.3275(4)
C20 C 0.4418(5) 0.6547(4) 0.2595(4)
C21 C 0.3502(5) 0.6065(4) 0.2835(5)
H8 H 0.3449 0.6264 0.3442
C22 C 0.2687(6) 0.5301(4) 0.2175(5)
C23 C 0.2725(7) 0.5017(5) 0.1259(5)
H9 H 0.2167 0.4502 0.0814
C24 C 0.3585(6) 0.5495(5) 0.1006(5)
H10 H 0.3594 0.5300 0.0385
C25 C 0.4459(6) 0.6276(4) 0.1659(4)
C26 C 0.5359(6) 0.6798(4) 0.1378(4)
C27 C 0.5455(7) 0.6503(5) 0.0467(5)
H11 H 0.4934 0.5966 0.0039
C28 C 0.6282(7) 0.6972(5) 0.0188(5)
H12 H 0.6329 0.6750 -0.0417
C29 C 0.7057(7) 0.7782(5) 0.0805(5)
H13 H 0.7617 0.8108 0.0612
C30 C 0.6995(6) 0.8104(4) 0.1702(5)
H14 H 0.7528 0.8644 0.2112
C31 C 0.6149(6) 0.7641(4) 0.2021(4)
C32 C 0.6083(5) 0.7923(3) 0.2962(4)
C33 C 0.9594(8) 1.3504(5) 0.9518(5)
H15 H 0.9929 1.2934 0.9628
H16 H 0.8703 1.3366 0.9083
H17 H 0.9674 1.3891 1.0131
C34 C 0.7877(5) 1.0733(3) 0.7239(4)
C35 C 0.6685(6) 1.0760(4) 0.7292(4)
H18 H 0.5964 1.0718 0.6720
C36 C 0.6531(6) 1.0847(5) 0.8177(5)
H19 H 0.5712 1.0867 0.8185
C37 C 0.7581(6) 1.0905(4) 0.9054(4)
C38 C 0.8765(6) 1.0833(4) 0.8990(4)
H20 H 0.9479 1.0840 0.9556
C39 C 0.8919(5) 1.0750(4) 0.8111(4)
H21 H 0.9733 1.0705 0.8099
C40 C 0.7457(6) 1.1093(4) 1.0056(5)
C41 C 0.798(2) 1.0329(15) 1.0596(19)
H22 H 0.7520 0.9733 1.0201
H23 H 0.7873 1.0437 1.1209
H24 H 0.8880 1.0339 1.0716
C42 C 0.6068(11) 1.1151(16) 0.9978(17)
H25 H 0.5770 1.1676 0.9713
H26 H 0.6042 1.1222 1.0617
H27 H 0.5523 1.0591 0.9554
C43 C 0.827(2) 1.2042(10) 1.0657(18)
H28 H 0.9141 1.2033 1.0699
H29 H 0.8266 1.2157 1.1305
H30 H 0.7912 1.2527 1.0342
C44 C 0.5013(5) 0.7459(4) 0.4927(4)
C45 C 0.4241(6) 0.7942(4) 0.5302(5)
H31 H 0.4087 0.8528 0.5180
C46 C 0.3683(6) 0.7572(4) 0.5864(5)
H32 H 0.3163 0.7917 0.6111
C47 C 0.3884(6) 0.6694(4) 0.6068(5)
C48 C 0.4719(6) 0.6238(4) 0.5728(5)
H33 H 0.4919 0.5670 0.5883
C49 C 0.5266(6) 0.6600(4) 0.5164(4)
H34 H 0.5813 0.6267 0.4938
C50 C 0.3142(6) 0.6242(4) 0.6591(5)
C51 C 0.253(3) 0.6937(10) 0.7115(19)
H35 H 0.2038 0.6613 0.7392
H36 H 0.1970 0.7248 0.6654
H37 H 0.3192 0.7388 0.7628
C52 C 0.397(2) 0.5702(16) 0.7293(16)
H38 H 0.4722 0.6110 0.7766
H39 H 0.4230 0.5199 0.6932
H40 H 0.3488 0.5457 0.7624
C53 C 0.2014(17) 0.5560(14) 0.5753(11)
H41 H 0.1560 0.5885 0.5262
H42 H 0.1435 0.5319 0.6014
H43 H 0.2351 0.5055 0.5464
C54 C 0.1740(7) 0.4998(5) 0.3294(6)
H44 H 0.2566 0.4947 0.3767
H45 H 0.1092 0.4567 0.3326
H46 H 0.1547 0.5621 0.3435
F1 F 0.6894(3) 1.0007(2) 0.2981(2)
F2 F 0.8688(3) 0.9314(2) 0.3610(2)
N1 N 0.7962(4) 1.0243(3) 0.4740(3)
N2 N 0.6774(4) 0.9258(3) 0.5333(3)
N3 N 0.6699(4) 0.8705(3) 0.3698(3)
O1 O 1.0302(5) 1.3978(3) 0.9090(3)
O2 O 0.1759(5) 0.4788(3) 0.2340(4)
C61 C 0.3005(9) 0.1663(6) 0.2247(6)
H65 H 0.2484 0.1072 0.2126
H66 H 0.3492 0.1865 0.2948
Cl1 Cl 0.4080(3) 0.1503(2) 0.1652(2)
Cl2 Cl 0.2023(4) 0.2458(3) 0.1864(3)
C55? C 0.837(4) 1.055(3) 1.073(4)
H47? H 0.8182 0.9901 1.0420
H48? H 0.8253 1.0641 1.1340
H49? H 0.9245 1.0776 1.0854
C56? C 0.6070(19) 1.077(3) 0.993(4)
H50? H 0.5496 1.1134 0.9540
H51? H 0.6016 1.0861 1.0558
H52? H 0.5832 1.0127 0.9602
C57? C 0.780(4) 1.2140(12) 1.055(4)
H53? H 0.8662 1.2354 1.0631
H54? H 0.7742 1.2236 1.1182
H55? H 0.7210 1.2482 1.0150
C58? C 0.324(4) 0.6964(18) 0.751(2)
H56? H 0.4122 0.7116 0.7964
H57? H 0.2734 0.6705 0.7824
H58? H 0.2919 0.7516 0.7328
C59? C 0.383(3) 0.543(2) 0.697(3)
H59? H 0.3711 0.4931 0.6421
H60? H 0.3467 0.5214 0.7390
H61? H 0.4731 0.5645 0.7327
C60? C 0.1735(16) 0.588(3) 0.597(3)
H62? H 0.1295 0.6384 0.5750
H63? H 0.1346 0.5611 0.6344
H64? H 0.1672 0.5413 0.5405
loop_
_geom_bond_atom_site_label_1
_geom_bond_atom_site_label_2
_geom_bond_site_symmetry_1
_geom_bond_site_symmetry_2
B1 F1 1_555 1_555
C1 C2 1_555 1_555
C2 C3 1_555 1_555
C3 H1 1_555 1_555
C4 C3 1_555 1_555
H2 C4 1_555 1_555
C5 C4 1_555 1_555
H3 C5 1_555 1_555
C6 C5 1_555 1_555
H4 C6 1_555 1_555
C7 C2 1_555 1_555
C8 C7 1_555 1_555
C9 C8 1_555 1_555
H5 C9 1_555 1_555
C10 C9 1_555 1_555
H6 C10 1_555 1_555
C11 C10 1_555 1_555
C12 C11 1_555 1_555
H7 C12 1_555 1_555
C13 C8 1_555 1_555
C14 C1 1_555 1_555
C15 C14 1_555 1_555
C16 C15 1_555 1_555
C17 C18 1_555 1_555
C18 C19 1_555 1_555
C19 C20 1_555 1_555
C20 C21 1_555 1_555
C21 H8 1_555 1_555
C22 C21 1_555 1_555
C23 C22 1_555 1_555
H9 C23 1_555 1_555
C24 C23 1_555 1_555
H10 C24 1_555 1_555
C25 C20 1_555 1_555
C26 C25 1_555 1_555
C27 C26 1_555 1_555
H11 C27 1_555 1_555
C28 C27 1_555 1_555
H12 C28 1_555 1_555
C29 C28 1_555 1_555
H13 C29 1_555 1_555
C30 C29 1_555 1_555
H14 C30 1_555 1_555
C31 C26 1_555 1_555
C32 C19 1_555 1_555
C33 H15 1_555 1_555
H16 C33 1_555 1_555
H17 C33 1_555 1_555
C34 C15 1_555 1_555
C35 C34 1_555 1_555
H18 C35 1_555 1_555
C36 C35 1_555 1_555
H19 C36 1_555 1_555
C37 C36 1_555 1_555
C38 C37 1_555 1_555
H20 C38 1_555 1_555
C39 C34 1_555 1_555
H21 C39 1_555 1_555
C40 C37 1_555 1_555
C41 C40 1_555 1_555
H22 C41 1_555 1_555
H23 C41 1_555 1_555
H24 C41 1_555 1_555
C42 C40 1_555 1_555
H25 C42 1_555 1_555
H26 C42 1_555 1_555
H27 C42 1_555 1_555
C43 C40 1_555 1_555
H28 C43 1_555 1_555
H29 C43 1_555 1_555
H30 C43 1_555 1_555
C44 C18 1_555 1_555
C45 C44 1_555 1_555
H31 C45 1_555 1_555
C46 C45 1_555 1_555
H32 C46 1_555 1_555
C47 C46 1_555 1_555
C48 C47 1_555 1_555
H33 C48 1_555 1_555
C49 C44 1_555 1_555
H34 C49 1_555 1_555
C50 C47 1_555 1_555
C51 C50 1_555 1_555
H35 C51 1_555 1_555
H36 C51 1_555 1_555
H37 C51 1_555 1_555
C52 C50 1_555 1_555
H38 C52 1_555 1_555
H39 C52 1_555 1_555
H40 C52 1_555 1_555
C53 C50 1_555 1_555
H41 C53 1_555 1_555
H42 C53 1_555 1_555
H43 C53 1_555 1_555
C54 H44 1_555 1_555
H45 C54 1_555 1_555
H46 C54 1_555 1_555
F2 B1 1_555 1_555
N1 B1 1_555 1_555
N2 C16 1_555 1_555
N3 B1 1_555 1_555
O1 C11 1_555 1_555
O2 C22 1_555 1_555
C61 H65 1_555 1_555
H66 C61 1_555 1_555
Cl1 C61 1_555 1_555
Cl2 C61 1_555 1_555
C1 N1 1_555 1_555
C6 C7 1_555 1_555
C12 C13 1_555 1_555
C13 C14 1_555 1_555
C16 N1 1_555 1_555
C17 N2 1_555 1_555
C17 N3 1_555 1_555
C24 C25 1_555 1_555
C30 C31 1_555 1_555
C31 C32 1_555 1_555
C32 N3 1_555 1_555
C33 O1 1_555 1_555
C38 C39 1_555 1_555
C48 C49 1_555 1_555
C54 O2 1_555 1_555

#END
