
#######################################################################
#
#                 Cambridge Crystallographic Data Centre
#                                CCDC 
#
#######################################################################
#
# If this CIF has been generated from an entry in the Cambridge 
# Structural Database, then it will include bibliographic, chemical, 
# crystal, experimental, refinement or atomic coordinate data resulting 
# from the CCDC's data processing and validation procedures.
#
#######################################################################

data_ACIWUG
_chemical_formula_moiety         'C28 H22 N3 O1 1+,C1 F3 O3 S1 1-'
_chemical_name_systematic        
"13-((4-Methoxyphenyl)amino)-6-phenylpyrido[2',1':2,3]imidazo[5,1-a]isoquinolin-12-ium trifluoromethanesulfonate"
_symmetry_cell_setting           triclinic
_symmetry_space_group_name_H-M   'P -1'
_symmetry_Int_Tables_number      2
_space_group_name_Hall           '-P 1'
loop_
_symmetry_equiv_pos_site_id
_symmetry_equiv_pos_as_xyz
1 x,y,z
2 -x,-y,-z
_cell_length_a                   14.7021(10)
_cell_length_b                   15.0924(11)
_cell_length_c                   15.5106(11)
_cell_angle_alpha                98.702(1)
_cell_angle_beta                 114.137(1)
_cell_angle_gamma                113.532(2)
_cell_volume                     2668.29
_exptl_crystal_colour            green
_exptl_crystal_description       prismatic
_chemical_melting_point          '258-259 deg.C'
_cell_formula_units_Z            4
loop_
_atom_site_label
_atom_site_type_symbol
_atom_site_fract_x
_atom_site_fract_y
_atom_site_fract_z
S1 S 0.28814(9) 0.77596(7) 0.15292(8)
F1 F 0.2218(3) 0.6543(2) 0.2424(2)
F2 F 0.1268(3) 0.7315(2) 0.1969(2)
F3 F 0.0951(2) 0.6040(2) 0.0856(2)
O2 O 0.3678(2) 0.85931(18) 0.2510(2)
O3 O 0.2237(3) 0.8020(2) 0.07232(19)
O4 O 0.3299(2) 0.71299(18) 0.1236(2)
C57 C 0.1765(4) 0.6879(4) 0.1689(4)
N1 N 0.6154(4) 0.4619(2) 0.8453(2)
N2 N 0.6287(3) 0.4440(2) 0.9861(2)
N3 N 0.4075(4) 0.3630(3) 0.7267(3)
O1 O 0.2092(3) -0.0308(2) 0.4448(2)
C1 C 0.6520(6) 0.4944(4) 0.7811(4)
H1 H 0.5987 0.4738 0.7126
C2 C 0.7659(6) 0.5564(4) 0.8189(4)
H2 H 0.7917 0.5775 0.7759
C3 C 0.8455(4) 0.5893(3) 0.9217(4)
H3 H 0.9238 0.6344 0.9471
C4 C 0.8109(4) 0.5567(3) 0.9861(3)
H4 H 0.8643 0.5781 1.0548
C5 C 0.6930(4) 0.4902(3) 0.9451(3)
C6 C 0.5020(4) 0.4011(3) 0.8231(3)
C7 C 0.5103(4) 0.3917(3) 0.9111(3)
C8 C 0.4248(4) 0.3440(3) 0.9380(3)
C9 C 0.3053(4) 0.2923(3) 0.8683(3)
H5 H 0.2784 0.2869 0.8010
C10 C 0.2281(4) 0.2499(3) 0.8983(5)
H6 H 0.1490 0.2157 0.8511
C11 C 0.2663(4) 0.2574(3) 0.9984(5)
H7 H 0.2129 0.2281 1.0181
C12 C 0.3817(4) 0.3074(3) 1.0675(4)
H8 H 0.4069 0.3126 1.1346
C13 C 0.4635(4) 0.3514(3) 1.0391(3)
C14 C 0.5858(3) 0.3992(3) 1.1095(3)
H9 H 0.6101 0.4000 1.1754
C15 C 0.6666(3) 0.4425(3) 1.0856(3)
C16 C 0.7899(3) 0.4795(3) 1.1542(3)
C17 C 0.8544(4) 0.5606(3) 1.2472(3)
H10 H 0.8207 0.5948 1.2653
C18 C 0.9684(5) 0.5915(4) 1.3140(4)
H11 H 1.0112 0.6465 1.3765
C19 C 1.0182(4) 0.5409(5) 1.2877(5)
H12 H 1.0951 0.5617 1.3320
C20 C 0.9545(5) 0.4602(4) 1.1965(5)
H13 H 0.9884 0.4255 1.1795
C21 C 0.8412(4) 0.4286(3) 1.1287(3)
H14 H 0.7992 0.3736 1.0664
C22 C 0.3580(3) 0.2636(3) 0.6531(3)
C23 C 0.3975(3) 0.1967(3) 0.6768(3)
H15 H 0.4598 0.2174 0.7413
C24 C 0.3447(3) 0.0995(3) 0.6050(3)
H16 H 0.3719 0.0548 0.6213
C25 C 0.2532(4) 0.0677(3) 0.5107(3)
C26 C 0.2166(4) 0.1357(4) 0.4853(3)
H17 H 0.1562 0.1158 0.4200
C27 C 0.2700(4) 0.2335(3) 0.5572(3)
H18 H 0.2453 0.2795 0.5399
C28 C 0.1040(5) -0.0750(4) 0.3547(4)
H19 H 0.0462 -0.0769 0.3697
H20 H 0.0812 -0.1447 0.3182
H21 H 0.1117 -0.0340 0.3137
H44 H 0.400(3) 0.405(2) 0.701(3)
N4 N 0.5838(2) 0.13925(18) 0.2577(2)
N5 N 0.4735(2) 0.09497(19) 0.3233(2)
N6 N 0.2819(3) 0.0136(3) 0.1752(3)
C29 C 0.4449(4) 0.0832(3) 0.3964(3)
H22 H 0.3678 0.0502 0.3790
C30 C 0.5306(4) 0.1203(3) 0.4936(3)
H23 H 0.5125 0.1136 0.5440
C31 C 0.6462(4) 0.1688(3) 0.5200(3)
H24 H 0.7045 0.1936 0.5877
C32 C 0.6745(3) 0.1801(3) 0.4478(3)
H25 H 0.7517 0.2130 0.4654
C33 C 0.5865(3) 0.1418(2) 0.3475(2)
C34 C 0.4002(3) 0.0657(2) 0.2196(3)
C35 C 0.4686(3) 0.0949(2) 0.1786(2)
C36 C 0.4420(3) 0.0898(2) 0.0770(3)
C37 C 0.3299(4) 0.0456(3) -0.0036(3)
H26 H 0.2675 0.0150 0.0057
C38 C 0.3114(4) 0.0470(3) -0.0970(3)
H27 H 0.2360 0.0171 -0.1514
C39 C 0.4022(5) 0.0917(3) -0.1119(4)
H28 H 0.3878 0.0927 -0.1758
C40 C 0.5127(5) 0.1346(3) -0.0345(4)
H29 H 0.5738 0.1639 -0.0457
C41 C 0.5353(4) 0.1348(3) 0.0627(3)
C42 C 0.6504(3) 0.1783(3) 0.1462(3)
H30 H 0.7111 0.2067 0.1345
C43 C 0.6769(3) 0.1809(2) 0.2409(3)
C44 C 0.7956(3) 0.2212(3) 0.3231(3)
C45 C 0.8306(4) 0.1538(3) 0.3570(3)
H31 H 0.7767 0.0831 0.3316
C46 C 0.9463(5) 0.1921(5) 0.4288(4)
H32 H 0.9710 0.1478 0.4515
C47 C 1.0237(4) 0.2982(6) 0.4654(4)
H33 H 1.1013 0.3251 0.5136
C48 C 0.9894(5) 0.3629(5) 0.4331(4)
H34 H 1.0430 0.4339 0.4598
C49 C 0.8763(4) 0.3258(3) 0.3613(3)
H35 H 0.8539 0.3712 0.3383
C50 C 0.2182(3) 0.0597(3) 0.1807(3)
O8 O -0.0214(7) 0.1359(7) 0.1767(8)
C51 C 0.0958(10) -0.0210(10) 0.1254(15)
H36 H 0.0700 -0.0899 0.0903
C52 C 0.0172(9) 0.0115(9) 0.1279(9)
H37 H -0.0616 -0.0341 0.0994
C53 C 0.0740(11) 0.1224(11) 0.1796(12)
C54 C 0.0086(18) 0.2299(12) 0.2293(14)
H38 H 0.0666 0.2511 0.2990
H39 H -0.0582 0.2293 0.2263
H40 H 0.0393 0.2780 0.2009
C55 C 0.2100(6) 0.2097(5) 0.2440(5)
H41 H 0.2413 0.2797 0.2803
C56 C 0.2726(4) 0.1640(4) 0.2366(3)
H42 H 0.3530 0.2046 0.2701
H43 H 0.245(3) -0.0486(17) 0.140(3)
S2 S 0.6092(4) 0.4286(4) 0.3770(4)
F4 F 0.6521(18) 0.5280(15) 0.5446(13)
F5 F 0.7350(8) 0.4375(8) 0.5549(6)
O5 O 0.5119(7) 0.4374(6) 0.3357(6)
F6 F 0.5711(4) 0.3764(4) 0.5125(3)
O6 O 0.5710(3) 0.3277(2) 0.3256(3)
O7 O 0.6902(3) 0.5147(2) 0.3744(3)
C58 C 0.6348(8) 0.4504(6) 0.4974(6)
C59? C 0.1021(10) 0.0188(9) 0.1352(13)
C60? C 0.0477(8) 0.0738(8) 0.1463(8)
C61? C 0.1123(9) 0.1797(8) 0.2048(8)
C62? C -0.0480(8) 0.1960(10) 0.1699(9)
F7? F 0.7072(18) 0.5441(13) 0.5687(12)
F8? F 0.5189(10) 0.4587(9) 0.4324(11)
H45? H 0.0547 -0.0515 0.0931
H46? H -0.0327 0.0390 0.1141
H47? H 0.2577 0.2808 0.2910
H48? H -0.0822 0.1610 0.0982
H49? H -0.0679 0.2484 0.1802
H50? H -0.0768 0.1463 0.1978
O9? O 0.0661(6) 0.2404(5) 0.2160(7)
O10? O 0.7508(5) 0.4158(5) 0.4521(7)
S3? S 0.6555(4) 0.4241(4) 0.3961(4)
loop_
_geom_bond_atom_site_label_1
_geom_bond_atom_site_label_2
_geom_bond_site_symmetry_1
_geom_bond_site_symmetry_2
S1 O2 1_555 1_555
F1 C57 1_555 1_555
F2 C57 1_555 1_555
F3 C57 1_555 1_555
N1 C1 1_555 1_555
N2 C5 1_555 1_555
N3 C6 1_555 1_555
N4 C33 1_555 1_555
N5 C29 1_555 1_555
N6 C34 1_555 1_555
O1 C25 1_555 1_555
O3 S1 1_555 1_555
O4 S1 1_555 1_555
S2 O5 1_555 1_555
F4 C58 1_555 1_555
F5 C58 1_555 1_555
F6 C58 1_555 1_555
O6 S2 1_555 1_555
O7 S2 1_555 1_555
C1 H1 1_555 1_555
C2 C1 1_555 1_555
H2 C2 1_555 1_555
C3 C2 1_555 1_555
H3 C3 1_555 1_555
C4 C3 1_555 1_555
H4 C4 1_555 1_555
C5 N1 1_555 1_555
C6 N1 1_555 1_555
C7 N2 1_555 1_555
C8 C7 1_555 1_555
C9 C8 1_555 1_555
H5 C9 1_555 1_555
C10 C9 1_555 1_555
H6 C10 1_555 1_555
C11 C10 1_555 1_555
H7 C11 1_555 1_555
C12 C11 1_555 1_555
H8 C12 1_555 1_555
C13 C8 1_555 1_555
C14 C13 1_555 1_555
H9 C14 1_555 1_555
C15 N2 1_555 1_555
C16 C15 1_555 1_555
C17 C16 1_555 1_555
H10 C17 1_555 1_555
C18 C17 1_555 1_555
H11 C18 1_555 1_555
C19 C18 1_555 1_555
H12 C19 1_555 1_555
C20 C19 1_555 1_555
H13 C20 1_555 1_555
C21 C16 1_555 1_555
H14 C21 1_555 1_555
C22 N3 1_555 1_555
C23 C22 1_555 1_555
H15 C23 1_555 1_555
C24 C23 1_555 1_555
H16 C24 1_555 1_555
C25 C24 1_555 1_555
C26 C25 1_555 1_555
H17 C26 1_555 1_555
C27 C22 1_555 1_555
H18 C27 1_555 1_555
C28 O1 1_555 1_555
H19 C28 1_555 1_555
H20 C28 1_555 1_555
H21 C28 1_555 1_555
C29 H22 1_555 1_555
C30 C29 1_555 1_555
H23 C30 1_555 1_555
C31 C30 1_555 1_555
H24 C31 1_555 1_555
C32 C31 1_555 1_555
H25 C32 1_555 1_555
C33 N5 1_555 1_555
C34 N5 1_555 1_555
C35 N4 1_555 1_555
C36 C35 1_555 1_555
C37 C36 1_555 1_555
H26 C37 1_555 1_555
C38 C37 1_555 1_555
H27 C38 1_555 1_555
C39 C38 1_555 1_555
H28 C39 1_555 1_555
C40 C39 1_555 1_555
H29 C40 1_555 1_555
C41 C36 1_555 1_555
C42 C41 1_555 1_555
H30 C42 1_555 1_555
C43 N4 1_555 1_555
C44 C43 1_555 1_555
C45 C44 1_555 1_555
H31 C45 1_555 1_555
C46 C45 1_555 1_555
H32 C46 1_555 1_555
C47 C46 1_555 1_555
H33 C47 1_555 1_555
C48 C47 1_555 1_555
H34 C48 1_555 1_555
C49 C44 1_555 1_555
H35 C49 1_555 1_555
C50 N6 1_555 1_555
O8 C53 1_555 1_555
C51 C50 1_555 1_555
H36 C51 1_555 1_555
C52 C51 1_555 1_555
H37 C52 1_555 1_555
C53 C52 1_555 1_555
C54 O8 1_555 1_555
H38 C54 1_555 1_555
H39 C54 1_555 1_555
H40 C54 1_555 1_555
C55 C53 1_555 1_555
H41 C55 1_555 1_555
C56 C50 1_555 1_555
H42 C56 1_555 1_555
C57 S1 1_555 1_555
C58 S2 1_555 1_555
H43 N6 1_555 1_555
H44 N3 1_555 1_555
C4 C5 1_555 1_555
C6 C7 1_555 1_555
C12 C13 1_555 1_555
C14 C15 1_555 1_555
C20 C21 1_555 1_555
C26 C27 1_555 1_555
C32 C33 1_555 1_555
C34 C35 1_555 1_555
C40 C41 1_555 1_555
C42 C43 1_555 1_555
C48 C49 1_555 1_555
C55 C56 1_555 1_555

#END
