
#######################################################################
#
#                 Cambridge Crystallographic Data Centre
#                                CCDC 
#
#######################################################################
#
# If this CIF has been generated from an entry in the Cambridge 
# Structural Database, then it will include bibliographic, chemical, 
# crystal, experimental, refinement or atomic coordinate data resulting 
# from the CCDC's data processing and validation procedures.
#
#######################################################################

data_ACIWIT
_chemical_formula_moiety         'C16 H36 N1 1+,C16 H14 N4 O2,Cl1 1-'
_chemical_name_systematic        
"Tetra-n-butylammonium N,N'-bis((1H-pyrrol-2-yl)carbonyl)-o-phenylenediamine chloride"
_symmetry_cell_setting           monoclinic
_symmetry_space_group_name_H-M   'P 21/c'
_symmetry_Int_Tables_number      14
_space_group_name_Hall           '-P 2ybc'
loop_
_symmetry_equiv_pos_site_id
_symmetry_equiv_pos_as_xyz
1 x,y,z
2 -x,1/2+y,1/2-z
3 -x,-y,-z
4 x,1/2-y,1/2+z
_cell_length_a                   18.298(5)
_cell_length_b                   9.0305(14)
_cell_length_c                   20.379(5)
_cell_angle_alpha                90
_cell_angle_beta                 101.76(2)
_cell_angle_gamma                90
_cell_volume                     3296.75
_exptl_crystal_colour            colorless
_exptl_crystal_description       block
_cell_formula_units_Z            4
_exptl_crystal_recrystallization_method acetonitrile
loop_
_atom_site_label
_atom_site_type_symbol
_atom_site_fract_x
_atom_site_fract_y
_atom_site_fract_z
N1 N 0.5131(3) 1.0212(6) 0.1084(3)
H1 H 0.5268 1.0406 0.0704
N2 N 0.3401(3) 0.8144(6) 0.0600(2)
H2 H 0.3317 0.7994 0.1004
N3 N 0.1833(3) 0.7965(6) 0.0629(3)
H3 H 0.2095 0.7807 0.1035
N4 N 0.0272(3) 0.9901(7) 0.1095(3)
H4 H -0.0034 1.0074 0.0710
O1 O 0.4133(3) 0.9291(7) -0.0022(2)
O2 O 0.0775(3) 0.8963(6) 0.0002(2)
C1 C 0.5503(4) 1.0657(7) 0.1696(3)
H5 H 0.5957 1.1199 0.1788
C2 C 0.5103(4) 1.0183(7) 0.2161(4)
H6 H 0.5228 1.0365 0.2630
C3 C 0.4478(4) 0.9384(7) 0.1826(3)
H7 H 0.4110 0.8921 0.2023
C4 C 0.4504(4) 0.9404(7) 0.1146(3)
C5 C 0.4007(4) 0.8919(7) 0.0545(3)
C6 C 0.2882(4) 0.7545(7) 0.0048(3)
C7 C 0.3135(5) 0.7016(8) -0.0499(4)
H8 H 0.3654 0.7052 -0.0497
C8 C 0.2652(6) 0.6432(10) -0.1051(5)
H9 H 0.2840 0.6084 -0.1425
C9 C 0.1930(6) 0.6361(11) -0.1058(5)
H10 H 0.1597 0.6016 -0.1448
C10 C 0.1646(6) 0.6796(10) -0.0488(5)
H11 H 0.1134 0.6648 -0.0478
C11 C 0.2129(4) 0.7447(8) 0.0062(4)
C12 C 0.1164(4) 0.8690(8) 0.0561(4)
C13 C 0.0933(4) 0.9168(8) 0.1156(4)
C14 C 0.1241(5) 0.9090(9) 0.1850(4)
H12 H 0.1699 0.8635 0.2055
C15 C 0.0745(5) 0.9804(10) 0.2173(5)
H13 H 0.0807 0.9916 0.2645
C16 C 0.0140(5) 1.0333(9) 0.1699(4)
H14 H -0.0275 1.0880 0.1782
N5 N 0.2520(3) 0.2843(6) 0.0917(3)
C17 C 0.3159(4) 0.3773(9) 0.0763(5)
H15 H 0.2970 0.4400 0.0366
H16 H 0.3346 0.4438 0.1147
C18 C 0.3786(4) 0.2856(9) 0.0631(6)
H17 H 0.3594 0.2145 0.0267
H18 H 0.3999 0.2280 0.1038
C19 C 0.4388(5) 0.3773(10) 0.0436(4)
H19 H 0.4743 0.3121 0.0266
H20 H 0.4166 0.4464 0.0073
C20 C 0.4790(6) 0.4621(11) 0.1018(5)
H21 H 0.5186 0.5209 0.0884
H22 H 0.5012 0.3935 0.1376
H23 H 0.4440 0.5281 0.1179
C21 C 0.2245(5) 0.1779(9) 0.0346(3)
H24 H 0.2656 0.1090 0.0311
H25 H 0.1833 0.1184 0.0458
C22 C 0.1981(6) 0.2475(10) -0.0310(3)
H26 H 0.2362 0.3173 -0.0408
H27 H 0.1517 0.3038 -0.0308
C23 C 0.1834(7) 0.1283(11) -0.0839(4)
H28 H 0.2307 0.0786 -0.0872
H29 H 0.1490 0.0531 -0.0718
C24 C 0.1495(8) 0.1977(15) -0.1491(4)
H30 H 0.1398 0.1215 -0.1840
H31 H 0.1839 0.2718 -0.1607
H32 H 0.1024 0.2457 -0.1455
C25 C 0.2751(5) 0.1877(8) 0.1535(3)
H33 H 0.2305 0.1330 0.1609
H34 H 0.3115 0.1136 0.1442
C26 C 0.3082(5) 0.2658(8) 0.2161(3)
H35 H 0.2758 0.3495 0.2233
H36 H 0.3578 0.3059 0.2130
C27 C 0.3162(5) 0.1586(8) 0.2740(3)
H37 H 0.2664 0.1209 0.2775
H38 H 0.3470 0.0732 0.2656
C28 C 0.3517(6) 0.2309(11) 0.3379(4)
H39 H 0.3555 0.1595 0.3747
H40 H 0.3212 0.3154 0.3463
H41 H 0.4017 0.2654 0.3350
C29 C 0.1916(4) 0.3918(8) 0.0999(4)
H42 H 0.2107 0.4573 0.1385
H43 H 0.1793 0.4547 0.0593
C30 C 0.1224(5) 0.3182(11) 0.1105(7)
H44 H 0.1347 0.2378 0.1440
H45 H 0.0947 0.2751 0.0680
C31 C 0.0752(7) 0.4364(17) 0.1358(7)
H46 H 0.0432 0.3907 0.1640
H47 H 0.1077 0.5109 0.1630
C32 C 0.0289(11) 0.5066(19) 0.0769(10)
H48 H -0.0027 0.5824 0.0914
H49 H -0.0026 0.4316 0.0502
H50 H 0.0611 0.5526 0.0497
Cl1 Cl 0.29450(10) 0.6993(2) 0.19594(9)
loop_
_geom_bond_atom_site_label_1
_geom_bond_atom_site_label_2
_geom_bond_site_symmetry_1
_geom_bond_site_symmetry_2
N1 H1 1_555 1_555
N2 H2 1_555 1_555
N3 H3 1_555 1_555
N4 H4 1_555 1_555
O1 C5 1_555 1_555
O2 C12 1_555 1_555
C1 N1 1_555 1_555
H5 C1 1_555 1_555
C2 C1 1_555 1_555
H6 C2 1_555 1_555
C3 C2 1_555 1_555
H7 C3 1_555 1_555
C4 N1 1_555 1_555
C5 N2 1_555 1_555
C6 N2 1_555 1_555
C7 C6 1_555 1_555
H8 C7 1_555 1_555
C8 C7 1_555 1_555
H9 C8 1_555 1_555
C9 C8 1_555 1_555
H10 C9 1_555 1_555
C10 C9 1_555 1_555
H11 C10 1_555 1_555
C11 N3 1_555 1_555
C12 N3 1_555 1_555
C13 N4 1_555 1_555
C14 C13 1_555 1_555
H12 C14 1_555 1_555
C15 C14 1_555 1_555
H13 C15 1_555 1_555
C16 N4 1_555 1_555
H14 C16 1_555 1_555
N5 C17 1_555 1_555
C17 H15 1_555 1_555
H16 C17 1_555 1_555
C18 C17 1_555 1_555
H17 C18 1_555 1_555
H18 C18 1_555 1_555
C19 C18 1_555 1_555
H19 C19 1_555 1_555
H20 C19 1_555 1_555
C20 C19 1_555 1_555
H21 C20 1_555 1_555
H22 C20 1_555 1_555
H23 C20 1_555 1_555
C21 N5 1_555 1_555
H24 C21 1_555 1_555
H25 C21 1_555 1_555
C22 C21 1_555 1_555
H26 C22 1_555 1_555
H27 C22 1_555 1_555
C23 C22 1_555 1_555
H28 C23 1_555 1_555
H29 C23 1_555 1_555
C24 C23 1_555 1_555
H30 C24 1_555 1_555
H31 C24 1_555 1_555
H32 C24 1_555 1_555
C25 N5 1_555 1_555
H33 C25 1_555 1_555
H34 C25 1_555 1_555
C26 C25 1_555 1_555
H35 C26 1_555 1_555
H36 C26 1_555 1_555
C27 C26 1_555 1_555
H37 C27 1_555 1_555
H38 C27 1_555 1_555
C28 C27 1_555 1_555
H39 C28 1_555 1_555
H40 C28 1_555 1_555
H41 C28 1_555 1_555
C29 N5 1_555 1_555
H42 C29 1_555 1_555
H43 C29 1_555 1_555
C30 C29 1_555 1_555
H44 C30 1_555 1_555
H45 C30 1_555 1_555
C31 C30 1_555 1_555
H46 C31 1_555 1_555
H47 C31 1_555 1_555
C32 C31 1_555 1_555
H48 C32 1_555 1_555
H49 C32 1_555 1_555
H50 C32 1_555 1_555
C3 C4 1_555 1_555
C4 C5 1_555 1_555
C6 C11 1_555 1_555
C10 C11 1_555 1_555
C12 C13 1_555 1_555
C15 C16 1_555 1_555

#END
