
#######################################################################
#
#                 Cambridge Crystallographic Data Centre
#                                CCDC 
#
#######################################################################
#
# If this CIF has been generated from an entry in the Cambridge 
# Structural Database, then it will include bibliographic, chemical, 
# crystal, experimental, refinement or atomic coordinate data resulting 
# from the CCDC's data processing and validation procedures.
#
#######################################################################

data_ACIWOZ
_chemical_formula_moiety         'C20 H18 N4 S2'
_chemical_name_systematic        1,1'-(o-Phenylene)-bis(3-phenylthiourea)
_symmetry_cell_setting           monoclinic
_symmetry_space_group_name_H-M   'P 21/c'
_symmetry_Int_Tables_number      14
_space_group_name_Hall           '-P 2ybc'
loop_
_symmetry_equiv_pos_site_id
_symmetry_equiv_pos_as_xyz
1 x,y,z
2 -x,1/2+y,1/2-z
3 -x,-y,-z
4 x,1/2-y,1/2+z
_cell_length_a                   7.9841(3)
_cell_length_b                   26.3041(11)
_cell_length_c                   8.9855(2)
_cell_angle_alpha                90
_cell_angle_beta                 103.535(2)
_cell_angle_gamma                90
_cell_volume                     1834.68
_exptl_crystal_colour            colorless
_exptl_crystal_description       plate
_cell_formula_units_Z            4
_exptl_crystal_recrystallization_method acetonitrile
loop_
_atom_site_label
_atom_site_type_symbol
_atom_site_fract_x
_atom_site_fract_y
_atom_site_fract_z
C1 C 0.1561(4) 0.59977(11) 0.4983(3)
H1 H 0.0757 0.6237 0.4437
C2 C 0.1384(4) 0.54897(12) 0.4605(3)
H2 H 0.0461 0.5382 0.3793
C3 C 0.2541(4) 0.51325(12) 0.5399(3)
H3 H 0.2418 0.4782 0.5136
C4 C 0.3868(4) 0.52962(11) 0.6576(3)
H4 H 0.4656 0.5054 0.7129
C5 C 0.4080(4) 0.58035(11) 0.6969(3)
H5 H 0.5007 0.5909 0.7779
C6 C 0.2917(3) 0.61609(11) 0.6163(3)
C7 C 0.4133(3) 0.69511(11) 0.7552(3)
C8 C 0.5506(3) 0.77951(10) 0.8161(3)
C9 C 0.4690(3) 0.82664(10) 0.8082(3)
H6 H 0.3584 0.8311 0.7419
C10 C 0.5482(4) 0.86699(11) 0.8964(3)
H7 H 0.4937 0.8993 0.8887
C11 C 0.7071(4) 0.85984(11) 0.9956(3)
H8 H 0.7600 0.8871 1.0585
C12 C 0.7894(3) 0.81363(10) 1.0043(3)
H9 H 0.8975 0.8091 1.0745
C13 C 0.7151(3) 0.77334(10) 0.9106(3)
C14 C 0.9644(3) 0.71966(11) 0.9013(3)
C15 C 0.9489(3) 0.62759(11) 0.9633(3)
C16 C 0.8737(3) 0.62549(11) 1.0884(3)
H10 H 0.8797 0.6540 1.1545
C17 C 0.7900(4) 0.58135(12) 1.1154(3)
H11 H 0.7377 0.5798 1.2001
C18 C 0.7821(4) 0.53951(12) 1.0198(3)
H12 H 0.7223 0.5097 1.0373
C19 C 0.8616(4) 0.54144(12) 0.8990(3)
H13 H 0.8597 0.5124 0.8356
C20 C 0.9438(4) 0.58509(11) 0.8696(3)
H14 H 0.9969 0.5862 0.7855
N1 N 0.3135(3) 0.66908(8) 0.6366(2)
H15 H 0.2539 0.6879 0.5618
N2 N 0.4674(3) 0.74030(8) 0.7151(2)
H16 H 0.4499 0.7464 0.6163
N3 N 0.8021(3) 0.72623(9) 0.9167(2)
H17 H 0.7451 0.6988 0.9319
N4 N 1.0325(3) 0.67264(9) 0.9289(3)
H18 H 1.1412 0.6694 0.9253
S1 S 0.45891(8) 0.67319(3) 0.93695(7)
S2 S 1.08025(9) 0.76575(3) 0.83969(8)
loop_
_geom_bond_atom_site_label_1
_geom_bond_atom_site_label_2
_geom_bond_site_symmetry_1
_geom_bond_site_symmetry_2
C1 H1 1_555 1_555
C2 C1 1_555 1_555
H2 C2 1_555 1_555
C3 C2 1_555 1_555
H3 C3 1_555 1_555
C4 C3 1_555 1_555
H4 C4 1_555 1_555
C5 C4 1_555 1_555
H5 C5 1_555 1_555
C6 C1 1_555 1_555
C7 N1 1_555 1_555
C8 C9 1_555 1_555
C9 H6 1_555 1_555
C10 C9 1_555 1_555
H7 C10 1_555 1_555
C11 C10 1_555 1_555
H8 C11 1_555 1_555
C12 C11 1_555 1_555
H9 C12 1_555 1_555
C13 C8 1_555 1_555
C14 N3 1_555 1_555
C15 C16 1_555 1_555
C16 H10 1_555 1_555
C17 C16 1_555 1_555
H11 C17 1_555 1_555
C18 C17 1_555 1_555
H12 C18 1_555 1_555
C19 C18 1_555 1_555
H13 C19 1_555 1_555
C20 C15 1_555 1_555
H14 C20 1_555 1_555
N1 C6 1_555 1_555
H15 N1 1_555 1_555
N2 C7 1_555 1_555
H16 N2 1_555 1_555
N3 C13 1_555 1_555
H17 N3 1_555 1_555
N4 C14 1_555 1_555
H18 N4 1_555 1_555
S1 C7 1_555 1_555
S2 C14 1_555 1_555
C5 C6 1_555 1_555
C8 N2 1_555 1_555
C12 C13 1_555 1_555
C15 N4 1_555 1_555
C19 C20 1_555 1_555

#END
