
#######################################################################
#
#                 Cambridge Crystallographic Data Centre
#                                CCDC 
#
#######################################################################
#
# If this CIF has been generated from an entry in the Cambridge 
# Structural Database, then it will include bibliographic, chemical, 
# crystal, experimental, refinement or atomic coordinate data resulting 
# from the CCDC's data processing and validation procedures.
#
#######################################################################

data_ACIYIW
_chemical_formula_moiety         'C23 H24 N2 O1'
_chemical_name_systematic        
(S)-(aS)-1-(2-Methoxy-1-naphthyl)-3-methyl-5,7,8,9,9a,10-hexahydropyrrolo[1,2-b][2,6]naphthyridine
_symmetry_cell_setting           monoclinic
_symmetry_space_group_name_H-M   'P 21'
_symmetry_Int_Tables_number      4
_space_group_name_Hall           'P 2yb'
loop_
_symmetry_equiv_pos_site_id
_symmetry_equiv_pos_as_xyz
1 x,y,z
2 -x,1/2+y,-z
_cell_length_a                   7.8793(4)
_cell_length_b                   8.5930(5)
_cell_length_c                   13.5155(8)
_cell_angle_alpha                90
_cell_angle_beta                 95.035(3)
_cell_angle_gamma                90
_cell_volume                     911.561
_exptl_crystal_colour            colorless
_exptl_crystal_description       plate
_chemical_melting_point          '105-107 deg.C'
_cell_formula_units_Z            2
loop_
_atom_site_label
_atom_site_type_symbol
_atom_site_fract_x
_atom_site_fract_y
_atom_site_fract_z
O1 O 0.32903(12) 0.10322(13) 0.72279(7)
N1 N 0.82010(13) 0.16102(14) 0.47575(8)
N2 N 0.63275(14) 0.39870(13) 0.78993(8)
C1 C 0.80598(19) -0.04861(19) 0.36075(11)
H1 H 0.9166 -0.0995 0.3527
H2 H 0.7249 -0.0758 0.3032
C2 C 0.73587(17) -0.09895(17) 0.45936(11)
H3 H 0.6344 -0.1664 0.4467
H4 H 0.8236 -0.1555 0.5023
C3 C 0.68969(15) 0.05360(16) 0.50651(9)
H5 H 0.5754 0.0881 0.4765
C4 C 0.69019(16) 0.05528(16) 0.61903(9)
H6 H 0.5902 -0.0031 0.6387
H7 H 0.7942 0.0027 0.6488
C5 C 0.68475(16) 0.21965(15) 0.65824(10)
C6 C 0.63724(16) 0.25361(15) 0.75278(10)
C7 C 0.58490(16) 0.12968(15) 0.82288(9)
C8 C 0.69271(17) 0.09405(15) 0.90981(10)
C9 C 0.85740(18) 0.15956(17) 0.92936(10)
H8 H 0.8999 0.2279 0.8821
C10 C 0.9561(2) 0.1262(2) 1.01496(12)
H9 H 1.0666 0.1705 1.0263
C11 C 0.8946(2) 0.0263(2) 1.08654(12)
H10 H 0.9632 0.0046 1.1463
C12 C 0.82736(18) 0.12829(19) 0.36969(10)
H11 H 0.938 0.1615 0.3472
H12 H 0.7345 0.1828 0.3295
C13 C 0.77652(17) 0.32160(16) 0.49523(10)
H13 H 0.6792 0.3533 0.4483
H14 H 0.8745 0.3892 0.4834
C14 C 0.73035(15) 0.34536(16) 0.60013(9)
C15 C 0.67663(17) 0.51814(16) 0.73370(10)
C16 C 0.6674(2) 0.67712(18) 0.77866(12)
H15 H 0.6446 0.6675 0.8485
H16 H 0.5755 0.7366 0.7426
H17 H 0.776 0.7312 0.7742
C17 C 0.72509(16) 0.49438(16) 0.63841(10)
H18 H 0.7547 0.5807 0.5995
C18 C 0.42489(17) 0.06432(16) 0.80885(10)
C19 C 0.15194(18) 0.0674(2) 0.71542(12)
H19 H 0.1368 -0.0456 0.7187
H20 H 0.0981 0.1064 0.6521
H21 H 0.099 0.1168 0.7704
C20 C 0.3647(2) -0.03655(18) 0.88052(11)
H22 H 0.254 -0.0807 0.8702
C21 C 0.4671(2) -0.07031(17) 0.96508(11)
H23 H 0.4257 -0.1375 1.0133
C22 C 0.6322(2) -0.00761(17) 0.98209(10)
C23 C 0.7374(2) -0.03911(18) 1.07032(11)
H24 H 0.6975 -0.1068 1.1188
H25? H 0.6861 0.756 0.7284
H26? H 0.7552 0.6869 0.8343
H27? H 0.5547 0.6923 0.8027
loop_
_geom_bond_atom_site_label_1
_geom_bond_atom_site_label_2
_geom_bond_site_symmetry_1
_geom_bond_site_symmetry_2
O1 C18 1_555 1_555
N1 C3 1_555 1_555
N2 C6 1_555 1_555
C1 H1 1_555 1_555
H2 C1 1_555 1_555
C2 C1 1_555 1_555
H3 C2 1_555 1_555
H4 C2 1_555 1_555
C3 C2 1_555 1_555
H5 C3 1_555 1_555
C4 C3 1_555 1_555
H6 C4 1_555 1_555
H7 C4 1_555 1_555
C5 C4 1_555 1_555
C6 C5 1_555 1_555
C7 C6 1_555 1_555
C8 C7 1_555 1_555
C9 C8 1_555 1_555
H8 C9 1_555 1_555
C10 C9 1_555 1_555
H9 C10 1_555 1_555
C11 C10 1_555 1_555
H10 C11 1_555 1_555
C12 N1 1_555 1_555
H11 C12 1_555 1_555
H12 C12 1_555 1_555
C13 N1 1_555 1_555
H13 C13 1_555 1_555
H14 C13 1_555 1_555
C14 C5 1_555 1_555
C15 N2 1_555 1_555
C16 C15 1_555 1_555
H15 C16 1_555 1_555
H16 C16 1_555 1_555
H17 C16 1_555 1_555
C17 C14 1_555 1_555
H18 C17 1_555 1_555
C18 C7 1_555 1_555
C19 O1 1_555 1_555
H19 C19 1_555 1_555
H20 C19 1_555 1_555
H21 C19 1_555 1_555
C20 C18 1_555 1_555
H22 C20 1_555 1_555
C21 C20 1_555 1_555
H23 C21 1_555 1_555
C22 C8 1_555 1_555
C23 C11 1_555 1_555
H24 C23 1_555 1_555
C1 C12 1_555 1_555
C13 C14 1_555 1_555
C15 C17 1_555 1_555
C21 C22 1_555 1_555
C22 C23 1_555 1_555

#END
