
#######################################################################
#
#                 Cambridge Crystallographic Data Centre
#                                CCDC 
#
#######################################################################
#
# If this CIF has been generated from an entry in the Cambridge 
# Structural Database, then it will include bibliographic, chemical, 
# crystal, experimental, refinement or atomic coordinate data resulting 
# from the CCDC's data processing and validation procedures.
#
#######################################################################

data_ACIZUJ
_chemical_formula_moiety         'C16 H19 N1 O4 Si1'
_chemical_name_systematic        
(E)-1-Ethoxy-2-(4-nitrophenyl)-5-(trimethylsilyl)pent-1-en-4-yn-3-one
_symmetry_cell_setting           monoclinic
_symmetry_space_group_name_H-M   'P 21/c'
_symmetry_Int_Tables_number      14
_space_group_name_Hall           '-P 2ybc'
loop_
_symmetry_equiv_pos_site_id
_symmetry_equiv_pos_as_xyz
1 x,y,z
2 -x,1/2+y,1/2-z
3 -x,-y,-z
4 x,1/2-y,1/2+z
_cell_length_a                   15.404(3)
_cell_length_b                   7.1672(15)
_cell_length_c                   15.749(3)
_cell_angle_alpha                90
_cell_angle_beta                 103.057(4)
_cell_angle_gamma                90
_cell_volume                     1693.79
_exptl_crystal_colour            colorless
_exptl_crystal_description       prism
_chemical_melting_point          '81-83 deg.C'
_cell_formula_units_Z            4
_exptl_crystal_recrystallization_method 'ethyl acetate/hexane'
loop_
_atom_site_label
_atom_site_type_symbol
_atom_site_fract_x
_atom_site_fract_y
_atom_site_fract_z
Si1 Si 0.11546(4) 0.91534(8) 0.37788(4)
O1 O 0.46334(9) 0.81099(19) 0.44568(8)
O2 O 0.37572(9) 1.01309(19) 0.15337(8)
O3 O 0.82293(10) 0.9420(2) 0.22643(10)
O4 O 0.85070(10) 1.0683(3) 0.35425(10)
N1 N 0.79926(12) 0.9991(3) 0.29099(12)
C1 C 0.40884(13) 0.8676(3) 0.38174(12)
C2 C 0.43264(12) 0.9283(2) 0.30006(12)
C3 C 0.36429(13) 0.9607(3) 0.23095(12)
H1 H 0.3052 0.9452 0.2383
C4 C 0.29525(13) 1.0377(3) 0.08597(12)
H2 H 0.2600 1.1436 0.1006
H3 H 0.2581 0.9236 0.0804
C5 C 0.32326(14) 1.0755(3) 0.00226(13)
H4 H 0.2702 1.0910 -0.0451
H5 H 0.3587 0.9705 -0.0110
H6 H 0.3591 1.1898 0.0083
C6 C 0.31464(13) 0.8783(3) 0.38425(12)
C7 C 0.23700(13) 0.8903(3) 0.38628(12)
C8 C 0.52725(13) 0.9483(2) 0.29749(12)
C9 C 0.58991(13) 1.0132(3) 0.36997(12)
H7 H 0.5710 1.0451 0.4215
C10 C 0.67850(13) 1.0320(3) 0.36830(13)
H8 H 0.7204 1.0772 0.4178
C11 C 0.70514(13) 0.9835(3) 0.29295(12)
C12 C 0.64554(13) 0.9198(3) 0.21946(13)
H9 H 0.6653 0.8878 0.1684
C13 C 0.55687(13) 0.9037(3) 0.22176(12)
H10 H 0.5151 0.8619 0.1714
C14 C 0.07750(14) 0.7091(3) 0.43061(14)
H11 H 0.0944 0.5950 0.4040
H12 H 0.0126 0.7134 0.4227
H13 H 0.1055 0.7097 0.4930
C15 C 0.09741(14) 1.1353(3) 0.43377(14)
H14 H 0.1212 1.2405 0.4063
H15 H 0.1281 1.1280 0.4954
H16 H 0.0335 1.1536 0.4291
C16 C 0.06330(14) 0.9290(3) 0.25973(14)
H17 H 0.0761 0.8144 0.2309
H18 H 0.0876 1.0364 0.2343
H19 H -0.0013 0.9435 0.2516
loop_
_geom_bond_atom_site_label_1
_geom_bond_atom_site_label_2
_geom_bond_site_symmetry_1
_geom_bond_site_symmetry_2
Si1 C7 1_555 1_555
O1 C1 1_555 1_555
O2 C3 1_555 1_555
O3 N1 1_555 1_555
O4 N1 1_555 1_555
N1 C11 1_555 1_555
C1 C2 1_555 1_555
C2 C3 1_555 1_555
C3 H1 1_555 1_555
C4 O2 1_555 1_555
H2 C4 1_555 1_555
H3 C4 1_555 1_555
C5 C4 1_555 1_555
H4 C5 1_555 1_555
H5 C5 1_555 1_555
H6 C5 1_555 1_555
C6 C1 1_555 1_555
C7 C6 1_555 1_555
C8 C2 1_555 1_555
C9 C8 1_555 1_555
H7 C9 1_555 1_555
C10 C9 1_555 1_555
H8 C10 1_555 1_555
C11 C10 1_555 1_555
C12 C11 1_555 1_555
H9 C12 1_555 1_555
C13 C8 1_555 1_555
H10 C13 1_555 1_555
C14 Si1 1_555 1_555
H11 C14 1_555 1_555
H12 C14 1_555 1_555
H13 C14 1_555 1_555
C15 Si1 1_555 1_555
H14 C15 1_555 1_555
H15 C15 1_555 1_555
H16 C15 1_555 1_555
C16 Si1 1_555 1_555
H17 C16 1_555 1_555
H18 C16 1_555 1_555
H19 C16 1_555 1_555
C12 C13 1_555 1_555

#END
