
#######################################################################
#
#                 Cambridge Crystallographic Data Centre
#                                CCDC 
#
#######################################################################
#
# If this CIF has been generated from an entry in the Cambridge 
# Structural Database, then it will include bibliographic, chemical, 
# crystal, experimental, refinement or atomic coordinate data resulting 
# from the CCDC's data processing and validation procedures.
#
#######################################################################

data_ACIZOD
_chemical_formula_moiety         'C21 H20 N2 O2'
_chemical_name_systematic        
(5aR,11bS)-1,11b-Dimethyl-3-phenyl-3,5a,6,11b-tetrahydro-5H-chromeno[4',3':4,5]pyrano[2,3-c]pyrazole
_symmetry_cell_setting           monoclinic
_symmetry_space_group_name_H-M   'P 21/c'
_symmetry_Int_Tables_number      14
_space_group_name_Hall           '-P 2ybc'
loop_
_symmetry_equiv_pos_site_id
_symmetry_equiv_pos_as_xyz
1 x,y,z
2 -x,1/2+y,1/2-z
3 -x,-y,-z
4 x,1/2-y,1/2+z
_cell_length_a                   9.7115(5)
_cell_length_b                   12.6094(6)
_cell_length_c                   13.8066(8)
_cell_angle_alpha                90
_cell_angle_beta                 94.838(5)
_cell_angle_gamma                90
_cell_volume                     1684.68
_exptl_crystal_colour            white
_exptl_crystal_description       block
_chemical_melting_point          '152-154 deg.C'
_cell_formula_units_Z            4
loop_
_atom_site_label
_atom_site_type_symbol
_atom_site_fract_x
_atom_site_fract_y
_atom_site_fract_z
C1 C 0.2302(3) 0.9887(2) 0.2402(2)
N1 N 0.3030(3) 1.06880(17) 0.20973(17)
N2 N 0.3005(2) 1.05890(15) 0.11001(16)
C2 C 0.2250(3) 0.97132(18) 0.08091(19)
O1 O 0.2011(2) 0.94908(13) -0.01399(13)
C3 C 0.1286(3) 0.8484(2) -0.0286(2)
C4 C 0.0199(3) 0.8307(2) 0.0421(2)
C5 C -0.0579(3) 0.7297(2) 0.0158(3)
O2 O 0.0323(2) 0.63867(14) 0.02408(15)
C6 C 0.1252(3) 0.6346(2) 0.1042(2)
C7 C 0.1921(3) 0.5382(2) 0.1195(2)
C8 C 0.2894(3) 0.5254(2) 0.1967(2)
C9 C 0.3254(3) 0.6101(2) 0.2569(2)
C10 C 0.2589(3) 0.7064(2) 0.2408(2)
C11 C 0.1581(3) 0.72176(18) 0.16501(19)
C12 C 0.0828(3) 0.82744(19) 0.14836(19)
C13 C 0.1781(3) 0.92297(18) 0.16022(19)
C14 C 0.2129(5) 0.9797(3) 0.3453(2)
C15 C 0.3662(3) 1.13711(19) 0.0546(2)
C16 C -0.0324(4) 0.8359(3) 0.2183(3)
C17 C 0.3953(3) 1.2353(2) 0.0981(3)
C18 C 0.4595(4) 1.3108(3) 0.0448(3)
C19 C 0.4941(4) 1.2921(3) -0.0464(3)
C20 C 0.4651(4) 1.1938(3) -0.0881(3)
C21 C 0.4009(3) 1.1156(2) -0.0383(2)
H1 H -0.051(3) 0.886(2) 0.038(2)
H2 H 0.204(3) 0.790(2) -0.0215(18)
H3 H 0.093(3) 0.8486(18) -0.096(2)
H4 H -0.094(3) 0.723(2) -0.056(2)
H5 H -0.137(3) 0.721(2) 0.0630(19)
H6 H 0.171(3) 0.487(2) 0.073(2)
H7 H 0.334(3) 0.454(2) 0.2118(17)
H8 H 0.397(3) 0.6050(19) 0.309(2)
H9 H 0.284(3) 0.767(2) 0.2882(17)
H10 H 0.246(5) 0.897(4) 0.376(3)
H11 H 0.119(5) 0.998(3) 0.353(3)
H12 H 0.269(4) 1.025(3) 0.382(3)
H13 H -0.100(4) 0.774(3) 0.209(2)
H14 H -0.077(4) 0.903(3) 0.201(2)
H15 H 0.006(4) 0.835(2) 0.291(2)
H16 H 0.359(3) 1.246(2) 0.166(2)
H17 H 0.476(4) 1.370(3) 0.080(2)
H18 H 0.536(4) 1.347(3) -0.079(3)
H19 H 0.492(3) 1.179(2) -0.156(2)
loop_
_geom_bond_atom_site_label_1
_geom_bond_atom_site_label_2
_geom_bond_site_symmetry_1
_geom_bond_site_symmetry_2
C1 N1 1_555 1_555
N1 N2 1_555 1_555
N2 C2 1_555 1_555
C2 O1 1_555 1_555
O1 C3 1_555 1_555
C3 C4 1_555 1_555
C4 C5 1_555 1_555
C5 O2 1_555 1_555
O2 C6 1_555 1_555
C6 C7 1_555 1_555
C7 C8 1_555 1_555
C8 C9 1_555 1_555
C9 C10 1_555 1_555
C10 C11 1_555 1_555
C11 C6 1_555 1_555
C12 C4 1_555 1_555
C13 C1 1_555 1_555
C14 C1 1_555 1_555
C15 N2 1_555 1_555
C16 C12 1_555 1_555
C17 C15 1_555 1_555
C18 C17 1_555 1_555
C19 C18 1_555 1_555
C20 C19 1_555 1_555
C21 C15 1_555 1_555
H1 C4 1_555 1_555
H2 C3 1_555 1_555
H3 C3 1_555 1_555
H4 C5 1_555 1_555
H5 C5 1_555 1_555
H6 C7 1_555 1_555
H7 C8 1_555 1_555
H8 C9 1_555 1_555
H9 C10 1_555 1_555
H10 C14 1_555 1_555
H11 C14 1_555 1_555
H12 C14 1_555 1_555
H13 C16 1_555 1_555
H14 C16 1_555 1_555
H15 C16 1_555 1_555
H16 C17 1_555 1_555
H17 C18 1_555 1_555
H18 C19 1_555 1_555
H19 C20 1_555 1_555
C2 C13 1_555 1_555
C11 C12 1_555 1_555
C12 C13 1_555 1_555
C20 C21 1_555 1_555

#END
