
#######################################################################
#
#                 Cambridge Crystallographic Data Centre
#                                CCDC 
#
#######################################################################
#
# If this CIF has been generated from an entry in the Cambridge 
# Structural Database, then it will include bibliographic, chemical, 
# crystal, experimental, refinement or atomic coordinate data resulting 
# from the CCDC's data processing and validation procedures.
#
#######################################################################

data_ACMEBZ
_chemical_name_common            3-Methylaspirin
_chemical_formula_moiety         'C10 H10 O4'
_chemical_name_systematic        '2-Acetoxy-3-methylbenzoic acid'
_symmetry_cell_setting           monoclinic
_symmetry_space_group_name_H-M   'P 21/c'
_symmetry_Int_Tables_number      14
_space_group_name_Hall           '-P 2ybc'
loop_
_symmetry_equiv_pos_site_id
_symmetry_equiv_pos_as_xyz
1 x,y,z
2 -x,1/2+y,1/2-z
3 -x,-y,-z
4 x,1/2-y,1/2+z
_cell_length_a                   4.910(1)
_cell_length_b                   11.702(2)
_cell_length_c                   17.233(6)
_cell_angle_alpha                90
_cell_angle_beta                 98.36(2)
_cell_angle_gamma                90
_cell_volume                     979.632
_exptl_crystal_colour            colorless
_chemical_melting_point          385K
_cell_formula_units_Z            4
loop_
_atom_site_label
_atom_site_type_symbol
_atom_site_fract_x
_atom_site_fract_y
_atom_site_fract_z
C1 C 0.16320 0.40640 0.32550
C2 C 0.35960 0.32410 0.31660
C3 C 0.40280 0.28240 0.24420
C4 C 0.24390 0.32910 0.17870
C5 C 0.05280 0.41400 0.18480
C6 C 0.01180 0.45200 0.25760
C7 C 0.10480 0.44710 0.40280
C8 C 0.47500 0.19320 0.42040
C9 C 0.68700 0.16930 0.48970
C10 C 0.61180 0.18990 0.23790
O1 O 0.19420 0.39840 0.46520
O2 O -0.05150 0.53620 0.40050
O3 O 0.54160 0.28830 0.38220
O4 O 0.27310 0.13870 0.39930
H1 H 0.27300 0.30700 0.12400
H2 H -0.04800 0.45300 0.14000
H3 H -0.12200 0.50400 0.26400
H4 H -0.11200 0.55400 0.45300
H5 H 0.63700 0.09500 0.52200
H6 H 0.68300 0.24400 0.52600
H7 H 0.89000 0.16000 0.47400
H8 H 0.63800 0.18100 0.17700
H9 H 0.52400 0.11300 0.25800
H10 H 0.80800 0.20600 0.27300
loop_
_geom_bond_atom_site_label_1
_geom_bond_atom_site_label_2
_geom_bond_site_symmetry_1
_geom_bond_site_symmetry_2
C1 C2 1_555 1_555
C2 C3 1_555 1_555
C3 C4 1_555 1_555
C4 C5 1_555 1_555
C5 C6 1_555 1_555
C6 C1 1_555 1_555
C7 C1 1_555 1_555
C8 C9 1_555 1_555
C9 H5 1_555 1_555
C10 C3 1_555 1_555
O1 C7 1_555 1_555
O2 C7 1_555 1_555
O3 C2 1_555 1_555
O4 C8 1_555 1_555
H1 C4 1_555 1_555
H2 C5 1_555 1_555
H3 C6 1_555 1_555
H4 O2 1_555 1_555
H6 C9 1_555 1_555
H7 C9 1_555 1_555
H8 C10 1_555 1_555
H9 C10 1_555 1_555
H10 C10 1_555 1_555
C8 O3 1_555 1_555

#END
