
#######################################################################
#
#                 Cambridge Crystallographic Data Centre
#                                CCDC 
#
#######################################################################
#
# If this CIF has been generated from an entry in the Cambridge 
# Structural Database, then it will include bibliographic, chemical, 
# crystal, experimental, refinement or atomic coordinate data resulting 
# from the CCDC's data processing and validation procedures.
#
#######################################################################

data_ACNDNB
_chemical_name_common            
4-Acetonitrile-5,6:8,9-di-muH-isoarachnononaborane(13)
_chemical_formula_moiety         'C2 H16 B9 N1'
_chemical_name_systematic        
9-Acetonitrile-2,6:5,8-di-\mH-arachnononaborane(13)
_symmetry_cell_setting           monoclinic
_symmetry_space_group_name_H-M   'P 21/m'
_symmetry_Int_Tables_number      11
_space_group_name_Hall           '-P 2yb'
loop_
_symmetry_equiv_pos_site_id
_symmetry_equiv_pos_as_xyz
1 x,y,z
2 -x,1/2+y,-z
3 -x,-y,-z
4 x,1/2-y,z
_cell_length_a                   5.639
_cell_length_b                   9.220
_cell_length_c                   9.813
_cell_angle_alpha                90
_cell_angle_beta                 90.0
_cell_angle_gamma                90
_cell_volume                     510.193
_cell_formula_units_Z            2
loop_
_atom_site_label
_atom_site_type_symbol
_atom_site_fract_x
_atom_site_fract_y
_atom_site_fract_z
B1 B 0.34100 0.25000 0.52900
B2 B 0.14200 0.25000 0.66400
B3 B 0.48100 0.25000 0.86900
B4 B 0.23600 0.15100 0.80800
B5 B 0.29600 0.08700 0.64000
B6 B 0.50700 0.07000 0.78300
C1 C -0.01300 0.25000 0.16900
C2 C 0.11100 0.25000 0.29600
H1 H 0.54200 0.25000 0.52700
H2 H 0.11100 0.09200 0.88900
H3 H 0.69300 0.09800 0.78400
H4 H -0.20700 0.25000 0.17100
H5 H 0.01000 0.17500 0.12200
H6 H -0.02400 0.25000 0.64400
H7 H 0.53500 0.25000 0.97400
H8 H 0.20000 -0.01600 0.59700
H9 H 0.45000 -0.02400 0.83700
H10 H 0.50900 0.07700 0.64500
N1 N 0.20900 0.25000 0.39600
B5C B 0.29600 0.41300 0.64000
B4C B 0.23600 0.34900 0.80800
B6C B 0.50700 0.43000 0.78300
H5C H 0.01000 0.32500 0.12200
H8C H 0.20000 0.51600 0.59700
H10C H 0.50900 0.42300 0.64500
H2C H 0.11100 0.40800 0.88900
H3C H 0.69300 0.40200 0.78400
H9C H 0.45000 0.52400 0.83700
loop_
_geom_bond_atom_site_label_1
_geom_bond_atom_site_label_2
_geom_bond_site_symmetry_1
_geom_bond_site_symmetry_2
B1 B2 1_555 1_555
B2 B4 1_555 1_555
B3 B4 1_555 1_555
B4 B5 1_555 1_555
B5 B1 1_555 1_555
B6 B3 1_555 1_555
C1 C2 1_555 1_555
C2 N1 1_555 1_555
H1 B1 1_555 1_555
H2 B4 1_555 1_555
H3 B6 1_555 1_555
H4 C1 1_555 1_555
H5 C1 1_555 1_555
H6 B2 1_555 1_555
H7 B3 1_555 1_555
H8 B5 1_555 1_555
H9 B6 1_555 1_555
H10 B5 1_555 1_555
N1 B1 1_555 1_555
B5C B1 1_555 1_555
B4C B2 1_555 1_555
B6C B3 1_555 1_555
H5C C1 1_555 1_555
H8C B5C 1_555 1_555
H10C B5C 1_555 1_555
H2C B4C 1_555 1_555
H3C B6C 1_555 1_555
H9C B6C 1_555 1_555
B2 B5 1_555 1_555
B2 B5C 1_555 1_555
B3 B4C 1_555 1_555
B4 B4C 1_555 1_555
B4 B6 1_555 1_555
B5 B6 1_555 1_555
B6 H10 1_555 1_555
B5C B4C 1_555 1_555
B5C B6C 1_555 1_555
B4C B6C 1_555 1_555
B6C H10C 1_555 1_555

#END
