
#######################################################################
#
#                 Cambridge Crystallographic Data Centre
#                                CCDC 
#
#######################################################################
#
# If this CIF has been generated from an entry in the Cambridge 
# Structural Database, then it will include bibliographic, chemical, 
# crystal, experimental, refinement or atomic coordinate data resulting 
# from the CCDC's data processing and validation procedures.
#
#######################################################################

data_ACNPHB
_chemical_formula_moiety         'C14 H13 I1 O5'
_chemical_name_systematic        
Methyl-4-hydroxy-8-iodo-5,7-dimethoxy-2-naphthoate
_symmetry_cell_setting           monoclinic
_symmetry_space_group_name_H-M   'P 21/n'
_symmetry_Int_Tables_number      14
_space_group_name_Hall           '-P 2yn'
loop_
_symmetry_equiv_pos_site_id
_symmetry_equiv_pos_as_xyz
1 x,y,z
2 1/2-x,1/2+y,1/2-z
3 -x,-y,-z
4 1/2+x,1/2-y,1/2+z
_cell_length_a                   5.046(4)
_cell_length_b                   17.840(6)
_cell_length_c                   15.689(5)
_cell_angle_alpha                90
_cell_angle_beta                 96.16(5)
_cell_angle_gamma                90
_cell_volume                     1404.18
_exptl_crystal_colour            fawn
_chemical_melting_point          150deg.C
_cell_formula_units_Z            4
loop_
_atom_site_label
_atom_site_type_symbol
_atom_site_fract_x
_atom_site_fract_y
_atom_site_fract_z
I1 I 0.19837 0.06913 0.06686
C1 C 0.22780 0.14060 0.17310
C2 C 0.05330 0.19940 0.17170
O1 O -0.12870 0.20650 0.10140
C3 C -0.31600 0.26680 0.09860
H1 H -0.42000 0.26900 0.14400
H2 H -0.23600 0.31900 0.09600
H3 H -0.45900 0.25800 0.04100
C4 C 0.06510 0.24990 0.24080
H4 H -0.05200 0.29100 0.23700
C5 C 0.25070 0.24050 0.31000
O2 O 0.26880 0.28720 0.37930
C6 C 0.10700 0.35250 0.37740
H5 H 0.15300 0.38600 0.33600
H6 H -0.07000 0.34000 0.36700
H7 H 0.13600 0.37400 0.43100
C7 C 0.43440 0.17970 0.31520
C8 C 0.63180 0.16690 0.38630
O3 O 0.65360 0.21170 0.45680
H8 H 0.55000 0.25000 0.45000
C9 C 0.80290 0.10820 0.38690
H9 H 0.93700 0.09900 0.43500
C10 C 0.79000 0.05820 0.31760
C11 C 0.97040 -0.00840 0.31870
O4 O 0.94770 -0.05760 0.26680
O5 O 1.15780 -0.00680 0.38540
C12 C 1.33890 -0.07000 0.39140
H10 H 1.23900 -0.12000 0.40500
H11 H 1.42500 -0.07500 0.34300
H12 H 1.46200 -0.05800 0.44000
C13 C 0.60370 0.06790 0.24810
H13 H 0.58400 0.02800 0.20000
C14 C 0.42300 0.12850 0.24400
loop_
_geom_bond_atom_site_label_1
_geom_bond_atom_site_label_2
_geom_bond_site_symmetry_1
_geom_bond_site_symmetry_2
I1 C1 1_555 1_555
C1 C2 1_555 1_555
C2 O1 1_555 1_555
O1 C3 1_555 1_555
C3 H1 1_555 1_555
H2 C3 1_555 1_555
H3 C3 1_555 1_555
C4 C2 1_555 1_555
H4 C4 1_555 1_555
C5 C4 1_555 1_555
O2 C5 1_555 1_555
C6 O2 1_555 1_555
H5 C6 1_555 1_555
H6 C6 1_555 1_555
H7 C6 1_555 1_555
C7 C5 1_555 1_555
C8 C7 1_555 1_555
O3 C8 1_555 1_555
H8 O3 1_555 1_555
C9 C8 1_555 1_555
H9 C9 1_555 1_555
C10 C9 1_555 1_555
C11 C10 1_555 1_555
O4 C11 1_555 1_555
O5 C11 1_555 1_555
C12 O5 1_555 1_555
H10 C12 1_555 1_555
H11 C12 1_555 1_555
H12 C12 1_555 1_555
C13 C10 1_555 1_555
H13 C13 1_555 1_555
C14 C1 1_555 1_555
C7 C14 1_555 1_555
C13 C14 1_555 1_555

#END
