
#######################################################################
#
#                 Cambridge Crystallographic Data Centre
#                                CCDC 
#
#######################################################################
#
# If this CIF has been generated from an entry in the Cambridge 
# Structural Database, then it will include bibliographic, chemical, 
# crystal, experimental, refinement or atomic coordinate data resulting 
# from the CCDC's data processing and validation procedures.
#
#######################################################################

data_ACNPHD
_chemical_formula_moiety         'C17 H17 I1 O7'
_chemical_name_systematic        
Methyl-4-acetoxy-8-iodo-5,6,7-trimethoxy-2-naphthoate
_symmetry_cell_setting           triclinic
_symmetry_space_group_name_H-M   'P -1'
_symmetry_Int_Tables_number      2
_space_group_name_Hall           '-P 1'
loop_
_symmetry_equiv_pos_site_id
_symmetry_equiv_pos_as_xyz
1 x,y,z
2 -x,-y,-z
_cell_length_a                   19.075(6)
_cell_length_b                   11.515(4)
_cell_length_c                   8.540(5)
_cell_angle_alpha                104.46(3)
_cell_angle_beta                 91.19(4)
_cell_angle_gamma                96.97(4)
_cell_volume                     1800.41
_exptl_crystal_colour            cream
_chemical_melting_point          92-94deg.C
_cell_formula_units_Z            4
loop_
_atom_site_label
_atom_site_type_symbol
_atom_site_fract_x
_atom_site_fract_y
_atom_site_fract_z
I1 I 0.06960 0.40683 0.10079
C1 C 0.17890 0.43790 0.14960
C2 C 0.22000 0.36060 0.06330
O1 O 0.18810 0.26030 -0.05630
C3 C 0.17890 0.15000 -0.00420
H1 H 0.22400 0.13300 0.02900
H2 H 0.15000 0.15900 0.08700
H3 H 0.15800 0.08000 -0.08500
C4 C 0.29250 0.37670 0.08880
O2 O 0.33520 0.29750 0.00530
C5 C 0.33200 0.27650 -0.16930
H4 H 0.28500 0.25000 -0.20900
H5 H 0.34500 0.35500 -0.19200
H6 H 0.36200 0.22400 -0.22800
C6 C 0.32500 0.47090 0.21070
O3 O 0.39630 0.47910 0.24830
C7 C 0.44230 0.52120 0.14020
H7 H 0.43400 0.47000 0.03200
H8 H 0.43400 0.60200 0.10500
H9 H 0.49300 0.52900 0.16300
C8 C 0.28490 0.55470 0.31050
C9 C 0.31380 0.65490 0.43920
O4 O 0.38710 0.68690 0.46290
C10 C 0.42330 0.63350 0.55980
O5 O 0.39580 0.56300 0.62700
C11 C 0.50050 0.67520 0.55960
H10 H 0.51600 0.66200 0.45000
H11 H 0.52800 0.63000 0.61700
H12 H 0.51200 0.76000 0.61000
C12 C 0.27280 0.73160 0.52950
H13 H 0.29500 0.78800 0.60700
C13 C 0.19970 0.71320 0.49970
C14 C 0.15580 0.79790 0.60350
O6 O 0.17970 0.88620 0.70390
O7 O 0.08670 0.76320 0.56990
C15 C 0.04030 0.84130 0.66140
H14 H 0.04800 0.84900 0.77300
H15 H 0.04900 0.92000 0.64100
H16 H -0.01100 0.81700 0.63700
C16 C 0.16950 0.62060 0.37570
H17 H 0.12300 0.61500 0.35200
C17 C 0.20970 0.53820 0.27850
I2 I 0.05034 0.87700 1.17920
C18 C 0.16100 0.90670 1.20020
C19 C 0.19050 1.00970 1.31440
O8 O 0.14880 1.09100 1.39590
C20 C 0.15610 1.13110 1.56820
H18 H 0.14800 1.06100 1.61200
H19 H 0.20500 1.16700 1.59900
H20 H 0.12800 1.18800 1.62800
C21 C 0.26540 1.03570 1.33490
O9 O 0.29660 1.13680 1.44890
C22 C 0.30360 1.24390 1.39250
H21 H 0.33200 1.23400 1.30200
H22 H 0.25800 1.26000 1.36400
H23 H 0.32600 1.31600 1.37200
C23 C 0.30720 0.95750 1.24510
O10 O 0.37950 0.99290 1.25680
C24 C 0.41450 0.97680 1.39970
H24 H 0.39500 1.02300 1.49600
H25 H 0.40600 0.89400 1.40300
H26 H 0.46400 1.00100 1.41100
C25 C 0.27720 0.84940 1.12860
C26 C 0.31680 0.76470 1.03260
O11 O 0.39070 0.77780 1.05910
C27 C 0.43040 0.83310 0.95730
O12 O 0.40640 0.87060 0.85560
C28 C 0.50830 0.83990 1.00470
H27 H 0.50900 0.87900 1.11700
H28 H 0.51200 0.76100 0.99900
H29 H 0.54500 0.89500 0.94300
C29 C 0.28600 0.66510 0.92160
H30 H 0.31900 0.60900 0.86000
C30 C 0.21250 0.64440 0.89890
C31 C 0.18070 0.53400 0.77320
O13 O 0.21300 0.45430 0.70510
O14 O 0.11170 0.53300 0.74150
C32 C 0.07630 0.42870 0.62500
H31 H 0.09800 0.42000 0.52200
H32 H 0.08100 0.35700 0.66000
H33 H 0.02600 0.42500 0.59800
C33 C 0.17200 0.72100 0.98770
H34 H 0.12100 0.70300 0.96900
C34 C 0.20240 0.82610 1.10650
loop_
_geom_bond_atom_site_label_1
_geom_bond_atom_site_label_2
_geom_bond_site_symmetry_1
_geom_bond_site_symmetry_2
I1 C1 1_555 1_555
C1 C2 1_555 1_555
C2 O1 1_555 1_555
O1 C3 1_555 1_555
C3 H1 1_555 1_555
H2 C3 1_555 1_555
H3 C3 1_555 1_555
C4 C2 1_555 1_555
O2 C4 1_555 1_555
C5 O2 1_555 1_555
H4 C5 1_555 1_555
H5 C5 1_555 1_555
H6 C5 1_555 1_555
C6 C4 1_555 1_555
O3 C6 1_555 1_555
C7 O3 1_555 1_555
H7 C7 1_555 1_555
H8 C7 1_555 1_555
H9 C7 1_555 1_555
C8 C6 1_555 1_555
C9 C8 1_555 1_555
O4 C9 1_555 1_555
C10 O4 1_555 1_555
O5 C10 1_555 1_555
C11 C10 1_555 1_555
H10 C11 1_555 1_555
H11 C11 1_555 1_555
H12 C11 1_555 1_555
C12 C9 1_555 1_555
H13 C12 1_555 1_555
C13 C12 1_555 1_555
C14 C13 1_555 1_555
O6 C14 1_555 1_555
O7 C14 1_555 1_555
C15 O7 1_555 1_555
H14 C15 1_555 1_555
H15 C15 1_555 1_555
H16 C15 1_555 1_555
C16 C13 1_555 1_555
H17 C16 1_555 1_555
C17 C1 1_555 1_555
I2 C18 1_555 1_555
C18 C19 1_555 1_555
C19 O8 1_555 1_555
O8 C20 1_555 1_555
C20 H18 1_555 1_555
H19 C20 1_555 1_555
H20 C20 1_555 1_555
C21 C19 1_555 1_555
O9 C21 1_555 1_555
C22 O9 1_555 1_555
H21 C22 1_555 1_555
H22 C22 1_555 1_555
H23 C22 1_555 1_555
C23 C21 1_555 1_555
O10 C23 1_555 1_555
C24 O10 1_555 1_555
H24 C24 1_555 1_555
H25 C24 1_555 1_555
H26 C24 1_555 1_555
C25 C23 1_555 1_555
C26 C25 1_555 1_555
O11 C26 1_555 1_555
C27 O11 1_555 1_555
O12 C27 1_555 1_555
C28 C27 1_555 1_555
H27 C28 1_555 1_555
H28 C28 1_555 1_555
H29 C28 1_555 1_555
C29 C26 1_555 1_555
H30 C29 1_555 1_555
C30 C29 1_555 1_555
C31 C30 1_555 1_555
O13 C31 1_555 1_555
O14 C31 1_555 1_555
C32 O14 1_555 1_555
H31 C32 1_555 1_555
H32 C32 1_555 1_555
H33 C32 1_555 1_555
C33 C30 1_555 1_555
H34 C33 1_555 1_555
C34 C18 1_555 1_555
C8 C17 1_555 1_555
C16 C17 1_555 1_555
C25 C34 1_555 1_555
C33 C34 1_555 1_555

#END
