
#######################################################################
#
#                 Cambridge Crystallographic Data Centre
#                                CCDC 
#
#######################################################################
#
# If this CIF has been generated from an entry in the Cambridge 
# Structural Database, then it will include bibliographic, chemical, 
# crystal, experimental, refinement or atomic coordinate data resulting 
# from the CCDC's data processing and validation procedures.
#
#######################################################################

data_ACNPHY01
_chemical_formula_moiety         'C9 H11 N3 O2'
_chemical_name_systematic        
1-(4-nitrophenyl)-2-(propan-2-ylidene)hydrazine
_symmetry_cell_setting           monoclinic
_symmetry_space_group_name_H-M   'P 21/c'
_symmetry_Int_Tables_number      14
_space_group_name_Hall           '-P 2ybc'
loop_
_symmetry_equiv_pos_site_id
_symmetry_equiv_pos_as_xyz
1 x,y,z
2 -x,1/2+y,1/2-z
3 -x,-y,-z
4 x,1/2-y,1/2+z
_cell_length_a                   3.91690(10)
_cell_length_b                   20.5622(9)
_cell_length_c                   11.7527(6)
_cell_angle_alpha                90
_cell_angle_beta                 93.913(2)
_cell_angle_gamma                90
_cell_volume                     944.357
_exptl_crystal_colour            orange
_exptl_crystal_description       plate
_cell_formula_units_Z            4
loop_
_atom_site_label
_atom_site_type_symbol
_atom_site_fract_x
_atom_site_fract_y
_atom_site_fract_z
O1 O 0.1829(3) 0.17386(5) 0.57569(10)
O2 O 0.3726(4) 0.11306(6) 0.44331(12)
N1 N 0.8475(3) 0.44526(6) 0.32871(12)
N2 N 0.8199(4) 0.38647(6) 0.27109(12)
N3 N 0.3321(3) 0.16688(6) 0.48679(12)
C1 C 0.6988(4) 0.33328(7) 0.32585(14)
H1 H 0.928(4) 0.3805(8) 0.2103(16)
C2 C 0.5446(4) 0.33914(7) 0.42983(14)
H2 H 0.522883 0.380700 0.463903
C3 C 0.4597(4) 0.22382(7) 0.43259(13)
C4 C 0.7266(4) 0.27151(7) 0.27579(14)
H3 H 0.827745 0.267359 0.204944
C5 C 0.6086(4) 0.21717(8) 0.32857(14)
H4 H 0.628046 0.175505 0.294695
C6 C 0.4249(4) 0.28454(7) 0.48246(14)
H5 H 0.318976 0.288427 0.552493
C7 C 0.9810(4) 0.49250(8) 0.27530(14)
C8 C 1.0991(5) 0.48842(8) 0.15684(15)
H6 H 1.181866 0.531131 0.133967
H7 H 0.907936 0.474888 0.104009
H8 H 1.284862 0.456573 0.155100
C9 C 1.0187(5) 0.55563(8) 0.33785(16)
H9 H 1.260167 0.568503 0.343972
H10 H 0.937387 0.550641 0.414390
H11 H 0.883322 0.589145 0.296197
loop_
_geom_bond_atom_site_label_1
_geom_bond_atom_site_label_2
_geom_bond_site_symmetry_1
_geom_bond_site_symmetry_2
O1 N3 1_555 1_555
O2 N3 1_555 1_555
N1 N2 1_555 1_555
N2 C1 1_555 1_555
N3 C3 1_555 1_555
C1 C2 1_555 1_555
H1 N2 1_555 1_555
C2 H2 1_555 1_555
C3 C5 1_555 1_555
C4 C1 1_555 1_555
H3 C4 1_555 1_555
C5 C4 1_555 1_555
H4 C5 1_555 1_555
C6 C2 1_555 1_555
H5 C6 1_555 1_555
C7 N1 1_555 1_555
C8 C7 1_555 1_555
H6 C8 1_555 1_555
H7 C8 1_555 1_555
H8 C8 1_555 1_555
C9 C7 1_555 1_555
H9 C9 1_555 1_555
H10 C9 1_555 1_555
H11 C9 1_555 1_555
C3 C6 1_555 1_555

#END
