
#######################################################################
#
#                 Cambridge Crystallographic Data Centre
#                                CCDC 
#
#######################################################################
#
# If this CIF has been generated from an entry in the Cambridge 
# Structural Database, then it will include bibliographic, chemical, 
# crystal, experimental, refinement or atomic coordinate data resulting 
# from the CCDC's data processing and validation procedures.
#
#######################################################################

data_ACNPHE
_chemical_formula_moiety         'C16 H17 I1 O6'
_chemical_name_systematic        
Methyl-8-iodo-4,5,6,7-tetramethoxy-2-naphthoate
_symmetry_cell_setting           monoclinic
_symmetry_space_group_name_H-M   'P 21/a'
_symmetry_Int_Tables_number      14
_space_group_name_Hall           '-P 2yab'
loop_
_symmetry_equiv_pos_site_id
_symmetry_equiv_pos_as_xyz
1 x,y,z
2 1/2-x,1/2+y,-z
3 -x,-y,-z
4 1/2+x,1/2-y,z
_cell_length_a                   14.890(6)
_cell_length_b                   20.390(6)
_cell_length_c                   11.896(4)
_cell_angle_alpha                90
_cell_angle_beta                 111.05(3)
_cell_angle_gamma                90
_cell_volume                     3370.69
_chemical_melting_point          104deg.C
_cell_formula_units_Z            8
loop_
_atom_site_label
_atom_site_type_symbol
_atom_site_fract_x
_atom_site_fract_y
_atom_site_fract_z
I1 I 0.07961 0.16479 0.23858
C1 C 0.12170 0.10310 0.12600
C2 C 0.14290 0.13200 0.03800
O1 O 0.14070 0.20020 0.02300
C3 C 0.06120 0.22470 -0.07360
H1 H 0.06200 0.20500 -0.15100
H2 H 0.00200 0.21000 -0.06800
H3 H 0.05600 0.27000 -0.08800
C4 C 0.17460 0.09520 -0.04180
O2 O 0.18990 0.12420 -0.13610
C5 C 0.28510 0.14040 -0.11970
H4 H 0.31100 0.16900 -0.05100
H5 H 0.32500 0.10100 -0.10100
H6 H 0.29900 0.16200 -0.18400
C6 C 0.18580 0.02810 -0.02660
O3 O 0.22150 -0.00550 -0.10210
C7 C 0.14720 -0.03520 -0.20450
H7 H 0.11000 -0.06500 -0.17900
H8 H 0.10500 -0.00200 -0.25200
H9 H 0.17000 -0.05800 -0.26000
C8 C 0.16440 -0.00410 0.06620
C9 C 0.17440 -0.07410 0.08890
O4 O 0.21260 -0.10890 0.01980
C10 C 0.22570 -0.17770 0.04220
H10 H 0.16300 -0.19700 0.02800
H11 H 0.25100 -0.20200 -0.01000
C11 C 0.14970 -0.10210 0.17800
H12 H 0.15800 -0.15000 0.19100
C12 C 0.11280 -0.06290 0.24830
C13 C 0.08520 -0.09870 0.33970
O5 O 0.09480 -0.15610 0.35830
O6 O 0.04620 -0.05950 0.40080
C14 C 0.01220 -0.09260 0.48540
H13 H -0.03700 -0.12400 0.44700
H14 H 0.06400 -0.11500 0.54600
H15 H -0.01600 -0.06500 0.53400
C15 C 0.10580 0.00300 0.23630
H16 H 0.08700 0.02900 0.29300
C16 C 0.12960 0.03310 0.14260
I2 I 0.21596 0.53326 0.39058
C17 C 0.16920 0.46550 0.49120
C18 C 0.17240 0.39990 0.46210
O7 O 0.20880 0.38090 0.37400
C19 C 0.13770 0.36450 0.25920
H17 H 0.09800 0.32900 0.27000
H18 H 0.09700 0.40200 0.22900
H19 H 0.16300 0.35200 0.20000
C20 C 0.13960 0.35230 0.52370
O8 O 0.13480 0.28890 0.48540
C21 C 0.20360 0.24690 0.56220
H20 H 0.26900 0.26300 0.57000
H21 H 0.20300 0.24600 0.64000
H22 H 0.20500 0.20200 0.53600
C22 C 0.10880 0.37040 0.61510
O9 O 0.08250 0.32020 0.67300
C23 C -0.01730 0.30470 0.62850
H23 H -0.05400 0.34400 0.63500
H24 H -0.04000 0.29400 0.54500
H25 H -0.04000 0.27100 0.66900
C24 C 0.11020 0.43710 0.65060
C25 C 0.08490 0.45930 0.75080
O10 O 0.05980 0.41090 0.81320
C26 C 0.04430 0.43000 0.91980
H26 H 0.10200 0.45100 0.97500
H27 H -0.00600 0.46400 0.90000
H28 H 0.02700 0.39900 0.96700
C27 C 0.08790 0.52520 0.77950
H29 H 0.07200 0.53900 0.84900
C28 C 0.11530 0.57020 0.71020
C29 C 0.11850 0.64270 0.74580
O11 O 0.09540 0.66030 0.82880
O12 O 0.14640 0.68010 0.67640
C30 C 0.15250 0.74840 0.70430
H30 H 0.09000 0.76600 0.69900
H31 H 0.19700 0.75800 0.78300
H32 H 0.17200 0.78000 0.65200
C31 C 0.14130 0.55240 0.61620
H33 H 0.16000 0.58600 0.57000
C32 C 0.14030 0.48520 0.58720
loop_
_geom_bond_atom_site_label_1
_geom_bond_atom_site_label_2
_geom_bond_site_symmetry_1
_geom_bond_site_symmetry_2
I1 C1 1_555 1_555
C1 C2 1_555 1_555
C2 O1 1_555 1_555
O1 C3 1_555 1_555
C3 H1 1_555 1_555
H2 C3 1_555 1_555
H3 C3 1_555 1_555
C4 C2 1_555 1_555
O2 C4 1_555 1_555
C5 O2 1_555 1_555
H4 C5 1_555 1_555
H5 C5 1_555 1_555
H6 C5 1_555 1_555
C6 C4 1_555 1_555
O3 C6 1_555 1_555
C7 O3 1_555 1_555
H7 C7 1_555 1_555
H8 C7 1_555 1_555
H9 C7 1_555 1_555
C8 C6 1_555 1_555
C9 C8 1_555 1_555
O4 C9 1_555 1_555
C10 O4 1_555 1_555
H10 C10 1_555 1_555
H11 C10 1_555 1_555
C11 C9 1_555 1_555
H12 C11 1_555 1_555
C12 C11 1_555 1_555
C13 C12 1_555 1_555
O5 C13 1_555 1_555
O6 C13 1_555 1_555
C14 O6 1_555 1_555
H13 C14 1_555 1_555
H14 C14 1_555 1_555
H15 C14 1_555 1_555
C15 C12 1_555 1_555
H16 C15 1_555 1_555
C16 C1 1_555 1_555
I2 C17 1_555 1_555
C17 C18 1_555 1_555
C18 O7 1_555 1_555
O7 C19 1_555 1_555
C19 H17 1_555 1_555
H18 C19 1_555 1_555
H19 C19 1_555 1_555
C20 C18 1_555 1_555
O8 C20 1_555 1_555
C21 O8 1_555 1_555
H20 C21 1_555 1_555
H21 C21 1_555 1_555
H22 C21 1_555 1_555
C22 C20 1_555 1_555
O9 C22 1_555 1_555
C23 O9 1_555 1_555
H23 C23 1_555 1_555
H24 C23 1_555 1_555
H25 C23 1_555 1_555
C24 C22 1_555 1_555
C25 C24 1_555 1_555
O10 C25 1_555 1_555
C26 O10 1_555 1_555
H26 C26 1_555 1_555
H27 C26 1_555 1_555
H28 C26 1_555 1_555
C27 C25 1_555 1_555
H29 C27 1_555 1_555
C28 C27 1_555 1_555
C29 C28 1_555 1_555
O11 C29 1_555 1_555
O12 C29 1_555 1_555
C30 O12 1_555 1_555
H30 C30 1_555 1_555
H31 C30 1_555 1_555
H32 C30 1_555 1_555
C31 C28 1_555 1_555
H33 C31 1_555 1_555
C32 C17 1_555 1_555
C8 C16 1_555 1_555
C15 C16 1_555 1_555
C24 C32 1_555 1_555
C31 C32 1_555 1_555

#END
