
#######################################################################
#
#                 Cambridge Crystallographic Data Centre
#                                CCDC 
#
#######################################################################
#
# If this CIF has been generated from an entry in the Cambridge 
# Structural Database, then it will include bibliographic, chemical, 
# crystal, experimental, refinement or atomic coordinate data resulting 
# from the CCDC's data processing and validation procedures.
#
#######################################################################

data_ACNYLI
_chemical_formula_moiety         'C12 H8 2-,2(C6 H16 N2),2(Li1 1+)'
_chemical_name_systematic        
"Lithium acenaphthylene-di-ide bis(N,N,N',N'-tetramethyl-ethylenediamine)"
_symmetry_cell_setting           orthorhombic
_symmetry_space_group_name_H-M   'F d d 2'
_symmetry_Int_Tables_number      43
_space_group_name_Hall           'F 2 -2d'
loop_
_symmetry_equiv_pos_site_id
_symmetry_equiv_pos_as_xyz
1 x,y,z
2 x,1/2+y,1/2+z
3 1/2+x,y,1/2+z
4 1/2+x,1/2+y,z
5 1/4-x,1/4+y,1/4+z
6 1/4-x,3/4+y,3/4+z
7 3/4-x,1/4+y,3/4+z
8 3/4-x,3/4+y,1/4+z
9 1/4+x,1/4-y,1/4+z
10 1/4+x,3/4-y,3/4+z
11 3/4+x,1/4-y,3/4+z
12 3/4+x,3/4-y,1/4+z
13 1/2-x,-y,1/2+z
14 1/2-x,1/2-y,z
15 -x,-y,z
16 -x,1/2-y,1/2+z
_cell_length_a                   23.164(10)
_cell_length_b                   25.609(10)
_cell_length_c                   8.495(6)
_cell_angle_alpha                90
_cell_angle_beta                 90
_cell_angle_gamma                90
_cell_volume                     5039.29
_cell_formula_units_Z            8
loop_
_atom_site_label
_atom_site_type_symbol
_atom_site_fract_x
_atom_site_fract_y
_atom_site_fract_z
Li1 Li 0.24350 0.17360 -0.36290
C1 C 0.19570 0.11840 0.38470
C2 C 0.29660 0.10760 0.38910
C3 C 0.27490 0.11160 0.91070
C4 C 0.17720 0.13150 0.91340
C5 C 0.24080 0.06480 0.58010
C6 C 0.21010 0.07160 0.72330
N1 N 0.24520 0.11120 0.48370
N2 N 0.22530 0.11810 0.81250
loop_
_geom_bond_atom_site_label_1
_geom_bond_atom_site_label_2
_geom_bond_site_symmetry_1
_geom_bond_site_symmetry_2
C1 N1 1_555 1_555
C2 N1 1_555 1_555
C3 N2 1_555 1_555
C4 N2 1_555 1_555
C5 C6 1_555 1_555
C6 N2 1_555 1_555
N1 C5 1_555 1_555

#END
