
#######################################################################
#
#                 Cambridge Crystallographic Data Centre
#                                CCDC 
#
#######################################################################
#
# If this CIF has been generated from an entry in the Cambridge 
# Structural Database, then it will include bibliographic, chemical, 
# crystal, experimental, refinement or atomic coordinate data resulting 
# from the CCDC's data processing and validation procedures.
#
#######################################################################

data_ACOBUR
_chemical_formula_moiety         'C28 H24 O4'
_chemical_name_systematic        't-Butyl 4-benzoyl-2,5-diphenyl-3-furoate'
_symmetry_cell_setting           monoclinic
_symmetry_space_group_name_H-M   'P 21/c'
_symmetry_Int_Tables_number      14
_space_group_name_Hall           '-P 2ybc'
loop_
_symmetry_equiv_pos_site_id
_symmetry_equiv_pos_as_xyz
1 x,y,z
2 -x,1/2+y,1/2-z
3 -x,-y,-z
4 x,1/2-y,1/2+z
_cell_length_a                   13.449(6)
_cell_length_b                   16.200(6)
_cell_length_c                   9.939(4)
_cell_angle_alpha                90
_cell_angle_beta                 94.807(5)
_cell_angle_gamma                90
_cell_volume                     2157.83
_exptl_crystal_colour            colorless
_exptl_crystal_description       prism
_chemical_melting_point          '181-182 deg.C'
_cell_formula_units_Z            4
loop_
_atom_site_label
_atom_site_type_symbol
_atom_site_fract_x
_atom_site_fract_y
_atom_site_fract_z
O1 O 0.77763(6) 0.23387(4) 0.78915(7)
O2 O 0.56873(6) 0.07959(5) 0.98502(8)
O3 O 0.87564(6) -0.02239(5) 0.74081(9)
O4 O 0.71197(6) -0.03257(4) 0.77851(8)
C1 C 0.60280(9) 0.26684(7) 1.05181(11)
H1 H 0.5917 0.2125 1.0834
C2 C 0.55874(9) 0.33334(7) 1.11097(12)
H2 H 0.5178 0.3243 1.1830
C3 C 0.57375(9) 0.41281(7) 1.06619(12)
H3 H 0.5439 0.4583 1.1077
C4 C 0.63264(9) 0.42553(7) 0.96052(12)
H4 H 0.6426 0.4800 0.9289
C5 C 0.67724(9) 0.35949(7) 0.90022(12)
H5 H 0.7173 0.3691 0.8275
C6 C 0.66368(8) 0.27893(6) 0.94569(11)
C7 C 0.71372(8) 0.21061(7) 0.88314(11)
C8 C 0.71482(8) 0.12623(6) 0.89258(11)
C9 C 0.78196(8) 0.09676(7) 0.79811(11)
C10 C 0.81891(8) 0.16485(6) 0.73655(11)
C11 C 0.88615(8) 0.18230(7) 0.63110(11)
C12 C 0.91525(8) 0.26396(7) 0.61043(11)
H6 H 0.8912 0.3068 0.6644
C13 C 0.97871(9) 0.28302(8) 0.51203(12)
H7 H 0.9979 0.3387 0.4991
C14 C 1.01427(9) 0.22132(8) 0.43259(12)
H8 H 1.0587 0.2343 0.3662
C15 C 0.98472(9) 0.14046(8) 0.45052(12)
H9 H 1.0082 0.0981 0.3951
C16 C 0.92127(9) 0.12084(7) 0.54849(12)
H10 H 0.9014 0.0651 0.5597
C17 C 0.65930(8) 0.07368(6) 0.98379(11)
C18 C 0.71713(8) 0.01484(7) 1.07693(11)
C19 C 0.82088(9) 0.01863(7) 1.09939(12)
H11 H 0.8570 0.0586 1.0533
C20 C 0.87165(9) -0.03584(7) 1.18896(12)
H12 H 0.9422 -0.0325 1.2050
C21 C 0.81910(10) -0.09494(8) 1.25481(12)
H13 H 0.8537 -0.1326 1.3153
C22 C 0.71606(9) -0.09911(8) 1.23234(12)
H14 H 0.6803 -0.1398 1.2774
C23 C 0.66483(9) -0.04432(7) 1.14456(11)
H15 H 0.5942 -0.0471 1.1305
C24 C 0.79781(8) 0.00796(7) 0.76880(11)
C25 C 0.70419(9) -0.12351(7) 0.75853(12)
C26 C 0.77923(9) -0.16748(7) 0.85609(13)
H16 H 0.8467 -0.1579 0.8292
H17 H 0.7652 -0.2268 0.8545
H18 H 0.7743 -0.1461 0.9475
C27 C 0.59827(9) -0.14088(7) 0.79154(13)
H19 H 0.5910 -0.1264 0.8859
H20 H 0.5835 -0.1996 0.7776
H21 H 0.5518 -0.1079 0.7325
C28 C 0.71777(9) -0.14342(7) 0.61141(12)
H22 H 0.6673 -0.1139 0.5529
H23 H 0.7102 -0.2030 0.5966
H24 H 0.7845 -0.1262 0.5900
loop_
_geom_bond_atom_site_label_1
_geom_bond_atom_site_label_2
_geom_bond_site_symmetry_1
_geom_bond_site_symmetry_2
O1 C7 1_555 1_555
O2 C17 1_555 1_555
O3 C24 1_555 1_555
O4 C24 1_555 1_555
C1 H1 1_555 1_555
C2 C1 1_555 1_555
H2 C2 1_555 1_555
C3 C2 1_555 1_555
H3 C3 1_555 1_555
C4 C3 1_555 1_555
H4 C4 1_555 1_555
C5 C4 1_555 1_555
H5 C5 1_555 1_555
C6 C1 1_555 1_555
C7 C6 1_555 1_555
C8 C7 1_555 1_555
C9 C8 1_555 1_555
C10 O1 1_555 1_555
C11 C10 1_555 1_555
C12 C11 1_555 1_555
H6 C12 1_555 1_555
C13 C12 1_555 1_555
H7 C13 1_555 1_555
C14 C13 1_555 1_555
H8 C14 1_555 1_555
C15 C14 1_555 1_555
H9 C15 1_555 1_555
C16 C11 1_555 1_555
H10 C16 1_555 1_555
C17 C8 1_555 1_555
C18 C17 1_555 1_555
C19 C18 1_555 1_555
H11 C19 1_555 1_555
C20 C19 1_555 1_555
H12 C20 1_555 1_555
C21 C20 1_555 1_555
H13 C21 1_555 1_555
C22 C21 1_555 1_555
H14 C22 1_555 1_555
C23 C18 1_555 1_555
H15 C23 1_555 1_555
C24 C9 1_555 1_555
C25 O4 1_555 1_555
C26 C25 1_555 1_555
H16 C26 1_555 1_555
H17 C26 1_555 1_555
H18 C26 1_555 1_555
C27 C25 1_555 1_555
H19 C27 1_555 1_555
H20 C27 1_555 1_555
H21 C27 1_555 1_555
C28 C25 1_555 1_555
H22 C28 1_555 1_555
H23 C28 1_555 1_555
H24 C28 1_555 1_555
C5 C6 1_555 1_555
C9 C10 1_555 1_555
C15 C16 1_555 1_555
C22 C23 1_555 1_555

#END
