
#######################################################################
#
#                 Cambridge Crystallographic Data Centre
#                                CCDC 
#
#######################################################################
#
# If this CIF has been generated from an entry in the Cambridge 
# Structural Database, then it will include bibliographic, chemical, 
# crystal, experimental, refinement or atomic coordinate data resulting 
# from the CCDC's data processing and validation procedures.
#
#######################################################################

data_ACOBAX
_chemical_formula_moiety         'C17 H21 N3 O2 Si1'
_chemical_name_systematic        
4-(4-Nitrophenyl)-1-propyl-3-((trimethylsilyl)ethynyl)-1H-pyrazole
_symmetry_cell_setting           monoclinic
_symmetry_space_group_name_H-M   'C 2/c'
_symmetry_Int_Tables_number      15
_space_group_name_Hall           '-C 2yn'
loop_
_symmetry_equiv_pos_site_id
_symmetry_equiv_pos_as_xyz
1 x,y,z
2 -x,y,1/2-z
3 1/2+x,1/2+y,z
4 1/2-x,1/2+y,1/2-z
5 -x,-y,-z
6 x,-y,1/2+z
7 1/2-x,1/2-y,-z
8 1/2+x,1/2-y,1/2+z
_cell_length_a                   31.863(4)
_cell_length_b                   9.2476(11)
_cell_length_c                   12.1396(14)
_cell_angle_alpha                90
_cell_angle_beta                 92.955(2)
_cell_angle_gamma                90
_cell_volume                     3572.25
_exptl_crystal_colour            colorless
_exptl_crystal_description       prism
_chemical_melting_point          '102-104 deg.C'
_cell_formula_units_Z            8
_exptl_crystal_recrystallization_method dichloromethane/hexane
loop_
_atom_site_label
_atom_site_type_symbol
_atom_site_fract_x
_atom_site_fract_y
_atom_site_fract_z
Si1 Si 0.088375(11) 1.07549(4) 0.57445(3)
O1 O 0.03599(3) 0.29361(12) 1.02664(9)
O2 O -0.00359(3) 0.40168(12) 0.90168(9)
N1 N 0.22193(3) 0.76137(11) 0.67457(9)
N2 N 0.24276(3) 0.65101(12) 0.72537(9)
N3 N 0.03092(4) 0.37267(13) 0.94574(10)
C1 C 0.18158(4) 0.74174(13) 0.69878(10)
C2 C 0.15098(4) 0.84594(13) 0.66042(10)
C3 C 0.12603(4) 0.93606(13) 0.62772(10)
C4 C 0.17678(4) 0.61703(13) 0.76560(10)
C5 C 0.21741(4) 0.56315(14) 0.77978(10)
H1 H 0.2257 0.4794 0.8206
C6 C 0.28794(4) 0.63521(15) 0.71293(11)
H2 H 0.2990 0.5578 0.7627
H3 H 0.3023 0.7265 0.7350
C7 C 0.29791(4) 0.59866(16) 0.59526(12)
H4 H 0.3288 0.5944 0.5902
H5 H 0.2872 0.6771 0.5459
C8 C 0.27906(5) 0.45596(18) 0.55523(12)
H6 H 0.2868 0.4380 0.4794
H7 H 0.2484 0.4604 0.5575
H8 H 0.2898 0.3775 0.6030
C9 C 0.11097(5) 1.25486(15) 0.61237(14)
H9 H 0.1146 1.2621 0.6928
H10 H 0.0919 1.3313 0.5846
H11 H 0.1383 1.2658 0.5797
C10 C 0.08284(5) 1.05319(17) 0.42254(11)
H12 H 0.0751 0.9530 0.4048
H13 H 0.1096 1.0762 0.3903
H14 H 0.0609 1.1185 0.3923
C11 C 0.03735(4) 1.04604(16) 0.63746(12)
H15 H 0.0292 0.9442 0.6296
H16 H 0.0158 1.1070 0.6002
H17 H 0.0400 1.0713 0.7159
C12 C 0.13900(4) 0.55644(13) 0.81199(10)
C13 C 0.09867(4) 0.59532(14) 0.77126(11)
H18 H 0.0955 0.6637 0.7130
C14 C 0.06319(4) 0.53533(14) 0.81476(11)
H19 H 0.0359 0.5622 0.7870
C15 C 0.06839(4) 0.43588(14) 0.89912(11)
C16 C 0.10777(4) 0.39420(14) 0.94167(11)
H20 H 0.1106 0.3252 0.9995
C17 C 0.14277(4) 0.45542(14) 0.89784(11)
H21 H 0.1699 0.4284 0.9265
loop_
_geom_bond_atom_site_label_1
_geom_bond_atom_site_label_2
_geom_bond_site_symmetry_1
_geom_bond_site_symmetry_2
Si1 C3 1_555 1_555
O1 N3 1_555 1_555
O2 N3 1_555 1_555
N1 N2 1_555 1_555
N2 C5 1_555 1_555
N3 C15 1_555 1_555
C1 N1 1_555 1_555
C2 C1 1_555 1_555
C3 C2 1_555 1_555
C4 C1 1_555 1_555
C5 C4 1_555 1_555
H1 C5 1_555 1_555
C6 N2 1_555 1_555
H2 C6 1_555 1_555
H3 C6 1_555 1_555
C7 C6 1_555 1_555
H4 C7 1_555 1_555
H5 C7 1_555 1_555
C8 C7 1_555 1_555
H6 C8 1_555 1_555
H7 C8 1_555 1_555
H8 C8 1_555 1_555
C9 Si1 1_555 1_555
H9 C9 1_555 1_555
H10 C9 1_555 1_555
H11 C9 1_555 1_555
C10 Si1 1_555 1_555
H12 C10 1_555 1_555
H13 C10 1_555 1_555
H14 C10 1_555 1_555
C11 Si1 1_555 1_555
H15 C11 1_555 1_555
H16 C11 1_555 1_555
H17 C11 1_555 1_555
C12 C4 1_555 1_555
C13 C12 1_555 1_555
H18 C13 1_555 1_555
C14 C13 1_555 1_555
H19 C14 1_555 1_555
C15 C14 1_555 1_555
C16 C15 1_555 1_555
H20 C16 1_555 1_555
C17 C12 1_555 1_555
H21 C17 1_555 1_555
C16 C17 1_555 1_555

#END
