
#######################################################################
#
#                 Cambridge Crystallographic Data Centre
#                                CCDC 
#
#######################################################################
#
# If this CIF has been generated from an entry in the Cambridge 
# Structural Database, then it will include bibliographic, chemical, 
# crystal, experimental, refinement or atomic coordinate data resulting 
# from the CCDC's data processing and validation procedures.
#
#######################################################################

data_ACOFUV
_chemical_name_common            9,10-bis(4-(Heptyloxy)styryl)anthracene
_chemical_formula_moiety         'C44 H50 O2'
_chemical_name_systematic        
9,10-bis(2-(4-(n-Heptyloxy)phenyl)vinyl)anthracene
_symmetry_cell_setting           triclinic
_symmetry_space_group_name_H-M   'P -1'
_symmetry_Int_Tables_number      2
_space_group_name_Hall           '-P 1'
loop_
_symmetry_equiv_pos_site_id
_symmetry_equiv_pos_as_xyz
1 x,y,z
2 -x,-y,-z
_cell_length_a                   9.0098(5)
_cell_length_b                   15.1250(8)
_cell_length_c                   20.0151(10)
_cell_angle_alpha                74.953(4)
_cell_angle_beta                 80.961(4)
_cell_angle_gamma                79.000(4)
_cell_volume                     2568.91
_exptl_crystal_colour            yellow
_exptl_crystal_description       block
_cell_formula_units_Z            3
loop_
_atom_site_label
_atom_site_type_symbol
_atom_site_fract_x
_atom_site_fract_y
_atom_site_fract_z
C1 C 0.63852(16) 0.51771(10) 0.86194(7)
C2 C 0.68605(16) 0.46186(10) 0.92557(7)
C3 C 0.82797(17) 0.46656(10) 0.94669(7)
H1 H 0.8947 0.5043 0.9157
C4 C 0.87008(17) 0.41844(11) 1.01000(7)
H2 H 0.9651 0.4227 1.0228
C5 C 0.77160(18) 0.36171(10) 1.05688(7)
H3 H 0.7990 0.3303 1.1019
C6 C 0.63894(17) 0.35202(10) 1.03787(7)
H4 H 0.5755 0.3131 1.0699
C7 C 0.59134(16) 0.39878(10) 0.97084(7)
C8 C 0.45302(16) 0.39008(10) 0.95007(7)
C9 C 0.40580(16) 0.44590(10) 0.88633(7)
C10 C 0.26470(17) 0.44165(11) 0.86399(7)
H5 H 0.2040 0.3974 0.8914
C11 C 0.21497(18) 0.49877(12) 0.80487(8)
H6 H 0.1200 0.4947 0.7918
C12 C 0.30444(19) 0.56468(12) 0.76226(8)
H7 H 0.2685 0.6052 0.7212
C13 C 0.44119(18) 0.56971(11) 0.78021(7)
H8 H 0.5007 0.6132 0.7507
C14 C 0.49815(16) 0.51139(10) 0.84229(7)
C15 C 0.73181(17) 0.58911(11) 0.82127(7)
H9 H 0.7373 0.6376 0.8425
C16 C 0.80770(18) 0.59247(11) 0.75903(7)
H10 H 0.8039 0.5435 0.7380
C17 C 0.89785(16) 0.66427(11) 0.71860(7)
C18 C 0.96774(18) 0.65959(11) 0.65242(7)
H11 H 0.9612 0.6077 0.6352
C19 C 1.04727(18) 0.72845(11) 0.61038(7)
H12 H 1.0936 0.7235 0.5652
C20 C 1.05787(17) 0.80389(11) 0.63519(7)
C21 C 0.9951(2) 0.80783(12) 0.70263(8)
H13 H 1.0072 0.8578 0.7208
C22 C 0.9155(2) 0.73996(12) 0.74312(8)
H14 H 0.8716 0.7445 0.7887
C23 C 0.35131(16) 0.32688(10) 0.99515(7)
H15 H 0.2470 0.3526 1.0026
C24 C 0.39013(16) 0.23784(10) 1.02647(7)
H16 H 0.4935 0.2107 1.0185
C25 C 0.28544(16) 0.17831(10) 1.07246(7)
C26 C 0.34224(17) 0.09926(10) 1.12061(7)
H17 H 0.4492 0.0833 1.1217
C27 C 0.24733(17) 0.04284(10) 1.16716(7)
H18 H 0.2891 -0.0103 1.1997
C28 C 0.09164(17) 0.06527(10) 1.16531(7)
C29 C 0.03190(17) 0.14296(10) 1.11659(7)
H19 H -0.0750 0.1580 1.1149
C30 C 0.12751(16) 0.19799(10) 1.07093(7)
H20 H 0.0854 0.2503 1.0378
C31 C 1.18440(18) 0.88105(11) 0.52738(7)
H21 H 1.1037 0.8750 0.5013
H22 H 1.2695 0.8295 0.5246
C32 C 1.23935(19) 0.97310(12) 0.49708(8)
H23 H 1.3150 0.9796 0.5257
H24 H 1.1523 1.0237 0.4994
C33 C 1.31112(19) 0.98353(12) 0.42193(8)
H25 H 1.3954 0.9314 0.4194
H26 H 1.2341 0.9796 0.3930
C34 C 1.37239(19) 1.07429(12) 0.39208(8)
H27 H 1.4415 1.0808 0.4238
H28 H 1.2862 1.1261 0.3908
C35 C 1.45764(19) 1.08311(11) 0.31948(8)
H29 H 1.5391 1.0289 0.3198
H30 H 1.3864 1.0818 0.2869
C36 C 1.5283(2) 1.17092(12) 0.29277(8)
H31 H 1.4468 1.2252 0.2920
H32 H 1.5989 1.1725 0.3255
C37 C 1.6143(2) 1.17908(13) 0.22052(9)
H33 H 1.6893 1.1230 0.2197
H34 H 1.6666 1.2333 0.2085
H35 H 1.5427 1.1862 0.1867
C38 C 0.03165(18) -0.05436(11) 1.26719(7)
H36 H 0.0911 -0.0310 1.2947
H37 H 0.0947 -0.1086 1.2523
C39 C -0.11502(19) -0.08025(12) 1.30951(8)
H38 H -0.1703 -0.1047 1.2810
H39 H -0.1795 -0.0234 1.3197
C40 C -0.09383(18) -0.15180(11) 1.37788(7)
H40 H -0.0482 -0.1257 1.4089
H41 H -0.0232 -0.2072 1.3688
C41 C -0.24570(19) -0.17984(12) 1.41370(8)
H42 H -0.3176 -0.1230 1.4186
H43 H -0.2870 -0.2087 1.3830
C42 C -0.24119(19) -0.24655(11) 1.48512(7)
H44 H -0.2092 -0.2163 1.5176
H45 H -0.1647 -0.3021 1.4816
C43 C -0.3955(2) -0.27650(14) 1.51436(9)
H46 H -0.4706 -0.2209 1.5192
H47 H -0.4290 -0.3039 1.4805
C44 C -0.3958(2) -0.34614(14) 1.58434(9)
H48 H -0.3284 -0.4036 1.5793
H49 H -0.4994 -0.3592 1.6010
H50 H -0.3597 -0.3205 1.6180
O1 O 1.12615(14) 0.87825(8) 0.59835(5)
O2 O -0.01455(12) 0.01699(8) 1.20797(5)
C45 C 0.09851(17) 0.55958(10) 0.45488(7)
C46 C -0.03575(17) 0.54874(10) 0.43203(7)
C47 C -0.08370(19) 0.59907(11) 0.36579(7)
H51 H -0.0202 0.6390 0.3349
C48 C -0.2174(2) 0.59137(12) 0.34584(8)
H52 H -0.2465 0.6266 0.3019
C49 C -0.31324(19) 0.53119(12) 0.39029(8)
H53 H -0.4053 0.5249 0.3757
C50 C 0.27347(18) 0.51762(12) 0.54617(8)
H54 H 0.3398 0.5569 0.5166
C51 C 0.13504(17) 0.51163(10) 0.52250(7)
C52 C 0.19912(17) 0.62474(11) 0.41225(7)
H55 H 0.2182 0.6704 0.4332
C53 C 0.26620(18) 0.62670(11) 0.34766(7)
H56 H 0.2507 0.5799 0.3269
C54 C 0.36170(17) 0.69423(11) 0.30549(7)
C55 C 0.42413(18) 0.68758(11) 0.23849(8)
H57 H 0.4067 0.6378 0.2215
C56 C 0.51152(18) 0.75168(11) 0.19554(7)
H58 H 0.5515 0.7460 0.1498
C57 C 0.53958(17) 0.82374(11) 0.22017(7)
C58 C 0.47975(19) 0.83086(11) 0.28741(7)
H59 H 0.4994 0.8798 0.3047
C59 C 0.39266(19) 0.76779(11) 0.32890(7)
H60 H 0.3524 0.7742 0.3745
C60 C 0.65091(18) 0.90595(11) 0.10988(7)
H61 H 0.5529 0.9223 0.0898
H62 H 0.7085 0.8496 0.0961
C61 C 0.74162(17) 0.98529(11) 0.08440(7)
H63 H 0.8474 0.9625 0.0956
H64 H 0.6976 1.0340 0.1099
C62 C 0.74477(17) 1.02805(11) 0.00674(7)
H65 H 0.6392 1.0491 -0.0053
H66 H 0.7937 0.9806 -0.0192
C63 C 0.83177(17) 1.11006(11) -0.01505(7)
H67 H 0.7795 1.1576 0.0102
H68 H 0.9347 1.0888 0.0001
C64 C 0.84873(18) 1.15558(11) -0.09235(7)
H69 H 0.7465 1.1778 -0.1082
H70 H 0.9028 1.1091 -0.1183
C65 C 0.9366(2) 1.23705(12) -0.10873(8)
H71 H 0.8740 1.2874 -0.0888
H72 H 1.0307 1.2169 -0.0855
C66 C 0.9792(3) 1.27529(16) -0.18562(9)
H73 H 1.0475 1.2273 -0.2052
H74 H 1.0308 1.3289 -0.1921
H75 H 0.8870 1.2944 -0.2094
O3 O 0.62514(13) 0.89026(8) 0.18411(5)
C45A C -0.09851(17) 0.44042(10) 0.54512(7)
C46A C 0.03575(17) 0.45126(10) 0.56797(7)
C47A C 0.08370(19) 0.40093(11) 0.63421(7)
H51A H 0.0202 0.3610 0.6651
C48A C 0.2174(2) 0.40863(12) 0.65416(8)
H52A H 0.2465 0.3734 0.6981
C49A C 0.31324(19) 0.46881(12) 0.60971(8)
H53A H 0.4053 0.4751 0.6243
C50A C -0.27347(18) 0.48238(12) 0.45383(8)
H54A H -0.3398 0.4431 0.4834
C51A C -0.13504(17) 0.48837(10) 0.47750(7)
C52A C -0.19912(17) 0.37526(11) 0.58775(7)
H55A H -0.2182 0.3296 0.5668
C53A C -0.26620(18) 0.37330(11) 0.65234(7)
H56A H -0.2507 0.4201 0.6731
C54A C -0.36170(17) 0.30577(11) 0.69451(7)
C55A C -0.42413(18) 0.31242(11) 0.76151(8)
H57A H -0.4067 0.3622 0.7785
C56A C -0.51152(18) 0.24832(11) 0.80446(7)
H58A H -0.5515 0.2540 0.8502
C57A C -0.53958(17) 0.17626(11) 0.77983(7)
C58A C -0.47975(19) 0.16914(11) 0.71259(7)
H59A H -0.4994 0.1202 0.6953
C59A C -0.39266(19) 0.23221(11) 0.67110(7)
H60A H -0.3524 0.2258 0.6255
C60A C -0.65091(18) 0.09405(11) 0.89012(7)
H61A H -0.5529 0.0777 0.9102
H62A H -0.7085 0.1504 0.9039
C61A C -0.74162(17) 0.01471(11) 0.91560(7)
H63A H -0.8474 0.0375 0.9044
H64A H -0.6976 -0.0340 0.8901
C62A C -0.74477(17) -0.02805(11) 0.99326(7)
H65A H -0.6392 -0.0491 1.0053
H66A H -0.7937 0.0194 1.0192
C63A C -0.83177(17) -0.11006(11) 1.01505(7)
H67A H -0.7795 -0.1576 0.9898
H68A H -0.9347 -0.0888 0.9999
C64A C -0.84873(18) -0.15558(11) 1.09235(7)
H69A H -0.7465 -0.1778 1.1082
H70A H -0.9028 -0.1091 1.1183
C65A C -0.9366(2) -0.23705(12) 1.10873(8)
H71A H -0.8740 -0.2874 1.0888
H72A H -1.0307 -0.2169 1.0855
C66A C -0.9792(3) -0.27529(16) 1.18562(9)
H73A H -1.0475 -0.2273 1.2052
H74A H -1.0308 -0.3289 1.1921
H75A H -0.8870 -0.2944 1.2094
O3A O -0.62514(13) 0.10974(8) 0.81589(5)
loop_
_geom_bond_atom_site_label_1
_geom_bond_atom_site_label_2
_geom_bond_site_symmetry_1
_geom_bond_site_symmetry_2
C1 C2 1_555 1_555
C2 C3 1_555 1_555
C3 H1 1_555 1_555
C4 C3 1_555 1_555
H2 C4 1_555 1_555
C5 C4 1_555 1_555
H3 C5 1_555 1_555
C6 C5 1_555 1_555
H4 C6 1_555 1_555
C7 C2 1_555 1_555
C8 C7 1_555 1_555
C9 C8 1_555 1_555
C10 C9 1_555 1_555
H5 C10 1_555 1_555
C11 C10 1_555 1_555
H6 C11 1_555 1_555
C12 C11 1_555 1_555
H7 C12 1_555 1_555
C13 C12 1_555 1_555
H8 C13 1_555 1_555
C14 C1 1_555 1_555
C15 C1 1_555 1_555
H9 C15 1_555 1_555
C16 C15 1_555 1_555
H10 C16 1_555 1_555
C17 C16 1_555 1_555
C18 C17 1_555 1_555
H11 C18 1_555 1_555
C19 C18 1_555 1_555
H12 C19 1_555 1_555
C20 C19 1_555 1_555
C21 C20 1_555 1_555
H13 C21 1_555 1_555
C22 C17 1_555 1_555
H14 C22 1_555 1_555
C23 C8 1_555 1_555
H15 C23 1_555 1_555
C24 C23 1_555 1_555
H16 C24 1_555 1_555
C25 C24 1_555 1_555
C26 C25 1_555 1_555
H17 C26 1_555 1_555
C27 C26 1_555 1_555
H18 C27 1_555 1_555
C28 C27 1_555 1_555
C29 C28 1_555 1_555
H19 C29 1_555 1_555
C30 C25 1_555 1_555
H20 C30 1_555 1_555
C31 H21 1_555 1_555
H22 C31 1_555 1_555
C32 C31 1_555 1_555
H23 C32 1_555 1_555
H24 C32 1_555 1_555
C33 C32 1_555 1_555
H25 C33 1_555 1_555
H26 C33 1_555 1_555
C34 C33 1_555 1_555
H27 C34 1_555 1_555
H28 C34 1_555 1_555
C35 C34 1_555 1_555
H29 C35 1_555 1_555
H30 C35 1_555 1_555
C36 C35 1_555 1_555
H31 C36 1_555 1_555
H32 C36 1_555 1_555
C37 C36 1_555 1_555
H33 C37 1_555 1_555
H34 C37 1_555 1_555
H35 C37 1_555 1_555
C38 H36 1_555 1_555
H37 C38 1_555 1_555
C39 C38 1_555 1_555
H38 C39 1_555 1_555
H39 C39 1_555 1_555
C40 C39 1_555 1_555
H40 C40 1_555 1_555
H41 C40 1_555 1_555
C41 C40 1_555 1_555
H42 C41 1_555 1_555
H43 C41 1_555 1_555
C42 C41 1_555 1_555
H44 C42 1_555 1_555
H45 C42 1_555 1_555
C43 C42 1_555 1_555
H46 C43 1_555 1_555
H47 C43 1_555 1_555
C44 C43 1_555 1_555
H48 C44 1_555 1_555
H49 C44 1_555 1_555
H50 C44 1_555 1_555
C45 C46 1_555 1_555
C46 C47 1_555 1_555
C47 H51 1_555 1_555
C48 C47 1_555 1_555
H52 C48 1_555 1_555
C49 C48 1_555 1_555
H53 C49 1_555 1_555
C50 H54 1_555 1_555
C51 C45 1_555 1_555
C52 C45 1_555 1_555
H55 C52 1_555 1_555
C53 C52 1_555 1_555
H56 C53 1_555 1_555
C54 C53 1_555 1_555
C55 C54 1_555 1_555
H57 C55 1_555 1_555
C56 C55 1_555 1_555
H58 C56 1_555 1_555
C57 C56 1_555 1_555
C58 C57 1_555 1_555
H59 C58 1_555 1_555
C59 C54 1_555 1_555
H60 C59 1_555 1_555
C60 H61 1_555 1_555
H62 C60 1_555 1_555
C61 C60 1_555 1_555
H63 C61 1_555 1_555
H64 C61 1_555 1_555
C62 C61 1_555 1_555
H65 C62 1_555 1_555
H66 C62 1_555 1_555
C63 C62 1_555 1_555
H67 C63 1_555 1_555
H68 C63 1_555 1_555
C64 C63 1_555 1_555
H69 C64 1_555 1_555
H70 C64 1_555 1_555
C65 C64 1_555 1_555
H71 C65 1_555 1_555
H72 C65 1_555 1_555
C66 C65 1_555 1_555
H73 C66 1_555 1_555
H74 C66 1_555 1_555
H75 C66 1_555 1_555
O1 C20 1_555 1_555
O2 C28 1_555 1_555
O3 C57 1_555 1_555
C45A C46A 1_555 1_555
C46A C51 1_555 1_555
C47A C46A 1_555 1_555
H51A C47A 1_555 1_555
C48A C47A 1_555 1_555
H52A C48A 1_555 1_555
C49A C50 1_555 1_555
H53A C49A 1_555 1_555
C50A C49 1_555 1_555
H54A C50A 1_555 1_555
C51A C46 1_555 1_555
C52A C45A 1_555 1_555
H55A C52A 1_555 1_555
C53A C52A 1_555 1_555
H56A C53A 1_555 1_555
C54A C53A 1_555 1_555
C55A C54A 1_555 1_555
H57A C55A 1_555 1_555
C56A C55A 1_555 1_555
H58A C56A 1_555 1_555
C57A C56A 1_555 1_555
C58A C57A 1_555 1_555
H59A C58A 1_555 1_555
C59A C54A 1_555 1_555
H60A C59A 1_555 1_555
C60A H61A 1_555 1_555
H62A C60A 1_555 1_555
C61A C60A 1_555 1_555
H63A C61A 1_555 1_555
H64A C61A 1_555 1_555
C62A C61A 1_555 1_555
H65A C62A 1_555 1_555
H66A C62A 1_555 1_555
C63A C62A 1_555 1_555
H67A C63A 1_555 1_555
H68A C63A 1_555 1_555
C64A C63A 1_555 1_555
H69A C64A 1_555 1_555
H70A C64A 1_555 1_555
C65A C64A 1_555 1_555
H71A C65A 1_555 1_555
H72A C65A 1_555 1_555
C66A C65A 1_555 1_555
H73A C66A 1_555 1_555
H74A C66A 1_555 1_555
H75A C66A 1_555 1_555
O3A C57A 1_555 1_555
C6 C7 1_555 1_555
C9 C14 1_555 1_555
C13 C14 1_555 1_555
C21 C22 1_555 1_555
C29 C30 1_555 1_555
C31 O1 1_555 1_555
C38 O2 1_555 1_555
C50 C51 1_555 1_555
C58 C59 1_555 1_555
C60 O3 1_555 1_555
C45A C51A 1_555 1_555
C48A C49A 1_555 1_555
C50A C51A 1_555 1_555
C58A C59A 1_555 1_555
C60A O3A 1_555 1_555

#END
