
#######################################################################
#
#                 Cambridge Crystallographic Data Centre
#                                CCDC 
#
#######################################################################
#
# If this CIF has been generated from an entry in the Cambridge 
# Structural Database, then it will include bibliographic, chemical, 
# crystal, experimental, refinement or atomic coordinate data resulting 
# from the CCDC's data processing and validation procedures.
#
#######################################################################

data_ACOGIK
_chemical_name_common            9,10-bis(4-(Decyloxy)styryl)anthracene
_chemical_formula_moiety         'C50 H62 O2'
_chemical_name_systematic        
9,10-bis(2-(4-(n-Decyloxy)phenyl)vinyl)anthracene
_symmetry_cell_setting           triclinic
_symmetry_space_group_name_H-M   'P -1'
_symmetry_Int_Tables_number      2
_space_group_name_Hall           '-P 1'
loop_
_symmetry_equiv_pos_site_id
_symmetry_equiv_pos_as_xyz
1 x,y,z
2 -x,-y,-z
_cell_length_a                   5.2873(11)
_cell_length_b                   11.926(2)
_cell_length_c                   16.467(3)
_cell_angle_alpha                95.422(3)
_cell_angle_beta                 98.427(3)
_cell_angle_gamma                96.703(3)
_cell_volume                     1013.51
_exptl_crystal_colour            yellow
_exptl_crystal_description       block
_cell_formula_units_Z            1
loop_
_atom_site_label
_atom_site_type_symbol
_atom_site_fract_x
_atom_site_fract_y
_atom_site_fract_z
C1 C 0.9113(3) 1.40764(11) 0.43689(8)
C2 C 0.7836(3) 1.50496(11) 0.43973(8)
C3 C 0.5638(3) 1.51400(13) 0.38023(9)
H1 H 0.5026 1.4530 0.3379
C4 C 0.4398(3) 1.60750(14) 0.38252(9)
H2 H 0.2913 1.6105 0.3430
C5 C 0.5315(3) 1.70038(13) 0.44374(10)
H3 H 0.4456 1.7660 0.4448
C6 C 0.7411(3) 1.69634(12) 0.50083(9)
H4 H 0.8019 1.7603 0.5407
C7 C 0.8738(3) 1.59829(11) 0.50282(8)
C8 C 0.8158(3) 1.31216(12) 0.37079(9)
H5 H 0.6512 1.2709 0.3713
C9 C 0.9435(3) 1.28077(12) 0.31154(9)
H6 H 1.1046 1.3254 0.3117
C10 C 0.8713(3) 1.18624(11) 0.24526(8)
C11 C 1.0238(3) 1.17560(12) 0.18293(8)
H7 H 1.1700 1.2305 0.1841
C12 C 0.9669(3) 1.08719(11) 0.11974(8)
H8 H 1.0732 1.0820 0.0781
C13 C 0.7543(3) 1.00609(11) 0.11723(8)
C14 C 0.6000(3) 1.01424(11) 0.17814(8)
H9 H 0.4540 0.9590 0.1767
C15 C 0.6596(3) 1.10349(12) 0.24139(8)
H10 H 0.5532 1.1082 0.2830
C16 C 0.5013(3) 0.83375(11) 0.04734(8)
H11 H 0.3362 0.8659 0.0404
H12 H 0.5151 0.7952 0.0982
C17 C 0.5136(3) 0.75093(11) -0.02691(8)
H13 H 0.6870 0.7261 -0.0213
H14 H 0.4901 0.7904 -0.0772
C18 C 0.3114(3) 0.64675(11) -0.03754(9)
H15 H 0.1374 0.6710 -0.0442
H16 H 0.3333 0.6072 0.0127
C19 C 0.3327(3) 0.56495(12) -0.11237(9)
H17 H 0.3069 0.6049 -0.1624
H18 H 0.5097 0.5440 -0.1062
C20 C 0.1417(3) 0.45651(11) -0.12562(9)
H19 H 0.1649 0.4163 -0.0757
H20 H -0.0361 0.4765 -0.1335
C21 C 0.1760(3) 0.37745(12) -0.20016(9)
H21 H 0.3556 0.3597 -0.1922
H22 H 0.1520 0.4185 -0.2497
C22 C -0.0056(3) 0.26607(11) -0.21708(9)
H23 H -0.1860 0.2827 -0.2224
H24 H 0.0255 0.2217 -0.1696
C23 C 0.0300(3) 0.19492(12) -0.29547(9)
H25 H 0.0121 0.2419 -0.3419
H26 H 0.2075 0.1745 -0.2883
C24 C -0.1591(3) 0.08679(12) -0.31823(9)
H27 H -0.3370 0.1063 -0.3220
H28 H -0.1331 0.0370 -0.2738
C25 C -0.1297(4) 0.02192(15) -0.39983(11)
H29 H -0.1498 0.0715 -0.4439
H30 H -0.2620 -0.0447 -0.4130
H31 H 0.0417 -0.0028 -0.3951
O1 O 0.71374(19) 0.92159(8) 0.05262(6)
C1A C 1.0887(3) 1.59236(11) 0.56311(8)
C2A C 1.2164(3) 1.49504(11) 0.56027(8)
C3A C 1.4362(3) 1.48600(13) 0.61977(9)
H1A H 1.4974 1.5470 0.6621
C4A C 1.5602(3) 1.39250(14) 0.61748(9)
H2A H 1.7087 1.3895 0.6570
C5A C 1.4685(3) 1.29962(13) 0.55626(10)
H3A H 1.5544 1.2340 0.5552
C6A C 1.2589(3) 1.30366(12) 0.49917(9)
H4A H 1.1981 1.2397 0.4593
C7A C 1.1262(3) 1.40171(11) 0.49718(8)
C8A C 1.1842(3) 1.68784(12) 0.62921(9)
H5A H 1.3488 1.7291 0.6287
C9A C 1.0565(3) 1.71923(12) 0.68846(9)
H6A H 0.8954 1.6746 0.6883
C10A C 1.1287(3) 1.81376(11) 0.75474(8)
C11A C 0.9762(3) 1.82440(12) 0.81707(8)
H7A H 0.8300 1.7695 0.8159
C12A C 1.0331(3) 1.91281(11) 0.88026(8)
H8A H 0.9268 1.9180 0.9219
C13A C 1.2457(3) 1.99391(11) 0.88277(8)
C14A C 1.4000(3) 1.98576(11) 0.82186(8)
H9A H 1.5460 2.0410 0.8233
C15A C 1.3404(3) 1.89651(12) 0.75861(8)
H10A H 1.4468 1.8918 0.7170
C16A C 1.4987(3) 2.16625(11) 0.95266(8)
H11A H 1.6638 2.1341 0.9596
H12A H 1.4849 2.2048 0.9018
C17A C 1.4864(3) 2.24907(11) 1.02691(8)
H13A H 1.3130 2.2739 1.0213
H14A H 1.5099 2.2096 1.0772
C18A C 1.6886(3) 2.35325(11) 1.03754(9)
H15A H 1.8626 2.3290 1.0442
H16A H 1.6667 2.3928 0.9873
C19A C 1.6673(3) 2.43505(12) 1.11237(9)
H17A H 1.6931 2.3951 1.1624
H18A H 1.4903 2.4560 1.1062
C20A C 1.8583(3) 2.54349(11) 1.12562(9)
H19A H 1.8351 2.5837 1.0757
H20A H 2.0361 2.5235 1.1335
C21A C 1.8240(3) 2.62255(12) 1.20016(9)
H21A H 1.6444 2.6403 1.1922
H22A H 1.8480 2.5815 1.2497
C22A C 2.0056(3) 2.73393(11) 1.21708(9)
H23A H 2.1860 2.7173 1.2224
H24A H 1.9745 2.7783 1.1696
C23A C 1.9700(3) 2.80508(12) 1.29547(9)
H25A H 1.9879 2.7581 1.3419
H26A H 1.7925 2.8255 1.2883
C24A C 2.1591(3) 2.91321(12) 1.31823(9)
H27A H 2.3370 2.8937 1.3220
H28A H 2.1331 2.9630 1.2738
C25A C 2.1297(4) 2.97808(15) 1.39983(11)
H29A H 2.1498 2.9285 1.4439
H30A H 2.2620 3.0447 1.4130
H31A H 1.9583 3.0028 1.3951
O1A O 1.28626(19) 2.07841(8) 0.94738(6)
loop_
_geom_bond_atom_site_label_1
_geom_bond_atom_site_label_2
_geom_bond_site_symmetry_1
_geom_bond_site_symmetry_2
C1 C2 1_555 1_555
C2 C3 1_555 1_555
C3 H1 1_555 1_555
C4 C3 1_555 1_555
H2 C4 1_555 1_555
C5 C4 1_555 1_555
H3 C5 1_555 1_555
C6 C5 1_555 1_555
H4 C6 1_555 1_555
C7 C2 1_555 1_555
C8 C1 1_555 1_555
H5 C8 1_555 1_555
C9 C8 1_555 1_555
H6 C9 1_555 1_555
C10 C9 1_555 1_555
C11 C10 1_555 1_555
H7 C11 1_555 1_555
C12 C11 1_555 1_555
H8 C12 1_555 1_555
C13 C12 1_555 1_555
C14 C13 1_555 1_555
H9 C14 1_555 1_555
C15 C10 1_555 1_555
H10 C15 1_555 1_555
C16 H11 1_555 1_555
H12 C16 1_555 1_555
C17 C16 1_555 1_555
H13 C17 1_555 1_555
H14 C17 1_555 1_555
C18 C17 1_555 1_555
H15 C18 1_555 1_555
H16 C18 1_555 1_555
C19 C18 1_555 1_555
H17 C19 1_555 1_555
H18 C19 1_555 1_555
C20 C19 1_555 1_555
H19 C20 1_555 1_555
H20 C20 1_555 1_555
C21 C20 1_555 1_555
H21 C21 1_555 1_555
H22 C21 1_555 1_555
C22 C21 1_555 1_555
H23 C22 1_555 1_555
H24 C22 1_555 1_555
C23 C22 1_555 1_555
H25 C23 1_555 1_555
H26 C23 1_555 1_555
C24 C23 1_555 1_555
H27 C24 1_555 1_555
H28 C24 1_555 1_555
C25 C24 1_555 1_555
H29 C25 1_555 1_555
H30 C25 1_555 1_555
H31 C25 1_555 1_555
O1 C13 1_555 1_555
C1A C7 1_555 1_555
C2A C1A 1_555 1_555
C3A C2A 1_555 1_555
H1A C3A 1_555 1_555
C4A C3A 1_555 1_555
H2A C4A 1_555 1_555
C5A C4A 1_555 1_555
H3A C5A 1_555 1_555
C6A C5A 1_555 1_555
H4A C6A 1_555 1_555
C7A C1 1_555 1_555
C8A C1A 1_555 1_555
H5A C8A 1_555 1_555
C9A C8A 1_555 1_555
H6A C9A 1_555 1_555
C10A C9A 1_555 1_555
C11A C10A 1_555 1_555
H7A C11A 1_555 1_555
C12A C11A 1_555 1_555
H8A C12A 1_555 1_555
C13A C12A 1_555 1_555
C14A C13A 1_555 1_555
H9A C14A 1_555 1_555
C15A C10A 1_555 1_555
H10A C15A 1_555 1_555
C16A H11A 1_555 1_555
H12A C16A 1_555 1_555
C17A C16A 1_555 1_555
H13A C17A 1_555 1_555
H14A C17A 1_555 1_555
C18A C17A 1_555 1_555
H15A C18A 1_555 1_555
H16A C18A 1_555 1_555
C19A C18A 1_555 1_555
H17A C19A 1_555 1_555
H18A C19A 1_555 1_555
C20A C19A 1_555 1_555
H19A C20A 1_555 1_555
H20A C20A 1_555 1_555
C21A C20A 1_555 1_555
H21A C21A 1_555 1_555
H22A C21A 1_555 1_555
C22A C21A 1_555 1_555
H23A C22A 1_555 1_555
H24A C22A 1_555 1_555
C23A C22A 1_555 1_555
H25A C23A 1_555 1_555
H26A C23A 1_555 1_555
C24A C23A 1_555 1_555
H27A C24A 1_555 1_555
H28A C24A 1_555 1_555
C25A C24A 1_555 1_555
H29A C25A 1_555 1_555
H30A C25A 1_555 1_555
H31A C25A 1_555 1_555
O1A C13A 1_555 1_555
C6 C7 1_555 1_555
C14 C15 1_555 1_555
C16 O1 1_555 1_555
C2A C7A 1_555 1_555
C6A C7A 1_555 1_555
C14A C15A 1_555 1_555
C16A O1A 1_555 1_555

#END
