
#######################################################################
#
#                 Cambridge Crystallographic Data Centre
#                                CCDC 
#
#######################################################################
#
# If this CIF has been generated from an entry in the Cambridge 
# Structural Database, then it will include bibliographic, chemical, 
# crystal, experimental, refinement or atomic coordinate data resulting 
# from the CCDC's data processing and validation procedures.
#
#######################################################################

data_ACOGOQ
_chemical_name_common            9,10-bis(4-(Undecyloxy)styryl)anthracene
_chemical_formula_moiety         'C52 H66 O2'
_chemical_name_systematic        
9,10-bis(2-(4-(n-Undecyloxy)phenyl)vinyl)anthracene
_symmetry_cell_setting           triclinic
_symmetry_space_group_name_H-M   'P -1'
_symmetry_Int_Tables_number      2
_space_group_name_Hall           '-P 1'
loop_
_symmetry_equiv_pos_site_id
_symmetry_equiv_pos_as_xyz
1 x,y,z
2 -x,-y,-z
_cell_length_a                   5.7012(6)
_cell_length_b                   7.8232(7)
_cell_length_c                   23.669(3)
_cell_angle_alpha                92.182(8)
_cell_angle_beta                 96.212(8)
_cell_angle_gamma                92.041(8)
_cell_volume                     1047.88
_exptl_crystal_colour            yellow
_exptl_crystal_description       block
_cell_formula_units_Z            1
loop_
_atom_site_label
_atom_site_type_symbol
_atom_site_fract_x
_atom_site_fract_y
_atom_site_fract_z
C1 C -0.2254(3) -0.19914(18) -0.01652(6)
H1 H -0.0800 -0.1735 0.0063
C2 C -0.3636(2) -0.34779(15) -0.00581(5)
C3 C -0.2864(2) -0.46162(15) 0.03678(5)
C4 C -0.5800(2) -0.38557(15) -0.04198(5)
C5 C -0.6496(2) -0.26861(16) -0.08524(5)
H2 H -0.7936 -0.2906 -0.1090
C6 C -0.5141(3) -0.12691(18) -0.09305(6)
H3 H -0.5651 -0.0502 -0.1216
C7 C -0.2977(3) -0.09347(19) -0.05878(6)
H4 H -0.2014 0.0039 -0.0653
C8 C -0.0718(2) -0.42294(16) 0.07711(5)
H5 H 0.0481 -0.5044 0.0793
C9 C -0.0362(2) -0.28076(15) 0.11057(5)
H6 H -0.1533 -0.1976 0.1056
C10 C 0.1627(2) -0.23805(15) 0.15414(5)
C11 C 0.3668(2) -0.33331(16) 0.16104(5)
H7 H 0.3828 -0.4280 0.1356
C12 C 0.5450(2) -0.29191(16) 0.20420(5)
H8 H 0.6814 -0.3586 0.2081
C13 C 0.5268(2) -0.15303(16) 0.24220(5)
C14 C 0.3300(2) -0.05374(16) 0.23546(5)
H9 H 0.3171 0.0430 0.2603
C15 C 0.1516(2) -0.09749(15) 0.19186(5)
H10 H 0.0169 -0.0291 0.1876
C16 C 0.7012(2) 0.01320(16) 0.32498(5)
H11 H 0.5613 -0.0031 0.3459
H12 H 0.6899 0.1234 0.3058
C17 C 0.9255(2) 0.01311(16) 0.36556(5)
H13 H 1.0628 0.0273 0.3437
H14 H 0.9355 -0.0994 0.3833
C18 C 0.9409(2) 0.15377(16) 0.41249(5)
H15 H 0.9313 0.2665 0.3949
H16 H 0.8045 0.1396 0.4347
C19 C 1.1690(2) 0.15084(16) 0.45261(5)
H17 H 1.3045 0.1666 0.4302
H18 H 1.1795 0.0367 0.4692
C20 C 1.1904(2) 0.28723(16) 0.50101(5)
H19 H 1.0544 0.2726 0.5233
H20 H 1.1827 0.4017 0.4846
C21 C 1.4189(2) 0.27990(16) 0.54092(5)
H21 H 1.4275 0.1645 0.5566
H22 H 1.5544 0.2960 0.5185
C22 C 1.4436(2) 0.41317(16) 0.59031(5)
H23 H 1.4374 0.5289 0.5748
H24 H 1.3081 0.3980 0.6127
C23 C 1.6721(2) 0.40151(16) 0.62963(5)
H25 H 1.8066 0.4113 0.6066
H26 H 1.6746 0.2869 0.6460
C24 C 1.7092(2) 0.53642(16) 0.67830(5)
H27 H 1.7143 0.6514 0.6623
H28 H 1.5733 0.5297 0.7009
C25 C 1.9359(2) 0.51433(17) 0.71729(6)
H29 H 1.9273 0.4009 0.7343
H30 H 2.0704 0.5154 0.6941
C26 C 1.9847(3) 0.65114(18) 0.76503(6)
H31 H 2.0029 0.7635 0.7487
H32 H 2.1302 0.6264 0.7888
H33 H 1.8526 0.6516 0.7883
O1 O 0.71194(15) -0.12487(12) 0.28406(4)
C1A C -0.7746(3) -0.80086(18) 0.01652(6)
H1A H -0.9200 -0.8265 -0.0063
C2A C -0.6364(2) -0.65221(15) 0.00581(5)
C3A C -0.7136(2) -0.53838(15) -0.03678(5)
C4A C -0.4200(2) -0.61443(15) 0.04198(5)
C5A C -0.3504(2) -0.73139(16) 0.08524(5)
H2A H -0.2064 -0.7094 0.1090
C6A C -0.4859(3) -0.87309(18) 0.09305(6)
H3A H -0.4349 -0.9498 0.1216
C7A C -0.7023(3) -0.90653(19) 0.05878(6)
H4A H -0.7986 -1.0039 0.0653
C8A C -0.9282(2) -0.57706(16) -0.07711(5)
H5A H -1.0481 -0.4956 -0.0793
C9A C -0.9638(2) -0.71924(15) -0.11057(5)
H6A H -0.8467 -0.8024 -0.1056
C10A C -1.1627(2) -0.76195(15) -0.15414(5)
C11A C -1.3668(2) -0.66669(16) -0.16104(5)
H7A H -1.3828 -0.5720 -0.1356
C12A C -1.5450(2) -0.70809(16) -0.20420(5)
H8A H -1.6814 -0.6414 -0.2081
C13A C -1.5268(2) -0.84697(16) -0.24220(5)
C14A C -1.3300(2) -0.94626(16) -0.23546(5)
H9A H -1.3171 -1.0430 -0.2603
C15A C -1.1516(2) -0.90251(15) -0.19186(5)
H10A H -1.0169 -0.9709 -0.1876
C16A C -1.7012(2) -1.01320(16) -0.32498(5)
H11A H -1.5613 -0.9969 -0.3459
H12A H -1.6899 -1.1234 -0.3058
C17A C -1.9255(2) -1.01311(16) -0.36556(5)
H13A H -2.0628 -1.0273 -0.3437
H14A H -1.9355 -0.9006 -0.3833
C18A C -1.9409(2) -1.15377(16) -0.41249(5)
H15A H -1.9313 -1.2665 -0.3949
H16A H -1.8045 -1.1396 -0.4347
C19A C -2.1690(2) -1.15084(16) -0.45261(5)
H17A H -2.3045 -1.1666 -0.4302
H18A H -2.1795 -1.0367 -0.4692
C20A C -2.1904(2) -1.28723(16) -0.50101(5)
H19A H -2.0544 -1.2726 -0.5233
H20A H -2.1827 -1.4017 -0.4846
C21A C -2.4189(2) -1.27990(16) -0.54092(5)
H21A H -2.4275 -1.1645 -0.5566
H22A H -2.5544 -1.2960 -0.5185
C22A C -2.4436(2) -1.41317(16) -0.59031(5)
H23A H -2.4374 -1.5289 -0.5748
H24A H -2.3081 -1.3980 -0.6127
C23A C -2.6721(2) -1.40151(16) -0.62963(5)
H25A H -2.8066 -1.4113 -0.6066
H26A H -2.6746 -1.2869 -0.6460
C24A C -2.7092(2) -1.53642(16) -0.67830(5)
H27A H -2.7143 -1.6514 -0.6623
H28A H -2.5733 -1.5297 -0.7009
C25A C -2.9359(2) -1.51433(17) -0.71729(6)
H29A H -2.9273 -1.4009 -0.7343
H30A H -3.0704 -1.5154 -0.6941
C26A C -2.9847(3) -1.65114(18) -0.76503(6)
H31A H -3.0029 -1.7635 -0.7487
H32A H -3.1302 -1.6264 -0.7888
H33A H -2.8526 -1.6516 -0.7883
O1A O -1.71194(15) -0.87513(12) -0.28406(4)
loop_
_geom_bond_atom_site_label_1
_geom_bond_atom_site_label_2
_geom_bond_site_symmetry_1
_geom_bond_site_symmetry_2
C1 H1 1_555 1_555
C2 C1 1_555 1_555
C3 C2 1_555 1_555
C4 C2 1_555 1_555
C5 C4 1_555 1_555
H2 C5 1_555 1_555
C6 C5 1_555 1_555
H3 C6 1_555 1_555
C7 C1 1_555 1_555
H4 C7 1_555 1_555
C8 C3 1_555 1_555
H5 C8 1_555 1_555
C9 C8 1_555 1_555
H6 C9 1_555 1_555
C10 C9 1_555 1_555
C11 C10 1_555 1_555
H7 C11 1_555 1_555
C12 C11 1_555 1_555
H8 C12 1_555 1_555
C13 C12 1_555 1_555
C14 C13 1_555 1_555
H9 C14 1_555 1_555
C15 C10 1_555 1_555
H10 C15 1_555 1_555
C16 H11 1_555 1_555
H12 C16 1_555 1_555
C17 C16 1_555 1_555
H13 C17 1_555 1_555
H14 C17 1_555 1_555
C18 C17 1_555 1_555
H15 C18 1_555 1_555
H16 C18 1_555 1_555
C19 C18 1_555 1_555
H17 C19 1_555 1_555
H18 C19 1_555 1_555
C20 C19 1_555 1_555
H19 C20 1_555 1_555
H20 C20 1_555 1_555
C21 C20 1_555 1_555
H21 C21 1_555 1_555
H22 C21 1_555 1_555
C22 C21 1_555 1_555
H23 C22 1_555 1_555
H24 C22 1_555 1_555
C23 C22 1_555 1_555
H25 C23 1_555 1_555
H26 C23 1_555 1_555
C24 C23 1_555 1_555
H27 C24 1_555 1_555
H28 C24 1_555 1_555
C25 C24 1_555 1_555
H29 C25 1_555 1_555
H30 C25 1_555 1_555
C26 C25 1_555 1_555
H31 C26 1_555 1_555
H32 C26 1_555 1_555
H33 C26 1_555 1_555
O1 C13 1_555 1_555
C1A H1A 1_555 1_555
C2A C1A 1_555 1_555
C3A C4 1_555 1_555
C4A C3 1_555 1_555
C5A C4A 1_555 1_555
H2A C5A 1_555 1_555
C6A C5A 1_555 1_555
H3A C6A 1_555 1_555
C7A C1A 1_555 1_555
H4A C7A 1_555 1_555
C8A C3A 1_555 1_555
H5A C8A 1_555 1_555
C9A C8A 1_555 1_555
H6A C9A 1_555 1_555
C10A C9A 1_555 1_555
C11A C10A 1_555 1_555
H7A C11A 1_555 1_555
C12A C11A 1_555 1_555
H8A C12A 1_555 1_555
C13A C12A 1_555 1_555
C14A C13A 1_555 1_555
H9A C14A 1_555 1_555
C15A C10A 1_555 1_555
H10A C15A 1_555 1_555
C16A H11A 1_555 1_555
H12A C16A 1_555 1_555
C17A C16A 1_555 1_555
H13A C17A 1_555 1_555
H14A C17A 1_555 1_555
C18A C17A 1_555 1_555
H15A C18A 1_555 1_555
H16A C18A 1_555 1_555
C19A C18A 1_555 1_555
H17A C19A 1_555 1_555
H18A C19A 1_555 1_555
C20A C19A 1_555 1_555
H19A C20A 1_555 1_555
H20A C20A 1_555 1_555
C21A C20A 1_555 1_555
H21A C21A 1_555 1_555
H22A C21A 1_555 1_555
C22A C21A 1_555 1_555
H23A C22A 1_555 1_555
H24A C22A 1_555 1_555
C23A C22A 1_555 1_555
H25A C23A 1_555 1_555
H26A C23A 1_555 1_555
C24A C23A 1_555 1_555
H27A C24A 1_555 1_555
H28A C24A 1_555 1_555
C25A C24A 1_555 1_555
H29A C25A 1_555 1_555
H30A C25A 1_555 1_555
C26A C25A 1_555 1_555
H31A C26A 1_555 1_555
H32A C26A 1_555 1_555
H33A C26A 1_555 1_555
O1A C13A 1_555 1_555
C6 C7 1_555 1_555
C14 C15 1_555 1_555
C16 O1 1_555 1_555
C2A C3A 1_555 1_555
C2A C4A 1_555 1_555
C6A C7A 1_555 1_555
C14A C15A 1_555 1_555
C16A O1A 1_555 1_555

#END
