
#######################################################################
#
#                 Cambridge Crystallographic Data Centre
#                                CCDC 
#
#######################################################################
#
# If this CIF has been generated from an entry in the Cambridge 
# Structural Database, then it will include bibliographic, chemical, 
# crystal, experimental, refinement or atomic coordinate data resulting 
# from the CCDC's data processing and validation procedures.
#
#######################################################################

data_ACOGEG
_chemical_name_common            9,10-bis(4-(Nonyloxy)styryl)anthracene
_chemical_formula_moiety         'C48 H58 O2'
_chemical_name_systematic        
9,10-bis(2-(4-(n-Nonyloxy)phenyl)vinyl)anthracene
_symmetry_cell_setting           triclinic
_symmetry_space_group_name_H-M   'P -1'
_symmetry_Int_Tables_number      2
_space_group_name_Hall           '-P 1'
loop_
_symmetry_equiv_pos_site_id
_symmetry_equiv_pos_as_xyz
1 x,y,z
2 -x,-y,-z
_cell_length_a                   8.7236(13)
_cell_length_b                   12.0059(18)
_cell_length_c                   19.476(3)
_cell_angle_alpha                103.551(2)
_cell_angle_beta                 100.225(2)
_cell_angle_gamma                100.499(2)
_cell_volume                     1897.38
_exptl_crystal_colour            yellow
_exptl_crystal_description       block
_cell_formula_units_Z            2
loop_
_atom_site_label
_atom_site_type_symbol
_atom_site_fract_x
_atom_site_fract_y
_atom_site_fract_z
C1 C 0.98050(17) 0.59061(13) 0.75755(8)
C2 C 1.00353(18) 0.70224(13) 0.74663(8)
H1 H 1.0867 0.7647 0.7789
C3 C 0.90625(18) 0.72258(13) 0.68920(8)
H2 H 0.9224 0.7995 0.6827
C4 C 0.78440(17) 0.63229(13) 0.64031(8)
C5 C 0.76935(18) 0.52045(13) 0.65036(8)
H3 H 0.6907 0.4567 0.6165
C6 C 0.86561(18) 0.49862(13) 0.70838(8)
H4 H 0.8524 0.4212 0.7141
C7 C 0.66975(17) 0.65178(13) 0.58174(8)
H5 H 0.6006 0.5834 0.5475
C8 C 0.65276(17) 0.75457(13) 0.57177(8)
H6 H 0.7268 0.8227 0.6040
C9 C 0.53023(16) 0.77442(12) 0.51564(7)
C10 C 0.58106(16) 0.84472(12) 0.47147(7)
C11 C 0.74736(17) 0.88820(13) 0.47657(8)
H7 H 0.8243 0.8626 0.5064
C12 C 0.79790(18) 0.96534(13) 0.43980(8)
H8 H 0.9093 0.9934 0.4443
C13 C 0.68557(18) 1.00421(13) 0.39479(8)
H9 H 0.7219 1.0614 0.3712
C14 C 0.52670(17) 0.96033(12) 0.38511(7)
H10 H 0.4531 0.9857 0.3535
C15 C 0.46638(16) 0.87660(12) 0.42129(7)
C16 C 0.30146(17) 0.83160(12) 0.41318(7)
C17 C 0.25061(16) 0.76258(12) 0.45810(7)
C18 C 0.08452(17) 0.72048(13) 0.45420(8)
H11 H 0.0071 0.7332 0.4177
C19 C 0.03420(18) 0.66287(14) 0.50122(8)
H12 H -0.0772 0.6376 0.4981
C20 C 0.14649(18) 0.64026(14) 0.55480(8)
H13 H 0.1104 0.6013 0.5882
C21 C 0.30557(18) 0.67377(13) 0.55892(8)
H14 H 0.3794 0.6561 0.5946
C22 C 0.36515(16) 0.73531(12) 0.51071(7)
C23 C 0.18019(17) 0.86410(13) 0.36317(8)
H15 H 0.0992 0.8939 0.3832
C24 C 0.17174(17) 0.85625(13) 0.29313(8)
H16 H 0.2474 0.8213 0.2718
C25 C 0.05605(17) 0.89678(12) 0.24599(7)
C26 C 0.08221(18) 0.91105(14) 0.18020(8)
H17 H 0.1716 0.8881 0.1644
C27 C -0.01736(18) 0.95778(14) 0.13632(8)
H18 H 0.0041 0.9662 0.0914
C28 C -0.14736(17) 0.99170(12) 0.15864(7)
C29 C -0.17889(18) 0.97474(14) 0.22339(8)
H19 H -0.2700 0.9958 0.2384
C30 C -0.07992(17) 0.92795(14) 0.26605(8)
H20 H -0.1043 0.9166 0.3099
C31 C 1.03578(18) 0.47785(14) 0.84165(8)
H21 H 1.0467 0.4078 0.8059
H22 H 0.9235 0.4653 0.8468
C32 C 1.14868(19) 0.49713(13) 0.91372(8)
H23 H 1.1365 0.5680 0.9483
H24 H 1.2601 0.5125 0.9076
C33 C 1.12093(19) 0.39350(14) 0.94574(8)
H25 H 1.1295 0.3219 0.9106
H26 H 1.0109 0.3799 0.9538
C34 C 1.24007(19) 0.41313(14) 1.01718(8)
H27 H 1.3498 0.4288 1.0090
H28 H 1.2299 0.4843 1.0522
C35 C 1.2195(2) 0.31079(14) 1.05096(8)
H29 H 1.1126 0.2983 1.0624
H30 H 1.2232 0.2383 1.0151
C36 C 1.3466(2) 0.33046(14) 1.11960(8)
H31 H 1.4534 0.3504 1.1088
H32 H 1.3363 0.3992 1.1566
C37 C 1.3390(2) 0.22644(14) 1.15149(8)
H33 H 1.2337 0.2079 1.1638
H34 H 1.3463 0.1570 1.1141
C38 C 1.4698(2) 0.24667(15) 1.21861(9)
H35 H 1.4598 0.3139 1.2568
H36 H 1.5752 0.2683 1.2069
C39 C 1.4649(2) 0.14036(16) 1.24813(10)
H37 H 1.3622 0.1198 1.2613
H38 H 1.5525 0.1588 1.2912
H39 H 1.4767 0.0737 1.2110
C40 C -0.21837(18) 1.07193(14) 0.05849(8)
H40 H -0.2318 0.9990 0.0193
H41 H -0.1068 1.1184 0.0686
C41 C -0.33420(18) 1.14276(14) 0.03556(8)
H42 H -0.3093 1.2202 0.0721
H43 H -0.4444 1.1012 0.0337
C42 C -0.32598(19) 1.16170(14) -0.03862(8)
H44 H -0.2159 1.2043 -0.0362
H45 H -0.3480 1.0839 -0.0746
C43 C -0.44370(18) 1.23088(14) -0.06469(8)
H46 H -0.5538 1.1884 -0.0670
H47 H -0.4215 1.3088 -0.0288
C44 C -0.43530(18) 1.24928(14) -0.13892(8)
H48 H -0.3256 1.2928 -0.1364
H49 H -0.4558 1.1714 -0.1746
C45 C -0.55418(19) 1.31669(14) -0.16565(8)
H50 H -0.5321 1.3951 -0.1303
H51 H -0.6635 1.2741 -0.1670
C46 C -0.55011(19) 1.33369(14) -0.24041(8)
H52 H -0.4434 1.3815 -0.2384
H53 H -0.5649 1.2558 -0.2753
C47 C -0.6777(2) 1.39372(14) -0.26796(8)
H54 H -0.7845 1.3421 -0.2743
H55 H -0.6695 1.4679 -0.2307
C48 C -0.6662(2) 1.42192(15) -0.33920(9)
H56 H -0.5629 1.4761 -0.3329
H57 H -0.7533 1.4588 -0.3540
H58 H -0.6750 1.3490 -0.3766
O1 O 1.07798(13) 0.58133(9) 0.81832(6)
O2 O -0.25114(12) 1.04311(9) 0.12239(5)
loop_
_geom_bond_atom_site_label_1
_geom_bond_atom_site_label_2
_geom_bond_site_symmetry_1
_geom_bond_site_symmetry_2
C1 C2 1_555 1_555
C2 H1 1_555 1_555
C3 C2 1_555 1_555
H2 C3 1_555 1_555
C4 C3 1_555 1_555
C5 C4 1_555 1_555
H3 C5 1_555 1_555
C6 C1 1_555 1_555
H4 C6 1_555 1_555
C7 C4 1_555 1_555
H5 C7 1_555 1_555
C8 C7 1_555 1_555
H6 C8 1_555 1_555
C9 C8 1_555 1_555
C10 C9 1_555 1_555
C11 C10 1_555 1_555
H7 C11 1_555 1_555
C12 C11 1_555 1_555
H8 C12 1_555 1_555
C13 C12 1_555 1_555
H9 C13 1_555 1_555
C14 C13 1_555 1_555
H10 C14 1_555 1_555
C15 C10 1_555 1_555
C16 C15 1_555 1_555
C17 C16 1_555 1_555
C18 C17 1_555 1_555
H11 C18 1_555 1_555
C19 C18 1_555 1_555
H12 C19 1_555 1_555
C20 C19 1_555 1_555
H13 C20 1_555 1_555
C21 C20 1_555 1_555
H14 C21 1_555 1_555
C22 C9 1_555 1_555
C23 C16 1_555 1_555
H15 C23 1_555 1_555
C24 C23 1_555 1_555
H16 C24 1_555 1_555
C25 C24 1_555 1_555
C26 C25 1_555 1_555
H17 C26 1_555 1_555
C27 C26 1_555 1_555
H18 C27 1_555 1_555
C28 C27 1_555 1_555
C29 C28 1_555 1_555
H19 C29 1_555 1_555
C30 C25 1_555 1_555
H20 C30 1_555 1_555
C31 H21 1_555 1_555
H22 C31 1_555 1_555
C32 C31 1_555 1_555
H23 C32 1_555 1_555
H24 C32 1_555 1_555
C33 C32 1_555 1_555
H25 C33 1_555 1_555
H26 C33 1_555 1_555
C34 C33 1_555 1_555
H27 C34 1_555 1_555
H28 C34 1_555 1_555
C35 C34 1_555 1_555
H29 C35 1_555 1_555
H30 C35 1_555 1_555
C36 C35 1_555 1_555
H31 C36 1_555 1_555
H32 C36 1_555 1_555
C37 C36 1_555 1_555
H33 C37 1_555 1_555
H34 C37 1_555 1_555
C38 C37 1_555 1_555
H35 C38 1_555 1_555
H36 C38 1_555 1_555
C39 C38 1_555 1_555
H37 C39 1_555 1_555
H38 C39 1_555 1_555
H39 C39 1_555 1_555
C40 H40 1_555 1_555
H41 C40 1_555 1_555
C41 C40 1_555 1_555
H42 C41 1_555 1_555
H43 C41 1_555 1_555
C42 C41 1_555 1_555
H44 C42 1_555 1_555
H45 C42 1_555 1_555
C43 C42 1_555 1_555
H46 C43 1_555 1_555
H47 C43 1_555 1_555
C44 C43 1_555 1_555
H48 C44 1_555 1_555
H49 C44 1_555 1_555
C45 C44 1_555 1_555
H50 C45 1_555 1_555
H51 C45 1_555 1_555
C46 C45 1_555 1_555
H52 C46 1_555 1_555
H53 C46 1_555 1_555
C47 C46 1_555 1_555
H54 C47 1_555 1_555
H55 C47 1_555 1_555
C48 C47 1_555 1_555
H56 C48 1_555 1_555
H57 C48 1_555 1_555
H58 C48 1_555 1_555
O1 C1 1_555 1_555
O2 C28 1_555 1_555
C5 C6 1_555 1_555
C14 C15 1_555 1_555
C17 C22 1_555 1_555
C21 C22 1_555 1_555
C29 C30 1_555 1_555
C31 O1 1_555 1_555
C40 O2 1_555 1_555

#END
