
#######################################################################
#
#                 Cambridge Crystallographic Data Centre
#                                CCDC 
#
#######################################################################
#
# If this CIF has been generated from an entry in the Cambridge 
# Structural Database, then it will include bibliographic, chemical, 
# crystal, experimental, refinement or atomic coordinate data resulting 
# from the CCDC's data processing and validation procedures.
#
#######################################################################

data_ACOGUW
_chemical_name_common            9,10-bis(4-(Dodecyloxy)styryl)anthracene
_chemical_formula_moiety         'C54 H70 O2'
_chemical_name_systematic        
9,10-bis(2-(4-(n-Dodecyloxy)phenyl)vinyl)anthracene
_symmetry_cell_setting           triclinic
_symmetry_space_group_name_H-M   'P -1'
_symmetry_Int_Tables_number      2
_space_group_name_Hall           '-P 1'
loop_
_symmetry_equiv_pos_site_id
_symmetry_equiv_pos_as_xyz
1 x,y,z
2 -x,-y,-z
_cell_length_a                   5.4356(9)
_cell_length_b                   7.4034(14)
_cell_length_c                   27.665(3)
_cell_angle_alpha                86.595(11)
_cell_angle_beta                 84.863(10)
_cell_angle_gamma                89.167(14)
_cell_volume                     1106.82
_exptl_crystal_colour            yellow
_exptl_crystal_description       block
_cell_formula_units_Z            1
loop_
_atom_site_label
_atom_site_type_symbol
_atom_site_fract_x
_atom_site_fract_y
_atom_site_fract_z
C1 C 0.4760(2) 1.34693(17) 0.03363(5)
C2 C 0.6456(2) 1.48422(17) 0.03981(5)
C3 C 0.7986(3) 1.47393(18) 0.07912(5)
H1 H 0.7819 1.3741 0.1024
C4 C 0.9677(3) 1.60309(19) 0.08422(5)
H2 H 1.0683 1.5921 0.1106
C5 C 0.9948(3) 1.75366(19) 0.05048(5)
H3 H 1.1146 1.8430 0.0540
C6 C 0.8502(3) 1.77101(18) 0.01296(5)
H4 H 0.8689 1.8740 -0.0092
C7 C 0.6701(2) 1.63835(17) 0.00582(5)
C8 C 0.4607(3) 1.18323(18) 0.06756(5)
H5 H 0.5731 1.0872 0.0602
C9 C 0.3081(3) 1.15878(19) 0.10641(5)
H6 H 0.1982 1.2565 0.1136
C10 C 0.2848(2) 0.99850(18) 0.14051(5)
C11 C 0.4610(2) 0.85986(18) 0.14070(5)
H7 H 0.6045 0.8700 0.1185
C12 C 0.4332(3) 0.70799(18) 0.17223(5)
H8 H 0.5569 0.6160 0.1718
C13 C 0.2225(2) 0.69101(18) 0.20467(5)
C14 C 0.0445(2) 0.82867(19) 0.20546(5)
H9 H -0.0988 0.8184 0.2277
C15 C 0.0763(3) 0.97948(19) 0.17398(5)
H10 H -0.0459 1.0726 0.1750
C16 C 0.3502(3) 0.39865(18) 0.23578(5)
H11 H 0.5137 0.4420 0.2430
H12 H 0.3676 0.3489 0.2032
C17 C 0.2582(3) 0.25440(18) 0.27362(5)
H13 H 0.0962 0.2105 0.2657
H14 H 0.2344 0.3071 0.3058
C18 C 0.4398(3) 0.09532(18) 0.27604(5)
H15 H 0.4598 0.0415 0.2440
H16 H 0.6030 0.1407 0.2828
C19 C 0.3570(3) -0.05098(18) 0.31486(5)
H17 H 0.1955 -0.0981 0.3077
H18 H 0.3337 0.0034 0.3468
C20 C 0.5407(3) -0.20785(18) 0.31795(5)
H19 H 0.5609 -0.2631 0.2861
H20 H 0.7031 -0.1594 0.3241
C21 C 0.4672(3) -0.35482(18) 0.35715(5)
H21 H 0.3081 -0.4072 0.3505
H22 H 0.4425 -0.2999 0.3890
C22 C 0.6601(3) -0.50581(19) 0.35997(5)
H23 H 0.6869 -0.5581 0.3278
H24 H 0.8182 -0.4529 0.3671
C23 C 0.5915(3) -0.65729(19) 0.39814(5)
H25 H 0.4334 -0.7106 0.3912
H26 H 0.5661 -0.6058 0.4305
C24 C 0.7874(3) -0.80634(19) 0.39980(5)
H27 H 0.8125 -0.8571 0.3674
H28 H 0.9453 -0.7523 0.4066
C25 C 0.7241(3) -0.95974(19) 0.43770(5)
H29 H 0.5632 -1.0113 0.4318
H30 H 0.7061 -0.9104 0.4703
C26 C 0.9181(3) -1.1102(2) 0.43720(6)
H31 H 0.9377 -1.1580 0.4044
H32 H 1.0784 -1.0586 0.4435
C27 C 0.8558(4) -1.2657(2) 0.47443(6)
H33 H 0.8444 -1.2209 0.5072
H34 H 0.9856 -1.3587 0.4716
H35 H 0.6974 -1.3179 0.4685
O1 O 0.17405(18) 0.54536(13) 0.23676(4)
C1A C 0.5240(2) 1.65307(17) -0.03363(5)
C2A C 0.3544(2) 1.51578(17) -0.03981(5)
C3A C 0.2014(3) 1.52607(18) -0.07912(5)
H1A H 0.2181 1.6259 -0.1024
C4A C 0.0323(3) 1.39691(19) -0.08422(5)
H2A H -0.0683 1.4079 -0.1106
C5A C 0.0052(3) 1.24634(19) -0.05048(5)
H3A H -0.1146 1.1570 -0.0540
C6A C 0.1498(3) 1.22899(18) -0.01296(5)
H4A H 0.1311 1.1260 0.0092
C7A C 0.3299(2) 1.36165(17) -0.00582(5)
C8A C 0.5393(3) 1.81677(18) -0.06756(5)
H5A H 0.4269 1.9128 -0.0602
C9A C 0.6919(3) 1.84122(19) -0.10641(5)
H6A H 0.8018 1.7435 -0.1136
C10A C 0.7152(2) 2.00150(18) -0.14051(5)
C11A C 0.5390(2) 2.14014(18) -0.14070(5)
H7A H 0.3955 2.1300 -0.1185
C12A C 0.5668(3) 2.29201(18) -0.17223(5)
H8A H 0.4431 2.3840 -0.1718
C13A C 0.7775(2) 2.30899(18) -0.20467(5)
C14A C 0.9555(2) 2.17133(19) -0.20546(5)
H9A H 1.0988 2.1816 -0.2277
C15A C 0.9237(3) 2.02052(19) -0.17398(5)
H10A H 1.0459 1.9274 -0.1750
C16A C 0.6498(3) 2.60135(18) -0.23578(5)
H11A H 0.4863 2.5580 -0.2430
H12A H 0.6324 2.6511 -0.2032
C17A C 0.7418(3) 2.74560(18) -0.27362(5)
H13A H 0.9038 2.7895 -0.2657
H14A H 0.7656 2.6929 -0.3058
C18A C 0.5602(3) 2.90468(18) -0.27604(5)
H15A H 0.5402 2.9585 -0.2440
H16A H 0.3970 2.8593 -0.2828
C19A C 0.6430(3) 3.05098(18) -0.31486(5)
H17A H 0.8045 3.0981 -0.3077
H18A H 0.6663 2.9966 -0.3468
C20A C 0.4593(3) 3.20785(18) -0.31795(5)
H19A H 0.4391 3.2631 -0.2861
H20A H 0.2969 3.1594 -0.3241
C21A C 0.5328(3) 3.35482(18) -0.35715(5)
H21A H 0.6919 3.4072 -0.3505
H22A H 0.5575 3.2999 -0.3890
C22A C 0.3399(3) 3.50581(19) -0.35997(5)
H23A H 0.3131 3.5581 -0.3278
H24A H 0.1818 3.4529 -0.3671
C23A C 0.4085(3) 3.65729(19) -0.39814(5)
H25A H 0.5666 3.7106 -0.3912
H26A H 0.4339 3.6058 -0.4305
C24A C 0.2126(3) 3.80634(19) -0.39980(5)
H27A H 0.1875 3.8571 -0.3674
H28A H 0.0547 3.7523 -0.4066
C25A C 0.2759(3) 3.95974(19) -0.43770(5)
H29A H 0.4368 4.0113 -0.4318
H30A H 0.2939 3.9104 -0.4703
C26A C 0.0819(3) 4.1102(2) -0.43720(6)
H31A H 0.0623 4.1580 -0.4044
H32A H -0.0784 4.0586 -0.4435
C27A C 0.1442(4) 4.2657(2) -0.47443(6)
H33A H 0.1556 4.2209 -0.5072
H34A H 0.0144 4.3587 -0.4716
H35A H 0.3026 4.3179 -0.4685
O1A O 0.82595(18) 2.45464(13) -0.23676(4)
loop_
_geom_bond_atom_site_label_1
_geom_bond_atom_site_label_2
_geom_bond_site_symmetry_1
_geom_bond_site_symmetry_2
C1 C2 1_555 1_555
C2 C3 1_555 1_555
C3 H1 1_555 1_555
C4 C3 1_555 1_555
H2 C4 1_555 1_555
C5 C4 1_555 1_555
H3 C5 1_555 1_555
C6 C5 1_555 1_555
H4 C6 1_555 1_555
C7 C2 1_555 1_555
C8 C1 1_555 1_555
H5 C8 1_555 1_555
C9 C8 1_555 1_555
H6 C9 1_555 1_555
C10 C9 1_555 1_555
C11 C10 1_555 1_555
H7 C11 1_555 1_555
C12 C11 1_555 1_555
H8 C12 1_555 1_555
C13 C12 1_555 1_555
C14 C13 1_555 1_555
H9 C14 1_555 1_555
C15 C10 1_555 1_555
H10 C15 1_555 1_555
C16 H11 1_555 1_555
H12 C16 1_555 1_555
C17 C16 1_555 1_555
H13 C17 1_555 1_555
H14 C17 1_555 1_555
C18 C17 1_555 1_555
H15 C18 1_555 1_555
H16 C18 1_555 1_555
C19 C18 1_555 1_555
H17 C19 1_555 1_555
H18 C19 1_555 1_555
C20 C19 1_555 1_555
H19 C20 1_555 1_555
H20 C20 1_555 1_555
C21 C20 1_555 1_555
H21 C21 1_555 1_555
H22 C21 1_555 1_555
C22 C21 1_555 1_555
H23 C22 1_555 1_555
H24 C22 1_555 1_555
C23 C22 1_555 1_555
H25 C23 1_555 1_555
H26 C23 1_555 1_555
C24 C23 1_555 1_555
H27 C24 1_555 1_555
H28 C24 1_555 1_555
C25 C24 1_555 1_555
H29 C25 1_555 1_555
H30 C25 1_555 1_555
C26 C25 1_555 1_555
H31 C26 1_555 1_555
H32 C26 1_555 1_555
C27 C26 1_555 1_555
H33 C27 1_555 1_555
H34 C27 1_555 1_555
H35 C27 1_555 1_555
O1 C13 1_555 1_555
C1A C7 1_555 1_555
C2A C1A 1_555 1_555
C3A C2A 1_555 1_555
H1A C3A 1_555 1_555
C4A C3A 1_555 1_555
H2A C4A 1_555 1_555
C5A C4A 1_555 1_555
H3A C5A 1_555 1_555
C6A C5A 1_555 1_555
H4A C6A 1_555 1_555
C7A C1 1_555 1_555
C8A C1A 1_555 1_555
H5A C8A 1_555 1_555
C9A C8A 1_555 1_555
H6A C9A 1_555 1_555
C10A C9A 1_555 1_555
C11A C10A 1_555 1_555
H7A C11A 1_555 1_555
C12A C11A 1_555 1_555
H8A C12A 1_555 1_555
C13A C12A 1_555 1_555
C14A C13A 1_555 1_555
H9A C14A 1_555 1_555
C15A C10A 1_555 1_555
H10A C15A 1_555 1_555
C16A H11A 1_555 1_555
H12A C16A 1_555 1_555
C17A C16A 1_555 1_555
H13A C17A 1_555 1_555
H14A C17A 1_555 1_555
C18A C17A 1_555 1_555
H15A C18A 1_555 1_555
H16A C18A 1_555 1_555
C19A C18A 1_555 1_555
H17A C19A 1_555 1_555
H18A C19A 1_555 1_555
C20A C19A 1_555 1_555
H19A C20A 1_555 1_555
H20A C20A 1_555 1_555
C21A C20A 1_555 1_555
H21A C21A 1_555 1_555
H22A C21A 1_555 1_555
C22A C21A 1_555 1_555
H23A C22A 1_555 1_555
H24A C22A 1_555 1_555
C23A C22A 1_555 1_555
H25A C23A 1_555 1_555
H26A C23A 1_555 1_555
C24A C23A 1_555 1_555
H27A C24A 1_555 1_555
H28A C24A 1_555 1_555
C25A C24A 1_555 1_555
H29A C25A 1_555 1_555
H30A C25A 1_555 1_555
C26A C25A 1_555 1_555
H31A C26A 1_555 1_555
H32A C26A 1_555 1_555
C27A C26A 1_555 1_555
H33A C27A 1_555 1_555
H34A C27A 1_555 1_555
H35A C27A 1_555 1_555
O1A C13A 1_555 1_555
C6 C7 1_555 1_555
C14 C15 1_555 1_555
C16 O1 1_555 1_555
C2A C7A 1_555 1_555
C6A C7A 1_555 1_555
C14A C15A 1_555 1_555
C16A O1A 1_555 1_555

#END
