
#######################################################################
#
#                 Cambridge Crystallographic Data Centre
#                                CCDC 
#
#######################################################################
#
# If this CIF has been generated from an entry in the Cambridge 
# Structural Database, then it will include bibliographic, chemical, 
# crystal, experimental, refinement or atomic coordinate data resulting 
# from the CCDC's data processing and validation procedures.
#
#######################################################################

data_ACOGAC
_chemical_name_common            9,10-bis(4-(Octyloxy)styryl)anthracene
_chemical_formula_moiety         'C46 H54 O2'
_chemical_name_systematic        
9,10-bis(2-(4-(n-Octyloxy)phenyl)vinyl)anthracene
_symmetry_cell_setting           triclinic
_symmetry_space_group_name_H-M   'P -1'
_symmetry_Int_Tables_number      2
_space_group_name_Hall           '-P 1'
loop_
_symmetry_equiv_pos_site_id
_symmetry_equiv_pos_as_xyz
1 x,y,z
2 -x,-y,-z
_cell_length_a                   8.9037(16)
_cell_length_b                   16.377(3)
_cell_length_c                   19.649(4)
_cell_angle_alpha                79.561(3)
_cell_angle_beta                 79.148(3)
_cell_angle_gamma                78.442(3)
_cell_volume                     2726.02
_exptl_crystal_colour            yellow
_exptl_crystal_description       plate
_cell_formula_units_Z            3
loop_
_atom_site_label
_atom_site_type_symbol
_atom_site_fract_x
_atom_site_fract_y
_atom_site_fract_z
C1 C 1.3887(5) 0.4112(3) -0.1528(2)
C2 C 1.2299(5) 0.4293(3) -0.1508(2)
H1 H 1.1838 0.4771 -0.1797
C3 C 1.1385(5) 0.3763(2) -0.1056(2)
H2 H 1.0292 0.3888 -0.1043
C4 C 1.2009(5) 0.3059(2) -0.0623(2)
C5 C 1.3609(5) 0.2910(3) -0.0641(2)
H3 H 1.4072 0.2443 -0.0342
C6 C 1.4534(5) 0.3426(3) -0.1084(2)
H4 H 1.5624 0.3312 -0.1086
C7 C 1.0992(5) 0.2494(3) -0.0189(2)
H5 H 0.9931 0.2732 -0.0069
C8 C 1.1407(4) 0.1685(2) 0.0052(2)
H6 H 1.2476 0.1451 -0.0052
C9 C 1.0379(4) 0.1112(2) 0.0465(2)
C10 C 0.9008(4) 0.1030(2) 0.0247(2)
C11 C 0.8569(5) 0.1447(2) -0.0412(2)
H7 H 0.9229 0.1792 -0.0718
C12 C 0.7238(5) 0.1361(3) -0.0608(2)
H8 H 0.6983 0.1641 -0.1050
C13 C 0.6224(5) 0.0858(3) -0.0163(2)
H9 H 0.5273 0.0819 -0.0297
C14 C 0.6614(5) 0.0432(3) 0.0454(2)
H10 H 0.5924 0.0096 0.0749
C15 C 0.8024(4) 0.0473(2) 0.0672(2)
C16 C 0.8465(4) -0.0021(2) 0.1293(2)
C17 C 0.9853(4) 0.0036(2) 0.1504(2)
C18 C 1.0384(5) -0.0470(3) 0.2111(2)
H11 H 0.9775 -0.0862 0.2387
C19 C 1.1726(5) -0.0409(3) 0.2306(2)
H12 H 1.2049 -0.0757 0.2713
C20 C 1.2653(5) 0.0169(3) 0.1910(2)
H13 H 1.3591 0.0213 0.2053
C21 C 1.2208(5) 0.0662(3) 0.1324(2)
H14 H 1.2842 0.1050 0.1063
C22 C 1.0814(4) 0.0611(2) 0.1090(2)
C23 C 0.7520(5) -0.0669(3) 0.1673(2)
H15 H 0.7482 -0.1104 0.1418
C24 C 0.6755(5) -0.0720(3) 0.2294(2)
H16 H 0.6720 -0.0270 0.2543
C25 C 0.5913(6) -0.1410(3) 0.2666(2)
C26 C 0.5927(8) -0.2127(4) 0.2411(4)
H17 H 0.6485 -0.2200 0.1958
C27 C 0.5151(9) -0.2754(4) 0.2792(4)
H18 H 0.5145 -0.3239 0.2590
C28 C 0.4392(8) -0.2683(4) 0.3456(3)
C29 C 0.4290(5) -0.1964(3) 0.3701(2)
H19 H 0.3698 -0.1885 0.4147
C30 C 0.5040(5) -0.1336(3) 0.3311(2)
H20 H 0.4947 -0.0828 0.3496
C31 C 1.4374(5) 0.5209(3) -0.2500(2)
H21 H 1.3654 0.5679 -0.2297
H22 H 1.3821 0.4971 -0.2790
C32 C 1.5795(5) 0.5516(3) -0.2939(2)
H23 H 1.6514 0.5032 -0.3121
H24 H 1.6334 0.5742 -0.2637
C33 C 1.5433(5) 0.6195(3) -0.3555(2)
H25 H 1.4650 0.6663 -0.3381
H26 H 1.4985 0.5957 -0.3884
C34 C 1.6884(5) 0.6536(3) -0.3941(2)
H27 H 1.7259 0.6822 -0.3619
H28 H 1.7703 0.6053 -0.4058
C35 C 1.6671(5) 0.7148(3) -0.4610(2)
H29 H 1.6367 0.6853 -0.4947
H30 H 1.5813 0.7615 -0.4501
C36 C 1.8116(5) 0.7512(3) -0.4953(2)
H31 H 1.8432 0.7795 -0.4612
H32 H 1.8967 0.7043 -0.5069
C37 C 1.7916(5) 0.8136(3) -0.5612(2)
H33 H 1.7012 0.8581 -0.5507
H34 H 1.7691 0.7842 -0.5970
C38 C 1.9333(6) 0.8545(3) -0.5913(3)
H35 H 1.9586 0.8821 -0.5557
H36 H 1.9114 0.8965 -0.6321
H37 H 2.0214 0.8113 -0.6055
C39 C 0.3130(7) -0.3446(4) 0.4475(3)
H38 H 0.2213 -0.2997 0.4543
H39 H 0.3910 -0.3358 0.4741
C40 C 0.2667(8) -0.4274(4) 0.4752(3)
H40 H 0.1942 -0.4362 0.4457
H41 H 0.3606 -0.4710 0.4683
C41 C 0.1942(7) -0.4433(3) 0.5480(3)
H42 H 0.0992 -0.4004 0.5544
H43 H 0.2657 -0.4330 0.5772
C42 C 0.1505(8) -0.5257(4) 0.5769(3)
H44 H 0.0868 -0.5380 0.5451
H45 H 0.2473 -0.5678 0.5738
C43 C 0.0670(7) -0.5421(3) 0.6480(3)
H46 H -0.0287 -0.4992 0.6514
H47 H 0.1318 -0.5309 0.6800
C44 C 0.0207(8) -0.6238(4) 0.6766(3)
H48 H -0.0400 -0.6363 0.6436
H49 H 0.1169 -0.6664 0.6753
C45 C -0.0668(7) -0.6385(3) 0.7455(3)
H50 H -0.1642 -0.5968 0.7462
H51 H -0.0074 -0.6241 0.7782
C46 C -0.1101(10) -0.7194(4) 0.7756(4)
H52 H -0.1775 -0.7337 0.7470
H53 H -0.1658 -0.7167 0.8234
H54 H -0.0165 -0.7626 0.7767
O1 O 1.4917(3) 0.45706(18) -0.19544(15)
O2 O 0.3742(6) -0.3384(3) 0.3776(2)
C47 C 0.0269(5) 0.3070(3) 0.2361(2)
C48 C -0.0053(5) 0.2461(3) 0.2040(2)
H55 H 0.0298 0.2450 0.1554
C49 C -0.0899(5) 0.1860(3) 0.2434(2)
H56 H -0.1106 0.1436 0.2210
C50 C -0.1447(4) 0.1860(2) 0.3143(2)
C51 C -0.1083(5) 0.2483(3) 0.3456(2)
H57 H -0.1428 0.2497 0.3942
C52 C -0.0240(5) 0.3071(3) 0.3076(2)
H58 H 0.0000 0.3484 0.3301
C53 C -0.2383(5) 0.1231(2) 0.3528(2)
H59 H -0.2551 0.0828 0.3270
C54 C -0.3022(4) 0.1168(2) 0.4201(2)
H60 H -0.2807 0.1554 0.4462
C55 C -0.4027(4) 0.0563(2) 0.4586(2)
C56 C -0.5418(4) 0.0494(2) 0.4367(2)
C57 C -0.5943(5) 0.1002(3) 0.3757(2)
H61 H -0.5327 0.1391 0.3481
C58 C -0.7287(5) 0.0947(3) 0.3560(2)
H62 H -0.7595 0.1288 0.3147
C59 C -0.8243(5) 0.0382(3) 0.3967(2)
H63 H -0.9188 0.0343 0.3827
C60 C -0.7800(5) -0.0103(3) 0.4557(2)
H64 H -0.8458 -0.0473 0.4829
C61 C -0.3620(4) 0.0076(2) 0.5216(2)
C62 C 0.1368(5) 0.3857(3) 0.1288(2)
H65 H 0.0376 0.3973 0.1101
H66 H 0.2037 0.3365 0.1097
C63 C 0.2164(5) 0.4617(2) 0.1090(2)
H67 H 0.3217 0.4461 0.1219
H68 H 0.1576 0.5065 0.1361
C64 C 0.2297(5) 0.4963(2) 0.0310(2)
H69 H 0.2915 0.4522 0.0038
H70 H 0.1247 0.5105 0.0176
C65 C 0.3058(5) 0.5742(2) 0.0127(2)
H71 H 0.4091 0.5599 0.0278
H72 H 0.2423 0.6182 0.0396
C66 C 0.3260(5) 0.6105(3) -0.0649(2)
H73 H 0.3912 0.5671 -0.0918
H74 H 0.2231 0.6242 -0.0803
C67 C 0.3998(5) 0.6892(2) -0.0818(2)
H75 H 0.4966 0.6777 -0.0612
H76 H 0.3283 0.7350 -0.0597
C68 C 0.4378(6) 0.7191(3) -0.1603(2)
H77 H 0.5135 0.6745 -0.1822
H78 H 0.3421 0.7281 -0.1814
C69 C 0.5047(6) 0.8002(3) -0.1767(3)
H79 H 0.4308 0.8446 -0.1549
H80 H 0.5237 0.8174 -0.2276
H81 H 0.6026 0.7909 -0.1583
O3 O 0.1089(4) 0.36967(18) 0.20391(14)
C47A C -1.0269(5) -0.3070(3) 0.7639(2)
C48A C -0.9947(5) -0.2461(3) 0.7960(2)
H55A H -1.0298 -0.2450 0.8446
C49A C -0.9101(5) -0.1860(3) 0.7566(2)
H56A H -0.8894 -0.1436 0.7790
C50A C -0.8553(4) -0.1860(2) 0.6857(2)
C51A C -0.8917(5) -0.2483(3) 0.6544(2)
H57A H -0.8572 -0.2497 0.6058
C52A C -0.9760(5) -0.3071(3) 0.6924(2)
H58A H -1.0000 -0.3484 0.6699
C53A C -0.7617(5) -0.1231(2) 0.6472(2)
H59A H -0.7449 -0.0828 0.6730
C54A C -0.6978(4) -0.1168(2) 0.5799(2)
H60A H -0.7193 -0.1554 0.5538
C55A C -0.5973(4) -0.0563(2) 0.5414(2)
C56A C -0.4582(4) -0.0494(2) 0.5633(2)
C57A C -0.4057(5) -0.1002(3) 0.6243(2)
H61A H -0.4673 -0.1391 0.6519
C58A C -0.2713(5) -0.0947(3) 0.6440(2)
H62A H -0.2405 -0.1288 0.6853
C59A C -0.1757(5) -0.0382(3) 0.6033(2)
H63A H -0.0812 -0.0343 0.6173
C60A C -0.2200(5) 0.0103(3) 0.5443(2)
H64A H -0.1542 0.0473 0.5171
C61A C -0.6380(4) -0.0076(2) 0.4784(2)
C62A C -1.1368(5) -0.3857(3) 0.8712(2)
H65A H -1.0376 -0.3973 0.8899
H66A H -1.2037 -0.3365 0.8903
C63A C -1.2164(5) -0.4617(2) 0.8910(2)
H67A H -1.3217 -0.4461 0.8781
H68A H -1.1576 -0.5065 0.8639
C64A C -1.2297(5) -0.4963(2) 0.9690(2)
H69A H -1.2915 -0.4522 0.9962
H70A H -1.1247 -0.5105 0.9824
C65A C -1.3058(5) -0.5742(2) 0.9873(2)
H71A H -1.4091 -0.5599 0.9722
H72A H -1.2423 -0.6182 0.9604
C66A C -1.3260(5) -0.6105(3) 1.0649(2)
H73A H -1.3912 -0.5671 1.0918
H74A H -1.2231 -0.6242 1.0803
C67A C -1.3998(5) -0.6892(2) 1.0818(2)
H75A H -1.4966 -0.6777 1.0612
H76A H -1.3283 -0.7350 1.0597
C68A C -1.4378(6) -0.7191(3) 1.1603(2)
H77A H -1.5135 -0.6745 1.1822
H78A H -1.3421 -0.7281 1.1814
C69A C -1.5047(6) -0.8002(3) 1.1767(3)
H79A H -1.4308 -0.8446 1.1549
H80A H -1.5237 -0.8174 1.2276
H81A H -1.6026 -0.7909 1.1583
O3A O -1.1089(4) -0.36967(18) 0.79609(14)
loop_
_geom_bond_atom_site_label_1
_geom_bond_atom_site_label_2
_geom_bond_site_symmetry_1
_geom_bond_site_symmetry_2
C1 C2 1_555 1_555
C2 H1 1_555 1_555
C3 C2 1_555 1_555
H2 C3 1_555 1_555
C4 C3 1_555 1_555
C5 C4 1_555 1_555
H3 C5 1_555 1_555
C6 C1 1_555 1_555
H4 C6 1_555 1_555
C7 C4 1_555 1_555
H5 C7 1_555 1_555
C8 C7 1_555 1_555
H6 C8 1_555 1_555
C9 C8 1_555 1_555
C10 C9 1_555 1_555
C11 C10 1_555 1_555
H7 C11 1_555 1_555
C12 C11 1_555 1_555
H8 C12 1_555 1_555
C13 C12 1_555 1_555
H9 C13 1_555 1_555
C14 C13 1_555 1_555
H10 C14 1_555 1_555
C15 C10 1_555 1_555
C16 C15 1_555 1_555
C17 C16 1_555 1_555
C18 C17 1_555 1_555
H11 C18 1_555 1_555
C19 C18 1_555 1_555
H12 C19 1_555 1_555
C20 C19 1_555 1_555
H13 C20 1_555 1_555
C21 C20 1_555 1_555
H14 C21 1_555 1_555
C22 C9 1_555 1_555
C23 C16 1_555 1_555
H15 C23 1_555 1_555
C24 C23 1_555 1_555
H16 C24 1_555 1_555
C25 C24 1_555 1_555
C26 C25 1_555 1_555
H17 C26 1_555 1_555
C27 C26 1_555 1_555
H18 C27 1_555 1_555
C28 C27 1_555 1_555
C29 C28 1_555 1_555
H19 C29 1_555 1_555
C30 C25 1_555 1_555
H20 C30 1_555 1_555
C31 H21 1_555 1_555
H22 C31 1_555 1_555
C32 C31 1_555 1_555
H23 C32 1_555 1_555
H24 C32 1_555 1_555
C33 C32 1_555 1_555
H25 C33 1_555 1_555
H26 C33 1_555 1_555
C34 C33 1_555 1_555
H27 C34 1_555 1_555
H28 C34 1_555 1_555
C35 C34 1_555 1_555
H29 C35 1_555 1_555
H30 C35 1_555 1_555
C36 C35 1_555 1_555
H31 C36 1_555 1_555
H32 C36 1_555 1_555
C37 C36 1_555 1_555
H33 C37 1_555 1_555
H34 C37 1_555 1_555
C38 C37 1_555 1_555
H35 C38 1_555 1_555
H36 C38 1_555 1_555
H37 C38 1_555 1_555
C39 H38 1_555 1_555
H39 C39 1_555 1_555
C40 C39 1_555 1_555
H40 C40 1_555 1_555
H41 C40 1_555 1_555
C41 C40 1_555 1_555
H42 C41 1_555 1_555
H43 C41 1_555 1_555
C42 C41 1_555 1_555
H44 C42 1_555 1_555
H45 C42 1_555 1_555
C43 C42 1_555 1_555
H46 C43 1_555 1_555
H47 C43 1_555 1_555
C44 C43 1_555 1_555
H48 C44 1_555 1_555
H49 C44 1_555 1_555
C45 C44 1_555 1_555
H50 C45 1_555 1_555
H51 C45 1_555 1_555
C46 C45 1_555 1_555
H52 C46 1_555 1_555
H53 C46 1_555 1_555
H54 C46 1_555 1_555
C47 C48 1_555 1_555
C48 H55 1_555 1_555
C49 C48 1_555 1_555
H56 C49 1_555 1_555
C50 C49 1_555 1_555
C51 C50 1_555 1_555
H57 C51 1_555 1_555
C52 C47 1_555 1_555
H58 C52 1_555 1_555
C53 C50 1_555 1_555
H59 C53 1_555 1_555
C54 C53 1_555 1_555
H60 C54 1_555 1_555
C55 C54 1_555 1_555
C56 C55 1_555 1_555
C57 C56 1_555 1_555
H61 C57 1_555 1_555
C58 C57 1_555 1_555
H62 C58 1_555 1_555
C59 C58 1_555 1_555
H63 C59 1_555 1_555
C60 C59 1_555 1_555
H64 C60 1_555 1_555
C61 C55 1_555 1_555
C62 H65 1_555 1_555
H66 C62 1_555 1_555
C63 C62 1_555 1_555
H67 C63 1_555 1_555
H68 C63 1_555 1_555
C64 C63 1_555 1_555
H69 C64 1_555 1_555
H70 C64 1_555 1_555
C65 C64 1_555 1_555
H71 C65 1_555 1_555
H72 C65 1_555 1_555
C66 C65 1_555 1_555
H73 C66 1_555 1_555
H74 C66 1_555 1_555
C67 C66 1_555 1_555
H75 C67 1_555 1_555
H76 C67 1_555 1_555
C68 C67 1_555 1_555
H77 C68 1_555 1_555
H78 C68 1_555 1_555
C69 C68 1_555 1_555
H79 C69 1_555 1_555
H80 C69 1_555 1_555
H81 C69 1_555 1_555
O1 C1 1_555 1_555
O2 C28 1_555 1_555
O3 C47 1_555 1_555
C47A C48A 1_555 1_555
C48A H55A 1_555 1_555
C49A C48A 1_555 1_555
H56A C49A 1_555 1_555
C50A C49A 1_555 1_555
C51A C50A 1_555 1_555
H57A C51A 1_555 1_555
C52A C47A 1_555 1_555
H58A C52A 1_555 1_555
C53A C50A 1_555 1_555
H59A C53A 1_555 1_555
C54A C53A 1_555 1_555
H60A C54A 1_555 1_555
C55A C54A 1_555 1_555
C56A C61 1_555 1_555
C57A C56A 1_555 1_555
H61A C57A 1_555 1_555
C58A C57A 1_555 1_555
H62A C58A 1_555 1_555
C59A C58A 1_555 1_555
H63A C59A 1_555 1_555
C60A C61 1_555 1_555
H64A C60A 1_555 1_555
C61A C56 1_555 1_555
C62A H65A 1_555 1_555
H66A C62A 1_555 1_555
C63A C62A 1_555 1_555
H67A C63A 1_555 1_555
H68A C63A 1_555 1_555
C64A C63A 1_555 1_555
H69A C64A 1_555 1_555
H70A C64A 1_555 1_555
C65A C64A 1_555 1_555
H71A C65A 1_555 1_555
H72A C65A 1_555 1_555
C66A C65A 1_555 1_555
H73A C66A 1_555 1_555
H74A C66A 1_555 1_555
C67A C66A 1_555 1_555
H75A C67A 1_555 1_555
H76A C67A 1_555 1_555
C68A C67A 1_555 1_555
H77A C68A 1_555 1_555
H78A C68A 1_555 1_555
C69A C68A 1_555 1_555
H79A C69A 1_555 1_555
H80A C69A 1_555 1_555
H81A C69A 1_555 1_555
O3A C47A 1_555 1_555
C5 C6 1_555 1_555
C14 C15 1_555 1_555
C17 C22 1_555 1_555
C21 C22 1_555 1_555
C29 C30 1_555 1_555
C31 O1 1_555 1_555
C39 O2 1_555 1_555
C51 C52 1_555 1_555
C60 C61A 1_555 1_555
C62 O3 1_555 1_555
C51A C52A 1_555 1_555
C55A C56A 1_555 1_555
C55A C61A 1_555 1_555
C59A C60A 1_555 1_555
C62A O3A 1_555 1_555

#END
