
#######################################################################
#
#                 Cambridge Crystallographic Data Centre
#                                CCDC 
#
#######################################################################
#
# If this CIF has been generated from an entry in the Cambridge 
# Structural Database, then it will include bibliographic, chemical, 
# crystal, experimental, refinement or atomic coordinate data resulting 
# from the CCDC's data processing and validation procedures.
#
#######################################################################

data_ACOHEH
_chemical_formula_moiety         'C30 H33 Cl1'
_chemical_name_systematic        6-Chloro-2-(diphenylmethyl)-1-octyl-1H-indene
_symmetry_cell_setting           triclinic
_symmetry_space_group_name_H-M   'P -1'
_symmetry_Int_Tables_number      2
_space_group_name_Hall           '-P 1'
loop_
_symmetry_equiv_pos_site_id
_symmetry_equiv_pos_as_xyz
1 x,y,z
2 -x,-y,-z
_cell_length_a                   8.1616(4)
_cell_length_b                   9.0676(4)
_cell_length_c                   17.2790(8)
_cell_angle_alpha                88.400(4)
_cell_angle_beta                 88.014(4)
_cell_angle_gamma                77.311(4)
_cell_volume                     1246.5
_cell_formula_units_Z            2
_exptl_crystal_recrystallization_method toluene
loop_
_atom_site_label
_atom_site_type_symbol
_atom_site_fract_x
_atom_site_fract_y
_atom_site_fract_z
Cl1 Cl 0.74402(11) 0.70871(9) 0.03730(5)
C1 C 0.4230(3) 0.3052(3) 0.16415(17)
H1 H 0.3635 0.2867 0.1183
C2 C 0.5079(3) 0.1532(3) 0.19922(16)
C3 C 0.2973(4) 0.4075(3) 0.21804(19)
H2 H 0.2540 0.5024 0.1909
H3 H 0.2035 0.3600 0.2296
C4 C 0.4086(4) 0.0451(3) 0.23487(17)
H4 H 0.3240 0.1045 0.2700
C5 C 0.5712(3) 0.3700(3) 0.13733(16)
C6 C 0.6750(4) 0.1347(3) 0.19306(18)
H5 H 0.7515 0.0497 0.2106
C7 C 0.8753(4) 0.2986(4) 0.13562(19)
H6 H 0.9741 0.2291 0.1467
C8 C 0.7205(3) 0.2661(3) 0.15499(17)
C9 C 0.3122(3) -0.0228(3) 0.17574(17)
C10 C 0.3687(4) 0.4409(4) 0.2935(2)
H7 H 0.4088 0.3466 0.3217
H8 H 0.4643 0.4863 0.2823
C11 C 0.5191(4) -0.0754(3) 0.28457(18)
C12 C 0.5768(4) 0.5063(3) 0.10078(16)
H9 H 0.4785 0.5756 0.0887
C13 C 0.8809(4) 0.4359(4) 0.09952(19)
H10 H 0.9837 0.4599 0.0868
C14 C 0.1793(4) -0.0867(3) 0.2016(2)
H11 H 0.1487 -0.0853 0.2540
C15 C 0.3531(4) -0.0272(3) 0.09846(18)
H12 H 0.4416 0.0148 0.0801
C16 C 0.7327(4) 0.5369(3) 0.08260(17)
C17 C 0.1356(4) -0.1551(4) 0.0726(2)
H13 H 0.0766 -0.1989 0.0379
C18 C 0.6126(4) -0.2070(4) 0.2533(2)
H14 H 0.6029 -0.2255 0.2012
C19 C 0.0925(4) -0.1525(4) 0.1496(2)
H15 H 0.0041 -0.1952 0.1674
C20 C 0.7206(5) -0.3119(4) 0.2980(3)
H16 H 0.7832 -0.3993 0.2756
C21 C 0.2656(4) -0.0930(4) 0.0467(2)
H17 H 0.2958 -0.0947 -0.0057
C22 C 0.2426(5) 0.5455(4) 0.3441(2)
H18 H 0.2011 0.6383 0.3149
H19 H 0.1481 0.4988 0.3552
C23 C 0.5350(5) -0.0530(4) 0.3620(2)
H20 H 0.4726 0.0341 0.3848
C24 C 0.7355(6) -0.2879(5) 0.3739(3)
H21 H 0.8082 -0.3587 0.4037
C25 C 0.3056(5) 0.5851(5) 0.4187(3)
H22 H 0.3979 0.6346 0.4074
H23 H 0.3506 0.4920 0.4471
C26 C 0.6434(6) -0.1592(6) 0.4069(2)
H24 H 0.6532 -0.1427 0.4592
C27 C 0.1789(6) 0.6859(7) 0.4709(3)
H25 H 0.1297 0.7767 0.4417
H26 H 0.0894 0.6340 0.4844
C28 C 0.2419(7) 0.7309(6) 0.5424(3)
H27 H 0.3455 0.7634 0.5300
H28 H 0.2695 0.6425 0.5763
C29 C 0.1219(13) 0.8591(10) 0.5882(6)
H29 H 0.1842 0.9162 0.6180
H30 H 0.0478 0.9275 0.5539
C30 C 0.0288(16) 0.7713(14) 0.6386(7)
H31 H -0.0531 0.8389 0.6695
H32 H 0.1055 0.7051 0.6718
H33 H -0.0269 0.7124 0.6074
C31? C 0.2419(7) 0.7309(6) 0.5424(3)
C32? C 0.1409(14) 0.7640(16) 0.6201(6)
C33? C -0.0223(16) 0.8499(15) 0.5920(9)
H34? H 0.2828 0.8214 0.5292
H35? H 0.3401 0.6528 0.5543
H36? H 0.1298 0.6715 0.6472
H37? H 0.1920 0.8242 0.6536
H38? H -0.1001 0.8741 0.6351
H39? H -0.0656 0.7898 0.5563
H40? H -0.0073 0.9415 0.5664
loop_
_geom_bond_atom_site_label_1
_geom_bond_atom_site_label_2
_geom_bond_site_symmetry_1
_geom_bond_site_symmetry_2
Cl1 C16 1_555 1_555
C1 H1 1_555 1_555
C2 C1 1_555 1_555
C3 C1 1_555 1_555
H2 C3 1_555 1_555
H3 C3 1_555 1_555
C4 C2 1_555 1_555
H4 C4 1_555 1_555
C5 C1 1_555 1_555
C6 C2 1_555 1_555
H5 C6 1_555 1_555
C7 H6 1_555 1_555
C8 C5 1_555 1_555
C9 C4 1_555 1_555
C10 C3 1_555 1_555
H7 C10 1_555 1_555
H8 C10 1_555 1_555
C11 C4 1_555 1_555
C12 C5 1_555 1_555
H9 C12 1_555 1_555
C13 C7 1_555 1_555
H10 C13 1_555 1_555
C14 C9 1_555 1_555
H11 C14 1_555 1_555
C15 C9 1_555 1_555
H12 C15 1_555 1_555
C16 C12 1_555 1_555
C17 H13 1_555 1_555
C18 C11 1_555 1_555
H14 C18 1_555 1_555
C19 C14 1_555 1_555
H15 C19 1_555 1_555
C20 C18 1_555 1_555
H16 C20 1_555 1_555
C21 C15 1_555 1_555
H17 C21 1_555 1_555
C22 C10 1_555 1_555
H18 C22 1_555 1_555
H19 C22 1_555 1_555
C23 C11 1_555 1_555
H20 C23 1_555 1_555
C24 C20 1_555 1_555
H21 C24 1_555 1_555
C25 C22 1_555 1_555
H22 C25 1_555 1_555
H23 C25 1_555 1_555
C26 C23 1_555 1_555
H24 C26 1_555 1_555
C27 C25 1_555 1_555
H25 C27 1_555 1_555
H26 C27 1_555 1_555
C28 C27 1_555 1_555
H27 C28 1_555 1_555
H28 C28 1_555 1_555
C29 C28 1_555 1_555
H29 C29 1_555 1_555
H30 C29 1_555 1_555
C30 C29 1_555 1_555
H31 C30 1_555 1_555
H32 C30 1_555 1_555
H33 C30 1_555 1_555
C6 C8 1_555 1_555
C7 C8 1_555 1_555
C13 C16 1_555 1_555
C17 C19 1_555 1_555
C17 C21 1_555 1_555
C24 C26 1_555 1_555

#END
