
#######################################################################
#
#                 Cambridge Crystallographic Data Centre
#                                CCDC 
#
#######################################################################
#
# If this CIF has been generated from an entry in the Cambridge 
# Structural Database, then it will include bibliographic, chemical, 
# crystal, experimental, refinement or atomic coordinate data resulting 
# from the CCDC's data processing and validation procedures.
#
#######################################################################

data_ACOJUZ
_chemical_name_common            
'1,4-Diethoxypillar[8]arene acetonitrile solvate'
_chemical_formula_moiety         'C88 H112 O16,4(C2 H3 N1)'
_chemical_name_systematic        
'1^2^,1^5^,3^2^,3^5^,5^2^,5^5^,7^2^,7^5^,9^2^,9^5^,11^2^,11^5^,13^2^,13^5^,15^2^,15^5^-Hexadecaethoxy-1,3,5,7,9,11,13,15(1,4)-octabenzenacyclohexadecaphane acetonitrile solvate'
_symmetry_cell_setting           monoclinic
_symmetry_space_group_name_H-M   'P 21/n'
_symmetry_Int_Tables_number      14
_space_group_name_Hall           '-P 2yn'
loop_
_symmetry_equiv_pos_site_id
_symmetry_equiv_pos_as_xyz
1 x,y,z
2 1/2-x,1/2+y,1/2-z
3 -x,-y,-z
4 1/2+x,1/2-y,1/2+z
_cell_length_a                   11.5582(15)
_cell_length_b                   23.309(3)
_cell_length_c                   34.534(4)
_cell_angle_alpha                90
_cell_angle_beta                 95.489(2)
_cell_angle_gamma                90
_cell_volume                     9261.15
_exptl_crystal_colour            colorless
_exptl_crystal_description       block
_cell_formula_units_Z            4
loop_
_atom_site_label
_atom_site_type_symbol
_atom_site_fract_x
_atom_site_fract_y
_atom_site_fract_z
O1 O 1.27536(17) 1.03679(8) 0.47100(6)
O2 O 0.96711(18) 0.85457(9) 0.46633(6)
O3 O 1.39298(19) 0.81661(8) 0.46393(5)
O4 O 1.52129(19) 0.98815(9) 0.36551(5)
O5 O 1.3755(2) 0.78654(9) 0.31915(6)
O6 O 1.25582(19) 0.99148(9) 0.24615(6)
O7 O 1.0652(2) 0.79591(9) 0.19981(6)
O8 O 1.11310(19) 0.97455(9) 0.09742(6)
O9 O 0.89066(18) 0.78246(9) 0.05636(6)
O10 O 0.73790(16) 1.00324(8) 0.02202(6)
O11 O 0.47476(17) 0.82860(8) 0.05929(5)
O12 O 0.47885(19) 1.04277(8) 0.12858(6)
O13 O 0.47590(18) 0.84385(9) 0.20471(5)
O14 O 0.7722(2) 1.02489(10) 0.24605(7)
O15 O 0.79616(18) 0.83292(8) 0.32738(6)
O16 O 0.9067(2) 1.04768(9) 0.38784(6)
C1 C 1.1960(2) 0.99216(12) 0.46939(7)
C2 C 1.0787(3) 0.99873(12) 0.45793(7)
H1 H 1.0497 1.0358 0.4509
C3 C 1.0025(2) 0.95267(12) 0.45644(7)
C4 C 1.0461(3) 0.89897(13) 0.46812(8)
C5 C 1.1646(3) 0.89273(13) 0.47993(7)
H2 H 1.1934 0.8560 0.4880
C6 C 1.2414(2) 0.93865(12) 0.48025(7)
C7 C 1.2331(3) 1.09381(12) 0.46471(9)
H3 H 1.1723 1.1024 0.4822
H4 H 1.1994 1.0986 0.4375
C8 C 1.3359(3) 1.13311(15) 0.47329(13)
H5 H 1.3638 1.1305 0.5009
H6 H 1.3126 1.1727 0.4670
H7 H 1.3983 1.1217 0.4576
C9 C 1.0083(3) 0.79900(13) 0.47846(10)
H8 H 1.0375 0.7995 0.5064
H9 H 1.0723 0.7868 0.4632
C10 C 0.9060(3) 0.75831(15) 0.47155(12)
H10 H 0.8410 0.7726 0.4851
H11 H 0.9287 0.7202 0.4815
H12 H 0.8821 0.7558 0.4436
C11 C 1.3711(2) 0.92945(13) 0.48897(7)
H13 H 1.4076 0.9648 0.5003
H14 H 1.3855 0.8981 0.5081
C12 C 1.4242(2) 0.91428(12) 0.45190(7)
C13 C 1.4595(3) 0.95798(12) 0.42799(8)
H15 H 1.4600 0.9965 0.4369
C14 C 1.4937(2) 0.94603(12) 0.39151(8)
C15 C 1.4950(2) 0.88949(12) 0.37799(7)
C16 C 1.4645(2) 0.84632(12) 0.40251(8)
H16 H 1.4683 0.8075 0.3942
C17 C 1.4286(2) 0.85816(12) 0.43887(8)
C18 C 1.3946(3) 0.75820(13) 0.45291(9)
H17 H 1.3673 0.7551 0.4249
H18 H 1.3393 0.7367 0.4677
C19 C 1.5119(4) 0.73090(17) 0.45981(11)
H19 H 1.5636 0.7471 0.4417
H20 H 1.5047 0.6894 0.4556
H21 H 1.5443 0.7383 0.4866
C20 C 1.5681(3) 1.04047(13) 0.37978(9)
H22 H 1.6400 1.0337 0.3971
H23 H 1.5116 1.0608 0.3947
C21 C 1.5940(3) 1.07539(14) 0.34523(10)
H24 H 1.6426 1.0530 0.3291
H25 H 1.6354 1.1104 0.3541
H26 H 1.5211 1.0856 0.3300
C22 C 1.5234(2) 0.87716(13) 0.33663(8)
H27 H 1.5834 0.9045 0.3295
H28 H 1.5554 0.8379 0.3354
C23 C 1.4172(2) 0.88239(12) 0.30797(7)
C24 C 1.3897(2) 0.93419(12) 0.28946(7)
H29 H 1.4410 0.9659 0.2939
C25 C 1.2881(3) 0.94071(12) 0.26444(7)
C26 C 1.2131(2) 0.89515(13) 0.25730(7)
C27 C 1.2405(3) 0.84319(13) 0.27500(8)
H30 H 1.1899 0.8114 0.2700
C28 C 1.3419(3) 0.83667(12) 0.30022(7)
C29 C 1.3030(3) 0.73716(13) 0.31362(9)
H31 H 1.2935 0.7262 0.2858
H32 H 1.2253 0.7451 0.3222
C30 C 1.3618(4) 0.68991(15) 0.33756(11)
H33 H 1.4369 0.6812 0.3279
H34 H 1.3127 0.6556 0.3356
H35 H 1.3743 0.7021 0.3648
C31 C 1.3245(3) 1.04125(13) 0.25524(10)
H36 H 1.4050 1.0352 0.2486
H37 H 1.3269 1.0501 0.2833
C32 C 1.2686(5) 1.08891(17) 0.23173(15)
H38 H 1.2615 1.0783 0.2041
H39 H 1.3162 1.1236 0.2356
H40 H 1.1911 1.0963 0.2400
C33 C 1.0989(3) 0.90287(14) 0.23291(8)
H41 H 1.0709 0.9423 0.2371
H42 H 1.0419 0.8762 0.2428
C34 C 1.0981(2) 0.89346(13) 0.18914(8)
C35 C 1.0773(2) 0.83924(13) 0.17345(8)
C36 C 1.0674(2) 0.83129(13) 0.13312(8)
H43 H 1.0532 0.7939 0.1228
C37 C 1.0778(2) 0.87678(13) 0.10805(8)
C38 C 1.1025(2) 0.93069(13) 0.12375(8)
C39 C 1.1107(2) 0.93851(13) 0.16411(8)
H44 H 1.1253 0.9758 0.1745
C40 C 1.0342(4) 0.74063(15) 0.18674(10)
H45 H 1.0986 0.7228 0.1741
H46 H 0.9646 0.7421 0.1677
C41 C 1.0092(6) 0.70686(19) 0.22164(13)
H47 H 1.0772 0.7077 0.2409
H48 H 0.9915 0.6671 0.2140
H49 H 0.9423 0.7236 0.2330
C42 C 1.1578(3) 1.02839(13) 0.11096(9)
H50 H 1.2324 1.0231 0.1272
H51 H 1.1023 1.0475 0.1269
C43 C 1.1756(4) 1.06438(16) 0.07563(11)
H52 H 1.2287 1.0445 0.0596
H53 H 1.2091 1.1015 0.0840
H54 H 1.1008 1.0705 0.0604
C44 C 1.0580(2) 0.86815(14) 0.06426(8)
H55 H 1.0777 0.8282 0.0578
H56 H 1.1100 0.8941 0.0512
C45 C 0.9322(2) 0.88035(13) 0.04925(7)
C46 C 0.8956(2) 0.93601(12) 0.03997(7)
H57 H 0.9512 0.9661 0.0408
C47 C 0.7796(2) 0.94843(12) 0.02959(7)
C48 C 0.6973(2) 0.90509(12) 0.02723(7)
C49 C 0.7345(2) 0.84898(12) 0.03506(7)
H58 H 0.6796 0.8186 0.0325
C50 C 0.8502(2) 0.83684(12) 0.04645(7)
C51 C 0.8085(3) 0.73706(12) 0.05723(8)
H59 H 0.7708 0.7296 0.0308
H60 H 0.7476 0.7473 0.0743
C52 C 0.8732(3) 0.68537(14) 0.07246(10)
H61 H 0.9437 0.6808 0.0591
H62 H 0.8239 0.6514 0.0679
H63 H 0.8946 0.6898 0.1004
C53 C 0.8188(3) 1.04923(13) 0.02357(9)
H64 H 0.8742 1.0439 0.0037
H65 H 0.8633 1.0509 0.0495
C54 C 0.7509(3) 1.10346(13) 0.01586(10)
H66 H 0.7054 1.1008 -0.0095
H67 H 0.8046 1.1360 0.0158
H68 H 0.6984 1.1090 0.0362
C55 C 0.5678(2) 0.91786(12) 0.01890(7)
H69 H 0.5567 0.9526 0.0025
H70 H 0.5285 0.8853 0.0047
C56 C 0.5160(2) 0.92720(12) 0.05695(7)
C57 C 0.4748(2) 0.88153(11) 0.07773(7)
C58 C 0.4380(2) 0.88973(12) 0.11461(7)
H71 H 0.4097 0.8581 0.1282
C59 C 0.4424(2) 0.94390(12) 0.13168(7)
C60 C 0.4797(2) 0.99015(11) 0.11057(8)
C61 C 0.5163(2) 0.98161(12) 0.07390(7)
H72 H 0.5423 1.0135 0.0600
C62 C 0.4453(3) 0.77910(12) 0.08062(8)
H73 H 0.4794 0.7829 0.1079
H74 H 0.4798 0.7448 0.0694
C63 C 0.3161(3) 0.77054(14) 0.08018(10)
H75 H 0.2833 0.8009 0.0955
H76 H 0.3005 0.7331 0.0915
H77 H 0.2802 0.7721 0.0533
C64 C 0.5064(3) 1.09207(13) 0.10738(10)
H78 H 0.4552 1.0947 0.0828
H79 H 0.5881 1.0903 0.1010
C65 C 0.4887(4) 1.14337(15) 0.13279(13)
H80 H 0.4068 1.1456 0.1379
H81 H 0.5102 1.1784 0.1195
H82 H 0.5375 1.1395 0.1575
C66 C 0.4118(2) 0.95022(13) 0.17292(7)
H83 H 0.3524 0.9214 0.1782
H84 H 0.3788 0.9888 0.1765
C67 C 0.5202(2) 0.94190(12) 0.20137(7)
C68 C 0.5504(2) 0.88814(12) 0.21641(7)
C69 C 0.6520(3) 0.88095(13) 0.24066(7)
H85 H 0.6716 0.8439 0.2508
C70 C 0.7261(2) 0.92707(13) 0.25046(8)
C71 C 0.6941(3) 0.98100(13) 0.23587(8)
C72 C 0.5926(3) 0.98799(13) 0.21148(8)
H86 H 0.5723 1.0250 0.2015
C73 C 0.4973(3) 0.78900(13) 0.22168(9)
H87 H 0.4976 0.7912 0.2503
H88 H 0.5735 0.7741 0.2154
C74 C 0.4004(3) 0.75036(15) 0.20480(10)
H89 H 0.3255 0.7663 0.2105
H90 H 0.4102 0.7121 0.2164
H91 H 0.4027 0.7476 0.1766
C75 C 0.7441(4) 1.08085(17) 0.23330(12)
H92 H 0.6730 1.0942 0.2444
H93 H 0.7299 1.0818 0.2046
C76 C 0.8468(6) 1.1193(2) 0.24692(16)
H94 H 0.9138 1.1091 0.2329
H95 H 0.8669 1.1140 0.2749
H96 H 0.8259 1.1595 0.2417
C77 C 0.8426(3) 0.91757(14) 0.27441(8)
H97 H 0.8668 0.8773 0.2709
H98 H 0.9014 0.9425 0.2638
C78 C 0.8441(2) 0.92921(12) 0.31752(8)
C79 C 0.8239(2) 0.88550(12) 0.34374(8)
C80 C 0.8319(2) 0.89661(12) 0.38319(8)
H99 H 0.8180 0.8665 0.4007
C81 C 0.8596(2) 0.95062(12) 0.39774(8)
C82 C 0.8781(3) 0.99432(12) 0.37176(8)
C83 C 0.8717(2) 0.98333(13) 0.33241(8)
H100 H 0.8866 1.0135 0.3151
C84 C 0.7833(3) 0.78588(13) 0.35265(10)
H101 H 0.7231 0.7943 0.3704
H102 H 0.8576 0.7779 0.3685
C85 C 0.7475(4) 0.73484(15) 0.32710(13)
H103 H 0.6734 0.7431 0.3119
H104 H 0.7387 0.7010 0.3434
H105 H 0.8072 0.7273 0.3094
C86 C 0.9209(3) 1.09457(13) 0.36230(10)
H106 H 0.8487 1.1008 0.3450
H107 H 0.9850 1.0866 0.3460
C87 C 0.9482(4) 1.14641(14) 0.38684(13)
H108 H 0.8915 1.1499 0.4061
H109 H 0.9447 1.1806 0.3703
H110 H 1.0265 1.1427 0.4003
C88 C 0.8753(2) 0.96088(13) 0.44137(8)
H111 H 0.8504 1.0003 0.4472
H112 H 0.8263 0.9337 0.4546
loop_
_geom_bond_atom_site_label_1
_geom_bond_atom_site_label_2
_geom_bond_site_symmetry_1
_geom_bond_site_symmetry_2
O1 C1 1_555 1_555
O2 C4 1_555 1_555
O3 C17 1_555 1_555
O4 C14 1_555 1_555
O5 C28 1_555 1_555
O6 C25 1_555 1_555
O7 C35 1_555 1_555
O8 C38 1_555 1_555
O9 C50 1_555 1_555
O10 C47 1_555 1_555
O11 C57 1_555 1_555
O12 C60 1_555 1_555
O13 C68 1_555 1_555
O14 C71 1_555 1_555
O15 C79 1_555 1_555
O16 C82 1_555 1_555
C1 C2 1_555 1_555
C2 H1 1_555 1_555
C3 C2 1_555 1_555
C4 C3 1_555 1_555
C5 C4 1_555 1_555
H2 C5 1_555 1_555
C6 C1 1_555 1_555
C7 O1 1_555 1_555
H3 C7 1_555 1_555
H4 C7 1_555 1_555
C8 C7 1_555 1_555
H5 C8 1_555 1_555
H6 C8 1_555 1_555
H7 C8 1_555 1_555
C9 O2 1_555 1_555
H8 C9 1_555 1_555
H9 C9 1_555 1_555
C10 C9 1_555 1_555
H10 C10 1_555 1_555
H11 C10 1_555 1_555
H12 C10 1_555 1_555
C11 C6 1_555 1_555
H13 C11 1_555 1_555
H14 C11 1_555 1_555
C12 C11 1_555 1_555
C13 C12 1_555 1_555
H15 C13 1_555 1_555
C14 C13 1_555 1_555
C15 C14 1_555 1_555
C16 C15 1_555 1_555
H16 C16 1_555 1_555
C17 C12 1_555 1_555
C18 O3 1_555 1_555
H17 C18 1_555 1_555
H18 C18 1_555 1_555
C19 C18 1_555 1_555
H19 C19 1_555 1_555
H20 C19 1_555 1_555
H21 C19 1_555 1_555
C20 O4 1_555 1_555
H22 C20 1_555 1_555
H23 C20 1_555 1_555
C21 C20 1_555 1_555
H24 C21 1_555 1_555
H25 C21 1_555 1_555
H26 C21 1_555 1_555
C22 C15 1_555 1_555
H27 C22 1_555 1_555
H28 C22 1_555 1_555
C23 C22 1_555 1_555
C24 C23 1_555 1_555
H29 C24 1_555 1_555
C25 C24 1_555 1_555
C26 C25 1_555 1_555
C27 C26 1_555 1_555
H30 C27 1_555 1_555
C28 C23 1_555 1_555
C29 O5 1_555 1_555
H31 C29 1_555 1_555
H32 C29 1_555 1_555
C30 C29 1_555 1_555
H33 C30 1_555 1_555
H34 C30 1_555 1_555
H35 C30 1_555 1_555
C31 O6 1_555 1_555
H36 C31 1_555 1_555
H37 C31 1_555 1_555
C32 C31 1_555 1_555
H38 C32 1_555 1_555
H39 C32 1_555 1_555
H40 C32 1_555 1_555
C33 C26 1_555 1_555
H41 C33 1_555 1_555
H42 C33 1_555 1_555
C34 C33 1_555 1_555
C35 C34 1_555 1_555
C36 C35 1_555 1_555
H43 C36 1_555 1_555
C37 C36 1_555 1_555
C38 C37 1_555 1_555
C39 C34 1_555 1_555
H44 C39 1_555 1_555
C40 O7 1_555 1_555
H45 C40 1_555 1_555
H46 C40 1_555 1_555
C41 C40 1_555 1_555
H47 C41 1_555 1_555
H48 C41 1_555 1_555
H49 C41 1_555 1_555
C42 O8 1_555 1_555
H50 C42 1_555 1_555
H51 C42 1_555 1_555
C43 C42 1_555 1_555
H52 C43 1_555 1_555
H53 C43 1_555 1_555
H54 C43 1_555 1_555
C44 C37 1_555 1_555
H55 C44 1_555 1_555
H56 C44 1_555 1_555
C45 C44 1_555 1_555
C46 C45 1_555 1_555
H57 C46 1_555 1_555
C47 C46 1_555 1_555
C48 C47 1_555 1_555
C49 C48 1_555 1_555
H58 C49 1_555 1_555
C50 C45 1_555 1_555
C51 O9 1_555 1_555
H59 C51 1_555 1_555
H60 C51 1_555 1_555
C52 C51 1_555 1_555
H61 C52 1_555 1_555
H62 C52 1_555 1_555
H63 C52 1_555 1_555
C53 O10 1_555 1_555
H64 C53 1_555 1_555
H65 C53 1_555 1_555
C54 C53 1_555 1_555
H66 C54 1_555 1_555
H67 C54 1_555 1_555
H68 C54 1_555 1_555
C55 C48 1_555 1_555
H69 C55 1_555 1_555
H70 C55 1_555 1_555
C56 C55 1_555 1_555
C57 C56 1_555 1_555
C58 C57 1_555 1_555
H71 C58 1_555 1_555
C59 C58 1_555 1_555
C60 C59 1_555 1_555
C61 C56 1_555 1_555
H72 C61 1_555 1_555
C62 O11 1_555 1_555
H73 C62 1_555 1_555
H74 C62 1_555 1_555
C63 C62 1_555 1_555
H75 C63 1_555 1_555
H76 C63 1_555 1_555
H77 C63 1_555 1_555
C64 O12 1_555 1_555
H78 C64 1_555 1_555
H79 C64 1_555 1_555
C65 C64 1_555 1_555
H80 C65 1_555 1_555
H81 C65 1_555 1_555
H82 C65 1_555 1_555
C66 C59 1_555 1_555
H83 C66 1_555 1_555
H84 C66 1_555 1_555
C67 C66 1_555 1_555
C68 C67 1_555 1_555
C69 C68 1_555 1_555
H85 C69 1_555 1_555
C70 C69 1_555 1_555
C71 C70 1_555 1_555
C72 C67 1_555 1_555
H86 C72 1_555 1_555
C73 O13 1_555 1_555
H87 C73 1_555 1_555
H88 C73 1_555 1_555
C74 C73 1_555 1_555
H89 C74 1_555 1_555
H90 C74 1_555 1_555
H91 C74 1_555 1_555
C75 O14 1_555 1_555
H92 C75 1_555 1_555
H93 C75 1_555 1_555
C76 C75 1_555 1_555
H94 C76 1_555 1_555
H95 C76 1_555 1_555
H96 C76 1_555 1_555
C77 C70 1_555 1_555
H97 C77 1_555 1_555
H98 C77 1_555 1_555
C78 C77 1_555 1_555
C79 C78 1_555 1_555
C80 C79 1_555 1_555
H99 C80 1_555 1_555
C81 C80 1_555 1_555
C82 C81 1_555 1_555
C83 C78 1_555 1_555
H100 C83 1_555 1_555
C84 O15 1_555 1_555
H101 C84 1_555 1_555
H102 C84 1_555 1_555
C85 C84 1_555 1_555
H103 C85 1_555 1_555
H104 C85 1_555 1_555
H105 C85 1_555 1_555
C86 O16 1_555 1_555
H106 C86 1_555 1_555
H107 C86 1_555 1_555
C87 C86 1_555 1_555
H108 C87 1_555 1_555
H109 C87 1_555 1_555
H110 C87 1_555 1_555
C88 C3 1_555 1_555
H111 C88 1_555 1_555
H112 C88 1_555 1_555
C5 C6 1_555 1_555
C16 C17 1_555 1_555
C27 C28 1_555 1_555
C38 C39 1_555 1_555
C49 C50 1_555 1_555
C60 C61 1_555 1_555
C71 C72 1_555 1_555
C81 C88 1_555 1_555
C82 C83 1_555 1_555

#END
