
#######################################################################
#
#                 Cambridge Crystallographic Data Centre
#                                CCDC 
#
#######################################################################
#
# If this CIF has been generated from an entry in the Cambridge 
# Structural Database, then it will include bibliographic, chemical, 
# crystal, experimental, refinement or atomic coordinate data resulting 
# from the CCDC's data processing and validation procedures.
#
#######################################################################

data_ACOKEK
_chemical_name_common            '1,4-Diethoxypillar[10]arene acetone solvate'
_chemical_formula_moiety         'C110 H140 O20,6(C3 H6 O1)'
_chemical_name_systematic        
'1^2^,1^5^,3^2^,3^5^,5^2^,5^5^,7^2^,7^5^,9^2^,9^5^,11^2^,11^5^,13^2^,13^5^,15^2^,15^5^,17^2^,17^5^,19^2^,19^5^-Icosaethoxy-1,3,5,7,9,11,13,15,17,19(1,4)-decabenzenacycloicosaphane acetone solvate'
_symmetry_cell_setting           monoclinic
_symmetry_space_group_name_H-M   'C 2/c'
_symmetry_Int_Tables_number      15
_space_group_name_Hall           '-C 2yn'
loop_
_symmetry_equiv_pos_site_id
_symmetry_equiv_pos_as_xyz
1 x,y,z
2 -x,y,1/2-z
3 1/2+x,1/2+y,z
4 1/2-x,1/2+y,1/2-z
5 -x,-y,-z
6 x,-y,1/2+z
7 1/2-x,1/2-y,-z
8 1/2+x,1/2-y,1/2+z
_cell_length_a                   46.342(7)
_cell_length_b                   12.654(2)
_cell_length_c                   25.206(4)
_cell_angle_alpha                90
_cell_angle_beta                 122.625(2)
_cell_angle_gamma                90
_cell_volume                     12448.9
_exptl_crystal_colour            colorless
_exptl_crystal_description       block
_cell_formula_units_Z            4
loop_
_atom_site_label
_atom_site_type_symbol
_atom_site_fract_x
_atom_site_fract_y
_atom_site_fract_z
O1 O 0.01563(7) 0.5511(2) 0.14419(14)
O2 O 0.04118(7) 0.9232(2) 0.06136(14)
O3 O 0.08017(6) 0.5457(2) 0.03483(12)
O4 O 0.16122(6) 0.9044(2) 0.10259(12)
O5 O 0.20698(7) 0.5238(2) 0.20766(14)
O6 O 0.22969(7) 0.8978(2) 0.33837(13)
O7 O 0.22016(7) 0.5239(2) 0.42413(15)
O8 O 0.16660(6) 0.89439(19) 0.45375(12)
O9 O 0.10584(6) 0.5323(2) 0.41736(12)
O10 O 0.03794(7) 0.9155(2) 0.36277(14)
C1 C 0.00329(9) 0.7369(3) 0.18717(18)
H1 H 0.0108 0.8022 0.2128
H2 H 0.0127 0.6757 0.2162
C2 C 0.01688(8) 0.7363(3) 0.14427(16)
C3 C 0.02350(9) 0.8309(3) 0.12440(17)
H3 H 0.0210 0.8959 0.1404
C4 C 0.03361(9) 0.8320(3) 0.08182(17)
C5 C 0.03681(8) 0.7383(3) 0.05699(16)
C6 C 0.03101(8) 0.6437(3) 0.07794(16)
H4 H 0.0336 0.5787 0.0620
C7 C 0.02165(8) 0.6421(3) 0.12130(17)
C8 C 0.02260(11) 0.4524(3) 0.1262(2)
H5 H 0.0468 0.4497 0.1383
H6 H 0.0076 0.4428 0.0801
C9 C 0.01588(14) 0.3671(4) 0.1598(2)
H7 H 0.0312 0.3764 0.2054
H8 H 0.0200 0.2978 0.1477
H9 H -0.0080 0.3714 0.1481
C10 C 0.03649(13) 1.0226(3) 0.0836(2)
H10 H 0.0500 1.0242 0.1302
H11 H 0.0120 1.0331 0.0684
C11 C 0.04844(14) 1.1076(4) 0.0582(3)
H12 H 0.0727 1.0965 0.0738
H13 H 0.0455 1.1768 0.0722
H14 H 0.0349 1.1049 0.0121
C12 C 0.04651(9) 0.7381(3) 0.00792(16)
H15 H 0.0353 0.6773 -0.0208
H16 H 0.0379 0.8036 -0.0174
C13 C 0.08477(9) 0.7310(3) 0.03784(15)
C14 C 0.10447(9) 0.8226(3) 0.05370(16)
H17 H 0.0936 0.8898 0.0434
C15 C 0.14035(9) 0.8162(3) 0.08487(17)
C16 C 0.15687(9) 0.7189(3) 0.10065(16)
C17 C 0.13678(9) 0.6279(3) 0.08354(16)
H18 H 0.1475 0.5606 0.0931
C18 C 0.10114(9) 0.6341(3) 0.05252(16)
C19 C 0.09564(10) 0.4447(3) 0.0491(2)
H19 H 0.1115 0.4371 0.0953
H20 H 0.1090 0.4361 0.0293
C20 C 0.06824(12) 0.3624(3) 0.0248(2)
H21 H 0.0557 0.3697 0.0459
H22 H 0.0787 0.2921 0.0333
H23 H 0.0524 0.3716 -0.0207
C21 C 0.14655(12) 1.0059(3) 0.0927(2)
H24 H 0.1341 1.0121 0.1146
H25 H 0.1301 1.0181 0.0472
C22 C 0.17463(14) 1.0853(4) 0.1181(2)
H26 H 0.1922 1.0674 0.1618
H27 H 0.1654 1.1556 0.1167
H28 H 0.1848 1.0850 0.0926
C23 C 0.19538(9) 0.7111(3) 0.13912(18)
H29 H 0.2053 0.7723 0.1298
H30 H 0.2026 0.6459 0.1277
C24 C 0.20882(8) 0.7095(3) 0.20946(17)
C25 C 0.21360(9) 0.8049(3) 0.24080(17)
H31 H 0.2093 0.8697 0.2186
C26 C 0.22476(9) 0.8062(3) 0.30469(17)
C27 C 0.23183(8) 0.7125(3) 0.33794(16)
C28 C 0.22658(8) 0.6177(3) 0.30628(17)
H32 H 0.2315 0.5530 0.3287
C29 C 0.21410(9) 0.6160(3) 0.24179(17)
C30 C 0.20900(11) 0.4265(3) 0.2373(2)
H33 H 0.1949 0.4298 0.2558
H34 H 0.2330 0.4125 0.2715
C31 C 0.19647(13) 0.3408(4) 0.1900(3)
H35 H 0.1719 0.3499 0.1593
H36 H 0.2005 0.2724 0.2111
H37 H 0.2087 0.3433 0.1682
C32 C 0.22190(12) 0.9963(3) 0.3057(2)
H38 H 0.1977 0.9975 0.2701
H39 H 0.2367 1.0070 0.2890
C33 C 0.22826(14) 1.0814(4) 0.3524(2)
H40 H 0.2109 1.0770 0.3633
H41 H 0.2269 1.1507 0.3338
H42 H 0.2511 1.0721 0.3905
C34 C 0.24539(9) 0.7126(3) 0.40750(17)
H43 H 0.2594 0.7769 0.4268
H44 H 0.2606 0.6506 0.4273
C35 C 0.21762(8) 0.7094(3) 0.42194(16)
C36 C 0.20418(8) 0.8032(3) 0.42816(16)
H45 H 0.2116 0.8685 0.4208
C37 C 0.17998(8) 0.8035(3) 0.44502(16)
C38 C 0.16910(8) 0.7084(3) 0.45625(15)
C39 C 0.18192(9) 0.6150(3) 0.44906(17)
H46 H 0.1743 0.5498 0.4561
C40 C 0.20591(9) 0.6145(3) 0.43152(17)
C41 C 0.20960(13) 0.4252(3) 0.4347(3)
H47 H 0.1845 0.4172 0.4065
H48 H 0.2159 0.4201 0.4789
C42 C 0.22767(15) 0.3407(5) 0.4212(3)
H49 H 0.2203 0.3441 0.3767
H50 H 0.2220 0.2711 0.4302
H51 H 0.2525 0.3518 0.4478
C43 C 0.17916(11) 0.9931(3) 0.4461(2)
H52 H 0.1738 0.9997 0.4026
H53 H 0.2043 0.9971 0.4755
C44 C 0.16211(13) 1.0807(3) 0.4599(3)
H54 H 0.1373 1.0773 0.4298
H55 H 0.1707 1.1490 0.4560
H56 H 0.1672 1.0726 0.5028
C45 C 0.14587(9) 0.7068(3) 0.48193(17)
H57 H 0.1526 0.7657 0.5122
H58 H 0.1500 0.6401 0.5056
C46 C 0.10732(9) 0.7157(3) 0.43267(17)
C47 C 0.09108(10) 0.8125(3) 0.41971(18)
H59 H 0.1043 0.8743 0.4390
C48 C 0.05546(9) 0.8215(3) 0.37860(18)
C49 C 0.03614(9) 0.7311(3) 0.35212(16)
C50 C 0.05250(9) 0.6341(3) 0.36409(17)
H60 H 0.0393 0.5721 0.3451
C51 C 0.08801(9) 0.6261(3) 0.40348(16)
C52 C 0.08674(10) 0.4359(3) 0.39576(19)
H61 H 0.0715 0.4364 0.3492
H62 H 0.0724 0.4278 0.4136
C53 C 0.11166(12) 0.3469(3) 0.4166(2)
H63 H 0.1251 0.3541 0.3973
H64 H 0.0992 0.2797 0.4038
H65 H 0.1271 0.3485 0.4626
C54 C 0.05610(12) 1.0097(4) 0.3864(3)
H66 H 0.0739 1.0145 0.3762
H67 H 0.0676 1.0114 0.4327
C55 C 0.03222(14) 1.1009(4) 0.3580(3)
H68 H 0.0222 1.1019 0.3124
H69 H 0.0448 1.1668 0.3766
H70 H 0.0139 1.0940 0.3663
O1A O -0.01563(7) 0.5511(2) 0.35581(14)
O2A O -0.04118(7) 0.9232(2) 0.43864(14)
O3A O -0.08017(6) 0.5457(2) 0.46517(12)
O4A O -0.16122(6) 0.9044(2) 0.39741(12)
O5A O -0.20698(7) 0.5238(2) 0.29234(14)
O6A O -0.22969(7) 0.8978(2) 0.16163(13)
O7A O -0.22016(7) 0.5239(2) 0.07587(15)
O8A O -0.16660(6) 0.89439(19) 0.04625(12)
O9A O -0.10584(6) 0.5323(2) 0.08264(12)
O10A O -0.03794(7) 0.9155(2) 0.13723(14)
C1A C -0.00329(9) 0.7369(3) 0.31283(18)
H1A H -0.0108 0.8022 0.2872
H2A H -0.0127 0.6757 0.2838
C2A C -0.01688(8) 0.7363(3) 0.35573(16)
C3A C -0.02350(9) 0.8309(3) 0.37560(17)
H3A H -0.0210 0.8959 0.3596
C4A C -0.03361(9) 0.8320(3) 0.41818(17)
C5A C -0.03681(8) 0.7383(3) 0.44301(16)
C6A C -0.03101(8) 0.6437(3) 0.42206(16)
H4A H -0.0336 0.5787 0.4380
C7A C -0.02165(8) 0.6421(3) 0.37870(17)
C8A C -0.02260(11) 0.4524(3) 0.3738(2)
H5A H -0.0468 0.4497 0.3617
H6A H -0.0076 0.4428 0.4199
C9A C -0.01588(14) 0.3671(4) 0.3402(2)
H7A H -0.0312 0.3764 0.2946
H8A H -0.0200 0.2978 0.3523
H9A H 0.0080 0.3714 0.3519
C10A C -0.03649(13) 1.0226(3) 0.4164(2)
H10A H -0.0500 1.0242 0.3698
H11A H -0.0120 1.0331 0.4316
C11A C -0.04844(14) 1.1076(4) 0.4418(3)
H12A H -0.0727 1.0965 0.4262
H13A H -0.0455 1.1768 0.4278
H14A H -0.0349 1.1049 0.4879
C12A C -0.04651(9) 0.7381(3) 0.49208(16)
H15A H -0.0353 0.6773 0.5208
H16A H -0.0379 0.8036 0.5174
C13A C -0.08477(9) 0.7310(3) 0.46216(15)
C14A C -0.10447(9) 0.8226(3) 0.44630(16)
H17A H -0.0936 0.8898 0.4566
C15A C -0.14035(9) 0.8162(3) 0.41513(17)
C16A C -0.15687(9) 0.7189(3) 0.39935(16)
C17A C -0.13678(9) 0.6279(3) 0.41646(16)
H18A H -0.1475 0.5606 0.4069
C18A C -0.10114(9) 0.6341(3) 0.44748(16)
C19A C -0.09564(10) 0.4447(3) 0.4509(2)
H19A H -0.1115 0.4371 0.4047
H20A H -0.1090 0.4361 0.4707
C20A C -0.06824(12) 0.3624(3) 0.4752(2)
H21A H -0.0557 0.3697 0.4541
H22A H -0.0787 0.2921 0.4667
H23A H -0.0524 0.3716 0.5207
C21A C -0.14655(12) 1.0059(3) 0.4073(2)
H24A H -0.1341 1.0121 0.3854
H25A H -0.1301 1.0181 0.4528
C22A C -0.17463(14) 1.0853(4) 0.3819(2)
H26A H -0.1922 1.0674 0.3382
H27A H -0.1654 1.1556 0.3833
H28A H -0.1848 1.0850 0.4074
C23A C -0.19538(9) 0.7111(3) 0.36088(18)
H29A H -0.2053 0.7723 0.3702
H30A H -0.2026 0.6459 0.3723
C24A C -0.20882(8) 0.7095(3) 0.29054(17)
C25A C -0.21360(9) 0.8049(3) 0.25920(17)
H31A H -0.2093 0.8697 0.2814
C26A C -0.22476(9) 0.8062(3) 0.19531(17)
C27A C -0.23183(8) 0.7125(3) 0.16206(16)
C28A C -0.22658(8) 0.6177(3) 0.19372(17)
H32A H -0.2315 0.5530 0.1713
C29A C -0.21410(9) 0.6160(3) 0.25821(17)
C30A C -0.20900(11) 0.4265(3) 0.2627(2)
H33A H -0.1949 0.4298 0.2442
H34A H -0.2330 0.4125 0.2285
C31A C -0.19647(13) 0.3408(4) 0.3100(3)
H35A H -0.1719 0.3499 0.3407
H36A H -0.2005 0.2724 0.2889
H37A H -0.2087 0.3433 0.3318
C32A C -0.22190(12) 0.9963(3) 0.1943(2)
H38A H -0.1977 0.9975 0.2299
H39A H -0.2367 1.0070 0.2110
C33A C -0.22826(14) 1.0814(4) 0.1476(2)
H40A H -0.2109 1.0770 0.1367
H41A H -0.2269 1.1507 0.1662
H42A H -0.2511 1.0721 0.1095
C34A C -0.24539(9) 0.7126(3) 0.09250(17)
H43A H -0.2594 0.7769 0.0732
H44A H -0.2606 0.6506 0.0727
C35A C -0.21762(8) 0.7094(3) 0.07806(16)
C36A C -0.20418(8) 0.8032(3) 0.07184(16)
H45A H -0.2116 0.8685 0.0792
C37A C -0.17998(8) 0.8035(3) 0.05498(16)
C38A C -0.16910(8) 0.7084(3) 0.04375(15)
C39A C -0.18192(9) 0.6150(3) 0.05094(17)
H46A H -0.1743 0.5498 0.0439
C40A C -0.20591(9) 0.6145(3) 0.06848(17)
C41A C -0.20960(13) 0.4252(3) 0.0653(3)
H47A H -0.1845 0.4172 0.0935
H48A H -0.2159 0.4201 0.0211
C42A C -0.22767(15) 0.3407(5) 0.0788(3)
H49A H -0.2203 0.3441 0.1233
H50A H -0.2220 0.2711 0.0698
H51A H -0.2525 0.3518 0.0522
C43A C -0.17916(11) 0.9931(3) 0.0539(2)
H52A H -0.1738 0.9997 0.0974
H53A H -0.2043 0.9971 0.0245
C44A C -0.16211(13) 1.0807(3) 0.0401(3)
H54A H -0.1373 1.0773 0.0702
H55A H -0.1707 1.1490 0.0440
H56A H -0.1672 1.0726 -0.0028
C45A C -0.14587(9) 0.7068(3) 0.01807(17)
H57A H -0.1526 0.7657 -0.0122
H58A H -0.1500 0.6401 -0.0056
C46A C -0.10732(9) 0.7157(3) 0.06733(17)
C47A C -0.09108(10) 0.8125(3) 0.08029(18)
H59A H -0.1043 0.8743 0.0610
C48A C -0.05546(9) 0.8215(3) 0.12140(18)
C49A C -0.03614(9) 0.7311(3) 0.14788(16)
C50A C -0.05250(9) 0.6341(3) 0.13591(17)
H60A H -0.0393 0.5721 0.1549
C51A C -0.08801(9) 0.6261(3) 0.09652(16)
C52A C -0.08674(10) 0.4359(3) 0.10424(19)
H61A H -0.0715 0.4364 0.1508
H62A H -0.0724 0.4278 0.0864
C53A C -0.11166(12) 0.3469(3) 0.0834(2)
H63A H -0.1251 0.3541 0.1027
H64A H -0.0992 0.2797 0.0962
H65A H -0.1271 0.3485 0.0374
C54A C -0.05610(12) 1.0097(4) 0.1136(3)
H66A H -0.0739 1.0145 0.1238
H67A H -0.0676 1.0114 0.0673
C55A C -0.03222(14) 1.1009(4) 0.1420(3)
H68A H -0.0222 1.1019 0.1876
H69A H -0.0448 1.1668 0.1234
H70A H -0.0139 1.0940 0.1337
loop_
_geom_bond_atom_site_label_1
_geom_bond_atom_site_label_2
_geom_bond_site_symmetry_1
_geom_bond_site_symmetry_2
O1 C7 1_555 1_555
O2 C4 1_555 1_555
O3 C18 1_555 1_555
O4 C15 1_555 1_555
O5 C29 1_555 1_555
O6 C26 1_555 1_555
O7 C40 1_555 1_555
O8 C37 1_555 1_555
O9 C51 1_555 1_555
O10 C48 1_555 1_555
C1 H1 1_555 1_555
H2 C1 1_555 1_555
C2 C1 1_555 1_555
C3 C2 1_555 1_555
H3 C3 1_555 1_555
C4 C3 1_555 1_555
C5 C4 1_555 1_555
C6 C5 1_555 1_555
H4 C6 1_555 1_555
C7 C2 1_555 1_555
C8 O1 1_555 1_555
H5 C8 1_555 1_555
H6 C8 1_555 1_555
C9 C8 1_555 1_555
H7 C9 1_555 1_555
H8 C9 1_555 1_555
H9 C9 1_555 1_555
C10 O2 1_555 1_555
H10 C10 1_555 1_555
H11 C10 1_555 1_555
C11 C10 1_555 1_555
H12 C11 1_555 1_555
H13 C11 1_555 1_555
H14 C11 1_555 1_555
C12 C5 1_555 1_555
H15 C12 1_555 1_555
H16 C12 1_555 1_555
C13 C12 1_555 1_555
C14 C13 1_555 1_555
H17 C14 1_555 1_555
C15 C14 1_555 1_555
C16 C15 1_555 1_555
C17 C16 1_555 1_555
H18 C17 1_555 1_555
C18 C13 1_555 1_555
C19 O3 1_555 1_555
H19 C19 1_555 1_555
H20 C19 1_555 1_555
C20 C19 1_555 1_555
H21 C20 1_555 1_555
H22 C20 1_555 1_555
H23 C20 1_555 1_555
C21 O4 1_555 1_555
H24 C21 1_555 1_555
H25 C21 1_555 1_555
C22 C21 1_555 1_555
H26 C22 1_555 1_555
H27 C22 1_555 1_555
H28 C22 1_555 1_555
C23 C16 1_555 1_555
H29 C23 1_555 1_555
H30 C23 1_555 1_555
C24 C23 1_555 1_555
C25 C24 1_555 1_555
H31 C25 1_555 1_555
C26 C25 1_555 1_555
C27 C26 1_555 1_555
C28 C27 1_555 1_555
H32 C28 1_555 1_555
C29 C24 1_555 1_555
C30 O5 1_555 1_555
H33 C30 1_555 1_555
H34 C30 1_555 1_555
C31 C30 1_555 1_555
H35 C31 1_555 1_555
H36 C31 1_555 1_555
H37 C31 1_555 1_555
C32 O6 1_555 1_555
H38 C32 1_555 1_555
H39 C32 1_555 1_555
C33 C32 1_555 1_555
H40 C33 1_555 1_555
H41 C33 1_555 1_555
H42 C33 1_555 1_555
C34 C27 1_555 1_555
H43 C34 1_555 1_555
H44 C34 1_555 1_555
C35 C34 1_555 1_555
C36 C35 1_555 1_555
H45 C36 1_555 1_555
C37 C36 1_555 1_555
C38 C37 1_555 1_555
C39 C38 1_555 1_555
H46 C39 1_555 1_555
C40 C35 1_555 1_555
C41 O7 1_555 1_555
H47 C41 1_555 1_555
H48 C41 1_555 1_555
C42 C41 1_555 1_555
H49 C42 1_555 1_555
H50 C42 1_555 1_555
H51 C42 1_555 1_555
C43 O8 1_555 1_555
H52 C43 1_555 1_555
H53 C43 1_555 1_555
C44 C43 1_555 1_555
H54 C44 1_555 1_555
H55 C44 1_555 1_555
H56 C44 1_555 1_555
C45 C38 1_555 1_555
H57 C45 1_555 1_555
H58 C45 1_555 1_555
C46 C45 1_555 1_555
C47 C46 1_555 1_555
H59 C47 1_555 1_555
C48 C47 1_555 1_555
C49 C48 1_555 1_555
C50 C49 1_555 1_555
H60 C50 1_555 1_555
C51 C46 1_555 1_555
C52 O9 1_555 1_555
H61 C52 1_555 1_555
H62 C52 1_555 1_555
C53 C52 1_555 1_555
H63 C53 1_555 1_555
H64 C53 1_555 1_555
H65 C53 1_555 1_555
C54 O10 1_555 1_555
H66 C54 1_555 1_555
H67 C54 1_555 1_555
C55 C54 1_555 1_555
H68 C55 1_555 1_555
H69 C55 1_555 1_555
H70 C55 1_555 1_555
O1A C7A 1_555 1_555
O2A C4A 1_555 1_555
O3A C18A 1_555 1_555
O4A C15A 1_555 1_555
O5A C29A 1_555 1_555
O6A C26A 1_555 1_555
O7A C40A 1_555 1_555
O8A C37A 1_555 1_555
O9A C51A 1_555 1_555
O10A C48A 1_555 1_555
C1A C49 1_555 1_555
H1A C1A 1_555 1_555
H2A C1A 1_555 1_555
C2A C1A 1_555 1_555
C3A C2A 1_555 1_555
H3A C3A 1_555 1_555
C4A C3A 1_555 1_555
C5A C4A 1_555 1_555
C6A C5A 1_555 1_555
H4A C6A 1_555 1_555
C7A C2A 1_555 1_555
C8A O1A 1_555 1_555
H5A C8A 1_555 1_555
H6A C8A 1_555 1_555
C9A C8A 1_555 1_555
H7A C9A 1_555 1_555
H8A C9A 1_555 1_555
H9A C9A 1_555 1_555
C10A O2A 1_555 1_555
H10A C10A 1_555 1_555
H11A C10A 1_555 1_555
C11A C10A 1_555 1_555
H12A C11A 1_555 1_555
H13A C11A 1_555 1_555
H14A C11A 1_555 1_555
C12A C5A 1_555 1_555
H15A C12A 1_555 1_555
H16A C12A 1_555 1_555
C13A C12A 1_555 1_555
C14A C13A 1_555 1_555
H17A C14A 1_555 1_555
C15A C14A 1_555 1_555
C16A C15A 1_555 1_555
C17A C16A 1_555 1_555
H18A C17A 1_555 1_555
C18A C13A 1_555 1_555
C19A O3A 1_555 1_555
H19A C19A 1_555 1_555
H20A C19A 1_555 1_555
C20A C19A 1_555 1_555
H21A C20A 1_555 1_555
H22A C20A 1_555 1_555
H23A C20A 1_555 1_555
C21A O4A 1_555 1_555
H24A C21A 1_555 1_555
H25A C21A 1_555 1_555
C22A C21A 1_555 1_555
H26A C22A 1_555 1_555
H27A C22A 1_555 1_555
H28A C22A 1_555 1_555
C23A C16A 1_555 1_555
H29A C23A 1_555 1_555
H30A C23A 1_555 1_555
C24A C23A 1_555 1_555
C25A C24A 1_555 1_555
H31A C25A 1_555 1_555
C26A C25A 1_555 1_555
C27A C26A 1_555 1_555
C28A C27A 1_555 1_555
H32A C28A 1_555 1_555
C29A C24A 1_555 1_555
C30A O5A 1_555 1_555
H33A C30A 1_555 1_555
H34A C30A 1_555 1_555
C31A C30A 1_555 1_555
H35A C31A 1_555 1_555
H36A C31A 1_555 1_555
H37A C31A 1_555 1_555
C32A O6A 1_555 1_555
H38A C32A 1_555 1_555
H39A C32A 1_555 1_555
C33A C32A 1_555 1_555
H40A C33A 1_555 1_555
H41A C33A 1_555 1_555
H42A C33A 1_555 1_555
C34A C27A 1_555 1_555
H43A C34A 1_555 1_555
H44A C34A 1_555 1_555
C35A C34A 1_555 1_555
C36A C35A 1_555 1_555
H45A C36A 1_555 1_555
C37A C36A 1_555 1_555
C38A C37A 1_555 1_555
C39A C38A 1_555 1_555
H46A C39A 1_555 1_555
C40A C35A 1_555 1_555
C41A O7A 1_555 1_555
H47A C41A 1_555 1_555
H48A C41A 1_555 1_555
C42A C41A 1_555 1_555
H49A C42A 1_555 1_555
H50A C42A 1_555 1_555
H51A C42A 1_555 1_555
C43A O8A 1_555 1_555
H52A C43A 1_555 1_555
H53A C43A 1_555 1_555
C44A C43A 1_555 1_555
H54A C44A 1_555 1_555
H55A C44A 1_555 1_555
H56A C44A 1_555 1_555
C45A C38A 1_555 1_555
H57A C45A 1_555 1_555
H58A C45A 1_555 1_555
C46A C45A 1_555 1_555
C47A C46A 1_555 1_555
H59A C47A 1_555 1_555
C48A C47A 1_555 1_555
C49A C1 1_555 1_555
C50A C49A 1_555 1_555
H60A C50A 1_555 1_555
C51A C46A 1_555 1_555
C52A O9A 1_555 1_555
H61A C52A 1_555 1_555
H62A C52A 1_555 1_555
C53A C52A 1_555 1_555
H63A C53A 1_555 1_555
H64A C53A 1_555 1_555
H65A C53A 1_555 1_555
C54A O10A 1_555 1_555
H66A C54A 1_555 1_555
H67A C54A 1_555 1_555
C55A C54A 1_555 1_555
H68A C55A 1_555 1_555
H69A C55A 1_555 1_555
H70A C55A 1_555 1_555
C6 C7 1_555 1_555
C17 C18 1_555 1_555
C28 C29 1_555 1_555
C39 C40 1_555 1_555
C50 C51 1_555 1_555
C6A C7A 1_555 1_555
C17A C18A 1_555 1_555
C28A C29A 1_555 1_555
C39A C40A 1_555 1_555
C48A C49A 1_555 1_555
C50A C51A 1_555 1_555

#END
