
#######################################################################
#
#                 Cambridge Crystallographic Data Centre
#                                CCDC 
#
#######################################################################
#
# If this CIF has been generated from an entry in the Cambridge 
# Structural Database, then it will include bibliographic, chemical, 
# crystal, experimental, refinement or atomic coordinate data resulting 
# from the CCDC's data processing and validation procedures.
#
#######################################################################

data_ACOKAG
_chemical_name_common            
'1,4-Diethoxypillar[9]arene N,N-dimethylformamide solvate'
_chemical_formula_moiety         'C99 H126 O18,4(C3 H7 N1 O1)'
_chemical_name_systematic        
'1^2^,1^5^,3^2^,3^5^,5^2^,5^5^,7^2^,7^5^,9^2^,9^5^,11^2^,11^5^,13^2^,13^5^,15^2^,15^5^,17^2^,17^5^-Octadecaethoxy-1,3,5,7,9,11,13,15,17(1,4)-nonabenzenacyclooctadecaphane N,N-dimethylformamide solvate'
_symmetry_cell_setting           monoclinic
_symmetry_space_group_name_H-M   'C 2/c'
_symmetry_Int_Tables_number      15
_space_group_name_Hall           '-C 2yn'
loop_
_symmetry_equiv_pos_site_id
_symmetry_equiv_pos_as_xyz
1 x,y,z
2 -x,y,1/2-z
3 1/2+x,1/2+y,z
4 1/2-x,1/2+y,1/2-z
5 -x,-y,-z
6 x,-y,1/2+z
7 1/2-x,1/2-y,-z
8 1/2+x,1/2-y,1/2+z
_cell_length_a                   11.872(3)
_cell_length_b                   43.653(11)
_cell_length_c                   21.478(5)
_cell_angle_alpha                90
_cell_angle_beta                 97.396(4)
_cell_angle_gamma                90
_cell_volume                     11038.3
_exptl_crystal_colour            colorless
_exptl_crystal_description       block
_cell_formula_units_Z            4
loop_
_atom_site_label
_atom_site_type_symbol
_atom_site_fract_x
_atom_site_fract_y
_atom_site_fract_z
O1 O 0.8153(2) 0.15948(6) 0.40077(15)
O2 O 1.2049(2) 0.11667(6) 0.31507(14)
O3 O 0.7794(2) 0.27230(7) 0.38720(16)
O4 O 1.1984(3) 0.21553(7) 0.42779(18)
O5 O 0.7566(3) 0.38256(7) 0.44931(17)
O6 O 1.1526(3) 0.33106(7) 0.38958(19)
O7 O 0.7567(3) 0.49365(9) 0.38107(19)
O8 O 1.1544(3) 0.44043(7) 0.49102(15)
O9 O 1.1737(4) 0.52846(10) 0.34763(17)
C1 C 1.0000 0.09700(12) 0.2500
H1 H 0.9320 0.0837 0.2478
C2 C 1.0073(3) 0.11694(8) 0.30784(19)
C3 C 1.1095(3) 0.12733(8) 0.33894(19)
C4 C 1.1124(3) 0.14745(8) 0.38776(19)
H2 H 1.1841 0.1541 0.4080
C5 C 1.0145(3) 0.15847(8) 0.40885(18)
C6 C 0.9112(3) 0.14782(8) 0.3789(2)
C7 C 0.9079(3) 0.12729(8) 0.33016(19)
H3 H 0.8364 0.1199 0.3111
C8 C 0.7091(4) 0.14629(11) 0.3812(3)
H4 H 0.7084 0.1247 0.3954
H5 H 0.6936 0.1466 0.3348
C9 C 0.6209(4) 0.16408(11) 0.4084(3)
H6 H 0.6393 0.1647 0.4542
H7 H 0.5467 0.1543 0.3973
H8 H 0.6183 0.1850 0.3917
C10 C 1.3118(4) 0.12082(13) 0.3512(2)
H9 H 1.3152 0.1093 0.3911
H10 H 1.3245 0.1428 0.3612
C11 C 1.4013(4) 0.10929(11) 0.3134(2)
H11 H 1.3802 0.0888 0.2970
H12 H 1.4745 0.1082 0.3402
H13 H 1.4074 0.1233 0.2784
C12 C 1.0182(4) 0.18222(9) 0.4596(2)
H14 H 1.0917 0.1808 0.4871
H15 H 0.9569 0.1781 0.4857
C13 C 1.0038(3) 0.21482(9) 0.43229(18)
C14 C 1.0955(3) 0.23058(9) 0.41513(19)
C15 C 1.0794(4) 0.25868(9) 0.3855(2)
H16 H 1.1426 0.2688 0.3719
C16 C 0.9734(3) 0.27234(9) 0.37534(19)
C17 C 0.8815(3) 0.25755(8) 0.39629(19)
C18 C 0.8978(3) 0.22859(9) 0.42365(19)
H17 H 0.8347 0.2181 0.4366
C19 C 0.6811(4) 0.25672(10) 0.4002(3)
H18 H 0.6888 0.2508 0.4450
H19 H 0.6697 0.2379 0.3743
C20 C 0.5838(4) 0.27762(13) 0.3854(3)
H20 H 0.5991 0.2969 0.4083
H21 H 0.5153 0.2681 0.3978
H22 H 0.5723 0.2818 0.3402
C21 C 1.3001(4) 0.23276(11) 0.4289(2)
H23 H 1.2977 0.2509 0.4564
H24 H 1.3090 0.2399 0.3861
C22 C 1.3951(4) 0.21281(12) 0.4528(3)
H25 H 1.3763 0.2017 0.4898
H26 H 1.4632 0.2253 0.4646
H27 H 1.4094 0.1981 0.4202
C23 C 0.9553(4) 0.30255(9) 0.3396(2)
H28 H 1.0158 0.3049 0.3122
H29 H 0.8817 0.3017 0.3121
C24 C 0.9558(4) 0.33040(9) 0.38160(19)
C25 C 1.0558(4) 0.34413(9) 0.4056(2)
C26 C 1.0557(4) 0.36917(9) 0.4452(2)
H30 H 1.1260 0.3779 0.4627
C27 C 0.9561(4) 0.38172(8) 0.45988(19)
C28 C 0.8540(4) 0.36869(9) 0.4334(2)
C29 C 0.8549(4) 0.34280(9) 0.3957(2)
H31 H 0.7850 0.3335 0.3793
C30 C 0.6515(4) 0.36922(12) 0.4287(3)
H32 H 0.6493 0.3480 0.4445
H33 H 0.6387 0.3687 0.3823
C31 C 0.5622(5) 0.38797(13) 0.4531(3)
H34 H 0.5752 0.3882 0.4990
H35 H 0.4874 0.3791 0.4390
H36 H 0.5651 0.4090 0.4372
C32 C 1.2545(5) 0.34836(15) 0.3971(4)
H37 H 1.2826 0.3512 0.4421
H38 H 1.2422 0.3687 0.3772
C33 C 1.3387(7) 0.3298(2) 0.3649(6)
H39 H 1.3546 0.3104 0.3874
H40 H 1.4093 0.3414 0.3652
H41 H 1.3063 0.3255 0.3215
C34 C 0.9565(4) 0.40907(8) 0.50313(19)
H42 H 0.8886 0.4081 0.5254
H43 H 1.0245 0.4080 0.5350
C35 C 0.9566(3) 0.43941(8) 0.46912(17)
C36 C 1.0559(3) 0.45488(8) 0.46377(17)
C37 C 1.0559(3) 0.48313(8) 0.43524(17)
H44 H 1.1254 0.4936 0.4333
C38 C 0.9532(4) 0.49625(8) 0.40917(17)
C39 C 0.8536(4) 0.48021(9) 0.4106(2)
C40 C 0.8557(4) 0.45227(9) 0.44152(19)
H45 H 0.7863 0.4417 0.4438
C41 C 0.6546(6) 0.47824(18) 0.3797(5)
H46 H 0.6332 0.4763 0.4225
H47 H 0.6601 0.4575 0.3617
C42 C 0.5654(8) 0.4980(3) 0.3375(7)
H48 H 0.5383 0.5145 0.3626
H49 H 0.5012 0.4851 0.3206
H50 H 0.6008 0.5068 0.3028
C43 C 1.2587(5) 0.45575(13) 0.4900(3)
H51 H 1.2582 0.4757 0.5118
H52 H 1.2730 0.4594 0.4462
C44 C 1.3473(6) 0.4353(2) 0.5228(6)
H53 H 1.3468 0.4369 0.5683
H54 H 1.4220 0.4413 0.5122
H55 H 1.3315 0.4141 0.5096
C45 C 0.9544(4) 0.52797(9) 0.37974(18)
H56 H 0.8799 0.5379 0.3814
H57 H 1.0129 0.5406 0.4048
C46 C 0.9785(4) 0.52734(8) 0.31309(18)
C47 C 0.8912(4) 0.52724(10) 0.2646(2)
H58 H 0.8151 0.5269 0.2738
C48 C 1.0884(4) 0.52767(10) 0.29812(19)
C49 C 1.2683(5) 0.54552(16) 0.3433(3)
H59 H 1.2454 0.5659 0.3255
H60 H 1.3148 0.5353 0.3142
C50 C 1.3372(6) 0.54962(18) 0.4050(3)
H61 H 1.3016 0.5651 0.4292
H62 H 1.4137 0.5564 0.3989
H63 H 1.3419 0.5301 0.4278
O1A O 1.1847(2) 0.15948(6) 0.09923(15)
O2A O 0.7951(2) 0.11667(6) 0.18493(14)
O3A O 1.2206(2) 0.27230(7) 0.11280(16)
O4A O 0.8016(3) 0.21553(7) 0.07221(18)
O5A O 1.2434(3) 0.38256(7) 0.05069(17)
O6A O 0.8474(3) 0.33106(7) 0.11042(19)
O7A O 1.2433(3) 0.49365(9) 0.11893(19)
O8A O 0.8456(3) 0.44043(7) 0.00898(15)
O9A O 0.8263(4) 0.52846(10) 0.15237(17)
H1A H 1.0680 0.0837 0.2522
C2A C 0.9927(3) 0.11694(8) 0.19216(19)
C3A C 0.8905(3) 0.12733(8) 0.16106(19)
C4A C 0.8876(3) 0.14745(8) 0.11224(19)
H2A H 0.8159 0.1541 0.0920
C5A C 0.9855(3) 0.15847(8) 0.09115(18)
C6A C 1.0888(3) 0.14782(8) 0.1211(2)
C7A C 1.0921(3) 0.12729(8) 0.16984(19)
H3A H 1.1636 0.1199 0.1889
C8A C 1.2909(4) 0.14629(11) 0.1188(3)
H4A H 1.2916 0.1247 0.1046
H5A H 1.3064 0.1466 0.1652
C9A C 1.3791(4) 0.16408(11) 0.0916(3)
H6A H 1.3607 0.1647 0.0458
H7A H 1.4533 0.1543 0.1027
H8A H 1.3817 0.1850 0.1083
C10A C 0.6882(4) 0.12082(13) 0.1488(2)
H9A H 0.6848 0.1093 0.1089
H10A H 0.6755 0.1428 0.1388
C11A C 0.5987(4) 0.10929(11) 0.1866(2)
H11A H 0.6198 0.0888 0.2030
H12A H 0.5255 0.1082 0.1598
H13A H 0.5926 0.1233 0.2216
C12A C 0.9818(4) 0.18222(9) 0.0404(2)
H14A H 0.9083 0.1808 0.0129
H15A H 1.0431 0.1781 0.0143
C13A C 0.9962(3) 0.21482(9) 0.06771(18)
C14A C 0.9045(3) 0.23058(9) 0.08487(19)
C15A C 0.9206(4) 0.25868(9) 0.1145(2)
H16A H 0.8574 0.2688 0.1281
C16A C 1.0266(3) 0.27234(9) 0.12466(19)
C17A C 1.1185(3) 0.25755(8) 0.10371(19)
C18A C 1.1022(3) 0.22859(9) 0.07635(19)
H17A H 1.1653 0.2181 0.0634
C19A C 1.3189(4) 0.25672(10) 0.0998(3)
H18A H 1.3112 0.2508 0.0550
H19A H 1.3303 0.2379 0.1257
C20A C 1.4162(4) 0.27762(13) 0.1146(3)
H20A H 1.4009 0.2969 0.0917
H21A H 1.4847 0.2681 0.1022
H22A H 1.4277 0.2818 0.1598
C21A C 0.6999(4) 0.23276(11) 0.0711(2)
H23A H 0.7023 0.2509 0.0436
H24A H 0.6910 0.2399 0.1139
C22A C 0.6049(4) 0.21281(12) 0.0472(3)
H25A H 0.6237 0.2017 0.0102
H26A H 0.5368 0.2253 0.0354
H27A H 0.5906 0.1981 0.0798
C23A C 1.0447(4) 0.30255(9) 0.1604(2)
H28A H 0.9842 0.3049 0.1878
H29A H 1.1183 0.3017 0.1879
C24A C 1.0442(4) 0.33040(9) 0.11840(19)
C25A C 0.9442(4) 0.34413(9) 0.0944(2)
C26A C 0.9443(4) 0.36917(9) 0.0548(2)
H30A H 0.8740 0.3779 0.0373
C27A C 1.0439(4) 0.38172(8) 0.04012(19)
C28A C 1.1460(4) 0.36869(9) 0.0666(2)
C29A C 1.1451(4) 0.34280(9) 0.1043(2)
H31A H 1.2150 0.3335 0.1207
C30A C 1.3485(4) 0.36922(12) 0.0713(3)
H32A H 1.3507 0.3480 0.0555
H33A H 1.3613 0.3687 0.1177
C31A C 1.4378(5) 0.38797(13) 0.0469(3)
H34A H 1.4248 0.3882 0.0010
H35A H 1.5126 0.3791 0.0610
H36A H 1.4349 0.4090 0.0628
C32A C 0.7455(5) 0.34836(15) 0.1029(4)
H37A H 0.7174 0.3512 0.0579
H38A H 0.7578 0.3687 0.1228
C33A C 0.6613(7) 0.3298(2) 0.1351(6)
H39A H 0.6454 0.3104 0.1126
H40A H 0.5907 0.3414 0.1348
H41A H 0.6937 0.3255 0.1785
C34A C 1.0435(4) 0.40907(8) -0.00313(19)
H42A H 1.1114 0.4081 -0.0254
H43A H 0.9755 0.4080 -0.0350
C35A C 1.0434(3) 0.43941(8) 0.03088(17)
C36A C 0.9441(3) 0.45488(8) 0.03623(17)
C37A C 0.9441(3) 0.48313(8) 0.06476(17)
H44A H 0.8746 0.4936 0.0667
C38A C 1.0468(4) 0.49625(8) 0.09083(17)
C39A C 1.1464(4) 0.48021(9) 0.0894(2)
C40A C 1.1443(4) 0.45227(9) 0.05848(19)
H45A H 1.2137 0.4417 0.0562
C41A C 1.3454(6) 0.47824(18) 0.1203(5)
H46A H 1.3668 0.4763 0.0775
H47A H 1.3399 0.4575 0.1383
C42A C 1.4346(8) 0.4980(3) 0.1625(7)
H48A H 1.4617 0.5145 0.1374
H49A H 1.4988 0.4851 0.1794
H50A H 1.3992 0.5068 0.1972
C43A C 0.7413(5) 0.45575(13) 0.0100(3)
H51A H 0.7418 0.4757 -0.0118
H52A H 0.7270 0.4594 0.0538
C44A C 0.6527(6) 0.4353(2) -0.0228(6)
H53A H 0.6532 0.4369 -0.0683
H54A H 0.5780 0.4413 -0.0122
H55A H 0.6685 0.4141 -0.0096
C45A C 1.0456(4) 0.52797(9) 0.12026(18)
H56A H 1.1201 0.5379 0.1186
H57A H 0.9871 0.5406 0.0952
C46A C 1.0215(4) 0.52734(8) 0.18691(18)
C47A C 1.1088(4) 0.52724(10) 0.2354(2)
H58A H 1.1849 0.5269 0.2262
C48A C 0.9116(4) 0.52767(10) 0.20188(19)
C49A C 0.7317(5) 0.54552(16) 0.1567(3)
H59A H 0.7546 0.5659 0.1745
H60A H 0.6852 0.5353 0.1858
C50A C 0.6628(6) 0.54962(18) 0.0950(3)
H61A H 0.6984 0.5651 0.0708
H62A H 0.5863 0.5564 0.1011
H63A H 0.6581 0.5301 0.0722
loop_
_geom_bond_atom_site_label_1
_geom_bond_atom_site_label_2
_geom_bond_site_symmetry_1
_geom_bond_site_symmetry_2
O1 C6 1_555 1_555
O2 C3 1_555 1_555
O3 C17 1_555 1_555
O4 C14 1_555 1_555
O5 C28 1_555 1_555
O6 C25 1_555 1_555
O7 C39 1_555 1_555
O8 C36 1_555 1_555
O9 C48 1_555 1_555
C1 H1 1_555 1_555
C2 C1 1_555 1_555
C3 C2 1_555 1_555
C4 C3 1_555 1_555
H2 C4 1_555 1_555
C5 C4 1_555 1_555
C6 C5 1_555 1_555
C7 C2 1_555 1_555
H3 C7 1_555 1_555
C8 O1 1_555 1_555
H4 C8 1_555 1_555
H5 C8 1_555 1_555
C9 C8 1_555 1_555
H6 C9 1_555 1_555
H7 C9 1_555 1_555
H8 C9 1_555 1_555
C10 O2 1_555 1_555
H9 C10 1_555 1_555
H10 C10 1_555 1_555
C11 C10 1_555 1_555
H11 C11 1_555 1_555
H12 C11 1_555 1_555
H13 C11 1_555 1_555
C12 C5 1_555 1_555
H14 C12 1_555 1_555
H15 C12 1_555 1_555
C13 C12 1_555 1_555
C14 C13 1_555 1_555
C15 C14 1_555 1_555
H16 C15 1_555 1_555
C16 C15 1_555 1_555
C17 C16 1_555 1_555
C18 C13 1_555 1_555
H17 C18 1_555 1_555
C19 O3 1_555 1_555
H18 C19 1_555 1_555
H19 C19 1_555 1_555
C20 C19 1_555 1_555
H20 C20 1_555 1_555
H21 C20 1_555 1_555
H22 C20 1_555 1_555
C21 O4 1_555 1_555
H23 C21 1_555 1_555
H24 C21 1_555 1_555
C22 C21 1_555 1_555
H25 C22 1_555 1_555
H26 C22 1_555 1_555
H27 C22 1_555 1_555
C23 C16 1_555 1_555
H28 C23 1_555 1_555
H29 C23 1_555 1_555
C24 C23 1_555 1_555
C25 C24 1_555 1_555
C26 C25 1_555 1_555
H30 C26 1_555 1_555
C27 C26 1_555 1_555
C28 C27 1_555 1_555
C29 C24 1_555 1_555
H31 C29 1_555 1_555
C30 O5 1_555 1_555
H32 C30 1_555 1_555
H33 C30 1_555 1_555
C31 C30 1_555 1_555
H34 C31 1_555 1_555
H35 C31 1_555 1_555
H36 C31 1_555 1_555
C32 O6 1_555 1_555
H37 C32 1_555 1_555
H38 C32 1_555 1_555
C33 C32 1_555 1_555
H39 C33 1_555 1_555
H40 C33 1_555 1_555
H41 C33 1_555 1_555
C34 C27 1_555 1_555
H42 C34 1_555 1_555
H43 C34 1_555 1_555
C35 C34 1_555 1_555
C36 C35 1_555 1_555
C37 C36 1_555 1_555
H44 C37 1_555 1_555
C38 C37 1_555 1_555
C39 C38 1_555 1_555
C40 C35 1_555 1_555
H45 C40 1_555 1_555
C41 O7 1_555 1_555
H46 C41 1_555 1_555
H47 C41 1_555 1_555
C42 C41 1_555 1_555
H48 C42 1_555 1_555
H49 C42 1_555 1_555
H50 C42 1_555 1_555
C43 O8 1_555 1_555
H51 C43 1_555 1_555
H52 C43 1_555 1_555
C44 C43 1_555 1_555
H53 C44 1_555 1_555
H54 C44 1_555 1_555
H55 C44 1_555 1_555
C45 C38 1_555 1_555
H56 C45 1_555 1_555
H57 C45 1_555 1_555
C46 C45 1_555 1_555
C47 C46 1_555 1_555
H58 C47 1_555 1_555
C48 C46 1_555 1_555
C49 O9 1_555 1_555
H59 C49 1_555 1_555
H60 C49 1_555 1_555
C50 C49 1_555 1_555
H61 C50 1_555 1_555
H62 C50 1_555 1_555
H63 C50 1_555 1_555
O1A C6A 1_555 1_555
O2A C3A 1_555 1_555
O3A C17A 1_555 1_555
O4A C14A 1_555 1_555
O5A C28A 1_555 1_555
O6A C25A 1_555 1_555
O7A C39A 1_555 1_555
O8A C36A 1_555 1_555
O9A C48A 1_555 1_555
H1A C1 1_555 1_555
C2A C1 1_555 1_555
C3A C2A 1_555 1_555
C4A C3A 1_555 1_555
H2A C4A 1_555 1_555
C5A C4A 1_555 1_555
C6A C5A 1_555 1_555
C7A C2A 1_555 1_555
H3A C7A 1_555 1_555
C8A O1A 1_555 1_555
H4A C8A 1_555 1_555
H5A C8A 1_555 1_555
C9A C8A 1_555 1_555
H6A C9A 1_555 1_555
H7A C9A 1_555 1_555
H8A C9A 1_555 1_555
C10A O2A 1_555 1_555
H9A C10A 1_555 1_555
H10A C10A 1_555 1_555
C11A C10A 1_555 1_555
H11A C11A 1_555 1_555
H12A C11A 1_555 1_555
H13A C11A 1_555 1_555
C12A C5A 1_555 1_555
H14A C12A 1_555 1_555
H15A C12A 1_555 1_555
C13A C12A 1_555 1_555
C14A C13A 1_555 1_555
C15A C14A 1_555 1_555
H16A C15A 1_555 1_555
C16A C15A 1_555 1_555
C17A C16A 1_555 1_555
C18A C13A 1_555 1_555
H17A C18A 1_555 1_555
C19A O3A 1_555 1_555
H18A C19A 1_555 1_555
H19A C19A 1_555 1_555
C20A C19A 1_555 1_555
H20A C20A 1_555 1_555
H21A C20A 1_555 1_555
H22A C20A 1_555 1_555
C21A O4A 1_555 1_555
H23A C21A 1_555 1_555
H24A C21A 1_555 1_555
C22A C21A 1_555 1_555
H25A C22A 1_555 1_555
H26A C22A 1_555 1_555
H27A C22A 1_555 1_555
C23A C16A 1_555 1_555
H28A C23A 1_555 1_555
H29A C23A 1_555 1_555
C24A C23A 1_555 1_555
C25A C24A 1_555 1_555
C26A C25A 1_555 1_555
H30A C26A 1_555 1_555
C27A C26A 1_555 1_555
C28A C27A 1_555 1_555
C29A C24A 1_555 1_555
H31A C29A 1_555 1_555
C30A O5A 1_555 1_555
H32A C30A 1_555 1_555
H33A C30A 1_555 1_555
C31A C30A 1_555 1_555
H34A C31A 1_555 1_555
H35A C31A 1_555 1_555
H36A C31A 1_555 1_555
C32A O6A 1_555 1_555
H37A C32A 1_555 1_555
H38A C32A 1_555 1_555
C33A C32A 1_555 1_555
H39A C33A 1_555 1_555
H40A C33A 1_555 1_555
H41A C33A 1_555 1_555
C34A C27A 1_555 1_555
H42A C34A 1_555 1_555
H43A C34A 1_555 1_555
C35A C34A 1_555 1_555
C36A C35A 1_555 1_555
C37A C36A 1_555 1_555
H44A C37A 1_555 1_555
C38A C37A 1_555 1_555
C39A C38A 1_555 1_555
C40A C35A 1_555 1_555
H45A C40A 1_555 1_555
C41A O7A 1_555 1_555
H46A C41A 1_555 1_555
H47A C41A 1_555 1_555
C42A C41A 1_555 1_555
H48A C42A 1_555 1_555
H49A C42A 1_555 1_555
H50A C42A 1_555 1_555
C43A O8A 1_555 1_555
H51A C43A 1_555 1_555
H52A C43A 1_555 1_555
C44A C43A 1_555 1_555
H53A C44A 1_555 1_555
H54A C44A 1_555 1_555
H55A C44A 1_555 1_555
C45A C38A 1_555 1_555
H56A C45A 1_555 1_555
H57A C45A 1_555 1_555
C46A C45A 1_555 1_555
C47A C48 1_555 1_555
H58A C47A 1_555 1_555
C48A C47 1_555 1_555
C49A O9A 1_555 1_555
H59A C49A 1_555 1_555
H60A C49A 1_555 1_555
C50A C49A 1_555 1_555
H61A C50A 1_555 1_555
H62A C50A 1_555 1_555
H63A C50A 1_555 1_555
C6 C7 1_555 1_555
C17 C18 1_555 1_555
C28 C29 1_555 1_555
C39 C40 1_555 1_555
C6A C7A 1_555 1_555
C17A C18A 1_555 1_555
C28A C29A 1_555 1_555
C39A C40A 1_555 1_555
C46A C47A 1_555 1_555
C46A C48A 1_555 1_555

#END
