
#######################################################################
#
#                 Cambridge Crystallographic Data Centre
#                                CCDC 
#
#######################################################################
#
# If this CIF has been generated from an entry in the Cambridge 
# Structural Database, then it will include bibliographic, chemical, 
# crystal, experimental, refinement or atomic coordinate data resulting 
# from the CCDC's data processing and validation procedures.
#
#######################################################################

data_ACOLET10
_chemical_compound_source        'Plant pathogen Colletrotrichum capsici'
_chemical_formula_moiety         'C30 H44 O8'
_chemical_name_systematic        'Colletotrichin acetate'
_symmetry_cell_setting           orthorhombic
_symmetry_space_group_name_H-M   'P 21 21 21'
_symmetry_Int_Tables_number      19
_space_group_name_Hall           'P 2ac 2ab'
loop_
_symmetry_equiv_pos_site_id
_symmetry_equiv_pos_as_xyz
1 x,y,z
2 1/2+x,1/2-y,-z
3 -x,1/2+y,1/2-z
4 1/2-x,-y,1/2+z
_cell_length_a                   16.370(12)
_cell_length_b                   11.919(3)
_cell_length_c                   15.506(9)
_cell_angle_alpha                90
_cell_angle_beta                 90
_cell_angle_gamma                90
_cell_volume                     3025.44
_chemical_melting_point          167-168deg.C
_cell_formula_units_Z            4
loop_
_atom_site_label
_atom_site_type_symbol
_atom_site_fract_x
_atom_site_fract_y
_atom_site_fract_z
C1 C 0.52360 0.31470 1.07750
C2 C 0.48880 0.23560 1.14510
C3 C 0.49640 0.11420 1.11810
O1 O 0.58280 0.08770 1.10870
C4 C 0.62240 0.03030 1.17390
O2 O 0.59120 0.01030 1.24020
C5 C 0.70570 -0.00230 1.14610
C6 C 0.45470 0.08790 1.03020
C7 C 0.48360 0.17550 0.96090
C8 C 0.44270 0.16260 0.87250
C9 C 0.48320 0.23580 0.80410
C10 C 0.49000 0.35660 0.83170
C11 C 0.52890 0.37400 0.91980
C12 C 0.48210 0.30190 0.98980
C13 C 0.62340 0.35410 0.91440
C14 C 0.46390 0.44030 0.78400
C15 C 0.48030 -0.02930 0.99950
C16 C 0.36170 0.08640 1.04530
C17 C 0.39580 0.35370 0.99440
C18 C 0.46720 -0.12730 1.06160
C19 C 0.50860 -0.23730 1.03480
O3 O 0.59540 -0.21420 1.03330
C20 C 0.49190 -0.32660 1.09930
C21 C 0.48070 -0.27480 0.94700
O4 O 0.73320 0.51410 0.74050
C22 C 0.74390 0.61660 0.77560
C23 C 0.79180 0.69000 0.71450
C24 C 0.71910 0.63950 0.85560
C25 C 0.73770 0.74940 0.89690
O5 O 0.77280 0.76070 0.96410
O6 O 0.70730 0.83500 0.85100
C26 C 0.72100 0.94620 0.88740
C27 C 0.67850 0.55270 0.90700
O7 O 0.65750 0.56980 0.98330
C28 C 0.66490 0.44550 0.86530
C29 C 0.69410 0.43170 0.78500
O8 O 0.68690 0.33740 0.74160
C30 C 0.72400 0.32190 0.66020
loop_
_geom_bond_atom_site_label_1
_geom_bond_atom_site_label_2
_geom_bond_site_symmetry_1
_geom_bond_site_symmetry_2
C1 C2 1_555 1_555
C2 C3 1_555 1_555
C3 O1 1_555 1_555
O1 C4 1_555 1_555
C4 O2 1_555 1_555
C5 C4 1_555 1_555
C6 C3 1_555 1_555
C7 C6 1_555 1_555
C8 C7 1_555 1_555
C9 C8 1_555 1_555
C10 C9 1_555 1_555
C11 C10 1_555 1_555
C12 C1 1_555 1_555
C13 C11 1_555 1_555
C14 C10 1_555 1_555
C15 C6 1_555 1_555
C16 C6 1_555 1_555
C17 C12 1_555 1_555
C18 C15 1_555 1_555
C19 C18 1_555 1_555
O3 C19 1_555 1_555
C20 C19 1_555 1_555
C21 C19 1_555 1_555
O4 C22 1_555 1_555
C22 C23 1_555 1_555
C24 C22 1_555 1_555
C25 C24 1_555 1_555
O5 C25 1_555 1_555
O6 C25 1_555 1_555
C26 O6 1_555 1_555
C27 C24 1_555 1_555
O7 C27 1_555 1_555
C28 C13 1_555 1_555
C29 O4 1_555 1_555
O8 C29 1_555 1_555
C30 O8 1_555 1_555
C7 C12 1_555 1_555
C11 C12 1_555 1_555
C27 C28 1_555 1_555
C28 C29 1_555 1_555

#END
