
#######################################################################
#
#                 Cambridge Crystallographic Data Centre
#                                CCDC 
#
#######################################################################
#
# If this CIF has been generated from an entry in the Cambridge 
# Structural Database, then it will include bibliographic, chemical, 
# crystal, experimental, refinement or atomic coordinate data resulting 
# from the CCDC's data processing and validation procedures.
#
#######################################################################

data_ACOPIT
_chemical_formula_moiety         'C20 H20 N1 P1 Se1'
_chemical_name_systematic        
'N-(2,6-Dimethylphenyl)-P,P-diphenylphosphinoselenoic amide'
_symmetry_cell_setting           tetragonal
_symmetry_space_group_name_H-M   'P 43'
_symmetry_Int_Tables_number      78
_space_group_name_Hall           'P 4cw'
loop_
_symmetry_equiv_pos_site_id
_symmetry_equiv_pos_as_xyz
1 x,y,z
2 -y,x,3/4+z
3 -x,-y,1/2+z
4 y,-x,1/4+z
_cell_length_a                   11.8869(2)
_cell_length_b                   11.8869(2)
_cell_length_c                   12.6006(3)
_cell_angle_alpha                90
_cell_angle_beta                 90
_cell_angle_gamma                90
_cell_volume                     1780.44
_exptl_crystal_colour            colorless
_exptl_crystal_description       block
_cell_formula_units_Z            4
loop_
_atom_site_label
_atom_site_type_symbol
_atom_site_fract_x
_atom_site_fract_y
_atom_site_fract_z
Se1 Se 0.05285(2) 0.45036(3) 0.88278(3)
P1 P -0.04182(6) 0.50170(6) 0.75048(7)
N1 N 0.0208(2) 0.4657(2) 0.6381(2)
H1 H -0.0159 0.4763 0.5801
C1 C 0.1319(2) 0.4181(2) 0.6296(3)
C2 C 0.1459(3) 0.3011(3) 0.6365(3)
C3 C 0.2530(3) 0.2570(3) 0.6212(3)
H2 H 0.2634 0.1795 0.6237
C4 C 0.3443(3) 0.3261(3) 0.6021(3)
H3 H 0.4153 0.2951 0.5917
C5 C 0.3295(3) 0.4423(3) 0.5985(3)
H4 H 0.3914 0.4887 0.5874
C6 C 0.2238(3) 0.4896(3) 0.6111(3)
C7 C 0.2070(3) 0.6155(3) 0.6033(3)
H5 H 0.1639 0.6327 0.5410
H6 H 0.2789 0.6520 0.5991
H7 H 0.1676 0.6418 0.6651
C8 C 0.0476(3) 0.2242(3) 0.6560(4)
H8 H 0.0724 0.1474 0.6530
H9 H -0.0087 0.2366 0.6027
H10 H 0.0163 0.2393 0.7248
C9 C -0.1812(2) 0.4407(2) 0.7444(3)
C10 C -0.2189(3) 0.3815(3) 0.6563(3)
H11 H -0.1723 0.3724 0.5976
C11 C -0.3272(3) 0.3358(3) 0.6565(3)
H12 H -0.3528 0.2961 0.5977
C12 C -0.3963(3) 0.3492(3) 0.7433(3)
H13 H -0.4680 0.3178 0.7431
C13 C -0.3594(3) 0.4096(3) 0.8312(3)
H14 H -0.4065 0.4187 0.8896
C14 C -0.2521(3) 0.4562(3) 0.8318(3)
H15 H -0.2276 0.4975 0.8900
C15 C -0.0717(2) 0.6520(2) 0.7459(3)
C16 C -0.1128(3) 0.6986(3) 0.6521(3)
H16 H -0.1206 0.6540 0.5919
C17 C -0.1420(3) 0.8118(3) 0.6483(4)
H17 H -0.1702 0.8429 0.5860
C18 C -0.1290(3) 0.8778(3) 0.7379(4)
H18 H -0.1469 0.9539 0.7350
C19 C -0.0900(3) 0.8323(3) 0.8311(4)
H19 H -0.0826 0.8772 0.8911
C20 C -0.0614(3) 0.7181(3) 0.8356(4)
H20 H -0.0356 0.6869 0.8987
loop_
_geom_bond_atom_site_label_1
_geom_bond_atom_site_label_2
_geom_bond_site_symmetry_1
_geom_bond_site_symmetry_2
Se1 P1 1_555 1_555
P1 N1 1_555 1_555
N1 H1 1_555 1_555
C1 N1 1_555 1_555
C2 C1 1_555 1_555
C3 C2 1_555 1_555
H2 C3 1_555 1_555
C4 C3 1_555 1_555
H3 C4 1_555 1_555
C5 C4 1_555 1_555
H4 C5 1_555 1_555
C6 C1 1_555 1_555
C7 C6 1_555 1_555
H5 C7 1_555 1_555
H6 C7 1_555 1_555
H7 C7 1_555 1_555
C8 C2 1_555 1_555
H8 C8 1_555 1_555
H9 C8 1_555 1_555
H10 C8 1_555 1_555
C9 P1 1_555 1_555
C10 C9 1_555 1_555
H11 C10 1_555 1_555
C11 C10 1_555 1_555
H12 C11 1_555 1_555
C12 C11 1_555 1_555
H13 C12 1_555 1_555
C13 C12 1_555 1_555
H14 C13 1_555 1_555
C14 C9 1_555 1_555
H15 C14 1_555 1_555
C15 P1 1_555 1_555
C16 C15 1_555 1_555
H16 C16 1_555 1_555
C17 C16 1_555 1_555
H17 C17 1_555 1_555
C18 C17 1_555 1_555
H18 C18 1_555 1_555
C19 C18 1_555 1_555
H19 C19 1_555 1_555
C20 C15 1_555 1_555
H20 C20 1_555 1_555
C5 C6 1_555 1_555
C13 C14 1_555 1_555
C19 C20 1_555 1_555

#END
