
#######################################################################
#
#                 Cambridge Crystallographic Data Centre
#                                CCDC 
#
#######################################################################
#
# If this CIF has been generated from an entry in the Cambridge 
# Structural Database, then it will include bibliographic, chemical, 
# crystal, experimental, refinement or atomic coordinate data resulting 
# from the CCDC's data processing and validation procedures.
#
#######################################################################

data_ACOPAL
_chemical_formula_moiety         'C20 H20 N1 O1 P1'
_chemical_name_systematic        
'N-(2,6-Dimethylphenyl)-P,P-diphenylphosphinic amide'
_symmetry_cell_setting           orthorhombic
_symmetry_space_group_name_H-M   'P 21 21 21'
_symmetry_Int_Tables_number      19
_space_group_name_Hall           'P 2ac 2ab'
loop_
_symmetry_equiv_pos_site_id
_symmetry_equiv_pos_as_xyz
1 x,y,z
2 1/2-x,-y,1/2+z
3 1/2+x,1/2-y,-z
4 -x,1/2+y,1/2-z
_cell_length_a                   9.068(5)
_cell_length_b                   19.055(5)
_cell_length_c                   20.228(5)
_cell_angle_alpha                90
_cell_angle_beta                 90
_cell_angle_gamma                90
_cell_volume                     3495.21
_exptl_crystal_colour            colorless
_exptl_crystal_description       block
_cell_formula_units_Z            8
loop_
_atom_site_label
_atom_site_type_symbol
_atom_site_fract_x
_atom_site_fract_y
_atom_site_fract_z
P1 P 0.73975(6) 0.03829(3) 0.59683(3)
O1 O 0.67995(19) 0.00419(8) 0.65754(7)
N2 N 0.7151(2) -0.01060(10) 0.53055(9)
H2 H 0.7017 0.0085 0.4925
C3 C 0.5145(3) 0.24989(14) 0.56248(15)
H3 H 0.4677 0.2929 0.5570
C4 C 0.9335(3) 0.05841(12) 0.60664(11)
C5 C 0.6544(3) 0.12161(12) 0.57868(11)
C11 C 0.7162(3) -0.08589(12) 0.53724(11)
C13 C 0.5724(3) 0.13487(13) 0.52226(13)
H11 H 0.5639 0.1006 0.4897
C14 C 0.6666(3) 0.17351(13) 0.62721(14)
H12 H 0.7227 0.1652 0.6649
C18 C 1.1575(3) 0.10576(14) 0.56122(13)
H15 H 1.2067 0.1284 0.5270
C19 C 0.5958(4) 0.23713(14) 0.61941(15)
H16 H 0.6025 0.2713 0.6521
C22 C 1.2341(3) 0.08495(15) 0.61691(14)
H19 H 1.3347 0.0938 0.6203
C25 C 0.8447(3) -0.12381(13) 0.52377(12)
C26 C 1.0099(3) 0.03774(15) 0.66286(13)
H22 H 0.9609 0.0152 0.6972
C27 C 1.0085(3) 0.09304(13) 0.55624(12)
H23 H 0.9575 0.1077 0.5188
C30 C 0.8420(4) -0.19666(15) 0.53257(13)
H28 H 0.9265 -0.2228 0.5240
C32 C 0.5855(3) -0.11902(14) 0.55608(12)
C33 C 0.5026(3) 0.19937(15) 0.51413(14)
H30 H 0.4481 0.2083 0.4761
C34 C 1.1613(3) 0.05116(16) 0.66724(14)
H31 H 1.2132 0.0370 0.7046
C35 C 0.7168(5) -0.23004(15) 0.55366(15)
H32 H 0.7174 -0.2783 0.5605
C37 C 0.9828(3) -0.08891(16) 0.49903(15)
H33 H 0.9621 -0.0648 0.4584
H34 H 1.0574 -0.1238 0.4914
H35 H 1.0173 -0.0559 0.5314
C39 C 0.4451(3) -0.07947(18) 0.56578(15)
H37 H 0.4495 -0.0539 0.6066
H38 H 0.3640 -0.1118 0.5671
H39 H 0.4314 -0.0472 0.5298
C40 C 0.5903(5) -0.19214(17) 0.56474(14)
H40 H 0.5056 -0.2155 0.5784
P2 P 0.82535(6) 0.06156(3) 0.33849(3)
O2 O 0.80025(19) 0.05275(9) 0.41082(7)
N1 N 0.7751(2) -0.00710(10) 0.29458(9)
H1 H 0.7510 -0.0003 0.2540
C1 C 1.0179(3) 0.08007(11) 0.32296(11)
C2 C 0.7255(2) 0.13471(11) 0.30487(11)
C6 C 1.1183(3) 0.07313(13) 0.37476(12)
H4 H 1.0858 0.0595 0.4164
C7 C 1.2168(3) 0.11354(15) 0.25091(14)
H5 H 1.2505 0.1269 0.2093
C8 C 0.6428(3) -0.09907(13) 0.35466(11)
C9 C 0.6922(3) 0.14228(13) 0.23725(12)
H6 H 0.7221 0.1082 0.2072
C10 C 0.8672(4) -0.19447(15) 0.32634(13)
H7 H 0.9402 -0.2269 0.3160
C12 C 0.5175(3) -0.04949(15) 0.36801(13)
H8 H 0.4330 -0.0756 0.3826
H9 H 0.4935 -0.0245 0.3282
H10 H 0.5460 -0.0167 0.4017
C15 C 0.6011(3) 0.24425(14) 0.32643(14)
H13 H 0.5699 0.2783 0.3562
C16 C 0.7452(4) -0.21569(13) 0.36180(13)
H14 H 0.7377 -0.2619 0.3761
C17 C 0.7689(3) -0.07806(11) 0.31982(10)
C20 C 0.6151(3) 0.20054(15) 0.21553(12)
H17 H 0.5936 0.2054 0.1708
C21 C 0.5698(3) 0.25133(14) 0.25926(15)
H18 H 0.5183 0.2904 0.2441
C23 C 0.6783(3) 0.18675(12) 0.34851(12)
H20 H 0.6994 0.1825 0.3933
C24 C 1.3154(3) 0.10678(15) 0.30252(16)
H21 H 1.4151 0.1158 0.2958
C28 C 1.0213(3) -0.10178(16) 0.27038(14)
H24 H 1.0765 -0.0708 0.2985
H25 H 0.9951 -0.0777 0.2304
H26 H 1.0802 -0.1421 0.2598
C29 C 0.6341(3) -0.16857(14) 0.37617(12)
H27 H 0.5527 -0.1833 0.4004
C31 C 1.2659(3) 0.08652(14) 0.36418(15)
H29 H 1.3325 0.0819 0.3988
C36 C 0.8826(3) -0.12504(14) 0.30578(12)
C38 C 1.0687(3) 0.10059(14) 0.26057(13)
H36 H 1.0027 0.1055 0.2257
loop_
_geom_bond_atom_site_label_1
_geom_bond_atom_site_label_2
_geom_bond_site_symmetry_1
_geom_bond_site_symmetry_2
P1 O1 1_555 1_555
P2 O2 1_555 1_555
N1 P2 1_555 1_555
H1 N1 1_555 1_555
C1 P2 1_555 1_555
N2 P1 1_555 1_555
H2 N2 1_555 1_555
C2 P2 1_555 1_555
C3 H3 1_555 1_555
C4 P1 1_555 1_555
C5 P1 1_555 1_555
C6 C1 1_555 1_555
H4 C6 1_555 1_555
C7 H5 1_555 1_555
C8 C12 1_555 1_555
C9 C2 1_555 1_555
H6 C9 1_555 1_555
C10 H7 1_555 1_555
C11 N2 1_555 1_555
C12 H8 1_555 1_555
H9 C12 1_555 1_555
H10 C12 1_555 1_555
C13 C5 1_555 1_555
H11 C13 1_555 1_555
C14 C5 1_555 1_555
H12 C14 1_555 1_555
C15 H13 1_555 1_555
C16 C10 1_555 1_555
H14 C16 1_555 1_555
C17 N1 1_555 1_555
C18 H15 1_555 1_555
C19 C3 1_555 1_555
H16 C19 1_555 1_555
C20 C9 1_555 1_555
H17 C20 1_555 1_555
C21 C15 1_555 1_555
H18 C21 1_555 1_555
C22 C18 1_555 1_555
H19 C22 1_555 1_555
C23 C2 1_555 1_555
H20 C23 1_555 1_555
C24 C7 1_555 1_555
H21 C24 1_555 1_555
C25 C11 1_555 1_555
C26 C4 1_555 1_555
H22 C26 1_555 1_555
C27 C4 1_555 1_555
H23 C27 1_555 1_555
C28 H24 1_555 1_555
H25 C28 1_555 1_555
H26 C28 1_555 1_555
C29 C8 1_555 1_555
H27 C29 1_555 1_555
C30 C25 1_555 1_555
H28 C30 1_555 1_555
C31 C6 1_555 1_555
H29 C31 1_555 1_555
C32 C11 1_555 1_555
C33 C3 1_555 1_555
H30 C33 1_555 1_555
C34 C22 1_555 1_555
H31 C34 1_555 1_555
C35 C30 1_555 1_555
H32 C35 1_555 1_555
C36 C10 1_555 1_555
C37 C25 1_555 1_555
H33 C37 1_555 1_555
H34 C37 1_555 1_555
H35 C37 1_555 1_555
C38 C1 1_555 1_555
H36 C38 1_555 1_555
C39 C32 1_555 1_555
H37 C39 1_555 1_555
H38 C39 1_555 1_555
H39 C39 1_555 1_555
C40 C32 1_555 1_555
H40 C40 1_555 1_555
C7 C38 1_555 1_555
C8 C17 1_555 1_555
C13 C33 1_555 1_555
C14 C19 1_555 1_555
C15 C23 1_555 1_555
C16 C29 1_555 1_555
C17 C36 1_555 1_555
C18 C27 1_555 1_555
C20 C21 1_555 1_555
C24 C31 1_555 1_555
C26 C34 1_555 1_555
C28 C36 1_555 1_555
C35 C40 1_555 1_555

#END
