
#######################################################################
#
#                 Cambridge Crystallographic Data Centre
#                                CCDC 
#
#######################################################################
#
# If this CIF has been generated from an entry in the Cambridge 
# Structural Database, then it will include bibliographic, chemical, 
# crystal, experimental, refinement or atomic coordinate data resulting 
# from the CCDC's data processing and validation procedures.
#
#######################################################################

data_ACOREP
_chemical_formula_moiety         'C24 H31 N1 O3 S1'
_chemical_name_systematic        
'(+)-(1S,2S,R~S~)-[2-(4-methylphenyl)sulfinyl-1-isobutyl-pent-4-enyl]carbamic acid benzyl ester'
_symmetry_cell_setting           monoclinic
_symmetry_space_group_name_H-M   'C 2'
_symmetry_Int_Tables_number      5
_space_group_name_Hall           'C 2y'
loop_
_symmetry_equiv_pos_site_id
_symmetry_equiv_pos_as_xyz
1 x,y,z
2 -x,y,-z
3 1/2+x,1/2+y,z
4 1/2-x,1/2+y,-z
_cell_length_a                   22.762(5)
_cell_length_b                   10.848(5)
_cell_length_c                   9.947(5)
_cell_angle_alpha                90.000(5)
_cell_angle_beta                 96.900(5)
_cell_angle_gamma                90.000(5)
_cell_volume                     2438.35
_exptl_crystal_colour            colorless
_exptl_crystal_description       prismatic
_chemical_melting_point          120-121deg.C
_cell_formula_units_Z            4
_exptl_crystal_recrystallization_method 'diisopropyl ether'
loop_
_atom_site_label
_atom_site_type_symbol
_atom_site_fract_x
_atom_site_fract_y
_atom_site_fract_z
S1 S 0.28023(3) 0.47568(8) 0.00423(7)
N1 N 0.16826(12) 0.6039(3) 0.0283(3)
H1 H 0.1825(18) 0.683(5) 0.030(4)
O1 O 0.28103(12) 0.3384(2) 0.0206(3)
O2 O 0.16568(11) 0.6495(2) 0.2432(2)
O3 O 0.14015(12) 0.4573(2) 0.1717(2)
C1 C 0.1497(2) 0.2732(5) -0.3385(6)
H2 H 0.1387 0.3216 -0.4145
H3 H 0.1297 0.2001 -0.3261
C2 C 0.19283(19) 0.3075(4) -0.2500(4)
H4 H 0.2025 0.2567 -0.1754
C3 C 0.22832(14) 0.4225(4) -0.2583(3)
H5 H 0.2146 0.4643 -0.3425
H6 H 0.2693 0.3997 -0.2616
C4 C 0.22558(12) 0.5136(3) -0.1411(3)
H7 H 0.2364 0.5947 -0.1740
C5 C 0.16468(13) 0.5277(3) -0.0923(3)
H8 H 0.1498 0.4460 -0.0715
C6 C 0.12118(14) 0.5877(4) -0.2042(3)
H9 H 0.1346 0.6708 -0.2194
H10 H 0.1225 0.5418 -0.2875
C7 C 0.05729(17) 0.5936(5) -0.1740(5)
H11 H 0.0574 0.6282 -0.0829
C8 C 0.0298(2) 0.4683(8) -0.1737(8)
H12 H -0.0104 0.4757 -0.1544
H13 H 0.0517 0.4182 -0.1057
H14 H 0.0304 0.4307 -0.2609
C9 C 0.15673(12) 0.5599(3) 0.1481(3)
C10 C 0.34576(15) 0.5167(3) -0.0693(4)
C11 C 0.35651(17) 0.6391(4) -0.1021(5)
H15 H 0.3289 0.6999 -0.0890
C12 C 0.4071(2) 0.6691(5) -0.1528(6)
H16 H 0.4136 0.7505 -0.1762
C13 C 0.4498(2) 0.5802(5) -0.1707(7)
C14 C 0.43880(19) 0.4608(5) -0.1350(7)
H17 H 0.4669 0.4003 -0.1454
C15 C 0.38721(16) 0.4283(4) -0.0841(5)
H18 H 0.3807 0.3470 -0.0601
C16 C 0.5068(3) 0.6148(8) -0.2276(11)
H19 H 0.5065 0.7013 -0.2476
H20 H 0.5097 0.5687 -0.3089
H21 H 0.5401 0.5960 -0.1620
C17 C 0.0222(2) 0.6812(8) -0.2729(8)
H22 H 0.0414 0.7603 -0.2692
H23 H -0.0171 0.6901 -0.2487
H24 H 0.0204 0.6486 -0.3630
C18 C 0.15586(19) 0.6130(4) 0.3784(3)
H25 H 0.1814 0.5447 0.4094
H26 H 0.1150 0.5881 0.3804
C19 C 0.17016(17) 0.7254(4) 0.4671(3)
C20 C 0.1309(2) 0.8201(6) 0.4676(5)
H27 H 0.0945 0.8154 0.4142
C21 C 0.1448(3) 0.9233(7) 0.5469(6)
H28 H 0.1183 0.9888 0.5451
C22 C 0.1979(3) 0.9282(6) 0.6283(5)
H29 H 0.2070 0.9969 0.6827
C23 C 0.2367(2) 0.8351(5) 0.6305(4)
H30 H 0.2724 0.8392 0.6867
C24 C 0.22378(18) 0.7333(4) 0.5491(4)
H31 H 0.2511 0.6696 0.5493
loop_
_geom_bond_atom_site_label_1
_geom_bond_atom_site_label_2
_geom_bond_site_symmetry_1
_geom_bond_site_symmetry_2
S1 O1 1_555 1_555
N1 H1 1_555 1_555
O2 C9 1_555 1_555
O3 C9 1_555 1_555
C1 H2 1_555 1_555
H3 C1 1_555 1_555
C2 C1 1_555 1_555
H4 C2 1_555 1_555
C3 C2 1_555 1_555
H5 C3 1_555 1_555
H6 C3 1_555 1_555
C4 S1 1_555 1_555
H7 C4 1_555 1_555
C5 N1 1_555 1_555
H8 C5 1_555 1_555
C6 C5 1_555 1_555
H9 C6 1_555 1_555
H10 C6 1_555 1_555
C7 C6 1_555 1_555
H11 C7 1_555 1_555
C8 C7 1_555 1_555
H12 C8 1_555 1_555
H13 C8 1_555 1_555
H14 C8 1_555 1_555
C9 N1 1_555 1_555
C10 S1 1_555 1_555
C11 C10 1_555 1_555
H15 C11 1_555 1_555
C12 C11 1_555 1_555
H16 C12 1_555 1_555
C13 C12 1_555 1_555
C14 C13 1_555 1_555
H17 C14 1_555 1_555
C15 C10 1_555 1_555
H18 C15 1_555 1_555
C16 C13 1_555 1_555
H19 C16 1_555 1_555
H20 C16 1_555 1_555
H21 C16 1_555 1_555
C17 C7 1_555 1_555
H22 C17 1_555 1_555
H23 C17 1_555 1_555
H24 C17 1_555 1_555
C18 O2 1_555 1_555
H25 C18 1_555 1_555
H26 C18 1_555 1_555
C19 C18 1_555 1_555
C20 C19 1_555 1_555
H27 C20 1_555 1_555
C21 C20 1_555 1_555
H28 C21 1_555 1_555
C22 C21 1_555 1_555
H29 C22 1_555 1_555
C23 C22 1_555 1_555
H30 C23 1_555 1_555
C24 C19 1_555 1_555
H31 C24 1_555 1_555
C3 C4 1_555 1_555
C4 C5 1_555 1_555
C14 C15 1_555 1_555
C23 C24 1_555 1_555

#END
