
#######################################################################
#
#                 Cambridge Crystallographic Data Centre
#                                CCDC 
#
#######################################################################
#
# If this CIF has been generated from an entry in the Cambridge 
# Structural Database, then it will include bibliographic, chemical, 
# crystal, experimental, refinement or atomic coordinate data resulting 
# from the CCDC's data processing and validation procedures.
#
#######################################################################

data_ACOSER
_chemical_formula_moiety         'C42 H30 S6 Si2'
_chemical_name_systematic        
6,6'-bis(Methylsulfanyl)-4,4,4',4'-tetraphenyl-4H,4'H,2,2'-bisilolo(3,2-b:4,5-b)bisthiophene
_symmetry_cell_setting           triclinic
_symmetry_space_group_name_H-M   'P -1'
_symmetry_Int_Tables_number      2
_space_group_name_Hall           '-P 1'
loop_
_symmetry_equiv_pos_site_id
_symmetry_equiv_pos_as_xyz
1 x,y,z
2 -x,-y,-z
_cell_length_a                   9.3886(5)
_cell_length_b                   10.5077(1)
_cell_length_c                   12.4065(6)
_cell_angle_alpha                68.413(2)
_cell_angle_beta                 81.359(5)
_cell_angle_gamma                83.288(3)
_cell_volume                     1122.64
_exptl_crystal_colour            red
_exptl_crystal_description       block
_chemical_melting_point          'above 300deg.C'
_cell_formula_units_Z            1
loop_
_atom_site_label
_atom_site_type_symbol
_atom_site_fract_x
_atom_site_fract_y
_atom_site_fract_z
S1 S 0.3776(2) -0.0703(2) 0.6612(1)
S2 S 0.4981(2) 0.2825(2) 0.5259(1)
S3 S 0.2435(2) -0.3399(2) 0.8043(2)
Si1 Si 0.1704(2) 0.2153(2) 0.8150(2)
C1 C 0.2611(7) -0.1675(6) 0.7778(6)
C2 C 0.1891(7) -0.0897(7) 0.8375(6)
C3 C 0.2238(7) 0.0484(6) 0.7924(6)
C4 C 0.3262(7) 0.0738(6) 0.6961(5)
C5 C 0.3685(7) 0.2120(6) 0.6413(5)
C6 C 0.2990(6) 0.3083(6) 0.6865(5)
C7 C 0.3515(6) 0.4380(6) 0.6275(5)
C8 C 0.4608(7) 0.4434(6) 0.5381(5)
C9 C -0.0239(7) 0.2687(8) 0.8009(7)
C10 C -0.075(1) 0.404(1) 0.763(1)
C11 C -0.218(1) 0.443(1) 0.752(1)
C12 C -0.3116(9) 0.345(1) 0.779(1)
C13 C -0.266(1) 0.211(1) 0.814(1)
C14 C -0.1251(9) 0.173(1) 0.8263(8)
C15 C 0.2197(6) 0.2171(6) 0.9543(6)
C16 C 0.3509(8) 0.1563(8) 0.9921(7)
C17 C 0.3900(9) 0.1535(9) 1.0930(8)
C18 C 0.2957(9) 0.2116(9) 1.1631(7)
C19 C 0.1688(8) 0.2748(9) 1.1281(7)
C20 C 0.1296(7) 0.2792(7) 1.0234(7)
C21 C 0.373(1) -0.4256(9) 0.901(1)
H1 H 0.1211 -0.1253 0.9043
H2 H 0.3153 0.5158 0.6473
H3 H -0.0076 0.4730 0.7413
H4 H -0.2510 0.5374 0.7259
H5 H -0.4116 0.3709 0.7757
H6 H -0.3329 0.1440 0.8303
H7 H -0.0937 0.0784 0.8517
H8 H 0.4150 0.1158 0.9450
H9 H 0.4811 0.1117 1.1166
H10 H 0.3211 0.2073 1.2357
H11 H 0.1063 0.3166 1.1751
H12 H 0.0403 0.3247 0.9985
H13 H 0.4624 -0.4369 0.8572
H14 H 0.3417 -0.5130 0.9509
H15 H 0.3846 -0.3729 0.9466
S1A S 0.6224(2) 1.0703(2) 0.3388(1)
S2A S 0.5019(2) 0.7175(2) 0.4741(1)
S3A S 0.7565(2) 1.3399(2) 0.1957(2)
Si1A Si 0.8296(2) 0.7847(2) 0.1850(2)
C1A C 0.7389(7) 1.1675(6) 0.2222(6)
C2A C 0.8109(7) 1.0897(7) 0.1625(6)
C3A C 0.7762(7) 0.9516(6) 0.2076(6)
C4A C 0.6738(7) 0.9262(6) 0.3039(5)
C5A C 0.6315(7) 0.7880(6) 0.3587(5)
C6A C 0.7010(6) 0.6917(6) 0.3135(5)
C7A C 0.6485(6) 0.5620(6) 0.3725(5)
C8A C 0.5392(7) 0.5566(6) 0.4619(5)
C9A C 1.0239(7) 0.7313(8) 0.1991(7)
C10A C 1.075(1) 0.596(1) 0.237(1)
C11A C 1.218(1) 0.557(1) 0.248(1)
C12A C 1.3116(9) 0.655(1) 0.221(1)
C13A C 1.266(1) 0.789(1) 0.186(1)
C14A C 1.1251(9) 0.827(1) 0.1737(8)
C15A C 0.7803(6) 0.7829(6) 0.0457(6)
C16A C 0.6491(8) 0.8437(8) 0.0079(7)
C17A C 0.6100(9) 0.8465(9) -0.0930(8)
C18A C 0.7043(9) 0.7884(9) -0.1631(7)
C19A C 0.8312(8) 0.7252(9) -0.1281(7)
C20A C 0.8704(7) 0.7208(7) -0.0234(7)
C21A C 0.627(1) 1.4256(9) 0.099(1)
H1A H 0.8789 1.1253 0.0957
H2A H 0.6847 0.4842 0.3527
H3A H 1.0076 0.5270 0.2587
H4A H 1.2510 0.4626 0.2741
H5A H 1.4116 0.6291 0.2243
H6A H 1.3329 0.8560 0.1697
H7A H 1.0937 0.9216 0.1483
H8A H 0.5850 0.8842 0.0550
H9A H 0.5189 0.8883 -0.1166
H10A H 0.6789 0.7927 -0.2357
H11A H 0.8937 0.6834 -0.1751
H12A H 0.9597 0.6753 0.0015
H13A H 0.5376 1.4369 0.1428
H14A H 0.6583 1.5130 0.0491
H15A H 0.6154 1.3729 0.0534
loop_
_geom_bond_atom_site_label_1
_geom_bond_atom_site_label_2
_geom_bond_site_symmetry_1
_geom_bond_site_symmetry_2
S1 C1 1_555 1_555
S2 C5 1_555 1_555
S3 C1 1_555 1_555
Si1 C3 1_555 1_555
C1 C2 1_555 1_555
C2 C3 1_555 1_555
C3 C4 1_555 1_555
C4 S1 1_555 1_555
C5 C4 1_555 1_555
C6 Si1 1_555 1_555
C7 C6 1_555 1_555
C8 S2 1_555 1_555
C9 Si1 1_555 1_555
C10 C9 1_555 1_555
C11 C10 1_555 1_555
C12 C11 1_555 1_555
C13 C12 1_555 1_555
C14 C9 1_555 1_555
C15 Si1 1_555 1_555
C16 C15 1_555 1_555
C17 C16 1_555 1_555
C18 C17 1_555 1_555
C19 C18 1_555 1_555
C20 C15 1_555 1_555
C21 S3 1_555 1_555
H1 C2 1_555 1_555
H2 C7 1_555 1_555
H3 C10 1_555 1_555
H4 C11 1_555 1_555
H5 C12 1_555 1_555
H6 C13 1_555 1_555
H7 C14 1_555 1_555
H8 C16 1_555 1_555
H9 C17 1_555 1_555
H10 C18 1_555 1_555
H11 C19 1_555 1_555
H12 C20 1_555 1_555
H13 C21 1_555 1_555
H14 C21 1_555 1_555
H15 C21 1_555 1_555
S1A C1A 1_555 1_555
S2A C5A 1_555 1_555
S3A C1A 1_555 1_555
Si1A C3A 1_555 1_555
C1A C2A 1_555 1_555
C2A C3A 1_555 1_555
C3A C4A 1_555 1_555
C4A S1A 1_555 1_555
C5A C4A 1_555 1_555
C6A Si1A 1_555 1_555
C7A C6A 1_555 1_555
C8A C8 1_555 1_555
C9A Si1A 1_555 1_555
C10A C9A 1_555 1_555
C11A C10A 1_555 1_555
C12A C11A 1_555 1_555
C13A C12A 1_555 1_555
C14A C9A 1_555 1_555
C15A Si1A 1_555 1_555
C16A C15A 1_555 1_555
C17A C16A 1_555 1_555
C18A C17A 1_555 1_555
C19A C18A 1_555 1_555
C20A C15A 1_555 1_555
C21A S3A 1_555 1_555
H1A C2A 1_555 1_555
H2A C7A 1_555 1_555
H3A C10A 1_555 1_555
H4A C11A 1_555 1_555
H5A C12A 1_555 1_555
H6A C13A 1_555 1_555
H7A C14A 1_555 1_555
H8A C16A 1_555 1_555
H9A C17A 1_555 1_555
H10A C18A 1_555 1_555
H11A C19A 1_555 1_555
H12A C20A 1_555 1_555
H13A C21A 1_555 1_555
H14A C21A 1_555 1_555
H15A C21A 1_555 1_555
C5 C6 1_555 1_555
C7 C8 1_555 1_555
C13 C14 1_555 1_555
C19 C20 1_555 1_555
S2A C8A 1_555 1_555
C5A C6A 1_555 1_555
C7A C8A 1_555 1_555
C13A C14A 1_555 1_555
C19A C20A 1_555 1_555

#END
