
#######################################################################
#
#                 Cambridge Crystallographic Data Centre
#                                CCDC 
#
#######################################################################
#
# If this CIF has been generated from an entry in the Cambridge 
# Structural Database, then it will include bibliographic, chemical, 
# crystal, experimental, refinement or atomic coordinate data resulting 
# from the CCDC's data processing and validation procedures.
#
#######################################################################

data_ACOTOD
_chemical_formula_moiety         'C23 H19 Cl1 N2 O1'
_chemical_name_systematic        
9-Chloro-4,4-dimethyl-2-(4-methylphenyl)-4,5-dihydropyrrolo[2,3,4-kl]acridin-1(2H)-one
_symmetry_cell_setting           triclinic
_symmetry_space_group_name_H-M   'P -1'
_symmetry_Int_Tables_number      2
_space_group_name_Hall           '-P 1'
loop_
_symmetry_equiv_pos_site_id
_symmetry_equiv_pos_as_xyz
1 x,y,z
2 -x,-y,-z
_cell_length_a                   9.8221(9)
_cell_length_b                   10.0780(10)
_cell_length_c                   11.4409(12)
_cell_angle_alpha                109.877(2)
_cell_angle_beta                 103.016(1)
_cell_angle_gamma                102.588(1)
_cell_volume                     982.603
_exptl_crystal_colour            yellow
_exptl_crystal_description       block
_cell_formula_units_Z            2
loop_
_atom_site_label
_atom_site_type_symbol
_atom_site_fract_x
_atom_site_fract_y
_atom_site_fract_z
Cl1 Cl 0.39181(9) -0.25598(9) -0.08441(7)
N1 N 0.6054(2) 0.3401(2) 0.56095(19)
N2 N 0.1970(2) -0.0880(2) 0.3900(2)
O1 O 0.67617(19) 0.2584(2) 0.37098(17)
C1 C 0.5915(3) 0.2383(3) 0.4331(2)
C2 C 0.4561(2) 0.1100(3) 0.3930(2)
C3 C 0.3972(3) 0.1411(3) 0.4942(2)
C4 C 0.4837(2) 0.2852(3) 0.6008(2)
C5 C 0.4372(3) 0.3406(3) 0.7043(2)
H1 H 0.4985 0.4261 0.7778
C6 C 0.2818(3) 0.2610(3) 0.6996(3)
C7 C 0.2303(3) 0.0876(3) 0.6183(3)
H2 H 0.2749 0.0430 0.6731
H3 H 0.1241 0.0483 0.5959
C8 C 0.2698(3) 0.0418(3) 0.4930(3)
C9 C 0.2506(3) -0.1219(3) 0.2820(3)
C10 C 0.3808(3) -0.0273(3) 0.2783(2)
C11 C 0.4247(3) -0.0708(3) 0.1638(2)
H4 H 0.5083 -0.0098 0.1602
C12 C 0.3413(3) -0.2048(3) 0.0583(3)
C13 C 0.2147(3) -0.2998(3) 0.0616(3)
H5 H 0.1609 -0.3898 -0.0101
C14 C 0.1709(3) -0.2589(3) 0.1710(3)
H6 H 0.0874 -0.3222 0.1724
C15 C 0.7195(3) 0.4836(3) 0.6323(2)
C16 C 0.6861(3) 0.6120(3) 0.6962(3)
H7 H 0.5893 0.6057 0.6929
C17 C 0.7981(3) 0.7490(3) 0.7647(3)
H8 H 0.7750 0.8329 0.8088
C18 C 0.9448(3) 0.7638(3) 0.7690(3)
C19 C 0.9750(3) 0.6347(3) 0.7023(3)
H9 H 1.0710 0.6418 0.7023
C20 C 0.8654(3) 0.4955(3) 0.6356(2)
H10 H 0.8890 0.4112 0.5937
C21 C 1.0659(3) 0.9142(3) 0.8418(3)
H11 H 1.1095 0.9294 0.9313
H12 H 1.0246 0.9918 0.8403
H13 H 1.1402 0.9163 0.7998
C22 C 0.2778(3) 0.2934(3) 0.8412(3)
H14 H 0.3451 0.2543 0.8830
H15 H 0.1797 0.2470 0.8376
H16 H 0.3061 0.3991 0.8906
C23 C 0.1745(3) 0.3257(3) 0.6319(3)
H17 H 0.0770 0.2847 0.6328
H18 H 0.1729 0.3003 0.5427
H19 H 0.2071 0.4322 0.6785
loop_
_geom_bond_atom_site_label_1
_geom_bond_atom_site_label_2
_geom_bond_site_symmetry_1
_geom_bond_site_symmetry_2
Cl1 C12 1_555 1_555
N1 C1 1_555 1_555
N2 C8 1_555 1_555
O1 C1 1_555 1_555
C1 C2 1_555 1_555
C2 C3 1_555 1_555
C3 C4 1_555 1_555
C4 N1 1_555 1_555
C5 C4 1_555 1_555
H1 C5 1_555 1_555
C6 C5 1_555 1_555
C7 C6 1_555 1_555
H2 C7 1_555 1_555
H3 C7 1_555 1_555
C8 C3 1_555 1_555
C9 N2 1_555 1_555
C10 C2 1_555 1_555
C11 C10 1_555 1_555
H4 C11 1_555 1_555
C12 C11 1_555 1_555
C13 C12 1_555 1_555
H5 C13 1_555 1_555
C14 C9 1_555 1_555
H6 C14 1_555 1_555
C15 N1 1_555 1_555
C16 C15 1_555 1_555
H7 C16 1_555 1_555
C17 C16 1_555 1_555
H8 C17 1_555 1_555
C18 C17 1_555 1_555
C19 C18 1_555 1_555
H9 C19 1_555 1_555
C20 C15 1_555 1_555
H10 C20 1_555 1_555
C21 C18 1_555 1_555
H11 C21 1_555 1_555
H12 C21 1_555 1_555
H13 C21 1_555 1_555
C22 C6 1_555 1_555
H14 C22 1_555 1_555
H15 C22 1_555 1_555
H16 C22 1_555 1_555
C23 C6 1_555 1_555
H17 C23 1_555 1_555
H18 C23 1_555 1_555
H19 C23 1_555 1_555
C7 C8 1_555 1_555
C9 C10 1_555 1_555
C13 C14 1_555 1_555
C19 C20 1_555 1_555

#END
