
#######################################################################
#
#                 Cambridge Crystallographic Data Centre
#                                CCDC 
#
#######################################################################
#
# If this CIF has been generated from an entry in the Cambridge 
# Structural Database, then it will include bibliographic, chemical, 
# crystal, experimental, refinement or atomic coordinate data resulting 
# from the CCDC's data processing and validation procedures.
#
#######################################################################

data_ACOTAP
_chemical_formula_moiety         'C19 H17 N1 O2'
_chemical_name_systematic        
1-(4-(1-(2-Phenyl-4,5-dihydro-1,3-oxazol-5-yl)vinyl)phenyl)ethanone
_symmetry_cell_setting           triclinic
_symmetry_space_group_name_H-M   'P -1'
_symmetry_Int_Tables_number      2
_space_group_name_Hall           '-P 1'
loop_
_symmetry_equiv_pos_site_id
_symmetry_equiv_pos_as_xyz
1 x,y,z
2 -x,-y,-z
_cell_length_a                   8.3211(5)
_cell_length_b                   9.7981(6)
_cell_length_c                   10.1922(6)
_cell_angle_alpha                73.183(2)
_cell_angle_beta                 70.006(2)
_cell_angle_gamma                85.591(2)
_cell_volume                     747.275
_exptl_crystal_colour            colorless
_exptl_crystal_description       block
_chemical_melting_point          '149-150 deg.C'
_cell_formula_units_Z            2
_exptl_crystal_recrystallization_method 'dichloromethane/diethyl ether'
loop_
_atom_site_label
_atom_site_type_symbol
_atom_site_fract_x
_atom_site_fract_y
_atom_site_fract_z
N1 N 0.20027(16) 0.12724(13) 0.76863(14)
O1 O 1.35641(14) 0.16667(14) 0.30665(13)
O2 O 0.27137(13) 0.36111(10) 0.66387(11)
C1 C -0.0298(2) 0.44591(16) 0.84701(16)
H1 H 0.0508 0.5167 0.7762
C2 C -0.1824(2) 0.48541(17) 0.93602(17)
H2 H -0.2062 0.5836 0.9256
C3 C -0.2997(2) 0.38357(18) 1.03936(17)
H3 H -0.4044 0.4116 1.0991
C4 C -0.2650(2) 0.24069(18) 1.05618(17)
H4 H -0.3451 0.1704 1.1284
C5 C -0.11373(19) 0.19993(17) 0.96784(16)
H5 H -0.0903 0.1015 0.9794
C6 C 0.00444(18) 0.30223(15) 0.86208(15)
C7 C 0.16174(18) 0.25498(15) 0.76630(15)
C8 C 0.36258(19) 0.13167(16) 0.64919(17)
H6 H 0.3457 0.0965 0.5729
H7 H 0.4488 0.0726 0.6855
C9 C 0.41980(18) 0.29072(15) 0.58911(16)
H8 H 0.4420 0.3237 0.4819
C10 C 0.57523(19) 0.32035(16) 0.62143(16)
C11 C 0.74168(19) 0.27854(15) 0.53005(15)
C12 C 0.75134(19) 0.19993(16) 0.43334(16)
H9 H 0.6491 0.1766 0.4219
C13 C 0.90655(19) 0.15507(16) 0.35348(16)
H10 H 0.9091 0.1007 0.2893
C14 C 1.05798(19) 0.18896(15) 0.36666(16)
C15 C 1.0499(2) 0.27221(17) 0.45874(17)
H11 H 1.1527 0.2995 0.4664
C16 C 0.8958(2) 0.31567(17) 0.53873(16)
H12 H 0.8942 0.3719 0.6010
C17 C 1.2276(2) 0.14082(17) 0.28530(17)
C18 C 1.2377(2) 0.0607(2) 0.1780(2)
H13 H 1.3569 0.0374 0.1334
H14 H 1.1943 0.1198 0.1023
H15 H 1.1683 -0.0275 0.2281
C19 C 0.5594(3) 0.3721(2) 0.7311(2)
H16 H 0.445(3) 0.396(2) 0.790(2)
H17 H 0.658(3) 0.388(2) 0.759(2)
loop_
_geom_bond_atom_site_label_1
_geom_bond_atom_site_label_2
_geom_bond_site_symmetry_1
_geom_bond_site_symmetry_2
N1 C7 1_555 1_555
O1 C17 1_555 1_555
O2 C7 1_555 1_555
C1 H1 1_555 1_555
C2 C1 1_555 1_555
H2 C2 1_555 1_555
C3 C2 1_555 1_555
H3 C3 1_555 1_555
C4 C3 1_555 1_555
H4 C4 1_555 1_555
C5 C4 1_555 1_555
H5 C5 1_555 1_555
C6 C1 1_555 1_555
C7 C6 1_555 1_555
C8 N1 1_555 1_555
H6 C8 1_555 1_555
H7 C8 1_555 1_555
C9 O2 1_555 1_555
H8 C9 1_555 1_555
C10 C9 1_555 1_555
C11 C10 1_555 1_555
C12 C11 1_555 1_555
H9 C12 1_555 1_555
C13 C12 1_555 1_555
H10 C13 1_555 1_555
C14 C13 1_555 1_555
C15 C14 1_555 1_555
H11 C15 1_555 1_555
C16 C11 1_555 1_555
H12 C16 1_555 1_555
C17 C14 1_555 1_555
C18 C17 1_555 1_555
H13 C18 1_555 1_555
H14 C18 1_555 1_555
H15 C18 1_555 1_555
C19 C10 1_555 1_555
H16 C19 1_555 1_555
H17 C19 1_555 1_555
C5 C6 1_555 1_555
C8 C9 1_555 1_555
C15 C16 1_555 1_555

#END
