
#######################################################################
#
#                 Cambridge Crystallographic Data Centre
#                                CCDC 
#
#######################################################################
#
# If this CIF has been generated from an entry in the Cambridge 
# Structural Database, then it will include bibliographic, chemical, 
# crystal, experimental, refinement or atomic coordinate data resulting 
# from the CCDC's data processing and validation procedures.
#
#######################################################################

data_ACOTOB
_chemical_formula_moiety         'C19 H24 N2 O3'
_chemical_name_systematic        
4-dimethylamino-4'-[bis(2-hydroxyethyl)amino]benzophenone
_symmetry_cell_setting           monoclinic
_symmetry_space_group_name_H-M   'P 21/n'
_symmetry_Int_Tables_number      14
_space_group_name_Hall           '-P 2yn'
loop_
_symmetry_equiv_pos_site_id
_symmetry_equiv_pos_as_xyz
1 x,y,z
2 1/2+x,1/2-y,1/2+z
3 -x,-y,-z
4 1/2-x,1/2+y,1/2-z
_cell_length_a                   4.7517(2)
_cell_length_b                   14.8178(5)
_cell_length_c                   23.78810(10)
_cell_angle_alpha                90
_cell_angle_beta                 93.588(2)
_cell_angle_gamma                90
_cell_volume                     1671.63
_exptl_crystal_colour            yellowish
_exptl_crystal_description       rod
_chemical_melting_point          161-162deg.C
_cell_formula_units_Z            4
_exptl_crystal_recrystallization_method ethanol
loop_
_atom_site_label
_atom_site_type_symbol
_atom_site_fract_x
_atom_site_fract_y
_atom_site_fract_z
O1 O 0.4128(3) 0.87554(9) -0.08297(6)
O2 O -0.2023(4) 1.11132(9) 0.18944(7)
H1 H -0.299(6) 1.1179(17) 0.1539(12)
O3 O -0.2047(4) 0.73817(12) 0.23247(9)
H2 H -0.242(6) 0.6975(19) 0.2588(13)
N1 N 1.0232(4) 0.50086(11) -0.11953(8)
N2 N 0.0594(4) 0.87819(9) 0.16909(7)
C1 C 0.4515(4) 0.81405(12) -0.04795(8)
C2 C 0.6044(4) 0.73167(12) -0.06416(8)
C3 C 0.5590(5) 0.64659(12) -0.04064(9)
H3 H 0.414(5) 0.6385(12) -0.0127(9)
C4 C 0.6960(5) 0.57107(13) -0.05887(9)
H4 H 0.660(5) 0.5139(15) -0.0435(10)
C5 C 0.8850(5) 0.57604(12) -0.10154(9)
C6 C 0.9293(5) 0.66177(13) -0.12555(10)
H5 H 1.064(4) 0.6679(12) -0.1561(9)
C7 C 0.7890(5) 0.73619(12) -0.10694(9)
H6 H 0.828(5) 0.7921(15) -0.1238(10)
C8 C 0.9651(7) 0.41368(15) -0.09559(12)
H7 H 1.013(7) 0.4160(19) -0.0534(14)
H8 H 0.747(7) 0.3960(18) -0.1047(13)
H9 H 1.088(6) 0.3712(16) -0.1145(11)
C9 C 1.1818(7) 0.50436(18) -0.16913(12)
H10 H 1.342(6) 0.5481(17) -0.1656(11)
H11 H 1.269(6) 0.4467(17) -0.1748(11)
H12 H 1.064(7) 0.522(2) -0.2021(15)
C10 C 0.3503(4) 0.82503(11) 0.00835(8)
C11 C 0.1325(5) 0.88681(12) 0.01601(9)
H13 H 0.049(5) 0.9174(13) -0.0168(9)
C12 C 0.0378(5) 0.90477(12) 0.06810(9)
H14 H -0.114(5) 0.9484(13) 0.0696(9)
C13 C 0.1560(4) 0.86151(11) 0.11700(8)
C14 C 0.3788(4) 0.80034(11) 0.10954(9)
H15 H 0.463(4) 0.7711(12) 0.1402(9)
C15 C 0.4697(5) 0.78332(12) 0.05678(8)
H16 H 0.625(4) 0.7438(12) 0.0528(8)
C16 C -0.1424(5) 0.94994(12) 0.17722(10)
H17 H -0.289(4) 0.9528(12) 0.1445(9)
H18 H -0.238(4) 0.9356(12) 0.2116(9)
C17 C -0.0005(5) 1.04160(12) 0.18291(11)
H19 H 0.130(5) 1.0410(13) 0.2185(10)
H20 H 0.112(4) 1.0535(12) 0.1511(9)
C18 C 0.1887(5) 0.83593(13) 0.22000(9)
H21 H 0.135(5) 0.8735(13) 0.2525(9)
H22 H 0.398(5) 0.8344(12) 0.2182(8)
C19 C 0.0915(5) 0.74046(14) 0.22938(10)
H23 H 0.152(5) 0.7005(13) 0.1986(9)
H24 H 0.190(5) 0.7190(12) 0.2652(9)
loop_
_geom_bond_atom_site_label_1
_geom_bond_atom_site_label_2
_geom_bond_site_symmetry_1
_geom_bond_site_symmetry_2
O1 C1 1_555 1_555
O2 H1 1_555 1_555
O3 H2 1_555 1_555
N1 C5 1_555 1_555
N2 C13 1_555 1_555
C1 C2 1_555 1_555
C2 C3 1_555 1_555
C3 H3 1_555 1_555
C4 C3 1_555 1_555
H4 C4 1_555 1_555
C5 C4 1_555 1_555
C6 C5 1_555 1_555
H5 C6 1_555 1_555
C7 C2 1_555 1_555
H6 C7 1_555 1_555
C8 N1 1_555 1_555
H7 C8 1_555 1_555
H8 C8 1_555 1_555
H9 C8 1_555 1_555
C9 N1 1_555 1_555
H10 C9 1_555 1_555
H11 C9 1_555 1_555
H12 C9 1_555 1_555
C10 C1 1_555 1_555
C11 C10 1_555 1_555
H13 C11 1_555 1_555
C12 C11 1_555 1_555
H14 C12 1_555 1_555
C13 C12 1_555 1_555
C14 C13 1_555 1_555
H15 C14 1_555 1_555
C15 C10 1_555 1_555
H16 C15 1_555 1_555
C16 N2 1_555 1_555
H17 C16 1_555 1_555
H18 C16 1_555 1_555
C17 O2 1_555 1_555
H19 C17 1_555 1_555
H20 C17 1_555 1_555
C18 N2 1_555 1_555
H21 C18 1_555 1_555
H22 C18 1_555 1_555
C19 O3 1_555 1_555
H23 C19 1_555 1_555
H24 C19 1_555 1_555
C6 C7 1_555 1_555
C14 C15 1_555 1_555
C16 C17 1_555 1_555
C18 C19 1_555 1_555

#END
