
#######################################################################
#
#                 Cambridge Crystallographic Data Centre
#                                CCDC 
#
#######################################################################
#
# If this CIF has been generated from an entry in the Cambridge 
# Structural Database, then it will include bibliographic, chemical, 
# crystal, experimental, refinement or atomic coordinate data resulting 
# from the CCDC's data processing and validation procedures.
#
#######################################################################

data_ACOTIX
_chemical_formula_moiety         'C24 H22 N2 O1'
_chemical_name_systematic        
4,4,9-Trimethyl-2-(4-methylphenyl)-4,5-dihydropyrrolo[2,3,4-kl]acridin-1(2H)-one
_symmetry_cell_setting           triclinic
_symmetry_space_group_name_H-M   'P -1'
_symmetry_Int_Tables_number      2
_space_group_name_Hall           '-P 1'
loop_
_symmetry_equiv_pos_site_id
_symmetry_equiv_pos_as_xyz
1 x,y,z
2 -x,-y,-z
_cell_length_a                   9.7636(8)
_cell_length_b                   9.9508(9)
_cell_length_c                   11.0156(13)
_cell_angle_alpha                108.945(2)
_cell_angle_beta                 99.716(1)
_cell_angle_gamma                104.409(1)
_cell_volume                     943.333
_exptl_crystal_colour            yellow
_exptl_crystal_description       block
_cell_formula_units_Z            2
loop_
_atom_site_label
_atom_site_type_symbol
_atom_site_fract_x
_atom_site_fract_y
_atom_site_fract_z
N1 N 0.8045(2) 0.5919(2) 0.62507(18)
N2 N 0.39488(17) 0.17107(18) 0.45042(16)
O1 O 0.30633(17) 0.25025(17) 0.63500(15)
C1 C 0.7360(2) 0.4658(2) 0.5220(2)
C2 C 0.7828(2) 0.4226(2) 0.3964(2)
H1 H 0.8892 0.4615 0.4189
H2 H 0.7441 0.4700 0.3407
C3 C 0.7322(2) 0.2516(2) 0.3153(2)
C4 C 0.5752(2) 0.1732(2) 0.3105(2)
H3 H 0.5162 0.0887 0.2359
C5 C 0.5230(2) 0.2258(2) 0.4129(2)
C6 C 0.6041(2) 0.3665(2) 0.5197(2)
C7 C 0.5369(2) 0.3971(2) 0.6183(2)
C8 C 0.6054(2) 0.5317(2) 0.7323(2)
C9 C 0.5505(3) 0.5788(2) 0.8435(2)
H4 H 0.4614 0.5185 0.8445
C10 C 0.6246(3) 0.7104(3) 0.9496(2)
C11 C 0.7588(3) 0.8004(3) 0.9460(2)
H5 H 0.8104 0.8904 1.0181
C12 C 0.8150(3) 0.7599(3) 0.8408(2)
H6 H 0.9040 0.8225 0.8418
C13 C 0.7413(2) 0.6250(2) 0.7302(2)
C14 C 0.8294(3) 0.1825(3) 0.3822(3)
H7 H 0.7945 0.0753 0.3355
H8 H 0.8261 0.2066 0.4732
H9 H 0.9288 0.2220 0.3800
C15 C 0.7479(3) 0.2254(3) 0.1750(2)
H10 H 0.8488 0.2702 0.1796
H11 H 0.6879 0.2702 0.1336
H12 H 0.7169 0.1194 0.1233
C16 C 0.3989(2) 0.2696(2) 0.5756(2)
C17 C 0.5652(3) 0.7610(3) 1.0678(2)
H13 H 0.4738 0.6868 1.0547
H14 H 0.5494 0.8549 1.0773
H15 H 0.6345 0.7736 1.1470
C18 C 0.2825(2) 0.0296(2) 0.3773(2)
C19 C 0.3173(2) -0.0981(2) 0.3185(2)
H16 H 0.4150 -0.0931 0.3271
C20 C 0.2060(3) -0.2331(2) 0.2470(2)
H17 H 0.2301 -0.3183 0.2061
C21 C 0.0603(3) -0.2452(2) 0.2344(2)
C22 C 0.0285(2) -0.1169(3) 0.2966(2)
H18 H -0.0690 -0.1226 0.2914
C23 C 0.1375(2) 0.0196(2) 0.3663(2)
H19 H 0.1131 0.1050 0.4059
C24 C -0.0606(3) -0.3921(3) 0.1578(3)
H20 H -0.1431 -0.3928 0.1946
H21 H -0.0262 -0.4727 0.1637
H22 H -0.0900 -0.4049 0.0660
loop_
_geom_bond_atom_site_label_1
_geom_bond_atom_site_label_2
_geom_bond_site_symmetry_1
_geom_bond_site_symmetry_2
N1 C1 1_555 1_555
N2 C5 1_555 1_555
O1 C16 1_555 1_555
C1 C2 1_555 1_555
C2 H1 1_555 1_555
H2 C2 1_555 1_555
C3 C2 1_555 1_555
C4 C3 1_555 1_555
H3 C4 1_555 1_555
C5 C4 1_555 1_555
C6 C1 1_555 1_555
C7 C6 1_555 1_555
C8 C7 1_555 1_555
C9 C8 1_555 1_555
H4 C9 1_555 1_555
C10 C9 1_555 1_555
C11 C10 1_555 1_555
H5 C11 1_555 1_555
C12 C11 1_555 1_555
H6 C12 1_555 1_555
C13 N1 1_555 1_555
C14 C3 1_555 1_555
H7 C14 1_555 1_555
H8 C14 1_555 1_555
H9 C14 1_555 1_555
C15 C3 1_555 1_555
H10 C15 1_555 1_555
H11 C15 1_555 1_555
H12 C15 1_555 1_555
C16 N2 1_555 1_555
C17 C10 1_555 1_555
H13 C17 1_555 1_555
H14 C17 1_555 1_555
H15 C17 1_555 1_555
C18 N2 1_555 1_555
C19 C18 1_555 1_555
H16 C19 1_555 1_555
C20 C19 1_555 1_555
H17 C20 1_555 1_555
C21 C20 1_555 1_555
C22 C21 1_555 1_555
H18 C22 1_555 1_555
C23 C18 1_555 1_555
H19 C23 1_555 1_555
C24 C21 1_555 1_555
H20 C24 1_555 1_555
H21 C24 1_555 1_555
H22 C24 1_555 1_555
C5 C6 1_555 1_555
C7 C16 1_555 1_555
C8 C13 1_555 1_555
C12 C13 1_555 1_555
C22 C23 1_555 1_555

#END
