
#######################################################################
#
#                 Cambridge Crystallographic Data Centre
#                                CCDC 
#
#######################################################################
#
# If this CIF has been generated from an entry in the Cambridge 
# Structural Database, then it will include bibliographic, chemical, 
# crystal, experimental, refinement or atomic coordinate data resulting 
# from the CCDC's data processing and validation procedures.
#
#######################################################################

data_ACOZEX
_chemical_formula_moiety         'C24 H32 N2 O3'
_chemical_name_systematic        
't-butyl 5-[hydroxy(diphenyl)methyl]-3-isopropylimidazolidine-1-carboxylate'
_symmetry_cell_setting           monoclinic
_symmetry_space_group_name_H-M   'P 21'
_symmetry_Int_Tables_number      4
_space_group_name_Hall           'P 2yb'
loop_
_symmetry_equiv_pos_site_id
_symmetry_equiv_pos_as_xyz
1 x,y,z
2 -x,1/2+y,-z
_cell_length_a                   6.0081(2)
_cell_length_b                   20.5769(9)
_cell_length_c                   9.1980(4)
_cell_angle_alpha                90
_cell_angle_beta                 103.3930
_cell_angle_gamma                90
_cell_volume                     1106.21
_exptl_crystal_colour            colorless
_exptl_crystal_description       block
_cell_formula_units_Z            2
_exptl_crystal_recrystallization_method Hexane
loop_
_atom_site_label
_atom_site_type_symbol
_atom_site_fract_x
_atom_site_fract_y
_atom_site_fract_z
N1 N 0.34476(16) 0.41564(5) 0.41321(10)
C1 C 0.22293(19) 0.42067(6) 0.53357(13)
N2 N 0.11688(15) 0.48480(5) 0.50708(10)
C2 C 0.28554(19) 0.52437(6) 0.45307(13)
C3 C 0.35589(17) 0.47834(6) 0.34120(12)
C4 C 0.50026(19) 0.36797(6) 0.40880(12)
O1 O 0.63936(15) 0.36980(5) 0.33217(10)
O2 O 0.47537(15) 0.31946(4) 0.50282(9)
C5 C 0.5831(2) 0.25596(6) 0.49178(14)
C6 C 0.5155(3) 0.21733(8) 0.61464(18)
C7 C 0.8423(2) 0.26177(8) 0.5224(2)
C8 C 0.4779(3) 0.22727(8) 0.33969(17)
C9 C 0.04750(19) 0.51232(6) 0.63800(13)
C10 C -0.1086(2) 0.46482(7) 0.69396(14)
C11 C -0.0716(2) 0.57702(7) 0.59473(15)
C12 C 0.18779(16) 0.48323(6) 0.18392(11)
O3 O -0.04245(12) 0.48330(5) 0.20044(9)
C13 C 0.22663(19) 0.54817(6) 0.11069(12)
C14 C 0.0376(2) 0.58315(6) 0.03345(13)
C15 C 0.0637(2) 0.64270(7) -0.03201(15)
C16 C 0.2791(3) 0.66822(7) -0.02311(15)
C17 C 0.4692(2) 0.63378(7) 0.05142(16)
C18 C 0.4435(2) 0.57414(6) 0.11763(14)
C19 C 0.21863(18) 0.42504(6) 0.08601(12)
C20 C 0.40213(19) 0.42034(6) 0.01772(13)
C21 C 0.4269(2) 0.36634(7) -0.06784(14)
C22 C 0.2684(3) 0.31640(7) -0.08672(15)
C23 C 0.0865(3) 0.32043(7) -0.01850(16)
C24 C 0.0616(2) 0.37401(7) 0.06780(13)
H1 H 0.1063 0.3861 0.5258
H2 H 0.3299 0.4183 0.6330
H3 H 0.4175 0.5358 0.5354
H4 H 0.2157 0.5647 0.4039
H5 H 0.5161 0.4877 0.3336
H6 H 0.5842 0.2370 0.7116
H7 H 0.5700 0.1725 0.6128
H8 H 0.3485 0.2174 0.5991
H9 H 0.8850 0.2828 0.4372
H10 H 0.9108 0.2183 0.5371
H11 H 0.8979 0.2879 0.6126
H12 H 0.3115 0.2249 0.3260
H13 H 0.5393 0.1835 0.3330
H14 H 0.5151 0.2548 0.2617
H15 H 0.1874 0.5199 0.7194
H16 H -0.2397 0.4541 0.6122
H17 H -0.1630 0.4848 0.7761
H18 H -0.0234 0.4251 0.7296
H19 H 0.0409 0.6094 0.5806
H20 H -0.1442 0.5914 0.6742
H21 H -0.1884 0.5719 0.5015
H22 H -0.046(3) 0.4756(9) 0.290(2)
H23 H -0.1117 0.5661 0.0254
H24 H -0.0675 0.6660 -0.0833
H25 H 0.2965 0.7090 -0.0677
H26 H 0.6180 0.6508 0.0575
H27 H 0.5754 0.5509 0.1682
H28 H 0.5115 0.4544 0.0298
H29 H 0.5530 0.3637 -0.1136
H30 H 0.2845 0.2797 -0.1460
H31 H -0.0224 0.2862 -0.0309
H32 H -0.0632 0.3760 0.1149
loop_
_geom_bond_atom_site_label_1
_geom_bond_atom_site_label_2
_geom_bond_site_symmetry_1
_geom_bond_site_symmetry_2
N1 C1 1_555 1_555
C1 N2 1_555 1_555
N2 C2 1_555 1_555
C2 C3 1_555 1_555
C3 N1 1_555 1_555
C4 N1 1_555 1_555
O1 C4 1_555 1_555
O2 C4 1_555 1_555
C5 O2 1_555 1_555
C6 C5 1_555 1_555
C7 C5 1_555 1_555
C8 C5 1_555 1_555
C9 N2 1_555 1_555
C10 C9 1_555 1_555
C11 C9 1_555 1_555
C12 C3 1_555 1_555
O3 C12 1_555 1_555
C13 C12 1_555 1_555
C14 C13 1_555 1_555
C15 C14 1_555 1_555
C16 C15 1_555 1_555
C17 C16 1_555 1_555
C18 C13 1_555 1_555
C19 C12 1_555 1_555
C20 C19 1_555 1_555
C21 C20 1_555 1_555
C22 C21 1_555 1_555
C23 C22 1_555 1_555
C24 C19 1_555 1_555
H1 C1 1_555 1_555
H2 C1 1_555 1_555
H3 C2 1_555 1_555
H4 C2 1_555 1_555
H5 C3 1_555 1_555
H6 C6 1_555 1_555
H7 C6 1_555 1_555
H8 C6 1_555 1_555
H9 C7 1_555 1_555
H10 C7 1_555 1_555
H11 C7 1_555 1_555
H12 C8 1_555 1_555
H13 C8 1_555 1_555
H14 C8 1_555 1_555
H15 C9 1_555 1_555
H16 C10 1_555 1_555
H17 C10 1_555 1_555
H18 C10 1_555 1_555
H19 C11 1_555 1_555
H20 C11 1_555 1_555
H21 C11 1_555 1_555
H22 O3 1_555 1_555
H23 C14 1_555 1_555
H24 C15 1_555 1_555
H25 C16 1_555 1_555
H26 C17 1_555 1_555
H27 C18 1_555 1_555
H28 C20 1_555 1_555
H29 C21 1_555 1_555
H30 C22 1_555 1_555
H31 C23 1_555 1_555
H32 C24 1_555 1_555
C17 C18 1_555 1_555
C23 C24 1_555 1_555

#END
