
#######################################################################
#
#                 Cambridge Crystallographic Data Centre
#                                CCDC 
#
#######################################################################
#
# If this CIF has been generated from an entry in the Cambridge 
# Structural Database, then it will include bibliographic, chemical, 
# crystal, experimental, refinement or atomic coordinate data resulting 
# from the CCDC's data processing and validation procedures.
#
#######################################################################

data_ACPENC10
_chemical_formula_moiety         'C9 H9 N1 O4 S1'
_chemical_name_systematic        (5S)-Acetonyl-penem-3-carboxylate
_symmetry_cell_setting           orthorhombic
_symmetry_space_group_name_H-M   'P 21 21 21'
_symmetry_Int_Tables_number      19
_space_group_name_Hall           'P 2ac 2ab'
loop_
_symmetry_equiv_pos_site_id
_symmetry_equiv_pos_as_xyz
1 x,y,z
2 1/2+x,1/2-y,-z
3 -x,1/2+y,1/2-z
4 1/2-x,-y,1/2+z
_cell_length_a                   5.210(1)
_cell_length_b                   9.971(2)
_cell_length_c                   19.099(3)
_cell_angle_alpha                90
_cell_angle_beta                 90
_cell_angle_gamma                90
_cell_volume                     992.172
_cell_formula_units_Z            4
loop_
_atom_site_label
_atom_site_type_symbol
_atom_site_fract_x
_atom_site_fract_y
_atom_site_fract_z
S1 S 0.08680 0.19510 0.13630
C1 C 0.31400 0.28750 0.08920
C2 C 0.45700 0.37040 0.12730
N1 N 0.39650 0.36780 0.20010
C3 C 0.22260 0.25660 0.21970
C4 C 0.06860 0.35320 0.26460
C5 C 0.24380 0.46210 0.23700
O1 O 0.26070 0.58220 0.24160
C6 C 0.66310 0.45840 0.10220
O2 O 0.77550 0.53930 0.13740
O3 O 0.71130 0.43590 0.03390
C7 C 0.89060 0.52410 0.00010
C8 C 0.75090 0.62040 -0.04780
O4 O 0.52610 0.64220 -0.04100
C9 C 0.91430 0.68400 -0.10170
H1 H 0.37200 0.29300 0.03300
H2 H 0.31700 0.19300 0.23700
H3 H 0.06900 0.33800 0.31500
H4 H -0.08300 0.35800 0.24700
H5 H 1.00000 0.59500 0.02700
H6 H 0.99400 0.45400 -0.03100
H7 H 0.81300 0.70600 -0.14700
H8 H 0.99000 0.77400 -0.08100
H9 H 1.06400 0.61800 -0.11500
loop_
_geom_bond_atom_site_label_1
_geom_bond_atom_site_label_2
_geom_bond_site_symmetry_1
_geom_bond_site_symmetry_2
S1 C1 1_555 1_555
C1 C2 1_555 1_555
C2 N1 1_555 1_555
N1 C3 1_555 1_555
C3 S1 1_555 1_555
C4 C3 1_555 1_555
C5 N1 1_555 1_555
O1 C5 1_555 1_555
C6 C2 1_555 1_555
O2 C6 1_555 1_555
O3 C6 1_555 1_555
C7 O3 1_555 1_555
C8 C7 1_555 1_555
O4 C8 1_555 1_555
C9 C8 1_555 1_555
H1 C1 1_555 1_555
H2 C3 1_555 1_555
H3 C4 1_555 1_555
H4 C4 1_555 1_555
H5 C7 1_555 1_555
H6 C7 1_555 1_555
H7 C9 1_555 1_555
H8 C9 1_555 1_555
H9 C9 1_555 1_555
C4 C5 1_555 1_555

#END
