
#######################################################################
#
#                 Cambridge Crystallographic Data Centre
#                                CCDC 
#
#######################################################################
#
# If this CIF has been generated from an entry in the Cambridge 
# Structural Database, then it will include bibliographic, chemical, 
# crystal, experimental, refinement or atomic coordinate data resulting 
# from the CCDC's data processing and validation procedures.
#
#######################################################################

data_ACSARM
_chemical_compound_source        'Sedum sarmentosum Bunge'
_chemical_formula_moiety         'C21 H27 N1 O12'
_chemical_name_systematic        Penta-acetyl-sarmentosin
_symmetry_cell_setting           orthorhombic
_symmetry_space_group_name_H-M   'P 21 21 21'
_symmetry_Int_Tables_number      19
_space_group_name_Hall           'P 2ac 2ab'
loop_
_symmetry_equiv_pos_site_id
_symmetry_equiv_pos_as_xyz
1 x,y,z
2 1/2+x,1/2-y,-z
3 -x,1/2+y,1/2-z
4 1/2-x,-y,1/2+z
_cell_length_a                   19.756(3)
_cell_length_b                   17.013(3)
_cell_length_c                   7.482(1)
_cell_angle_alpha                90
_cell_angle_beta                 90
_cell_angle_gamma                90
_cell_volume                     2514.77
_cell_formula_units_Z            4
loop_
_atom_site_label
_atom_site_type_symbol
_atom_site_fract_x
_atom_site_fract_y
_atom_site_fract_z
O1 O 0.41659 0.32667 0.83505
O2 O 0.28654 0.34432 0.49322
O3 O 0.42920 0.53779 0.75815
O4 O 0.48638 0.41481 0.96980
O5 O 0.64437 0.40857 1.60831
O6 O 0.37514 0.47938 0.43211
O7 O 0.38112 0.19151 0.62173
O8 O 0.27308 0.53659 0.43665
O9 O 0.33235 0.31482 0.22921
O10 O 0.70509 0.51148 1.69418
O11 O 0.29086 0.15355 0.45992
O12 O 0.51566 0.55955 0.56829
N1 N 0.63909 0.25664 1.24929
C1 C 0.35130 0.35569 0.57656
C2 C 0.35094 0.31381 0.75802
C3 C 0.42520 0.40725 0.88258
C4 C 0.28387 0.32317 0.32009
C5 C 0.36374 0.44225 0.60236
C6 C 0.42775 0.45544 0.71287
C7 C 0.53677 0.41818 1.25458
C8 C 0.32615 0.52652 0.36534
C9 C 0.68096 0.45032 1.72569
C10 C 0.33703 0.22767 0.74928
C11 C 0.59384 0.39395 1.32552
C12 C 0.64040 0.44369 1.43393
C13 C 0.35120 0.15496 0.47755
C14 C 0.47497 0.58345 0.67331
C15 C 0.61831 0.31705 1.28381
C16 C 0.49072 0.37338 1.13599
C17 C 0.40552 0.12182 0.36560
C18 C 0.21193 0.31298 0.26383
C19 C 0.34814 0.56165 0.19330
C20 C 0.46460 0.66883 0.72041
C21 C 0.68607 0.40669 1.90395
H1 H 0.38354 0.33651 0.50471
H2 H 0.31552 0.33037 0.83601
H3 H 0.38479 0.42420 0.95414
H4 H 0.32816 0.46207 0.66227
H5 H 0.47097 0.44038 0.65424
H6 H 0.52530 0.46911 1.27588
H7 H 0.28955 0.21755 0.70690
H8 H 0.34325 0.20395 0.86888
H9 H 0.68930 0.44830 1.40225
H10 H 0.62159 0.49612 1.44442
H11 H 0.44683 0.37890 1.20214
H12 H 0.51136 0.32076 1.12288
loop_
_geom_bond_atom_site_label_1
_geom_bond_atom_site_label_2
_geom_bond_site_symmetry_1
_geom_bond_site_symmetry_2
O1 C2 1_555 1_555
O2 C1 1_555 1_555
O3 C6 1_555 1_555
O4 C3 1_555 1_555
O5 C9 1_555 1_555
O6 C5 1_555 1_555
O7 C10 1_555 1_555
O8 C8 1_555 1_555
O9 C4 1_555 1_555
O10 C9 1_555 1_555
O11 C13 1_555 1_555
O12 C14 1_555 1_555
N1 C15 1_555 1_555
C1 C2 1_555 1_555
C2 C10 1_555 1_555
C3 O1 1_555 1_555
C4 O2 1_555 1_555
C5 C1 1_555 1_555
C6 C3 1_555 1_555
C7 C11 1_555 1_555
C8 O6 1_555 1_555
C9 C21 1_555 1_555
C10 H7 1_555 1_555
C11 C12 1_555 1_555
C12 O5 1_555 1_555
C13 O7 1_555 1_555
C14 O3 1_555 1_555
C15 C11 1_555 1_555
C16 O4 1_555 1_555
C17 C13 1_555 1_555
C18 C4 1_555 1_555
C19 C8 1_555 1_555
C20 C14 1_555 1_555
H1 C1 1_555 1_555
H2 C2 1_555 1_555
H3 C3 1_555 1_555
H4 C5 1_555 1_555
H5 C6 1_555 1_555
H6 C7 1_555 1_555
H8 C10 1_555 1_555
H9 C12 1_555 1_555
H10 C12 1_555 1_555
H11 C16 1_555 1_555
H12 C16 1_555 1_555
C5 C6 1_555 1_555
C7 C16 1_555 1_555

#END
