
#######################################################################
#
#                 Cambridge Crystallographic Data Centre
#                                CCDC 
#
#######################################################################
#
# If this CIF has been generated from an entry in the Cambridge 
# Structural Database, then it will include bibliographic, chemical, 
# crystal, experimental, refinement or atomic coordinate data resulting 
# from the CCDC's data processing and validation procedures.
#
#######################################################################

data_ACTHYM
_chemical_formula_moiety         'C14 H19 N3 O6,C1 H1 Cl3'
_chemical_name_systematic        
"5'-Acetamido-3'-acetyl-5'-deoxythymidine chloroform solvate"
_symmetry_cell_setting           orthorhombic
_symmetry_space_group_name_H-M   'P 21 21 21'
_symmetry_Int_Tables_number      19
_space_group_name_Hall           'P 2ac 2ab'
loop_
_symmetry_equiv_pos_site_id
_symmetry_equiv_pos_as_xyz
1 x,y,z
2 1/2+x,1/2-y,-z
3 -x,1/2+y,1/2-z
4 1/2-x,-y,1/2+z
_cell_length_a                   24.177(3)
_cell_length_b                   16.203(2)
_cell_length_c                   4.992(4)
_cell_angle_alpha                90
_cell_angle_beta                 90
_cell_angle_gamma                90
_cell_volume                     1955.57
_cell_formula_units_Z            4
loop_
_atom_site_label
_atom_site_type_symbol
_atom_site_fract_x
_atom_site_fract_y
_atom_site_fract_z
N1 N 0.62470 0.32570 0.76290
C1 C 0.67730 0.34890 0.67420
N2 N 0.69780 0.41700 0.80330
C2 C 0.67340 0.46110 1.00710
C3 C 0.61770 0.43690 1.07500
C4 C 0.59670 0.37140 0.95460
C5 C 0.58600 0.48720 1.27820
O1 O 0.70160 0.31370 0.49670
O2 O 0.69890 0.51830 1.11380
C6 C 0.59910 0.25230 0.64590
C7 C 0.57880 0.18840 0.84840
C8 C 0.53050 0.14970 0.69770
C9 C 0.50620 0.22080 0.54310
O3 O 0.55090 0.27750 0.49760
C10 C 0.46150 0.26610 0.69170
N3 N 0.40910 0.22130 0.69070
C11 C 0.38100 0.20380 0.91030
C12 C 0.32590 0.16260 0.87800
O4 O 0.39930 0.21950 1.13430
O5 O 0.55140 0.09140 0.49950
C13 C 0.55030 0.01100 0.55600
C14 C 0.57630 -0.03840 0.34890
O6 O 0.52540 -0.01420 0.74660
H1 H 0.72500 0.42600 0.70300
H2 H 0.55600 0.35200 0.99400
H3 H 0.59800 0.44600 1.40900
H4 H 0.54500 0.46900 1.32000
H5 H 0.59600 0.53600 1.27900
H6 H 0.62100 0.24000 0.51500
H7 H 0.57000 0.22800 1.00100
H8 H 0.60500 0.15400 0.84700
H9 H 0.50400 0.12400 0.81900
H10 H 0.49600 0.21200 0.38700
H11 H 0.45900 0.32500 0.59200
H12 H 0.46500 0.27200 0.84200
H13 H 0.39500 0.20100 0.55200
H14 H 0.32100 0.15300 0.70100
H15 H 0.32200 0.12000 0.96500
H16 H 0.29800 0.20100 0.93300
H17 H 0.59600 -0.00300 0.22700
H18 H 0.54700 -0.06700 0.24800
H19 H 0.60100 -0.07800 0.43200
C15 C 0.24930 0.64600 0.14880
Cl1 Cl 0.18260 0.61460 0.06630
Cl2 Cl 0.29550 0.57950 -0.01490
Cl3 Cl 0.26190 0.64910 0.48030
H20 H 0.25400 0.70100 0.07600
loop_
_geom_bond_atom_site_label_1
_geom_bond_atom_site_label_2
_geom_bond_site_symmetry_1
_geom_bond_site_symmetry_2
N1 C1 1_555 1_555
C1 N2 1_555 1_555
N2 C2 1_555 1_555
C2 C3 1_555 1_555
C3 C4 1_555 1_555
C4 N1 1_555 1_555
C5 C3 1_555 1_555
O1 C1 1_555 1_555
O2 C2 1_555 1_555
C6 N1 1_555 1_555
C7 C6 1_555 1_555
C8 C7 1_555 1_555
C9 C8 1_555 1_555
O3 C6 1_555 1_555
C10 C9 1_555 1_555
N3 C10 1_555 1_555
C11 N3 1_555 1_555
C12 C11 1_555 1_555
O4 C11 1_555 1_555
O5 C8 1_555 1_555
C13 O5 1_555 1_555
C14 C13 1_555 1_555
O6 C13 1_555 1_555
H1 N2 1_555 1_555
H2 C4 1_555 1_555
H3 C5 1_555 1_555
H4 C5 1_555 1_555
H5 C5 1_555 1_555
H6 C6 1_555 1_555
H7 C7 1_555 1_555
H8 C7 1_555 1_555
H9 C8 1_555 1_555
H10 C9 1_555 1_555
H11 C10 1_555 1_555
H12 C10 1_555 1_555
H13 N3 1_555 1_555
H14 C12 1_555 1_555
H15 C12 1_555 1_555
H16 C12 1_555 1_555
H17 C14 1_555 1_555
H18 C14 1_555 1_555
H19 C14 1_555 1_555
C15 Cl1 1_555 1_555
Cl2 C15 1_555 1_555
Cl3 C15 1_555 1_555
H20 C15 1_555 1_555
C9 O3 1_555 1_555

#END
