
#######################################################################
#
#                 Cambridge Crystallographic Data Centre
#                                CCDC 
#
#######################################################################
#
# If this CIF has been generated from an entry in the Cambridge 
# Structural Database, then it will include bibliographic, chemical, 
# crystal, experimental, refinement or atomic coordinate data resulting 
# from the CCDC's data processing and validation procedures.
#
#######################################################################

data_ACUDEI02
_chemical_formula_moiety         'C42 H26'
_chemical_name_systematic        
4b,8b-diphenyl-4b,8b-dihydrodiindeno[1,2,3-fg:1',2',3'-op]tetracene
_symmetry_cell_setting           monoclinic
_symmetry_space_group_name_H-M   'P 21/c'
_symmetry_Int_Tables_number      14
_space_group_name_Hall           '-P 2ybc'
loop_
_symmetry_equiv_pos_site_id
_symmetry_equiv_pos_as_xyz
1 x,y,z
2 -x,1/2+y,1/2-z
3 -x,-y,-z
4 x,1/2-y,1/2+z
_cell_length_a                   13.0398(4)
_cell_length_b                   11.6254(3)
_cell_length_c                   18.7191(6)
_cell_angle_alpha                90
_cell_angle_beta                 108.991(4)
_cell_angle_gamma                90
_cell_volume                     2683.23
_exptl_crystal_colour            colorless
_exptl_crystal_description       block
_cell_formula_units_Z            4
loop_
_atom_site_label
_atom_site_type_symbol
_atom_site_fract_x
_atom_site_fract_y
_atom_site_fract_z
C1 C 0.19203(15) 0.44406(15) 0.23810(10)
C2 C 0.29222(14) 0.62356(15) 0.25688(10)
C3 C 0.32979(14) 0.61531(15) 0.41455(10)
C4 C 0.35837(14) 0.71110(15) 0.30398(10)
C5 C 0.37611(14) 0.70696(15) 0.38415(10)
C6 C 0.24925(15) 0.33805(16) 0.28356(11)
C7 C 0.23050(16) 0.43465(16) 0.40282(10)
C8 C 0.24096(14) 0.54485(15) 0.28865(10)
C9 C 0.25816(15) 0.54054(16) 0.36582(11)
C10 C 0.06789(15) 0.43657(16) 0.21682(10)
C11 C 0.26617(15) 0.33356(16) 0.36282(11)
C12 C 0.32099(15) 0.23900(16) 0.40328(11)
H1 H 0.332955 0.235004 0.456063
C13 C 0.35852(15) 0.15070(17) 0.36878(11)
H2 H 0.395851 0.087368 0.397822
C14 C 0.28731(15) 0.24815(16) 0.25002(11)
H3 H 0.275974 0.250542 0.197275
C15 C 0.3584(3) 0.5651(2) 0.49097(14)
C16 C 0.21958(15) 0.47865(17) 0.16729(11)
C17 C 0.41307(15) 0.79711(16) 0.27664(11)
H4 H 0.401865 0.801329 0.223956
C18 C 0.34160(16) 0.15485(17) 0.29207(12)
H5 H 0.366924 0.094252 0.268122
C19 C 0.18538(16) 0.42646(17) 0.09680(11)
H6 H 0.146720 0.355809 0.089533
C20 C 0.27469(15) 0.58642(16) 0.17789(11)
C21 C 0.00759(16) 0.53707(16) 0.20600(11)
H7 H 0.043474 0.609320 0.212332
C22 C 0.44471(15) 0.79135(16) 0.43067(11)
H8 H 0.454786 0.791733 0.483267
C23 C -0.10462(16) 0.53339(17) 0.18602(12)
H9 H -0.144830 0.602968 0.179598
C24 C -0.15814(16) 0.42888(17) 0.17542(11)
H10 H -0.234924 0.426315 0.161914
C25 C 0.01373(16) 0.33191(17) 0.20511(12)
H11 H 0.053646 0.262197 0.211056
C26 C 0.48167(16) 0.87435(17) 0.32405(12)
H12 H 0.519082 0.929431 0.304277
C27 C 0.29773(16) 0.63657(18) 0.11726(11)
H13 H 0.336343 0.707191 0.123762
C28 C 0.49677(15) 0.87224(17) 0.40183(12)
H14 H 0.543125 0.926956 0.434449
C29 C 0.39052(17) 0.42401(18) 0.61704(12)
H15 H 0.402200 0.376568 0.660285
C30 C 0.26382(17) 0.58252(18) 0.04708(12)
H16 H 0.278937 0.617270 0.005666
C31 C 0.31503(17) 0.39140(18) 0.54844(12)
H17 H 0.272793 0.323790 0.545082
C32 C 0.30234(16) 0.45891(17) 0.48513(11)
C33 C 0.43152(19) 0.59731(19) 0.56049(12)
H18 H 0.469480 0.668186 0.565485
C34 C -0.09917(17) 0.32871(17) 0.18462(13)
H19 H -0.135583 0.256705 0.176956
C35 C 0.20843(17) 0.47899(18) 0.03664(12)
H20 H 0.185984 0.443476 -0.011700
C36 C 0.4488(2) 0.5254(2) 0.62261(13)
H21 H 0.501140 0.545894 0.669469
C37 C 0.11026(10) 0.42361(16) 0.40096(11)
C38 C 0.04676(14) 0.52139(14) 0.39533(12)
H22 H 0.075410 0.594952 0.390339
C39 C -0.05867(14) 0.51152(16) 0.39701(12)
H23 H -0.102069 0.578351 0.393160
C40 C -0.10059(10) 0.40389(19) 0.40432(11)
H24 H -0.172646 0.397148 0.405461
C41 C -0.03709(14) 0.30611(14) 0.40995(12)
H25 H -0.065745 0.232543 0.414940
C42 C 0.06833(14) 0.31597(14) 0.40827(12)
H26 H 0.111735 0.249141 0.412119
H27? H 0.274778 0.434248 0.457616
C43? C 0.1124(11) 0.432(2) 0.3952(16)
C44? C 0.0759(17) 0.534(2) 0.4170(16)
H28? H 0.123539 0.598064 0.431626
C45? C -0.0303(19) 0.5429(17) 0.4173(15)
H29? H -0.055202 0.612804 0.432109
C46? C -0.1000(12) 0.449(2) 0.3958(15)
H30? H -0.172528 0.455339 0.395996
C47? C -0.0635(15) 0.3471(19) 0.3741(14)
H31? H -0.111114 0.283134 0.359399
C48? C 0.0427(16) 0.3383(18) 0.3738(14)
H32? H 0.067626 0.268392 0.358915
C49? C 0.283(2) 0.566(2) 0.5360(14)
H33? H 0.207656 0.580376 0.511276
C50? C 0.318(2) 0.521(2) 0.6114(14)
H34? H 0.267683 0.496895 0.635326
C51? C 0.499(2) 0.552(2) 0.6121(15)
H35? H 0.574758 0.547602 0.639527
C52? C 0.467(2) 0.595(3) 0.5420(17)
H36? H 0.517468 0.628034 0.520881
C53? C 0.423(2) 0.514(3) 0.6460(19)
H37? H 0.449182 0.481636 0.695368
C54? C 0.354(5) 0.590(4) 0.4999(13)
loop_
_geom_bond_atom_site_label_1
_geom_bond_atom_site_label_2
_geom_bond_site_symmetry_1
_geom_bond_site_symmetry_2
C1 C6 1_555 1_555
C2 C4 1_555 1_555
C3 C5 1_555 1_555
C4 C5 1_555 1_555
C5 C22 1_555 1_555
C6 C11 1_555 1_555
C7 C9 1_555 1_555
C8 C1 1_555 1_555
C9 C3 1_555 1_555
C10 C1 1_555 1_555
C11 C7 1_555 1_555
C12 C11 1_555 1_555
H1 C12 1_555 1_555
C13 C12 1_555 1_555
H2 C13 1_555 1_555
C14 C6 1_555 1_555
H3 C14 1_555 1_555
C15 C3 1_555 1_555
C16 C1 1_555 1_555
C17 C4 1_555 1_555
H4 C17 1_555 1_555
C18 C13 1_555 1_555
H5 C18 1_555 1_555
C19 C16 1_555 1_555
H6 C19 1_555 1_555
C20 C2 1_555 1_555
C21 C10 1_555 1_555
H7 C21 1_555 1_555
C22 H8 1_555 1_555
C23 C21 1_555 1_555
H9 C23 1_555 1_555
C24 C23 1_555 1_555
H10 C24 1_555 1_555
C25 C10 1_555 1_555
H11 C25 1_555 1_555
C26 C17 1_555 1_555
H12 C26 1_555 1_555
C27 C20 1_555 1_555
H13 C27 1_555 1_555
C28 C22 1_555 1_555
H14 C28 1_555 1_555
C29 H15 1_555 1_555
C30 C27 1_555 1_555
H16 C30 1_555 1_555
C31 C29 1_555 1_555
H17 C31 1_555 1_555
C32 C7 1_555 1_555
C33 C15 1_555 1_555
H18 C33 1_555 1_555
C34 C24 1_555 1_555
H19 C34 1_555 1_555
C35 C19 1_555 1_555
H20 C35 1_555 1_555
C36 C29 1_555 1_555
H21 C36 1_555 1_555
C37 C7 1_555 1_555
C38 C37 1_555 1_555
H22 C38 1_555 1_555
C39 C38 1_555 1_555
H23 C39 1_555 1_555
C40 C39 1_555 1_555
H24 C40 1_555 1_555
C41 C40 1_555 1_555
H25 C41 1_555 1_555
C42 C37 1_555 1_555
H26 C42 1_555 1_555
C2 C8 1_555 1_555
C8 C9 1_555 1_555
C14 C18 1_555 1_555
C15 C32 1_555 1_555
C16 C20 1_555 1_555
C25 C34 1_555 1_555
C26 C28 1_555 1_555
C30 C35 1_555 1_555
C31 C32 1_555 1_555
C33 C36 1_555 1_555
C41 C42 1_555 1_555

#END
