
#######################################################################
#
#                 Cambridge Crystallographic Data Centre
#                                CCDC 
#
#######################################################################
#
# If this CIF has been generated from an entry in the Cambridge 
# Structural Database, then it will include bibliographic, chemical, 
# crystal, experimental, refinement or atomic coordinate data resulting 
# from the CCDC's data processing and validation procedures.
#
#######################################################################

data_ACUFIP
_chemical_formula_moiety         'C26 H42 Cl2 N10 Na2 O16 S2'
_chemical_name_systematic        
bis(\m~2~-aqua)-tetraaqua-bis(4-((4-(bis(2-hydroxyethyl)amino)-6-chloro-1,3,5-triazin-2-yl)amino)benzenesulfonato)-di-sodium
_symmetry_cell_setting           triclinic
_symmetry_space_group_name_H-M   'P -1'
_symmetry_Int_Tables_number      2
_space_group_name_Hall           '-P 1'
loop_
_symmetry_equiv_pos_site_id
_symmetry_equiv_pos_as_xyz
1 x,y,z
2 -x,-y,-z
_cell_length_a                   7.5628(7)
_cell_length_b                   8.6274(8)
_cell_length_c                   15.532(2)
_cell_angle_alpha                97.348(2)
_cell_angle_beta                 93.363(4)
_cell_angle_gamma                102.410(7)
_cell_volume                     977.724
_exptl_crystal_colour            colorless
_exptl_crystal_description       prism
_cell_formula_units_Z            1
loop_
_atom_site_label
_atom_site_type_symbol
_atom_site_fract_x
_atom_site_fract_y
_atom_site_fract_z
Na1 Na 0.9529(2) 0.8060(2) 0.46061(12)
S1 S 0.55329(16) 0.91677(15) 0.34804(8)
Cl1 Cl 1.02875(15) 1.27203(14) -0.25219(8)
O1 O 0.9492(4) 0.5459(4) -0.0875(2)
H1 H 0.934(6) 0.443(3) -0.099(3)
O2 O 0.4874(4) 0.5163(4) -0.3219(2)
H2 H 0.504(6) 0.421(3) -0.330(3)
O3 O 0.4056(4) 0.7718(3) 0.32366(19)
O4 O 0.7162(4) 0.8814(4) 0.3889(2)
O5 O 0.4936(4) 1.0469(4) 0.40039(19)
N1 N 0.7584(5) 0.7287(4) -0.1875(2)
N2 N 0.7670(5) 0.9391(4) -0.0807(2)
N3 N 0.8817(5) 0.9841(4) -0.2196(2)
N4 N 0.8923(5) 1.2084(4) -0.1092(2)
N5 N 0.7900(5) 1.1689(5) 0.0233(3)
H3 H 0.851(5) 1.272(5) 0.029(3)
C1 C 0.7906(5) 0.5903(5) -0.0571(3)
H4 H 0.8270 0.6892 -0.0142
H5 H 0.7234 0.5042 -0.0271
C2 C 0.6672(6) 0.6188(5) -0.1302(3)
H6 H 0.6108 0.5145 -0.1660
H7 H 0.5682 0.6632 -0.1048
C3 C 0.8018(6) 0.6556(5) -0.2719(3)
H8 H 0.8331 0.5519 -0.2650
H9 H 0.9100 0.7264 -0.2901
C4 C 0.6466(6) 0.6270(5) -0.3431(3)
H10 H 0.6151 0.7303 -0.3507
H11 H 0.6862 0.5828 -0.3989
C5 C 0.8033(6) 0.8880(6) -0.1625(3)
C6 C 0.9213(6) 1.1378(5) -0.1863(3)
C7 C 0.8149(6) 1.0990(6) -0.0576(3)
C8 C 0.7265(6) 1.0979(5) 0.0957(3)
C9 C 0.7404(6) 1.2041(5) 0.1720(3)
H12 H 0.7876 1.3154 0.1720
C10 C 0.6857(6) 1.1488(5) 0.2486(3)
H13 H 0.6997 1.2221 0.3010
C11 C 0.6109(6) 0.9878(5) 0.2493(3)
C12 C 0.5925(6) 0.8800(6) 0.1722(3)
H14 H 0.5421 0.7691 0.1720
C13 C 0.6486(5) 0.9361(5) 0.0955(3)
H15 H 0.6335 0.8634 0.0428
O6 O 1.1240(4) 1.0471(3) 0.41494(19)
H16 H 1.2558 1.0514 0.4142
H17 H 1.0732 1.0718 0.3594
O7 O 0.8355(4) 0.5359(4) 0.4260(2)
H18 H 0.825(6) 0.466(5) 0.462(2)
H19 H 0.747(5) 0.518(5) 0.390(2)
O8 O 1.2365(4) 0.7394(4) 0.4857(2)
H20 H 1.297(5) 0.813(4) 0.518(2)
H21 H 1.267(5) 0.717(5) 0.4365(17)
Na1A Na 1.0471(2) 1.1940(2) 0.53939(12)
S1A S 1.44671(16) 1.08323(15) 0.65196(8)
Cl1A Cl 0.97125(15) 0.72797(14) 1.25219(8)
O1A O 1.0508(4) 1.4541(4) 1.0875(2)
H1A H 1.066(6) 1.557(3) 1.099(3)
O2A O 1.5126(4) 1.4837(4) 1.3219(2)
H2A H 1.496(6) 1.579(3) 1.330(3)
O3A O 1.5944(4) 1.2282(3) 0.67634(19)
O4A O 1.2838(4) 1.1186(4) 0.6111(2)
O5A O 1.5064(4) 0.9531(4) 0.59961(19)
N1A N 1.2416(5) 1.2713(4) 1.1875(2)
N2A N 1.2330(5) 1.0609(4) 1.0807(2)
N3A N 1.1183(5) 1.0159(4) 1.2196(2)
N4A N 1.1077(5) 0.7916(4) 1.1092(2)
N5A N 1.2100(5) 0.8311(5) 0.9767(3)
H3A H 1.149(5) 0.728(5) 0.971(3)
C1A C 1.2094(5) 1.4097(5) 1.0571(3)
H4A H 1.1730 1.3108 1.0142
H5A H 1.2766 1.4958 1.0271
C2A C 1.3328(6) 1.3812(5) 1.1302(3)
H6A H 1.3892 1.4855 1.1660
H7A H 1.4318 1.3368 1.1048
C3A C 1.1982(6) 1.3444(5) 1.2719(3)
H8A H 1.1669 1.4481 1.2650
H9A H 1.0900 1.2736 1.2901
C4A C 1.3534(6) 1.3730(5) 1.3431(3)
H10A H 1.3849 1.2697 1.3507
H11A H 1.3138 1.4172 1.3989
C5A C 1.1967(6) 1.1120(6) 1.1625(3)
C6A C 1.0787(6) 0.8622(5) 1.1863(3)
C7A C 1.1851(6) 0.9010(6) 1.0576(3)
C8A C 1.2735(6) 0.9021(5) 0.9043(3)
C9A C 1.2596(6) 0.7959(5) 0.8280(3)
H12A H 1.2124 0.6846 0.8280
C10A C 1.3143(6) 0.8512(5) 0.7514(3)
H13A H 1.3003 0.7779 0.6990
C11A C 1.3891(6) 1.0122(5) 0.7507(3)
C12A C 1.4075(6) 1.1200(6) 0.8278(3)
H14A H 1.4579 1.2309 0.8280
C13A C 1.3514(5) 1.0639(5) 0.9045(3)
H15A H 1.3665 1.1366 0.9572
O6A O 0.8760(4) 0.9529(3) 0.58506(19)
H16A H 0.7442 0.9486 0.5858
H17A H 0.9268 0.9282 0.6406
O7A O 1.1645(4) 1.4641(4) 0.5740(2)
H18A H 1.175(6) 1.534(5) 0.538(2)
H19A H 1.253(5) 1.482(5) 0.610(2)
O8A O 0.7635(4) 1.2606(4) 0.5143(2)
H20A H 0.703(5) 1.187(4) 0.482(2)
H21A H 0.733(5) 1.283(5) 0.5635(17)
loop_
_geom_bond_atom_site_label_1
_geom_bond_atom_site_label_2
_geom_bond_site_symmetry_1
_geom_bond_site_symmetry_2
Na1 O4 1_555 1_555
S1 O3 1_555 1_555
Cl1 C6 1_555 1_555
O1 H1 1_555 1_555
O2 H2 1_555 1_555
O4 S1 1_555 1_555
O5 S1 1_555 1_555
N1 C2 1_555 1_555
N2 C5 1_555 1_555
N3 C5 1_555 1_555
N4 C6 1_555 1_555
N5 H3 1_555 1_555
C1 O1 1_555 1_555
H4 C1 1_555 1_555
H5 C1 1_555 1_555
C2 C1 1_555 1_555
H6 C2 1_555 1_555
H7 C2 1_555 1_555
C3 N1 1_555 1_555
H8 C3 1_555 1_555
H9 C3 1_555 1_555
C4 O2 1_555 1_555
H10 C4 1_555 1_555
H11 C4 1_555 1_555
C5 N1 1_555 1_555
C6 N3 1_555 1_555
C7 N2 1_555 1_555
C8 N5 1_555 1_555
C9 C8 1_555 1_555
H12 C9 1_555 1_555
C10 C9 1_555 1_555
H13 C10 1_555 1_555
C11 S1 1_555 1_555
C12 C11 1_555 1_555
H14 C12 1_555 1_555
C13 C8 1_555 1_555
H15 C13 1_555 1_555
O6 Na1 1_555 1_555
H16 O6 1_555 1_555
H17 O6 1_555 1_555
O7 Na1 1_555 1_555
H18 O7 1_555 1_555
H19 O7 1_555 1_555
O8 Na1 1_555 1_555
H20 O8 1_555 1_555
H21 O8 1_555 1_555
Na1A O6 1_555 1_555
S1A O3A 1_555 1_555
Cl1A C6A 1_555 1_555
O1A H1A 1_555 1_555
O2A H2A 1_555 1_555
O4A Na1A 1_555 1_555
O5A S1A 1_555 1_555
N1A C2A 1_555 1_555
N2A C5A 1_555 1_555
N3A C5A 1_555 1_555
N4A C6A 1_555 1_555
N5A H3A 1_555 1_555
C1A O1A 1_555 1_555
H4A C1A 1_555 1_555
H5A C1A 1_555 1_555
C2A C1A 1_555 1_555
H6A C2A 1_555 1_555
H7A C2A 1_555 1_555
C3A N1A 1_555 1_555
H8A C3A 1_555 1_555
H9A C3A 1_555 1_555
C4A O2A 1_555 1_555
H10A C4A 1_555 1_555
H11A C4A 1_555 1_555
C5A N1A 1_555 1_555
C6A N3A 1_555 1_555
C7A N2A 1_555 1_555
C8A N5A 1_555 1_555
C9A C8A 1_555 1_555
H12A C9A 1_555 1_555
C10A C9A 1_555 1_555
H13A C10A 1_555 1_555
C11A S1A 1_555 1_555
C12A C11A 1_555 1_555
H14A C12A 1_555 1_555
C13A C8A 1_555 1_555
H15A C13A 1_555 1_555
O6A Na1 1_555 1_555
H16A O6A 1_555 1_555
H17A O6A 1_555 1_555
O7A Na1A 1_555 1_555
H18A O7A 1_555 1_555
H19A O7A 1_555 1_555
O8A Na1A 1_555 1_555
H20A O8A 1_555 1_555
H21A O8A 1_555 1_555
N4 C7 1_555 1_555
N5 C7 1_555 1_555
C3 C4 1_555 1_555
C10 C11 1_555 1_555
C12 C13 1_555 1_555
Na1A O6A 1_555 1_555
S1A O4A 1_555 1_555
N4A C7A 1_555 1_555
N5A C7A 1_555 1_555
C3A C4A 1_555 1_555
C10A C11A 1_555 1_555
C12A C13A 1_555 1_555

#END
