
#######################################################################
#
#                 Cambridge Crystallographic Data Centre
#                                CCDC 
#
#######################################################################
#
# If this CIF has been generated from an entry in the Cambridge 
# Structural Database, then it will include bibliographic, chemical, 
# crystal, experimental, refinement or atomic coordinate data resulting 
# from the CCDC's data processing and validation procedures.
#
#######################################################################

data_ACUHIS
_chemical_formula_moiety         'C44 H50 N4 O2 Si2,0.5(C1 H4 O1)'
_chemical_name_systematic        
'6,15-bis{[tris(propan-2-yl)silyl]ethynyl}benzo[b]quinoxalino[2,3-i]phenazine-8,13-dione methanol solvate'
_symmetry_cell_setting           triclinic
_symmetry_space_group_name_H-M   'P -1'
_symmetry_Int_Tables_number      2
_space_group_name_Hall           '-P 1'
loop_
_symmetry_equiv_pos_site_id
_symmetry_equiv_pos_as_xyz
1 x,y,z
2 -x,-y,-z
_cell_length_a                   21.5519(19)
_cell_length_b                   21.7004(18)
_cell_length_c                   22.1556(19)
_cell_angle_alpha                63.925(2)
_cell_angle_beta                 85.605(2)
_cell_angle_gamma                63.452(2)
_cell_volume                     8232.76
_exptl_crystal_colour            'dark green'
_exptl_crystal_description       prism
_cell_formula_units_Z            8
loop_
_atom_site_label
_atom_site_type_symbol
_atom_site_fract_x
_atom_site_fract_y
_atom_site_fract_z
C1 C -0.0130(2) 0.6101(3) 0.3935(2)
H1 H -0.0327 0.6468 0.4108
C2 C -0.0310(2) 0.5522(3) 0.4137(2)
H2 H -0.0630 0.5484 0.4454
C3 C -0.0023(2) 0.4966(3) 0.3878(2)
H3 H -0.0158 0.4568 0.4023
C4 C 0.0438(2) 0.5002(3) 0.3430(2)
H4 H 0.0623 0.4628 0.3264
C5 C 0.0649(2) 0.5595(2) 0.3203(2)
C6 C 0.1285(2) 0.6195(2) 0.2566(2)
C7 C 0.1764(2) 0.6246(2) 0.2089(2)
C8 C 0.1950(2) 0.6845(2) 0.1887(2)
C9 C 0.2572(2) 0.7462(2) 0.1248(2)
C10 C 0.3053(2) 0.7536(3) 0.0720(2)
C11 C 0.3251(2) 0.8171(2) 0.0526(2)
C12 C 0.3705(2) 0.8243(3) 0.0052(2)
H5 H 0.3898 0.7882 -0.0127
C13 C 0.3878(2) 0.8846(3) -0.0162(2)
H6 H 0.4185 0.8900 -0.0492
C14 C 0.3604(2) 0.9364(3) 0.0105(2)
H7 H 0.3729 0.9770 -0.0038
C15 C 0.3153(2) 0.9301(3) 0.0576(2)
H8 H 0.2963 0.9666 0.0751
C16 C 0.2972(2) 0.8700(2) 0.0796(2)
C17 C 0.2502(2) 0.8636(2) 0.1324(2)
C18 C 0.2289(2) 0.8002(2) 0.1524(2)
C19 C 0.1650(2) 0.7408(2) 0.2143(2)
C20 C 0.1147(2) 0.7388(2) 0.2583(2)
C21 C 0.0976(2) 0.6763(2) 0.2817(2)
C22 C 0.0355(2) 0.6159(2) 0.3461(2)
C23 C 0.2021(2) 0.5726(3) 0.1793(2)
C24 C 0.2214(3) 0.5315(3) 0.1520(2)
C25 C 0.1596(3) 0.4918(3) 0.0670(3)
H9 H 0.1712 0.4566 0.0456
C26 C 0.1126(3) 0.4735(3) 0.1198(3)
H10 H 0.1031 0.5044 0.1442
H11 H 0.1362 0.4184 0.1521
H12 H 0.0683 0.4861 0.0971
C27 C 0.1196(3) 0.5748(3) 0.0109(3)
H13 H 0.0733 0.5841 -0.0042
H14 H 0.1460 0.5824 -0.0276
H15 H 0.1140 0.6110 0.0284
C28 C 0.2962(4) 0.5038(4) 0.0388(3)
H16 H 0.2596 0.5571 0.0078
C29 C 0.3479(6) 0.5195(8) 0.0536(5)
H17 H 0.3882 0.4708 0.0835
H18 H 0.3289 0.5525 0.0764
H19 H 0.3630 0.5460 0.0114
C30 C 0.3127(4) 0.4651(4) -0.0074(3)
H20 H 0.3318 0.4913 -0.0463
H21 H 0.2697 0.4684 -0.0235
H22 H 0.3473 0.4107 0.0179
C31 C 0.2892(3) 0.3678(3) 0.1755(3)
H23 H 0.2554 0.3620 0.2085
C32 C 0.3559(4) 0.3460(4) 0.2165(4)
H24 H 0.3729 0.2936 0.2539
H25 H 0.3457 0.3825 0.2350
H26 H 0.3920 0.3479 0.1870
C33 C 0.3035(3) 0.3090(3) 0.1485(3)
H27 H 0.3351 0.3137 0.1144
H28 H 0.2591 0.3193 0.1277
H29 H 0.3253 0.2565 0.1861
C34 C 0.0796(2) 0.7992(2) 0.2772(2)
C35 C 0.0485(2) 0.8546(3) 0.2879(2)
C36 C 0.0540(3) 0.9995(3) 0.2555(3)
H30 H 0.0364 1.0445 0.2658
C37 C 0.1319(3) 0.9493(3) 0.2835(3)
H31 H 0.1506 0.9057 0.2727
H32 H 0.1384 0.9298 0.3329
H33 H 0.1568 0.9802 0.2628
C38 C 0.0447(3) 1.0310(4) 0.1779(3)
H34 H 0.0735 1.0574 0.1587
H35 H -0.0047 1.0676 0.1590
H36 H 0.0593 0.9880 0.1666
C39 C 0.0107(3) 0.9118(3) 0.3923(3)
H37 H 0.0622 0.8797 0.4095
C40 C -0.0124(5) 0.9778(4) 0.4103(4)
H38 H -0.0634 1.0093 0.3984
H39 H 0.0103 1.0100 0.3850
H40 H 0.0010 0.9570 0.4592
C41 C -0.0219(3) 0.8588(3) 0.4317(3)
H41 H -0.0083 0.8376 0.4806
H42 H -0.0054 0.8164 0.4194
H43 H -0.0731 0.8884 0.4205
C42 C -0.0883(2) 0.9983(3) 0.2493(3)
H44 H -0.0826 1.0018 0.2028
C43 C -0.1266(3) 1.0815(3) 0.2395(3)
H45 H -0.1704 1.1098 0.2081
H46 H -0.0968 1.1068 0.2207
H47 H -0.1371 1.0813 0.2834
C44 C -0.1332(3) 0.9575(3) 0.2784(3)
H48 H -0.1447 0.9578 0.3220
H49 H -0.1073 0.9040 0.2854
H50 H -0.1765 0.9844 0.2467
N1 N 0.11085(19) 0.5616(2) 0.27630(18)
N2 N 0.24025(18) 0.6900(2) 0.14234(17)
N3 N 0.18344(18) 0.7989(2) 0.19434(17)
N4 N 0.05162(18) 0.6740(2) 0.32555(18)
O1 O 0.32513(18) 0.71111(19) 0.04558(17)
O2 O 0.23009(17) 0.90596(18) 0.15908(16)
Si1 Si 0.24465(7) 0.47089(8) 0.10778(7)
Si2 Si 0.00318(7) 0.94427(7) 0.29771(7)
C45 C 0.4825(2) 0.9631(3) 0.1368(2)
H51 H 0.4661 1.0034 0.1498
C46 C 0.5293(3) 0.9591(3) 0.0931(2)
H52 H 0.5453 0.9972 0.0755
C47 C 0.5555(2) 0.8997(3) 0.0724(2)
H53 H 0.5887 0.8986 0.0416
C48 C 0.5336(2) 0.8448(3) 0.0961(2)
H54 H 0.5515 0.8052 0.0820
C49 C 0.4835(2) 0.8465(2) 0.1423(2)
C50 C 0.4158(2) 0.7961(2) 0.2098(2)
C51 C 0.3926(2) 0.7385(2) 0.2362(2)
C52 C 0.3445(2) 0.7410(2) 0.2825(2)
C53 C 0.2777(2) 0.6896(2) 0.3496(2)
C54 C 0.2495(2) 0.6317(2) 0.3737(2)
C55 C 0.2021(2) 0.6332(3) 0.4259(2)
C56 C 0.1748(2) 0.5808(3) 0.4493(2)
H55 H 0.1872 0.5442 0.4322
C57 C 0.1300(2) 0.5816(3) 0.4969(2)
H56 H 0.1118 0.5454 0.5126
C58 C 0.1109(3) 0.6347(3) 0.5224(2)
H57 H 0.0791 0.6358 0.5545
C59 C 0.1387(3) 0.6861(3) 0.5008(2)
H58 H 0.1269 0.7213 0.5193
C60 C 0.1834(2) 0.6867(3) 0.4526(2)
C61 C 0.2128(3) 0.7416(3) 0.4320(2)
C62 C 0.2581(2) 0.7442(2) 0.3766(2)
C63 C 0.3208(2) 0.7991(2) 0.3056(2)
C64 C 0.3427(2) 0.8567(2) 0.2798(2)
C65 C 0.3896(2) 0.8561(2) 0.2312(2)
C66 C 0.4574(2) 0.9065(2) 0.1637(2)
C67 C 0.4222(2) 0.6752(3) 0.2201(2)
C68 C 0.4500(2) 0.6182(3) 0.2117(2)
C69 C 0.4907(3) 0.5329(3) 0.1265(2)
H59 H 0.4404 0.5471 0.1164
C70 C 0.5021(3) 0.5991(3) 0.0707(3)
H60 H 0.5520 0.5856 0.0751
H61 H 0.4746 0.6465 0.0753
H62 H 0.4870 0.6073 0.0259
C71 C 0.5335(4) 0.4574(3) 0.1215(3)
H63 H 0.5212 0.4652 0.0761
H64 H 0.5230 0.4170 0.1558
H65 H 0.5836 0.4416 0.1294
C72 C 0.5937(3) 0.4914(3) 0.2507(3)
H66 H 0.5887 0.4975 0.2933
C73 C 0.6269(3) 0.5421(3) 0.2058(3)
H67 H 0.6710 0.5270 0.2307
H68 H 0.5947 0.5965 0.1933
H69 H 0.6362 0.5354 0.1645
C74 C 0.6442(3) 0.4058(3) 0.2726(3)
H70 H 0.6550 0.3975 0.2322
H71 H 0.6222 0.3741 0.3011
H72 H 0.6876 0.3912 0.2984
C75 C 0.4654(3) 0.4583(3) 0.2750(2)
H73 H 0.4896 0.4070 0.2746
C76 C 0.4764(3) 0.4449(4) 0.3478(3)
H74 H 0.4524 0.4945 0.3494
H75 H 0.5267 0.4211 0.3634
H76 H 0.4573 0.4105 0.3774
C77 C 0.3864(3) 0.4932(4) 0.2524(3)
H77 H 0.3685 0.4584 0.2838
H78 H 0.3788 0.4999 0.2064
H79 H 0.3617 0.5435 0.2527
C78 C 0.3193(2) 0.9147(2) 0.3026(2)
C79 C 0.2997(2) 0.9638(3) 0.3212(2)
C80 C 0.3585(3) 1.0439(3) 0.3616(3)
H80 H 0.3456 1.0888 0.3710
C81 C 0.4088(3) 0.9714(3) 0.4228(3)
H81 H 0.4233 0.9264 0.4145
H82 H 0.3853 0.9646 0.4632
H83 H 0.4501 0.9766 0.4300
C82 C 0.3934(3) 1.0580(4) 0.2970(3)
H84 H 0.4353 1.0622 0.3044
H85 H 0.3603 1.1061 0.2590
H86 H 0.4068 1.0148 0.2864
C83 C 0.2150(3) 1.1342(3) 0.2713(3)
H87 H 0.2401 1.1350 0.2312
C84 C 0.2027(3) 1.2072(3) 0.2765(3)
H88 H 0.1775 1.2530 0.2333
H89 H 0.2480 1.2036 0.2867
H90 H 0.1749 1.2113 0.3129
C85 C 0.1452(3) 1.1382(3) 0.2549(3)
H91 H 0.1191 1.1360 0.2934
H92 H 0.1542 1.0944 0.2464
H93 H 0.1175 1.1867 0.2144
C86 C 0.2343(3) 1.0143(3) 0.4267(3)
H94 H 0.2747 0.9720 0.4634
C87 C 0.1999(4) 1.0799(4) 0.4476(3)
H95 H 0.1574 1.1218 0.4153
H96 H 0.2328 1.0997 0.4474
H97 H 0.1875 1.0600 0.4933
C88 C 0.1852(3) 0.9806(4) 0.4290(3)
H98 H 0.1701 0.9651 0.4738
H99 H 0.2097 0.9353 0.4206
H100 H 0.1441 1.0196 0.3940
N5 N 0.46212(18) 0.7923(2) 0.16610(17)
N6 N 0.32066(18) 0.68695(19) 0.30542(17)
N7 N 0.27953(19) 0.7970(2) 0.35518(18)
N8 N 0.41143(19) 0.9110(2) 0.20708(18)
O3 O 0.26469(16) 0.58666(17) 0.34987(15)
O4 O 0.2012(2) 0.7840(2) 0.45769(18)
Si3 Si 0.50251(7) 0.52214(7) 0.21431(6)
Si4 Si 0.27384(7) 1.04136(7) 0.34671(7)
C89 C 0.8453(3) 1.0819(3) 0.0511(2)
H101 H 0.8317 1.1155 0.0715
C90 C 0.8875(3) 1.0880(3) 0.0029(2)
H102 H 0.9036 1.1256 -0.0099
C91 C 0.9086(3) 1.0383(3) -0.0294(2)
H103 H 0.9382 1.0439 -0.0633
C92 C 0.8871(2) 0.9841(3) -0.0123(2)
H104 H 0.9013 0.9518 -0.0342
C93 C 0.8427(2) 0.9753(2) 0.0390(2)
C94 C 0.7789(2) 0.9165(2) 0.1035(2)
C95 C 0.7553(2) 0.8597(2) 0.1213(2)
C96 C 0.7117(2) 0.8529(2) 0.1717(2)
C97 C 0.6495(2) 0.7922(2) 0.2361(2)
C98 C 0.6270(2) 0.7302(3) 0.2557(2)
C99 C 0.5764(2) 0.7271(3) 0.3050(2)
C100 C 0.5527(2) 0.6722(3) 0.3223(2)
H105 H 0.5682 0.6384 0.3019
C101 C 0.5067(2) 0.6668(3) 0.3689(2)
H106 H 0.4916 0.6284 0.3814
C102 C 0.4826(3) 0.7172(3) 0.3975(2)
H107 H 0.4505 0.7137 0.4291
C103 C 0.5050(3) 0.7723(3) 0.3803(2)
H108 H 0.4882 0.8068 0.4001
C104 C 0.5519(2) 0.7777(3) 0.3343(2)
C105 C 0.5742(2) 0.8394(3) 0.3165(2)
C106 C 0.6246(2) 0.8444(3) 0.2658(2)
C107 C 0.6884(2) 0.9036(2) 0.2028(2)
C108 C 0.7104(2) 0.9611(2) 0.1839(2)
C109 C 0.7569(2) 0.9666(2) 0.1350(2)
C110 C 0.8209(2) 1.0253(3) 0.0716(2)
C111 C 0.7735(2) 0.8131(2) 0.0872(2)
C112 C 0.7864(2) 0.7755(3) 0.0567(2)
C113 C 0.8905(3) 0.6982(3) -0.0176(3)
H109 H 0.9208 0.6562 0.0267
C114 C 0.9145(3) 0.7611(3) -0.0429(3)
H110 H 0.9651 0.7379 -0.0441
H111 H 0.9042 0.7847 -0.0120
H112 H 0.8896 0.8008 -0.0886
C115 C 0.9043(3) 0.6623(4) -0.0666(3)
H113 H 0.8772 0.7023 -0.1115
H114 H 0.8900 0.6213 -0.0493
H115 H 0.9544 0.6405 -0.0703
C116 C 0.7325(3) 0.8102(3) -0.0804(3)
H116 H 0.7490 0.7949 -0.1175
C117 C 0.6570(3) 0.8203(4) -0.0759(4)
H117 H 0.6364 0.8424 -0.0446
H118 H 0.6579 0.7699 -0.0590
H119 H 0.6287 0.8551 -0.1210
C118 C 0.7290(4) 0.8896(3) -0.1038(3)
H120 H 0.6993 0.9259 -0.1481
H121 H 0.7763 0.8850 -0.1076
H122 H 0.7091 0.9088 -0.0706
C119 C 0.7752(3) 0.6480(3) 0.0422(2)
H123 H 0.7585 0.6415 0.0055
C120 C 0.8390(3) 0.5703(3) 0.0874(3)
H124 H 0.8569 0.5748 0.1239
H125 H 0.8758 0.5575 0.0598
H126 H 0.8246 0.5294 0.1073
C121 C 0.7161(4) 0.6634(4) 0.0847(4)
H127 H 0.7046 0.6202 0.1032
H128 H 0.6745 0.7113 0.0561
H129 H 0.7312 0.6685 0.1221
C122 C 0.6828(2) 1.0157(3) 0.2110(2)
C123 C 0.6584(2) 1.0634(3) 0.2310(2)
C124 C 0.5757(3) 1.2341(3) 0.1732(3)
H130 H 0.5509 1.2784 0.1843
C125 C 0.6327(4) 1.2468(4) 0.1299(3)
H131 H 0.6592 1.2028 0.1201
H132 H 0.6646 1.2514 0.1550
H133 H 0.6103 1.2944 0.0871
C126 C 0.5211(3) 1.2334(4) 0.1328(3)
H134 H 0.4993 1.2826 0.0913
H135 H 0.4850 1.2264 0.1607
H136 H 0.5443 1.1909 0.1207
C127 C 0.6909(3) 1.1414(3) 0.2982(3)
H137 H 0.7287 1.1357 0.2688
C128 C 0.6711(4) 1.2178(4) 0.3008(3)
H138 H 0.6330 1.2276 0.3278
H139 H 0.6558 1.2605 0.2545
H140 H 0.7120 1.2140 0.3216
C129 C 0.7246(3) 1.0726(4) 0.3682(3)
H141 H 0.7667 1.0713 0.3837
H142 H 0.7375 1.0246 0.3655
H143 H 0.6911 1.0776 0.4005
C130 C 0.5498(3) 1.1277(3) 0.3105(3)
H144 H 0.5091 1.1424 0.2791
C131 C 0.5220(3) 1.1828(4) 0.3432(3)
H145 H 0.4815 1.1795 0.3650
H146 H 0.5078 1.2359 0.3081
H147 H 0.5590 1.1679 0.3773
C132 C 0.5727(3) 1.0438(4) 0.3635(3)
H148 H 0.6143 1.0256 0.3940
H149 H 0.5837 1.0113 0.3406
H150 H 0.5346 1.0408 0.3899
N9 N 0.82101(19) 0.9218(2) 0.05504(18)
N10 N 0.69093(18) 0.7967(2) 0.19031(17)
N11 N 0.64377(19) 0.8989(2) 0.24978(18)
N12 N 0.77835(19) 1.0211(2) 0.11802(18)
O5 O 0.65055(16) 0.68445(18) 0.23211(16)
O6 O 0.55254(19) 0.8836(2) 0.34132(17)
Si5 Si 0.79696(7) 0.73134(7) -0.00055(6)
Si6 Si 0.61803(8) 1.14231(8) 0.25590(7)
C133 C 0.6158(2) 0.5132(3) 0.5096(2)
H151 H 0.6040 0.5446 0.5321
C134 C 0.5903(2) 0.4619(3) 0.5258(2)
H152 H 0.5605 0.4578 0.5597
C135 C 0.6076(3) 0.4140(3) 0.4927(2)
H153 H 0.5887 0.3788 0.5049
C136 C 0.6503(2) 0.4176(3) 0.4443(2)
H154 H 0.6614 0.3849 0.4232
C137 C 0.6788(2) 0.4710(2) 0.4251(2)
C138 C 0.7463(2) 0.5254(2) 0.3618(2)
C139 C 0.7937(2) 0.5275(2) 0.3145(2)
C140 C 0.8178(2) 0.5832(2) 0.2949(2)
C141 C 0.8845(2) 0.6389(2) 0.2317(2)
C142 C 0.9360(2) 0.6407(3) 0.1819(2)
C143 C 0.9584(2) 0.7022(3) 0.1614(2)
C144 C 1.0056(2) 0.7055(3) 0.1152(2)
H155 H 1.0223 0.6693 0.0972
C145 C 1.0286(2) 0.7609(3) 0.0950(2)
H156 H 1.0608 0.7630 0.0633
C146 C 1.0042(3) 0.8132(3) 0.1215(2)
H157 H 1.0195 0.8517 0.1073
C147 C 0.9582(2) 0.8106(3) 0.1682(2)
H158 H 0.9427 0.8464 0.1864
C148 C 0.9342(2) 0.7550(2) 0.1886(2)
C149 C 0.8843(2) 0.7540(2) 0.2387(2)
C150 C 0.8606(2) 0.6920(2) 0.2605(2)
C151 C 0.7968(2) 0.6350(2) 0.3252(2)
C152 C 0.7532(2) 0.6290(2) 0.3761(2)
C153 C 0.7269(2) 0.5746(2) 0.3940(2)
C154 C 0.6608(2) 0.5199(2) 0.4582(2)
C155 C 0.8230(2) 0.4688(2) 0.2919(2)
C156 C 0.8519(2) 0.4147(3) 0.2802(2)
C157 C 0.9129(3) 0.2430(3) 0.3556(3)
H159 H 0.9253 0.2506 0.3936
C158 C 0.8414(4) 0.2452(5) 0.3649(3)
H160 H 0.8252 0.2403 0.3278
H161 H 0.8079 0.2944 0.3643
H162 H 0.8451 0.2023 0.4085
C159 C 0.9696(5) 0.1643(4) 0.3663(4)
H163 H 0.9702 0.1249 0.4110
H164 H 1.0153 0.1642 0.3640
H165 H 0.9601 0.1529 0.3309
C160 C 1.0019(3) 0.3219(3) 0.2771(3)
H166 H 1.0368 0.2741 0.2742
C161 C 1.0036(3) 0.3917(4) 0.2160(3)
H167 H 0.9694 0.4395 0.2172
H168 H 0.9920 0.3925 0.1737
H169 H 1.0507 0.3875 0.2182
C162 C 1.0250(3) 0.3175(3) 0.3432(3)
H170 H 1.0713 0.3156 0.3421
H171 H 1.0274 0.2708 0.3819
H172 H 0.9911 0.3632 0.3478
C163 C 0.8861(3) 0.3327(3) 0.1924(2)
H173 H 0.8892 0.3787 0.1558
C164 C 0.8103(3) 0.3494(4) 0.1825(3)
H174 H 0.7966 0.3628 0.1355
H175 H 0.7800 0.3927 0.1921
H176 H 0.8053 0.3034 0.2135
C165 C 0.9351(3) 0.2644(3) 0.1795(3)
H177 H 0.9304 0.2184 0.2109
H178 H 0.9837 0.2546 0.1866
H179 H 0.9229 0.2763 0.1326
C166 C 0.7389(2) 0.6731(2) 0.4124(2)
C167 C 0.7306(2) 0.7054(3) 0.4466(2)
C168 C 0.6364(3) 0.8153(3) 0.4993(3)
H180 H 0.6219 0.8535 0.4501
C169 C 0.5852(3) 0.7803(3) 0.5177(3)
H181 H 0.5925 0.7487 0.5670
H182 H 0.5936 0.7479 0.4951
H183 H 0.5369 0.8220 0.5027
C170 C 0.6286(3) 0.8613(3) 0.5383(3)
H184 H 0.5796 0.9004 0.5299
H185 H 0.6586 0.8867 0.5229
H186 H 0.6426 0.8261 0.5871
C171 C 0.7673(3) 0.6512(3) 0.5926(3)
H187 H 0.8153 0.6180 0.5867
C172 C 0.7284(3) 0.6018(3) 0.6124(3)
H188 H 0.7570 0.5512 0.6507
H189 H 0.7202 0.5947 0.5735
H190 H 0.6834 0.6281 0.6256
C173 C 0.7788(4) 0.6663(4) 0.6512(3)
H191 H 0.7333 0.6990 0.6595
H192 H 0.8081 0.6926 0.6393
H193 H 0.8021 0.6170 0.6924
C174 C 0.7904(3) 0.7860(4) 0.4816(3)
H194 H 0.7896 0.8089 0.5123
C175 C 0.7652(4) 0.8513(4) 0.4092(5)
H195 H 0.7962 0.8757 0.3972
H196 H 0.7172 0.8898 0.4061
H197 H 0.7660 0.8304 0.3778
C176 C 0.8660(3) 0.7268(4) 0.4881(4)
H198 H 0.8680 0.7017 0.4600
H199 H 0.8830 0.6878 0.5357
H200 H 0.8955 0.7529 0.4729
N13 N 0.72128(19) 0.4733(2) 0.37828(18)
N14 N 0.86355(18) 0.5857(2) 0.24868(18)
N15 N 0.81898(17) 0.69003(19) 0.30581(17)
N16 N 0.68541(18) 0.5706(2) 0.44288(17)
O7 O 0.95829(18) 0.59348(19) 0.16030(17)
O8 O 0.86217(17) 0.80026(17) 0.26140(16)
Si7 Si 0.91325(7) 0.32514(7) 0.27505(6)
Si8 Si 0.72915(7) 0.74196(8) 0.50781(7)
C177 C 0.3438(6) 0.7809(5) 0.5344(5)
H201 H 0.3677 0.7344 0.5776
H202 H 0.2936 0.8067 0.5368
H203 H 0.3638 0.8161 0.5257
O9 O 0.3519(2) 0.7616(3) 0.4856(3)
H204 H 0.3145 0.7886 0.4581
O10 O 0.1727(3) 0.7311(3) 1.0085(2)
H205 H 0.2076 0.7024 1.0393
C178 C 0.1958(5) 0.7385(4) 0.9441(3)
H206 H 0.1561 0.7775 0.9075
H207 H 0.2140 0.6887 0.9433
H208 H 0.2328 0.7543 0.9377
loop_
_geom_bond_atom_site_label_1
_geom_bond_atom_site_label_2
_geom_bond_site_symmetry_1
_geom_bond_site_symmetry_2
C1 H1 1_555 1_555
C2 C1 1_555 1_555
H2 C2 1_555 1_555
C3 C2 1_555 1_555
H3 C3 1_555 1_555
C4 C3 1_555 1_555
H4 C4 1_555 1_555
C5 C4 1_555 1_555
C6 C7 1_555 1_555
C7 C8 1_555 1_555
C8 C19 1_555 1_555
C9 C10 1_555 1_555
C10 C11 1_555 1_555
C11 C12 1_555 1_555
C12 H5 1_555 1_555
C13 C12 1_555 1_555
H6 C13 1_555 1_555
C14 C13 1_555 1_555
H7 C14 1_555 1_555
C15 C14 1_555 1_555
H8 C15 1_555 1_555
C16 C11 1_555 1_555
C17 C16 1_555 1_555
C18 C9 1_555 1_555
C19 C20 1_555 1_555
C20 C21 1_555 1_555
C21 C6 1_555 1_555
C22 C1 1_555 1_555
C23 C7 1_555 1_555
C24 C23 1_555 1_555
C25 H9 1_555 1_555
C26 C25 1_555 1_555
H10 C26 1_555 1_555
H11 C26 1_555 1_555
H12 C26 1_555 1_555
C27 C25 1_555 1_555
H13 C27 1_555 1_555
H14 C27 1_555 1_555
H15 C27 1_555 1_555
C28 H16 1_555 1_555
C29 C28 1_555 1_555
H17 C29 1_555 1_555
H18 C29 1_555 1_555
H19 C29 1_555 1_555
C30 C28 1_555 1_555
H20 C30 1_555 1_555
H21 C30 1_555 1_555
H22 C30 1_555 1_555
C31 H23 1_555 1_555
C32 C31 1_555 1_555
H24 C32 1_555 1_555
H25 C32 1_555 1_555
H26 C32 1_555 1_555
C33 C31 1_555 1_555
H27 C33 1_555 1_555
H28 C33 1_555 1_555
H29 C33 1_555 1_555
C34 C20 1_555 1_555
C35 C34 1_555 1_555
C36 H30 1_555 1_555
C37 C36 1_555 1_555
H31 C37 1_555 1_555
H32 C37 1_555 1_555
H33 C37 1_555 1_555
C38 C36 1_555 1_555
H34 C38 1_555 1_555
H35 C38 1_555 1_555
H36 C38 1_555 1_555
C39 H37 1_555 1_555
C40 C39 1_555 1_555
H38 C40 1_555 1_555
H39 C40 1_555 1_555
H40 C40 1_555 1_555
C41 C39 1_555 1_555
H41 C41 1_555 1_555
H42 C41 1_555 1_555
H43 C41 1_555 1_555
C42 H44 1_555 1_555
C43 C42 1_555 1_555
H45 C43 1_555 1_555
H46 C43 1_555 1_555
H47 C43 1_555 1_555
C44 C42 1_555 1_555
H48 C44 1_555 1_555
H49 C44 1_555 1_555
H50 C44 1_555 1_555
N1 C5 1_555 1_555
N2 C8 1_555 1_555
N3 C18 1_555 1_555
N4 C21 1_555 1_555
O1 C10 1_555 1_555
O2 C17 1_555 1_555
Si1 C24 1_555 1_555
Si2 C35 1_555 1_555
C45 H51 1_555 1_555
C46 C45 1_555 1_555
H52 C46 1_555 1_555
C47 C46 1_555 1_555
H53 C47 1_555 1_555
C48 C47 1_555 1_555
H54 C48 1_555 1_555
C49 C48 1_555 1_555
C50 C51 1_555 1_555
C51 C52 1_555 1_555
C52 C63 1_555 1_555
C53 C54 1_555 1_555
C54 C55 1_555 1_555
C55 C56 1_555 1_555
C56 H55 1_555 1_555
C57 C56 1_555 1_555
H56 C57 1_555 1_555
C58 C57 1_555 1_555
H57 C58 1_555 1_555
C59 C58 1_555 1_555
H58 C59 1_555 1_555
C60 C55 1_555 1_555
C61 C60 1_555 1_555
C62 C53 1_555 1_555
C63 C64 1_555 1_555
C64 C65 1_555 1_555
C65 C50 1_555 1_555
C66 C45 1_555 1_555
C67 C51 1_555 1_555
C68 C67 1_555 1_555
C69 H59 1_555 1_555
C70 C69 1_555 1_555
H60 C70 1_555 1_555
H61 C70 1_555 1_555
H62 C70 1_555 1_555
C71 C69 1_555 1_555
H63 C71 1_555 1_555
H64 C71 1_555 1_555
H65 C71 1_555 1_555
C72 H66 1_555 1_555
C73 C72 1_555 1_555
H67 C73 1_555 1_555
H68 C73 1_555 1_555
H69 C73 1_555 1_555
C74 C72 1_555 1_555
H70 C74 1_555 1_555
H71 C74 1_555 1_555
H72 C74 1_555 1_555
C75 H73 1_555 1_555
C76 C75 1_555 1_555
H74 C76 1_555 1_555
H75 C76 1_555 1_555
H76 C76 1_555 1_555
C77 C75 1_555 1_555
H77 C77 1_555 1_555
H78 C77 1_555 1_555
H79 C77 1_555 1_555
C78 C64 1_555 1_555
C79 C78 1_555 1_555
C80 H80 1_555 1_555
C81 C80 1_555 1_555
H81 C81 1_555 1_555
H82 C81 1_555 1_555
H83 C81 1_555 1_555
C82 C80 1_555 1_555
H84 C82 1_555 1_555
H85 C82 1_555 1_555
H86 C82 1_555 1_555
C83 H87 1_555 1_555
C84 C83 1_555 1_555
H88 C84 1_555 1_555
H89 C84 1_555 1_555
H90 C84 1_555 1_555
C85 C83 1_555 1_555
H91 C85 1_555 1_555
H92 C85 1_555 1_555
H93 C85 1_555 1_555
C86 H94 1_555 1_555
C87 C86 1_555 1_555
H95 C87 1_555 1_555
H96 C87 1_555 1_555
H97 C87 1_555 1_555
C88 C86 1_555 1_555
H98 C88 1_555 1_555
H99 C88 1_555 1_555
H100 C88 1_555 1_555
N5 C49 1_555 1_555
N6 C52 1_555 1_555
N7 C62 1_555 1_555
N8 C65 1_555 1_555
O3 C54 1_555 1_555
O4 C61 1_555 1_555
Si3 C68 1_555 1_555
Si4 C79 1_555 1_555
C89 H101 1_555 1_555
C90 C89 1_555 1_555
H102 C90 1_555 1_555
C91 C90 1_555 1_555
H103 C91 1_555 1_555
C92 C91 1_555 1_555
H104 C92 1_555 1_555
C93 C92 1_555 1_555
C94 C95 1_555 1_555
C95 C96 1_555 1_555
C96 C107 1_555 1_555
C97 C98 1_555 1_555
C98 C99 1_555 1_555
C99 C100 1_555 1_555
C100 H105 1_555 1_555
C101 C100 1_555 1_555
H106 C101 1_555 1_555
C102 C101 1_555 1_555
H107 C102 1_555 1_555
C103 C102 1_555 1_555
H108 C103 1_555 1_555
C104 C99 1_555 1_555
C105 C104 1_555 1_555
C106 C97 1_555 1_555
C107 C108 1_555 1_555
C108 C109 1_555 1_555
C109 C94 1_555 1_555
C110 C89 1_555 1_555
C111 C95 1_555 1_555
C112 C111 1_555 1_555
C113 H109 1_555 1_555
C114 C113 1_555 1_555
H110 C114 1_555 1_555
H111 C114 1_555 1_555
H112 C114 1_555 1_555
C115 C113 1_555 1_555
H113 C115 1_555 1_555
H114 C115 1_555 1_555
H115 C115 1_555 1_555
C116 H116 1_555 1_555
C117 C116 1_555 1_555
H117 C117 1_555 1_555
H118 C117 1_555 1_555
H119 C117 1_555 1_555
C118 C116 1_555 1_555
H120 C118 1_555 1_555
H121 C118 1_555 1_555
H122 C118 1_555 1_555
C119 H123 1_555 1_555
C120 C119 1_555 1_555
H124 C120 1_555 1_555
H125 C120 1_555 1_555
H126 C120 1_555 1_555
C121 C119 1_555 1_555
H127 C121 1_555 1_555
H128 C121 1_555 1_555
H129 C121 1_555 1_555
C122 C108 1_555 1_555
C123 C122 1_555 1_555
C124 H130 1_555 1_555
C125 C124 1_555 1_555
H131 C125 1_555 1_555
H132 C125 1_555 1_555
H133 C125 1_555 1_555
C126 C124 1_555 1_555
H134 C126 1_555 1_555
H135 C126 1_555 1_555
H136 C126 1_555 1_555
C127 H137 1_555 1_555
C128 C127 1_555 1_555
H138 C128 1_555 1_555
H139 C128 1_555 1_555
H140 C128 1_555 1_555
C129 C127 1_555 1_555
H141 C129 1_555 1_555
H142 C129 1_555 1_555
H143 C129 1_555 1_555
C130 H144 1_555 1_555
C131 C130 1_555 1_555
H145 C131 1_555 1_555
H146 C131 1_555 1_555
H147 C131 1_555 1_555
C132 C130 1_555 1_555
H148 C132 1_555 1_555
H149 C132 1_555 1_555
H150 C132 1_555 1_555
N9 C93 1_555 1_555
N10 C96 1_555 1_555
N11 C106 1_555 1_555
N12 C109 1_555 1_555
O5 C98 1_555 1_555
O6 C105 1_555 1_555
Si5 C112 1_555 1_555
Si6 C123 1_555 1_555
C133 H151 1_555 1_555
C134 C133 1_555 1_555
H152 C134 1_555 1_555
C135 C134 1_555 1_555
H153 C135 1_555 1_555
C136 C135 1_555 1_555
H154 C136 1_555 1_555
C137 C136 1_555 1_555
C138 C139 1_555 1_555
C139 C140 1_555 1_555
C140 C151 1_555 1_555
C141 C142 1_555 1_555
C142 C143 1_555 1_555
C143 C144 1_555 1_555
C144 H155 1_555 1_555
C145 C144 1_555 1_555
H156 C145 1_555 1_555
C146 C145 1_555 1_555
H157 C146 1_555 1_555
C147 C146 1_555 1_555
H158 C147 1_555 1_555
C148 C143 1_555 1_555
C149 C148 1_555 1_555
C150 C141 1_555 1_555
C151 C152 1_555 1_555
C152 C153 1_555 1_555
C153 C138 1_555 1_555
C154 C133 1_555 1_555
C155 C139 1_555 1_555
C156 C155 1_555 1_555
C157 H159 1_555 1_555
C158 C157 1_555 1_555
H160 C158 1_555 1_555
H161 C158 1_555 1_555
H162 C158 1_555 1_555
C159 C157 1_555 1_555
H163 C159 1_555 1_555
H164 C159 1_555 1_555
H165 C159 1_555 1_555
C160 H166 1_555 1_555
C161 C160 1_555 1_555
H167 C161 1_555 1_555
H168 C161 1_555 1_555
H169 C161 1_555 1_555
C162 C160 1_555 1_555
H170 C162 1_555 1_555
H171 C162 1_555 1_555
H172 C162 1_555 1_555
C163 H173 1_555 1_555
C164 C163 1_555 1_555
H174 C164 1_555 1_555
H175 C164 1_555 1_555
H176 C164 1_555 1_555
C165 C163 1_555 1_555
H177 C165 1_555 1_555
H178 C165 1_555 1_555
H179 C165 1_555 1_555
C166 C152 1_555 1_555
C167 C166 1_555 1_555
C168 H180 1_555 1_555
C169 C168 1_555 1_555
H181 C169 1_555 1_555
H182 C169 1_555 1_555
H183 C169 1_555 1_555
C170 C168 1_555 1_555
H184 C170 1_555 1_555
H185 C170 1_555 1_555
H186 C170 1_555 1_555
C171 H187 1_555 1_555
C172 C171 1_555 1_555
H188 C172 1_555 1_555
H189 C172 1_555 1_555
H190 C172 1_555 1_555
C173 C171 1_555 1_555
H191 C173 1_555 1_555
H192 C173 1_555 1_555
H193 C173 1_555 1_555
C174 H194 1_555 1_555
C175 C174 1_555 1_555
H195 C175 1_555 1_555
H196 C175 1_555 1_555
H197 C175 1_555 1_555
C176 C174 1_555 1_555
H198 C176 1_555 1_555
H199 C176 1_555 1_555
H200 C176 1_555 1_555
N13 C137 1_555 1_555
N14 C140 1_555 1_555
N15 C150 1_555 1_555
N16 C153 1_555 1_555
O7 C142 1_555 1_555
O8 C149 1_555 1_555
Si7 C156 1_555 1_555
Si8 C167 1_555 1_555
C177 H201 1_555 1_555
H202 C177 1_555 1_555
H203 C177 1_555 1_555
O9 C177 1_555 1_555
H204 O9 1_555 1_555
O10 H205 1_555 1_555
C178 O10 1_555 1_555
H206 C178 1_555 1_555
H207 C178 1_555 1_555
H208 C178 1_555 1_555
C5 C22 1_555 1_555
C6 N1 1_555 1_555
C9 N2 1_555 1_555
C15 C16 1_555 1_555
C17 C18 1_555 1_555
C19 N3 1_555 1_555
C22 N4 1_555 1_555
C25 Si1 1_555 1_555
C28 Si1 1_555 1_555
C31 Si1 1_555 1_555
C36 Si2 1_555 1_555
C39 Si2 1_555 1_555
C42 Si2 1_555 1_555
C49 C66 1_555 1_555
C50 N5 1_555 1_555
C53 N6 1_555 1_555
C59 C60 1_555 1_555
C61 C62 1_555 1_555
C63 N7 1_555 1_555
C66 N8 1_555 1_555
C69 Si3 1_555 1_555
C72 Si3 1_555 1_555
C75 Si3 1_555 1_555
C80 Si4 1_555 1_555
C83 Si4 1_555 1_555
C86 Si4 1_555 1_555
C93 C110 1_555 1_555
C94 N9 1_555 1_555
C97 N10 1_555 1_555
C103 C104 1_555 1_555
C105 C106 1_555 1_555
C107 N11 1_555 1_555
C110 N12 1_555 1_555
C113 Si5 1_555 1_555
C116 Si5 1_555 1_555
C119 Si5 1_555 1_555
C124 Si6 1_555 1_555
C127 Si6 1_555 1_555
C130 Si6 1_555 1_555
C137 C154 1_555 1_555
C138 N13 1_555 1_555
C141 N14 1_555 1_555
C147 C148 1_555 1_555
C149 C150 1_555 1_555
C151 N15 1_555 1_555
C154 N16 1_555 1_555
C157 Si7 1_555 1_555
C160 Si7 1_555 1_555
C163 Si7 1_555 1_555
C168 Si8 1_555 1_555
C171 Si8 1_555 1_555
C174 Si8 1_555 1_555

#END
