
#######################################################################
#
#                 Cambridge Crystallographic Data Centre
#                                CCDC 
#
#######################################################################
#
# If this CIF has been generated from an entry in the Cambridge 
# Structural Database, then it will include bibliographic, chemical, 
# crystal, experimental, refinement or atomic coordinate data resulting 
# from the CCDC's data processing and validation procedures.
#
#######################################################################

data_ACUHOY
_chemical_formula_moiety         'C48 H52 N4 O2 Si2,C1 H4 O1'
_chemical_name_systematic        
'6,17-bis{[tris(propan-2-yl)silyl]ethynyl}naphtho[2,3-b]quinoxalino[2,3-i]phenazine-8,15-dione methanol solvate'
_symmetry_cell_setting           monoclinic
_symmetry_space_group_name_H-M   'P 21/c'
_symmetry_Int_Tables_number      14
_space_group_name_Hall           '-P 2ybc'
loop_
_symmetry_equiv_pos_site_id
_symmetry_equiv_pos_as_xyz
1 x,y,z
2 -x,1/2+y,1/2-z
3 -x,-y,-z
4 x,1/2-y,1/2+z
_cell_length_a                   9.4802(2)
_cell_length_b                   13.4831(3)
_cell_length_c                   34.2169(7)
_cell_angle_alpha                90
_cell_angle_beta                 95.3293(7)
_cell_angle_gamma                90
_cell_volume                     4354.78
_exptl_crystal_colour            red
_exptl_crystal_description       needle
_cell_formula_units_Z            4
loop_
_atom_site_label
_atom_site_type_symbol
_atom_site_fract_x
_atom_site_fract_y
_atom_site_fract_z
Si1 Si 0.61205(6) 0.21924(4) 0.61841(2)
Si2 Si 0.31392(7) 0.31256(5) 0.28368(2)
C1 C 0.5501(2) 0.29736(15) 0.49174(6)
C2 C 0.6126(2) 0.24456(15) 0.46196(6)
C3 C 0.5706(2) 0.26505(15) 0.42136(6)
C4 C 0.4586(2) 0.33327(15) 0.41042(6)
C5 C 0.3978(2) 0.38578(15) 0.44025(6)
C6 C 0.4453(2) 0.36826(15) 0.48075(6)
C7 C 0.5875(2) 0.27704(15) 0.53227(6)
C8 C 0.6108(2) 0.25877(16) 0.56698(6)
C9 C 0.4607(2) 0.28536(18) 0.63919(7)
H1 H 0.4544 0.2607 0.6665
C10 C 0.3180(2) 0.2662(2) 0.61564(8)
H2 H 0.2433 0.3022 0.6277
H3 H 0.2973 0.195 0.6155
H4 H 0.322 0.2893 0.5886
C11 C 0.4869(3) 0.39783(19) 0.64122(8)
H5 H 0.4954 0.4235 0.6147
H6 H 0.5747 0.4112 0.6578
H7 H 0.4075 0.4305 0.6524
C12 C 0.5939(2) 0.07939(17) 0.61638(7)
H8 H 0.6914 0.052 0.6151
C13 C 0.5378(4) 0.0362(2) 0.65364(8)
H9 H 0.4411 0.0599 0.6557
H10 H 0.5989 0.0576 0.6768
H11 H 0.5378 -0.0364 0.6522
C14 C 0.5038(2) 0.04088(17) 0.58011(7)
H12 H 0.5095 -0.0317 0.5793
H13 H 0.5392 0.0686 0.5564
H14 H 0.405 0.061 0.5814
C15 C 0.7856(2) 0.25687(17) 0.64517(6)
H15 H 0.7949 0.3302 0.6419
C16 C 0.9110(2) 0.20895(19) 0.62756(8)
H16 H 0.9995 0.2377 0.6397
H17 H 0.9035 0.221 0.5992
H18 H 0.9106 0.1374 0.6325
C17 C 0.7924(3) 0.2359(2) 0.68949(7)
H19 H 0.787 0.1642 0.6938
H20 H 0.7128 0.2686 0.7005
H21 H 0.8818 0.2614 0.7023
C18 C 0.4054(2) 0.34073(16) 0.37029(6)
C19 C 0.3598(2) 0.33729(16) 0.33627(6)
C20 C 0.1835(3) 0.4056(2) 0.26164(7)
H22 H 0.0876 0.3815 0.2672
C21 C 0.2003(3) 0.5080(2) 0.27921(8)
H23 H 0.2927 0.5351 0.2741
H24 H 0.1941 0.5042 0.3076
H25 H 0.1249 0.5512 0.2673
C22 C 0.1820(3) 0.4127(2) 0.21666(8)
H26 H 0.1043 0.456 0.2064
H27 H 0.1686 0.3465 0.2051
H28 H 0.2723 0.4403 0.2099
C23 C 0.2356(3) 0.1830(2) 0.28140(8)
H29 H 0.3081 0.139 0.2956
C24 C 0.1029(4) 0.1735(3) 0.30271(11)
H30 H 0.026 0.2116 0.2887
H31 H 0.1216 0.1991 0.3295
H32 H 0.0754 0.1035 0.3037
C25 C 0.2106(3) 0.1419(2) 0.23971(9)
H33 H 0.1778 0.0731 0.2407
H34 H 0.2992 0.1442 0.2271
H35 H 0.1386 0.182 0.2246
C26 C 0.4894(3) 0.3123(2) 0.26183(7)
H36 H 0.471 0.2978 0.2331
C27 C 0.5639(3) 0.4124(2) 0.26630(8)
H37 H 0.5839 0.428 0.2942
H38 H 0.5027 0.4639 0.2536
H39 H 0.653 0.4097 0.2539
C28 C 0.5860(3) 0.2296(2) 0.28064(8)
H40 H 0.6792 0.2335 0.2705
H41 H 0.5434 0.1648 0.2742
H42 H 0.5968 0.2382 0.3092
C29 C 0.7693(2) 0.12764(15) 0.44437(6)
C30 C 0.8707(2) 0.05127(16) 0.45427(6)
H43 H 0.8944 0.0337 0.481
C31 C 0.9333(2) 0.00382(17) 0.42548(7)
H44 H 1.0 -0.0473 0.4322
C32 C 0.9001(2) 0.02976(18) 0.38514(7)
H45 H 0.946 -0.004 0.3655
C33 C 0.8044(2) 0.10157(17) 0.37447(7)
H46 H 0.7845 0.1183 0.3476
C34 C 0.7333(2) 0.15231(16) 0.40367(6)
C35 C 0.2863(2) 0.48136(15) 0.49930(6)
C36 C 0.2247(2) 0.53627(15) 0.53212(6)
C37 C 0.1076(2) 0.60675(15) 0.52093(6)
C38 C 0.0467(2) 0.65566(16) 0.55042(6)
H47 H 0.0789 0.6421 0.577
C39 C -0.0626(2) 0.72559(15) 0.54188(6)
C40 C -0.1272(2) 0.77542(16) 0.57207(7)
H48 H -0.0989 0.7607 0.5988
C41 C -0.2303(2) 0.84488(17) 0.56266(7)
H49 H -0.2725 0.8786 0.583
C42 C -0.2743(2) 0.86667(16) 0.52321(7)
H50 H -0.3453 0.9154 0.5172
C43 C -0.2158(2) 0.81841(16) 0.49343(7)
H51 H -0.2477 0.8332 0.4669
C44 C -0.1082(2) 0.74662(15) 0.50177(6)
C45 C -0.0471(2) 0.69371(16) 0.47200(6)
H52 H -0.0794 0.706 0.4453
C46 C 0.0585(2) 0.62467(15) 0.48071(6)
C47 C 0.1159(2) 0.56856(15) 0.44811(6)
C48 C 0.2362(2) 0.49770(15) 0.45894(6)
N1 N 0.38710(17) 0.41809(13) 0.50997(5)
N2 N 0.29003(17) 0.45097(13) 0.43013(5)
N3 N 0.70995(17) 0.17421(13) 0.47308(5)
N4 N 0.63353(17) 0.21872(13) 0.39250(5)
O1 O 0.27151(15) 0.52322(12) 0.56605(4)
O2 O 0.06685(15) 0.57724(11) 0.41414(4)
C49 C 0.9051(3) 0.4482(3) 0.34419(9)
H53 H 0.8544 0.4711 0.3662
H54 H 0.845 0.4018 0.3281
H55 H 0.9282 0.5051 0.3282
O3 O 1.0322(2) 0.39941(15) 0.35891(6)
H56 H 1.0813 0.438 0.3739
loop_
_geom_bond_atom_site_label_1
_geom_bond_atom_site_label_2
_geom_bond_site_symmetry_1
_geom_bond_site_symmetry_2
Si1 C8 1_555 1_555
Si2 C19 1_555 1_555
C1 C2 1_555 1_555
C2 C3 1_555 1_555
C3 C4 1_555 1_555
C4 C5 1_555 1_555
C5 C6 1_555 1_555
C6 C1 1_555 1_555
C7 C1 1_555 1_555
C8 C7 1_555 1_555
C9 Si1 1_555 1_555
H1 C9 1_555 1_555
C10 C9 1_555 1_555
H2 C10 1_555 1_555
H3 C10 1_555 1_555
H4 C10 1_555 1_555
C11 C9 1_555 1_555
H5 C11 1_555 1_555
H6 C11 1_555 1_555
H7 C11 1_555 1_555
C12 Si1 1_555 1_555
H8 C12 1_555 1_555
C13 C12 1_555 1_555
H9 C13 1_555 1_555
H10 C13 1_555 1_555
H11 C13 1_555 1_555
C14 C12 1_555 1_555
H12 C14 1_555 1_555
H13 C14 1_555 1_555
H14 C14 1_555 1_555
C15 Si1 1_555 1_555
H15 C15 1_555 1_555
C16 C15 1_555 1_555
H16 C16 1_555 1_555
H17 C16 1_555 1_555
H18 C16 1_555 1_555
C17 C15 1_555 1_555
H19 C17 1_555 1_555
H20 C17 1_555 1_555
H21 C17 1_555 1_555
C18 C4 1_555 1_555
C19 C18 1_555 1_555
C20 Si2 1_555 1_555
H22 C20 1_555 1_555
C21 C20 1_555 1_555
H23 C21 1_555 1_555
H24 C21 1_555 1_555
H25 C21 1_555 1_555
C22 C20 1_555 1_555
H26 C22 1_555 1_555
H27 C22 1_555 1_555
H28 C22 1_555 1_555
C23 Si2 1_555 1_555
H29 C23 1_555 1_555
C24 C23 1_555 1_555
H30 C24 1_555 1_555
H31 C24 1_555 1_555
H32 C24 1_555 1_555
C25 C23 1_555 1_555
H33 C25 1_555 1_555
H34 C25 1_555 1_555
H35 C25 1_555 1_555
C26 Si2 1_555 1_555
H36 C26 1_555 1_555
C27 C26 1_555 1_555
H37 C27 1_555 1_555
H38 C27 1_555 1_555
H39 C27 1_555 1_555
C28 C26 1_555 1_555
H40 C28 1_555 1_555
H41 C28 1_555 1_555
H42 C28 1_555 1_555
C29 C30 1_555 1_555
C30 H43 1_555 1_555
C31 C30 1_555 1_555
H44 C31 1_555 1_555
C32 C31 1_555 1_555
H45 C32 1_555 1_555
C33 C32 1_555 1_555
H46 C33 1_555 1_555
C34 C29 1_555 1_555
C35 C36 1_555 1_555
C36 C37 1_555 1_555
C37 C38 1_555 1_555
C38 H47 1_555 1_555
C39 C38 1_555 1_555
C40 C39 1_555 1_555
H48 C40 1_555 1_555
C41 C40 1_555 1_555
H49 C41 1_555 1_555
C42 C41 1_555 1_555
H50 C42 1_555 1_555
C43 C42 1_555 1_555
H51 C43 1_555 1_555
C44 C39 1_555 1_555
C45 C44 1_555 1_555
H52 C45 1_555 1_555
C46 C37 1_555 1_555
C47 C46 1_555 1_555
C48 C35 1_555 1_555
N1 C6 1_555 1_555
N2 C5 1_555 1_555
N3 C2 1_555 1_555
N4 C3 1_555 1_555
O1 C36 1_555 1_555
O2 C47 1_555 1_555
C49 H53 1_555 1_555
H54 C49 1_555 1_555
H55 C49 1_555 1_555
O3 C49 1_555 1_555
H56 O3 1_555 1_555
C29 N3 1_555 1_555
C33 C34 1_555 1_555
C34 N4 1_555 1_555
C35 N1 1_555 1_555
C43 C44 1_555 1_555
C45 C46 1_555 1_555
C47 C48 1_555 1_555
C48 N2 1_555 1_555

#END
