
#######################################################################
#
#                 Cambridge Crystallographic Data Centre
#                                CCDC 
#
#######################################################################
#
# If this CIF has been generated from an entry in the Cambridge 
# Structural Database, then it will include bibliographic, chemical, 
# crystal, experimental, refinement or atomic coordinate data resulting 
# from the CCDC's data processing and validation procedures.
#
#######################################################################

data_ACUHAK
_chemical_formula_moiety         'C11 H6 Br1 F3 N2 O1'
_chemical_name_systematic        
(4-bromophenyl)[3-(trifluoromethyl)-1H-pyrazol-5-yl]methanone
_symmetry_cell_setting           triclinic
_symmetry_space_group_name_H-M   'P -1'
_symmetry_Int_Tables_number      2
_space_group_name_Hall           '-P 1'
loop_
_symmetry_equiv_pos_site_id
_symmetry_equiv_pos_as_xyz
1 x,y,z
2 -x,-y,-z
_cell_length_a                   5.1362(10)
_cell_length_b                   9.967(2)
_cell_length_c                   11.901(2)
_cell_angle_alpha                87.62(3)
_cell_angle_beta                 87.09(3)
_cell_angle_gamma                76.63(3)
_cell_volume                     591.687
_exptl_crystal_colour            colorless
_exptl_crystal_description       block
_cell_formula_units_Z            2
loop_
_atom_site_label
_atom_site_type_symbol
_atom_site_fract_x
_atom_site_fract_y
_atom_site_fract_z
Br1 Br 0.30943(14) 0.58500(7) 0.20751(6)
O1 O -0.2725(9) 0.0988(4) 0.0132(3)
C1 C 0.1609(12) 0.4329(6) 0.1797(5)
C2 C -0.2685(10) 0.0119(5) 0.1969(4)
C3 C -0.2103(11) 0.1098(6) 0.1087(4)
C4 C -0.1729(12) -0.0281(6) 0.3020(5)
H1 H -0.0485 0.0057 0.3397
N1 N -0.4692(11) -0.1551(6) 0.2642(4)
C5 C -0.0753(10) 0.2188(5) 0.1375(4)
N2 N -0.4432(10) -0.0669(5) 0.1784(4)
H2 H -0.5292 -0.0610 0.1176
C6 C -0.1099(13) 0.2779(7) 0.2422(5)
H3 H -0.2122 0.2447 0.2988
C7 C 0.0799(12) 0.2710(6) 0.0540(5)
H4 H 0.1028 0.2335 -0.0172
C8 C 0.1986(13) 0.3765(6) 0.0758(5)
H5 H 0.3039 0.4094 0.0203
C9 C 0.0059(14) 0.3853(7) 0.2629(5)
H6 H -0.0203 0.4256 0.3329
C10 C -0.3038(12) -0.1304(6) 0.3393(5)
F1 F -0.202(3) -0.3321(7) 0.4430(5)
C11 C -0.2775(16) -0.2080(8) 0.4463(5)
F2 F -0.140(3) -0.1657(11) 0.5128(7)
F3 F -0.498(2) -0.1943(12) 0.5037(6)
loop_
_geom_bond_atom_site_label_1
_geom_bond_atom_site_label_2
_geom_bond_site_symmetry_1
_geom_bond_site_symmetry_2
Br1 C1 1_555 1_555
O1 C3 1_555 1_555
C1 C8 1_555 1_555
C2 C3 1_555 1_555
C3 C5 1_555 1_555
C4 C2 1_555 1_555
H1 C4 1_555 1_555
N1 N2 1_555 1_555
C5 C6 1_555 1_555
N2 C2 1_555 1_555
H2 N2 1_555 1_555
C6 H3 1_555 1_555
C7 C5 1_555 1_555
H4 C7 1_555 1_555
C8 C7 1_555 1_555
H5 C8 1_555 1_555
C9 C1 1_555 1_555
H6 C9 1_555 1_555
C10 C4 1_555 1_555
F1 C11 1_555 1_555
C11 C10 1_555 1_555
F2 C11 1_555 1_555
F3 C11 1_555 1_555
N1 C10 1_555 1_555
C6 C9 1_555 1_555

#END
