
#######################################################################
#
#                 Cambridge Crystallographic Data Centre
#                                CCDC 
#
#######################################################################
#
# If this CIF has been generated from an entry in the Cambridge 
# Structural Database, then it will include bibliographic, chemical, 
# crystal, experimental, refinement or atomic coordinate data resulting 
# from the CCDC's data processing and validation procedures.
#
#######################################################################

data_ACUKOA
_chemical_formula_moiety         'C14 H13 N1 O1'
_chemical_name_systematic        1-(6-(Aziridin-1-yl)-2-naphthyl)ethanone
_symmetry_cell_setting           monoclinic
_symmetry_space_group_name_H-M   'P 21/n'
_symmetry_Int_Tables_number      14
_space_group_name_Hall           '-P 2yn'
loop_
_symmetry_equiv_pos_site_id
_symmetry_equiv_pos_as_xyz
1 x,y,z
2 1/2-x,1/2+y,1/2-z
3 -x,-y,-z
4 1/2+x,1/2-y,1/2+z
_cell_length_a                   8.171(1)
_cell_length_b                   5.739(1)
_cell_length_c                   24.000(5)
_cell_angle_alpha                90
_cell_angle_beta                 91.02(1)
_cell_angle_gamma                90
_cell_volume                     1125.26
_exptl_crystal_colour            colorless
_exptl_crystal_description       plate
_cell_formula_units_Z            4
loop_
_atom_site_label
_atom_site_type_symbol
_atom_site_fract_x
_atom_site_fract_y
_atom_site_fract_z
N1 N 0.3226(4) 0.1684(7) 0.39974(15)
O1 O 0.7299(5) 0.1897(7) 0.06567(15)
C1 C 0.5124(4) -0.0531(7) 0.18167(17)
C2 C 0.6048(4) 0.0991(7) 0.15062(16)
C3 C 0.6611(5) 0.3098(7) 0.17589(17)
C4 C 0.6211(4) 0.3641(7) 0.22946(17)
C5 C 0.5237(4) 0.2091(7) 0.26165(16)
C6 C 0.4799(4) 0.2630(7) 0.31711(17)
C7 C 0.3843(4) 0.1096(7) 0.34658(16)
C8 C 0.3344(5) -0.1040(7) 0.32229(17)
C9 C 0.3772(4) -0.1609(7) 0.26936(17)
C10 C 0.4716(4) -0.0043(7) 0.23681(16)
C11 C 0.6461(5) 0.0521(9) 0.09153(18)
C12 C 0.5847(6) -0.1657(10) 0.0640(2)
C13 C 0.4318(7) 0.2691(12) 0.4417(2)
C14 C 0.3713(7) 0.0261(11) 0.4472(2)
H1 H 0.470(5) -0.186(8) 0.1652(17)
H2 H 0.739(6) 0.424(9) 0.1515(19)
H3 H 0.654(5) 0.516(9) 0.2481(18)
H4 H 0.514(6) 0.417(10) 0.330(2)
H5 H 0.267(5) -0.214(8) 0.3448(18)
H6 H 0.349(5) -0.305(9) 0.2508(19)
H7 H 0.607(6) -0.161(10) 0.024(2)
H8 H 0.636(7) -0.320(11) 0.081(2)
H9 H 0.479(7) -0.175(10) 0.062(2)
H10 H 0.378(8) 0.410(12) 0.460(3)
H11 H 0.553(9) 0.278(13) 0.433(3)
H12 H 0.272(8) -0.028(12) 0.467(3)
H13 H 0.433(7) -0.111(11) 0.440(2)
loop_
_geom_bond_atom_site_label_1
_geom_bond_atom_site_label_2
_geom_bond_site_symmetry_1
_geom_bond_site_symmetry_2
N1 C7 1_555 1_555
O1 C11 1_555 1_555
C1 C2 1_555 1_555
C2 C3 1_555 1_555
C3 C4 1_555 1_555
C4 C5 1_555 1_555
C5 C6 1_555 1_555
C6 C7 1_555 1_555
C7 C8 1_555 1_555
C8 C9 1_555 1_555
C9 C10 1_555 1_555
C10 C1 1_555 1_555
C11 C2 1_555 1_555
C12 C11 1_555 1_555
C13 N1 1_555 1_555
C14 N1 1_555 1_555
H1 C1 1_555 1_555
H2 C3 1_555 1_555
H3 C4 1_555 1_555
H4 C6 1_555 1_555
H5 C8 1_555 1_555
H6 C9 1_555 1_555
H7 C12 1_555 1_555
H8 C12 1_555 1_555
H9 C12 1_555 1_555
H10 C13 1_555 1_555
H11 C13 1_555 1_555
H12 C14 1_555 1_555
H13 C14 1_555 1_555
C5 C10 1_555 1_555
C13 C14 1_555 1_555

#END
