
#######################################################################
#
#                 Cambridge Crystallographic Data Centre
#                                CCDC 
#
#######################################################################
#
# If this CIF has been generated from an entry in the Cambridge 
# Structural Database, then it will include bibliographic, chemical, 
# crystal, experimental, refinement or atomic coordinate data resulting 
# from the CCDC's data processing and validation procedures.
#
#######################################################################

data_ACUKER
_chemical_formula_moiety         'C28 H21 N2 1+,2(H2 O1),Cl1 1-'
_chemical_name_systematic        
'4-(2-(10-(2-(4-pyridyl)ethenyl)anthracen-9-yl)ethenyl)pyridinium chloride dihydrate'
_symmetry_cell_setting           triclinic
_symmetry_space_group_name_H-M   'P -1'
_symmetry_Int_Tables_number      2
_space_group_name_Hall           '-P 1'
loop_
_symmetry_equiv_pos_site_id
_symmetry_equiv_pos_as_xyz
1 x,y,z
2 -x,-y,-z
_cell_length_a                   8.1571(16)
_cell_length_b                   9.862(2)
_cell_length_c                   15.677(3)
_cell_angle_alpha                87.70(3)
_cell_angle_beta                 88.68(3)
_cell_angle_gamma                66.35(3)
_cell_volume                     1154.26
_exptl_crystal_colour            red
_exptl_crystal_description       block
_cell_formula_units_Z            2
loop_
_atom_site_label
_atom_site_type_symbol
_atom_site_fract_x
_atom_site_fract_y
_atom_site_fract_z
C1 C 0.3863(4) 0.8836(4) 0.5096(2)
C2 C 0.5498(5) 0.7554(4) 0.5145(2)
H1 H 0.6064 0.7137 0.4640
C3 C 0.6260(5) 0.6919(4) 0.5895(3)
H2 H 0.7331 0.6083 0.5900
C4 C 0.5427(5) 0.7526(4) 0.6677(2)
H3 H 0.5936 0.7076 0.7194
C5 C 0.3890(5) 0.8764(4) 0.6668(2)
H4 H 0.3366 0.9161 0.7184
C6 C 0.3043(5) 0.9484(4) 0.5883(2)
C7 C 0.1515(5) 1.0830(4) 0.5890(2)
C8 C 0.0749(5) 1.1536(4) 0.5118(2)
C9 C -0.0839(5) 1.2882(4) 0.5080(2)
H5 H -0.1367 1.3323 0.5585
C10 C -0.1588(5) 1.3526(4) 0.4326(3)
H6 H -0.2613 1.4401 0.4321
C11 C -0.0826(5) 1.2879(4) 0.3552(3)
H7 H -0.1347 1.3327 0.3037
C12 C 0.0666(5) 1.1606(4) 0.3555(2)
H8 H 0.1146 1.1189 0.3037
C13 C 0.1519(4) 1.0890(4) 0.4322(2)
C14 C 0.3070(4) 0.9537(4) 0.4315(2)
C15 C 0.0731(5) 1.1409(4) 0.6731(2)
H9 H 0.0423 1.0780 0.7096
C16 C 0.0427(5) 1.2744(4) 0.7010(2)
H10 H 0.0737 1.3375 0.6648
C17 C -0.0360(5) 1.3308(4) 0.7849(2)
C18 C -0.0709(5) 1.4749(4) 0.8039(2)
H11 H -0.0445 1.5360 0.7642
C19 C -0.1453(6) 1.5289(5) 0.8821(3)
H12 H -0.1675 1.6265 0.8937
C20 C -0.1510(6) 1.3062(5) 0.9232(2)
H13 H -0.1779 1.2472 0.9642
C21 C -0.0773(6) 1.2458(5) 0.8473(2)
H14 H -0.0549 1.1475 0.8375
C22 C 0.3841(5) 0.8924(4) 0.3487(2)
H15 H 0.4016 0.9574 0.3086
C23 C 0.4310(5) 0.7544(4) 0.3256(2)
H16 H 0.4126 0.6888 0.3650
C24 C 0.5097(4) 0.6963(4) 0.2427(2)
C25 C 0.5647(5) 0.7742(4) 0.1817(2)
H17 H 0.5531 0.8698 0.1919
C26 C 0.6365(6) 0.7104(5) 0.1059(2)
H18 H 0.6737 0.7632 0.0650
C27 C 0.6031(6) 0.4956(4) 0.1466(3)
H19 H 0.6157 0.4005 0.1340
C28 C 0.5321(5) 0.5521(4) 0.2238(2)
H20 H 0.4989 0.4951 0.2635
N1 N -0.1860(4) 1.4475(4) 0.9411(2)
N2 N 0.6535(4) 0.5725(4) 0.0902(2)
H21 H 0.6939 0.5209 0.0390
Cl1 Cl 0.60439(18) 0.13402(15) 0.09761(8)
O1 O 0.2570(5) 0.0841(5) 0.0539(3)
H22 H 0.2854 -0.0053 0.0191
H23 H 0.3522 0.0994 0.0570
O2 O 0.9587(5) 0.1617(6) 0.1584(2)
H24 H 1.0643 0.1346 0.1183
H25 H 0.8592 0.1558 0.1186
loop_
_geom_bond_atom_site_label_1
_geom_bond_atom_site_label_2
_geom_bond_site_symmetry_1
_geom_bond_site_symmetry_2
C1 C2 1_555 1_555
C2 H1 1_555 1_555
C3 C2 1_555 1_555
H2 C3 1_555 1_555
C4 C3 1_555 1_555
H3 C4 1_555 1_555
C5 C4 1_555 1_555
H4 C5 1_555 1_555
C6 C1 1_555 1_555
C7 C6 1_555 1_555
C8 C7 1_555 1_555
C9 C8 1_555 1_555
H5 C9 1_555 1_555
C10 C9 1_555 1_555
H6 C10 1_555 1_555
C11 C10 1_555 1_555
H7 C11 1_555 1_555
C12 C11 1_555 1_555
H8 C12 1_555 1_555
C13 C8 1_555 1_555
C14 C1 1_555 1_555
C15 C7 1_555 1_555
H9 C15 1_555 1_555
C16 C15 1_555 1_555
H10 C16 1_555 1_555
C17 C16 1_555 1_555
C18 C17 1_555 1_555
H11 C18 1_555 1_555
C19 C18 1_555 1_555
H12 C19 1_555 1_555
C20 H13 1_555 1_555
C21 C17 1_555 1_555
H14 C21 1_555 1_555
C22 C14 1_555 1_555
H15 C22 1_555 1_555
C23 C22 1_555 1_555
H16 C23 1_555 1_555
C24 C23 1_555 1_555
C25 C24 1_555 1_555
H17 C25 1_555 1_555
C26 C25 1_555 1_555
H18 C26 1_555 1_555
C27 H19 1_555 1_555
C28 C24 1_555 1_555
H20 C28 1_555 1_555
N1 C19 1_555 1_555
N2 C26 1_555 1_555
H21 N2 1_555 1_555
O1 H22 1_555 1_555
H23 O1 1_555 1_555
O2 H24 1_555 1_555
H25 O2 1_555 1_555
C5 C6 1_555 1_555
C12 C13 1_555 1_555
C13 C14 1_555 1_555
C20 C21 1_555 1_555
C20 N1 1_555 1_555
C27 C28 1_555 1_555
C27 N2 1_555 1_555

#END
