
#######################################################################
#
#                 Cambridge Crystallographic Data Centre
#                                CCDC 
#
#######################################################################
#
# If this CIF has been generated from an entry in the Cambridge 
# Structural Database, then it will include bibliographic, chemical, 
# crystal, experimental, refinement or atomic coordinate data resulting 
# from the CCDC's data processing and validation procedures.
#
#######################################################################

data_ACULEP
_chemical_formula_moiety         'C22 H23 N1 O4'
_chemical_name_systematic        
3-(n-Butoxy)-4-((1'R,2'S)-(2'-hydroxy-1',2'-diphenylethyl)amino)-3-cyclobutene-1,2-dione
_symmetry_cell_setting           monoclinic
_symmetry_space_group_name_H-M   'P 21'
_symmetry_Int_Tables_number      4
_space_group_name_Hall           'P 2yb'
loop_
_symmetry_equiv_pos_site_id
_symmetry_equiv_pos_as_xyz
1 x,y,z
2 -x,1/2+y,-z
_cell_length_a                   10.969(5)
_cell_length_b                   15.892(7)
_cell_length_c                   11.990(5)
_cell_angle_alpha                90
_cell_angle_beta                 108.837(11)
_cell_angle_gamma                90
_cell_volume                     1978.15
_exptl_crystal_colour            colorless
_exptl_crystal_description       prism
_chemical_melting_point          104-105deg.C
_cell_formula_units_Z            4
loop_
_atom_site_label
_atom_site_type_symbol
_atom_site_fract_x
_atom_site_fract_y
_atom_site_fract_z
O1 O 0.20845(19) 0.24272(13) -0.03806(17)
H1 H 0.231(4) 0.266(2) -0.100(3)
O2 O 0.53361(19) 0.05589(12) -0.15129(14)
O3 O 0.7444(2) -0.08609(13) -0.01398(19)
O4 O 0.7041(2) -0.01730(16) 0.23661(18)
N1 N 0.4893(2) 0.10462(14) 0.09387(17)
H3 H 0.4815(19) 0.1044(12) 0.1712(17)
C1 C 0.2859(3) 0.18518(18) 0.0443(2)
H5 H 0.2874(17) 0.2113(12) 0.1214(16)
C2 C 0.4084(3) 0.16767(18) 0.0111(2)
H6 H 0.399(7) 0.140(5) -0.081(6)
C3 C 0.1265(3) 0.0728(2) -0.0632(3)
H7 H 0.1230 0.0967 -0.1350
C4 C 0.0525(3) 0.0021(2) -0.0607(3)
H8 H -0.0006 -0.0205 -0.1312
C5 C 0.0562(3) -0.0341(2) 0.0416(3)
H9 H 0.0031 -0.0799 0.0407
C6 C 0.1358(3) -0.0051(2) 0.1460(3)
H10 H 0.144(2) -0.0246(15) 0.2257(19)
C7 C 0.2086(3) 0.0689(2) 0.1454(3)
H11 H 0.2594 0.0919 0.2165
C8 C 0.2050(3) 0.10726(18) 0.0405(2)
C9 C 0.5621(3) 0.28332(19) 0.1113(3)
H12 H 0.5623 0.2621 0.1837
C10 C 0.6377(3) 0.3510(2) 0.1090(3)
H13 H 0.661(3) 0.3717(17) 0.198(2)
C11 C 0.6329(3) 0.3852(2) 0.0032(3)
H14 H 0.6811 0.4329 0.0008
C12 C 0.5558(3) 0.3484(2) -0.1010(3)
H15 H 0.573(3) 0.353(2) -0.177(3)
C13 C 0.4841(3) 0.27944(18) -0.0963(2)
H16 H 0.4332 0.2547 -0.1661
C14 C 0.4855(3) 0.24569(19) 0.0095(2)
C15 C 0.5637(2) 0.05301(16) 0.06136(18)
C16 C 0.5797(3) 0.03137(17) -0.05069(17)
C17 C 0.6802(2) -0.03244(17) 0.0141(2)
C18 C 0.6606(3) -0.00414(19) 0.12158(19)
C19 C 0.8092(4) -0.0787(3) 0.2786(3)
H17 H 0.906(4) -0.037(2) 0.317(3)
H18 H 0.834(4) -0.043(2) 0.217(3)
C20 C 0.8666(6) -0.0599(4) 0.4100(3)
H19 H 0.8769 -0.1161 0.4433
H20 H 0.9532 -0.0424 0.4159
C21 C 0.8428(5) -0.0088(4) 0.5085(4)
H21 H 0.7633 -0.0247 0.5220
H22 H 0.8431 0.0513 0.4945
C22 C 0.9621(5) -0.0374(4) 0.6087(4)
H23 H 1.0245 -0.0538 0.6318
H24 H 0.9194 -0.0745 0.6475
H25 H 0.9743 0.0133 0.6544
O5 O 0.2490(2) -0.07876(13) 0.5049(2)
H2 H 0.2500(17) -0.1177(11) 0.5273(14)
O6 O 0.4867(2) 0.11746(14) 0.33277(15)
O7 O 0.7334(2) 0.24422(13) 0.42404(17)
O8 O 0.7639(2) 0.20462(15) 0.68520(17)
N2 N 0.4993(2) 0.08130(14) 0.60031(17)
H4 H 0.509(2) 0.0818(15) 0.673(2)
C26 C 0.3715(3) -0.04726(18) 0.5780(3)
H26 H 0.3766(19) -0.0436(12) 0.6652(17)
C27 C 0.3736(3) 0.04330(19) 0.5348(2)
H27 H 0.3821(16) 0.0418(11) 0.4628(14)
C28 C 0.4819(3) -0.1309(2) 0.4640(3)
H28 H 0.4142 -0.1197 0.3954
C29 C 0.5840(4) -0.1791(2) 0.4598(4)
H29 H 0.5844 -0.2005 0.3877
C30 C 0.6875(4) -0.1971(3) 0.5611(4)
H30 H 0.7564 -0.2293 0.5564
C31 C 0.6860(3) -0.1672(2) 0.6655(4)
H31 H 0.7632 -0.1338 0.6988
C32 C 0.5791(3) -0.1177(2) 0.6676(3)
H33 H 0.5843(16) -0.0984(11) 0.7363(14)
C33 C 0.4804(3) -0.09889(19) 0.5714(3)
C34 C 0.2577(3) 0.1286(2) 0.6455(2)
H34 H 0.3275 0.1187 0.7129
C35 C 0.1588(3) 0.1755(2) 0.6544(3)
H35 H 0.1624 0.1982 0.7268
C36 C 0.0511(3) 0.1901(2) 0.5555(3)
H36 H -0.024(2) 0.2246(16) 0.580(2)
C37 C 0.0535(3) 0.1557(2) 0.4526(3)
H37 H -0.008(2) 0.1714(17) 0.389(2)
C38 C 0.1524(3) 0.1097(2) 0.4437(3)
H38 H 0.159(3) 0.073(2) 0.360(3)
C39 C 0.2591(3) 0.09502(19) 0.5406(2)
C40 C 0.5693(2) 0.12508(16) 0.54979(18)
C41 C 0.5574(3) 0.14136(18) 0.42620(18)
C42 C 0.6735(2) 0.19781(17) 0.4704(2)
C43 C 0.6781(3) 0.17610(18) 0.58820(18)
C44 C 0.7515(3) 0.1758(2) 0.7911(3)
H39 H 0.765(2) 0.1180(14) 0.7896(18)
H40 H 0.659(2) 0.1968(15) 0.7846(19)
C45 C 0.8512(3) 0.2247(2) 0.8906(2)
H41 H 0.930(3) 0.2173(19) 0.907(2)
H42 H 0.837(2) 0.2893(14) 0.8760(18)
C46 C 0.8504(3) 0.1909(2) 1.0091(2)
H43 H 0.772(3) 0.183(2) 1.012(2)
H44 H 0.8540(19) 0.1192(14) 0.9714(17)
C47 C 0.9415(4) 0.2396(2) 1.1101(3)
H45 H 0.8874 0.2792 1.1324
H46 H 0.9917 0.2725 1.0738
H47 H 0.9956 0.2241 1.1754
C23? C 0.9239(16) -0.0802(10) 0.3890(13)
C24? C 0.8449(9) -0.0227(6) 0.4491(7)
C25? C 0.9617(11) -0.0792(8) 0.5141(10)
H32? H 0.6919 -0.2149 0.7176
loop_
_geom_bond_atom_site_label_1
_geom_bond_atom_site_label_2
_geom_bond_site_symmetry_1
_geom_bond_site_symmetry_2
O1 H1 1_555 1_555
O2 C16 1_555 1_555
O3 C17 1_555 1_555
O4 C18 1_555 1_555
O5 H2 1_555 1_555
O6 C41 1_555 1_555
O7 C42 1_555 1_555
O8 C43 1_555 1_555
N1 H3 1_555 1_555
N2 H4 1_555 1_555
C1 O1 1_555 1_555
H5 C1 1_555 1_555
C2 N1 1_555 1_555
H6 C2 1_555 1_555
C3 H7 1_555 1_555
C4 C3 1_555 1_555
H8 C4 1_555 1_555
C5 C4 1_555 1_555
H9 C5 1_555 1_555
C6 C5 1_555 1_555
H10 C6 1_555 1_555
C7 C6 1_555 1_555
H11 C7 1_555 1_555
C8 C1 1_555 1_555
C9 H12 1_555 1_555
C10 C9 1_555 1_555
H13 C10 1_555 1_555
C11 C10 1_555 1_555
H14 C11 1_555 1_555
C12 C11 1_555 1_555
H15 C12 1_555 1_555
C13 C12 1_555 1_555
H16 C13 1_555 1_555
C14 C2 1_555 1_555
C15 N1 1_555 1_555
C16 C15 1_555 1_555
C17 C16 1_555 1_555
C18 C15 1_555 1_555
C19 O4 1_555 1_555
H17 C19 1_555 1_555
H18 C19 1_555 1_555
C20 C19 1_555 1_555
H19 C20 1_555 1_555
H20 C20 1_555 1_555
C21 C20 1_555 1_555
H21 C21 1_555 1_555
H22 C21 1_555 1_555
C22 C21 1_555 1_555
H23 C22 1_555 1_555
H24 C22 1_555 1_555
H25 C22 1_555 1_555
C26 O5 1_555 1_555
H26 C26 1_555 1_555
C27 N2 1_555 1_555
H27 C27 1_555 1_555
C28 H28 1_555 1_555
C29 C28 1_555 1_555
H29 C29 1_555 1_555
C30 C29 1_555 1_555
H30 C30 1_555 1_555
C31 C30 1_555 1_555
H31 C31 1_555 1_555
C32 C31 1_555 1_555
H33 C32 1_555 1_555
C33 C26 1_555 1_555
C34 H34 1_555 1_555
C35 C34 1_555 1_555
H35 C35 1_555 1_555
C36 C35 1_555 1_555
H36 C36 1_555 1_555
C37 C36 1_555 1_555
H37 C37 1_555 1_555
C38 C37 1_555 1_555
H38 C38 1_555 1_555
C39 C27 1_555 1_555
C40 N2 1_555 1_555
C41 C40 1_555 1_555
C42 C41 1_555 1_555
C43 C40 1_555 1_555
C44 O8 1_555 1_555
H39 C44 1_555 1_555
H40 C44 1_555 1_555
C45 C44 1_555 1_555
H41 C45 1_555 1_555
H42 C45 1_555 1_555
C46 C45 1_555 1_555
H43 C46 1_555 1_555
H44 C46 1_555 1_555
C47 C46 1_555 1_555
H45 C47 1_555 1_555
H46 C47 1_555 1_555
H47 C47 1_555 1_555
C1 C2 1_555 1_555
C3 C8 1_555 1_555
C7 C8 1_555 1_555
C9 C14 1_555 1_555
C13 C14 1_555 1_555
C17 C18 1_555 1_555
C26 C27 1_555 1_555
C28 C33 1_555 1_555
C32 C33 1_555 1_555
C34 C39 1_555 1_555
C38 C39 1_555 1_555
C42 C43 1_555 1_555

#END
