
#######################################################################
#
#                 Cambridge Crystallographic Data Centre
#                                CCDC 
#
#######################################################################
#
# If this CIF has been generated from an entry in the Cambridge 
# Structural Database, then it will include bibliographic, chemical, 
# crystal, experimental, refinement or atomic coordinate data resulting 
# from the CCDC's data processing and validation procedures.
#
#######################################################################

data_ACULIV
_chemical_formula_moiety         'C19 H17 N3'
_chemical_name_systematic        
(7-(Dimethylamino)-3,4-dihydrophenanthren-1(2H)-ylidene)malononitrile
_symmetry_cell_setting           monoclinic
_symmetry_space_group_name_H-M   'P 21/n'
_symmetry_Int_Tables_number      14
_space_group_name_Hall           '-P 2yn'
loop_
_symmetry_equiv_pos_site_id
_symmetry_equiv_pos_as_xyz
1 x,y,z
2 1/2-x,1/2+y,1/2-z
3 -x,-y,-z
4 1/2+x,1/2-y,1/2+z
_cell_length_a                   9.514(1)
_cell_length_b                   10.470(2)
_cell_length_c                   14.923(2)
_cell_angle_alpha                90
_cell_angle_beta                 90.68(1)
_cell_angle_gamma                90
_cell_volume                     1486.4
_exptl_crystal_colour            red
_exptl_crystal_description       prism
_cell_formula_units_Z            4
loop_
_atom_site_label
_atom_site_type_symbol
_atom_site_fract_x
_atom_site_fract_y
_atom_site_fract_z
N1 N -0.1899(2) 0.9462(2) 0.61587(13)
N2 N -0.3053(2) 1.0316(2) 0.34867(15)
N3 N 0.47385(18) 0.28836(17) 0.60274(12)
C1 C 0.10459(17) 0.61799(17) 0.41303(9)
C2 C 0.03809(16) 0.71822(16) 0.45856(10)
C3 C 0.0697(2) 0.7343(2) 0.55196(11)
C4 C 0.1588(2) 0.65536(18) 0.59626(11)
C5 C 0.22449(16) 0.55161(16) 0.55282(9)
C6 C 0.31694(18) 0.47029(17) 0.59936(11)
C7 C 0.38546(18) 0.36959(16) 0.55785(11)
C8 C 0.3559(2) 0.3523(2) 0.46491(13)
C9 C 0.2662(2) 0.42933(19) 0.41918(11)
C10 C 0.19614(17) 0.53393(16) 0.45967(9)
C11 C -0.05908(18) 0.80281(18) 0.41198(11)
C12 C -0.0702(3) 0.7911(3) 0.31072(12)
C13 C 0.0523(3) 0.7260(3) 0.26857(13)
C14 C 0.0800(2) 0.6007(2) 0.31358(11)
C15 C -0.14589(18) 0.89178(18) 0.45000(12)
C16 C -0.1668(2) 0.91866(19) 0.54311(14)
C17 C -0.2349(2) 0.9694(2) 0.39330(15)
C18 C 0.5081(3) 0.3115(3) 0.69577(16)
C19 C 0.5549(3) 0.1914(3) 0.5570(2)
H1 H 0.029(2) 0.805(2) 0.5831(14)
H2 H 0.181(2) 0.671(2) 0.6598(15)
H3 H 0.330(2) 0.487(2) 0.6616(14)
H4 H 0.400(2) 0.281(2) 0.4348(16)
H5 H 0.250(2) 0.415(2) 0.3578(15)
H6 H -0.087(3) 0.876(3) 0.2884(19)
H7 H -0.157(3) 0.734(3) 0.297(2)
H8 H 0.136(3) 0.782(2) 0.2741(16)
H9 H 0.033(3) 0.712(2) 0.2043(18)
H10 H 0.162(3) 0.559(2) 0.2865(16)
H11 H -0.003(3) 0.543(3) 0.3042(16)
H12 H 0.560(3) 0.241(3) 0.717(2)
H13 H 0.425(3) 0.323(3) 0.733(2)
H14 H 0.565(4) 0.397(4) 0.701(2)
H15 H 0.615(4) 0.224(3) 0.511(2)
H16 H 0.493(3) 0.137(3) 0.518(2)
H17 H 0.595(5) 0.133(4) 0.600(3)
loop_
_geom_bond_atom_site_label_1
_geom_bond_atom_site_label_2
_geom_bond_site_symmetry_1
_geom_bond_site_symmetry_2
N1 C16 1_555 1_555
N2 C17 1_555 1_555
N3 C7 1_555 1_555
C1 C2 1_555 1_555
C2 C3 1_555 1_555
C3 C4 1_555 1_555
C4 C5 1_555 1_555
C5 C6 1_555 1_555
C6 C7 1_555 1_555
C7 C8 1_555 1_555
C8 C9 1_555 1_555
C9 C10 1_555 1_555
C10 C1 1_555 1_555
C11 C2 1_555 1_555
C12 C11 1_555 1_555
C13 C12 1_555 1_555
C14 C1 1_555 1_555
C15 C11 1_555 1_555
C16 C15 1_555 1_555
C17 C15 1_555 1_555
C18 N3 1_555 1_555
C19 N3 1_555 1_555
H1 C3 1_555 1_555
H2 C4 1_555 1_555
H3 C6 1_555 1_555
H4 C8 1_555 1_555
H5 C9 1_555 1_555
H6 C12 1_555 1_555
H7 C12 1_555 1_555
H8 C13 1_555 1_555
H9 C13 1_555 1_555
H10 C14 1_555 1_555
H11 C14 1_555 1_555
H12 C18 1_555 1_555
H13 C18 1_555 1_555
H14 C18 1_555 1_555
H15 C19 1_555 1_555
H16 C19 1_555 1_555
H17 C19 1_555 1_555
C5 C10 1_555 1_555
C13 C14 1_555 1_555

#END
