
#######################################################################
#
#                 Cambridge Crystallographic Data Centre
#                                CCDC 
#
#######################################################################
#
# If this CIF has been generated from an entry in the Cambridge 
# Structural Database, then it will include bibliographic, chemical, 
# crystal, experimental, refinement or atomic coordinate data resulting 
# from the CCDC's data processing and validation procedures.
#
#######################################################################

data_ACULOZ
_chemical_formula_moiety         'C25 H27 N1 O4'
_chemical_name_systematic        
3-(n-Butoxy)-4-((2'S)-2'-(diphenyl(hydroxy)methyl)pyrrolidino)-3-cyclobutene-1,2-dione
_symmetry_cell_setting           monoclinic
_symmetry_space_group_name_H-M   'P 21'
_symmetry_Int_Tables_number      4
_space_group_name_Hall           'P 2yb'
loop_
_symmetry_equiv_pos_site_id
_symmetry_equiv_pos_as_xyz
1 x,y,z
2 -x,1/2+y,-z
_cell_length_a                   8.4105(18)
_cell_length_b                   13.377(3)
_cell_length_c                   10.201(2)
_cell_angle_alpha                90
_cell_angle_beta                 109.299(4)
_cell_angle_gamma                90
_cell_volume                     1083.19
_exptl_crystal_colour            colorless
_exptl_crystal_description       prism
_chemical_melting_point          162-163deg.C
_cell_formula_units_Z            2
loop_
_atom_site_label
_atom_site_type_symbol
_atom_site_fract_x
_atom_site_fract_y
_atom_site_fract_z
O1 O -0.08845(13) 0.35842(9) 0.60758(10)
O2 O -0.33308(13) 0.30883(9) 0.29366(12)
O3 O -0.03248(15) 0.39359(12) 0.18032(9)
O4 O 0.37721(11) 0.61028(8) 0.63437(9)
N1 N 0.20406(14) 0.43481(10) 0.48955(11)
C1 C 0.04768(18) 0.40385(11) 0.43398(14)
C2 C -0.08120(18) 0.36808(11) 0.49232(14)
C3 C -0.19348(19) 0.34649(12) 0.34630(15)
C4 C -0.05954(19) 0.38286(13) 0.29965(14)
C5 C -0.1672(3) 0.3703(3) 0.05455(18)
H1 H -0.2283(18) 0.3095(12) 0.0741(14)
H2 H -0.2475(19) 0.3947(13) 0.0376(14)
C6 C -0.1125(4) 0.3365(3) -0.0477(3)
H3 H -0.0705 0.3962 -0.0791
H4 H -0.2157 0.3197 -0.1218
C7 C -0.0008(4) 0.2628(2) -0.0570(3)
H5 H 0.1147 0.2734 -0.0190
C8 C -0.0649(4) 0.1687(3) -0.1263(3)
H6 H -0.1305 0.1697 -0.2228
H7 H -0.1305 0.1371 -0.0768
H8 H 0.0322 0.1275 -0.1149
C9 C 0.3237(2) 0.44331(17) 0.41407(17)
H9 H 0.2920(17) 0.3957(11) 0.3311(14)
H10 H 0.3317(19) 0.5078(12) 0.3867(15)
C10 C 0.4898(2) 0.4208(2) 0.5192(2)
H11 H 0.5191(17) 0.3658(12) 0.4914(14)
H12 H 0.5865(19) 0.4628(12) 0.5225(14)
C11 C 0.4671(2) 0.40730(16) 0.6573(2)
H13 H 0.5438(16) 0.4302(12) 0.7297(13)
H14 H 0.4556(19) 0.3427(14) 0.6578(15)
C12 C 0.28735(18) 0.44225(12) 0.63877(14)
H15 H 0.2347 0.3956 0.6861
C13 C 0.28247(16) 0.55090(12) 0.69640(13)
C14 C 0.10016(16) 0.58796(11) 0.65360(14)
C15 C 0.02600(19) 0.62806(13) 0.51920(16)
H16 H 0.0972(16) 0.6393(11) 0.4540(13)
C16 C -0.1396(2) 0.65901(13) 0.47486(19)
H17 H -0.190(2) 0.6806(15) 0.3837(17)
C17 C -0.2352(2) 0.65282(13) 0.5615(2)
H18 H -0.359(3) 0.684(2) 0.531(2)
C18 C -0.1654(2) 0.61609(16) 0.6918(2)
H19 H -0.222(2) 0.5947(19) 0.762(2)
C19 C 0.00164(18) 0.58293(13) 0.73816(16)
H20 H 0.0569(18) 0.5514(13) 0.8422(14)
C20 C 0.36698(17) 0.54727(12) 0.85533(14)
C21 C 0.3369(2) 0.47122(14) 0.93455(16)
H21 H 0.2607(18) 0.4127(13) 0.8832(14)
C22 C 0.4134(2) 0.47027(17) 1.07910(17)
H22 H 0.3910 0.4184 1.1312
C23 C 0.5198(2) 0.54467(19) 1.14321(17)
H23 H 0.571(2) 0.5375(15) 1.2453(17)
C24 C 0.5524(2) 0.61960(17) 1.06563(18)
H24 H 0.6270 0.6700 1.1097
C25 C 0.4771(2) 0.62270(14) 0.92249(16)
H25 H 0.527(3) 0.698(2) 0.876(3)
loop_
_geom_bond_atom_site_label_1
_geom_bond_atom_site_label_2
_geom_bond_site_symmetry_1
_geom_bond_site_symmetry_2
O1 C2 1_555 1_555
O2 C3 1_555 1_555
O3 C4 1_555 1_555
O4 C13 1_555 1_555
N1 C1 1_555 1_555
C1 C2 1_555 1_555
C2 C3 1_555 1_555
C3 C4 1_555 1_555
C4 C1 1_555 1_555
C5 O3 1_555 1_555
H1 C5 1_555 1_555
H2 C5 1_555 1_555
C6 C5 1_555 1_555
H3 C6 1_555 1_555
H4 C6 1_555 1_555
C7 C6 1_555 1_555
H5 C7 1_555 1_555
C8 C7 1_555 1_555
H6 C8 1_555 1_555
H7 C8 1_555 1_555
H8 C8 1_555 1_555
C9 N1 1_555 1_555
H9 C9 1_555 1_555
H10 C9 1_555 1_555
C10 C9 1_555 1_555
H11 C10 1_555 1_555
H12 C10 1_555 1_555
C11 C10 1_555 1_555
H13 C11 1_555 1_555
H14 C11 1_555 1_555
C12 N1 1_555 1_555
H15 C12 1_555 1_555
C13 C12 1_555 1_555
C14 C13 1_555 1_555
C15 C14 1_555 1_555
H16 C15 1_555 1_555
C16 C15 1_555 1_555
H17 C16 1_555 1_555
C17 C16 1_555 1_555
H18 C17 1_555 1_555
C18 C17 1_555 1_555
H19 C18 1_555 1_555
C19 C14 1_555 1_555
H20 C19 1_555 1_555
C20 C13 1_555 1_555
C21 C20 1_555 1_555
H21 C21 1_555 1_555
C22 C21 1_555 1_555
H22 C22 1_555 1_555
C23 C22 1_555 1_555
H23 C23 1_555 1_555
C24 C23 1_555 1_555
H24 C24 1_555 1_555
C25 C20 1_555 1_555
H25 C25 1_555 1_555
C11 C12 1_555 1_555
C18 C19 1_555 1_555
C24 C25 1_555 1_555

#END
