
#######################################################################
#
#                 Cambridge Crystallographic Data Centre
#                                CCDC 
#
#######################################################################
#
# If this CIF has been generated from an entry in the Cambridge 
# Structural Database, then it will include bibliographic, chemical, 
# crystal, experimental, refinement or atomic coordinate data resulting 
# from the CCDC's data processing and validation procedures.
#
#######################################################################

data_ACUNUJ
_chemical_formula_moiety         'C26 H33 N1 O1'
_chemical_name_systematic        
2,4-Di-t-butyl-6-(((2-(1H-inden-3-yl)ethyl)imino)methyl)phenol
_symmetry_cell_setting           monoclinic
_symmetry_space_group_name_H-M   'P 21/c'
_symmetry_Int_Tables_number      14
_space_group_name_Hall           '-P 2ybc'
loop_
_symmetry_equiv_pos_site_id
_symmetry_equiv_pos_as_xyz
1 x,y,z
2 -x,1/2+y,1/2-z
3 -x,-y,-z
4 x,1/2-y,1/2+z
_cell_length_a                   9.771(2)
_cell_length_b                   19.561(4)
_cell_length_c                   11.901(3)
_cell_angle_alpha                90
_cell_angle_beta                 99.955(5)
_cell_angle_gamma                90
_cell_volume                     2240.4
_exptl_crystal_colour            yellow
_exptl_crystal_description       block
_cell_formula_units_Z            4
loop_
_atom_site_label
_atom_site_type_symbol
_atom_site_fract_x
_atom_site_fract_y
_atom_site_fract_z
O1 O 0.58764(15) 0.63977(8) 0.51077(13)
H1 H 0.6034 0.6082 0.4668
N1 N 0.5386(2) 0.54222(9) 0.36524(15)
C1 C 0.4488(2) 0.64362(11) 0.51126(17)
C2 C 0.3581(2) 0.59828(11) 0.44360(17)
C3 C 0.2154(2) 0.60284(12) 0.44264(19)
H2 H 0.1550 0.5719 0.3966
C4 C 0.1592(2) 0.65106(12) 0.50667(19)
C5 C 0.2537(2) 0.69443(11) 0.57492(18)
H3 H 0.2173 0.7274 0.6204
C6 C 0.3974(2) 0.69234(11) 0.58048(17)
C7 C 0.6953(2) 0.46979(12) 0.12041(19)
C8 C 0.7286(3) 0.40415(12) 0.1454(2)
H4 H 0.7028 0.3800 0.2078
C9 C 0.8112(3) 0.37392(13) 0.0631(2)
H5 H 0.7621 0.3346 0.0219
H6 H 0.9040 0.3589 0.1023
C10 C 0.8224(2) 0.43245(12) -0.01638(19)
C11 C 0.8939(3) 0.43796(14) -0.1068(2)
H7 H 0.9417 0.3997 -0.1304
C12 C 0.8944(3) 0.50018(15) -0.1621(2)
H8 H 0.9450 0.5048 -0.2230
C13 C 0.8223(3) 0.55560(15) -0.1301(2)
H9 H 0.8221 0.5975 -0.1704
C14 C 0.7501(3) 0.55063(13) -0.0395(2)
H10 H 0.7005 0.5887 -0.0175
C15 C 0.7520(2) 0.48881(12) 0.01819(19)
C16 C 0.4109(2) 0.54623(11) 0.37396(18)
H11 H 0.3475 0.5142 0.3337
C17 C 0.5821(3) 0.48885(12) 0.2928(2)
H12 H 0.5048 0.4561 0.2706
H13 H 0.6617 0.4635 0.3363
C18 C 0.6238(3) 0.51923(12) 0.18645(19)
H14 H 0.5395 0.5367 0.1364
H15 H 0.6862 0.5586 0.2088
C19 C 0.0022(2) 0.65585(13) 0.5053(2)
C20 C -0.0721(8) 0.6688(6) 0.3855(8)
H16 H -0.0693 0.7178 0.3686
H17 H -0.1690 0.6539 0.3783
H18 H -0.0264 0.6432 0.3317
C21 C -0.0327(6) 0.7141(4) 0.5844(8)
H19 H 0.0494 0.7243 0.6419
H20 H -0.1093 0.6998 0.6223
H21 H -0.0600 0.7552 0.5388
C22 C -0.0376(9) 0.5913(5) 0.5575(11)
H22 H -0.0022 0.5919 0.6397
H23 H 0.0022 0.5523 0.5227
H24 H -0.1391 0.5872 0.5444
C23 C 0.4951(2) 0.74156(11) 0.65695(19)
C24 C 0.5702(3) 0.78775(13) 0.5821(2)
H25 H 0.6206 0.7593 0.5350
H26 H 0.6361 0.8174 0.6310
H27 H 0.5019 0.8159 0.5326
C25 C 0.6017(3) 0.70090(13) 0.7408(2)
H28 H 0.6564 0.6718 0.6982
H29 H 0.5531 0.6723 0.7889
H30 H 0.6636 0.7326 0.7890
C26 C 0.4162(3) 0.78795(13) 0.7284(2)
H31 H 0.4824 0.8177 0.7770
H32 H 0.3667 0.7597 0.7763
H33 H 0.3494 0.8161 0.6775
C27? C -0.0803(7) 0.6172(7) 0.4027(8)
C28? C -0.0481(8) 0.7288(5) 0.4801(11)
C29? C -0.0434(11) 0.6251(9) 0.6077(10)
H34? H -0.0205 0.5828 0.3761
H35? H -0.1123 0.6496 0.3409
H36? H -0.1607 0.5947 0.4257
H37? H -0.0034 0.7591 0.5412
H38? H -0.1491 0.7307 0.4757
H39? H -0.0242 0.7436 0.4073
H40? H 0.0050 0.6478 0.6767
H41? H -0.0210 0.5762 0.6113
H42? H -0.1439 0.6312 0.6022
loop_
_geom_bond_atom_site_label_1
_geom_bond_atom_site_label_2
_geom_bond_site_symmetry_1
_geom_bond_site_symmetry_2
O1 H1 1_555 1_555
N1 C16 1_555 1_555
C1 O1 1_555 1_555
C2 C1 1_555 1_555
C3 C2 1_555 1_555
H2 C3 1_555 1_555
C4 C3 1_555 1_555
C5 C4 1_555 1_555
H3 C5 1_555 1_555
C6 C1 1_555 1_555
C7 C8 1_555 1_555
C8 H4 1_555 1_555
C9 C8 1_555 1_555
H5 C9 1_555 1_555
H6 C9 1_555 1_555
C10 C9 1_555 1_555
C11 C10 1_555 1_555
H7 C11 1_555 1_555
C12 C11 1_555 1_555
H8 C12 1_555 1_555
C13 C12 1_555 1_555
H9 C13 1_555 1_555
C14 C13 1_555 1_555
H10 C14 1_555 1_555
C15 C7 1_555 1_555
C16 C2 1_555 1_555
H11 C16 1_555 1_555
C17 N1 1_555 1_555
H12 C17 1_555 1_555
H13 C17 1_555 1_555
C18 C7 1_555 1_555
H14 C18 1_555 1_555
H15 C18 1_555 1_555
C19 C4 1_555 1_555
C20 C19 1_555 1_555
H16 C20 1_555 1_555
H17 C20 1_555 1_555
H18 C20 1_555 1_555
C21 C19 1_555 1_555
H19 C21 1_555 1_555
H20 C21 1_555 1_555
H21 C21 1_555 1_555
C22 C19 1_555 1_555
H22 C22 1_555 1_555
H23 C22 1_555 1_555
H24 C22 1_555 1_555
C23 C6 1_555 1_555
C24 C23 1_555 1_555
H25 C24 1_555 1_555
H26 C24 1_555 1_555
H27 C24 1_555 1_555
C25 C23 1_555 1_555
H28 C25 1_555 1_555
H29 C25 1_555 1_555
H30 C25 1_555 1_555
C26 C23 1_555 1_555
H31 C26 1_555 1_555
H32 C26 1_555 1_555
H33 C26 1_555 1_555
C5 C6 1_555 1_555
C10 C15 1_555 1_555
C14 C15 1_555 1_555
C17 C18 1_555 1_555

#END
