
#######################################################################
#
#                 Cambridge Crystallographic Data Centre
#                                CCDC 
#
#######################################################################
#
# If this CIF has been generated from an entry in the Cambridge 
# Structural Database, then it will include bibliographic, chemical, 
# crystal, experimental, refinement or atomic coordinate data resulting 
# from the CCDC's data processing and validation procedures.
#
#######################################################################

data_ACUPAR
_chemical_formula_moiety         'C30 H35 N1 O1'
_chemical_name_systematic        
2,4-Di-t-butyl-6-(((2-(9H-fluoren-9-yl)ethyl)imino)methyl)phenol
_symmetry_cell_setting           triclinic
_symmetry_space_group_name_H-M   'P -1'
_symmetry_Int_Tables_number      2
_space_group_name_Hall           '-P 1'
loop_
_symmetry_equiv_pos_site_id
_symmetry_equiv_pos_as_xyz
1 x,y,z
2 -x,-y,-z
_cell_length_a                   9.688(3)
_cell_length_b                   9.699(3)
_cell_length_c                   13.535(5)
_cell_angle_alpha                95.280(7)
_cell_angle_beta                 105.394(11)
_cell_angle_gamma                90.987(12)
_cell_volume                     1219.82
_exptl_crystal_colour            yellow
_exptl_crystal_description       block
_cell_formula_units_Z            2
loop_
_atom_site_label
_atom_site_type_symbol
_atom_site_fract_x
_atom_site_fract_y
_atom_site_fract_z
O1 O 0.46710(14) 0.09641(17) 0.67833(11)
N1 N 0.41447(18) 0.19662(19) 0.50386(13)
C1 C 0.60872(19) 0.1023(2) 0.68200(15)
C2 C 0.7107(2) 0.0666(2) 0.77031(15)
C3 C 0.8537(2) 0.0785(2) 0.76947(15)
H1 H 0.9242 0.0557 0.8285
C4 C 0.9010(2) 0.1222(2) 0.68722(15)
C5 C 0.7970(2) 0.1510(2) 0.60105(15)
H2 H 0.8246 0.1763 0.5427
C6 C 0.6510(2) 0.1437(2) 0.59779(15)
C7 C 0.5469(2) 0.1868(2) 0.50811(15)
H3 H 0.5790 0.2084 0.4506
C8 C 0.3198(2) 0.2521(2) 0.41487(16)
H4 H 0.2293 0.1949 0.3912
H5 H 0.3661 0.2489 0.3578
C9 C 0.2877(2) 0.4009(2) 0.44395(16)
H6 H 0.3796 0.4541 0.4747
H7 H 0.2349 0.4014 0.4974
C10 C 0.1998(2) 0.4752(2) 0.35399(16)
H8 H 0.1935 0.5739 0.3806
C11 C 0.0486(2) 0.4177(2) 0.30392(16)
C12 C -0.0629(2) 0.3974(2) 0.34780(18)
H9 H -0.0479 0.4125 0.4203
C13 C -0.1972(2) 0.3546(3) 0.2842(2)
H10 H -0.2748 0.3417 0.3135
C14 C -0.2195(3) 0.3305(3) 0.1794(2)
H11 H -0.3121 0.3008 0.1372
C15 C -0.1090(2) 0.3489(2) 0.13475(18)
H12 H -0.1246 0.3315 0.0623
C16 C 0.0255(2) 0.3931(2) 0.19723(16)
C17 C 0.2623(2) 0.4755(2) 0.26267(17)
C18 C 0.3990(2) 0.5165(2) 0.26005(19)
H13 H 0.4691 0.5496 0.3217
C19 C 0.4321(3) 0.5087(3) 0.1667(2)
H14 H 0.5256 0.5361 0.1642
C20 C 0.3301(3) 0.4613(3) 0.0766(2)
H15 H 0.3549 0.4560 0.0130
C21 C 0.1923(3) 0.4214(3) 0.07759(19)
H16 H 0.1223 0.3904 0.0154
C22 C 0.1590(2) 0.4278(2) 0.17140(16)
C23 C 0.6657(2) 0.0197(2) 0.86261(15)
C24 C 0.7951(2) -0.0133(3) 0.94910(17)
H17 H 0.8475 -0.0875 0.9232
H18 H 0.7620 -0.0433 1.0065
H19 H 0.8584 0.0698 0.9730
C25 C 0.5692(2) -0.1121(2) 0.83106(17)
H20 H 0.4848 -0.0952 0.7756
H21 H 0.5388 -0.1384 0.8905
H22 H 0.6223 -0.1872 0.8069
C26 C 0.5865(2) 0.1360(2) 0.90648(17)
H23 H 0.6475 0.2212 0.9238
H24 H 0.5640 0.1088 0.9686
H25 H 0.4975 0.1523 0.8550
C27 C 1.0619(2) 0.1359(2) 0.69736(17)
C28 C 1.1340(2) 0.2376(3) 0.79204(19)
H26 H 1.1178 0.2030 0.8540
H27 H 1.0929 0.3288 0.7834
H28 H 1.2372 0.2457 0.7990
C29 C 1.0928(2) 0.1917(3) 0.6029(2)
H29 H 1.1966 0.2031 0.6137
H30 H 1.0491 0.2814 0.5925
H31 H 1.0525 0.1261 0.5420
C30 C 1.1281(2) -0.0054(3) 0.7113(2)
H32 H 1.1113 -0.0408 0.7728
H33 H 1.2315 0.0043 0.7193
H34 H 1.0841 -0.0703 0.6507
H35 H 0.415(3) 0.145(3) 0.603(3)
loop_
_geom_bond_atom_site_label_1
_geom_bond_atom_site_label_2
_geom_bond_site_symmetry_1
_geom_bond_site_symmetry_2
O1 C1 1_555 1_555
N1 C7 1_555 1_555
C1 C2 1_555 1_555
C2 C3 1_555 1_555
C3 H1 1_555 1_555
C4 C3 1_555 1_555
C5 C4 1_555 1_555
H2 C5 1_555 1_555
C6 C1 1_555 1_555
C7 C6 1_555 1_555
H3 C7 1_555 1_555
C8 N1 1_555 1_555
H4 C8 1_555 1_555
H5 C8 1_555 1_555
C9 C8 1_555 1_555
H6 C9 1_555 1_555
H7 C9 1_555 1_555
C10 C9 1_555 1_555
H8 C10 1_555 1_555
C11 C10 1_555 1_555
C12 C11 1_555 1_555
H9 C12 1_555 1_555
C13 C12 1_555 1_555
H10 C13 1_555 1_555
C14 C13 1_555 1_555
H11 C14 1_555 1_555
C15 C14 1_555 1_555
H12 C15 1_555 1_555
C16 C11 1_555 1_555
C17 C10 1_555 1_555
C18 C17 1_555 1_555
H13 C18 1_555 1_555
C19 C18 1_555 1_555
H14 C19 1_555 1_555
C20 C19 1_555 1_555
H15 C20 1_555 1_555
C21 C20 1_555 1_555
H16 C21 1_555 1_555
C22 C16 1_555 1_555
C23 C2 1_555 1_555
C24 C23 1_555 1_555
H17 C24 1_555 1_555
H18 C24 1_555 1_555
H19 C24 1_555 1_555
C25 C23 1_555 1_555
H20 C25 1_555 1_555
H21 C25 1_555 1_555
H22 C25 1_555 1_555
C26 C23 1_555 1_555
H23 C26 1_555 1_555
H24 C26 1_555 1_555
H25 C26 1_555 1_555
C27 C4 1_555 1_555
C28 C27 1_555 1_555
H26 C28 1_555 1_555
H27 C28 1_555 1_555
H28 C28 1_555 1_555
C29 C27 1_555 1_555
H29 C29 1_555 1_555
H30 C29 1_555 1_555
H31 C29 1_555 1_555
C30 C27 1_555 1_555
H32 C30 1_555 1_555
H33 C30 1_555 1_555
H34 C30 1_555 1_555
H35 O1 1_555 1_555
C5 C6 1_555 1_555
C15 C16 1_555 1_555
C17 C22 1_555 1_555
C21 C22 1_555 1_555

#END
