
#######################################################################
#
#                 Cambridge Crystallographic Data Centre
#                                CCDC 
#
#######################################################################
#
# If this CIF has been generated from an entry in the Cambridge 
# Structural Database, then it will include bibliographic, chemical, 
# crystal, experimental, refinement or atomic coordinate data resulting 
# from the CCDC's data processing and validation procedures.
#
#######################################################################

data_ACUPUL
_chemical_compound_source        'Marine Sponge Plakortis simplex'
_chemical_name_common            
5-(4-Butyl-2-ethyl-2-hydroxy-5-methylcyclopentyl)-5-ethyl-4-hydroxydihydrofuran-2(3H)-one
_chemical_formula_moiety         'C18 H32 O4'
_chemical_name_systematic        'simplextone A'
_symmetry_cell_setting           orthorhombic
_symmetry_space_group_name_H-M   'P 21 21 21'
_symmetry_Int_Tables_number      19
_space_group_name_Hall           'P 2ac 2ab'
loop_
_symmetry_equiv_pos_site_id
_symmetry_equiv_pos_as_xyz
1 x,y,z
2 1/2-x,-y,1/2+z
3 -x,1/2+y,1/2-z
4 1/2+x,1/2-y,-z
_cell_length_a                   8.8776(2)
_cell_length_b                   9.1630(2)
_cell_length_c                   22.9904(5)
_cell_angle_alpha                90
_cell_angle_beta                 90
_cell_angle_gamma                90
_cell_volume                     1870.16
_exptl_crystal_colour            colorless
_exptl_crystal_description       block
_cell_formula_units_Z            4
loop_
_atom_site_label
_atom_site_type_symbol
_atom_site_fract_x
_atom_site_fract_y
_atom_site_fract_z
O1 O 0.5384(2) 0.5090(2) 0.78636(9)
O2 O 0.64933(13) 0.68008(14) 0.83903(6)
O3 O 0.90191(14) 0.84728(13) 0.74127(6)
H1 H 0.9490 0.7714 0.7464
O4 O 0.95586(12) 0.59801(12) 0.78697(5)
H2 H 0.9982 0.5209 0.7792
C1 C 0.61031(19) 0.6192(2) 0.78808(9)
C2 C 0.6654(2) 0.7086(2) 0.73859(9)
H3 H 0.5813 0.7464 0.7163
H4 H 0.7283 0.6504 0.7131
C3 C 0.75555(17) 0.83280(17) 0.76487(8)
H5 H 0.7012 0.9235 0.7565
C4 C 0.74699(16) 0.80699(18) 0.83197(8)
C5 C 0.89437(17) 0.77318(18) 0.86540(7)
H6 H 0.9591 0.8596 0.8629
C6 C 0.98944(17) 0.63842(17) 0.84581(7)
C7 C 0.9435(2) 0.5181(2) 0.88814(8)
H7 H 0.8474 0.4759 0.8772
H8 H 1.0188 0.4414 0.8894
C8 C 0.9323(2) 0.5958(3) 0.94655(8)
H9 H 1.0346 0.6127 0.9612
C9 C 0.8621(2) 0.7436(3) 0.93109(8)
H10 H 0.7528 0.7332 0.9353
C10 C 0.6629(2) 0.9368(2) 0.85893(11)
H11 H 0.5656 0.9461 0.8401
H12 H 0.6448 0.9162 0.8997
C11 C 0.7462(3) 1.0823(3) 0.85402(16)
H13 H 0.6871 1.1579 0.8718
H14 H 0.7622 1.1052 0.8137
H15 H 0.8416 1.0752 0.8735
C12 C 1.1596(2) 0.6709(2) 0.85133(10)
H16 H 1.1801 0.6986 0.8913
H17 H 1.2143 0.5813 0.8438
C13 C 1.2225(2) 0.7889(3) 0.81181(14)
H18 H 1.3284 0.8001 0.8190
H19 H 1.1719 0.8794 0.8195
H20 H 1.2069 0.7616 0.7719
C14 C 0.9114(5) 0.8649(4) 0.97206(13)
H21 H 0.8879 0.8381 1.0114
H22 H 0.8593 0.9534 0.9622
H23 H 1.0180 0.8799 0.9684
C15 C 0.8437(4) 0.5152(4) 0.99305(11)
H24 H 0.7433 0.4955 0.9783
H25 H 0.8335 0.5782 1.0267
C16 C 0.9142(5) 0.3726(4) 1.01213(11)
H26 H 0.9095 0.3032 0.9803
H27 H 1.0195 0.3888 1.0214
C17 C 0.8352(7) 0.3087(5) 1.06483(15)
H28 H 0.8459 0.3762 1.0971
H29 H 0.7286 0.3002 1.0562
C18 C 0.8903(8) 0.1684(5) 1.08273(19)
H30 H 0.8356 0.1363 1.1164
H31 H 0.9954 0.1756 1.0920
H32 H 0.8765 0.0995 1.0517
loop_
_geom_bond_atom_site_label_1
_geom_bond_atom_site_label_2
_geom_bond_site_symmetry_1
_geom_bond_site_symmetry_2
O1 C1 1_555 1_555
O2 C1 1_555 1_555
O3 H1 1_555 1_555
O4 H2 1_555 1_555
C1 C2 1_555 1_555
C2 H3 1_555 1_555
H4 C2 1_555 1_555
C3 O3 1_555 1_555
H5 C3 1_555 1_555
C4 O2 1_555 1_555
C5 C4 1_555 1_555
H6 C5 1_555 1_555
C6 O4 1_555 1_555
C7 C6 1_555 1_555
H7 C7 1_555 1_555
H8 C7 1_555 1_555
C8 C7 1_555 1_555
H9 C8 1_555 1_555
C9 C5 1_555 1_555
H10 C9 1_555 1_555
C10 C4 1_555 1_555
H11 C10 1_555 1_555
H12 C10 1_555 1_555
C11 C10 1_555 1_555
H13 C11 1_555 1_555
H14 C11 1_555 1_555
H15 C11 1_555 1_555
C12 C6 1_555 1_555
H16 C12 1_555 1_555
H17 C12 1_555 1_555
C13 C12 1_555 1_555
H18 C13 1_555 1_555
H19 C13 1_555 1_555
H20 C13 1_555 1_555
C14 C9 1_555 1_555
H21 C14 1_555 1_555
H22 C14 1_555 1_555
H23 C14 1_555 1_555
C15 C8 1_555 1_555
H24 C15 1_555 1_555
H25 C15 1_555 1_555
C16 C15 1_555 1_555
H26 C16 1_555 1_555
H27 C16 1_555 1_555
C17 C16 1_555 1_555
H28 C17 1_555 1_555
H29 C17 1_555 1_555
C18 C17 1_555 1_555
H30 C18 1_555 1_555
H31 C18 1_555 1_555
H32 C18 1_555 1_555
C2 C3 1_555 1_555
C3 C4 1_555 1_555
C5 C6 1_555 1_555
C8 C9 1_555 1_555

#END
