
#######################################################################
#
#                 Cambridge Crystallographic Data Centre
#                                CCDC 
#
#######################################################################
#
# If this CIF has been generated from an entry in the Cambridge 
# Structural Database, then it will include bibliographic, chemical, 
# crystal, experimental, refinement or atomic coordinate data resulting 
# from the CCDC's data processing and validation procedures.
#
#######################################################################

data_ACUQIA
_chemical_formula_moiety         'C22 H29 N1 O4 S1'
_chemical_name_systematic        
(S,S,S,R)-2-Benzyl-6-(2-hydroxypropyl)-1-((4-methylphenyl)sulfonyl)piperidin-4-ol
_symmetry_cell_setting           orthorhombic
_symmetry_space_group_name_H-M   'P 21 21 21'
_symmetry_Int_Tables_number      19
_space_group_name_Hall           'P 2ac 2ab'
loop_
_symmetry_equiv_pos_site_id
_symmetry_equiv_pos_as_xyz
1 x,y,z
2 1/2+x,1/2-y,-z
3 -x,1/2+y,1/2-z
4 1/2-x,-y,1/2+z
_cell_length_a                   13.8629(4)
_cell_length_b                   16.9650(4)
_cell_length_c                   17.9277(4)
_cell_angle_alpha                90
_cell_angle_beta                 90
_cell_angle_gamma                90
_cell_volume                     4216.31
_cell_formula_units_Z            8
loop_
_atom_site_label
_atom_site_type_symbol
_atom_site_fract_x
_atom_site_fract_y
_atom_site_fract_z
C1 C 0.37810(10) 0.19794(8) 0.65331(7)
H1 H 0.3664 0.1892 0.7066
C2 C 0.48323(10) 0.22569(9) 0.64604(8)
H2 H 0.4958 0.2651 0.6840
H3 H 0.5257 0.1813 0.6555
C3 C 0.50741(10) 0.26044(10) 0.56978(8)
H4 H 0.5078 0.2183 0.5324
C4 C 0.43396(10) 0.32256(9) 0.54766(8)
H5 H 0.4469 0.3395 0.4970
H6 H 0.4411 0.3680 0.5800
C5 C 0.33030(10) 0.29248(8) 0.55259(7)
H7 H 0.3257 0.2476 0.5184
C6 C 0.35435(11) 0.12034(9) 0.61372(8)
H8 H 0.3607 0.1275 0.5603
H9 H 0.4001 0.0803 0.6291
C7 C 0.25344(11) 0.09292(8) 0.63142(8)
C8 C 0.22771(12) 0.07751(10) 0.70521(9)
H10 H 0.2739 0.0821 0.7426
C9 C 0.13477(13) 0.05558(11) 0.72385(10)
H11 H 0.1189 0.0463 0.7735
C10 C 0.06504(13) 0.04726(10) 0.66883(10)
H12 H 0.0024 0.0328 0.6812
C11 C 0.09035(13) 0.06090(10) 0.59509(11)
H13 H 0.0448 0.0540 0.5576
C12 C 0.18268(12) 0.08461(9) 0.57699(9)
H14 H 0.1979 0.0952 0.5275
C13 C 0.25580(11) 0.35298(9) 0.52618(7)
H15 H 0.1918 0.3316 0.5345
H16 H 0.2620 0.4001 0.5565
C14 C 0.26478(11) 0.37609(8) 0.44463(8)
H17 H 0.3285 0.3994 0.4359
C15 C 0.18713(13) 0.43538(10) 0.42377(9)
H18 H 0.1913 0.4470 0.3714
H19 H 0.1963 0.4829 0.4519
H20 H 0.1248 0.4137 0.4348
C16 C 0.14870(10) 0.33778(8) 0.67413(7)
C17 C 0.08613(10) 0.27496(9) 0.66587(8)
H21 H 0.1080 0.2235 0.6714
C18 C -0.01026(10) 0.29011(9) 0.64912(8)
H22 H -0.0530 0.2483 0.6436
C19 C -0.04349(10) 0.36703(9) 0.64050(8)
C20 C 0.02169(11) 0.42916(9) 0.64915(8)
H23 H 0.0005 0.4808 0.6430
C21 C 0.11749(10) 0.41504(9) 0.66669(8)
H24 H 0.1602 0.4567 0.6734
C22 C -0.14747(11) 0.38373(10) 0.62179(10)
H25 H -0.1791 0.4061 0.6645
H26 H -0.1791 0.3355 0.6081
H27 H -0.1505 0.4202 0.5809
N1 N 0.30963(8) 0.26113(7) 0.62902(6)
O1 O 0.59866(8) 0.29883(7) 0.57015(7)
H28 H 0.6401 0.2681 0.5848
O2 O 0.25544(8) 0.30510(6) 0.40144(6)
H29 H 0.2483 0.3165 0.3573
O3 O 0.32001(7) 0.39588(6) 0.69296(6)
O4 O 0.27585(8) 0.27663(6) 0.76314(5)
S1 S 0.27172(2) 0.32091(2) 0.694394(18)
C23 C 0.19692(10) 0.77054(9) 0.66590(7)
H30 H 0.2124 0.7706 0.7192
C24 C 0.09291(11) 0.74064(10) 0.65835(8)
H31 H 0.0852 0.6940 0.6891
H32 H 0.0493 0.7807 0.6773
C25 C 0.06414(11) 0.72052(10) 0.57830(9)
H33 H 0.0579 0.7692 0.5492
C26 C 0.13854(11) 0.66712(10) 0.54203(8)
H34 H 0.1228 0.6610 0.4896
H35 H 0.1355 0.6155 0.5651
C27 C 0.24113(10) 0.69900(8) 0.54897(8)
H36 H 0.2414 0.7504 0.5240
C28 C 0.21481(10) 0.85437(9) 0.63718(8)
H37 H 0.1980 0.8569 0.5847
H38 H 0.1732 0.8907 0.6638
C29 C 0.31803(11) 0.87978(8) 0.64685(8)
C30 C 0.35972(11) 0.88386(9) 0.71776(8)
H39 H 0.3225 0.8719 0.7594
C31 C 0.45514(12) 0.90531(9) 0.72707(9)
H40 H 0.4815 0.9072 0.7747
C32 C 0.51169(11) 0.92394(9) 0.66602(9)
H41 H 0.5758 0.9386 0.6723
C33 C 0.47160(11) 0.92050(10) 0.59536(9)
H42 H 0.5089 0.9333 0.5540
C34 C 0.37605(11) 0.89805(9) 0.58594(8)
H43 H 0.3504 0.8952 0.5381
C35 C 0.31653(11) 0.64851(9) 0.50895(7)
H44 H 0.3802 0.6686 0.5208
H45 H 0.3126 0.5950 0.5278
C36 C 0.30467(11) 0.64690(9) 0.42449(8)
H46 H 0.2401 0.6274 0.4119
C37 C 0.38023(12) 0.59383(10) 0.38898(9)
H47 H 0.3728 0.5947 0.3357
H48 H 0.3721 0.5409 0.4068
H49 H 0.4435 0.6124 0.4019
C38 C 0.42364(10) 0.62640(9) 0.65503(8)
C39 C 0.48616(10) 0.68996(9) 0.64950(8)
H50 H 0.4653 0.7407 0.6606
C40 C 0.58058(10) 0.67614(9) 0.62704(8)
H51 H 0.6231 0.7183 0.6228
C41 C 0.61265(11) 0.60011(9) 0.61070(7)
C42 C 0.54825(12) 0.53751(9) 0.61746(9)
H52 H 0.5689 0.4866 0.6068
C43 C 0.45364(11) 0.55004(9) 0.63983(8)
H53 H 0.4111 0.5080 0.6445
C44 C 0.71465(11) 0.58494(10) 0.58590(9)
H54 H 0.7471 0.5533 0.6225
H55 H 0.7479 0.6342 0.5803
H56 H 0.7141 0.5576 0.5390
N2 N 0.26541(8) 0.71435(7) 0.62910(6)
O5 O -0.02480(8) 0.67842(8) 0.57661(7)
H57 H -0.0687 0.7076 0.5900
O6 O 0.31482(8) 0.72648(6) 0.39869(6)
H58 H 0.2971 0.7293 0.3551
O7 O 0.25112(8) 0.56949(7) 0.66576(7)
O8 O 0.30224(8) 0.66962(8) 0.75705(6)
S2 S 0.30249(3) 0.64120(2) 0.681197(19)
loop_
_geom_bond_atom_site_label_1
_geom_bond_atom_site_label_2
_geom_bond_site_symmetry_1
_geom_bond_site_symmetry_2
C1 H1 1_555 1_555
C2 C1 1_555 1_555
H2 C2 1_555 1_555
H3 C2 1_555 1_555
C3 C2 1_555 1_555
H4 C3 1_555 1_555
C4 C3 1_555 1_555
H5 C4 1_555 1_555
H6 C4 1_555 1_555
C5 C4 1_555 1_555
H7 C5 1_555 1_555
C6 C1 1_555 1_555
H8 C6 1_555 1_555
H9 C6 1_555 1_555
C7 C6 1_555 1_555
C8 C7 1_555 1_555
H10 C8 1_555 1_555
C9 C8 1_555 1_555
H11 C9 1_555 1_555
C10 C9 1_555 1_555
H12 C10 1_555 1_555
C11 C10 1_555 1_555
H13 C11 1_555 1_555
C12 C7 1_555 1_555
H14 C12 1_555 1_555
C13 C5 1_555 1_555
H15 C13 1_555 1_555
H16 C13 1_555 1_555
C14 C13 1_555 1_555
H17 C14 1_555 1_555
C15 C14 1_555 1_555
H18 C15 1_555 1_555
H19 C15 1_555 1_555
H20 C15 1_555 1_555
C16 C17 1_555 1_555
C17 H21 1_555 1_555
C18 C17 1_555 1_555
H22 C18 1_555 1_555
C19 C18 1_555 1_555
C20 C19 1_555 1_555
H23 C20 1_555 1_555
C21 C16 1_555 1_555
H24 C21 1_555 1_555
C22 C19 1_555 1_555
H25 C22 1_555 1_555
H26 C22 1_555 1_555
H27 C22 1_555 1_555
N1 C1 1_555 1_555
O1 C3 1_555 1_555
H28 O1 1_555 1_555
O2 C14 1_555 1_555
H29 O2 1_555 1_555
O3 S1 1_555 1_555
O4 S1 1_555 1_555
S1 C16 1_555 1_555
C23 H30 1_555 1_555
C24 C23 1_555 1_555
H31 C24 1_555 1_555
H32 C24 1_555 1_555
C25 C24 1_555 1_555
H33 C25 1_555 1_555
C26 C25 1_555 1_555
H34 C26 1_555 1_555
H35 C26 1_555 1_555
C27 C26 1_555 1_555
H36 C27 1_555 1_555
C28 C23 1_555 1_555
H37 C28 1_555 1_555
H38 C28 1_555 1_555
C29 C28 1_555 1_555
C30 C29 1_555 1_555
H39 C30 1_555 1_555
C31 C30 1_555 1_555
H40 C31 1_555 1_555
C32 C31 1_555 1_555
H41 C32 1_555 1_555
C33 C32 1_555 1_555
H42 C33 1_555 1_555
C34 C29 1_555 1_555
H43 C34 1_555 1_555
C35 C27 1_555 1_555
H44 C35 1_555 1_555
H45 C35 1_555 1_555
C36 C35 1_555 1_555
H46 C36 1_555 1_555
C37 C36 1_555 1_555
H47 C37 1_555 1_555
H48 C37 1_555 1_555
H49 C37 1_555 1_555
C38 C39 1_555 1_555
C39 H50 1_555 1_555
C40 C39 1_555 1_555
H51 C40 1_555 1_555
C41 C40 1_555 1_555
C42 C41 1_555 1_555
H52 C42 1_555 1_555
C43 C38 1_555 1_555
H53 C43 1_555 1_555
C44 C41 1_555 1_555
H54 C44 1_555 1_555
H55 C44 1_555 1_555
H56 C44 1_555 1_555
N2 C23 1_555 1_555
O5 C25 1_555 1_555
H57 O5 1_555 1_555
O6 C36 1_555 1_555
H58 O6 1_555 1_555
O7 S2 1_555 1_555
O8 S2 1_555 1_555
S2 C38 1_555 1_555
C5 N1 1_555 1_555
C11 C12 1_555 1_555
C20 C21 1_555 1_555
N1 S1 1_555 1_555
C27 N2 1_555 1_555
C33 C34 1_555 1_555
C42 C43 1_555 1_555
N2 S2 1_555 1_555

#END
