
#######################################################################
#
#                 Cambridge Crystallographic Data Centre
#                                CCDC 
#
#######################################################################
#
# If this CIF has been generated from an entry in the Cambridge 
# Structural Database, then it will include bibliographic, chemical, 
# crystal, experimental, refinement or atomic coordinate data resulting 
# from the CCDC's data processing and validation procedures.
#
#######################################################################

data_ACUQEW
_chemical_formula_moiety         'C22 H29 N1 O4 S1'
_chemical_name_systematic        
(S,R,S,R)-2-Benzyl-6-(2-hydroxypropyl)-1-((4-methylphenyl)sulfonyl)piperidin-4-ol
_symmetry_cell_setting           orthorhombic
_symmetry_space_group_name_H-M   'P 21 21 21'
_symmetry_Int_Tables_number      19
_space_group_name_Hall           'P 2ac 2ab'
loop_
_symmetry_equiv_pos_site_id
_symmetry_equiv_pos_as_xyz
1 x,y,z
2 1/2+x,1/2-y,-z
3 -x,1/2+y,1/2-z
4 1/2-x,-y,1/2+z
_cell_length_a                   8.2223(5)
_cell_length_b                   13.0939(8)
_cell_length_c                   19.2454(12)
_cell_angle_alpha                90
_cell_angle_beta                 90
_cell_angle_gamma                90
_cell_volume                     2072
_cell_formula_units_Z            4
loop_
_atom_site_label
_atom_site_type_symbol
_atom_site_fract_x
_atom_site_fract_y
_atom_site_fract_z
C1 C 0.5985(2) 0.49849(14) 0.35228(10)
H1 H 0.5942 0.4861 0.4025
C2 C 0.7377(2) 0.57286(15) 0.34002(10)
H2 H 0.8397 0.5364 0.3449
H3 H 0.7344 0.6251 0.3757
C3 C 0.7348(2) 0.62493(15) 0.26871(10)
H4 H 0.8156 0.6799 0.2687
C4 C 0.5688(2) 0.67130(14) 0.25486(10)
H5 H 0.5669 0.6964 0.2075
H6 H 0.5548 0.7296 0.2854
C5 C 0.4237(2) 0.59894(14) 0.26500(9)
H7 H 0.3271 0.6424 0.2690
C6 C 0.3341(2) 0.70066(15) 0.41785(9)
C7 C 0.2512(2) 0.77667(16) 0.38252(10)
H8 H 0.1825 0.7601 0.3458
C8 C 0.2715(3) 0.87794(16) 0.40239(11)
H9 H 0.2177 0.9291 0.3780
C9 C 0.3703(3) 0.90403(16) 0.45778(11)
C10 C 0.4499(3) 0.82638(16) 0.49328(11)
H10 H 0.5157 0.8428 0.5309
C11 C 0.4335(3) 0.72473(17) 0.47390(10)
H11 H 0.4881 0.6736 0.4980
C12 C 0.3931(4) 1.01442(18) 0.47872(13)
H12 H 0.3417 1.0261 0.5228
H13 H 0.3450 1.0580 0.4443
H14 H 0.5071 1.0292 0.4824
C13 C 0.6183(3) 0.39310(14) 0.31727(11)
H15 H 0.5136 0.3589 0.3164
H16 H 0.6530 0.4029 0.2696
C14 C 0.7394(3) 0.32593(14) 0.35380(10)
C15 C 0.6913(3) 0.26918(15) 0.41127(11)
H17 H 0.5842 0.2732 0.4266
C16 C 0.8006(4) 0.20659(17) 0.44617(12)
H18 H 0.7669 0.1693 0.4847
C17 C 0.9581(4) 0.2000(2) 0.42364(15)
H19 H 1.0312 0.1575 0.4466
C18 C 1.0089(3) 0.2562(2) 0.36703(14)
H20 H 1.1163 0.2521 0.3522
C19 C 0.9004(3) 0.31852(19) 0.33230(12)
H21 H 0.9355 0.3560 0.2941
C20 C 0.3934(2) 0.52806(16) 0.20314(10)
H22 H 0.3800 0.5698 0.1619
H23 H 0.4896 0.4864 0.1963
C21 C 0.2467(2) 0.45744(16) 0.20918(10)
H24 H 0.2682 0.4072 0.2458
C22 C 0.2138(3) 0.40150(17) 0.14241(11)
H25 H 0.1205 0.3582 0.1482
H26 H 0.3066 0.3607 0.1304
H27 H 0.1931 0.4500 0.1060
N1 N 0.43922(19) 0.54411(12) 0.33261(7)
O1 O 0.14971(17) 0.56620(13) 0.36269(7)
O2 O 0.34473(19) 0.50877(11) 0.45221(7)
O3 O 0.77160(16) 0.55680(11) 0.21283(7)
H28 H 0.8696 0.5453 0.2122
O4 O 0.10194(17) 0.51288(15) 0.22670(8)
H29 H 0.1113 0.5371 0.2658
S1 S 0.30947(6) 0.57162(4) 0.39335(2)
loop_
_geom_bond_atom_site_label_1
_geom_bond_atom_site_label_2
_geom_bond_site_symmetry_1
_geom_bond_site_symmetry_2
C1 H1 1_555 1_555
C2 C1 1_555 1_555
H2 C2 1_555 1_555
H3 C2 1_555 1_555
C3 C2 1_555 1_555
H4 C3 1_555 1_555
C4 C3 1_555 1_555
H5 C4 1_555 1_555
H6 C4 1_555 1_555
C5 C4 1_555 1_555
H7 C5 1_555 1_555
C6 C7 1_555 1_555
C7 H8 1_555 1_555
C8 C7 1_555 1_555
H9 C8 1_555 1_555
C9 C8 1_555 1_555
C10 C9 1_555 1_555
H10 C10 1_555 1_555
C11 C6 1_555 1_555
H11 C11 1_555 1_555
C12 C9 1_555 1_555
H12 C12 1_555 1_555
H13 C12 1_555 1_555
H14 C12 1_555 1_555
C13 C1 1_555 1_555
H15 C13 1_555 1_555
H16 C13 1_555 1_555
C14 C13 1_555 1_555
C15 C14 1_555 1_555
H17 C15 1_555 1_555
C16 C15 1_555 1_555
H18 C16 1_555 1_555
C17 C16 1_555 1_555
H19 C17 1_555 1_555
C18 C17 1_555 1_555
H20 C18 1_555 1_555
C19 C14 1_555 1_555
H21 C19 1_555 1_555
C20 C5 1_555 1_555
H22 C20 1_555 1_555
H23 C20 1_555 1_555
C21 C20 1_555 1_555
H24 C21 1_555 1_555
C22 C21 1_555 1_555
H25 C22 1_555 1_555
H26 C22 1_555 1_555
H27 C22 1_555 1_555
N1 C1 1_555 1_555
O1 S1 1_555 1_555
O2 S1 1_555 1_555
O3 C3 1_555 1_555
H28 O3 1_555 1_555
O4 C21 1_555 1_555
H29 O4 1_555 1_555
S1 C6 1_555 1_555
C5 N1 1_555 1_555
C10 C11 1_555 1_555
C18 C19 1_555 1_555
N1 S1 1_555 1_555

#END
