
#######################################################################
#
#                 Cambridge Crystallographic Data Centre
#                                CCDC 
#
#######################################################################
#
# If this CIF has been generated from an entry in the Cambridge 
# Structural Database, then it will include bibliographic, chemical, 
# crystal, experimental, refinement or atomic coordinate data resulting 
# from the CCDC's data processing and validation procedures.
#
#######################################################################

data_ACUQAS
_chemical_formula_moiety         'C22 H29 N1 O4 S1'
_chemical_name_systematic        
(R,R,S,R)-2-Benzyl-6-(2-hydroxypropyl)-1-((4-methylphenyl)sulfonyl)piperidin-4-ol
_symmetry_cell_setting           orthorhombic
_symmetry_space_group_name_H-M   'P 21 21 21'
_symmetry_Int_Tables_number      19
_space_group_name_Hall           'P 2ac 2ab'
loop_
_symmetry_equiv_pos_site_id
_symmetry_equiv_pos_as_xyz
1 x,y,z
2 1/2+x,1/2-y,-z
3 -x,1/2+y,1/2-z
4 1/2-x,-y,1/2+z
_cell_length_a                   8.0248(5)
_cell_length_b                   12.4438(8)
_cell_length_c                   20.5847(14)
_cell_angle_alpha                90
_cell_angle_beta                 90
_cell_angle_gamma                90
_cell_volume                     2055.57
_cell_formula_units_Z            4
loop_
_atom_site_label
_atom_site_type_symbol
_atom_site_fract_x
_atom_site_fract_y
_atom_site_fract_z
C1 C 0.39500(18) 0.51080(12) 0.35065(7)
H1 H 0.4076 0.5176 0.3978
C2 C 0.24205(19) 0.44020(13) 0.33936(8)
H2 H 0.2450 0.3807 0.3698
H3 H 0.1428 0.4820 0.3486
C3 C 0.22873(19) 0.39532(13) 0.27078(8)
H4 H 0.1374 0.3431 0.2695
C4 C 0.3903(2) 0.33820(13) 0.25287(8)
H5 H 0.3829 0.3152 0.2079
H6 H 0.4002 0.2741 0.2794
C5 C 0.54972(18) 0.40537(13) 0.26112(7)
H7 H 0.6429 0.3545 0.2611
C6 C 0.65640(18) 0.29654(13) 0.41080(7)
C7 C 0.72574(19) 0.20745(14) 0.38061(8)
H8 H 0.7866 0.2154 0.3425
C8 C 0.7036(2) 0.10657(13) 0.40766(8)
H9 H 0.7496 0.0469 0.3873
C9 C 0.6138(2) 0.09313(14) 0.46483(8)
C10 C 0.5462(2) 0.18369(15) 0.49450(8)
H10 H 0.4864 0.1759 0.5329
C11 C 0.5661(2) 0.28515(15) 0.46801(8)
H11 H 0.5197 0.3449 0.4882
C12 C 0.5904(2) -0.01704(15) 0.49339(9)
H12 H 0.6900 -0.0381 0.5159
H13 H 0.5677 -0.0675 0.4592
H14 H 0.4986 -0.0159 0.5233
C13 C 0.3816(2) 0.62633(12) 0.32359(8)
H15 H 0.4905 0.6601 0.3252
H16 H 0.3471 0.6232 0.2785
C14 C 0.2591(2) 0.69410(12) 0.36123(7)
C15 C 0.3085(2) 0.74481(13) 0.41800(8)
H17 H 0.4181 0.7378 0.4320
C16 C 0.1976(3) 0.80578(14) 0.45431(8)
H18 H 0.2330 0.8394 0.4922
C17 C 0.0345(3) 0.81629(16) 0.43391(10)
H19 H -0.0404 0.8571 0.4580
C18 C -0.0175(2) 0.76574(15) 0.37735(10)
H20 H -0.1274 0.7724 0.3637
C19 C 0.0942(2) 0.70523(14) 0.34111(8)
H21 H 0.0588 0.6719 0.3031
C20 C 0.58273(19) 0.48476(14) 0.20513(7)
H22 H 0.5258 0.4585 0.1667
H23 H 0.5329 0.5533 0.2165
C21 C 0.76531(19) 0.50419(14) 0.18764(8)
H24 H 0.8187 0.4346 0.1796
C22 C 0.7841(2) 0.57317(15) 0.12763(8)
H25 H 0.7318 0.6415 0.1348
H26 H 0.7321 0.5381 0.0914
H27 H 0.9003 0.5837 0.1186
N1 N 0.54971(16) 0.45821(10) 0.32641(6)
O1 O 0.84647(13) 0.41757(10) 0.34275(6)
O2 O 0.68169(16) 0.50106(10) 0.43140(6)
O3 O 0.19728(14) 0.47678(10) 0.22318(5)
H28 H 0.1015 0.4988 0.2271
O4 O 0.85595(16) 0.55886(11) 0.23798(6)
H29 H 0.8527 0.5232 0.2714
S1 S 0.69268(5) 0.42613(3) 0.378701(19)
loop_
_geom_bond_atom_site_label_1
_geom_bond_atom_site_label_2
_geom_bond_site_symmetry_1
_geom_bond_site_symmetry_2
C1 H1 1_555 1_555
C2 C1 1_555 1_555
H2 C2 1_555 1_555
H3 C2 1_555 1_555
C3 C2 1_555 1_555
H4 C3 1_555 1_555
C4 C3 1_555 1_555
H5 C4 1_555 1_555
H6 C4 1_555 1_555
C5 C4 1_555 1_555
H7 C5 1_555 1_555
C6 C7 1_555 1_555
C7 H8 1_555 1_555
C8 C7 1_555 1_555
H9 C8 1_555 1_555
C9 C8 1_555 1_555
C10 C9 1_555 1_555
H10 C10 1_555 1_555
C11 C6 1_555 1_555
H11 C11 1_555 1_555
C12 C9 1_555 1_555
H12 C12 1_555 1_555
H13 C12 1_555 1_555
H14 C12 1_555 1_555
C13 C1 1_555 1_555
H15 C13 1_555 1_555
H16 C13 1_555 1_555
C14 C13 1_555 1_555
C15 C14 1_555 1_555
H17 C15 1_555 1_555
C16 C15 1_555 1_555
H18 C16 1_555 1_555
C17 C16 1_555 1_555
H19 C17 1_555 1_555
C18 C17 1_555 1_555
H20 C18 1_555 1_555
C19 C14 1_555 1_555
H21 C19 1_555 1_555
C20 C5 1_555 1_555
H22 C20 1_555 1_555
H23 C20 1_555 1_555
C21 C20 1_555 1_555
H24 C21 1_555 1_555
C22 C21 1_555 1_555
H25 C22 1_555 1_555
H26 C22 1_555 1_555
H27 C22 1_555 1_555
N1 C1 1_555 1_555
O1 S1 1_555 1_555
O2 S1 1_555 1_555
O3 C3 1_555 1_555
H28 O3 1_555 1_555
O4 C21 1_555 1_555
H29 O4 1_555 1_555
S1 C6 1_555 1_555
C5 N1 1_555 1_555
C10 C11 1_555 1_555
C18 C19 1_555 1_555
N1 S1 1_555 1_555

#END
