
#######################################################################
#
#                 Cambridge Crystallographic Data Centre
#                                CCDC 
#
#######################################################################
#
# If this CIF has been generated from an entry in the Cambridge 
# Structural Database, then it will include bibliographic, chemical, 
# crystal, experimental, refinement or atomic coordinate data resulting 
# from the CCDC's data processing and validation procedures.
#
#######################################################################

data_ACUQAQ
_chemical_formula_moiety         'C25 H15 F3 N2 O1'
_chemical_name_systematic        
8,10-Diphenyl-6-oxido-2-(trifluoromethyl)pyrido(1,2-a)quinoxalin-11-ium
_symmetry_cell_setting           monoclinic
_symmetry_space_group_name_H-M   'P 21/n'
_symmetry_Int_Tables_number      14
_space_group_name_Hall           '-P 2yn'
loop_
_symmetry_equiv_pos_site_id
_symmetry_equiv_pos_as_xyz
1 x,y,z
2 1/2-x,1/2+y,1/2-z
3 -x,-y,-z
4 1/2+x,1/2-y,1/2+z
_cell_length_a                   7.045(3)
_cell_length_b                   10.615(4)
_cell_length_c                   25.694(10)
_cell_angle_alpha                90
_cell_angle_beta                 92.68(3)
_cell_angle_gamma                90
_cell_volume                     1919.36
_exptl_crystal_colour            red
_exptl_crystal_description       needle
_chemical_melting_point          175deg.C
_cell_formula_units_Z            4
_exptl_crystal_recrystallization_method 'dichloromethane/ethyl acetate/hexanes'
loop_
_atom_site_label
_atom_site_type_symbol
_atom_site_fract_x
_atom_site_fract_y
_atom_site_fract_z
F1 F -0.3762(6) -0.0981(16) -0.1892(3)
F2 F -0.1766(20) -0.1677(12) -0.2408(4)
F3 F -0.1819(19) 0.0261(9) -0.2211(5)
N1 N 0.1993(4) 0.0677(3) -0.05155(12)
N2 N 0.2326(5) -0.1875(3) -0.01626(13)
O1 O 0.3316(5) -0.1097(3) 0.06269(11)
C1 C 0.0044(6) -0.0114(5) -0.1271(2)
H1 H -0.0295(6) 0.0704(5) -0.1366(2)
C2 C -0.0613(6) -0.1125(4) -0.1567(2)
C3 C -0.0115(6) -0.2353(5) -0.1421(2)
H2 H -0.0495(6) -0.3027(5) -0.1632(2)
C4 C 0.0924(6) -0.2563(4) -0.0971(2)
H3 H 0.1231(6) -0.3387(4) -0.0876(2)
C5 C 0.2706(5) -0.0932(4) 0.0175(2)
C6 C 0.3037(5) 0.1355(4) 0.0334(2)
H4 H 0.3382(5) 0.1147(4) 0.0677(2)
C7 C 0.3041(5) 0.2616(4) 0.0187(2)
C8 C 0.2686(6) 0.2830(4) -0.03445(15)
H5 H 0.2775(6) 0.3651(4) -0.04669(15)
C9 C 0.2219(6) 0.1907(4) -0.0693(2)
C10 C 0.1222(5) -0.0334(4) -0.08281(15)
C11 C 0.1555(5) -0.1561(4) -0.06404(15)
C12 C 0.2543(5) 0.0407(4) -0.00080(14)
C13 C -0.1953(6) -0.0890(3) -0.2015(2)
C14 C 0.3487(5) 0.3633(4) 0.0562(2)
C15 C 0.4379(6) 0.3386(4) 0.1045(2)
H6 H 0.4772(6) 0.2569(4) 0.1125(2)
C16 C 0.4690(7) 0.4323(4) 0.1407(2)
H7 H 0.5296(7) 0.4138(4) 0.1727(2)
C17 C 0.4110(7) 0.5536(4) 0.1299(2)
H8 H 0.4289(7) 0.6165(4) 0.1548(2)
C18 C 0.3268(7) 0.5814(4) 0.0822(2)
H9 H 0.2911(7) 0.6639(4) 0.0745(2)
C19 C 0.2945(6) 0.4882(4) 0.0454(2)
H10 H 0.2362(6) 0.5083(4) 0.0133(2)
C20 C 0.2187(6) 0.2195(4) -0.1260(2)
C21 C 0.1095(6) 0.3189(4) -0.1454(2)
H11 H 0.0340(6) 0.3641(4) -0.1232(2)
C22 C 0.1122(7) 0.3514(5) -0.1974(2)
H12 H 0.0390(7) 0.4183(5) -0.2103(2)
C23 C 0.2242(7) 0.2838(5) -0.2300(2)
H13 H 0.2240(7) 0.3041(5) -0.2652(2)
C24 C 0.3364(7) 0.1866(5) -0.2109(2)
H14 H 0.4132(7) 0.1427(5) -0.2331(2)
C25 C 0.3355(6) 0.1537(4) -0.1588(2)
H15 H 0.4119(6) 0.0884(4) -0.1458(2)
F4? F -0.2136(19) -0.1877(10) -0.2331(4)
F5? F -0.1464(20) 0.0068(11) -0.2310(5)
F6? F -0.3710(7) -0.0635(17) -0.1880(4)
loop_
_geom_bond_atom_site_label_1
_geom_bond_atom_site_label_2
_geom_bond_site_symmetry_1
_geom_bond_site_symmetry_2
F1 C13 1_555 1_555
F2 C13 1_555 1_555
F3 C13 1_555 1_555
N1 C9 1_555 1_555
N2 C5 1_555 1_555
O1 C5 1_555 1_555
C1 H1 1_555 1_555
C2 C1 1_555 1_555
C3 C2 1_555 1_555
H2 C3 1_555 1_555
C4 C3 1_555 1_555
H3 C4 1_555 1_555
C5 C12 1_555 1_555
C6 H4 1_555 1_555
C7 C6 1_555 1_555
C8 C7 1_555 1_555
H5 C8 1_555 1_555
C9 C8 1_555 1_555
C10 N1 1_555 1_555
C11 N2 1_555 1_555
C12 N1 1_555 1_555
C13 C2 1_555 1_555
C14 C7 1_555 1_555
C15 C14 1_555 1_555
H6 C15 1_555 1_555
C16 C15 1_555 1_555
H7 C16 1_555 1_555
C17 C16 1_555 1_555
H8 C17 1_555 1_555
C18 C17 1_555 1_555
H9 C18 1_555 1_555
C19 C14 1_555 1_555
H10 C19 1_555 1_555
C20 C9 1_555 1_555
C21 C20 1_555 1_555
H11 C21 1_555 1_555
C22 C21 1_555 1_555
H12 C22 1_555 1_555
C23 C22 1_555 1_555
H13 C23 1_555 1_555
C24 C23 1_555 1_555
H14 C24 1_555 1_555
C25 C20 1_555 1_555
H15 C25 1_555 1_555
C1 C10 1_555 1_555
C4 C11 1_555 1_555
C6 C12 1_555 1_555
C10 C11 1_555 1_555
C18 C19 1_555 1_555
C24 C25 1_555 1_555

#END
