
#######################################################################
#
#                 Cambridge Crystallographic Data Centre
#                                CCDC 
#
#######################################################################
#
# If this CIF has been generated from an entry in the Cambridge 
# Structural Database, then it will include bibliographic, chemical, 
# crystal, experimental, refinement or atomic coordinate data resulting 
# from the CCDC's data processing and validation procedures.
#
#######################################################################

data_ACURUN
_chemical_formula_moiety         'C28 H28 F3 N3 O5'
_chemical_name_systematic        
N-(2-Methoxybenzoyl)-2-(3-methylbutoxy)-5-(((4-(trifluoromethyl)phenyl)carbamoyl)amino)benzamide
_symmetry_cell_setting           monoclinic
_symmetry_space_group_name_H-M   'P 21/c'
_symmetry_Int_Tables_number      14
_space_group_name_Hall           '-P 2ybc'
loop_
_symmetry_equiv_pos_site_id
_symmetry_equiv_pos_as_xyz
1 x,y,z
2 -x,1/2+y,1/2-z
3 -x,-y,-z
4 x,1/2-y,1/2+z
_cell_length_a                   7.6481(2)
_cell_length_b                   19.5753(6)
_cell_length_c                   18.1746(5)
_cell_angle_alpha                90
_cell_angle_beta                 101.832(3)
_cell_angle_gamma                90
_cell_volume                     2663.18
_exptl_crystal_colour            colorless
_exptl_crystal_description       block
_cell_formula_units_Z            4
loop_
_atom_site_label
_atom_site_type_symbol
_atom_site_fract_x
_atom_site_fract_y
_atom_site_fract_z
F1 F 1.9159(2) 0.50051(14) 1.39047(11)
F2 F 1.7807(2) 0.43670(10) 1.45356(12)
F3 F 1.8084(3) 0.54090(11) 1.47924(12)
O1 O 0.9787(2) 0.62085(9) 1.27081(9)
O2 O 0.1529(2) 0.68754(9) 1.12076(9)
O3 O 0.2675(2) 0.53665(8) 0.97658(9)
O4 O -0.0939(2) 0.54502(8) 0.90939(9)
O5 O -0.0157(2) 0.74079(9) 0.93986(10)
N1 N 1.1139(2) 0.53457(10) 1.21904(10)
H1 H 1.1008 0.5071 1.1799
N2 N 0.8276(2) 0.56545(10) 1.16562(10)
H2 H 0.8395 0.5348 1.1315
N3 N 0.0638(2) 0.61470(10) 0.99935(10)
H3 H 0.0502 0.6495 1.0283
C1 C 1.6040(3) 0.51107(12) 1.36886(13)
C2 C 1.5761(3) 0.48526(12) 1.29653(13)
H4 H 1.6688 0.4610 1.2802
C3 C 1.4138(3) 0.49464(12) 1.24815(13)
H5 H 1.3954 0.4767 1.1986
C4 C 1.2762(3) 0.53012(12) 1.27119(12)
C5 C 1.3043(3) 0.55571(13) 1.34396(13)
H6 H 1.2116 0.5797 1.3606
C6 C 1.4678(3) 0.54608(13) 1.39215(14)
H7 H 1.4868 0.5638 1.4418
C7 C 1.7763(3) 0.49732(14) 1.42196(15)
C8 C 0.9738(3) 0.57699(12) 1.22244(12)
C9 C 0.6602(3) 0.59837(11) 1.15709(12)
C10 C 0.6194(3) 0.64686(12) 1.20706(13)
H8 H 0.7072 0.6596 1.2498
C11 C 0.4523(3) 0.67650(12) 1.19493(13)
H9 H 0.4272 0.7098 1.2294
C12 C 0.3201(3) 0.65884(11) 1.13366(12)
C13 C 0.3568(3) 0.60884(11) 1.08324(11)
C14 C 0.5272(3) 0.58019(11) 1.09589(12)
H10 H 0.5534 0.5471 1.0615
C15 C 0.1173(3) 0.74397(13) 1.16616(14)
H11 H 0.2011 0.7820 1.1636
H12 H 0.1302 0.7297 1.2193
C16 C -0.0721(3) 0.76565(12) 1.13425(14)
H13 H -0.0858 0.7709 1.0792
H14 H -0.1528 0.7283 1.1430
C17 C -0.1331(5) 0.8303(2) 1.1648(2)
H15 H -0.0539 0.8678 1.1535
C18 C -0.3235(5) 0.8476(2) 1.1247(3)
H16 H -0.3362 0.8400 1.0706
H17 H -0.3486 0.8956 1.1338
H18 H -0.4079 0.8183 1.1440
C19 C -0.1223(8) 0.8302(3) 1.2446(3)
H19 H -0.1864 0.7904 1.2585
H20 H -0.1765 0.8721 1.2593
H21 H 0.0032 0.8279 1.2706
C20 C 0.2279(3) 0.58244(11) 1.01543(12)
C21 C -0.0805(3) 0.59878(11) 0.94342(11)
C22 C -0.2252(3) 0.65133(12) 0.92837(11)
C23 C -0.4012(3) 0.62849(14) 0.91341(12)
H22 H -0.4253 0.5810 0.9157
C24 C -0.5423(3) 0.67428(17) 0.89518(14)
H23 H -0.6623 0.6585 0.8858
C25 C -0.5057(4) 0.74321(17) 0.89089(15)
H24 H -0.6019 0.7746 0.8778
C26 C -0.3328(4) 0.76731(15) 0.90520(14)
H25 H -0.3104 0.8148 0.9015
C27 C -0.1911(3) 0.72184(13) 0.92501(12)
C28 C 0.0263(4) 0.81228(14) 0.94039(17)
H26 H -0.0112 0.8308 0.8895
H27 H 0.1555 0.8185 0.9574
H28 H -0.0365 0.8363 0.9746
C29? C -0.0419(18) 0.8629(7) 1.2346(6)
H29? H -0.0764 0.8605 1.1320
H30? H 0.0211 0.8282 1.2689
H31? H -0.1299 0.8860 1.2582
H32? H 0.0442 0.8964 1.2234
loop_
_geom_bond_atom_site_label_1
_geom_bond_atom_site_label_2
_geom_bond_site_symmetry_1
_geom_bond_site_symmetry_2
F1 C7 1_555 1_555
F2 C7 1_555 1_555
F3 C7 1_555 1_555
O1 C8 1_555 1_555
O2 C12 1_555 1_555
O3 C20 1_555 1_555
O4 C21 1_555 1_555
O5 C27 1_555 1_555
N1 H1 1_555 1_555
N2 H2 1_555 1_555
N3 H3 1_555 1_555
C1 C2 1_555 1_555
C2 H4 1_555 1_555
C3 C2 1_555 1_555
H5 C3 1_555 1_555
C4 N1 1_555 1_555
C5 C4 1_555 1_555
H6 C5 1_555 1_555
C6 C1 1_555 1_555
H7 C6 1_555 1_555
C7 C1 1_555 1_555
C8 N1 1_555 1_555
C9 N2 1_555 1_555
C10 C9 1_555 1_555
H8 C10 1_555 1_555
C11 C10 1_555 1_555
H9 C11 1_555 1_555
C12 C11 1_555 1_555
C13 C12 1_555 1_555
C14 C9 1_555 1_555
H10 C14 1_555 1_555
C15 O2 1_555 1_555
H11 C15 1_555 1_555
H12 C15 1_555 1_555
C16 C15 1_555 1_555
H13 C16 1_555 1_555
H14 C16 1_555 1_555
C17 C16 1_555 1_555
H15 C17 1_555 1_555
C18 C17 1_555 1_555
H16 C18 1_555 1_555
H17 C18 1_555 1_555
H18 C18 1_555 1_555
C19 C17 1_555 1_555
H19 C19 1_555 1_555
H20 C19 1_555 1_555
H21 C19 1_555 1_555
C20 N3 1_555 1_555
C21 N3 1_555 1_555
C22 C21 1_555 1_555
C23 C22 1_555 1_555
H22 C23 1_555 1_555
C24 C23 1_555 1_555
H23 C24 1_555 1_555
C25 C24 1_555 1_555
H24 C25 1_555 1_555
C26 C25 1_555 1_555
H25 C26 1_555 1_555
C27 C22 1_555 1_555
C28 O5 1_555 1_555
H26 C28 1_555 1_555
H27 C28 1_555 1_555
H28 C28 1_555 1_555
N2 C8 1_555 1_555
C3 C4 1_555 1_555
C5 C6 1_555 1_555
C13 C14 1_555 1_555
C13 C20 1_555 1_555
C26 C27 1_555 1_555

#END
