
#######################################################################
#
#                 Cambridge Crystallographic Data Centre
#                                CCDC 
#
#######################################################################
#
# If this CIF has been generated from an entry in the Cambridge 
# Structural Database, then it will include bibliographic, chemical, 
# crystal, experimental, refinement or atomic coordinate data resulting 
# from the CCDC's data processing and validation procedures.
#
#######################################################################

data_ACUSAU
_chemical_formula_moiety         'C29 H27 F6 N3 O5'
_chemical_name_systematic        
5-(((3,5-bis(trifluoromethyl)phenyl)carbamoyl)amino)-N-(2-methoxybenzoyl)-2-(3-methylbutoxy)benzamide
_symmetry_cell_setting           triclinic
_symmetry_space_group_name_H-M   'P -1'
_symmetry_Int_Tables_number      2
_space_group_name_Hall           '-P 1'
loop_
_symmetry_equiv_pos_site_id
_symmetry_equiv_pos_as_xyz
1 x,y,z
2 -x,-y,-z
_cell_length_a                   9.0092(6)
_cell_length_b                   12.3027(8)
_cell_length_c                   14.1095(9)
_cell_angle_alpha                74.457(5)
_cell_angle_beta                 84.074(5)
_cell_angle_gamma                71.087(6)
_cell_volume                     1425.1
_exptl_crystal_colour            colorless
_exptl_crystal_description       block
_cell_formula_units_Z            2
loop_
_atom_site_label
_atom_site_type_symbol
_atom_site_fract_x
_atom_site_fract_y
_atom_site_fract_z
F1 F -0.6346(3) 0.2177(3) -0.2142(2)
F2 F -0.6045(3) 0.2741(3) -0.3651(2)
F3 F -0.6942(3) 0.1328(3) -0.3080(3)
F4 F -0.1636(12) -0.0782(5) -0.5108(4)
F5 F -0.2792(6) -0.1915(6) -0.4168(6)
F6 F -0.0421(7) -0.2181(5) -0.3949(4)
O1 O -0.1822(3) 0.1888(3) -0.1066(2)
O2 O 0.2097(3) 0.3661(2) 0.14789(19)
O3 O 0.5567(3) 0.0842(3) 0.0737(2)
O4 O 0.7433(4) 0.1108(3) 0.2021(3)
O5 O 0.5777(3) 0.4424(2) 0.13522(17)
N1 N -0.0444(3) 0.0415(3) -0.1798(2)
H1 H 0.0475 -0.0075 -0.1844
N2 N 0.0783(3) 0.0995(3) -0.0774(2)
H2 H 0.1576 0.0421 -0.0880
N3 N 0.4995(3) 0.2271(2) 0.1560(2)
H3 H 0.4286 0.2915 0.1621
C1 C -0.2267(5) -0.0491(3) -0.3526(3)
C2 C -0.3812(5) 0.0194(3) -0.3510(3)
H4 H -0.4545 0.0140 -0.3900
C3 C -0.4249(4) 0.0962(3) -0.2905(3)
C4 C -0.3176(4) 0.1046(3) -0.2318(3)
H5 H -0.3500 0.1559 -0.1905
C5 C -0.1620(4) 0.0369(3) -0.2344(2)
C6 C -0.1174(4) -0.0408(3) -0.2958(3)
H6 H -0.0133 -0.0873 -0.2983
C7 C -0.1757(7) -0.1287(5) -0.4195(4)
C8 C -0.5877(5) 0.1768(4) -0.2930(3)
C9 C -0.0592(5) 0.1159(3) -0.1195(3)
C10 C 0.1032(4) 0.1678(3) -0.0178(2)
C11 C -0.0153(4) 0.2543(3) 0.0145(3)
H7 H -0.1188 0.2690 -0.0014
C12 C 0.0199(4) 0.3193(3) 0.0704(3)
H8 H -0.0609 0.3784 0.0907
C13 C 0.1703(4) 0.2989(3) 0.0966(2)
C14 C 0.2918(4) 0.2077(3) 0.0684(2)
C15 C 0.2545(4) 0.1443(3) 0.0110(2)
H9 H 0.3344 0.0841 -0.0085
C16 C 0.4608(4) 0.1664(3) 0.0977(2)
C17 C 0.6343(4) 0.1985(3) 0.2049(3)
C18 C 0.6344(4) 0.2767(3) 0.2690(2)
C19 C 0.6047(4) 0.3984(3) 0.2333(2)
C20 C 0.6044(5) 0.4658(4) 0.2978(3)
H10 H 0.5841 0.5474 0.2748
C21 C 0.6337(6) 0.4130(6) 0.3950(4)
H11 H 0.6323 0.4595 0.4375
C22 C 0.6645(6) 0.2951(7) 0.4309(4)
H12 H 0.6840 0.2605 0.4975
C23 C 0.6667(5) 0.2263(4) 0.3678(3)
H13 H 0.6904 0.1446 0.3921
C24 C 0.5577(6) 0.5658(4) 0.0944(3)
H14 H 0.5454 0.5845 0.0245
H15 H 0.6483 0.5837 0.1079
H16 H 0.4661 0.6120 0.1233
C25 C 0.0902(4) 0.4491(3) 0.1898(3)
H17 H 0.0224 0.4098 0.2336
H18 H 0.0268 0.5114 0.1386
C26 C 0.1727(4) 0.5001(3) 0.2460(3)
H19 H 0.2371 0.5408 0.2003
H20 H 0.2422 0.4354 0.2927
C27 C -0.0414(6) 0.5346(6) 0.3705(4)
H21 H -0.1074 0.5119 0.3352
H22 H -0.1055 0.5912 0.4052
H23 H 0.0198 0.4657 0.4167
C28 C 0.0621(5) 0.5870(4) 0.3019(3)
H24 H -0.0031 0.6541 0.2535
C29 C 0.1597(6) 0.6344(5) 0.3530(4)
H25 H 0.2221 0.5707 0.4025
H26 H 0.0912 0.6942 0.3831
H27 H 0.2272 0.6682 0.3055
F7? F -0.057(4) -0.1084(18) -0.4775(14)
F8? F -0.273(2) -0.107(2) -0.483(2)
F9? F -0.132(2) -0.2241(18) -0.3864(15)
loop_
_geom_bond_atom_site_label_1
_geom_bond_atom_site_label_2
_geom_bond_site_symmetry_1
_geom_bond_site_symmetry_2
F1 C8 1_555 1_555
F2 C8 1_555 1_555
F3 C8 1_555 1_555
F4 C7 1_555 1_555
F5 C7 1_555 1_555
F6 C7 1_555 1_555
O1 C9 1_555 1_555
O2 C13 1_555 1_555
O3 C16 1_555 1_555
O4 C17 1_555 1_555
O5 C19 1_555 1_555
N1 H1 1_555 1_555
N2 H2 1_555 1_555
N3 H3 1_555 1_555
C1 C2 1_555 1_555
C2 H4 1_555 1_555
C3 C2 1_555 1_555
C4 C3 1_555 1_555
H5 C4 1_555 1_555
C5 N1 1_555 1_555
C6 C1 1_555 1_555
H6 C6 1_555 1_555
C7 C1 1_555 1_555
C8 C3 1_555 1_555
C9 N1 1_555 1_555
C10 N2 1_555 1_555
C11 C10 1_555 1_555
H7 C11 1_555 1_555
C12 C11 1_555 1_555
H8 C12 1_555 1_555
C13 C12 1_555 1_555
C14 C13 1_555 1_555
C15 C10 1_555 1_555
H9 C15 1_555 1_555
C16 N3 1_555 1_555
C17 N3 1_555 1_555
C18 C17 1_555 1_555
C19 C18 1_555 1_555
C20 C19 1_555 1_555
H10 C20 1_555 1_555
C21 C20 1_555 1_555
H11 C21 1_555 1_555
C22 C21 1_555 1_555
H12 C22 1_555 1_555
C23 C18 1_555 1_555
H13 C23 1_555 1_555
C24 O5 1_555 1_555
H14 C24 1_555 1_555
H15 C24 1_555 1_555
H16 C24 1_555 1_555
C25 O2 1_555 1_555
H17 C25 1_555 1_555
H18 C25 1_555 1_555
C26 C25 1_555 1_555
H19 C26 1_555 1_555
H20 C26 1_555 1_555
C27 H21 1_555 1_555
H22 C27 1_555 1_555
H23 C27 1_555 1_555
C28 C26 1_555 1_555
H24 C28 1_555 1_555
C29 C28 1_555 1_555
H25 C29 1_555 1_555
H26 C29 1_555 1_555
H27 C29 1_555 1_555
N2 C9 1_555 1_555
C4 C5 1_555 1_555
C5 C6 1_555 1_555
C14 C15 1_555 1_555
C14 C16 1_555 1_555
C22 C23 1_555 1_555
C27 C28 1_555 1_555

#END
