
#######################################################################
#
#                 Cambridge Crystallographic Data Centre
#                                CCDC 
#
#######################################################################
#
# If this CIF has been generated from an entry in the Cambridge 
# Structural Database, then it will include bibliographic, chemical, 
# crystal, experimental, refinement or atomic coordinate data resulting 
# from the CCDC's data processing and validation procedures.
#
#######################################################################

data_ACUWAY
_chemical_formula_moiety         'C18 H13 Br1 N2 O1'
_chemical_name_systematic        
11-(4-Bromophenyl)-10,11-dihydro-5H-pyrrolo[2,1-c][1,4]benzodiazepin-5-one
_symmetry_cell_setting           orthorhombic
_symmetry_space_group_name_H-M   'P 21 21 21'
_symmetry_Int_Tables_number      19
_space_group_name_Hall           'P 2ac 2ab'
loop_
_symmetry_equiv_pos_site_id
_symmetry_equiv_pos_as_xyz
1 x,y,z
2 1/2-x,-y,1/2+z
3 -x,1/2+y,1/2-z
4 1/2+x,1/2-y,-z
_cell_length_a                   4.6748(5)
_cell_length_b                   14.5081(17)
_cell_length_c                   24.325(3)
_cell_angle_alpha                90
_cell_angle_beta                 90
_cell_angle_gamma                90
_cell_volume                     1649.78
_exptl_crystal_colour            green
_exptl_crystal_description       prismatic
_cell_formula_units_Z            4
_exptl_crystal_recrystallization_method hexane/dichloromethane
loop_
_atom_site_label
_atom_site_type_symbol
_atom_site_fract_x
_atom_site_fract_y
_atom_site_fract_z
Br1 Br 0.39948(18) 0.03154(4) 0.99359(3)
N1 N 0.6830(9) 0.4817(2) 0.79586(17)
N2 N 0.7927(11) 0.2833(3) 0.76889(17)
O1 O 0.9066(10) 0.5740(2) 0.73607(16)
C1 C 0.5153(13) 0.5518(4) 0.8152(3)
H1 H 0.4965 0.6094 0.7987
C2 C 0.3840(14) 0.5257(4) 0.8607(3)
H2 H 0.2619 0.5615 0.8820
C3 C 0.4636(12) 0.4327(4) 0.8710(2)
H3 H 0.3988 0.3967 0.9001
C4 C 0.6491(11) 0.4054(3) 0.83163(19)
C5 C 0.8181(11) 0.3186(3) 0.82551(18)
H4 H 1.0197 0.3315 0.8334
C6 C 0.9563(11) 0.3226(3) 0.72776(18)
C7 C 1.0675(14) 0.2634(3) 0.6885(2)
H5 H 1.0229 0.2010 0.6901
C8 C 1.243(2) 0.2952(5) 0.6470(3)
H6 H 1.3086 0.2540 0.6206
C9 C 1.323(2) 0.3854(5) 0.6438(3)
H7 H 1.4591 0.4053 0.6185
C10 C 1.1907(16) 0.4465(4) 0.6804(2)
H8 H 1.2260 0.5093 0.6766
C11 C 1.0100(11) 0.4176(3) 0.7218(2)
C12 C 0.8730(12) 0.4948(3) 0.7517(2)
C13 C 0.7108(12) 0.2472(3) 0.8653(2)
C14 C 0.8258(13) 0.2445(3) 0.9176(2)
H9 H 0.9669 0.2867 0.9274
C15 C 0.7353(14) 0.1809(4) 0.9553(2)
H10 H 0.8158 0.1794 0.9902
C16 C 0.5260(14) 0.1193(3) 0.9414(2)
C17 C 0.4011(13) 0.1226(3) 0.8902(2)
H11 H 0.2536 0.0823 0.8812
C18 C 0.4966(11) 0.1863(3) 0.8524(2)
H12 H 0.4145 0.1880 0.8176
H13 H 0.912(11) 0.238(3) 0.771(3)
loop_
_geom_bond_atom_site_label_1
_geom_bond_atom_site_label_2
_geom_bond_site_symmetry_1
_geom_bond_site_symmetry_2
Br1 C16 1_555 1_555
N1 C1 1_555 1_555
N2 C5 1_555 1_555
O1 C12 1_555 1_555
C1 H1 1_555 1_555
C2 C1 1_555 1_555
H2 C2 1_555 1_555
C3 C2 1_555 1_555
H3 C3 1_555 1_555
C4 N1 1_555 1_555
C5 C4 1_555 1_555
H4 C5 1_555 1_555
C6 N2 1_555 1_555
C7 C6 1_555 1_555
H5 C7 1_555 1_555
C8 C7 1_555 1_555
H6 C8 1_555 1_555
C9 C8 1_555 1_555
H7 C9 1_555 1_555
C10 C9 1_555 1_555
H8 C10 1_555 1_555
C11 C6 1_555 1_555
C12 N1 1_555 1_555
C13 C5 1_555 1_555
C14 C13 1_555 1_555
H9 C14 1_555 1_555
C15 C14 1_555 1_555
H10 C15 1_555 1_555
C16 C15 1_555 1_555
C17 C16 1_555 1_555
H11 C17 1_555 1_555
C18 C13 1_555 1_555
H12 C18 1_555 1_555
H13 N2 1_555 1_555
C3 C4 1_555 1_555
C10 C11 1_555 1_555
C11 C12 1_555 1_555
C17 C18 1_555 1_555

#END
