
#######################################################################
#
#                 Cambridge Crystallographic Data Centre
#                                CCDC 
#
#######################################################################
#
# If this CIF has been generated from an entry in the Cambridge 
# Structural Database, then it will include bibliographic, chemical, 
# crystal, experimental, refinement or atomic coordinate data resulting 
# from the CCDC's data processing and validation procedures.
#
#######################################################################

data_ACUWUS
_chemical_formula_moiety         'C28 H27 N1 O2'
_chemical_name_systematic        
3,4-Dimethoxy-14-methyl-10,12-diphenyl-11-azatetracyclo[8.3.1.0^2,7^.0^8,13^]tetradeca-2,4,6,11-tetraene
_symmetry_cell_setting           triclinic
_symmetry_space_group_name_H-M   'P -1'
_symmetry_Int_Tables_number      2
_space_group_name_Hall           '-P 1'
loop_
_symmetry_equiv_pos_site_id
_symmetry_equiv_pos_as_xyz
1 x,y,z
2 -x,-y,-z
_cell_length_a                   10.270(2)
_cell_length_b                   10.974(2)
_cell_length_c                   11.981(3)
_cell_angle_alpha                89.852(3)
_cell_angle_beta                 64.820(3)
_cell_angle_gamma                66.824(3)
_cell_volume                     1101.09
_exptl_crystal_colour            colorless
_cell_formula_units_Z            2
loop_
_atom_site_label
_atom_site_type_symbol
_atom_site_fract_x
_atom_site_fract_y
_atom_site_fract_z
O1 O 0.6173(3) 0.1355(3) 0.0516(3)
O2 O 0.4528(3) 0.3379(3) -0.0319(2)
N1 N -0.0901(3) 0.8419(3) 0.2989(3)
C1 C 0.0732(6) 1.2203(5) 0.2778(4)
H1 H 0.0795 1.3026 0.2768
C2 C 0.1923(6) 1.1081(5) 0.2765(5)
H2 H 0.2813 1.1129 0.2754
C3 C 0.1832(5) 0.9871(5) 0.2768(5)
H3 H 0.2666 0.9110 0.2764
C4 C 0.0541(4) 0.9741(4) 0.2777(3)
C5 C 0.0443(4) 0.8431(4) 0.2763(3)
C6 C 0.1839(4) 0.7127(4) 0.2532(4)
H4 H 0.2787 0.7264 0.2370
C7 C 0.2180(4) 0.6085(4) 0.1442(3)
H5 H 0.2807 0.6226 0.0612
C8 C 0.3118(4) 0.4772(4) 0.1727(3)
C9 C 0.4205(4) 0.3563(4) 0.0936(4)
C10 C 0.5052(4) 0.2521(4) 0.1387(4)
C11 C 0.7180(5) 0.0313(5) 0.0846(5)
H6 H 0.7800 0.0632 0.1072
H7 H 0.7882 -0.0435 0.0145
H8 H 0.6551 0.0026 0.1549
C12 C 0.3890(5) 0.2554(4) -0.0597(4)
H9 H 0.4400 0.1657 -0.0479
H10 H 0.4075 0.2522 -0.1455
H11 H 0.2763 0.2927 -0.0047
C13 C 0.0575(4) 0.6171(4) 0.1605(3)
H12 H 0.0643 0.5255 0.1555
C14 C -0.0757(4) 0.7027(4) 0.2940(3)
C15 C -0.2386(4) 0.7071(4) 0.3275(3)
C16 C -0.3775(4) 0.8234(4) 0.3886(4)
H13 H -0.3716 0.9038 0.4031
C17 C -0.5260(4) 0.8248(5) 0.4294(4)
H14 H -0.6182 0.9048 0.4718
C18 C -0.5363(5) 0.7063(5) 0.4066(4)
H15 H -0.6355 0.7060 0.4334
C19 C -0.4004(5) 0.5903(5) 0.3449(4)
H16 H -0.4064 0.5103 0.3289
C20 C -0.2535(4) 0.5907(4) 0.3057(4)
H17 H -0.1617 0.5103 0.2635
C21 C -0.0214(4) 0.6438(4) 0.3933(3)
H18 H -0.0989 0.7004 0.4758
H19 H -0.0171 0.5540 0.3960
C22 C 0.1432(4) 0.6360(4) 0.3618(4)
H20 H 0.1452 0.6732 0.4350
C23 C 0.2747(4) 0.4949(4) 0.2999(3)
C24 C 0.3543(4) 0.3927(4) 0.3445(4)
H21 H 0.3299 0.4046 0.4290
C25 C 0.4712(5) 0.2716(4) 0.2637(4)
H22 H 0.5274 0.2027 0.2937
C26 C -0.0581(6) 1.2114(5) 0.2806(5)
H23 H -0.1416 1.2884 0.2821
C27 C -0.0669(5) 1.0893(5) 0.2811(4)
H24 H -0.1569 1.0852 0.2837
C28 C 0.0204(4) 0.6786(4) 0.0552(4)
H25 H 0.0310 0.7618 0.0498
H26 H -0.0868 0.6959 0.0741
H27 H 0.0939 0.6162 -0.0237
loop_
_geom_bond_atom_site_label_1
_geom_bond_atom_site_label_2
_geom_bond_site_symmetry_1
_geom_bond_site_symmetry_2
O1 C10 1_555 1_555
O2 C9 1_555 1_555
N1 C5 1_555 1_555
C1 H1 1_555 1_555
C2 C1 1_555 1_555
H2 C2 1_555 1_555
C3 C2 1_555 1_555
H3 C3 1_555 1_555
C4 C3 1_555 1_555
C5 C4 1_555 1_555
C6 C5 1_555 1_555
H4 C6 1_555 1_555
C7 C6 1_555 1_555
H5 C7 1_555 1_555
C8 C7 1_555 1_555
C9 C8 1_555 1_555
C10 C9 1_555 1_555
C11 O1 1_555 1_555
H6 C11 1_555 1_555
H7 C11 1_555 1_555
H8 C11 1_555 1_555
C12 O2 1_555 1_555
H9 C12 1_555 1_555
H10 C12 1_555 1_555
H11 C12 1_555 1_555
C13 C7 1_555 1_555
H12 C13 1_555 1_555
C14 N1 1_555 1_555
C15 C14 1_555 1_555
C16 C15 1_555 1_555
H13 C16 1_555 1_555
C17 C16 1_555 1_555
H14 C17 1_555 1_555
C18 C17 1_555 1_555
H15 C18 1_555 1_555
C19 C18 1_555 1_555
H16 C19 1_555 1_555
C20 C15 1_555 1_555
H17 C20 1_555 1_555
C21 C14 1_555 1_555
H18 C21 1_555 1_555
H19 C21 1_555 1_555
C22 C6 1_555 1_555
H20 C22 1_555 1_555
C23 C8 1_555 1_555
C24 C23 1_555 1_555
H21 C24 1_555 1_555
C25 C10 1_555 1_555
H22 C25 1_555 1_555
C26 C1 1_555 1_555
H23 C26 1_555 1_555
C27 C4 1_555 1_555
H24 C27 1_555 1_555
C28 C13 1_555 1_555
H25 C28 1_555 1_555
H26 C28 1_555 1_555
H27 C28 1_555 1_555
C13 C14 1_555 1_555
C19 C20 1_555 1_555
C21 C22 1_555 1_555
C22 C23 1_555 1_555
C24 C25 1_555 1_555
C26 C27 1_555 1_555

#END
