
#######################################################################
#
#                 Cambridge Crystallographic Data Centre
#                                CCDC 
#
#######################################################################
#
# If this CIF has been generated from an entry in the Cambridge 
# Structural Database, then it will include bibliographic, chemical, 
# crystal, experimental, refinement or atomic coordinate data resulting 
# from the CCDC's data processing and validation procedures.
#
#######################################################################

data_ACUXAZ
_chemical_formula_moiety         'C28 H27 N1 O2'
_chemical_name_systematic        
5,6-Dimethoxy-11,13-diphenyl-12-azatetracyclo[9.3.1.0^2,7^.0^9,14^]pentadeca-2,4,6,12-tetraene
_symmetry_cell_setting           monoclinic
_symmetry_space_group_name_H-M   'P 21/n'
_symmetry_Int_Tables_number      14
_space_group_name_Hall           '-P 2yn'
loop_
_symmetry_equiv_pos_site_id
_symmetry_equiv_pos_as_xyz
1 x,y,z
2 1/2-x,1/2+y,1/2-z
3 -x,-y,-z
4 1/2+x,1/2-y,1/2+z
_cell_length_a                   10.9299(18)
_cell_length_b                   11.1414(18)
_cell_length_c                   18.327(3)
_cell_angle_alpha                90
_cell_angle_beta                 102.618(3)
_cell_angle_gamma                90
_cell_volume                     2177.86
_exptl_crystal_colour            colorless
_exptl_crystal_description       tabular
_cell_formula_units_Z            4
loop_
_atom_site_label
_atom_site_type_symbol
_atom_site_fract_x
_atom_site_fract_y
_atom_site_fract_z
O1 O 0.8085(2) 0.61840(18) -0.04895(11)
O2 O 0.73043(17) 0.42214(15) 0.01173(9)
N1 N 0.44836(18) 0.56765(19) 0.30451(11)
C1 C -0.0193(3) 0.5995(4) 0.20997(18)
H1 H -0.1054 0.6089 0.2047
C2 C 0.0402(3) 0.6527(4) 0.16113(18)
H2 H -0.0052 0.6985 0.1220
C3 C 0.1684(3) 0.6393(3) 0.16918(17)
H3 H 0.2079 0.6745 0.1345
C4 C 0.2384(2) 0.5745(3) 0.22799(13)
C5 C 0.3772(2) 0.5654(2) 0.23747(13)
C6 C 0.4346(2) 0.5554(2) 0.17209(14)
H4 H 0.3710 0.5505 0.1253
C7 C 0.5202(2) 0.4433(2) 0.18382(13)
H5 H 0.4678 0.3730 0.1869
C8 C 0.5836(2) 0.4250(2) 0.11757(14)
H6 H 0.6525 0.3690 0.1322
H7 H 0.5236 0.3895 0.0764
C9 C 0.6330(2) 0.5407(2) 0.09103(12)
C10 C 0.7047(2) 0.5340(2) 0.03740(12)
C11 C 0.7441(2) 0.6376(2) 0.00643(14)
C12 C 0.8294(3) 0.7184(3) -0.09295(19)
H8 H 0.7509 0.7569 -0.1137
H9 H 0.8670 0.6914 -0.1327
H10 H 0.8845 0.7744 -0.0621
C13 C 0.8575(3) 0.3862(3) 0.03771(18)
H11 H 0.9116 0.4418 0.0200
H12 H 0.8691 0.3073 0.0192
H13 H 0.8776 0.3853 0.0914
C14 C 0.6123(2) 0.4569(2) 0.25811(13)
H14 H 0.6965 0.4643 0.2496
H15 H 0.6095 0.3856 0.2881
C15 C 0.5815(2) 0.5693(2) 0.30141(13)
C16 C 0.5992(3) 0.6809(2) 0.25309(14)
H16 H 0.5731 0.7530 0.2753
H17 H 0.6870 0.6894 0.2518
C17 C 0.5207(3) 0.6657(2) 0.17321(14)
H18 H 0.4677 0.7369 0.1605
C18 C 0.7914(2) 0.6001(2) 0.38972(14)
H19 H 0.8254 0.6121 0.3480
C19 C 0.0475(3) 0.5319(4) 0.2671(2)
H20 H 0.0063 0.4935 0.2998
C20 C 0.1759(3) 0.5201(3) 0.27662(16)
H21 H 0.2205 0.4749 0.3163
C21 C 0.6025(2) 0.6529(2) 0.11559(13)
C22 C 0.6474(2) 0.7551(2) 0.08712(14)
H22 H 0.6309 0.8300 0.1053
C23 C 0.7165(2) 0.7483(2) 0.03202(15)
H23 H 0.7440 0.8179 0.0126
C24 C 0.6643(2) 0.5753(2) 0.37991(13)
C25 C 0.6173(2) 0.5559(2) 0.44299(14)
H24 H 0.5327 0.5386 0.4379
C26 C 0.6944(3) 0.5620(2) 0.51380(15)
H25 H 0.6613 0.5483 0.5557
C27 C 0.8194(3) 0.5881(2) 0.52243(15)
H26 H 0.8708 0.5928 0.5700
C28 C 0.8683(3) 0.6073(2) 0.46024(16)
H27 H 0.9529 0.6250 0.4657
loop_
_geom_bond_atom_site_label_1
_geom_bond_atom_site_label_2
_geom_bond_site_symmetry_1
_geom_bond_site_symmetry_2
O1 C11 1_555 1_555
O2 C10 1_555 1_555
N1 C5 1_555 1_555
C1 H1 1_555 1_555
C2 C1 1_555 1_555
H2 C2 1_555 1_555
C3 C2 1_555 1_555
H3 C3 1_555 1_555
C4 C3 1_555 1_555
C5 C4 1_555 1_555
C6 C5 1_555 1_555
H4 C6 1_555 1_555
C7 C6 1_555 1_555
H5 C7 1_555 1_555
C8 C7 1_555 1_555
H6 C8 1_555 1_555
H7 C8 1_555 1_555
C9 C8 1_555 1_555
C10 C9 1_555 1_555
C11 C10 1_555 1_555
C12 O1 1_555 1_555
H8 C12 1_555 1_555
H9 C12 1_555 1_555
H10 C12 1_555 1_555
C13 O2 1_555 1_555
H11 C13 1_555 1_555
H12 C13 1_555 1_555
H13 C13 1_555 1_555
C14 C7 1_555 1_555
H14 C14 1_555 1_555
H15 C14 1_555 1_555
C15 N1 1_555 1_555
C16 C15 1_555 1_555
H16 C16 1_555 1_555
H17 C16 1_555 1_555
C17 C6 1_555 1_555
H18 C17 1_555 1_555
C18 H19 1_555 1_555
C19 C1 1_555 1_555
H20 C19 1_555 1_555
C20 C4 1_555 1_555
H21 C20 1_555 1_555
C21 C9 1_555 1_555
C22 C21 1_555 1_555
H22 C22 1_555 1_555
C23 C11 1_555 1_555
H23 C23 1_555 1_555
C24 C15 1_555 1_555
C25 C24 1_555 1_555
H24 C25 1_555 1_555
C26 C25 1_555 1_555
H25 C26 1_555 1_555
C27 C26 1_555 1_555
H26 C27 1_555 1_555
C28 C18 1_555 1_555
H27 C28 1_555 1_555
C14 C15 1_555 1_555
C16 C17 1_555 1_555
C17 C21 1_555 1_555
C18 C24 1_555 1_555
C19 C20 1_555 1_555
C22 C23 1_555 1_555
C27 C28 1_555 1_555

#END
