
#######################################################################
#
#                 Cambridge Crystallographic Data Centre
#                                CCDC 
#
#######################################################################
#
# If this CIF has been generated from an entry in the Cambridge 
# Structural Database, then it will include bibliographic, chemical, 
# crystal, experimental, refinement or atomic coordinate data resulting 
# from the CCDC's data processing and validation procedures.
#
#######################################################################

data_ACUXED
_chemical_formula_moiety         'C30 H31 N1 O4'
_chemical_name_systematic        
5,6-Dimethoxy-11,13-bis(2-methoxyphenyl)-12-azatetracyclo[9.3.1.0^2,7^.0^9,14^]pentadeca-2,4,6,12-tetraene
_symmetry_cell_setting           monoclinic
_symmetry_space_group_name_H-M   'P 21/n'
_symmetry_Int_Tables_number      14
_space_group_name_Hall           '-P 2yn'
loop_
_symmetry_equiv_pos_site_id
_symmetry_equiv_pos_as_xyz
1 x,y,z
2 1/2-x,1/2+y,1/2-z
3 -x,-y,-z
4 1/2+x,1/2-y,1/2+z
_cell_length_a                   7.3571(5)
_cell_length_b                   8.4928(5)
_cell_length_c                   40.015(3)
_cell_angle_alpha                90
_cell_angle_beta                 94.176(2)
_cell_angle_gamma                90
_cell_volume                     2493.59
_exptl_crystal_colour            colorless
_cell_formula_units_Z            4
loop_
_atom_site_label
_atom_site_type_symbol
_atom_site_fract_x
_atom_site_fract_y
_atom_site_fract_z
O1 O 0.6147(2) 0.8815(2) 0.77066(4)
O2 O 0.45983(18) 0.61518(16) 0.79079(3)
O3 O 1.13512(19) 0.24658(18) 0.82405(3)
O4 O 0.8016(2) 0.64534(18) 0.97067(4)
N1 N 0.9633(2) 0.27891(18) 0.92428(4)
C1 C 0.6943(3) 0.3523(3) 1.03344(6)
H1 H 0.6663 0.3453 1.0557
C2 C 0.7218(3) 0.4968(3) 1.01962(5)
H2 H 0.7108 0.5875 1.0324
C3 C 0.7663(3) 0.5082(3) 0.98643(5)
C4 C 0.7840(3) 0.3729(2) 0.96744(5)
C5 C 0.8410(3) 0.3767(2) 0.93254(5)
C6 C 0.7524(2) 0.4802(2) 0.90598(5)
H3 H 0.6597 0.5481 0.9149
C7 C 0.6679(2) 0.3661(2) 0.87902(5)
H4 H 0.5797 0.2987 0.8894
C8 C 0.5673(3) 0.4578(2) 0.85059(5)
H5 H 0.5434 0.3880 0.8316
H6 H 0.4507 0.4922 0.8578
C9 C 0.6702(2) 0.5997(2) 0.83939(4)
C10 C 0.6062(2) 0.6781(2) 0.81022(4)
C11 C 0.6919(3) 0.8137(2) 0.79959(5)
C12 C 0.7061(5) 1.0109(4) 0.75749(8)
H7 H 0.7055 1.0976 0.7729
H8 H 0.6454 1.0412 0.7364
H9 H 0.8296 0.9819 0.7542
C13 C 0.2878(3) 0.6815(3) 0.79666(6)
H10 H 0.2728 0.6823 0.8203
H11 H 0.1927 0.6197 0.7854
H12 H 0.2816 0.7874 0.7882
C14 C 0.9004(2) 0.5775(2) 0.88999(5)
H13 H 0.9457 0.6582 0.9060
C15 C 1.0598(2) 0.4651(2) 0.88315(5)
H14 H 1.0926 0.4785 0.8603
H15 H 1.1655 0.4904 0.8981
C16 C 1.0022(2) 0.2926(2) 0.88872(4)
C17 C 1.1551(2) 0.1778(2) 0.88160(4)
C18 C 1.2407(3) 0.0900(2) 0.90733(5)
H16 H 1.2018 0.1004 0.9288
C19 C 1.3827(3) -0.0133(3) 0.90216(5)
H17 H 1.4373 -0.0704 0.9200
C20 C 1.4417(3) -0.0305(2) 0.87075(5)
H18 H 1.5358 -0.1001 0.8671
C21 C 1.3609(3) 0.0556(2) 0.84451(5)
H19 H 1.4017 0.0446 0.8232
C22 C 1.2198(3) 0.1584(2) 0.84961(4)
C23 C 1.1910(3) 0.2262(3) 0.79093(5)
H20 H 1.3160 0.2578 0.7903
H21 H 1.1160 0.2898 0.7756
H22 H 1.1787 0.1175 0.7846
C24 C 0.7918(4) 0.7891(3) 0.98869(8)
H23 H 0.6700 0.8040 0.9952
H24 H 0.8239 0.8751 0.9747
H25 H 0.8750 0.7854 1.0083
C25 C 0.7073(4) 0.2185(3) 1.01505(6)
H26 H 0.6858 0.1209 1.0245
C26 C 0.7529(3) 0.2290(3) 0.98218(6)
H27 H 0.7628 0.1373 0.9697
C27 C 0.8217(3) 0.2613(2) 0.86730(5)
H28 H 0.8388 0.2828 0.8439
H29 H 0.7880 0.1514 0.8692
C28 C 0.8224(2) 0.6587(2) 0.85813(5)
C29 C 0.9064(3) 0.7937(2) 0.84732(5)
H30 H 1.0078 0.8332 0.8598
C30 C 0.8423(3) 0.8718(2) 0.81810(5)
H31 H 0.9006 0.9621 0.8112
loop_
_geom_bond_atom_site_label_1
_geom_bond_atom_site_label_2
_geom_bond_site_symmetry_1
_geom_bond_site_symmetry_2
O1 C11 1_555 1_555
O2 C10 1_555 1_555
O3 C22 1_555 1_555
O4 C3 1_555 1_555
N1 C5 1_555 1_555
C1 H1 1_555 1_555
C2 C1 1_555 1_555
H2 C2 1_555 1_555
C3 C2 1_555 1_555
C4 C3 1_555 1_555
C5 C4 1_555 1_555
C6 C5 1_555 1_555
H3 C6 1_555 1_555
C7 C6 1_555 1_555
H4 C7 1_555 1_555
C8 C7 1_555 1_555
H5 C8 1_555 1_555
H6 C8 1_555 1_555
C9 C8 1_555 1_555
C10 C9 1_555 1_555
C11 C10 1_555 1_555
C12 O1 1_555 1_555
H7 C12 1_555 1_555
H8 C12 1_555 1_555
H9 C12 1_555 1_555
C13 O2 1_555 1_555
H10 C13 1_555 1_555
H11 C13 1_555 1_555
H12 C13 1_555 1_555
C14 C6 1_555 1_555
H13 C14 1_555 1_555
C15 C14 1_555 1_555
H14 C15 1_555 1_555
H15 C15 1_555 1_555
C16 N1 1_555 1_555
C17 C16 1_555 1_555
C18 C17 1_555 1_555
H16 C18 1_555 1_555
C19 C18 1_555 1_555
H17 C19 1_555 1_555
C20 C19 1_555 1_555
H18 C20 1_555 1_555
C21 C20 1_555 1_555
H19 C21 1_555 1_555
C22 C17 1_555 1_555
C23 O3 1_555 1_555
H20 C23 1_555 1_555
H21 C23 1_555 1_555
H22 C23 1_555 1_555
C24 O4 1_555 1_555
H23 C24 1_555 1_555
H24 C24 1_555 1_555
H25 C24 1_555 1_555
C25 C1 1_555 1_555
H26 C25 1_555 1_555
C26 C4 1_555 1_555
H27 C26 1_555 1_555
C27 C7 1_555 1_555
H28 C27 1_555 1_555
H29 C27 1_555 1_555
C28 C9 1_555 1_555
C29 C28 1_555 1_555
H30 C29 1_555 1_555
C30 C11 1_555 1_555
H31 C30 1_555 1_555
C14 C28 1_555 1_555
C15 C16 1_555 1_555
C16 C27 1_555 1_555
C21 C22 1_555 1_555
C25 C26 1_555 1_555
C29 C30 1_555 1_555

#END
