
#######################################################################
#
#                 Cambridge Crystallographic Data Centre
#                                CCDC 
#
#######################################################################
#
# If this CIF has been generated from an entry in the Cambridge 
# Structural Database, then it will include bibliographic, chemical, 
# crystal, experimental, refinement or atomic coordinate data resulting 
# from the CCDC's data processing and validation procedures.
#
#######################################################################

data_ACUXON
_chemical_formula_moiety         'C24 H23 N1 O2 S2'
_chemical_name_systematic        
5,6-Dimethoxy-11,13-bis(2-thienyl)-12-azatetracyclo[9.3.1.0^2,7^.0^9,14^]pentadeca-2,4,6,12-tetraene
_symmetry_cell_setting           monoclinic
_symmetry_space_group_name_H-M   'P 21/n'
_symmetry_Int_Tables_number      14
_space_group_name_Hall           '-P 2yn'
loop_
_symmetry_equiv_pos_site_id
_symmetry_equiv_pos_as_xyz
1 x,y,z
2 1/2-x,1/2+y,1/2-z
3 -x,-y,-z
4 1/2+x,1/2-y,1/2+z
_cell_length_a                   9.6380(4)
_cell_length_b                   13.6417(6)
_cell_length_c                   16.0487(8)
_cell_angle_alpha                90
_cell_angle_beta                 105.381(2)
_cell_angle_gamma                90
_cell_volume                     2034.49
_exptl_crystal_colour            colorless
_cell_formula_units_Z            4
loop_
_atom_site_label
_atom_site_type_symbol
_atom_site_fract_x
_atom_site_fract_y
_atom_site_fract_z
S1 S 1.2853(2) 0.45296(13) 0.2055(2)
C1 C 1.2166(8) 0.5721(6) 0.1916(12)
C2 C 1.3269(12) 0.6356(6) 0.2157(8)
H1 H 1.3110 0.7043 0.2135
C3 C 1.4641(9) 0.5971(5) 0.2438(8)
H2 H 1.5497 0.6348 0.2618
C4 C 1.4587(7) 0.4979(6) 0.2417(8)
H3 H 1.5414 0.4572 0.2584
S2 S 0.83534(6) 0.29605(4) 0.12233(4)
N1 N 0.98307(16) 0.48913(11) 0.15271(10)
O1 O 0.76218(16) 1.05750(9) 0.00179(9)
O2 O 0.72234(14) 0.96351(10) 0.13960(9)
C5 C 0.7883(2) 1.10940(15) -0.06999(14)
H4 H 0.8889 1.1005 -0.0707
H5 H 0.7690 1.1793 -0.0646
H6 H 0.7249 1.0840 -0.1238
C6 C 0.7843(2) 0.95809(14) 0.00418(13)
C7 C 0.7638(2) 0.90982(14) 0.07667(12)
C8 C 0.7867(2) 0.80915(14) 0.08818(12)
C9 C 0.7656(2) 0.76108(14) 0.16878(13)
H7 H 0.6613 0.7567 0.1642
H8 H 0.8100 0.8027 0.2194
C10 C 0.8311(2) 0.65867(14) 0.18349(13)
H9 H 0.7940 0.6253 0.2287
C11 C 0.9971(2) 0.65776(14) 0.21291(13)
H10 H 1.0297 0.6385 0.2745
H11 H 1.0344 0.7243 0.2070
C12 C 1.0571(2) 0.58411(14) 0.15694(12)
C13 C 0.6720(2) 0.23814(16) 0.09770(14)
H12 H 0.6607 0.1689 0.0964
C14 C 0.5609(2) 0.30204(16) 0.08037(14)
H13 H 0.4629 0.2824 0.0667
C15 C 0.6057(2) 0.40169(14) 0.08463(13)
H14 H 0.5416 0.4559 0.0728
C16 C 0.7557(2) 0.41003(14) 0.10838(12)
C17 C 0.8229(2) 0.90421(14) -0.05978(13)
H15 H 0.8364 0.9359 -0.1098
C18 C 0.8414(2) 0.80348(14) -0.04968(13)
H16 H 0.8654 0.7666 -0.0941
C19 C 0.8257(2) 0.75514(14) 0.02354(12)
C20 C 0.8562(2) 0.64566(14) 0.03303(13)
H17 H 0.8170 0.6137 -0.0245
C21 C 1.0202(2) 0.62536(14) 0.06386(13)
H18 H 1.0480 0.5775 0.0248
H19 H 1.0743 0.6868 0.0626
C22 C 0.7842(2) 0.59823(14) 0.09912(13)
H20 H 0.6771 0.5963 0.0764
C23 C 0.8457(2) 0.49770(14) 0.12086(12)
C24 C 0.5699(2) 0.96374(16) 0.12752(15)
H21 H 0.5260 1.0133 0.0844
H22 H 0.5484 0.9791 0.1824
H23 H 0.5309 0.8990 0.1075
C25? C 1.292(2) 0.4728(11) 0.2086(16)
C26? C 1.4359(17) 0.4805(13) 0.2433(17)
C27? C 1.4783(19) 0.5755(11) 0.2489(17)
C28? C 1.2180(16) 0.5566(14) 0.193(2)
H24? H 1.2456 0.4109 0.1963
H25? H 1.4989 0.4265 0.2612
H26? H 1.5758 0.5952 0.2705
S3? S 1.3369(5) 0.6583(3) 0.2130(4)
loop_
_geom_bond_atom_site_label_1
_geom_bond_atom_site_label_2
_geom_bond_site_symmetry_1
_geom_bond_site_symmetry_2
S1 C1 1_555 1_555
C1 C2 1_555 1_555
C2 H1 1_555 1_555
C3 C2 1_555 1_555
H2 C3 1_555 1_555
C4 S1 1_555 1_555
H3 C4 1_555 1_555
S2 C13 1_555 1_555
N1 C12 1_555 1_555
O1 C5 1_555 1_555
O2 C7 1_555 1_555
C5 H4 1_555 1_555
H5 C5 1_555 1_555
H6 C5 1_555 1_555
C6 O1 1_555 1_555
C7 C6 1_555 1_555
C8 C7 1_555 1_555
C9 C8 1_555 1_555
H7 C9 1_555 1_555
H8 C9 1_555 1_555
C10 C9 1_555 1_555
H9 C10 1_555 1_555
C11 C10 1_555 1_555
H10 C11 1_555 1_555
H11 C11 1_555 1_555
C12 C1 1_555 1_555
C13 H12 1_555 1_555
C14 C13 1_555 1_555
H13 C14 1_555 1_555
C15 C14 1_555 1_555
H14 C15 1_555 1_555
C16 S2 1_555 1_555
C17 C6 1_555 1_555
H15 C17 1_555 1_555
C18 C17 1_555 1_555
H16 C18 1_555 1_555
C19 C8 1_555 1_555
C20 C19 1_555 1_555
H17 C20 1_555 1_555
C21 C12 1_555 1_555
H18 C21 1_555 1_555
H19 C21 1_555 1_555
C22 C10 1_555 1_555
H20 C22 1_555 1_555
C23 N1 1_555 1_555
C24 O2 1_555 1_555
H21 C24 1_555 1_555
H22 C24 1_555 1_555
H23 C24 1_555 1_555
C3 C4 1_555 1_555
C11 C12 1_555 1_555
C15 C16 1_555 1_555
C16 C23 1_555 1_555
C18 C19 1_555 1_555
C20 C21 1_555 1_555
C20 C22 1_555 1_555
C22 C23 1_555 1_555

#END
