
#######################################################################
#
#                 Cambridge Crystallographic Data Centre
#                                CCDC 
#
#######################################################################
#
# If this CIF has been generated from an entry in the Cambridge 
# Structural Database, then it will include bibliographic, chemical, 
# crystal, experimental, refinement or atomic coordinate data resulting 
# from the CCDC's data processing and validation procedures.
#
#######################################################################

data_ACUYEE
_chemical_formula_moiety         'C23 H19 N1 O2'
_chemical_name_systematic        
1-(3-Benzoyl-2-phenyl-2,3-dihydro-1H-indol-1-yl)ethanone
_symmetry_cell_setting           monoclinic
_symmetry_space_group_name_H-M   'P 21/n'
_symmetry_Int_Tables_number      14
_space_group_name_Hall           '-P 2yn'
loop_
_symmetry_equiv_pos_site_id
_symmetry_equiv_pos_as_xyz
1 x,y,z
2 1/2-x,1/2+y,1/2-z
3 -x,-y,-z
4 1/2+x,1/2-y,1/2+z
_cell_length_a                   8.0652(8)
_cell_length_b                   10.5023(10)
_cell_length_c                   20.722(2)
_cell_angle_alpha                90
_cell_angle_beta                 93.013(2)
_cell_angle_gamma                90
_cell_volume                     1752.79
_exptl_crystal_colour            colorless
_exptl_crystal_description       prismatic
_cell_formula_units_Z            4
loop_
_atom_site_label
_atom_site_type_symbol
_atom_site_fract_x
_atom_site_fract_y
_atom_site_fract_z
N1 N 0.81564(17) 1.00069(13) 0.16746(6)
O1 O 0.7258(2) 1.15350(14) 0.23318(7)
O2 O 0.67602(17) 0.69880(13) 0.09813(6)
C1 C 0.89951(19) 0.87775(15) 0.15621(7)
H1 H 0.8421 0.8095 0.1784
C2 C 0.87960(19) 0.85663(15) 0.08212(7)
H2 H 0.9895 0.8522 0.0642
C3 C 0.7905(2) 0.97509(15) 0.05734(8)
C4 C 0.7556(2) 1.05455(16) 0.10831(8)
C5 C 0.6720(2) 1.16827(17) 0.09708(9)
H3 H 0.6478 1.2219 0.1310
C6 C 0.6257(2) 1.19962(19) 0.03394(10)
H4 H 0.5699 1.2758 0.0255
C7 C 0.6599(2) 1.12134(19) -0.01672(10)
H5 H 0.6275 1.1448 -0.0588
C8 C 0.7421(2) 1.00795(17) -0.00519(8)
H6 H 0.7646 0.9541 -0.0393
C9 C 0.7919(2) 1.05042(17) 0.22715(8)
C10 C 0.8483(3) 0.97294(19) 0.28476(8)
H7 H 0.9674 0.9722 0.2887
H8 H 0.8080 0.8873 0.2796
H9 H 0.8056 1.0095 0.3230
C11 C 0.7818(2) 0.73704(16) 0.06367(8)
C12 C 0.8135(2) 0.67150(16) 0.00179(8)
C13 C 0.9228(2) 0.7164(2) -0.04213(9)
H10 H 0.9869 0.7880 -0.0322
C14 C 0.9376(3) 0.6557(2) -0.10062(11)
H11 H 1.0102 0.6872 -0.1302
C15 C 0.8454(4) 0.5492(2) -0.11497(13)
H12 H 0.8541 0.5090 -0.1546
C16 C 0.7402(4) 0.5016(2) -0.07114(13)
H13 H 0.6796 0.4280 -0.0808
C17 C 0.7237(3) 0.56183(19) -0.01327(11)
H14 H 0.6518 0.5290 0.0162
C18 C 1.0808(2) 0.87775(15) 0.17821(7)
C19 C 1.1802(2) 0.98327(18) 0.17205(8)
H15 H 1.1339 1.0598 0.1575
C20 C 1.3495(2) 0.9754(2) 0.18757(10)
H16 H 1.4161 1.0471 0.1839
C21 C 1.4181(3) 0.8630(2) 0.20810(10)
H17 H 1.5320 0.8574 0.2172
C22 C 1.3202(3) 0.7589(2) 0.21532(11)
H18 H 1.3672 0.6827 0.2300
C23 C 1.1522(2) 0.76608(18) 0.20103(9)
H19 H 1.0859 0.6949 0.2068
loop_
_geom_bond_atom_site_label_1
_geom_bond_atom_site_label_2
_geom_bond_site_symmetry_1
_geom_bond_site_symmetry_2
N1 C1 1_555 1_555
O1 C9 1_555 1_555
O2 C11 1_555 1_555
C1 H1 1_555 1_555
C2 C1 1_555 1_555
H2 C2 1_555 1_555
C3 C2 1_555 1_555
C4 N1 1_555 1_555
C5 C4 1_555 1_555
H3 C5 1_555 1_555
C6 C5 1_555 1_555
H4 C6 1_555 1_555
C7 C6 1_555 1_555
H5 C7 1_555 1_555
C8 C3 1_555 1_555
H6 C8 1_555 1_555
C9 N1 1_555 1_555
C10 C9 1_555 1_555
H7 C10 1_555 1_555
H8 C10 1_555 1_555
H9 C10 1_555 1_555
C11 C2 1_555 1_555
C12 C11 1_555 1_555
C13 C12 1_555 1_555
H10 C13 1_555 1_555
C14 C13 1_555 1_555
H11 C14 1_555 1_555
C15 C14 1_555 1_555
H12 C15 1_555 1_555
C16 C15 1_555 1_555
H13 C16 1_555 1_555
C17 C12 1_555 1_555
H14 C17 1_555 1_555
C18 C1 1_555 1_555
C19 C18 1_555 1_555
H15 C19 1_555 1_555
C20 C19 1_555 1_555
H16 C20 1_555 1_555
C21 C20 1_555 1_555
H17 C21 1_555 1_555
C22 C21 1_555 1_555
H18 C22 1_555 1_555
C23 C18 1_555 1_555
H19 C23 1_555 1_555
C3 C4 1_555 1_555
C7 C8 1_555 1_555
C16 C17 1_555 1_555
C22 C23 1_555 1_555

#END
