
#######################################################################
#
#                 Cambridge Crystallographic Data Centre
#                                CCDC 
#
#######################################################################
#
# If this CIF has been generated from an entry in the Cambridge 
# Structural Database, then it will include bibliographic, chemical, 
# crystal, experimental, refinement or atomic coordinate data resulting 
# from the CCDC's data processing and validation procedures.
#
#######################################################################

data_ACUYAA
_chemical_formula_moiety         'C22 H19 N1 O1'
_chemical_name_systematic        
(1-Methyl-2-phenyl-2,3-dihydro-1H-indol-3-yl)(phenyl)methanone
_symmetry_cell_setting           monoclinic
_symmetry_space_group_name_H-M   'P 21/c'
_symmetry_Int_Tables_number      14
_space_group_name_Hall           '-P 2ybc'
loop_
_symmetry_equiv_pos_site_id
_symmetry_equiv_pos_as_xyz
1 x,y,z
2 -x,1/2+y,1/2-z
3 -x,-y,-z
4 x,1/2-y,1/2+z
_cell_length_a                   9.0768(4)
_cell_length_b                   25.8843(13)
_cell_length_c                   14.4348(7)
_cell_angle_alpha                90
_cell_angle_beta                 95.9050(10)
_cell_angle_gamma                90
_cell_volume                     3373.41
_exptl_crystal_colour            colorless
_exptl_crystal_description       prismatic
_cell_formula_units_Z            8
loop_
_atom_site_label
_atom_site_type_symbol
_atom_site_fract_x
_atom_site_fract_y
_atom_site_fract_z
O1 O 1.04050(13) 0.46462(4) 0.27279(8)
N1 N 0.78029(14) 0.53886(5) 0.07328(9)
C1 C 0.90398(17) 0.57081(6) 0.07340(11)
C2 C 0.9529(2) 0.59776(7) -0.00067(12)
H1 H 0.9029 0.5954 -0.0601
C3 C 1.0778(2) 0.62828(7) 0.01611(14)
H2 H 1.1122 0.6464 -0.0330
C4 C 1.1524(2) 0.63244(7) 0.10337(14)
H3 H 1.2359 0.6534 0.1129
C5 C 1.10328(19) 0.60539(6) 0.17795(12)
H4 H 1.1531 0.6082 0.2373
C6 C 0.97973(16) 0.57435(5) 0.16230(10)
C7 C 0.90153(15) 0.53958(5) 0.22687(10)
H5 H 0.8375 0.5605 0.2626
C8 C 0.80527(15) 0.50572(6) 0.15650(10)
H6 H 0.8642 0.4758 0.1409
C9 C 0.7261(2) 0.51248(8) -0.01263(12)
H7 H 0.6988 0.5376 -0.0603
H8 H 0.6413 0.4919 -0.0023
H9 H 0.8026 0.4905 -0.0319
C10 C 1.00755(15) 0.50818(6) 0.29329(10)
C11 C 1.07295(15) 0.53190(6) 0.38228(10)
C12 C 1.17133(16) 0.50267(7) 0.44113(11)
H10 H 1.1945 0.4692 0.4242
C13 C 1.23479(19) 0.52281(8) 0.52429(11)
H11 H 1.3006 0.5030 0.5631
C14 C 1.2007(2) 0.57208(8) 0.54965(12)
H12 H 1.2438 0.5856 0.6057
C15 C 1.1037(2) 0.60145(8) 0.49318(12)
H13 H 1.0807 0.6348 0.5110
C16 C 1.03966(18) 0.58169(6) 0.40961(11)
H14 H 0.9739 0.6018 0.3714
C17 C 0.66323(15) 0.48625(6) 0.18992(10)
C18 C 0.63771(17) 0.43406(6) 0.19738(11)
H15 H 0.7082 0.4108 0.1804
C19 C 0.50931(19) 0.41548(7) 0.22958(12)
H16 H 0.4947 0.3801 0.2346
C20 C 0.40410(18) 0.44920(7) 0.25392(12)
H17 H 0.3179 0.4369 0.2759
C21 C 0.42646(19) 0.50135(7) 0.24575(14)
H18 H 0.3547 0.5244 0.2618
C22 C 0.55473(18) 0.51979(7) 0.21388(13)
H19 H 0.5684 0.5552 0.2085
O2 O 0.43299(14) 0.21471(5) 0.75736(9)
N2 N 0.14639(14) 0.28788(5) 0.56708(9)
C23 C 0.26534(16) 0.32193(6) 0.56428(11)
C24 C 0.3017(2) 0.35228(7) 0.49036(13)
H20 H 0.2447 0.3514 0.4330
C25 C 0.4251(2) 0.38376(7) 0.50481(14)
H21 H 0.4509 0.4043 0.4561
C26 C 0.5103(2) 0.38555(7) 0.58872(14)
H22 H 0.5932 0.4069 0.5961
C27 C 0.47341(19) 0.35555(6) 0.66314(13)
H23 H 0.5304 0.3568 0.7205
C28 C 0.35089(16) 0.32404(6) 0.65002(10)
C29 C 0.28208(15) 0.28767(5) 0.71567(10)
H24 H 0.2179 0.3075 0.7531
C30 C 0.18537(15) 0.25338(6) 0.64691(10)
H25 H 0.2463 0.2250 0.6269
C31 C 0.0858(2) 0.26216(7) 0.48181(12)
H26 H 0.0670 0.2873 0.4331
H27 H -0.0050 0.2452 0.4922
H28 H 0.1556 0.2371 0.4640
C32 C 0.39209(15) 0.25689(6) 0.78034(10)
C33 C 0.44876(15) 0.27909(6) 0.87219(10)
C34 C 0.54136(18) 0.24858(7) 0.93232(11)
H29 H 0.5675 0.2157 0.9138
C35 C 0.5946(2) 0.26653(8) 1.01881(12)
H30 H 0.6563 0.2458 1.0586
C36 C 0.5569(2) 0.31501(9) 1.04667(13)
H31 H 0.5929 0.3270 1.1054
C37 C 0.4664(2) 0.34580(8) 0.98832(13)
H32 H 0.4418 0.3787 1.0074
C38 C 0.41142(19) 0.32819(6) 0.90124(12)
H33 H 0.3495 0.3491 0.8620
C39 C 0.05449(15) 0.23083(6) 0.68882(10)
C40 C 0.05764(17) 0.18010(6) 0.72003(10)
H34 H 0.1390 0.1594 0.7116
C41 C -0.05798(19) 0.15987(6) 0.76330(12)
H35 H -0.0542 0.1258 0.7838
C42 C -0.17863(19) 0.18998(7) 0.77608(12)
H36 H -0.2569 0.1763 0.8050
C43 C -0.18353(18) 0.24022(7) 0.74620(13)
H37 H -0.2650 0.2607 0.7553
C44 C -0.06819(17) 0.26070(6) 0.70262(12)
H38 H -0.0729 0.2948 0.6824
loop_
_geom_bond_atom_site_label_1
_geom_bond_atom_site_label_2
_geom_bond_site_symmetry_1
_geom_bond_site_symmetry_2
O1 C10 1_555 1_555
O2 C32 1_555 1_555
N1 C1 1_555 1_555
N2 C23 1_555 1_555
C1 C2 1_555 1_555
C2 H1 1_555 1_555
C3 C2 1_555 1_555
H2 C3 1_555 1_555
C4 C3 1_555 1_555
H3 C4 1_555 1_555
C5 C4 1_555 1_555
H4 C5 1_555 1_555
C6 C1 1_555 1_555
C7 C6 1_555 1_555
H5 C7 1_555 1_555
C8 N1 1_555 1_555
H6 C8 1_555 1_555
C9 N1 1_555 1_555
H7 C9 1_555 1_555
H8 C9 1_555 1_555
H9 C9 1_555 1_555
C10 C7 1_555 1_555
C11 C10 1_555 1_555
C12 C11 1_555 1_555
H10 C12 1_555 1_555
C13 C12 1_555 1_555
H11 C13 1_555 1_555
C14 C13 1_555 1_555
H12 C14 1_555 1_555
C15 C14 1_555 1_555
H13 C15 1_555 1_555
C16 C11 1_555 1_555
H14 C16 1_555 1_555
C17 C8 1_555 1_555
C18 C17 1_555 1_555
H15 C18 1_555 1_555
C19 C18 1_555 1_555
H16 C19 1_555 1_555
C20 C19 1_555 1_555
H17 C20 1_555 1_555
C21 C20 1_555 1_555
H18 C21 1_555 1_555
C22 C17 1_555 1_555
H19 C22 1_555 1_555
C23 C24 1_555 1_555
C24 H20 1_555 1_555
C25 C24 1_555 1_555
H21 C25 1_555 1_555
C26 C25 1_555 1_555
H22 C26 1_555 1_555
C27 C26 1_555 1_555
H23 C27 1_555 1_555
C28 C23 1_555 1_555
C29 C28 1_555 1_555
H24 C29 1_555 1_555
C30 N2 1_555 1_555
H25 C30 1_555 1_555
C31 N2 1_555 1_555
H26 C31 1_555 1_555
H27 C31 1_555 1_555
H28 C31 1_555 1_555
C32 C29 1_555 1_555
C33 C32 1_555 1_555
C34 C33 1_555 1_555
H29 C34 1_555 1_555
C35 C34 1_555 1_555
H30 C35 1_555 1_555
C36 C35 1_555 1_555
H31 C36 1_555 1_555
C37 C36 1_555 1_555
H32 C37 1_555 1_555
C38 C33 1_555 1_555
H33 C38 1_555 1_555
C39 C30 1_555 1_555
C40 C39 1_555 1_555
H34 C40 1_555 1_555
C41 C40 1_555 1_555
H35 C41 1_555 1_555
C42 C41 1_555 1_555
H36 C42 1_555 1_555
C43 C42 1_555 1_555
H37 C43 1_555 1_555
C44 C39 1_555 1_555
H38 C44 1_555 1_555
C5 C6 1_555 1_555
C7 C8 1_555 1_555
C15 C16 1_555 1_555
C21 C22 1_555 1_555
C27 C28 1_555 1_555
C29 C30 1_555 1_555
C37 C38 1_555 1_555
C43 C44 1_555 1_555

#END
