
#######################################################################
#
#                 Cambridge Crystallographic Data Centre
#                                CCDC 
#
#######################################################################
#
# If this CIF has been generated from an entry in the Cambridge 
# Structural Database, then it will include bibliographic, chemical, 
# crystal, experimental, refinement or atomic coordinate data resulting 
# from the CCDC's data processing and validation procedures.
#
#######################################################################

data_ACUYII
_chemical_formula_moiety         'C23 H18 N2 O1'
_chemical_name_systematic        
3-Benzoyl-1-methyl-2-phenylindoline-5-carbonitrile
_symmetry_cell_setting           monoclinic
_symmetry_space_group_name_H-M   'P 21'
_symmetry_Int_Tables_number      4
_space_group_name_Hall           'P 2yb'
loop_
_symmetry_equiv_pos_site_id
_symmetry_equiv_pos_as_xyz
1 x,y,z
2 -x,1/2+y,-z
_cell_length_a                   11.435(6)
_cell_length_b                   6.330(4)
_cell_length_c                   12.887(7)
_cell_angle_alpha                90
_cell_angle_beta                 105.373(11)
_cell_angle_gamma                90
_cell_volume                     899.431
_exptl_crystal_colour            colorless
_exptl_crystal_description       prismatic
_cell_formula_units_Z            2
loop_
_atom_site_label
_atom_site_type_symbol
_atom_site_fract_x
_atom_site_fract_y
_atom_site_fract_z
N1 N 0.5134(2) 0.0257(5) 0.8179(2)
N2 N 0.3307(3) 0.9333(6) 0.5430(3)
O1 O 0.7880(2) 0.4104(4) 0.74120(18)
C1 C 0.6356(3) 0.1370(5) 0.7035(2)
H1 H 0.6091 0.0539 0.6372
C2 C 0.6352(3) -0.0144(5) 0.8020(2)
H2 H 0.6397 -0.1615 0.7796
C3 C 0.4653(3) 0.2150(5) 0.7729(2)
C4 C 0.5355(3) 0.2966(5) 0.7050(2)
C5 C 0.5002(3) 0.4795(5) 0.6466(2)
H3 H 0.5458 0.5312 0.6021
C6 C 0.3945(3) 0.5883(6) 0.6545(2)
C7 C 0.3266(3) 0.5081(6) 0.7234(2)
H4 H 0.2576 0.5797 0.7290
C8 C 0.3618(3) 0.3241(6) 0.7827(2)
H5 H 0.3172 0.2740 0.8283
C9 C 0.3575(3) 0.7803(6) 0.5937(3)
C10 C 0.7614(3) 0.2294(5) 0.7080(2)
C11 C 0.8516(3) 0.0896(5) 0.6727(2)
C12 C 0.9690(3) 0.1657(6) 0.6818(2)
H6 H 0.9903 0.2995 0.7104
C13 C 1.0540(3) 0.0450(6) 0.6489(3)
H7 H 1.1319 0.0970 0.6563
C14 C 1.0219(3) -0.1562(6) 0.6044(3)
H8 H 1.0781 -0.2365 0.5810
C15 C 0.9075(3) -0.2345(6) 0.5953(3)
H9 H 0.8868 -0.3682 0.5662
C16 C 0.8220(3) -0.1149(5) 0.6293(3)
H10 H 0.7451 -0.1699 0.6234
C17 C 0.7360(3) 0.0257(5) 0.9053(2)
C18 C 0.8205(3) -0.1328(6) 0.9477(3)
H11 H 0.8168 -0.2611 0.9118
C19 C 0.9105(3) -0.0999(7) 1.0436(3)
H12 H 0.9667 -0.2059 1.0706
C20 C 0.9167(3) 0.0903(7) 1.0989(3)
H13 H 0.9758 0.1105 1.1633
C21 C 0.8338(3) 0.2507(6) 1.0573(2)
H14 H 0.8384 0.3791 1.0933
C22 C 0.7437(3) 0.2181(5) 0.9614(2)
H15 H 0.6881 0.3249 0.9344
C23 C 0.4742(3) -0.0837(7) 0.9031(3)
H16 H 0.3883 -0.0664 0.8915
H17 H 0.5156 -0.0251 0.9717
H18 H 0.4930 -0.2314 0.9019
loop_
_geom_bond_atom_site_label_1
_geom_bond_atom_site_label_2
_geom_bond_site_symmetry_1
_geom_bond_site_symmetry_2
N1 C2 1_555 1_555
N2 C9 1_555 1_555
O1 C10 1_555 1_555
C1 H1 1_555 1_555
C2 C1 1_555 1_555
H2 C2 1_555 1_555
C3 N1 1_555 1_555
C4 C1 1_555 1_555
C5 C4 1_555 1_555
H3 C5 1_555 1_555
C6 C5 1_555 1_555
C7 C6 1_555 1_555
H4 C7 1_555 1_555
C8 C3 1_555 1_555
H5 C8 1_555 1_555
C9 C6 1_555 1_555
C10 C1 1_555 1_555
C11 C10 1_555 1_555
C12 C11 1_555 1_555
H6 C12 1_555 1_555
C13 C12 1_555 1_555
H7 C13 1_555 1_555
C14 C13 1_555 1_555
H8 C14 1_555 1_555
C15 C14 1_555 1_555
H9 C15 1_555 1_555
C16 C11 1_555 1_555
H10 C16 1_555 1_555
C17 C2 1_555 1_555
C18 C17 1_555 1_555
H11 C18 1_555 1_555
C19 C18 1_555 1_555
H12 C19 1_555 1_555
C20 C19 1_555 1_555
H13 C20 1_555 1_555
C21 C20 1_555 1_555
H14 C21 1_555 1_555
C22 C17 1_555 1_555
H15 C22 1_555 1_555
C23 N1 1_555 1_555
H16 C23 1_555 1_555
H17 C23 1_555 1_555
H18 C23 1_555 1_555
C3 C4 1_555 1_555
C7 C8 1_555 1_555
C15 C16 1_555 1_555
C21 C22 1_555 1_555

#END
