
#######################################################################
#
#                 Cambridge Crystallographic Data Centre
#                                CCDC 
#
#######################################################################
#
# If this CIF has been generated from an entry in the Cambridge 
# Structural Database, then it will include bibliographic, chemical, 
# crystal, experimental, refinement or atomic coordinate data resulting 
# from the CCDC's data processing and validation procedures.
#
#######################################################################

data_ACUYOO
_chemical_formula_moiety         'C30 H25 N1 O2'
_chemical_name_systematic        
(3-Benzoyl-1-methyl-2-phenyl-2,3-dihydro-1H-indol-3-yl)(4-methylphenyl)methanone
_symmetry_cell_setting           triclinic
_symmetry_space_group_name_H-M   'P -1'
_symmetry_Int_Tables_number      2
_space_group_name_Hall           '-P 1'
loop_
_symmetry_equiv_pos_site_id
_symmetry_equiv_pos_as_xyz
1 x,y,z
2 -x,-y,-z
_cell_length_a                   9.5516(10)
_cell_length_b                   9.6932(10)
_cell_length_c                   13.1354(13)
_cell_angle_alpha                71.896(2)
_cell_angle_beta                 82.514(2)
_cell_angle_gamma                86.686(2)
_cell_volume                     1145.9
_exptl_crystal_colour            green
_exptl_crystal_description       prismatic
_cell_formula_units_Z            2
loop_
_atom_site_label
_atom_site_type_symbol
_atom_site_fract_x
_atom_site_fract_y
_atom_site_fract_z
N1 N 0.2795(2) 0.6460(2) 0.88193(15)
O1 O 0.38821(15) 0.48887(16) 0.61086(11)
O2 O 0.60189(17) 0.62053(19) 0.86419(12)
C1 C 0.2827(2) 0.7538(2) 0.78538(18)
C2 C 0.2109(3) 0.8867(3) 0.7630(2)
H1 H 0.1511 0.9115 0.8166
C3 C 0.2305(3) 0.9808(3) 0.6596(3)
H2 H 0.1841 1.0707 0.6441
C4 C 0.3163(3) 0.9456(3) 0.5788(2)
H3 H 0.3264 1.0105 0.5093
C5 C 0.3891(2) 0.8113(2) 0.60132(18)
H4 H 0.4484 0.7870 0.5472
C6 C 0.3716(2) 0.7163(2) 0.70426(16)
C7 C 0.44127(19) 0.5697(2) 0.75590(15)
C8 C 0.3440(2) 0.5121(2) 0.86621(16)
H5 H 0.4027 0.4661 0.9239
C9 C 0.2336(2) 0.4055(2) 0.86474(16)
C10 C 0.2377(3) 0.2626(3) 0.9286(2)
H6 H 0.3056 0.2318 0.9760
C11 C 0.1416(3) 0.1649(3) 0.9227(3)
H7 H 0.1461 0.0688 0.9659
C12 C 0.0406(3) 0.2074(3) 0.8544(2)
H8 H -0.0221 0.1404 0.8496
C13 C 0.0320(2) 0.3507(3) 0.7925(2)
H9 H -0.0384 0.3814 0.7473
C14 C 0.1276(2) 0.4481(2) 0.79757(18)
H10 H 0.1213 0.5445 0.7553
C15 C 0.1756(3) 0.6392(3) 0.9728(2)
H11 H 0.0834 0.6317 0.9536
H12 H 0.1794 0.7255 0.9934
H13 H 0.1947 0.5558 1.0320
C16 C 0.44508(19) 0.4601(2) 0.69193(15)
C17 C 0.51326(19) 0.3140(2) 0.73687(16)
C18 C 0.5854(2) 0.2758(3) 0.8265(2)
H14 H 0.5984 0.3446 0.8602
C19 C 0.6384(3) 0.1367(3) 0.8663(3)
H15 H 0.6853 0.1116 0.9275
C20 C 0.6220(3) 0.0353(3) 0.8157(3)
H16 H 0.6596 -0.0580 0.8417
C21 C 0.5509(3) 0.0711(3) 0.7277(3)
H17 H 0.5389 0.0017 0.6942
C22 C 0.4966(3) 0.2093(3) 0.6878(2)
H18 H 0.4483 0.2327 0.6274
C23 C 0.5884(2) 0.6113(2) 0.77633(16)
C24 C 0.7078(2) 0.6506(2) 0.68757(16)
C25 C 0.8217(2) 0.7219(2) 0.70501(19)
H19 H 0.8177 0.7466 0.7683
C26 C 0.9389(2) 0.7560(3) 0.6302(2)
H20 H 1.0121 0.8048 0.6435
C27 C 0.9512(2) 0.7199(2) 0.53551(19)
C28 C 0.8384(2) 0.6499(2) 0.51794(18)
H21 H 0.8433 0.6243 0.4549
C29 C 0.7191(2) 0.6172(2) 0.59146(17)
H22 H 0.6446 0.5719 0.5764
C30 C 1.0819(3) 0.7554(3) 0.4557(2)
H23 H 1.0735 0.7189 0.3967
H24 H 1.1628 0.7112 0.4905
H25 H 1.0927 0.8587 0.4291
loop_
_geom_bond_atom_site_label_1
_geom_bond_atom_site_label_2
_geom_bond_site_symmetry_1
_geom_bond_site_symmetry_2
N1 C1 1_555 1_555
O1 C16 1_555 1_555
O2 C23 1_555 1_555
C1 C2 1_555 1_555
C2 H1 1_555 1_555
C3 C2 1_555 1_555
H2 C3 1_555 1_555
C4 C3 1_555 1_555
H3 C4 1_555 1_555
C5 C4 1_555 1_555
H4 C5 1_555 1_555
C6 C1 1_555 1_555
C7 C6 1_555 1_555
C8 N1 1_555 1_555
H5 C8 1_555 1_555
C9 C8 1_555 1_555
C10 C9 1_555 1_555
H6 C10 1_555 1_555
C11 C10 1_555 1_555
H7 C11 1_555 1_555
C12 C11 1_555 1_555
H8 C12 1_555 1_555
C13 C12 1_555 1_555
H9 C13 1_555 1_555
C14 C9 1_555 1_555
H10 C14 1_555 1_555
C15 N1 1_555 1_555
H11 C15 1_555 1_555
H12 C15 1_555 1_555
H13 C15 1_555 1_555
C16 C7 1_555 1_555
C17 C16 1_555 1_555
C18 C17 1_555 1_555
H14 C18 1_555 1_555
C19 C18 1_555 1_555
H15 C19 1_555 1_555
C20 C19 1_555 1_555
H16 C20 1_555 1_555
C21 C20 1_555 1_555
H17 C21 1_555 1_555
C22 C17 1_555 1_555
H18 C22 1_555 1_555
C23 C7 1_555 1_555
C24 C23 1_555 1_555
C25 C24 1_555 1_555
H19 C25 1_555 1_555
C26 C25 1_555 1_555
H20 C26 1_555 1_555
C27 C26 1_555 1_555
C28 C27 1_555 1_555
H21 C28 1_555 1_555
C29 C24 1_555 1_555
H22 C29 1_555 1_555
C30 C27 1_555 1_555
H23 C30 1_555 1_555
H24 C30 1_555 1_555
H25 C30 1_555 1_555
C5 C6 1_555 1_555
C7 C8 1_555 1_555
C13 C14 1_555 1_555
C21 C22 1_555 1_555
C28 C29 1_555 1_555

#END
