
#######################################################################
#
#                 Cambridge Crystallographic Data Centre
#                                CCDC 
#
#######################################################################
#
# If this CIF has been generated from an entry in the Cambridge 
# Structural Database, then it will include bibliographic, chemical, 
# crystal, experimental, refinement or atomic coordinate data resulting 
# from the CCDC's data processing and validation procedures.
#
#######################################################################

data_ACUZEF
_chemical_formula_moiety         'C15 H16 Cl1 N1 O3 S1'
_chemical_name_systematic        
3-(1-Chloroethylidene)-1-((4-methylphenyl)sulfonyl)-4-vinylpyrrolidin-2-one
_symmetry_cell_setting           orthorhombic
_symmetry_space_group_name_H-M   'P 21 21 21'
_symmetry_Int_Tables_number      19
_space_group_name_Hall           'P 2ac 2ab'
loop_
_symmetry_equiv_pos_site_id
_symmetry_equiv_pos_as_xyz
1 x,y,z
2 1/2-x,-y,1/2+z
3 1/2+x,1/2-y,-z
4 -x,1/2+y,1/2-z
_cell_length_a                   6.06670(10)
_cell_length_b                   14.0644(3)
_cell_length_c                   36.6000(8)
_cell_angle_alpha                90
_cell_angle_beta                 90
_cell_angle_gamma                90
_cell_volume                     3122.88
_exptl_crystal_colour            colorless
_exptl_crystal_description       plate-like
_cell_formula_units_Z            8
loop_
_atom_site_label
_atom_site_type_symbol
_atom_site_fract_x
_atom_site_fract_y
_atom_site_fract_z
Cl1 Cl 0.56662(8) 0.79205(3) 0.081324(12)
S1 S 0.90437(7) 0.57397(3) 0.228983(11)
O1 O 1.08227(19) 0.71850(9) 0.17446(3)
O2 O 1.1265(2) 0.54907(9) 0.22091(3)
O3 O 0.7509(3) 0.50295(9) 0.24012(3)
N1 N 0.7948(2) 0.61997(11) 0.19100(4)
C1 C 0.9003(3) 0.68620(11) 0.16874(4)
C2 C 0.7424(3) 0.70705(12) 0.13872(4)
C3 C 0.5453(3) 0.64329(15) 0.14261(5)
H1 H 0.4077 0.6813 0.1389
C4 C 0.5587(3) 0.61015(16) 0.18276(5)
H2 H 0.4684 0.6511 0.1989
H3 H 0.5096 0.5434 0.1854
C5 C 0.7747(3) 0.77369(12) 0.11339(4)
C6 C 0.9657(3) 0.83693(14) 0.10808(5)
H4 H 1.0764 0.8239 0.1269
H5 H 0.9179 0.9033 0.1099
H6 H 1.0298 0.8256 0.0839
C7 C 0.5428(4) 0.55975(17) 0.11782(6)
H7 H 0.4093 0.5245 0.1171
C8 C 0.6957(6) 0.52994(19) 0.09767(7)
H8 H 0.8333 0.5622 0.0972
H9 H 0.6737 0.4752 0.0829
C9 C 0.9042(3) 0.66539(11) 0.26142(4)
C10 C 0.7202(3) 0.67727(13) 0.28376(5)
H10 H 0.5929 0.6388 0.2806
C11 C 0.7271(4) 0.74629(14) 0.31064(5)
H11 H 0.6021 0.7555 0.3259
C12 C 0.9130(4) 0.80250(13) 0.31585(5)
C13 C 1.0925(4) 0.79026(14) 0.29268(5)
H12 H 1.2193 0.8291 0.2957
C14 C 1.0895(3) 0.72251(12) 0.26539(5)
H13 H 1.2123 0.7151 0.2496
C15 C 0.9215(6) 0.87363(16) 0.34663(6)
H14 H 1.0754 0.8855 0.3534
H15 H 0.8417 0.8484 0.3678
H16 H 0.8529 0.9333 0.3387
Cl2 Cl 0.70467(9) 0.88499(4) -0.041663(13)
S2 S 0.47103(7) 1.15630(3) 0.098039(11)
N2 N 0.5471(2) 1.10250(10) 0.05930(4)
O4 O 0.2525(2) 0.99915(10) 0.05361(3)
O5 O 0.2389(2) 1.16999(9) 0.09655(3)
O6 O 0.6161(3) 1.23566(9) 0.10130(4)
C16 C 0.4293(3) 1.02787(11) 0.04339(4)
C17 C 0.5687(3) 0.99382(12) 0.01250(4)
C18 C 0.7659(3) 1.05825(14) 0.00895(5)
H17 H 0.9018 1.0193 0.0051
C19 C 0.7762(3) 1.10747(15) 0.04650(5)
H18 H 0.8766 1.0733 0.0633
H19 H 0.8259 1.1742 0.0441
C20 C 0.5214(3) 0.91722(12) -0.00721(4)
C21 C 0.3283(4) 0.85220(14) -0.00438(5)
H20 H 0.2420 0.8685 0.0174
H21 H 0.3800 0.7864 -0.0025
H22 H 0.2359 0.8590 -0.0262
C22 C 0.7439(5) 1.13040(15) -0.02141(6)
H23 H 0.8664 1.1711 -0.0254
C23 C 0.5730(6) 1.14233(16) -0.04269(6)
H24 H 0.4463 1.1034 -0.0398
H25 H 0.5755 1.1900 -0.0611
C24 C 0.5328(3) 1.07403(11) 0.13263(4)
C25 C 0.3756(3) 1.00727(12) 0.14236(5)
H26 H 0.2378 1.0051 0.1301
C26 C 0.4219(3) 0.94383(13) 0.17019(5)
H27 H 0.3143 0.8981 0.1770
C27 C 0.6234(3) 0.94584(12) 0.18840(4)
C28 C 0.7793(3) 1.01245(13) 0.17770(5)
H28 H 0.9183 1.0137 0.1896
C29 C 0.7371(3) 1.07739(13) 0.14996(5)
H29 H 0.8449 1.1229 0.1430
C30 C 0.6678(4) 0.87900(14) 0.21942(5)
H30 H 0.6481 0.9126 0.2427
H31 H 0.8194 0.8554 0.2177
H32 H 0.5650 0.8254 0.2182
loop_
_geom_bond_atom_site_label_1
_geom_bond_atom_site_label_2
_geom_bond_site_symmetry_1
_geom_bond_site_symmetry_2
Cl1 C5 1_555 1_555
S1 O2 1_555 1_555
O1 C1 1_555 1_555
O3 S1 1_555 1_555
N1 S1 1_555 1_555
C1 N1 1_555 1_555
C2 C1 1_555 1_555
C3 C2 1_555 1_555
H1 C3 1_555 1_555
C4 N1 1_555 1_555
H2 C4 1_555 1_555
H3 C4 1_555 1_555
C5 C2 1_555 1_555
C6 C5 1_555 1_555
H4 C6 1_555 1_555
H5 C6 1_555 1_555
H6 C6 1_555 1_555
C7 C3 1_555 1_555
H7 C7 1_555 1_555
C8 C7 1_555 1_555
H8 C8 1_555 1_555
H9 C8 1_555 1_555
C9 S1 1_555 1_555
C10 C9 1_555 1_555
H10 C10 1_555 1_555
C11 C10 1_555 1_555
H11 C11 1_555 1_555
C12 C11 1_555 1_555
C13 C12 1_555 1_555
H12 C13 1_555 1_555
C14 C9 1_555 1_555
H13 C14 1_555 1_555
C15 C12 1_555 1_555
H14 C15 1_555 1_555
H15 C15 1_555 1_555
H16 C15 1_555 1_555
Cl2 C20 1_555 1_555
S2 N2 1_555 1_555
N2 C16 1_555 1_555
O4 C16 1_555 1_555
O5 S2 1_555 1_555
O6 S2 1_555 1_555
C16 C17 1_555 1_555
C17 C18 1_555 1_555
C18 H17 1_555 1_555
C19 N2 1_555 1_555
H18 C19 1_555 1_555
H19 C19 1_555 1_555
C20 C17 1_555 1_555
C21 C20 1_555 1_555
H20 C21 1_555 1_555
H21 C21 1_555 1_555
H22 C21 1_555 1_555
C22 C18 1_555 1_555
H23 C22 1_555 1_555
C23 C22 1_555 1_555
H24 C23 1_555 1_555
H25 C23 1_555 1_555
C24 S2 1_555 1_555
C25 C24 1_555 1_555
H26 C25 1_555 1_555
C26 C25 1_555 1_555
H27 C26 1_555 1_555
C27 C26 1_555 1_555
C28 C27 1_555 1_555
H28 C28 1_555 1_555
C29 C24 1_555 1_555
H29 C29 1_555 1_555
C30 C27 1_555 1_555
H30 C30 1_555 1_555
H31 C30 1_555 1_555
H32 C30 1_555 1_555
C3 C4 1_555 1_555
C13 C14 1_555 1_555
C18 C19 1_555 1_555
C28 C29 1_555 1_555

#END
