
#######################################################################
#
#                 Cambridge Crystallographic Data Centre
#                                CCDC 
#
#######################################################################
#
# If this CIF has been generated from an entry in the Cambridge 
# Structural Database, then it will include bibliographic, chemical, 
# crystal, experimental, refinement or atomic coordinate data resulting 
# from the CCDC's data processing and validation procedures.
#
#######################################################################

data_ACUZAB
_chemical_formula_moiety         'C79 H26 N2 O4,3(C1 H1 Cl3),0.15(H2 O1)'
_chemical_name_systematic        
"1,2-(N,N'-bis(4-t-butylphenyl)dihydrofuran-2,5-diimine)-open-cage-C59fullerenetrione hydrate guest chloroform solvate"
_symmetry_cell_setting           triclinic
_symmetry_space_group_name_H-M   'P -1'
_symmetry_Int_Tables_number      2
_space_group_name_Hall           '-P 1'
loop_
_symmetry_equiv_pos_site_id
_symmetry_equiv_pos_as_xyz
1 x,y,z
2 -x,-y,-z
_cell_length_a                   13.593(3)
_cell_length_b                   14.451(4)
_cell_length_c                   15.435(4)
_cell_angle_alpha                105.313(5)
_cell_angle_beta                 91.450(4)
_cell_angle_gamma                91.371(4)
_cell_volume                     2921.88
_exptl_crystal_colour            black
_exptl_crystal_description       platelet
_cell_formula_units_Z            2
loop_
_atom_site_label
_atom_site_type_symbol
_atom_site_fract_x
_atom_site_fract_y
_atom_site_fract_z
Cl1 Cl 0.34123(8) 0.18364(9) 0.38963(7)
Cl2 Cl 0.21213(9) 0.15491(8) 0.23329(7)
Cl3 Cl 0.14019(9) 0.24770(9) 0.40778(8)
C80 C 0.2196(3) 0.1599(3) 0.3486(3)
H27 H 0.1976 0.0961 0.3563
Cl4 Cl 0.18512(9) 0.42440(10) 0.20724(10)
Cl5 Cl 0.00952(10) 0.30670(9) 0.19528(10)
Cl6 Cl -0.00532(10) 0.51167(9) 0.22865(10)
C81 C 0.0662(3) 0.4185(3) 0.2478(3)
H28 H 0.0715 0.4255 0.3139
Cl7 Cl 0.0868(6) 0.6175(4) 0.4440(3)
Cl8 Cl 0.1440(4) 0.5751(5) 0.6158(3)
Cl9 Cl 0.25441(16) 0.51298(18) 0.45461(14)
C82 C 0.1782(4) 0.5964(4) 0.5177(4)
H29 H 0.2086 0.6620 0.5430
O1 O 0.33633(19) 0.83449(17) 0.42894(16)
O2 O 0.3241(2) 0.7796(2) 0.64235(18)
O3 O 0.1181(3) 0.8017(2) 0.6047(2)
O4 O 0.1080(2) 0.9505(2) 0.5076(2)
N1 N 0.4601(2) 0.7729(2) 0.50421(19)
N2 N 0.2523(2) 0.9433(2) 0.36953(19)
C1 C 0.4030(3) 0.8392(3) 0.5001(2)
C2 C 0.3998(2) 0.9359(2) 0.5599(2)
C3 C 0.3338(3) 0.9885(2) 0.5199(2)
C4 C 0.2979(3) 0.9239(2) 0.4344(2)
C5 C 0.4647(3) 0.6847(3) 0.4376(2)
C6 C 0.4095(3) 0.6567(3) 0.3572(3)
H1 H 0.3592 0.6966 0.3453
C7 C 0.4272(3) 0.5707(3) 0.2942(3)
H2 H 0.3891 0.5539 0.2396
C8 C 0.4981(3) 0.5091(3) 0.3081(3)
C9 C 0.5504(4) 0.5363(3) 0.3884(3)
H3 H 0.5993 0.4953 0.4009
C10 C 0.5339(4) 0.6227(3) 0.4524(3)
H4 H 0.5716 0.6387 0.5073
C11 C 0.5165(3) 0.4146(3) 0.2381(3)
C12 C 0.4861(4) 0.4199(3) 0.1431(3)
H5 H 0.5046 0.3611 0.0992
H6 H 0.5196 0.4754 0.1302
H7 H 0.4147 0.4267 0.1392
C13 C 0.4582(4) 0.3330(3) 0.2616(4)
H8 H 0.3879 0.3467 0.2626
H9 H 0.4805 0.3275 0.3209
H10 H 0.4689 0.2725 0.2164
C14 C 0.6268(3) 0.3931(3) 0.2372(3)
H11 H 0.6482 0.3859 0.2961
H12 H 0.6644 0.4462 0.2240
H13 H 0.6380 0.3336 0.1910
C15 C 0.2354(2) 0.8689(2) 0.2886(2)
C16 C 0.2535(3) 0.8911(2) 0.2084(2)
H14 H 0.2733 0.9547 0.2088
C17 C 0.2428(3) 0.8207(3) 0.1270(2)
H15 H 0.2564 0.8373 0.0728
C18 C 0.2127(3) 0.7269(2) 0.1227(2)
C19 C 0.1900(3) 0.7072(3) 0.2046(2)
H16 H 0.1666 0.6447 0.2043
C20 C 0.2008(3) 0.7767(3) 0.2858(2)
H17 H 0.1845 0.7613 0.3399
C21 C 0.2082(3) 0.6468(3) 0.0352(2)
C22 C 0.2132(5) 0.6871(3) -0.0462(3)
H18 H 0.2052 0.6346 -0.1012
H19 H 0.2771 0.7201 -0.0456
H20 H 0.1605 0.7326 -0.0442
C23 C 0.1137(3) 0.5843(3) 0.0259(3)
H21 H 0.1147 0.5322 -0.0297
H22 H 0.0564 0.6236 0.0238
H23 H 0.1096 0.5570 0.0775
C24 C 0.2969(3) 0.5827(3) 0.0358(3)
H24 H 0.2912 0.5517 0.0848
H25 H 0.3579 0.6221 0.0445
H26 H 0.2981 0.5335 -0.0217
C25 C 0.3180(3) 1.0865(2) 0.5605(2)
C26 C 0.2299(3) 1.1470(3) 0.5841(2)
C27 C 0.1345(3) 1.1171(3) 0.5938(2)
C28 C 0.0932(3) 1.0156(3) 0.5723(3)
C29 C 0.0346(3) 1.0102(3) 0.6533(3)
C30 C 0.0381(3) 0.9407(3) 0.6985(3)
C31 C 0.1020(3) 0.8537(3) 0.6769(3)
C32 C 0.1492(3) 0.8530(3) 0.7673(3)
C33 C 0.2467(3) 0.8420(3) 0.7851(3)
C34 C 0.3278(3) 0.8287(2) 0.7186(2)
C35 C 0.4102(3) 0.8974(3) 0.7654(2)
C36 C 0.4663(2) 0.9595(3) 0.7301(2)
C37 C 0.4505(2) 0.9811(2) 0.6416(2)
C38 C 0.4603(2) 1.0825(3) 0.6587(2)
C39 C 0.3950(3) 1.1336(3) 0.6193(2)
C40 C 0.3679(3) 1.2288(3) 0.6678(2)
C41 C 0.2655(3) 1.2379(3) 0.6465(2)
C42 C 0.2074(3) 1.2929(3) 0.7126(2)
C43 C 0.1098(3) 1.2598(3) 0.7222(3)
C44 C 0.0758(3) 1.1723(3) 0.6661(3)
C45 C 0.0166(3) 1.1072(3) 0.7017(3)
C46 C -0.0038(3) 1.1320(3) 0.7931(3)
C47 C 0.0008(3) 1.0585(3) 0.8404(3)
C48 C 0.0248(3) 0.9670(3) 0.7943(3)
C49 C 0.0925(3) 0.9139(3) 0.8361(3)
C50 C 0.1315(3) 0.9547(3) 0.9214(3)
C51 C 0.2337(3) 0.9429(3) 0.9404(3)
C52 C 0.2902(3) 0.8906(3) 0.8712(3)
C53 C 0.3887(3) 0.9236(3) 0.8600(2)
C54 C 0.4271(3) 1.0068(3) 0.9191(2)
C55 C 0.4852(3) 1.0725(3) 0.8852(2)
C56 C 0.5026(2) 1.0495(3) 0.7931(2)
C57 C 0.4990(2) 1.1250(3) 0.7493(2)
C58 C 0.4763(3) 1.2179(3) 0.7944(3)
C59 C 0.4089(3) 1.2715(3) 0.7526(3)
C60 C 0.3481(3) 1.3277(2) 0.8214(3)
C61 C 0.2500(3) 1.3386(2) 0.8019(3)
C62 C 0.0889(3) 1.2843(3) 0.8176(3)
C63 C 0.0335(3) 1.2213(3) 0.8515(3)
C64 C 0.0620(3) 1.2029(3) 0.9365(3)
C65 C 0.0419(3) 1.1025(3) 0.9296(3)
C66 C 0.1062(3) 1.0517(3) 0.9699(3)
C67 C 0.1927(3) 1.0987(3) 1.0182(2)
C68 C 0.2132(3) 1.1954(3) 1.0252(2)
C69 C 0.1465(3) 1.2488(3) 0.9834(2)
C70 C 0.2047(3) 1.3148(3) 0.9477(2)
C71 C 0.1762(3) 1.3323(3) 0.8662(3)
C72 C 0.3783(3) 1.3085(3) 0.9061(2)
C73 C 0.4573(3) 1.2411(3) 0.8887(2)
C74 C 0.4622(3) 1.1700(3) 0.9332(2)
C75 C 0.3888(3) 1.1633(3) 0.9982(2)
C76 C 0.3126(3) 1.2283(3) 1.0151(2)
C77 C 0.3070(3) 1.3021(3) 0.9674(2)
C78 C 0.3673(3) 1.0624(3) 0.9904(2)
C79 C 0.2729(3) 1.0315(3) 1.0005(2)
O5 O 0.2503(17) 1.0893(17) 0.7938(16)
Cl10? Cl 0.1505(11) 0.5289(19) 0.6004(10)
Cl11? Cl 0.0542(10) 0.5930(10) 0.4756(15)
loop_
_geom_bond_atom_site_label_1
_geom_bond_atom_site_label_2
_geom_bond_site_symmetry_1
_geom_bond_site_symmetry_2
Cl1 C80 1_555 1_555
Cl2 C80 1_555 1_555
Cl3 C80 1_555 1_555
Cl4 C81 1_555 1_555
Cl5 C81 1_555 1_555
Cl6 C81 1_555 1_555
Cl7 C82 1_555 1_555
Cl8 C82 1_555 1_555
Cl9 C82 1_555 1_555
O1 C1 1_555 1_555
O2 C34 1_555 1_555
O3 C31 1_555 1_555
O4 C28 1_555 1_555
N1 C1 1_555 1_555
N2 C4 1_555 1_555
C1 C2 1_555 1_555
C2 C3 1_555 1_555
C3 C4 1_555 1_555
C4 O1 1_555 1_555
C5 N1 1_555 1_555
C6 C5 1_555 1_555
H1 C6 1_555 1_555
C7 C6 1_555 1_555
H2 C7 1_555 1_555
C8 C7 1_555 1_555
C9 C8 1_555 1_555
H3 C9 1_555 1_555
C10 C5 1_555 1_555
H4 C10 1_555 1_555
C11 C8 1_555 1_555
C12 C11 1_555 1_555
H5 C12 1_555 1_555
H6 C12 1_555 1_555
H7 C12 1_555 1_555
C13 C11 1_555 1_555
H8 C13 1_555 1_555
H9 C13 1_555 1_555
H10 C13 1_555 1_555
C14 C11 1_555 1_555
H11 C14 1_555 1_555
H12 C14 1_555 1_555
H13 C14 1_555 1_555
C15 N2 1_555 1_555
C16 C15 1_555 1_555
H14 C16 1_555 1_555
C17 C16 1_555 1_555
H15 C17 1_555 1_555
C18 C17 1_555 1_555
C19 C18 1_555 1_555
H16 C19 1_555 1_555
C20 C15 1_555 1_555
H17 C20 1_555 1_555
C21 C18 1_555 1_555
C22 C21 1_555 1_555
H18 C22 1_555 1_555
H19 C22 1_555 1_555
H20 C22 1_555 1_555
C23 C21 1_555 1_555
H21 C23 1_555 1_555
H22 C23 1_555 1_555
H23 C23 1_555 1_555
C24 C21 1_555 1_555
H24 C24 1_555 1_555
H25 C24 1_555 1_555
H26 C24 1_555 1_555
C25 C3 1_555 1_555
C26 C25 1_555 1_555
C27 C26 1_555 1_555
C28 C27 1_555 1_555
C29 C28 1_555 1_555
C30 C29 1_555 1_555
C31 C30 1_555 1_555
C32 C31 1_555 1_555
C33 C32 1_555 1_555
C34 C33 1_555 1_555
C35 C34 1_555 1_555
C36 C35 1_555 1_555
C37 C2 1_555 1_555
C38 C37 1_555 1_555
C39 C25 1_555 1_555
C40 C39 1_555 1_555
C41 C26 1_555 1_555
C42 C41 1_555 1_555
C43 C42 1_555 1_555
C44 C27 1_555 1_555
C45 C29 1_555 1_555
C46 C45 1_555 1_555
C47 C46 1_555 1_555
C48 C30 1_555 1_555
C49 C32 1_555 1_555
C50 C49 1_555 1_555
C51 C50 1_555 1_555
C52 C33 1_555 1_555
C53 C35 1_555 1_555
C54 C53 1_555 1_555
C55 C54 1_555 1_555
C56 C36 1_555 1_555
C57 C38 1_555 1_555
C58 C57 1_555 1_555
C59 C40 1_555 1_555
C60 C59 1_555 1_555
C61 C42 1_555 1_555
C62 C43 1_555 1_555
C63 C46 1_555 1_555
C64 C63 1_555 1_555
C65 C47 1_555 1_555
C66 C50 1_555 1_555
C67 C66 1_555 1_555
C68 C67 1_555 1_555
C69 C64 1_555 1_555
C70 C69 1_555 1_555
C71 C61 1_555 1_555
C72 C60 1_555 1_555
C73 C58 1_555 1_555
C74 C55 1_555 1_555
C75 C74 1_555 1_555
C76 C68 1_555 1_555
C77 C70 1_555 1_555
C78 C54 1_555 1_555
C79 C51 1_555 1_555
C80 H27 1_555 1_555
C81 H28 1_555 1_555
C82 H29 1_555 1_555
C9 C10 1_555 1_555
C19 C20 1_555 1_555
C36 C37 1_555 1_555
C38 C39 1_555 1_555
C40 C41 1_555 1_555
C43 C44 1_555 1_555
C44 C45 1_555 1_555
C47 C48 1_555 1_555
C48 C49 1_555 1_555
C51 C52 1_555 1_555
C52 C53 1_555 1_555
C55 C56 1_555 1_555
C56 C57 1_555 1_555
C58 C59 1_555 1_555
C60 C61 1_555 1_555
C62 C63 1_555 1_555
C62 C71 1_555 1_555
C64 C65 1_555 1_555
C65 C66 1_555 1_555
C67 C79 1_555 1_555
C68 C69 1_555 1_555
C70 C71 1_555 1_555
C72 C73 1_555 1_555
C72 C77 1_555 1_555
C73 C74 1_555 1_555
C75 C76 1_555 1_555
C75 C78 1_555 1_555
C76 C77 1_555 1_555
C78 C79 1_555 1_555

#END
