
#######################################################################
#
#                 Cambridge Crystallographic Data Centre
#                                CCDC 
#
#######################################################################
#
# If this CIF has been generated from an entry in the Cambridge 
# Structural Database, then it will include bibliographic, chemical, 
# crystal, experimental, refinement or atomic coordinate data resulting 
# from the CCDC's data processing and validation procedures.
#
#######################################################################

data_ADABOX
_chemical_formula_moiety         'C44 H40 N2'
_chemical_name_systematic        
4,6-Di(6-methyl-4-(4-methylphenyl)-1,2,3,4-tetrahydro-1-naphthyl)-1,3-benzenedicarbonitrile
_symmetry_cell_setting           monoclinic
_symmetry_space_group_name_H-M   'P 21'
_symmetry_Int_Tables_number      4
_space_group_name_Hall           'P 2yb'
loop_
_symmetry_equiv_pos_site_id
_symmetry_equiv_pos_as_xyz
1 x,y,z
2 -x,1/2+y,-z
_cell_length_a                   11.941(2)
_cell_length_b                   9.7040(19)
_cell_length_c                   15.408(3)
_cell_angle_alpha                90
_cell_angle_beta                 107.47(3)
_cell_angle_gamma                90
_cell_volume                     1703.06
_exptl_crystal_colour            colorless
_exptl_crystal_description       block
_chemical_melting_point          '525 K'
_cell_formula_units_Z            2
_exptl_crystal_recrystallization_method 'petroleum ether/acetone'
loop_
_atom_site_label
_atom_site_type_symbol
_atom_site_fract_x
_atom_site_fract_y
_atom_site_fract_z
N1 N 0.7012(5) 0.3012(7) 0.2087(5)
N2 N 0.6204(4) 0.9127(6) -0.0082(4)
C1 C 0.1720(5) 0.3755(8) 0.7316(4)
H1 H 0.1630 0.4589 0.7624
H2 H 0.2197 0.3117 0.7747
H3 H 0.0963 0.3354 0.7036
C2 C 0.2304(5) 0.4078(8) 0.6595(4)
C3 C 0.2547(5) 0.3102(7) 0.6048(4)
H4 H 0.2367 0.2188 0.6127
C4 C 0.3056(5) 0.3427(6) 0.5375(3)
H5 H 0.3214 0.2724 0.5018
C5 C 0.3332(4) 0.4766(6) 0.5222(3)
C6 C 0.3107(5) 0.5733(6) 0.5796(4)
H6 H 0.3300 0.6647 0.5729
C7 C 0.2610(5) 0.5412(8) 0.6461(4)
H7 H 0.2476 0.6108 0.6832
C8 C 0.3828(4) 0.5138(5) 0.4463(3)
H8 H 0.3996 0.6128 0.4522
C9 C 0.4998(4) 0.4419(7) 0.4537(3)
H9 H 0.5553 0.4591 0.5131
H10 H 0.4877 0.3431 0.4465
C10 C 0.5486(4) 0.4971(7) 0.3798(3)
H11 H 0.5576 0.5962 0.3862
H12 H 0.6256 0.4576 0.3877
C11 C 0.4693(4) 0.4635(6) 0.2848(3)
H13 H 0.4878 0.3697 0.2699
C12 C 0.3376(4) 0.4681(5) 0.2768(3)
C13 C 0.2572(4) 0.4488(5) 0.1925(3)
H14 H 0.2837 0.4317 0.1427
C14 C 0.1389(4) 0.4541(5) 0.1806(3)
H15 H 0.0867 0.4426 0.1225
C15 C 0.0958(4) 0.4762(5) 0.2525(3)
C16 C -0.0336(4) 0.4792(7) 0.2404(3)
H16 H -0.0760 0.4649 0.1775
H17 H -0.0546 0.5670 0.2597
H18 H -0.0531 0.4076 0.2764
C17 C 0.1774(4) 0.4945(5) 0.3375(3)
H19 H 0.1501 0.5090 0.3873
C18 C 0.2980(3) 0.4923(4) 0.3517(3)
C19 C 0.0651(5) 0.9512(8) 0.5218(4)
H20 H 0.0770 0.8580 0.5436
H21 H -0.0174 0.9714 0.5022
H22 H 0.1045 1.0132 0.5698
C20 C 0.1145(5) 0.9684(8) 0.4422(3)
C21 C 0.1645(5) 0.8606(6) 0.4086(4)
H23 H 0.1705 0.7748 0.4365
C22 C 0.2056(4) 0.8764(6) 0.3353(3)
H24 H 0.2377 0.8008 0.3142
C23 C 0.2007(4) 1.0008(6) 0.2921(3)
C24 C 0.1513(5) 1.1098(6) 0.3254(4)
H25 H 0.1466 1.1960 0.2981
C25 C 0.1089(6) 1.0918(7) 0.3987(5)
H26 H 0.0752 1.1666 0.4191
C26 C 0.2478(4) 1.0192(5) 0.2119(3)
H27 H 0.2236 1.1113 0.1873
C27 C 0.3825(4) 1.0181(6) 0.2417(4)
H28 H 0.4120 1.0959 0.2816
H29 H 0.4110 0.9343 0.2754
C28 C 0.4281(5) 1.0262(6) 0.1601(4)
H30 H 0.5132 1.0301 0.1808
H31 H 0.3995 1.1100 0.1264
C29 C 0.3889(4) 0.9017(6) 0.0968(3)
H32 H 0.3986 0.9265 0.0379
C30 C 0.2602(4) 0.8679(5) 0.0806(3)
C31 C 0.2054(5) 0.7778(6) 0.0098(3)
H33 H 0.2477 0.7446 -0.0276
C32 C 0.0923(5) 0.7373(6) -0.0061(3)
H34 H 0.0585 0.6764 -0.0533
C33 C 0.0268(4) 0.7863(6) 0.0479(3)
C34 C -0.0983(5) 0.7386(7) 0.0320(4)
H35 H -0.1303 0.7819 0.0753
H36 H -0.0995 0.6404 0.0390
H37 H -0.1445 0.7634 -0.0285
C35 C 0.0782(4) 0.8756(5) 0.1166(3)
H38 H 0.0341 0.9096 0.1525
C36 C 0.1951(4) 0.9178(5) 0.1351(3)
C37 C 0.4639(4) 0.7759(5) 0.1308(3)
C38 C 0.4381(4) 0.6817(5) 0.1905(3)
H39 H 0.3763 0.7015 0.2134
C39 C 0.4990(4) 0.5617(5) 0.2171(3)
C40 C 0.5919(4) 0.5315(6) 0.1814(3)
C41 C 0.6521(5) 0.4040(7) 0.1986(4)
C42 C 0.6208(4) 0.6243(6) 0.1234(3)
H40 H 0.6825 0.6046 0.1003
C43 C 0.5592(4) 0.7457(6) 0.0996(3)
C44 C 0.5923(4) 0.8383(7) 0.0384(4)
loop_
_geom_bond_atom_site_label_1
_geom_bond_atom_site_label_2
_geom_bond_site_symmetry_1
_geom_bond_site_symmetry_2
N1 C41 1_555 1_555
N2 C44 1_555 1_555
C1 H1 1_555 1_555
H2 C1 1_555 1_555
H3 C1 1_555 1_555
C2 C1 1_555 1_555
C3 C2 1_555 1_555
H4 C3 1_555 1_555
C4 C3 1_555 1_555
H5 C4 1_555 1_555
C5 C4 1_555 1_555
C6 C5 1_555 1_555
H6 C6 1_555 1_555
C7 C2 1_555 1_555
H7 C7 1_555 1_555
C8 C5 1_555 1_555
H8 C8 1_555 1_555
C9 C8 1_555 1_555
H9 C9 1_555 1_555
H10 C9 1_555 1_555
C10 C9 1_555 1_555
H11 C10 1_555 1_555
H12 C10 1_555 1_555
C11 C10 1_555 1_555
H13 C11 1_555 1_555
C12 C11 1_555 1_555
C13 C12 1_555 1_555
H14 C13 1_555 1_555
C14 C13 1_555 1_555
H15 C14 1_555 1_555
C15 C14 1_555 1_555
C16 C15 1_555 1_555
H16 C16 1_555 1_555
H17 C16 1_555 1_555
H18 C16 1_555 1_555
C17 C15 1_555 1_555
H19 C17 1_555 1_555
C18 C8 1_555 1_555
C19 H20 1_555 1_555
H21 C19 1_555 1_555
H22 C19 1_555 1_555
C20 C19 1_555 1_555
C21 C20 1_555 1_555
H23 C21 1_555 1_555
C22 C21 1_555 1_555
H24 C22 1_555 1_555
C23 C22 1_555 1_555
C24 C23 1_555 1_555
H25 C24 1_555 1_555
C25 C20 1_555 1_555
H26 C25 1_555 1_555
C26 C23 1_555 1_555
H27 C26 1_555 1_555
C27 C26 1_555 1_555
H28 C27 1_555 1_555
H29 C27 1_555 1_555
C28 C27 1_555 1_555
H30 C28 1_555 1_555
H31 C28 1_555 1_555
C29 C28 1_555 1_555
H32 C29 1_555 1_555
C30 C29 1_555 1_555
C31 C30 1_555 1_555
H33 C31 1_555 1_555
C32 C31 1_555 1_555
H34 C32 1_555 1_555
C33 C32 1_555 1_555
C34 C33 1_555 1_555
H35 C34 1_555 1_555
H36 C34 1_555 1_555
H37 C34 1_555 1_555
C35 C33 1_555 1_555
H38 C35 1_555 1_555
C36 C26 1_555 1_555
C37 C29 1_555 1_555
C38 C37 1_555 1_555
H39 C38 1_555 1_555
C39 C11 1_555 1_555
C40 C39 1_555 1_555
C41 C40 1_555 1_555
C42 C40 1_555 1_555
H40 C42 1_555 1_555
C43 C37 1_555 1_555
C44 C43 1_555 1_555
C6 C7 1_555 1_555
C12 C18 1_555 1_555
C17 C18 1_555 1_555
C24 C25 1_555 1_555
C30 C36 1_555 1_555
C35 C36 1_555 1_555
C38 C39 1_555 1_555
C42 C43 1_555 1_555

#END
