
#######################################################################
#
#                 Cambridge Crystallographic Data Centre
#                                CCDC 
#
#######################################################################
#
# If this CIF has been generated from an entry in the Cambridge 
# Structural Database, then it will include bibliographic, chemical, 
# crystal, experimental, refinement or atomic coordinate data resulting 
# from the CCDC's data processing and validation procedures.
#
#######################################################################

data_ADAFIW
_chemical_formula_moiety         'C118 H72 F20 N6 O4,3.2(C6 H14),1.6(C1 H2 Cl2)'
_chemical_name_systematic        
'7,22-bis(9-anthryl)-2,12,17,27-tetrakis(pentafluorophenyl)-31,32,33,34,35,36-hexaazaheptacyclo-[26.2.1.1^3,6^.1^8,11^.1^13,16^.1^18,21^.1^23,26^]hexatriaconta-1(31),2,4,6(36),7,9,11,13(34),14,16,18(33),19,21,23,25,27,29-heptadecaene hexane dichloromethane solvate'
_symmetry_cell_setting           triclinic
_symmetry_space_group_name_H-M   'P -1'
_symmetry_Int_Tables_number      2
_space_group_name_Hall           '-P 1'
loop_
_symmetry_equiv_pos_site_id
_symmetry_equiv_pos_as_xyz
1 x,y,z
2 -x,-y,-z
_cell_length_a                   12.3653(3)
_cell_length_b                   12.5692(3)
_cell_length_c                   21.2973(6)
_cell_angle_alpha                99.9864(13)
_cell_angle_beta                 105.6152(13)
_cell_angle_gamma                93.6699(19)
_cell_volume                     3118.15
_exptl_crystal_colour            violet
_exptl_crystal_description       prism
_cell_formula_units_Z            1
loop_
_atom_site_label
_atom_site_type_symbol
_atom_site_fract_x
_atom_site_fract_y
_atom_site_fract_z
C1 C 0.1745(3) 0.3479(3) 0.33570(16)
C2 C 0.0898(3) 0.2903(3) 0.27850(17)
H1 H 0.0133 0.3046 0.2653
C3 C 0.1360(3) 0.2116(3) 0.24570(17)
H2 H 0.0979 0.1620 0.2055
C4 C 0.2519(3) 0.2164(3) 0.28221(16)
C5 C 0.3313(3) 0.1509(3) 0.26716(16)
C6 C 0.4435(3) 0.1579(3) 0.30614(16)
C7 C 0.5183(3) 0.0770(3) 0.29556(17)
H3 H 0.5019 0.0145 0.2608
C8 C 0.6152(3) 0.1074(3) 0.34442(17)
H4 H 0.6799 0.0692 0.3519
C9 C 0.6021(3) 0.2102(3) 0.38383(16)
C10 C 0.6889(3) 0.2690(3) 0.43804(16)
C11 C 0.6904(3) 0.3720(3) 0.47635(15)
C12 C 0.6108(3) 0.4531(3) 0.46826(16)
H5 H 0.5425 0.4475 0.4335
C13 C 0.6532(3) 0.5375(3) 0.51981(16)
H6 H 0.6206 0.6028 0.5286
C14 C 0.7597(3) 0.5084(3) 0.55969(15)
C15 C 0.1618(3) 0.4383(3) 0.38065(16)
C16 C 0.2816(3) 0.0342(3) 0.02492(16)
C17 C 0.3135(3) 0.1373(3) 0.02112(17)
H7 H 0.3158 0.1542 -0.0203
C18 C 0.3437(3) 0.2204(3) 0.07958(17)
H8 H 0.3674 0.2925 0.0770
C19 C 0.3392(3) 0.1979(3) 0.13908(17)
H9 H 0.3604 0.2545 0.1775
C20 C 0.3031(3) 0.0912(3) 0.14469(16)
C21 C 0.2939(3) 0.0646(3) 0.20440(16)
C22 C 0.2522(3) -0.0407(3) 0.20779(16)
C23 C 0.2402(3) -0.0670(3) 0.26784(17)
H10 H 0.2636 -0.0139 0.3079
C24 C 0.1947(4) -0.1688(3) 0.26786(18)
H11 H 0.1867 -0.1857 0.3083
C25 C 0.1592(4) -0.2497(3) 0.20904(18)
H12 H 0.1276 -0.3201 0.2102
C26 C 0.1702(3) -0.2269(3) 0.15112(17)
C27 C 0.2194(3) -0.1224(3) 0.14783(16)
C28 C 0.2342(3) -0.0976(3) 0.08892(16)
H13 H 0.2173 -0.1535 0.0503
C29 C 0.2730(3) 0.0066(3) 0.08579(16)
C30 C 0.2232(3) -0.0267(3) -0.09234(16)
C31 C 0.2990(3) -0.0369(3) -0.12925(17)
C32 C 0.2650(4) -0.0149(4) -0.19291(18)
H14 H 0.3156 -0.0223 -0.2195
C33 C 0.1600(4) 0.0173(3) -0.21891(18)
C34 C 0.0869(3) 0.0258(3) -0.18009(19)
H15 H 0.0146 0.0479 -0.1974
C35 C 0.1152(3) 0.0033(3) -0.11664(17)
C36 C 0.4155(3) -0.0694(4) -0.1002(2)
H16 H 0.4605 -0.0099 -0.0649
H17 H 0.4532 -0.0844 -0.1353
H18 H 0.4079 -0.1348 -0.0818
C37 C 0.1260(5) 0.0438(4) -0.28763(19)
H19 H 0.1876 0.0912 -0.2931
H20 H 0.0578 0.0811 -0.2932
H21 H 0.1107 -0.0236 -0.3212
C38 C 0.0351(3) 0.0109(3) -0.0749(2)
H22 H 0.0576 0.0777 -0.0408
H23 H 0.0367 -0.0522 -0.0536
H24 H -0.0416 0.0124 -0.1032
C39 C 0.0808(4) -0.4009(3) 0.09164(18)
C40 C 0.1452(4) -0.4861(3) 0.1011(2)
C41 C 0.0897(5) -0.5853(3) 0.10113(19)
H25 H 0.1327 -0.6441 0.1090
C42 C -0.0255(5) -0.6019(3) 0.09009(19)
C43 C -0.0868(4) -0.5139(3) 0.08002(19)
H26 H -0.1664 -0.5238 0.0727
C44 C -0.0358(4) -0.4129(3) 0.08028(18)
C45 C 0.2711(5) -0.4694(4) 0.1120(3)
H27 H 0.2867 -0.4572 0.0709
H28 H 0.3043 -0.5341 0.1245
H29 H 0.3042 -0.4060 0.1477
C46 C -0.0837(5) -0.7116(4) 0.0886(2)
H30 H -0.0578 -0.7677 0.0598
H31 H -0.1657 -0.7122 0.0712
H32 H -0.0655 -0.7264 0.1337
C47 C -0.1035(4) -0.3180(4) 0.0693(2)
H33 H -0.0816 -0.2616 0.1100
H34 H -0.1843 -0.3430 0.0584
H35 H -0.0884 -0.2879 0.0326
C48 C 0.7969(3) 0.2186(3) 0.45846(16)
C49 C 0.8737(3) 0.2137(3) 0.42231(17)
C50 C 0.9787(3) 0.1778(3) 0.4447(2)
C51 C 1.0054(4) 0.1439(3) 0.5039(2)
C52 C 0.9293(4) 0.1451(3) 0.54048(19)
C53 C 0.8266(3) 0.1828(3) 0.51786(18)
C54 C 0.0556(3) 0.4897(3) 0.36174(16)
C55 C -0.0218(3) 0.4901(3) 0.39771(17)
C56 C -0.1112(3) 0.5515(3) 0.38768(19)
C57 C -0.1243(4) 0.6141(3) 0.3399(2)
C58 C -0.0520(4) 0.6133(3) 0.3016(2)
C59 C 0.0373(3) 0.5510(3) 0.31272(18)
F1 F 0.85020(19) 0.24800(18) 0.36421(10)
F2 F 1.0522(2) 0.1765(2) 0.40855(12)
F3 F 1.1053(2) 0.1065(2) 0.52637(13)
F4 F 0.9561(2) 0.1106(2) 0.59829(12)
F5 F 0.7557(2) 0.18390(19) 0.55564(10)
F6 F -0.00919(18) 0.43049(18) 0.44513(9)
F7 F -0.1841(2) 0.5521(2) 0.42406(12)
F8 F -0.2104(2) 0.6753(2) 0.32990(14)
F9 F -0.0666(2) 0.6719(2) 0.25352(13)
F10 F 0.1094(2) 0.5526(2) 0.27544(11)
O1 O 0.2530(2) -0.05244(18) -0.02884(10)
N1 N 0.2716(3) 0.2992(2) 0.33653(13)
H36 H 0.3367 0.3185 0.3674
N2 N 0.4961(2) 0.2394(2) 0.36009(13)
N3 N 0.7800(2) 0.4087(2) 0.53077(13)
O2 O 0.1361(2) -0.3000(2) 0.09109(12)
C1A C 0.8255(3) 0.6521(3) 0.66430(16)
C2A C 0.9102(3) 0.7097(3) 0.72150(17)
H1A H 0.9867 0.6954 0.7347
C3A C 0.8640(3) 0.7884(3) 0.75430(17)
H2A H 0.9021 0.8380 0.7945
C4A C 0.7481(3) 0.7836(3) 0.71779(16)
C5A C 0.6687(3) 0.8491(3) 0.73284(16)
C6A C 0.5565(3) 0.8421(3) 0.69386(16)
C7A C 0.4817(3) 0.9230(3) 0.70444(17)
H3A H 0.4981 0.9855 0.7392
C8A C 0.3848(3) 0.8926(3) 0.65558(17)
H4A H 0.3201 0.9308 0.6481
C9A C 0.3979(3) 0.7898(3) 0.61617(16)
C10A C 0.3111(3) 0.7310(3) 0.56196(16)
C11A C 0.3096(3) 0.6280(3) 0.52365(15)
C12A C 0.3892(3) 0.5469(3) 0.53174(16)
H5A H 0.4575 0.5525 0.5665
C13A C 0.3468(3) 0.4625(3) 0.48019(16)
H6A H 0.3794 0.3972 0.4714
C14A C 0.2403(3) 0.4916(3) 0.44031(15)
C15A C 0.8382(3) 0.5617(3) 0.61935(16)
C16A C 0.7184(3) 0.9658(3) 0.97508(16)
C17A C 0.6865(3) 0.8627(3) 0.97888(17)
H7A H 0.6842 0.8458 1.0203
C18A C 0.6563(3) 0.7796(3) 0.92042(17)
H8A H 0.6326 0.7075 0.9230
C19A C 0.6608(3) 0.8021(3) 0.86092(17)
H9A H 0.6396 0.7455 0.8225
C20A C 0.6969(3) 0.9088(3) 0.85531(16)
C21A C 0.7061(3) 0.9354(3) 0.79560(16)
C22A C 0.7478(3) 1.0407(3) 0.79221(16)
C23A C 0.7598(3) 1.0670(3) 0.73216(17)
H10A H 0.7364 1.0139 0.6921
C24A C 0.8053(4) 1.1688(3) 0.73214(18)
H11A H 0.8133 1.1857 0.6917
C25A C 0.8408(4) 1.2497(3) 0.79096(18)
H12A H 0.8724 1.3201 0.7898
C26A C 0.8298(3) 1.2269(3) 0.84888(17)
C27A C 0.7806(3) 1.1224(3) 0.85217(16)
C28A C 0.7658(3) 1.0976(3) 0.91108(16)
H13A H 0.7827 1.1535 0.9497
C29A C 0.7270(3) 0.9934(3) 0.91421(16)
C30A C 0.7768(3) 1.0267(3) 1.09234(16)
C31A C 0.7010(3) 1.0369(3) 1.12925(17)
C32A C 0.7350(4) 1.0149(4) 1.19291(18)
H14A H 0.6844 1.0223 1.2195
C33A C 0.8400(4) 0.9827(3) 1.21891(18)
C34A C 0.9131(3) 0.9742(3) 1.18009(19)
H15A H 0.9854 0.9521 1.1974
C35A C 0.8848(3) 0.9967(3) 1.11664(17)
C36A C 0.5845(3) 1.0694(4) 1.1002(2)
H16A H 0.5395 1.0099 1.0649
H17A H 0.5468 1.0844 1.1353
H18A H 0.5921 1.1348 1.0818
C37A C 0.8740(5) 0.9562(4) 1.28763(19)
H19A H 0.8124 0.9088 1.2931
H20A H 0.9422 0.9189 1.2932
H21A H 0.8893 1.0236 1.3212
C38A C 0.9649(3) 0.9891(3) 1.0749(2)
H22A H 0.9424 0.9223 1.0408
H23A H 0.9633 1.0522 1.0536
H24A H 1.0416 0.9876 1.1032
C39A C 0.9192(4) 1.4009(3) 0.90836(18)
C40A C 0.8548(4) 1.4861(3) 0.8989(2)
C41A C 0.9103(5) 1.5853(3) 0.89887(19)
H25A H 0.8673 1.6441 0.8910
C42A C 1.0255(5) 1.6019(3) 0.90991(19)
C43A C 1.0868(4) 1.5139(3) 0.91998(19)
H26A H 1.1664 1.5238 0.9273
C44A C 1.0358(4) 1.4129(3) 0.91972(18)
C45A C 0.7289(5) 1.4694(4) 0.8880(3)
H27A H 0.7133 1.4572 0.9291
H28A H 0.6957 1.5341 0.8755
H29A H 0.6958 1.4060 0.8523
C46A C 1.0837(5) 1.7116(4) 0.9114(2)
H30A H 1.0578 1.7677 0.9402
H31A H 1.1657 1.7122 0.9288
H32A H 1.0655 1.7264 0.8663
C47A C 1.1035(4) 1.3180(4) 0.9307(2)
H33A H 1.0816 1.2616 0.8900
H34A H 1.1843 1.3430 0.9416
H35A H 1.0884 1.2879 0.9674
C48A C 0.2031(3) 0.7814(3) 0.54154(16)
C49A C 0.1263(3) 0.7863(3) 0.57769(17)
C50A C 0.0213(3) 0.8222(3) 0.5553(2)
C51A C -0.0054(4) 0.8561(3) 0.4961(2)
C52A C 0.0707(4) 0.8549(3) 0.45952(19)
C53A C 0.1734(3) 0.8172(3) 0.48214(18)
C54A C 0.9444(3) 0.5103(3) 0.63826(16)
C55A C 1.0218(3) 0.5099(3) 0.60229(17)
C56A C 1.1112(3) 0.4485(3) 0.61232(19)
C57A C 1.1243(4) 0.3859(3) 0.6601(2)
C58A C 1.0520(4) 0.3867(3) 0.6984(2)
C59A C 0.9627(3) 0.4490(3) 0.68728(18)
F1A F 0.14980(19) 0.75200(18) 0.63579(10)
F2A F -0.0522(2) 0.8235(2) 0.59145(12)
F3A F -0.1053(2) 0.8935(2) 0.47363(13)
F4A F 0.0439(2) 0.8894(2) 0.40171(12)
F5A F 0.2443(2) 0.81610(19) 0.44436(10)
F6A F 1.00919(18) 0.56951(18) 0.55487(9)
F7A F 1.1841(2) 0.4479(2) 0.57594(12)
F8A F 1.2104(2) 0.3247(2) 0.67010(14)
F9A F 1.0666(2) 0.3281(2) 0.74648(13)
F10A F 0.8906(2) 0.4474(2) 0.72456(11)
O1A O 0.7470(2) 1.05244(18) 1.02884(10)
N1A N 0.7284(3) 0.7008(2) 0.66347(13)
H36A H 0.6633 0.6815 0.6326
N2A N 0.5039(2) 0.7606(2) 0.63991(13)
N3A N 0.2200(2) 0.5913(2) 0.46923(13)
O2A O 0.8639(2) 1.3000(2) 0.90891(12)
C60 C 0.6001(6) 0.3989(8) 0.6660(5)
H37 H 0.6615 0.3602 0.6888
H38 H 0.6247 0.4309 0.6320
C61 C 0.439(2) 0.2132(11) 0.5738(13)
H39 H 0.4320 0.2549 0.5377
H40 H 0.5140 0.1863 0.5780
C62 C 0.4876(7) 0.3177(18) 0.6322(12)
H41 H 0.4305 0.3682 0.6205
H42 H 0.4729 0.2921 0.6709
C63 C 0.573(2) 0.487(2) 0.7158(8)
H43 H 0.5206 0.5323 0.6920
H44 H 0.6425 0.5330 0.7429
H45 H 0.5371 0.4539 0.7447
C64 C 0.3820(12) 0.123(2) 0.5335(6)
H46 H 0.3088 0.1164 0.5439
H47 H 0.4224 0.0631 0.5501
C65 C 0.3556(8) 0.0941(7) 0.4677(5)
H48 H 0.3464 0.1593 0.4482
H49 H 0.2847 0.0452 0.4512
H50 H 0.4162 0.0569 0.4551
Cl1 Cl 0.5123(9) 0.7827(10) 0.1471(11)
Cl2 Cl 0.4338(14) 0.643(3) -0.0167(15)
C66 C 0.509(2) 0.696(2) 0.0684(11)
H51 H 0.5813 0.7262 0.0629
H52 H 0.5262 0.6276 0.0837
Cl3? Cl 0.7667(5) 0.3351(5) 0.2106(3)
Cl4? Cl 0.5961(6) 0.4214(4) 0.2614(3)
C67? C 0.6471(15) 0.3138(18) 0.2330(8)
H53? H 0.5883 0.2712 0.1939
H54? H 0.6623 0.2687 0.2675
C68? C 0.6570(12) 0.5193(12) 0.1804(9)
H55? H 0.7382 0.5433 0.1883
H56? H 0.6367 0.5515 0.2209
C69? C 0.5877(14) 0.5722(15) 0.1210(10)
H57? H 0.6131 0.5464 0.0813
H58? H 0.5068 0.5440 0.1101
C70? C 0.6442(14) 0.3961(13) 0.1743(11)
H59? H 0.6733 0.3635 0.1372
H60? H 0.5625 0.3703 0.1618
C71? C 0.605(2) 0.7393(19) 0.1907(12)
H61? H 0.5747 0.6935 0.2163
H62? H 0.5616 0.8017 0.1863
H63? H 0.6844 0.7653 0.2136
C72? C 0.596(2) 0.683(2) 0.1319(14)
H64? H 0.6627 0.7083 0.1187
H65? H 0.5288 0.7028 0.1007
C73? C 0.704(2) 0.352(2) 0.2367(14)
H66? H 0.7826 0.3443 0.2374
H67? H 0.6648 0.2810 0.2353
H68? H 0.7022 0.4029 0.2767
loop_
_geom_bond_atom_site_label_1
_geom_bond_atom_site_label_2
_geom_bond_site_symmetry_1
_geom_bond_site_symmetry_2
C1 C2 1_555 1_555
C2 H1 1_555 1_555
C3 C2 1_555 1_555
H2 C3 1_555 1_555
C4 C3 1_555 1_555
C5 C4 1_555 1_555
C6 C5 1_555 1_555
C7 C6 1_555 1_555
H3 C7 1_555 1_555
C8 C7 1_555 1_555
H4 C8 1_555 1_555
C9 C8 1_555 1_555
C10 C9 1_555 1_555
C11 C10 1_555 1_555
C12 C11 1_555 1_555
H5 C12 1_555 1_555
C13 C12 1_555 1_555
H6 C13 1_555 1_555
C14 C13 1_555 1_555
C15 C1 1_555 1_555
C16 C17 1_555 1_555
C17 H7 1_555 1_555
C18 C17 1_555 1_555
H8 C18 1_555 1_555
C19 C18 1_555 1_555
H9 C19 1_555 1_555
C20 C19 1_555 1_555
C21 C5 1_555 1_555
C22 C21 1_555 1_555
C23 C22 1_555 1_555
H10 C23 1_555 1_555
C24 C23 1_555 1_555
H11 C24 1_555 1_555
C25 C24 1_555 1_555
H12 C25 1_555 1_555
C26 C25 1_555 1_555
C27 C22 1_555 1_555
C28 C27 1_555 1_555
H13 C28 1_555 1_555
C29 C16 1_555 1_555
C30 C31 1_555 1_555
C31 C32 1_555 1_555
C32 H14 1_555 1_555
C33 C32 1_555 1_555
C34 C33 1_555 1_555
H15 C34 1_555 1_555
C35 C30 1_555 1_555
C36 C31 1_555 1_555
H16 C36 1_555 1_555
H17 C36 1_555 1_555
H18 C36 1_555 1_555
C37 C33 1_555 1_555
H19 C37 1_555 1_555
H20 C37 1_555 1_555
H21 C37 1_555 1_555
C38 C35 1_555 1_555
H22 C38 1_555 1_555
H23 C38 1_555 1_555
H24 C38 1_555 1_555
C39 C40 1_555 1_555
C40 C41 1_555 1_555
C41 H25 1_555 1_555
C42 C41 1_555 1_555
C43 C42 1_555 1_555
H26 C43 1_555 1_555
C44 C39 1_555 1_555
C45 C40 1_555 1_555
H27 C45 1_555 1_555
H28 C45 1_555 1_555
H29 C45 1_555 1_555
C46 C42 1_555 1_555
H30 C46 1_555 1_555
H31 C46 1_555 1_555
H32 C46 1_555 1_555
C47 C44 1_555 1_555
H33 C47 1_555 1_555
H34 C47 1_555 1_555
H35 C47 1_555 1_555
C48 C10 1_555 1_555
C49 C48 1_555 1_555
C50 C49 1_555 1_555
C51 C50 1_555 1_555
C52 C51 1_555 1_555
C53 C48 1_555 1_555
C54 C15 1_555 1_555
C55 C54 1_555 1_555
C56 C55 1_555 1_555
C57 C56 1_555 1_555
C58 C57 1_555 1_555
C59 C54 1_555 1_555
F1 C49 1_555 1_555
F2 C50 1_555 1_555
F3 C51 1_555 1_555
F4 C52 1_555 1_555
F5 C53 1_555 1_555
F6 C55 1_555 1_555
F7 C56 1_555 1_555
F8 C57 1_555 1_555
F9 C58 1_555 1_555
F10 C59 1_555 1_555
O1 C16 1_555 1_555
N1 C1 1_555 1_555
H36 N1 1_555 1_555
N2 C6 1_555 1_555
N3 C11 1_555 1_555
O2 C26 1_555 1_555
C60 H37 1_555 1_555
H38 C60 1_555 1_555
C61 H39 1_555 1_555
H40 C61 1_555 1_555
C62 C60 1_555 1_555
H41 C62 1_555 1_555
H42 C62 1_555 1_555
C63 C60 1_555 1_555
H43 C63 1_555 1_555
H44 C63 1_555 1_555
H45 C63 1_555 1_555
C64 C61 1_555 1_555
H46 C64 1_555 1_555
H47 C64 1_555 1_555
C65 C64 1_555 1_555
H48 C65 1_555 1_555
H49 C65 1_555 1_555
H50 C65 1_555 1_555
Cl1 C66 1_555 1_555
Cl2 C66 1_555 1_555
C66 H51 1_555 1_555
H52 C66 1_555 1_555
C1A C2A 1_555 1_555
C2A H1A 1_555 1_555
C3A C2A 1_555 1_555
H2A C3A 1_555 1_555
C4A C3A 1_555 1_555
C5A C4A 1_555 1_555
C6A C5A 1_555 1_555
C7A C6A 1_555 1_555
H3A C7A 1_555 1_555
C8A C7A 1_555 1_555
H4A C8A 1_555 1_555
C9A C8A 1_555 1_555
C10A C9A 1_555 1_555
C11A C10A 1_555 1_555
C12A C11A 1_555 1_555
H5A C12A 1_555 1_555
C13A C12A 1_555 1_555
H6A C13A 1_555 1_555
C14A C15 1_555 1_555
C15A C14 1_555 1_555
C16A C17A 1_555 1_555
C17A H7A 1_555 1_555
C18A C17A 1_555 1_555
H8A C18A 1_555 1_555
C19A C18A 1_555 1_555
H9A C19A 1_555 1_555
C20A C19A 1_555 1_555
C21A C5A 1_555 1_555
C22A C21A 1_555 1_555
C23A C22A 1_555 1_555
H10A C23A 1_555 1_555
C24A C23A 1_555 1_555
H11A C24A 1_555 1_555
C25A C24A 1_555 1_555
H12A C25A 1_555 1_555
C26A C25A 1_555 1_555
C27A C22A 1_555 1_555
C28A C27A 1_555 1_555
H13A C28A 1_555 1_555
C29A C16A 1_555 1_555
C30A C31A 1_555 1_555
C31A C32A 1_555 1_555
C32A H14A 1_555 1_555
C33A C32A 1_555 1_555
C34A C33A 1_555 1_555
H15A C34A 1_555 1_555
C35A C30A 1_555 1_555
C36A C31A 1_555 1_555
H16A C36A 1_555 1_555
H17A C36A 1_555 1_555
H18A C36A 1_555 1_555
C37A C33A 1_555 1_555
H19A C37A 1_555 1_555
H20A C37A 1_555 1_555
H21A C37A 1_555 1_555
C38A C35A 1_555 1_555
H22A C38A 1_555 1_555
H23A C38A 1_555 1_555
H24A C38A 1_555 1_555
C39A C40A 1_555 1_555
C40A C41A 1_555 1_555
C41A H25A 1_555 1_555
C42A C41A 1_555 1_555
C43A C42A 1_555 1_555
H26A C43A 1_555 1_555
C44A C39A 1_555 1_555
C45A C40A 1_555 1_555
H27A C45A 1_555 1_555
H28A C45A 1_555 1_555
H29A C45A 1_555 1_555
C46A C42A 1_555 1_555
H30A C46A 1_555 1_555
H31A C46A 1_555 1_555
H32A C46A 1_555 1_555
C47A C44A 1_555 1_555
H33A C47A 1_555 1_555
H34A C47A 1_555 1_555
H35A C47A 1_555 1_555
C48A C10A 1_555 1_555
C49A C48A 1_555 1_555
C50A C49A 1_555 1_555
C51A C50A 1_555 1_555
C52A C51A 1_555 1_555
C53A C48A 1_555 1_555
C54A C15A 1_555 1_555
C55A C54A 1_555 1_555
C56A C55A 1_555 1_555
C57A C56A 1_555 1_555
C58A C57A 1_555 1_555
C59A C54A 1_555 1_555
F1A C49A 1_555 1_555
F2A C50A 1_555 1_555
F3A C51A 1_555 1_555
F4A C52A 1_555 1_555
F5A C53A 1_555 1_555
F6A C55A 1_555 1_555
F7A C56A 1_555 1_555
F8A C57A 1_555 1_555
F9A C58A 1_555 1_555
F10A C59A 1_555 1_555
O1A C16A 1_555 1_555
N1A C1A 1_555 1_555
H36A N1A 1_555 1_555
N2A C6A 1_555 1_555
N3A C11A 1_555 1_555
O2A C26A 1_555 1_555
C4 N1 1_555 1_555
C9 N2 1_555 1_555
C14 N3 1_555 1_555
C20 C21 1_555 1_555
C20 C29 1_555 1_555
C26 C27 1_555 1_555
C28 C29 1_555 1_555
C30 O1 1_555 1_555
C34 C35 1_555 1_555
C39 O2 1_555 1_555
C43 C44 1_555 1_555
C52 C53 1_555 1_555
C58 C59 1_555 1_555
C61 C62 1_555 1_555
C1A C15A 1_555 1_555
C4A N1A 1_555 1_555
C9A N2A 1_555 1_555
C13A C14A 1_555 1_555
C14A N3A 1_555 1_555
C20A C21A 1_555 1_555
C20A C29A 1_555 1_555
C26A C27A 1_555 1_555
C28A C29A 1_555 1_555
C30A O1A 1_555 1_555
C34A C35A 1_555 1_555
C39A O2A 1_555 1_555
C43A C44A 1_555 1_555
C52A C53A 1_555 1_555
C58A C59A 1_555 1_555

#END
