
#######################################################################
#
#                 Cambridge Crystallographic Data Centre
#                                CCDC 
#
#######################################################################
#
# If this CIF has been generated from an entry in the Cambridge 
# Structural Database, then it will include bibliographic, chemical, 
# crystal, experimental, refinement or atomic coordinate data resulting 
# from the CCDC's data processing and validation procedures.
#
#######################################################################

data_ADAGAQ
_chemical_formula_moiety         'C23 H18 N2 O2'
_chemical_name_systematic        
N'-(9-anthrylmethylene)-4-methoxybenzohydrazide
_symmetry_cell_setting           monoclinic
_symmetry_space_group_name_H-M   'P 21'
_symmetry_Int_Tables_number      4
_space_group_name_Hall           'P 2yb'
loop_
_symmetry_equiv_pos_site_id
_symmetry_equiv_pos_as_xyz
1 x,y,z
2 -x,1/2+y,-z
_cell_length_a                   4.8916(10)
_cell_length_b                   16.862(3)
_cell_length_c                   10.630(2)
_cell_angle_alpha                90
_cell_angle_beta                 95.71(3)
_cell_angle_gamma                90
_cell_volume                     872.435
_exptl_crystal_colour            colorless
_exptl_crystal_description       block
_cell_formula_units_Z            2
loop_
_atom_site_label
_atom_site_type_symbol
_atom_site_fract_x
_atom_site_fract_y
_atom_site_fract_z
C1 C 0.8860(5) 0.41123(15) 0.1356(2)
C2 C 1.1304(5) 0.13156(14) 0.4231(2)
C3 C 0.5900(5) 0.29756(14) 0.0736(2)
C4 C 0.8681(5) 0.35869(16) -0.0785(2)
H1 H 0.9286 0.3598 -0.1587
O1 O 1.6132(4) -0.05672(11) 0.32041(16)
C5 C 0.7011(5) 0.35209(15) 0.1659(2)
C6 C 0.6036(5) 0.35183(16) 0.2947(2)
H2 H 0.4775 0.3912 0.3093
C7 C 0.3917(5) 0.23909(16) 0.0972(2)
H3 H 0.3455 0.2319 0.1792
C8 C 0.9795(5) 0.41222(16) 0.0123(2)
C9 C 0.6699(5) 0.30383(15) -0.0531(2)
C10 C 1.4916(5) 0.03609(17) 0.4817(2)
H4 H 1.6211 0.0151 0.5427
C11 C 1.4640(5) 0.00516(14) 0.3603(2)
C12 C 1.1065(5) 0.09962(15) 0.3009(2)
H5 H 0.9768 0.1203 0.2397
C13 C 1.3255(5) 0.09844(17) 0.5117(2)
H6 H 1.3451 0.1187 0.5935
C14 C 0.3379(6) 0.20206(18) -0.1225(3)
H7 H 0.2470 0.1719 -0.1869
C15 C 1.2725(5) 0.03810(16) 0.2701(2)
H8 H 1.2563 0.0184 0.1880
C16 C 1.1777(6) 0.46999(18) -0.0161(3)
H9 H 1.2484 0.4688 -0.0942
C17 C 0.9812(6) 0.47291(17) 0.2216(3)
H10 H 0.9202 0.4747 0.3017
C18 C 0.2690(6) 0.19371(17) 0.0029(3)
H11 H 0.1377 0.1566 0.0208
C19 C 0.5348(6) 0.25362(16) -0.1491(2)
H12 H 0.5840 0.2567 -0.2313
C20 C 1.1603(6) 0.5291(2) 0.1876(3)
H13 H 1.2150 0.5698 0.2436
C21 C 1.7915(6) -0.09840(19) 0.4116(3)
H14 H 1.9260 -0.0625 0.4511
H15 H 1.8824 -0.1401 0.3706
H16 H 1.6864 -0.1207 0.4745
C22 C 1.2634(6) 0.5261(2) 0.0686(3)
H17 H 1.3921 0.5634 0.0484
N1 N 0.8483(4) 0.24537(13) 0.36598(18)
H18 H 0.8946 0.2379 0.2909
N2 N 0.6690(5) 0.30514(13) 0.38764(19)
O2 O 0.9119(4) 0.20792(12) 0.57268(16)
C23 C 0.9549(5) 0.19714(15) 0.4632(2)
loop_
_geom_bond_atom_site_label_1
_geom_bond_atom_site_label_2
_geom_bond_site_symmetry_1
_geom_bond_site_symmetry_2
C1 C5 1_555 1_555
C2 C12 1_555 1_555
C3 C5 1_555 1_555
C4 H1 1_555 1_555
O1 C11 1_555 1_555
C5 C6 1_555 1_555
C6 H2 1_555 1_555
C7 C3 1_555 1_555
H3 C7 1_555 1_555
C8 C1 1_555 1_555
C9 C3 1_555 1_555
C10 H4 1_555 1_555
C11 C10 1_555 1_555
C12 H5 1_555 1_555
C13 C2 1_555 1_555
H6 C13 1_555 1_555
C14 H7 1_555 1_555
C15 C11 1_555 1_555
H8 C15 1_555 1_555
C16 C8 1_555 1_555
H9 C16 1_555 1_555
C17 C1 1_555 1_555
H10 C17 1_555 1_555
C18 C7 1_555 1_555
H11 C18 1_555 1_555
C19 C9 1_555 1_555
H12 C19 1_555 1_555
C20 C17 1_555 1_555
H13 C20 1_555 1_555
C21 O1 1_555 1_555
H14 C21 1_555 1_555
H15 C21 1_555 1_555
H16 C21 1_555 1_555
C22 C16 1_555 1_555
H17 C22 1_555 1_555
N1 H18 1_555 1_555
N2 C6 1_555 1_555
O2 C23 1_555 1_555
C23 C2 1_555 1_555
C4 C8 1_555 1_555
C4 C9 1_555 1_555
C10 C13 1_555 1_555
C12 C15 1_555 1_555
C14 C18 1_555 1_555
C14 C19 1_555 1_555
C20 C22 1_555 1_555
N1 N2 1_555 1_555
N1 C23 1_555 1_555

#END
