
#######################################################################
#
#                 Cambridge Crystallographic Data Centre
#                                CCDC 
#
#######################################################################
#
# If this CIF has been generated from an entry in the Cambridge 
# Structural Database, then it will include bibliographic, chemical, 
# crystal, experimental, refinement or atomic coordinate data resulting 
# from the CCDC's data processing and validation procedures.
#
#######################################################################

data_ADAKEW
_chemical_compound_source        'leaves of Isodon japonica'
_chemical_formula_moiety         'C24 H34 O8,H2 O1'
_chemical_name_systematic        
'1\b,7\b-Dihydroxy-6\b,15\b-diacetoxy-16\a,17:7\a,20-diepoxy-ent-kaurane monohydrate'
_chemical_properties_biological  
'source plant used as antibacterial, inflammation-diminishing and stomachic agent'
_symmetry_cell_setting           orthorhombic
_symmetry_space_group_name_H-M   'P 21 21 21'
_symmetry_Int_Tables_number      19
_space_group_name_Hall           'P 2ac 2ab'
loop_
_symmetry_equiv_pos_site_id
_symmetry_equiv_pos_as_xyz
1 x,y,z
2 1/2-x,-y,1/2+z
3 -x,1/2+y,1/2-z
4 1/2+x,1/2-y,-z
_cell_length_a                   9.492(2)
_cell_length_b                   14.909(4)
_cell_length_c                   16.354(4)
_cell_angle_alpha                90
_cell_angle_beta                 90
_cell_angle_gamma                90
_cell_volume                     2314.36
_exptl_crystal_colour            colorless
_exptl_crystal_description       prism
_chemical_melting_point          '474-476 K'
_cell_formula_units_Z            4
_exptl_crystal_recrystallization_method methanol/water
loop_
_atom_site_label
_atom_site_type_symbol
_atom_site_fract_x
_atom_site_fract_y
_atom_site_fract_z
O1 O 1.01900(15) 0.38744(11) 0.28115(10)
O2 O 0.72314(18) 0.17258(11) 0.42276(12)
H1 H 0.7375 0.1184 0.4257
O3 O 0.65670(16) 0.46964(10) 0.27049(10)
O4 O 0.7510(2) 0.60440(12) 0.24395(15)
O5 O 0.91558(19) 0.46033(11) 0.17605(10)
H2 H 0.9000 0.5116 0.1917
O6 O 0.58035(15) 0.30260(11) 0.19630(11)
O7 O 0.45387(19) 0.39210(13) 0.11464(13)
O8 O 0.6939(3) 0.25681(18) 0.00405(13)
C1 C 0.8541(3) 0.21942(16) 0.42762(15)
H3 H 0.9313 0.1761 0.4225
C2 C 0.8628(3) 0.2641(2) 0.51088(16)
H4 H 0.8536 0.2191 0.5534
H5 H 0.9540 0.2927 0.5170
C3 C 0.7475(3) 0.33332(18) 0.52026(15)
H6 H 0.7513 0.3578 0.5752
H7 H 0.6569 0.3041 0.5136
C4 C 0.7587(3) 0.41029(17) 0.45865(15)
C5 C 0.7628(2) 0.36849(14) 0.37094(13)
H8 H 0.6676 0.3458 0.3606
C6 C 0.7908(2) 0.43839(15) 0.30430(15)
H9 H 0.8384 0.4897 0.3296
C7 C 0.8873(2) 0.40011(16) 0.23929(15)
C8 C 0.8400(2) 0.31033(16) 0.20316(14)
C9 C 0.8196(2) 0.24230(14) 0.27517(13)
H10 H 0.7183 0.2302 0.2791
C10 C 0.8637(2) 0.28744(15) 0.35664(14)
C11 C 0.8913(3) 0.15257(17) 0.25601(16)
H11 H 0.9924 0.1592 0.2623
H12 H 0.8596 0.1078 0.2949
C12 C 0.8594(3) 0.12003(16) 0.16961(15)
H13 H 0.7654 0.0946 0.1685
H14 H 0.9253 0.0728 0.1554
C13 C 0.8690(3) 0.19507(17) 0.10519(15)
H15 H 0.9137 0.1736 0.0549
C14 C 0.9479(3) 0.27467(17) 0.14063(16)
H16 H 0.9689 0.3190 0.0990
H17 H 1.0347 0.2562 0.1670
C15 C 0.7072(2) 0.31427(16) 0.14824(14)
H18 H 0.7039 0.3715 0.1189
C16 C 0.7271(3) 0.23696(17) 0.08781(15)
C17 C 0.6113(4) 0.1918(2) 0.0475(2)
H19 H 0.6235 0.1291 0.0333
H20 H 0.5163 0.2085 0.0632
C18 C 0.6263(4) 0.4687(2) 0.46492(18)
H21 H 0.5450 0.4335 0.4512
H22 H 0.6340 0.5183 0.4277
H23 H 0.6171 0.4909 0.5198
C19 C 0.8852(4) 0.4697(2) 0.48101(18)
H24 H 0.8761 0.4896 0.5366
H25 H 0.8879 0.5208 0.4453
H26 H 0.9706 0.4359 0.4751
C20 C 1.0148(2) 0.32072(17) 0.34482(15)
H27 H 1.0494 0.3463 0.3955
H28 H 1.0753 0.2708 0.3303
C21 C 0.6501(3) 0.55592(17) 0.24686(17)
C22 C 0.5048(3) 0.5832(2) 0.2239(2)
H29 H 0.4420 0.5333 0.2310
H30 H 0.5035 0.6019 0.1677
H31 H 0.4750 0.6320 0.2581
C23 C 0.4636(3) 0.34688(17) 0.17536(17)
C24 C 0.3508(3) 0.3321(2) 0.2364(2)
H35 H 0.3852 0.2938 0.2791
H36 H 0.2713 0.3044 0.2104
H37 H 0.3228 0.3887 0.2593
O9 O 0.1993(3) 0.48854(15) 0.08138(19)
H41 H 0.271(2) 0.459(2) 0.091(2)
H42 H 0.128(4) 0.465(4) 0.101(4)
H32? H 0.5050 0.6448 0.2069
H33? H 0.4436 0.5762 0.2702
H34? H 0.4720 0.5461 0.1798
H38? H 0.2677 0.3641 0.2201
H39? H 0.3815 0.3535 0.2888
H40? H 0.3301 0.2692 0.2399
loop_
_geom_bond_atom_site_label_1
_geom_bond_atom_site_label_2
_geom_bond_site_symmetry_1
_geom_bond_site_symmetry_2
O1 C7 1_555 1_555
O2 H1 1_555 1_555
O3 C6 1_555 1_555
O4 C21 1_555 1_555
O5 H2 1_555 1_555
O6 C15 1_555 1_555
O7 C23 1_555 1_555
O8 C16 1_555 1_555
C1 O2 1_555 1_555
H3 C1 1_555 1_555
C2 C1 1_555 1_555
H4 C2 1_555 1_555
H5 C2 1_555 1_555
C3 C2 1_555 1_555
H6 C3 1_555 1_555
H7 C3 1_555 1_555
C4 C3 1_555 1_555
C5 C4 1_555 1_555
H8 C5 1_555 1_555
C6 C5 1_555 1_555
H9 C6 1_555 1_555
C7 O5 1_555 1_555
C8 C7 1_555 1_555
C9 C8 1_555 1_555
H10 C9 1_555 1_555
C10 C1 1_555 1_555
C11 C9 1_555 1_555
H11 C11 1_555 1_555
H12 C11 1_555 1_555
C12 C11 1_555 1_555
H13 C12 1_555 1_555
H14 C12 1_555 1_555
C13 C12 1_555 1_555
H15 C13 1_555 1_555
C14 C8 1_555 1_555
H16 C14 1_555 1_555
H17 C14 1_555 1_555
C15 C8 1_555 1_555
H18 C15 1_555 1_555
C16 C13 1_555 1_555
C17 O8 1_555 1_555
H19 C17 1_555 1_555
H20 C17 1_555 1_555
C18 C4 1_555 1_555
H21 C18 1_555 1_555
H22 C18 1_555 1_555
H23 C18 1_555 1_555
C19 C4 1_555 1_555
H24 C19 1_555 1_555
H25 C19 1_555 1_555
H26 C19 1_555 1_555
C20 O1 1_555 1_555
H27 C20 1_555 1_555
H28 C20 1_555 1_555
C21 O3 1_555 1_555
C22 C21 1_555 1_555
H29 C22 1_555 1_555
H30 C22 1_555 1_555
H31 C22 1_555 1_555
C23 O6 1_555 1_555
C24 C23 1_555 1_555
H35 C24 1_555 1_555
H36 C24 1_555 1_555
H37 C24 1_555 1_555
O9 H41 1_555 1_555
H42 O9 1_555 1_555
C5 C10 1_555 1_555
C6 C7 1_555 1_555
C9 C10 1_555 1_555
C10 C20 1_555 1_555
C13 C14 1_555 1_555
C15 C16 1_555 1_555
C16 C17 1_555 1_555

#END
