
#######################################################################
#
#                 Cambridge Crystallographic Data Centre
#                                CCDC 
#
#######################################################################
#
# If this CIF has been generated from an entry in the Cambridge 
# Structural Database, then it will include bibliographic, chemical, 
# crystal, experimental, refinement or atomic coordinate data resulting 
# from the CCDC's data processing and validation procedures.
#
#######################################################################

data_ADAMAW
_chemical_formula_moiety         'C24 H12,C12 F4 N4,C8 H10'
_chemical_name_systematic        
"coronene 2,2'-(2,3,5,6-tetrafluorocyclohexa-2,5-diene-1,4-diylidene)dimalononitrile p-xylene"
_symmetry_cell_setting           triclinic
_symmetry_space_group_name_H-M   'P -1'
_symmetry_Int_Tables_number      2
_space_group_name_Hall           '-P 1'
loop_
_symmetry_equiv_pos_site_id
_symmetry_equiv_pos_as_xyz
1 x,y,z
2 -x,-y,-z
_cell_length_a                   7.133(7)
_cell_length_b                   9.382(9)
_cell_length_c                   11.936(11)
_cell_angle_alpha                87.001(13)
_cell_angle_beta                 82.136(13)
_cell_angle_gamma                87.129(13)
_cell_volume                     789.439
_exptl_crystal_colour            black
_exptl_crystal_description       prism
_cell_formula_units_Z            1
loop_
_atom_site_label
_atom_site_type_symbol
_atom_site_fract_x
_atom_site_fract_y
_atom_site_fract_z
F1 F 0.6285(2) 0.22350(18) 0.52464(15)
F2 F 0.6790(2) 0.35217(19) 0.32269(14)
N1 N 0.5553(5) 0.1015(4) 0.7692(3)
N2 N 0.2890(5) 0.4706(4) 0.9042(3)
C1 C 0.5905(4) 0.4257(3) 0.4095(2)
C2 C 0.5649(4) 0.3603(3) 0.5128(2)
C3 C 0.4724(4) 0.4287(3) 0.6125(2)
C4 C 0.4469(4) 0.3611(3) 0.7193(2)
C5 C 0.5099(4) 0.2164(4) 0.7426(3)
C6 C 0.3574(4) 0.4280(4) 0.8199(3)
F1A F 0.3715(2) 0.77650(18) 0.47536(15)
F2A F 0.3210(2) 0.64783(19) 0.67731(14)
N1A N 0.4447(5) 0.8985(4) 0.2308(3)
N2A N 0.7110(5) 0.5294(4) 0.0958(3)
C1A C 0.4095(4) 0.5743(3) 0.5905(2)
C2A C 0.4351(4) 0.6397(3) 0.4872(2)
C3A C 0.5276(4) 0.5713(3) 0.3875(2)
C4A C 0.5531(4) 0.6389(3) 0.2807(2)
C5A C 0.4901(4) 0.7836(4) 0.2574(3)
C6A C 0.6426(4) 0.5720(4) 0.1801(3)
C7 C 1.1400(4) 0.5792(4) 0.1902(2)
H1 H 1.1563 0.6273 0.1197
C8 C 1.2056(4) 0.4398(4) 0.1998(3)
H2 H 1.2666 0.3960 0.1358
C9 C 1.1827(4) 0.3614(3) 0.3048(2)
C10 C 1.2478(5) 0.2171(4) 0.3176(3)
H3 H 1.3084 0.1711 0.2547
C11 C 1.2236(5) 0.1434(4) 0.4208(3)
H4 H 1.2667 0.0483 0.4259
C12 C 1.1337(4) 0.2098(3) 0.5201(3)
C13 C 1.1073(4) 0.1373(3) 0.6274(3)
H5 H 1.1492 0.0422 0.6343
C14 C 1.0208(4) 0.2043(4) 0.7221(3)
H6 H 1.0074 0.1542 0.7918
C15 C 0.9520(4) 0.3482(3) 0.7151(2)
C16 C 0.9759(3) 0.4237(3) 0.6075(2)
C17 C 1.0669(4) 0.3547(3) 0.5099(2)
C18 C 1.0915(4) 0.4301(3) 0.4023(2)
C7A C 0.8600(4) 0.4208(4) 0.8098(2)
H1A H 0.8437 0.3727 0.8803
C8A C 0.7944(4) 0.5602(4) 0.8002(3)
H2A H 0.7334 0.6040 0.8642
C9A C 0.8173(4) 0.6386(3) 0.6952(2)
C10A C 0.7522(5) 0.7829(4) 0.6824(3)
H3A H 0.6916 0.8289 0.7453
C11A C 0.7764(5) 0.8566(4) 0.5792(3)
H4A H 0.7333 0.9517 0.5741
C12A C 0.8663(4) 0.7902(3) 0.4799(3)
C13A C 0.8927(4) 0.8627(3) 0.3726(3)
H5A H 0.8508 0.9578 0.3657
C14A C 0.9792(4) 0.7957(4) 0.2779(3)
H6A H 0.9926 0.8458 0.2082
C15A C 1.0480(4) 0.6518(3) 0.2849(2)
C16A C 1.0241(3) 0.5763(3) 0.3925(2)
C17A C 0.9331(4) 0.6453(3) 0.4901(2)
C18A C 0.9085(4) 0.5699(3) 0.5977(2)
C19 C 0.3341(5) 0.8281(3) 0.9273(3)
H7 H 0.2975 0.7381 0.9042
H8 H 0.4045 0.8122 0.9902
H9 H 0.4115 0.8747 0.8653
C20 C 0.1630(10) 0.9191(7) 0.9612(5)
C21 C 0.1704(10) 1.0518(8) 1.0112(5)
H10 H 0.2878 1.0863 1.0188
C22 C 0.0080(12) 1.1317(8) 1.0491(5)
H11 H 0.0160 1.2191 1.0811
C19A C -0.3341(5) 1.1719(3) 1.0727(3)
H7A H -0.2975 1.2619 1.0958
H8A H -0.4045 1.1878 1.0098
H9A H -0.4115 1.1253 1.1347
C20A C -0.1630(10) 1.0809(7) 1.0388(5)
C21A C -0.1704(10) 0.9482(8) 0.9888(5)
H10A H -0.2878 0.9137 0.9812
C22A C -0.0080(12) 0.8683(8) 0.9509(5)
H11A H -0.0160 0.7809 0.9189
loop_
_geom_bond_atom_site_label_1
_geom_bond_atom_site_label_2
_geom_bond_site_symmetry_1
_geom_bond_site_symmetry_2
F1 C2 1_555 1_555
F2 C1 1_555 1_555
N1 C5 1_555 1_555
N2 C6 1_555 1_555
C1 C2 1_555 1_555
C2 C3 1_555 1_555
C3 C4 1_555 1_555
C4 C5 1_555 1_555
C6 C4 1_555 1_555
C7 H1 1_555 1_555
C8 C7 1_555 1_555
H2 C8 1_555 1_555
C9 C8 1_555 1_555
C10 C9 1_555 1_555
H3 C10 1_555 1_555
C11 C10 1_555 1_555
H4 C11 1_555 1_555
C12 C11 1_555 1_555
C13 C12 1_555 1_555
H5 C13 1_555 1_555
C14 C13 1_555 1_555
H6 C14 1_555 1_555
C15 C14 1_555 1_555
C16 C15 1_555 1_555
C17 C12 1_555 1_555
C18 C9 1_555 1_555
C19 H7 1_555 1_555
H8 C19 1_555 1_555
H9 C19 1_555 1_555
C20 C19 1_555 1_555
C21 C20 1_555 1_555
H10 C21 1_555 1_555
C22 C21 1_555 1_555
H11 C22 1_555 1_555
F1A C2A 1_555 1_555
F2A C1A 1_555 1_555
N1A C5A 1_555 1_555
N2A C6A 1_555 1_555
C1A C3 1_555 1_555
C2A C1A 1_555 1_555
C3A C1 1_555 1_555
C4A C3A 1_555 1_555
C5A C4A 1_555 1_555
C6A C4A 1_555 1_555
C7A C15 1_555 1_555
H1A C7A 1_555 1_555
C8A C7A 1_555 1_555
H2A C8A 1_555 1_555
C9A C8A 1_555 1_555
C10A C9A 1_555 1_555
H3A C10A 1_555 1_555
C11A C10A 1_555 1_555
H4A C11A 1_555 1_555
C12A C11A 1_555 1_555
C13A C12A 1_555 1_555
H5A C13A 1_555 1_555
C14A C13A 1_555 1_555
H6A C14A 1_555 1_555
C15A C7 1_555 1_555
C16A C18 1_555 1_555
C17A C12A 1_555 1_555
C18A C16 1_555 1_555
C19A H7A 1_555 1_555
H8A C19A 1_555 1_555
H9A C19A 1_555 1_555
C20A C22 1_555 1_555
C21A C20A 1_555 1_555
H10A C21A 1_555 1_555
C22A C20 1_555 1_555
H11A C22A 1_555 1_555
C16 C17 1_555 1_555
C17 C18 1_555 1_555
C2A C3A 1_555 1_555
C9A C18A 1_555 1_555
C14A C15A 1_555 1_555
C15A C16A 1_555 1_555
C16A C17A 1_555 1_555
C17A C18A 1_555 1_555
C19A C20A 1_555 1_555
C21A C22A 1_555 1_555

#END
