
#######################################################################
#
#                 Cambridge Crystallographic Data Centre
#                                CCDC 
#
#######################################################################
#
# If this CIF has been generated from an entry in the Cambridge 
# Structural Database, then it will include bibliographic, chemical, 
# crystal, experimental, refinement or atomic coordinate data resulting 
# from the CCDC's data processing and validation procedures.
#
#######################################################################

data_ADANIF
_chemical_formula_moiety         'C21 H16 N6 O1'
_chemical_name_systematic        
2-(4-(4-methoxyphenyl)-5-(pyridin-2-yl)-4H-1,2,4-triazol-3-yl)-1H-benzimidazole
_symmetry_cell_setting           monoclinic
_symmetry_space_group_name_H-M   'P 21/n'
_symmetry_Int_Tables_number      14
_space_group_name_Hall           '-P 2yn'
loop_
_symmetry_equiv_pos_site_id
_symmetry_equiv_pos_as_xyz
1 x,y,z
2 1/2-x,1/2+y,1/2-z
3 -x,-y,-z
4 1/2+x,1/2-y,1/2+z
_cell_length_a                   10.935(7)
_cell_length_b                   9.835(6)
_cell_length_c                   17.540(11)
_cell_angle_alpha                90
_cell_angle_beta                 93.521(7)
_cell_angle_gamma                90
_cell_volume                     1882.79
_exptl_crystal_colour            colorless
_exptl_crystal_description       block
_cell_formula_units_Z            4
loop_
_atom_site_label
_atom_site_type_symbol
_atom_site_fract_x
_atom_site_fract_y
_atom_site_fract_z
O1 O 1.25520(14) 0.17213(18) 0.20363(10)
N1 N 0.8171(3) -0.4322(2) 0.14758(17)
N2 N 0.65490(17) -0.2096(2) 0.08987(12)
N3 N 0.62542(17) -0.09053(19) 0.05114(12)
N4 N 0.80587(15) -0.06313(17) 0.11286(10)
N5 N 0.61825(15) 0.19118(17) 0.00032(10)
H1 H 0.5450 0.1589 -0.0012
N6 N 0.82160(16) 0.20314(19) 0.02626(11)
C1 C 0.8749(3) -0.5303(3) 0.1938(2)
H2 H 0.8718 -0.6212 0.1792
C2 C 0.9363(3) -0.4934(3) 0.2604(2)
H3 H 0.9756 -0.5583 0.2917
C3 C 0.9391(2) -0.3583(3) 0.28066(18)
H4 H 0.9811 -0.3340 0.3263
C4 C 0.88468(19) -0.2600(2) 0.23820(13)
H5 H 0.8879 -0.1695 0.2536
C5 C 0.8256(2) -0.2975(2) 0.17282(14)
C6 C 0.76270(19) -0.1919(2) 0.12596(13)
C7 C 0.71645(18) -0.0042(2) 0.06535(12)
C8 C 0.72091(18) 0.1313(2) 0.03229(11)
C9 C 0.6544(2) 0.3146(2) -0.02942(12)
C10 C 0.5911(2) 0.4195(2) -0.06721(14)
H6 H 0.5066 0.4168 -0.0769
C11 C 0.6606(3) 0.5283(3) -0.08972(17)
H7 H 0.6214 0.6013 -0.1144
C12 C 0.7872(3) 0.5318(3) -0.07663(17)
H8 H 0.8306 0.6060 -0.0937
C13 C 0.8499(3) 0.4275(3) -0.03888(16)
H9 H 0.9347 0.4298 -0.0308
C14 C 0.7819(2) 0.3189(2) -0.01337(12)
C15 C 0.92223(17) -0.0043(2) 0.13953(11)
C16 C 0.9293(2) 0.0778(2) 0.20317(13)
H10 H 0.8600 0.0927 0.2302
C17 C 1.03962(19) 0.1386(2) 0.22716(12)
H11 H 1.0446 0.1936 0.2704
C18 C 1.14267(18) 0.1167(2) 0.18610(12)
C19 C 1.13444(19) 0.0311(2) 0.12272(12)
H12 H 1.2036 0.0150 0.0957
C20 C 1.02519(19) -0.0298(2) 0.09966(12)
H13 H 1.0205 -0.0876 0.0576
C21 C 1.2684(3) 0.2643(3) 0.26658(17)
H14 H 1.3515 0.2959 0.2721
H15 H 1.2480 0.2185 0.3125
H16 H 1.2144 0.3403 0.2574
loop_
_geom_bond_atom_site_label_1
_geom_bond_atom_site_label_2
_geom_bond_site_symmetry_1
_geom_bond_site_symmetry_2
O1 C18 1_555 1_555
N1 C1 1_555 1_555
N2 N3 1_555 1_555
N3 C7 1_555 1_555
N4 C6 1_555 1_555
N5 H1 1_555 1_555
N6 C8 1_555 1_555
C1 H2 1_555 1_555
C2 C1 1_555 1_555
H3 C2 1_555 1_555
C3 C2 1_555 1_555
H4 C3 1_555 1_555
C4 C3 1_555 1_555
H5 C4 1_555 1_555
C5 N1 1_555 1_555
C6 N2 1_555 1_555
C7 N4 1_555 1_555
C8 N5 1_555 1_555
C9 N5 1_555 1_555
C10 C9 1_555 1_555
H6 C10 1_555 1_555
C11 C10 1_555 1_555
H7 C11 1_555 1_555
C12 C11 1_555 1_555
H8 C12 1_555 1_555
C13 C12 1_555 1_555
H9 C13 1_555 1_555
C14 N6 1_555 1_555
C15 N4 1_555 1_555
C16 C15 1_555 1_555
H10 C16 1_555 1_555
C17 C16 1_555 1_555
H11 C17 1_555 1_555
C18 C17 1_555 1_555
C19 C18 1_555 1_555
H12 C19 1_555 1_555
C20 C15 1_555 1_555
H13 C20 1_555 1_555
C21 O1 1_555 1_555
H14 C21 1_555 1_555
H15 C21 1_555 1_555
H16 C21 1_555 1_555
C4 C5 1_555 1_555
C5 C6 1_555 1_555
C7 C8 1_555 1_555
C9 C14 1_555 1_555
C13 C14 1_555 1_555
C19 C20 1_555 1_555

#END
