
#######################################################################
#
#                 Cambridge Crystallographic Data Centre
#                                CCDC 
#
#######################################################################
#
# If this CIF has been generated from an entry in the Cambridge 
# Structural Database, then it will include bibliographic, chemical, 
# crystal, experimental, refinement or atomic coordinate data resulting 
# from the CCDC's data processing and validation procedures.
#
#######################################################################

data_ADANEZ
_chemical_formula_moiety         'C19 H18 N2 O5'
_chemical_name_systematic        
'Methyl 2-((3-(3-methoxyphenyl)-1,2,4-oxadiazol-5-yl)methoxy)phenylacetate'
_symmetry_cell_setting           monoclinic
_symmetry_space_group_name_H-M   'P 21/n'
_symmetry_Int_Tables_number      14
_space_group_name_Hall           '-P 2yn'
loop_
_symmetry_equiv_pos_site_id
_symmetry_equiv_pos_as_xyz
1 x,y,z
2 1/2-x,1/2+y,1/2-z
3 -x,-y,-z
4 1/2+x,1/2-y,1/2+z
_cell_length_a                   8.9620(18)
_cell_length_b                   7.9500(16)
_cell_length_c                   25.021(5)
_cell_angle_alpha                90
_cell_angle_beta                 96.51(3)
_cell_angle_gamma                90
_cell_volume                     1771.2
_exptl_crystal_colour            colorless
_exptl_crystal_description       block
_cell_formula_units_Z            4
_exptl_crystal_recrystallization_method ethanol
loop_
_atom_site_label
_atom_site_type_symbol
_atom_site_fract_x
_atom_site_fract_y
_atom_site_fract_z
O1 O 0.6405(4) 0.1837(4) 0.26370(12)
O2 O 0.2142(2) 0.7674(3) 0.10408(10)
O3 O 0.5771(2) 0.9452(2) 0.08893(8)
O4 O 0.8433(3) 1.2865(3) 0.12248(9)
O5 O 0.7804(3) 1.2363(3) 0.03521(10)
N1 N 0.4337(3) 0.6648(3) 0.13539(10)
N2 N 0.1849(3) 0.6123(4) 0.12978(12)
C1 C 0.7608(5) 0.2998(6) 0.26534(18)
H1 H 0.8456 0.2567 0.2881
H2 H 0.7304 0.4053 0.2793
H3 H 0.7880 0.3161 0.2297
C2 C 0.5096(4) 0.2217(5) 0.23335(15)
C3 C 0.4836(4) 0.3701(4) 0.20404(13)
H4 H 0.5597 0.4494 0.2034
C4 C 0.3445(4) 0.3985(4) 0.17601(12)
C5 C 0.2311(4) 0.2810(4) 0.17618(14)
H5 H 0.1376 0.3006 0.1570
C6 C 0.2582(5) 0.1330(5) 0.20528(16)
H6 H 0.1823 0.0533 0.2056
C7 C 0.3942(5) 0.1042(5) 0.23316(16)
H7 H 0.4108 0.0047 0.2524
C8 C 0.3189(3) 0.5598(4) 0.14702(11)
C9 C 0.3617(3) 0.7860(4) 0.10968(12)
C10 C 0.4186(3) 0.9415(4) 0.08541(14)
H8 H 0.3775 0.9480 0.0479
H9 H 0.3839 1.0392 0.1037
C11 C 0.6473(3) 0.8548(3) 0.05144(12)
C12 C 0.5734(4) 0.7454(4) 0.01446(12)
H10 H 0.4705 0.7278 0.0133
C13 C 0.6570(4) 0.6626(4) -0.02078(13)
H11 H 0.6090 0.5888 -0.0460
C14 C 0.8091(4) 0.6872(4) -0.01928(14)
H12 H 0.8641 0.6292 -0.0427
C15 C 0.8791(4) 0.7991(4) 0.01745(14)
H13 H 0.9817 0.8180 0.0181
C16 C 0.7997(3) 0.8838(4) 0.05343(12)
C17 C 0.8748(4) 1.0094(4) 0.09283(14)
H14 H 0.9828 1.0011 0.0929
H15 H 0.8510 0.9822 0.1287
C18 C 0.8255(3) 1.1887(4) 0.07910(14)
C19 C 0.8050(4) 1.4631(4) 0.11286(16)
H16 H 0.8219 1.5242 0.1461
H17 H 0.7012 1.4722 0.0986
H18 H 0.8668 1.5091 0.0875
loop_
_geom_bond_atom_site_label_1
_geom_bond_atom_site_label_2
_geom_bond_site_symmetry_1
_geom_bond_site_symmetry_2
O1 C1 1_555 1_555
O2 N2 1_555 1_555
O3 C10 1_555 1_555
O4 C18 1_555 1_555
O5 C18 1_555 1_555
N1 C8 1_555 1_555
N2 C8 1_555 1_555
C1 H1 1_555 1_555
H2 C1 1_555 1_555
H3 C1 1_555 1_555
C2 O1 1_555 1_555
C3 C2 1_555 1_555
H4 C3 1_555 1_555
C4 C3 1_555 1_555
C5 C4 1_555 1_555
H5 C5 1_555 1_555
C6 C5 1_555 1_555
H6 C6 1_555 1_555
C7 C2 1_555 1_555
H7 C7 1_555 1_555
C8 C4 1_555 1_555
C9 O2 1_555 1_555
C10 C9 1_555 1_555
H8 C10 1_555 1_555
H9 C10 1_555 1_555
C11 O3 1_555 1_555
C12 C11 1_555 1_555
H10 C12 1_555 1_555
C13 C12 1_555 1_555
H11 C13 1_555 1_555
C14 C13 1_555 1_555
H12 C14 1_555 1_555
C15 C14 1_555 1_555
H13 C15 1_555 1_555
C16 C11 1_555 1_555
C17 C16 1_555 1_555
H14 C17 1_555 1_555
H15 C17 1_555 1_555
C18 C17 1_555 1_555
C19 O4 1_555 1_555
H16 C19 1_555 1_555
H17 C19 1_555 1_555
H18 C19 1_555 1_555
N1 C9 1_555 1_555
C6 C7 1_555 1_555
C15 C16 1_555 1_555

#END
