
#######################################################################
#
#                 Cambridge Crystallographic Data Centre
#                                CCDC 
#
#######################################################################
#
# If this CIF has been generated from an entry in the Cambridge 
# Structural Database, then it will include bibliographic, chemical, 
# crystal, experimental, refinement or atomic coordinate data resulting 
# from the CCDC's data processing and validation procedures.
#
#######################################################################

data_ADANUR
_chemical_formula_moiety         'C20 H14 N6'
_chemical_name_systematic        
2-(4-phenyl-5-(pyridin-2-yl)-4H-1,2,4-triazol-3-yl)-1H-benzimidazole
_symmetry_cell_setting           monoclinic
_symmetry_space_group_name_H-M   'P 21/n'
_symmetry_Int_Tables_number      14
_space_group_name_Hall           '-P 2yn'
loop_
_symmetry_equiv_pos_site_id
_symmetry_equiv_pos_as_xyz
1 x,y,z
2 1/2-x,1/2+y,1/2-z
3 -x,-y,-z
4 1/2+x,1/2-y,1/2+z
_cell_length_a                   13.847(5)
_cell_length_b                   5.575(2)
_cell_length_c                   21.390(8)
_cell_angle_alpha                90
_cell_angle_beta                 97.868(5)
_cell_angle_gamma                90
_cell_volume                     1635.7
_exptl_crystal_colour            colorless
_exptl_crystal_description       block
_cell_formula_units_Z            4
loop_
_atom_site_label
_atom_site_type_symbol
_atom_site_fract_x
_atom_site_fract_y
_atom_site_fract_z
N1 N 0.9800(3) 0.1106(6) 0.15918(18)
N2 N 0.9870(2) 0.5503(5) 0.08744(14)
N3 N 0.9619(2) 0.7138(5) 0.03959(14)
N4 N 0.82617(19) 0.5617(5) 0.06592(12)
N5 N 0.8493(2) 1.0451(5) -0.05106(13)
H1 H 0.9036 1.1151 -0.0379
N6 N 0.7269(2) 0.7804(5) -0.05483(14)
C1 C 0.9773(3) -0.0636(7) 0.20572(19)
H2 H 1.0267 -0.1772 0.2130
C2 C 0.9000(3) -0.0667(7) 0.24122(19)
H3 H 0.8962 -0.1826 0.2721
C3 C 0.8307(3) 0.1041(8) 0.22939(19)
H4 H 0.7796 0.1032 0.2534
C4 C 0.8308(2) 0.2741(6) 0.18548(14)
H5 H 0.7816 0.3887 0.1793
C5 C 0.9029(2) 0.2743(6) 0.15119(16)
C6 C 0.9054(2) 0.4607(6) 0.10233(15)
C7 C 0.8654(3) 0.7173(6) 0.02734(16)
C8 C 0.8108(2) 0.8495(6) -0.02515(16)
C9 C 0.7837(2) 1.1068(6) -0.10224(16)
C10 C 0.7835(3) 1.2928(7) -0.1470(2)
H6 H 0.8333 1.4057 -0.1447
C11 C 0.7056(3) 1.2975(7) -0.19412(19)
H7 H 0.7028 1.4165 -0.2248
C12 C 0.6302(3) 1.1287(8) -0.19746(19)
H8 H 0.5794 1.1360 -0.2307
C13 C 0.6300(3) 0.9535(7) -0.15283(19)
H9 H 0.5790 0.8442 -0.1547
C14 C 0.7079(2) 0.9428(6) -0.10455(17)
C15 C 0.7240(2) 0.5345(6) 0.07154(15)
C16 C 0.6786(3) 0.7126(7) 0.10066(18)
H10 H 0.7136 0.8473 0.1161
C17 C 0.5830(3) 0.6936(10) 0.1070(2)
H11 H 0.5529 0.8151 0.1270
C18 C 0.5305(3) 0.4984(11) 0.0844(2)
H12 H 0.4645 0.4874 0.0882
C19 C 0.5757(3) 0.3176(9) 0.0558(2)
H13 H 0.5405 0.1820 0.0412
C20 C 0.6741(3) 0.3356(7) 0.04850(18)
H14 H 0.7047 0.2152 0.0284
loop_
_geom_bond_atom_site_label_1
_geom_bond_atom_site_label_2
_geom_bond_site_symmetry_1
_geom_bond_site_symmetry_2
N1 C1 1_555 1_555
N2 N3 1_555 1_555
N3 C7 1_555 1_555
N4 C6 1_555 1_555
N5 H1 1_555 1_555
N6 C8 1_555 1_555
C1 H2 1_555 1_555
C2 C1 1_555 1_555
H3 C2 1_555 1_555
C3 C2 1_555 1_555
H4 C3 1_555 1_555
C4 C3 1_555 1_555
H5 C4 1_555 1_555
C5 N1 1_555 1_555
C6 N2 1_555 1_555
C7 N4 1_555 1_555
C8 N5 1_555 1_555
C9 N5 1_555 1_555
C10 C9 1_555 1_555
H6 C10 1_555 1_555
C11 C10 1_555 1_555
H7 C11 1_555 1_555
C12 C11 1_555 1_555
H8 C12 1_555 1_555
C13 C12 1_555 1_555
H9 C13 1_555 1_555
C14 N6 1_555 1_555
C15 N4 1_555 1_555
C16 C15 1_555 1_555
H10 C16 1_555 1_555
C17 C16 1_555 1_555
H11 C17 1_555 1_555
C18 C17 1_555 1_555
H12 C18 1_555 1_555
C19 C18 1_555 1_555
H13 C19 1_555 1_555
C20 C15 1_555 1_555
H14 C20 1_555 1_555
C4 C5 1_555 1_555
C5 C6 1_555 1_555
C7 C8 1_555 1_555
C9 C14 1_555 1_555
C13 C14 1_555 1_555
C19 C20 1_555 1_555

#END
