
#######################################################################
#
#                 Cambridge Crystallographic Data Centre
#                                CCDC 
#
#######################################################################
#
# If this CIF has been generated from an entry in the Cambridge 
# Structural Database, then it will include bibliographic, chemical, 
# crystal, experimental, refinement or atomic coordinate data resulting 
# from the CCDC's data processing and validation procedures.
#
#######################################################################

data_ADANOL
_chemical_formula_moiety         'C21 H16 N6'
_chemical_name_systematic        
2-(4-(4-methylphenyl)-5-(pyridin-2-yl)-4H-1,2,4-triazol-3-yl)-1H-benzimidazole
_symmetry_cell_setting           triclinic
_symmetry_space_group_name_H-M   'P -1'
_symmetry_Int_Tables_number      2
_space_group_name_Hall           '-P 1'
loop_
_symmetry_equiv_pos_site_id
_symmetry_equiv_pos_as_xyz
1 x,y,z
2 -x,-y,-z
_cell_length_a                   9.467(2)
_cell_length_b                   9.781(2)
_cell_length_c                   11.928(3)
_cell_angle_alpha                68.759(2)
_cell_angle_beta                 88.936(3)
_cell_angle_gamma                62.274(3)
_cell_volume                     896.076
_exptl_crystal_colour            colorless
_exptl_crystal_description       block
_cell_formula_units_Z            2
loop_
_atom_site_label
_atom_site_type_symbol
_atom_site_fract_x
_atom_site_fract_y
_atom_site_fract_z
C1 C -0.3658(5) 1.1613(4) -0.1836(4)
H1 H -0.4073 1.2765 -0.2268
C2 C -0.4668(4) 1.0938(5) -0.1694(3)
H2 H -0.5771 1.1625 -0.2020
C3 C -0.4036(3) 0.9255(5) -0.1071(3)
H3 H -0.4726 0.8805 -0.0994
C4 C -0.2474(3) 0.8211(3) -0.0563(2)
H4 H -0.2076 0.7059 -0.0145
C5 C -0.1494(3) 0.8880(3) -0.0674(2)
C6 C 0.0236(3) 0.7726(3) -0.01410(19)
C7 C 0.2508(3) 0.5665(3) 0.10504(19)
C8 C 0.3724(2) 0.4225(3) 0.20871(19)
C9 C 0.6119(2) 0.2065(2) 0.30808(19)
C10 C 0.7712(3) 0.0768(3) 0.3486(2)
H5 H 0.8439 0.0577 0.2952
C11 C 0.8162(3) -0.0227(3) 0.4723(2)
H6 H 0.9221 -0.1112 0.5029
C12 C 0.7077(3) 0.0054(3) 0.5530(2)
H7 H 0.7430 -0.0633 0.6360
C13 C 0.5491(3) 0.1332(3) 0.5115(2)
H8 H 0.4765 0.1506 0.5652
C14 C 0.5001(3) 0.2356(3) 0.3871(2)
C15 C -0.0029(2) 0.5915(2) 0.19102(18)
C16 C -0.0400(3) 0.4711(3) 0.1928(2)
H9 H -0.0083 0.4222 0.1363
C17 C -0.1252(3) 0.4232(3) 0.2797(2)
H10 H -0.1514 0.3424 0.2803
C18 C -0.1726(2) 0.4924(3) 0.36580(19)
C19 C -0.1328(3) 0.6139(3) 0.3615(2)
H11 H -0.1629 0.6622 0.4184
C20 C -0.0491(3) 0.6647(3) 0.2739(2)
H12 H -0.0246 0.7473 0.2714
C21 C -0.2647(3) 0.4389(4) 0.4597(2)
H13 H -0.2871 0.5000 0.5111
H14 H -0.2009 0.3203 0.5087
H15 H -0.3650 0.4621 0.4193
N1 N -0.2003(4) 1.0572(3) -0.1332(3)
N2 N 0.1405(2) 0.7771(2) -0.07254(17)
N3 N 0.2855(2) 0.6455(2) 0.00307(17)
N4 N 0.0865(2) 0.6412(2) 0.09935(15)
N5 N 0.5267(2) 0.3300(2) 0.19364(16)
H16 H 0.5636 0.3455 0.1264
N6 N 0.3497(2) 0.3715(2) 0.32199(16)
loop_
_geom_bond_atom_site_label_1
_geom_bond_atom_site_label_2
_geom_bond_site_symmetry_1
_geom_bond_site_symmetry_2
C1 H1 1_555 1_555
C2 C1 1_555 1_555
H2 C2 1_555 1_555
C3 C2 1_555 1_555
H3 C3 1_555 1_555
C4 C3 1_555 1_555
H4 C4 1_555 1_555
C5 C4 1_555 1_555
C6 C5 1_555 1_555
C7 C8 1_555 1_555
C8 N5 1_555 1_555
C9 C10 1_555 1_555
C10 H5 1_555 1_555
C11 C10 1_555 1_555
H6 C11 1_555 1_555
C12 C11 1_555 1_555
H7 C12 1_555 1_555
C13 C12 1_555 1_555
H8 C13 1_555 1_555
C14 C9 1_555 1_555
C15 C16 1_555 1_555
C16 H9 1_555 1_555
C17 C16 1_555 1_555
H10 C17 1_555 1_555
C18 C17 1_555 1_555
C19 C18 1_555 1_555
H11 C19 1_555 1_555
C20 C15 1_555 1_555
H12 C20 1_555 1_555
C21 C18 1_555 1_555
H13 C21 1_555 1_555
H14 C21 1_555 1_555
H15 C21 1_555 1_555
N1 C1 1_555 1_555
N2 C6 1_555 1_555
N3 C7 1_555 1_555
N4 C6 1_555 1_555
N5 C9 1_555 1_555
H16 N5 1_555 1_555
N6 C8 1_555 1_555
C5 N1 1_555 1_555
C7 N4 1_555 1_555
C13 C14 1_555 1_555
C14 N6 1_555 1_555
C15 N4 1_555 1_555
C19 C20 1_555 1_555
N2 N3 1_555 1_555

#END
