
#######################################################################
#
#                 Cambridge Crystallographic Data Centre
#                                CCDC 
#
#######################################################################
#
# If this CIF has been generated from an entry in the Cambridge 
# Structural Database, then it will include bibliographic, chemical, 
# crystal, experimental, refinement or atomic coordinate data resulting 
# from the CCDC's data processing and validation procedures.
#
#######################################################################

data_ADAPAZ
_chemical_formula_moiety         'C20 H13 Br1 N6'
_chemical_name_systematic        
2-(4-(4-bromophenyl)-5-(pyridin-2-yl)-4H-1,2,4-triazol-3-yl)-1H-benzimidazole
_symmetry_cell_setting           monoclinic
_symmetry_space_group_name_H-M   'P 21/c'
_symmetry_Int_Tables_number      14
_space_group_name_Hall           '-P 2ybc'
loop_
_symmetry_equiv_pos_site_id
_symmetry_equiv_pos_as_xyz
1 x,y,z
2 -x,1/2+y,1/2-z
3 -x,-y,-z
4 x,1/2-y,1/2+z
_cell_length_a                   8.7055(9)
_cell_length_b                   10.4277(11)
_cell_length_c                   19.916(2)
_cell_angle_alpha                90
_cell_angle_beta                 96.3420(10)
_cell_angle_gamma                90
_cell_volume                     1796.88
_exptl_crystal_colour            colorless
_exptl_crystal_description       block
_cell_formula_units_Z            4
loop_
_atom_site_label
_atom_site_type_symbol
_atom_site_fract_x
_atom_site_fract_y
_atom_site_fract_z
Br1 Br 0.24211(5) 0.63047(4) 0.13456(2)
N1 N 0.4134(6) 0.2172(6) 0.5041(3)
N2 N 0.6877(3) 0.3589(3) 0.49237(15)
N3 N 0.8028(3) 0.4378(3) 0.47320(14)
N4 N 0.5988(3) 0.4542(3) 0.39760(13)
N5 N 0.9672(3) 0.6392(3) 0.41439(15)
H1 H 1.0176 0.6117 0.4511
N6 N 0.7809(3) 0.6510(3) 0.32713(15)
C1 C 0.2761(7) 0.1524(6) 0.5087(3)
H2 H 0.2674 0.0963 0.5443
C2 C 0.1577(6) 0.1705(5) 0.4623(2)
H3 H 0.0664 0.1245 0.4631
C3 C 0.1736(6) 0.2580(7) 0.4138(3)
H4 H 0.0877 0.2762 0.3833
C4 C 0.3036(4) 0.3195(4) 0.4069(2)
H5 H 0.3096 0.3764 0.3713
C5 C 0.4230(4) 0.2988(4) 0.45086(17)
C6 C 0.5679(4) 0.3696(3) 0.44669(17)
C7 C 0.7477(4) 0.4940(3) 0.41672(16)
C8 C 0.8293(4) 0.5927(3) 0.38392(17)
C9 C 1.0090(4) 0.7383(3) 0.37464(17)
C10 C 1.1307(4) 0.8251(4) 0.3821(2)
H6 H 1.2054 0.8235 0.4193
C11 C 1.1339(5) 0.9143(4) 0.3306(2)
H7 H 1.2132 0.9745 0.3336
C12 C 1.0229(5) 0.9170(4) 0.2747(2)
H8 H 1.0319 0.9769 0.2408
C13 C 0.9006(5) 0.8332(4) 0.2686(2)
H9 H 0.8257 0.8363 0.2315
C14 C 0.8924(4) 0.7432(3) 0.31983(18)
C15 C 0.5051(4) 0.4899(3) 0.33521(16)
C16 C 0.3913(4) 0.5804(4) 0.33660(18)
H10 H 0.3680 0.6141 0.3775
C17 C 0.3115(4) 0.6210(3) 0.27621(18)
H11 H 0.2336 0.6821 0.2760
C18 C 0.3492(4) 0.5697(4) 0.21693(17)
C19 C 0.4597(4) 0.4768(4) 0.21528(18)
H12 H 0.4813 0.4417 0.1744
C20 C 0.5390(4) 0.4361(4) 0.27574(18)
H13 H 0.6144 0.3729 0.2760
loop_
_geom_bond_atom_site_label_1
_geom_bond_atom_site_label_2
_geom_bond_site_symmetry_1
_geom_bond_site_symmetry_2
Br1 C18 1_555 1_555
N1 C1 1_555 1_555
N2 N3 1_555 1_555
N3 C7 1_555 1_555
N4 C6 1_555 1_555
N5 H1 1_555 1_555
N6 C8 1_555 1_555
C1 H2 1_555 1_555
C2 C1 1_555 1_555
H3 C2 1_555 1_555
C3 C2 1_555 1_555
H4 C3 1_555 1_555
C4 C3 1_555 1_555
H5 C4 1_555 1_555
C5 N1 1_555 1_555
C6 N2 1_555 1_555
C7 N4 1_555 1_555
C8 N5 1_555 1_555
C9 N5 1_555 1_555
C10 C9 1_555 1_555
H6 C10 1_555 1_555
C11 C10 1_555 1_555
H7 C11 1_555 1_555
C12 C11 1_555 1_555
H8 C12 1_555 1_555
C13 C12 1_555 1_555
H9 C13 1_555 1_555
C14 N6 1_555 1_555
C15 N4 1_555 1_555
C16 C15 1_555 1_555
H10 C16 1_555 1_555
C17 C16 1_555 1_555
H11 C17 1_555 1_555
C18 C17 1_555 1_555
C19 C18 1_555 1_555
H12 C19 1_555 1_555
C20 C15 1_555 1_555
H13 C20 1_555 1_555
C4 C5 1_555 1_555
C5 C6 1_555 1_555
C7 C8 1_555 1_555
C9 C14 1_555 1_555
C13 C14 1_555 1_555
C19 C20 1_555 1_555

#END
