
#######################################################################
#
#                 Cambridge Crystallographic Data Centre
#                                CCDC 
#
#######################################################################
#
# If this CIF has been generated from an entry in the Cambridge 
# Structural Database, then it will include bibliographic, chemical, 
# crystal, experimental, refinement or atomic coordinate data resulting 
# from the CCDC's data processing and validation procedures.
#
#######################################################################

data_ADAPIF
_chemical_formula_moiety         'C14 H8 Cl4 N2'
_chemical_name_systematic        N,N'-bis(2,6-Dichlorobenzylidene)hydrazine
_symmetry_cell_setting           monoclinic
_symmetry_space_group_name_H-M   'P 21/n'
_symmetry_Int_Tables_number      14
_space_group_name_Hall           '-P 2yn'
loop_
_symmetry_equiv_pos_site_id
_symmetry_equiv_pos_as_xyz
1 x,y,z
2 1/2-x,1/2+y,1/2-z
3 -x,-y,-z
4 1/2+x,1/2-y,1/2+z
_cell_length_a                   4.265(3)
_cell_length_b                   13.548(9)
_cell_length_c                   25.593(17)
_cell_angle_alpha                90
_cell_angle_beta                 94.008(12)
_cell_angle_gamma                90
_cell_volume                     1475.2
_exptl_crystal_colour            'light yellow'
_exptl_crystal_description       block
_chemical_melting_point          '428-429 K'
_cell_formula_units_Z            4
_exptl_crystal_recrystallization_method THF
loop_
_atom_site_label
_atom_site_type_symbol
_atom_site_fract_x
_atom_site_fract_y
_atom_site_fract_z
Cl1 Cl 0.3727(2) 0.10137(7) -0.03267(4)
Cl2 Cl -0.2341(2) 0.38720(6) 0.07086(3)
Cl3 Cl 0.3099(2) -0.09400(7) 0.16006(3)
Cl4 Cl -0.3065(2) 0.16937(6) 0.27618(3)
N1 N -0.0261(6) 0.1810(2) 0.10135(10)
N2 N 0.1116(6) 0.1243(2) 0.14383(10)
C1 C 0.1699(6) 0.2120(2) -0.03094(11)
C2 C 0.1070(7) 0.2617(2) -0.07756(11)
H1 H 0.1782 0.2370 -0.1085
C3 C -0.0605(7) 0.3473(2) -0.07783(12)
H2 H -0.1039 0.3810 -0.1092
C4 C -0.1662(7) 0.3844(2) -0.03221(12)
H3 H -0.2808 0.4428 -0.0326
C5 C -0.1005(6) 0.3340(2) 0.01445(11)
C6 C 0.0689(6) 0.2463(2) 0.01691(10)
C7 C 0.1552(7) 0.1912(2) 0.06552(11)
H4 H 0.3539 0.1628 0.0697
C8 C -0.0837(7) 0.0967(2) 0.17452(11)
H5 H -0.2923 0.1159 0.1682
C9 C 0.0030(6) 0.0344(2) 0.22064(10)
C10 C 0.1758(6) -0.0529(2) 0.21880(11)
C11 C 0.2390(7) -0.1112(2) 0.26281(13)
H6 H 0.3525 -0.1695 0.2604
C12 C 0.1327(8) -0.0823(3) 0.31005(13)
H7 H 0.1757 -0.1212 0.3396
C13 C -0.0353(8) 0.0028(3) 0.31381(11)
H8 H -0.1068 0.0220 0.3458
C14 C -0.0981(6) 0.0602(2) 0.26964(11)
loop_
_geom_bond_atom_site_label_1
_geom_bond_atom_site_label_2
_geom_bond_site_symmetry_1
_geom_bond_site_symmetry_2
Cl1 C1 1_555 1_555
Cl2 C5 1_555 1_555
Cl3 C10 1_555 1_555
Cl4 C14 1_555 1_555
N1 N2 1_555 1_555
N2 C8 1_555 1_555
C1 C2 1_555 1_555
C2 H1 1_555 1_555
C3 C2 1_555 1_555
H2 C3 1_555 1_555
C4 C3 1_555 1_555
H3 C4 1_555 1_555
C5 C4 1_555 1_555
C6 C1 1_555 1_555
C7 N1 1_555 1_555
H4 C7 1_555 1_555
C8 H5 1_555 1_555
C9 C8 1_555 1_555
C10 C9 1_555 1_555
C11 C10 1_555 1_555
H6 C11 1_555 1_555
C12 C11 1_555 1_555
H7 C12 1_555 1_555
C13 C12 1_555 1_555
H8 C13 1_555 1_555
C14 C9 1_555 1_555
C5 C6 1_555 1_555
C6 C7 1_555 1_555
C13 C14 1_555 1_555

#END
