
#######################################################################
#
#                 Cambridge Crystallographic Data Centre
#                                CCDC 
#
#######################################################################
#
# If this CIF has been generated from an entry in the Cambridge 
# Structural Database, then it will include bibliographic, chemical, 
# crystal, experimental, refinement or atomic coordinate data resulting 
# from the CCDC's data processing and validation procedures.
#
#######################################################################

data_ADAPED
_chemical_formula_moiety         'C20 H13 Cl1 N6'
_chemical_name_systematic        
2-(4-(4-chlorophenyl)-5-(pyridin-2-yl)-4H-1,2,4-triazol-3-yl)-1H-benzimidazole
_symmetry_cell_setting           monoclinic
_symmetry_space_group_name_H-M   'P 21/c'
_symmetry_Int_Tables_number      14
_space_group_name_Hall           '-P 2ybc'
loop_
_symmetry_equiv_pos_site_id
_symmetry_equiv_pos_as_xyz
1 x,y,z
2 -x,1/2+y,1/2-z
3 -x,-y,-z
4 x,1/2-y,1/2+z
_cell_length_a                   8.589(3)
_cell_length_b                   10.418(4)
_cell_length_c                   19.671(7)
_cell_angle_alpha                90
_cell_angle_beta                 96.074(5)
_cell_angle_gamma                90
_cell_volume                     1750.28
_exptl_crystal_colour            colorless
_exptl_crystal_description       block
_cell_formula_units_Z            4
loop_
_atom_site_label
_atom_site_type_symbol
_atom_site_fract_x
_atom_site_fract_y
_atom_site_fract_z
Cl1 Cl 0.24871(12) 0.86906(9) 0.36279(4)
N1 N 0.0908(5) 1.2926(5) -0.0025(2)
N2 N -0.1833(3) 1.1451(3) 0.00860(13)
N3 N -0.2998(3) 1.0652(3) 0.02735(13)
N4 N -0.0933(3) 1.0476(2) 0.10387(12)
N5 N -0.4660(3) 0.8604(2) 0.08545(13)
H1 H -0.5172 0.8889 0.0486
N6 N -0.2773(3) 0.8477(2) 0.17360(13)
C1 C 0.2313(5) 1.3568(5) -0.0070(2)
H2 H 0.2396 1.4164 -0.0416
C2 C 0.3545(5) 1.3325(4) 0.0386(2)
H3 H 0.4490 1.3753 0.0368
C3 C 0.3374(5) 1.2433(5) 0.0876(2)
H4 H 0.4238 1.2247 0.1187
C4 C 0.2061(4) 1.1816(3) 0.09379(16)
H5 H 0.2001 1.1224 0.1288
C5 C 0.0851(4) 1.2044(3) 0.05028(15)
C6 C -0.0614(4) 1.1336(3) 0.05437(15)
C7 C -0.2440(4) 1.0068(3) 0.08396(15)
C8 C -0.3266(4) 0.9066(3) 0.11644(15)
C9 C -0.5076(4) 0.7596(3) 0.12488(15)
C10 C -0.6296(4) 0.6718(3) 0.11667(18)
H6 H -0.7043 0.6737 0.0788
C11 C -0.6341(4) 0.5819(3) 0.16739(19)
H7 H -0.7140 0.5213 0.1637
C12 C -0.5220(4) 0.5785(4) 0.22453(19)
H8 H -0.5312 0.5176 0.2584
C13 C -0.3993(4) 0.6631(3) 0.23158(17)
H9 H -0.3244 0.6598 0.2693
C14 C -0.3906(4) 0.7547(3) 0.18003(15)
C15 C -0.0012(3) 1.0102(3) 0.16658(14)
C16 C -0.0358(4) 1.0632(3) 0.22692(16)
H10 H -0.1112 1.1273 0.2268
C17 C 0.0418(4) 1.0210(3) 0.28781(16)
H11 H 0.0192 1.0558 0.3292
C18 C 0.1533(4) 0.9264(3) 0.28638(15)
C19 C 0.1922(4) 0.8761(3) 0.22589(15)
H12 H 0.2704 0.8144 0.2258
C20 C 0.1132(4) 0.9184(3) 0.16508(15)
H13 H 0.1374 0.8851 0.1236
loop_
_geom_bond_atom_site_label_1
_geom_bond_atom_site_label_2
_geom_bond_site_symmetry_1
_geom_bond_site_symmetry_2
Cl1 C18 1_555 1_555
N1 C1 1_555 1_555
N2 N3 1_555 1_555
N3 C7 1_555 1_555
N4 C6 1_555 1_555
N5 H1 1_555 1_555
N6 C8 1_555 1_555
C1 H2 1_555 1_555
C2 C1 1_555 1_555
H3 C2 1_555 1_555
C3 C2 1_555 1_555
H4 C3 1_555 1_555
C4 C3 1_555 1_555
H5 C4 1_555 1_555
C5 N1 1_555 1_555
C6 N2 1_555 1_555
C7 N4 1_555 1_555
C8 N5 1_555 1_555
C9 N5 1_555 1_555
C10 C9 1_555 1_555
H6 C10 1_555 1_555
C11 C10 1_555 1_555
H7 C11 1_555 1_555
C12 C11 1_555 1_555
H8 C12 1_555 1_555
C13 C12 1_555 1_555
H9 C13 1_555 1_555
C14 N6 1_555 1_555
C15 N4 1_555 1_555
C16 C15 1_555 1_555
H10 C16 1_555 1_555
C17 C16 1_555 1_555
H11 C17 1_555 1_555
C18 C17 1_555 1_555
C19 C18 1_555 1_555
H12 C19 1_555 1_555
C20 C15 1_555 1_555
H13 C20 1_555 1_555
C4 C5 1_555 1_555
C5 C6 1_555 1_555
C7 C8 1_555 1_555
C9 C14 1_555 1_555
C13 C14 1_555 1_555
C19 C20 1_555 1_555

#END
