
#######################################################################
#
#                 Cambridge Crystallographic Data Centre
#                                CCDC 
#
#######################################################################
#
# If this CIF has been generated from an entry in the Cambridge 
# Structural Database, then it will include bibliographic, chemical, 
# crystal, experimental, refinement or atomic coordinate data resulting 
# from the CCDC's data processing and validation procedures.
#
#######################################################################

data_ADAPEB
_chemical_formula_moiety         'C18 H20 N6 O3'
_chemical_name_systematic        
'Ethyl 5-amino-1-(5-amino-3-methyl-1-phenyl-1H-pyrazole-4-carbonyl)-3-methyl-1H-pyrazole-4-carboxylate'
_symmetry_cell_setting           orthorhombic
_symmetry_space_group_name_H-M   'P b c a'
_symmetry_Int_Tables_number      61
_space_group_name_Hall           '-P 2ac 2ab'
loop_
_symmetry_equiv_pos_site_id
_symmetry_equiv_pos_as_xyz
1 x,y,z
2 1/2-x,-y,1/2+z
3 -x,1/2+y,1/2-z
4 1/2+x,1/2-y,-z
5 -x,-y,-z
6 1/2+x,y,1/2-z
7 x,1/2-y,1/2+z
8 1/2-x,1/2+y,z
_cell_length_a                   10.5990(14)
_cell_length_b                   10.9782(14)
_cell_length_c                   31.017(4)
_cell_angle_alpha                90
_cell_angle_beta                 90
_cell_angle_gamma                90
_cell_volume                     3609.07
_exptl_crystal_colour            colorless
_exptl_crystal_description       block
_cell_formula_units_Z            8
_exptl_crystal_recrystallization_method ethanol/water
loop_
_atom_site_label
_atom_site_type_symbol
_atom_site_fract_x
_atom_site_fract_y
_atom_site_fract_z
O1 O 0.22909(14) -0.08346(13) 0.03895(4)
O2 O 0.20541(14) 0.13799(13) -0.11619(4)
O3 O 0.08046(13) 0.30093(12) -0.10665(4)
N1 N -0.04454(17) 0.18407(16) 0.10263(6)
H1 H -0.0384(19) 0.2062(18) 0.0745(7)
H2 H -0.094(2) 0.2192(19) 0.1195(7)
N2 N 0.02915(15) 0.05381(14) 0.15674(5)
N3 N 0.10686(16) -0.04613(15) 0.16353(5)
N4 N 0.24408(17) -0.01182(17) -0.04180(6)
H3 H 0.264(2) -0.074(2) -0.0230(8)
H4 H 0.257(2) -0.0089(19) -0.0690(7)
N5 N 0.12499(13) 0.08054(13) 0.01547(4)
N6 N 0.04520(14) 0.18013(13) 0.02091(5)
C1 C 0.02928(16) 0.09152(15) 0.11527(6)
C2 C 0.11439(16) 0.01459(15) 0.09312(5)
C3 C 0.15728(17) -0.06842(17) 0.12572(6)
C4 C 0.2480(2) -0.1724(2) 0.12210(7)
H5 H 0.2606 -0.2082 0.1500
H6 H 0.3272 -0.1432 0.1112
H7 H 0.2144 -0.2326 0.1028
C5 C 0.15865(17) 0.00016(16) 0.04925(6)
C6 C 0.16706(16) 0.07477(16) -0.02668(5)
C7 C 0.11516(15) 0.17387(16) -0.04793(5)
C8 C 0.03895(16) 0.23401(16) -0.01666(6)
C9 C -0.0450(2) 0.34180(18) -0.02189(7)
H8 H -0.1181 0.3191 -0.0383
H9 H -0.0002 0.4052 -0.0368
H10 H -0.0706 0.3706 0.0060
C10 C -0.04592(17) 0.09805(17) 0.19158(6)
C11 C -0.0350(2) 0.21728(19) 0.20475(6)
H11 H 0.0201 0.2699 0.1906
C12 C -0.1061(2) 0.2581(2) 0.23896(7)
H12 H -0.0990 0.3385 0.2481
C13 C -0.1869(2) 0.1808(3) 0.25954(7)
H13 H -0.2353 0.2090 0.2825
C14 C -0.1974(2) 0.0621(3) 0.24665(7)
H14 H -0.2521 0.0097 0.2610
C15 C -0.1269(2) 0.0198(2) 0.21236(6)
H15 H -0.1340 -0.0608 0.2034
C16 C 0.13856(18) 0.19975(17) -0.09300(6)
C17 C 0.0907(2) 0.3301(2) -0.15207(6)
H16 H 0.0474 0.2692 -0.1692
H17 H 0.1786 0.3319 -0.1607
C18 C 0.0321(3) 0.4517(2) -0.15865(8)
H18 H -0.0542 0.4494 -0.1493
H19 H 0.0352 0.4726 -0.1887
H20 H 0.0773 0.5116 -0.1422
loop_
_geom_bond_atom_site_label_1
_geom_bond_atom_site_label_2
_geom_bond_site_symmetry_1
_geom_bond_site_symmetry_2
O1 C5 1_555 1_555
O2 C16 1_555 1_555
O3 C16 1_555 1_555
N1 H1 1_555 1_555
H2 N1 1_555 1_555
N2 N3 1_555 1_555
N3 C3 1_555 1_555
N4 H3 1_555 1_555
H4 N4 1_555 1_555
N5 N6 1_555 1_555
N6 C8 1_555 1_555
C1 N1 1_555 1_555
C2 C1 1_555 1_555
C3 C2 1_555 1_555
C4 C3 1_555 1_555
H5 C4 1_555 1_555
H6 C4 1_555 1_555
H7 C4 1_555 1_555
C5 N5 1_555 1_555
C6 N4 1_555 1_555
C7 C6 1_555 1_555
C8 C7 1_555 1_555
C9 C8 1_555 1_555
H8 C9 1_555 1_555
H9 C9 1_555 1_555
H10 C9 1_555 1_555
C10 N2 1_555 1_555
C11 C10 1_555 1_555
H11 C11 1_555 1_555
C12 C11 1_555 1_555
H12 C12 1_555 1_555
C13 C12 1_555 1_555
H13 C13 1_555 1_555
C14 C13 1_555 1_555
H14 C14 1_555 1_555
C15 C10 1_555 1_555
H15 C15 1_555 1_555
C16 C7 1_555 1_555
C17 O3 1_555 1_555
H16 C17 1_555 1_555
H17 C17 1_555 1_555
C18 C17 1_555 1_555
H18 C18 1_555 1_555
H19 C18 1_555 1_555
H20 C18 1_555 1_555
N2 C1 1_555 1_555
N5 C6 1_555 1_555
C2 C5 1_555 1_555
C14 C15 1_555 1_555

#END
