
#######################################################################
#
#                 Cambridge Crystallographic Data Centre
#                                CCDC 
#
#######################################################################
#
# If this CIF has been generated from an entry in the Cambridge 
# Structural Database, then it will include bibliographic, chemical, 
# crystal, experimental, refinement or atomic coordinate data resulting 
# from the CCDC's data processing and validation procedures.
#
#######################################################################

data_ADAQED
_chemical_formula_moiety         'C14 H15 Cl1 O6'
_chemical_name_systematic        
'Methyl 3-(2-(4-chlorophenyl)-3,4-dihydroxy-5-oxotetrahydrofuran-2-yl)propanoate'
_symmetry_cell_setting           monoclinic
_symmetry_space_group_name_H-M   'P 21'
_symmetry_Int_Tables_number      4
_space_group_name_Hall           'P 2yb'
loop_
_symmetry_equiv_pos_site_id
_symmetry_equiv_pos_as_xyz
1 x,y,z
2 -x,1/2+y,-z
_cell_length_a                   6.6430(3)
_cell_length_b                   7.2457(4)
_cell_length_c                   14.8060(6)
_cell_angle_alpha                90
_cell_angle_beta                 90.840(4)
_cell_angle_gamma                90
_cell_volume                     712.583
_cell_formula_units_Z            2
loop_
_atom_site_label
_atom_site_type_symbol
_atom_site_fract_x
_atom_site_fract_y
_atom_site_fract_z
Cl1 Cl 1.23061(18) 0.75730(15) -0.01965(5)
O1 O 0.5940(2) 0.6982(2) 0.32165(10)
O2 O 0.9599(2) 0.9313(2) 0.38052(12)
O3 O 0.7035(3) 0.9518(3) 0.51907(12)
O4 O 0.3786(2) 0.8743(3) 0.39565(14)
O5 O 0.3952(3) 0.2991(3) 0.32174(12)
O6 O 0.4907(4) 0.1883(3) 0.18969(14)
C1 C 0.8048(3) 0.6371(3) 0.33239(14)
C2 C 0.8896(3) 0.7590(3) 0.41112(13)
H1 H 0.9928 0.6936 0.4466
C3 C 0.6998(3) 0.7925(3) 0.46578(14)
H2 H 0.6765 0.6853 0.5047
C4 C 0.5372(3) 0.7980(3) 0.39252(15)
C5 C 0.9076(3) 0.6729(3) 0.24274(14)
C6 C 1.1066(4) 0.6194(4) 0.23387(18)
H3 H 1.1746 0.5666 0.2828
C7 C 1.2059(4) 0.6437(4) 0.1524(2)
H4 H 1.3390 0.6064 0.1464
C8 C 1.1042(5) 0.7235(4) 0.08164(17)
C9 C 0.9099(5) 0.7827(5) 0.08918(17)
H5 H 0.8443 0.8386 0.0405
C10 C 0.8111(4) 0.7582(4) 0.17076(17)
H6 H 0.6795 0.7996 0.1767
C11 C 0.8089(3) 0.4320(3) 0.35855(16)
H7 H 0.9442 0.4014 0.3789
H8 H 0.7204 0.4146 0.4094
C12 C 0.7473(4) 0.2958(3) 0.28468(18)
H9 H 0.8037 0.3382 0.2283
H10 H 0.8089 0.1776 0.2987
C13 C 0.5282(4) 0.2654(3) 0.26993(14)
C14 C 0.2868(6) 0.1359(6) 0.1700(3)
H11 H 0.2760 0.0940 0.1086
H12 H 0.2000 0.2403 0.1783
H13 H 0.2477 0.0384 0.2100
H14 H 1.081(5) 0.923(5) 0.376(2)
H15 H 0.657(5) 0.926(5) 0.570(3)
loop_
_geom_bond_atom_site_label_1
_geom_bond_atom_site_label_2
_geom_bond_site_symmetry_1
_geom_bond_site_symmetry_2
Cl1 C8 1_555 1_555
O1 C1 1_555 1_555
O2 C2 1_555 1_555
O3 C3 1_555 1_555
O4 C4 1_555 1_555
O5 C13 1_555 1_555
O6 C13 1_555 1_555
C1 C2 1_555 1_555
C2 H1 1_555 1_555
C3 C2 1_555 1_555
H2 C3 1_555 1_555
C4 O1 1_555 1_555
C5 C1 1_555 1_555
C6 C5 1_555 1_555
H3 C6 1_555 1_555
C7 C6 1_555 1_555
H4 C7 1_555 1_555
C8 C7 1_555 1_555
C9 C8 1_555 1_555
H5 C9 1_555 1_555
C10 C5 1_555 1_555
H6 C10 1_555 1_555
C11 C1 1_555 1_555
H7 C11 1_555 1_555
H8 C11 1_555 1_555
C12 C11 1_555 1_555
H9 C12 1_555 1_555
H10 C12 1_555 1_555
C13 C12 1_555 1_555
C14 O6 1_555 1_555
H11 C14 1_555 1_555
H12 C14 1_555 1_555
H13 C14 1_555 1_555
H14 O2 1_555 1_555
H15 O3 1_555 1_555
C3 C4 1_555 1_555
C9 C10 1_555 1_555

#END
