
#######################################################################
#
#                 Cambridge Crystallographic Data Centre
#                                CCDC 
#
#######################################################################
#
# If this CIF has been generated from an entry in the Cambridge 
# Structural Database, then it will include bibliographic, chemical, 
# crystal, experimental, refinement or atomic coordinate data resulting 
# from the CCDC's data processing and validation procedures.
#
#######################################################################

data_ADAQAY
_chemical_formula_moiety         'C20 H24 N2 O3 S1'
_chemical_name_systematic        
(1R,2R)-(+)-1-(2-Hydroxybenzylideneamino)-2-(p-tolylsulfonylamino)cyclohexane
_symmetry_cell_setting           orthorhombic
_symmetry_space_group_name_H-M   'P 21 21 21'
_symmetry_Int_Tables_number      19
_space_group_name_Hall           'P 2ac 2ab'
loop_
_symmetry_equiv_pos_site_id
_symmetry_equiv_pos_as_xyz
1 x,y,z
2 1/2-x,-y,1/2+z
3 1/2+x,1/2-y,-z
4 -x,1/2+y,1/2-z
_cell_length_a                   8.134(2)
_cell_length_b                   11.043(3)
_cell_length_c                   21.385(6)
_cell_angle_alpha                90
_cell_angle_beta                 90
_cell_angle_gamma                90
_cell_volume                     1920.88
_exptl_crystal_colour            yellow
_exptl_crystal_description       block
_chemical_melting_point          '419-422 K'
_cell_formula_units_Z            4
loop_
_atom_site_label
_atom_site_type_symbol
_atom_site_fract_x
_atom_site_fract_y
_atom_site_fract_z
C1 C 0.5825(4) 1.0327(3) 0.04421(12)
H1 H 0.6531 0.9608 0.0439
C2 C 0.6870(5) 1.1457(3) 0.03194(16)
H2 H 0.6199 1.2174 0.0379
H3 H 0.7765 1.1486 0.0618
C3 C 0.7562(4) 1.1458(3) -0.03345(17)
H4 H 0.8211 1.2184 -0.0398
H5 H 0.8277 1.0763 -0.0388
C4 C 0.6226(4) 1.1413(3) -0.08027(16)
H6 H 0.6688 1.1428 -0.1221
H7 H 0.5517 1.2113 -0.0755
C5 C 0.5219(5) 1.0238(3) -0.07086(13)
H8 H 0.4335 1.0208 -0.1012
H9 H 0.5922 0.9541 -0.0776
C6 C 0.4499(4) 1.0192(3) -0.00443(12)
H10 H 0.3714 1.0859 0.0004
C7 C 0.5479(4) 0.9770(3) 0.14964(13)
H11 H 0.6221 0.9150 0.1413
C8 C 0.4838(4) 0.9910(3) 0.21380(13)
C9 C 0.3662(4) 1.0787(3) 0.22781(14)
C10 C 0.3130(5) 1.0928(4) 0.28967(16)
H12 H 0.2375 1.1530 0.2997
C11 C 0.3730(6) 1.0170(5) 0.33589(18)
H13 H 0.3363 1.0254 0.3769
C12 C 0.4853(6) 0.9303(4) 0.32152(15)
H14 H 0.5270 0.8814 0.3532
C13 C 0.5396(5) 0.9131(4) 0.26018(15)
H15 H 0.6119 0.8506 0.2506
C14 C 0.1674(4) 0.8482(3) 0.10262(14)
C15 C 0.0614(5) 0.9045(3) 0.14196(16)
H16 H -0.0023 0.9691 0.1282
C16 C 0.0498(5) 0.8630(4) 0.20421(17)
H17 H -0.0216 0.9018 0.2316
C17 C 0.1411(5) 0.7669(3) 0.22527(17)
C18 C 0.2485(5) 0.7115(3) 0.18346(16)
H18 H 0.3119 0.6463 0.1967
C19 C 0.2625(4) 0.7516(3) 0.12285(15)
H19 H 0.3354 0.7141 0.0955
N1 N 0.5055(3) 1.0458(2) 0.10634(11)
N2 N 0.3606(3) 0.9035(2) 0.00238(11)
H20 H 0.4141 0.8381 -0.0055
O1 O 0.3064(3) 1.1537(2) 0.18368(12)
H21 H 0.3849 1.1595 0.1503
O2 O 0.0979(3) 1.0045(2) 0.01574(13)
O3 O 0.1128(4) 0.7882(2) -0.01073(12)
C20 C 0.1252(6) 0.7199(4) 0.28958(17)
H22 H 0.0246 0.7038 0.2965
H23 H 0.1585 0.7728 0.3155
H24 H 0.1829 0.6564 0.2944
S1 S 0.17423(10) 0.88992(7) 0.02299(4)
loop_
_geom_bond_atom_site_label_1
_geom_bond_atom_site_label_2
_geom_bond_site_symmetry_1
_geom_bond_site_symmetry_2
C1 H1 1_555 1_555
C2 C1 1_555 1_555
H2 C2 1_555 1_555
H3 C2 1_555 1_555
C3 C2 1_555 1_555
H4 C3 1_555 1_555
H5 C3 1_555 1_555
C4 C3 1_555 1_555
H6 C4 1_555 1_555
H7 C4 1_555 1_555
C5 C4 1_555 1_555
H8 C5 1_555 1_555
H9 C5 1_555 1_555
C6 C1 1_555 1_555
H10 C6 1_555 1_555
C7 H11 1_555 1_555
C8 C7 1_555 1_555
C9 C8 1_555 1_555
C10 C9 1_555 1_555
H12 C10 1_555 1_555
C11 C10 1_555 1_555
H13 C11 1_555 1_555
C12 C11 1_555 1_555
H14 C12 1_555 1_555
C13 C8 1_555 1_555
H15 C13 1_555 1_555
C14 C15 1_555 1_555
C15 H16 1_555 1_555
C16 C15 1_555 1_555
H17 C16 1_555 1_555
C17 C16 1_555 1_555
C18 C17 1_555 1_555
H18 C18 1_555 1_555
C19 C14 1_555 1_555
H19 C19 1_555 1_555
N1 C1 1_555 1_555
N2 C6 1_555 1_555
H20 N2 1_555 1_555
O1 C9 1_555 1_555
H21 O1 1_555 1_555
O2 S1 1_555 1_555
O3 S1 1_555 1_555
C20 C17 1_555 1_555
H22 C20 1_555 1_555
H23 C20 1_555 1_555
H24 C20 1_555 1_555
S1 C14 1_555 1_555
C5 C6 1_555 1_555
C7 N1 1_555 1_555
C12 C13 1_555 1_555
C18 C19 1_555 1_555
N2 S1 1_555 1_555

#END
