
#######################################################################
#
#                 Cambridge Crystallographic Data Centre
#                                CCDC 
#
#######################################################################
#
# If this CIF has been generated from an entry in the Cambridge 
# Structural Database, then it will include bibliographic, chemical, 
# crystal, experimental, refinement or atomic coordinate data resulting 
# from the CCDC's data processing and validation procedures.
#
#######################################################################

data_ADAQEC
_chemical_formula_moiety         'C14 H20 O2'
_chemical_name_systematic        1-(2-Hydroxyphenyl)octanone
_symmetry_cell_setting           triclinic
_symmetry_space_group_name_H-M   'P -1'
_symmetry_Int_Tables_number      2
_space_group_name_Hall           '-P 1'
loop_
_symmetry_equiv_pos_site_id
_symmetry_equiv_pos_as_xyz
1 x,y,z
2 -x,-y,-z
_cell_length_a                   6.8560(14)
_cell_length_b                   8.4850(17)
_cell_length_c                   11.547(2)
_cell_angle_alpha                95.20(3)
_cell_angle_beta                 102.54(3)
_cell_angle_gamma                93.15(3)
_cell_volume                     651.076
_exptl_crystal_colour            'light yellow'
_exptl_crystal_description       block
_chemical_melting_point          '294 K'
_cell_formula_units_Z            2
_exptl_crystal_recrystallization_method ligroin
loop_
_atom_site_label
_atom_site_type_symbol
_atom_site_fract_x
_atom_site_fract_y
_atom_site_fract_z
O1 O 0.2599(2) 1.1164(2) 0.79697(16)
O2 O 0.4406(2) 0.9798(2) 0.65026(16)
H1 H 0.4278 1.0419 0.7063
C1 C -0.5829(5) 1.4578(4) 1.2579(3)
H2 H -0.5637 1.5403 1.3228
H3 H -0.6134 1.3578 1.2853
H4 H -0.6917 1.4799 1.1952
C2 C -0.3931(4) 1.4505(3) 1.2111(2)
H5 H -0.3609 1.5531 1.1862
H6 H -0.2836 1.4298 1.2753
C3 C -0.4086(4) 1.3258(3) 1.1082(2)
H7 H -0.5194 1.3457 1.0445
H8 H -0.4392 1.2231 1.1335
C4 C -0.2205(4) 1.3190(3) 1.0597(2)
H9 H -0.1896 1.4217 1.0345
H10 H -0.1097 1.2986 1.1232
C5 C -0.2382(4) 1.1932(3) 0.9558(2)
H11 H -0.3498 1.2136 0.8928
H12 H -0.2692 1.0908 0.9814
C6 C -0.0522(4) 1.1842(3) 0.9051(2)
H13 H -0.0211 1.2858 0.8783
H14 H 0.0601 1.1632 0.9675
C7 C -0.0786(3) 1.0561(3) 0.8020(2)
H15 H -0.1171 0.9561 0.8285
H16 H -0.1882 1.0802 0.7390
C8 C 0.1032(3) 1.0353(3) 0.7505(2)
C9 C 0.0935(3) 0.9179(3) 0.6472(2)
C10 C -0.0825(4) 0.8275(3) 0.5918(2)
H17 H -0.1980 0.8414 0.6203
C11 C -0.0892(4) 0.7179(3) 0.4954(2)
H18 H -0.2081 0.6581 0.4590
C12 C 0.0832(4) 0.6972(3) 0.4529(2)
H19 H 0.0803 0.6224 0.3884
C13 C 0.2568(4) 0.7863(3) 0.5056(2)
H20 H 0.3712 0.7729 0.4760
C14 C 0.2643(4) 0.8959(3) 0.6022(2)
loop_
_geom_bond_atom_site_label_1
_geom_bond_atom_site_label_2
_geom_bond_site_symmetry_1
_geom_bond_site_symmetry_2
O1 C8 1_555 1_555
O2 H1 1_555 1_555
C1 H2 1_555 1_555
H3 C1 1_555 1_555
H4 C1 1_555 1_555
C2 C1 1_555 1_555
H5 C2 1_555 1_555
H6 C2 1_555 1_555
C3 C2 1_555 1_555
H7 C3 1_555 1_555
H8 C3 1_555 1_555
C4 C3 1_555 1_555
H9 C4 1_555 1_555
H10 C4 1_555 1_555
C5 C4 1_555 1_555
H11 C5 1_555 1_555
H12 C5 1_555 1_555
C6 C5 1_555 1_555
H13 C6 1_555 1_555
H14 C6 1_555 1_555
C7 C6 1_555 1_555
H15 C7 1_555 1_555
H16 C7 1_555 1_555
C8 C7 1_555 1_555
C9 C8 1_555 1_555
C10 C9 1_555 1_555
H17 C10 1_555 1_555
C11 C10 1_555 1_555
H18 C11 1_555 1_555
C12 C11 1_555 1_555
H19 C12 1_555 1_555
C13 C12 1_555 1_555
H20 C13 1_555 1_555
C14 O2 1_555 1_555
C9 C14 1_555 1_555
C13 C14 1_555 1_555

#END
