
#######################################################################
#
#                 Cambridge Crystallographic Data Centre
#                                CCDC 
#
#######################################################################
#
# If this CIF has been generated from an entry in the Cambridge 
# Structural Database, then it will include bibliographic, chemical, 
# crystal, experimental, refinement or atomic coordinate data resulting 
# from the CCDC's data processing and validation procedures.
#
#######################################################################

data_ADAQUS
_chemical_formula_moiety         'C6 H6 Br1 N1 O1'
_chemical_name_systematic        5-Bromo-2-(hydroxymethyl)pyridine
_symmetry_cell_setting           monoclinic
_symmetry_space_group_name_H-M   'P 21'
_symmetry_Int_Tables_number      4
_space_group_name_Hall           'P 2yb'
loop_
_symmetry_equiv_pos_site_id
_symmetry_equiv_pos_as_xyz
1 x,y,z
2 -x,1/2+y,-z
_cell_length_a                   4.0390(10)
_cell_length_b                   8.974(2)
_cell_length_c                   9.224(2)
_cell_angle_alpha                90
_cell_angle_beta                 93.09(3)
_cell_angle_gamma                90
_cell_volume                     333.847
_exptl_crystal_colour            brown
_exptl_crystal_description       block
_cell_formula_units_Z            2
_exptl_crystal_recrystallization_method 'ethyl acetate'
loop_
_atom_site_label
_atom_site_type_symbol
_atom_site_fract_x
_atom_site_fract_y
_atom_site_fract_z
Br1 Br 0.1262(2) 0.25210(17) 0.40114(7)
O1 O 0.8828(17) 0.1474(10) 1.0727(7)
H1 H 0.9436 0.1565 1.1585
N1 N 0.380(2) 0.3728(8) 0.8225(8)
C1 C 0.3050(17) 0.250(2) 0.5959(7)
C2 C 0.260(2) 0.3691(9) 0.6842(10)
H2 H 0.1417 0.4508 0.6472
C3 C 0.5450(16) 0.256(2) 0.8743(7)
C4 C 0.598(2) 0.1308(10) 0.7885(10)
H3 H 0.7165 0.0496 0.8268
C5 C 0.474(3) 0.1291(9) 0.6467(10)
H4 H 0.5051 0.0470 0.5874
C6 C 0.669(2) 0.265(3) 1.0320(9)
H5 H 0.7848 0.3583 1.0484
H6 H 0.4811 0.2631 1.0929
loop_
_geom_bond_atom_site_label_1
_geom_bond_atom_site_label_2
_geom_bond_site_symmetry_1
_geom_bond_site_symmetry_2
Br1 C1 1_555 1_555
O1 H1 1_555 1_555
N1 C2 1_555 1_555
C1 C2 1_555 1_555
C2 H2 1_555 1_555
C3 N1 1_555 1_555
C4 C3 1_555 1_555
H3 C4 1_555 1_555
C5 C1 1_555 1_555
H4 C5 1_555 1_555
C6 O1 1_555 1_555
H5 C6 1_555 1_555
H6 C6 1_555 1_555
C3 C6 1_555 1_555
C4 C5 1_555 1_555

#END
