
#######################################################################
#
#                 Cambridge Crystallographic Data Centre
#                                CCDC 
#
#######################################################################
#
# If this CIF has been generated from an entry in the Cambridge 
# Structural Database, then it will include bibliographic, chemical, 
# crystal, experimental, refinement or atomic coordinate data resulting 
# from the CCDC's data processing and validation procedures.
#
#######################################################################

data_ADAQAZ
_chemical_formula_moiety         'C12 H12 F3 N1 O5'
_chemical_name_systematic        
3-(4,4,4-Trifluoro-3-(2-methyl-5-oxo-2,5-dihydrofuran-2-yl)butanoyl)-1,3-oxazolidin-2-one
_symmetry_cell_setting           monoclinic
_symmetry_space_group_name_H-M   'P 21'
_symmetry_Int_Tables_number      4
_space_group_name_Hall           'P 2yb'
loop_
_symmetry_equiv_pos_site_id
_symmetry_equiv_pos_as_xyz
1 x,y,z
2 -x,1/2+y,-z
_cell_length_a                   7.1539(6)
_cell_length_b                   8.7491(5)
_cell_length_c                   10.4502(6)
_cell_angle_alpha                90
_cell_angle_beta                 96.642(6)
_cell_angle_gamma                90
_cell_volume                     649.69
_cell_formula_units_Z            2
loop_
_atom_site_label
_atom_site_type_symbol
_atom_site_fract_x
_atom_site_fract_y
_atom_site_fract_z
F1 F 1.2070(2) 0.2132(3) 0.88452(18)
F2 F 1.0660(3) 0.0008(2) 0.89306(16)
F3 F 0.9623(3) 0.1974(2) 0.98197(14)
O1 O 1.4238(2) 0.2941(2) 0.55829(19)
O2 O 1.12646(18) 0.26975(15) 0.60247(14)
O3 O 0.5941(2) 0.2967(2) 0.85922(18)
O4 O 0.8546(3) 0.6797(2) 0.7188(2)
O5 O 0.6007(4) 0.7943(3) 0.7808(2)
N1 N 0.6269(3) 0.5441(3) 0.81284(18)
C1 C 1.2987(3) 0.2124(3) 0.5858(2)
C2 C 1.2932(3) 0.0466(3) 0.6064(2)
H1 H 1.3926 -0.0206 0.6002
C3 C 1.1256(3) 0.0084(2) 0.6349(2)
H2 H 1.0894 -0.0900 0.6550
C4 C 1.0007(2) 0.1467(2) 0.63044(18)
C5 C 0.9148(2) 0.1899(2) 0.75538(18)
H3 H 0.7979 0.1316 0.7556
C6 C 0.8619(3) 0.3598(2) 0.7525(2)
H4 H 0.9649 0.4177 0.7975
H5 H 0.8449 0.3944 0.6637
C7 C 0.6856(3) 0.3927(3) 0.81294(19)
C8 C 0.4522(4) 0.5841(4) 0.8656(3)
H6 H 0.3460 0.5274 0.8233
H7 H 0.4623 0.5654 0.9576
C9 C 0.4351(6) 0.7476(5) 0.8368(4)
H8 H 0.3234 0.7667 0.7771
H9 H 0.4246 0.8048 0.9152
C10 C 0.7109(4) 0.6720(3) 0.7657(2)
C11 C 0.8441(3) 0.1308(3) 0.5184(2)
H10 H 0.7632 0.2186 0.5160
H11 H 0.7722 0.0403 0.5300
H12 H 0.8986 0.1237 0.4389
C12 C 1.0380(3) 0.1513(3) 0.8784(2)
loop_
_geom_bond_atom_site_label_1
_geom_bond_atom_site_label_2
_geom_bond_site_symmetry_1
_geom_bond_site_symmetry_2
F1 C12 1_555 1_555
F2 C12 1_555 1_555
F3 C12 1_555 1_555
O1 C1 1_555 1_555
O2 C1 1_555 1_555
O3 C7 1_555 1_555
O4 C10 1_555 1_555
O5 C9 1_555 1_555
N1 C7 1_555 1_555
C1 C2 1_555 1_555
C2 H1 1_555 1_555
C3 C2 1_555 1_555
H2 C3 1_555 1_555
C4 O2 1_555 1_555
C5 C4 1_555 1_555
H3 C5 1_555 1_555
C6 C5 1_555 1_555
H4 C6 1_555 1_555
H5 C6 1_555 1_555
C7 C6 1_555 1_555
C8 N1 1_555 1_555
H6 C8 1_555 1_555
H7 C8 1_555 1_555
C9 C8 1_555 1_555
H8 C9 1_555 1_555
H9 C9 1_555 1_555
C10 O5 1_555 1_555
C11 C4 1_555 1_555
H10 C11 1_555 1_555
H11 C11 1_555 1_555
H12 C11 1_555 1_555
C12 C5 1_555 1_555
N1 C10 1_555 1_555
C3 C4 1_555 1_555

#END
