
#######################################################################
#
#                 Cambridge Crystallographic Data Centre
#                                CCDC 
#
#######################################################################
#
# If this CIF has been generated from an entry in the Cambridge 
# Structural Database, then it will include bibliographic, chemical, 
# crystal, experimental, refinement or atomic coordinate data resulting 
# from the CCDC's data processing and validation procedures.
#
#######################################################################

data_ADATUV
_chemical_compound_source        'Coleus forskohlii (Willd.) Briq. (Labiatae)'
_chemical_name_common            'Forskolin G'
_chemical_formula_moiety         'C24 H36 O7'
_chemical_name_systematic        
1\a-hydroxy-6\b,7\b-diacetoxy-8,13-epoxylabd-14-en-11-one
_chemical_properties_biological  
'inotropic, antihypertensive and adenylate cyclase-stimulating activities'
_symmetry_cell_setting           monoclinic
_symmetry_space_group_name_H-M   'P 21'
_symmetry_Int_Tables_number      4
_space_group_name_Hall           'P 2yb'
loop_
_symmetry_equiv_pos_site_id
_symmetry_equiv_pos_as_xyz
1 x,y,z
2 -x,1/2+y,-z
_cell_length_a                   9.839(3)
_cell_length_b                   11.981(4)
_cell_length_c                   10.908(4)
_cell_angle_alpha                90
_cell_angle_beta                 114.982(4)
_cell_angle_gamma                90
_cell_volume                     1165.54
_exptl_crystal_colour            colorless
_exptl_crystal_description       prism
_chemical_melting_point          '506 K'
_cell_formula_units_Z            2
_exptl_crystal_recrystallization_method 'petroleum ether/acetone'
loop_
_atom_site_label
_atom_site_type_symbol
_atom_site_fract_x
_atom_site_fract_y
_atom_site_fract_z
O1 O 0.7072(2) 0.6729(2) 0.5857(2)
H1 H 0.7862 0.6749 0.5773
O2 O 0.20973(18) 0.79428(17) 0.61815(19)
O3 O -0.0112(2) 0.7053(2) 0.5518(2)
O4 O 0.2637(2) 0.64237(18) 0.81966(19)
O5 O 0.2023(3) 0.4652(2) 0.7561(3)
O6 O 0.5783(2) 0.6281(2) 0.9591(2)
O7 O 0.8311(3) 0.8470(3) 0.8518(2)
C1 C 0.6447(3) 0.7834(3) 0.5693(3)
H2 H 0.7261 0.8365 0.6159
C2 C 0.5705(3) 0.8135(3) 0.4200(3)
H3 H 0.6438 0.8084 0.3825
H4 H 0.5352 0.8900 0.4102
C3 C 0.4395(3) 0.7369(3) 0.3417(3)
H5 H 0.4767 0.6613 0.3465
H6 H 0.3954 0.7592 0.2474
C4 C 0.3167(3) 0.7378(3) 0.3944(3)
C5 C 0.3959(3) 0.7122(2) 0.5500(2)
H7 H 0.4404 0.6384 0.5535
C6 C 0.2871(3) 0.6918(2) 0.6156(3)
H8 H 0.2122 0.6369 0.5607
C7 C 0.3677(3) 0.6457(3) 0.7577(3)
H9 H 0.3981 0.5689 0.7509
C8 C 0.5072(3) 0.7100(3) 0.8537(3)
C9 C 0.6092(3) 0.7302(2) 0.7789(3)
H10 H 0.6368 0.6553 0.7612
C10 C 0.5343(3) 0.7862(2) 0.6376(3)
C11 C 0.7554(3) 0.7810(3) 0.8804(3)
C12 C 0.8043(3) 0.7459(3) 1.0257(3)
H11 H 0.7857 0.8078 1.0738
H12 H 0.9118 0.7340 1.0647
C13 C 0.7320(3) 0.6421(3) 1.0533(3)
C14 C 0.2081(3) 0.6423(3) 0.3235(3)
H13 H 0.1200 0.6492 0.3401
H14 H 0.2560 0.5721 0.3582
H15 H 0.1802 0.6458 0.2280
C15 C 0.2284(4) 0.8477(3) 0.3531(3)
H16 H 0.2942 0.9091 0.3952
H17 H 0.1485 0.8467 0.3816
H18 H 0.1873 0.8559 0.2566
C16 C 0.0614(3) 0.7906(3) 0.5836(3)
C17 C 0.0015(3) 0.9025(3) 0.5902(4)
H19 H 0.0648 0.9585 0.5785
H20 H -0.0010 0.9122 0.6766
H21 H -0.0981 0.9095 0.5199
C18 C 0.1878(3) 0.5480(3) 0.8103(3)
C19 C 0.0802(4) 0.5621(4) 0.8742(5)
H22 H 0.1231 0.6113 0.9504
H23 H 0.0610 0.4907 0.9037
H24 H -0.0121 0.5931 0.8092
C20 C 0.4659(3) 0.8132(3) 0.9125(3)
H25 H 0.5508 0.8623 0.9491
H26 H 0.4373 0.7911 0.9828
H27 H 0.3838 0.8511 0.8424
C21 C 0.4984(3) 0.9098(2) 0.6492(3)
H28 H 0.4877 0.9488 0.5688
H29 H 0.5786 0.9426 0.7262
H30 H 0.4067 0.9151 0.6600
C22 C 0.8180(4) 0.5406(3) 1.0472(3)
H31 H 0.9194 0.5392 1.1059
C23 C 0.7666(5) 0.4541(3) 0.9690(4)
H32 H 0.6660 0.4511 0.9083
H33 H 0.8303 0.3953 0.9737
C24 C 0.7326(4) 0.6500(4) 1.1936(3)
H34 H 0.6777 0.7150 1.1978
H35 H 0.8340 0.6553 1.2611
H36 H 0.6862 0.5846 1.2099
loop_
_geom_bond_atom_site_label_1
_geom_bond_atom_site_label_2
_geom_bond_site_symmetry_1
_geom_bond_site_symmetry_2
O1 H1 1_555 1_555
O2 C6 1_555 1_555
O3 C16 1_555 1_555
O4 C7 1_555 1_555
O5 C18 1_555 1_555
O6 C8 1_555 1_555
O7 C11 1_555 1_555
C1 O1 1_555 1_555
H2 C1 1_555 1_555
C2 C1 1_555 1_555
H3 C2 1_555 1_555
H4 C2 1_555 1_555
C3 C2 1_555 1_555
H5 C3 1_555 1_555
H6 C3 1_555 1_555
C4 C3 1_555 1_555
C5 C4 1_555 1_555
H7 C5 1_555 1_555
C6 C5 1_555 1_555
H8 C6 1_555 1_555
C7 C6 1_555 1_555
H9 C7 1_555 1_555
C8 C7 1_555 1_555
C9 C8 1_555 1_555
H10 C9 1_555 1_555
C10 C1 1_555 1_555
C11 C9 1_555 1_555
C12 C11 1_555 1_555
H11 C12 1_555 1_555
H12 C12 1_555 1_555
C13 O6 1_555 1_555
C14 C4 1_555 1_555
H13 C14 1_555 1_555
H14 C14 1_555 1_555
H15 C14 1_555 1_555
C15 C4 1_555 1_555
H16 C15 1_555 1_555
H17 C15 1_555 1_555
H18 C15 1_555 1_555
C16 O2 1_555 1_555
C17 C16 1_555 1_555
H19 C17 1_555 1_555
H20 C17 1_555 1_555
H21 C17 1_555 1_555
C18 O4 1_555 1_555
C19 C18 1_555 1_555
H22 C19 1_555 1_555
H23 C19 1_555 1_555
H24 C19 1_555 1_555
C20 C8 1_555 1_555
H25 C20 1_555 1_555
H26 C20 1_555 1_555
H27 C20 1_555 1_555
C21 C10 1_555 1_555
H28 C21 1_555 1_555
H29 C21 1_555 1_555
H30 C21 1_555 1_555
C22 C13 1_555 1_555
H31 C22 1_555 1_555
C23 C22 1_555 1_555
H32 C23 1_555 1_555
H33 C23 1_555 1_555
C24 C13 1_555 1_555
H34 C24 1_555 1_555
H35 C24 1_555 1_555
H36 C24 1_555 1_555
C5 C10 1_555 1_555
C9 C10 1_555 1_555
C12 C13 1_555 1_555

#END
