
#######################################################################
#
#                 Cambridge Crystallographic Data Centre
#                                CCDC 
#
#######################################################################
#
# If this CIF has been generated from an entry in the Cambridge 
# Structural Database, then it will include bibliographic, chemical, 
# crystal, experimental, refinement or atomic coordinate data resulting 
# from the CCDC's data processing and validation procedures.
#
#######################################################################

data_ADAVIL
_chemical_formula_moiety         'C17 H16 N2 O3'
_chemical_name_systematic        
N-(4-Ethoxyphenyl)-N-(3-(2-nitrophenyl)prop-2-enylidene)amine
_symmetry_cell_setting           triclinic
_symmetry_space_group_name_H-M   'P -1'
_symmetry_Int_Tables_number      2
_space_group_name_Hall           '-P 1'
loop_
_symmetry_equiv_pos_site_id
_symmetry_equiv_pos_as_xyz
1 x,y,z
2 -x,-y,-z
_cell_length_a                   7.1103(10)
_cell_length_b                   7.6318(11)
_cell_length_c                   15.456(2)
_cell_angle_alpha                76.803(2)
_cell_angle_beta                 81.767(2)
_cell_angle_gamma                67.553(2)
_cell_volume                     753.228
_exptl_crystal_colour            yellow
_exptl_crystal_description       plate
_cell_formula_units_Z            2
_exptl_crystal_recrystallization_method ethanol/water
loop_
_atom_site_label
_atom_site_type_symbol
_atom_site_fract_x
_atom_site_fract_y
_atom_site_fract_z
O1 O 0.7092(3) -0.2117(3) 0.02098(14)
O2 O 0.9750(3) -0.2983(3) -0.06488(11)
O3 O -0.4715(2) 0.6814(2) 0.38287(10)
N1 N 0.8887(3) -0.2458(3) 0.00386(14)
N2 N 0.3433(3) 0.2691(3) 0.29721(12)
C1 C 1.0133(3) -0.2311(3) 0.06833(13)
C2 C 1.2197(4) -0.3364(3) 0.06006(16)
H1 H 1.2718 -0.4080 0.0150
C3 C 1.3466(4) -0.3354(4) 0.11769(17)
H2 H 1.4853 -0.4074 0.1128
C4 C 1.2688(4) -0.2273(3) 0.18324(16)
H3 H 1.3549 -0.2247 0.2225
C5 C 1.0637(3) -0.1233(3) 0.19061(15)
H4 H 1.0145 -0.0513 0.2355
C6 C 0.9247(3) -0.1198(3) 0.13429(14)
C7 C 0.7091(3) -0.0004(3) 0.14610(15)
H5 H 0.6270 0.0213 0.1001
C8 C 0.6206(3) 0.0790(3) 0.21536(15)
H6 H 0.7033 0.0574 0.2611
C9 C 0.4099(3) 0.1955(3) 0.22797(15)
H7 H 0.3206 0.2175 0.1848
C10 C 0.1343(3) 0.3787(3) 0.31275(13)
C11 C 0.0882(3) 0.5055(3) 0.36999(13)
H8 H 0.1938 0.5201 0.3932
C12 C -0.1111(3) 0.6118(3) 0.39393(13)
H9 H -0.1382 0.6982 0.4319
C13 C -0.2691(3) 0.5893(3) 0.36142(13)
C14 C -0.2248(3) 0.4639(3) 0.30292(15)
H10 H -0.3305 0.4489 0.2800
C15 C -0.0266(3) 0.3617(3) 0.27849(14)
H11 H 0.0004 0.2797 0.2384
C16 C -0.5252(3) 0.8023(3) 0.44760(15)
H12 H -0.4786 0.9095 0.4261
H13 H -0.4617 0.7294 0.5027
C17 C -0.7521(4) 0.8757(4) 0.46310(17)
H14 H -0.7922 0.9590 0.5058
H15 H -0.7964 0.7687 0.4853
H16 H -0.8134 0.9465 0.4081
loop_
_geom_bond_atom_site_label_1
_geom_bond_atom_site_label_2
_geom_bond_site_symmetry_1
_geom_bond_site_symmetry_2
O1 N1 1_555 1_555
O2 N1 1_555 1_555
O3 C13 1_555 1_555
N1 C1 1_555 1_555
N2 C9 1_555 1_555
C1 C2 1_555 1_555
C2 H1 1_555 1_555
C3 C2 1_555 1_555
H2 C3 1_555 1_555
C4 C3 1_555 1_555
H3 C4 1_555 1_555
C5 C4 1_555 1_555
H4 C5 1_555 1_555
C6 C1 1_555 1_555
C7 C6 1_555 1_555
H5 C7 1_555 1_555
C8 C7 1_555 1_555
H6 C8 1_555 1_555
C9 C8 1_555 1_555
H7 C9 1_555 1_555
C10 N2 1_555 1_555
C11 C10 1_555 1_555
H8 C11 1_555 1_555
C12 C11 1_555 1_555
H9 C12 1_555 1_555
C13 C12 1_555 1_555
C14 C13 1_555 1_555
H10 C14 1_555 1_555
C15 C10 1_555 1_555
H11 C15 1_555 1_555
C16 O3 1_555 1_555
H12 C16 1_555 1_555
H13 C16 1_555 1_555
C17 C16 1_555 1_555
H14 C17 1_555 1_555
H15 C17 1_555 1_555
H16 C17 1_555 1_555
C5 C6 1_555 1_555
C14 C15 1_555 1_555

#END
