
#######################################################################
#
#                 Cambridge Crystallographic Data Centre
#                                CCDC 
#
#######################################################################
#
# If this CIF has been generated from an entry in the Cambridge 
# Structural Database, then it will include bibliographic, chemical, 
# crystal, experimental, refinement or atomic coordinate data resulting 
# from the CCDC's data processing and validation procedures.
#
#######################################################################

data_ADAVUX
_chemical_formula_moiety         'C13 H13 Br1 Cl1 N3 O2'
_chemical_name_systematic        
1-((2-(Bromomethyl)-2-(4-chlorophenyl)-1,3-dioxolan-4-yl)methyl)-1H-1,2,4-triazole
_symmetry_cell_setting           monoclinic
_symmetry_space_group_name_H-M   'P 21/c'
_symmetry_Int_Tables_number      14
_space_group_name_Hall           '-P 2ybc'
loop_
_symmetry_equiv_pos_site_id
_symmetry_equiv_pos_as_xyz
1 x,y,z
2 -x,1/2+y,1/2-z
3 -x,-y,-z
4 x,1/2-y,1/2+z
_cell_length_a                   17.0510(12)
_cell_length_b                   7.6708(6)
_cell_length_c                   11.2732(8)
_cell_angle_alpha                90
_cell_angle_beta                 101.4190(10)
_cell_angle_gamma                90
_cell_volume                     1445.29
_exptl_crystal_colour            colorless
_exptl_crystal_description       plate
_cell_formula_units_Z            4
_exptl_crystal_recrystallization_method 'petroleum ether/ethyl acetate'
loop_
_atom_site_label
_atom_site_type_symbol
_atom_site_fract_x
_atom_site_fract_y
_atom_site_fract_z
Br1 Br 0.231617(16) 0.53229(4) 0.38913(2)
Cl1 Cl 0.49519(4) -0.38065(11) 0.66689(7)
O1 O 0.26582(9) 0.1601(2) 0.27864(13)
O2 O 0.19056(8) 0.1313(2) 0.42255(12)
N1 N 0.01959(10) 0.1945(2) 0.33571(16)
N2 N -0.04335(13) 0.0841(3) 0.3300(2)
N3 N -0.04640(12) 0.2940(3) 0.46845(19)
C1 C 0.42903(13) -0.2255(3) 0.5896(2)
C2 C 0.43695(13) -0.1738(3) 0.4762(2)
H1 H 0.4763 -0.2223 0.4399
C3 C 0.38551(13) -0.0481(3) 0.4165(2)
H2 H 0.3909 -0.0108 0.3400
C4 C 0.32597(12) 0.0228(3) 0.46991(19)
C5 C 0.31970(14) -0.0319(3) 0.5848(2)
H3 H 0.2802 0.0152 0.6213
C6 C 0.37143(14) -0.1554(3) 0.6456(2)
H4 H 0.3675 -0.1906 0.7232
C7 C 0.27013(12) 0.1627(3) 0.40526(18)
C8 C 0.20632(15) 0.0308(4) 0.2328(2)
H5 H 0.2292 -0.0854 0.2398
H6 H 0.1823 0.0531 0.1487
C9 C 0.14507(13) 0.0517(3) 0.3139(2)
H7 H 0.1242 -0.0621 0.3322
C10 C 0.07803(13) 0.1712(3) 0.2591(2)
H8 H 0.1000 0.2840 0.2444
H9 H 0.0514 0.1242 0.1817
C11 C 0.01619(14) 0.3151(3) 0.4178(2)
H10 H 0.0535 0.4042 0.4376
C12 C -0.08017(15) 0.1505(4) 0.4114(2)
H11 H -0.1266 0.1015 0.4284
C13 C 0.30008(14) 0.3381(3) 0.4560(2)
H12 H 0.3532 0.3573 0.4399
H13 H 0.3044 0.3363 0.5431
loop_
_geom_bond_atom_site_label_1
_geom_bond_atom_site_label_2
_geom_bond_site_symmetry_1
_geom_bond_site_symmetry_2
Br1 C13 1_555 1_555
Cl1 C1 1_555 1_555
O1 C7 1_555 1_555
O2 C7 1_555 1_555
N1 N2 1_555 1_555
N2 C12 1_555 1_555
N3 C11 1_555 1_555
C1 C2 1_555 1_555
C2 H1 1_555 1_555
C3 C2 1_555 1_555
H2 C3 1_555 1_555
C4 C3 1_555 1_555
C5 C4 1_555 1_555
H3 C5 1_555 1_555
C6 C1 1_555 1_555
H4 C6 1_555 1_555
C7 C4 1_555 1_555
C8 O1 1_555 1_555
H5 C8 1_555 1_555
H6 C8 1_555 1_555
C9 O2 1_555 1_555
H7 C9 1_555 1_555
C10 N1 1_555 1_555
H8 C10 1_555 1_555
H9 C10 1_555 1_555
C11 N1 1_555 1_555
H10 C11 1_555 1_555
C12 N3 1_555 1_555
H11 C12 1_555 1_555
C13 C7 1_555 1_555
H12 C13 1_555 1_555
H13 C13 1_555 1_555
C5 C6 1_555 1_555
C8 C9 1_555 1_555
C9 C10 1_555 1_555

#END
