
#######################################################################
#
#                 Cambridge Crystallographic Data Centre
#                                CCDC 
#
#######################################################################
#
# If this CIF has been generated from an entry in the Cambridge 
# Structural Database, then it will include bibliographic, chemical, 
# crystal, experimental, refinement or atomic coordinate data resulting 
# from the CCDC's data processing and validation procedures.
#
#######################################################################

data_ADAXIN
_chemical_formula_moiety         'C22 H18 N4 O6'
_chemical_name_systematic        
3,3'-Dimethyl-2,2'-dinitro-N,N'-(o-phenylene)dibenzamide
_symmetry_cell_setting           triclinic
_symmetry_space_group_name_H-M   'P -1'
_symmetry_Int_Tables_number      2
_space_group_name_Hall           '-P 1'
loop_
_symmetry_equiv_pos_site_id
_symmetry_equiv_pos_as_xyz
1 x,y,z
2 -x,-y,-z
_cell_length_a                   9.607(2)
_cell_length_b                   10.542(2)
_cell_length_c                   11.408(3)
_cell_angle_alpha                86.301(3)
_cell_angle_beta                 65.394(3)
_cell_angle_gamma                77.029(3)
_cell_volume                     1023.1
_exptl_crystal_colour            'pale yellow'
_exptl_crystal_description       column
_cell_formula_units_Z            2
_exptl_crystal_recrystallization_method 'glacial acetic acid'
loop_
_atom_site_label
_atom_site_type_symbol
_atom_site_fract_x
_atom_site_fract_y
_atom_site_fract_z
O1 O 0.5133(4) 0.8983(3) 0.1763(3)
O2 O 0.6174(3) 0.8783(2) 0.3108(2)
O3 O 0.43719(18) 0.67844(17) 0.46133(15)
O4 O 0.97132(19) 0.45546(16) 0.66248(18)
O5 O 1.0133(4) 0.1646(3) 0.8634(3)
O6 O 0.8042(3) 0.2330(3) 0.8391(2)
N1 N 0.5980(3) 0.8362(2) 0.2243(3)
N2 N 0.6725(2) 0.61657(18) 0.47493(17)
H1 H 0.7715 0.5876 0.4315
N3 N 0.7699(2) 0.42272(18) 0.62302(18)
H2 H 0.7407 0.3733 0.5846
N4 N 0.9386(3) 0.1840(2) 0.7968(2)
C1 C 0.6745(3) 0.7010(3) 0.1772(2)
C2 C 0.7546(3) 0.6719(3) 0.0450(3)
C3 C 0.8175(3) 0.5420(4) 0.0087(3)
H3 H 0.8696 0.5188 -0.0787
C4 C 0.8056(3) 0.4456(3) 0.0976(3)
H4 H 0.8465 0.3588 0.0696
C5 C 0.7336(3) 0.4770(3) 0.2273(3)
H5 H 0.7297 0.4119 0.2870
C6 C 0.6666(3) 0.6060(2) 0.2692(2)
C7 C 0.5801(2) 0.6390(2) 0.4110(2)
C8 C 0.6167(2) 0.6378(2) 0.6101(2)
C9 C 0.5163(3) 0.7549(2) 0.6702(2)
H6 H 0.4851 0.8202 0.6218
C10 C 0.4632(3) 0.7735(3) 0.8016(3)
H7 H 0.3964 0.8516 0.8415
C11 C 0.5085(3) 0.6772(3) 0.8745(2)
H8 H 0.4709 0.6898 0.9632
C12 C 0.6099(3) 0.5621(3) 0.8151(2)
H9 H 0.6412 0.4976 0.8641
C13 C 0.6653(2) 0.5422(2) 0.6832(2)
C14 C 0.9122(2) 0.3849(2) 0.6244(2)
C15 C 1.0013(2) 0.2490(2) 0.5739(2)
C16 C 1.0226(3) 0.1517(2) 0.6577(2)
C17 C 1.1165(3) 0.0283(2) 0.6159(2)
C18 C 1.1930(3) 0.0054(2) 0.4835(3)
H10 H 1.2582 -0.0756 0.4514
C19 C 1.1748(3) 0.0994(2) 0.3983(3)
H11 H 1.2276 0.0810 0.3100
C20 C 1.0787(3) 0.2210(2) 0.4428(2)
H12 H 1.0662 0.2836 0.3846
C21 C 0.7804(5) 0.7769(5) -0.0545(3)
H13 H 0.8387 0.7371 -0.1393
H14 H 0.8381 0.8327 -0.0392
H15 H 0.6808 0.8275 -0.0479
C22 C 1.1334(4) -0.0781(3) 0.7071(3)
H16 H 1.0734 -0.0454 0.7944
H17 H 1.2419 -0.1064 0.6918
H18 H 1.0957 -0.1501 0.6930
loop_
_geom_bond_atom_site_label_1
_geom_bond_atom_site_label_2
_geom_bond_site_symmetry_1
_geom_bond_site_symmetry_2
O1 N1 1_555 1_555
O2 N1 1_555 1_555
O3 C7 1_555 1_555
O4 C14 1_555 1_555
O5 N4 1_555 1_555
O6 N4 1_555 1_555
N1 C1 1_555 1_555
N2 H1 1_555 1_555
N3 H2 1_555 1_555
N4 C16 1_555 1_555
C1 C2 1_555 1_555
C2 C3 1_555 1_555
C3 H3 1_555 1_555
C4 C3 1_555 1_555
H4 C4 1_555 1_555
C5 C4 1_555 1_555
H5 C5 1_555 1_555
C6 C1 1_555 1_555
C7 N2 1_555 1_555
C8 N2 1_555 1_555
C9 C8 1_555 1_555
H6 C9 1_555 1_555
C10 C9 1_555 1_555
H7 C10 1_555 1_555
C11 C10 1_555 1_555
H8 C11 1_555 1_555
C12 C11 1_555 1_555
H9 C12 1_555 1_555
C13 N3 1_555 1_555
C14 N3 1_555 1_555
C15 C14 1_555 1_555
C16 C15 1_555 1_555
C17 C16 1_555 1_555
C18 C17 1_555 1_555
H10 C18 1_555 1_555
C19 C18 1_555 1_555
H11 C19 1_555 1_555
C20 C15 1_555 1_555
H12 C20 1_555 1_555
C21 C2 1_555 1_555
H13 C21 1_555 1_555
H14 C21 1_555 1_555
H15 C21 1_555 1_555
C22 C17 1_555 1_555
H16 C22 1_555 1_555
H17 C22 1_555 1_555
H18 C22 1_555 1_555
C5 C6 1_555 1_555
C6 C7 1_555 1_555
C8 C13 1_555 1_555
C12 C13 1_555 1_555
C19 C20 1_555 1_555

#END
