
#######################################################################
#
#                 Cambridge Crystallographic Data Centre
#                                CCDC 
#
#######################################################################
#
# If this CIF has been generated from an entry in the Cambridge 
# Structural Database, then it will include bibliographic, chemical, 
# crystal, experimental, refinement or atomic coordinate data resulting 
# from the CCDC's data processing and validation procedures.
#
#######################################################################

data_ADAYIO
_chemical_formula_moiety         'C8 H8 N4 O3 S1,H2 O1'
_chemical_name_systematic        
'1-(4-Nitrobenzoyl)thiosemicarbazide monohydrate'
_symmetry_cell_setting           triclinic
_symmetry_space_group_name_H-M   'P -1'
_symmetry_Int_Tables_number      2
_space_group_name_Hall           '-P 1'
loop_
_symmetry_equiv_pos_site_id
_symmetry_equiv_pos_as_xyz
1 x,y,z
2 -x,-y,-z
_cell_length_a                   6.0621(2)
_cell_length_b                   7.3991(3)
_cell_length_c                   12.2661(5)
_cell_angle_alpha                75.9684(16)
_cell_angle_beta                 85.112(2)
_cell_angle_gamma                88.903(2)
_cell_volume                     531.826
_exptl_crystal_colour            'pale yellow'
_exptl_crystal_description       slab
_chemical_melting_point          '489 K'
_cell_formula_units_Z            2
_exptl_crystal_recrystallization_method acetone
loop_
_atom_site_label
_atom_site_type_symbol
_atom_site_fract_x
_atom_site_fract_y
_atom_site_fract_z
C1 C 0.4146(2) 0.75286(19) 0.39533(11)
C2 C 0.6269(2) 0.82803(19) 0.38368(11)
H1 H 0.6979 0.8770 0.3106
C3 C 0.7348(2) 0.83152(19) 0.47840(12)
H2 H 0.8784 0.8843 0.4714
C4 C 0.6275(2) 0.75598(19) 0.58338(11)
C5 C 0.4188(2) 0.67728(19) 0.59826(12)
H3 H 0.3507 0.6251 0.6716
C6 C 0.3118(2) 0.67690(19) 0.50267(12)
H4 H 0.1677 0.6247 0.5103
N1 N 0.74170(19) 0.75903(17) 0.68434(10)
O1 O 0.90680(19) 0.85720(17) 0.67255(9)
O2 O 0.66489(18) 0.66376(17) 0.77561(9)
C7 C 0.2872(2) 0.74619(19) 0.29655(11)
O3 O 0.11625(16) 0.65565(15) 0.30868(9)
N2 N 0.3713(2) 0.84764(17) 0.19467(10)
H5 H 0.476(3) 0.921(3) 0.1890(15)
N3 N 0.2502(2) 0.86376(18) 0.10162(10)
H6 H 0.133(3) 0.930(3) 0.0979(15)
C8 C 0.3325(2) 0.80758(19) 0.01032(11)
N4 N 0.5224(2) 0.71739(18) 0.01309(11)
H7 H 0.574(3) 0.684(3) -0.0449(17)
H8 H 0.598(3) 0.689(3) 0.0745(17)
S1 S 0.18825(6) 0.85785(5) -0.10755(3)
O4 O 0.83048(19) 0.56199(16) 0.16378(10)
H9 H 0.932(3) 0.595(3) 0.1938(17)
H10 H 0.867(3) 0.468(3) 0.1476(17)
loop_
_geom_bond_atom_site_label_1
_geom_bond_atom_site_label_2
_geom_bond_site_symmetry_1
_geom_bond_site_symmetry_2
C1 C2 1_555 1_555
C2 H1 1_555 1_555
C3 C2 1_555 1_555
H2 C3 1_555 1_555
C4 C3 1_555 1_555
C5 C4 1_555 1_555
H3 C5 1_555 1_555
C6 C1 1_555 1_555
H4 C6 1_555 1_555
N1 C4 1_555 1_555
O1 N1 1_555 1_555
O2 N1 1_555 1_555
C7 C1 1_555 1_555
O3 C7 1_555 1_555
N2 C7 1_555 1_555
H5 N2 1_555 1_555
N3 N2 1_555 1_555
H6 N3 1_555 1_555
C8 N3 1_555 1_555
N4 C8 1_555 1_555
H7 N4 1_555 1_555
H8 N4 1_555 1_555
S1 C8 1_555 1_555
O4 H9 1_555 1_555
H10 O4 1_555 1_555
C5 C6 1_555 1_555

#END
