
#######################################################################
#
#                 Cambridge Crystallographic Data Centre
#                                CCDC 
#
#######################################################################
#
# If this CIF has been generated from an entry in the Cambridge 
# Structural Database, then it will include bibliographic, chemical, 
# crystal, experimental, refinement or atomic coordinate data resulting 
# from the CCDC's data processing and validation procedures.
#
#######################################################################

data_ADAZOV
_chemical_formula_moiety         'C9 H12 N2 O1 S2'
_chemical_name_systematic        (+)-6-Amino-2-(2-thienyl)-1,4-thiazepan-5-one
_symmetry_cell_setting           orthorhombic
_symmetry_space_group_name_H-M   'P 21 21 21'
_symmetry_Int_Tables_number      19
_space_group_name_Hall           'P 2ac 2ab'
loop_
_symmetry_equiv_pos_site_id
_symmetry_equiv_pos_as_xyz
1 x,y,z
2 1/2+x,1/2-y,-z
3 -x,1/2+y,1/2-z
4 1/2-x,-y,1/2+z
_cell_length_a                   6.314(3)
_cell_length_b                   9.785(3)
_cell_length_c                   17.289(6)
_cell_angle_alpha                90
_cell_angle_beta                 90
_cell_angle_gamma                90
_cell_volume                     1068.16
_exptl_crystal_colour            colorless
_exptl_crystal_description       chunk
_cell_formula_units_Z            4
_exptl_crystal_recrystallization_method 'ethanol/ethyl acetate'
loop_
_atom_site_label
_atom_site_type_symbol
_atom_site_fract_x
_atom_site_fract_y
_atom_site_fract_z
S1 S 0.04353(6) 0.60974(4) 0.20201(2)
S2 S 0.17570(6) 0.89377(5) 0.09627(3)
O1 O -0.0031(2) 0.22126(11) 0.04547(6)
N1 N 0.1586(2) 0.42420(12) 0.03804(8)
N2 N -0.3508(2) 0.32026(17) 0.12712(10)
C1 C 0.2521(2) 0.61538(16) 0.12898(9)
C2 C 0.1774(3) 0.57177(16) 0.04817(9)
C3 C 0.0011(2) 0.34424(14) 0.06290(9)
C4 C -0.1661(2) 0.40696(16) 0.11468(9)
C5 C -0.0670(3) 0.44160(17) 0.19316(9)
C6 C 0.3292(2) 0.76025(14) 0.13013(9)
C7 C 0.5146(3) 0.80840(19) 0.15989(11)
C8 C 0.5304(3) 0.9526(2) 0.15511(12)
C9 C 0.3609(3) 1.01199(18) 0.12234(11)
H1 H 0.3679 0.5552 0.1452
H2 H -0.2141 0.4923 0.0908
H3 H 0.6192 0.7528 0.1810
H4 H 0.6469 1.0014 0.1729
H5 H 0.3464 1.1056 0.1148
H6 H 0.0397 0.6125 0.0388
H7 H 0.2781 0.6060 0.0105
H8 H -0.1761 0.4319 0.2323
H9 H 0.0452 0.3762 0.2029
H10 H 0.2597 0.3844 0.0134
H11 H -0.3976 0.2934 0.0829
H12 H -0.2858 0.2474 0.1438
loop_
_geom_bond_atom_site_label_1
_geom_bond_atom_site_label_2
_geom_bond_site_symmetry_1
_geom_bond_site_symmetry_2
S1 C1 1_555 1_555
S2 C6 1_555 1_555
O1 C3 1_555 1_555
N1 C2 1_555 1_555
N2 C4 1_555 1_555
C1 C2 1_555 1_555
C2 H6 1_555 1_555
C3 N1 1_555 1_555
C4 C3 1_555 1_555
C5 S1 1_555 1_555
C6 C1 1_555 1_555
C7 C6 1_555 1_555
C8 C7 1_555 1_555
C9 S2 1_555 1_555
H1 C1 1_555 1_555
H2 C4 1_555 1_555
H3 C7 1_555 1_555
H4 C8 1_555 1_555
H5 C9 1_555 1_555
H7 C2 1_555 1_555
H8 C5 1_555 1_555
H9 C5 1_555 1_555
H10 N1 1_555 1_555
H11 N2 1_555 1_555
H12 N2 1_555 1_555
C4 C5 1_555 1_555
C8 C9 1_555 1_555

#END
