
#######################################################################
#
#                 Cambridge Crystallographic Data Centre
#                                CCDC 
#
#######################################################################
#
# If this CIF has been generated from an entry in the Cambridge 
# Structural Database, then it will include bibliographic, chemical, 
# crystal, experimental, refinement or atomic coordinate data resulting 
# from the CCDC's data processing and validation procedures.
#
#######################################################################

data_ADEDAP
_chemical_formula_moiety         'C11 H9 Cl1 O2'
_chemical_name_systematic        3-(4-Chlorobenzylidene)tetrahydrofuran-2-one
_symmetry_cell_setting           monoclinic
_symmetry_space_group_name_H-M   'P 21/c'
_symmetry_Int_Tables_number      14
_space_group_name_Hall           '-P 2ybc'
loop_
_symmetry_equiv_pos_site_id
_symmetry_equiv_pos_as_xyz
1 x,y,z
2 -x,1/2+y,1/2-z
3 -x,-y,-z
4 x,1/2-y,1/2+z
_cell_length_a                   15.998(4)
_cell_length_b                   5.2993(14)
_cell_length_c                   12.336(3)
_cell_angle_alpha                90
_cell_angle_beta                 111.215(4)
_cell_angle_gamma                90
_cell_volume                     974.947
_exptl_crystal_colour            colorless
_exptl_crystal_description       block
_chemical_melting_point          '415 K'
_cell_formula_units_Z            4
_exptl_crystal_recrystallization_method 'ethyl acetate/petroleum ether'
loop_
_atom_site_label
_atom_site_type_symbol
_atom_site_fract_x
_atom_site_fract_y
_atom_site_fract_z
Cl1 Cl 0.05523(5) 1.49304(13) -0.15980(6)
O1 O 0.44627(11) 0.2076(3) 0.20020(13)
O2 O 0.36922(13) 0.2906(4) 0.31415(15)
C1 C 0.24359(16) 0.9711(4) -0.0265(2)
H1 H 0.2912 0.9050 -0.0438
C2 C 0.19131(17) 1.1567(5) -0.0966(2)
H2 H 0.2033 1.2143 -0.1606
C3 C 0.12096(17) 1.2569(4) -0.0712(2)
C4 C 0.10320(18) 1.1741(5) 0.0235(2)
H3 H 0.0560 1.2432 0.0407
C5 C 0.15578(17) 0.9878(5) 0.0930(2)
H4 H 0.1435 0.9324 0.1572
C6 C 0.22721(16) 0.8797(4) 0.06944(19)
C7 C 0.27884(16) 0.6817(5) 0.14657(19)
H5 H 0.2621 0.6482 0.2099
C8 C 0.34635(15) 0.5402(4) 0.14129(18)
C9 C 0.39502(17) 0.5345(4) 0.0578(2)
H6 H 0.4275 0.6905 0.0611
H7 H 0.3536 0.5082 -0.0212
C10 C 0.45929(17) 0.3123(4) 0.09916(19)
H8 H 0.4466 0.1861 0.0383
H9 H 0.5208 0.3686 0.1192
C11 C 0.38542(17) 0.3419(5) 0.2286(2)
loop_
_geom_bond_atom_site_label_1
_geom_bond_atom_site_label_2
_geom_bond_site_symmetry_1
_geom_bond_site_symmetry_2
Cl1 C3 1_555 1_555
O1 C10 1_555 1_555
O2 C11 1_555 1_555
C1 H1 1_555 1_555
C2 C1 1_555 1_555
H2 C2 1_555 1_555
C3 C2 1_555 1_555
C4 C3 1_555 1_555
H3 C4 1_555 1_555
C5 C4 1_555 1_555
H4 C5 1_555 1_555
C6 C1 1_555 1_555
C7 C6 1_555 1_555
H5 C7 1_555 1_555
C8 C7 1_555 1_555
C9 C8 1_555 1_555
H6 C9 1_555 1_555
H7 C9 1_555 1_555
C10 C9 1_555 1_555
H8 C10 1_555 1_555
H9 C10 1_555 1_555
C11 O1 1_555 1_555
C5 C6 1_555 1_555
C8 C11 1_555 1_555

#END
