
#######################################################################
#
#                 Cambridge Crystallographic Data Centre
#                                CCDC 
#
#######################################################################
#
# If this CIF has been generated from an entry in the Cambridge 
# Structural Database, then it will include bibliographic, chemical, 
# crystal, experimental, refinement or atomic coordinate data resulting 
# from the CCDC's data processing and validation procedures.
#
#######################################################################

data_ADEFAR
_chemical_formula_moiety         'C18 H15 F1 N2 O4'
_chemical_name_systematic        
'Methyl 2-(3-(4-fluorophenyl)-1,2,4-oxadiazol-5-ylmethoxy)phenylacetate'
_symmetry_cell_setting           monoclinic
_symmetry_space_group_name_H-M   'P 21/c'
_symmetry_Int_Tables_number      14
_space_group_name_Hall           '-P 2ybc'
loop_
_symmetry_equiv_pos_site_id
_symmetry_equiv_pos_as_xyz
1 x,y,z
2 -x,1/2+y,1/2-z
3 -x,-y,-z
4 x,1/2-y,1/2+z
_cell_length_a                   11.603(2)
_cell_length_b                   9.0170(18)
_cell_length_c                   15.692(3)
_cell_angle_alpha                90
_cell_angle_beta                 96.90(3)
_cell_angle_gamma                90
_cell_volume                     1629.87
_exptl_crystal_colour            colorless
_exptl_crystal_description       block
_cell_formula_units_Z            4
_exptl_crystal_recrystallization_method ethanol
loop_
_atom_site_label
_atom_site_type_symbol
_atom_site_fract_x
_atom_site_fract_y
_atom_site_fract_z
F1 F 0.4898(3) 0.2473(6) 0.4994(3)
O1 O 0.7321(3) 0.7721(6) -0.1643(2)
O2 O 0.9232(3) 0.7700(6) -0.1265(2)
O3 O 0.8133(3) 0.5368(6) 0.0158(3)
O4 O 0.7548(4) 0.1632(5) 0.0800(3)
N1 N 0.7001(5) 0.1150(7) 0.1501(3)
N2 N 0.7229(4) 0.3618(6) 0.1527(3)
C1 C 0.7515(5) 0.7550(9) -0.2521(3)
H1 H 0.6782 0.7481 -0.2875
H2 H 0.7955 0.6664 -0.2582
H3 H 0.7937 0.8391 -0.2694
C2 C 0.8269(5) 0.7841(8) -0.1071(4)
C3 C 0.7983(5) 0.8292(10) -0.0167(4)
H4 H 0.7959 0.9365 -0.0127
H5 H 0.7222 0.7914 -0.0083
C4 C 0.8853(4) 0.7707(9) 0.0514(3)
C5 C 0.9619(6) 0.8680(9) 0.1000(5)
H6 H 0.9575 0.9693 0.0888
C6 C 1.0449(6) 0.8144(9) 0.1655(4)
H7 H 1.0954 0.8771 0.1990
C7 C 1.0465(5) 0.6635(10) 0.1765(4)
H8 H 1.1022 0.6246 0.2181
C8 C 0.9725(5) 0.5656(9) 0.1311(4)
H9 H 0.9767 0.4645 0.1428
C9 C 0.8949(5) 0.6193(9) 0.0700(4)
C10 C 0.8265(6) 0.3775(9) 0.0198(4)
H10 H 0.9083 0.3533 0.0312
H11 H 0.7972 0.3352 -0.0354
C11 C 0.7654(5) 0.3116(7) 0.0857(3)
C12 C 0.6825(4) 0.2398(8) 0.1900(4)
C13 C 0.6287(4) 0.2430(8) 0.2702(4)
C14 C 0.5978(5) 0.1119(9) 0.3094(4)
H12 H 0.6111 0.0221 0.2831
C15 C 0.5491(6) 0.1092(10) 0.3841(5)
H13 H 0.5273 0.0209 0.4084
C16 C 0.5340(5) 0.2449(13) 0.4217(4)
C17 C 0.5638(6) 0.3778(10) 0.3880(4)
H14 H 0.5533 0.4673 0.4155
C18 C 0.6105(5) 0.3717(8) 0.3107(4)
H15 H 0.6302 0.4602 0.2856
loop_
_geom_bond_atom_site_label_1
_geom_bond_atom_site_label_2
_geom_bond_site_symmetry_1
_geom_bond_site_symmetry_2
F1 C16 1_555 1_555
O1 C1 1_555 1_555
O2 C2 1_555 1_555
O3 C9 1_555 1_555
O4 N1 1_555 1_555
N1 C12 1_555 1_555
N2 C11 1_555 1_555
C1 H1 1_555 1_555
H2 C1 1_555 1_555
H3 C1 1_555 1_555
C2 O1 1_555 1_555
C3 C2 1_555 1_555
H4 C3 1_555 1_555
H5 C3 1_555 1_555
C4 C3 1_555 1_555
C5 C4 1_555 1_555
H6 C5 1_555 1_555
C6 C5 1_555 1_555
H7 C6 1_555 1_555
C7 C6 1_555 1_555
H8 C7 1_555 1_555
C8 C7 1_555 1_555
H9 C8 1_555 1_555
C9 C4 1_555 1_555
C10 O3 1_555 1_555
H10 C10 1_555 1_555
H11 C10 1_555 1_555
C11 O4 1_555 1_555
C12 N2 1_555 1_555
C13 C12 1_555 1_555
C14 C13 1_555 1_555
H12 C14 1_555 1_555
C15 C14 1_555 1_555
H13 C15 1_555 1_555
C16 C15 1_555 1_555
C17 C16 1_555 1_555
H14 C17 1_555 1_555
C18 C13 1_555 1_555
H15 C18 1_555 1_555
C8 C9 1_555 1_555
C10 C11 1_555 1_555
C17 C18 1_555 1_555

#END
