
#######################################################################
#
#                 Cambridge Crystallographic Data Centre
#                                CCDC 
#
#######################################################################
#
# If this CIF has been generated from an entry in the Cambridge 
# Structural Database, then it will include bibliographic, chemical, 
# crystal, experimental, refinement or atomic coordinate data resulting 
# from the CCDC's data processing and validation procedures.
#
#######################################################################

data_ADEJUP
_chemical_formula_moiety         'C8 H6 F3 N1 O1'
_chemical_name_systematic        '(E)-4-(Trifluoromethyl)benzaldehyde oxime'
_symmetry_cell_setting           monoclinic
_symmetry_space_group_name_H-M   'P 21/c'
_symmetry_Int_Tables_number      14
_space_group_name_Hall           '-P 2ybc'
loop_
_symmetry_equiv_pos_site_id
_symmetry_equiv_pos_as_xyz
1 x,y,z
2 -x,1/2+y,1/2-z
3 -x,-y,-z
4 x,1/2-y,1/2+z
_cell_length_a                   7.543(4)
_cell_length_b                   7.395(4)
_cell_length_c                   15.058(8)
_cell_angle_alpha                90
_cell_angle_beta                 99.278(7)
_cell_angle_gamma                90
_cell_volume                     828.954
_exptl_crystal_colour            colorless
_exptl_crystal_description       block
_cell_formula_units_Z            4
_exptl_crystal_recrystallization_method hexane/dichloromethane
loop_
_atom_site_label
_atom_site_type_symbol
_atom_site_fract_x
_atom_site_fract_y
_atom_site_fract_z
C1 C 0.1656(4) 0.8633(4) 0.18589(17)
F1 F 0.1065(6) 1.0158(3) 0.14561(16)
F2 F 0.0415(3) 0.8159(3) 0.23459(16)
F3 F 0.3059(3) 0.9045(4) 0.24675(18)
O1 O 0.4009(3) 0.0463(3) -0.10238(12)
H1 H 0.4545 -0.0454 -0.0827
N1 N 0.3832(3) 0.1623(3) -0.03111(13)
C2 C 0.2035(3) 0.7199(3) 0.12289(14)
C3 C 0.1652(3) 0.7468(3) 0.03142(15)
H2 H 0.1166 0.8560 0.0085
C4 C 0.1995(3) 0.6111(3) -0.02596(14)
H3 H 0.1735 0.6297 -0.0878
C5 C 0.2713(3) 0.4483(3) 0.00622(14)
C6 C 0.3096(3) 0.4229(3) 0.09923(15)
H4 H 0.3590 0.3142 0.1224
C7 C 0.2748(3) 0.5570(4) 0.15643(15)
H5 H 0.2994 0.5385 0.2183
C8 C 0.3051(3) 0.3080(3) -0.05731(15)
H6 H 0.2681 0.3267 -0.1186
C9? C 0.1656(4) 0.8633(4) 0.18589(17)
F4? F 0.258(6) 1.000(4) 0.182(2)
F5? F 0.008(3) 0.906(4) 0.1766(18)
F6? F 0.199(4) 0.816(4) 0.2665(17)
loop_
_geom_bond_atom_site_label_1
_geom_bond_atom_site_label_2
_geom_bond_site_symmetry_1
_geom_bond_site_symmetry_2
C1 F1 1_555 1_555
F2 C1 1_555 1_555
F3 C1 1_555 1_555
O1 H1 1_555 1_555
N1 O1 1_555 1_555
C2 C1 1_555 1_555
C3 C2 1_555 1_555
H2 C3 1_555 1_555
C4 C3 1_555 1_555
H3 C4 1_555 1_555
C5 C4 1_555 1_555
C6 C5 1_555 1_555
H4 C6 1_555 1_555
C7 C2 1_555 1_555
H5 C7 1_555 1_555
C8 N1 1_555 1_555
H6 C8 1_555 1_555
C5 C8 1_555 1_555
C6 C7 1_555 1_555

#END
