
#######################################################################
#
#                 Cambridge Crystallographic Data Centre
#                                CCDC 
#
#######################################################################
#
# If this CIF has been generated from an entry in the Cambridge 
# Structural Database, then it will include bibliographic, chemical, 
# crystal, experimental, refinement or atomic coordinate data resulting 
# from the CCDC's data processing and validation procedures.
#
#######################################################################

data_ADEJID
_chemical_formula_moiety         'C24 H18 N10 S2'
_chemical_name_systematic        
2,3-bis((1-Phenyl-1H-tetrazol-5-ylsulfanyl)methyl)quinoxaline
_chemical_properties_biological  'potential pharmacological properties'
_symmetry_cell_setting           triclinic
_symmetry_space_group_name_H-M   'P -1'
_symmetry_Int_Tables_number      2
_space_group_name_Hall           '-P 1'
loop_
_symmetry_equiv_pos_site_id
_symmetry_equiv_pos_as_xyz
1 x,y,z
2 -x,-y,-z
_cell_length_a                   6.3813(18)
_cell_length_b                   16.758(5)
_cell_length_c                   22.214(6)
_cell_angle_alpha                96.538(5)
_cell_angle_beta                 92.822(4)
_cell_angle_gamma                95.274(5)
_cell_volume                     2345.79
_exptl_crystal_colour            colorless
_exptl_crystal_description       block
_chemical_melting_point          '446 K'
_cell_formula_units_Z            4
_exptl_crystal_recrystallization_method chloroform
loop_
_atom_site_label
_atom_site_type_symbol
_atom_site_fract_x
_atom_site_fract_y
_atom_site_fract_z
S1 S 0.61732(11) 0.88247(5) 0.36121(3)
S2 S 1.15072(12) 1.01607(5) 0.14702(4)
N1 N 0.2802(3) 0.93842(14) 0.41806(10)
N2 N 0.1340(4) 0.99143(15) 0.41120(11)
N3 N 0.1788(4) 1.02439(15) 0.36338(11)
N4 N 0.3511(4) 0.99561(14) 0.33787(10)
N5 N 0.9521(3) 0.82316(14) 0.30029(9)
N6 N 1.1809(3) 0.88090(14) 0.20645(9)
N7 N 1.1332(3) 1.15425(14) 0.09308(10)
N8 N 1.0308(4) 1.22184(15) 0.09771(11)
N9 N 0.9041(4) 1.21552(15) 0.14062(11)
N10 N 0.9196(4) 1.14559(15) 0.16548(10)
C1 C 0.4117(4) 0.94199(17) 0.37260(12)
C2 C 0.2744(4) 0.89311(18) 0.46894(12)
C3 C 0.4542(5) 0.88923(19) 0.50398(13)
H1 H 0.5826 0.9138 0.4941
C4 C 0.4419(6) 0.8482(2) 0.55435(15)
H2 H 0.5635 0.8442 0.5782
C5 C 0.2519(6) 0.8131(2) 0.56948(15)
H3 H 0.2438 0.7871 0.6042
C6 C 0.0752(6) 0.8166(3) 0.53335(17)
H4 H -0.0530 0.7918 0.5432
C7 C 0.0838(5) 0.8565(2) 0.48223(15)
H5 H -0.0368 0.8584 0.4574
C8 C 0.7250(4) 0.93029(17) 0.29887(12)
H6 H 0.6166 0.9289 0.2665
H7 H 0.7734 0.9863 0.3125
C9 C 0.9045(4) 0.88709(17) 0.27590(12)
C10 C 1.1174(4) 0.78469(16) 0.27829(12)
C11 C 1.1755(4) 0.71541(17) 0.30293(12)
H8 H 1.1010 0.6956 0.3339
C12 C 1.3409(5) 0.67756(18) 0.28121(13)
H9 H 1.3787 0.6319 0.2976
C13 C 1.4545(5) 0.70635(18) 0.23464(13)
H10 H 1.5677 0.6800 0.2205
C14 C 1.4009(4) 0.77258(18) 0.20985(12)
H11 H 1.4763 0.7909 0.1785
C15 C 1.2322(4) 0.81350(17) 0.23130(11)
C16 C 1.0234(4) 0.91711(17) 0.22831(12)
C17 C 0.9709(4) 0.99308(18) 0.20440(13)
H12 H 0.9831 1.0371 0.2372
H13 H 0.8270 0.9864 0.1870
C18 C 1.0629(4) 1.10848(17) 0.13545(12)
C19 C 1.2790(4) 1.14094(16) 0.04669(13)
C20 C 1.4682(5) 1.11204(19) 0.05976(14)
H14 H 1.5038 1.0997 0.0985
C21 C 1.6046(5) 1.1017(2) 0.01356(17)
H15 H 1.7322 1.0808 0.0210
C22 C 1.5534(6) 1.1221(2) -0.04316(17)
H16 H 1.6479 1.1164 -0.0736
C23 C 1.3637(6) 1.1507(2) -0.05486(16)
H17 H 1.3292 1.1639 -0.0934
C24 C 1.2229(5) 1.1601(2) -0.01000(14)
H18 H 1.0931 1.1791 -0.0180
S3 S 0.66254(11) 0.38418(5) 0.36613(3)
S4 S 1.15563(12) 0.51567(5) 0.14559(4)
N11 N 0.3280(3) 0.44061(14) 0.42512(10)
N12 N 0.1801(4) 0.49233(15) 0.41669(11)
N13 N 0.2198(4) 0.52293(16) 0.36781(11)
N14 N 0.3902(4) 0.49335(14) 0.34223(10)
N15 N 0.9873(3) 0.32428(14) 0.30297(10)
N16 N 1.2084(3) 0.38194(14) 0.20779(10)
N17 N 1.1182(3) 0.65196(14) 0.09111(10)
N18 N 1.0073(4) 0.71769(15) 0.09544(11)
N19 N 0.8845(4) 0.70952(15) 0.13878(11)
N20 N 0.9081(4) 0.64016(15) 0.16406(10)
C25 C 0.4555(4) 0.44236(17) 0.37819(12)
C26 C 0.3242(4) 0.39805(17) 0.47765(12)
C27 C 0.4903(5) 0.3609(2) 0.49714(14)
H19 H 0.6126 0.3617 0.4760
C28 C 0.4777(5) 0.3217(2) 0.54838(15)
H20 H 0.5908 0.2950 0.5609
C29 C 0.3054(5) 0.3214(2) 0.58050(15)
H21 H 0.2985 0.2951 0.6152
C30 C 0.1424(6) 0.3598(3) 0.56166(19)
H22 H 0.0222 0.3600 0.5837
C31 C 0.1503(5) 0.3989(2) 0.51025(18)
H23 H 0.0370 0.4257 0.4981
C32 C 0.7588(4) 0.43108(18) 0.30198(12)
H24 H 0.6467 0.4283 0.2705
H25 H 0.8066 0.4874 0.3145
C33 C 0.9364(4) 0.38763(17) 0.27842(12)
C34 C 1.1515(4) 0.28641(17) 0.28037(12)
C35 C 1.2091(4) 0.21677(17) 0.30400(12)
H26 H 1.1347 0.1966 0.3349
C36 C 1.3731(5) 0.17879(19) 0.28195(13)
H27 H 1.4106 0.1327 0.2978
C37 C 1.4859(5) 0.20849(19) 0.23552(13)
H28 H 1.5993 0.1824 0.2212
C38 C 1.4320(4) 0.27489(18) 0.21109(13)
H29 H 1.5077 0.2938 0.1800
C39 C 1.2627(4) 0.31491(17) 0.23265(12)
C40 C 1.0506(4) 0.41695(17) 0.22992(12)
C41 C 0.9881(4) 0.49141(18) 0.20521(13)
H30 H 1.0005 0.5361 0.2374
H31 H 0.8424 0.4826 0.1894
C42 C 1.0547(4) 0.60566(17) 0.13367(12)
C43 C 1.2616(4) 0.64017(17) 0.04394(13)
C44 C 1.4535(4) 0.61299(19) 0.05610(14)
H32 H 1.4924 0.6018 0.0949
C45 C 1.5877(5) 0.6025(2) 0.00974(16)
H33 H 1.7166 0.5825 0.0169
C46 C 1.5316(6) 0.6215(2) -0.04694(16)
H34 H 1.6242 0.6157 -0.0778
C47 C 1.3404(6) 0.6488(2) -0.05798(15)
H35 H 1.3034 0.6616 -0.0965
C48 C 1.2013(5) 0.6577(2) -0.01278(14)
H36 H 1.0696 0.6752 -0.0206
loop_
_geom_bond_atom_site_label_1
_geom_bond_atom_site_label_2
_geom_bond_site_symmetry_1
_geom_bond_site_symmetry_2
S1 C1 1_555 1_555
S2 C17 1_555 1_555
N1 N2 1_555 1_555
N2 N3 1_555 1_555
N3 N4 1_555 1_555
N4 C1 1_555 1_555
N5 C9 1_555 1_555
N6 C15 1_555 1_555
N7 N8 1_555 1_555
N8 N9 1_555 1_555
N9 N10 1_555 1_555
N10 C18 1_555 1_555
C1 N1 1_555 1_555
C2 N1 1_555 1_555
C3 C2 1_555 1_555
H1 C3 1_555 1_555
C4 C3 1_555 1_555
H2 C4 1_555 1_555
C5 C4 1_555 1_555
H3 C5 1_555 1_555
C6 C5 1_555 1_555
H4 C6 1_555 1_555
C7 C2 1_555 1_555
H5 C7 1_555 1_555
C8 S1 1_555 1_555
H6 C8 1_555 1_555
H7 C8 1_555 1_555
C9 C8 1_555 1_555
C10 N5 1_555 1_555
C11 C10 1_555 1_555
H8 C11 1_555 1_555
C12 C11 1_555 1_555
H9 C12 1_555 1_555
C13 C12 1_555 1_555
H10 C13 1_555 1_555
C14 C13 1_555 1_555
H11 C14 1_555 1_555
C15 C10 1_555 1_555
C16 N6 1_555 1_555
C17 C16 1_555 1_555
H12 C17 1_555 1_555
H13 C17 1_555 1_555
C18 S2 1_555 1_555
C19 N7 1_555 1_555
C20 C19 1_555 1_555
H14 C20 1_555 1_555
C21 C20 1_555 1_555
H15 C21 1_555 1_555
C22 C21 1_555 1_555
H16 C22 1_555 1_555
C23 C22 1_555 1_555
H17 C23 1_555 1_555
C24 C19 1_555 1_555
H18 C24 1_555 1_555
S3 C25 1_555 1_555
S4 C41 1_555 1_555
N11 N12 1_555 1_555
N12 N13 1_555 1_555
N13 N14 1_555 1_555
N14 C25 1_555 1_555
N15 C33 1_555 1_555
N16 C39 1_555 1_555
N17 N18 1_555 1_555
N18 N19 1_555 1_555
N19 N20 1_555 1_555
N20 C42 1_555 1_555
C25 N11 1_555 1_555
C26 N11 1_555 1_555
C27 C26 1_555 1_555
H19 C27 1_555 1_555
C28 C27 1_555 1_555
H20 C28 1_555 1_555
C29 C28 1_555 1_555
H21 C29 1_555 1_555
C30 C29 1_555 1_555
H22 C30 1_555 1_555
C31 C26 1_555 1_555
H23 C31 1_555 1_555
C32 S3 1_555 1_555
H24 C32 1_555 1_555
H25 C32 1_555 1_555
C33 C32 1_555 1_555
C34 N15 1_555 1_555
C35 C34 1_555 1_555
H26 C35 1_555 1_555
C36 C35 1_555 1_555
H27 C36 1_555 1_555
C37 C36 1_555 1_555
H28 C37 1_555 1_555
C38 C37 1_555 1_555
H29 C38 1_555 1_555
C39 C34 1_555 1_555
C40 N16 1_555 1_555
C41 C40 1_555 1_555
H30 C41 1_555 1_555
H31 C41 1_555 1_555
C42 S4 1_555 1_555
C43 N17 1_555 1_555
C44 C43 1_555 1_555
H32 C44 1_555 1_555
C45 C44 1_555 1_555
H33 C45 1_555 1_555
C46 C45 1_555 1_555
H34 C46 1_555 1_555
C47 C46 1_555 1_555
H35 C47 1_555 1_555
C48 C43 1_555 1_555
H36 C48 1_555 1_555
N7 C18 1_555 1_555
C6 C7 1_555 1_555
C9 C16 1_555 1_555
C14 C15 1_555 1_555
C23 C24 1_555 1_555
N17 C42 1_555 1_555
C30 C31 1_555 1_555
C33 C40 1_555 1_555
C38 C39 1_555 1_555
C47 C48 1_555 1_555

#END
