
#######################################################################
#
#                 Cambridge Crystallographic Data Centre
#                                CCDC 
#
#######################################################################
#
# If this CIF has been generated from an entry in the Cambridge 
# Structural Database, then it will include bibliographic, chemical, 
# crystal, experimental, refinement or atomic coordinate data resulting 
# from the CCDC's data processing and validation procedures.
#
#######################################################################

data_ADELAX
_chemical_formula_moiety         'C13 H10 Cl1 N5 O1,0.5(C1 H2 Cl2)'
_chemical_name_systematic        
'4-Amino-6-chloro-8-p-tolylpteridin-7(8H)-one dichloromethane solvate'
_symmetry_cell_setting           monoclinic
_symmetry_space_group_name_H-M   'P 21/c'
_symmetry_Int_Tables_number      14
_space_group_name_Hall           '-P 2ybc'
loop_
_symmetry_equiv_pos_site_id
_symmetry_equiv_pos_as_xyz
1 x,y,z
2 -x,1/2+y,1/2-z
3 -x,-y,-z
4 x,1/2-y,1/2+z
_cell_length_a                   7.4644(14)
_cell_length_b                   16.138(3)
_cell_length_c                   24.402(5)
_cell_angle_alpha                90
_cell_angle_beta                 97.676(3)
_cell_angle_gamma                90
_cell_volume                     2913.14
_exptl_crystal_colour            colorless
_exptl_crystal_description       block
_chemical_melting_point          275.4-276.2deg.C(dec)
_cell_formula_units_Z            8
loop_
_atom_site_label
_atom_site_type_symbol
_atom_site_fract_x
_atom_site_fract_y
_atom_site_fract_z
Cl1 Cl 0.50437(13) 0.24914(6) 0.17574(4)
O1 O 0.6735(3) 0.26461(14) 0.29114(9)
N1 N 0.4519(3) 0.20083(15) 0.33138(9)
N2 N 0.2610(3) 0.17828(16) 0.22621(10)
N3 N -0.0385(3) 0.08222(16) 0.31353(11)
N4 N 0.2270(3) 0.13060(16) 0.37118(10)
N5 N -0.0752(4) 0.10424(18) 0.21943(11)
H1 H -0.1783 0.0797 0.2167
H2 H -0.0363 0.1234 0.1903
C1 C 0.5284(4) 0.23031(19) 0.28627(13)
C2 C 0.4147(4) 0.21365(19) 0.23294(12)
C3 C 0.1948(4) 0.15071(18) 0.27302(12)
C4 C 0.0246(4) 0.11251(19) 0.26881(13)
C5 C 0.0689(4) 0.0930(2) 0.36085(14)
H3 H 0.0259 0.0706 0.3917
C6 C 0.2876(4) 0.16013(18) 0.32552(12)
C7 C 0.5428(4) 0.2214(2) 0.38608(12)
C8 C 0.5209(4) 0.2988(2) 0.40632(13)
H4 H 0.4508 0.3376 0.3850
C9 C 0.6023(4) 0.3195(2) 0.45828(14)
H5 H 0.5878 0.3726 0.4718
C10 C 0.7061(5) 0.2620(3) 0.49105(14)
C11 C 0.7283(5) 0.1843(3) 0.46889(14)
H6 H 0.7989 0.1452 0.4898
C12 C 0.6483(4) 0.1635(2) 0.41664(13)
H7 H 0.6653 0.1112 0.4022
C13 C 0.7890(6) 0.2838(3) 0.54866(15)
H8 H 0.8858 0.2460 0.5605
H9 H 0.6988 0.2800 0.5732
H10 H 0.8353 0.3393 0.5492
Cl2 Cl 0.01401(13) 0.35300(7) 0.16980(4)
O2 O 0.1615(3) 0.34698(15) 0.28728(9)
N6 N -0.0721(3) 0.41235(15) 0.32089(10)
N7 N -0.2438(3) 0.42520(15) 0.21243(10)
N8 N -0.5708(3) 0.52221(17) 0.29016(11)
N9 N -0.3144(3) 0.47896(17) 0.35377(10)
N10 N -0.5861(4) 0.49876(18) 0.19714(10)
H11 H -0.6902 0.5225 0.1926
H12 H -0.5410 0.4797 0.1690
C14 C 0.0148(4) 0.37972(19) 0.27917(13)
C15 C -0.0904(4) 0.39132(19) 0.22330(12)
C16 C -0.3230(4) 0.45446(18) 0.25646(12)
C17 C -0.4951(4) 0.49155(19) 0.24749(12)
C18 C -0.4745(4) 0.5132(2) 0.33982(14)
H13 H -0.5283 0.5343 0.3691
C19 C -0.2401(4) 0.44936(18) 0.31064(12)
C20 C 0.0147(4) 0.4017(2) 0.37723(12)
C21 C 0.0879(5) 0.4679(2) 0.40728(14)
H14 H 0.0839 0.5205 0.3916
C22 C 0.1673(5) 0.4563(3) 0.46083(15)
H15 H 0.2151 0.5017 0.4813
C23 C 0.1778(5) 0.3788(3) 0.48496(14)
C24 C 0.1048(4) 0.3132(2) 0.45350(14)
H16 H 0.1109 0.2603 0.4688
C25 C 0.0228(4) 0.3241(2) 0.39988(12)
H17 H -0.0265 0.2790 0.3794
C26 C 0.2654(6) 0.3665(3) 0.54384(14)
H18 H 0.2587 0.3091 0.5536
H19 H 0.2034 0.3993 0.5682
H20 H 0.3897 0.3833 0.5471
Cl3 Cl 0.83601(18) 0.92666(13) 0.46429(7)
Cl4 Cl 0.45459(17) 0.92713(10) 0.42933(5)
C27 C 0.6316(6) 0.8908(3) 0.4762(2)
H21 H 0.6114 0.9070 0.5132
H22 H 0.6326 0.8308 0.4748
loop_
_geom_bond_atom_site_label_1
_geom_bond_atom_site_label_2
_geom_bond_site_symmetry_1
_geom_bond_site_symmetry_2
Cl1 C2 1_555 1_555
O1 C1 1_555 1_555
N1 C1 1_555 1_555
N2 C2 1_555 1_555
N3 C4 1_555 1_555
N4 C5 1_555 1_555
N5 H1 1_555 1_555
H2 N5 1_555 1_555
C1 C2 1_555 1_555
C3 N2 1_555 1_555
C4 N5 1_555 1_555
C5 N3 1_555 1_555
H3 C5 1_555 1_555
C6 N1 1_555 1_555
C7 N1 1_555 1_555
C8 C7 1_555 1_555
H4 C8 1_555 1_555
C9 C8 1_555 1_555
H5 C9 1_555 1_555
C10 C9 1_555 1_555
C11 C10 1_555 1_555
H6 C11 1_555 1_555
C12 C7 1_555 1_555
H7 C12 1_555 1_555
C13 C10 1_555 1_555
H8 C13 1_555 1_555
H9 C13 1_555 1_555
H10 C13 1_555 1_555
Cl2 C15 1_555 1_555
O2 C14 1_555 1_555
N6 C14 1_555 1_555
N7 C15 1_555 1_555
N8 C17 1_555 1_555
N9 C18 1_555 1_555
N10 H11 1_555 1_555
H12 N10 1_555 1_555
C14 C15 1_555 1_555
C16 N7 1_555 1_555
C17 N10 1_555 1_555
C18 N8 1_555 1_555
H13 C18 1_555 1_555
C19 N6 1_555 1_555
C20 N6 1_555 1_555
C21 C20 1_555 1_555
H14 C21 1_555 1_555
C22 C21 1_555 1_555
H15 C22 1_555 1_555
C23 C22 1_555 1_555
C24 C23 1_555 1_555
H16 C24 1_555 1_555
C25 C20 1_555 1_555
H17 C25 1_555 1_555
C26 C23 1_555 1_555
H18 C26 1_555 1_555
H19 C26 1_555 1_555
H20 C26 1_555 1_555
Cl3 C27 1_555 1_555
Cl4 C27 1_555 1_555
C27 H21 1_555 1_555
H22 C27 1_555 1_555
N4 C6 1_555 1_555
C3 C4 1_555 1_555
C3 C6 1_555 1_555
C11 C12 1_555 1_555
N9 C19 1_555 1_555
C16 C17 1_555 1_555
C16 C19 1_555 1_555
C24 C25 1_555 1_555

#END
