
#######################################################################
#
#                 Cambridge Crystallographic Data Centre
#                                CCDC 
#
#######################################################################
#
# If this CIF has been generated from an entry in the Cambridge 
# Structural Database, then it will include bibliographic, chemical, 
# crystal, experimental, refinement or atomic coordinate data resulting 
# from the CCDC's data processing and validation procedures.
#
#######################################################################

data_ADELIH
_chemical_formula_moiety         'C18 H13 F5 N2 O1'
_chemical_name_systematic        
(pentafluorophenyl){5-[2-(1H-pyrrol-3-yl)propan-2-yl]-1H-pyrrol-2-yl}methanone
_symmetry_cell_setting           monoclinic
_symmetry_space_group_name_H-M   'P 21/c'
_symmetry_Int_Tables_number      14
_space_group_name_Hall           '-P 2ybc'
loop_
_symmetry_equiv_pos_site_id
_symmetry_equiv_pos_as_xyz
1 x,y,z
2 -x,1/2+y,1/2-z
3 -x,-y,-z
4 x,1/2-y,1/2+z
_cell_length_a                   6.00333(17)
_cell_length_b                   11.4287(3)
_cell_length_c                   22.8144(7)
_cell_angle_alpha                90
_cell_angle_beta                 93.836(3)
_cell_angle_gamma                90
_cell_volume                     1561.8
_exptl_crystal_colour            colorless
_exptl_crystal_description       block
_cell_formula_units_Z            4
loop_
_atom_site_label
_atom_site_type_symbol
_atom_site_fract_x
_atom_site_fract_y
_atom_site_fract_z
F1 F 0.55132(13) 0.20492(7) 0.62739(4)
F2 F 0.33260(15) 0.05877(7) 0.69529(4)
F3 F -0.05281(16) 0.12802(8) 0.74087(4)
F4 F -0.21872(14) 0.34512(8) 0.71726(4)
F5 F -0.00959(14) 0.49010(8) 0.64666(4)
O1 O 0.45223(17) 0.39599(9) 0.54695(4)
N1 N 0.58101(19) 0.62487(10) 0.58515(5)
H1 H 0.6156 0.6138 0.5487
N2 N 1.1395(2) 0.71613(11) 0.49148(6)
H2 H 1.2449 0.6683 0.4812
C1 C 0.4709(2) 0.54482(12) 0.61826(6)
C2 C 0.4497(2) 0.59531(13) 0.67323(6)
H3 H 0.3824 0.5603 0.7054
C3 C 0.5448(2) 0.70609(13) 0.67232(6)
H4 H 0.5523 0.7609 0.7037
C4 C 0.6278(2) 0.72271(12) 0.61705(6)
C5 C 0.7346(2) 0.82990(12) 0.59227(6)
C6 C 0.8790(2) 0.79886(12) 0.54259(6)
C7 C 1.0352(2) 0.71068(13) 0.54283(7)
H5 H 1.0653 0.6555 0.5735
C8 C 0.8924(2) 0.85942(13) 0.48853(6)
H6 H 0.8041 0.9246 0.4756
C9 C 1.0544(2) 0.80738(13) 0.45867(6)
H7 H 1.1003 0.8307 0.4214
C10 C 0.4074(2) 0.43282(12) 0.59580(6)
C11 C 0.2822(2) 0.35394(12) 0.63569(6)
C12 C 0.3605(2) 0.24196(12) 0.64844(6)
C13 C 0.2505(2) 0.16553(12) 0.68346(6)
C14 C 0.0558(2) 0.20074(13) 0.70687(6)
C15 C -0.0288(2) 0.31127(14) 0.69496(6)
C16 C 0.0840(2) 0.38567(12) 0.65930(6)
C17 C 0.8804(3) 0.89055(14) 0.64164(7)
H8 H 0.9547 0.9586 0.6256
H9 H 0.9931 0.8354 0.6580
H10 H 0.7860 0.9161 0.6727
C18 C 0.5450(3) 0.91385(13) 0.57096(7)
H11 H 0.4542 0.8773 0.5387
H12 H 0.6092 0.9869 0.5572
H13 H 0.4511 0.9307 0.6035
loop_
_geom_bond_atom_site_label_1
_geom_bond_atom_site_label_2
_geom_bond_site_symmetry_1
_geom_bond_site_symmetry_2
F1 C12 1_555 1_555
F2 C13 1_555 1_555
F3 C14 1_555 1_555
F4 C15 1_555 1_555
F5 C16 1_555 1_555
O1 C10 1_555 1_555
N1 H1 1_555 1_555
N2 H2 1_555 1_555
C1 N1 1_555 1_555
C2 C1 1_555 1_555
H3 C2 1_555 1_555
C3 C2 1_555 1_555
H4 C3 1_555 1_555
C4 N1 1_555 1_555
C5 C4 1_555 1_555
C6 C5 1_555 1_555
C7 N2 1_555 1_555
H5 C7 1_555 1_555
C8 C6 1_555 1_555
H6 C8 1_555 1_555
C9 N2 1_555 1_555
H7 C9 1_555 1_555
C10 C1 1_555 1_555
C11 C10 1_555 1_555
C12 C11 1_555 1_555
C13 C12 1_555 1_555
C14 C13 1_555 1_555
C15 C14 1_555 1_555
C16 C11 1_555 1_555
C17 C5 1_555 1_555
H8 C17 1_555 1_555
H9 C17 1_555 1_555
H10 C17 1_555 1_555
C18 C5 1_555 1_555
H11 C18 1_555 1_555
H12 C18 1_555 1_555
H13 C18 1_555 1_555
C3 C4 1_555 1_555
C6 C7 1_555 1_555
C8 C9 1_555 1_555
C15 C16 1_555 1_555

#END
