
#######################################################################
#
#                 Cambridge Crystallographic Data Centre
#                                CCDC 
#
#######################################################################
#
# If this CIF has been generated from an entry in the Cambridge 
# Structural Database, then it will include bibliographic, chemical, 
# crystal, experimental, refinement or atomic coordinate data resulting 
# from the CCDC's data processing and validation procedures.
#
#######################################################################

data_ADELOL
_chemical_formula_moiety         'C15 H13 N1 O1 S1'
_chemical_name_systematic        
'10,11-Dihydrodibenzo(b,f)azepine-5-carbothioic S-acid'
_symmetry_cell_setting           orthorhombic
_symmetry_space_group_name_H-M   'P c a 21'
_symmetry_Int_Tables_number      29
_space_group_name_Hall           'P 2c -2ac'
loop_
_symmetry_equiv_pos_site_id
_symmetry_equiv_pos_as_xyz
1 x,y,z
2 -x,-y,1/2+z
3 1/2+x,-y,z
4 1/2-x,y,1/2+z
_cell_length_a                   16.6550(15)
_cell_length_b                   10.6438(10)
_cell_length_c                   7.2559(7)
_cell_angle_alpha                90
_cell_angle_beta                 90
_cell_angle_gamma                90
_cell_volume                     1286.27
_exptl_crystal_colour            colorless
_exptl_crystal_description       Block
_cell_formula_units_Z            4
_exptl_crystal_recrystallization_method ethanol
loop_
_atom_site_label
_atom_site_type_symbol
_atom_site_fract_x
_atom_site_fract_y
_atom_site_fract_z
S1 S 0.69971(5) 0.96692(7) 0.66907(15)
O1 O 0.77706(12) 0.7594(2) 0.7152(4)
N1 N 0.64249(12) 0.7370(2) 0.6706(4)
C1 C 0.56470(15) 0.7937(2) 0.6404(4)
C2 C 0.54440(17) 0.8412(3) 0.4702(5)
H1 H 0.5809 0.8377 0.3733
C3 C 0.46984(19) 0.8939(3) 0.4444(6)
H2 H 0.4563 0.9284 0.3309
C4 C 0.4155(2) 0.8954(3) 0.5862(6)
H3 H 0.3648 0.9297 0.5679
C5 C 0.43588(19) 0.8464(3) 0.7562(6)
H4 H 0.3984 0.8474 0.8511
C6 C 0.51220(18) 0.7953(3) 0.7876(5)
C7 C 0.5399(2) 0.7485(4) 0.9704(5)
H5 H 0.5007 0.7719 1.0630
H6 H 0.5901 0.7897 1.0014
C8 C 0.5524(2) 0.6073(4) 0.9780(5)
H7 H 0.5756 0.5879 1.0973
H8 H 0.4998 0.5684 0.9746
C9 C 0.60333(18) 0.5431(3) 0.8342(5)
C10 C 0.64425(15) 0.6020(3) 0.6915(5)
C11 C 0.6864(2) 0.5328(3) 0.5625(6)
H9 H 0.7122 0.5735 0.4659
C12 C 0.6903(2) 0.4041(4) 0.5764(7)
H10 H 0.7189 0.3576 0.4902
C13 C 0.6513(2) 0.3450(3) 0.7190(7)
H11 H 0.6546 0.2582 0.7311
C14 C 0.6083(2) 0.4126(3) 0.8419(5)
H12 H 0.5810 0.3705 0.9351
C15 C 0.71194(17) 0.8003(3) 0.6866(5)
H13 H 0.7032(18) 0.970(3) 0.817(3)
loop_
_geom_bond_atom_site_label_1
_geom_bond_atom_site_label_2
_geom_bond_site_symmetry_1
_geom_bond_site_symmetry_2
S1 C15 1_555 1_555
O1 C15 1_555 1_555
N1 C1 1_555 1_555
C1 C2 1_555 1_555
C2 H1 1_555 1_555
C3 C2 1_555 1_555
H2 C3 1_555 1_555
C4 C3 1_555 1_555
H3 C4 1_555 1_555
C5 C4 1_555 1_555
H4 C5 1_555 1_555
C6 C1 1_555 1_555
C7 C6 1_555 1_555
H5 C7 1_555 1_555
H6 C7 1_555 1_555
C8 C7 1_555 1_555
H7 C8 1_555 1_555
H8 C8 1_555 1_555
C9 C8 1_555 1_555
C10 N1 1_555 1_555
C11 C10 1_555 1_555
H9 C11 1_555 1_555
C12 C11 1_555 1_555
H10 C12 1_555 1_555
C13 C12 1_555 1_555
H11 C13 1_555 1_555
C14 C9 1_555 1_555
H12 C14 1_555 1_555
C15 N1 1_555 1_555
H13 S1 1_555 1_555
C5 C6 1_555 1_555
C9 C10 1_555 1_555
C13 C14 1_555 1_555

#END
