
#######################################################################
#
#                 Cambridge Crystallographic Data Centre
#                                CCDC 
#
#######################################################################
#
# If this CIF has been generated from an entry in the Cambridge 
# Structural Database, then it will include bibliographic, chemical, 
# crystal, experimental, refinement or atomic coordinate data resulting 
# from the CCDC's data processing and validation procedures.
#
#######################################################################

data_ADELIG
_chemical_formula_moiety         'C24 H19 Cl1 F3 N1 O4 S1'
_chemical_name_systematic        
4-Chloro-N-(2,5-difluorophenyl)-N-(1-(4-fluoro-2-(5-oxotetrahydrofuran-2-yl)phenyl)ethyl)benzenesulfonamide
_symmetry_cell_setting           triclinic
_symmetry_space_group_name_H-M   'P 1'
_symmetry_Int_Tables_number      1
_space_group_name_Hall           'P 1'
loop_
_symmetry_equiv_pos_site_id
_symmetry_equiv_pos_as_xyz
1 x,y,z
_cell_length_a                   7.8254(7)
_cell_length_b                   11.191(3)
_cell_length_c                   13.510(8)
_cell_angle_alpha                100.90(4)
_cell_angle_beta                 94.20(3)
_cell_angle_gamma                90.150(14)
_cell_volume                     1158.5
_exptl_crystal_colour            colorless
_exptl_crystal_description       plate
_cell_formula_units_Z            2
loop_
_atom_site_label
_atom_site_type_symbol
_atom_site_fract_x
_atom_site_fract_y
_atom_site_fract_z
S1 S 0.5588(3) 0.90495(19) 0.32088(16)
Cl1 Cl 0.4221(5) 0.4645(3) -0.0343(3)
F1 F 0.3993(8) 1.5698(5) 0.4671(5)
F2 F 0.6818(9) 1.2073(6) 0.3024(5)
F3 F 0.4024(12) 1.0066(8) -0.0679(5)
O1 O 0.4418(8) 1.2131(7) 0.6421(4)
O2 O 0.5508(13) 1.1976(10) 0.7946(5)
O3 O 0.4935(11) 0.8792(6) 0.4106(5)
O4 O 0.7376(9) 0.9337(7) 0.3203(6)
N1 N 0.4495(9) 1.0176(6) 0.2897(5)
C1 C 0.4818(11) 1.1661(8) 0.5385(6)
H1 H 0.4320 1.0840 0.5168
C2 C 0.6760(11) 1.1579(9) 0.5454(7)
H2 H 0.7153 1.0955 0.4923
H3 H 0.7303 1.2352 0.5429
C3 C 0.7070(13) 1.1243(10) 0.6481(7)
H4 H 0.7039 1.0366 0.6430
H5 H 0.8170 1.1559 0.6804
C4 C 0.5630(13) 1.1825(10) 0.7055(7)
C5 C 0.4054(12) 1.2473(8) 0.4707(6)
C6 C 0.4310(12) 1.3739(9) 0.5009(7)
H6 H 0.4857 1.4073 0.5635
C7 C 0.3726(14) 1.4460(8) 0.4351(8)
C8 C 0.2904(15) 1.4068(9) 0.3464(8)
H7 H 0.2543 1.4608 0.3050
C9 C 0.2591(13) 1.2842(10) 0.3166(7)
H8 H 0.1997 1.2555 0.2545
C10 C 0.3143(11) 1.2013(9) 0.3772(6)
C11 C 0.2908(11) 1.0643(7) 0.3369(6)
H9 H 0.2831 1.0264 0.3962
C12 C 0.1282(13) 1.0288(10) 0.2704(8)
H10 H 0.1238 0.9421 0.2477
H11 H 0.1265 1.0680 0.2130
H12 H 0.0309 1.0536 0.3081
C13 C 0.4961(12) 1.0613(8) 0.2024(7)
C14 C 0.6139(13) 1.1576(9) 0.2113(7)
C15 C 0.6553(16) 1.2050(11) 0.1293(9)
H13 H 0.7311 1.2710 0.1381
C16 C 0.5857(17) 1.1557(11) 0.0354(9)
H14 H 0.6117 1.1871 -0.0208
C17 C 0.4757(17) 1.0580(11) 0.0262(7)
C18 C 0.4292(14) 1.0118(10) 0.1058(7)
H15 H 0.3520 0.9465 0.0956
C19 C 0.5181(12) 0.7788(8) 0.2222(7)
C20 C 0.6347(14) 0.7528(9) 0.1517(8)
H16 H 0.7337 0.8004 0.1569
C21 C 0.6056(16) 0.6547(10) 0.0719(9)
H17 H 0.6854 0.6358 0.0238
C22 C 0.4585(16) 0.5864(9) 0.0647(8)
C23 C 0.3391(14) 0.6123(9) 0.1363(8)
H18 H 0.2389 0.5659 0.1306
C24 C 0.3717(12) 0.7088(9) 0.2167(8)
H19 H 0.2949 0.7260 0.2666
S2 S 0.9037(3) 0.4847(2) 0.68363(16)
Cl2 Cl 1.0916(5) 0.2103(4) 1.0353(3)
F4 F 1.0683(8) 1.0802(5) 0.5281(5)
F5 F 0.7613(9) 0.7845(7) 0.6791(5)
F6 F 1.0469(11) 0.8094(8) 1.0595(5)
O5 O 1.0314(9) 0.6427(6) 0.3545(5)
O6 O 0.9309(12) 0.5475(10) 0.2019(5)
O7 O 0.9658(10) 0.4192(6) 0.5926(4)
O8 O 0.7266(8) 0.5108(7) 0.6884(6)
N2 N 1.0088(10) 0.6164(7) 0.7101(5)
C25 C 0.9877(12) 0.6415(9) 0.4571(7)
H20 H 1.0357 0.5690 0.4787
C26 C 0.7922(12) 0.6311(10) 0.4485(7)
H21 H 0.7393 0.7091 0.4472
H22 H 0.7500 0.5964 0.5028
C27 C 0.7639(13) 0.5437(11) 0.3457(8)
H23 H 0.7668 0.4595 0.3539
H24 H 0.6552 0.5584 0.3110
C28 C 0.9117(14) 0.5741(10) 0.2895(7)
C29 C 1.0623(12) 0.7554(8) 0.5289(7)
C30 C 1.0376(12) 0.8673(8) 0.4966(8)
H25 H 0.9823 0.8707 0.4339
C31 C 1.0977(13) 0.9698(9) 0.5603(9)
C32 C 1.1823(13) 0.9734(9) 0.6519(7)
H26 H 1.2203 1.0464 0.6927
C33 C 1.2100(14) 0.8612(9) 0.6821(8)
H27 H 1.2699 0.8588 0.7438
C34 C 1.1484(12) 0.7535(9) 0.6204(7)
C35 C 1.1695(11) 0.6347(8) 0.6601(6)
H28 H 1.1758 0.5681 0.6018
C36 C 1.3288(13) 0.6297(11) 0.7321(8)
H29 H 1.3316 0.5525 0.7533
H30 H 1.3250 0.6938 0.7902
H31 H 1.4298 0.6398 0.6980
C37 C 0.9560(12) 0.7047(8) 0.7920(7)
C38 C 0.8340(15) 0.7935(10) 0.7756(8)
C39 C 0.7859(18) 0.8817(11) 0.8513(9)
H32 H 0.7033 0.9377 0.8388
C40 C 0.861(2) 0.8865(11) 0.9464(10)
H33 H 0.8320 0.9471 0.9993
C41 C 0.9787(17) 0.8031(11) 0.9634(8)
C42 C 1.0267(14) 0.7115(9) 0.8898(7)
H34 H 1.1057 0.6545 0.9050
C43 C 0.9593(13) 0.4066(8) 0.7818(7)
C44 C 1.0948(13) 0.3257(9) 0.7757(8)
H35 H 1.1592 0.3125 0.7196
C45 C 1.1315(14) 0.2650(9) 0.8552(8)
H36 H 1.2202 0.2095 0.8515
C46 C 1.0416(15) 0.2848(9) 0.9369(7)
C47 C 0.9088(15) 0.3661(11) 0.9453(7)
H37 H 0.8483 0.3803 1.0030
C48 C 0.8673(14) 0.4262(9) 0.8663(7)
H38 H 0.7767 0.4801 0.8704
loop_
_geom_bond_atom_site_label_1
_geom_bond_atom_site_label_2
_geom_bond_site_symmetry_1
_geom_bond_site_symmetry_2
S1 O3 1_555 1_555
Cl1 C22 1_555 1_555
F1 C7 1_555 1_555
F2 C14 1_555 1_555
F3 C17 1_555 1_555
O1 C1 1_555 1_555
O2 C4 1_555 1_555
O4 S1 1_555 1_555
N1 S1 1_555 1_555
C1 H1 1_555 1_555
C2 C1 1_555 1_555
H2 C2 1_555 1_555
H3 C2 1_555 1_555
C3 C2 1_555 1_555
H4 C3 1_555 1_555
H5 C3 1_555 1_555
C4 O1 1_555 1_555
C5 C1 1_555 1_555
C6 C5 1_555 1_555
H6 C6 1_555 1_555
C7 C6 1_555 1_555
C8 C7 1_555 1_555
H7 C8 1_555 1_555
C9 C8 1_555 1_555
H8 C9 1_555 1_555
C10 C5 1_555 1_555
C11 N1 1_555 1_555
H9 C11 1_555 1_555
C12 C11 1_555 1_555
H10 C12 1_555 1_555
H11 C12 1_555 1_555
H12 C12 1_555 1_555
C13 N1 1_555 1_555
C14 C13 1_555 1_555
C15 C14 1_555 1_555
H13 C15 1_555 1_555
C16 C15 1_555 1_555
H14 C16 1_555 1_555
C17 C16 1_555 1_555
C18 C13 1_555 1_555
H15 C18 1_555 1_555
C19 S1 1_555 1_555
C20 C19 1_555 1_555
H16 C20 1_555 1_555
C21 C20 1_555 1_555
H17 C21 1_555 1_555
C22 C21 1_555 1_555
C23 C22 1_555 1_555
H18 C23 1_555 1_555
C24 C19 1_555 1_555
H19 C24 1_555 1_555
S2 O7 1_555 1_555
Cl2 C46 1_555 1_555
F4 C31 1_555 1_555
F5 C38 1_555 1_555
F6 C41 1_555 1_555
O5 C25 1_555 1_555
O6 C28 1_555 1_555
O8 S2 1_555 1_555
N2 S2 1_555 1_555
C25 H20 1_555 1_555
C26 C25 1_555 1_555
H21 C26 1_555 1_555
H22 C26 1_555 1_555
C27 C26 1_555 1_555
H23 C27 1_555 1_555
H24 C27 1_555 1_555
C28 O5 1_555 1_555
C29 C25 1_555 1_555
C30 C29 1_555 1_555
H25 C30 1_555 1_555
C31 C30 1_555 1_555
C32 C31 1_555 1_555
H26 C32 1_555 1_555
C33 C32 1_555 1_555
H27 C33 1_555 1_555
C34 C29 1_555 1_555
C35 N2 1_555 1_555
H28 C35 1_555 1_555
C36 C35 1_555 1_555
H29 C36 1_555 1_555
H30 C36 1_555 1_555
H31 C36 1_555 1_555
C37 N2 1_555 1_555
C38 C37 1_555 1_555
C39 C38 1_555 1_555
H32 C39 1_555 1_555
C40 C39 1_555 1_555
H33 C40 1_555 1_555
C41 C40 1_555 1_555
C42 C37 1_555 1_555
H34 C42 1_555 1_555
C43 S2 1_555 1_555
C44 C43 1_555 1_555
H35 C44 1_555 1_555
C45 C44 1_555 1_555
H36 C45 1_555 1_555
C46 C45 1_555 1_555
C47 C46 1_555 1_555
H37 C47 1_555 1_555
C48 C43 1_555 1_555
H38 C48 1_555 1_555
C3 C4 1_555 1_555
C9 C10 1_555 1_555
C10 C11 1_555 1_555
C17 C18 1_555 1_555
C23 C24 1_555 1_555
C27 C28 1_555 1_555
C33 C34 1_555 1_555
C34 C35 1_555 1_555
C41 C42 1_555 1_555
C47 C48 1_555 1_555

#END
