
#######################################################################
#
#                 Cambridge Crystallographic Data Centre
#                                CCDC 
#
#######################################################################
#
# If this CIF has been generated from an entry in the Cambridge 
# Structural Database, then it will include bibliographic, chemical, 
# crystal, experimental, refinement or atomic coordinate data resulting 
# from the CCDC's data processing and validation procedures.
#
#######################################################################

data_ADENOP
_chemical_name_common            'Metformin acesulfame'
_chemical_formula_moiety         'C4 H12 N5 1+,C4 H4 N1 O4 S1 1-'
_chemical_name_systematic        
'amino((diaminomethylene)amino)-N,N-dimethylmethaniminium 6-methyl-4-oxo-4H-1,2,3-oxathiazin-3-ide 2,2-dioxide'
_chemical_properties_biological  'metformin is used to treat type 2 diabetes'
_symmetry_cell_setting           monoclinic
_symmetry_space_group_name_H-M   'P 21/n'
_symmetry_Int_Tables_number      14
_space_group_name_Hall           '-P 2yn'
loop_
_symmetry_equiv_pos_site_id
_symmetry_equiv_pos_as_xyz
1 x,y,z
2 1/2-x,1/2+y,1/2-z
3 -x,-y,-z
4 1/2+x,1/2-y,1/2+z
_cell_length_a                   8.409(2)
_cell_length_b                   13.651(2)
_cell_length_c                   12.214(2)
_cell_angle_alpha                90
_cell_angle_beta                 101.146(17)
_cell_angle_gamma                90
_cell_volume                     1375.61
_exptl_crystal_description       block
_cell_formula_units_Z            4
_exptl_crystal_recrystallization_method water
loop_
_atom_site_label
_atom_site_type_symbol
_atom_site_fract_x
_atom_site_fract_y
_atom_site_fract_z
S1 S 0.78183(5) 0.34495(3) 0.56451(3)
O1 O 0.68300(18) 0.26784(11) 0.59600(12)
O2 O 0.7632(2) 0.43842(11) 0.61374(12)
O3 O 0.96509(15) 0.30941(11) 0.61852(11)
O4 O 0.88275(15) 0.39512(11) 0.29038(11)
C1 C 1.0892(2) 0.34571(13) 0.56800(15)
N1 N 0.76846(18) 0.35010(12) 0.43502(12)
C2 C 1.2497(2) 0.33826(18) 0.64385(18)
H1 H 1.271(4) 0.273(3) 0.678(3)
H2 H 1.336(3) 0.3527(17) 0.601(2)
H3 H 1.256(3) 0.388(2) 0.697(2)
C3 C 0.8986(2) 0.37594(12) 0.39175(14)
C4 C 1.0596(2) 0.37622(13) 0.46329(15)
H4 H 1.145(3) 0.3954(16) 0.4322(19)
H5 H -0.104(4) 0.654(2) 0.094(3)
H6 H -0.112(3) 0.5409(19) 0.085(2)
H7 H -0.063(3) 0.5873(17) 0.199(2)
N2 N 0.11773(17) 0.59305(11) 0.11556(11)
N3 N 0.35153(17) 0.50794(11) 0.10590(11)
H8 H 0.138(4) 0.716(3) 0.034(3)
H9 H 0.173(4) 0.732(2) 0.155(3)
H10 H 0.299(4) 0.680(2) 0.101(2)
N4 N 0.60041(18) 0.43445(13) 0.12898(14)
H11 H 0.600(3) 0.4491(18) 0.064(2)
H12 H 0.684(3) 0.4159(18) 0.175(2)
N5 N 0.47512(19) 0.43908(12) 0.27903(12)
H13 H 0.407(3) 0.4646(16) 0.3095(18)
H14 H 0.559(3) 0.4131(17) 0.315(2)
N6 N 0.13459(18) 0.43053(11) 0.16645(12)
H15 H 0.186(3) 0.3780(18) 0.1644(19)
H16 H 0.055(3) 0.4313(17) 0.1988(19)
C5 C -0.0524(2) 0.59500(15) 0.12448(15)
C6 C 0.20327(19) 0.51054(12) 0.13303(12)
C7 C 0.47206(19) 0.46020(12) 0.17105(13)
C8 C 0.1918(3) 0.68659(15) 0.09758(19)
O5? O 0.7666(19) 0.2486(10) 0.5735(12)
O6? O 0.686(2) 0.4132(11) 0.6099(13)
O7? O 0.9659(12) 0.3783(11) 0.6171(10)
loop_
_geom_bond_atom_site_label_1
_geom_bond_atom_site_label_2
_geom_bond_site_symmetry_1
_geom_bond_site_symmetry_2
S1 O1 1_555 1_555
O2 S1 1_555 1_555
O3 S1 1_555 1_555
O4 C3 1_555 1_555
C1 O3 1_555 1_555
N1 S1 1_555 1_555
C2 C1 1_555 1_555
H1 C2 1_555 1_555
H2 C2 1_555 1_555
H3 C2 1_555 1_555
C3 N1 1_555 1_555
C4 C1 1_555 1_555
H4 C4 1_555 1_555
H5 C5 1_555 1_555
H6 C5 1_555 1_555
H7 C5 1_555 1_555
N2 C5 1_555 1_555
N3 C6 1_555 1_555
H8 C8 1_555 1_555
H9 C8 1_555 1_555
H10 C8 1_555 1_555
N4 H11 1_555 1_555
H12 N4 1_555 1_555
N5 H13 1_555 1_555
H14 N5 1_555 1_555
N6 H15 1_555 1_555
H16 N6 1_555 1_555
C6 N2 1_555 1_555
C7 N3 1_555 1_555
C8 N2 1_555 1_555
C3 C4 1_555 1_555
N4 C7 1_555 1_555
N5 C7 1_555 1_555
N6 C6 1_555 1_555

#END
