
#######################################################################
#
#                 Cambridge Crystallographic Data Centre
#                                CCDC 
#
#######################################################################
#
# If this CIF has been generated from an entry in the Cambridge 
# Structural Database, then it will include bibliographic, chemical, 
# crystal, experimental, refinement or atomic coordinate data resulting 
# from the CCDC's data processing and validation procedures.
#
#######################################################################

data_ADENIJ
_chemical_name_common            'diphenhydramine acesulfame'
_chemical_formula_moiety         'C17 H22 N1 O1 1+,C4 H4 N1 O4 S1 1-'
_chemical_name_systematic        
'2-(diphenylmethoxy)-N,N-dimethylethanaminium 6-methyl-4-oxo-4H-1,2,3-oxathiazin-3-ide 2,2-dioxide'
_chemical_properties_biological  
'diphenhydramine is a first-generation H-receptor antagonist'
_symmetry_cell_setting           monoclinic
_symmetry_space_group_name_H-M   'P 21/n'
_symmetry_Int_Tables_number      14
_space_group_name_Hall           '-P 2yn'
loop_
_symmetry_equiv_pos_site_id
_symmetry_equiv_pos_as_xyz
1 x,y,z
2 1/2-x,1/2+y,1/2-z
3 -x,-y,-z
4 1/2+x,1/2-y,1/2+z
_cell_length_a                   9.0159(6)
_cell_length_b                   5.9880(4)
_cell_length_c                   38.346(3)
_cell_angle_alpha                90
_cell_angle_beta                 96.416(3)
_cell_angle_gamma                90
_cell_volume                     2057.23
_exptl_crystal_colour            white
_exptl_crystal_description       needle
_cell_formula_units_Z            4
_exptl_crystal_recrystallization_method water
loop_
_atom_site_label
_atom_site_type_symbol
_atom_site_fract_x
_atom_site_fract_y
_atom_site_fract_z
O1 O 0.1841(3) 0.7209(5) 0.37791(7)
H1 H 0.295(6) 0.464(9) 0.4284(14)
H2 H 0.416(6) 0.784(10) 0.4402(14)
H3 H 0.483(6) 0.588(9) 0.4628(12)
H4 H 0.377(6) 0.764(9) 0.4791(14)
H5 H 0.102(5) 0.742(8) 0.4575(12)
H6 H 0.049(5) 0.560(7) 0.4295(10)
H7 H 0.203(5) 0.960(8) 0.4145(11)
H8 H 0.037(4) 0.905(7) 0.4025(10)
H9 H 0.240(4) 1.007(7) 0.3574(10)
N1 N 0.2682(4) 0.5403(6) 0.44639(9)
C1 C 0.3976(5) 0.6870(8) 0.45840(12)
C2 C 0.1257(4) 0.6665(7) 0.43624(11)
C3 C 0.1375(5) 0.8358(7) 0.40752(10)
C4 C 0.1943(5) 0.8674(7) 0.34852(10)
C5 C 0.2899(4) 0.7557(7) 0.32347(10)
C6 C 0.3116(5) 0.8667(9) 0.29260(11)
H10 H 0.266(5) 1.017(8) 0.2883(11)
C7 C 0.3952(5) 0.7673(10) 0.26855(12)
H11 H 0.410(6) 0.854(10) 0.2480(15)
C8 C 0.4574(5) 0.5580(10) 0.27489(13)
H12 H 0.517(6) 0.488(10) 0.2582(15)
C9 C 0.4349(5) 0.4479(9) 0.30563(14)
H13 H 0.481(6) 0.308(10) 0.3104(14)
C10 C 0.3515(5) 0.5465(8) 0.32996(12)
H14 H 0.338(7) 0.468(11) 0.3501(16)
C11 C 0.0400(5) 0.9253(7) 0.33064(10)
C12 C -0.0401(5) 0.7660(7) 0.30981(11)
H15 H 0.002(5) 0.625(8) 0.3076(11)
C13 C -0.1820(5) 0.8138(7) 0.29360(11)
H16 H -0.236(5) 0.693(8) 0.2797(11)
C14 C -0.2452(5) 1.0194(9) 0.29811(11)
H17 H -0.331(5) 1.050(7) 0.2869(11)
H18 H -0.212(5) 1.329(9) 0.3218(12)
C15 C -0.1664(5) 1.1798(8) 0.31859(12)
C16 C -0.0241(5) 1.1327(8) 0.33489(12)
H19 H 0.032(6) 1.244(9) 0.3495(13)
C17 C 0.2453(6) 0.3686(8) 0.47360(12)
H20 H 0.337(6) 0.275(10) 0.4770(14)
H21 H 0.221(5) 0.449(8) 0.4945(13)
H22 H 0.161(5) 0.279(8) 0.4654(12)
C18 C 0.5784(5) -0.0072(7) 0.38888(11)
H23 H 0.526(5) -0.030(8) 0.3664(12)
S1 S 0.76992(11) 0.10828(17) 0.45040(3)
O2 O 0.8778(3) 0.2279(5) 0.43302(8)
O3 O 0.8080(4) 0.0645(5) 0.48686(7)
O4 O 0.7627(3) -0.1415(5) 0.43268(7)
O5 O 0.4049(3) 0.2606(5) 0.40341(8)
N2 N 0.6070(4) 0.2067(6) 0.44347(9)
C19 C 0.5274(4) 0.1655(7) 0.41196(10)
C20 C 0.6849(4) -0.1551(7) 0.39944(10)
C21 C 0.7306(5) -0.3520(7) 0.37990(12)
H24 H 0.731(5) -0.494(9) 0.3938(12)
H25 H 0.664(6) -0.368(9) 0.3586(13)
H26 H 0.831(5) -0.329(8) 0.3751(11)
loop_
_geom_bond_atom_site_label_1
_geom_bond_atom_site_label_2
_geom_bond_site_symmetry_1
_geom_bond_site_symmetry_2
O1 C3 1_555 1_555
H1 N1 1_555 1_555
H2 C1 1_555 1_555
H3 C1 1_555 1_555
H4 C1 1_555 1_555
H5 C2 1_555 1_555
H6 C2 1_555 1_555
H7 C3 1_555 1_555
H8 C3 1_555 1_555
H9 C4 1_555 1_555
N1 C1 1_555 1_555
C2 N1 1_555 1_555
C3 C2 1_555 1_555
C4 O1 1_555 1_555
C5 C4 1_555 1_555
C6 C5 1_555 1_555
H10 C6 1_555 1_555
C7 C6 1_555 1_555
H11 C7 1_555 1_555
C8 C7 1_555 1_555
H12 C8 1_555 1_555
C9 C8 1_555 1_555
H13 C9 1_555 1_555
C10 C5 1_555 1_555
H14 C10 1_555 1_555
C11 C4 1_555 1_555
C12 C11 1_555 1_555
H15 C12 1_555 1_555
C13 C12 1_555 1_555
H16 C13 1_555 1_555
C14 C13 1_555 1_555
H17 C14 1_555 1_555
H18 C15 1_555 1_555
C15 C14 1_555 1_555
C16 C11 1_555 1_555
H19 C16 1_555 1_555
C17 N1 1_555 1_555
H20 C17 1_555 1_555
H21 C17 1_555 1_555
H22 C17 1_555 1_555
C18 H23 1_555 1_555
S1 O2 1_555 1_555
O3 S1 1_555 1_555
O4 S1 1_555 1_555
O5 C19 1_555 1_555
N2 S1 1_555 1_555
C19 C18 1_555 1_555
C20 C18 1_555 1_555
C21 C20 1_555 1_555
H24 C21 1_555 1_555
H25 C21 1_555 1_555
H26 C21 1_555 1_555
C9 C10 1_555 1_555
C15 C16 1_555 1_555
O4 C20 1_555 1_555
N2 C19 1_555 1_555

#END
