
#######################################################################
#
#                 Cambridge Crystallographic Data Centre
#                                CCDC 
#
#######################################################################
#
# If this CIF has been generated from an entry in the Cambridge 
# Structural Database, then it will include bibliographic, chemical, 
# crystal, experimental, refinement or atomic coordinate data resulting 
# from the CCDC's data processing and validation procedures.
#
#######################################################################

data_ADEQUW
_chemical_formula_moiety         'C2 H10 N2 2+,2(C12 H8 N2),2(Cl1 1-),4(H2 O1)'
_chemical_name_systematic        
'Ethylenediammonium dichloride bis(1,10-phenanthroline) tetrahydrate'
_symmetry_cell_setting           triclinic
_symmetry_space_group_name_H-M   'P -1'
_symmetry_Int_Tables_number      2
_space_group_name_Hall           '-P 1'
loop_
_symmetry_equiv_pos_site_id
_symmetry_equiv_pos_as_xyz
1 x,y,z
2 -x,-y,-z
_cell_length_a                   7.6518(8)
_cell_length_b                   9.8985(10)
_cell_length_c                   10.6525(11)
_cell_angle_alpha                69.492(2)
_cell_angle_beta                 70.416(2)
_cell_angle_gamma                80.602(2)
_cell_volume                     711.021
_exptl_crystal_colour            yellow
_exptl_crystal_description       block
_cell_formula_units_Z            1
loop_
_atom_site_label
_atom_site_type_symbol
_atom_site_fract_x
_atom_site_fract_y
_atom_site_fract_z
Cl1 Cl 0.26183(7) 0.81920(5) 0.42322(6)
O1 O 0.3051(2) 0.25192(17) 0.64136(18)
H1 H 0.4215(15) 0.234(3) 0.630(3)
H2 H 0.264(3) 0.197(2) 0.613(3)
O2 O 0.8352(3) 0.9093(2) 0.4578(3)
H3 H 0.9526(15) 0.892(3) 0.435(3)
H4 H 0.799(4) 0.983(3) 0.485(4)
N1 N 0.1339(2) 0.66044(16) 1.07722(16)
N2 N 0.1341(2) 0.36811(16) 1.14794(15)
C1 C 0.1349(3) 0.8029(2) 1.0401(2)
H5 H 0.0647 0.8474 1.1062
C2 C 0.2340(3) 0.8901(2) 0.9088(3)
H6 H 0.2282 0.9899 0.8880
C3 C 0.3391(3) 0.8272(2) 0.8119(2)
H7 H 0.4066 0.8837 0.7235
C4 C 0.3461(2) 0.6764(2) 0.84501(18)
C5 C 0.4558(3) 0.6013(2) 0.74925(19)
H8 H 0.5245 0.6539 0.6595
C6 C 0.4617(2) 0.4572(2) 0.78595(19)
H9 H 0.5352 0.4113 0.7219
C7 C 0.3563(2) 0.3728(2) 0.92244(18)
C8 C 0.3612(3) 0.2214(2) 0.9657(2)
H10 H 0.4361 0.1717 0.9055
C9 C 0.2552(3) 0.1482(2) 1.0963(2)
H11 H 0.2581 0.0478 1.1272
C10 C 0.1423(3) 0.2258(2) 1.1832(2)
H12 H 0.0682 0.1744 1.2714
C11 C 0.2424(2) 0.44222(18) 1.01870(16)
C12 C 0.2392(2) 0.59737(18) 0.98017(17)
N3 N 0.09620(19) 0.51495(16) 0.63567(14)
H13 H 0.1706 0.4353 0.6442
H14 H 0.0399 0.5250 0.7200
H15 H 0.1630 0.5913 0.5802
C13 C -0.0447(2) 0.5038(2) 0.57350(17)
H16 H -0.1317 0.5870 0.5712
H17 H -0.1134 0.4179 0.6316
N3A N -0.09620(19) 0.48505(16) 0.36433(14)
H13A H -0.1706 0.5647 0.3558
H14A H -0.0399 0.4750 0.2800
H15A H -0.1630 0.4087 0.4198
C13A C 0.0447(2) 0.4962(2) 0.42650(17)
H16A H 0.1317 0.4130 0.4288
H17A H 0.1134 0.5821 0.3684
loop_
_geom_bond_atom_site_label_1
_geom_bond_atom_site_label_2
_geom_bond_site_symmetry_1
_geom_bond_site_symmetry_2
O1 H1 1_555 1_555
H2 O1 1_555 1_555
O2 H3 1_555 1_555
H4 O2 1_555 1_555
N1 C1 1_555 1_555
N2 C10 1_555 1_555
C1 H5 1_555 1_555
C2 C1 1_555 1_555
H6 C2 1_555 1_555
C3 C2 1_555 1_555
H7 C3 1_555 1_555
C4 C3 1_555 1_555
C5 C4 1_555 1_555
H8 C5 1_555 1_555
C6 C5 1_555 1_555
H9 C6 1_555 1_555
C7 C6 1_555 1_555
C8 C7 1_555 1_555
H10 C8 1_555 1_555
C9 C8 1_555 1_555
H11 C9 1_555 1_555
C10 C9 1_555 1_555
H12 C10 1_555 1_555
C11 N2 1_555 1_555
C12 N1 1_555 1_555
N3 H13 1_555 1_555
H14 N3 1_555 1_555
H15 N3 1_555 1_555
C13 N3 1_555 1_555
H16 C13 1_555 1_555
H17 C13 1_555 1_555
N3A H13A 1_555 1_555
H14A N3A 1_555 1_555
H15A N3A 1_555 1_555
C13A C13 1_555 1_555
H16A C13A 1_555 1_555
H17A C13A 1_555 1_555
C4 C12 1_555 1_555
C7 C11 1_555 1_555
C11 C12 1_555 1_555
N3A C13A 1_555 1_555

#END
