
#######################################################################
#
#                 Cambridge Crystallographic Data Centre
#                                CCDC 
#
#######################################################################
#
# If this CIF has been generated from an entry in the Cambridge 
# Structural Database, then it will include bibliographic, chemical, 
# crystal, experimental, refinement or atomic coordinate data resulting 
# from the CCDC's data processing and validation procedures.
#
#######################################################################

data_ADEVUB
_chemical_formula_moiety         'C29 H22 F6 O2 S2'
_chemical_name_systematic        
3,3,4,4,5,5-Hexafluoro-1,2-bis(5-(3-methoxyphenyl)-3-methyl-2-thienyl)cyclopent-1-ene
_symmetry_cell_setting           monoclinic
_symmetry_space_group_name_H-M   'P 21/n'
_symmetry_Int_Tables_number      14
_space_group_name_Hall           '-P 2yn'
loop_
_symmetry_equiv_pos_site_id
_symmetry_equiv_pos_as_xyz
1 x,y,z
2 1/2-x,1/2+y,1/2-z
3 -x,-y,-z
4 1/2+x,1/2-y,1/2+z
_cell_length_a                   7.8013(11)
_cell_length_b                   26.675(4)
_cell_length_c                   12.9844(18)
_cell_angle_alpha                90
_cell_angle_beta                 92.654(3)
_cell_angle_gamma                90
_cell_volume                     2699.15
_exptl_crystal_colour            colorless
_exptl_crystal_description       prism
_chemical_melting_point          '389.3 K'
_cell_formula_units_Z            4
_chemical_properties_physical    light-sensitive
_exptl_crystal_recrystallization_method hexane/chloroform
_exptl_crystal_preparation       photochromic
loop_
_atom_site_label
_atom_site_type_symbol
_atom_site_fract_x
_atom_site_fract_y
_atom_site_fract_z
S1 S 0.89926(11) 0.07792(4) 0.26264(7)
S2 S 0.29932(12) 0.17273(4) -0.01266(8)
F1 F 0.7783(5) 0.00387(11) 0.0637(2)
F2 F 0.9579(3) 0.06005(15) 0.0379(3)
F3 F 0.6025(6) 0.01301(16) -0.0954(3)
F4 F 0.8224(8) 0.0459(2) -0.1540(3)
F5 F 0.4636(5) 0.09104(16) -0.1335(3)
F6 F 0.6838(6) 0.13638(14) -0.1437(2)
O1 O 1.3454(4) 0.03308(11) 0.5527(2)
O2 O -0.2500(4) 0.26655(13) -0.1415(2)
C1 C 0.9279(4) 0.08231(13) 0.4754(3)
C2 C 0.8792(5) 0.10475(18) 0.5666(3)
H1 H 0.7757 0.1220 0.5683
C3 C 0.9840(6) 0.10134(19) 0.6534(3)
H2 H 0.9493 0.1160 0.7140
C4 C 1.1404(5) 0.07680(16) 0.6543(3)
H3 H 1.2088 0.0743 0.7146
C5 C 1.1920(5) 0.05621(14) 0.5638(3)
C6 C 1.0851(5) 0.05833(13) 0.4757(3)
H4 H 1.1198 0.0433 0.4154
C7 C 1.4631(6) 0.03073(17) 0.6389(3)
H5 H 1.4956 0.0641 0.6595
H6 H 1.5631 0.0124 0.6207
H7 H 1.4103 0.0141 0.6948
C8 C 0.8159(4) 0.08570(13) 0.3820(3)
C9 C 0.6445(4) 0.09448(14) 0.3716(3)
H8 H 0.5771 0.0996 0.4279
C10 C 0.5763(4) 0.09531(13) 0.2694(3)
C11 C 0.3873(4) 0.10139(18) 0.2432(3)
H9 H 0.3590 0.1364 0.2407
H10 H 0.3228 0.0852 0.2950
H11 H 0.3597 0.0864 0.1773
C12 C 0.7010(4) 0.08738(13) 0.1999(3)
C13 C 0.6891(4) 0.08750(14) 0.0883(3)
C14 C 0.7899(5) 0.05067(16) 0.0292(3)
C15 C 0.7188(7) 0.0540(2) -0.0801(4)
C16 C 0.6152(6) 0.10156(18) -0.0856(3)
C17 C 0.5974(4) 0.11797(14) 0.0225(3)
C18 C 0.5011(4) 0.16275(14) 0.0458(3)
C19 C 0.5451(4) 0.20125(13) 0.1120(3)
C20 C 0.7115(5) 0.20591(15) 0.1743(3)
H12 H 0.6990 0.1915 0.2413
H13 H 0.7415 0.2407 0.1816
H14 H 0.8003 0.1886 0.1400
C21 C 0.4148(5) 0.23772(14) 0.1144(3)
H15 H 0.4245 0.2663 0.1553
C22 C 0.2746(4) 0.22804(13) 0.0526(3)
C23 C 0.1162(4) 0.25764(14) 0.0387(3)
C24 C 0.0748(5) 0.29342(14) 0.1126(3)
H16 H 0.1481 0.2987 0.1701
C25 C -0.0729(5) 0.32052(14) 0.1002(3)
H17 H -0.0982 0.3443 0.1495
C26 C -0.1865(5) 0.31356(15) 0.0161(3)
H18 H -0.2863 0.3326 0.0085
C27 C -0.1482(5) 0.27775(16) -0.0563(3)
C28 C 0.0025(5) 0.25041(15) -0.0452(3)
H19 H 0.0278 0.2268 -0.0949
C29 C -0.4146(6) 0.2887(2) -0.1516(4)
H20 H -0.4808 0.2790 -0.0944
H21 H -0.4716 0.2776 -0.2147
H22 H -0.4033 0.3245 -0.1527
F7? F 0.752(2) 0.0244(6) -0.1540(12)
F8? F 0.8790(14) 0.0800(5) -0.1086(12)
loop_
_geom_bond_atom_site_label_1
_geom_bond_atom_site_label_2
_geom_bond_site_symmetry_1
_geom_bond_site_symmetry_2
S1 C8 1_555 1_555
S2 C18 1_555 1_555
F1 C14 1_555 1_555
F2 C14 1_555 1_555
F3 C15 1_555 1_555
F4 C15 1_555 1_555
F5 C16 1_555 1_555
F6 C16 1_555 1_555
O1 C5 1_555 1_555
O2 C27 1_555 1_555
C1 C2 1_555 1_555
C2 H1 1_555 1_555
C3 C2 1_555 1_555
H2 C3 1_555 1_555
C4 C3 1_555 1_555
H3 C4 1_555 1_555
C5 C4 1_555 1_555
C6 C1 1_555 1_555
H4 C6 1_555 1_555
C7 O1 1_555 1_555
H5 C7 1_555 1_555
H6 C7 1_555 1_555
H7 C7 1_555 1_555
C8 C1 1_555 1_555
C9 C8 1_555 1_555
H8 C9 1_555 1_555
C10 C9 1_555 1_555
C11 C10 1_555 1_555
H9 C11 1_555 1_555
H10 C11 1_555 1_555
H11 C11 1_555 1_555
C12 S1 1_555 1_555
C13 C12 1_555 1_555
C14 C13 1_555 1_555
C15 C14 1_555 1_555
C16 C15 1_555 1_555
C17 C13 1_555 1_555
C18 C17 1_555 1_555
C19 C18 1_555 1_555
C20 C19 1_555 1_555
H12 C20 1_555 1_555
H13 C20 1_555 1_555
H14 C20 1_555 1_555
C21 C19 1_555 1_555
H15 C21 1_555 1_555
C22 S2 1_555 1_555
C23 C22 1_555 1_555
C24 C23 1_555 1_555
H16 C24 1_555 1_555
C25 C24 1_555 1_555
H17 C25 1_555 1_555
C26 C25 1_555 1_555
H18 C26 1_555 1_555
C27 C26 1_555 1_555
C28 C23 1_555 1_555
H19 C28 1_555 1_555
C29 O2 1_555 1_555
H20 C29 1_555 1_555
H21 C29 1_555 1_555
H22 C29 1_555 1_555
C5 C6 1_555 1_555
C10 C12 1_555 1_555
C16 C17 1_555 1_555
C21 C22 1_555 1_555
C27 C28 1_555 1_555

#END
