
#######################################################################
#
#                 Cambridge Crystallographic Data Centre
#                                CCDC 
#
#######################################################################
#
# If this CIF has been generated from an entry in the Cambridge 
# Structural Database, then it will include bibliographic, chemical, 
# crystal, experimental, refinement or atomic coordinate data resulting 
# from the CCDC's data processing and validation procedures.
#
#######################################################################

data_ADEWIQ
_chemical_formula_moiety         'C8 H12 Cl2 N2 O2'
_chemical_name_systematic        1,4-bis(Chloroacetyl)piperazine
_symmetry_cell_setting           triclinic
_symmetry_space_group_name_H-M   'P -1'
_symmetry_Int_Tables_number      2
_space_group_name_Hall           '-P 1'
loop_
_symmetry_equiv_pos_site_id
_symmetry_equiv_pos_as_xyz
1 x,y,z
2 -x,-y,-z
_cell_length_a                   6.585(6)
_cell_length_b                   9.339(9)
_cell_length_c                   9.567(9)
_cell_angle_alpha                69.501(16)
_cell_angle_beta                 89.001(16)
_cell_angle_gamma                80.591(15)
_cell_volume                     543.171
_exptl_crystal_colour            colorless
_exptl_crystal_description       block
_chemical_melting_point          '408-410 K'
_cell_formula_units_Z            2
_exptl_crystal_recrystallization_method dichloromethane/acetone
loop_
_atom_site_label
_atom_site_type_symbol
_atom_site_fract_x
_atom_site_fract_y
_atom_site_fract_z
Cl1 Cl 0.97575(10) 0.07259(9) 0.79684(8)
O1 O 0.4360(3) 0.1570(2) 0.7880(2)
N1 N 0.5567(3) 0.0529(2) 0.6141(2)
C1 C 0.7533(3) -0.0195(3) 0.8544(3)
H1 H 0.7823 -0.1248 0.8547
H2 H 0.7215 -0.0238 0.9551
C2 C 0.5696(3) 0.0708(3) 0.7484(3)
C3 C 0.7141(3) -0.0378(3) 0.5528(3)
H3 H 0.8185 -0.0997 0.6301
H4 H 0.7806 0.0320 0.4722
C4 C 0.3851(3) 0.1437(3) 0.5053(3)
H5 H 0.4367 0.2216 0.4224
H6 H 0.2828 0.1965 0.5527
Cl1A Cl 0.02425(10) -0.07259(9) 0.20316(8)
O1A O 0.5640(3) -0.1570(2) 0.2120(2)
N1A N 0.4433(3) -0.0529(2) 0.3859(2)
C1A C 0.2467(3) 0.0195(3) 0.1456(3)
H1A H 0.2177 0.1248 0.1453
H2A H 0.2785 0.0238 0.0449
C2A C 0.4304(3) -0.0708(3) 0.2516(3)
C3A C 0.2859(3) 0.0378(3) 0.4472(3)
H3A H 0.1815 0.0997 0.3699
H4A H 0.2194 -0.0320 0.5278
C4A C 0.6149(3) -0.1437(3) 0.4947(3)
H5A H 0.5633 -0.2216 0.5776
H6A H 0.7172 -0.1965 0.4473
Cl2 Cl 0.77810(16) 0.41174(13) 0.45980(9)
O2 O 1.0024(3) 0.3457(2) 0.1503(2)
N2 N 0.6571(3) 0.4376(2) 0.1146(2)
C5 C 0.8687(4) 0.5127(3) 0.2804(3)
H7 H 0.7893 0.6164 0.2396
H8 H 1.0120 0.5216 0.2903
C6 C 0.8471(4) 0.4247(3) 0.1757(3)
C7 C 0.6291(4) 0.3553(3) 0.0115(3)
H9 H 0.5402 0.2793 0.0550
H10 H 0.7614 0.3011 -0.0040
C8 C 0.4659(4) 0.5300(3) 0.1372(3)
H11 H 0.4945 0.5858 0.2012
H12 H 0.3694 0.4620 0.1863
Cl2A Cl 0.22190(16) 0.58826(13) -0.45980(9)
O2A O -0.0024(3) 0.6543(2) -0.1503(2)
N2A N 0.3429(3) 0.5624(2) -0.1146(2)
C5A C 0.1313(4) 0.4873(3) -0.2804(3)
H7A H 0.2107 0.3836 -0.2396
H8A H -0.0120 0.4784 -0.2903
C6A C 0.1529(4) 0.5753(3) -0.1757(3)
C7A C 0.3709(4) 0.6447(3) -0.0115(3)
H9A H 0.4598 0.7207 -0.0550
H10A H 0.2386 0.6989 0.0040
C8A C 0.5341(4) 0.4700(3) -0.1372(3)
H11A H 0.5055 0.4142 -0.2012
H12A H 0.6306 0.5380 -0.1863
loop_
_geom_bond_atom_site_label_1
_geom_bond_atom_site_label_2
_geom_bond_site_symmetry_1
_geom_bond_site_symmetry_2
Cl1 C1 1_555 1_555
O1 C2 1_555 1_555
N1 C2 1_555 1_555
C1 H1 1_555 1_555
H2 C1 1_555 1_555
C2 C1 1_555 1_555
C3 N1 1_555 1_555
H3 C3 1_555 1_555
H4 C3 1_555 1_555
C4 N1 1_555 1_555
H5 C4 1_555 1_555
H6 C4 1_555 1_555
Cl2 C5 1_555 1_555
O2 C6 1_555 1_555
N2 C6 1_555 1_555
C5 H7 1_555 1_555
H8 C5 1_555 1_555
C6 C5 1_555 1_555
C7 N2 1_555 1_555
H9 C7 1_555 1_555
H10 C7 1_555 1_555
C8 N2 1_555 1_555
H11 C8 1_555 1_555
H12 C8 1_555 1_555
Cl1A C1A 1_555 1_555
O1A C2A 1_555 1_555
N1A C2A 1_555 1_555
C1A H1A 1_555 1_555
H2A C1A 1_555 1_555
C2A C1A 1_555 1_555
C3A C4 1_555 1_555
H3A C3A 1_555 1_555
H4A C3A 1_555 1_555
C4A C3 1_555 1_555
H5A C4A 1_555 1_555
H6A C4A 1_555 1_555
Cl2A C5A 1_555 1_555
O2A C6A 1_555 1_555
N2A C6A 1_555 1_555
C5A H7A 1_555 1_555
H8A C5A 1_555 1_555
C6A C5A 1_555 1_555
C7A C8 1_555 1_555
H9A C7A 1_555 1_555
H10A C7A 1_555 1_555
C8A C7 1_555 1_555
H11A C8A 1_555 1_555
H12A C8A 1_555 1_555
N1A C3A 1_555 1_555
N1A C4A 1_555 1_555
N2A C7A 1_555 1_555
N2A C8A 1_555 1_555

#END
