
#######################################################################
#
#                 Cambridge Crystallographic Data Centre
#                                CCDC 
#
#######################################################################
#
# If this CIF has been generated from an entry in the Cambridge 
# Structural Database, then it will include bibliographic, chemical, 
# crystal, experimental, refinement or atomic coordinate data resulting 
# from the CCDC's data processing and validation procedures.
#
#######################################################################

data_ADEXAJ
_chemical_formula_moiety         'C26 H24 Cl1 N3 O3'
_chemical_name_systematic        
(E)-4-(3-(4-Chlorobenzyloxy)-4-methoxybenzylideneamino)-1,5-dimethyl-2-phenyl-1H-pyrazol-3(2H)-one
_symmetry_cell_setting           triclinic
_symmetry_space_group_name_H-M   'P -1'
_symmetry_Int_Tables_number      2
_space_group_name_Hall           '-P 1'
loop_
_symmetry_equiv_pos_site_id
_symmetry_equiv_pos_as_xyz
1 x,y,z
2 -x,-y,-z
_cell_length_a                   9.801(7)
_cell_length_b                   10.017(7)
_cell_length_c                   13.394(10)
_cell_angle_alpha                72.699(12)
_cell_angle_beta                 87.461(12)
_cell_angle_gamma                67.245(12)
_cell_volume                     1154.02
_exptl_crystal_colour            yellow
_exptl_crystal_description       block
_cell_formula_units_Z            2
_exptl_crystal_recrystallization_method ethanol
loop_
_atom_site_label
_atom_site_type_symbol
_atom_site_fract_x
_atom_site_fract_y
_atom_site_fract_z
Cl1 Cl 0.31561(11) -0.03177(9) 1.23949(6)
O1 O 0.33863(19) 0.52114(18) 0.82502(13)
O2 O 0.1929(2) 0.79849(18) 0.81728(13)
O3 O 0.8114(2) 0.73860(19) 0.34903(13)
N1 N 0.6824(2) 0.5356(2) 0.52295(14)
N2 N 0.9681(2) 0.5011(2) 0.34090(14)
N3 N 0.9766(2) 0.3515(2) 0.38298(14)
C1 C 0.4521(3) 0.2578(3) 1.0311(2)
H1 H 0.5100 0.3123 1.0324
C2 C 0.4277(3) 0.1667(3) 1.1244(2)
H2 H 0.4686 0.1598 1.1880
C3 C 0.3428(3) 0.0872(3) 1.1219(2)
C4 C 0.2804(3) 0.0976(3) 1.0287(2)
H3 H 0.2223 0.0433 1.0279
C5 C 0.3050(3) 0.1895(3) 0.9361(2)
H4 H 0.2619 0.1975 0.8730
C6 C 0.3918(3) 0.2693(3) 0.93567(19)
C7 C 0.4223(3) 0.3649(3) 0.8344(2)
H5 H 0.5274 0.3448 0.8340
H6 H 0.3939 0.3405 0.7758
C8 C 0.3669(3) 0.6261(3) 0.74400(17)
C9 C 0.4663(3) 0.5934(3) 0.67059(17)
H7 H 0.5195 0.4926 0.6734
C10 C 0.4893(3) 0.7091(3) 0.59130(17)
C11 C 0.4082(3) 0.8578(3) 0.58806(19)
H8 H 0.4211 0.9359 0.5354
C12 C 0.3078(3) 0.8931(3) 0.66191(18)
H9 H 0.2547 0.9940 0.6589
C13 C 0.2868(3) 0.7784(3) 0.73989(17)
C14 C 0.1131(3) 0.9482(3) 0.8204(2)
H10 H 0.1812 0.9951 0.8230
H11 H 0.0581 0.9460 0.8816
H12 H 0.0457 1.0055 0.7587
C15 C 0.5993(3) 0.6730(3) 0.51574(18)
H13 H 0.6089 0.7514 0.4615
C16 C 0.7952(3) 0.5007(3) 0.45630(16)
C17 C 0.8767(3) 0.3550(3) 0.45759(17)
C18 C 0.8693(3) 0.2115(3) 0.52794(19)
H14 H 0.8572 0.1531 0.4863
H15 H 0.7865 0.2356 0.5699
H16 H 0.9594 0.1535 0.5729
C19 C 1.1221(3) 0.2280(3) 0.3982(2)
H17 H 1.1723 0.2150 0.4625
H18 H 1.1793 0.2517 0.3406
H19 H 1.1107 0.1358 0.4016
C20 C 0.8515(3) 0.5983(3) 0.37984(17)
C21 C 1.0371(2) 0.5420(3) 0.24704(17)
C22 C 1.0476(3) 0.4735(3) 0.17020(19)
H20 H 1.0066 0.4017 0.1775
C23 C 1.1195(3) 0.5124(4) 0.0823(2)
H21 H 1.1313 0.4631 0.0317
C24 C 1.1738(3) 0.6237(4) 0.0688(2)
H22 H 1.2199 0.6512 0.0085
C25 C 1.1601(3) 0.6941(3) 0.1444(2)
H23 H 1.1956 0.7704 0.1347
C26 C 1.0933(3) 0.6518(3) 0.23528(19)
H24 H 1.0865 0.6971 0.2877
loop_
_geom_bond_atom_site_label_1
_geom_bond_atom_site_label_2
_geom_bond_site_symmetry_1
_geom_bond_site_symmetry_2
Cl1 C3 1_555 1_555
O1 C7 1_555 1_555
O2 C13 1_555 1_555
O3 C20 1_555 1_555
N1 C15 1_555 1_555
N2 N3 1_555 1_555
N3 C17 1_555 1_555
C1 H1 1_555 1_555
C2 C1 1_555 1_555
H2 C2 1_555 1_555
C3 C2 1_555 1_555
C4 C3 1_555 1_555
H3 C4 1_555 1_555
C5 C4 1_555 1_555
H4 C5 1_555 1_555
C6 C1 1_555 1_555
C7 C6 1_555 1_555
H5 C7 1_555 1_555
H6 C7 1_555 1_555
C8 O1 1_555 1_555
C9 C8 1_555 1_555
H7 C9 1_555 1_555
C10 C9 1_555 1_555
C11 C10 1_555 1_555
H8 C11 1_555 1_555
C12 C11 1_555 1_555
H9 C12 1_555 1_555
C13 C8 1_555 1_555
C14 O2 1_555 1_555
H10 C14 1_555 1_555
H11 C14 1_555 1_555
H12 C14 1_555 1_555
C15 C10 1_555 1_555
H13 C15 1_555 1_555
C16 N1 1_555 1_555
C17 C16 1_555 1_555
C18 C17 1_555 1_555
H14 C18 1_555 1_555
H15 C18 1_555 1_555
H16 C18 1_555 1_555
C19 N3 1_555 1_555
H17 C19 1_555 1_555
H18 C19 1_555 1_555
H19 C19 1_555 1_555
C20 N2 1_555 1_555
C21 N2 1_555 1_555
C22 C21 1_555 1_555
H20 C22 1_555 1_555
C23 C22 1_555 1_555
H21 C23 1_555 1_555
C24 C23 1_555 1_555
H22 C24 1_555 1_555
C25 C24 1_555 1_555
H23 C25 1_555 1_555
C26 C21 1_555 1_555
H24 C26 1_555 1_555
C5 C6 1_555 1_555
C12 C13 1_555 1_555
C16 C20 1_555 1_555
C25 C26 1_555 1_555

#END
