
#######################################################################
#
#                 Cambridge Crystallographic Data Centre
#                                CCDC 
#
#######################################################################
#
# If this CIF has been generated from an entry in the Cambridge 
# Structural Database, then it will include bibliographic, chemical, 
# crystal, experimental, refinement or atomic coordinate data resulting 
# from the CCDC's data processing and validation procedures.
#
#######################################################################

data_ADEYUE
_chemical_formula_moiety         'C12 H10 N4 O1 2+,2(Cl1 O4 1-),H2 O1'
_chemical_name_systematic        
'2,5-Di(4-pyridinio)-1,3,4-oxadiazole bis(perchlorate) monohydrate'
_symmetry_cell_setting           monoclinic
_symmetry_space_group_name_H-M   'P 21/n'
_symmetry_Int_Tables_number      14
_space_group_name_Hall           '-P 2yn'
loop_
_symmetry_equiv_pos_site_id
_symmetry_equiv_pos_as_xyz
1 x,y,z
2 1/2-x,1/2+y,1/2-z
3 -x,-y,-z
4 1/2+x,1/2-y,1/2+z
_cell_length_a                   5.4662(5)
_cell_length_b                   19.448(2)
_cell_length_c                   16.3830(10)
_cell_angle_alpha                90
_cell_angle_beta                 95.6090(10)
_cell_angle_gamma                90
_cell_volume                     1733.28
_exptl_crystal_colour            colorless
_exptl_crystal_description       plate
_chemical_melting_point          '483-484 K'
_cell_formula_units_Z            4
loop_
_atom_site_label
_atom_site_type_symbol
_atom_site_fract_x
_atom_site_fract_y
_atom_site_fract_z
Cl1 Cl 0.1239(2) 1.04338(5) 0.62411(5)
O1 O 0.280(2) 1.0007(5) 0.5842(7)
O2 O -0.1070(10) 1.0129(4) 0.6320(6)
O3 O 0.2360(10) 1.0610(6) 0.7037(3)
O4 O 0.0860(10) 1.1062(3) 0.5798(5)
Cl2 Cl 0.6113(2) 0.20534(6) 0.23278(7)
O5 O 0.3470(10) 0.2072(4) 0.2067(6)
O6 O 0.730(2) 0.2315(5) 0.1679(5)
O7 O 0.676(2) 0.1377(4) 0.2506(7)
O8 O 0.649(2) 0.2480(6) 0.3025(5)
O9 O 0.5582(4) 0.65390(10) 0.45560(10)
N1 N 0.6157(7) 0.8916(2) 0.5679(2)
N2 N 0.9237(6) 0.6524(2) 0.5256(2)
N3 N 0.8819(7) 0.5889(2) 0.4868(2)
N4 N 0.3053(7) 0.4384(2) 0.3070(2)
C1 C 0.8118(8) 0.8590(2) 0.6032(2)
C2 C 0.8504(7) 0.7921(2) 0.5835(2)
C3 C 0.6837(7) 0.7597(2) 0.5270(2)
C4 C 0.4787(7) 0.7951(2) 0.4923(2)
C5 C 0.4506(8) 0.8624(2) 0.5145(2)
C6 C 0.7304(7) 0.6884(2) 0.5045(2)
C7 C 0.6690(7) 0.5925(2) 0.4474(2)
C8 C 0.5109(9) 0.4232(2) 0.3520(2)
C9 C 0.6337(8) 0.4730(2) 0.3990(2)
C10 C 0.5386(7) 0.5390(2) 0.3974(2)
C11 C 0.3236(7) 0.5533(2) 0.3487(2)
C12 C 0.2090(8) 0.5013(2) 0.3032(3)
H1 H 0.586(9) 0.9320(10) 0.582(3)
H2 H 0.237(8) 0.407(2) 0.277(2)
H3 H 0.9216 0.8817 0.6410
H4 H 0.9868 0.7685 0.6077
H5 H 0.3638 0.7738 0.4550
H6 H 0.3155 0.8875 0.4921
H7 H 0.5729 0.3787 0.3519
H8 H 0.7783 0.4627 0.4315
H9 H 0.2578 0.5974 0.3469
H10 H 0.0648 0.5100 0.2698
O10 O 0.1160(8) 0.3337(2) 0.2224(3)
H11 H -0.0364 0.3344 0.2030
H12 H 0.1922 0.3102 0.1856
O11? O 0.249(4) 1.0072(9) 0.5650(10)
O12? O -0.131(2) 1.0250(10) 0.6120(10)
O13? O 0.152(4) 1.1135(4) 0.617(2)
O14? O 0.219(3) 1.018(2) 0.7009(9)
O15? O 0.460(2) 0.2116(5) 0.1616(5)
O16? O 0.8660(10) 0.2026(5) 0.2118(6)
O17? O 0.580(2) 0.1419(4) 0.2730(6)
O18? O 0.598(2) 0.2602(5) 0.2877(6)
loop_
_geom_bond_atom_site_label_1
_geom_bond_atom_site_label_2
_geom_bond_site_symmetry_1
_geom_bond_site_symmetry_2
Cl1 O1 1_555 1_555
O2 Cl1 1_555 1_555
O3 Cl1 1_555 1_555
O4 Cl1 1_555 1_555
Cl2 O5 1_555 1_555
O6 Cl2 1_555 1_555
O7 Cl2 1_555 1_555
O8 Cl2 1_555 1_555
O9 C6 1_555 1_555
N1 C1 1_555 1_555
N2 N3 1_555 1_555
N3 C7 1_555 1_555
N4 C8 1_555 1_555
C1 C2 1_555 1_555
C2 C3 1_555 1_555
C3 C4 1_555 1_555
C4 C5 1_555 1_555
C5 N1 1_555 1_555
C6 N2 1_555 1_555
C7 O9 1_555 1_555
C8 C9 1_555 1_555
C9 C10 1_555 1_555
C10 C7 1_555 1_555
C11 C10 1_555 1_555
C12 N4 1_555 1_555
H1 N1 1_555 1_555
H2 N4 1_555 1_555
H3 C1 1_555 1_555
H4 C2 1_555 1_555
H5 C4 1_555 1_555
H6 C5 1_555 1_555
H7 C8 1_555 1_555
H8 C9 1_555 1_555
H9 C11 1_555 1_555
H10 C12 1_555 1_555
O10 H11 1_555 1_555
H12 O10 1_555 1_555
C3 C6 1_555 1_555
C11 C12 1_555 1_555

#END
