
#######################################################################
#
#                 Cambridge Crystallographic Data Centre
#                                CCDC 
#
#######################################################################
#
# If this CIF has been generated from an entry in the Cambridge 
# Structural Database, then it will include bibliographic, chemical, 
# crystal, experimental, refinement or atomic coordinate data resulting 
# from the CCDC's data processing and validation procedures.
#
#######################################################################

data_ADEZOA
_chemical_formula_moiety         'C19 H11 Br1 N2 O3'
_chemical_name_systematic        
2-Amino-4-(3-bromophenyl)-5-oxo-4H,5H-pyrano[3,2-c]chromene-3-carbonitrile
_symmetry_cell_setting           triclinic
_symmetry_space_group_name_H-M   'P -1'
_symmetry_Int_Tables_number      2
_space_group_name_Hall           '-P 1'
loop_
_symmetry_equiv_pos_site_id
_symmetry_equiv_pos_as_xyz
1 x,y,z
2 -x,-y,-z
_cell_length_a                   8.009(14)
_cell_length_b                   11.045(19)
_cell_length_c                   11.59(2)
_cell_angle_alpha                113.247(18)
_cell_angle_beta                 105.854(18)
_cell_angle_gamma                97.890(18)
_cell_volume                     870.636
_exptl_crystal_colour            colorless
_exptl_crystal_description       block
_cell_formula_units_Z            2
loop_
_atom_site_label
_atom_site_type_symbol
_atom_site_fract_x
_atom_site_fract_y
_atom_site_fract_z
Br1 Br 0.37062(6) 0.75714(6) 0.55856(6)
C1 C 0.6862(5) 0.7111(4) 0.7046(4)
H1 H 0.6381 0.7350 0.7724
C2 C 0.5934(5) 0.7081(4) 0.5820(4)
C3 C 0.6631(6) 0.6750(4) 0.4799(4)
H2 H 0.6014 0.6741 0.3988
C4 C 0.8262(7) 0.6435(5) 0.5013(4)
H3 H 0.8741 0.6205 0.4334
C5 C 0.9208(5) 0.6455(4) 0.6230(4)
H4 H 1.0311 0.6249 0.6357
C6 C 0.8504(5) 0.6784(3) 0.7259(3)
C7 C 0.9532(4) 0.6796(3) 0.8602(3)
H5 H 0.9034 0.7292 0.9275
C8 C 1.1568(4) 0.7493(3) 0.9129(3)
C9 C 1.2835(5) 0.6785(4) 0.9070(3)
C10 C 1.0632(4) 0.4705(3) 0.8362(3)
C11 C 0.9307(4) 0.5349(3) 0.8440(3)
C12 C 1.2200(5) 0.8947(4) 0.9620(4)
C13 C 1.0360(5) 0.3268(3) 0.8030(3)
C14 C 1.1697(5) 0.2563(4) 0.7869(4)
H6 H 1.2850 0.3030 0.8012
C15 C 1.1266(6) 0.1172(4) 0.7498(4)
H7 H 1.2134 0.0701 0.7388
C16 C 0.9539(6) 0.0472(4) 0.7288(4)
H8 H 0.9273 -0.0463 0.7035
C17 C 0.8206(6) 0.1136(4) 0.7447(4)
H9 H 0.7060 0.0661 0.7310
C18 C 0.8638(5) 0.2534(4) 0.7817(3)
C19 C 0.7580(5) 0.4569(4) 0.8316(3)
N1 N 1.2758(5) 1.0114(4) 1.0005(4)
N2 N 1.4631(5) 0.7263(4) 0.9443(4)
O1 O 1.2357(3) 0.5368(2) 0.8571(2)
O2 O 0.6325(3) 0.5042(2) 0.8492(3)
O3 O 0.7308(3) 0.3193(2) 0.8002(2)
H10 H 1.530(5) 0.668(4) 0.933(4)
H11 H 1.509(5) 0.806(4) 0.967(4)
loop_
_geom_bond_atom_site_label_1
_geom_bond_atom_site_label_2
_geom_bond_site_symmetry_1
_geom_bond_site_symmetry_2
Br1 C2 1_555 1_555
C1 H1 1_555 1_555
C2 C1 1_555 1_555
C3 C2 1_555 1_555
H2 C3 1_555 1_555
C4 C3 1_555 1_555
H3 C4 1_555 1_555
C5 C4 1_555 1_555
H4 C5 1_555 1_555
C6 C1 1_555 1_555
C7 C6 1_555 1_555
H5 C7 1_555 1_555
C8 C7 1_555 1_555
C9 C8 1_555 1_555
C10 C11 1_555 1_555
C11 C7 1_555 1_555
C12 C8 1_555 1_555
C13 C10 1_555 1_555
C14 C13 1_555 1_555
H6 C14 1_555 1_555
C15 C14 1_555 1_555
H7 C15 1_555 1_555
C16 C15 1_555 1_555
H8 C16 1_555 1_555
C17 C16 1_555 1_555
H9 C17 1_555 1_555
C18 C13 1_555 1_555
C19 C11 1_555 1_555
N1 C12 1_555 1_555
N2 C9 1_555 1_555
O1 C9 1_555 1_555
O2 C19 1_555 1_555
O3 C18 1_555 1_555
H10 N2 1_555 1_555
H11 N2 1_555 1_555
C5 C6 1_555 1_555
C10 O1 1_555 1_555
C17 C18 1_555 1_555
C19 O3 1_555 1_555

#END
