
#######################################################################
#
#                 Cambridge Crystallographic Data Centre
#                                CCDC 
#
#######################################################################
#
# If this CIF has been generated from an entry in the Cambridge 
# Structural Database, then it will include bibliographic, chemical, 
# crystal, experimental, refinement or atomic coordinate data resulting 
# from the CCDC's data processing and validation procedures.
#
#######################################################################

data_ADEZEP
_chemical_formula_moiety         'C13 H17 N3 O2 S1'
_chemical_name_systematic        N-Benzoyl-N'-(t-butylaminocarbonyl)thiourea
_chemical_properties_biological  
'inhibits viruses in cultured MDCK cells; potential in structure optimization and drug design and development'
_symmetry_cell_setting           monoclinic
_symmetry_space_group_name_H-M   'P 21/c'
_symmetry_Int_Tables_number      14
_space_group_name_Hall           '-P 2ybc'
loop_
_symmetry_equiv_pos_site_id
_symmetry_equiv_pos_as_xyz
1 x,y,z
2 -x,1/2+y,1/2-z
3 -x,-y,-z
4 x,1/2-y,1/2+z
_cell_length_a                   11.4872(13)
_cell_length_b                   30.416(3)
_cell_length_c                   8.3472(9)
_cell_angle_alpha                90
_cell_angle_beta                 90.317(2)
_cell_angle_gamma                90
_cell_volume                     2916.42
_exptl_crystal_colour            colorless
_exptl_crystal_description       block
_chemical_melting_point          '438 K'
_cell_formula_units_Z            8
_exptl_crystal_recrystallization_method chloroform
loop_
_atom_site_label
_atom_site_type_symbol
_atom_site_fract_x
_atom_site_fract_y
_atom_site_fract_z
S1 S 0.79306(9) 0.16321(4) 0.79603(13)
O1 O 0.5447(2) 0.06290(9) 0.5833(3)
O2 O 0.4461(2) 0.11788(9) 0.9901(3)
N1 N 0.7097(2) 0.10417(9) 0.5959(3)
H1 H 0.7760 0.1082 0.5508
N2 N 0.5910(2) 0.11855(9) 0.8110(4)
H2 H 0.5529 0.0971 0.7687
N3 N 0.5797(3) 0.17268(10) 1.0106(4)
H3 H 0.6455 0.1816 0.9744
C1 C 0.7472(3) 0.07993(14) 0.2615(5)
H4 H 0.7901 0.1036 0.3007
C2 C 0.7662(4) 0.06469(15) 0.1064(5)
H5 H 0.8221 0.0780 0.0424
C3 C 0.7027(4) 0.03007(15) 0.0483(6)
H6 H 0.7140 0.0205 -0.0562
C4 C 0.6223(4) 0.00945(15) 0.1433(6)
H7 H 0.5817 -0.0149 0.1054
C5 C 0.6025(4) 0.02521(14) 0.2957(5)
H8 H 0.5457 0.0120 0.3585
C6 C 0.6650(3) 0.06011(12) 0.3569(4)
C7 C 0.6353(3) 0.07513(12) 0.5195(5)
C8 C 0.6910(3) 0.12736(12) 0.7346(4)
C9 C 0.5346(3) 0.13683(13) 0.9458(4)
C10 C 0.5260(3) 0.19858(13) 1.1404(5)
C11 C 0.4058(4) 0.21378(15) 1.0916(6)
H9 H 0.4101 0.2290 0.9910
H10 H 0.3757 0.2332 1.1718
H11 H 0.3554 0.1888 1.0808
C12 C 0.5229(5) 0.17158(15) 1.2950(5)
H12 H 0.4767 0.1457 1.2783
H13 H 0.4895 0.1889 1.3791
H14 H 0.6007 0.1632 1.3246
C13 C 0.6051(4) 0.23842(14) 1.1636(6)
H15 H 0.6792 0.2290 1.2045
H16 H 0.5700 0.2584 1.2382
H17 H 0.6157 0.2530 1.0626
S2 S 0.29495(9) 0.16151(4) 0.67323(14)
O3 O 0.0376(3) 0.06627(10) 0.8909(3)
O4 O -0.0568(2) 0.11950(9) 0.4793(3)
N4 N 0.2075(2) 0.10421(9) 0.8759(3)
H18 H 0.2746 0.1071 0.9209
N5 N 0.0896(2) 0.11953(10) 0.6606(3)
H19 H 0.0501 0.0990 0.7054
N6 N 0.0804(3) 0.17309(10) 0.4591(4)
H20 H 0.1466 0.1817 0.4961
C14 C 0.2516(4) 0.07735(15) 1.2083(5)
H21 H 0.3001 0.0988 1.1660
C15 C 0.2727(4) 0.06173(16) 1.3606(6)
H22 H 0.3357 0.0722 1.4197
C16 C 0.1998(4) 0.03061(16) 1.4244(6)
H23 H 0.2130 0.0201 1.5276
C17 C 0.1088(5) 0.01518(16) 1.3373(6)
H24 H 0.0602 -0.0060 1.3812
C18 C 0.0875(4) 0.03028(14) 1.1859(5)
H25 H 0.0243 0.0195 1.1280
C19 C 0.1606(3) 0.06185(12) 1.1178(4)
C20 C 0.1297(3) 0.07702(12) 0.9537(5)
C21 C 0.1912(3) 0.12751(11) 0.7339(4)
C22 C 0.0332(3) 0.13784(13) 0.5245(4)
C23 C 0.0276(4) 0.19883(13) 0.3268(5)
C24 C -0.0937(4) 0.21496(15) 0.3744(6)
H26 H -0.1447 0.1902 0.3866
H27 H -0.1237 0.2341 0.2924
H28 H -0.0887 0.2307 0.4738
C25 C 0.0233(5) 0.17172(15) 0.1766(5)
H29 H 0.1009 0.1637 0.1462
H30 H -0.0123 0.1885 0.0921
H31 H -0.0216 0.1456 0.1953
C26 C 0.1081(4) 0.23872(15) 0.3064(6)
H32 H 0.1071 0.2561 0.4023
H33 H 0.0815 0.2562 0.2176
H34 H 0.1860 0.2288 0.2864
loop_
_geom_bond_atom_site_label_1
_geom_bond_atom_site_label_2
_geom_bond_site_symmetry_1
_geom_bond_site_symmetry_2
S1 C8 1_555 1_555
O1 C7 1_555 1_555
O2 C9 1_555 1_555
N1 H1 1_555 1_555
N2 H2 1_555 1_555
N3 H3 1_555 1_555
C1 H4 1_555 1_555
C2 C1 1_555 1_555
H5 C2 1_555 1_555
C3 C2 1_555 1_555
H6 C3 1_555 1_555
C4 C3 1_555 1_555
H7 C4 1_555 1_555
C5 C4 1_555 1_555
H8 C5 1_555 1_555
C6 C1 1_555 1_555
C7 N1 1_555 1_555
C8 N1 1_555 1_555
C9 N2 1_555 1_555
C10 N3 1_555 1_555
C11 C10 1_555 1_555
H9 C11 1_555 1_555
H10 C11 1_555 1_555
H11 C11 1_555 1_555
C12 C10 1_555 1_555
H12 C12 1_555 1_555
H13 C12 1_555 1_555
H14 C12 1_555 1_555
C13 C10 1_555 1_555
H15 C13 1_555 1_555
H16 C13 1_555 1_555
H17 C13 1_555 1_555
S2 C21 1_555 1_555
O3 C20 1_555 1_555
O4 C22 1_555 1_555
N4 H18 1_555 1_555
N5 H19 1_555 1_555
N6 H20 1_555 1_555
C14 H21 1_555 1_555
C15 C14 1_555 1_555
H22 C15 1_555 1_555
C16 C15 1_555 1_555
H23 C16 1_555 1_555
C17 C16 1_555 1_555
H24 C17 1_555 1_555
C18 C17 1_555 1_555
H25 C18 1_555 1_555
C19 C14 1_555 1_555
C20 N4 1_555 1_555
C21 N4 1_555 1_555
C22 N5 1_555 1_555
C23 N6 1_555 1_555
C24 C23 1_555 1_555
H26 C24 1_555 1_555
H27 C24 1_555 1_555
H28 C24 1_555 1_555
C25 C23 1_555 1_555
H29 C25 1_555 1_555
H30 C25 1_555 1_555
H31 C25 1_555 1_555
C26 C23 1_555 1_555
H32 C26 1_555 1_555
H33 C26 1_555 1_555
H34 C26 1_555 1_555
N2 C8 1_555 1_555
N3 C9 1_555 1_555
C5 C6 1_555 1_555
C6 C7 1_555 1_555
N5 C21 1_555 1_555
N6 C22 1_555 1_555
C18 C19 1_555 1_555
C19 C20 1_555 1_555

#END
