
#######################################################################
#
#                 Cambridge Crystallographic Data Centre
#                                CCDC 
#
#######################################################################
#
# If this CIF has been generated from an entry in the Cambridge 
# Structural Database, then it will include bibliographic, chemical, 
# crystal, experimental, refinement or atomic coordinate data resulting 
# from the CCDC's data processing and validation procedures.
#
#######################################################################

data_ADEZAL
_chemical_name_common            
1-(2-Furylmethylene)-4-phenylthiosemicarbazide
_chemical_formula_moiety         'C12 H11 N3 O1 S1'
_chemical_name_systematic        
2-(2-Furylmethylene)-N-phenylhydrazinecarbothioamide
_symmetry_cell_setting           triclinic
_symmetry_space_group_name_H-M   'P -1'
_symmetry_Int_Tables_number      2
_space_group_name_Hall           '-P 1'
loop_
_symmetry_equiv_pos_site_id
_symmetry_equiv_pos_as_xyz
1 x,y,z
2 -x,-y,-z
_cell_length_a                   5.8810(12)
_cell_length_b                   9.878(2)
_cell_length_c                   11.186(2)
_cell_angle_alpha                71.45(3)
_cell_angle_beta                 83.18(3)
_cell_angle_gamma                88.95(3)
_cell_volume                     611.572
_exptl_crystal_colour            brown
_exptl_crystal_description       block
_chemical_melting_point          '402-404 K'
_cell_formula_units_Z            2
_exptl_crystal_recrystallization_method acetone
loop_
_atom_site_label
_atom_site_type_symbol
_atom_site_fract_x
_atom_site_fract_y
_atom_site_fract_z
S1 S -0.00860(11) 0.88112(8) 0.36216(6)
O1 O 0.9002(4) 1.3198(3) 0.2645(2)
N1 N 0.4182(3) 0.9470(2) 0.2383(2)
H1 H 0.5460 0.9911 0.2321
N2 N 0.2959(4) 1.0658(2) 0.3766(2)
H2 H 0.2008 1.0786 0.4365
N3 N 0.4977(3) 1.1451(2) 0.33697(19)
C1 C 0.5891(5) 0.7683(3) 0.1526(3)
H3 H 0.7064 0.7605 0.2032
C2 C 0.5921(5) 0.6884(3) 0.0697(3)
H4 H 0.7117 0.6267 0.0652
C3 C 0.4183(5) 0.7005(3) -0.0058(3)
H5 H 0.4215 0.6472 -0.0611
C4 C 0.2400(5) 0.7916(3) 0.0008(3)
H6 H 0.1226 0.7990 -0.0497
C5 C 0.2351(4) 0.8722(3) 0.0826(2)
H7 H 0.1158 0.9344 0.0864
C6 C 0.4102(4) 0.8591(2) 0.1588(2)
C7 C 0.2480(4) 0.9684(2) 0.3215(2)
C8 C 0.5265(4) 1.2403(3) 0.3894(2)
H8 H 0.4165 1.2503 0.4528
C9 C 0.7263(5) 1.3318(3) 0.3514(2)
C10 C 0.7627(5) 1.4413(3) 0.3950(3)
H9 H 0.6682 1.4706 0.4545
C11 C 0.9788(8) 1.5019(4) 0.3294(5)
H10 H 1.0510 1.5807 0.3379
C12 C 1.0581(6) 1.4289(5) 0.2557(5)
H11 H 1.1983 1.4462 0.2048
loop_
_geom_bond_atom_site_label_1
_geom_bond_atom_site_label_2
_geom_bond_site_symmetry_1
_geom_bond_site_symmetry_2
S1 C7 1_555 1_555
O1 C9 1_555 1_555
N1 H1 1_555 1_555
N2 H2 1_555 1_555
N3 N2 1_555 1_555
C1 H3 1_555 1_555
C2 C1 1_555 1_555
H4 C2 1_555 1_555
C3 C2 1_555 1_555
H5 C3 1_555 1_555
C4 C3 1_555 1_555
H6 C4 1_555 1_555
C5 C4 1_555 1_555
H7 C5 1_555 1_555
C6 N1 1_555 1_555
C7 N1 1_555 1_555
C8 N3 1_555 1_555
H8 C8 1_555 1_555
C9 C8 1_555 1_555
C10 C9 1_555 1_555
H9 C10 1_555 1_555
C11 C10 1_555 1_555
H10 C11 1_555 1_555
C12 O1 1_555 1_555
H11 C12 1_555 1_555
N2 C7 1_555 1_555
C1 C6 1_555 1_555
C5 C6 1_555 1_555
C11 C12 1_555 1_555

#END
