
#######################################################################
#
#                 Cambridge Crystallographic Data Centre
#                                CCDC 
#
#######################################################################
#
# If this CIF has been generated from an entry in the Cambridge 
# Structural Database, then it will include bibliographic, chemical, 
# crystal, experimental, refinement or atomic coordinate data resulting 
# from the CCDC's data processing and validation procedures.
#
#######################################################################

data_ADGALA01
_chemical_formula_moiety         'C6 H12 O6'
_chemical_name_systematic        \a-D-Galactose
_symmetry_cell_setting           orthorhombic
_symmetry_space_group_name_H-M   'P 21 21 21'
_symmetry_Int_Tables_number      19
_space_group_name_Hall           'P 2ac 2ab'
loop_
_symmetry_equiv_pos_site_id
_symmetry_equiv_pos_as_xyz
1 x,y,z
2 1/2+x,1/2-y,-z
3 -x,1/2+y,1/2-z
4 1/2-x,-y,1/2+z
_cell_length_a                   5.939(2)
_cell_length_b                   7.871(2)
_cell_length_c                   15.800(4)
_cell_angle_alpha                90
_cell_angle_beta                 90
_cell_angle_gamma                90
_cell_volume                     738.585
_cell_formula_units_Z            4
loop_
_atom_site_label
_atom_site_type_symbol
_atom_site_fract_x
_atom_site_fract_y
_atom_site_fract_z
C1 C -0.48070 -0.24920 0.15570
C2 C -0.33590 -0.32160 0.22400
C3 C -0.10980 -0.37790 0.18810
C4 C -0.14890 -0.50950 0.11800
C5 C -0.30840 -0.43360 0.05210
C6 C -0.38290 -0.55640 -0.01600
O1 O -0.37390 -0.10430 0.12200
O2 O -0.31200 -0.20060 0.29230
O3 O 0.03000 -0.44690 0.25330
O4 O -0.23130 -0.66830 0.15260
O5 O -0.51260 -0.37720 0.09120
O6 O -0.18850 -0.60300 -0.06260
H1 H -0.65200 -0.19500 0.17400
H2 H -0.42200 -0.42700 0.25500
H3 H -0.06500 -0.28000 0.15700
H4 H -0.00900 -0.52800 0.08400
H5 H -0.20300 -0.33500 0.02500
H6 H -0.45800 -0.51300 -0.06500
H7 H -0.46200 -0.65300 0.00600
H8 H -0.22300 -0.67000 -0.11600
H9 H -0.47600 -0.09700 0.06500
H10 H -0.21600 -0.13400 0.27400
H11 H 0.05600 -0.36500 0.30300
H12 H -0.23800 -0.68800 0.21900
loop_
_geom_bond_atom_site_label_1
_geom_bond_atom_site_label_2
_geom_bond_site_symmetry_1
_geom_bond_site_symmetry_2
C1 C2 1_555 1_555
C2 C3 1_555 1_555
C3 C4 1_555 1_555
C4 C5 1_555 1_555
C5 C6 1_555 1_555
C6 O6 1_555 1_555
O1 C1 1_555 1_555
O2 C2 1_555 1_555
O3 C3 1_555 1_555
O4 C4 1_555 1_555
O5 C1 1_555 1_555
O6 H8 1_555 1_555
H1 C1 1_555 1_555
H2 C2 1_555 1_555
H3 C3 1_555 1_555
H4 C4 1_555 1_555
H5 C5 1_555 1_555
H6 C6 1_555 1_555
H7 C6 1_555 1_555
H9 O1 1_555 1_555
H10 O2 1_555 1_555
H11 O3 1_555 1_555
H12 O4 1_555 1_555
C5 O5 1_555 1_555

#END
