
#######################################################################
#
#                 Cambridge Crystallographic Data Centre
#                                CCDC 
#
#######################################################################
#
# If this CIF has been generated from an entry in the Cambridge 
# Structural Database, then it will include bibliographic, chemical, 
# crystal, experimental, refinement or atomic coordinate data resulting 
# from the CCDC's data processing and validation procedures.
#
#######################################################################

data_ADIBAR
_chemical_formula_moiety         'C9 H8 O2'
_chemical_name_systematic        '1,2-Dihydrobenzocyclobutene-4-carboxylic acid'
_symmetry_cell_setting           monoclinic
_symmetry_space_group_name_H-M   'P 21/n'
_symmetry_Int_Tables_number      14
_space_group_name_Hall           '-P 2yn'
loop_
_symmetry_equiv_pos_site_id
_symmetry_equiv_pos_as_xyz
1 x,y,z
2 1/2-x,1/2+y,1/2-z
3 -x,-y,-z
4 1/2+x,1/2-y,1/2+z
_cell_length_a                   7.233(2)
_cell_length_b                   5.886(3)
_cell_length_c                   17.682(4)
_cell_angle_alpha                90
_cell_angle_beta                 98.26(2)
_cell_angle_gamma                90
_cell_volume                     744.974
_exptl_crystal_colour            colorless
_exptl_crystal_description       block
_chemical_melting_point          '413-414 K'
_cell_formula_units_Z            4
_exptl_crystal_recrystallization_method ethanol
loop_
_atom_site_label
_atom_site_type_symbol
_atom_site_fract_x
_atom_site_fract_y
_atom_site_fract_z
O1 O 0.9561(4) 0.2530(5) 0.05149(15)
H1 H 0.9561 0.3108 0.0093
O2 O 1.0545(4) 0.5978(5) 0.08871(14)
C1 C 1.0093(5) 0.4014(6) 0.1039(2)
C2 C 1.0090(5) 0.3285(6) 0.18377(19)
C3 C 0.9415(5) 0.1132(6) 0.1995(2)
H2 H 0.9074 0.0122 0.1595
C4 C 0.9243(5) 0.0475(6) 0.2734(2)
H3 H 0.8785 -0.0948 0.2841
C5 C 0.9781(5) 0.2027(6) 0.3297(2)
C6 C 0.9907(6) 0.2498(7) 0.4143(2)
H4 H 1.0765 0.1510 0.4463
H5 H 0.8707 0.2579 0.4326
C7 C 1.0750(6) 0.4868(7) 0.3979(2)
H6 H 0.9985 0.6153 0.4082
H7 H 1.2041 0.5074 0.4207
C8 C 1.0501(5) 0.4141(6) 0.3146(2)
C9 C 1.0680(5) 0.4831(6) 0.24182(18)
H8 H 1.1166 0.6245 0.2319
loop_
_geom_bond_atom_site_label_1
_geom_bond_atom_site_label_2
_geom_bond_site_symmetry_1
_geom_bond_site_symmetry_2
O1 H1 1_555 1_555
O2 C1 1_555 1_555
C1 O1 1_555 1_555
C2 C1 1_555 1_555
C3 C2 1_555 1_555
H2 C3 1_555 1_555
C4 C3 1_555 1_555
H3 C4 1_555 1_555
C5 C4 1_555 1_555
C6 C5 1_555 1_555
H4 C6 1_555 1_555
H5 C6 1_555 1_555
C7 C6 1_555 1_555
H6 C7 1_555 1_555
H7 C7 1_555 1_555
C8 C5 1_555 1_555
C9 C2 1_555 1_555
H8 C9 1_555 1_555
C7 C8 1_555 1_555
C8 C9 1_555 1_555

#END
