
#######################################################################
#
#                 Cambridge Crystallographic Data Centre
#                                CCDC 
#
#######################################################################
#
# If this CIF has been generated from an entry in the Cambridge 
# Structural Database, then it will include bibliographic, chemical, 
# crystal, experimental, refinement or atomic coordinate data resulting 
# from the CCDC's data processing and validation procedures.
#
#######################################################################

data_ADIBOF
_chemical_compound_source        'aerial part of Cucubalus baccifer (L.)'
_chemical_formula_moiety         'C18 H16 O6,H2 O1'
_chemical_name_systematic        
"3-Hydroxy-5,7,4'-trimethoxyflavone monohydrate"
_chemical_properties_biological  
'Cucubalus baccifer (L.) is a Chinese folk herb used for arthritis, pulmonary tuberculosis and scrofula'
_symmetry_cell_setting           orthorhombic
_symmetry_space_group_name_H-M   'P 21 21 21'
_symmetry_Int_Tables_number      19
_space_group_name_Hall           'P 2ac 2ab'
loop_
_symmetry_equiv_pos_site_id
_symmetry_equiv_pos_as_xyz
1 x,y,z
2 1/2+x,1/2-y,-z
3 -x,1/2+y,1/2-z
4 1/2-x,-y,1/2+z
_cell_length_a                   5.2764(11)
_cell_length_b                   11.5152(18)
_cell_length_c                   26.639(3)
_cell_angle_alpha                90
_cell_angle_beta                 90
_cell_angle_gamma                90
_cell_volume                     1618.55
_exptl_crystal_colour            colorless
_exptl_crystal_description       block
_chemical_melting_point          '421.2-423.2 K'
_cell_formula_units_Z            4
_exptl_crystal_recrystallization_method chloroform
loop_
_atom_site_label
_atom_site_type_symbol
_atom_site_fract_x
_atom_site_fract_y
_atom_site_fract_z
O1 O 0.1614(4) 0.12616(17) 0.15392(7)
O2 O 0.4494(5) -0.14792(19) 0.12276(8)
H1 H 0.426(9) -0.181(4) 0.0971(15)
O3 O 0.0826(5) -0.1390(2) 0.05546(8)
O4 O -0.2816(5) -0.01192(19) 0.01006(8)
O5 O -0.5008(5) 0.3479(2) 0.08285(9)
O6 O 1.0136(5) 0.0666(2) 0.31615(8)
C1 C 0.3190(5) 0.0323(2) 0.15639(10)
C2 C 0.2949(5) -0.0540(2) 0.12182(10)
C3 C 0.0999(6) -0.0523(3) 0.08330(10)
C4 C -0.2472(6) 0.0720(3) 0.04505(10)
C5 C -0.3886(6) 0.1724(3) 0.04650(11)
H2 H -0.5118 0.1861 0.0222
C6 C -0.3465(6) 0.2540(3) 0.08465(12)
C7 C -0.1581(6) 0.2379(3) 0.11984(11)
H3 H -0.1261 0.2933 0.1444
C8 C -0.0189(5) 0.1368(3) 0.11736(10)
C9 C -0.0548(6) 0.0507(2) 0.08123(10)
C10 C 0.4972(5) 0.0413(3) 0.19848(10)
C11 C 0.4923(6) 0.1374(3) 0.23001(11)
H4 H 0.3732 0.1956 0.2244
C12 C 0.6611(6) 0.1485(3) 0.26954(12)
H5 H 0.6534 0.2134 0.2903
C13 C 0.8402(6) 0.0638(3) 0.27833(11)
C14 C 0.8471(6) -0.0324(3) 0.24754(12)
H6 H 0.9661 -0.0904 0.2534
C15 C 0.6793(6) -0.0436(3) 0.20809(12)
H7 H 0.6878 -0.1088 0.1876
C16 C -0.4747(7) 0.0049(3) -0.02683(12)
H8 H -0.6363 0.0117 -0.0105
H9 H -0.4774 -0.0603 -0.0493
H10 H -0.4402 0.0745 -0.0455
C17 C -0.4881(9) 0.4289(4) 0.12289(17)
H11 H -0.5415 0.3922 0.1535
H12 H -0.5972 0.4936 0.1158
H13 H -0.3169 0.4559 0.1265
C18 C 1.0297(9) 0.1687(3) 0.34528(15)
H14 H 1.0547 0.2343 0.3236
H15 H 1.1697 0.1626 0.3681
H16 H 0.8755 0.1787 0.3639
O7 O 0.6077(6) 0.7157(2) 0.04693(10)
H17 H 0.551(10) 0.682(4) 0.0184(18)
H18 H 0.746(10) 0.762(4) 0.0469(18)
loop_
_geom_bond_atom_site_label_1
_geom_bond_atom_site_label_2
_geom_bond_site_symmetry_1
_geom_bond_site_symmetry_2
O1 C1 1_555 1_555
O2 H1 1_555 1_555
O3 C3 1_555 1_555
O4 C4 1_555 1_555
O5 C6 1_555 1_555
O6 C13 1_555 1_555
C1 C2 1_555 1_555
C2 O2 1_555 1_555
C3 C2 1_555 1_555
C4 C5 1_555 1_555
C5 H2 1_555 1_555
C6 C5 1_555 1_555
C7 C6 1_555 1_555
H3 C7 1_555 1_555
C8 O1 1_555 1_555
C9 C3 1_555 1_555
C10 C1 1_555 1_555
C11 C10 1_555 1_555
H4 C11 1_555 1_555
C12 C11 1_555 1_555
H5 C12 1_555 1_555
C13 C12 1_555 1_555
C14 C13 1_555 1_555
H6 C14 1_555 1_555
C15 C10 1_555 1_555
H7 C15 1_555 1_555
C16 O4 1_555 1_555
H8 C16 1_555 1_555
H9 C16 1_555 1_555
H10 C16 1_555 1_555
C17 O5 1_555 1_555
H11 C17 1_555 1_555
H12 C17 1_555 1_555
H13 C17 1_555 1_555
C18 O6 1_555 1_555
H14 C18 1_555 1_555
H15 C18 1_555 1_555
H16 C18 1_555 1_555
O7 H17 1_555 1_555
H18 O7 1_555 1_555
C4 C9 1_555 1_555
C7 C8 1_555 1_555
C8 C9 1_555 1_555
C14 C15 1_555 1_555

#END
