
#######################################################################
#
#                 Cambridge Crystallographic Data Centre
#                                CCDC 
#
#######################################################################
#
# If this CIF has been generated from an entry in the Cambridge 
# Structural Database, then it will include bibliographic, chemical, 
# crystal, experimental, refinement or atomic coordinate data resulting 
# from the CCDC's data processing and validation procedures.
#
#######################################################################

data_ADIBEV
_chemical_formula_moiety         'C11 H22 O8 P2,0.5(H2 O1)'
_chemical_name_systematic        
'3,9-bis(2-Hydroxy-2-propyl)-2,4,8,10-tetraoxa-3,9-diphosphaspiro(5.5)undecane 3,9-dioxide hemihydrate'
_symmetry_cell_setting           triclinic
_symmetry_space_group_name_H-M   'P -1'
_symmetry_Int_Tables_number      2
_space_group_name_Hall           '-P 1'
loop_
_symmetry_equiv_pos_site_id
_symmetry_equiv_pos_as_xyz
1 x,y,z
2 -x,-y,-z
_cell_length_a                   7.5500(15)
_cell_length_b                   10.539(2)
_cell_length_c                   21.068(4)
_cell_angle_alpha                86.28(3)
_cell_angle_beta                 82.40(3)
_cell_angle_gamma                77.11(3)
_cell_volume                     1618.68
_exptl_crystal_colour            colorless
_exptl_crystal_description       block
_chemical_melting_point          '460.15 K'
_cell_formula_units_Z            4
_exptl_crystal_recrystallization_method 'ethyl acetate'
loop_
_atom_site_label
_atom_site_type_symbol
_atom_site_fract_x
_atom_site_fract_y
_atom_site_fract_z
P1 P 0.44396(19) 0.31670(13) 0.38743(7)
P2 P 0.9125(2) 0.18520(13) 0.59305(7)
O1 O 0.6733(5) 0.1769(4) 0.30315(19)
H1 H 0.7148 0.1729 0.2652
O2 O 0.2553(5) 0.3912(4) 0.40060(19)
O3 O 0.5861(5) 0.4049(3) 0.38880(18)
O4 O 0.4912(5) 0.2043(3) 0.43991(17)
O5 O 0.7199(5) 0.2698(4) 0.57947(17)
O6 O 1.0033(5) 0.1282(3) 0.52696(17)
O7 O 0.8964(6) 0.0796(4) 0.6408(2)
O8 O 1.0373(5) 0.4006(3) 0.56866(18)
H2 H 0.9495 0.4593 0.5798
C1 C 0.3594(10) 0.1514(7) 0.3066(3)
H3 H 0.3812 0.1141 0.2651
H4 H 0.2342 0.1978 0.3142
H5 H 0.3831 0.0833 0.3389
C2 C 0.4552(9) 0.3548(7) 0.2583(3)
H6 H 0.4766 0.3187 0.2166
H7 H 0.5382 0.4109 0.2607
H8 H 0.3315 0.4040 0.2657
C3 C 0.4861(8) 0.2453(6) 0.3090(3)
C4 C 0.6777(7) 0.1510(5) 0.4537(3)
H9 H 0.7437 0.0965 0.4191
H10 H 0.6753 0.0970 0.4928
C5 C 0.7734(8) 0.3479(5) 0.4018(3)
H11 H 0.8353 0.4171 0.4073
H12 H 0.8391 0.2985 0.3654
C6 C 0.7774(7) 0.2590(5) 0.4615(2)
C7 C 0.9781(7) 0.2013(5) 0.4677(3)
H13 H 1.0298 0.1447 0.4323
H14 H 1.0438 0.2711 0.4649
C8 C 0.6888(7) 0.3408(5) 0.5192(2)
H15 H 0.7382 0.4186 0.5174
H16 H 0.5581 0.3680 0.5172
C9 C 1.0472(8) 0.2955(5) 0.6156(3)
C10 C 0.9742(9) 0.3465(6) 0.6821(3)
H17 H 1.0471 0.4036 0.6932
H18 H 0.9799 0.2746 0.7128
H19 H 0.8495 0.3933 0.6824
C11 C 1.2472(8) 0.2251(6) 0.6116(3)
H20 H 1.3185 0.2826 0.6237
H21 H 1.2903 0.1988 0.5685
H22 H 1.2591 0.1497 0.6401
P3 P 0.43336(19) 0.28132(12) -0.09753(7)
P4 P 0.87526(18) 0.22883(12) 0.11576(6)
O9 O 0.6341(6) 0.0787(4) -0.1529(2)
H23 H 0.6605 0.0269 -0.1819
O10 O 0.2514(5) 0.3659(3) -0.09177(19)
O11 O 0.4651(5) 0.1931(3) -0.03468(16)
O12 O 0.5865(5) 0.3626(3) -0.10506(18)
O13 O 0.6930(4) 0.3141(3) 0.09362(16)
O14 O 0.9597(5) 0.1358(3) 0.05814(16)
O15 O 0.8384(5) 0.1542(3) 0.17518(17)
O16 O 1.0282(5) 0.4241(3) 0.06865(17)
H24 H 0.9440 0.4877 0.0754
C12 C 0.3176(10) 0.1091(7) -0.1638(4)
H25 H 0.3395 0.0529 -0.1994
H26 H 0.2071 0.1739 -0.1670
H27 H 0.3053 0.0586 -0.1245
C13 C 0.5037(9) 0.2506(6) -0.2273(3)
H28 H 0.5251 0.1930 -0.2623
H29 H 0.6074 0.2893 -0.2274
H30 H 0.3965 0.3177 -0.2318
C14 C 0.4756(7) 0.1746(5) -0.1647(3)
C15 C 0.7690(7) 0.3064(5) -0.0872(3)
H31 H 0.8394 0.3735 -0.0900
H32 H 0.8318 0.2395 -0.1168
C16 C 0.6442(7) 0.1427(5) -0.0142(3)
H33 H 0.7091 0.0709 -0.0406
H34 H 0.6300 0.1098 0.0298
C17 C 0.7565(7) 0.2475(5) -0.0192(2)
C18 C 0.6727(8) 0.3562(5) 0.0273(2)
H35 H 0.7312 0.4291 0.0163
H36 H 0.5436 0.3860 0.0229
C19 C 0.9528(7) 0.1871(5) -0.0075(2)
H37 H 1.0038 0.1174 -0.0369
H38 H 1.0263 0.2524 -0.0156
C20 C 1.0306(7) 0.3363(5) 0.1231(2)
C21 C 1.2267(7) 0.2547(5) 0.1200(3)
H39 H 1.3093 0.3104 0.1238
H40 H 1.2594 0.2124 0.0798
H41 H 1.2343 0.1902 0.1544
C22 C 0.9717(8) 0.4078(5) 0.1852(3)
H42 H 1.0535 0.4639 0.1893
H43 H 0.9750 0.3457 0.2207
H44 H 0.8495 0.4589 0.1849
O17 O 0.9319(8) 0.0586(5) -0.2326(3)
H45 H 1.013(7) 0.006(6) -0.220(4)
H46 H 0.895(10) 0.006(6) -0.252(3)
loop_
_geom_bond_atom_site_label_1
_geom_bond_atom_site_label_2
_geom_bond_site_symmetry_1
_geom_bond_site_symmetry_2
P1 O2 1_555 1_555
P2 O5 1_555 1_555
O1 H1 1_555 1_555
O3 P1 1_555 1_555
O4 P1 1_555 1_555
O5 C8 1_555 1_555
O6 P2 1_555 1_555
O7 P2 1_555 1_555
O8 H2 1_555 1_555
C1 H3 1_555 1_555
H4 C1 1_555 1_555
H5 C1 1_555 1_555
C2 H6 1_555 1_555
H7 C2 1_555 1_555
H8 C2 1_555 1_555
C3 P1 1_555 1_555
C4 O4 1_555 1_555
H9 C4 1_555 1_555
H10 C4 1_555 1_555
C5 O3 1_555 1_555
H11 C5 1_555 1_555
H12 C5 1_555 1_555
C6 C4 1_555 1_555
C7 O6 1_555 1_555
H13 C7 1_555 1_555
H14 C7 1_555 1_555
C8 C6 1_555 1_555
H15 C8 1_555 1_555
H16 C8 1_555 1_555
C9 P2 1_555 1_555
C10 C9 1_555 1_555
H17 C10 1_555 1_555
H18 C10 1_555 1_555
H19 C10 1_555 1_555
C11 C9 1_555 1_555
H20 C11 1_555 1_555
H21 C11 1_555 1_555
H22 C11 1_555 1_555
P3 O10 1_555 1_555
P4 O13 1_555 1_555
O9 H23 1_555 1_555
O11 P3 1_555 1_555
O12 P3 1_555 1_555
O13 C18 1_555 1_555
O14 P4 1_555 1_555
O15 P4 1_555 1_555
O16 H24 1_555 1_555
C12 H25 1_555 1_555
H26 C12 1_555 1_555
H27 C12 1_555 1_555
C13 H28 1_555 1_555
H29 C13 1_555 1_555
H30 C13 1_555 1_555
C14 P3 1_555 1_555
C15 O12 1_555 1_555
H31 C15 1_555 1_555
H32 C15 1_555 1_555
C16 O11 1_555 1_555
H33 C16 1_555 1_555
H34 C16 1_555 1_555
C17 C15 1_555 1_555
C18 C17 1_555 1_555
H35 C18 1_555 1_555
H36 C18 1_555 1_555
C19 O14 1_555 1_555
H37 C19 1_555 1_555
H38 C19 1_555 1_555
C20 P4 1_555 1_555
C21 C20 1_555 1_555
H39 C21 1_555 1_555
H40 C21 1_555 1_555
H41 C21 1_555 1_555
C22 C20 1_555 1_555
H42 C22 1_555 1_555
H43 C22 1_555 1_555
H44 C22 1_555 1_555
O17 H45 1_555 1_555
H46 O17 1_555 1_555
O1 C3 1_555 1_555
O8 C9 1_555 1_555
C1 C3 1_555 1_555
C2 C3 1_555 1_555
C5 C6 1_555 1_555
C6 C7 1_555 1_555
O9 C14 1_555 1_555
O16 C20 1_555 1_555
C12 C14 1_555 1_555
C13 C14 1_555 1_555
C16 C17 1_555 1_555
C17 C19 1_555 1_555

#END
