
#######################################################################
#
#                 Cambridge Crystallographic Data Centre
#                                CCDC 
#
#######################################################################
#
# If this CIF has been generated from an entry in the Cambridge 
# Structural Database, then it will include bibliographic, chemical, 
# crystal, experimental, refinement or atomic coordinate data resulting 
# from the CCDC's data processing and validation procedures.
#
#######################################################################

data_ADICAS
_chemical_formula_moiety         'C19 H20 O4'
_chemical_name_systematic        
3,9-Diphenyl-2,4,8,10-tetraoxaspiro(5.5)undecane
_symmetry_cell_setting           orthorhombic
_symmetry_space_group_name_H-M   'P 21 21 21'
_symmetry_Int_Tables_number      19
_space_group_name_Hall           'P 2ac 2ab'
loop_
_symmetry_equiv_pos_site_id
_symmetry_equiv_pos_as_xyz
1 x,y,z
2 1/2-x,-y,1/2+z
3 -x,1/2+y,1/2-z
4 1/2+x,1/2-y,-z
_cell_length_a                   9.1890(18)
_cell_length_b                   11.483(2)
_cell_length_c                   15.449(3)
_cell_angle_alpha                90
_cell_angle_beta                 90
_cell_angle_gamma                90
_cell_volume                     1630.14
_exptl_crystal_colour            colorless
_exptl_crystal_description       plate
_cell_formula_units_Z            4
_exptl_crystal_recrystallization_method toluene
loop_
_atom_site_label
_atom_site_type_symbol
_atom_site_fract_x
_atom_site_fract_y
_atom_site_fract_z
O1 O 0.8709(2) 0.12675(17) 0.34271(12)
O2 O 1.0591(2) 0.03341(18) 0.27136(12)
O3 O 0.7923(2) 0.04633(17) 0.03759(12)
O4 O 0.9499(2) 0.19756(15) 0.07163(12)
C1 C 1.2257(5) 0.2201(3) 0.4921(2)
H1 H 1.2658 0.2945 0.4927
C2 C 1.2523(4) 0.1458(3) 0.5588(2)
H2 H 1.3118 0.1684 0.6046
C3 C 1.1903(4) 0.0369(3) 0.5578(2)
H3 H 1.2068 -0.0139 0.6036
C4 C 1.1041(3) 0.0022(2) 0.4895(2)
H4 H 1.0628 -0.0717 0.4896
C5 C 1.0787(3) 0.0760(2) 0.42151(19)
C6 C 1.1398(4) 0.1859(3) 0.4240(2)
H5 H 1.1224 0.2375 0.3788
C7 C 0.9796(3) 0.0414(2) 0.34939(17)
H6 H 0.9350 -0.0341 0.3625
C8 C 0.9677(4) 0.0006(3) 0.20109(18)
H7 H 0.9291 -0.0768 0.2115
H8 H 1.0246 -0.0019 0.1482
C9 C 0.7678(3) 0.0972(3) 0.27709(19)
H9 H 0.6932 0.1569 0.2741
H10 H 0.7211 0.0240 0.2917
C10 C 0.8418(3) 0.0863(2) 0.18991(17)
C11 C 0.8996(3) 0.2043(2) 0.15898(18)
H11 H 0.8228 0.2620 0.1630
H12 H 0.9789 0.2288 0.1962
C12 C 0.7335(3) 0.0434(3) 0.12315(18)
H13 H 0.7053 -0.0358 0.1371
H14 H 0.6469 0.0916 0.1254
C13 C 0.8377(3) 0.1598(2) 0.01595(18)
H15 H 0.7548 0.2131 0.0208
C14 C 0.8922(3) 0.1609(3) -0.07474(19)
C15 C 1.0084(4) 0.0923(3) -0.0998(2)
H16 H 1.0538 0.0445 -0.0594
C16 C 1.0574(4) 0.0941(4) -0.1840(3)
H17 H 1.1352 0.0473 -0.2004
C17 C 0.9913(6) 0.1653(4) -0.2438(3)
H18 H 1.0246 0.1670 -0.3006
C18 C 0.8762(5) 0.2338(4) -0.2195(2)
H19 H 0.8314 0.2822 -0.2598
C19 C 0.8270(4) 0.2311(3) -0.1358(2)
H20 H 0.7484 0.2774 -0.1199
loop_
_geom_bond_atom_site_label_1
_geom_bond_atom_site_label_2
_geom_bond_site_symmetry_1
_geom_bond_site_symmetry_2
O1 C7 1_555 1_555
O2 C7 1_555 1_555
O3 C12 1_555 1_555
O4 C11 1_555 1_555
C1 H1 1_555 1_555
C2 C1 1_555 1_555
H2 C2 1_555 1_555
C3 C2 1_555 1_555
H3 C3 1_555 1_555
C4 C3 1_555 1_555
H4 C4 1_555 1_555
C5 C4 1_555 1_555
C6 C1 1_555 1_555
H5 C6 1_555 1_555
C7 C5 1_555 1_555
H6 C7 1_555 1_555
C8 O2 1_555 1_555
H7 C8 1_555 1_555
H8 C8 1_555 1_555
C9 O1 1_555 1_555
H9 C9 1_555 1_555
H10 C9 1_555 1_555
C10 C8 1_555 1_555
C11 C10 1_555 1_555
H11 C11 1_555 1_555
H12 C11 1_555 1_555
C12 C10 1_555 1_555
H13 C12 1_555 1_555
H14 C12 1_555 1_555
C13 O3 1_555 1_555
H15 C13 1_555 1_555
C14 C13 1_555 1_555
C15 C14 1_555 1_555
H16 C15 1_555 1_555
C16 C15 1_555 1_555
H17 C16 1_555 1_555
C17 C16 1_555 1_555
H18 C17 1_555 1_555
C18 C17 1_555 1_555
H19 C18 1_555 1_555
C19 C14 1_555 1_555
H20 C19 1_555 1_555
O4 C13 1_555 1_555
C5 C6 1_555 1_555
C9 C10 1_555 1_555
C18 C19 1_555 1_555

#END
