
#######################################################################
#
#                 Cambridge Crystallographic Data Centre
#                                CCDC 
#
#######################################################################
#
# If this CIF has been generated from an entry in the Cambridge 
# Structural Database, then it will include bibliographic, chemical, 
# crystal, experimental, refinement or atomic coordinate data resulting 
# from the CCDC's data processing and validation procedures.
#
#######################################################################

data_ADIDAT01
_chemical_formula_moiety         'C25 H27 N3'
_chemical_name_systematic        
2,6-bis(1-(2,6-Dimethylphenylimino)ethyl)pyridine
_symmetry_cell_setting           monoclinic
_symmetry_space_group_name_H-M   'P 21/n'
_symmetry_Int_Tables_number      14
_space_group_name_Hall           '-P 2yn'
loop_
_symmetry_equiv_pos_site_id
_symmetry_equiv_pos_as_xyz
1 x,y,z
2 1/2-x,1/2+y,1/2-z
3 -x,-y,-z
4 1/2+x,1/2-y,1/2+z
_cell_length_a                   10.3525(8)
_cell_length_b                   14.4321(13)
_cell_length_c                   15.1866(17)
_cell_angle_alpha                90
_cell_angle_beta                 105.765(11)
_cell_angle_gamma                90
_cell_volume                     2183.65
_cell_formula_units_Z            4
loop_
_atom_site_label
_atom_site_type_symbol
_atom_site_fract_x
_atom_site_fract_y
_atom_site_fract_z
N1 N 0.2787(2) 0.9842(2) -0.0946(2)
N2 N 0.3231(2) 0.5625(2) 0.1390(2)
N3 N 0.2548(2) 0.7650(1) 0.0020(1)
C1 C 0.2337(3) 0.9030(2) -0.0900(2)
C2 C 0.1065(3) 0.8643(2) -0.1501(2)
C3 C 0.2540(3) 0.6222(2) 0.0840(2)
C4 C 0.1062(3) 0.6164(2) 0.0407(2)
C5 C 0.2652(3) 0.4793(2) 0.1608(2)
C6 C 0.2625(3) 0.4013(2) 0.1069(2)
C7 C 0.2163(3) 0.3185(2) 0.1342(2)
C8 C 0.1758(3) 0.3136(2) 0.2132(2)
C9 C 0.1793(3) 0.3903(2) 0.2654(2)
C10 C 0.2241(3) 0.4751(2) 0.2412(2)
C11 C 0.3106(4) 0.4068(2) 0.0222(2)
C12 C 0.2261(3) 0.5598(2) 0.2992(2)
C13 C 0.2113(3) 1.0470(2) -0.1648(2)
C14 C 0.2539(3) 1.0520(2) -0.2443(2)
C15 C 0.2001(4) 1.1202(3) -0.3071(2)
C16 C 0.1076(4) 1.1812(3) -0.2934(3)
C17 C 0.0661(4) 1.1762(2) -0.2150(2)
C18 C 0.1175(3) 1.1090(2) -0.1488(2)
C19 C 0.3565(4) 0.9841(3) -0.2601(2)
C20 C 0.0703(4) 1.1035(3) -0.0637(2)
C21 C 0.3270(3) 0.7044(2) 0.0623(2)
C22 C 0.4638(3) 0.7145(2) 0.1006(2)
C23 C 0.5272(3) 0.7914(2) 0.0790(2)
C24 C 0.4536(3) 0.8551(2) 0.0184(2)
C25 C 0.3179(3) 0.8400(2) -0.0194(2)
loop_
_geom_bond_atom_site_label_1
_geom_bond_atom_site_label_2
_geom_bond_site_symmetry_1
_geom_bond_site_symmetry_2
N1 C1 1_555 1_555
N2 C3 1_555 1_555
N3 C21 1_555 1_555
C1 C2 1_555 1_555
C3 C4 1_555 1_555
C5 N2 1_555 1_555
C6 C5 1_555 1_555
C7 C6 1_555 1_555
C8 C7 1_555 1_555
C9 C8 1_555 1_555
C10 C5 1_555 1_555
C11 C6 1_555 1_555
C12 C10 1_555 1_555
C13 N1 1_555 1_555
C14 C13 1_555 1_555
C15 C14 1_555 1_555
C16 C15 1_555 1_555
C17 C16 1_555 1_555
C18 C13 1_555 1_555
C19 C14 1_555 1_555
C20 C18 1_555 1_555
C21 C3 1_555 1_555
C22 C21 1_555 1_555
C23 C22 1_555 1_555
C24 C23 1_555 1_555
C25 N3 1_555 1_555
C1 C25 1_555 1_555
C9 C10 1_555 1_555
C17 C18 1_555 1_555
C24 C25 1_555 1_555

#END
