
#######################################################################
#
#                 Cambridge Crystallographic Data Centre
#                                CCDC 
#
#######################################################################
#
# If this CIF has been generated from an entry in the Cambridge 
# Structural Database, then it will include bibliographic, chemical, 
# crystal, experimental, refinement or atomic coordinate data resulting 
# from the CCDC's data processing and validation procedures.
#
#######################################################################

data_ADIDUP
_chemical_formula_moiety         'C14 H8 N4 O2'
_chemical_name_systematic        
2-(4H-1,2,4-triazol-4-yl)-1H-benzo[de]isoquinoline-1,3(2H)-dione
_symmetry_cell_setting           monoclinic
_symmetry_space_group_name_H-M   'P 21/c'
_symmetry_Int_Tables_number      14
_space_group_name_Hall           '-P 2ybc'
loop_
_symmetry_equiv_pos_site_id
_symmetry_equiv_pos_as_xyz
1 x,y,z
2 -x,1/2+y,1/2-z
3 -x,-y,-z
4 x,1/2-y,1/2+z
_cell_length_a                   11.406(2)
_cell_length_b                   15.520(3)
_cell_length_c                   6.8292(14)
_cell_angle_alpha                90
_cell_angle_beta                 103.97(3)
_cell_angle_gamma                90
_cell_volume                     1173.16
_exptl_crystal_colour            colorless
_exptl_crystal_description       Needle
_cell_formula_units_Z            4
loop_
_atom_site_label
_atom_site_type_symbol
_atom_site_fract_x
_atom_site_fract_y
_atom_site_fract_z
O1 O 0.92478(19) 0.99140(11) 0.2566(3)
O2 O 1.03840(19) 0.71022(11) 0.2670(3)
N1 N 0.9770(2) 0.84975(13) 0.2675(3)
N2 N 1.0969(2) 0.87359(13) 0.2956(3)
N3 N 1.2883(2) 0.89194(15) 0.4379(3)
N4 N 1.2680(2) 0.91059(14) 0.2299(3)
C1 C 0.8908(3) 0.91708(16) 0.2488(4)
C2 C 0.7655(3) 0.88822(15) 0.2209(4)
C3 C 0.6747(3) 0.94831(17) 0.2025(4)
H1 H 0.6935(3) 1.00669(17) 0.2054(4)
C4 C 0.5545(3) 0.92249(17) 0.1794(4)
H2 H 0.4943(3) 0.96375(17) 0.1703(4)
C5 C 0.5252(3) 0.83687(16) 0.1702(4)
H3 H 0.4450(3) 0.82038(16) 0.1529(4)
C6 C 0.6159(3) 0.77313(17) 0.1867(4)
C7 C 0.5879(3) 0.68358(17) 0.1763(4)
H4 H 0.5080(3) 0.66588(17) 0.1562(4)
C8 C 0.6776(3) 0.62331(17) 0.1956(4)
H5 H 0.6580(3) 0.56504(17) 0.1896(4)
C9 C 0.7975(3) 0.64821(16) 0.2240(4)
H6 H 0.8575(3) 0.60657(16) 0.2374(4)
C10 C 0.8282(3) 0.73501(16) 0.2326(4)
C11 C 0.7375(3) 0.79865(16) 0.2135(4)
C12 C 0.9540(3) 0.76015(17) 0.2551(4)
C13 C 1.1851(3) 0.87027(17) 0.4686(4)
H7 H 1.1727(3) 0.85441(17) 0.5934(4)
C14 C 1.1541(3) 0.89875(16) 0.1506(4)
H8 H 1.1166(3) 0.90625(16) 0.0148(4)
loop_
_geom_bond_atom_site_label_1
_geom_bond_atom_site_label_2
_geom_bond_site_symmetry_1
_geom_bond_site_symmetry_2
O1 C1 1_555 1_555
O2 C12 1_555 1_555
N1 N2 1_555 1_555
N2 C13 1_555 1_555
N3 N4 1_555 1_555
N4 C14 1_555 1_555
C1 N1 1_555 1_555
C2 C1 1_555 1_555
C3 C2 1_555 1_555
H1 C3 1_555 1_555
C4 C3 1_555 1_555
H2 C4 1_555 1_555
C5 C4 1_555 1_555
H3 C5 1_555 1_555
C6 C5 1_555 1_555
C7 C6 1_555 1_555
H4 C7 1_555 1_555
C8 C7 1_555 1_555
H5 C8 1_555 1_555
C9 C8 1_555 1_555
H6 C9 1_555 1_555
C10 C9 1_555 1_555
C11 C2 1_555 1_555
C12 N1 1_555 1_555
C13 N3 1_555 1_555
H7 C13 1_555 1_555
C14 N2 1_555 1_555
H8 C14 1_555 1_555
C6 C11 1_555 1_555
C10 C11 1_555 1_555
C10 C12 1_555 1_555

#END
