
#######################################################################
#
#                 Cambridge Crystallographic Data Centre
#                                CCDC 
#
#######################################################################
#
# If this CIF has been generated from an entry in the Cambridge 
# Structural Database, then it will include bibliographic, chemical, 
# crystal, experimental, refinement or atomic coordinate data resulting 
# from the CCDC's data processing and validation procedures.
#
#######################################################################

data_ADIDUN
_chemical_formula_moiety         'C14 H13 N5 O3'
_chemical_name_systematic        
1-((3-Ethyl-1-methyl-4-nitro-1H-pyrazol-5-yl)carbonyl)-1H-benzimidazole
_symmetry_cell_setting           monoclinic
_symmetry_space_group_name_H-M   'P 21/n'
_symmetry_Int_Tables_number      14
_space_group_name_Hall           '-P 2yn'
loop_
_symmetry_equiv_pos_site_id
_symmetry_equiv_pos_as_xyz
1 x,y,z
2 1/2-x,1/2+y,1/2-z
3 -x,-y,-z
4 1/2+x,1/2-y,1/2+z
_cell_length_a                   10.442(4)
_cell_length_b                   7.873(4)
_cell_length_c                   17.380(5)
_cell_angle_alpha                90
_cell_angle_beta                 101.595(15)
_cell_angle_gamma                90
_cell_volume                     1399.65
_exptl_crystal_colour            colorless
_exptl_crystal_description       block
_chemical_melting_point          '414-416 K'
_cell_formula_units_Z            4
_exptl_crystal_recrystallization_method 'ethyl acetate'
loop_
_atom_site_label
_atom_site_type_symbol
_atom_site_fract_x
_atom_site_fract_y
_atom_site_fract_z
O1 O 0.16242(12) 0.60264(18) 0.30255(6)
O2 O 0.24798(11) 0.94772(16) 0.43858(6)
O3 O 0.40260(12) 1.13195(17) 0.44605(9)
N1 N 0.26064(10) 0.55495(13) 0.42912(6)
N2 N 0.34316(11) 0.49630(17) 0.55605(6)
N3 N 0.35007(11) 0.99773(16) 0.42229(6)
N4 N 0.54033(11) 0.80187(14) 0.29483(6)
N5 N 0.44581(10) 0.68583(13) 0.29884(6)
C1 C 0.25207(13) 0.62800(19) 0.35627(6)
C2 C 0.35863(13) 0.58168(19) 0.49556(6)
C3 C 0.22749(12) 0.40386(17) 0.53085(6)
C4 C 0.16642(13) 0.29134(19) 0.57325(8)
C5 C 0.05153(14) 0.21801(19) 0.53540(9)
C6 C -0.00112(13) 0.2548(2) 0.45802(9)
C7 C 0.05827(13) 0.36534(19) 0.41398(8)
C8 C 0.17374(12) 0.43874(16) 0.45257(6)
C9 C 0.36582(11) 0.73567(17) 0.34580(6)
C10 C 0.41091(12) 0.89301(17) 0.37304(6)
C11 C 0.52002(12) 0.93042(17) 0.33994(6)
C12 C 0.60612(16) 1.0833(2) 0.34974(9)
C13 C 0.6879(2) 1.1013(2) 0.28960(10)
C14 C 0.44767(17) 0.5255(2) 0.25754(10)
H1 H 0.4288 0.6547 0.4960
H2 H 0.2020 0.2664 0.6255
H3 H 0.0085 0.1422 0.5625
H4 H -0.0794 0.2035 0.4345
H5 H 0.0226 0.3888 0.3616
H6 H 0.5512 1.1832 0.3474
H7 H 0.6638 1.0769 0.4009
H8 H 0.7480 1.0079 0.2938
H9 H 0.6328 1.1016 0.2382
H10 H 0.7358 1.2060 0.2979
H11 H 0.3737 0.4582 0.2637
H12 H 0.5267 0.4653 0.2789
H13 H 0.4438 0.5472 0.2028
loop_
_geom_bond_atom_site_label_1
_geom_bond_atom_site_label_2
_geom_bond_site_symmetry_1
_geom_bond_site_symmetry_2
O1 C1 1_555 1_555
O2 N3 1_555 1_555
O3 N3 1_555 1_555
N1 C1 1_555 1_555
N2 C2 1_555 1_555
N3 C10 1_555 1_555
N4 N5 1_555 1_555
N5 C9 1_555 1_555
C1 C9 1_555 1_555
C2 N1 1_555 1_555
C3 N2 1_555 1_555
C4 C3 1_555 1_555
C5 C4 1_555 1_555
C6 C5 1_555 1_555
C7 C6 1_555 1_555
C8 N1 1_555 1_555
C9 C10 1_555 1_555
C10 C11 1_555 1_555
C11 N4 1_555 1_555
C12 C11 1_555 1_555
C13 C12 1_555 1_555
C14 N5 1_555 1_555
H1 C2 1_555 1_555
H2 C4 1_555 1_555
H3 C5 1_555 1_555
H4 C6 1_555 1_555
H5 C7 1_555 1_555
H6 C12 1_555 1_555
H7 C12 1_555 1_555
H8 C13 1_555 1_555
H9 C13 1_555 1_555
H10 C13 1_555 1_555
H11 C14 1_555 1_555
H12 C14 1_555 1_555
H13 C14 1_555 1_555
C3 C8 1_555 1_555
C7 C8 1_555 1_555

#END
