
#######################################################################
#
#                 Cambridge Crystallographic Data Centre
#                                CCDC 
#
#######################################################################
#
# If this CIF has been generated from an entry in the Cambridge 
# Structural Database, then it will include bibliographic, chemical, 
# crystal, experimental, refinement or atomic coordinate data resulting 
# from the CCDC's data processing and validation procedures.
#
#######################################################################

data_ADIFUQ
_chemical_formula_moiety         'C36 H36 N4 O3 S1'
_chemical_name_systematic        
3',6'-bis(diethylamino)-2-(6-methoxy-1,3-benzothiazol-2-yl)spiro[isoindole-1,9'-xanthen]-3(2H)-one
_symmetry_cell_setting           monoclinic
_symmetry_space_group_name_H-M   'P 21/n'
_symmetry_Int_Tables_number      14
_space_group_name_Hall           '-P 2yn'
loop_
_symmetry_equiv_pos_site_id
_symmetry_equiv_pos_as_xyz
1 x,y,z
2 1/2-x,1/2+y,1/2-z
3 -x,-y,-z
4 1/2+x,1/2-y,1/2+z
_cell_length_a                   16.253(3)
_cell_length_b                   12.018(2)
_cell_length_c                   16.937(3)
_cell_angle_alpha                90
_cell_angle_beta                 110.58(3)
_cell_angle_gamma                90
_cell_volume                     3097.15
_exptl_crystal_colour            yellow
_exptl_crystal_description       block
_cell_formula_units_Z            4
loop_
_atom_site_label
_atom_site_type_symbol
_atom_site_fract_x
_atom_site_fract_y
_atom_site_fract_z
C1 C 0.16168(12) 0.29060(17) 0.82543(13)
C2 C 0.15049(12) 0.17203(16) 0.84875(12)
C3 C 0.21951(12) 0.09795(17) 0.87642(12)
C4 C 0.20944(14) -0.01079(18) 0.89855(13)
H1 H 0.2579 -0.0578 0.9165
C5 C 0.12696(14) -0.05062(18) 0.89411(14)
C6 C 0.05657(14) 0.02474(19) 0.86654(16)
H2 H 0.0007 0.0018 0.8630
C7 C 0.06903(14) 0.13164(19) 0.84473(15)
H3 H 0.0209 0.1792 0.8265
C8 C 0.18638(18) -0.2368(2) 0.94401(18)
H4 H 0.1740 -0.2905 0.9811
H5 H 0.2399 -0.1978 0.9763
C9 C 0.2011(2) -0.2979(3) 0.8725(2)
H6 H 0.1489 -0.3383 0.8410
H7 H 0.2492 -0.3489 0.8947
H8 H 0.2147 -0.2454 0.8361
C10 C 0.02759(18) -0.2036(2) 0.90126(19)
H9 H 0.0276 -0.2823 0.8883
H10 H -0.0143 -0.1670 0.8527
C11 C -0.0011(3) -0.1892(3) 0.9756(3)
H11 H 0.0383 -0.2289 1.0231
H12 H -0.0596 -0.2180 0.9621
H13 H -0.0005 -0.1116 0.9892
C12 C 0.25591(12) 0.31267(17) 0.83332(12)
C13 C 0.31948(12) 0.23082(17) 0.85917(12)
C14 C 0.40554(13) 0.24876(18) 0.86296(13)
H14 H 0.4462 0.1912 0.8797
C15 C 0.43147(13) 0.35178(19) 0.84196(14)
C16 C 0.36673(14) 0.43525(19) 0.81578(15)
H15 H 0.3814 0.5052 0.8012
C17 C 0.28210(13) 0.41454(18) 0.81149(14)
H16 H 0.2407 0.4711 0.7932
C18 C 0.57681(19) 0.2771(3) 0.8581(3)
H17 H 0.5445 0.2117 0.8304
H18 H 0.5988 0.2628 0.9183
C19 C 0.6529(2) 0.2924(4) 0.8301(3)
H19 H 0.6324 0.3157 0.7722
H20 H 0.6841 0.2233 0.8356
H21 H 0.6915 0.3479 0.8645
C20 C 0.55443(16) 0.4810(2) 0.86342(19)
H22 H 0.5093 0.5367 0.8395
H23 H 0.5993 0.4911 0.8385
C21 C 0.5945(3) 0.4994(6) 0.9561(3)
H24 H 0.5581 0.4660 0.9836
H25 H 0.5993 0.5779 0.9676
H26 H 0.6519 0.4663 0.9769
C22 C 0.09836(13) 0.32085(19) 0.73777(14)
C23 C 0.09177(16) 0.2725(3) 0.66152(15)
H27 H 0.1279 0.2137 0.6591
C24 C 0.0294(2) 0.3150(3) 0.58895(18)
H28 H 0.0236 0.2836 0.5371
C25 C -0.0248(2) 0.4035(3) 0.5917(2)
H29 H -0.0653 0.4310 0.5419
C26 C -0.01871(17) 0.4504(2) 0.6677(2)
H30 H -0.0548 0.5093 0.6702
C27 C 0.04342(14) 0.40668(19) 0.74078(16)
C28 C 0.06117(14) 0.43829(18) 0.82859(16)
C29 C 0.16561(13) 0.37478(17) 0.96392(14)
C30 C 0.24979(14) 0.32925(19) 1.09255(15)
C31 C 0.31373(16) 0.2712(2) 1.15689(17)
H31 H 0.3440 0.2124 1.1439
C32 C 0.33138(17) 0.3015(3) 1.23918(18)
H32 H 0.3728 0.2620 1.2822
C33 C 0.28839(18) 0.3901(3) 1.25869(17)
C34 C 0.22346(19) 0.4482(2) 1.19782(18)
H33 H 0.1934 0.5063 1.2118
C35 C 0.20462(16) 0.4154(2) 1.11316(16)
C36 C 0.2841(3) 0.5109(4) 1.3694(2)
H34 H 0.3000 0.5743 1.3434
H35 H 0.3092 0.5181 1.4296
H36 H 0.2212 0.5067 1.3524
N1 N 0.13020(11) 0.37215(14) 0.87685(11)
N2 N 0.22689(11) 0.30775(16) 1.00682(12)
O1 O 0.30393(9) 0.12563(12) 0.88265(10)
N3 N 0.11521(13) -0.15804(17) 0.91602(14)
N4 N 0.51576(12) 0.37119(18) 0.84115(15)
O2 O 0.02435(12) 0.50759(16) 0.85716(14)
O3 O 0.31585(15) 0.4143(2) 1.34439(13)
S1 S 0.12805(4) 0.47104(5) 1.02223(4)
loop_
_geom_bond_atom_site_label_1
_geom_bond_atom_site_label_2
_geom_bond_site_symmetry_1
_geom_bond_site_symmetry_2
C1 C2 1_555 1_555
C2 C3 1_555 1_555
C3 C4 1_555 1_555
C4 H1 1_555 1_555
C5 C4 1_555 1_555
C6 C5 1_555 1_555
H2 C6 1_555 1_555
C7 C2 1_555 1_555
H3 C7 1_555 1_555
C8 H4 1_555 1_555
H5 C8 1_555 1_555
C9 C8 1_555 1_555
H6 C9 1_555 1_555
H7 C9 1_555 1_555
H8 C9 1_555 1_555
C10 H9 1_555 1_555
H10 C10 1_555 1_555
C11 C10 1_555 1_555
H11 C11 1_555 1_555
H12 C11 1_555 1_555
H13 C11 1_555 1_555
C12 C1 1_555 1_555
C13 C12 1_555 1_555
C14 C13 1_555 1_555
H14 C14 1_555 1_555
C15 C14 1_555 1_555
C16 C15 1_555 1_555
H15 C16 1_555 1_555
C17 C12 1_555 1_555
H16 C17 1_555 1_555
C18 H17 1_555 1_555
H18 C18 1_555 1_555
C19 C18 1_555 1_555
H19 C19 1_555 1_555
H20 C19 1_555 1_555
H21 C19 1_555 1_555
C20 H22 1_555 1_555
H23 C20 1_555 1_555
C21 C20 1_555 1_555
H24 C21 1_555 1_555
H25 C21 1_555 1_555
H26 C21 1_555 1_555
C22 C1 1_555 1_555
C23 C22 1_555 1_555
H27 C23 1_555 1_555
C24 C23 1_555 1_555
H28 C24 1_555 1_555
C25 C24 1_555 1_555
H29 C25 1_555 1_555
C26 C25 1_555 1_555
H30 C26 1_555 1_555
C27 C22 1_555 1_555
C28 C27 1_555 1_555
C29 N1 1_555 1_555
C30 C31 1_555 1_555
C31 H31 1_555 1_555
C32 C31 1_555 1_555
H32 C32 1_555 1_555
C33 C32 1_555 1_555
C34 C33 1_555 1_555
H33 C34 1_555 1_555
C35 C30 1_555 1_555
C36 H34 1_555 1_555
H35 C36 1_555 1_555
H36 C36 1_555 1_555
N1 C1 1_555 1_555
N2 C29 1_555 1_555
O1 C3 1_555 1_555
N3 C5 1_555 1_555
N4 C15 1_555 1_555
O2 C28 1_555 1_555
O3 C33 1_555 1_555
S1 C29 1_555 1_555
C6 C7 1_555 1_555
C8 N3 1_555 1_555
C10 N3 1_555 1_555
C13 O1 1_555 1_555
C16 C17 1_555 1_555
C18 N4 1_555 1_555
C20 N4 1_555 1_555
C26 C27 1_555 1_555
C28 N1 1_555 1_555
C30 N2 1_555 1_555
C34 C35 1_555 1_555
C35 S1 1_555 1_555
C36 O3 1_555 1_555

#END
