
#######################################################################
#
#                 Cambridge Crystallographic Data Centre
#                                CCDC 
#
#######################################################################
#
# If this CIF has been generated from an entry in the Cambridge 
# Structural Database, then it will include bibliographic, chemical, 
# crystal, experimental, refinement or atomic coordinate data resulting 
# from the CCDC's data processing and validation procedures.
#
#######################################################################

data_ADIFOK
_chemical_formula_moiety         'C35 H33 N5 O4 S1,C2 H3 N1'
_chemical_name_systematic        
"3',6'-bis(diethylamino)-2-(6-nitro-1,3-benzothiazol-2-yl)spiro[isoindole-1,9'-xanthen]-3(2H)-one acetonitrile solvate"
_symmetry_cell_setting           triclinic
_symmetry_space_group_name_H-M   'P -1'
_symmetry_Int_Tables_number      2
_space_group_name_Hall           '-P 1'
loop_
_symmetry_equiv_pos_site_id
_symmetry_equiv_pos_as_xyz
1 x,y,z
2 -x,-y,-z
_cell_length_a                   9.654(4)
_cell_length_b                   12.011(5)
_cell_length_c                   15.321(6)
_cell_angle_alpha                101.696(5)
_cell_angle_beta                 90.916(6)
_cell_angle_gamma                100.475(6)
_cell_volume                     1708.08
_exptl_crystal_colour            yellow
_exptl_crystal_description       block
_cell_formula_units_Z            2
loop_
_atom_site_label
_atom_site_type_symbol
_atom_site_fract_x
_atom_site_fract_y
_atom_site_fract_z
S1 S 0.40072(11) 0.40878(8) 0.40297(6)
N1 N -0.1148(4) 0.3101(4) 0.5072(3)
N2 N 0.3146(3) 0.2218(2) 0.2790(2)
N3 N 0.5501(3) 0.3072(2) 0.26992(19)
N4 N 0.4839(5) -0.2378(4) 0.2567(3)
N5 N 0.2084(4) 0.2423(3) -0.1035(2)
O1 O -0.0909(4) 0.3914(3) 0.5700(2)
O2 O -0.2317(4) 0.2478(3) 0.4902(2)
O3 O 0.6777(3) 0.4621(2) 0.37009(19)
O4 O 0.3782(3) 0.02000(19) 0.08073(16)
C1 C -0.0023(4) 0.2856(3) 0.4479(3)
C2 C -0.0298(4) 0.1878(3) 0.3799(3)
H1 H -0.1170 0.1383 0.3739
C3 C 0.0719(4) 0.1644(3) 0.3215(3)
H2 H 0.0540 0.0997 0.2750
C4 C 0.2026(4) 0.2386(3) 0.3326(2)
C5 C 0.2294(4) 0.3350(3) 0.4027(2)
C6 C 0.1262(4) 0.3606(3) 0.4627(3)
H3 H 0.1433 0.4246 0.5099
C7 C 0.4227(4) 0.3039(3) 0.3086(2)
C8 C 0.6726(4) 0.3853(3) 0.3048(3)
C9 C 0.7848(4) 0.3543(3) 0.2458(2)
C10 C 0.9280(4) 0.4042(4) 0.2520(3)
H4 H 0.9648 0.4677 0.2970
C11 C 1.0116(4) 0.3575(4) 0.1904(3)
H5 H 1.1077 0.3883 0.1941
C12 C 0.9567(4) 0.2645(4) 0.1219(3)
H6 H 1.0163 0.2345 0.0801
C13 C 0.8142(4) 0.2156(3) 0.1147(3)
H7 H 0.7773 0.1538 0.0683
C14 C 0.7284(4) 0.2614(3) 0.1787(2)
C15 C 0.5728(4) 0.2193(3) 0.1886(2)
C16 C 0.5461(4) 0.0983(3) 0.2071(2)
C17 C 0.6116(4) 0.0733(4) 0.2784(3)
H8 H 0.6726 0.1331 0.3164
C18 C 0.5925(5) -0.0344(4) 0.2970(3)
H9 H 0.6389 -0.0458 0.3472
C19 C 0.5041(4) -0.1283(3) 0.2416(3)
C20 C 0.4346(4) -0.1024(3) 0.1705(3)
H10 H 0.3719 -0.1613 0.1331
C21 C 0.4549(4) 0.0068(3) 0.1536(2)
C22 C 0.3880(4) 0.1277(3) 0.0626(2)
C23 C 0.2976(4) 0.1337(3) -0.0068(2)
H11 H 0.2362 0.0670 -0.0358
C24 C 0.2964(4) 0.2358(3) -0.0336(2)
C25 C 0.3876(4) 0.3353(3) 0.0143(3)
H12 H 0.3872 0.4068 -0.0001
C26 C 0.4769(4) 0.3269(3) 0.0819(3)
H13 H 0.5391 0.3933 0.1105
C27 C 0.4795(4) 0.2244(3) 0.1100(2)
C28 C 0.5959(9) -0.2731(6) 0.3196(6)
H14 H 0.6026 -0.3542 0.3029
H15 H 0.6888 -0.2247 0.3230
C29 C 0.5233(8) -0.2479(6) 0.3969(6)
H16 H 0.5746 -0.2619 0.4465
H17 H 0.4313 -0.2963 0.3893
H18 H 0.5139 -0.1681 0.4081
C30 C 0.3879(7) -0.3373(5) 0.1976(5)
H19 H 0.3957 -0.3302 0.1359
H20 H 0.4151 -0.4094 0.2035
C31 C 0.2495(8) -0.3382(6) 0.2214(5)
H21 H 0.1882 -0.4017 0.1829
H22 H 0.2229 -0.2668 0.2155
H23 H 0.2417 -0.3468 0.2822
C32 C 0.1144(5) 0.1392(4) -0.1542(3)
H24 H 0.1642 0.0749 -0.1627
H25 H 0.0927 0.1528 -0.2128
C33 C -0.0224(5) 0.1047(4) -0.1118(3)
H26 H -0.0771 0.0364 -0.1491
H27 H -0.0746 0.1665 -0.1050
H28 H -0.0027 0.0893 -0.0543
C34 C 0.2023(6) 0.3533(4) -0.1280(3)
H29 H 0.1576 0.3384 -0.1875
H30 H 0.2977 0.3952 -0.1299
C35 C 0.1227(6) 0.4282(5) -0.0645(4)
H31 H 0.1236 0.4997 -0.0835
H32 H 0.1669 0.4440 -0.0056
H33 H 0.0271 0.3886 -0.0640
N6 N 1.0086(10) 0.1251(7) 0.6161(5)
C36 C 0.7574(8) 0.0176(7) 0.5805(6)
H34 H 0.7007 0.0683 0.5633
H35 H 0.7198 -0.0095 0.6316
H36 H 0.7565 -0.0472 0.5320
C37 C 0.8965(12) 0.0779(7) 0.6017(5)
loop_
_geom_bond_atom_site_label_1
_geom_bond_atom_site_label_2
_geom_bond_site_symmetry_1
_geom_bond_site_symmetry_2
S1 C5 1_555 1_555
N1 O1 1_555 1_555
N2 C4 1_555 1_555
N3 C7 1_555 1_555
N4 C19 1_555 1_555
N5 C24 1_555 1_555
N6 C37 1_555 1_555
O2 N1 1_555 1_555
O3 C8 1_555 1_555
O4 C21 1_555 1_555
C1 N1 1_555 1_555
C2 C1 1_555 1_555
H1 C2 1_555 1_555
C3 C2 1_555 1_555
H2 C3 1_555 1_555
C4 C3 1_555 1_555
C5 C4 1_555 1_555
C6 C1 1_555 1_555
H3 C6 1_555 1_555
C7 S1 1_555 1_555
C8 N3 1_555 1_555
C9 C8 1_555 1_555
C10 C9 1_555 1_555
H4 C10 1_555 1_555
C11 C10 1_555 1_555
H5 C11 1_555 1_555
C12 C11 1_555 1_555
H6 C12 1_555 1_555
C13 C12 1_555 1_555
H7 C13 1_555 1_555
C14 C9 1_555 1_555
C15 N3 1_555 1_555
C16 C15 1_555 1_555
C17 C16 1_555 1_555
H8 C17 1_555 1_555
C18 C17 1_555 1_555
H9 C18 1_555 1_555
C19 C18 1_555 1_555
C20 C19 1_555 1_555
H10 C20 1_555 1_555
C21 C16 1_555 1_555
C22 O4 1_555 1_555
C23 C22 1_555 1_555
H11 C23 1_555 1_555
C24 C23 1_555 1_555
C25 C24 1_555 1_555
H12 C25 1_555 1_555
C26 C25 1_555 1_555
H13 C26 1_555 1_555
C27 C15 1_555 1_555
C28 N4 1_555 1_555
H14 C28 1_555 1_555
H15 C28 1_555 1_555
C29 C28 1_555 1_555
H16 C29 1_555 1_555
H17 C29 1_555 1_555
H18 C29 1_555 1_555
C30 N4 1_555 1_555
H19 C30 1_555 1_555
H20 C30 1_555 1_555
C31 C30 1_555 1_555
H21 C31 1_555 1_555
H22 C31 1_555 1_555
H23 C31 1_555 1_555
C32 N5 1_555 1_555
H24 C32 1_555 1_555
H25 C32 1_555 1_555
C33 C32 1_555 1_555
H26 C33 1_555 1_555
H27 C33 1_555 1_555
H28 C33 1_555 1_555
C34 N5 1_555 1_555
H29 C34 1_555 1_555
H30 C34 1_555 1_555
C35 C34 1_555 1_555
H31 C35 1_555 1_555
H32 C35 1_555 1_555
H33 C35 1_555 1_555
C36 H34 1_555 1_555
H35 C36 1_555 1_555
H36 C36 1_555 1_555
C37 C36 1_555 1_555
N2 C7 1_555 1_555
C5 C6 1_555 1_555
C13 C14 1_555 1_555
C14 C15 1_555 1_555
C20 C21 1_555 1_555
C22 C27 1_555 1_555
C26 C27 1_555 1_555

#END
