
#######################################################################
#
#                 Cambridge Crystallographic Data Centre
#                                CCDC 
#
#######################################################################
#
# If this CIF has been generated from an entry in the Cambridge 
# Structural Database, then it will include bibliographic, chemical, 
# crystal, experimental, refinement or atomic coordinate data resulting 
# from the CCDC's data processing and validation procedures.
#
#######################################################################

data_ADIGIE
_chemical_formula_moiety         'C20 H26 Br1 N1 O3'
_chemical_name_systematic        
(1'S,2'S,5'R)-3-(2-Bromopropionyl)-2'-isopropyl-5'-methylspiro(2H-1,3-benzoxazine-2,1'-cyclohexan)-4(3H)-one
_symmetry_cell_setting           orthorhombic
_symmetry_space_group_name_H-M   'P 21 21 21'
_symmetry_Int_Tables_number      19
_space_group_name_Hall           'P 2ac 2ab'
loop_
_symmetry_equiv_pos_site_id
_symmetry_equiv_pos_as_xyz
1 x,y,z
2 1/2-x,-y,1/2+z
3 1/2+x,1/2-y,-z
4 -x,1/2+y,1/2-z
_cell_length_a                   8.7388(3)
_cell_length_b                   14.0200(8)
_cell_length_c                   15.9341(7)
_cell_angle_alpha                90
_cell_angle_beta                 90
_cell_angle_gamma                90
_cell_volume                     1952.21
_exptl_crystal_colour            colorless
_exptl_crystal_description       block
_cell_formula_units_Z            4
_exptl_crystal_recrystallization_method dichloromethane/ethanol
loop_
_atom_site_label
_atom_site_type_symbol
_atom_site_fract_x
_atom_site_fract_y
_atom_site_fract_z
Br1 Br 0.77307(3) 0.141459(17) 0.533053(19)
O1 O 0.6407(3) 0.23318(11) 0.35334(10)
O2 O 0.62001(18) 0.51921(10) 0.33761(9)
O3 O 0.85457(17) 0.36674(12) 0.52246(10)
N1 N 0.6868(2) 0.37838(11) 0.41284(11)
C1 C 0.6001(4) 0.2850(2) 0.61486(16)
H1 H 0.5329 0.3391 0.6123
H2 H 0.6894 0.3012 0.6469
H3 H 0.5481 0.2327 0.6411
C2 C 0.6476(2) 0.25668(14) 0.52625(14)
H4 H 0.5567 0.2446 0.4918
C3 C 0.7436(2) 0.33582(13) 0.48726(13)
C4 C 0.6345(3) 0.31904(15) 0.34816(14)
C5 C 0.5733(3) 0.36866(16) 0.27397(13)
C6 C 0.5134(4) 0.31716(18) 0.20665(16)
H5 H 0.5176 0.2509 0.2069
C7 C 0.4483(3) 0.3643(2) 0.13996(16)
H6 H 0.4088 0.3300 0.0950
C8 C 0.4416(3) 0.4631(2) 0.13990(16)
H7 H 0.3963 0.4946 0.0950
C9 C 0.5013(3) 0.51518(18) 0.20561(14)
H8 H 0.4975 0.5815 0.2052
C10 C 0.5668(3) 0.46687(16) 0.27180(13)
C11 C 0.7348(3) 0.47884(13) 0.39153(12)
C12 C 0.7333(3) 0.54652(13) 0.46800(13)
H9 H 0.8121 0.5231 0.5066
C13 C 0.5820(3) 0.54761(16) 0.51779(15)
H10 H 0.5445 0.4818 0.5196
C14 C 0.4536(3) 0.6085(2) 0.48171(19)
H11 H 0.4842 0.6742 0.4816
H12 H 0.3634 0.6011 0.5155
H13 H 0.4322 0.5884 0.4253
C15 C 0.6134(4) 0.5779(2) 0.60842(17)
H14 H 0.5186 0.5807 0.6388
H15 H 0.6610 0.6396 0.6088
H16 H 0.6802 0.5323 0.6345
C16 C 0.7868(3) 0.64563(16) 0.43793(15)
H17 H 0.7140 0.6703 0.3974
H18 H 0.7889 0.6891 0.4853
C17 C 0.9437(3) 0.6418(2) 0.39838(17)
H19 H 1.0172 0.6204 0.4399
H20 H 0.9730 0.7054 0.3808
C18 C 0.9491(3) 0.57510(19) 0.32293(15)
H21 H 0.8812 0.6008 0.2795
C19 C 1.1096(4) 0.5688(3) 0.2868(2)
H22 H 1.1777 0.5430 0.3283
H23 H 1.1437 0.6313 0.2709
H24 H 1.1089 0.5281 0.2384
C20 C 0.8894(3) 0.47709(16) 0.34841(14)
H25 H 0.8821 0.4375 0.2986
H26 H 0.9632 0.4476 0.3858
loop_
_geom_bond_atom_site_label_1
_geom_bond_atom_site_label_2
_geom_bond_site_symmetry_1
_geom_bond_site_symmetry_2
Br1 C2 1_555 1_555
O1 C4 1_555 1_555
O2 C10 1_555 1_555
O3 C3 1_555 1_555
N1 C3 1_555 1_555
C1 H1 1_555 1_555
H2 C1 1_555 1_555
H3 C1 1_555 1_555
C2 C1 1_555 1_555
H4 C2 1_555 1_555
C3 C2 1_555 1_555
C4 N1 1_555 1_555
C5 C4 1_555 1_555
C6 C5 1_555 1_555
H5 C6 1_555 1_555
C7 C6 1_555 1_555
H6 C7 1_555 1_555
C8 C7 1_555 1_555
H7 C8 1_555 1_555
C9 C8 1_555 1_555
H8 C9 1_555 1_555
C10 C5 1_555 1_555
C11 O2 1_555 1_555
C12 C11 1_555 1_555
H9 C12 1_555 1_555
C13 C12 1_555 1_555
H10 C13 1_555 1_555
C14 C13 1_555 1_555
H11 C14 1_555 1_555
H12 C14 1_555 1_555
H13 C14 1_555 1_555
C15 C13 1_555 1_555
H14 C15 1_555 1_555
H15 C15 1_555 1_555
H16 C15 1_555 1_555
C16 C12 1_555 1_555
H17 C16 1_555 1_555
H18 C16 1_555 1_555
C17 C16 1_555 1_555
H19 C17 1_555 1_555
H20 C17 1_555 1_555
C18 C17 1_555 1_555
H21 C18 1_555 1_555
C19 C18 1_555 1_555
H22 C19 1_555 1_555
H23 C19 1_555 1_555
H24 C19 1_555 1_555
C20 C11 1_555 1_555
H25 C20 1_555 1_555
H26 C20 1_555 1_555
N1 C11 1_555 1_555
C9 C10 1_555 1_555
C18 C20 1_555 1_555

#END
