
#######################################################################
#
#                 Cambridge Crystallographic Data Centre
#                                CCDC 
#
#######################################################################
#
# If this CIF has been generated from an entry in the Cambridge 
# Structural Database, then it will include bibliographic, chemical, 
# crystal, experimental, refinement or atomic coordinate data resulting 
# from the CCDC's data processing and validation procedures.
#
#######################################################################

data_ADIGAX
_chemical_formula_moiety         'C35 H33 Br1 N4 O2 S1'
_chemical_name_systematic        
2-(6-Bromo-1,3-benzothiazol-2-yl)-3',6'-bis(diethylamino)spiro[isoindole-1,9'-xanthen]-3(2H)-one
_symmetry_cell_setting           monoclinic
_symmetry_space_group_name_H-M   'P 21/c'
_symmetry_Int_Tables_number      14
_space_group_name_Hall           '-P 2ybc'
loop_
_symmetry_equiv_pos_site_id
_symmetry_equiv_pos_as_xyz
1 x,y,z
2 -x,1/2+y,1/2-z
3 -x,-y,-z
4 x,1/2-y,1/2+z
_cell_length_a                   16.2504(18)
_cell_length_b                   12.0239(13)
_cell_length_c                   18.9598(15)
_cell_angle_alpha                90
_cell_angle_beta                 124.038(6)
_cell_angle_gamma                90
_cell_volume                     3069.89
_exptl_crystal_colour            yellow
_exptl_crystal_description       block
_cell_formula_units_Z            4
loop_
_atom_site_label
_atom_site_type_symbol
_atom_site_fract_x
_atom_site_fract_y
_atom_site_fract_z
Br1 Br 0.42251(4) 0.98419(4) 0.12871(3)
S1 S 0.59936(7) 0.97948(7) 0.48276(6)
N1 N 0.71009(19) 0.8174(2) 0.48766(17)
N2 N 0.74946(18) 0.8714(2) 0.62259(16)
C1 C 0.7400(3) 0.2595(3) 0.5543(2)
H1 H 0.7609 0.2986 0.5222
H2 H 0.6896 0.2059 0.5166
O1 O 0.6627(2) 1.0021(2) 0.64569(18)
O2 O 0.91530(16) 0.62481(19) 0.61258(15)
C2 C 0.5109(3) 0.9276(3) 0.2406(2)
C3 C 0.5720(3) 0.8383(4) 0.2532(2)
H3 H 0.5674 0.8055 0.2066
C4 C 0.6394(3) 0.7978(3) 0.3336(2)
H4 H 0.6810 0.7389 0.3419
C5 C 0.6444(2) 0.8469(3) 0.4027(2)
C6 C 0.5800(2) 0.9342(3) 0.3880(2)
C7 C 0.5118(3) 0.9756(3) 0.3063(2)
H5 H 0.4688 1.0334 0.2971
C8 C 0.6950(2) 0.8803(3) 0.5347(2)
C9 C 0.7289(3) 0.9333(3) 0.6730(2)
C10 C 0.8004(2) 0.8967(3) 0.7609(2)
C11 C 0.8088(3) 0.9330(3) 0.8341(2)
H6 H 0.7680 0.9887 0.8324
C12 C 0.8806(3) 0.8825(4) 0.9098(3)
H7 H 0.8892 0.9049 0.9605
C13 C 0.9392(3) 0.7991(4) 0.9106(2)
H8 H 0.9867 0.7661 0.9622
C14 C 0.9299(3) 0.7631(3) 0.8376(2)
H9 H 0.9697 0.7064 0.8390
C15 C 0.8586(2) 0.8145(3) 0.7618(2)
C16 C 0.8332(2) 0.7883(3) 0.67291(19)
C17 C 0.7967(2) 0.6697(3) 0.64720(18)
C18 C 0.7209(2) 0.6281(3) 0.6524(2)
H10 H 0.6919 0.6750 0.6716
C19 C 0.6865(3) 0.5209(3) 0.6305(2)
H11 H 0.6347 0.4975 0.6344
C20 C 0.7284(2) 0.4465(3) 0.6022(2)
C21 C 0.8052(2) 0.4882(3) 0.5965(2)
H12 H 0.8350 0.4421 0.5776
C22 C 0.8370(2) 0.5968(3) 0.61856(18)
C23 C 0.9564(2) 0.7292(3) 0.63870(18)
C24 C 1.0884(2) 0.8484(3) 0.66027(19)
C25 C 1.0509(2) 0.9319(3) 0.6868(2)
H13 H 1.0813 1.0014 0.7025
C26 C 0.9697(2) 0.9113(3) 0.6896(2)
H14 H 0.9475 0.9675 0.7088
C27 C 0.9189(2) 0.8102(3) 0.66511(18)
N3 N 0.6970(2) 0.3387(2) 0.58266(19)
C28 C 0.8281(3) 0.1980(4) 0.6274(3)
H15 H 0.8546 0.1479 0.6055
H16 H 0.8073 0.1567 0.6581
H17 H 0.8783 0.2506 0.6650
C29 C 1.1896(3) 0.9763(3) 0.6374(3)
H18 H 1.2602 0.9887 0.6651
H19 H 1.1650 1.0328 0.6577
C30 C 1.1390(4) 0.9904(5) 0.5431(4)
H20 H 1.1518 1.0638 0.5314
H21 H 1.0687 0.9802 0.5151
H22 H 1.1641 0.9362 0.5225
N4 N 1.1750(2) 0.8676(2) 0.6624(2)
C31 C 1.0392(2) 0.7474(3) 0.63596(19)
H23 H 1.0618 0.6907 0.6175
C32 C 0.6254(3) 0.2922(3) 0.5984(3)
H24 H 0.6331 0.3291 0.6473
H25 H 0.6394 0.2138 0.6119
C33 C 0.5194(3) 0.3055(4) 0.5227(3)
H26 H 0.4750 0.2773 0.5367
H27 H 0.5102 0.2649 0.4752
H28 H 0.5057 0.3829 0.5081
C34 C 1.2195(3) 0.7728(4) 0.6476(3)
H29 H 1.1793 0.7544 0.5875
H30 H 1.2187 0.7091 0.6786
C35 C 1.3250(3) 0.7932(5) 0.6743(3)
H31 H 1.3496 0.7283 0.6622
H32 H 1.3660 0.8085 0.7342
H33 H 1.3265 0.8556 0.6434
loop_
_geom_bond_atom_site_label_1
_geom_bond_atom_site_label_2
_geom_bond_site_symmetry_1
_geom_bond_site_symmetry_2
Br1 C2 1_555 1_555
S1 C6 1_555 1_555
N1 C5 1_555 1_555
N2 C8 1_555 1_555
C1 H1 1_555 1_555
H2 C1 1_555 1_555
O1 C9 1_555 1_555
O2 C22 1_555 1_555
C2 C3 1_555 1_555
C3 H3 1_555 1_555
C4 C3 1_555 1_555
H4 C4 1_555 1_555
C5 C4 1_555 1_555
C6 C5 1_555 1_555
C7 C2 1_555 1_555
H5 C7 1_555 1_555
C8 S1 1_555 1_555
C9 N2 1_555 1_555
C10 C9 1_555 1_555
C11 C10 1_555 1_555
H6 C11 1_555 1_555
C12 C11 1_555 1_555
H7 C12 1_555 1_555
C13 C12 1_555 1_555
H8 C13 1_555 1_555
C14 C13 1_555 1_555
H9 C14 1_555 1_555
C15 C10 1_555 1_555
C16 N2 1_555 1_555
C17 C16 1_555 1_555
C18 C17 1_555 1_555
H10 C18 1_555 1_555
C19 C18 1_555 1_555
H11 C19 1_555 1_555
C20 C19 1_555 1_555
C21 C20 1_555 1_555
H12 C21 1_555 1_555
C22 C17 1_555 1_555
C23 O2 1_555 1_555
C24 C25 1_555 1_555
C25 H13 1_555 1_555
C26 C25 1_555 1_555
H14 C26 1_555 1_555
C27 C16 1_555 1_555
N3 C1 1_555 1_555
C28 C1 1_555 1_555
H15 C28 1_555 1_555
H16 C28 1_555 1_555
H17 C28 1_555 1_555
C29 H18 1_555 1_555
H19 C29 1_555 1_555
C30 C29 1_555 1_555
H20 C30 1_555 1_555
H21 C30 1_555 1_555
H22 C30 1_555 1_555
N4 C24 1_555 1_555
C31 C23 1_555 1_555
H23 C31 1_555 1_555
C32 N3 1_555 1_555
H24 C32 1_555 1_555
H25 C32 1_555 1_555
C33 C32 1_555 1_555
H26 C33 1_555 1_555
H27 C33 1_555 1_555
H28 C33 1_555 1_555
C34 N4 1_555 1_555
H29 C34 1_555 1_555
H30 C34 1_555 1_555
C35 C34 1_555 1_555
H31 C35 1_555 1_555
H32 C35 1_555 1_555
H33 C35 1_555 1_555
N1 C8 1_555 1_555
C6 C7 1_555 1_555
C14 C15 1_555 1_555
C15 C16 1_555 1_555
C20 N3 1_555 1_555
C21 C22 1_555 1_555
C23 C27 1_555 1_555
C24 C31 1_555 1_555
C26 C27 1_555 1_555
C29 N4 1_555 1_555

#END
