
#######################################################################
#
#                 Cambridge Crystallographic Data Centre
#                                CCDC 
#
#######################################################################
#
# If this CIF has been generated from an entry in the Cambridge 
# Structural Database, then it will include bibliographic, chemical, 
# crystal, experimental, refinement or atomic coordinate data resulting 
# from the CCDC's data processing and validation procedures.
#
#######################################################################

data_ADIGOK
_chemical_formula_moiety         'C11 H13 N3 O1'
_chemical_name_systematic        
(R)-(-)-6-(4-Aminophenyl)-5-methyl-4,5-dihydropyridazin-3(2H)-one
_symmetry_cell_setting           orthorhombic
_symmetry_space_group_name_H-M   'P 21 21 21'
_symmetry_Int_Tables_number      19
_space_group_name_Hall           'P 2ac 2ab'
loop_
_symmetry_equiv_pos_site_id
_symmetry_equiv_pos_as_xyz
1 x,y,z
2 1/2-x,-y,1/2+z
3 -x,1/2+y,1/2-z
4 1/2+x,1/2-y,-z
_cell_length_a                   9.765(2)
_cell_length_b                   11.552(2)
_cell_length_c                   18.796(4)
_cell_angle_alpha                90
_cell_angle_beta                 90
_cell_angle_gamma                90
_cell_volume                     2120.29
_exptl_crystal_colour            colorless
_exptl_crystal_description       plate
_chemical_melting_point          '474 K'
_cell_formula_units_Z            8
_exptl_crystal_recrystallization_method ethanol
loop_
_atom_site_label
_atom_site_type_symbol
_atom_site_fract_x
_atom_site_fract_y
_atom_site_fract_z
O1 O 0.3311(3) 0.09188(16) 0.19959(12)
C1 C 0.2858(3) 0.7887(2) 0.30168(16)
C2 C 0.3453(3) 0.7465(2) 0.23932(16)
H1 H 0.3904 0.7974 0.2090
C3 C 0.3385(3) 0.6319(2) 0.22203(15)
H2 H 0.3805 0.6063 0.1805
C4 C 0.2693(3) 0.5513(2) 0.26558(14)
C5 C 0.2056(3) 0.5956(2) 0.32629(15)
H3 H 0.1556 0.5458 0.3552
C6 C 0.2146(3) 0.7109(2) 0.34457(17)
H4 H 0.1726 0.7370 0.3860
C7 C 0.2702(3) 0.4281(2) 0.24753(13)
C8 C 0.3141(3) 0.1931(2) 0.21840(15)
C9 C 0.2695(3) 0.2279(2) 0.29134(15)
H5 H 0.3495 0.2347 0.3216
H6 H 0.2115 0.1677 0.3109
C10 C 0.1925(3) 0.3408(2) 0.29219(14)
H7 H 0.1875 0.3691 0.3413
C11 C 0.0457(3) 0.3280(3) 0.2626(2)
H8 H -0.0039 0.2727 0.2907
H9 H 0.0498 0.3019 0.2141
H10 H 0.0000 0.4015 0.2645
N1 N 0.2975(3) 0.90338(19) 0.31962(16)
H11 H 0.2604 0.9287 0.3581
H12 H 0.3420 0.9500 0.2924
N2 N 0.3368(3) 0.39839(17) 0.19048(12)
N3 N 0.3379(3) 0.28099(18) 0.17307(12)
H13 H 0.3554 0.2632 0.1296
O2 O 0.4972(3) 0.71471(16) 0.45000(12)
C12 C 0.3882(3) 0.0142(2) 0.52854(17)
C13 C 0.3260(4) 0.0940(2) 0.57308(19)
H14 H 0.2799 0.0683 0.6134
C14 C 0.3313(3) 0.2097(2) 0.55873(16)
H15 H 0.2869 0.2609 0.5891
C15 C 0.4014(3) 0.2537(2) 0.49978(15)
C16 C 0.4670(3) 0.1725(2) 0.45581(15)
H16 H 0.5162 0.1986 0.4166
C17 C 0.4607(3) 0.0556(2) 0.46902(16)
H17 H 0.5043 0.0039 0.4386
C18 C 0.4165(3) 0.3785(2) 0.48680(14)
C19 C 0.4549(4) 0.6147(2) 0.46004(17)
C20 C 0.3552(4) 0.5810(2) 0.51684(17)
H18 H 0.2633 0.5792 0.4972
H19 H 0.3570 0.6380 0.5548
C21 C 0.3916(3) 0.4627(2) 0.54652(15)
H20 H 0.3149 0.4346 0.5753
C22 C 0.5205(5) 0.4653(3) 0.59288(19)
H21 H 0.5388 0.3890 0.6107
H22 H 0.5067 0.5174 0.6320
H23 H 0.5969 0.4913 0.5649
N4 N 0.3813(4) -0.1023(2) 0.5425(2)
H24 H 0.3378 -0.1268 0.5793
H25 H 0.4204 -0.1509 0.5144
N5 N 0.4628(3) 0.41106(18) 0.42544(12)
N6 N 0.4942(3) 0.52796(17) 0.41767(13)
H26 H 0.5443 0.5463 0.3818
loop_
_geom_bond_atom_site_label_1
_geom_bond_atom_site_label_2
_geom_bond_site_symmetry_1
_geom_bond_site_symmetry_2
O1 C8 1_555 1_555
C1 C2 1_555 1_555
C2 H1 1_555 1_555
C3 C2 1_555 1_555
H2 C3 1_555 1_555
C4 C3 1_555 1_555
C5 C4 1_555 1_555
H3 C5 1_555 1_555
C6 C1 1_555 1_555
H4 C6 1_555 1_555
C7 C4 1_555 1_555
C8 C9 1_555 1_555
C9 H5 1_555 1_555
H6 C9 1_555 1_555
C10 C7 1_555 1_555
H7 C10 1_555 1_555
C11 C10 1_555 1_555
H8 C11 1_555 1_555
H9 C11 1_555 1_555
H10 C11 1_555 1_555
N1 C1 1_555 1_555
H11 N1 1_555 1_555
H12 N1 1_555 1_555
N2 C7 1_555 1_555
N3 C8 1_555 1_555
H13 N3 1_555 1_555
O2 C19 1_555 1_555
C12 C13 1_555 1_555
C13 H14 1_555 1_555
C14 C13 1_555 1_555
H15 C14 1_555 1_555
C15 C14 1_555 1_555
C16 C15 1_555 1_555
H16 C16 1_555 1_555
C17 C12 1_555 1_555
H17 C17 1_555 1_555
C18 C15 1_555 1_555
C19 C20 1_555 1_555
C20 H18 1_555 1_555
H19 C20 1_555 1_555
C21 C18 1_555 1_555
H20 C21 1_555 1_555
C22 C21 1_555 1_555
H21 C22 1_555 1_555
H22 C22 1_555 1_555
H23 C22 1_555 1_555
N4 C12 1_555 1_555
H24 N4 1_555 1_555
H25 N4 1_555 1_555
N5 C18 1_555 1_555
N6 C19 1_555 1_555
H26 N6 1_555 1_555
C5 C6 1_555 1_555
C9 C10 1_555 1_555
N2 N3 1_555 1_555
C16 C17 1_555 1_555
C20 C21 1_555 1_555
N5 N6 1_555 1_555

#END
