
#######################################################################
#
#                 Cambridge Crystallographic Data Centre
#                                CCDC 
#
#######################################################################
#
# If this CIF has been generated from an entry in the Cambridge 
# Structural Database, then it will include bibliographic, chemical, 
# crystal, experimental, refinement or atomic coordinate data resulting 
# from the CCDC's data processing and validation procedures.
#
#######################################################################

data_ADIHUT
_chemical_formula_moiety         'C15 H14 N2 O1'
_chemical_name_systematic        
5,9b-dimethyl-5,9b-dihydropyrrolizino[3,2-b]indol-10(4aH)-one
_symmetry_cell_setting           monoclinic
_symmetry_space_group_name_H-M   'P 21/n'
_symmetry_Int_Tables_number      14
_space_group_name_Hall           '-P 2yn'
loop_
_symmetry_equiv_pos_site_id
_symmetry_equiv_pos_as_xyz
1 x,y,z
2 1/2-x,1/2+y,1/2-z
3 -x,-y,-z
4 1/2+x,1/2-y,1/2+z
_cell_length_a                   9.8465(5)
_cell_length_b                   26.3558(14)
_cell_length_c                   9.9725(5)
_cell_angle_alpha                90
_cell_angle_beta                 104.267(2)
_cell_angle_gamma                90
_cell_volume                     2508.17
_exptl_crystal_colour            colorless
_exptl_crystal_description       block
_cell_formula_units_Z            8
loop_
_atom_site_label
_atom_site_type_symbol
_atom_site_fract_x
_atom_site_fract_y
_atom_site_fract_z
C1 C 0.02002(15) 0.04272(6) 0.19698(18)
H1 H -0.0571 0.0606 0.1383
H2 H -0.0045 0.0328 0.2806
H3 H 0.0410 0.0131 0.1499
O1 O 0.31332(12) 0.00729(4) 0.29544(12)
N1 N 0.12507(13) 0.16728(4) 0.21998(13)
N2 N 0.26027(11) 0.12542(4) 0.42850(11)
C2 C 0.20656(16) 0.18092(6) 0.00429(16)
H4 H 0.1981 0.2161 0.0045
C3 C 0.25180(19) 0.15630(8) -0.09950(17)
H5 H 0.2745 0.1754 -0.1694
C4 C 0.26399(19) 0.10448(8) -0.10187(16)
H6 H 0.2947 0.0889 -0.1728
C5 C 0.23061(16) 0.07519(6) 0.00145(15)
H7 H 0.2376 0.0400 -0.0003
C6 C 0.18687(12) 0.09914(5) 0.10667(13)
C7 C 0.17415(13) 0.15167(5) 0.10801(14)
C8 C 0.14812(12) 0.07724(5) 0.23228(13)
C9 C 0.27745(13) 0.04963(5) 0.32146(14)
C10 C 0.34204(13) 0.08272(5) 0.43262(13)
C11 C 0.13164(13) 0.12604(5) 0.31486(14)
H8 H 0.0473 0.1245 0.3503
C12 C 0.45629(15) 0.08726(6) 0.54558(15)
H9 H 0.5290 0.0641 0.5739
C13 C 0.44060(18) 0.13332(7) 0.60804(16)
H10 H 0.5022 0.1466 0.6862
C14 C 0.31893(17) 0.15605(6) 0.53507(15)
H11 H 0.2836 0.1870 0.5557
C15 C 0.11793(19) 0.21965(6) 0.2598(2)
H12 H 0.2111 0.2330 0.2917
H13 H 0.0701 0.2219 0.3327
H14 H 0.0679 0.2390 0.1815
O2 O 0.23612(15) 0.76317(4) 0.83293(14)
N3 N 0.33682(16) 0.92348(5) 0.71340(16)
N4 N 0.33209(12) 0.88612(4) 0.93620(12)
C16 C 0.1451(2) 0.92596(8) 0.4955(2)
H15 H 0.1437 0.9611 0.4865
C17 C 0.0566(2) 0.89569(11) 0.3990(2)
H16 H -0.0050 0.9109 0.3239
C18 C 0.05687(19) 0.84409(10) 0.41078(18)
H17 H -0.0042 0.8248 0.3442
C19 C 0.14816(15) 0.82012(7) 0.52203(16)
H18 H 0.1484 0.7850 0.5306
C20 C 0.23807(13) 0.84965(5) 0.61902(14)
C21 C 0.23667(15) 0.90215(6) 0.60677(16)
C22 C 0.34746(13) 0.83404(5) 0.74728(14)
C23 C 0.27462(15) 0.80702(5) 0.84670(15)
C24 C 0.26213(15) 0.84269(6) 0.95212(15)
C25 C 0.20962(19) 0.84869(8) 1.06835(17)
H19 H 0.1572 0.8252 1.1037
C26 C 0.2504(2) 0.89643(8) 1.12147(18)
H20 H 0.2296 0.9108 1.1993
C27 C 0.32667(18) 0.91898(7) 1.03973(18)
H21 H 0.3674 0.9510 1.0529
C28 C 0.3583(2) 0.97701(6) 0.7354(3)
H22 H 0.3618 0.9931 0.6499
H23 H 0.4451 0.9827 0.8029
H24 H 0.2825 0.9911 0.7682
C29 C 0.46592(16) 0.80226(6) 0.71632(18)
H25 H 0.4292 0.7703 0.6771
H26 H 0.5363 0.7964 0.8005
H27 H 0.5067 0.8201 0.6519
C30 C 0.39450(14) 0.88615(5) 0.81556(16)
H28 H 0.4969 0.8887 0.8446
loop_
_geom_bond_atom_site_label_1
_geom_bond_atom_site_label_2
_geom_bond_site_symmetry_1
_geom_bond_site_symmetry_2
C1 H1 1_555 1_555
H2 C1 1_555 1_555
H3 C1 1_555 1_555
O1 C9 1_555 1_555
N1 C7 1_555 1_555
N2 C10 1_555 1_555
C2 H4 1_555 1_555
C3 C2 1_555 1_555
H5 C3 1_555 1_555
C4 C3 1_555 1_555
H6 C4 1_555 1_555
C5 C4 1_555 1_555
H7 C5 1_555 1_555
C6 C5 1_555 1_555
C7 C2 1_555 1_555
C8 C1 1_555 1_555
C9 C8 1_555 1_555
C10 C9 1_555 1_555
C11 N1 1_555 1_555
H8 C11 1_555 1_555
C12 C10 1_555 1_555
H9 C12 1_555 1_555
C13 C12 1_555 1_555
H10 C13 1_555 1_555
C14 N2 1_555 1_555
H11 C14 1_555 1_555
C15 N1 1_555 1_555
H12 C15 1_555 1_555
H13 C15 1_555 1_555
H14 C15 1_555 1_555
O2 C23 1_555 1_555
N3 C21 1_555 1_555
N4 C24 1_555 1_555
C16 H15 1_555 1_555
C17 C16 1_555 1_555
H16 C17 1_555 1_555
C18 C17 1_555 1_555
H17 C18 1_555 1_555
C19 C18 1_555 1_555
H18 C19 1_555 1_555
C20 C19 1_555 1_555
C21 C16 1_555 1_555
C22 C20 1_555 1_555
C23 C22 1_555 1_555
C24 C23 1_555 1_555
C25 C24 1_555 1_555
H19 C25 1_555 1_555
C26 C25 1_555 1_555
H20 C26 1_555 1_555
C27 N4 1_555 1_555
H21 C27 1_555 1_555
C28 N3 1_555 1_555
H22 C28 1_555 1_555
H23 C28 1_555 1_555
H24 C28 1_555 1_555
C29 C22 1_555 1_555
H25 C29 1_555 1_555
H26 C29 1_555 1_555
H27 C29 1_555 1_555
C30 N3 1_555 1_555
H28 C30 1_555 1_555
N2 C11 1_555 1_555
C6 C7 1_555 1_555
C6 C8 1_555 1_555
C8 C11 1_555 1_555
C13 C14 1_555 1_555
N4 C30 1_555 1_555
C20 C21 1_555 1_555
C22 C30 1_555 1_555
C26 C27 1_555 1_555

#END
