
#######################################################################
#
#                 Cambridge Crystallographic Data Centre
#                                CCDC 
#
#######################################################################
#
# If this CIF has been generated from an entry in the Cambridge 
# Structural Database, then it will include bibliographic, chemical, 
# crystal, experimental, refinement or atomic coordinate data resulting 
# from the CCDC's data processing and validation procedures.
#
#######################################################################

data_ADIHIG
_chemical_formula_moiety         'C27 H34 N2 O2 S1'
_chemical_name_systematic        
't-butyl (2S,3S)-1-((2S,5S)-2,5-diphenylpyrrolidin-1-yl)-3-methyl-1-thioxopent-4-en-2-ylcarbamate'
_symmetry_cell_setting           monoclinic
_symmetry_space_group_name_H-M   'C 2'
_symmetry_Int_Tables_number      5
_space_group_name_Hall           'C 2y'
loop_
_symmetry_equiv_pos_site_id
_symmetry_equiv_pos_as_xyz
1 x,y,z
2 -x,y,-z
3 1/2+x,1/2+y,z
4 1/2-x,1/2+y,-z
_cell_length_a                   18.913(11)
_cell_length_b                   6.478(4)
_cell_length_c                   22.834(13)
_cell_angle_alpha                90
_cell_angle_beta                 110.889(7)
_cell_angle_gamma                90
_cell_volume                     2613.71
_exptl_crystal_colour            colorless
_exptl_crystal_description       prism
_cell_formula_units_Z            4
loop_
_atom_site_label
_atom_site_type_symbol
_atom_site_fract_x
_atom_site_fract_y
_atom_site_fract_z
S1 S 0.34995(8) 0.0352(2) 0.17204(6)
O1 O 0.5485(2) 0.3277(6) 0.35655(17)
O2 O 0.58593(18) 0.0156(6) 0.33010(14)
N1 N 0.5020(3) 0.2011(8) 0.25604(19)
H1 H 0.496(3) 0.093(5) 0.234(2)
N2 N 0.3091(2) 0.3892(6) 0.20903(18)
C1 C 0.3649(3) 0.2683(7) 0.2056(2)
C2 C 0.4458(3) 0.3601(8) 0.2320(2)
H2 H 0.4485 0.4538 0.2675
C3 C 0.4613(3) 0.4926(8) 0.1805(2)
H3 H 0.4193 0.5954 0.1648
C4 C 0.4597(3) 0.3618(9) 0.1249(2)
H4 H 0.4112 0.3225 0.0965
C5 C 0.5178(4) 0.2976(10) 0.1119(3)
H5 H 0.5676 0.3324 0.1387
H6 H 0.5103 0.2159 0.0756
C6 C 0.5342(3) 0.6132(9) 0.2098(3)
H7 H 0.5765 0.5170 0.2271
H8 H 0.5302 0.7011 0.2434
H9 H 0.5429 0.6996 0.1778
C7 C 0.5467(3) 0.1922(9) 0.3194(2)
C8 C 0.6404(3) -0.0311(8) 0.3943(2)
C9 C 0.6709(3) -0.2427(9) 0.3865(3)
H10 H 0.6289 -0.3410 0.3714
H11 H 0.7069 -0.2895 0.4269
H12 H 0.6965 -0.2337 0.3561
C10 C 0.7029(3) 0.1316(10) 0.4127(3)
H13 H 0.7270 0.1359 0.3812
H14 H 0.7408 0.0963 0.4536
H15 H 0.6811 0.2670 0.4153
C11 C 0.5991(3) -0.0422(11) 0.4401(3)
H16 H 0.5732 0.0890 0.4398
H17 H 0.6356 -0.0685 0.4824
H18 H 0.5619 -0.1543 0.4279
C12 C 0.3195(3) 0.5796(7) 0.2481(2)
H19 H 0.3534 0.6791 0.2373
C13 C 0.2375(3) 0.6669(9) 0.2270(3)
H20 H 0.2298 0.7484 0.2610
H21 H 0.2262 0.7551 0.1894
C14 C 0.1881(3) 0.4734(8) 0.2125(2)
H22 H 0.1359 0.5060 0.1843
H23 H 0.1862 0.4106 0.2514
C15 C 0.2273(3) 0.3279(8) 0.1801(2)
H24 H 0.2211 0.1816 0.1914
C16 C 0.3512(2) 0.5307(10) 0.3182(2)
C17 C 0.3466(3) 0.3383(9) 0.3421(2)
H25 H 0.3248 0.2264 0.3147
C18 C 0.3747(3) 0.3087(10) 0.4080(3)
H26 H 0.3719 0.1760 0.4247
C19 C 0.4060(3) 0.4700(11) 0.4479(3)
H27 H 0.4234 0.4488 0.4919
C20 C 0.4122(3) 0.6595(11) 0.4247(3)
H28 H 0.4354 0.7688 0.4528
C21 C 0.3845(3) 0.6961(10) 0.3592(3)
H29 H 0.3882 0.8293 0.3431
C22 C 0.1978(3) 0.3507(9) 0.1088(2)
C23 C 0.1390(4) 0.2208(11) 0.0741(3)
H30 H 0.1209 0.1172 0.0946
C24 C 0.1062(4) 0.2434(12) 0.0083(3)
H31 H 0.0653 0.1573 -0.0152
C25 C 0.1332(3) 0.3876(11) -0.0213(3)
H32 H 0.1111 0.3999 -0.0656
C26 C 0.1929(3) 0.5191(12) 0.0119(3)
H33 H 0.2110 0.6215 -0.0090
C27 C 0.2253(3) 0.4940(9) 0.0777(2)
H34 H 0.2670 0.5780 0.1010
loop_
_geom_bond_atom_site_label_1
_geom_bond_atom_site_label_2
_geom_bond_site_symmetry_1
_geom_bond_site_symmetry_2
S1 C1 1_555 1_555
O1 C7 1_555 1_555
O2 C7 1_555 1_555
N1 H1 1_555 1_555
N2 C1 1_555 1_555
C1 C2 1_555 1_555
C2 N1 1_555 1_555
H2 C2 1_555 1_555
C3 C2 1_555 1_555
H3 C3 1_555 1_555
C4 C3 1_555 1_555
H4 C4 1_555 1_555
C5 C4 1_555 1_555
H5 C5 1_555 1_555
H6 C5 1_555 1_555
C6 C3 1_555 1_555
H7 C6 1_555 1_555
H8 C6 1_555 1_555
H9 C6 1_555 1_555
C7 N1 1_555 1_555
C8 O2 1_555 1_555
C9 C8 1_555 1_555
H10 C9 1_555 1_555
H11 C9 1_555 1_555
H12 C9 1_555 1_555
C10 C8 1_555 1_555
H13 C10 1_555 1_555
H14 C10 1_555 1_555
H15 C10 1_555 1_555
C11 C8 1_555 1_555
H16 C11 1_555 1_555
H17 C11 1_555 1_555
H18 C11 1_555 1_555
C12 N2 1_555 1_555
H19 C12 1_555 1_555
C13 C12 1_555 1_555
H20 C13 1_555 1_555
H21 C13 1_555 1_555
C14 C13 1_555 1_555
H22 C14 1_555 1_555
H23 C14 1_555 1_555
C15 N2 1_555 1_555
H24 C15 1_555 1_555
C16 C12 1_555 1_555
C17 C16 1_555 1_555
H25 C17 1_555 1_555
C18 C17 1_555 1_555
H26 C18 1_555 1_555
C19 C18 1_555 1_555
H27 C19 1_555 1_555
C20 C19 1_555 1_555
H28 C20 1_555 1_555
C21 C16 1_555 1_555
H29 C21 1_555 1_555
C22 C15 1_555 1_555
C23 C22 1_555 1_555
H30 C23 1_555 1_555
C24 C23 1_555 1_555
H31 C24 1_555 1_555
C25 C24 1_555 1_555
H32 C25 1_555 1_555
C26 C25 1_555 1_555
H33 C26 1_555 1_555
C27 C22 1_555 1_555
H34 C27 1_555 1_555
C14 C15 1_555 1_555
C20 C21 1_555 1_555
C26 C27 1_555 1_555

#END
