
#######################################################################
#
#                 Cambridge Crystallographic Data Centre
#                                CCDC 
#
#######################################################################
#
# If this CIF has been generated from an entry in the Cambridge 
# Structural Database, then it will include bibliographic, chemical, 
# crystal, experimental, refinement or atomic coordinate data resulting 
# from the CCDC's data processing and validation procedures.
#
#######################################################################

data_ADIHOK
_chemical_formula_moiety         '2(C14 H21 N1 O4 S1),C7 H9 N5'
_chemical_name_systematic        
'bis(Methylsulfanylmethyl 1,5,7-trimethyl-2,4-dioxo-3-azabicyclo(3.3.1)nonane-7-carboxylate) 1-ethyladenine'
_symmetry_cell_setting           monoclinic
_symmetry_space_group_name_H-M   'P c'
_symmetry_Int_Tables_number      7
_space_group_name_Hall           'P -2yc'
loop_
_symmetry_equiv_pos_site_id
_symmetry_equiv_pos_as_xyz
1 x,y,z
2 x,-y,1/2+z
_cell_length_a                   8.070(7)
_cell_length_b                   16.290(20)
_cell_length_c                   14.938(27)
_cell_angle_alpha                90
_cell_angle_beta                 97.46(12)
_cell_angle_gamma                90
_cell_volume                     1947.13
_exptl_crystal_colour            colorless
_exptl_crystal_description       prism
_cell_formula_units_Z            2
loop_
_atom_site_label
_atom_site_type_symbol
_atom_site_fract_x
_atom_site_fract_y
_atom_site_fract_z
N1 N 0.8279(7) 0.7320(5) 0.2620(4)
N2 N 0.3901(8) 0.6929(5) 0.1621(4)
C1 C 0.2785(10) 0.7249(6) 0.2091(6)
H1 H 0.1605(10) 0.7176(6) 0.1925(6)
N3 N 0.3416(7) 0.7674(5) 0.2827(4)
N4 N 0.6245(8) 0.7954(4) 0.3470(4)
C2 C 0.2502(10) 0.8047(6) 0.3532(7)
H2 H 0.3260(10) 0.8075(6) 0.4083(7)
H3 H 0.1544(10) 0.7730(6) 0.3639(7)
C3 C 0.5379(10) 0.7170(5) 0.2125(5)
C4 C 0.5130(9) 0.7608(5) 0.2837(5)
C5 C 0.7789(10) 0.7755(5) 0.3294(6)
H4 H 0.8683(10) 0.7961(5) 0.3722(6)
N5 N 0.7487(8) 0.6546(6) 0.1318(5)
H5 H 0.8521(8) 0.6474(6) 0.1255(5)
H6 H 0.6717(8) 0.6336(6) 0.0934(5)
C6 C 0.7077(10) 0.6987(6) 0.2013(6)
C7 C 0.2092(15) 0.8833(7) 0.3287(9)
H7 H 0.1368(15) 0.9057(7) 0.3686(9)
H8 H 0.1530(15) 0.8836(7) 0.2679(9)
H9 H 0.3090(15) 0.9158(7) 0.3318(9)
S1 S 0.5090(3) 0.3393(2) 0.1322(2)
O1 O 0.7067(7) 0.2098(3) 0.1342(4)
C8 C 0.8489(9) 0.1725(5) 0.1153(6)
C9 C 0.7303(10) 0.0546(6) 0.2027(5)
H10 H 0.6539(10) 0.0956(6) 0.2187(5)
H11 H 0.7632(10) 0.0216(6) 0.2553(5)
O2 O 0.9315(7) 0.1986(4) 0.0623(4)
N6 N 0.6677(8) 0.0625(4) -0.0168(4)
H12 H 0.6345(8) 0.0980(4) -0.0617(4)
O3 O 0.8882(7) 0.0370(4) -0.0888(4)
O4 O 0.4292(7) 0.0845(4) 0.0416(4)
C10 C 0.8863(9) 0.0972(5) 0.1748(5)
C11 C 0.6344(11) 0.0002(6) 0.1308(6)
C12 C 0.9929(10) 0.0364(5) 0.1281(6)
H13 H 1.0573(10) 0.0038(5) 0.1736(6)
H14 H 1.0701(10) 0.0675(5) 0.0979(6)
C13 C 1.0089(12) -0.0869(6) 0.0262(7)
H15 H 0.9505(12) -0.1171(6) -0.0234(7)
H16 H 1.0452(12) -0.1240(6) 0.0748(7)
H17 H 1.1043(12) -0.0602(6) 0.0070(7)
C14 C 0.8954(11) -0.0238(5) 0.0589(5)
C15 C 0.5604(11) 0.0520(6) 0.0499(6)
C16 C 0.8194(10) 0.0263(6) -0.0230(6)
C17 C 0.7540(11) -0.0640(6) 0.1011(6)
H18 H 0.6908(11) -0.0992(6) 0.0579(6)
H19 H 0.7988(11) -0.0967(6) 0.1520(6)
C18 C 0.6506(10) 0.2793(6) 0.0805(6)
H20 H 0.7441(10) 0.3116(6) 0.0676(6)
H21 H 0.5939(10) 0.2589(6) 0.0245(6)
C19 C 0.4849(12) -0.0390(7) 0.1708(8)
H22 H 0.5260(12) -0.0706(7) 0.2232(8)
H23 H 0.4243(12) -0.0742(7) 0.1265(8)
H24 H 0.4120(12) 0.0034(7) 0.1873(8)
C20 C 0.9979(11) 0.1308(6) 0.2596(6)
H25 H 1.0950(11) 0.1572(6) 0.2420(6)
H26 H 1.0318(11) 0.0861(6) 0.2998(6)
H27 H 0.9350(11) 0.1697(6) 0.2897(6)
C21 C 0.3416(13) 0.2700(8) 0.1311(7)
H28 H 0.2550(13) 0.2949(8) 0.1603(7)
H29 H 0.3795(13) 0.2208(8) 0.1627(7)
H30 H 0.2986(13) 0.2568(8) 0.0698(7)
S2 S 0.4545(3) 0.8364(2) -0.1185(2)
O5 O 0.0251(7) 0.6997(4) -0.0503(4)
O6 O 0.2537(7) 0.7088(3) -0.1196(4)
C22 C 0.1287(10) 0.5339(5) 0.0365(5)
C23 C 0.1968(10) 0.4360(5) -0.0806(6)
H31 H 0.1499(10) 0.4027(5) -0.1305(6)
H32 H 0.2518(10) 0.4006(5) -0.0347(6)
C24 C 0.3879(9) 0.5484(5) -0.0318(5)
N7 N 0.2905(8) 0.5635(5) 0.0330(4)
H33 H 0.3332(8) 0.5971(5) 0.0780(4)
O7 O 0.0573(7) 0.5520(4) 0.1005(4)
C25 C 0.0559(9) 0.4826(5) -0.0434(5)
C26 C -0.0386(10) 0.5353(6) -0.1152(5)
H34 H -0.1184(10) 0.5667(6) -0.0872(5)
H35 H -0.0995(10) 0.5010(6) -0.1603(5)
O8 O 0.5325(7) 0.5767(4) -0.0215(4)
C27 C 0.3209(9) 0.4967(5) -0.1117(5)
C28 C 0.6258(13) 0.7636(7) -0.1081(10)
H36 H 0.7089(13) 0.7812(7) -0.1444(10)
H37 H 0.5843(13) 0.7106(7) -0.1282(10)
H38 H 0.6745(13) 0.7603(7) -0.0461(10)
C29 C 0.3063(11) 0.7807(6) -0.0650(6)
H39 H 0.2111(11) 0.8151(6) -0.0609(6)
H40 H 0.3529(11) 0.7649(6) -0.0051(6)
C30 C 0.0721(9) 0.5963(5) -0.1617(5)
C31 C 0.4627(11) 0.4529(6) -0.1502(7)
H41 H 0.5410(11) 0.4929(6) -0.1664(7)
H42 H 0.4184(11) 0.4222(6) -0.2028(7)
H43 H 0.5182(11) 0.4162(6) -0.1057(7)
C32 C -0.0311(10) 0.6282(6) -0.2480(5)
H44 H 0.0297(10) 0.6707(6) -0.2741(5)
H45 H -0.1348(10) 0.6499(6) -0.2333(5)
H46 H -0.0533(10) 0.5841(6) -0.2905(5)
C33 C 0.2286(9) 0.5527(6) -0.1861(5)
H47 H 0.1977(9) 0.5209(6) -0.2397(5)
H48 H 0.3042(9) 0.5948(6) -0.2005(5)
C34 C 0.1117(10) 0.6716(5) -0.1035(5)
C35 C -0.0761(12) 0.4213(6) -0.0130(6)
H49 H -0.0221(12) 0.3861(6) 0.0334(6)
H50 H -0.1238(12) 0.3886(6) -0.0634(6)
H51 H -0.1629(12) 0.4518(6) 0.0102(6)
loop_
_geom_bond_atom_site_label_1
_geom_bond_atom_site_label_2
_geom_bond_site_symmetry_1
_geom_bond_site_symmetry_2
N1 C5 1_555 1_555
N2 C1 1_555 1_555
C1 H1 1_555 1_555
N3 C1 1_555 1_555
N4 C4 1_555 1_555
C2 N3 1_555 1_555
H2 C2 1_555 1_555
H3 C2 1_555 1_555
C3 N2 1_555 1_555
C4 N3 1_555 1_555
C5 N4 1_555 1_555
H4 C5 1_555 1_555
N5 H5 1_555 1_555
H6 N5 1_555 1_555
C6 N1 1_555 1_555
C7 C2 1_555 1_555
H7 C7 1_555 1_555
H8 C7 1_555 1_555
H9 C7 1_555 1_555
S1 C18 1_555 1_555
O1 C8 1_555 1_555
C8 O2 1_555 1_555
C9 H10 1_555 1_555
H11 C9 1_555 1_555
N6 H12 1_555 1_555
O3 C16 1_555 1_555
O4 C15 1_555 1_555
C10 C8 1_555 1_555
C11 C9 1_555 1_555
C12 C10 1_555 1_555
H13 C12 1_555 1_555
H14 C12 1_555 1_555
C13 H15 1_555 1_555
H16 C13 1_555 1_555
H17 C13 1_555 1_555
C14 C12 1_555 1_555
C15 N6 1_555 1_555
C16 N6 1_555 1_555
C17 C11 1_555 1_555
H18 C17 1_555 1_555
H19 C17 1_555 1_555
C18 O1 1_555 1_555
H20 C18 1_555 1_555
H21 C18 1_555 1_555
C19 C11 1_555 1_555
H22 C19 1_555 1_555
H23 C19 1_555 1_555
H24 C19 1_555 1_555
C20 C10 1_555 1_555
H25 C20 1_555 1_555
H26 C20 1_555 1_555
H27 C20 1_555 1_555
C21 S1 1_555 1_555
H28 C21 1_555 1_555
H29 C21 1_555 1_555
H30 C21 1_555 1_555
S2 C28 1_555 1_555
O5 C34 1_555 1_555
O6 C29 1_555 1_555
C22 N7 1_555 1_555
C23 H31 1_555 1_555
H32 C23 1_555 1_555
C24 N7 1_555 1_555
N7 H33 1_555 1_555
O7 C22 1_555 1_555
C25 C22 1_555 1_555
C26 C25 1_555 1_555
H34 C26 1_555 1_555
H35 C26 1_555 1_555
O8 C24 1_555 1_555
C27 C23 1_555 1_555
C28 H36 1_555 1_555
H37 C28 1_555 1_555
H38 C28 1_555 1_555
C29 S2 1_555 1_555
H39 C29 1_555 1_555
H40 C29 1_555 1_555
C30 C26 1_555 1_555
C31 C27 1_555 1_555
H41 C31 1_555 1_555
H42 C31 1_555 1_555
H43 C31 1_555 1_555
C32 C30 1_555 1_555
H44 C32 1_555 1_555
H45 C32 1_555 1_555
H46 C32 1_555 1_555
C33 C27 1_555 1_555
H47 C33 1_555 1_555
H48 C33 1_555 1_555
C34 O6 1_555 1_555
C35 C25 1_555 1_555
H49 C35 1_555 1_555
H50 C35 1_555 1_555
H51 C35 1_555 1_555
C3 C6 1_555 1_555
C3 C4 1_555 1_555
N5 C6 1_555 1_555
C9 C10 1_555 1_555
C11 C15 1_555 1_555
C13 C14 1_555 1_555
C14 C16 1_555 1_555
C14 C17 1_555 1_555
C23 C25 1_555 1_555
C24 C27 1_555 1_555
C30 C34 1_555 1_555
C30 C33 1_555 1_555

#END
