
#######################################################################
#
#                 Cambridge Crystallographic Data Centre
#                                CCDC 
#
#######################################################################
#
# If this CIF has been generated from an entry in the Cambridge 
# Structural Database, then it will include bibliographic, chemical, 
# crystal, experimental, refinement or atomic coordinate data resulting 
# from the CCDC's data processing and validation procedures.
#
#######################################################################

data_ADIJEC
_chemical_formula_moiety         '2(C13 H19 N1 O4),C7 H9 N5'
_chemical_name_systematic        
'bis(Methyl 1,5,7-trimethyl-2,4-dioxo-3-azabicyclo(3.3.1)nonane-7-carboxylate) 1-ethyladenine'
_symmetry_cell_setting           monoclinic
_symmetry_space_group_name_H-M   'C 2/c'
_symmetry_Int_Tables_number      15
_space_group_name_Hall           '-C 2yn'
loop_
_symmetry_equiv_pos_site_id
_symmetry_equiv_pos_as_xyz
1 x,y,z
2 1/2+x,1/2+y,z
3 x,-y,1/2+z
4 1/2+x,1/2-y,1/2+z
5 -x,-y,-z
6 1/2-x,1/2-y,-z
7 -x,y,1/2-z
8 1/2-x,1/2+y,1/2-z
_cell_length_a                   20.709(18)
_cell_length_b                   12.819(9)
_cell_length_c                   26.773(22)
_cell_angle_alpha                90
_cell_angle_beta                 92.78(7)
_cell_angle_gamma                90
_cell_volume                     7099.03
_exptl_crystal_colour            colorless
_exptl_crystal_description       prism
_cell_formula_units_Z            8
loop_
_atom_site_label
_atom_site_type_symbol
_atom_site_fract_x
_atom_site_fract_y
_atom_site_fract_z
N1 N 0.59311(12) -0.1968(2) 0.47172(9)
C1 C 0.5705(2) -0.2772(2) 0.49745(12)
H1 H 0.5744(2) -0.3444(2) 0.48207(12)
N2 N 0.54368(14) -0.2773(2) 0.54125(10)
C2 C 0.54054(15) -0.1792(2) 0.55932(11)
C3 C 0.56179(13) -0.0901(2) 0.53777(10)
C4 C 0.58968(13) -0.1002(2) 0.49135(10)
N3 N 0.55012(12) -0.0037(2) 0.56715(9)
C5 C 0.5213(2) -0.0435(3) 0.60506(13)
H2 H 0.5074(2) -0.0025(3) 0.63257(13)
N4 N 0.51418(14) -0.1486(2) 0.60283(10)
N5 N 0.61375(12) -0.0206(2) 0.46629(9)
H3 H 0.60813(12) 0.0568(2) 0.48255(9)
H4 H 0.62103(12) -0.0316(2) 0.43255(9)
C21 C 0.4640(9) -0.2128(14) 0.6295(6)
H29 H 0.4605(9) -0.2824(14) 0.6154(6)
H30 H 0.4217(9) -0.1801(14) 0.6275(6)
C22 C 0.4940(11) -0.2191(20) 0.6825(9)
H31 H 0.4657(11) -0.2591(20) 0.7024(9)
H32 H 0.4975(11) -0.1494(20) 0.6956(9)
H33 H 0.5360(11) -0.2510(20) 0.6836(9)
C6 C 0.58459(14) 0.3913(2) 0.60846(10)
C7 C 0.56113(14) 0.2800(2) 0.60744(11)
N6 N 0.57259(11) 0.2224(2) 0.56491(8)
H5 H 0.55928(11) 0.1446(2) 0.56247(8)
C8 C 0.60050(14) 0.2576(2) 0.52243(11)
C9 C 0.62378(14) 0.3686(2) 0.52210(10)
C10 C 0.58218(15) 0.4339(2) 0.55551(11)
H6 H 0.59664(15) 0.5050(2) 0.55594(11)
H7 H 0.53823(15) 0.4323(2) 0.54235(11)
O1 O 0.60692(11) 0.1975(2) 0.48772(8)
O2 O 0.53433(11) 0.2380(2) 0.64149(8)
C11 C 0.65525(14) 0.3958(2) 0.62984(11)
H8 H 0.65711(14) 0.3665(2) 0.66288(11)
H9 H 0.66736(14) 0.4679(2) 0.63272(11)
C12 C 0.70503(13) 0.3404(2) 0.59846(11)
C13 C 0.69435(14) 0.3710(2) 0.54326(11)
H10 H 0.71098(14) 0.4402(2) 0.53903(11)
H11 H 0.71935(14) 0.3247(2) 0.52365(11)
C14 C 0.5419(2) 0.4566(3) 0.64198(13)
H12 H 0.4979(2) 0.4536(3) 0.62906(13)
H13 H 0.5446(2) 0.4297(3) 0.67548(13)
H14 H 0.5565(2) 0.5277(3) 0.64211(13)
C15 C 0.6199(2) 0.4098(2) 0.46857(11)
H15 H 0.6468(2) 0.3683(2) 0.44813(11)
H16 H 0.5759(2) 0.4058(2) 0.45575(11)
H17 H 0.6341(2) 0.4811(2) 0.46813(11)
C16 C 0.77374(15) 0.3746(3) 0.61696(13)
H18 H 0.80525(15) 0.3399(3) 0.59771(13)
H19 H 0.77802(15) 0.4487(3) 0.61320(13)
H20 H 0.78055(15) 0.3562(3) 0.65158(13)
C17 C 0.70422(14) 0.2249(2) 0.60927(12)
O3 O 0.72046(9) 0.16582(15) 0.57086(8)
C18 C 0.7215(2) 0.0549(3) 0.57965(14)
H21 H 0.7335(2) 0.0197(3) 0.54985(14)
H22 H 0.7523(2) 0.0391(3) 0.60650(14)
H23 H 0.6794(2) 0.0320(3) 0.58836(14)
O4 O 0.69355(12) 0.1876(2) 0.64934(9)
C23 C 0.64488(15) -0.3547(2) 0.29948(10)
C24 C 0.63108(14) -0.3347(3) 0.35371(11)
N7 N 0.62297(11) -0.2322(2) 0.36766(8)
H34 H 0.61673(11) -0.2229(2) 0.40840(8)
C25 C 0.62362(13) -0.1457(3) 0.33738(11)
C26 C 0.6372(2) -0.1632(2) 0.28296(10)
C27 C 0.6119(2) -0.2703(3) 0.26794(11)
H35 H 0.6199(2) -0.2824(3) 0.23340(11)
H36 H 0.5661(2) -0.2728(3) 0.27168(11)
O5 O 0.61401(10) -0.0596(2) 0.35493(7)
O6 O 0.62686(12) -0.4028(2) 0.38478(8)
C28 C 0.7186(2) -0.3507(2) 0.29281(12)
H37 H 0.7391(2) -0.4004(2) 0.31519(12)
H38 H 0.7264(2) -0.3723(2) 0.25931(12)
C29 C 0.7503(2) -0.2446(3) 0.30253(12)
C30 C 0.7112(2) -0.1579(3) 0.27685(12)
H39 H 0.7185(2) -0.1602(3) 0.24173(12)
H40 H 0.7267(2) -0.0919(3) 0.28937(12)
C31 C 0.6203(2) -0.4639(3) 0.28523(13)
H41 H 0.5746(2) -0.4674(3) 0.28931(13)
H42 H 0.6418(2) -0.5147(3) 0.30653(13)
H43 H 0.6291(2) -0.4783(3) 0.25102(13)
C32 C 0.6050(2) -0.0764(3) 0.25121(13)
H44 H 0.5592(2) -0.0787(3) 0.25492(13)
H45 H 0.6140(2) -0.0863(3) 0.21668(13)
H46 H 0.6215(2) -0.0100(3) 0.26232(13)
C33 C 0.8189(2) -0.2467(3) 0.2812(2)
H47 H 0.8392(2) -0.1801(3) 0.2868(2)
H48 H 0.8145(2) -0.2601(3) 0.2459(2)
H49 H 0.8450(2) -0.3002(3) 0.2971(2)
C34 C 0.7620(2) -0.2185(3) 0.35726(14)
O7 O 0.76674(12) -0.3017(2) 0.38689(9)
C35 C 0.7723(2) -0.2801(3) 0.43992(15)
H50 H 0.7753(2) -0.3446(3) 0.45814(15)
H51 H 0.7351(2) -0.2419(3) 0.44961(15)
H52 H 0.8106(2) -0.2394(3) 0.44722(15)
O8 O 0.76804(13) -0.1318(2) 0.37381(10)
C19? C 0.4462(11) -0.2012(17) 0.6660(15)
H24? H 0.4385(11) -0.2489(17) 0.6927(15)
H25? H 0.4126(11) -0.2086(17) 0.6402(15)
H26? H 0.4462(11) -0.1311(17) 0.6785(15)
C20? C 0.4965(11) -0.2223(11) 0.6444(9)
H27? H 0.4964(11) -0.2938(11) 0.6324(9)
H28? H 0.5300(11) -0.2162(11) 0.6708(9)
loop_
_geom_bond_atom_site_label_1
_geom_bond_atom_site_label_2
_geom_bond_site_symmetry_1
_geom_bond_site_symmetry_2
N1 C1 1_555 1_555
C1 H1 1_555 1_555
N2 C1 1_555 1_555
C2 N2 1_555 1_555
C3 C2 1_555 1_555
C4 N1 1_555 1_555
N3 C3 1_555 1_555
C5 N3 1_555 1_555
H2 C5 1_555 1_555
N4 C2 1_555 1_555
N5 C4 1_555 1_555
H3 N5 1_555 1_555
H4 N5 1_555 1_555
C6 C7 1_555 1_555
C7 N6 1_555 1_555
N6 H5 1_555 1_555
C8 N6 1_555 1_555
C9 C8 1_555 1_555
C10 C6 1_555 1_555
H6 C10 1_555 1_555
H7 C10 1_555 1_555
O1 C8 1_555 1_555
O2 C7 1_555 1_555
C11 C6 1_555 1_555
H8 C11 1_555 1_555
H9 C11 1_555 1_555
C12 C11 1_555 1_555
C13 C9 1_555 1_555
H10 C13 1_555 1_555
H11 C13 1_555 1_555
C14 C6 1_555 1_555
H12 C14 1_555 1_555
H13 C14 1_555 1_555
H14 C14 1_555 1_555
C15 C9 1_555 1_555
H15 C15 1_555 1_555
H16 C15 1_555 1_555
H17 C15 1_555 1_555
C16 C12 1_555 1_555
H18 C16 1_555 1_555
H19 C16 1_555 1_555
H20 C16 1_555 1_555
C17 C12 1_555 1_555
O3 C17 1_555 1_555
C18 O3 1_555 1_555
H21 C18 1_555 1_555
H22 C18 1_555 1_555
H23 C18 1_555 1_555
O4 C17 1_555 1_555
C21 N4 1_555 1_555
H29 C21 1_555 1_555
H30 C21 1_555 1_555
C22 C21 1_555 1_555
H31 C22 1_555 1_555
H32 C22 1_555 1_555
H33 C22 1_555 1_555
C23 C24 1_555 1_555
C24 N7 1_555 1_555
N7 H34 1_555 1_555
C25 N7 1_555 1_555
C26 C25 1_555 1_555
C27 C23 1_555 1_555
H35 C27 1_555 1_555
H36 C27 1_555 1_555
O5 C25 1_555 1_555
O6 C24 1_555 1_555
C28 C23 1_555 1_555
H37 C28 1_555 1_555
H38 C28 1_555 1_555
C29 C28 1_555 1_555
C30 C26 1_555 1_555
H39 C30 1_555 1_555
H40 C30 1_555 1_555
C31 C23 1_555 1_555
H41 C31 1_555 1_555
H42 C31 1_555 1_555
H43 C31 1_555 1_555
C32 C26 1_555 1_555
H44 C32 1_555 1_555
H45 C32 1_555 1_555
H46 C32 1_555 1_555
C33 C29 1_555 1_555
H47 C33 1_555 1_555
H48 C33 1_555 1_555
H49 C33 1_555 1_555
C34 C29 1_555 1_555
O7 C34 1_555 1_555
C35 O7 1_555 1_555
H50 C35 1_555 1_555
H51 C35 1_555 1_555
H52 C35 1_555 1_555
O8 C34 1_555 1_555
C3 C4 1_555 1_555
C5 N4 1_555 1_555
C9 C10 1_555 1_555
C12 C13 1_555 1_555
C26 C27 1_555 1_555
C29 C30 1_555 1_555

#END
