
#######################################################################
#
#                 Cambridge Crystallographic Data Centre
#                                CCDC 
#
#######################################################################
#
# If this CIF has been generated from an entry in the Cambridge 
# Structural Database, then it will include bibliographic, chemical, 
# crystal, experimental, refinement or atomic coordinate data resulting 
# from the CCDC's data processing and validation procedures.
#
#######################################################################

data_ADIJOM
_chemical_formula_moiety         'C20 H31 N1 O4'
_chemical_name_systematic        
'Cyclohexylethyl 1,5,7-trimethyl-2,4-dioxo-3-azabicyclo(3.3.1)nonane-7-carboxylate'
_symmetry_cell_setting           monoclinic
_symmetry_space_group_name_H-M   'P 21/c'
_symmetry_Int_Tables_number      14
_space_group_name_Hall           '-P 2ybc'
loop_
_symmetry_equiv_pos_site_id
_symmetry_equiv_pos_as_xyz
1 x,y,z
2 x,1/2-y,1/2+z
3 -x,-y,-z
4 -x,1/2+y,1/2-z
_cell_length_a                   13.248(10)
_cell_length_b                   12.890(9)
_cell_length_c                   11.843(10)
_cell_angle_alpha                90
_cell_angle_beta                 100.31(6)
_cell_angle_gamma                90
_cell_volume                     1989.74
_exptl_crystal_colour            colorless
_exptl_crystal_description       prism
_cell_formula_units_Z            4
loop_
_atom_site_label
_atom_site_type_symbol
_atom_site_fract_x
_atom_site_fract_y
_atom_site_fract_z
O1 O 1.0659(2) 0.4853(2) 0.1459(2)
O2 O 0.7930(2) 0.3041(2) -0.0266(2)
O3 O 0.7287(2) 0.5188(2) 0.0846(2)
O4 O 0.8564(3) 0.6146(2) 0.1759(2)
N1 N 0.9280(2) 0.3932(2) 0.0654(2)
H1 H 0.9346(2) 0.4207(2) -0.0028(2)
C1 C 0.8470(3) 0.3250(3) 0.0639(3)
C2 C 0.8324(3) 0.2818(2) 0.1788(3)
C3 C 0.9371(3) 0.2733(3) 0.2561(3)
H2 H 0.9798(3) 0.2273(3) 0.2215(3)
H3 H 0.9292(3) 0.2444(3) 0.3287(3)
C4 C 0.9888(2) 0.3789(2) 0.2745(3)
C5 C 0.9996(3) 0.4240(3) 0.1589(3)
C6 C 0.9210(3) 0.4514(3) 0.3322(3)
H4 H 0.9520(3) 0.5190(3) 0.3387(3)
H5 H 0.9204(3) 0.4267(3) 0.4085(3)
C7 C 0.8094(3) 0.4624(3) 0.2710(3)
C8 C 0.7644(3) 0.3556(3) 0.2345(3)
H6 H 0.7491(3) 0.3222(3) 0.3019(3)
H7 H 0.7008(3) 0.3652(3) 0.1824(3)
C9 C 0.7805(3) 0.1761(3) 0.1605(3)
H8 H 0.8221(3) 0.1295(3) 0.1252(3)
H9 H 0.7714(3) 0.1486(3) 0.2333(3)
H10 H 0.7147(3) 0.1839(3) 0.1117(3)
C10 C 1.0946(3) 0.3709(3) 0.3499(3)
H11 H 1.1367(3) 0.3253(3) 0.3141(3)
H12 H 1.1259(3) 0.4382(3) 0.3598(3)
H13 H 1.0876(3) 0.3434(3) 0.4235(3)
C11 C 0.7461(3) 0.5125(4) 0.3541(3)
H14 H 0.7728(3) 0.5799(4) 0.3774(3)
H15 H 0.6757(3) 0.5188(4) 0.3170(3)
H16 H 0.7503(3) 0.4686(4) 0.4202(3)
C12 C 0.8033(3) 0.5400(3) 0.1725(3)
C13 C 0.7196(3) 0.5890(3) -0.0126(3)
H17 H 0.7847(3) 0.5962(3) -0.0367(3)
H18 H 0.6977(3) 0.6562(3) 0.0084(3)
C14 C 0.6447(3) 0.5451(3) -0.1078(3)
H19 H 0.5808(3) 0.5357(3) -0.0816(3)
H20 H 0.6678(3) 0.4784(3) -0.1285(3)
C15 C 0.6256(3) 0.6155(3) -0.2144(3)
H21 H 0.6917(3) 0.6398(3) -0.2250(3)
C16 C 0.5786(6) 0.5607(4) -0.3189(4)
H22 H 0.5169(6) 0.5272(4) -0.3063(4)
H23 H 0.6256(6) 0.5079(4) -0.3338(4)
C17 C 0.5527(6) 0.6293(4) -0.4241(4)
H24 H 0.5172(6) 0.5902(4) -0.4881(4)
H25 H 0.6153(6) 0.6547(4) -0.4440(4)
C18 C 0.4901(4) 0.7200(4) -0.4031(4)
H26 H 0.4254(4) 0.6952(4) -0.3881(4)
H27 H 0.4771(4) 0.7641(4) -0.4694(4)
C19 C 0.5400(5) 0.7765(4) -0.3028(4)
H28 H 0.4982(5) 0.8343(4) -0.2885(4)
H29 H 0.6035(5) 0.8032(4) -0.3189(4)
C20 C 0.5653(4) 0.7092(4) -0.1973(4)
H30 H 0.6009(4) 0.7485(4) -0.1335(4)
H31 H 0.5012(4) 0.6867(4) -0.1784(4)
loop_
_geom_bond_atom_site_label_1
_geom_bond_atom_site_label_2
_geom_bond_site_symmetry_1
_geom_bond_site_symmetry_2
O1 C5 1_555 1_555
O2 C1 1_555 1_555
O3 C12 1_555 1_555
O4 C12 1_555 1_555
N1 H1 1_555 1_555
C1 N1 1_555 1_555
C2 C1 1_555 1_555
C3 C2 1_555 1_555
H2 C3 1_555 1_555
H3 C3 1_555 1_555
C4 C3 1_555 1_555
C5 N1 1_555 1_555
C6 C4 1_555 1_555
H4 C6 1_555 1_555
H5 C6 1_555 1_555
C7 C6 1_555 1_555
C8 C2 1_555 1_555
H6 C8 1_555 1_555
H7 C8 1_555 1_555
C9 C2 1_555 1_555
H8 C9 1_555 1_555
H9 C9 1_555 1_555
H10 C9 1_555 1_555
C10 C4 1_555 1_555
H11 C10 1_555 1_555
H12 C10 1_555 1_555
H13 C10 1_555 1_555
C11 C7 1_555 1_555
H14 C11 1_555 1_555
H15 C11 1_555 1_555
H16 C11 1_555 1_555
C12 C7 1_555 1_555
C13 O3 1_555 1_555
H17 C13 1_555 1_555
H18 C13 1_555 1_555
C14 C13 1_555 1_555
H19 C14 1_555 1_555
H20 C14 1_555 1_555
C15 C14 1_555 1_555
H21 C15 1_555 1_555
C16 C15 1_555 1_555
H22 C16 1_555 1_555
H23 C16 1_555 1_555
C17 C16 1_555 1_555
H24 C17 1_555 1_555
H25 C17 1_555 1_555
C18 C17 1_555 1_555
H26 C18 1_555 1_555
H27 C18 1_555 1_555
C19 C18 1_555 1_555
H28 C19 1_555 1_555
H29 C19 1_555 1_555
C20 C15 1_555 1_555
H30 C20 1_555 1_555
H31 C20 1_555 1_555
C4 C5 1_555 1_555
C7 C8 1_555 1_555
C19 C20 1_555 1_555

#END
