
#######################################################################
#
#                 Cambridge Crystallographic Data Centre
#                                CCDC 
#
#######################################################################
#
# If this CIF has been generated from an entry in the Cambridge 
# Structural Database, then it will include bibliographic, chemical, 
# crystal, experimental, refinement or atomic coordinate data resulting 
# from the CCDC's data processing and validation procedures.
#
#######################################################################

data_ADIJEF
_chemical_formula_moiety         'C18 H17 N1 O3 S1'
_chemical_name_systematic        
N-[2-(phenylsulfonyl)-3,4-dihydronaphthalen-1-yl]acetamide
_symmetry_cell_setting           monoclinic
_symmetry_space_group_name_H-M   'P 21/c'
_symmetry_Int_Tables_number      14
_space_group_name_Hall           '-P 2ybc'
loop_
_symmetry_equiv_pos_site_id
_symmetry_equiv_pos_as_xyz
1 x,y,z
2 -x,1/2+y,1/2-z
3 -x,-y,-z
4 x,1/2-y,1/2+z
_cell_length_a                   17.5580(12)
_cell_length_b                   9.3310(6)
_cell_length_c                   9.8891(6)
_cell_angle_alpha                90
_cell_angle_beta                 91.367(2)
_cell_angle_gamma                90
_cell_volume                     1619.71
_exptl_crystal_colour            colorless
_exptl_crystal_description       block
_cell_formula_units_Z            4
loop_
_atom_site_label
_atom_site_type_symbol
_atom_site_fract_x
_atom_site_fract_y
_atom_site_fract_z
S1 S 0.65246(2) 0.34747(5) 0.43346(5)
C1 C 0.83833(11) 0.5349(2) 0.62499(17)
O1 O 0.85517(9) 0.21291(17) 0.69956(13)
N1 N 0.82845(8) 0.30890(17) 0.49522(14)
H1 H 0.8332 0.3007 0.4092
O2 O 0.69127(8) 0.22640(14) 0.37777(15)
C2 C 0.91740(12) 0.5346(2) 0.6175(2)
H2 H 0.9414 0.4662 0.5650
O3 O 0.58950(8) 0.32299(17) 0.52063(15)
C3 C 0.96036(15) 0.6354(3) 0.6877(3)
H3 H 1.0132 0.6350 0.6819
C4 C 0.80230(13) 0.6374(2) 0.70515(19)
C5 C 0.84683(16) 0.7376(3) 0.7742(3)
H4 H 0.8236 0.8067 0.8270
C6 C 0.92534(17) 0.7361(3) 0.7656(3)
H5 H 0.9544 0.8035 0.8129
C7 C 0.68164(12) 0.5953(2) 0.5766(2)
H6 H 0.6272 0.5820 0.5851
H7 H 0.6898 0.6737 0.5142
C8 C 0.71725(13) 0.6316(2) 0.7138(2)
H8 H 0.6983 0.7236 0.7441
H9 H 0.7030 0.5596 0.7793
C9 C 0.71703(10) 0.45995(19) 0.52266(17)
C10 C 0.79103(10) 0.43110(19) 0.54678(16)
C11 C 0.85691(10) 0.2048(2) 0.57692(18)
C12 C 0.89050(15) 0.0790(3) 0.5046(2)
H10 H 0.8822 0.0901 0.4089
H11 H 0.8666 -0.0076 0.5342
H12 H 0.9442 0.0743 0.5246
C13 C 0.61893(10) 0.4560(2) 0.29837(19)
C14 C 0.65746(13) 0.4588(2) 0.1799(2)
H13 H 0.7029 0.4088 0.1712
C15 C 0.62676(17) 0.5386(3) 0.0725(2)
H14 H 0.6516 0.5404 -0.0095
C16 C 0.56078(15) 0.6140(2) 0.0860(3)
H15 H 0.5412 0.6669 0.0134
C17 C 0.52348(14) 0.6125(3) 0.2049(3)
H16 H 0.4789 0.6653 0.2139
C18 C 0.55175(12) 0.5327(3) 0.3119(2)
H17 H 0.5260 0.5302 0.3930
loop_
_geom_bond_atom_site_label_1
_geom_bond_atom_site_label_2
_geom_bond_site_symmetry_1
_geom_bond_site_symmetry_2
S1 O2 1_555 1_555
C1 C2 1_555 1_555
O1 C11 1_555 1_555
N1 H1 1_555 1_555
C2 H2 1_555 1_555
O3 S1 1_555 1_555
C3 C2 1_555 1_555
H3 C3 1_555 1_555
C4 C1 1_555 1_555
C5 C4 1_555 1_555
H4 C5 1_555 1_555
C6 C3 1_555 1_555
H5 C6 1_555 1_555
C7 H6 1_555 1_555
H7 C7 1_555 1_555
C8 C4 1_555 1_555
H8 C8 1_555 1_555
H9 C8 1_555 1_555
C9 S1 1_555 1_555
C10 C1 1_555 1_555
C11 N1 1_555 1_555
C12 C11 1_555 1_555
H10 C12 1_555 1_555
H11 C12 1_555 1_555
H12 C12 1_555 1_555
C13 S1 1_555 1_555
C14 C13 1_555 1_555
H13 C14 1_555 1_555
C15 C14 1_555 1_555
H14 C15 1_555 1_555
C16 C15 1_555 1_555
H15 C16 1_555 1_555
C17 C16 1_555 1_555
H16 C17 1_555 1_555
C18 C13 1_555 1_555
H17 C18 1_555 1_555
N1 C10 1_555 1_555
C5 C6 1_555 1_555
C7 C8 1_555 1_555
C7 C9 1_555 1_555
C9 C10 1_555 1_555
C17 C18 1_555 1_555

#END
