
#######################################################################
#
#                 Cambridge Crystallographic Data Centre
#                                CCDC 
#
#######################################################################
#
# If this CIF has been generated from an entry in the Cambridge 
# Structural Database, then it will include bibliographic, chemical, 
# crystal, experimental, refinement or atomic coordinate data resulting 
# from the CCDC's data processing and validation procedures.
#
#######################################################################

data_ADIJIG
_chemical_formula_moiety         '2(C17 H28 N2 O3),0.6(C6 H14)'
_chemical_name_systematic        
'N-Pentyl 1,5,7-trimethyl-2,4-dioxo-3-azabicyclo(3.3.1)nonane-7-carboxamide hexane solvate'
_symmetry_cell_setting           rhombohedral
_symmetry_space_group_name_H-M   'R -3'
_symmetry_Int_Tables_number      148
_space_group_name_Hall           '-R 3'
loop_
_symmetry_equiv_pos_site_id
_symmetry_equiv_pos_as_xyz
1 x,y,z
2 -y,x-y,z
3 -x+y,-x,z
4 2/3+x,1/3+y,1/3+z
5 2/3-y,1/3+x-y,1/3+z
6 2/3-x+y,1/3-x,1/3+z
7 1/3+x,2/3+y,2/3+z
8 2/3+y,1/3-x+y,1/3-z
9 2/3+x-y,1/3+x,1/3-z
10 -x,-y,-z
11 y,-x+y,-z
12 x-y,x,-z
13 1/3-x,2/3-y,2/3-z
14 1/3+y,2/3-x+y,2/3-z
15 1/3+x-y,2/3+x,2/3-z
16 2/3-x,1/3-y,1/3-z
17 1/3-y,2/3+x-y,2/3+z
18 1/3-x+y,2/3-x,2/3+z
_cell_length_a                   28.197(19)
_cell_length_b                   28.197(19)
_cell_length_c                   12.775(9)
_cell_angle_alpha                90
_cell_angle_beta                 90
_cell_angle_gamma                120.00
_cell_volume                     8796.25
_exptl_crystal_colour            colorless
_exptl_crystal_description       prism
_chemical_melting_point          163-165deg.C
_cell_formula_units_Z            9
loop_
_atom_site_label
_atom_site_type_symbol
_atom_site_fract_x
_atom_site_fract_y
_atom_site_fract_z
C18 C 0.6667 0.3333 0.0288(61)
C20 C 0.6599(29) 0.3058(16) 0.2596(41)
C21 C 0.6667 0.3333 0.1388(66)
C22 C 0.6667 0.3333 0.3333
C20A C 0.6942(16) 0.3541(33) 0.2596(41)
C20B C 0.6459(33) 0.3401(29) 0.2596(41)
C20L C 0.6734(29) 0.3609(16) 0.4071(41)
C20M C 0.6391(16) 0.3126(33) 0.4071(41)
C20N C 0.6874(33) 0.3266(29) 0.4071(41)
C21L C 0.6666 0.3334 0.5279(66)
C18L C 0.6666 0.3334 0.6379(61)
C1 C 0.84240(11) 0.54273(11) 0.1702(3)
C2 C 0.84114(11) 0.59577(11) 0.1680(3)
N1 N 0.88723(9) 0.64190(9) 0.2040(2)
H1 H 0.88530(9) 0.67139(9) 0.2057(2)
C3 C 0.93564(11) 0.64665(12) 0.2370(3)
C4 C 0.93862(11) 0.59420(12) 0.2382(3)
C5 C 0.90139(11) 0.55607(12) 0.1533(3)
H2 H 0.90294(11) 0.52247(12) 0.1537(3)
H3 H 0.91403(11) 0.57337(12) 0.0856(3)
O1 O 0.97332(8) 0.69079(8) 0.2615(2)
O2 O 0.80233(8) 0.59898(8) 0.1355(2)
C6 C 0.82283(12) 0.51475(12) 0.2767(3)
H4 H 0.78654(12) 0.50935(12) 0.2893(3)
H5 H 0.81925(12) 0.47876(12) 0.2721(3)
C7 C 0.85820(11) 0.54394(11) 0.3720(3)
C8 C 0.91918(11) 0.56602(12) 0.3451(3)
H6 H 0.94130(11) 0.59180(12) 0.3992(3)
H7 H 0.92614(11) 0.53566(12) 0.3478(3)
C9 C 0.80521(14) 0.50482(14) 0.0841(3)
H8 H 0.80584(14) 0.47110(14) 0.0851(3)
H9 H 0.81815(14) 0.52239(14) 0.0175(3)
H10 H 0.76843(14) 0.49734(14) 0.0951(3)
C10 C 0.99791(12) 0.60821(15) 0.2209(3)
H11 H 1.02056(12) 0.63223(15) 0.2756(3)
H12 H 1.01040(12) 0.62609(15) 0.1544(3)
H13 H 1.00003(12) 0.57528(15) 0.2217(3)
C11 C 0.84216(15) 0.50188(14) 0.4622(3)
H14 H 0.86418(15) 0.51968(14) 0.5226(3)
H15 H 0.84822(15) 0.47272(14) 0.4406(3)
H16 H 0.80419(15) 0.48718(14) 0.4793(3)
C12 C 0.84489(11) 0.58655(12) 0.4140(3)
N2 N 0.87999(10) 0.62242(11) 0.4849(2)
H17 H 0.91089(10) 0.62396(11) 0.4949(2)
C13 C 0.8675(2) 0.6578(2) 0.5443(4)
H18 H 0.8852(2) 0.6642(2) 0.6120(4)
H19 H 0.8283(2) 0.6394(2) 0.5562(4)
C14 C 0.8846(2) 0.7100(2) 0.4946(5)
H20 H 0.8687(2) 0.7031(2) 0.4251(5)
H21 H 0.8693(2) 0.7285(2) 0.5342(5)
C15 C 0.9409(2) 0.7455(2) 0.4850(5)
H22 H 0.9560(2) 0.7277(2) 0.4426(5)
H23 H 0.9571(2) 0.7511(2) 0.5541(5)
C16 C 0.9593(2) 0.8027(2) 0.4353(6)
H24 H 0.9410(2) 0.7975(2) 0.3685(6)
H25 H 0.9473(2) 0.8222(2) 0.4809(6)
C17 C 1.0191(3) 0.8371(3) 0.4202(6)
H26 H 1.0273(3) 0.8716(3) 0.3902(6)
H27 H 1.0313(3) 0.8186(3) 0.3737(6)
H28 H 1.0377(3) 0.8433(3) 0.4862(6)
O3 O 0.80241(8) 0.58569(9) 0.3917(2)
C19? C 0.7727(21) 0.2690(24) -0.2122(34)
loop_
_geom_bond_atom_site_label_1
_geom_bond_atom_site_label_2
_geom_bond_site_symmetry_1
_geom_bond_site_symmetry_2
C1 C2 1_555 1_555
C2 N1 1_555 1_555
N1 H1 1_555 1_555
C3 N1 1_555 1_555
C4 C3 1_555 1_555
C5 C1 1_555 1_555
H2 C5 1_555 1_555
H3 C5 1_555 1_555
O1 C3 1_555 1_555
O2 C2 1_555 1_555
C6 C1 1_555 1_555
H4 C6 1_555 1_555
H5 C6 1_555 1_555
C7 C6 1_555 1_555
C8 C4 1_555 1_555
H6 C8 1_555 1_555
H7 C8 1_555 1_555
C9 C1 1_555 1_555
H8 C9 1_555 1_555
H9 C9 1_555 1_555
H10 C9 1_555 1_555
C10 C4 1_555 1_555
H11 C10 1_555 1_555
H12 C10 1_555 1_555
H13 C10 1_555 1_555
C11 C7 1_555 1_555
H14 C11 1_555 1_555
H15 C11 1_555 1_555
H16 C11 1_555 1_555
C12 C7 1_555 1_555
N2 C12 1_555 1_555
H17 N2 1_555 1_555
C13 N2 1_555 1_555
H18 C13 1_555 1_555
H19 C13 1_555 1_555
C14 C13 1_555 1_555
H20 C14 1_555 1_555
H21 C14 1_555 1_555
C15 C14 1_555 1_555
H22 C15 1_555 1_555
H23 C15 1_555 1_555
C16 C15 1_555 1_555
H24 C16 1_555 1_555
H25 C16 1_555 1_555
C17 C16 1_555 1_555
H26 C17 1_555 1_555
H27 C17 1_555 1_555
H28 C17 1_555 1_555
O3 C12 1_555 1_555
C18 C21 1_555 1_555
C20 C21 1_555 1_555
C21 C20A 1_555 1_555
C22 C20 1_555 1_555
C20A C20 1_555 1_555
C20B C20 1_555 1_555
C20L C22 1_555 1_555
C20M C22 1_555 1_555
C20N C22 1_555 1_555
C21L C20L 1_555 1_555
C18L C21L 1_555 1_555
C4 C5 1_555 1_555
C7 C8 1_555 1_555
C21 C20B 1_555 1_555
C22 C20B 1_555 1_555
C22 C20A 1_555 1_555
C20A C20B 1_555 1_555
C20L C20M 1_555 1_555
C20L C20N 1_555 1_555
C20M C20N 1_555 1_555
C20M C21L 1_555 1_555
C20N C21L 1_555 1_555

#END
