
#######################################################################
#
#                 Cambridge Crystallographic Data Centre
#                                CCDC 
#
#######################################################################
#
# If this CIF has been generated from an entry in the Cambridge 
# Structural Database, then it will include bibliographic, chemical, 
# crystal, experimental, refinement or atomic coordinate data resulting 
# from the CCDC's data processing and validation procedures.
#
#######################################################################

data_ADIJAB
_chemical_formula_moiety         'C16 H17 N1 O1 S1'
_chemical_name_systematic        
1-(10,11-dihydrodibenzo[b,f][1,4]thiazepin-11-yl)propan-2-ol
_symmetry_cell_setting           monoclinic
_symmetry_space_group_name_H-M   'P 21'
_symmetry_Int_Tables_number      4
_space_group_name_Hall           'P 2yb'
loop_
_symmetry_equiv_pos_site_id
_symmetry_equiv_pos_as_xyz
1 x,y,z
2 -x,1/2+y,-z
_cell_length_a                   9.0036(3)
_cell_length_b                   10.7476(3)
_cell_length_c                   14.2562(4)
_cell_angle_alpha                90
_cell_angle_beta                 100.693(3)
_cell_angle_gamma                90
_cell_volume                     1355.58
_exptl_crystal_colour            colorless
_exptl_crystal_description       prism
_cell_formula_units_Z            4
loop_
_atom_site_label
_atom_site_type_symbol
_atom_site_fract_x
_atom_site_fract_y
_atom_site_fract_z
C1 C 0.6518(4) 0.2601(3) 0.0464(3)
H1 H 0.6582 0.1876 0.0826
C2 C 0.5474(4) 0.2668(3) -0.0371(3)
H2 H 0.4813 0.2012 -0.0557
C3 C 0.5419(4) 0.3725(4) -0.0930(3)
H3 H 0.4741 0.3771 -0.1507
C4 C 0.6376(4) 0.4713(4) -0.0628(3)
H4 H 0.6326 0.5418 -0.1011
C5 C 0.7421(4) 0.4689(3) 0.0236(2)
C6 C 0.7486(3) 0.3590(3) 0.0784(2)
C7 C 1.0501(4) 0.3779(3) 0.1562(2)
C8 C 1.1611(4) 0.2888(3) 0.1569(2)
H5 H 1.1436 0.2070 0.1732
C9 C 1.2989(4) 0.3215(4) 0.1332(2)
H6 H 1.3742 0.2621 0.1341
C10 C 1.3231(4) 0.4431(4) 0.1085(3)
H7 H 1.4147 0.4654 0.0919
C11 C 1.2125(4) 0.5315(3) 0.1081(3)
H8 H 1.2309 0.6130 0.0916
C12 C 1.0737(4) 0.5015(3) 0.1319(2)
C13 C 0.9479(3) 0.5944(3) 0.1305(2)
H9 H 0.9052 0.5807 0.1881
C14 C 0.9977(4) 0.7309(3) 0.1309(2)
H10 H 1.0862 0.7420 0.1805
H11 H 1.0269 0.7495 0.0703
C15 C 0.8777(4) 0.8232(3) 0.1472(2)
H12 H 0.7889 0.8137 0.0963
C16 C 0.9345(5) 0.9556(4) 0.1471(3)
H13 H 0.8578 1.0115 0.1604
H14 H 0.9578 0.9747 0.0857
H15 H 1.0238 0.9647 0.1952
N1 N 0.8262(3) 0.5754(3) 0.0481(2)
H16 H 0.829(4) 0.624(4) 0.003(3)
O1 O 0.8337(4) 0.8027(3) 0.23765(19)
H17 H 0.7788 0.7413 0.2342
S1 S 0.87583(9) 0.33403(7) 0.18908(6)
C17 C 0.8413(4) 0.0188(3) 0.4373(3)
H18 H 0.8335 -0.0516 0.3988
C18 C 0.9445(4) 0.0199(3) 0.5223(3)
H19 H 1.0081 -0.0476 0.5400
C19 C 0.9511(4) 0.1234(4) 0.5803(3)
H20 H 1.0173 0.1242 0.6388
C20 C 0.8608(4) 0.2256(3) 0.5526(3)
H21 H 0.8677 0.2941 0.5930
C21 C 0.7590(4) 0.2290(3) 0.4654(2)
C22 C 0.7487(3) 0.1210(3) 0.4082(2)
C23 C 0.4481(4) 0.1397(3) 0.3372(2)
C24 C 0.3380(4) 0.0495(3) 0.3353(2)
H22 H 0.3537 -0.0303 0.3140
C25 C 0.2044(4) 0.0786(4) 0.3652(3)
H23 H 0.1297 0.0184 0.3636
C26 C 0.1824(4) 0.1973(4) 0.3974(3)
H24 H 0.0929 0.2165 0.4180
C27 C 0.2920(4) 0.2873(3) 0.3994(2)
H25 H 0.2759 0.3665 0.4218
C28 C 0.4271(4) 0.2614(3) 0.3681(2)
C29 C 0.5488(4) 0.3572(3) 0.3652(2)
H26 H 0.5835 0.3466 0.3044
C30 C 0.4936(4) 0.4919(3) 0.3689(2)
H27 H 0.4035 0.5020 0.3203
H28 H 0.4649 0.5054 0.4304
C31 C 0.6062(4) 0.5919(3) 0.3543(2)
H29 H 0.6932 0.5894 0.4070
C32 C 0.5313(5) 0.7189(3) 0.3511(3)
H30 H 0.6045 0.7823 0.3461
H31 H 0.4915 0.7314 0.4084
H32 H 0.4506 0.7232 0.2967
N2 N 0.6798(3) 0.3390(3) 0.4415(2)
H33 H 0.679(5) 0.381(4) 0.490(3)
O2 O 0.6568(3) 0.5776(3) 0.2654(2)
H34 H 0.7074 0.5140 0.2668
S2 S 0.61899(10) 0.10254(8) 0.29801(6)
loop_
_geom_bond_atom_site_label_1
_geom_bond_atom_site_label_2
_geom_bond_site_symmetry_1
_geom_bond_site_symmetry_2
C1 H1 1_555 1_555
C2 C1 1_555 1_555
H2 C2 1_555 1_555
C3 C2 1_555 1_555
H3 C3 1_555 1_555
C4 C3 1_555 1_555
H4 C4 1_555 1_555
C5 C4 1_555 1_555
C6 C1 1_555 1_555
C7 C8 1_555 1_555
C8 H5 1_555 1_555
C9 C8 1_555 1_555
H6 C9 1_555 1_555
C10 C9 1_555 1_555
H7 C10 1_555 1_555
C11 C10 1_555 1_555
H8 C11 1_555 1_555
C12 C7 1_555 1_555
C13 C12 1_555 1_555
H9 C13 1_555 1_555
C14 C13 1_555 1_555
H10 C14 1_555 1_555
H11 C14 1_555 1_555
C15 C14 1_555 1_555
H12 C15 1_555 1_555
C16 C15 1_555 1_555
H13 C16 1_555 1_555
H14 C16 1_555 1_555
H15 C16 1_555 1_555
N1 C5 1_555 1_555
H16 N1 1_555 1_555
O1 C15 1_555 1_555
H17 O1 1_555 1_555
S1 C6 1_555 1_555
C17 H18 1_555 1_555
C18 C17 1_555 1_555
H19 C18 1_555 1_555
C19 C18 1_555 1_555
H20 C19 1_555 1_555
C20 C19 1_555 1_555
H21 C20 1_555 1_555
C21 C20 1_555 1_555
C22 C17 1_555 1_555
C23 C24 1_555 1_555
C24 H22 1_555 1_555
C25 C24 1_555 1_555
H23 C25 1_555 1_555
C26 C25 1_555 1_555
H24 C26 1_555 1_555
C27 C26 1_555 1_555
H25 C27 1_555 1_555
C28 C23 1_555 1_555
C29 C28 1_555 1_555
H26 C29 1_555 1_555
C30 C29 1_555 1_555
H27 C30 1_555 1_555
H28 C30 1_555 1_555
C31 C30 1_555 1_555
H29 C31 1_555 1_555
C32 C31 1_555 1_555
H30 C32 1_555 1_555
H31 C32 1_555 1_555
H32 C32 1_555 1_555
N2 C21 1_555 1_555
H33 N2 1_555 1_555
O2 C31 1_555 1_555
H34 O2 1_555 1_555
S2 C22 1_555 1_555
C5 C6 1_555 1_555
C7 S1 1_555 1_555
C11 C12 1_555 1_555
C13 N1 1_555 1_555
C21 C22 1_555 1_555
C23 S2 1_555 1_555
C27 C28 1_555 1_555
C29 N2 1_555 1_555

#END
