
#######################################################################
#
#                 Cambridge Crystallographic Data Centre
#                                CCDC 
#
#######################################################################
#
# If this CIF has been generated from an entry in the Cambridge 
# Structural Database, then it will include bibliographic, chemical, 
# crystal, experimental, refinement or atomic coordinate data resulting 
# from the CCDC's data processing and validation procedures.
#
#######################################################################

data_ADIJON
_chemical_formula_moiety         'C15 H16 O3'
_chemical_name_systematic        
'(R,S)-Methyl 3-methyl-5-oxo-1-phenylcyclohex-3-ene-1-carbxoylate'
_symmetry_cell_setting           triclinic
_symmetry_space_group_name_H-M   'P -1'
_symmetry_Int_Tables_number      2
_space_group_name_Hall           '-P 1'
loop_
_symmetry_equiv_pos_site_id
_symmetry_equiv_pos_as_xyz
1 x,y,z
2 -x,-y,-z
_cell_length_a                   9.317(4)
_cell_length_b                   12.332(5)
_cell_length_c                   12.734(5)
_cell_angle_alpha                67.495(16)
_cell_angle_beta                 84.826(16)
_cell_angle_gamma                74.278(16)
_cell_volume                     1300.96
_exptl_crystal_colour            colorless
_exptl_crystal_description       block
_cell_formula_units_Z            4
_exptl_crystal_recrystallization_method 'diethyl ether/hexane'
loop_
_atom_site_label
_atom_site_type_symbol
_atom_site_fract_x
_atom_site_fract_y
_atom_site_fract_z
O1 O 0.56135(14) 0.83556(11) 0.81733(12)
O2 O 0.20420(14) 0.77551(12) 0.89822(10)
O3 O 0.04497(12) 0.79912(11) 0.76893(10)
C1 C 0.29760(14) 0.70313(12) 0.74777(11)
C2 C 0.27651(14) 0.57566(12) 0.77622(12)
C3 C 0.22295(17) 0.54393(12) 0.69685(12)
C4 C 0.20191(19) 0.42869(14) 0.72653(16)
C5 C 0.2357(2) 0.34468(14) 0.83414(17)
C6 C 0.2890(2) 0.37448(16) 0.91324(16)
C7 C 0.3085(2) 0.48899(13) 0.88477(12)
C8 C 0.45087(17) 0.69681(12) 0.78720(13)
C9 C 0.47753(18) 0.81977(13) 0.75878(14)
C10 C 0.40459(18) 0.91716(13) 0.65692(13)
C11 C 0.31618(17) 0.90070(12) 0.59109(12)
C12 C 0.28085(18) 0.78065(12) 0.62072(12)
C13 C 0.2476(2) 0.99865(14) 0.48327(13)
C14 C 0.17923(16) 0.76294(12) 0.81404(11)
C15 C -0.0752(2) 0.8486(2) 0.8312(2)
H1 H 0.2009 0.6003 0.6231
H2 H 0.1647 0.4086 0.6730
H3 H 0.2225 0.2673 0.8536
H4 H 0.3121 0.3172 0.9865
H5 H 0.3439 0.5084 0.9395
H6 H 0.4203 0.9938 0.6370
H7 H 0.4590 0.6540 0.8690
H8 H 0.5267 0.6522 0.7509
H9 H 0.1788 0.7956 0.5973
H10 H 0.3479 0.7360 0.5797
H11 H 0.2742 0.9708 0.4216
H12 H 0.2833 1.0691 0.4687
H13 H 0.1411 1.0192 0.4901
H14 H -0.0590 0.8024 0.9112
H15 H -0.1682 0.8443 0.8082
H16 H -0.0780 0.9317 0.8155
O4 O 0.47407(14) 0.22112(12) 0.60890(11)
O5 O 0.86986(13) 0.23755(12) 0.59558(10)
O6 O 0.98248(12) 0.18918(10) 0.75794(9)
C16 C 0.73419(16) 0.31345(12) 0.73434(11)
C17 C 0.76983(16) 0.43231(12) 0.72063(12)
C18 C 0.81498(17) 0.45133(13) 0.81127(13)
C19 C 0.84956(19) 0.55841(16) 0.79571(17)
C20 C 0.8394(2) 0.64751(16) 0.69083(18)
C21 C 0.7930(2) 0.63127(18) 0.60140(18)
C22 C 0.7588(2) 0.52464(17) 0.61592(14)
C23 C 0.59465(17) 0.33725(13) 0.66544(12)
C24 C 0.54867(18) 0.22373(14) 0.68188(13)
C25 C 0.59101(18) 0.12138(13) 0.78781(12)
C26 C 0.66125(18) 0.12660(12) 0.87171(12)
C27 C 0.70954(18) 0.23752(12) 0.85852(12)
C28 C 0.6949(2) 0.02476(14) 0.98382(13)
C29 C 0.86691(16) 0.24303(12) 0.68704(12)
C30 C 1.1155(2) 0.12498(18) 0.71811(16)
H17 H 0.8221 0.3912 0.8836
H18 H 0.8801 0.5696 0.8576
H19 H 0.8641 0.7191 0.6805
H20 H 0.7842 0.6926 0.5296
H21 H 0.7275 0.5150 0.5535
H22 H 0.5683 0.0491 0.7978
H23 H 0.6144 0.3762 0.5855
H24 H 0.5130 0.3913 0.6882
H25 H 0.8022 0.2122 0.9007
H26 H 0.6332 0.2876 0.8895
H27 H 0.7998 0.0026 1.0003
H28 H 0.6668 -0.0438 0.9818
H29 H 0.6399 0.0497 1.0418
H30 H 1.0888 0.0789 0.6804
H31 H 1.1806 0.0710 0.7816
H32 H 1.1655 0.1823 0.6659
loop_
_geom_bond_atom_site_label_1
_geom_bond_atom_site_label_2
_geom_bond_site_symmetry_1
_geom_bond_site_symmetry_2
O1 C9 1_555 1_555
O2 C14 1_555 1_555
O3 C14 1_555 1_555
C1 C2 1_555 1_555
C2 C3 1_555 1_555
C3 C4 1_555 1_555
C4 C5 1_555 1_555
C5 C6 1_555 1_555
C6 C7 1_555 1_555
C7 C2 1_555 1_555
C8 C1 1_555 1_555
C9 C8 1_555 1_555
C10 C9 1_555 1_555
C11 C10 1_555 1_555
C12 C1 1_555 1_555
C13 C11 1_555 1_555
C14 C1 1_555 1_555
C15 O3 1_555 1_555
H1 C3 1_555 1_555
H2 C4 1_555 1_555
H3 C5 1_555 1_555
H4 C6 1_555 1_555
H5 C7 1_555 1_555
H6 C10 1_555 1_555
H7 C8 1_555 1_555
H8 C8 1_555 1_555
H9 C12 1_555 1_555
H10 C12 1_555 1_555
H11 C13 1_555 1_555
H12 C13 1_555 1_555
H13 C13 1_555 1_555
H14 C15 1_555 1_555
H15 C15 1_555 1_555
H16 C15 1_555 1_555
O4 C24 1_555 1_555
O5 C29 1_555 1_555
O6 C29 1_555 1_555
C16 C17 1_555 1_555
C17 C18 1_555 1_555
C18 C19 1_555 1_555
C19 C20 1_555 1_555
C20 C21 1_555 1_555
C21 C22 1_555 1_555
C22 C17 1_555 1_555
C23 C16 1_555 1_555
C24 C23 1_555 1_555
C25 C24 1_555 1_555
C26 C25 1_555 1_555
C27 C16 1_555 1_555
C28 C26 1_555 1_555
C29 C16 1_555 1_555
C30 O6 1_555 1_555
H17 C18 1_555 1_555
H18 C19 1_555 1_555
H19 C20 1_555 1_555
H20 C21 1_555 1_555
H21 C22 1_555 1_555
H22 C25 1_555 1_555
H23 C23 1_555 1_555
H24 C23 1_555 1_555
H25 C27 1_555 1_555
H26 C27 1_555 1_555
H27 C28 1_555 1_555
H28 C28 1_555 1_555
H29 C28 1_555 1_555
H30 C30 1_555 1_555
H31 C30 1_555 1_555
H32 C30 1_555 1_555
C11 C12 1_555 1_555
C26 C27 1_555 1_555

#END
