
#######################################################################
#
#                 Cambridge Crystallographic Data Centre
#                                CCDC 
#
#######################################################################
#
# If this CIF has been generated from an entry in the Cambridge 
# Structural Database, then it will include bibliographic, chemical, 
# crystal, experimental, refinement or atomic coordinate data resulting 
# from the CCDC's data processing and validation procedures.
#
#######################################################################

data_ADIJUS
_chemical_formula_moiety         'C18 H27 N1 O4 S2'
_chemical_name_systematic        
'(1,3-Dithian-2-yl)ethyl 1,5,7-trimethyl-2,4-dioxo-3-azabicyclo(3.3.1)nonane-7-carboxylate'
_symmetry_cell_setting           monoclinic
_symmetry_space_group_name_H-M   'P 21/n'
_symmetry_Int_Tables_number      14
_space_group_name_Hall           '-P 2yn'
loop_
_symmetry_equiv_pos_site_id
_symmetry_equiv_pos_as_xyz
1 x,y,z
2 1/2+x,1/2-y,1/2+z
3 -x,-y,-z
4 1/2-x,1/2+y,1/2-z
_cell_length_a                   12.055(15)
_cell_length_b                   13.035(8)
_cell_length_c                   25.863(30)
_cell_angle_alpha                90
_cell_angle_beta                 101.90(9)
_cell_angle_gamma                90
_cell_volume                     3976.69
_exptl_crystal_colour            colorless
_exptl_crystal_description       prism
_cell_formula_units_Z            8
loop_
_atom_site_label
_atom_site_type_symbol
_atom_site_fract_x
_atom_site_fract_y
_atom_site_fract_z
S1 S 0.1988(2) 0.02685(14) 0.75453(8)
S2 S 0.3182(2) 0.21416(15) 0.80106(14)
O1 O 0.4742(3) -0.2134(3) 0.9046(2)
O2 O 0.6470(4) -0.0067(4) 1.0349(2)
O3 O 0.5864(4) -0.0141(4) 0.8587(2)
O4 O 0.6694(5) 0.0884(4) 0.9232(3)
N1 N 0.5668(4) -0.1128(4) 0.9696(2)
H1 H 0.4997(4) -0.0844(4) 0.9716(2)
C1 C 0.6592(5) -0.0755(5) 1.0044(3)
C2 C 0.7736(5) -0.1230(5) 1.0026(2)
C3 C 0.7548(5) -0.2322(4) 0.9830(2)
H2 H 0.7212(5) -0.2709(4) 1.0074(2)
H3 H 0.8261(5) -0.2634(4) 0.9813(2)
C4 C 0.6774(4) -0.2359(4) 0.9291(2)
C5 C 0.5639(5) -0.1886(4) 0.9321(2)
C6 C 0.7314(4) -0.1748(4) 0.8894(2)
H4 H 0.6777(4) -0.1719(4) 0.8564(2)
H5 H 0.7967(4) -0.2114(4) 0.8835(2)
C7 C 0.7667(4) -0.0653(4) 0.9061(2)
C8 C 0.8292(5) -0.0619(5) 0.9637(3)
H6 H 0.9043(5) -0.0882(5) 0.9655(3)
H7 H 0.8363(5) 0.0084(5) 0.9751(3)
C9 C 0.8494(6) -0.1199(7) 1.0582(3)
H8 H 0.8141(6) -0.1582(7) 1.0821(3)
H9 H 0.9221(6) -0.1492(7) 1.0575(3)
H10 H 0.8588(6) -0.0499(7) 1.0697(3)
C10 C 0.6577(6) -0.3465(5) 0.9092(3)
H11 H 0.6246(6) -0.3858(5) 0.9335(3)
H12 H 0.6075(6) -0.3464(5) 0.8751(3)
H13 H 0.7289(6) -0.3766(5) 0.9062(3)
C11 C 0.8462(6) -0.0261(6) 0.8699(3)
H14 H 0.8709(6) 0.0427(6) 0.8793(3)
H15 H 0.9110(6) -0.0704(6) 0.8735(3)
H16 H 0.8047(6) -0.0274(6) 0.8340(3)
C12 C 0.6706(6) 0.0108(6) 0.8981(3)
C13 C 0.4897(6) 0.0568(6) 0.8513(5)
H17 H 0.5097(6) 0.1231(6) 0.8399(5)
H18 H 0.4696(6) 0.0640(6) 0.8852(5)
C14 C 0.3980(6) 0.0178(5) 0.8204(4)
H19 H 0.3837(6) -0.0504(5) 0.8314(4)
H20 H 0.4199(6) 0.0127(5) 0.7868(4)
C15 C 0.2878(5) 0.0805(4) 0.8112(3)
H21 H 0.2537(5) 0.0732(4) 0.8414(3)
C16 C 0.0780(6) 0.1123(6) 0.7463(4)
H22 H 0.0452(6) 0.1068(6) 0.7770(4)
H23 H 0.0224(6) 0.0901(6) 0.7163(4)
C17 C 0.1059(6) 0.2235(5) 0.7396(3)
H24 H 0.0374(6) 0.2628(5) 0.7301(3)
H25 H 0.1461(6) 0.2286(5) 0.7113(3)
C18 C 0.1781(5) 0.2672(5) 0.7877(3)
H26 H 0.1825(5) 0.3404(5) 0.7846(3)
H27 H 0.1431(5) 0.2523(5) 0.8170(3)
S3 S 0.33284(14) 0.23118(13) 0.28080(8)
S4 S 0.18424(13) 0.04751(12) 0.28658(8)
O5 O 0.5984(3) -0.0887(3) 0.5346(2)
O6 O 0.6587(3) 0.1106(3) 0.4019(2)
O7 O 0.5245(3) -0.0923(3) 0.35796(14)
O8 O 0.4837(3) -0.1953(3) 0.4200(2)
N2 N 0.6318(3) 0.0066(3) 0.4671(2)
H28 H 0.5694(3) 0.0431(3) 0.4691(2)
C19 C 0.6900(4) 0.0362(4) 0.4284(2)
C20 C 0.7905(4) -0.0299(4) 0.4229(2)
C21 C 0.8443(4) -0.0731(4) 0.4763(2)
H29 H 0.8712(4) -0.0179(4) 0.5001(2)
H30 H 0.9081(4) -0.1149(4) 0.4730(2)
C22 C 0.7601(4) -0.1381(4) 0.4993(2)
C23 C 0.6573(5) -0.0730(4) 0.5026(2)
C24 C 0.7510(4) -0.1203(4) 0.3849(2)
H31 H 0.8170(4) -0.1557(4) 0.3789(2)
H32 H 0.7122(4) -0.0929(4) 0.3516(2)
C25 C 0.6734(4) -0.1989(4) 0.4033(2)
C26 C 0.7202(4) -0.2285(4) 0.4616(2)
H33 H 0.6628(4) -0.2655(4) 0.4746(2)
H34 H 0.7832(4) -0.2742(4) 0.4627(2)
C27 C 0.8743(5) 0.0356(5) 0.4003(3)
H35 H 0.8983(5) 0.0916(5) 0.4241(3)
H36 H 0.9390(5) -0.0047(5) 0.3968(3)
H37 H 0.8382(5) 0.0620(5) 0.3664(3)
C28 C 0.8141(5) -0.1771(5) 0.5543(2)
H38 H 0.8382(5) -0.1197(5) 0.5772(2)
H39 H 0.7594(5) -0.2165(5) 0.5681(2)
H40 H 0.8783(5) -0.2194(5) 0.5525(2)
C29 C 0.6674(5) -0.2967(4) 0.3687(3)
H41 H 0.6189(5) -0.3465(4) 0.3801(3)
H42 H 0.6376(5) -0.2790(4) 0.3324(3)
H43 H 0.7421(5) -0.3250(4) 0.3719(3)
C30 C 0.5517(5) -0.1629(4) 0.3962(2)
C31 C 0.4132(4) -0.0465(4) 0.3513(2)
H44 H 0.3968(4) -0.0274(4) 0.3848(2)
H45 H 0.3564(4) -0.0940(4) 0.3343(2)
C32 C 0.4135(4) 0.0464(4) 0.3171(2)
H46 H 0.4141(4) 0.0249(4) 0.2817(2)
H47 H 0.4820(4) 0.0840(4) 0.3301(2)
C33 C 0.3113(4) 0.1155(4) 0.3156(2)
H48 H 0.3080(4) 0.1333(4) 0.3512(2)
C34 C 0.2027(5) 0.2977(5) 0.2821(3)
H49 H 0.2049(5) 0.3643(5) 0.2665(3)
H50 H 0.1969(5) 0.3072(5) 0.3183(3)
C35 C 0.0992(5) 0.2419(5) 0.2547(3)
H51 H 0.1111(5) 0.2209(5) 0.2207(3)
H52 H 0.0348(5) 0.2869(5) 0.2493(3)
C36 C 0.0773(5) 0.1460(5) 0.2839(3)
H53 H 0.0747(5) 0.1660(5) 0.3194(3)
H54 H 0.0046(5) 0.1182(5) 0.2679(3)
loop_
_geom_bond_atom_site_label_1
_geom_bond_atom_site_label_2
_geom_bond_site_symmetry_1
_geom_bond_site_symmetry_2
S1 C15 1_555 1_555
S2 C15 1_555 1_555
O1 C5 1_555 1_555
O2 C1 1_555 1_555
O3 C12 1_555 1_555
O4 C12 1_555 1_555
N1 H1 1_555 1_555
C1 N1 1_555 1_555
C2 C1 1_555 1_555
C3 C2 1_555 1_555
H2 C3 1_555 1_555
H3 C3 1_555 1_555
C4 C3 1_555 1_555
C5 N1 1_555 1_555
C6 C4 1_555 1_555
H4 C6 1_555 1_555
H5 C6 1_555 1_555
C7 C6 1_555 1_555
C8 C2 1_555 1_555
H6 C8 1_555 1_555
H7 C8 1_555 1_555
C9 C2 1_555 1_555
H8 C9 1_555 1_555
H9 C9 1_555 1_555
H10 C9 1_555 1_555
C10 C4 1_555 1_555
H11 C10 1_555 1_555
H12 C10 1_555 1_555
H13 C10 1_555 1_555
C11 C7 1_555 1_555
H14 C11 1_555 1_555
H15 C11 1_555 1_555
H16 C11 1_555 1_555
C12 C7 1_555 1_555
C13 O3 1_555 1_555
H17 C13 1_555 1_555
H18 C13 1_555 1_555
C14 C13 1_555 1_555
H19 C14 1_555 1_555
H20 C14 1_555 1_555
C15 C14 1_555 1_555
H21 C15 1_555 1_555
C16 S1 1_555 1_555
H22 C16 1_555 1_555
H23 C16 1_555 1_555
C17 C16 1_555 1_555
H24 C17 1_555 1_555
H25 C17 1_555 1_555
C18 S2 1_555 1_555
H26 C18 1_555 1_555
H27 C18 1_555 1_555
S3 C33 1_555 1_555
S4 C33 1_555 1_555
O5 C23 1_555 1_555
O6 C19 1_555 1_555
O7 C30 1_555 1_555
O8 C30 1_555 1_555
N2 H28 1_555 1_555
C19 N2 1_555 1_555
C20 C19 1_555 1_555
C21 C20 1_555 1_555
H29 C21 1_555 1_555
H30 C21 1_555 1_555
C22 C21 1_555 1_555
C23 N2 1_555 1_555
C24 C20 1_555 1_555
H31 C24 1_555 1_555
H32 C24 1_555 1_555
C25 C24 1_555 1_555
C26 C22 1_555 1_555
H33 C26 1_555 1_555
H34 C26 1_555 1_555
C27 C20 1_555 1_555
H35 C27 1_555 1_555
H36 C27 1_555 1_555
H37 C27 1_555 1_555
C28 C22 1_555 1_555
H38 C28 1_555 1_555
H39 C28 1_555 1_555
H40 C28 1_555 1_555
C29 C25 1_555 1_555
H41 C29 1_555 1_555
H42 C29 1_555 1_555
H43 C29 1_555 1_555
C30 C25 1_555 1_555
C31 O7 1_555 1_555
H44 C31 1_555 1_555
H45 C31 1_555 1_555
C32 C31 1_555 1_555
H46 C32 1_555 1_555
H47 C32 1_555 1_555
C33 C32 1_555 1_555
H48 C33 1_555 1_555
C34 S3 1_555 1_555
H49 C34 1_555 1_555
H50 C34 1_555 1_555
C35 C34 1_555 1_555
H51 C35 1_555 1_555
H52 C35 1_555 1_555
C36 S4 1_555 1_555
H53 C36 1_555 1_555
H54 C36 1_555 1_555
C4 C5 1_555 1_555
C7 C8 1_555 1_555
C17 C18 1_555 1_555
C22 C23 1_555 1_555
C25 C26 1_555 1_555
C35 C36 1_555 1_555

#END
