
#######################################################################
#
#                 Cambridge Crystallographic Data Centre
#                                CCDC 
#
#######################################################################
#
# If this CIF has been generated from an entry in the Cambridge 
# Structural Database, then it will include bibliographic, chemical, 
# crystal, experimental, refinement or atomic coordinate data resulting 
# from the CCDC's data processing and validation procedures.
#
#######################################################################

data_ADIKII
_chemical_name_common            
'((S)-Quinolinium-4-yl)((2R,4R,8S)-8-vinylquinuclidinium-2-yl)methanol diperchlorate'
_chemical_formula_moiety         'C19 H24 N2 O1 2+,2(Cl1 O4 1-)'
_chemical_name_systematic        'Cinchonidinium diperchlorate'
_symmetry_cell_setting           triclinic
_symmetry_space_group_name_H-M   'P 1'
_symmetry_Int_Tables_number      1
_space_group_name_Hall           'P 1'
loop_
_symmetry_equiv_pos_site_id
_symmetry_equiv_pos_as_xyz
1 x,y,z
_cell_length_a                   6.5440(10)
_cell_length_b                   7.819(2)
_cell_length_c                   11.308(2)
_cell_angle_alpha                88.67(2)
_cell_angle_beta                 77.030(10)
_cell_angle_gamma                83.85(2)
_cell_volume                     560.596
_exptl_crystal_colour            colorless
_exptl_crystal_description       Block
_cell_formula_units_Z            1
loop_
_atom_site_label
_atom_site_type_symbol
_atom_site_fract_x
_atom_site_fract_y
_atom_site_fract_z
Cl1 Cl 1.43901(11) 0.05951(8) 0.26197(7)
O1 O 1.3649(7) 0.1540(5) 0.1689(4)
O2 O 1.4516(5) -0.1179(3) 0.2418(3)
O3 O 1.6490(6) 0.1037(5) 0.2582(4)
O4 O 1.3154(6) 0.1110(4) 0.3764(3)
Cl2 Cl 1.12107(12) 1.27761(10) -0.14977(7)
O5 O 0.9559(6) 1.1820(4) -0.1709(3)
O6 O 1.3188(7) 1.2167(6) -0.2160(5)
O7 O 1.0772(6) 1.4547(4) -0.1756(3)
O8 O 1.1151(6) 1.2660(5) -0.0221(3)
O9 O 1.0889(4) 0.4472(3) 0.2811(2)
N1 N 0.9169(5) 0.9060(4) 0.0014(3)
N2 N 0.6397(4) 0.3807(3) 0.4261(2)
C1 C 0.7791(5) 0.7912(4) -0.0087(3)
C2 C 0.6465(6) 0.8212(6) -0.0888(3)
H1 H 0.6496 0.9201 -0.1363
C3 C 0.5118(7) 0.7025(8) -0.0963(4)
H2 H 0.4221 0.7214 -0.1495
C4 C 0.5056(7) 0.5551(7) -0.0268(4)
H3 H 0.4130 0.4759 -0.0346
C5 C 0.6331(5) 0.5236(5) 0.0535(3)
H4 H 0.6274 0.4232 0.0993
C6 C 0.7741(5) 0.6434(4) 0.0671(3)
C7 C 0.9088(4) 0.6233(4) 0.1498(2)
C8 C 1.0425(5) 0.7467(4) 0.1514(3)
H5 H 1.1327 0.7352 0.2046
C9 C 1.0454(5) 0.8859(4) 0.0763(3)
H6 H 1.1386 0.9672 0.0781
C10 C 0.8982(4) 0.4780(4) 0.2399(3)
H7 H 0.8705 0.3733 0.2027
C11 C 0.7152(4) 0.5316(3) 0.3493(2)
H8 H 0.5967 0.5834 0.3163
C12 C 0.7617(5) 0.6643(4) 0.4341(3)
H9 H 0.7014 0.7779 0.4157
H10 H 0.9129 0.6661 0.4226
C13 C 0.6668(5) 0.6179(4) 0.5657(3)
H11 H 0.6788 0.7107 0.6197
C14 C 0.4346(5) 0.5872(4) 0.5819(3)
H12 H 0.3825 0.5541 0.6665
C15 C 0.4244(5) 0.4355(4) 0.5019(3)
H13 H 0.3724 0.3404 0.5523
H14 H 0.3277 0.4683 0.4496
C16 C 0.7861(6) 0.4523(6) 0.5981(4)
H15 H 0.7214 0.4165 0.6794
H16 H 0.9309 0.4711 0.5964
C17 C 0.7817(6) 0.3120(5) 0.5070(4)
H17 H 0.9228 0.2799 0.4591
H18 H 0.7296 0.2107 0.5495
C18 C 0.2963(6) 0.7454(5) 0.5562(4)
H19 H 0.3230 0.7897 0.4778
C19 C 0.1464(8) 0.8213(7) 0.6347(6)
H20 H 0.1157 0.7802 0.7138
H21 H 0.0673 0.9181 0.6130
H22 H 0.907(6) 0.999(3) -0.039(3)
H23 H 0.636(6) 0.296(3) 0.380(3)
H24 H 1.181(6) 0.375(5) 0.245(4)
loop_
_geom_bond_atom_site_label_1
_geom_bond_atom_site_label_2
_geom_bond_site_symmetry_1
_geom_bond_site_symmetry_2
Cl1 O1 1_555 1_555
O2 Cl1 1_555 1_555
O3 Cl1 1_555 1_555
O4 Cl1 1_555 1_555
Cl2 O5 1_555 1_555
O6 Cl2 1_555 1_555
O7 Cl2 1_555 1_555
O8 Cl2 1_555 1_555
O9 C10 1_555 1_555
N1 C1 1_555 1_555
N2 C11 1_555 1_555
C1 C2 1_555 1_555
C2 H1 1_555 1_555
C3 C2 1_555 1_555
H2 C3 1_555 1_555
C4 C3 1_555 1_555
H3 C4 1_555 1_555
C5 C4 1_555 1_555
H4 C5 1_555 1_555
C6 C1 1_555 1_555
C7 C6 1_555 1_555
C8 C7 1_555 1_555
H5 C8 1_555 1_555
C9 N1 1_555 1_555
H6 C9 1_555 1_555
C10 C7 1_555 1_555
H7 C10 1_555 1_555
C11 C10 1_555 1_555
H8 C11 1_555 1_555
C12 C11 1_555 1_555
H9 C12 1_555 1_555
H10 C12 1_555 1_555
C13 C12 1_555 1_555
H11 C13 1_555 1_555
C14 C13 1_555 1_555
H12 C14 1_555 1_555
C15 N2 1_555 1_555
H13 C15 1_555 1_555
H14 C15 1_555 1_555
C16 C13 1_555 1_555
H15 C16 1_555 1_555
H16 C16 1_555 1_555
C17 N2 1_555 1_555
H17 C17 1_555 1_555
H18 C17 1_555 1_555
C18 C14 1_555 1_555
H19 C18 1_555 1_555
C19 C18 1_555 1_555
H20 C19 1_555 1_555
H21 C19 1_555 1_555
H22 N1 1_555 1_555
H23 N2 1_555 1_555
H24 O9 1_555 1_555
C5 C6 1_555 1_555
C8 C9 1_555 1_555
C14 C15 1_555 1_555
C16 C17 1_555 1_555

#END
