
#######################################################################
#
#                 Cambridge Crystallographic Data Centre
#                                CCDC 
#
#######################################################################
#
# If this CIF has been generated from an entry in the Cambridge 
# Structural Database, then it will include bibliographic, chemical, 
# crystal, experimental, refinement or atomic coordinate data resulting 
# from the CCDC's data processing and validation procedures.
#
#######################################################################

data_ADIKAZ
_chemical_formula_moiety         'C19 H29 N1 O4'
_chemical_name_systematic        
'Cyclohexylmethyl 1,5,7-trimethyl-2,4-dioxo-3-azabicyclo(3.3.1)nonane-7-carboxylate'
_symmetry_cell_setting           monoclinic
_symmetry_space_group_name_H-M   'P 21/n'
_symmetry_Int_Tables_number      14
_space_group_name_Hall           '-P 2yn'
loop_
_symmetry_equiv_pos_site_id
_symmetry_equiv_pos_as_xyz
1 x,y,z
2 1/2+x,1/2-y,1/2+z
3 -x,-y,-z
4 1/2-x,1/2+y,1/2-z
_cell_length_a                   11.717(9)
_cell_length_b                   12.325(10)
_cell_length_c                   13.440(10)
_cell_angle_alpha                90
_cell_angle_beta                 104.43(6)
_cell_angle_gamma                90
_cell_volume                     1879.67
_exptl_crystal_colour            colorless
_exptl_crystal_description       prism
_cell_formula_units_Z            4
loop_
_atom_site_label
_atom_site_type_symbol
_atom_site_fract_x
_atom_site_fract_y
_atom_site_fract_z
O1 O 0.2170(2) 0.4170(2) 0.5049(2)
N1 N 0.4176(2) 0.4290(2) 0.3752(2)
H1 H 0.4458(2) 0.4942(2) 0.4000(2)
O2 O 0.4956(2) 0.3605(2) 0.5316(2)
C1 C 0.4379(3) 0.3442(2) 0.4437(2)
O3 O 0.3532(2) 0.5066(2) 0.2205(2)
C2 C 0.3865(3) 0.2356(2) 0.4058(2)
C3 C 0.3592(3) 0.4252(3) 0.2720(2)
O4 O 0.1424(2) 0.4985(2) 0.3559(2)
C4 C 0.3803(3) 0.2263(2) 0.2919(2)
H2 H 0.3481(3) 0.1571(2) 0.2665(2)
H3 H 0.4586(3) 0.2313(2) 0.2823(2)
C5 C 0.3051(3) 0.3170(2) 0.2310(2)
C6 C 0.2617(3) 0.2263(2) 0.4201(2)
H4 H 0.2655(3) 0.2382(2) 0.4914(2)
H5 H 0.2345(3) 0.1534(2) 0.4038(2)
C7 C 0.1757(3) 0.4176(3) 0.4036(3)
C8 C 0.1703(3) 0.3043(3) 0.3575(2)
C9 C 0.1797(3) 0.3092(3) 0.2467(2)
H6 H 0.1433(3) 0.2452(3) 0.2120(2)
H7 H 0.1354(3) 0.3706(3) 0.2142(2)
C10 C 0.2771(3) 0.4987(3) 0.6707(3)
H8 H 0.3508(3) 0.4618(3) 0.6774(3)
C11 C 0.2000(4) 0.4281(3) 0.7180(3)
H9 H 0.1878(4) 0.3595(3) 0.6831(3)
H10 H 0.1248(4) 0.4629(3) 0.7091(3)
C12 C 0.2267(4) 0.5200(3) 0.5577(3)
H11 H 0.1503(4) 0.5524(3) 0.5486(3)
H12 H 0.2758(4) 0.5686(3) 0.5309(3)
C13 C 0.4622(3) 0.1451(3) 0.4663(3)
H13 H 0.4646(3) 0.1515(3) 0.5379(3)
H14 H 0.4301(3) 0.0757(3) 0.4414(3)
H15 H 0.5406(3) 0.1514(3) 0.4571(3)
C14 C 0.3042(4) 0.6056(3) 0.7284(3)
H16 H 0.2315(4) 0.6448(3) 0.7197(3)
H17 H 0.3570(4) 0.6485(3) 0.7004(3)
C15 C 0.0456(3) 0.2622(3) 0.3576(3)
H18 H 0.0377(3) 0.2582(3) 0.4269(3)
H19 H -0.0125(3) 0.3111(3) 0.3187(3)
H20 H 0.0344(3) 0.1914(3) 0.3269(3)
C16 C 0.3002(4) 0.3089(3) 0.1166(2)
H21 H 0.2519(4) 0.3665(3) 0.0807(2)
H22 H 0.3784(4) 0.3153(3) 0.1069(2)
H23 H 0.2672(4) 0.2403(3) 0.0904(2)
C17 C 0.2790(4) 0.5168(4) 0.8891(3)
H24 H 0.2059(4) 0.5543(4) 0.8840(3)
H25 H 0.3149(4) 0.5040(4) 0.9605(3)
C18 C 0.3559(4) 0.5863(4) 0.8428(3)
H26 H 0.3701(4) 0.6544(4) 0.8784(3)
H27 H 0.4302(4) 0.5500(4) 0.8512(3)
C19 C 0.2535(4) 0.4101(3) 0.8319(3)
H28 H 0.3263(4) 0.3712(3) 0.8404(3)
H29 H 0.2014(4) 0.3669(3) 0.8606(3)
loop_
_geom_bond_atom_site_label_1
_geom_bond_atom_site_label_2
_geom_bond_site_symmetry_1
_geom_bond_site_symmetry_2
O1 C7 1_555 1_555
N1 H1 1_555 1_555
O2 C1 1_555 1_555
C1 N1 1_555 1_555
O3 C3 1_555 1_555
C2 C1 1_555 1_555
C3 N1 1_555 1_555
O4 C7 1_555 1_555
C4 C2 1_555 1_555
H2 C4 1_555 1_555
H3 C4 1_555 1_555
C5 C3 1_555 1_555
C6 C2 1_555 1_555
H4 C6 1_555 1_555
H5 C6 1_555 1_555
C7 C8 1_555 1_555
C8 C6 1_555 1_555
C9 C5 1_555 1_555
H6 C9 1_555 1_555
H7 C9 1_555 1_555
C10 H8 1_555 1_555
C11 C10 1_555 1_555
H9 C11 1_555 1_555
H10 C11 1_555 1_555
C12 O1 1_555 1_555
H11 C12 1_555 1_555
H12 C12 1_555 1_555
C13 C2 1_555 1_555
H13 C13 1_555 1_555
H14 C13 1_555 1_555
H15 C13 1_555 1_555
C14 C10 1_555 1_555
H16 C14 1_555 1_555
H17 C14 1_555 1_555
C15 C8 1_555 1_555
H18 C15 1_555 1_555
H19 C15 1_555 1_555
H20 C15 1_555 1_555
C16 C5 1_555 1_555
H21 C16 1_555 1_555
H22 C16 1_555 1_555
H23 C16 1_555 1_555
C17 H24 1_555 1_555
H25 C17 1_555 1_555
C18 C14 1_555 1_555
H26 C18 1_555 1_555
H27 C18 1_555 1_555
C19 C11 1_555 1_555
H28 C19 1_555 1_555
H29 C19 1_555 1_555
C4 C5 1_555 1_555
C8 C9 1_555 1_555
C10 C12 1_555 1_555
C17 C19 1_555 1_555
C17 C18 1_555 1_555

#END
