
#######################################################################
#
#                 Cambridge Crystallographic Data Centre
#                                CCDC 
#
#######################################################################
#
# If this CIF has been generated from an entry in the Cambridge 
# Structural Database, then it will include bibliographic, chemical, 
# crystal, experimental, refinement or atomic coordinate data resulting 
# from the CCDC's data processing and validation procedures.
#
#######################################################################

data_ADIKUW
_chemical_formula_moiety         'C28 H24 N1 O2 P1'
_chemical_name_systematic        
2-(diphenylphosphoryl)-5-methoxy-1-methyl-3-phenyl-1H-indole
_symmetry_cell_setting           monoclinic
_symmetry_space_group_name_H-M   'C 2/c'
_symmetry_Int_Tables_number      15
_space_group_name_Hall           '-C 2yn'
loop_
_symmetry_equiv_pos_site_id
_symmetry_equiv_pos_as_xyz
1 x,y,z
2 -x,y,1/2-z
3 1/2+x,1/2+y,z
4 1/2-x,1/2+y,1/2-z
5 -x,-y,-z
6 x,-y,1/2+z
7 1/2-x,1/2-y,-z
8 1/2+x,1/2-y,1/2+z
_cell_length_a                   24.609(6)
_cell_length_b                   9.508(2)
_cell_length_c                   21.415(5)
_cell_angle_alpha                90
_cell_angle_beta                 115.972(4)
_cell_angle_gamma                90
_cell_volume                     4504.69
_exptl_crystal_colour            colorless
_exptl_crystal_description       prism
_cell_formula_units_Z            8
loop_
_atom_site_label
_atom_site_type_symbol
_atom_site_fract_x
_atom_site_fract_y
_atom_site_fract_z
P1 P 0.09017(2) 0.15111(4) 0.17445(2)
O1 O 0.40957(6) 0.16806(15) 0.47977(7)
O2 O 0.04857(6) 0.03540(13) 0.17195(6)
N1 N 0.16572(7) 0.13649(15) 0.31385(7)
C1 C 0.22500(8) 0.14202(17) 0.36191(9)
C2 C 0.25032(9) 0.13960(19) 0.43473(9)
H1 H 0.2259 0.1323 0.4582
C3 C 0.31152(9) 0.14825(19) 0.47017(9)
H2 H 0.3293 0.1474 0.5190
C4 C 0.34941(9) 0.15855(18) 0.43626(9)
C5 C 0.32496(8) 0.15712(16) 0.36414(9)
H3 H 0.3499 0.1607 0.3412
C6 C 0.26161(8) 0.15012(15) 0.32663(8)
C7 C 0.22188(8) 0.14752(15) 0.25408(8)
C8 C 0.24284(8) 0.14756(16) 0.19875(8)
C9 C 0.27509(8) 0.26134(18) 0.19113(9)
H4 H 0.2838 0.3386 0.2214
C10 C 0.29444(9) 0.2614(2) 0.13906(10)
H5 H 0.3158 0.3391 0.1340
C11 C 0.28244(10) 0.1478(2) 0.09467(10)
H6 H 0.2952 0.1485 0.0592
C12 C 0.25156(9) 0.0332(2) 0.10282(9)
H7 H 0.2436 -0.0446 0.0730
C13 C 0.23219(8) 0.03254(17) 0.15489(8)
H8 H 0.2117 -0.0464 0.1604
C14 C 0.16338(8) 0.14025(17) 0.24788(8)
C15 C 0.06210(8) 0.32221(17) 0.18198(8)
C16 C 0.09878(8) 0.42965(19) 0.22329(9)
H9 H 0.1402 0.4138 0.2507
C17 C 0.07370(10) 0.5606(2) 0.22380(10)
H10 H 0.0983 0.6331 0.2518
C18 C 0.01285(10) 0.5845(2) 0.18333(10)
H11 H -0.0038 0.6732 0.1839
C19 C -0.02363(9) 0.4783(2) 0.14192(10)
H12 H -0.0650 0.4951 0.1141
C20 C 0.00063(8) 0.34762(19) 0.14136(9)
H13 H -0.0243 0.2754 0.1135
C21 C 0.09922(8) 0.16097(16) 0.09568(8)
C22 C 0.12334(8) 0.27895(17) 0.07814(8)
H14 H 0.1382 0.3542 0.1096
C23 C 0.12547(8) 0.28568(19) 0.01517(9)
H15 H 0.1427 0.3644 0.0042
C24 C 0.10216(9) 0.1764(2) -0.03227(10)
H16 H 0.1030 0.1819 -0.0757
C25 C 0.07786(9) 0.0601(2) -0.01559(10)
H17 H 0.0623 -0.0140 -0.0476
C26 C 0.07631(8) 0.05174(18) 0.04802(9)
H18 H 0.0597 -0.0280 0.0591
C27 C 0.11523(10) 0.1376(3) 0.33224(11)
H19 H 0.1215 0.0658 0.3669
H20 H 0.0780 0.1185 0.2912
H21 H 0.1127 0.2291 0.3508
C28 C 0.45070(9) 0.1555(2) 0.44997(10)
H22 H 0.4456 0.0645 0.4276
H23 H 0.4917 0.1641 0.4861
H24 H 0.4429 0.2293 0.4158
loop_
_geom_bond_atom_site_label_1
_geom_bond_atom_site_label_2
_geom_bond_site_symmetry_1
_geom_bond_site_symmetry_2
P1 O2 1_555 1_555
O1 C4 1_555 1_555
N1 C1 1_555 1_555
C1 C2 1_555 1_555
C2 H1 1_555 1_555
C3 C2 1_555 1_555
H2 C3 1_555 1_555
C4 C3 1_555 1_555
C5 C4 1_555 1_555
H3 C5 1_555 1_555
C6 C1 1_555 1_555
C7 C6 1_555 1_555
C8 C7 1_555 1_555
C9 C8 1_555 1_555
H4 C9 1_555 1_555
C10 C9 1_555 1_555
H5 C10 1_555 1_555
C11 C10 1_555 1_555
H6 C11 1_555 1_555
C12 C11 1_555 1_555
H7 C12 1_555 1_555
C13 C8 1_555 1_555
H8 C13 1_555 1_555
C14 P1 1_555 1_555
C15 P1 1_555 1_555
C16 C15 1_555 1_555
H9 C16 1_555 1_555
C17 C16 1_555 1_555
H10 C17 1_555 1_555
C18 C17 1_555 1_555
H11 C18 1_555 1_555
C19 C18 1_555 1_555
H12 C19 1_555 1_555
C20 C15 1_555 1_555
H13 C20 1_555 1_555
C21 P1 1_555 1_555
C22 C21 1_555 1_555
H14 C22 1_555 1_555
C23 C22 1_555 1_555
H15 C23 1_555 1_555
C24 C23 1_555 1_555
H16 C24 1_555 1_555
C25 C24 1_555 1_555
H17 C25 1_555 1_555
C26 C21 1_555 1_555
H18 C26 1_555 1_555
C27 N1 1_555 1_555
H19 C27 1_555 1_555
H20 C27 1_555 1_555
H21 C27 1_555 1_555
C28 O1 1_555 1_555
H22 C28 1_555 1_555
H23 C28 1_555 1_555
H24 C28 1_555 1_555
N1 C14 1_555 1_555
C5 C6 1_555 1_555
C7 C14 1_555 1_555
C12 C13 1_555 1_555
C19 C20 1_555 1_555
C25 C26 1_555 1_555

#END
