
#######################################################################
#
#                 Cambridge Crystallographic Data Centre
#                                CCDC 
#
#######################################################################
#
# If this CIF has been generated from an entry in the Cambridge 
# Structural Database, then it will include bibliographic, chemical, 
# crystal, experimental, refinement or atomic coordinate data resulting 
# from the CCDC's data processing and validation procedures.
#
#######################################################################

data_ADIKED
_chemical_formula_moiety         'C17 H25 N1 O4 S2'
_chemical_name_systematic        
'(1,3-Dithian-2-yl)methyl 1,5,7-trimethyl-2,4-dioxo-3-azabicyclo(3.3.1)nonane-7-carboxylate'
_symmetry_cell_setting           monoclinic
_symmetry_space_group_name_H-M   'P 21/n'
_symmetry_Int_Tables_number      14
_space_group_name_Hall           '-P 2yn'
loop_
_symmetry_equiv_pos_site_id
_symmetry_equiv_pos_as_xyz
1 x,y,z
2 1/2+x,1/2-y,1/2+z
3 -x,-y,-z
4 1/2-x,1/2+y,1/2-z
_cell_length_a                   11.612(16)
_cell_length_b                   12.352(8)
_cell_length_c                   13.534(20)
_cell_angle_alpha                90
_cell_angle_beta                 105.68(12)
_cell_angle_gamma                90
_cell_volume                     1868.96
_exptl_crystal_colour            colorless
_exptl_crystal_description       prism
_cell_formula_units_Z            4
loop_
_atom_site_label
_atom_site_type_symbol
_atom_site_fract_x
_atom_site_fract_y
_atom_site_fract_z
S1 S 0.19849(9) 0.63443(7) 0.78084(8)
S2 S 0.32579(11) 0.42137(8) 0.79388(9)
O1 O 0.0039(2) 0.3617(2) 0.9679(2)
O2 O 0.2838(2) 0.4199(2) 1.0033(2)
N1 N 0.0762(2) 0.4279(2) 1.1259(2)
H1 H 0.0492(2) 0.4931(2) 1.1001(2)
O3 O 0.1300(2) 0.5020(2) 1.2818(2)
C1 C 0.1875(3) 0.3163(3) 1.2706(2)
C2 C 0.1142(3) 0.2261(2) 1.2078(2)
H2 H 0.0343(3) 0.2306(2) 1.2148(2)
H3 H 0.1469(3) 0.1570(2) 1.2334(2)
C3 C 0.1113(2) 0.2359(2) 1.0954(2)
C4 C 0.1307(3) 0.4231(2) 1.2301(2)
C5 C 0.0595(2) 0.3448(2) 1.0573(2)
C6 C 0.2729(4) 0.5230(3) 0.9521(3)
H4 H 0.3498(4) 0.5571(3) 0.9643(3)
H5 H 0.2206(4) 0.5698(3) 0.9766(3)
C7 C 0.0366(3) 0.1463(2) 1.0323(3)
H6 H -0.0435(3) 0.1506(2) 1.0391(3)
H7 H 0.0352(3) 0.1553(2) 0.9616(3)
H8 H 0.0703(3) 0.0770(2) 1.0562(3)
C8 C 0.2389(2) 0.2288(2) 1.0855(2)
H9 H 0.2363(2) 0.2405(2) 1.0148(2)
H10 H 0.2684(2) 0.1568(2) 1.1032(2)
C9 C 0.3280(3) 0.3089(3) 1.1505(2)
C10 C 0.3162(3) 0.3120(3) 1.2592(2)
H11 H 0.3549(3) 0.2491(3) 1.2949(2)
H12 H 0.3582(3) 0.3744(3) 1.2932(2)
C11 C 0.3185(3) 0.4214(3) 1.1049(3)
O4 O 0.3422(2) 0.5031(2) 1.1531(2)
C12 C 0.2237(3) 0.5029(3) 0.8398(3)
H13 H 0.1487(3) 0.4657(3) 0.8286(3)
C13 C 0.2222(4) 0.5240(3) 0.6081(3)
H14 H 0.1902(4) 0.5145(3) 0.5355(3)
H15 H 0.2977(4) 0.5605(3) 0.6196(3)
C14 C 0.1906(4) 0.3058(3) 1.3836(2)
H16 H 0.2386(4) 0.3626(3) 1.4224(2)
H17 H 0.1101(4) 0.3120(3) 1.3890(2)
H18 H 0.2229(4) 0.2369(3) 1.4100(2)
C15 C 0.2463(4) 0.4163(3) 0.6607(3)
H19 H 0.1701(4) 0.3829(3) 0.6548(3)
H20 H 0.2899(4) 0.3711(3) 0.6257(3)
C16 C 0.4563(3) 0.2713(3) 1.1538(3)
H21 H 0.5132(3) 0.3208(3) 1.1949(3)
H22 H 0.4697(3) 0.2001(3) 1.1832(3)
H23 H 0.4655(3) 0.2696(3) 1.0854(3)
C17 C 0.1426(4) 0.5951(3) 0.6491(3)
H24 H 0.1238(4) 0.6591(3) 0.6077(3)
H25 H 0.0695(4) 0.5558(3) 0.6423(3)
loop_
_geom_bond_atom_site_label_1
_geom_bond_atom_site_label_2
_geom_bond_site_symmetry_1
_geom_bond_site_symmetry_2
S1 C12 1_555 1_555
S2 C12 1_555 1_555
O1 C5 1_555 1_555
O2 C6 1_555 1_555
N1 H1 1_555 1_555
O3 C4 1_555 1_555
C1 C2 1_555 1_555
C2 H2 1_555 1_555
H3 C2 1_555 1_555
C3 C2 1_555 1_555
C4 N1 1_555 1_555
C5 N1 1_555 1_555
C6 H4 1_555 1_555
H5 C6 1_555 1_555
C7 C3 1_555 1_555
H6 C7 1_555 1_555
H7 C7 1_555 1_555
H8 C7 1_555 1_555
C8 C3 1_555 1_555
H9 C8 1_555 1_555
H10 C8 1_555 1_555
C9 C8 1_555 1_555
C10 C1 1_555 1_555
H11 C10 1_555 1_555
H12 C10 1_555 1_555
C11 O2 1_555 1_555
O4 C11 1_555 1_555
C12 C6 1_555 1_555
H13 C12 1_555 1_555
C13 H14 1_555 1_555
H15 C13 1_555 1_555
C14 C1 1_555 1_555
H16 C14 1_555 1_555
H17 C14 1_555 1_555
H18 C14 1_555 1_555
C15 S2 1_555 1_555
H19 C15 1_555 1_555
H20 C15 1_555 1_555
C16 C9 1_555 1_555
H21 C16 1_555 1_555
H22 C16 1_555 1_555
H23 C16 1_555 1_555
C17 S1 1_555 1_555
H24 C17 1_555 1_555
H25 C17 1_555 1_555
C1 C4 1_555 1_555
C3 C5 1_555 1_555
C9 C11 1_555 1_555
C9 C10 1_555 1_555
C13 C15 1_555 1_555
C13 C17 1_555 1_555

#END
