
#######################################################################
#
#                 Cambridge Crystallographic Data Centre
#                                CCDC 
#
#######################################################################
#
# If this CIF has been generated from an entry in the Cambridge 
# Structural Database, then it will include bibliographic, chemical, 
# crystal, experimental, refinement or atomic coordinate data resulting 
# from the CCDC's data processing and validation procedures.
#
#######################################################################

data_ADIKAA
_chemical_formula_moiety         'C17 H13 Cl1 N2 O2'
_chemical_name_systematic        
N-(2-Chlorophenyl)-2-(quinolin-8-yloxy)acetamide
_symmetry_cell_setting           monoclinic
_symmetry_space_group_name_H-M   'P 21/c'
_symmetry_Int_Tables_number      14
_space_group_name_Hall           '-P 2ybc'
loop_
_symmetry_equiv_pos_site_id
_symmetry_equiv_pos_as_xyz
1 x,y,z
2 -x,1/2+y,1/2-z
3 -x,-y,-z
4 x,1/2-y,1/2+z
_cell_length_a                   20.245(4)
_cell_length_b                   4.0211(7)
_cell_length_c                   20.245(4)
_cell_angle_alpha                90
_cell_angle_beta                 117.38
_cell_angle_gamma                90
_cell_volume                     1463.46
_exptl_crystal_colour            colorless
_exptl_crystal_description       plate
_cell_formula_units_Z            4
_exptl_crystal_recrystallization_method 'ethyl acetate'
loop_
_atom_site_label
_atom_site_type_symbol
_atom_site_fract_x
_atom_site_fract_y
_atom_site_fract_z
Cl1 Cl 0.39619(4) 0.8707(2) 0.44695(4)
O1 O 0.16836(10) 0.9844(5) 0.33900(9)
O2 O 0.17496(11) 0.4830(5) 0.19988(10)
N1 N 0.24373(13) 1.3098(6) 0.46460(12)
N2 N 0.26445(11) 0.6913(5) 0.30940(11)
H1 H 0.2693 0.8013 0.3478
C1 C 0.17243(14) 1.2288(6) 0.44552(13)
C2 C 0.28224(18) 1.4691(7) 0.52718(16)
H2 H 0.3312 1.5244 0.5399
C3 C 0.2542(2) 1.5611(8) 0.57592(17)
H3 H 0.2837 1.6742 0.6198
C4 C 0.1828(2) 1.4812(7) 0.55770(17)
H4 H 0.1628 1.5401 0.5893
C5 C 0.13838(17) 1.3085(7) 0.49078(15)
C6 C 0.06350(19) 1.2162(8) 0.46735(18)
H5 H 0.0409 1.2665 0.4970
C7 C 0.02442(17) 1.0546(8) 0.40185(18)
H6 H -0.0249 0.9964 0.3870
C8 C 0.05744(15) 0.9743(7) 0.35631(15)
H7 H 0.0298 0.8657 0.3113
C9 C 0.13009(15) 1.0551(6) 0.37787(13)
C10 C 0.13502(14) 0.7790(7) 0.27548(13)
H8 H 0.0995 0.9072 0.2336
H9 H 0.1085 0.5987 0.2847
C11 C 0.19416(15) 0.6389(6) 0.25748(14)
C12 C 0.33062(14) 0.5928(6) 0.30990(14)
C13 C 0.39777(15) 0.6668(7) 0.37215(14)
C14 C 0.46507(17) 0.5774(8) 0.37585(18)
H10 H 0.5091 0.6262 0.4181
C15 C 0.4669(2) 0.4143(8) 0.3163(2)
H11 H 0.5122 0.3556 0.3182
C16 C 0.4016(2) 0.3404(8) 0.2549(2)
H12 H 0.4028 0.2311 0.2150
C17 C 0.33353(17) 0.4254(7) 0.25100(16)
H13 H 0.2897 0.3706 0.2090
H14? H 0.2634 1.2578 0.4363
loop_
_geom_bond_atom_site_label_1
_geom_bond_atom_site_label_2
_geom_bond_site_symmetry_1
_geom_bond_site_symmetry_2
Cl1 C13 1_555 1_555
O1 C9 1_555 1_555
O2 C11 1_555 1_555
N1 C1 1_555 1_555
N2 H1 1_555 1_555
C1 C5 1_555 1_555
C2 N1 1_555 1_555
H2 C2 1_555 1_555
C3 C2 1_555 1_555
H3 C3 1_555 1_555
C4 C3 1_555 1_555
H4 C4 1_555 1_555
C5 C4 1_555 1_555
C6 C5 1_555 1_555
H5 C6 1_555 1_555
C7 C6 1_555 1_555
H6 C7 1_555 1_555
C8 C7 1_555 1_555
H7 C8 1_555 1_555
C9 C1 1_555 1_555
C10 O1 1_555 1_555
H8 C10 1_555 1_555
H9 C10 1_555 1_555
C11 N2 1_555 1_555
C12 N2 1_555 1_555
C13 C12 1_555 1_555
C14 C13 1_555 1_555
H10 C14 1_555 1_555
C15 C14 1_555 1_555
H11 C15 1_555 1_555
C16 C15 1_555 1_555
H12 C16 1_555 1_555
C17 C12 1_555 1_555
H13 C17 1_555 1_555
C8 C9 1_555 1_555
C10 C11 1_555 1_555
C16 C17 1_555 1_555

#END
