
#######################################################################
#
#                 Cambridge Crystallographic Data Centre
#                                CCDC 
#
#######################################################################
#
# If this CIF has been generated from an entry in the Cambridge 
# Structural Database, then it will include bibliographic, chemical, 
# crystal, experimental, refinement or atomic coordinate data resulting 
# from the CCDC's data processing and validation procedures.
#
#######################################################################

data_ADIKOQ
_chemical_formula_moiety         'C27 H34 N1 O1 P1,0.5(H2 O1)'
_chemical_name_systematic        
'2-(dicyclohexylphosphoryl)-1-methyl-3-phenyl-1H-indole hemihydrate'
_symmetry_cell_setting           monoclinic
_symmetry_space_group_name_H-M   'C 2/c'
_symmetry_Int_Tables_number      15
_space_group_name_Hall           '-C 2yn'
loop_
_symmetry_equiv_pos_site_id
_symmetry_equiv_pos_as_xyz
1 x,y,z
2 -x,y,1/2-z
3 1/2+x,1/2+y,z
4 1/2-x,1/2+y,1/2-z
5 -x,-y,-z
6 x,-y,1/2+z
7 1/2-x,1/2-y,-z
8 1/2+x,1/2-y,1/2+z
_cell_length_a                   10.5217(13)
_cell_length_b                   14.8118(18)
_cell_length_c                   29.451(3)
_cell_angle_alpha                90
_cell_angle_beta                 94.420(3)
_cell_angle_gamma                90
_cell_volume                     4576.15
_exptl_crystal_colour            colorless
_exptl_crystal_description       Prism
_cell_formula_units_Z            8
loop_
_atom_site_label
_atom_site_type_symbol
_atom_site_fract_x
_atom_site_fract_y
_atom_site_fract_z
P1 P 0.75737(3) 1.03167(2) 0.664974(10)
O1 O 0.84185(10) 1.10679(7) 0.68326(3)
N1 N 0.94697(10) 0.98265(7) 0.60645(4)
C1 C 0.96132(11) 0.93847(8) 0.56611(4)
C2 C 1.07012(12) 0.92801(9) 0.54200(4)
H1 H 1.1499 0.9530 0.5528
C3 C 1.05641(13) 0.87987(9) 0.50193(5)
H2 H 1.1286 0.8713 0.4849
C4 C 0.93855(13) 0.84307(9) 0.48546(4)
H3 H 0.9324 0.8108 0.4575
C5 C 0.83164(12) 0.85328(8) 0.50939(4)
H4 H 0.7520 0.8287 0.4981
C6 C 0.84335(11) 0.90066(8) 0.55068(4)
C7 C 0.75595(11) 0.92052(8) 0.58425(4)
C8 C 0.62357(11) 0.88595(8) 0.58175(4)
C9 C 0.58066(12) 0.82783(8) 0.61473(4)
H5 H 0.6376 0.8095 0.6396
C10 C 0.45554(13) 0.79644(9) 0.61159(5)
H6 H 0.4272 0.7578 0.6345
C11 C 0.37245(12) 0.82160(9) 0.57503(5)
H7 H 0.2868 0.8008 0.5730
C12 C 0.41460(12) 0.87715(9) 0.54142(5)
H8 H 0.3580 0.8937 0.5161
C13 C 0.53918(12) 0.90872(8) 0.54464(4)
H9 H 0.5673 0.9463 0.5213
C14 C 1.05047(13) 1.03236(10) 0.63092(5)
H10 H 1.1260 0.9936 0.6351
H11 H 1.0243 1.0508 0.6608
H12 H 1.0707 1.0860 0.6134
C15 C 0.82111(11) 0.97252(8) 0.61761(4)
C16 C 0.72913(12) 0.94594(8) 0.70759(4)
H13 H 0.6462 0.9157 0.6983
C17 C 0.71885(13) 0.98730(9) 0.75511(4)
H14 H 0.8010 1.0157 0.7658
H15 H 0.6523 1.0347 0.7535
C18 C 0.68513(13) 0.91395(10) 0.78868(4)
H16 H 0.6793 0.9412 0.8192
H17 H 0.6007 0.8882 0.7788
C19 C 0.78433(15) 0.83855(10) 0.79195(5)
H18 H 0.7560 0.7899 0.8119
H19 H 0.8663 0.8625 0.8057
C20 C 0.80361(16) 0.79988(10) 0.74486(5)
H20 H 0.8745 0.7558 0.7475
H21 H 0.7254 0.7674 0.7333
C21 C 0.83350(14) 0.87325(10) 0.71083(4)
H22 H 0.8403 0.8458 0.6805
H23 H 0.9165 0.9014 0.7205
C22 C 0.60340(12) 1.07024(8) 0.64000(4)
H24 H 0.5588 1.0167 0.6255
C23 C 0.62169(13) 1.13921(9) 0.60198(4)
H25 H 0.6656 1.1934 0.6151
H26 H 0.6759 1.1125 0.5795
C24 C 0.49344(14) 1.16664(10) 0.57821(5)
H27 H 0.5071 1.2131 0.5549
H28 H 0.4534 1.1135 0.5625
C25 C 0.40456(14) 1.20383(10) 0.61205(5)
H29 H 0.4397 1.2611 0.6250
H30 H 0.3203 1.2169 0.5961
C26 C 0.38828(13) 1.13695(9) 0.65038(5)
H31 H 0.3439 1.0825 0.6378
H32 H 0.3345 1.1645 0.6728
C27 C 0.51632(12) 1.10952(9) 0.67440(4)
H33 H 0.5025 1.0640 0.6981
H34 H 0.5576 1.1629 0.6895
O2 O 0.5000 0.70016(16) 0.7500
H35 H 0.4832 0.6613 0.7267
H35A H 0.5168 0.6613 0.7733
H36? H 0.5547 0.6766 0.7722
loop_
_geom_bond_atom_site_label_1
_geom_bond_atom_site_label_2
_geom_bond_site_symmetry_1
_geom_bond_site_symmetry_2
P1 O1 1_555 1_555
N1 C1 1_555 1_555
C1 C2 1_555 1_555
C2 H1 1_555 1_555
C3 C2 1_555 1_555
H2 C3 1_555 1_555
C4 C3 1_555 1_555
H3 C4 1_555 1_555
C5 C4 1_555 1_555
H4 C5 1_555 1_555
C6 C1 1_555 1_555
C7 C6 1_555 1_555
C8 C7 1_555 1_555
C9 C8 1_555 1_555
H5 C9 1_555 1_555
C10 C9 1_555 1_555
H6 C10 1_555 1_555
C11 C10 1_555 1_555
H7 C11 1_555 1_555
C12 C11 1_555 1_555
H8 C12 1_555 1_555
C13 C8 1_555 1_555
H9 C13 1_555 1_555
C14 N1 1_555 1_555
H10 C14 1_555 1_555
H11 C14 1_555 1_555
H12 C14 1_555 1_555
C15 P1 1_555 1_555
C16 P1 1_555 1_555
H13 C16 1_555 1_555
C17 C16 1_555 1_555
H14 C17 1_555 1_555
H15 C17 1_555 1_555
C18 C17 1_555 1_555
H16 C18 1_555 1_555
H17 C18 1_555 1_555
C19 C18 1_555 1_555
H18 C19 1_555 1_555
H19 C19 1_555 1_555
C20 C19 1_555 1_555
H20 C20 1_555 1_555
H21 C20 1_555 1_555
C21 C16 1_555 1_555
H22 C21 1_555 1_555
H23 C21 1_555 1_555
C22 P1 1_555 1_555
H24 C22 1_555 1_555
C23 C22 1_555 1_555
H25 C23 1_555 1_555
H26 C23 1_555 1_555
C24 C23 1_555 1_555
H27 C24 1_555 1_555
H28 C24 1_555 1_555
C25 C24 1_555 1_555
H29 C25 1_555 1_555
H30 C25 1_555 1_555
C26 C25 1_555 1_555
H31 C26 1_555 1_555
H32 C26 1_555 1_555
C27 C22 1_555 1_555
H33 C27 1_555 1_555
H34 C27 1_555 1_555
O2 H35 1_555 1_555
H35A O2 1_555 1_555
N1 C15 1_555 1_555
C5 C6 1_555 1_555
C7 C15 1_555 1_555
C12 C13 1_555 1_555
C20 C21 1_555 1_555
C26 C27 1_555 1_555

#END
