
#######################################################################
#
#                 Cambridge Crystallographic Data Centre
#                                CCDC 
#
#######################################################################
#
# If this CIF has been generated from an entry in the Cambridge 
# Structural Database, then it will include bibliographic, chemical, 
# crystal, experimental, refinement or atomic coordinate data resulting 
# from the CCDC's data processing and validation procedures.
#
#######################################################################

data_ADILAB
_chemical_formula_moiety         'C15 H16 Cl1 N1 O1'
_chemical_name_systematic        
3-(4-Chlorophenyl)-1-(3,4-dimethyl-2,5-dihydro-1H-pyrrol-1-yl)prop-2-enone
_symmetry_cell_setting           monoclinic
_symmetry_space_group_name_H-M   'P 21/n'
_symmetry_Int_Tables_number      14
_space_group_name_Hall           '-P 2yn'
loop_
_symmetry_equiv_pos_site_id
_symmetry_equiv_pos_as_xyz
1 x,y,z
2 1/2-x,1/2+y,1/2-z
3 -x,-y,-z
4 1/2+x,1/2-y,1/2+z
_cell_length_a                   8.8360(18)
_cell_length_b                   15.394(3)
_cell_length_c                   9.988(2)
_cell_angle_alpha                90
_cell_angle_beta                 94.66(3)
_cell_angle_gamma                90
_cell_volume                     1354.09
_exptl_crystal_colour            colorless
_exptl_crystal_description       block
_cell_formula_units_Z            4
_exptl_crystal_recrystallization_method 'ethyl acetate'
loop_
_atom_site_label
_atom_site_type_symbol
_atom_site_fract_x
_atom_site_fract_y
_atom_site_fract_z
Cl1 Cl 0.25386(13) 0.62246(8) -0.04379(12)
O1 O 0.9147(4) 0.60183(18) 0.6639(3)
N1 N 0.9151(4) 0.4559(2) 0.6723(3)
C1 C 0.9326(5) 0.2167(3) 0.7319(5)
H1 H 0.9938 0.1909 0.8053
H2 H 0.9634 0.1944 0.6485
H3 H 0.8278 0.2027 0.7397
C2 C 1.1340(5) 0.3322(3) 0.9449(4)
H4 H 1.1380 0.2699 0.9477
H5 H 1.0927 0.3535 1.0246
H6 H 1.2345 0.3549 0.9399
C3 C 0.9527(5) 0.3129(3) 0.7354(4)
C4 C 0.8711(5) 0.3683(2) 0.6296(4)
H7 H 0.9040 0.3554 0.5414
H8 H 0.7621 0.3604 0.6278
C5 C 1.0205(5) 0.4549(3) 0.7927(4)
H9 H 0.9795 0.4865 0.8656
H10 H 1.1177 0.4799 0.7751
C6 C 1.0357(5) 0.3605(3) 0.8246(4)
C7 C 0.8676(5) 0.5321(3) 0.6172(4)
C8 C 0.7552(5) 0.5267(3) 0.4986(4)
H11 H 0.7248 0.4725 0.4653
C9 C 0.6979(5) 0.5971(3) 0.4397(4)
H12 H 0.7321 0.6498 0.4763
C10 C 0.5861(4) 0.6020(2) 0.3230(4)
C11 C 0.5202(5) 0.5281(3) 0.2615(4)
H13 H 0.5460 0.4735 0.2962
C12 C 0.4180(5) 0.5346(3) 0.1507(4)
H14 H 0.3736 0.4850 0.1118
C13 C 0.3820(4) 0.6146(3) 0.0981(4)
C14 C 0.4439(5) 0.6887(3) 0.1547(4)
H15 H 0.4176 0.7427 0.1183
C15 C 0.5459(5) 0.6825(3) 0.2666(4)
H16 H 0.5885 0.7328 0.3050
loop_
_geom_bond_atom_site_label_1
_geom_bond_atom_site_label_2
_geom_bond_site_symmetry_1
_geom_bond_site_symmetry_2
Cl1 C13 1_555 1_555
O1 C7 1_555 1_555
N1 C4 1_555 1_555
C1 H1 1_555 1_555
H2 C1 1_555 1_555
H3 C1 1_555 1_555
C2 H4 1_555 1_555
H5 C2 1_555 1_555
H6 C2 1_555 1_555
C3 C1 1_555 1_555
C4 C3 1_555 1_555
H7 C4 1_555 1_555
H8 C4 1_555 1_555
C5 N1 1_555 1_555
H9 C5 1_555 1_555
H10 C5 1_555 1_555
C6 C2 1_555 1_555
C7 N1 1_555 1_555
C8 C7 1_555 1_555
H11 C8 1_555 1_555
C9 C8 1_555 1_555
H12 C9 1_555 1_555
C10 C9 1_555 1_555
C11 C10 1_555 1_555
H13 C11 1_555 1_555
C12 C11 1_555 1_555
H14 C12 1_555 1_555
C13 C12 1_555 1_555
C14 C13 1_555 1_555
H15 C14 1_555 1_555
C15 C10 1_555 1_555
H16 C15 1_555 1_555
C3 C6 1_555 1_555
C5 C6 1_555 1_555
C14 C15 1_555 1_555

#END
