
#######################################################################
#
#                 Cambridge Crystallographic Data Centre
#                                CCDC 
#
#######################################################################
#
# If this CIF has been generated from an entry in the Cambridge 
# Structural Database, then it will include bibliographic, chemical, 
# crystal, experimental, refinement or atomic coordinate data resulting 
# from the CCDC's data processing and validation procedures.
#
#######################################################################

data_ADINEJ
_chemical_formula_moiety         'C28 H62 Mg3 N4 O4'
_chemical_name_systematic        
tetrakis(\m-1-(dimethylamino)-2-methylpropan-2-olato)-diethenyl-tri-magnesium(ii)
_symmetry_cell_setting           monoclinic
_symmetry_space_group_name_H-M   'C 2/c'
_symmetry_Int_Tables_number      15
_space_group_name_Hall           '-C 2yn'
loop_
_symmetry_equiv_pos_site_id
_symmetry_equiv_pos_as_xyz
1 x,y,z
2 -x,y,1/2-z
3 1/2+x,1/2+y,z
4 1/2-x,1/2+y,1/2-z
5 -x,-y,-z
6 x,-y,1/2+z
7 1/2-x,1/2-y,-z
8 1/2+x,1/2-y,1/2+z
_cell_length_a                   14.1091(6)
_cell_length_b                   16.9620(9)
_cell_length_c                   15.0222(9)
_cell_angle_alpha                90
_cell_angle_beta                 99.053(3)
_cell_angle_gamma                90
_cell_volume                     3550.31
_exptl_crystal_colour            silver
_exptl_crystal_description       Block
_cell_formula_units_Z            4
_chemical_properties_physical    
'Air-sensitive, Moisture-sensitive, Hygroscopic'
loop_
_atom_site_label
_atom_site_type_symbol
_atom_site_fract_x
_atom_site_fract_y
_atom_site_fract_z
Mg1 Mg 0.0000 0.16530(6) 0.2500
Mg2 Mg -0.21044(5) 0.14730(4) 0.25163(5)
O1 O -0.09609(10) 0.21267(8) 0.31141(10)
C1 C -0.11650(14) 0.27206(12) 0.37089(14)
N1 N -0.27529(12) 0.26711(11) 0.26402(12)
C2 C -0.22685(15) 0.28481(13) 0.35667(15)
H1 H -0.2547 0.2509 0.3996
H2 H -0.2401 0.3403 0.3710
C3 C -0.06098(17) 0.34788(13) 0.35770(17)
H3 H 0.0080 0.3366 0.3670
H4 H -0.0745 0.3877 0.4013
H5 H -0.0809 0.3678 0.2964
C4 C -0.08677(16) 0.24567(14) 0.46888(15)
H6 H -0.0173 0.2369 0.4807
H7 H -0.1201 0.1966 0.4791
H8 H -0.1039 0.2867 0.5095
C5 C -0.37994(16) 0.26447(15) 0.26388(17)
H9 H -0.4041 0.3181 0.2695
H10 H -0.3935 0.2325 0.3148
H11 H -0.4116 0.2410 0.2073
C6 C -0.25336(17) 0.32704(14) 0.19973(16)
H12 H -0.2850 0.3767 0.2109
H13 H -0.2766 0.3092 0.1381
H14 H -0.1838 0.3352 0.2072
O2 O -0.10829(10) 0.10924(8) 0.18375(9)
N2 N -0.29802(12) 0.10640(10) 0.11741(12)
C7 C -0.12936(15) 0.05415(12) 0.11348(14)
C8 C -0.23882(15) 0.03757(13) 0.10023(15)
H15 H -0.2597 0.0193 0.0376
H16 H -0.2509 -0.0058 0.1411
C9 C -0.07846(16) -0.02433(13) 0.13986(16)
H17 H -0.0088 -0.0162 0.1494
H18 H -0.0960 -0.0628 0.0915
H19 H -0.0980 -0.0441 0.1955
C10 C -0.09397(16) 0.08397(14) 0.02835(15)
H20 H -0.0246 0.0934 0.0414
H21 H -0.1270 0.1332 0.0086
H22 H -0.1076 0.0444 -0.0194
C11 C -0.30105(17) 0.16559(14) 0.04546(16)
H23 H -0.3392 0.1453 -0.0100
H24 H -0.2356 0.1767 0.0347
H25 H -0.3303 0.2142 0.0637
C12 C -0.39691(15) 0.07789(15) 0.11872(17)
H26 H -0.4261 0.0624 0.0577
H27 H -0.4350 0.1201 0.1403
H28 H -0.3951 0.0323 0.1591
C13 C -0.26700(16) 0.07607(14) 0.35029(16)
H29 H -0.2188 0.0580 0.3972
C14 C -0.35434(17) 0.05203(16) 0.35980(17)
H30 H -0.4080 0.0667 0.3166
H31 H -0.3632 0.0201 0.4098
Mg2A Mg 0.21044(5) 0.14730(4) 0.24837(5)
O1A O 0.09609(10) 0.21267(8) 0.18859(10)
C1A C 0.11650(14) 0.27206(12) 0.12911(14)
N1A N 0.27529(12) 0.26711(11) 0.23598(12)
C2A C 0.22685(15) 0.28481(13) 0.14333(15)
H1A H 0.2547 0.2509 0.1004
H2A H 0.2401 0.3403 0.1290
C3A C 0.06098(17) 0.34788(13) 0.14230(17)
H3A H -0.0080 0.3366 0.1330
H4A H 0.0745 0.3877 0.0987
H5A H 0.0809 0.3678 0.2036
C4A C 0.08677(16) 0.24567(14) 0.03112(15)
H6A H 0.0173 0.2369 0.0193
H7A H 0.1201 0.1966 0.0209
H8A H 0.1039 0.2867 -0.0095
C5A C 0.37994(16) 0.26447(15) 0.23612(17)
H9A H 0.4041 0.3181 0.2305
H10A H 0.3935 0.2325 0.1852
H11A H 0.4116 0.2410 0.2927
C6A C 0.25336(17) 0.32704(14) 0.30027(16)
H12A H 0.2850 0.3767 0.2891
H13A H 0.2766 0.3092 0.3619
H14A H 0.1838 0.3352 0.2928
O2A O 0.10829(10) 0.10924(8) 0.31625(9)
N2A N 0.29802(12) 0.10640(10) 0.38259(12)
C7A C 0.12936(15) 0.05415(12) 0.38652(14)
C8A C 0.23882(15) 0.03757(13) 0.39977(15)
H15A H 0.2597 0.0193 0.4624
H16A H 0.2509 -0.0058 0.3589
C9A C 0.07846(16) -0.02433(13) 0.36014(16)
H17A H 0.0088 -0.0162 0.3506
H18A H 0.0960 -0.0628 0.4085
H19A H 0.0980 -0.0441 0.3045
C10A C 0.09397(16) 0.08397(14) 0.47165(15)
H20A H 0.0246 0.0934 0.4586
H21A H 0.1270 0.1332 0.4914
H22A H 0.1076 0.0444 0.5194
C11A C 0.30105(17) 0.16559(14) 0.45454(16)
H23A H 0.3392 0.1453 0.5100
H24A H 0.2356 0.1767 0.4653
H25A H 0.3303 0.2142 0.4363
C12A C 0.39691(15) 0.07789(15) 0.38128(17)
H26A H 0.4261 0.0624 0.4423
H27A H 0.4350 0.1201 0.3597
H28A H 0.3951 0.0323 0.3409
C13A C 0.26700(16) 0.07607(14) 0.14971(16)
H29A H 0.2188 0.0580 0.1028
C14A C 0.35434(17) 0.05203(16) 0.14020(17)
H30A H 0.4080 0.0667 0.1834
H31A H 0.3632 0.0201 0.0902
loop_
_geom_bond_atom_site_label_1
_geom_bond_atom_site_label_2
_geom_bond_site_symmetry_1
_geom_bond_site_symmetry_2
Mg1 O1 1_555 1_555
Mg2 O1 1_555 1_555
O1 C1 1_555 1_555
C1 C2 1_555 1_555
N1 Mg2 1_555 1_555
C2 N1 1_555 1_555
H1 C2 1_555 1_555
H2 C2 1_555 1_555
C3 C1 1_555 1_555
H3 C3 1_555 1_555
H4 C3 1_555 1_555
H5 C3 1_555 1_555
C4 C1 1_555 1_555
H6 C4 1_555 1_555
H7 C4 1_555 1_555
H8 C4 1_555 1_555
C5 N1 1_555 1_555
H9 C5 1_555 1_555
H10 C5 1_555 1_555
H11 C5 1_555 1_555
C6 N1 1_555 1_555
H12 C6 1_555 1_555
H13 C6 1_555 1_555
H14 C6 1_555 1_555
O2 Mg1 1_555 1_555
N2 Mg2 1_555 1_555
C7 O2 1_555 1_555
C8 N2 1_555 1_555
H15 C8 1_555 1_555
H16 C8 1_555 1_555
C9 C7 1_555 1_555
H17 C9 1_555 1_555
H18 C9 1_555 1_555
H19 C9 1_555 1_555
C10 C7 1_555 1_555
H20 C10 1_555 1_555
H21 C10 1_555 1_555
H22 C10 1_555 1_555
C11 N2 1_555 1_555
H23 C11 1_555 1_555
H24 C11 1_555 1_555
H25 C11 1_555 1_555
C12 N2 1_555 1_555
H26 C12 1_555 1_555
H27 C12 1_555 1_555
H28 C12 1_555 1_555
C13 Mg2 1_555 1_555
H29 C13 1_555 1_555
C14 C13 1_555 1_555
H30 C14 1_555 1_555
H31 C14 1_555 1_555
Mg2A O1A 1_555 1_555
O1A Mg1 1_555 1_555
C1A O1A 1_555 1_555
N1A Mg2A 1_555 1_555
C2A C1A 1_555 1_555
H1A C2A 1_555 1_555
H2A C2A 1_555 1_555
C3A C1A 1_555 1_555
H3A C3A 1_555 1_555
H4A C3A 1_555 1_555
H5A C3A 1_555 1_555
C4A C1A 1_555 1_555
H6A C4A 1_555 1_555
H7A C4A 1_555 1_555
H8A C4A 1_555 1_555
C5A N1A 1_555 1_555
H9A C5A 1_555 1_555
H10A C5A 1_555 1_555
H11A C5A 1_555 1_555
C6A N1A 1_555 1_555
H12A C6A 1_555 1_555
H13A C6A 1_555 1_555
H14A C6A 1_555 1_555
O2A Mg1 1_555 1_555
N2A Mg2A 1_555 1_555
C7A O2A 1_555 1_555
C8A N2A 1_555 1_555
H15A C8A 1_555 1_555
H16A C8A 1_555 1_555
C9A C7A 1_555 1_555
H17A C9A 1_555 1_555
H18A C9A 1_555 1_555
H19A C9A 1_555 1_555
C10A C7A 1_555 1_555
H20A C10A 1_555 1_555
H21A C10A 1_555 1_555
H22A C10A 1_555 1_555
C11A N2A 1_555 1_555
H23A C11A 1_555 1_555
H24A C11A 1_555 1_555
H25A C11A 1_555 1_555
C12A N2A 1_555 1_555
H26A C12A 1_555 1_555
H27A C12A 1_555 1_555
H28A C12A 1_555 1_555
C13A Mg2A 1_555 1_555
H29A C13A 1_555 1_555
C14A C13A 1_555 1_555
H30A C14A 1_555 1_555
H31A C14A 1_555 1_555
Mg2 O2 1_555 1_555
C7 C8 1_555 1_555
Mg2A O2A 1_555 1_555
N1A C2A 1_555 1_555
C7A C8A 1_555 1_555

#END
