
#######################################################################
#
#                 Cambridge Crystallographic Data Centre
#                                CCDC 
#
#######################################################################
#
# If this CIF has been generated from an entry in the Cambridge 
# Structural Database, then it will include bibliographic, chemical, 
# crystal, experimental, refinement or atomic coordinate data resulting 
# from the CCDC's data processing and validation procedures.
#
#######################################################################

data_ADIPOU
_chemical_formula_moiety         'C21 H24 O4'
_chemical_name_systematic        'bis(3-phenylpropyl)malonic acid'
_symmetry_cell_setting           orthorhombic
_symmetry_space_group_name_H-M   'P b c n'
_symmetry_Int_Tables_number      60
_space_group_name_Hall           '-P 2n 2ab'
loop_
_symmetry_equiv_pos_site_id
_symmetry_equiv_pos_as_xyz
1 x,y,z
2 1/2-x,1/2-y,1/2+z
3 1/2+x,1/2-y,-z
4 -x,y,1/2-z
5 -x,-y,-z
6 1/2+x,1/2+y,1/2-z
7 1/2-x,1/2+y,z
8 x,-y,1/2+z
_cell_length_a                   17.916(4)
_cell_length_b                   9.435(2)
_cell_length_c                   10.668(3)
_cell_angle_alpha                90
_cell_angle_beta                 90
_cell_angle_gamma                90
_cell_volume                     1803.29
_cell_formula_units_Z            4
loop_
_atom_site_label
_atom_site_type_symbol
_atom_site_fract_x
_atom_site_fract_y
_atom_site_fract_z
C1 C 0.00267(13) 0.1377(2) 0.8636(2)
C2 C 0.0000 0.2353(3) 0.7500
C3 C 0.07150(12) 0.3264(2) 0.7396(2)
H1 H 0.0776 0.3801 0.8165
H2 H 0.1142 0.2640 0.7314
C4 C 0.07073(14) 0.4289(2) 0.6294(2)
H3 H 0.0302 0.4958 0.6408
H4 H 0.0609 0.3761 0.5531
C5 C 0.14347(15) 0.5109(3) 0.6137(2)
H5 H 0.1839 0.4434 0.6043
H6 H 0.1406 0.5654 0.5368
C6 C 0.16254(14) 0.6101(2) 0.7196(2)
C7 C 0.22897(14) 0.5989(3) 0.7846(3)
H7 H 0.2633 0.5295 0.7619
C8 C 0.24527(17) 0.6895(3) 0.8830(3)
H8 H 0.2901 0.6805 0.9263
C9 C 0.1959(2) 0.7907(3) 0.9160(3)
H9 H 0.2066 0.8508 0.9827
C10 C 0.13084(18) 0.8056(3) 0.8525(3)
H10 H 0.0973 0.8763 0.8755
C11 C 0.11422(13) 0.7167(3) 0.7543(2)
H11 H 0.0697 0.7287 0.7107
O1 O 0.04875(8) 0.14642(14) 0.94779(14)
O2 O -0.05093(9) 0.04325(16) 0.86211(14)
H12 H -0.0461 -0.0105 0.9220
C1C C -0.00267(13) 0.1377(2) 0.6364(2)
C3C C -0.07150(12) 0.3264(2) 0.7604(2)
H1C H -0.0776 0.3801 0.6835
H2C H -0.1142 0.2640 0.7686
C4C C -0.07073(14) 0.4289(2) 0.8706(2)
H3C H -0.0302 0.4958 0.8592
H4C H -0.0609 0.3761 0.9469
C5C C -0.14347(15) 0.5109(3) 0.8863(2)
H5C H -0.1839 0.4434 0.8957
H6C H -0.1406 0.5654 0.9632
C6C C -0.16254(14) 0.6101(2) 0.7804(2)
C7C C -0.22897(14) 0.5989(3) 0.7154(3)
H7C H -0.2633 0.5295 0.7381
C8C C -0.24527(17) 0.6895(3) 0.6170(3)
H8C H -0.2901 0.6805 0.5737
C9C C -0.1959(2) 0.7907(3) 0.5840(3)
H9C H -0.2066 0.8508 0.5173
C10C C -0.13084(18) 0.8056(3) 0.6475(3)
H10C H -0.0973 0.8763 0.6245
C11C C -0.11422(13) 0.7167(3) 0.7457(2)
H11C H -0.0697 0.7287 0.7893
O1C O -0.04875(8) 0.14642(14) 0.55221(14)
O2C O 0.05093(9) 0.04325(16) 0.63789(14)
H12C H 0.0461 -0.0105 0.5780
loop_
_geom_bond_atom_site_label_1
_geom_bond_atom_site_label_2
_geom_bond_site_symmetry_1
_geom_bond_site_symmetry_2
C1 C2 1_555 1_555
C2 C3 1_555 1_555
C3 H1 1_555 1_555
H2 C3 1_555 1_555
C4 C3 1_555 1_555
H3 C4 1_555 1_555
H4 C4 1_555 1_555
C5 C4 1_555 1_555
H5 C5 1_555 1_555
H6 C5 1_555 1_555
C6 C5 1_555 1_555
C7 C6 1_555 1_555
H7 C7 1_555 1_555
C8 C7 1_555 1_555
H8 C8 1_555 1_555
C9 C8 1_555 1_555
H9 C9 1_555 1_555
C10 C9 1_555 1_555
H10 C10 1_555 1_555
C11 C6 1_555 1_555
H11 C11 1_555 1_555
O1 C1 1_555 1_555
O2 C1 1_555 1_555
H12 O2 1_555 1_555
C1C C2 1_555 1_555
C3C C2 1_555 1_555
H1C C3C 1_555 1_555
H2C C3C 1_555 1_555
C4C C3C 1_555 1_555
H3C C4C 1_555 1_555
H4C C4C 1_555 1_555
C5C C4C 1_555 1_555
H5C C5C 1_555 1_555
H6C C5C 1_555 1_555
C6C C5C 1_555 1_555
C7C C6C 1_555 1_555
H7C C7C 1_555 1_555
C8C C7C 1_555 1_555
H8C C8C 1_555 1_555
C9C C8C 1_555 1_555
H9C C9C 1_555 1_555
C10C C9C 1_555 1_555
H10C C10C 1_555 1_555
C11C C6C 1_555 1_555
H11C C11C 1_555 1_555
O1C C1C 1_555 1_555
O2C C1C 1_555 1_555
H12C O2C 1_555 1_555
C10 C11 1_555 1_555
C10C C11C 1_555 1_555

#END
