
#######################################################################
#
#                 Cambridge Crystallographic Data Centre
#                                CCDC 
#
#######################################################################
#
# If this CIF has been generated from an entry in the Cambridge 
# Structural Database, then it will include bibliographic, chemical, 
# crystal, experimental, refinement or atomic coordinate data resulting 
# from the CCDC's data processing and validation procedures.
#
#######################################################################

data_ADIPAC19
_chemical_formula_moiety         'C6 H10 O4'
_chemical_name_systematic        'Adipic acid'
_symmetry_cell_setting           monoclinic
_symmetry_space_group_name_H-M   'P 21/c'
_symmetry_Int_Tables_number      14
_space_group_name_Hall           '-P 2ybc'
loop_
_symmetry_equiv_pos_site_id
_symmetry_equiv_pos_as_xyz
1 x,y,z
2 -x,1/2+y,1/2-z
3 -x,-y,-z
4 x,1/2-y,1/2+z
_cell_length_a                   7.1627(10)
_cell_length_b                   5.1358(7)
_cell_length_c                   9.9772(18)
_cell_angle_alpha                90
_cell_angle_beta                 110.810(9)
_cell_angle_gamma                90
_cell_volume                     343.08
_exptl_crystal_colour            white
_exptl_crystal_description       crystal
_cell_formula_units_Z            2
_exptl_crystal_recrystallization_method ethanol
loop_
_atom_site_label
_atom_site_type_symbol
_atom_site_fract_x
_atom_site_fract_y
_atom_site_fract_z
C1 C 0.3297(4) 0.9097(5) 0.8088(3)
C2 C 0.2092(4) 0.8365(6) 0.6573(3)
H1 H 0.1434 0.6672 0.6576
H2 H 0.3008 0.8131 0.6037
C3 C 0.0509(4) 1.0346(5) 0.5790(3)
H3 H 0.1134 1.2086 0.5869
H4 H -0.0507 1.0434 0.6250
O1 O 0.4778(3) 0.7483(4) 0.8697(2)
H5 H 0.5457 0.8030 0.9520
O2 O 0.2937(3) 1.0982(4) 0.8693(2)
C1B C -0.3297(4) 1.0903(5) 0.1912(3)
C2B C -0.2092(4) 1.1635(6) 0.3427(3)
H1B H -0.1434 1.3328 0.3424
H2B H -0.3008 1.1869 0.3963
C3B C -0.0509(4) 0.9654(5) 0.4210(3)
H3B H -0.1134 0.7914 0.4131
H4B H 0.0507 0.9566 0.3750
O1B O -0.4778(3) 1.2517(4) 0.1303(2)
H5B H -0.5457 1.1970 0.0480
O2B O -0.2937(3) 0.9018(4) 0.1307(2)
loop_
_geom_bond_atom_site_label_1
_geom_bond_atom_site_label_2
_geom_bond_site_symmetry_1
_geom_bond_site_symmetry_2
C1 C2 1_555 1_555
C2 H1 1_555 1_555
H2 C2 1_555 1_555
C3 C2 1_555 1_555
H3 C3 1_555 1_555
H4 C3 1_555 1_555
O1 C1 1_555 1_555
H5 O1 1_555 1_555
O2 C1 1_555 1_555
C1B C2B 1_555 1_555
C2B H1B 1_555 1_555
H2B C2B 1_555 1_555
C3B C3 1_555 1_555
H3B C3B 1_555 1_555
H4B C3B 1_555 1_555
O1B C1B 1_555 1_555
H5B O1B 1_555 1_555
O2B C1B 1_555 1_555
C2B C3B 1_555 1_555

#END
