
#######################################################################
#
#                 Cambridge Crystallographic Data Centre
#                                CCDC 
#
#######################################################################
#
# If this CIF has been generated from an entry in the Cambridge 
# Structural Database, then it will include bibliographic, chemical, 
# crystal, experimental, refinement or atomic coordinate data resulting 
# from the CCDC's data processing and validation procedures.
#
#######################################################################

data_ADISIQ
_chemical_formula_moiety         'C21 H14 O2'
_chemical_name_systematic        Spiro(benzo(c)chromene-6,2'-chromene)
_symmetry_cell_setting           orthorhombic
_symmetry_space_group_name_H-M   'P 21 21 21'
_symmetry_Int_Tables_number      19
_space_group_name_Hall           'P 2ac 2ab'
loop_
_symmetry_equiv_pos_site_id
_symmetry_equiv_pos_as_xyz
1 x,y,z
2 1/2-x,-y,1/2+z
3 -x,1/2+y,1/2-z
4 1/2+x,1/2-y,-z
_cell_length_a                   5.8041(13)
_cell_length_b                   8.9094(19)
_cell_length_c                   28.773(6)
_cell_angle_alpha                90
_cell_angle_beta                 90
_cell_angle_gamma                90
_cell_volume                     1487.88
_exptl_crystal_colour            'light yellow'
_chemical_melting_point          158-159deg.C
_cell_formula_units_Z            4
loop_
_atom_site_label
_atom_site_type_symbol
_atom_site_fract_x
_atom_site_fract_y
_atom_site_fract_z
O1 O 0.3996(2) 0.70825(15) 0.12162(5)
O2 O 0.1748(2) 0.52682(15) 0.15663(4)
C1 C 0.2359(3) 0.8177(2) 0.11450(7)
C2 C 0.2706(4) 0.9542(2) 0.13641(8)
H1 H 0.3985 0.9690 0.1553
C3 C 0.1136(5) 1.0671(2) 0.12979(8)
H2 H 0.1354 1.1594 0.1442
C4 C -0.0744(5) 1.0450(2) 0.10217(9)
H3 H -0.1807 1.1220 0.0982
C5 C -0.1078(4) 0.9099(2) 0.08021(8)
H4 H -0.2372 0.8959 0.0617
C6 C 0.0503(3) 0.7938(2) 0.08547(6)
C7 C 0.0358(3) 0.65019(19) 0.06087(6)
C8 C -0.1058(4) 0.6261(2) 0.02249(7)
H5 H -0.1995 0.7034 0.0118
C9 C -0.1091(4) 0.4895(2) 0.00022(7)
H6 H -0.2058 0.4746 -0.0251
C10 C 0.0302(4) 0.3753(3) 0.01542(8)
H7 H 0.0289 0.2830 0.0003
C11 C 0.1722(4) 0.3976(2) 0.05314(7)
H8 H 0.2654 0.3196 0.0636
C12 C 0.1778(3) 0.53404(19) 0.07564(6)
C13 C 0.3239(3) 0.5554(2) 0.11805(7)
C14 C 0.5414(3) 0.4656(2) 0.11916(7)
H9 H 0.6402 0.4698 0.0938
C15 C 0.5977(3) 0.3811(2) 0.15465(7)
H10 H 0.7358 0.3282 0.1539
C16 C 0.4514(3) 0.3682(2) 0.19476(7)
C17 C 0.5032(4) 0.2804(3) 0.23332(8)
H11 H 0.6398 0.2259 0.2340
C18 C 0.3552(5) 0.2735(3) 0.27009(9)
H12 H 0.3915 0.2142 0.2957
C19 C 0.1531(5) 0.3536(3) 0.26958(8)
H13 H 0.0541 0.3490 0.2949
C20 C 0.0959(4) 0.4410(2) 0.23171(7)
H14 H -0.0411 0.4952 0.2313
C21 C 0.2451(3) 0.44666(19) 0.19461(6)
loop_
_geom_bond_atom_site_label_1
_geom_bond_atom_site_label_2
_geom_bond_site_symmetry_1
_geom_bond_site_symmetry_2
O1 C1 1_555 1_555
O2 C13 1_555 1_555
C1 C2 1_555 1_555
C2 H1 1_555 1_555
C3 C2 1_555 1_555
H2 C3 1_555 1_555
C4 C3 1_555 1_555
H3 C4 1_555 1_555
C5 C4 1_555 1_555
H4 C5 1_555 1_555
C6 C1 1_555 1_555
C7 C6 1_555 1_555
C8 C7 1_555 1_555
H5 C8 1_555 1_555
C9 C8 1_555 1_555
H6 C9 1_555 1_555
C10 C9 1_555 1_555
H7 C10 1_555 1_555
C11 C10 1_555 1_555
H8 C11 1_555 1_555
C12 C7 1_555 1_555
C13 O1 1_555 1_555
C14 C13 1_555 1_555
H9 C14 1_555 1_555
C15 C14 1_555 1_555
H10 C15 1_555 1_555
C16 C15 1_555 1_555
C17 C16 1_555 1_555
H11 C17 1_555 1_555
C18 C17 1_555 1_555
H12 C18 1_555 1_555
C19 C18 1_555 1_555
H13 C19 1_555 1_555
C20 C19 1_555 1_555
H14 C20 1_555 1_555
C21 O2 1_555 1_555
C5 C6 1_555 1_555
C11 C12 1_555 1_555
C12 C13 1_555 1_555
C16 C21 1_555 1_555
C20 C21 1_555 1_555

#END
