
#######################################################################
#
#                 Cambridge Crystallographic Data Centre
#                                CCDC 
#
#######################################################################
#
# If this CIF has been generated from an entry in the Cambridge 
# Structural Database, then it will include bibliographic, chemical, 
# crystal, experimental, refinement or atomic coordinate data resulting 
# from the CCDC's data processing and validation procedures.
#
#######################################################################

data_ADISOW
_chemical_formula_moiety         'C29 H18 O2'
_chemical_name_systematic        
Spiro(benzo(f)naphtho(2,1-c)chromene-4,2'-chromene)
_symmetry_cell_setting           monoclinic
_symmetry_space_group_name_H-M   'P 21/c'
_symmetry_Int_Tables_number      14
_space_group_name_Hall           '-P 2ybc'
loop_
_symmetry_equiv_pos_site_id
_symmetry_equiv_pos_as_xyz
1 x,y,z
2 -x,1/2+y,1/2-z
3 -x,-y,-z
4 x,1/2-y,1/2+z
_cell_length_a                   13.548(2)
_cell_length_b                   7.6905(13)
_cell_length_c                   19.578(3)
_cell_angle_alpha                90
_cell_angle_beta                 92.908(3)
_cell_angle_gamma                90
_cell_volume                     2037.22
_exptl_crystal_colour            'light yellow'
_chemical_melting_point          231-232deg.C
_cell_formula_units_Z            4
loop_
_atom_site_label
_atom_site_type_symbol
_atom_site_fract_x
_atom_site_fract_y
_atom_site_fract_z
O1 O 0.32825(8) 0.08795(15) 0.24677(6)
O2 O 0.22992(8) 0.23704(15) 0.16546(6)
C1 C 0.34231(12) 0.2359(2) 0.28619(8)
C2 C 0.43857(12) 0.3002(3) 0.29305(9)
H1 H 0.4909 0.2372 0.2766
C3 C 0.45457(13) 0.4560(3) 0.32399(10)
H2 H 0.5189 0.4965 0.3313
C4 C 0.37520(13) 0.5579(3) 0.34537(8)
C5 C 0.38906(18) 0.7318(3) 0.36840(10)
H3 H 0.4528 0.7766 0.3734
C6 C 0.3120(2) 0.8330(3) 0.38319(10)
H4 H 0.3228 0.9463 0.3984
C7 C 0.21559(17) 0.7681(2) 0.37575(9)
H5 H 0.1625 0.8398 0.3847
C8 C 0.19870(14) 0.6001(2) 0.35552(9)
H6 H 0.1342 0.5588 0.3514
C9 C 0.27752(12) 0.4881(2) 0.34071(8)
C10 C 0.26330(11) 0.3140(2) 0.31566(8)
C11 C 0.16980(10) 0.2148(2) 0.31304(8)
C12 C 0.10147(11) 0.2123(2) 0.36688(9)
C13 C 0.12147(13) 0.2882(2) 0.43188(9)
H7 H 0.1818 0.3430 0.4412
C14 C 0.05392(15) 0.2823(3) 0.48108(11)
H8 H 0.0683 0.3340 0.5234
C15 C -0.03715(16) 0.1988(3) 0.46825(14)
H9 H -0.0841 0.1999 0.5013
C16 C -0.05704(14) 0.1168(3) 0.40812(13)
H10 H -0.1168 0.0586 0.4009
C17 C 0.01137(12) 0.1179(2) 0.35594(10)
C18 C -0.00597(13) 0.0235(3) 0.29518(11)
H11 H -0.0662 -0.0329 0.2871
C19 C 0.06382(13) 0.0131(2) 0.24799(10)
H12 H 0.0526 -0.0556 0.2093
C20 C 0.15283(12) 0.1056(2) 0.25729(8)
C21 C 0.23438(13) 0.0864(2) 0.20876(9)
C22 C 0.23539(15) -0.0779(2) 0.16769(11)
H13 H 0.2091 -0.1797 0.1849
C23 C 0.27373(15) -0.0780(3) 0.10681(11)
H14 H 0.2768 -0.1813 0.0823
C24 C 0.31090(13) 0.0808(3) 0.07798(9)
C25 C 0.36646(15) 0.0889(3) 0.02022(10)
H15 H 0.3812 -0.0130 -0.0027
C26 C 0.39971(16) 0.2448(4) -0.00339(11)
H16 H 0.4366 0.2480 -0.0422
C27 C 0.37867(14) 0.3972(3) 0.03017(11)
H17 H 0.4017 0.5027 0.0141
C28 C 0.32338(13) 0.3934(3) 0.08773(10)
H18 H 0.3091 0.4957 0.1106
C29 C 0.28988(12) 0.2363(2) 0.11061(8)
loop_
_geom_bond_atom_site_label_1
_geom_bond_atom_site_label_2
_geom_bond_site_symmetry_1
_geom_bond_site_symmetry_2
O1 C1 1_555 1_555
O2 C21 1_555 1_555
C1 C2 1_555 1_555
C2 H1 1_555 1_555
C3 C2 1_555 1_555
H2 C3 1_555 1_555
C4 C3 1_555 1_555
C5 C4 1_555 1_555
H3 C5 1_555 1_555
C6 C5 1_555 1_555
H4 C6 1_555 1_555
C7 C6 1_555 1_555
H5 C7 1_555 1_555
C8 C7 1_555 1_555
H6 C8 1_555 1_555
C9 C4 1_555 1_555
C10 C1 1_555 1_555
C11 C10 1_555 1_555
C12 C11 1_555 1_555
C13 C12 1_555 1_555
H7 C13 1_555 1_555
C14 C13 1_555 1_555
H8 C14 1_555 1_555
C15 C14 1_555 1_555
H9 C15 1_555 1_555
C16 C15 1_555 1_555
H10 C16 1_555 1_555
C17 C12 1_555 1_555
C18 C17 1_555 1_555
H11 C18 1_555 1_555
C19 C18 1_555 1_555
H12 C19 1_555 1_555
C20 C11 1_555 1_555
C21 O1 1_555 1_555
C22 C21 1_555 1_555
H13 C22 1_555 1_555
C23 C22 1_555 1_555
H14 C23 1_555 1_555
C24 C23 1_555 1_555
C25 C24 1_555 1_555
H15 C25 1_555 1_555
C26 C25 1_555 1_555
H16 C26 1_555 1_555
C27 C26 1_555 1_555
H17 C27 1_555 1_555
C28 C27 1_555 1_555
H18 C28 1_555 1_555
C29 O2 1_555 1_555
C8 C9 1_555 1_555
C9 C10 1_555 1_555
C16 C17 1_555 1_555
C19 C20 1_555 1_555
C20 C21 1_555 1_555
C24 C29 1_555 1_555
C28 C29 1_555 1_555

#END
