
#######################################################################
#
#                 Cambridge Crystallographic Data Centre
#                                CCDC 
#
#######################################################################
#
# If this CIF has been generated from an entry in the Cambridge 
# Structural Database, then it will include bibliographic, chemical, 
# crystal, experimental, refinement or atomic coordinate data resulting 
# from the CCDC's data processing and validation procedures.
#
#######################################################################

data_ADISAI
_chemical_formula_moiety         'C23 H21 N1 O1'
_chemical_name_systematic        
1',3',3'-Trimethyl-1',3'-dihydrospiro(benzo(c)chromene-6,2'-indole)
_symmetry_cell_setting           orthorhombic
_symmetry_space_group_name_H-M   'P 21 21 21'
_symmetry_Int_Tables_number      19
_space_group_name_Hall           'P 2ac 2ab'
loop_
_symmetry_equiv_pos_site_id
_symmetry_equiv_pos_as_xyz
1 x,y,z
2 1/2-x,-y,1/2+z
3 -x,1/2+y,1/2-z
4 1/2+x,1/2-y,-z
_cell_length_a                   7.1251(12)
_cell_length_b                   9.8071(16)
_cell_length_c                   25.221(4)
_cell_angle_alpha                90
_cell_angle_beta                 90
_cell_angle_gamma                90
_cell_volume                     1762.36
_exptl_crystal_colour            pink
_chemical_melting_point          234-235deg.C
_cell_formula_units_Z            4
loop_
_atom_site_label
_atom_site_type_symbol
_atom_site_fract_x
_atom_site_fract_y
_atom_site_fract_z
O1 O 0.55336(16) 0.53735(11) 0.14916(4)
N1 N 0.66676(19) 0.72672(13) 0.10531(5)
C1 C 0.4830(2) 0.40681(17) 0.15105(7)
C2 C 0.4363(3) 0.3558(2) 0.20067(8)
H1 H 0.4531 0.4088 0.2309
C3 C 0.3647(3) 0.2252(2) 0.20464(10)
H2 H 0.3318 0.1903 0.2376
C4 C 0.3419(3) 0.1468(2) 0.15970(10)
H3 H 0.2977 0.0579 0.1627
C5 C 0.3840(3) 0.19901(19) 0.11074(9)
H4 H 0.3655 0.1455 0.0807
C6 C 0.4543(2) 0.33152(17) 0.10508(7)
C7 C 0.4880(2) 0.39900(16) 0.05355(7)
C8 C 0.4147(3) 0.3505(2) 0.00549(9)
H5 H 0.3476 0.2692 0.0051
C9 C 0.4402(3) 0.4210(2) -0.04118(8)
H6 H 0.3913 0.3865 -0.0726
C10 C 0.5377(3) 0.5425(2) -0.04162(8)
H7 H 0.5547 0.5901 -0.0731
C11 C 0.6093(3) 0.5923(2) 0.00514(7)
H8 H 0.6751 0.6742 0.0049
C12 C 0.5857(2) 0.52300(17) 0.05285(6)
C13 C 0.6676(2) 0.57908(16) 0.10360(6)
C14 C 0.8801(2) 0.54339(17) 0.11531(6)
C15 C 0.9982(3) 0.55095(19) 0.06439(7)
H9 H 0.9785 0.6375 0.0475
H10 H 0.9611 0.4791 0.0407
H11 H 1.1286 0.5409 0.0731
C16 C 0.9092(3) 0.4048(2) 0.14122(8)
H12 H 1.0406 0.3908 0.1477
H13 H 0.8631 0.3346 0.1181
H14 H 0.8422 0.4017 0.1742
C17 C 0.9315(2) 0.66337(19) 0.15048(6)
C18 C 1.0808(3) 0.6824(2) 0.18430(7)
H15 H 1.1683 0.6134 0.1895
C19 C 1.0990(4) 0.8061(3) 0.21057(8)
H16 H 1.1995 0.8201 0.2334
C20 C 0.9697(4) 0.9078(3) 0.20304(8)
H17 H 0.9836 0.9896 0.2213
C21 C 0.8173(3) 0.8917(2) 0.16857(8)
H18 H 0.7304 0.9612 0.1633
C22 C 0.8017(3) 0.76727(17) 0.14261(7)
C23 C 0.4883(3) 0.79958(19) 0.10104(8)
H19 H 0.4279 0.8015 0.1351
H20 H 0.4088 0.7539 0.0760
H21 H 0.5110 0.8912 0.0893
loop_
_geom_bond_atom_site_label_1
_geom_bond_atom_site_label_2
_geom_bond_site_symmetry_1
_geom_bond_site_symmetry_2
O1 C1 1_555 1_555
N1 C13 1_555 1_555
C1 C2 1_555 1_555
C2 H1 1_555 1_555
C3 C2 1_555 1_555
H2 C3 1_555 1_555
C4 C3 1_555 1_555
H3 C4 1_555 1_555
C5 C4 1_555 1_555
H4 C5 1_555 1_555
C6 C1 1_555 1_555
C7 C6 1_555 1_555
C8 C7 1_555 1_555
H5 C8 1_555 1_555
C9 C8 1_555 1_555
H6 C9 1_555 1_555
C10 C9 1_555 1_555
H7 C10 1_555 1_555
C11 C10 1_555 1_555
H8 C11 1_555 1_555
C12 C7 1_555 1_555
C13 O1 1_555 1_555
C14 C13 1_555 1_555
C15 C14 1_555 1_555
H9 C15 1_555 1_555
H10 C15 1_555 1_555
H11 C15 1_555 1_555
C16 C14 1_555 1_555
H12 C16 1_555 1_555
H13 C16 1_555 1_555
H14 C16 1_555 1_555
C17 C14 1_555 1_555
C18 C17 1_555 1_555
H15 C18 1_555 1_555
C19 C18 1_555 1_555
H16 C19 1_555 1_555
C20 C19 1_555 1_555
H17 C20 1_555 1_555
C21 C20 1_555 1_555
H18 C21 1_555 1_555
C22 N1 1_555 1_555
C23 N1 1_555 1_555
H19 C23 1_555 1_555
H20 C23 1_555 1_555
H21 C23 1_555 1_555
C5 C6 1_555 1_555
C11 C12 1_555 1_555
C12 C13 1_555 1_555
C17 C22 1_555 1_555
C21 C22 1_555 1_555

#END
