
#######################################################################
#
#                 Cambridge Crystallographic Data Centre
#                                CCDC 
#
#######################################################################
#
# If this CIF has been generated from an entry in the Cambridge 
# Structural Database, then it will include bibliographic, chemical, 
# crystal, experimental, refinement or atomic coordinate data resulting 
# from the CCDC's data processing and validation procedures.
#
#######################################################################

data_ADISUC
_chemical_formula_moiety         'C25 H16 O2'
_chemical_name_systematic        Spiro(benzo(c)chromene-6,3'-benzo(f)chromene)
_symmetry_cell_setting           tetragonal
_symmetry_space_group_name_H-M   'P 43'
_symmetry_Int_Tables_number      78
_space_group_name_Hall           'P 4cw'
loop_
_symmetry_equiv_pos_site_id
_symmetry_equiv_pos_as_xyz
1 x,y,z
2 -x,-y,1/2+z
3 -y,x,3/4+z
4 y,-x,1/4+z
_cell_length_a                   10.5231(9)
_cell_length_b                   10.5231(9)
_cell_length_c                   15.760(3)
_cell_angle_alpha                90
_cell_angle_beta                 90
_cell_angle_gamma                90
_cell_volume                     1745.19
_exptl_crystal_colour            yellow
_chemical_melting_point          222-223deg.C
_cell_formula_units_Z            4
loop_
_atom_site_label
_atom_site_type_symbol
_atom_site_fract_x
_atom_site_fract_y
_atom_site_fract_z
O1 O 0.61860(12) 0.80052(13) 0.24594(9)
O2 O 0.78806(12) 0.93451(13) 0.21775(9)
C1 C 0.67543(19) 0.68404(19) 0.23005(13)
C2 C 0.6233(2) 0.6099(2) 0.16706(14)
H1 H 0.5546 0.6395 0.1356
C3 C 0.6735(3) 0.4918(2) 0.15101(17)
H2 H 0.6386 0.4414 0.1085
C4 C 0.7754(3) 0.4475(2) 0.19761(17)
H3 H 0.8089 0.3675 0.1866
C5 C 0.8271(2) 0.5220(2) 0.26036(15)
H4 H 0.8967 0.4920 0.2908
C6 C 0.77751(19) 0.6418(2) 0.27947(12)
C7 C 0.81997(19) 0.72285(19) 0.34964(13)
C8 C 0.8990(2) 0.6795(2) 0.41482(15)
H5 H 0.9293 0.5965 0.4133
C9 C 0.9326(2) 0.7575(2) 0.48114(16)
H6 H 0.9866 0.7275 0.5233
C10 C 0.8870(2) 0.8790(2) 0.48532(15)
H7 H 0.9089 0.9309 0.5308
C11 C 0.8081(2) 0.9252(2) 0.42196(14)
H8 H 0.7767 1.0077 0.4250
C12 C 0.77629(18) 0.8479(2) 0.35407(13)
C13 C 0.69727(19) 0.89783(19) 0.28180(12)
C14 C 0.6102(2) 1.0050(2) 0.30190(14)
H9 H 0.5766 1.0131 0.3562
C15 C 0.58049(19) 1.08929(19) 0.24217(13)
H10 H 0.5227 1.1537 0.2542
C16 C 0.63741(19) 1.08152(18) 0.15844(14)
C17 C 0.59362(19) 1.14965(18) 0.08580(13)
C18 C 0.4817(2) 1.2241(2) 0.08627(14)
H11 H 0.4338 1.2300 0.1357
C19 C 0.4428(2) 1.2873(2) 0.01542(15)
H12 H 0.3688 1.3355 0.0173
C20 C 0.5122(2) 1.2808(2) -0.05975(15)
H13 H 0.4857 1.3257 -0.1074
C21 C 0.6189(2) 1.2084(2) -0.06285(14)
H14 H 0.6643 1.2033 -0.1134
C22 C 0.6628(2) 1.14072(19) 0.00855(14)
C23 C 0.7715(2) 1.0624(2) 0.00558(15)
H15 H 0.8179 1.0577 -0.0445
C24 C 0.8102(2) 0.9937(2) 0.07396(14)
H16 H 0.8810 0.9410 0.0703
C25 C 0.74162(18) 1.00340(19) 0.15024(12)
loop_
_geom_bond_atom_site_label_1
_geom_bond_atom_site_label_2
_geom_bond_site_symmetry_1
_geom_bond_site_symmetry_2
O1 C1 1_555 1_555
O2 C13 1_555 1_555
C1 C2 1_555 1_555
C2 H1 1_555 1_555
C3 C2 1_555 1_555
H2 C3 1_555 1_555
C4 C3 1_555 1_555
H3 C4 1_555 1_555
C5 C4 1_555 1_555
H4 C5 1_555 1_555
C6 C1 1_555 1_555
C7 C6 1_555 1_555
C8 C7 1_555 1_555
H5 C8 1_555 1_555
C9 C8 1_555 1_555
H6 C9 1_555 1_555
C10 C9 1_555 1_555
H7 C10 1_555 1_555
C11 C10 1_555 1_555
H8 C11 1_555 1_555
C12 C7 1_555 1_555
C13 O1 1_555 1_555
C14 C13 1_555 1_555
H9 C14 1_555 1_555
C15 C14 1_555 1_555
H10 C15 1_555 1_555
C16 C15 1_555 1_555
C17 C16 1_555 1_555
C18 C17 1_555 1_555
H11 C18 1_555 1_555
C19 C18 1_555 1_555
H12 C19 1_555 1_555
C20 C19 1_555 1_555
H13 C20 1_555 1_555
C21 C20 1_555 1_555
H14 C21 1_555 1_555
C22 C17 1_555 1_555
C23 C22 1_555 1_555
H15 C23 1_555 1_555
C24 C23 1_555 1_555
H16 C24 1_555 1_555
C25 O2 1_555 1_555
C5 C6 1_555 1_555
C11 C12 1_555 1_555
C12 C13 1_555 1_555
C16 C25 1_555 1_555
C21 C22 1_555 1_555
C24 C25 1_555 1_555

#END
