
#######################################################################
#
#                 Cambridge Crystallographic Data Centre
#                                CCDC 
#
#######################################################################
#
# If this CIF has been generated from an entry in the Cambridge 
# Structural Database, then it will include bibliographic, chemical, 
# crystal, experimental, refinement or atomic coordinate data resulting 
# from the CCDC's data processing and validation procedures.
#
#######################################################################

data_ADITEN
_chemical_formula_moiety         'C25 H16 O2'
_chemical_name_systematic        6,6'-Spiro-bi-(benzo(c)chromene)
_symmetry_cell_setting           monoclinic
_symmetry_space_group_name_H-M   'P 21/n'
_symmetry_Int_Tables_number      14
_space_group_name_Hall           '-P 2yn'
loop_
_symmetry_equiv_pos_site_id
_symmetry_equiv_pos_as_xyz
1 x,y,z
2 1/2-x,1/2+y,1/2-z
3 -x,-y,-z
4 1/2+x,1/2-y,1/2+z
_cell_length_a                   12.673(3)
_cell_length_b                   10.721(3)
_cell_length_c                   13.267(4)
_cell_angle_alpha                90
_cell_angle_beta                 103.737(5)
_cell_angle_gamma                90
_cell_volume                     1750.99
_exptl_crystal_colour            yellow
_chemical_melting_point          212-213deg.C
_cell_formula_units_Z            4
loop_
_atom_site_label
_atom_site_type_symbol
_atom_site_fract_x
_atom_site_fract_y
_atom_site_fract_z
O1 O 0.51106(9) 0.21189(11) 0.27938(9)
O2 O 0.53674(9) 0.01278(11) 0.21918(10)
C1 C 0.50055(14) 0.19406(16) 0.37985(14)
C2 C 0.57697(15) 0.25081(18) 0.45756(14)
H1 H 0.6337 0.2957 0.4418
C3 C 0.56850(16) 0.24035(19) 0.55931(15)
H2 H 0.6195 0.2785 0.6124
C4 C 0.48405(16) 0.17300(19) 0.58172(15)
H3 H 0.4785 0.1651 0.6501
C5 C 0.40811(15) 0.11761(18) 0.50299(15)
H4 H 0.3519 0.0721 0.5192
C6 C 0.41319(14) 0.12789(16) 0.39964(13)
C7 C 0.33450(14) 0.07255(16) 0.31122(15)
C8 C 0.23614(15) 0.01916(19) 0.32071(16)
H5 H 0.2173 0.0222 0.3843
C9 C 0.16726(16) -0.0375(2) 0.23754(18)
H6 H 0.1026 -0.0727 0.2454
C10 C 0.19365(16) -0.0426(2) 0.14250(18)
H7 H 0.1475 -0.0820 0.0866
C11 C 0.28931(15) 0.01153(19) 0.13101(16)
H8 H 0.3070 0.0087 0.0669
C12 C 0.35923(14) 0.06998(17) 0.21413(15)
C13 C 0.46680(14) 0.11986(16) 0.20240(13)
C14 C 0.46904(14) 0.18484(17) 0.10164(13)
C15 C 0.38125(16) 0.25336(19) 0.04709(15)
H9 H 0.3176 0.2558 0.0704
C16 C 0.38697(19) 0.3181(2) -0.04143(17)
H10 H 0.3275 0.3632 -0.0782
C17 C 0.4825(2) 0.3148(2) -0.07470(18)
H11 H 0.4868 0.3577 -0.1345
C18 C 0.57078(17) 0.2493(2) -0.02100(16)
H12 H 0.6342 0.2483 -0.0446
C19 C 0.56646(14) 0.18416(17) 0.06868(14)
C20 C 0.65882(14) 0.11204(17) 0.12921(13)
C21 C 0.76509(15) 0.12046(19) 0.11668(14)
H13 H 0.7814 0.1795 0.0713
C22 C 0.84564(16) 0.0437(2) 0.16984(15)
H14 H 0.9157 0.0508 0.1601
C23 C 0.82310(16) -0.0440(2) 0.23783(16)
H15 H 0.8775 -0.0973 0.2728
C24 C 0.71971(15) -0.05268(18) 0.25394(15)
H16 H 0.7042 -0.1113 0.3000
C25 C 0.63944(14) 0.02645(17) 0.20111(14)
loop_
_geom_bond_atom_site_label_1
_geom_bond_atom_site_label_2
_geom_bond_site_symmetry_1
_geom_bond_site_symmetry_2
O1 C1 1_555 1_555
O2 C13 1_555 1_555
C1 C2 1_555 1_555
C2 H1 1_555 1_555
C3 C2 1_555 1_555
H2 C3 1_555 1_555
C4 C3 1_555 1_555
H3 C4 1_555 1_555
C5 C4 1_555 1_555
H4 C5 1_555 1_555
C6 C1 1_555 1_555
C7 C6 1_555 1_555
C8 C7 1_555 1_555
H5 C8 1_555 1_555
C9 C8 1_555 1_555
H6 C9 1_555 1_555
C10 C9 1_555 1_555
H7 C10 1_555 1_555
C11 C10 1_555 1_555
H8 C11 1_555 1_555
C12 C7 1_555 1_555
C13 O1 1_555 1_555
C14 C13 1_555 1_555
C15 C14 1_555 1_555
H9 C15 1_555 1_555
C16 C15 1_555 1_555
H10 C16 1_555 1_555
C17 C16 1_555 1_555
H11 C17 1_555 1_555
C18 C17 1_555 1_555
H12 C18 1_555 1_555
C19 C14 1_555 1_555
C20 C19 1_555 1_555
C21 C20 1_555 1_555
H13 C21 1_555 1_555
C22 C21 1_555 1_555
H14 C22 1_555 1_555
C23 C22 1_555 1_555
H15 C23 1_555 1_555
C24 C23 1_555 1_555
H16 C24 1_555 1_555
C25 O2 1_555 1_555
C5 C6 1_555 1_555
C11 C12 1_555 1_555
C12 C13 1_555 1_555
C18 C19 1_555 1_555
C20 C25 1_555 1_555
C24 C25 1_555 1_555

#END
