
#######################################################################
#
#                 Cambridge Crystallographic Data Centre
#                                CCDC 
#
#######################################################################
#
# If this CIF has been generated from an entry in the Cambridge 
# Structural Database, then it will include bibliographic, chemical, 
# crystal, experimental, refinement or atomic coordinate data resulting 
# from the CCDC's data processing and validation procedures.
#
#######################################################################

data_ADITOX
_chemical_formula_moiety         'C41 H26 O3,C1 H2 Cl2'
_chemical_name_systematic        
"bis(2'-Hydroxy-1,1'-binaphthalen-2-yl)methanone dichloromethane solvate"
_symmetry_cell_setting           triclinic
_symmetry_space_group_name_H-M   'P -1'
_symmetry_Int_Tables_number      2
_space_group_name_Hall           '-P 1'
loop_
_symmetry_equiv_pos_site_id
_symmetry_equiv_pos_as_xyz
1 x,y,z
2 -x,-y,-z
_cell_length_a                   9.464(9)
_cell_length_b                   12.049(11)
_cell_length_c                   15.744(14)
_cell_angle_alpha                94.640(17)
_cell_angle_beta                 105.873(18)
_cell_angle_gamma                106.165(17)
_cell_volume                     1634.45
_exptl_crystal_colour            'light yellow'
_cell_formula_units_Z            2
loop_
_atom_site_label
_atom_site_type_symbol
_atom_site_fract_x
_atom_site_fract_y
_atom_site_fract_z
O1 O 0.4607(2) 0.88668(19) 0.44101(13)
H1 H 0.3967 0.8679 0.3910
O2 O 0.5651(3) 0.7768(2) 0.13810(14)
O3 O 0.1863(2) 0.85749(19) 0.30850(13)
H2 H 0.1537 0.7921 0.3205
C1 C 0.5846(3) 0.8500(3) 0.43968(18)
C2 C 0.7249(4) 0.9103(3) 0.5065(2)
H3 H 0.7280 0.9703 0.5488
C3 C 0.8545(4) 0.8832(3) 0.51071(19)
H4 H 0.9462 0.9252 0.5552
C4 C 0.8535(3) 0.7911(2) 0.44808(18)
C5 C 0.9865(3) 0.7591(3) 0.45100(19)
H5 H 1.0801 0.8023 0.4935
C6 C 0.9822(4) 0.6673(3) 0.3936(2)
H6 H 1.0710 0.6464 0.3976
C7 C 0.8403(3) 0.6034(3) 0.3273(2)
H7 H 0.8366 0.5400 0.2880
C8 C 0.7113(3) 0.6327(2) 0.32028(18)
H8 H 0.6205 0.5908 0.2751
C9 C 0.7112(3) 0.7270(2) 0.38097(17)
C10 C 0.5729(3) 0.7583(2) 0.37706(17)
C11 C 0.4252(3) 0.6872(2) 0.30732(17)
C12 C 0.3206(3) 0.5915(2) 0.33069(18)
C13 C 0.3471(3) 0.5661(3) 0.41911(19)
H9 H 0.4350 0.6129 0.4642
C14 C 0.2469(4) 0.4752(3) 0.4393(2)
H10 H 0.2663 0.4603 0.4977
C15 C 0.1146(4) 0.4039(3) 0.3723(2)
H11 H 0.0462 0.3419 0.3865
C16 C 0.0849(3) 0.4240(3) 0.2870(2)
H12 H -0.0041 0.3755 0.2435
C17 C 0.1863(3) 0.5176(2) 0.26228(19)
C18 C 0.1621(4) 0.5369(3) 0.1730(2)
H13 H 0.0758 0.4876 0.1282
C19 C 0.2612(4) 0.6253(3) 0.1516(2)
H14 H 0.2437 0.6360 0.0922
C20 C 0.3931(3) 0.7026(2) 0.21943(18)
C21 C 0.5014(3) 0.7997(3) 0.19247(19)
C22 C 0.5338(3) 0.9238(2) 0.23324(17)
C23 C 0.6885(4) 0.9940(3) 0.27087(19)
H15 H 0.7675 0.9623 0.2711
C24 C 0.7234(4) 1.1081(3) 0.3070(2)
H16 H 0.8265 1.1537 0.3319
C25 C 0.6064(4) 1.1586(3) 0.30748(19)
C26 C 0.6403(4) 1.2791(3) 0.3454(2)
H17 H 0.7423 1.3253 0.3733
C27 C 0.5240(5) 1.3259(3) 0.3407(2)
H18 H 0.5480 1.4045 0.3645
C28 C 0.3703(4) 1.2594(3) 0.3012(2)
H19 H 0.2927 1.2932 0.2993
C29 C 0.3322(4) 1.1428(3) 0.2646(2)
H20 H 0.2289 1.0985 0.2380
C30 C 0.4508(3) 1.0902(3) 0.26748(19)
C31 C 0.4132(3) 0.9699(3) 0.22862(18)
C32 C 0.2489(3) 0.9025(2) 0.17588(18)
C33 C 0.1985(3) 0.8989(3) 0.0814(2)
C34 C 0.2961(4) 0.9574(3) 0.0349(2)
H21 H 0.3989 0.9986 0.0663
C35 C 0.2444(4) 0.9553(4) -0.0537(2)
H22 H 0.3119 0.9957 -0.0822
C36 C 0.0914(4) 0.8938(4) -0.1042(2)
H23 H 0.0575 0.8918 -0.1657
C37 C -0.0057(4) 0.8375(3) -0.0620(2)
H24 H -0.1071 0.7958 -0.0957
C38 C 0.0401(4) 0.8393(3) 0.0312(2)
C39 C -0.0606(4) 0.7858(3) 0.0774(2)
H25 H -0.1630 0.7445 0.0452
C40 C -0.0130(4) 0.7926(3) 0.1676(2)
H26 H -0.0826 0.7591 0.1972
C41 C 0.1437(3) 0.8512(3) 0.21578(19)
Cl1 Cl 0.6964(3) 0.3233(3) 0.0988(2)
Cl2 Cl 0.4412(3) 0.4208(2) 0.10492(15)
C42 C 0.5084(5) 0.3022(5) 0.0801(5)
H27 H 0.4722 0.2423 0.1136
H29 H 0.5181 0.3097 -0.0060
H28? H 0.4570 0.2697 0.0171
Cl3? Cl 0.7318(3) 0.4373(4) 0.09131(19)
Cl4? Cl 0.4620(5) 0.3593(5) 0.1184(3)
C43? C 0.5411(6) 0.3823(13) 0.0341(4)
H30? H 0.5052 0.4381 0.0000
loop_
_geom_bond_atom_site_label_1
_geom_bond_atom_site_label_2
_geom_bond_site_symmetry_1
_geom_bond_site_symmetry_2
O1 H1 1_555 1_555
O2 C21 1_555 1_555
O3 H2 1_555 1_555
C1 O1 1_555 1_555
C2 C1 1_555 1_555
H3 C2 1_555 1_555
C3 C2 1_555 1_555
H4 C3 1_555 1_555
C4 C3 1_555 1_555
C5 C4 1_555 1_555
H5 C5 1_555 1_555
C6 C5 1_555 1_555
H6 C6 1_555 1_555
C7 C6 1_555 1_555
H7 C7 1_555 1_555
C8 C7 1_555 1_555
H8 C8 1_555 1_555
C9 C4 1_555 1_555
C10 C1 1_555 1_555
C11 C10 1_555 1_555
C12 C11 1_555 1_555
C13 C12 1_555 1_555
H9 C13 1_555 1_555
C14 C13 1_555 1_555
H10 C14 1_555 1_555
C15 C14 1_555 1_555
H11 C15 1_555 1_555
C16 C15 1_555 1_555
H12 C16 1_555 1_555
C17 C12 1_555 1_555
C18 C17 1_555 1_555
H13 C18 1_555 1_555
C19 C18 1_555 1_555
H14 C19 1_555 1_555
C20 C11 1_555 1_555
C21 C20 1_555 1_555
C22 C21 1_555 1_555
C23 C22 1_555 1_555
H15 C23 1_555 1_555
C24 C23 1_555 1_555
H16 C24 1_555 1_555
C25 C24 1_555 1_555
C26 C25 1_555 1_555
H17 C26 1_555 1_555
C27 C26 1_555 1_555
H18 C27 1_555 1_555
C28 C27 1_555 1_555
H19 C28 1_555 1_555
C29 C28 1_555 1_555
H20 C29 1_555 1_555
C30 C25 1_555 1_555
C31 C22 1_555 1_555
C32 C31 1_555 1_555
C33 C32 1_555 1_555
C34 C33 1_555 1_555
H21 C34 1_555 1_555
C35 C34 1_555 1_555
H22 C35 1_555 1_555
C36 C35 1_555 1_555
H23 C36 1_555 1_555
C37 C36 1_555 1_555
H24 C37 1_555 1_555
C38 C33 1_555 1_555
C39 C38 1_555 1_555
H25 C39 1_555 1_555
C40 C39 1_555 1_555
H26 C40 1_555 1_555
C41 O3 1_555 1_555
Cl1 C42 1_555 1_555
Cl2 C42 1_555 1_555
C42 H27 1_555 1_555
H29 C42 1_555 1_555
C8 C9 1_555 1_555
C9 C10 1_555 1_555
C16 C17 1_555 1_555
C19 C20 1_555 1_555
C29 C30 1_555 1_555
C30 C31 1_555 1_555
C32 C41 1_555 1_555
C37 C38 1_555 1_555
C40 C41 1_555 1_555

#END
