
#######################################################################
#
#                 Cambridge Crystallographic Data Centre
#                                CCDC 
#
#######################################################################
#
# If this CIF has been generated from an entry in the Cambridge 
# Structural Database, then it will include bibliographic, chemical, 
# crystal, experimental, refinement or atomic coordinate data resulting 
# from the CCDC's data processing and validation procedures.
#
#######################################################################

data_ADITAJ
_chemical_formula_moiety         'C33 H20 O2,C1 H2 Cl2'
_chemical_name_systematic        
"Spiro(benzo(f)chromene-3,4'-benzo(f)naphtho(2,1-c)chromene) dichloromethane solvate"
_symmetry_cell_setting           triclinic
_symmetry_space_group_name_H-M   'P -1'
_symmetry_Int_Tables_number      2
_space_group_name_Hall           '-P 1'
loop_
_symmetry_equiv_pos_site_id
_symmetry_equiv_pos_as_xyz
1 x,y,z
2 -x,-y,-z
_cell_length_a                   8.722(2)
_cell_length_b                   12.002(3)
_cell_length_c                   13.894(3)
_cell_angle_alpha                69.745(4)
_cell_angle_beta                 71.847(4)
_cell_angle_gamma                89.656(4)
_cell_volume                     1288.1
_exptl_crystal_colour            yellow
_cell_formula_units_Z            2
loop_
_atom_site_label
_atom_site_type_symbol
_atom_site_fract_x
_atom_site_fract_y
_atom_site_fract_z
O1 O 0.0165(3) 0.6767(2) 0.13566(18)
O2 O -0.0164(3) 0.73212(19) 0.28597(17)
C1 C 0.1717(4) 0.7329(3) 0.0716(3)
C2 C 0.1836(5) 0.8231(3) -0.0280(3)
H1 H 0.0931 0.8381 -0.0505
C3 C 0.3292(5) 0.8877(3) -0.0906(3)
H2 H 0.3398 0.9437 -0.1588
C4 C 0.4656(5) 0.8724(3) -0.0551(3)
C5 C 0.6112(5) 0.9527(3) -0.1107(3)
H3 H 0.6223 1.0121 -0.1775
C6 C 0.7339(5) 0.9453(3) -0.0694(3)
H4 H 0.8268 0.9999 -0.1066
C7 C 0.7197(4) 0.8547(3) 0.0298(3)
H5 H 0.8030 0.8499 0.0592
C8 C 0.5840(4) 0.7730(3) 0.0842(3)
H6 H 0.5784 0.7128 0.1494
C9 C 0.4529(4) 0.7767(3) 0.0451(3)
C10 C 0.3032(4) 0.6996(3) 0.1039(2)
C11 C 0.2749(4) 0.5906(3) 0.2020(3)
C12 C 0.3913(4) 0.5070(3) 0.2183(3)
C13 C 0.5316(4) 0.5043(3) 0.1340(3)
H7 H 0.5565 0.5635 0.0654
C14 C 0.6312(5) 0.4166(3) 0.1512(3)
H8 H 0.7204 0.4150 0.0938
C15 C 0.5998(5) 0.3291(3) 0.2548(4)
H9 H 0.6708 0.2718 0.2668
C16 C 0.4661(5) 0.3277(3) 0.3374(3)
H10 H 0.4472 0.2698 0.4060
C17 C 0.3546(4) 0.4127(3) 0.3214(3)
C18 C 0.2029(5) 0.4003(3) 0.4023(3)
H11 H 0.1824 0.3437 0.4718
C19 C 0.0869(5) 0.4705(3) 0.3794(3)
H12 H -0.0161 0.4566 0.4308
C20 C 0.1217(4) 0.5640(3) 0.2785(3)
C21 C -0.0140(4) 0.6326(3) 0.2508(3)
C22 C -0.1756(4) 0.5590(3) 0.2987(3)
H13 H -0.1810 0.4801 0.3026
C23 C -0.3105(4) 0.6033(3) 0.3356(3)
H14 H -0.4096 0.5564 0.3613
C24 C -0.3081(4) 0.7231(3) 0.3371(2)
C25 C -0.4500(4) 0.7805(3) 0.3667(2)
C26 C -0.6090(4) 0.7299(3) 0.3884(3)
H15 H -0.6241 0.6554 0.3840
C27 C -0.7400(4) 0.7886(4) 0.4156(3)
H16 H -0.8433 0.7539 0.4290
C28 C -0.7219(5) 0.9000(4) 0.4236(3)
H17 H -0.8127 0.9389 0.4426
C29 C -0.5722(5) 0.9515(3) 0.4037(3)
H18 H -0.5612 1.0259 0.4093
C30 C -0.4321(4) 0.8944(3) 0.3747(2)
C31 C -0.2749(4) 0.9480(3) 0.3521(2)
H19 H -0.2631 1.0217 0.3588
C32 C -0.1412(4) 0.8944(3) 0.3209(2)
H20 H -0.0385 0.9317 0.3051
C33 C -0.1583(4) 0.7819(3) 0.3126(2)
Cl1 Cl 0.0409(2) 0.18442(12) 0.31129(13)
Cl2 Cl 0.06961(18) 0.37892(14) 0.11214(13)
C34 C 0.1669(5) 0.2805(4) 0.1864(4)
H21 H 0.2478 0.3248 0.1979
H22 H 0.2235 0.2334 0.1448
loop_
_geom_bond_atom_site_label_1
_geom_bond_atom_site_label_2
_geom_bond_site_symmetry_1
_geom_bond_site_symmetry_2
O1 C1 1_555 1_555
O2 C21 1_555 1_555
C1 C2 1_555 1_555
C2 H1 1_555 1_555
C3 C2 1_555 1_555
H2 C3 1_555 1_555
C4 C3 1_555 1_555
C5 C4 1_555 1_555
H3 C5 1_555 1_555
C6 C5 1_555 1_555
H4 C6 1_555 1_555
C7 C6 1_555 1_555
H5 C7 1_555 1_555
C8 C7 1_555 1_555
H6 C8 1_555 1_555
C9 C4 1_555 1_555
C10 C1 1_555 1_555
C11 C10 1_555 1_555
C12 C11 1_555 1_555
C13 C12 1_555 1_555
H7 C13 1_555 1_555
C14 C13 1_555 1_555
H8 C14 1_555 1_555
C15 C14 1_555 1_555
H9 C15 1_555 1_555
C16 C15 1_555 1_555
H10 C16 1_555 1_555
C17 C12 1_555 1_555
C18 C17 1_555 1_555
H11 C18 1_555 1_555
C19 C18 1_555 1_555
H12 C19 1_555 1_555
C20 C11 1_555 1_555
C21 O1 1_555 1_555
C22 C21 1_555 1_555
H13 C22 1_555 1_555
C23 C22 1_555 1_555
H14 C23 1_555 1_555
C24 C23 1_555 1_555
C25 C24 1_555 1_555
C26 C25 1_555 1_555
H15 C26 1_555 1_555
C27 C26 1_555 1_555
H16 C27 1_555 1_555
C28 C27 1_555 1_555
H17 C28 1_555 1_555
C29 C28 1_555 1_555
H18 C29 1_555 1_555
C30 C25 1_555 1_555
C31 C30 1_555 1_555
H19 C31 1_555 1_555
C32 C31 1_555 1_555
H20 C32 1_555 1_555
C33 O2 1_555 1_555
Cl1 C34 1_555 1_555
Cl2 C34 1_555 1_555
C34 H21 1_555 1_555
H22 C34 1_555 1_555
C8 C9 1_555 1_555
C9 C10 1_555 1_555
C16 C17 1_555 1_555
C19 C20 1_555 1_555
C20 C21 1_555 1_555
C24 C33 1_555 1_555
C29 C30 1_555 1_555
C32 C33 1_555 1_555

#END
