
#######################################################################
#
#                 Cambridge Crystallographic Data Centre
#                                CCDC 
#
#######################################################################
#
# If this CIF has been generated from an entry in the Cambridge 
# Structural Database, then it will include bibliographic, chemical, 
# crystal, experimental, refinement or atomic coordinate data resulting 
# from the CCDC's data processing and validation procedures.
#
#######################################################################

data_ADLFUC
_chemical_name_common            'PDB Chemical Component code: FCA'
_chemical_formula_moiety         'C6 H12 O5'
_chemical_name_systematic        \a-DL-Fucopyranose
_symmetry_cell_setting           monoclinic
_symmetry_space_group_name_H-M   'P 21/c'
_symmetry_Int_Tables_number      14
_space_group_name_Hall           '-P 2ybc'
loop_
_symmetry_equiv_pos_site_id
_symmetry_equiv_pos_as_xyz
1 x,y,z
2 -x,1/2+y,1/2-z
3 -x,-y,-z
4 x,1/2-y,1/2+z
_cell_length_a                   7.652(4)
_cell_length_b                   4.762(1)
_cell_length_c                   20.432(6)
_cell_angle_alpha                90
_cell_angle_beta                 105.50(6)
_cell_angle_gamma                90
_cell_volume                     717.44
_cell_formula_units_Z            4
loop_
_atom_site_label
_atom_site_type_symbol
_atom_site_fract_x
_atom_site_fract_y
_atom_site_fract_z
C1 C -0.48020 -0.25300 0.16500
C2 C -0.52100 -0.17530 0.09010
C3 C -0.69480 -0.31880 0.05070
C4 C -0.85010 -0.23560 0.08000
C5 C -0.80030 -0.31390 0.15510
C6 C -0.94020 -0.21770 0.19010
O1 O -0.44060 -0.53890 0.17166
O2 O -0.37170 -0.25740 0.06438
O3 O -0.73920 -0.24330 -0.02036
O4 O -0.88040 0.05960 0.07023
O5 O -0.63120 -0.17960 0.19044
H1 H -0.35600 -0.17100 0.20300
H2 H -0.54000 0.04300 0.08900
H3 H -0.67600 -0.53100 0.05400
H4 H -0.96600 -0.35300 0.05400
H5 H -0.78500 -0.53100 0.15700
H6 H -1.06000 -0.31600 0.16700
H7 H -0.89500 -0.26300 0.24000
H8 H -0.95800 -0.01200 0.18700
H9 H -0.40000 -0.57800 0.21800
H10 H -0.33900 -0.13000 0.04800
H11 H -0.71000 -0.34200 -0.03600
H12 H -0.98200 0.09400 0.06000
loop_
_geom_bond_atom_site_label_1
_geom_bond_atom_site_label_2
_geom_bond_site_symmetry_1
_geom_bond_site_symmetry_2
C1 C2 1_555 1_555
C2 C3 1_555 1_555
C3 C4 1_555 1_555
C4 C5 1_555 1_555
C5 C6 1_555 1_555
C6 H6 1_555 1_555
O1 C1 1_555 1_555
O2 C2 1_555 1_555
O3 C3 1_555 1_555
O4 C4 1_555 1_555
O5 C1 1_555 1_555
H1 C1 1_555 1_555
H2 C2 1_555 1_555
H3 C3 1_555 1_555
H4 C4 1_555 1_555
H5 C5 1_555 1_555
H7 C6 1_555 1_555
H8 C6 1_555 1_555
H9 O1 1_555 1_555
H10 O2 1_555 1_555
H11 O3 1_555 1_555
H12 O4 1_555 1_555
C5 O5 1_555 1_555

#END
