
#######################################################################
#
#                 Cambridge Crystallographic Data Centre
#                                CCDC 
#
#######################################################################
#
# If this CIF has been generated from an entry in the Cambridge 
# Structural Database, then it will include bibliographic, chemical, 
# crystal, experimental, refinement or atomic coordinate data resulting 
# from the CCDC's data processing and validation procedures.
#
#######################################################################

data_ADOFEF
_chemical_compound_source        'Bruguiera gymnorrhiza flowers'
_chemical_name_common            Bruguiesulfurol
_chemical_formula_moiety         'C3 H6 O3 S2'
_chemical_name_systematic        '4-Hydroxy-1,2-dithiolane 1,1-dioxide'
_chemical_properties_biological  
'activates antioxidant response element (ARE) luciferase'
_symmetry_cell_setting           monoclinic
_symmetry_space_group_name_H-M   'C 2/c'
_symmetry_Int_Tables_number      15
_space_group_name_Hall           '-C 2yn'
loop_
_symmetry_equiv_pos_site_id
_symmetry_equiv_pos_as_xyz
1 x,y,z
2 1/2+x,1/2+y,z
3 -x,y,1/2-z
4 1/2-x,1/2+y,1/2-z
5 -x,-y,-z
6 1/2-x,1/2-y,-z
7 x,-y,1/2+z
8 1/2+x,1/2-y,1/2+z
_cell_length_a                   10.4688(9)
_cell_length_b                   6.7773(9)
_cell_length_c                   16.6699(14)
_cell_angle_alpha                90
_cell_angle_beta                 93.942(5)
_cell_angle_gamma                90
_cell_volume                     1179.93
_exptl_crystal_colour            colorless
_cell_formula_units_Z            8
_exptl_crystal_recrystallization_method chloroform
loop_
_atom_site_label
_atom_site_type_symbol
_atom_site_fract_x
_atom_site_fract_y
_atom_site_fract_z
S1 S 0.33467(12) 0.0804(3) 0.58401(8)
S2 S 0.14769(12) -0.0268(3) 0.58103(10)
O1 O 0.3715(4) 0.1199(8) 0.5040(2)
O2 O 0.3513(4) 0.2421(7) 0.6401(2)
C1 C 0.1912(5) -0.2536(11) 0.6347(4)
H1 H 0.1278 -0.2811 0.6739
H2 H 0.1898 -0.3635 0.5965
C2 C 0.3240(5) -0.2396(11) 0.6785(3)
H3 H 0.3571 -0.3732 0.6920
O3 O 0.3208(4) -0.1229(8) 0.7498(2)
H4 H 0.2732 -0.1761 0.7812
C3 C 0.4122(5) -0.1352(10) 0.6240(3)
H5 H 0.4331 -0.2232 0.5801
H6 H 0.4921 -0.0990 0.6545
loop_
_geom_bond_atom_site_label_1
_geom_bond_atom_site_label_2
_geom_bond_site_symmetry_1
_geom_bond_site_symmetry_2
S1 S2 1_555 1_555
S2 C1 1_555 1_555
O1 S1 1_555 1_555
O2 S1 1_555 1_555
C1 H1 1_555 1_555
H2 C1 1_555 1_555
C2 C1 1_555 1_555
H3 C2 1_555 1_555
O3 C2 1_555 1_555
H4 O3 1_555 1_555
C3 S1 1_555 1_555
H5 C3 1_555 1_555
H6 C3 1_555 1_555
C2 C3 1_555 1_555

#END
