
#######################################################################
#
#                 Cambridge Crystallographic Data Centre
#                                CCDC 
#
#######################################################################
#
# If this CIF has been generated from an entry in the Cambridge 
# Structural Database, then it will include bibliographic, chemical, 
# crystal, experimental, refinement or atomic coordinate data resulting 
# from the CCDC's data processing and validation procedures.
#
#######################################################################

data_ADOFAB
_chemical_name_common            BMS-433796
_chemical_formula_moiety         'C21 H20 F2 N4 O4,C2 H6 O1'
_chemical_name_systematic        
'(S)-2-((S)-2-(3,5-Difluorophenyl)-2-hydroxyacetamido)-N-((S,Z)-3-methyl-4-oxo-4,5-dihydro-3H-benzo(d)(1,2)diazepin-5-yl)propanamide ethanol solvate'
_chemical_properties_biological  
"excellent activity lowering brain beta amyloid peptide production; its toxicity limits use as a treatment of Alzheimer's disease"
_symmetry_cell_setting           monoclinic
_symmetry_space_group_name_H-M   'P 21'
_symmetry_Int_Tables_number      4
_space_group_name_Hall           'P 2yb'
loop_
_symmetry_equiv_pos_site_id
_symmetry_equiv_pos_as_xyz
1 x,y,z
2 -x,1/2+y,-z
_cell_length_a                   4.7622(8)
_cell_length_b                   21.3110(11)
_cell_length_c                   11.7345(8)
_cell_angle_alpha                90
_cell_angle_beta                 91.631(11)
_cell_angle_gamma                90
_cell_volume                     1190.42
_exptl_crystal_colour            colorless
_exptl_crystal_description       prismatic
_cell_formula_units_Z            2
loop_
_atom_site_label
_atom_site_type_symbol
_atom_site_fract_x
_atom_site_fract_y
_atom_site_fract_z
O1 O 0.4999(5) 0.28813(11) 0.5255(2)
O2 O -0.1771(4) 0.14753(11) 0.6267(3)
O3 O 0.5543(4) 0.00097(14) 0.7052(2)
O4 O 0.3224(7) -0.09630(12) 0.8281(3)
H1 H 0.307(15) -0.118(4) 0.770(6)
N1 N -0.0370(7) 0.38201(15) 0.6456(4)
N2 N 0.2012(6) 0.36156(13) 0.5898(3)
N3 N 0.2498(4) 0.19177(10) 0.6232(2)
H2 H 0.4254 0.1861 0.6112
N4 N 0.1178(4) 0.03359(10) 0.65505(18)
H3 H -0.0588 0.0266 0.6619
C1 C 0.2183(7) 0.26874(15) 0.7800(3)
C2 C 0.3892(9) 0.23289(18) 0.8510(3)
H4 H 0.4763 0.1973 0.8229
C3 C 0.4311(13) 0.2499(3) 0.9642(4)
H5 H 0.5515 0.2265 1.0113
C4 C 0.2943(13) 0.3017(3) 1.0075(4)
H6 H 0.3175 0.3121 1.0841
C5 C 0.1259(11) 0.3375(2) 0.9379(4)
H7 H 0.0343 0.3721 0.9677
C6 C 0.0888(7) 0.32283(16) 0.8221(3)
C7 C -0.0772(8) 0.36427(19) 0.7484(5)
H8 H -0.2376 0.3805 0.7809
C8 C 0.3026(11) 0.4076(2) 0.5084(5)
H9 H 0.4658 0.3914 0.4723
H10 H 0.3504 0.4458 0.5477
H11 H 0.1581 0.4159 0.4516
C9 C 0.2997(6) 0.30218(13) 0.5840(3)
C10 C 0.1559(5) 0.25338(12) 0.6559(3)
H12 H -0.0474 0.2562 0.6414
C11 C 0.0761(5) 0.14378(12) 0.6108(2)
C12 C 0.2055(5) 0.08147(11) 0.5756(2)
H13 H 0.4106 0.0851 0.5802
C13 C 0.1152(10) 0.06568(17) 0.4535(3)
H14 H 0.1964 0.0263 0.4322
H15 H 0.1782 0.0980 0.4034
H16 H -0.0858 0.0627 0.4479
C14 C 0.3002(5) 0.00021(13) 0.7175(2)
C15 C 0.1740(6) -0.03988(13) 0.8128(3)
H17 H -0.0239 -0.0488 0.7943
C16 C 0.1980(6) -0.00191(16) 0.9219(3)
C17 C 0.0348(9) 0.0512(2) 0.9337(4)
H18 H -0.0941 0.0634 0.8769
C18 C 0.0702(14) 0.0856(3) 1.0329(5)
C19 C 0.2511(17) 0.0693(4) 1.1192(4)
H19 H 0.2704 0.0934 1.1850
C20 C 0.4043(13) 0.0156(4) 1.1047(4)
C21 C 0.3871(9) -0.0203(2) 1.0078(3)
H20 H 0.4984 -0.0558 0.9999
F1 F -0.0953(12) 0.1377(2) 1.0430(4)
F2 F 0.5852(12) -0.0023(3) 1.1898(3)
O5 O 0.7994(14) 0.3170(3) 0.3366(5)
H21 H 0.73(3) 0.312(6) 0.399(10)
C22 C 0.901(2) 0.2592(6) 0.2982(10)
H22 H 1.0632 0.2481 0.3459
H23 H 0.9669 0.2652 0.2215
C23 C 0.712(3) 0.2062(5) 0.2960(8)
H24 H 0.8010 0.1710 0.2609
H25 H 0.5438 0.2169 0.2532
H26 H 0.6645 0.1954 0.3726
loop_
_geom_bond_atom_site_label_1
_geom_bond_atom_site_label_2
_geom_bond_site_symmetry_1
_geom_bond_site_symmetry_2
O1 C9 1_555 1_555
O2 C11 1_555 1_555
O3 C14 1_555 1_555
O4 H1 1_555 1_555
N1 N2 1_555 1_555
N2 C8 1_555 1_555
N3 H2 1_555 1_555
N4 H3 1_555 1_555
C1 C2 1_555 1_555
C2 H4 1_555 1_555
C3 C2 1_555 1_555
H5 C3 1_555 1_555
C4 C3 1_555 1_555
H6 C4 1_555 1_555
C5 C4 1_555 1_555
H7 C5 1_555 1_555
C6 C1 1_555 1_555
C7 N1 1_555 1_555
H8 C7 1_555 1_555
C8 H9 1_555 1_555
H10 C8 1_555 1_555
H11 C8 1_555 1_555
C9 N2 1_555 1_555
C10 N3 1_555 1_555
H12 C10 1_555 1_555
C11 N3 1_555 1_555
C12 N4 1_555 1_555
H13 C12 1_555 1_555
C13 C12 1_555 1_555
H14 C13 1_555 1_555
H15 C13 1_555 1_555
H16 C13 1_555 1_555
C14 N4 1_555 1_555
C15 O4 1_555 1_555
H17 C15 1_555 1_555
C16 C15 1_555 1_555
C17 C16 1_555 1_555
H18 C17 1_555 1_555
C18 C17 1_555 1_555
C19 C18 1_555 1_555
H19 C19 1_555 1_555
C20 C19 1_555 1_555
C21 C16 1_555 1_555
H20 C21 1_555 1_555
F1 C18 1_555 1_555
F2 C20 1_555 1_555
O5 H21 1_555 1_555
C22 O5 1_555 1_555
H22 C22 1_555 1_555
H23 C22 1_555 1_555
C23 C22 1_555 1_555
H24 C23 1_555 1_555
H25 C23 1_555 1_555
H26 C23 1_555 1_555
C1 C10 1_555 1_555
C5 C6 1_555 1_555
C6 C7 1_555 1_555
C9 C10 1_555 1_555
C11 C12 1_555 1_555
C14 C15 1_555 1_555
C20 C21 1_555 1_555

#END
