
#######################################################################
#
#                 Cambridge Crystallographic Data Centre
#                                CCDC 
#
#######################################################################
#
# If this CIF has been generated from an entry in the Cambridge 
# Structural Database, then it will include bibliographic, chemical, 
# crystal, experimental, refinement or atomic coordinate data resulting 
# from the CCDC's data processing and validation procedures.
#
#######################################################################

data_ADOFOP
_chemical_compound_source        'aerial parts of Goniothalamus amuyon'
_chemical_name_common            
(6R,6'R,7R,7'R,8R,8'R)-6-(1-hydroxy-2-(2-hydroxy-2-(6-oxo-2,3-dihydropyran-2-yl)-1-phenylethoxy)-2-phenylethyl)-5,6-dihydro-2H-pyran-2-one
_chemical_formula_moiety         'C26 H26 O7'
_chemical_name_systematic        Digoniodiol
_chemical_properties_biological  
'plant used as a folk medicine to treat oedema and rheumatism; used in Southeast Asia as an abortifacient; mild cytotoxicity towards HepG2 and MDA-MB-2312 cancer cell lines'
_symmetry_cell_setting           orthorhombic
_symmetry_space_group_name_H-M   'P 21 21 21'
_symmetry_Int_Tables_number      19
_space_group_name_Hall           'P 2ac 2ab'
loop_
_symmetry_equiv_pos_site_id
_symmetry_equiv_pos_as_xyz
1 x,y,z
2 1/2-x,-y,1/2+z
3 1/2+x,1/2-y,-z
4 -x,1/2+y,1/2-z
_cell_length_a                   12.071(2)
_cell_length_b                   16.225(2)
_cell_length_c                   11.597(3)
_cell_angle_alpha                90
_cell_angle_beta                 90
_cell_angle_gamma                90
_cell_volume                     2271.3
_exptl_crystal_colour            colorless
_exptl_crystal_description       prism
_chemical_melting_point          '166-168 deg.C'
_cell_formula_units_Z            4
loop_
_atom_site_label
_atom_site_type_symbol
_atom_site_fract_x
_atom_site_fract_y
_atom_site_fract_z
O1 O 0.1205(2) -0.1561(1) 0.9084(2)
O2 O 0.0389(2) 0.2560(1) 1.0207(2)
O3 O 0.1291(3) -0.2236(2) 0.7443(2)
O4 O -0.0662(2) 0.3275(2) 1.1381(2)
O5 O 0.0277(2) -0.1365(1) 1.1278(2)
O6 O 0.1082(2) 0.2304(1) 0.7926(2)
O7 O 0.1095(2) 0.0487(1) 0.9766(2)
C1 C 0.1744(3) -0.2059(2) 0.8346(3)
C2 C 0.0259(3) 0.3150(2) 1.0997(2)
C3 C 0.2814(3) -0.2399(3) 0.8719(4)
C4 C 0.1216(3) 0.3651(2) 1.1313(2)
C5 C 0.3174(3) -0.2327(2) 0.9781(4)
C6 C 0.2172(3) 0.3573(2) 1.0773(3)
C7 C 0.2549(3) -0.1828(2) 1.0630(3)
C8 C 0.2343(3) 0.2944(2) 0.9872(3)
C9 C 0.1848(2) -0.1191(2) 1.0023(2)
C10 C 0.1502(2) 0.2258(2) 0.9960(2)
C11 C 0.1027(3) -0.0779(2) 1.0816(2)
C12 C 0.1390(2) 0.1769(2) 0.8843(2)
C13 C 0.0330(2) -0.0096(2) 1.0254(2)
C14 C 0.0616(2) 0.1024(2) 0.8927(2)
C15 C -0.0418(3) 0.0301(2) 1.1142(2)
C16 C 0.0503(3) 0.0616(2) 0.7755(2)
C17 C 0.0012(3) 0.0837(2) 1.1956(3)
C18 C 0.1273(3) 0.0042(2) 0.7372(3)
C19 C -0.0652(3) 0.1176(2) 1.2807(3)
C20 C 0.1215(4) -0.0262(2) 0.6259(3)
C21 C -0.1756(3) 0.0974(2) 1.2857(3)
C22 C 0.0411(5) 0.0004(3) 0.5519(3)
C23 C -0.2197(3) 0.0442(2) 1.2067(3)
C24 C -0.0350(4) 0.0565(3) 0.5892(3)
C25 C -0.1541(3) 0.0105(2) 1.1213(3)
C26 C -0.0327(3) 0.0870(2) 0.7009(3)
H1 H 0.3258 -0.2680 0.8164
H2 H 0.1145 0.4044 1.1915
H3 H 0.3833 -0.2599 1.0012
H4 H 0.2765 0.3931 1.0967
H5 H 0.2080 -0.2181 1.1069
H6 H 0.3055 -0.1559 1.1130
H7 H 0.2281 0.3196 0.9138
H8 H 0.3065 0.2716 0.9958
H9 H 0.2323 -0.0783 0.9704
H10 H 0.1724 0.1893 1.0556
H11 H 0.1429 -0.0540 1.1435
H12 H 0.2106 0.1563 0.8661
H13 H -0.0108 -0.0328 0.9657
H14 H -0.0090 0.1201 0.9186
H15 H 0.0783 0.0971 1.1932
H16 H 0.1835 -0.0148 0.7878
H17 H -0.0342 0.1549 1.3355
H18 H 0.1738 -0.0661 0.6010
H19 H -0.2218 0.1207 1.3434
H20 H 0.0383 -0.0195 0.4752
H21 H -0.2958 0.0304 1.2104
H22 H -0.0912 0.0749 0.5375
H23 H -0.1856 -0.0265 1.0669
H24 H -0.0871 0.1257 0.7257
H25 H 0.0527 -0.1569 1.2028
H26 H 0.0240 0.2426 0.8052
loop_
_geom_bond_atom_site_label_1
_geom_bond_atom_site_label_2
_geom_bond_site_symmetry_1
_geom_bond_site_symmetry_2
O1 C1 1_555 1_555
O2 C2 1_555 1_555
O3 C1 1_555 1_555
O4 C2 1_555 1_555
O5 C11 1_555 1_555
O6 C12 1_555 1_555
O7 C13 1_555 1_555
C1 C3 1_555 1_555
C2 C4 1_555 1_555
C3 C5 1_555 1_555
C4 C6 1_555 1_555
C5 C7 1_555 1_555
C6 C8 1_555 1_555
C7 C9 1_555 1_555
C8 C10 1_555 1_555
C9 O1 1_555 1_555
C10 O2 1_555 1_555
C11 C9 1_555 1_555
C12 C10 1_555 1_555
C13 C11 1_555 1_555
C14 O7 1_555 1_555
C15 C13 1_555 1_555
C16 C14 1_555 1_555
C17 C15 1_555 1_555
C18 C16 1_555 1_555
C19 C17 1_555 1_555
C20 C18 1_555 1_555
C21 C19 1_555 1_555
C22 C20 1_555 1_555
C23 C21 1_555 1_555
C24 C22 1_555 1_555
C25 C15 1_555 1_555
C26 C16 1_555 1_555
H1 C3 1_555 1_555
H2 C4 1_555 1_555
H3 C5 1_555 1_555
H4 C6 1_555 1_555
H5 C7 1_555 1_555
H6 C7 1_555 1_555
H7 C8 1_555 1_555
H8 C8 1_555 1_555
H9 C9 1_555 1_555
H10 C10 1_555 1_555
H11 C11 1_555 1_555
H12 C12 1_555 1_555
H13 C13 1_555 1_555
H14 C14 1_555 1_555
H15 C17 1_555 1_555
H16 C18 1_555 1_555
H17 C19 1_555 1_555
H18 C20 1_555 1_555
H19 C21 1_555 1_555
H20 C22 1_555 1_555
H21 C23 1_555 1_555
H22 C24 1_555 1_555
H23 C25 1_555 1_555
H24 C26 1_555 1_555
H25 O5 1_555 1_555
H26 O6 1_555 1_555
C12 C14 1_555 1_555
C23 C25 1_555 1_555
C24 C26 1_555 1_555

#END
