
#######################################################################
#
#                 Cambridge Crystallographic Data Centre
#                                CCDC 
#
#######################################################################
#
# If this CIF has been generated from an entry in the Cambridge 
# Structural Database, then it will include bibliographic, chemical, 
# crystal, experimental, refinement or atomic coordinate data resulting 
# from the CCDC's data processing and validation procedures.
#
#######################################################################

data_ADOFUV
_chemical_compound_source        'aerial parts of Goniothalamus amuyon'
_chemical_name_common            
1R,5R,7R,9R-7-(Hydroxy(phenyl)methyl)-2,6-dioxabicyclo(3.2.1)octan-3-one
_chemical_formula_moiety         'C13 H14 O4'
_chemical_name_systematic        'Goniofupyrone A'
_chemical_properties_biological  
'plant used as a folk medicine to treat oedema and rheumatism; used in Southeast Asia as an abortifacient; no cytotoxicity towards HepG2, Hep3B, MDA-MB-2312 and MCF-7 cancer cell lines'
_symmetry_cell_setting           orthorhombic
_symmetry_space_group_name_H-M   'P 21 21 21'
_symmetry_Int_Tables_number      19
_space_group_name_Hall           'P 2ac 2ab'
loop_
_symmetry_equiv_pos_site_id
_symmetry_equiv_pos_as_xyz
1 x,y,z
2 1/2-x,-y,1/2+z
3 1/2+x,1/2-y,-z
4 -x,1/2+y,1/2-z
_cell_length_a                   9.581(3)
_cell_length_b                   10.706(2)
_cell_length_c                   10.866(3)
_cell_angle_alpha                90
_cell_angle_beta                 90
_cell_angle_gamma                90
_cell_volume                     1114.57
_exptl_crystal_colour            colorless
_exptl_crystal_description       plate
_chemical_melting_point          '154-156 deg.C'
_cell_formula_units_Z            4
loop_
_atom_site_label
_atom_site_type_symbol
_atom_site_fract_x
_atom_site_fract_y
_atom_site_fract_z
O1 O 0.3198(2) 0.7267(1) 1.0103(1)
O2 O 0.3441(2) 0.5465(1) 0.8004(1)
O3 O 0.4348(2) 0.6304(2) 1.1561(2)
O4 O 0.4526(2) 0.8677(2) 0.7742(2)
C1 C 0.2420(2) 0.7198(2) 0.8949(2)
C2 C 0.3627(3) 0.6209(2) 1.0661(2)
C3 C 0.3163(3) 0.4969(2) 1.0145(2)
C4 C 0.2432(3) 0.5065(2) 0.8922(2)
C5 C 0.3371(2) 0.6803(2) 0.7898(2)
C6 C 0.1397(2) 0.6126(2) 0.8979(2)
C7 C 0.4811(2) 0.7380(2) 0.7860(2)
C8 C 0.5716(2) 0.6865(2) 0.6849(2)
C9 C 0.5270(3) 0.6863(2) 0.5629(2)
C10 C 0.6098(3) 0.6380(3) 0.4715(2)
C11 C 0.7389(3) 0.5888(3) 0.4998(3)
C12 C 0.7849(3) 0.5896(3) 0.6194(3)
C13 C 0.7015(2) 0.6384(2) 0.7108(2)
H1 H 0.1968 0.7965 0.8773
H2 H 0.2545 0.4592 1.0716
H3 H 0.3965 0.4457 1.0043
H4 H 0.1995 0.4303 0.8701
H5 H 0.2913 0.7000 0.7149
H6 H 0.0787 0.6133 0.8290
H7 H 0.0863 0.6115 0.9716
H8 H 0.5257 0.7238 0.8629
H9 H 0.4384 0.7202 0.5427
H10 H 0.5781 0.6378 0.3886
H11 H 0.7960 0.5548 0.4367
H12 H 0.8740 0.5569 0.6394
H13 H 0.7344 0.6389 0.7932
H14 H 0.5426 0.9089 0.7503
loop_
_geom_bond_atom_site_label_1
_geom_bond_atom_site_label_2
_geom_bond_site_symmetry_1
_geom_bond_site_symmetry_2
O1 C1 1_555 1_555
O2 C4 1_555 1_555
O3 C2 1_555 1_555
O4 C7 1_555 1_555
C1 C5 1_555 1_555
C2 O1 1_555 1_555
C3 C2 1_555 1_555
C4 C3 1_555 1_555
C5 O2 1_555 1_555
C6 C1 1_555 1_555
C7 C5 1_555 1_555
C8 C7 1_555 1_555
C9 C8 1_555 1_555
C10 C9 1_555 1_555
C11 C10 1_555 1_555
C12 C11 1_555 1_555
C13 C8 1_555 1_555
H1 C1 1_555 1_555
H2 C3 1_555 1_555
H3 C3 1_555 1_555
H4 C4 1_555 1_555
H5 C5 1_555 1_555
H6 C6 1_555 1_555
H7 C6 1_555 1_555
H8 C7 1_555 1_555
H9 C9 1_555 1_555
H10 C10 1_555 1_555
H11 C11 1_555 1_555
H12 C12 1_555 1_555
H13 C13 1_555 1_555
H14 O4 1_555 1_555
C4 C6 1_555 1_555
C12 C13 1_555 1_555

#END
