
#######################################################################
#
#                 Cambridge Crystallographic Data Centre
#                                CCDC 
#
#######################################################################
#
# If this CIF has been generated from an entry in the Cambridge 
# Structural Database, then it will include bibliographic, chemical, 
# crystal, experimental, refinement or atomic coordinate data resulting 
# from the CCDC's data processing and validation procedures.
#
#######################################################################

data_ADONUE
_chemical_formula_moiety         'C25 H25 N3 O8'
_chemical_name_systematic        
"Methyl 2,8-diethyl-4,6-bis(2-furyl)-1,3,7,9-tetraoxododecahydro-9bH-dipyrrolo[3,4-a:3',4'-f]pyrrolizine-9b-carboxylate"
_symmetry_cell_setting           monoclinic
_symmetry_space_group_name_H-M   'P 21/c'
_symmetry_Int_Tables_number      14
_space_group_name_Hall           '-P 2ybc'
loop_
_symmetry_equiv_pos_site_id
_symmetry_equiv_pos_as_xyz
1 x,y,z
2 -x,1/2+y,1/2-z
3 -x,-y,-z
4 x,1/2-y,1/2+z
_cell_length_a                   10.8016(4)
_cell_length_b                   23.0207(5)
_cell_length_c                   9.9117(3)
_cell_angle_alpha                90
_cell_angle_beta                 111.566(4)
_cell_angle_gamma                90
_cell_volume                     2292.11
_exptl_crystal_colour            colorless
_exptl_crystal_description       needle
_cell_formula_units_Z            4
loop_
_atom_site_label
_atom_site_type_symbol
_atom_site_fract_x
_atom_site_fract_y
_atom_site_fract_z
O1 O 0.35755(18) 0.88300(8) 0.61085(18)
O2 O 0.15294(17) 0.87193(7) 0.61657(17)
O3 O 0.18396(19) 0.99783(7) 0.59138(18)
O4 O 0.07031(17) 1.06882(7) 0.13437(17)
O5 O -0.15310(17) 0.86000(8) 0.22748(19)
O6 O 0.09695(19) 0.78395(7) -0.01075(19)
O7 O 0.24167(16) 0.99037(7) 0.00365(17)
O8 O 0.39203(19) 0.77305(8) 0.1818(2)
N1 N 0.1405(2) 1.04494(8) 0.3752(2)
N2 N 0.25270(18) 0.90037(8) 0.31049(19)
N3 N -0.0512(2) 0.82126(8) 0.0818(2)
C1 C 0.1818(2) 0.93515(9) 0.1778(2)
H1 H 0.1423 0.9088 0.0953
C2 C 0.0678(2) 0.96764(9) 0.2099(2)
H2 H -0.0197 0.9589 0.1362
C3 C 0.0906(2) 1.03258(10) 0.2286(2)
C4 C 0.1427(2) 0.99722(10) 0.4608(2)
C5 C 0.0776(2) 0.94661(9) 0.3600(2)
H3 H -0.0109 0.9384 0.3613
C6 C 0.1621(2) 0.89144(10) 0.3888(2)
C7 C 0.0825(2) 0.83394(10) 0.3265(2)
H4 H 0.0779 0.8097 0.4059
C8 C -0.0547(2) 0.84133(10) 0.2114(3)
C9 C 0.0725(2) 0.80130(9) 0.0917(3)
C10 C 0.1645(2) 0.80337(10) 0.2502(2)
H5 H 0.1873 0.7639 0.2882
C11 C 0.2923(2) 0.84086(10) 0.2891(2)
H6 H 0.3501 0.8277 0.3858
C12 C 0.2392(2) 0.88228(10) 0.5518(2)
C13 C 0.2098(3) 0.86846(13) 0.7730(3)
H7 H 0.2774 0.8390 0.8016
H8 H 0.1413 0.8588 0.8094
H9 H 0.2484 0.9052 0.8120
C14 C 0.1866(3) 1.10271(10) 0.4363(3)
H10 H 0.1715 1.1071 0.5264
H11 H 0.1348 1.1322 0.3693
C15 C 0.3316(3) 1.11187(12) 0.4647(4)
H12 H 0.3830 1.0821 0.5287
H13 H 0.3587 1.1492 0.5088
H14 H 0.3459 1.1102 0.3747
C16 C -0.1703(3) 0.81674(11) -0.0508(3)
H15 H -0.1458 0.8211 -0.1350
H16 H -0.2322 0.8476 -0.0526
C17 C -0.2370(3) 0.75794(12) -0.0564(3)
H17 H -0.1777 0.7276 -0.0612
H18 H -0.3175 0.7562 -0.1407
H19 H -0.2577 0.7530 0.0292
C18 C 0.2759(2) 0.97526(9) 0.1462(2)
C19 C 0.3861(2) 1.00409(10) 0.2283(3)
H20 H 0.4292 1.0015 0.3284
C20 C 0.4240(3) 1.03952(11) 0.1314(3)
H21 H 0.4968 1.0644 0.1563
C21 C 0.3352(3) 1.03005(11) -0.0011(3)
H22 H 0.3362 1.0477 -0.0850
C22 C 0.3711(2) 0.83111(11) 0.1952(3)
C23 C 0.4372(3) 0.86161(13) 0.1289(3)
H23 H 0.4411 0.9019 0.1239
C24 C 0.5007(3) 0.82092(14) 0.0673(3)
H24 H 0.5532 0.8294 0.0136
C25 C 0.4705(3) 0.76877(14) 0.1014(3)
H25 H 0.4988 0.7340 0.0744
loop_
_geom_bond_atom_site_label_1
_geom_bond_atom_site_label_2
_geom_bond_site_symmetry_1
_geom_bond_site_symmetry_2
O1 C12 1_555 1_555
O2 C12 1_555 1_555
O3 C4 1_555 1_555
O4 C3 1_555 1_555
O5 C8 1_555 1_555
O6 C9 1_555 1_555
O7 C18 1_555 1_555
O8 C22 1_555 1_555
N1 C3 1_555 1_555
N2 C1 1_555 1_555
N3 C8 1_555 1_555
C1 H1 1_555 1_555
C2 C1 1_555 1_555
H2 C2 1_555 1_555
C3 C2 1_555 1_555
C4 N1 1_555 1_555
C5 C2 1_555 1_555
H3 C5 1_555 1_555
C6 N2 1_555 1_555
C7 C6 1_555 1_555
H4 C7 1_555 1_555
C8 C7 1_555 1_555
C9 N3 1_555 1_555
C10 C7 1_555 1_555
H5 C10 1_555 1_555
C11 N2 1_555 1_555
H6 C11 1_555 1_555
C12 C6 1_555 1_555
C13 O2 1_555 1_555
H7 C13 1_555 1_555
H8 C13 1_555 1_555
H9 C13 1_555 1_555
C14 N1 1_555 1_555
H10 C14 1_555 1_555
H11 C14 1_555 1_555
C15 C14 1_555 1_555
H12 C15 1_555 1_555
H13 C15 1_555 1_555
H14 C15 1_555 1_555
C16 N3 1_555 1_555
H15 C16 1_555 1_555
H16 C16 1_555 1_555
C17 C16 1_555 1_555
H17 C17 1_555 1_555
H18 C17 1_555 1_555
H19 C17 1_555 1_555
C18 C1 1_555 1_555
C19 C18 1_555 1_555
H20 C19 1_555 1_555
C20 C19 1_555 1_555
H21 C20 1_555 1_555
C21 O7 1_555 1_555
H22 C21 1_555 1_555
C22 C11 1_555 1_555
C23 C22 1_555 1_555
H23 C23 1_555 1_555
C24 C23 1_555 1_555
H24 C24 1_555 1_555
C25 O8 1_555 1_555
H25 C25 1_555 1_555
C4 C5 1_555 1_555
C5 C6 1_555 1_555
C9 C10 1_555 1_555
C10 C11 1_555 1_555
C20 C21 1_555 1_555
C24 C25 1_555 1_555

#END
