
#######################################################################
#
#                 Cambridge Crystallographic Data Centre
#                                CCDC 
#
#######################################################################
#
# If this CIF has been generated from an entry in the Cambridge 
# Structural Database, then it will include bibliographic, chemical, 
# crystal, experimental, refinement or atomic coordinate data resulting 
# from the CCDC's data processing and validation procedures.
#
#######################################################################

data_ADOPOA
_chemical_formula_moiety         'C44 H55 B1 F2 N4 O10,C2 H6 O1'
_chemical_name_systematic        
"Ethyl ((2-(2-(2-(bis(2-ethoxy-2-oxoethyl)amino)-5-(5,5-difluoro-1,3,7,9-tetramethyl-5H-dipyrrolo[1,2-c:2',1'-f][1,3,2]diazaborinin-10-yl)phenoxy)ethoxy)-4-methylphenyl)(2-ethoxy-2-oxoethyl)amino)acetate ethanol solvate"
_symmetry_cell_setting           monoclinic
_symmetry_space_group_name_H-M   'P 21/a'
_symmetry_Int_Tables_number      14
_space_group_name_Hall           '-P 2yab'
loop_
_symmetry_equiv_pos_site_id
_symmetry_equiv_pos_as_xyz
1 x,y,z
2 1/2-x,1/2+y,-z
3 -x,-y,-z
4 1/2+x,1/2-y,z
_cell_length_a                   11.339
_cell_length_b                   30.546
_cell_length_c                   13.560
_cell_angle_alpha                90
_cell_angle_beta                 100.98
_cell_angle_gamma                90
_cell_volume                     4610.68
_exptl_crystal_colour            colorless
_cell_formula_units_Z            4
loop_
_atom_site_label
_atom_site_type_symbol
_atom_site_fract_x
_atom_site_fract_y
_atom_site_fract_z
F1 F 0.9325(3) 0.23721(11) 0.4793(2)
F2 F 0.9320(3) 0.16362(11) 0.4632(2)
O1 O 0.9627(3) 0.10901(11) 1.0650(2)
O2 O 0.7555(3) 0.23886(13) 1.1997(3)
O3 O 0.9772(3) 0.01768(12) 1.1270(3)
O4 O 0.8983(3) 0.08800(12) 1.3240(2)
O5 O 1.0743(3) 0.12047(13) 1.3097(3)
O6 O 0.8889(3) 0.29193(12) 1.2596(3)
O7 O 0.6781(3) 0.07165(14) 1.0798(3)
O8 O 0.6848(4) -0.06070(18) 1.3244(3)
C1 C 0.9376(4) 0.18572(15) 1.0716(3)
C2 C 0.8839(4) 0.14855(18) 1.2184(4)
H1 H 0.8371 0.1314 1.1645
H2 H 0.8283 0.1622 1.2553
O9 O 0.6958(4) 0.01054(15) 0.9891(3)
N1 N 1.0434(4) 0.19433(14) 0.6167(3)
N2 N 0.9482(3) 0.18290(14) 1.1746(3)
C3 C 0.8213(4) 0.19361(17) 0.6834(4)
O10 O 0.5607(4) -0.10574(16) 1.2227(4)
C4 C 1.0389(4) 0.19316(17) 0.7194(3)
C5 C 0.9298(4) 0.19044(15) 0.8612(3)
C6 C 0.9689(4) 0.22243(17) 1.2327(4)
H3 H 1.0316 0.2391 1.2101
H4 H 0.9980 0.2147 1.3025
N3 N 0.7995(4) -0.03379(16) 1.1696(3)
N4 N 0.8203(4) 0.19438(15) 0.5795(3)
C7 C 0.9303(5) 0.22848(18) 0.9188(4)
H5 H 0.9295 0.2558 0.8884
C8 C 1.1307(5) -0.02358(18) 1.2398(4)
H6 H 1.1912 -0.0055 1.2254
C9 C 1.0119(4) -0.01492(17) 1.1969(4)
C10 C 0.9191(4) -0.04189(18) 1.2201(4)
C11 C 0.9444(4) 0.14783(17) 1.0123(4)
C12 C 1.0704(5) -0.0849(2) 1.3281(4)
H7 H 1.0889 -0.1082 1.3725
C13 C 0.7042(5) 0.19278(19) 0.5311(4)
C14 C 0.9319(4) 0.22556(19) 1.0209(4)
H8 H 0.9291 0.2513 1.0572
C15 C 0.8592(4) 0.25129(17) 1.2264(4)
C16 C 0.9359(4) 0.15034(17) 0.9101(4)
H9 H 0.9341 0.1247 0.8729
C17 C 1.0700(4) 0.04183(17) 1.0970(4)
H10 H 1.1238 0.0223 1.0704
H11 H 1.1161 0.0573 1.1541
C18 C 0.7485(5) 0.00964(19) 1.1712(4)
H12 H 0.8083 0.0288 1.2098
H13 H 0.6809 0.0082 1.2055
C19 C 1.1583(5) 0.19235(17) 0.6055(4)
C20 C 0.6298(5) 0.19083(18) 0.6023(4)
H14 H 0.5464 0.1889 0.5883
C21 C 1.1610(5) -0.0598(2) 1.3055(4)
C22 C 0.9293(4) 0.19299(15) 0.7518(3)
C24 C 0.9499(5) -0.07647(19) 1.2858(4)
H18 H 0.8900 -0.0943 1.3022
C25 C 0.6272(5) 0.0945(2) 0.9875(5)
H19 H 0.5628 0.0774 0.9482
H20 H 0.6882 0.0995 0.9475
C26 C 0.9655(5) 0.11831(19) 1.2879(4)
C27 C 1.0143(5) 0.07362(16) 1.0183(4)
H21 H 1.0748 0.0848 0.9829
H22 H 0.9526 0.0591 0.9699
C28 C 0.7004(5) 0.19225(18) 0.6960(4)
B1 B 0.9306(5) 0.1974(2) 0.5303(4)
C29 C 0.7507(5) 0.3410(2) 1.1543(4)
H23 H 0.6846 0.3607 1.1539
H24 H 0.7257 0.3175 1.1081
H25 H 0.8161 0.3565 1.1345
C30 C 1.1597(5) 0.19031(17) 0.7724(4)
C31 C 1.2295(5) 0.18974(19) 0.7003(4)
H26 H 1.3129 0.1879 0.7133
C32 C 1.1948(5) 0.1920(2) 0.5046(4)
H27 H 1.1246 0.1944 0.4527
H28 H 1.2357 0.1651 0.4966
H29 H 1.2474 0.2162 0.5002
C33 C 1.2069(5) 0.1880(2) 0.8833(4)
H30 H 1.1409 0.1875 0.9183
H31 H 1.2562 0.2131 0.9041
H32 H 1.2539 0.1618 0.8986
C34 C 0.7903(5) 0.3230(2) 1.2572(4)
H33 H 0.8163 0.3467 1.3037
H34 H 0.7233 0.3084 1.2783
C35 C 0.6505(5) 0.1888(2) 0.7918(4)
H35 H 0.5643 0.1891 0.7756
H36 H 0.6783 0.2132 0.8347
H37 H 0.6773 0.1620 0.8257
C36 C 0.7068(5) 0.0295(2) 1.0694(4)
C37 C 0.7142(5) -0.0687(2) 1.1551(5)
H38 H 0.7564 -0.0949 1.1411
H39 H 0.6558 -0.0620 1.0949
C38 C 0.6682(5) 0.1907(2) 0.4201(4)
H40 H 0.7373 0.1956 0.3902
H41 H 0.6089 0.2128 0.3975
H42 H 0.6351 0.1623 0.4008
C39 C 1.2894(5) -0.0688(2) 1.3488(5)
H43 H 1.3395 -0.0495 1.3192
H44 H 1.3079 -0.0986 1.3349
H45 H 1.3035 -0.0643 1.4201
C40 C 0.9607(5) 0.0606(2) 1.4048(4)
H46 H 1.0028 0.0785 1.4594
H47 H 1.0187 0.0420 1.3809
C41 C 0.8666(6) 0.0332(2) 1.4400(4)
H48 H 0.9045 0.0137 1.4918
H49 H 0.8234 0.0166 1.3846
H50 H 0.8118 0.0520 1.4660
C42 C 0.6450(5) -0.0800(2) 1.2365(5)
C44 C 0.5797(6) 0.1374(2) 1.0185(5)
H53 H 0.5459 0.1539 0.9596
H54 H 0.6441 0.1537 1.0582
H55 H 0.5187 0.1319 1.0573
C45 C 0.6223(6) -0.0718(3) 1.4048(5)
H56 H 0.5476 -0.0555 1.3961
H57 H 0.6025 -0.1028 1.4009
C46 C 0.6898(9) -0.0628(4) 1.4986(7)
H59 H 0.6474 -0.0726 1.5494
H60 H 0.7032 -0.0318 1.5053
H61 H 0.7656 -0.0777 1.5063
C23 C 0.4561(4) 0.00676(19) 0.1996(4)
H15 H 0.3975 -0.0046 0.1451
H16 H 0.4545 -0.0100 0.2592
H17 H 0.5345 0.0049 0.1829
C43 C 0.4297(6) 0.0503(3) 0.2163(6)
H51 H 0.3518 0.0519 0.2356
H52 H 0.4253 0.0666 0.1544
O11 O 0.5251(8) 0.0715(4) 0.2994(9)
H58 H 0.4935 0.0908 0.3277
loop_
_geom_bond_atom_site_label_1
_geom_bond_atom_site_label_2
_geom_bond_site_symmetry_1
_geom_bond_site_symmetry_2
F1 B1 1_555 1_555
F2 B1 1_555 1_555
O1 C11 1_555 1_555
O2 C15 1_555 1_555
O3 C9 1_555 1_555
O4 C26 1_555 1_555
O5 C26 1_555 1_555
O6 C15 1_555 1_555
O7 C25 1_555 1_555
O8 C42 1_555 1_555
C1 N2 1_555 1_555
C2 H1 1_555 1_555
H2 C2 1_555 1_555
O9 C36 1_555 1_555
N1 C4 1_555 1_555
N2 C2 1_555 1_555
C3 N4 1_555 1_555
O10 C42 1_555 1_555
C4 C22 1_555 1_555
C5 C7 1_555 1_555
C6 N2 1_555 1_555
H3 C6 1_555 1_555
H4 C6 1_555 1_555
N3 C10 1_555 1_555
N4 C13 1_555 1_555
C7 H5 1_555 1_555
C8 H6 1_555 1_555
C9 C8 1_555 1_555
C10 C9 1_555 1_555
C11 C1 1_555 1_555
C12 H7 1_555 1_555
C13 C20 1_555 1_555
C14 C1 1_555 1_555
H8 C14 1_555 1_555
C15 C6 1_555 1_555
C16 C5 1_555 1_555
H9 C16 1_555 1_555
C17 O3 1_555 1_555
H10 C17 1_555 1_555
H11 C17 1_555 1_555
C18 N3 1_555 1_555
H12 C18 1_555 1_555
H13 C18 1_555 1_555
C19 N1 1_555 1_555
C20 H14 1_555 1_555
C21 C8 1_555 1_555
C22 C3 1_555 1_555
C23 H15 1_555 1_555
H16 C23 1_555 1_555
H17 C23 1_555 1_555
C24 C10 1_555 1_555
H18 C24 1_555 1_555
C25 H19 1_555 1_555
H20 C25 1_555 1_555
C26 C2 1_555 1_555
C27 O1 1_555 1_555
H21 C27 1_555 1_555
H22 C27 1_555 1_555
C28 C3 1_555 1_555
B1 N1 1_555 1_555
C29 H23 1_555 1_555
H24 C29 1_555 1_555
H25 C29 1_555 1_555
C30 C4 1_555 1_555
C31 C19 1_555 1_555
H26 C31 1_555 1_555
C32 C19 1_555 1_555
H27 C32 1_555 1_555
H28 C32 1_555 1_555
H29 C32 1_555 1_555
C33 C30 1_555 1_555
H30 C33 1_555 1_555
H31 C33 1_555 1_555
H32 C33 1_555 1_555
C34 O6 1_555 1_555
H33 C34 1_555 1_555
H34 C34 1_555 1_555
C35 C28 1_555 1_555
H35 C35 1_555 1_555
H36 C35 1_555 1_555
H37 C35 1_555 1_555
C36 O7 1_555 1_555
C37 N3 1_555 1_555
H38 C37 1_555 1_555
H39 C37 1_555 1_555
C38 C13 1_555 1_555
H40 C38 1_555 1_555
H41 C38 1_555 1_555
H42 C38 1_555 1_555
C39 C21 1_555 1_555
H43 C39 1_555 1_555
H44 C39 1_555 1_555
H45 C39 1_555 1_555
C40 O4 1_555 1_555
H46 C40 1_555 1_555
H47 C40 1_555 1_555
C41 C40 1_555 1_555
H48 C41 1_555 1_555
H49 C41 1_555 1_555
H50 C41 1_555 1_555
C42 C37 1_555 1_555
C43 C23 1_555 1_555
H51 C43 1_555 1_555
H52 C43 1_555 1_555
C44 C25 1_555 1_555
H53 C44 1_555 1_555
H54 C44 1_555 1_555
H55 C44 1_555 1_555
C45 O8 1_555 1_555
H56 C45 1_555 1_555
H57 C45 1_555 1_555
O11 C43 1_555 1_555
H58 O11 1_555 1_555
C46 C45 1_555 1_555
H59 C46 1_555 1_555
H60 C46 1_555 1_555
H61 C46 1_555 1_555
C5 C22 1_555 1_555
N4 B1 1_555 1_555
C7 C14 1_555 1_555
C11 C16 1_555 1_555
C12 C21 1_555 1_555
C12 C24 1_555 1_555
C17 C27 1_555 1_555
C18 C36 1_555 1_555
C20 C28 1_555 1_555
C29 C34 1_555 1_555
C30 C31 1_555 1_555

#END
