
#######################################################################
#
#                 Cambridge Crystallographic Data Centre
#                                CCDC 
#
#######################################################################
#
# If this CIF has been generated from an entry in the Cambridge 
# Structural Database, then it will include bibliographic, chemical, 
# crystal, experimental, refinement or atomic coordinate data resulting 
# from the CCDC's data processing and validation procedures.
#
#######################################################################

data_ADOPAM
_chemical_formula_moiety         'C27 H26 N4 O8 S1,C1 H2 Cl2'
_chemical_name_systematic        
"Methyl 2,8-diethyl-4-(4-nitrophenyl)-1,3,7,9-tetraoxo-6-(2-thienyl)dodecahydro-9bH-dipyrrolo[3,4-a:3',4'-f]pyrrolizine-9b-carboxylate dichloromethane solvate"
_symmetry_cell_setting           monoclinic
_symmetry_space_group_name_H-M   'P 21/c'
_symmetry_Int_Tables_number      14
_space_group_name_Hall           '-P 2ybc'
loop_
_symmetry_equiv_pos_site_id
_symmetry_equiv_pos_as_xyz
1 x,y,z
2 -x,1/2+y,1/2-z
3 -x,-y,-z
4 x,1/2-y,1/2+z
_cell_length_a                   11.5934(4)
_cell_length_b                   23.9267(7)
_cell_length_c                   12.5474(5)
_cell_angle_alpha                90
_cell_angle_beta                 116.043(4)
_cell_angle_gamma                90
_cell_volume                     3127.15
_exptl_crystal_colour            colorless
_exptl_crystal_description       rod
_cell_formula_units_Z            4
loop_
_atom_site_label
_atom_site_type_symbol
_atom_site_fract_x
_atom_site_fract_y
_atom_site_fract_z
Cl1 Cl 0.28131(9) 0.37289(4) 0.22252(9)
Cl2 Cl 0.03138(10) 0.42058(4) 0.07170(14)
C1 C 0.1456(4) 0.37065(15) 0.0838(3)
H1 H 0.1724 0.3767 0.0216
H2 H 0.1070 0.3338 0.0723
S1 S 0.57710(7) 0.06484(3) 0.04501(7)
O1 O 0.4269(3) -0.13108(8) 0.3667(2)
O2 O 0.2845(4) -0.12471(9) 0.1879(3)
O3 O 0.81368(15) 0.21615(7) 0.28181(16)
O4 O 0.52357(15) 0.28778(7) 0.39551(14)
O5 O 0.19522(14) 0.18042(6) -0.00700(13)
O6 O 0.26121(15) 0.26815(7) -0.01121(14)
O7 O 0.08644(14) 0.23229(7) 0.13698(14)
O8 O 0.26101(16) 0.08732(7) 0.39057(16)
N1 N 0.3668(3) -0.10430(9) 0.2762(3)
N2 N 0.68616(16) 0.24796(7) 0.36581(15)
N3 N 0.42391(16) 0.15612(7) 0.17301(14)
N4 N 0.14762(17) 0.15240(8) 0.24935(16)
C2 C 0.52234(19) 0.16229(8) 0.12814(18)
H3 H 0.4743 0.1632 0.0415
C3 C 0.5809(2) 0.22246(8) 0.16489(18)
H4 H 0.5854 0.2411 0.0973
C4 C 0.7085(2) 0.22718(9) 0.2734(2)
C5 C 0.5619(2) 0.26525(8) 0.33040(18)
C6 C 0.48574(19) 0.25322(8) 0.19897(17)
H5 H 0.4568 0.2881 0.1540
C7 C 0.37130(19) 0.21208(8) 0.16743(17)
C8 C 0.31248(19) 0.21165(8) 0.25651(17)
H6 H 0.3343 0.2463 0.3029
C9 C 0.16931(19) 0.20144(9) 0.20395(18)
C10 C 0.2588(2) 0.12777(9) 0.33208(19)
C11 C 0.37336(19) 0.16128(8) 0.33820(17)
H7 H 0.4253 0.1741 0.4196
C12 C 0.46080(19) 0.13096(8) 0.29042(17)
H8 H 0.5510 0.1397 0.3420
C13 C 0.4431(2) 0.06819(8) 0.28094(19)
C14 C 0.5253(2) 0.03366(10) 0.3716(2)
H9 H 0.5965 0.0490 0.4344
C15 C 0.5028(3) -0.02309(10) 0.3697(2)
H10 H 0.5576 -0.0462 0.4304
C16 C 0.3967(3) -0.04443(9) 0.2753(2)
C17 C 0.3160(3) -0.01205(10) 0.1813(2)
H11 H 0.2472 -0.0279 0.1172
C18 C 0.3401(2) 0.04468(9) 0.1846(2)
H12 H 0.2870 0.0673 0.1219
C19 C 0.6114(2) 0.11325(9) 0.1549(2)
C20 C 0.7180(2) 0.09597(9) 0.2633(2)
H13 H 0.7533 0.1162 0.3336
C21 C 0.7606(3) 0.04226(12) 0.2445(3)
H14 H 0.8286 0.0233 0.3036
C22 C 0.6944(3) 0.02149(12) 0.1345(4)
H15 H 0.7114 -0.0130 0.1105
C23 C 0.0180(2) 0.13145(11) 0.2198(2)
H16 H -0.0379 0.1627 0.2140
H17 H 0.0211 0.1071 0.2828
C24 C -0.0362(3) 0.09992(15) 0.1048(3)
H18 H -0.0344 0.1232 0.0433
H19 H -0.1233 0.0894 0.0848
H20 H 0.0142 0.0670 0.1129
C25 C 0.27072(19) 0.22437(9) 0.03954(18)
C26 C 0.0866(2) 0.18956(12) -0.1213(2)
H21 H 0.0369 0.2206 -0.1158
H22 H 0.0339 0.1566 -0.1441
H23 H 0.1169 0.1975 -0.1796
C27 C 0.7876(2) 0.25585(10) 0.4863(2)
H24 H 0.7635 0.2858 0.5246
H25 H 0.8664 0.2666 0.4827
C28 C 0.8105(3) 0.20332(11) 0.5588(2)
H26 H 0.7326 0.1927 0.5628
H27 H 0.8765 0.2099 0.6375
H28 H 0.8369 0.1739 0.5224
loop_
_geom_bond_atom_site_label_1
_geom_bond_atom_site_label_2
_geom_bond_site_symmetry_1
_geom_bond_site_symmetry_2
Cl1 C1 1_555 1_555
Cl2 C1 1_555 1_555
C1 H1 1_555 1_555
H2 C1 1_555 1_555
S1 C19 1_555 1_555
O1 N1 1_555 1_555
O2 N1 1_555 1_555
O3 C4 1_555 1_555
O4 C5 1_555 1_555
O5 C25 1_555 1_555
O6 C25 1_555 1_555
O7 C9 1_555 1_555
O8 C10 1_555 1_555
N1 C16 1_555 1_555
N2 C4 1_555 1_555
N3 C2 1_555 1_555
N4 C9 1_555 1_555
C2 H3 1_555 1_555
C3 C2 1_555 1_555
H4 C3 1_555 1_555
C4 C3 1_555 1_555
C5 N2 1_555 1_555
C6 C3 1_555 1_555
H5 C6 1_555 1_555
C7 N3 1_555 1_555
C8 C7 1_555 1_555
H6 C8 1_555 1_555
C9 C8 1_555 1_555
C10 N4 1_555 1_555
C11 C8 1_555 1_555
H7 C11 1_555 1_555
C12 N3 1_555 1_555
H8 C12 1_555 1_555
C13 C12 1_555 1_555
C14 C13 1_555 1_555
H9 C14 1_555 1_555
C15 C14 1_555 1_555
H10 C15 1_555 1_555
C16 C15 1_555 1_555
C17 C16 1_555 1_555
H11 C17 1_555 1_555
C18 C13 1_555 1_555
H12 C18 1_555 1_555
C19 C2 1_555 1_555
C20 C19 1_555 1_555
H13 C20 1_555 1_555
C21 C20 1_555 1_555
H14 C21 1_555 1_555
C22 S1 1_555 1_555
H15 C22 1_555 1_555
C23 N4 1_555 1_555
H16 C23 1_555 1_555
H17 C23 1_555 1_555
C24 C23 1_555 1_555
H18 C24 1_555 1_555
H19 C24 1_555 1_555
H20 C24 1_555 1_555
C25 C7 1_555 1_555
C26 O5 1_555 1_555
H21 C26 1_555 1_555
H22 C26 1_555 1_555
H23 C26 1_555 1_555
C27 N2 1_555 1_555
H24 C27 1_555 1_555
H25 C27 1_555 1_555
C28 C27 1_555 1_555
H26 C28 1_555 1_555
H27 C28 1_555 1_555
H28 C28 1_555 1_555
C5 C6 1_555 1_555
C6 C7 1_555 1_555
C10 C11 1_555 1_555
C11 C12 1_555 1_555
C17 C18 1_555 1_555
C21 C22 1_555 1_555

#END
