
#######################################################################
#
#                 Cambridge Crystallographic Data Centre
#                                CCDC 
#
#######################################################################
#
# If this CIF has been generated from an entry in the Cambridge 
# Structural Database, then it will include bibliographic, chemical, 
# crystal, experimental, refinement or atomic coordinate data resulting 
# from the CCDC's data processing and validation procedures.
#
#######################################################################

data_ADOPUH
_chemical_formula_moiety         'C74 H82 N4 O4,4.4(C7 H8)'
_chemical_name_systematic        
"(5,5'-([1^1^,2^1^:2^4^,3^1^-terphenyl]-1^4^,3^4^-diyl)bis(1,3-bis(2,6-di-isopropylphenyl)-6-oxo-3,6-dihydropyrimidin-1-ium-4-olate)) toluene solvate"
_symmetry_cell_setting           monoclinic
_symmetry_space_group_name_H-M   'P 21/n'
_symmetry_Int_Tables_number      14
_space_group_name_Hall           '-P 2yn'
loop_
_symmetry_equiv_pos_site_id
_symmetry_equiv_pos_as_xyz
1 x,y,z
2 1/2-x,1/2+y,1/2-z
3 -x,-y,-z
4 1/2+x,1/2-y,1/2+z
_cell_length_a                   19.3986(12)
_cell_length_b                   20.1631(14)
_cell_length_c                   22.2441(14)
_cell_angle_alpha                90
_cell_angle_beta                 94.617(2)
_cell_angle_gamma                90
_cell_volume                     8672.23
_exptl_crystal_colour            yellow
_exptl_crystal_description       plate
_cell_formula_units_Z            4
loop_
_atom_site_label
_atom_site_type_symbol
_atom_site_fract_x
_atom_site_fract_y
_atom_site_fract_z
O1 O 0.08537(7) 0.25468(7) 0.74896(6)
O2 O 0.26009(8) 0.42035(7) 0.75254(7)
N1 N 0.26477(8) 0.32549(8) 0.69740(7)
N2 N 0.18135(8) 0.24437(8) 0.69749(7)
C1 C 0.23976(10) 0.26731(10) 0.67992(8)
H1 H 0.2648 0.2411 0.6537
C2 C 0.14061(10) 0.28031(10) 0.73909(8)
C3 C 0.17092(10) 0.34022(10) 0.76256(8)
C4 C 0.23133(10) 0.36740(10) 0.74045(9)
C5 C 0.13655(10) 0.37450(10) 0.81088(9)
C6 C 0.10245(10) 0.33786(10) 0.85302(9)
H2 H 0.1020 0.2908 0.8505
C7 C 0.06955(10) 0.36852(10) 0.89811(9)
H3 H 0.0464 0.3422 0.9256
C8 C 0.06941(10) 0.43749(10) 0.90429(9)
C9 C 0.10440(11) 0.47417(10) 0.86323(10)
H4 H 0.1059 0.5211 0.8666
C10 C 0.13716(11) 0.44354(10) 0.81745(10)
H5 H 0.1604 0.4699 0.7901
C11 C 0.03403(10) 0.46933(10) 0.95330(9)
C12 C -0.02861(10) 0.44475(10) 0.97089(9)
H6 H -0.0487 0.4068 0.9512
C13 C -0.06212(10) 0.47462(10) 1.01656(9)
H7 H -0.1047 0.4569 1.0276
C14 C 0.15997(10) 0.17757(10) 0.67975(9)
C15 C 0.11144(11) 0.17052(11) 0.63032(9)
C16 C 0.09234(12) 0.10608(12) 0.61403(10)
H8 H 0.0598 0.0989 0.5804
C17 C 0.12021(12) 0.05238(11) 0.64618(10)
H9 H 0.1065 0.0087 0.6344
C18 C 0.16785(12) 0.06130(11) 0.69542(10)
H10 H 0.1864 0.0238 0.7169
C19 C 0.18880(11) 0.12474(10) 0.71374(9)
C20 C 0.08349(12) 0.23088(12) 0.59546(10)
H11 H 0.0851 0.2690 0.6243
C21 C 0.12977(13) 0.24885(13) 0.54538(11)
H12 H 0.1762 0.2600 0.5632
H13 H 0.1102 0.2871 0.5228
H14 H 0.1326 0.2110 0.5180
C22 C 0.00857(13) 0.22286(14) 0.57039(12)
H15 H 0.0055 0.1878 0.5398
H16 H -0.0081 0.2647 0.5521
H17 H -0.0200 0.2109 0.6031
C23 C 0.23824(11) 0.13559(11) 0.76974(10)
H18 H 0.2575 0.1815 0.7674
C24 C 0.19905(15) 0.13175(15) 0.82644(11)
H19 H 0.1630 0.1659 0.8247
H20 H 0.2313 0.1390 0.8621
H21 H 0.1777 0.0879 0.8289
C25 C 0.29920(12) 0.08722(12) 0.77349(11)
H22 H 0.2819 0.0417 0.7764
H23 H 0.3303 0.0974 0.8093
H24 H 0.3245 0.0916 0.7373
C26 C 0.33280(10) 0.34385(10) 0.67923(10)
C27 C 0.33731(12) 0.37434(11) 0.62322(10)
C28 C 0.40398(14) 0.38767(13) 0.60697(12)
H25 H 0.4098 0.4082 0.5693
C29 C 0.46185(13) 0.37155(14) 0.64480(14)
H26 H 0.5066 0.3806 0.6324
C30 C 0.45543(12) 0.34269(13) 0.69994(13)
H27 H 0.4956 0.3322 0.7254
C31 C 0.38993(11) 0.32868(11) 0.71887(10)
C32 C 0.27412(13) 0.39554(12) 0.58312(10)
H28 H 0.2327 0.3746 0.5993
C33 C 0.27647(17) 0.37332(17) 0.51761(12)
H29 H 0.3151 0.3953 0.4999
H30 H 0.2330 0.3853 0.4947
H31 H 0.2828 0.3251 0.5163
C34 C 0.26559(18) 0.47084(14) 0.58701(14)
H32 H 0.2617 0.4837 0.6291
H33 H 0.2237 0.4844 0.5625
H34 H 0.3059 0.4927 0.5719
C35 C 0.38345(11) 0.29995(12) 0.78134(10)
H35 H 0.3335 0.2902 0.7852
C36 C 0.42359(13) 0.23512(14) 0.79133(14)
H36 H 0.4074 0.2030 0.7603
H37 H 0.4160 0.2173 0.8313
H38 H 0.4730 0.2435 0.7888
C37 C 0.40631(16) 0.35234(16) 0.82880(13)
H39 H 0.4547 0.3643 0.8248
H40 H 0.4016 0.3344 0.8692
H41 H 0.3772 0.3919 0.8227
O1B O -0.08537(7) 0.74532(7) 1.25104(6)
O2B O -0.26009(8) 0.57965(7) 1.24746(7)
N1B N -0.26477(8) 0.67451(8) 1.30260(7)
N2B N -0.18135(8) 0.75563(8) 1.30251(7)
C1B C -0.23976(10) 0.73269(10) 1.32008(8)
H1B H -0.2648 0.7589 1.3463
C2B C -0.14061(10) 0.71969(10) 1.26091(8)
C3B C -0.17092(10) 0.65978(10) 1.23744(8)
C4B C -0.23133(10) 0.63260(10) 1.25955(9)
C5B C -0.13655(10) 0.62550(10) 1.18912(9)
C6B C -0.10245(10) 0.66214(10) 1.14698(9)
H2B H -0.1020 0.7092 1.1495
C7B C -0.06955(10) 0.63148(10) 1.10189(9)
H3B H -0.0464 0.6578 1.0744
C8B C -0.06941(10) 0.56251(10) 1.09571(9)
C9B C -0.10440(11) 0.52583(10) 1.13677(10)
H4B H -0.1059 0.4789 1.1334
C10B C -0.13716(11) 0.55646(10) 1.18255(10)
H5B H -0.1604 0.5301 1.2099
C11B C -0.03403(10) 0.53067(10) 1.04670(9)
C12B C 0.02861(10) 0.55525(10) 1.02911(9)
H6B H 0.0487 0.5932 1.0488
C13B C 0.06212(10) 0.52538(10) 0.98344(9)
H7B H 0.1047 0.5431 0.9724
C14B C -0.15997(10) 0.82243(10) 1.32025(9)
C15B C -0.11144(11) 0.82948(11) 1.36968(9)
C16B C -0.09234(12) 0.89392(12) 1.38597(10)
H8B H -0.0598 0.9011 1.4196
C17B C -0.12021(12) 0.94762(11) 1.35382(10)
H9B H -0.1065 0.9913 1.3656
C18B C -0.16785(12) 0.93870(11) 1.30458(10)
H10B H -0.1864 0.9762 1.2831
C19B C -0.18880(11) 0.87526(10) 1.28626(9)
C20B C -0.08349(12) 0.76912(12) 1.40454(10)
H11B H -0.0851 0.7310 1.3757
C21B C -0.12977(13) 0.75115(13) 1.45462(11)
H12B H -0.1762 0.7400 1.4368
H13B H -0.1102 0.7129 1.4772
H14B H -0.1326 0.7890 1.4820
C22B C -0.00857(13) 0.77714(14) 1.42961(12)
H15B H -0.0055 0.8122 1.4602
H16B H 0.0081 0.7353 1.4479
H17B H 0.0200 0.7891 1.3969
C23B C -0.23824(11) 0.86441(11) 1.23026(10)
H18B H -0.2575 0.8185 1.2326
C24B C -0.19905(15) 0.86825(15) 1.17356(11)
H19B H -0.1630 0.8341 1.1753
H20B H -0.2313 0.8610 1.1379
H21B H -0.1777 0.9121 1.1711
C25B C -0.29920(12) 0.91278(12) 1.22651(11)
H22B H -0.2819 0.9583 1.2236
H23B H -0.3303 0.9026 1.1907
H24B H -0.3245 0.9084 1.2627
C26B C -0.33280(10) 0.65615(10) 1.32077(10)
C27B C -0.33731(12) 0.62566(11) 1.37678(10)
C28B C -0.40398(14) 0.61233(13) 1.39303(12)
H25B H -0.4098 0.5918 1.4307
C29B C -0.46185(13) 0.62845(14) 1.35520(14)
H26B H -0.5066 0.6194 1.3676
C30B C -0.45543(12) 0.65731(13) 1.30006(13)
H27B H -0.4956 0.6678 1.2746
C31B C -0.38993(11) 0.67132(11) 1.28113(10)
C32B C -0.27412(13) 0.60446(12) 1.41688(10)
H28B H -0.2327 0.6254 1.4007
C33B C -0.27647(17) 0.62668(17) 1.48239(12)
H29B H -0.3151 0.6047 1.5001
H30B H -0.2330 0.6147 1.5053
H31B H -0.2828 0.6749 1.4837
C34B C -0.26559(18) 0.52916(14) 1.41299(14)
H32B H -0.2617 0.5163 1.3709
H33B H -0.2237 0.5156 1.4375
H34B H -0.3059 0.5073 1.4281
C35B C -0.38345(11) 0.70005(12) 1.21866(10)
H35B H -0.3335 0.7098 1.2148
C36B C -0.42359(13) 0.76488(14) 1.20867(14)
H36B H -0.4074 0.7970 1.2397
H37B H -0.4160 0.7827 1.1687
H38B H -0.4730 0.7565 1.2112
C37B C -0.40631(16) 0.64766(16) 1.17120(13)
H39B H -0.4547 0.6357 1.1752
H40B H -0.4016 0.6656 1.1308
H41B H -0.3772 0.6081 1.1773
O3 O 0.59855(8) 0.21909(7) 0.77975(7)
O4 O 0.72406(8) 0.41274(7) 0.73376(7)
N3 N 0.73491(8) 0.31491(8) 0.68470(7)
N4 N 0.67619(8) 0.22088(8) 0.70889(7)
C38 C 0.71990(10) 0.25186(10) 0.67655(8)
H42 H 0.7413 0.2279 0.6463
C39 C 0.63975(10) 0.25381(10) 0.75507(9)
C40 C 0.65623(10) 0.32174(10) 0.76448(9)
C41 C 0.70423(10) 0.35519(10) 0.73031(9)
C42 C 0.62309(10) 0.35883(10) 0.81219(9)
C43 C 0.60257(11) 0.32655(10) 0.86366(9)
H43 H 0.6097 0.2801 0.8680
C44 C 0.57200(11) 0.36125(10) 0.90825(9)
H44 H 0.5579 0.3380 0.9423
C45 C 0.56151(10) 0.42960(10) 0.90430(9)
C46 C 0.58169(11) 0.46176(10) 0.85323(9)
H45 H 0.5750 0.5083 0.8493
C47 C 0.61139(11) 0.42730(10) 0.80797(9)
H46 H 0.6241 0.4506 0.7734
C48 C 0.52977(10) 0.46577(10) 0.95302(8)
C49 C 0.55866(10) 0.52498(10) 0.97617(9)
H47 H 0.5988 0.5425 0.9601
C50 C 0.52943(10) 0.55844(10) 1.02239(9)
H48 H 0.5500 0.5985 1.0376
C51 C 0.65982(10) 0.15177(10) 0.69468(9)
C52 C 0.69607(12) 0.10193(11) 0.72709(10)
C53 C 0.68117(14) 0.03665(12) 0.70944(11)
H49 H 0.7046 0.0010 0.7303
C54 C 0.63253(14) 0.02332(12) 0.66183(12)
H50 H 0.6243 -0.0213 0.6495
C55 C 0.59594(13) 0.07388(11) 0.63217(11)
H51 H 0.5620 0.0637 0.6003
C56 C 0.60839(11) 0.13983(10) 0.64859(9)
C57 C 0.74766(13) 0.11631(12) 0.78059(11)
H52 H 0.7551 0.1654 0.7828
C58 C 0.81763(14) 0.08319(13) 0.77404(13)
H53 H 0.8122 0.0349 0.7750
H54 H 0.8506 0.0971 0.8074
H55 H 0.8349 0.0964 0.7356
C59 C 0.71868(18) 0.0940(2) 0.83931(13)
H56 H 0.6741 0.1158 0.8433
H57 H 0.7511 0.1062 0.8736
H58 H 0.7123 0.0458 0.8386
C60 C 0.56768(12) 0.19528(11) 0.61619(10)
H59 H 0.5801 0.2377 0.6377
C61 C 0.58857(18) 0.20167(15) 0.55154(12)
H60 H 0.6383 0.2105 0.5523
H61 H 0.5630 0.2383 0.5313
H62 H 0.5778 0.1603 0.5296
C62 C 0.49001(14) 0.18477(14) 0.61795(16)
H63 H 0.4759 0.1453 0.5943
H64 H 0.4652 0.2236 0.6008
H65 H 0.4790 0.1786 0.6598
C63 C 0.78556(11) 0.34598(10) 0.64857(9)
C64 C 0.85422(11) 0.34821(12) 0.67355(10)
C65 C 0.90191(13) 0.37843(15) 0.63913(13)
H66 H 0.9492 0.3802 0.6540
C66 C 0.88193(16) 0.40581(17) 0.58395(14)
H67 H 0.9154 0.4266 0.5614
C67 C 0.81361(15) 0.40344(15) 0.56073(13)
H68 H 0.8008 0.4229 0.5226
C68 C 0.76326(12) 0.37280(12) 0.59257(10)
C69 C 0.87538(12) 0.31842(14) 0.73456(11)
H69 H 0.8342 0.3201 0.7589
C70 C 0.93409(14) 0.35701(17) 0.76946(14)
H70 H 0.9400 0.3408 0.8111
H71 H 0.9226 0.4043 0.7695
H72 H 0.9772 0.3505 0.7500
C71 C 0.89565(16) 0.24652(15) 0.72914(14)
H73 H 0.8581 0.2222 0.7067
H74 H 0.9043 0.2273 0.7695
H75 H 0.9377 0.2434 0.7077
C72 C 0.68773(13) 0.37272(13) 0.56785(10)
H76 H 0.6629 0.3392 0.5912
C73 C 0.67865(16) 0.35289(16) 0.50120(12)
H77 H 0.7010 0.3859 0.4770
H78 H 0.6293 0.3507 0.4881
H79 H 0.6999 0.3094 0.4959
C74 C 0.65481(16) 0.44015(16) 0.57769(14)
H80 H 0.6566 0.4496 0.6210
H81 H 0.6065 0.4396 0.5609
H82 H 0.6802 0.4745 0.5575
O3B O 0.40145(8) 0.78091(7) 1.22025(7)
O4B O 0.27594(8) 0.58726(7) 1.26624(7)
N3B N 0.26509(8) 0.68509(8) 1.31530(7)
N4B N 0.32381(8) 0.77912(8) 1.29111(7)
C38B C 0.28010(10) 0.74814(10) 1.32345(8)
H42B H 0.2587 0.7721 1.3537
C39B C 0.36025(10) 0.74619(10) 1.24493(9)
C40B C 0.34377(10) 0.67826(10) 1.23552(9)
C41B C 0.29577(10) 0.64481(10) 1.26969(9)
C42B C 0.37691(10) 0.64117(10) 1.18781(9)
C43B C 0.39743(11) 0.67345(10) 1.13634(9)
H43B H 0.3903 0.7199 1.1320
C44B C 0.42800(11) 0.63875(10) 1.09175(9)
H44B H 0.4421 0.6620 1.0577
C45B C 0.43849(10) 0.57040(10) 1.09570(9)
C46B C 0.41831(11) 0.53824(10) 1.14677(9)
H45B H 0.4250 0.4917 1.1507
C47B C 0.38861(11) 0.57270(10) 1.19203(9)
H46B H 0.3759 0.5494 1.2266
C48B C 0.47023(10) 0.53423(10) 1.04698(8)
C49B C 0.44134(10) 0.47502(10) 1.02383(9)
H47B H 0.4012 0.4575 1.0399
C50B C 0.47057(10) 0.44156(10) 0.97761(9)
H48B H 0.4500 0.4015 0.9624
C51B C 0.34018(10) 0.84823(10) 1.30532(9)
C52B C 0.30393(12) 0.89807(11) 1.27291(10)
C53B C 0.31883(14) 0.96335(12) 1.29056(11)
H49B H 0.2954 0.9990 1.2697
C54B C 0.36747(14) 0.97668(12) 1.33817(12)
H50B H 0.3757 1.0213 1.3505
C55B C 0.40406(13) 0.92612(11) 1.36783(11)
H51B H 0.4380 0.9363 1.3997
C56B C 0.39161(11) 0.86017(10) 1.35141(9)
C57B C 0.25234(13) 0.88369(12) 1.21941(11)
H52B H 0.2449 0.8346 1.2172
C58B C 0.18237(14) 0.91681(13) 1.22596(13)
H53B H 0.1878 0.9651 1.2250
H54B H 0.1494 0.9029 1.1926
H55B H 0.1651 0.9036 1.2644
C59B C 0.28132(18) 0.9060(2) 1.16069(13)
H56B H 0.3259 0.8842 1.1567
H57B H 0.2489 0.8938 1.1264
H58B H 0.2877 0.9542 1.1614
C60B C 0.43232(12) 0.80472(11) 1.38381(10)
H59B H 0.4199 0.7623 1.3623
C61B C 0.41143(18) 0.79833(15) 1.44846(12)
H60B H 0.3617 0.7895 1.4477
H61B H 0.4370 0.7617 1.4687
H62B H 0.4222 0.8397 1.4704
C62B C 0.50999(14) 0.81523(14) 1.38205(16)
H63B H 0.5241 0.8547 1.4057
H64B H 0.5348 0.7764 1.3992
H65B H 0.5210 0.8214 1.3402
C63B C 0.21444(11) 0.65402(10) 1.35143(9)
C64B C 0.14578(11) 0.65179(12) 1.32645(10)
C65B C 0.09809(13) 0.62157(15) 1.36087(13)
H66B H 0.0508 0.6198 1.3460
C66B C 0.11807(16) 0.59419(17) 1.41605(14)
H67B H 0.0846 0.5734 1.4386
C67B C 0.18639(15) 0.59656(15) 1.43927(13)
H68B H 0.1992 0.5771 1.4774
C68B C 0.23674(12) 0.62720(12) 1.40743(10)
C69B C 0.12462(12) 0.68158(14) 1.26544(11)
H69B H 0.1658 0.6799 1.2411
C70B C 0.06591(14) 0.64299(17) 1.23054(14)
H70B H 0.0600 0.6592 1.1889
H71B H 0.0774 0.5957 1.2305
H72B H 0.0228 0.6495 1.2500
C71B C 0.10435(16) 0.75348(15) 1.27086(14)
H73B H 0.1419 0.7778 1.2933
H74B H 0.0957 0.7727 1.2305
H75B H 0.0623 0.7566 1.2923
C72B C 0.31227(13) 0.62728(13) 1.43215(10)
H76B H 0.3371 0.6608 1.4088
C73B C 0.32135(16) 0.64711(16) 1.49880(12)
H77B H 0.2990 0.6141 1.5230
H78B H 0.3707 0.6493 1.5119
H79B H 0.3001 0.6906 1.5041
C74B C 0.34519(16) 0.55985(16) 1.42231(14)
H80B H 0.3434 0.5504 1.3790
H81B H 0.3935 0.5604 1.4391
H82B H 0.3198 0.5255 1.4425
C75 C 0.00504(13) 0.09751(17) 0.84580(12)
C76 C 0.00526(14) 0.16551(16) 0.85561(13)
H83 H 0.0172 0.1945 0.8245
C77 C -0.01141(15) 0.19141(14) 0.90944(14)
H84 H -0.0113 0.2381 0.9150
C78 C -0.02829(15) 0.15051(14) 0.95554(13)
H85 H -0.0403 0.1687 0.9927
C79 C -0.02750(16) 0.08295(14) 0.94703(13)
H86 H -0.0385 0.0542 0.9787
C80 C -0.01088(15) 0.05684(15) 0.89286(14)
H87 H -0.0103 0.0101 0.8877
C81 C 0.0203(2) 0.0689(3) 0.78573(16)
H88 H -0.0228 0.0534 0.7642
H89 H 0.0524 0.0315 0.7921
H90 H 0.0413 0.1030 0.7617
C82 C 0.29400(13) 0.16017(16) 0.45392(13)
C83 C 0.24729(13) 0.10928(15) 0.45946(12)
H91 H 0.2234 0.0914 0.4242
C84 C 0.23462(13) 0.08396(14) 0.51495(13)
H92 H 0.2019 0.0493 0.5178
C85 C 0.26981(13) 0.10922(15) 0.56658(12)
H93 H 0.2613 0.0922 0.6051
C86 C 0.31715(13) 0.15920(15) 0.56159(13)
H94 H 0.3418 0.1764 0.5968
C87 C 0.32920(13) 0.18454(14) 0.50587(14)
H95 H 0.3620 0.2191 0.5031
C88 C 0.3062(2) 0.1877(3) 0.39235(17)
H96 H 0.3084 0.1511 0.3635
H97 H 0.3500 0.2122 0.3948
H98 H 0.2682 0.2176 0.3789
C89 C 0.8116(3) 0.1989(2) 0.4930(3)
C90 C 0.82333(16) 0.1871(2) 0.5489(2)
H99 H 0.8513 0.2179 0.5721
C91 C 0.7982(2) 0.1323(2) 0.5791(2)
H100 H 0.8102 0.1233 0.6206
C92 C 0.7490(2) 0.08780(19) 0.5385(2)
H101 H 0.7266 0.0495 0.5523
C93 C 0.74165(16) 0.1104(2) 0.47998(19)
H102 H 0.7123 0.0866 0.4513
C94 C 0.7736(2) 0.1639(3) 0.4618(3)
H103 H 0.7658 0.1756 0.4204
C95 C 0.8421(4) 0.2594(3) 0.4591(3)
H104 H 0.8911 0.2515 0.4541
H105 H 0.8372 0.2999 0.4827
H106 H 0.8169 0.2645 0.4194
loop_
_geom_bond_atom_site_label_1
_geom_bond_atom_site_label_2
_geom_bond_site_symmetry_1
_geom_bond_site_symmetry_2
O1 C2 1_555 1_555
O2 C4 1_555 1_555
N1 C1 1_555 1_555
N2 C1 1_555 1_555
C1 H1 1_555 1_555
C2 N2 1_555 1_555
C3 C2 1_555 1_555
C4 N1 1_555 1_555
C5 C3 1_555 1_555
C6 C5 1_555 1_555
H2 C6 1_555 1_555
C7 C6 1_555 1_555
H3 C7 1_555 1_555
C8 C7 1_555 1_555
C9 C8 1_555 1_555
H4 C9 1_555 1_555
C10 C5 1_555 1_555
H5 C10 1_555 1_555
C11 C8 1_555 1_555
C12 C11 1_555 1_555
H6 C12 1_555 1_555
C13 C12 1_555 1_555
H7 C13 1_555 1_555
C14 N2 1_555 1_555
C15 C14 1_555 1_555
C16 C15 1_555 1_555
H8 C16 1_555 1_555
C17 C16 1_555 1_555
H9 C17 1_555 1_555
C18 C17 1_555 1_555
H10 C18 1_555 1_555
C19 C14 1_555 1_555
C20 C15 1_555 1_555
H11 C20 1_555 1_555
C21 C20 1_555 1_555
H12 C21 1_555 1_555
H13 C21 1_555 1_555
H14 C21 1_555 1_555
C22 C20 1_555 1_555
H15 C22 1_555 1_555
H16 C22 1_555 1_555
H17 C22 1_555 1_555
C23 C19 1_555 1_555
H18 C23 1_555 1_555
C24 C23 1_555 1_555
H19 C24 1_555 1_555
H20 C24 1_555 1_555
H21 C24 1_555 1_555
C25 C23 1_555 1_555
H22 C25 1_555 1_555
H23 C25 1_555 1_555
H24 C25 1_555 1_555
C26 N1 1_555 1_555
C27 C26 1_555 1_555
C28 C27 1_555 1_555
H25 C28 1_555 1_555
C29 C28 1_555 1_555
H26 C29 1_555 1_555
C30 C29 1_555 1_555
H27 C30 1_555 1_555
C31 C26 1_555 1_555
C32 C27 1_555 1_555
H28 C32 1_555 1_555
C33 C32 1_555 1_555
H29 C33 1_555 1_555
H30 C33 1_555 1_555
H31 C33 1_555 1_555
C34 C32 1_555 1_555
H32 C34 1_555 1_555
H33 C34 1_555 1_555
H34 C34 1_555 1_555
C35 C31 1_555 1_555
H35 C35 1_555 1_555
C36 C35 1_555 1_555
H36 C36 1_555 1_555
H37 C36 1_555 1_555
H38 C36 1_555 1_555
C37 C35 1_555 1_555
H39 C37 1_555 1_555
H40 C37 1_555 1_555
H41 C37 1_555 1_555
O3 C39 1_555 1_555
O4 C41 1_555 1_555
N3 C38 1_555 1_555
N4 C38 1_555 1_555
C38 H42 1_555 1_555
C39 N4 1_555 1_555
C40 C39 1_555 1_555
C41 N3 1_555 1_555
C42 C40 1_555 1_555
C43 C42 1_555 1_555
H43 C43 1_555 1_555
C44 C43 1_555 1_555
H44 C44 1_555 1_555
C45 C44 1_555 1_555
C46 C45 1_555 1_555
H45 C46 1_555 1_555
C47 C42 1_555 1_555
H46 C47 1_555 1_555
C48 C45 1_555 1_555
C49 C48 1_555 1_555
H47 C49 1_555 1_555
C50 C49 1_555 1_555
H48 C50 1_555 1_555
C51 N4 1_555 1_555
C52 C51 1_555 1_555
C53 C52 1_555 1_555
H49 C53 1_555 1_555
C54 C53 1_555 1_555
H50 C54 1_555 1_555
C55 C54 1_555 1_555
H51 C55 1_555 1_555
C56 C51 1_555 1_555
C57 C52 1_555 1_555
H52 C57 1_555 1_555
C58 C57 1_555 1_555
H53 C58 1_555 1_555
H54 C58 1_555 1_555
H55 C58 1_555 1_555
C59 C57 1_555 1_555
H56 C59 1_555 1_555
H57 C59 1_555 1_555
H58 C59 1_555 1_555
C60 C56 1_555 1_555
H59 C60 1_555 1_555
C61 C60 1_555 1_555
H60 C61 1_555 1_555
H61 C61 1_555 1_555
H62 C61 1_555 1_555
C62 C60 1_555 1_555
H63 C62 1_555 1_555
H64 C62 1_555 1_555
H65 C62 1_555 1_555
C63 N3 1_555 1_555
C64 C63 1_555 1_555
C65 C64 1_555 1_555
H66 C65 1_555 1_555
C66 C65 1_555 1_555
H67 C66 1_555 1_555
C67 C66 1_555 1_555
H68 C67 1_555 1_555
C68 C63 1_555 1_555
C69 C64 1_555 1_555
H69 C69 1_555 1_555
C70 C69 1_555 1_555
H70 C70 1_555 1_555
H71 C70 1_555 1_555
H72 C70 1_555 1_555
C71 C69 1_555 1_555
H73 C71 1_555 1_555
H74 C71 1_555 1_555
H75 C71 1_555 1_555
C72 C68 1_555 1_555
H76 C72 1_555 1_555
C73 C72 1_555 1_555
H77 C73 1_555 1_555
H78 C73 1_555 1_555
H79 C73 1_555 1_555
C74 C72 1_555 1_555
H80 C74 1_555 1_555
H81 C74 1_555 1_555
H82 C74 1_555 1_555
C75 C76 1_555 1_555
C76 H83 1_555 1_555
C77 C76 1_555 1_555
H84 C77 1_555 1_555
C78 C77 1_555 1_555
H85 C78 1_555 1_555
C79 C78 1_555 1_555
H86 C79 1_555 1_555
C80 C75 1_555 1_555
H87 C80 1_555 1_555
C81 C75 1_555 1_555
H88 C81 1_555 1_555
H89 C81 1_555 1_555
H90 C81 1_555 1_555
C82 C83 1_555 1_555
C83 H91 1_555 1_555
C84 C83 1_555 1_555
H92 C84 1_555 1_555
C85 C84 1_555 1_555
H93 C85 1_555 1_555
C86 C85 1_555 1_555
H94 C86 1_555 1_555
C87 C82 1_555 1_555
H95 C87 1_555 1_555
C88 C82 1_555 1_555
H96 C88 1_555 1_555
H97 C88 1_555 1_555
H98 C88 1_555 1_555
C89 C90 1_555 1_555
C90 H99 1_555 1_555
C91 C90 1_555 1_555
H100 C91 1_555 1_555
C92 C91 1_555 1_555
H101 C92 1_555 1_555
C93 C92 1_555 1_555
H102 C93 1_555 1_555
C94 C89 1_555 1_555
H103 C94 1_555 1_555
C95 C89 1_555 1_555
H104 C95 1_555 1_555
H105 C95 1_555 1_555
H106 C95 1_555 1_555
O1B C2B 1_555 1_555
O2B C4B 1_555 1_555
N1B C1B 1_555 1_555
N2B C1B 1_555 1_555
C1B H1B 1_555 1_555
C2B N2B 1_555 1_555
C3B C2B 1_555 1_555
C4B N1B 1_555 1_555
C5B C3B 1_555 1_555
C6B C5B 1_555 1_555
H2B C6B 1_555 1_555
C7B C6B 1_555 1_555
H3B C7B 1_555 1_555
C8B C7B 1_555 1_555
C9B C8B 1_555 1_555
H4B C9B 1_555 1_555
C10B C5B 1_555 1_555
H5B C10B 1_555 1_555
C11B C13 1_555 1_555
C12B C11B 1_555 1_555
H6B C12B 1_555 1_555
C13B C11 1_555 1_555
H7B C13B 1_555 1_555
C14B N2B 1_555 1_555
C15B C14B 1_555 1_555
C16B C15B 1_555 1_555
H8B C16B 1_555 1_555
C17B C16B 1_555 1_555
H9B C17B 1_555 1_555
C18B C17B 1_555 1_555
H10B C18B 1_555 1_555
C19B C14B 1_555 1_555
C20B C15B 1_555 1_555
H11B C20B 1_555 1_555
C21B C20B 1_555 1_555
H12B C21B 1_555 1_555
H13B C21B 1_555 1_555
H14B C21B 1_555 1_555
C22B C20B 1_555 1_555
H15B C22B 1_555 1_555
H16B C22B 1_555 1_555
H17B C22B 1_555 1_555
C23B C19B 1_555 1_555
H18B C23B 1_555 1_555
C24B C23B 1_555 1_555
H19B C24B 1_555 1_555
H20B C24B 1_555 1_555
H21B C24B 1_555 1_555
C25B C23B 1_555 1_555
H22B C25B 1_555 1_555
H23B C25B 1_555 1_555
H24B C25B 1_555 1_555
C26B N1B 1_555 1_555
C27B C26B 1_555 1_555
C28B C27B 1_555 1_555
H25B C28B 1_555 1_555
C29B C28B 1_555 1_555
H26B C29B 1_555 1_555
C30B C29B 1_555 1_555
H27B C30B 1_555 1_555
C31B C26B 1_555 1_555
C32B C27B 1_555 1_555
H28B C32B 1_555 1_555
C33B C32B 1_555 1_555
H29B C33B 1_555 1_555
H30B C33B 1_555 1_555
H31B C33B 1_555 1_555
C34B C32B 1_555 1_555
H32B C34B 1_555 1_555
H33B C34B 1_555 1_555
H34B C34B 1_555 1_555
C35B C31B 1_555 1_555
H35B C35B 1_555 1_555
C36B C35B 1_555 1_555
H36B C36B 1_555 1_555
H37B C36B 1_555 1_555
H38B C36B 1_555 1_555
C37B C35B 1_555 1_555
H39B C37B 1_555 1_555
H40B C37B 1_555 1_555
H41B C37B 1_555 1_555
O3B C39B 1_555 1_555
O4B C41B 1_555 1_555
N3B C38B 1_555 1_555
N4B C38B 1_555 1_555
C38B H42B 1_555 1_555
C39B N4B 1_555 1_555
C40B C39B 1_555 1_555
C41B N3B 1_555 1_555
C42B C40B 1_555 1_555
C43B C42B 1_555 1_555
H43B C43B 1_555 1_555
C44B C43B 1_555 1_555
H44B C44B 1_555 1_555
C45B C44B 1_555 1_555
C46B C45B 1_555 1_555
H45B C46B 1_555 1_555
C47B C42B 1_555 1_555
H46B C47B 1_555 1_555
C48B C50 1_555 1_555
C49B C48B 1_555 1_555
H47B C49B 1_555 1_555
C50B C48 1_555 1_555
H48B C50B 1_555 1_555
C51B N4B 1_555 1_555
C52B C51B 1_555 1_555
C53B C52B 1_555 1_555
H49B C53B 1_555 1_555
C54B C53B 1_555 1_555
H50B C54B 1_555 1_555
C55B C54B 1_555 1_555
H51B C55B 1_555 1_555
C56B C51B 1_555 1_555
C57B C52B 1_555 1_555
H52B C57B 1_555 1_555
C58B C57B 1_555 1_555
H53B C58B 1_555 1_555
H54B C58B 1_555 1_555
H55B C58B 1_555 1_555
C59B C57B 1_555 1_555
H56B C59B 1_555 1_555
H57B C59B 1_555 1_555
H58B C59B 1_555 1_555
C60B C56B 1_555 1_555
H59B C60B 1_555 1_555
C61B C60B 1_555 1_555
H60B C61B 1_555 1_555
H61B C61B 1_555 1_555
H62B C61B 1_555 1_555
C62B C60B 1_555 1_555
H63B C62B 1_555 1_555
H64B C62B 1_555 1_555
H65B C62B 1_555 1_555
C63B N3B 1_555 1_555
C64B C63B 1_555 1_555
C65B C64B 1_555 1_555
H66B C65B 1_555 1_555
C66B C65B 1_555 1_555
H67B C66B 1_555 1_555
C67B C66B 1_555 1_555
H68B C67B 1_555 1_555
C68B C63B 1_555 1_555
C69B C64B 1_555 1_555
H69B C69B 1_555 1_555
C70B C69B 1_555 1_555
H70B C70B 1_555 1_555
H71B C70B 1_555 1_555
H72B C70B 1_555 1_555
C71B C69B 1_555 1_555
H73B C71B 1_555 1_555
H74B C71B 1_555 1_555
H75B C71B 1_555 1_555
C72B C68B 1_555 1_555
H76B C72B 1_555 1_555
C73B C72B 1_555 1_555
H77B C73B 1_555 1_555
H78B C73B 1_555 1_555
H79B C73B 1_555 1_555
C74B C72B 1_555 1_555
H80B C74B 1_555 1_555
H81B C74B 1_555 1_555
H82B C74B 1_555 1_555
C3 C4 1_555 1_555
C9 C10 1_555 1_555
C18 C19 1_555 1_555
C30 C31 1_555 1_555
C40 C41 1_555 1_555
C46 C47 1_555 1_555
C55 C56 1_555 1_555
C67 C68 1_555 1_555
C79 C80 1_555 1_555
C86 C87 1_555 1_555
C93 C94 1_555 1_555
C3B C4B 1_555 1_555
C8B C11B 1_555 1_555
C9B C10B 1_555 1_555
C12B C13B 1_555 1_555
C18B C19B 1_555 1_555
C30B C31B 1_555 1_555
C40B C41B 1_555 1_555
C45B C48B 1_555 1_555
C46B C47B 1_555 1_555
C49B C50B 1_555 1_555
C55B C56B 1_555 1_555
C67B C68B 1_555 1_555

#END
