
#######################################################################
#
#                 Cambridge Crystallographic Data Centre
#                                CCDC 
#
#######################################################################
#
# If this CIF has been generated from an entry in the Cambridge 
# Structural Database, then it will include bibliographic, chemical, 
# crystal, experimental, refinement or atomic coordinate data resulting 
# from the CCDC's data processing and validation procedures.
#
#######################################################################

data_ADOQUI
_chemical_formula_moiety         'C36 H36 N4 O2,1.5(C1 H4 O1)'
_chemical_name_systematic        
"(7-butyl-5,5b,9,10,15,15b,17,18-octahydroindolo[2''',3''':3'',4'']pyrido[1'',2'':3',4']pyrimido[1',2':1,2]pyrido[3,4-b]indol-6-yl)(4-methoxyphenyl)methanone methanol solvate"
_symmetry_cell_setting           triclinic
_symmetry_space_group_name_H-M   'P -1'
_symmetry_Int_Tables_number      2
_space_group_name_Hall           '-P 1'
loop_
_symmetry_equiv_pos_site_id
_symmetry_equiv_pos_as_xyz
1 x,y,z
2 -x,-y,-z
_cell_length_a                   13.255(2)
_cell_length_b                   15.682(3)
_cell_length_c                   17.830(3)
_cell_angle_alpha                87.669(10)
_cell_angle_beta                 72.107(9)
_cell_angle_gamma                70.902(9)
_cell_volume                     3325.45
_cell_formula_units_Z            4
loop_
_atom_site_label
_atom_site_type_symbol
_atom_site_fract_x
_atom_site_fract_y
_atom_site_fract_z
N1 N 0.1398(4) 0.4907(2) 0.4027(2)
H1 H 0.1891 0.5049 0.4167
O1 O -0.4135(4) 1.1989(3) 0.3231(2)
N2 N 0.1432(3) 0.9062(2) 0.3829(2)
H2 H 0.0999 0.9404 0.4247
O2 O -0.0792(3) 0.9497(2) 0.4917(2)
N3 N -0.1013(4) 0.6937(3) 0.3942(3)
N4 N 0.0910(3) 0.6886(2) 0.3755(2)
C1 C 0.1348(4) 0.8267(3) 0.3596(3)
C2 C 0.2812(4) 0.8499(3) 0.2691(3)
C3 C 0.0417(4) 0.5500(3) 0.3946(3)
C4 C 0.0508(4) 0.7840(3) 0.4080(3)
H3 H 0.0544 0.7827 0.4621
C5 C -0.0717(4) 0.8327(3) 0.4120(3)
C6 C 0.2331(4) 0.9213(3) 0.3277(3)
C7 C -0.1842(4) 1.0018(3) 0.4044(3)
C8 C 0.2164(4) 0.7910(3) 0.2906(3)
C9 C -0.1110(4) 0.9292(3) 0.4390(3)
C10 C 0.1208(5) 0.6815(3) 0.2887(3)
H4 H 0.0598 0.7225 0.2724
H5 H 0.1324 0.6204 0.2708
C11 C -0.0175(5) 0.5048(3) 0.3725(3)
C12 C 0.0029(4) 0.6495(3) 0.4140(3)
H6 H -0.0146 0.6589 0.4712
C13 C 0.1450(5) 0.4042(3) 0.3846(3)
C14 C 0.0468(5) 0.4103(3) 0.3669(3)
C15 C -0.2588(5) 1.0782(3) 0.4510(3)
H7 H -0.2591 1.0858 0.5026
C16 C -0.1407(4) 0.7875(3) 0.4060(3)
C17 C 0.2735(5) 0.9923(4) 0.3243(4)
H8 H 0.2401 1.0395 0.3632
C18 C -0.1798(4) 0.9962(3) 0.3266(3)
H9 H -0.1264 0.9470 0.2938
C19 C -0.1273(5) 0.5525(4) 0.3615(4)
H10 H -0.1750 0.5151 0.3764
H11 H -0.1173 0.5649 0.3065
C20 C -0.2643(5) 0.8329(4) 0.4160(4)
H12 H -0.3066 0.8018 0.4547
H13 H -0.2866 0.8945 0.4373
C21 C -0.3322(5) 1.1339(3) 0.3443(3)
C22 C 0.0318(6) 0.3302(3) 0.3486(3)
H14 H -0.0324 0.3327 0.3365
C23 C -0.2522(5) 1.0613(3) 0.2958(3)
H15 H -0.2469 1.0563 0.2428
C24 C 0.3753(5) 0.8500(4) 0.2061(3)
H16 H 0.4091 0.8030 0.1669
C25 C 0.3667(5) 0.9904(4) 0.2601(4)
H17 H 0.3955 1.0377 0.2559
C26 C 0.2278(6) 0.3218(4) 0.3825(4)
H18 H 0.2938 0.3182 0.3926
C27 C -0.3329(5) 1.1435(3) 0.4217(4)
H19 H -0.3836 1.1943 0.4538
C28 C 0.4173(5) 0.9197(5) 0.2026(4)
H20 H 0.4805 0.9194 0.1611
C29 C 0.2271(5) 0.7049(3) 0.2518(3)
H21 H 0.2913 0.6568 0.2583
H22 H 0.2389 0.7114 0.1957
C30 C 0.1096(7) 0.2501(4) 0.3486(4)
H23 H 0.0981 0.1971 0.3376
C31 C -0.1825(6) 0.6415(4) 0.4131(4)
H24 H -0.2513 0.6766 0.4025
H25 H -0.2009 0.6291 0.4685
C32 C -0.4310(6) 1.1857(5) 0.2505(4)
H26 H -0.4905 1.2369 0.2435
H27 H -0.4510 1.1321 0.2511
H28 H -0.3633 1.1793 0.2079
C33 C -0.2959(7) 0.8351(5) 0.3443(4)
H29 H -0.2667 0.7750 0.3182
H30 H -0.2657 0.8750 0.3081
C34 C 0.2074(7) 0.2451(4) 0.3648(5)
H31 H 0.2606 0.1887 0.3636
C35 C -0.4435(9) 0.8749(6) 0.3727(7)
H32 H -0.4678 0.8756 0.3266
H33 H -0.4727 0.8345 0.4090
C36 C -0.4863(10) 0.9633(10) 0.4098(10)
H34 H -0.5669 0.9839 0.4254
H35 H -0.4587 1.0034 0.3735
H36 H -0.4625 0.9624 0.4556
N5 N 0.8754(3) 0.0665(2) 0.0878(2)
H37 H 0.8267 0.1110 0.0750
O3 O 1.0864(3) 0.4045(2) 0.0093(2)
N6 N 0.8651(3) 0.4793(2) 0.1210(2)
H38 H 0.9076 0.4933 0.0788
O4 O 1.4415(4) 0.4850(3) 0.1322(3)
N7 N 1.1089(3) 0.1340(2) 0.1151(2)
N8 N 0.9184(3) 0.2335(2) 0.12992(19)
C37 C 0.9597(3) 0.3084(3) 0.0972(2)
H39 H 0.9575 0.3139 0.0427
C38 C 0.8770(3) 0.3934(3) 0.1452(2)
C39 C 1.0822(3) 0.2903(3) 0.0956(2)
C40 C 0.9715(4) 0.0694(3) 0.1014(2)
C41 C 1.1460(4) 0.2082(3) 0.1102(3)
C42 C 1.0078(3) 0.1507(3) 0.0904(2)
H40 H 1.0293 0.1595 0.0337
C43 C 0.7744(4) 0.5395(3) 0.1753(3)
C44 C 0.8880(4) 0.2337(3) 0.2168(2)
H41 H 0.9495 0.2376 0.2336
H42 H 0.8747 0.1778 0.2340
C45 C 1.1244(4) 0.3637(3) 0.0608(3)
C46 C 0.7286(4) 0.4891(3) 0.2356(3)
C47 C 0.9670(4) -0.0719(3) 0.1184(2)
C48 C 0.8710(4) -0.0195(3) 0.0982(2)
C49 C 0.7952(4) 0.3964(3) 0.2151(3)
C50 C 1.0287(4) -0.0129(3) 0.1207(3)
C51 C 1.2071(4) 0.3940(3) 0.0832(3)
C52 C 0.7888(4) -0.0550(3) 0.0938(3)
H43 H 0.7262 -0.0201 0.0800
C53 C 1.2638(4) 0.1877(3) 0.1153(3)
H44 H 1.2765 0.2444 0.1205
H45 H 1.2686 0.1563 0.1628
C54 C 1.1344(5) -0.0269(3) 0.1387(4)
H46 H 1.1979 -0.0516 0.0917
H47 H 1.1406 -0.0699 0.1791
C55 C 0.8048(5) -0.1443(4) 0.1108(3)
H48 H 0.7508 -0.1696 0.1096
C56 C 1.3607(5) 0.4526(4) 0.0432(4)
H49 H 1.4121 0.4714 0.0037
C57 C 0.9796(5) -0.1620(3) 0.1334(3)
H50 H 1.0426 -0.1982 0.1461
C58 C 0.7263(5) 0.6325(3) 0.1762(3)
H51 H 0.7577 0.6649 0.1363
C59 C 0.8998(5) -0.1977(3) 0.1296(3)
H52 H 0.9089 -0.2579 0.1397
C60 C 0.7820(4) 0.3143(3) 0.2545(3)
H53 H 0.7168 0.3035 0.2486
H54 H 0.7711 0.3221 0.3105
C61 C 1.2853(4) 0.4216(4) 0.0246(3)
H55 H 1.2863 0.4190 -0.0276
C62 C 1.3604(5) 0.4559(3) 0.1200(4)
C63 C 1.1365(5) 0.0606(4) 0.1668(4)
H56 H 1.0832 0.0780 0.2194
H57 H 1.2107 0.0521 0.1704
C64 C 1.2069(4) 0.3991(3) 0.1604(3)
H58 H 1.1552 0.3811 0.2002
C65 C 1.2828(5) 0.4306(3) 0.1792(3)
H59 H 1.2814 0.4347 0.2314
C66 C 0.6315(5) 0.5357(4) 0.2989(3)
H60 H 0.5993 0.5049 0.3399
C67 C 0.6330(6) 0.6752(4) 0.2362(4)
H61 H 0.5989 0.7374 0.2366
C68 C 0.5871(6) 0.6277(5) 0.2973(4)
H62 H 0.5241 0.6595 0.3384
C69 C 1.3553(5) 0.1316(5) 0.0460(5)
H63 H 1.3499 0.1627 -0.0016
H64 H 1.3432 0.0746 0.0413
C70 C 1.4722(6) 0.1123(6) 0.0506(6)
H65 H 1.4752 0.0843 0.0997
H66 H 1.5236 0.0679 0.0080
C71 C 1.4663(7) 0.4705(5) 0.2008(5)
H67 H 1.5246 0.4947 0.1997
H68 H 1.4914 0.4068 0.2074
H69 H 1.4004 0.4999 0.2441
C72 C 1.5125(8) 0.1849(6) 0.0468(5)
H70 H 1.5862 0.1639 0.0526
H71 H 1.4628 0.2300 0.0884
H72 H 1.5163 0.2108 -0.0034
O5 O 0.4486(10) 0.4027(8) 0.4574(7)
C73 C 0.3792(9) 0.4518(8) 0.4118(6)
O6 O 0.7167(7) 0.3176(6) 0.0185(5)
C74 C 0.7406(4) 0.2472(3) 0.0706(2)
O7 O 0.2715(6) 0.6167(5) 0.4345(4)
C75 C 0.2795(10) 0.6827(8) 0.4844(7)
loop_
_geom_bond_atom_site_label_1
_geom_bond_atom_site_label_2
_geom_bond_site_symmetry_1
_geom_bond_site_symmetry_2
N1 H1 1_555 1_555
O1 C21 1_555 1_555
N2 H2 1_555 1_555
O2 C9 1_555 1_555
N3 C12 1_555 1_555
N4 C4 1_555 1_555
C1 N2 1_555 1_555
C2 C6 1_555 1_555
C3 N1 1_555 1_555
C4 C1 1_555 1_555
H3 C4 1_555 1_555
C5 C4 1_555 1_555
C6 N2 1_555 1_555
C7 C9 1_555 1_555
C8 C1 1_555 1_555
C9 C5 1_555 1_555
C10 N4 1_555 1_555
H4 C10 1_555 1_555
H5 C10 1_555 1_555
C11 C3 1_555 1_555
C12 N4 1_555 1_555
H6 C12 1_555 1_555
C13 N1 1_555 1_555
C14 C11 1_555 1_555
C15 C7 1_555 1_555
H7 C15 1_555 1_555
C16 N3 1_555 1_555
C17 C6 1_555 1_555
H8 C17 1_555 1_555
C18 C7 1_555 1_555
H9 C18 1_555 1_555
C19 C11 1_555 1_555
H10 C19 1_555 1_555
H11 C19 1_555 1_555
C20 C16 1_555 1_555
H12 C20 1_555 1_555
H13 C20 1_555 1_555
C21 C23 1_555 1_555
C22 C14 1_555 1_555
H14 C22 1_555 1_555
C23 C18 1_555 1_555
H15 C23 1_555 1_555
C24 C2 1_555 1_555
H16 C24 1_555 1_555
C25 C17 1_555 1_555
H17 C25 1_555 1_555
C26 C13 1_555 1_555
H18 C26 1_555 1_555
C27 C15 1_555 1_555
H19 C27 1_555 1_555
C28 C24 1_555 1_555
H20 C28 1_555 1_555
C29 C8 1_555 1_555
H21 C29 1_555 1_555
H22 C29 1_555 1_555
C30 C22 1_555 1_555
H23 C30 1_555 1_555
C31 N3 1_555 1_555
H24 C31 1_555 1_555
H25 C31 1_555 1_555
C32 O1 1_555 1_555
H26 C32 1_555 1_555
H27 C32 1_555 1_555
H28 C32 1_555 1_555
C33 C20 1_555 1_555
H29 C33 1_555 1_555
H30 C33 1_555 1_555
C34 C26 1_555 1_555
H31 C34 1_555 1_555
C35 C33 1_555 1_555
H32 C35 1_555 1_555
H33 C35 1_555 1_555
C36 C35 1_555 1_555
H34 C36 1_555 1_555
H35 C36 1_555 1_555
H36 C36 1_555 1_555
N5 H37 1_555 1_555
O3 C45 1_555 1_555
N6 H38 1_555 1_555
O4 C62 1_555 1_555
N7 C41 1_555 1_555
N8 C37 1_555 1_555
C37 H39 1_555 1_555
C38 N6 1_555 1_555
C39 C37 1_555 1_555
C40 N5 1_555 1_555
C41 C39 1_555 1_555
C42 N7 1_555 1_555
H40 C42 1_555 1_555
C43 N6 1_555 1_555
C44 N8 1_555 1_555
H41 C44 1_555 1_555
H42 C44 1_555 1_555
C45 C39 1_555 1_555
C46 C43 1_555 1_555
C47 C48 1_555 1_555
C48 N5 1_555 1_555
C49 C38 1_555 1_555
C50 C40 1_555 1_555
C51 C45 1_555 1_555
C52 C48 1_555 1_555
H43 C52 1_555 1_555
C53 C41 1_555 1_555
H44 C53 1_555 1_555
H45 C53 1_555 1_555
C54 C50 1_555 1_555
H46 C54 1_555 1_555
H47 C54 1_555 1_555
C55 C52 1_555 1_555
H48 C55 1_555 1_555
C56 H49 1_555 1_555
C57 C47 1_555 1_555
H50 C57 1_555 1_555
C58 C43 1_555 1_555
H51 C58 1_555 1_555
C59 C55 1_555 1_555
H52 C59 1_555 1_555
C60 C44 1_555 1_555
H53 C60 1_555 1_555
H54 C60 1_555 1_555
C61 C51 1_555 1_555
H55 C61 1_555 1_555
C62 C56 1_555 1_555
C63 N7 1_555 1_555
H56 C63 1_555 1_555
H57 C63 1_555 1_555
C64 C51 1_555 1_555
H58 C64 1_555 1_555
C65 C62 1_555 1_555
H59 C65 1_555 1_555
C66 C46 1_555 1_555
H60 C66 1_555 1_555
C67 C58 1_555 1_555
H61 C67 1_555 1_555
C68 C66 1_555 1_555
H62 C68 1_555 1_555
C69 C53 1_555 1_555
H63 C69 1_555 1_555
H64 C69 1_555 1_555
C70 C69 1_555 1_555
H65 C70 1_555 1_555
H66 C70 1_555 1_555
C71 O4 1_555 1_555
H67 C71 1_555 1_555
H68 C71 1_555 1_555
H69 C71 1_555 1_555
C72 C70 1_555 1_555
H70 C72 1_555 1_555
H71 C72 1_555 1_555
H72 C72 1_555 1_555
O5 C73 1_555 1_555
O6 C74 1_555 1_555
O7 C75 1_555 1_555
C2 C8 1_555 1_555
C3 C12 1_555 1_555
C5 C16 1_555 1_555
C10 C29 1_555 1_555
C13 C14 1_555 1_555
C19 C31 1_555 1_555
C21 C27 1_555 1_555
C25 C28 1_555 1_555
C30 C34 1_555 1_555
N8 C42 1_555 1_555
C37 C38 1_555 1_555
C40 C42 1_555 1_555
C46 C49 1_555 1_555
C47 C50 1_555 1_555
C49 C60 1_555 1_555
C54 C63 1_555 1_555
C56 C61 1_555 1_555
C57 C59 1_555 1_555
C64 C65 1_555 1_555
C67 C68 1_555 1_555

#END
