
#######################################################################
#
#                 Cambridge Crystallographic Data Centre
#                                CCDC 
#
#######################################################################
#
# If this CIF has been generated from an entry in the Cambridge 
# Structural Database, then it will include bibliographic, chemical, 
# crystal, experimental, refinement or atomic coordinate data resulting 
# from the CCDC's data processing and validation procedures.
#
#######################################################################

data_ADOSEU
_chemical_formula_moiety         'C84 H84 B3 F6 N9,2(C1 H2 Cl2),C6 H14'
_chemical_name_systematic        
'3,4,10,11,19,20,26,27,35,36,42,43-dodecaethyl-7,7,23,23,39,39-hexafluoro-50,52,54-triphenyl-6\l^5^,8,22\l^5^,24,38,40\l^5^,49,51,53-nonaaza-7\l^5^,23\l^5^,39\l^5^-triboratridecacyclo[43.3.1.1^5,9^.1^13,17^.1^21,25^.1^29,33^.1^37,41^.0^2,6^.0^8,12^.0^18,22^.0^24,28^.0^34,38^.0^40,44^]tetrapentaconta-1(49),2(6),3,5(54),9,11,13(53),14,16,18(22),19,21(52),25,27,29(51),30,32,34,36,40(44),41(50),42,45,47-tetracosaene dichloromethane n-hexane solvate'
_symmetry_cell_setting           triclinic
_symmetry_space_group_name_H-M   'P -1'
_symmetry_Int_Tables_number      2
_space_group_name_Hall           '-P 1'
loop_
_symmetry_equiv_pos_site_id
_symmetry_equiv_pos_as_xyz
1 x,y,z
2 -x,-y,-z
_cell_length_a                   14.8595(13)
_cell_length_b                   18.9278(17)
_cell_length_c                   18.9885(16)
_cell_angle_alpha                113.569(3)
_cell_angle_beta                 105.802(3)
_cell_angle_gamma                100.532(3)
_cell_volume                     4445.11
_exptl_crystal_colour            red
_exptl_crystal_description       prism
_cell_formula_units_Z            2
loop_
_atom_site_label
_atom_site_type_symbol
_atom_site_fract_x
_atom_site_fract_y
_atom_site_fract_z
C1 C 0.7543(3) 0.6376(2) 0.2863(2)
C2 C 0.6882(3) 0.6519(2) 0.2286(2)
C3 C 0.6862(3) 0.7302(3) 0.2707(2)
C4 C 0.7518(3) 0.7639(2) 0.3552(2)
C5 C 0.7832(3) 0.8418(2) 0.4241(2)
C6 C 0.8602(3) 0.8649(2) 0.5000(2)
C7 C 0.9118(3) 0.9416(2) 0.5750(2)
C8 C 0.9876(3) 0.9299(2) 0.6268(2)
C9 C 0.9809(3) 0.8468(2) 0.5848(2)
C10 C 1.0433(3) 0.8052(2) 0.6181(2)
C11 C 1.0035(3) 0.7348(2) 0.6216(2)
H1 H 0.9337 0.7095 0.6006
C12 C 1.0681(3) 0.7021(2) 0.6568(2)
H2 H 1.0433 0.6546 0.6609
C13 C 1.1688(3) 0.7402(2) 0.6853(2)
H3 H 1.2142 0.7187 0.7089
C14 C 1.2034(3) 0.8097(2) 0.6796(2)
C15 C 1.3110(3) 0.8550(2) 0.7082(2)
C16 C 1.3628(3) 0.9359(2) 0.7683(2)
C17 C 1.4595(3) 0.9532(2) 0.7700(3)
C18 C 1.4641(3) 0.8805(2) 0.7094(2)
C19 C 1.5378(3) 0.8617(2) 0.6775(3)
C20 C 1.5236(3) 0.7845(2) 0.6165(2)
C21 C 1.5833(3) 0.7542(2) 0.5708(2)
C22 C 1.5289(3) 0.6738(2) 0.5114(2)
C23 C 1.4376(3) 0.6543(2) 0.5205(2)
C24 C 1.3552(3) 0.5752(2) 0.4721(2)
C25 C 1.3128(3) 0.5372(2) 0.5098(2)
H4 H 1.3369 0.5610 0.5687
C26 C 1.2348(3) 0.4641(2) 0.4607(3)
H5 H 1.2052 0.4369 0.4854
C27 C 1.2010(3) 0.4316(2) 0.3754(3)
H6 H 1.1458 0.3829 0.3403
C28 C 1.2492(3) 0.4714(2) 0.3417(2)
C29 C 1.2235(3) 0.4368(2) 0.2511(2)
C30 C 1.2853(3) 0.4112(3) 0.2075(3)
C31 C 1.2302(3) 0.3793(3) 0.1227(3)
C32 C 1.1337(3) 0.3863(2) 0.1152(3)
C33 C 1.0493(3) 0.3681(2) 0.0466(3)
C34 C 0.9630(3) 0.3856(2) 0.0544(2)
C35 C 0.8749(3) 0.3789(2) -0.0037(3)
C36 C 0.8172(3) 0.4102(3) 0.0407(3)
C37 C 0.8714(3) 0.4339(2) 0.1253(2)
C38 C 0.8355(3) 0.4633(2) 0.1944(2)
C39 C 0.8220(3) 0.4206(2) 0.2377(3)
H7 H 0.8391 0.3723 0.2255
C40 C 0.7838(3) 0.4481(2) 0.2982(3)
H8 H 0.7727 0.4187 0.3272
C41 C 0.7620(3) 0.5197(2) 0.3155(2)
H9 H 0.7368 0.5409 0.3576
C42 C 0.7771(3) 0.5602(2) 0.2711(2)
C43 C 0.6269(3) 0.5897(3) 0.1381(2)
H10 H 0.6037 0.6186 0.1072
H11 H 0.6696 0.5619 0.1138
C44 C 0.5388(5) 0.5265(4) 0.1266(3)
H12 H 0.5614 0.4938 0.1523
H13 H 0.4996 0.4908 0.0670
H14 H 0.4978 0.5536 0.1529
C45 C 0.6255(3) 0.7692(3) 0.2288(3)
H15 H 0.6145 0.8149 0.2706
H16 H 0.5602 0.7284 0.1875
C46 C 0.6854(5) 0.8018(4) 0.1840(4)
H17 H 0.7435 0.8494 0.2260
H18 H 0.6426 0.8175 0.1477
H19 H 0.7068 0.7587 0.1506
C47 C 0.7341(3) 0.9023(2) 0.4189(2)
C48 C 0.6492(3) 0.9025(2) 0.4376(2)
H20 H 0.6217 0.8627 0.4512
C49 C 0.6051(3) 0.9609(3) 0.4363(3)
H21 H 0.5469 0.9604 0.4481
C50 C 0.6458(3) 1.0202(3) 0.4177(3)
H22 H 0.6161 1.0606 0.4181
C51 C 0.7296(3) 1.0205(3) 0.3988(3)
H23 H 0.7575 1.0609 0.3860
C52 C 0.7725(3) 0.9610(2) 0.3988(2)
H24 H 0.8292 0.9605 0.3847
C53 C 0.8947(3) 1.0227(2) 0.5981(2)
H25 H 0.9036 1.0486 0.6575
H26 H 0.8253 1.0130 0.5648
C54 C 0.9645(3) 1.0820(2) 0.5842(3)
H27 H 1.0333 1.0942 0.6192
H28 H 0.9485 1.1327 0.5989
H29 H 0.9562 1.0568 0.5256
C55 C 1.0600(3) 0.9912(2) 0.7131(2)
H30 H 1.0617 1.0467 0.7221
H31 H 1.1271 0.9879 0.7183
C56 C 1.0340(4) 0.9775(3) 0.7801(3)
H32 H 0.9676 0.9806 0.7752
H33 H 1.0824 1.0197 0.8352
H34 H 1.0353 0.9236 0.7730
C57 C 1.3238(3) 0.9924(3) 0.8229(3)
H35 H 1.3802 1.0418 0.8668
H36 H 1.2790 1.0099 0.7892
C58 C 1.2695(9) 0.9586(7) 0.8636(7)
H37 H 1.2125 0.9103 0.8209
H38 H 1.2464 0.9999 0.8975
H39 H 1.3138 0.9432 0.8992
C59 C 1.5411(3) 1.0348(3) 0.8309(3)
H40 H 1.5368 1.0540 0.8863
H41 H 1.6063 1.0270 0.8365
C60 C 1.5349(4) 1.0977(3) 0.8047(4)
H42 H 1.5445 1.0811 0.7521
H43 H 1.5865 1.1497 0.8474
H44 H 1.4696 1.1043 0.7971
C61 C 1.6271(5) 0.9348(4) 0.7006(5)
C62 C 1.6218(5) 0.9765(4) 0.6532(5)
H45 H 1.5649 0.9565 0.6039
C63 C 1.6978(5) 1.0460(4) 0.6770(5)
H46 H 1.6943 1.0740 0.6451
C64 C 1.7812(6) 1.0737(5) 0.7512(6)
H47 H 1.8343 1.1215 0.7691
C65 C 1.7876(6) 1.0332(5) 0.7983(6)
H48 H 1.8442 1.0529 0.8477
C66 C 1.7093(5) 0.9628(4) 0.7720(5)
H49 H 1.7129 0.9342 0.8035
C67 C 1.6891(3) 0.7964(2) 0.5860(3)
H50 H 1.7005 0.8555 0.6064
H51 H 1.6987 0.7745 0.5327
C68 C 1.7645(3) 0.7846(3) 0.6486(3)
H52 H 1.7558 0.8067 0.7017
H53 H 1.8315 0.8133 0.6568
H54 H 1.7549 0.7262 0.6278
C69 C 1.5608(3) 0.6170(2) 0.4492(2)
H55 H 1.5226 0.5600 0.4313
H56 H 1.6317 0.6254 0.4764
C70 C 1.5460(3) 0.6293(3) 0.3725(3)
H57 H 1.4752 0.6163 0.3424
H58 H 1.5720 0.5931 0.3360
H59 H 1.5814 0.6862 0.3899
C71 C 1.3895(3) 0.4138(3) 0.2486(3)
H60 H 1.4281 0.4695 0.2952
H61 H 1.4216 0.4026 0.2078
C72 C 1.3937(4) 0.3531(3) 0.2818(3)
H62 H 1.3658 0.3658 0.3248
H63 H 1.4627 0.3566 0.3057
H64 H 1.3552 0.2977 0.2363
C73 C 1.2720(4) 0.3481(4) 0.0562(3)
H65 H 1.2325 0.3506 0.0066
H66 H 1.3409 0.3842 0.0771
C74 C 1.2712(6) 0.2620(6) 0.0315(5)
H67 H 1.2959 0.2560 0.0815
H68 H 1.3139 0.2496 0.0001
H69 H 1.2034 0.2242 -0.0033
C75 C 1.0535(3) 0.3292(3) -0.0384(3)
C76 C 1.0802(4) 0.3752(3) -0.0741(3)
H70 H 1.0931 0.4325 -0.0464
C77 C 1.0884(4) 0.3382(4) -0.1513(3)
H71 H 1.1072 0.3704 -0.1758
C78 C 1.0694(4) 0.2556(4) -0.1915(3)
H72 H 1.0751 0.2305 -0.2437
C79 C 1.0423(3) 0.2100(3) -0.1564(3)
H73 H 1.0290 0.1526 -0.1846
C80 C 1.0333(3) 0.2455(3) -0.0794(3)
H74 H 1.0137 0.2128 -0.0557
C81 C 0.8405(4) 0.3444(3) -0.0979(2)
H75 H 0.8765 0.3068 -0.1189
H76 H 0.7689 0.3124 -0.1240
C82 C 0.8579(5) 0.4111(3) -0.1235(3)
H77 H 0.8145 0.4435 -0.1106
H78 H 0.8430 0.3859 -0.1834
H79 H 0.9272 0.4467 -0.0930
C83 C 0.7159(4) 0.4148(3) 0.0066(3)
H80 H 0.7156 0.4699 0.0416
H81 H 0.7028 0.4079 -0.0501
C84 C 0.6334(4) 0.3528(5) 0.0026(4)
H82 H 0.6333 0.2978 -0.0313
H83 H 0.5700 0.3586 -0.0225
H84 H 0.6428 0.3614 0.0589
N1 N 0.7929(2) 0.70470(19) 0.36208(19)
N2 N 0.9043(2) 0.80739(18) 0.50892(18)
N3 N 1.1429(2) 0.84387(17) 0.64822(18)
N4 N 1.3710(2) 0.81964(18) 0.67332(18)
N5 N 1.4347(2) 0.72056(18) 0.58445(18)
N6 N 1.3266(2) 0.54276(19) 0.38896(19)
N7 N 1.1318(2) 0.42132(18) 0.19537(19)
N8 N 0.9584(2) 0.41939(19) 0.13403(19)
N9 N 0.8112(2) 0.53201(19) 0.20930(19)
B1 B 0.8620(3) 0.7151(3) 0.4468(3)
B2 B 1.3511(3) 0.7276(3) 0.6184(3)
B3 B 1.0385(4) 0.4316(3) 0.2144(3)
F1 F 0.80479(14) 0.67467(12) 0.47579(12)
F2 F 0.93694(14) 0.68295(12) 0.43631(13)
F3 F 1.35547(15) 0.68985(12) 0.66897(13)
F4 F 1.25921(15) 0.69190(13) 0.55393(13)
F5 F 1.00263(17) 0.37043(19) 0.23254(17)
F6 F 1.05922(18) 0.50701(18) 0.27859(15)
C85? C 1.3287(13) 0.9770(9) 0.8970(8)
H85? H 1.3063 0.9180 0.8777
H86? H 1.2858 1.0016 0.9230
H87? H 1.3971 1.0015 0.9378
C86? C 1.6363(9) 0.9248(8) 0.7221(7)
C87? C 1.6451(9) 0.9795(7) 0.6896(7)
H88? H 1.5907 0.9716 0.6437
C88? C 1.7317(10) 1.0450(7) 0.7229(9)
H89? H 1.7383 1.0823 0.7014
C89? C 1.8090(10) 1.0524(8) 0.7908(9)
H90? H 1.8692 1.0964 0.8151
C90? C 1.8028(8) 0.9988(8) 0.8250(7)
H91? H 1.8568 1.0063 0.8709
C91? C 1.7135(8) 0.9339(7) 0.7885(7)
H92? H 1.7063 0.8962 0.8095
loop_
_geom_bond_atom_site_label_1
_geom_bond_atom_site_label_2
_geom_bond_site_symmetry_1
_geom_bond_site_symmetry_2
C1 C2 1_555 1_555
C2 C3 1_555 1_555
C3 C4 1_555 1_555
C4 C5 1_555 1_555
C5 C6 1_555 1_555
C6 C7 1_555 1_555
C7 C8 1_555 1_555
C8 C9 1_555 1_555
C9 C10 1_555 1_555
C10 C11 1_555 1_555
C11 H1 1_555 1_555
C12 C11 1_555 1_555
H2 C12 1_555 1_555
C13 C12 1_555 1_555
H3 C13 1_555 1_555
C14 C13 1_555 1_555
C15 C14 1_555 1_555
C16 C15 1_555 1_555
C17 C16 1_555 1_555
C18 C17 1_555 1_555
C19 C18 1_555 1_555
C20 C19 1_555 1_555
C21 C20 1_555 1_555
C22 C21 1_555 1_555
C23 C22 1_555 1_555
C24 C23 1_555 1_555
C25 C24 1_555 1_555
H4 C25 1_555 1_555
C26 C25 1_555 1_555
H5 C26 1_555 1_555
C27 C26 1_555 1_555
H6 C27 1_555 1_555
C28 C27 1_555 1_555
C29 C28 1_555 1_555
C30 C29 1_555 1_555
C31 C30 1_555 1_555
C32 C31 1_555 1_555
C33 C32 1_555 1_555
C34 C33 1_555 1_555
C35 C34 1_555 1_555
C36 C35 1_555 1_555
C37 C36 1_555 1_555
C38 C37 1_555 1_555
C39 C38 1_555 1_555
H7 C39 1_555 1_555
C40 C39 1_555 1_555
H8 C40 1_555 1_555
C41 C40 1_555 1_555
H9 C41 1_555 1_555
C42 C1 1_555 1_555
C43 C2 1_555 1_555
H10 C43 1_555 1_555
H11 C43 1_555 1_555
C44 C43 1_555 1_555
H12 C44 1_555 1_555
H13 C44 1_555 1_555
H14 C44 1_555 1_555
C45 C3 1_555 1_555
H15 C45 1_555 1_555
H16 C45 1_555 1_555
C46 C45 1_555 1_555
H17 C46 1_555 1_555
H18 C46 1_555 1_555
H19 C46 1_555 1_555
C47 C5 1_555 1_555
C48 C47 1_555 1_555
H20 C48 1_555 1_555
C49 C48 1_555 1_555
H21 C49 1_555 1_555
C50 C49 1_555 1_555
H22 C50 1_555 1_555
C51 C50 1_555 1_555
H23 C51 1_555 1_555
C52 C47 1_555 1_555
H24 C52 1_555 1_555
C53 C7 1_555 1_555
H25 C53 1_555 1_555
H26 C53 1_555 1_555
C54 C53 1_555 1_555
H27 C54 1_555 1_555
H28 C54 1_555 1_555
H29 C54 1_555 1_555
C55 C8 1_555 1_555
H30 C55 1_555 1_555
H31 C55 1_555 1_555
C56 C55 1_555 1_555
H32 C56 1_555 1_555
H33 C56 1_555 1_555
H34 C56 1_555 1_555
C57 C16 1_555 1_555
H35 C57 1_555 1_555
H36 C57 1_555 1_555
C58 C57 1_555 1_555
H37 C58 1_555 1_555
H38 C58 1_555 1_555
H39 C58 1_555 1_555
C59 C17 1_555 1_555
H40 C59 1_555 1_555
H41 C59 1_555 1_555
C60 C59 1_555 1_555
H42 C60 1_555 1_555
H43 C60 1_555 1_555
H44 C60 1_555 1_555
C61 C19 1_555 1_555
C62 C61 1_555 1_555
H45 C62 1_555 1_555
C63 C62 1_555 1_555
H46 C63 1_555 1_555
C64 C63 1_555 1_555
H47 C64 1_555 1_555
C65 C64 1_555 1_555
H48 C65 1_555 1_555
C66 C61 1_555 1_555
H49 C66 1_555 1_555
C67 C21 1_555 1_555
H50 C67 1_555 1_555
H51 C67 1_555 1_555
C68 C67 1_555 1_555
H52 C68 1_555 1_555
H53 C68 1_555 1_555
H54 C68 1_555 1_555
C69 C22 1_555 1_555
H55 C69 1_555 1_555
H56 C69 1_555 1_555
C70 C69 1_555 1_555
H57 C70 1_555 1_555
H58 C70 1_555 1_555
H59 C70 1_555 1_555
C71 C30 1_555 1_555
H60 C71 1_555 1_555
H61 C71 1_555 1_555
C72 C71 1_555 1_555
H62 C72 1_555 1_555
H63 C72 1_555 1_555
H64 C72 1_555 1_555
C73 C31 1_555 1_555
H65 C73 1_555 1_555
H66 C73 1_555 1_555
C74 C73 1_555 1_555
H67 C74 1_555 1_555
H68 C74 1_555 1_555
H69 C74 1_555 1_555
C75 C33 1_555 1_555
C76 C75 1_555 1_555
H70 C76 1_555 1_555
C77 C76 1_555 1_555
H71 C77 1_555 1_555
C78 C77 1_555 1_555
H72 C78 1_555 1_555
C79 C78 1_555 1_555
H73 C79 1_555 1_555
C80 C75 1_555 1_555
H74 C80 1_555 1_555
C81 C35 1_555 1_555
H75 C81 1_555 1_555
H76 C81 1_555 1_555
C82 C81 1_555 1_555
H77 C82 1_555 1_555
H78 C82 1_555 1_555
H79 C82 1_555 1_555
C83 C36 1_555 1_555
H80 C83 1_555 1_555
H81 C83 1_555 1_555
C84 C83 1_555 1_555
H82 C84 1_555 1_555
H83 C84 1_555 1_555
H84 C84 1_555 1_555
N1 C1 1_555 1_555
N2 C6 1_555 1_555
N3 C10 1_555 1_555
N4 C15 1_555 1_555
N5 C20 1_555 1_555
N6 C24 1_555 1_555
N7 C29 1_555 1_555
N8 C34 1_555 1_555
N9 C38 1_555 1_555
B1 N1 1_555 1_555
B2 N4 1_555 1_555
B3 N7 1_555 1_555
F1 B1 1_555 1_555
F2 B1 1_555 1_555
F3 B2 1_555 1_555
F4 B2 1_555 1_555
F5 B3 1_555 1_555
F6 B3 1_555 1_555
C4 N1 1_555 1_555
C9 N2 1_555 1_555
C14 N3 1_555 1_555
C18 N4 1_555 1_555
C23 N5 1_555 1_555
C28 N6 1_555 1_555
C32 N7 1_555 1_555
C37 N8 1_555 1_555
C41 C42 1_555 1_555
C42 N9 1_555 1_555
C51 C52 1_555 1_555
C65 C66 1_555 1_555
C79 C80 1_555 1_555
N2 B1 1_555 1_555
N5 B2 1_555 1_555
N8 B3 1_555 1_555

#END
