
#######################################################################
#
#                 Cambridge Crystallographic Data Centre
#                                CCDC 
#
#######################################################################
#
# If this CIF has been generated from an entry in the Cambridge 
# Structural Database, then it will include bibliographic, chemical, 
# crystal, experimental, refinement or atomic coordinate data resulting 
# from the CCDC's data processing and validation procedures.
#
#######################################################################

data_ADOSOE
_chemical_formula_moiety         
'2(C84 H84 B3 F6 N9),C60,C6 H5 Cl1,C7 H16,0.5(H2 O1)'
_chemical_name_systematic        
'bis(3,4,10,11,19,20,26,27,35,36,42,43-dodecaethyl-7,7,23,23,39,39-hexafluoro-50,52,54-triphenyl-6\l^5^,8,22\l^5^,24,38,40\l^5^,49,51,53-nonaaza-7\l^5^,23\l^5^,39\l^5^-triboratridecacyclo[43.3.1.1^5,9^.1^13,17^.1^21,25^.1^29,33^.1^37,41^.0^2,6^.0^8,12^.0^18,22^.0^24,28^.0^34,38^.0^40,44^]tetrapentaconta-1(49),2(6),3,5(54),9,11,13(53),14,16,18(22),19,21(52),25,27,29(51),30,32,34,36,40(44),41(50),42,45,47-tetracosaene) C60fullerene clathrate chlorobenzene n-heptane solvate hemihydrate'
_symmetry_cell_setting           monoclinic
_symmetry_space_group_name_H-M   'P 21/n'
_symmetry_Int_Tables_number      14
_space_group_name_Hall           '-P 2yn'
loop_
_symmetry_equiv_pos_site_id
_symmetry_equiv_pos_as_xyz
1 x,y,z
2 1/2-x,1/2+y,1/2-z
3 -x,-y,-z
4 1/2+x,1/2-y,1/2+z
_cell_length_a                   18.5838(10)
_cell_length_b                   21.7474(10)
_cell_length_c                   23.3461(11)
_cell_angle_alpha                90
_cell_angle_beta                 98.616(5)
_cell_angle_gamma                90
_cell_volume                     9328.83
_exptl_crystal_colour            red
_exptl_crystal_description       plate
_cell_formula_units_Z            2
loop_
_atom_site_label
_atom_site_type_symbol
_atom_site_fract_x
_atom_site_fract_y
_atom_site_fract_z
C89 C 0.5432(3) 0.6545(2) 0.4729(3)
C90 C 0.5972(4) 0.6401(3) 0.5168(3)
C91 C 0.6533(3) 0.5987(3) 0.5051(4)
C92 C 0.6522(4) 0.5700(4) 0.4529(3)
C93 C 0.5920(5) 0.5852(4) 0.4040(3)
C94 C 0.5407(4) 0.6238(3) 0.4127(3)
C95 C 0.4639(3) 0.6122(2) 0.3900(2)
C96 C 0.4212(3) 0.6341(2) 0.4319(2)
C97 C 0.4683(3) 0.6598(2) 0.4815(2)
C98 C 0.4487(4) 0.6498(3) 0.5357(3)
C99 C 0.5104(5) 0.6354(3) 0.5844(3)
C100 C 0.5788(5) 0.6323(3) 0.5721(3)
C101 C 0.6276(5) 0.5803(3) 0.5997(3)
C102 C 0.6713(3) 0.5603(3) 0.5605(3)
C103 C 0.6887(3) 0.4982(3) 0.5538(3)
C104 C 0.6872(3) 0.4728(3) 0.4965(3)
C105 C 0.6685(4) 0.5086(4) 0.4479(4)
C106 C 0.6225(4) 0.4812(4) 0.3995(3)
C107 C 0.5736(4) 0.5321(3) 0.3718(3)
C108 C 0.5016(3) 0.5162(3) 0.3497(2)
C109 C 0.4434(3) 0.5578(3) 0.3589(2)
C110 C 0.3599(3) 0.6015(2) 0.4415(2)
C111 C 0.3447(4) 0.5938(4) 0.5003(3)
C112 C 0.3879(4) 0.6148(3) 0.5458(3)
C113 C 0.6048(4) 0.5396(3) 0.6335(2)
C114 C 0.6195(3) 0.4748(3) 0.6306(2)
C115 C 0.6613(3) 0.4530(3) 0.5905(2)
C116 C 0.5904(5) 0.4220(3) 0.3996(3)
C117 C 0.5201(6) 0.4097(3) 0.3779(3)
C118 C 0.4767(4) 0.4543(3) 0.3530(2)
C89B C 0.4568(3) 0.3455(2) 0.5271(3)
C90B C 0.4028(4) 0.3599(3) 0.4832(3)
C91B C 0.3467(3) 0.4013(3) 0.4949(4)
C92B C 0.3478(4) 0.4300(4) 0.5471(3)
C93B C 0.4080(5) 0.4148(4) 0.5960(3)
C94B C 0.4593(4) 0.3762(3) 0.5873(3)
C95B C 0.5361(3) 0.3878(2) 0.6100(2)
C96B C 0.5788(3) 0.3659(2) 0.5681(2)
C97B C 0.5317(3) 0.3402(2) 0.5185(2)
C98B C 0.5513(4) 0.3502(3) 0.4643(3)
C99B C 0.4896(5) 0.3646(3) 0.4156(3)
C100B C 0.4212(5) 0.3677(3) 0.4279(3)
C101B C 0.3724(5) 0.4197(3) 0.4003(3)
C102B C 0.3287(3) 0.4397(3) 0.4395(3)
C103B C 0.3113(3) 0.5018(3) 0.4462(3)
C104B C 0.3128(3) 0.5272(3) 0.5035(3)
C105B C 0.3315(4) 0.4914(4) 0.5521(4)
C106B C 0.3775(4) 0.5188(4) 0.6005(3)
C107B C 0.4264(4) 0.4679(3) 0.6282(3)
C108B C 0.4984(3) 0.4838(3) 0.6503(2)
C109B C 0.5566(3) 0.4422(3) 0.6411(2)
C110B C 0.6401(3) 0.3985(2) 0.5585(2)
C111B C 0.6553(4) 0.4062(4) 0.4997(3)
C112B C 0.6121(4) 0.3852(3) 0.4542(3)
C113B C 0.3952(4) 0.4604(3) 0.3665(2)
C114B C 0.3805(3) 0.5252(3) 0.3694(2)
C115B C 0.3387(3) 0.5470(3) 0.4095(2)
C116B C 0.4096(5) 0.5780(3) 0.6004(3)
C117B C 0.4799(6) 0.5903(3) 0.6221(3)
C118B C 0.5233(4) 0.5457(3) 0.6470(2)
C1 C 0.1893(3) 0.6683(2) 0.5217(2)
C2 C 0.1537(3) 0.6231(2) 0.5498(2)
C3 C 0.1821(3) 0.6254(2) 0.6082(2)
C4 C 0.2371(3) 0.6717(2) 0.6141(2)
C5 C 0.2910(3) 0.6870(2) 0.6612(2)
C6 C 0.3476(3) 0.7268(2) 0.65539(19)
C7 C 0.4126(3) 0.7437(2) 0.6942(2)
C8 C 0.4552(3) 0.7784(2) 0.6626(2)
C9 C 0.4169(3) 0.7839(2) 0.6056(2)
C10 C 0.4425(3) 0.8160(2) 0.55657(18)
C11 C 0.4016(3) 0.8631(2) 0.5255(2)
H1 H 0.355586 0.875184 0.534717
C12 C 0.4313(3) 0.8911(2) 0.4811(2)
H2 H 0.405547 0.923431 0.459540
C13 C 0.4982(3) 0.8724(2) 0.4679(2)
H3 H 0.518569 0.890666 0.436996
C14 C 0.5345(3) 0.8260(2) 0.50125(19)
C15 C 0.6087(3) 0.8054(2) 0.49407(19)
C16 C 0.6713(3) 0.8071(3) 0.5363(2)
C17 C 0.7276(3) 0.7823(3) 0.5136(2)
C18 C 0.7011(3) 0.7648(2) 0.4549(2)
C19 C 0.7326(3) 0.7334(2) 0.4129(2)
C20 C 0.6930(3) 0.7150(2) 0.3600(2)
C21 C 0.7098(3) 0.6773(2) 0.3142(2)
C22 C 0.6478(3) 0.6713(2) 0.2747(2)
C23 C 0.5921(3) 0.7039(2) 0.29602(19)
C24 C 0.5153(3) 0.7088(2) 0.26804(18)
C25 C 0.4819(3) 0.7651(2) 0.25424(19)
H4 H 0.507453 0.802488 0.263592
C26 C 0.4101(3) 0.7655(2) 0.2263(2)
H5 H 0.386338 0.803167 0.214842
C27 C 0.3740(3) 0.7097(2) 0.2157(2)
H6 H 0.324708 0.708780 0.197607
C28 C 0.4108(3) 0.6558(2) 0.23163(19)
C29 C 0.3760(3) 0.5945(2) 0.2207(2)
C30 C 0.4027(4) 0.5459(3) 0.1899(2)
C31 C 0.3523(4) 0.4979(2) 0.1894(2)
C32 C 0.2965(3) 0.5187(2) 0.2191(2)
C33 C 0.2367(3) 0.4884(2) 0.2352(2)
C34 C 0.1891(3) 0.5156(2) 0.2702(2)
C35 C 0.1280(3) 0.4947(2) 0.2923(3)
C36 C 0.1092(3) 0.5394(2) 0.3302(3)
C37 C 0.1590(3) 0.5879(2) 0.3295(2)
C38 C 0.1617(3) 0.6444(2) 0.3655(2)
C39 C 0.1525(3) 0.7033(2) 0.3421(2)
H7 H 0.146028 0.709171 0.301282
C40 C 0.1529(3) 0.7529(2) 0.3789(2)
H8 H 0.144757 0.793197 0.363617
C41 C 0.1652(3) 0.7436(2) 0.4382(2)
H9 H 0.166615 0.777187 0.464256
C42 C 0.1757(3) 0.6832(2) 0.4587(2)
C43 C 0.0941(3) 0.5804(2) 0.5233(2)
H10 H 0.070155 0.598343 0.486306
H11 H 0.057052 0.577382 0.549575
C44 C 0.1208(3) 0.5162(2) 0.5118(3)
H12 H 0.154088 0.518389 0.483060
H13 H 0.079165 0.490083 0.497071
H14 H 0.146372 0.498777 0.547929
C45 C 0.1519(4) 0.5889(3) 0.6541(3)
H15 H 0.191485 0.580111 0.686413
H16 H 0.133226 0.549049 0.637499
C46 C 0.0906(4) 0.6229(4) 0.6777(3)
H17 H 0.108642 0.662554 0.693706
H18 H 0.073735 0.598167 0.708163
H19 H 0.050146 0.629646 0.646238
C47 C 0.2899(3) 0.6529(2) 0.7175(2)
C48 C 0.2468(3) 0.6736(3) 0.7572(2)
H20 H 0.221113 0.711315 0.750899
C49 C 0.2412(4) 0.6386(3) 0.8065(3)
H21 H 0.210554 0.651736 0.833264
C50 C 0.2800(5) 0.5855(3) 0.8161(3)
H22 H 0.276455 0.562102 0.849944
C51 C 0.3247(5) 0.5648(3) 0.7775(3)
H23 H 0.352039 0.527966 0.784888
C52 C 0.3286(4) 0.5989(3) 0.7284(2)
H24 H 0.358478 0.584955 0.701388
C53 C 0.4325(3) 0.7286(3) 0.7573(2)
H25 H 0.388252 0.715324 0.772798
H26 H 0.451189 0.766132 0.778482
C54 C 0.4905(4) 0.6775(3) 0.7684(2)
H27 H 0.470645 0.639167 0.750468
H28 H 0.503970 0.671413 0.810198
H29 H 0.533596 0.689549 0.751523
C55 C 0.5286(3) 0.8052(3) 0.6850(2)
H30 H 0.565021 0.787036 0.663125
H31 H 0.542057 0.793279 0.726149
C56 C 0.5323(4) 0.8755(3) 0.6805(3)
H32 H 0.516771 0.888074 0.640196
H33 H 0.582391 0.889278 0.693081
H34 H 0.500096 0.894184 0.705246
C57 C 0.6737(3) 0.8354(3) 0.5954(2)
H35 H 0.626597 0.828006 0.609147
H36 H 0.712110 0.814740 0.622691
C58 C 0.6886(5) 0.9033(4) 0.5962(3)
H37 H 0.733591 0.911210 0.580302
H38 H 0.693727 0.918435 0.636122
H39 H 0.648004 0.924585 0.572609
C59 C 0.8032(3) 0.7709(3) 0.5479(3)
H40 H 0.816644 0.805175 0.575290
H41 H 0.839642 0.768953 0.520981
C60 C 0.8032(4) 0.7075(4) 0.5828(3)
H42 H 0.767763 0.709940 0.609815
H43 H 0.851819 0.700108 0.604396
H44 H 0.790035 0.673725 0.555431
C61 C 0.8119(3) 0.7198(2) 0.4244(2)
C62 C 0.8384(3) 0.6663(3) 0.4518(3)
H45 H 0.805646 0.636183 0.462210
C63 C 0.9141(4) 0.6564(3) 0.4643(3)
H46 H 0.932531 0.619672 0.483075
C64 C 0.9611(4) 0.7001(3) 0.4491(3)
H47 H 1.012120 0.693501 0.458036
C65 C 0.9355(3) 0.7536(3) 0.4208(3)
H48 H 0.968320 0.783400 0.409971
C66 C 0.8603(3) 0.7630(3) 0.4087(2)
H49 H 0.842049 0.799455 0.389360
C67 C 0.7806(3) 0.6455(3) 0.3079(3)
H50 H 0.821540 0.666972 0.331719
H51 H 0.788578 0.647237 0.266913
C68 C 0.7783(4) 0.5773(3) 0.3276(4)
H52 H 0.782064 0.575572 0.369850
H53 H 0.819005 0.554781 0.315277
H54 H 0.732258 0.558577 0.309950
C69 C 0.6403(4) 0.6402(3) 0.2163(3)
H55 H 0.591250 0.621729 0.207518
H56 H 0.676464 0.606559 0.217927
C70 C 0.6516(6) 0.6845(4) 0.1678(3)
H57 H 0.617839 0.719177 0.167364
H58 H 0.642512 0.663016 0.130495
H59 H 0.701785 0.699852 0.174242
C71 C 0.4623(6) 0.5494(6) 0.1555(5)
H60 H 0.476545 0.592638 0.150285
H61 H 0.447889 0.530514 0.116875
C72 C 0.5299(8) 0.5106(7) 0.1931(6)
H62 H 0.542290 0.529216 0.231599
H63 H 0.572434 0.511923 0.172932
H64 H 0.515021 0.467829 0.197229
C73 C 0.3580(4) 0.4382(3) 0.1564(3)
H65 H 0.334781 0.404657 0.175724
H66 H 0.409990 0.427566 0.157399
C74 C 0.3215(7) 0.4433(4) 0.0934(3)
H67 H 0.269004 0.449232 0.092167
H68 H 0.330118 0.405428 0.072614
H69 H 0.341897 0.478332 0.074921
C75 C 0.2230(3) 0.4223(2) 0.2173(2)
C76 C 0.2584(3) 0.3767(2) 0.2539(2)
H70 H 0.287549 0.387770 0.289322
C77 C 0.2505(3) 0.3157(2) 0.2379(2)
H71 H 0.274644 0.284579 0.262024
C78 C 0.2069(3) 0.3001(3) 0.1861(2)
H72 H 0.200958 0.258024 0.175453
C79 C 0.1726(4) 0.3442(3) 0.1506(3)
H73 H 0.142440 0.332969 0.115653
C80 C 0.1819(4) 0.4058(3) 0.1658(3)
H74 H 0.159762 0.436651 0.140236
C81 C 0.0447(3) 0.5390(3) 0.3633(3)
H75 H 0.026390 0.496368 0.364804
H76 H 0.061135 0.552687 0.403542
C82 C -0.0161(4) 0.5798(4) 0.3363(3)
H77 H 0.001456 0.622159 0.335219
H78 H -0.056121 0.578017 0.359250
H79 H -0.033540 0.565731 0.296735
N1 N 0.2392(2) 0.69794(19) 0.56013(17)
N2 N 0.3526(2) 0.75379(18) 0.60156(16)
N3 N 0.5085(2) 0.79948(18) 0.54608(15)
N4 N 0.6263(2) 0.78062(18) 0.44439(15)
N5 N 0.6178(2) 0.73152(18) 0.34739(16)
N6 N 0.4822(2) 0.65461(18) 0.25629(16)
N7 N 0.3124(2) 0.57916(17) 0.23755(16)
N8 N 0.2066(2) 0.57503(18) 0.29261(17)
N9 N 0.1719(2) 0.63442(19) 0.42310(17)
F1 F 0.25013(15) 0.80748(12) 0.54835(12)
F2 F 0.31699(15) 0.74502(12) 0.49796(11)
F3 F 0.58020(16) 0.83578(12) 0.35803(11)
F4 F 0.50965(14) 0.75987(12) 0.38687(10)
F5 F 0.30368(15) 0.64963(12) 0.31620(11)
F6 F 0.22391(16) 0.66163(12) 0.23292(11)
B1 B 0.2891(3) 0.7525(3) 0.5491(2)
B2 B 0.5803(3) 0.7775(3) 0.3829(2)
B3 B 0.2628(3) 0.6189(3) 0.2705(2)
C83 C 0.0834(3) 0.4380(3) 0.2710(3)
H80 H 0.059001 0.422076 0.302859
H81 H 0.116696 0.405581 0.260804
C84 C 0.0248(4) 0.4510(4) 0.2174(3)
H82 H -0.011015 0.480251 0.228127
H83 H 0.000342 0.412531 0.204191
H84 H 0.048251 0.468459 0.186179
C85? C 0.4800(8) 0.5433(7) 0.1713(6)
H85? H 0.492337 0.500862 0.161006
H86? H 0.517528 0.558356 0.202758
C86? C 0.4738(12) 0.5890(9) 0.1142(8)
H87? H 0.430016 0.578640 0.087056
H88? H 0.516858 0.583666 0.095055
H89? H 0.470895 0.631885 0.126624
C87? C 0.1093(8) 0.4249(4) 0.3018(6)
H90? H 0.055931 0.420236 0.291814
H91? H 0.131597 0.400455 0.273283
C88? C 0.1325(11) 0.3948(9) 0.3626(7)
H92? H 0.184230 0.384143 0.367363
H93? H 0.103638 0.357564 0.365675
H94? H 0.123969 0.423962 0.392944
O1? O -0.0310(8) 0.4741(6) 0.1783(6)
loop_
_geom_bond_atom_site_label_1
_geom_bond_atom_site_label_2
_geom_bond_site_symmetry_1
_geom_bond_site_symmetry_2
C1 C2 1_555 1_555
C2 C3 1_555 1_555
C3 C4 1_555 1_555
C4 C5 1_555 1_555
C5 C6 1_555 1_555
C6 C7 1_555 1_555
C7 C8 1_555 1_555
C8 C9 1_555 1_555
C9 C10 1_555 1_555
C10 C11 1_555 1_555
C11 H1 1_555 1_555
C12 C11 1_555 1_555
H2 C12 1_555 1_555
C13 C12 1_555 1_555
H3 C13 1_555 1_555
C14 C13 1_555 1_555
C15 C14 1_555 1_555
C16 C15 1_555 1_555
C17 C16 1_555 1_555
C18 C17 1_555 1_555
C19 C18 1_555 1_555
C20 C19 1_555 1_555
C21 C20 1_555 1_555
C22 C21 1_555 1_555
C23 C22 1_555 1_555
C24 C23 1_555 1_555
C25 C24 1_555 1_555
H4 C25 1_555 1_555
C26 C25 1_555 1_555
H5 C26 1_555 1_555
C27 C26 1_555 1_555
H6 C27 1_555 1_555
C28 C27 1_555 1_555
C29 C28 1_555 1_555
C30 C29 1_555 1_555
C31 C30 1_555 1_555
C32 C31 1_555 1_555
C33 C32 1_555 1_555
C34 C33 1_555 1_555
C35 C34 1_555 1_555
C36 C35 1_555 1_555
C37 C36 1_555 1_555
C38 C37 1_555 1_555
C39 C38 1_555 1_555
H7 C39 1_555 1_555
C40 C39 1_555 1_555
H8 C40 1_555 1_555
C41 C40 1_555 1_555
H9 C41 1_555 1_555
C42 C1 1_555 1_555
C43 C2 1_555 1_555
H10 C43 1_555 1_555
H11 C43 1_555 1_555
C44 C43 1_555 1_555
H12 C44 1_555 1_555
H13 C44 1_555 1_555
H14 C44 1_555 1_555
C45 C3 1_555 1_555
H15 C45 1_555 1_555
H16 C45 1_555 1_555
C46 C45 1_555 1_555
H17 C46 1_555 1_555
H18 C46 1_555 1_555
H19 C46 1_555 1_555
C47 C5 1_555 1_555
C48 C47 1_555 1_555
H20 C48 1_555 1_555
C49 C48 1_555 1_555
H21 C49 1_555 1_555
C50 C49 1_555 1_555
H22 C50 1_555 1_555
C51 C50 1_555 1_555
H23 C51 1_555 1_555
C52 C47 1_555 1_555
H24 C52 1_555 1_555
C53 C7 1_555 1_555
H25 C53 1_555 1_555
H26 C53 1_555 1_555
C54 C53 1_555 1_555
H27 C54 1_555 1_555
H28 C54 1_555 1_555
H29 C54 1_555 1_555
C55 C8 1_555 1_555
H30 C55 1_555 1_555
H31 C55 1_555 1_555
C56 C55 1_555 1_555
H32 C56 1_555 1_555
H33 C56 1_555 1_555
H34 C56 1_555 1_555
C57 C16 1_555 1_555
H35 C57 1_555 1_555
H36 C57 1_555 1_555
C58 C57 1_555 1_555
H37 C58 1_555 1_555
H38 C58 1_555 1_555
H39 C58 1_555 1_555
C59 C17 1_555 1_555
H40 C59 1_555 1_555
H41 C59 1_555 1_555
C60 C59 1_555 1_555
H42 C60 1_555 1_555
H43 C60 1_555 1_555
H44 C60 1_555 1_555
C61 C19 1_555 1_555
C62 C61 1_555 1_555
H45 C62 1_555 1_555
C63 C62 1_555 1_555
H46 C63 1_555 1_555
C64 C63 1_555 1_555
H47 C64 1_555 1_555
C65 C64 1_555 1_555
H48 C65 1_555 1_555
C66 C61 1_555 1_555
H49 C66 1_555 1_555
C67 C21 1_555 1_555
H50 C67 1_555 1_555
H51 C67 1_555 1_555
C68 C67 1_555 1_555
H52 C68 1_555 1_555
H53 C68 1_555 1_555
H54 C68 1_555 1_555
C69 C22 1_555 1_555
H55 C69 1_555 1_555
H56 C69 1_555 1_555
C70 C69 1_555 1_555
H57 C70 1_555 1_555
H58 C70 1_555 1_555
H59 C70 1_555 1_555
C71 C30 1_555 1_555
H60 C71 1_555 1_555
H61 C71 1_555 1_555
C72 C71 1_555 1_555
H62 C72 1_555 1_555
H63 C72 1_555 1_555
H64 C72 1_555 1_555
C73 C31 1_555 1_555
H65 C73 1_555 1_555
H66 C73 1_555 1_555
C74 C73 1_555 1_555
H67 C74 1_555 1_555
H68 C74 1_555 1_555
H69 C74 1_555 1_555
C75 C33 1_555 1_555
C76 C75 1_555 1_555
H70 C76 1_555 1_555
C77 C76 1_555 1_555
H71 C77 1_555 1_555
C78 C77 1_555 1_555
H72 C78 1_555 1_555
C79 C78 1_555 1_555
H73 C79 1_555 1_555
C80 C75 1_555 1_555
H74 C80 1_555 1_555
C81 C36 1_555 1_555
H75 C81 1_555 1_555
H76 C81 1_555 1_555
C82 C81 1_555 1_555
H77 C82 1_555 1_555
H78 C82 1_555 1_555
H79 C82 1_555 1_555
N1 C1 1_555 1_555
N2 C6 1_555 1_555
N3 C10 1_555 1_555
N4 C15 1_555 1_555
N5 C20 1_555 1_555
N6 C24 1_555 1_555
N7 C29 1_555 1_555
N8 C34 1_555 1_555
N9 C38 1_555 1_555
F1 B1 1_555 1_555
F2 B1 1_555 1_555
F3 B2 1_555 1_555
F4 B2 1_555 1_555
F5 B3 1_555 1_555
F6 B3 1_555 1_555
B1 N1 1_555 1_555
B2 N4 1_555 1_555
B3 N7 1_555 1_555
C83 C35 1_555 1_555
H80 C83 1_555 1_555
H81 C83 1_555 1_555
C84 C83 1_555 1_555
H82 C84 1_555 1_555
H83 C84 1_555 1_555
H84 C84 1_555 1_555
C89 C90 1_555 1_555
C90 C91 1_555 1_555
C91 C92 1_555 1_555
C92 C93 1_555 1_555
C93 C94 1_555 1_555
C94 C89 1_555 1_555
C95 C94 1_555 1_555
C96 C95 1_555 1_555
C97 C89 1_555 1_555
C98 C97 1_555 1_555
C99 C98 1_555 1_555
C100 C90 1_555 1_555
C101 C100 1_555 1_555
C102 C91 1_555 1_555
C103 C102 1_555 1_555
C104 C103 1_555 1_555
C105 C92 1_555 1_555
C106 C105 1_555 1_555
C107 C93 1_555 1_555
C108 C107 1_555 1_555
C109 C95 1_555 1_555
C110 C96 1_555 1_555
C111 C110 1_555 1_555
C112 C98 1_555 1_555
C113 C101 1_555 1_555
C114 C113 1_555 1_555
C115 C103 1_555 1_555
C116 C106 1_555 1_555
C117 C116 1_555 1_555
C118 C108 1_555 1_555
C89B C90B 1_555 1_555
C90B C91B 1_555 1_555
C91B C92B 1_555 1_555
C92B C93B 1_555 1_555
C93B C94B 1_555 1_555
C94B C89B 1_555 1_555
C95B C94B 1_555 1_555
C96B C95B 1_555 1_555
C97B C89B 1_555 1_555
C98B C97B 1_555 1_555
C99B C117 1_555 1_555
C100B C90B 1_555 1_555
C101B C100B 1_555 1_555
C102B C91B 1_555 1_555
C103B C102B 1_555 1_555
C104B C111 1_555 1_555
C105B C92B 1_555 1_555
C106B C105B 1_555 1_555
C107B C93B 1_555 1_555
C108B C107B 1_555 1_555
C109B C114 1_555 1_555
C110B C115 1_555 1_555
C111B C104 1_555 1_555
C112B C116 1_555 1_555
C113B C118 1_555 1_555
C114B C109 1_555 1_555
C115B C110 1_555 1_555
C116B C112 1_555 1_555
C117B C99 1_555 1_555
C118B C113 1_555 1_555
C4 N1 1_555 1_555
C9 N2 1_555 1_555
C14 N3 1_555 1_555
C18 N4 1_555 1_555
C23 N5 1_555 1_555
C28 N6 1_555 1_555
C32 N7 1_555 1_555
C37 N8 1_555 1_555
C41 C42 1_555 1_555
C42 N9 1_555 1_555
C51 C52 1_555 1_555
C65 C66 1_555 1_555
C79 C80 1_555 1_555
N2 B1 1_555 1_555
N5 B2 1_555 1_555
N8 B3 1_555 1_555
C96 C97 1_555 1_555
C99 C100 1_555 1_555
C101 C102 1_555 1_555
C104 C105 1_555 1_555
C106 C107 1_555 1_555
C108 C109 1_555 1_555
C111 C112 1_555 1_555
C114 C115 1_555 1_555
C117 C118 1_555 1_555
C95B C109B 1_555 1_555
C96B C97B 1_555 1_555
C96B C110B 1_555 1_555
C98B C99B 1_555 1_555
C98B C112B 1_555 1_555
C99B C100B 1_555 1_555
C101B C102B 1_555 1_555
C101B C113B 1_555 1_555
C103B C104B 1_555 1_555
C103B C115B 1_555 1_555
C104B C105B 1_555 1_555
C106B C107B 1_555 1_555
C106B C116B 1_555 1_555
C108B C109B 1_555 1_555
C108B C118B 1_555 1_555
C110B C111B 1_555 1_555
C111B C112B 1_555 1_555
C113B C114B 1_555 1_555
C114B C115B 1_555 1_555
C116B C117B 1_555 1_555
C117B C118B 1_555 1_555

#END
