
#######################################################################
#
#                 Cambridge Crystallographic Data Centre
#                                CCDC 
#
#######################################################################
#
# If this CIF has been generated from an entry in the Cambridge 
# Structural Database, then it will include bibliographic, chemical, 
# crystal, experimental, refinement or atomic coordinate data resulting 
# from the CCDC's data processing and validation procedures.
#
#######################################################################

data_ADPROP
_chemical_formula_moiety         'C8 H10 N6 O1'
_chemical_name_systematic        3-(Adenin-9-yl)-propionamide
_symmetry_cell_setting           monoclinic
_symmetry_space_group_name_H-M   'P 21/a'
_symmetry_Int_Tables_number      14
_space_group_name_Hall           '-P 2yab'
loop_
_symmetry_equiv_pos_site_id
_symmetry_equiv_pos_as_xyz
1 x,y,z
2 1/2-x,1/2+y,-z
3 -x,-y,-z
4 1/2+x,1/2-y,z
_cell_length_a                   25.668(1)
_cell_length_b                   8.025(1)
_cell_length_c                   4.684(1)
_cell_angle_alpha                90
_cell_angle_beta                 103.54(1)
_cell_angle_gamma                90
_cell_volume                     938.021
_cell_formula_units_Z            4
loop_
_atom_site_label
_atom_site_type_symbol
_atom_site_fract_x
_atom_site_fract_y
_atom_site_fract_z
N1 N 0.28388 0.51920 0.74730
C1 C 0.32000 0.55990 0.59530
N2 N 0.35669 0.46520 0.51570
C2 C 0.35350 0.30750 0.60990
C3 C 0.31810 0.24560 0.76630
C4 C 0.28190 0.35970 0.83750
N3 N 0.24530 0.32210 0.98810
N4 N 0.32743 0.07720 0.82530
C5 C 0.36750 0.04200 0.70410
N5 N 0.38475 0.17510 0.56810
C6 C 0.43320 0.18640 0.45280
C7 C 0.47940 0.24040 0.69450
C8 C 0.52970 0.28600 0.59520
N6 N 0.56890 0.35010 0.79880
O1 O 0.53325 0.26270 0.34220
H1 H 0.31900 0.68100 0.53300
H2 H 0.22400 0.40300 1.02300
H3 H 0.24400 0.22300 1.06800
H4 H 0.38400 -0.06200 0.70400
H5 H 0.42400 0.26900 0.28300
H6 H 0.43700 0.07100 0.37200
H7 H 0.48900 0.15000 0.84000
H8 H 0.47000 0.33800 0.80100
H9 H 0.59700 0.39700 0.75100
H10 H 0.56500 0.36500 0.98700
loop_
_geom_bond_atom_site_label_1
_geom_bond_atom_site_label_2
_geom_bond_site_symmetry_1
_geom_bond_site_symmetry_2
N1 C1 1_555 1_555
C1 N2 1_555 1_555
N2 C2 1_555 1_555
C2 C3 1_555 1_555
C3 C4 1_555 1_555
C4 N1 1_555 1_555
N3 C4 1_555 1_555
N4 C3 1_555 1_555
C5 N4 1_555 1_555
N5 C2 1_555 1_555
C6 N5 1_555 1_555
C7 C6 1_555 1_555
C8 C7 1_555 1_555
N6 C8 1_555 1_555
O1 C8 1_555 1_555
H1 C1 1_555 1_555
H2 N3 1_555 1_555
H3 N3 1_555 1_555
H4 C5 1_555 1_555
H5 C6 1_555 1_555
H6 C6 1_555 1_555
H7 C7 1_555 1_555
H8 C7 1_555 1_555
H9 N6 1_555 1_555
H10 N6 1_555 1_555
C5 N5 1_555 1_555

#END
