
#######################################################################
#
#                 Cambridge Crystallographic Data Centre
#                                CCDC 
#
#######################################################################
#
# If this CIF has been generated from an entry in the Cambridge 
# Structural Database, then it will include bibliographic, chemical, 
# crystal, experimental, refinement or atomic coordinate data resulting 
# from the CCDC's data processing and validation procedures.
#
#######################################################################

data_ADPTHZ
_chemical_name_common            
(mu!2$-Adipoyl)-bis(1,3-thiazolidine-2-thione)
_chemical_formula_moiety         'C12 H16 N2 O2 S4'
_chemical_name_systematic        
1,6-bis(2-sulfanylidene-1,3-thiazolidin-3-yl)hexane-1,6-dione
_symmetry_cell_setting           orthorhombic
_symmetry_space_group_name_H-M   'P 21 21 21'
_symmetry_Int_Tables_number      19
_space_group_name_Hall           'P 2ac 2ab'
loop_
_symmetry_equiv_pos_site_id
_symmetry_equiv_pos_as_xyz
1 x,y,z
2 1/2+x,1/2-y,-z
3 -x,1/2+y,1/2-z
4 1/2-x,-y,1/2+z
_cell_length_a                   11.903(2)
_cell_length_b                   16.171(4)
_cell_length_c                   8.072(2)
_cell_angle_alpha                90
_cell_angle_beta                 90
_cell_angle_gamma                90
_cell_volume                     1553.73
_exptl_crystal_colour            yellow
_chemical_melting_point          127-128deg.C
_cell_formula_units_Z            4
loop_
_atom_site_label
_atom_site_type_symbol
_atom_site_fract_x
_atom_site_fract_y
_atom_site_fract_z
S1 S 1.40740 -0.22520 0.55180
C1 C 1.27490 -0.19710 0.61880
N1 N 1.26850 -0.11190 0.64030
C2 C 1.37980 -0.07020 0.64050
C3 C 1.45320 -0.11920 0.52550
C4 C 1.17370 -0.06340 0.68280
C5 C 1.05910 -0.09090 0.62760
C6 C 0.97500 -0.02010 0.62800
S2 S 1.17760 -0.26690 0.65720
O1 O 1.19200 0.00170 0.75230
S3 S 0.60890 0.28670 0.45270
C7 C 0.64280 0.18310 0.48760
N2 N 0.74740 0.16590 0.42830
C8 C 0.79900 0.23290 0.32820
C9 C 0.74910 0.31310 0.39240
C10 C 0.80490 0.08930 0.42640
C11 C 0.77440 0.02250 0.54850
C12 C 0.86380 -0.04610 0.55460
S4 S 0.54880 0.12180 0.57540
O2 O 0.88240 0.08240 0.32840
H1 H 1.37600 0.00400 0.61400
H2 H 1.40100 -0.07200 0.74500
H3 H 1.45600 -0.10500 0.40400
H4 H 1.53000 -0.11700 0.54100
H5 H 1.02300 -0.13500 0.70000
H6 H 1.05000 -0.12200 0.51500
H7 H 0.99200 0.02200 0.53800
H8 H 0.97000 -0.00700 0.74500
H9 H 0.80800 0.21800 0.20200
H10 H 0.87000 0.23100 0.34000
H11 H 0.79400 0.35500 0.30100
H12 H 0.77600 0.31900 0.48800
H13 H 0.78500 0.04100 0.66000
H14 H 0.69700 0.00000 0.51500
H15 H 0.84300 -0.09300 0.62500
H16 H 0.88200 -0.05900 0.43900
loop_
_geom_bond_atom_site_label_1
_geom_bond_atom_site_label_2
_geom_bond_site_symmetry_1
_geom_bond_site_symmetry_2
S1 C1 1_555 1_555
C1 N1 1_555 1_555
N1 C2 1_555 1_555
C2 C3 1_555 1_555
C3 S1 1_555 1_555
C4 N1 1_555 1_555
C5 C4 1_555 1_555
C6 C5 1_555 1_555
S2 C1 1_555 1_555
O1 C4 1_555 1_555
S3 C7 1_555 1_555
C7 N2 1_555 1_555
N2 C8 1_555 1_555
C8 C9 1_555 1_555
C9 S3 1_555 1_555
C10 N2 1_555 1_555
C11 C10 1_555 1_555
C12 C6 1_555 1_555
S4 C7 1_555 1_555
O2 C10 1_555 1_555
H1 C2 1_555 1_555
H2 C2 1_555 1_555
H3 C3 1_555 1_555
H4 C3 1_555 1_555
H5 C5 1_555 1_555
H6 C5 1_555 1_555
H7 C6 1_555 1_555
H8 C6 1_555 1_555
H9 C8 1_555 1_555
H10 C8 1_555 1_555
H11 C9 1_555 1_555
H12 C9 1_555 1_555
H13 C11 1_555 1_555
H14 C11 1_555 1_555
H15 C12 1_555 1_555
H16 C12 1_555 1_555
C11 C12 1_555 1_555

#END
