
#######################################################################
#
#                 Cambridge Crystallographic Data Centre
#                                CCDC 
#
#######################################################################
#
# If this CIF has been generated from an entry in the Cambridge 
# Structural Database, then it will include bibliographic, chemical, 
# crystal, experimental, refinement or atomic coordinate data resulting 
# from the CCDC's data processing and validation procedures.
#
#######################################################################

data_ADUBOT
_chemical_formula_moiety         'C20 H24 O4'
_chemical_name_systematic        11,16-epoxykaur-2-ene-1,6,12-trione
_symmetry_cell_setting           monoclinic
_symmetry_space_group_name_H-M   'P 21'
_symmetry_Int_Tables_number      4
_space_group_name_Hall           'P 2yb'
loop_
_symmetry_equiv_pos_site_id
_symmetry_equiv_pos_as_xyz
1 x,y,z
2 -x,1/2+y,-z
_cell_length_a                   6.1968(11)
_cell_length_b                   17.198(3)
_cell_length_c                   8.2164(15)
_cell_angle_alpha                90
_cell_angle_beta                 109.494(4)
_cell_angle_gamma                90
_cell_volume                     825.448
_exptl_crystal_colour            colorless
_exptl_crystal_description       prismatic
_cell_formula_units_Z            2
loop_
_atom_site_label
_atom_site_type_symbol
_atom_site_fract_x
_atom_site_fract_y
_atom_site_fract_z
O1 O -0.1635(4) 0.38424(19) -0.1273(3)
O2 O 0.6383(5) 0.2579(2) 0.4013(4)
O3 O 0.2736(6) 0.58001(17) 0.1476(5)
O4 O -0.1069(4) 0.50674(14) 0.2944(3)
C1 C -0.0034(5) 0.3404(2) -0.0743(4)
C2 C 0.0203(6) 0.2743(2) -0.1788(4)
H1 H -0.0828 0.2699 -0.2905
C3 C 0.1800(6) 0.2204(2) -0.1235(4)
H2 H 0.1862 0.1822 -0.2019
C4 C 0.3517(5) 0.2155(2) 0.0542(4)
C5 C 0.2762(5) 0.27089(19) 0.1726(4)
H3 H 0.1406 0.2457 0.1851
C6 C 0.4411(6) 0.2774(2) 0.3561(4)
C7 C 0.3353(6) 0.3120(2) 0.4783(4)
H4 H 0.4486 0.3143 0.5930
H5 H 0.2108 0.2790 0.4836
C8 C 0.2447(5) 0.3932(2) 0.4217(4)
C9 C 0.0907(4) 0.39522(17) 0.2279(3)
H6 H -0.0479 0.3662 0.2218
C10 C 0.1899(5) 0.35364(19) 0.1001(4)
C11 C 0.0117(6) 0.4802(2) 0.1822(4)
H7 H -0.0811 0.4860 0.0602
C12 C 0.2075(6) 0.5377(2) 0.2365(5)
C13 C 0.2902(6) 0.5315(2) 0.4284(5)
H8 H 0.3704 0.5775 0.4900
C14 C 0.4323(5) 0.4555(2) 0.4644(4)
H9 H 0.5251 0.4511 0.3903
H10 H 0.5305 0.4524 0.5842
C15 C 0.1024(6) 0.4267(2) 0.5275(4)
H11 H -0.0425 0.3997 0.5025
H12 H 0.1855 0.4240 0.6505
C16 C 0.0678(5) 0.5094(2) 0.4659(4)
C17 C -0.0102(7) 0.5668(3) 0.5748(6)
H13 H -0.0164 0.6180 0.5270
H14 H 0.0959 0.5664 0.6907
H15 H -0.1595 0.5523 0.5756
C18 C 0.3452(7) 0.1320(2) 0.1163(5)
H16 H 0.1922 0.1194 0.1112
H17 H 0.4470 0.1271 0.2331
H18 H 0.3925 0.0970 0.0435
C19 C 0.5918(6) 0.2292(2) 0.0409(6)
H19 H 0.6123 0.1959 -0.0465
H20 H 0.7065 0.2176 0.1499
H21 H 0.6057 0.2825 0.0112
C20 C 0.3713(5) 0.4010(2) 0.0531(4)
H22 H 0.4014 0.3769 -0.0424
H23 H 0.5098 0.4029 0.1507
H24 H 0.3157 0.4529 0.0218
loop_
_geom_bond_atom_site_label_1
_geom_bond_atom_site_label_2
_geom_bond_site_symmetry_1
_geom_bond_site_symmetry_2
O1 C1 1_555 1_555
O2 C6 1_555 1_555
O3 C12 1_555 1_555
O4 C11 1_555 1_555
C1 C2 1_555 1_555
C2 H1 1_555 1_555
C3 C2 1_555 1_555
H2 C3 1_555 1_555
C4 C3 1_555 1_555
C5 C4 1_555 1_555
H3 C5 1_555 1_555
C6 C5 1_555 1_555
C7 C6 1_555 1_555
H4 C7 1_555 1_555
H5 C7 1_555 1_555
C8 C7 1_555 1_555
C9 C8 1_555 1_555
H6 C9 1_555 1_555
C10 C1 1_555 1_555
C11 C9 1_555 1_555
H7 C11 1_555 1_555
C12 C11 1_555 1_555
C13 C12 1_555 1_555
H8 C13 1_555 1_555
C14 C8 1_555 1_555
H9 C14 1_555 1_555
H10 C14 1_555 1_555
C15 C8 1_555 1_555
H11 C15 1_555 1_555
H12 C15 1_555 1_555
C16 O4 1_555 1_555
C17 C16 1_555 1_555
H13 C17 1_555 1_555
H14 C17 1_555 1_555
H15 C17 1_555 1_555
C18 C4 1_555 1_555
H16 C18 1_555 1_555
H17 C18 1_555 1_555
H18 C18 1_555 1_555
C19 C4 1_555 1_555
H19 C19 1_555 1_555
H20 C19 1_555 1_555
H21 C19 1_555 1_555
C20 C10 1_555 1_555
H22 C20 1_555 1_555
H23 C20 1_555 1_555
H24 C20 1_555 1_555
C5 C10 1_555 1_555
C9 C10 1_555 1_555
C13 C14 1_555 1_555
C13 C16 1_555 1_555
C15 C16 1_555 1_555

#END
