
#######################################################################
#
#                 Cambridge Crystallographic Data Centre
#                                CCDC 
#
#######################################################################
#
# If this CIF has been generated from an entry in the Cambridge 
# Structural Database, then it will include bibliographic, chemical, 
# crystal, experimental, refinement or atomic coordinate data resulting 
# from the CCDC's data processing and validation procedures.
#
#######################################################################

data_ADUBEJ
_chemical_formula_moiety         'C22 H30 O4'
_chemical_name_systematic        '1,12-dioxokaur-16-en-6-yl acetate'
_symmetry_cell_setting           orthorhombic
_symmetry_space_group_name_H-M   'P c a 21'
_symmetry_Int_Tables_number      29
_space_group_name_Hall           'P 2c -2ac'
loop_
_symmetry_equiv_pos_site_id
_symmetry_equiv_pos_as_xyz
1 x,y,z
2 -x,-y,1/2+z
3 1/2-x,y,1/2+z
4 1/2+x,-y,z
_cell_length_a                   20.323(2)
_cell_length_b                   7.6843(8)
_cell_length_c                   23.998(3)
_cell_angle_alpha                90
_cell_angle_beta                 90
_cell_angle_gamma                90
_cell_volume                     3747.72
_exptl_crystal_colour            colorless
_exptl_crystal_description       block
_cell_formula_units_Z            8
loop_
_atom_site_label
_atom_site_type_symbol
_atom_site_fract_x
_atom_site_fract_y
_atom_site_fract_z
O1 O -0.00332(11) -1.4296(2) -0.34617(9)
O2 O -0.14836(9) -0.8547(2) -0.33028(8)
O3 O -0.16554(11) -0.7677(3) -0.41864(10)
O4 O -0.10333(11) -1.4212(3) -0.17832(10)
C1 C 0.00722(14) -1.2743(3) -0.35082(11)
C2 C 0.06955(15) -1.2111(4) -0.37724(13)
H1 H 0.0925 -1.3096 -0.3953
H2 H 0.0990 -1.1624 -0.3483
C3 C 0.05403(15) -1.0720(4) -0.42036(12)
H3 H 0.0238 -1.1207 -0.4487
H4 H 0.0951 -1.0371 -0.4395
C4 C 0.02235(14) -0.9117(4) -0.39354(11)
C5 C -0.04329(14) -0.9710(3) -0.36489(11)
H5 H -0.0733 -1.0003 -0.3966
C6 C -0.07752(13) -0.8185(3) -0.33502(12)
H6 H -0.0712 -0.7103 -0.3575
C7 C -0.05382(14) -0.7855(3) -0.27629(11)
H7 H -0.0825 -0.6960 -0.2592
H8 H -0.0088 -0.7367 -0.2782
C8 C -0.05265(13) -0.9443(3) -0.23803(11)
C9 C -0.01888(13) -1.1018(3) -0.26676(11)
H9 H 0.0287 -1.0698 -0.2699
C10 C -0.04236(13) -1.1406(3) -0.32787(11)
C11 C -0.02088(14) -1.2646(3) -0.22865(12)
H10 H -0.0197 -1.3692 -0.2527
H11 H 0.0197 -1.2655 -0.2059
C12 C -0.07883(14) -1.2814(4) -0.18991(12)
C13 C -0.10207(14) -1.1121(4) -0.16501(11)
H12 H -0.1389 -1.1282 -0.1379
C14 C -0.04323(15) -1.0208(4) -0.13954(12)
C15 C -0.01451(14) -0.9020(4) -0.18366(12)
H13 H 0.0331 -0.9247 -0.1885
H14 H -0.0206 -0.7784 -0.1732
C16 C -0.12045(15) -0.9912(4) -0.21354(12)
H15 H -0.1439 -0.8863 -0.2002
H16 H -0.1482 -1.0520 -0.2413
C17 C -0.02172(17) -1.0445(4) -0.08806(13)
H17 H 0.0159 -0.9830 -0.0752
H18 H -0.0439 -1.1230 -0.0639
C18 C 0.00562(16) -0.7848(4) -0.44109(12)
H19 H 0.0454 -0.7601 -0.4627
H20 H -0.0116 -0.6762 -0.4254
H21 H -0.0276 -0.8372 -0.4654
C19 C 0.07357(15) -0.8211(4) -0.35627(12)
H22 H 0.0569 -0.7068 -0.3449
H23 H 0.1147 -0.8065 -0.3770
H24 H 0.0817 -0.8923 -0.3231
C20 C -0.18514(15) -0.8332(4) -0.37633(13)
C21 C -0.25247(15) -0.9073(4) -0.36795(14)
H25 H -0.2672 -0.8836 -0.3298
H26 H -0.2513 -1.0333 -0.3742
H27 H -0.2831 -0.8536 -0.3944
C22 C -0.10971(14) -1.2316(3) -0.33059(12)
H28 H -0.1189 -1.2662 -0.3691
H29 H -0.1440 -1.1515 -0.3177
H30 H -0.1091 -1.3351 -0.3067
O5 O -0.25665(13) -0.9223(2) -0.07532(11)
O6 O -0.40586(10) -0.3538(2) -0.07601(8)
O7 O -0.42288(12) -0.2877(3) 0.01421(10)
O8 O -0.35360(11) -0.8706(3) -0.24313(9)
C23 C -0.24574(16) -0.7685(3) -0.06996(13)
C24 C -0.18341(16) -0.7069(4) -0.04395(14)
H31 H -0.1571 -0.6402 -0.0714
H32 H -0.1569 -0.8073 -0.0311
C25 C -0.20160(15) -0.5912(4) 0.00536(13)
H33 H -0.1612 -0.5600 0.0261
H34 H -0.2308 -0.6565 0.0309
C26 C -0.23648(14) -0.4244(3) -0.01355(11)
C27 C -0.30049(13) -0.4780(3) -0.04594(12)
H35 H -0.3311 -0.5205 -0.0163
C28 C -0.33528(14) -0.3177(3) -0.07055(11)
H36 H -0.3292 -0.2172 -0.0446
C29 C -0.31221(15) -0.2647(3) -0.12816(11)
H37 H -0.3419 -0.1724 -0.1422
H38 H -0.2677 -0.2132 -0.1247
C30 C -0.30936(13) -0.4085(3) -0.17123(11)
C31 C -0.27306(14) -0.5697(3) -0.14793(11)
H39 H -0.2263 -0.5327 -0.1430
C32 C -0.29670(13) -0.6323(3) -0.08865(11)
C33 C -0.27123(14) -0.7203(4) -0.19088(12)
H40 H -0.2313 -0.7068 -0.2141
H41 H -0.2671 -0.8315 -0.1704
C34 C -0.33024(14) -0.7321(4) -0.22900(12)
C35 C -0.35591(14) -0.5593(3) -0.24955(11)
H42 H -0.3926 -0.5718 -0.2771
C36 C -0.29911(15) -0.4522(4) -0.27164(12)
C37 C -0.27239(15) -0.3441(4) -0.22392(11)
H43 H -0.2809 -0.2188 -0.2304
H44 H -0.2244 -0.3618 -0.2198
C38 C -0.27755(17) -0.4536(4) -0.32348(13)
H45 H -0.2981 -0.5262 -0.3504
H46 H -0.2415 -0.3821 -0.3339
C39 C -0.37603(14) -0.4563(4) -0.19736(11)
H47 H -0.4026 -0.5287 -0.1717
H48 H -0.4014 -0.3508 -0.2074
C40 C -0.25701(17) -0.3265(4) 0.03931(12)
H49 H -0.2772 -0.2152 0.0290
H50 H -0.2182 -0.3049 0.0625
H51 H -0.2888 -0.3966 0.0602
C41 C -0.18730(15) -0.3097(4) -0.04510(12)
H52 H -0.1758 -0.3654 -0.0805
H53 H -0.1475 -0.2946 -0.0225
H54 H -0.2072 -0.1958 -0.0524
C42 C -0.44266(15) -0.3423(4) -0.02952(13)
C43 C -0.51097(16) -0.4071(4) -0.04034(15)
H55 H -0.5089 -0.5252 -0.0556
H56 H -0.5328 -0.3301 -0.0671
H57 H -0.5359 -0.4084 -0.0054
C44 C -0.36327(15) -0.7281(4) -0.08986(13)
H58 H -0.3986 -0.6444 -0.0973
H59 H -0.3709 -0.7844 -0.0538
H60 H -0.3626 -0.8164 -0.1193
loop_
_geom_bond_atom_site_label_1
_geom_bond_atom_site_label_2
_geom_bond_site_symmetry_1
_geom_bond_site_symmetry_2
O1 C1 1_555 1_555
O2 C6 1_555 1_555
O3 C20 1_555 1_555
O4 C12 1_555 1_555
C1 C2 1_555 1_555
C2 H1 1_555 1_555
H2 C2 1_555 1_555
C3 C2 1_555 1_555
H3 C3 1_555 1_555
H4 C3 1_555 1_555
C4 C3 1_555 1_555
C5 C4 1_555 1_555
H5 C5 1_555 1_555
C6 C5 1_555 1_555
H6 C6 1_555 1_555
C7 C6 1_555 1_555
H7 C7 1_555 1_555
H8 C7 1_555 1_555
C8 C7 1_555 1_555
C9 C8 1_555 1_555
H9 C9 1_555 1_555
C10 C1 1_555 1_555
C11 C9 1_555 1_555
H10 C11 1_555 1_555
H11 C11 1_555 1_555
C12 C11 1_555 1_555
C13 C12 1_555 1_555
H12 C13 1_555 1_555
C14 C13 1_555 1_555
C15 C8 1_555 1_555
H13 C15 1_555 1_555
H14 C15 1_555 1_555
C16 C8 1_555 1_555
H15 C16 1_555 1_555
H16 C16 1_555 1_555
C17 C14 1_555 1_555
H17 C17 1_555 1_555
H18 C17 1_555 1_555
C18 C4 1_555 1_555
H19 C18 1_555 1_555
H20 C18 1_555 1_555
H21 C18 1_555 1_555
C19 C4 1_555 1_555
H22 C19 1_555 1_555
H23 C19 1_555 1_555
H24 C19 1_555 1_555
C20 O2 1_555 1_555
C21 C20 1_555 1_555
H25 C21 1_555 1_555
H26 C21 1_555 1_555
H27 C21 1_555 1_555
C22 C10 1_555 1_555
H28 C22 1_555 1_555
H29 C22 1_555 1_555
H30 C22 1_555 1_555
O5 C23 1_555 1_555
O6 C28 1_555 1_555
O7 C42 1_555 1_555
O8 C34 1_555 1_555
C23 C24 1_555 1_555
C24 H31 1_555 1_555
H32 C24 1_555 1_555
C25 C24 1_555 1_555
H33 C25 1_555 1_555
H34 C25 1_555 1_555
C26 C25 1_555 1_555
C27 C26 1_555 1_555
H35 C27 1_555 1_555
C28 C27 1_555 1_555
H36 C28 1_555 1_555
C29 C28 1_555 1_555
H37 C29 1_555 1_555
H38 C29 1_555 1_555
C30 C29 1_555 1_555
C31 C30 1_555 1_555
H39 C31 1_555 1_555
C32 C23 1_555 1_555
C33 C31 1_555 1_555
H40 C33 1_555 1_555
H41 C33 1_555 1_555
C34 C33 1_555 1_555
C35 C34 1_555 1_555
H42 C35 1_555 1_555
C36 C35 1_555 1_555
C37 C30 1_555 1_555
H43 C37 1_555 1_555
H44 C37 1_555 1_555
C38 C36 1_555 1_555
H45 C38 1_555 1_555
H46 C38 1_555 1_555
C39 C30 1_555 1_555
H47 C39 1_555 1_555
H48 C39 1_555 1_555
C40 C26 1_555 1_555
H49 C40 1_555 1_555
H50 C40 1_555 1_555
H51 C40 1_555 1_555
C41 C26 1_555 1_555
H52 C41 1_555 1_555
H53 C41 1_555 1_555
H54 C41 1_555 1_555
C42 O6 1_555 1_555
C43 C42 1_555 1_555
H55 C43 1_555 1_555
H56 C43 1_555 1_555
H57 C43 1_555 1_555
C44 C32 1_555 1_555
H58 C44 1_555 1_555
H59 C44 1_555 1_555
H60 C44 1_555 1_555
C5 C10 1_555 1_555
C9 C10 1_555 1_555
C13 C16 1_555 1_555
C14 C15 1_555 1_555
C27 C32 1_555 1_555
C31 C32 1_555 1_555
C35 C39 1_555 1_555
C36 C37 1_555 1_555

#END
