
#######################################################################
#
#                 Cambridge Crystallographic Data Centre
#                                CCDC 
#
#######################################################################
#
# If this CIF has been generated from an entry in the Cambridge 
# Structural Database, then it will include bibliographic, chemical, 
# crystal, experimental, refinement or atomic coordinate data resulting 
# from the CCDC's data processing and validation procedures.
#
#######################################################################

data_ADUBAF
_chemical_formula_moiety         'C22 H30 O4'
_chemical_name_systematic        '1,12-dioxokaur-16-en-6-yl acetate'
_symmetry_cell_setting           triclinic
_symmetry_space_group_name_H-M   'P -1'
_symmetry_Int_Tables_number      2
_space_group_name_Hall           '-P 1'
loop_
_symmetry_equiv_pos_site_id
_symmetry_equiv_pos_as_xyz
1 x,y,z
2 -x,-y,-z
_cell_length_a                   7.7145(9)
_cell_length_b                   9.0116(11)
_cell_length_c                   14.7861(17)
_cell_angle_alpha                84.679(2)
_cell_angle_beta                 80.262(2)
_cell_angle_gamma                67.698(2)
_cell_volume                     936.874
_exptl_crystal_colour            colorless
_exptl_crystal_description       block
_cell_formula_units_Z            2
loop_
_atom_site_label
_atom_site_type_symbol
_atom_site_fract_x
_atom_site_fract_y
_atom_site_fract_z
O1 O 0.38297(12) -0.00216(11) 0.11179(6)
O2 O 0.92538(11) -0.11367(10) 0.31141(6)
O3 O 1.18441(13) -0.10203(12) 0.35640(7)
O4 O 0.07947(12) 0.40480(11) 0.35429(7)
C1 C 0.52332(15) -0.05854(14) 0.15007(8)
C2 C 0.57883(16) -0.22721(14) 0.19076(9)
H1 H 0.5484 -0.2936 0.1509
H2 H 0.5007 -0.2245 0.2515
C3 C 0.78775(16) -0.30870(14) 0.20269(9)
H3 H 0.8301 -0.4250 0.1926
H4 H 0.8025 -0.2955 0.2663
C4 C 0.91269(15) -0.23776(14) 0.13526(8)
C5 C 0.85697(15) -0.05722(13) 0.15318(8)
H5 H 0.9104 -0.0143 0.0950
C6 C 0.95239(15) -0.02182(14) 0.22695(8)
H6 H 1.0910 -0.0531 0.2047
C7 C 0.86707(16) 0.15494(14) 0.24771(8)
H7 H 0.8711 0.2187 0.1897
H8 H 0.9438 0.1786 0.2876
C8 C 0.66142(15) 0.20540(13) 0.29554(8)
C9 C 0.55623(15) 0.10786(13) 0.26250(8)
H9 H 0.5796 0.0103 0.3041
C10 C 0.63667(15) 0.04426(13) 0.16262(8)
C11 C 0.33770(16) 0.19819(15) 0.27499(9)
H10 H 0.3004 0.2293 0.2131
H11 H 0.2792 0.1207 0.3023
C12 C 0.25000(16) 0.34638(14) 0.33219(8)
C13 C 0.38152(17) 0.41844(14) 0.35896(9)
H12 H 0.3161 0.5348 0.3730
C14 C 0.46868(17) 0.31734(15) 0.43959(9)
C15 C 0.64845(17) 0.18591(15) 0.40108(8)
H13 H 0.6447 0.0794 0.4219
H14 H 0.7593 0.1961 0.4213
C16 C 0.40050(19) 0.34333(17) 0.52781(9)
H15 H 0.4672 0.2751 0.5736
H16 H 0.2850 0.4302 0.5451
C17 C 0.55266(17) 0.38691(14) 0.28358(9)
H17 H 0.6302 0.4486 0.2929
H18 H 0.5128 0.4145 0.2220
C18 C 0.88685(18) -0.25306(15) 0.03609(9)
H19 H 0.9024 -0.3638 0.0266
H20 H 0.9819 -0.2246 -0.0068
H21 H 0.7598 -0.1805 0.0253
C19 C 1.12170(16) -0.33379(15) 0.14414(9)
H22 H 1.1407 -0.3356 0.2082
H23 H 1.2010 -0.2832 0.1050
H24 H 1.1568 -0.4439 0.1250
C20 C 1.04792(16) -0.13984(14) 0.37155(8)
C21 C 0.99090(19) -0.21971(17) 0.45799(9)
H25 H 1.1022 -0.2777 0.4885
H26 H 0.9367 -0.2954 0.4435
H27 H 0.8963 -0.1385 0.4988
C22 C 0.59992(17) 0.17953(14) 0.08836(8)
H28 H 0.6401 0.1328 0.0275
H29 H 0.6718 0.2462 0.0949
H30 H 0.4645 0.2457 0.0953
loop_
_geom_bond_atom_site_label_1
_geom_bond_atom_site_label_2
_geom_bond_site_symmetry_1
_geom_bond_site_symmetry_2
O1 C1 1_555 1_555
O2 C6 1_555 1_555
O3 C20 1_555 1_555
O4 C12 1_555 1_555
C1 C2 1_555 1_555
C2 H1 1_555 1_555
H2 C2 1_555 1_555
C3 C2 1_555 1_555
H3 C3 1_555 1_555
H4 C3 1_555 1_555
C4 C3 1_555 1_555
C5 C4 1_555 1_555
H5 C5 1_555 1_555
C6 C5 1_555 1_555
H6 C6 1_555 1_555
C7 C6 1_555 1_555
H7 C7 1_555 1_555
H8 C7 1_555 1_555
C8 C7 1_555 1_555
C9 C8 1_555 1_555
H9 C9 1_555 1_555
C10 C1 1_555 1_555
C11 C9 1_555 1_555
H10 C11 1_555 1_555
H11 C11 1_555 1_555
C12 C11 1_555 1_555
C13 C12 1_555 1_555
H12 C13 1_555 1_555
C14 C13 1_555 1_555
C15 C8 1_555 1_555
H13 C15 1_555 1_555
H14 C15 1_555 1_555
C16 C14 1_555 1_555
H15 C16 1_555 1_555
H16 C16 1_555 1_555
C17 C8 1_555 1_555
H17 C17 1_555 1_555
H18 C17 1_555 1_555
C18 C4 1_555 1_555
H19 C18 1_555 1_555
H20 C18 1_555 1_555
H21 C18 1_555 1_555
C19 C4 1_555 1_555
H22 C19 1_555 1_555
H23 C19 1_555 1_555
H24 C19 1_555 1_555
C20 O2 1_555 1_555
C21 C20 1_555 1_555
H25 C21 1_555 1_555
H26 C21 1_555 1_555
H27 C21 1_555 1_555
C22 C10 1_555 1_555
H28 C22 1_555 1_555
H29 C22 1_555 1_555
H30 C22 1_555 1_555
C5 C10 1_555 1_555
C9 C10 1_555 1_555
C13 C17 1_555 1_555
C14 C15 1_555 1_555

#END
