
#######################################################################
#
#                 Cambridge Crystallographic Data Centre
#                                CCDC 
#
#######################################################################
#
# If this CIF has been generated from an entry in the Cambridge 
# Structural Database, then it will include bibliographic, chemical, 
# crystal, experimental, refinement or atomic coordinate data resulting 
# from the CCDC's data processing and validation procedures.
#
#######################################################################

data_ADUBIN
_chemical_formula_moiety         'C22 H34 O4'
_chemical_name_systematic        
5',5',9'-trimethyl-14'-methylenespiro[1,3-dioxolane-2,12'-tetracyclo[11.2.1.0^1,10^.0^4,9^]hexadecane]-3',8'-diol
_symmetry_cell_setting           monoclinic
_symmetry_space_group_name_H-M   'P 21'
_symmetry_Int_Tables_number      4
_space_group_name_Hall           'P 2yb'
loop_
_symmetry_equiv_pos_site_id
_symmetry_equiv_pos_as_xyz
1 x,y,z
2 -x,1/2+y,-z
_cell_length_a                   11.229(16)
_cell_length_b                   6.209(9)
_cell_length_c                   14.14(2)
_cell_angle_alpha                90
_cell_angle_beta                 113.29(2)
_cell_angle_gamma                90
_cell_volume                     905.521
_exptl_crystal_colour            colorless
_exptl_crystal_description       needle
_cell_formula_units_Z            2
loop_
_atom_site_label
_atom_site_type_symbol
_atom_site_fract_x
_atom_site_fract_y
_atom_site_fract_z
O1 O 0.5007(8) 0.795(2) 0.0321(6)
H1 H 0.4274 0.7759 -0.0155
O2 O 0.7313(9) 0.6157(12) 0.4448(7)
H2 H 0.7860 0.6212 0.5060
O3 O 0.8785(10) 0.5892(14) 0.1588(9)
O4 O 0.9523(9) 0.8867(16) 0.1046(8)
C1 C 0.4861(11) 0.835(3) 0.1248(9)
H3 H 0.4683 0.9924 0.1262
C2 C 0.3622(10) 0.716(3) 0.1161(9)
H4 H 0.2894 0.7597 0.0517
H5 H 0.3749 0.5591 0.1135
C3 C 0.3300(12) 0.770(3) 0.2077(10)
H6 H 0.3114 0.9264 0.2070
H7 H 0.2510 0.6910 0.2020
C4 C 0.4374(12) 0.714(2) 0.3063(10)
C5 C 0.5635(10) 0.8243(17) 0.3122(8)
H8 H 0.5383 0.9798 0.3038
C6 C 0.6757(11) 0.8236(18) 0.4138(9)
H9 H 0.6405 0.8684 0.4657
C7 C 0.7794(11) 0.9893(18) 0.4205(8)
H10 H 0.7445 1.1360 0.4198
H11 H 0.8553 0.9705 0.4865
C8 C 0.8215(11) 0.9674(17) 0.3340(10)
C9 C 0.7147(11) 0.9466(18) 0.2317(8)
H12 H 0.6711 1.0904 0.2205
C10 C 0.6042(11) 0.7868(18) 0.2204(9)
C11 C 0.7690(11) 0.9365(19) 0.1482(9)
H13 H 0.7031 0.8672 0.0867
H14 H 0.7801 1.0860 0.1288
C12 C 0.8947(13) 0.820(2) 0.1737(11)
C13 C 0.9895(12) 0.8497(17) 0.2799(11)
H15 H 1.0717 0.7683 0.2944
C14 C 1.0129(11) 1.0884(17) 0.3044(10)
C15 C 0.9063(12) 1.1630(18) 0.3356(10)
H16 H 0.8533 1.2745 0.2872
H17 H 0.9437 1.2261 0.4056
C16 C 1.1081(12) 1.206(2) 0.3003(10)
H18 H 1.1140 1.3545 0.3183
H19 H 1.1709 1.1431 0.2794
C17 C 0.9240(11) 0.7865(16) 0.3518(9)
H20 H 0.9870 0.7837 0.4244
H21 H 0.8820 0.6436 0.3334
C18 C 0.9454(16) 0.716(3) 0.0365(13)
H22 H 1.0324 0.6783 0.0393
H23 H 0.8878 0.7527 -0.0352
C19 C 0.8908(19) 0.540(3) 0.0769(15)
H24 H 0.8049 0.5004 0.0241
H25 H 0.9480 0.4128 0.0896
C20 C 0.6428(11) 0.5459(17) 0.2153(9)
H26 H 0.5642 0.4589 0.1829
H27 H 0.6924 0.4926 0.2852
H28 H 0.6959 0.5355 0.1747
C21 C 0.4033(12) 0.803(3) 0.3955(10)
H29 H 0.4054 0.9606 0.3951
H30 H 0.4667 0.7496 0.4615
H31 H 0.3164 0.7540 0.3862
C22 C 0.4511(14) 0.472(2) 0.3233(11)
H32 H 0.3767 0.4166 0.3357
H33 H 0.5312 0.4402 0.3831
H34 H 0.4541 0.4021 0.2621
loop_
_geom_bond_atom_site_label_1
_geom_bond_atom_site_label_2
_geom_bond_site_symmetry_1
_geom_bond_site_symmetry_2
O1 H1 1_555 1_555
O2 H2 1_555 1_555
O3 C12 1_555 1_555
O4 C12 1_555 1_555
C1 O1 1_555 1_555
H3 C1 1_555 1_555
C2 C1 1_555 1_555
H4 C2 1_555 1_555
H5 C2 1_555 1_555
C3 C2 1_555 1_555
H6 C3 1_555 1_555
H7 C3 1_555 1_555
C4 C3 1_555 1_555
C5 C4 1_555 1_555
H8 C5 1_555 1_555
C6 O2 1_555 1_555
H9 C6 1_555 1_555
C7 C6 1_555 1_555
H10 C7 1_555 1_555
H11 C7 1_555 1_555
C8 C7 1_555 1_555
C9 C8 1_555 1_555
H12 C9 1_555 1_555
C10 C1 1_555 1_555
C11 C9 1_555 1_555
H13 C11 1_555 1_555
H14 C11 1_555 1_555
C12 C11 1_555 1_555
C13 C12 1_555 1_555
H15 C13 1_555 1_555
C14 C13 1_555 1_555
C15 C8 1_555 1_555
H16 C15 1_555 1_555
H17 C15 1_555 1_555
C16 C14 1_555 1_555
H18 C16 1_555 1_555
H19 C16 1_555 1_555
C17 C8 1_555 1_555
H20 C17 1_555 1_555
H21 C17 1_555 1_555
C18 O4 1_555 1_555
H22 C18 1_555 1_555
H23 C18 1_555 1_555
C19 O3 1_555 1_555
H24 C19 1_555 1_555
H25 C19 1_555 1_555
C20 C10 1_555 1_555
H26 C20 1_555 1_555
H27 C20 1_555 1_555
H28 C20 1_555 1_555
C21 C4 1_555 1_555
H29 C21 1_555 1_555
H30 C21 1_555 1_555
H31 C21 1_555 1_555
C22 C4 1_555 1_555
H32 C22 1_555 1_555
H33 C22 1_555 1_555
H34 C22 1_555 1_555
C5 C6 1_555 1_555
C5 C10 1_555 1_555
C9 C10 1_555 1_555
C13 C17 1_555 1_555
C14 C15 1_555 1_555
C18 C19 1_555 1_555

#END
