
#######################################################################
#
#                 Cambridge Crystallographic Data Centre
#                                CCDC 
#
#######################################################################
#
# If this CIF has been generated from an entry in the Cambridge 
# Structural Database, then it will include bibliographic, chemical, 
# crystal, experimental, refinement or atomic coordinate data resulting 
# from the CCDC's data processing and validation procedures.
#
#######################################################################

data_ADUCUA
_chemical_formula_moiety         'C86 H144 Br2 N2 O28 Si16'
_chemical_name_systematic        
"5,12-dibromo-2,9-bis(3-(heptakis(isobutyl)octasilsesquioxanyl)propyl)isoquinolino[4',5',6':6,5,10]anthra[2,1,9-def]isoquinoline-1,3,8,10(2H,9H)-tetrone unknown solvate"
_symmetry_cell_setting           triclinic
_symmetry_space_group_name_H-M   'P -1'
_symmetry_Int_Tables_number      2
_space_group_name_Hall           '-P 1'
loop_
_symmetry_equiv_pos_site_id
_symmetry_equiv_pos_as_xyz
1 x,y,z
2 -x,-y,-z
_cell_length_a                   11.1395(19)
_cell_length_b                   21.597(4)
_cell_length_c                   24.323(4)
_cell_angle_alpha                92.569(3)
_cell_angle_beta                 98.988(3)
_cell_angle_gamma                90.655(3)
_cell_volume                     5772.95
_exptl_crystal_colour            orange
_exptl_crystal_description       prism
_cell_formula_units_Z            2
_chemical_properties_physical    ', Efflorescent'
_exptl_crystal_recrystallization_method 'solvent diffusion'
_exptl_crystal_preparation       ', Luminescent'
loop_
_atom_site_label
_atom_site_type_symbol
_atom_site_fract_x
_atom_site_fract_y
_atom_site_fract_z
Br1 Br 0.24008(6) 0.96703(4) 0.42344(3)
Br2 Br -0.06202(7) 0.94692(5) 0.71212(3)
Si1 Si -0.74104(16) 0.79834(8) 0.30137(7)
Si2 Si -1.01500(16) 0.80206(8) 0.25968(7)
Si3 Si -1.00003(16) 0.67496(8) 0.19125(7)
Si4 Si -0.72122(16) 0.67297(9) 0.23382(7)
Si5 Si -0.78972(16) 0.72390(9) 0.40418(7)
Si6 Si -1.06505(16) 0.72789(8) 0.36123(7)
Si7 Si -1.05032(16) 0.60330(8) 0.29158(7)
Si8 Si -0.77022(17) 0.59997(9) 0.33576(7)
Si9 Si 0.89798(17) 0.86559(9) 0.86513(7)
Si10 Si 1.17350(15) 0.86172(8) 0.90736(7)
Si11 Si 1.19548(18) 0.74571(10) 0.82883(8)
Si12 Si 0.91821(18) 0.74993(9) 0.78426(7)
Si13 Si 0.84527(16) 0.77736(9) 0.95638(7)
Si14 Si 1.12078(16) 0.77197(8) 1.00001(7)
Si15 Si 1.1412(2) 0.65757(9) 0.92127(8)
Si16 Si 0.86482(19) 0.66303(10) 0.87515(8)
N1 N -0.3318(5) 0.9014(2) 0.40921(19)
N2 N 0.5221(4) 0.9553(2) 0.7322(2)
O1 O -0.2209(4) 0.9274(2) 0.34321(18)
O2 O -0.4375(4) 0.8736(2) 0.47796(18)
O3 O 0.4067(4) 0.9519(3) 0.80062(18)
O4 O 0.6422(4) 0.9483(3) 0.66477(19)
O5 O -0.8728(4) 0.8231(2) 0.27445(19)
O6 O -1.0259(4) 0.7431(2) 0.21573(18)
O7 O -0.8544(4) 0.6676(2) 0.19626(18)
O8 O -0.7032(4) 0.7422(2) 0.26223(19)
O9 O -0.7497(4) 0.7727(2) 0.36188(19)
O10 O -1.0589(4) 0.7812(2) 0.31679(18)
O11 O -1.0536(4) 0.6237(2) 0.22839(17)
O12 O -0.7149(5) 0.6238(2) 0.2832(2)
O13 O -0.9354(4) 0.7270(2) 0.40249(17)
O14 O -1.0901(4) 0.6610(2) 0.32889(18)
O15 O -0.9134(4) 0.5843(2) 0.31612(19)
O16 O -0.7541(5) 0.6557(2) 0.38362(19)
O17 O 1.0384(4) 0.8859(2) 0.8837(2)
O18 O 1.2126(4) 0.8129(2) 0.86148(19)
O19 O 1.0654(5) 0.7430(2) 0.78891(19)
O20 O 0.8899(5) 0.8148(2) 0.8142(2)
O21 O 0.8487(5) 0.8354(2) 0.9165(2)
O22 O 1.1658(4) 0.8256(2) 0.96369(17)
O23 O 1.1973(5) 0.6918(2) 0.8730(2)
O24 O 0.8668(5) 0.6943(2) 0.81539(19)
O25 O 0.9758(4) 0.7756(2) 0.99653(19)
O26 O 1.1557(5) 0.7051(2) 0.9751(2)
O27 O 1.0002(5) 0.6419(2) 0.8990(2)
O28 O 0.8235(4) 0.7140(2) 0.91790(19)
C1 C -0.1117(6) 0.9151(3) 0.4318(2)
C2 C 0.0006(5) 0.9323(3) 0.4171(3)
H1 H 0.0042 0.9423 0.3802
C3 C 0.1070(5) 0.9351(3) 0.4561(2)
C4 C 0.1107(5) 0.9203(3) 0.5104(2)
C5 C -0.0040(6) 0.9071(3) 0.5287(3)
C6 C -0.0127(5) 0.8996(3) 0.5852(2)
C7 C -0.1208(6) 0.8742(3) 0.5972(3)
H2 H -0.1242 0.8628 0.6338
C8 C -0.2257(6) 0.8652(3) 0.5563(3)
H3 H -0.2960 0.8463 0.5653
C9 C -0.2236(5) 0.8842(3) 0.5034(2)
C10 C -0.1121(6) 0.9027(3) 0.4882(2)
C11 C 0.3028(6) 0.9385(3) 0.7092(2)
C12 C 0.1892(6) 0.9405(4) 0.7231(3)
H4 H 0.1808 0.9477 0.7607
C13 C 0.0851(6) 0.9322(4) 0.6836(2)
C14 C 0.0891(6) 0.9175(3) 0.6277(2)
C15 C 0.2078(5) 0.9220(3) 0.6105(2)
C16 C 0.2212(5) 0.9188(3) 0.5536(2)
C17 C 0.3383(6) 0.9135(3) 0.5403(3)
H5 H 0.3478 0.9058 0.5029
C18 C 0.4404(6) 0.9193(4) 0.5806(3)
H6 H 0.5177 0.9144 0.5703
C19 C 0.4310(5) 0.9324(3) 0.6361(3)
C20 C 0.3125(5) 0.9304(3) 0.6508(2)
C21 C -0.2216(6) 0.9149(3) 0.3917(2)
C22 C -0.3387(6) 0.8843(3) 0.4638(3)
C23 C 0.4105(6) 0.9465(3) 0.7504(3)
C24 C 0.5385(6) 0.9432(3) 0.6772(3)
C25 C -0.4451(6) 0.9096(3) 0.3719(3)
H7 H -0.4291 0.9345 0.3411
H8 H -0.5012 0.9326 0.3922
C26 C -0.5067(6) 0.8475(3) 0.3479(3)
H9 H -0.5233 0.8220 0.3783
H10 H -0.4528 0.8246 0.3264
C27 C -0.6271(6) 0.8615(3) 0.3098(3)
H11 H -0.6088 0.8710 0.2729
H12 H -0.6623 0.8986 0.3251
C28 C -1.1087(6) 0.8661(3) 0.2313(3)
H13 H -1.1016 0.9001 0.2598
H14 H -1.0749 0.8813 0.1995
C29 C -1.2440(8) 0.8511(4) 0.2124(3)
H15 H -1.2718 0.8256 0.2410
C30 C -1.3209(10) 0.9097(5) 0.2083(4)
H16 H -1.3083 0.9328 0.2440
H17 H -1.4062 0.8981 0.1983
H18 H -1.2969 0.9354 0.1800
C31 C -1.2692(12) 0.8143(5) 0.1575(5)
H19 H -1.2398 0.8375 0.1289
H20 H -1.3560 0.8067 0.1474
H21 H -1.2279 0.7750 0.1609
C32 C -1.0773(6) 0.6651(3) 0.1196(2)
H22 H -1.1603 0.6801 0.1187
H23 H -1.0366 0.6926 0.0971
C33 C -1.0862(7) 0.6006(3) 0.0906(3)
H24 H -1.1178 0.5713 0.1153
C34 C -1.1713(11) 0.5982(4) 0.0351(3)
H25 H -1.2511 0.6121 0.0409
H26 H -1.1777 0.5560 0.0194
H27 H -1.1393 0.6250 0.0096
C35 C -0.9626(12) 0.5786(7) 0.0797(6)
H28 H -0.9630 0.5736 0.0399
H29 H -0.9454 0.5392 0.0966
H30 H -0.9006 0.6089 0.0957
C36 C -0.6038(6) 0.6577(4) 0.1895(3)
H31 H -0.6343 0.6235 0.1629
H32 H -0.5976 0.6944 0.1678
C37 C -0.4767(7) 0.6419(5) 0.2154(3)
H33 H -0.4832 0.6024 0.2340
C38 C -0.3945(8) 0.6300(6) 0.1718(4)
H34 H -0.3844 0.6678 0.1529
H35 H -0.4308 0.5979 0.1450
H36 H -0.3158 0.6167 0.1899
C39 C -0.4213(9) 0.6881(5) 0.2593(5)
H37 H -0.3649 0.6676 0.2869
H38 H -0.4846 0.7071 0.2771
H39 H -0.3781 0.7197 0.2426
C40 C -0.7065(7) 0.7455(4) 0.4750(3)
H40 H -0.6222 0.7557 0.4714
H41 H -0.7421 0.7836 0.4884
C41 C -0.7040(15) 0.6983(7) 0.5201(4)
H42 H -0.6882 0.6560 0.5058
C42 C -0.6039(13) 0.7211(8) 0.5678(4)
H43 H -0.6361 0.7527 0.5907
H44 H -0.5363 0.7384 0.5524
H45 H -0.5761 0.6866 0.5904
C43 C -0.8207(17) 0.7020(12) 0.5375(6)
H46 H -0.8153 0.7293 0.5706
H47 H -0.8472 0.6610 0.5459
H48 H -0.8789 0.7181 0.5079
C44 C -1.1921(6) 0.7446(3) 0.4003(3)
H49 H -1.1648 0.7775 0.4288
H50 H -1.2590 0.7612 0.3744
C45 C -1.2417(8) 0.6921(4) 0.4284(4)
H51 H -1.2685 0.6600 0.3985
C46 C -1.3561(10) 0.7103(5) 0.4522(5)
H52 H -1.3393 0.7475 0.4762
H53 H -1.3807 0.6769 0.4736
H54 H -1.4209 0.7182 0.4219
C47 C -1.1532(12) 0.6620(7) 0.4690(6)
H55 H -1.0967 0.6391 0.4497
H56 H -1.1953 0.6337 0.4897
H57 H -1.1091 0.6932 0.4945
C48 C -1.1619(8) 0.5391(4) 0.2964(4)
H58 H -1.1753 0.5397 0.3353
H59 H -1.2389 0.5507 0.2743
C49 C -1.1418(13) 0.4754(6) 0.2805(7)
H60 H -1.0611 0.4637 0.3000
C50 C -1.2300(18) 0.4307(6) 0.2925(11)
H61 H -1.2648 0.4456 0.3246
H62 H -1.1907 0.3915 0.3003
H63 H -1.2938 0.4249 0.2606
C51 C -1.137(2) 0.4736(7) 0.2260(6)
H64 H -1.1239 0.4314 0.2133
H65 H -1.0714 0.5002 0.2189
H66 H -1.2136 0.4879 0.2061
C52 C -0.6951(7) 0.5297(4) 0.3607(3)
H67 H -0.7471 0.5102 0.3843
H68 H -0.6941 0.5014 0.3282
C53 C -0.5686(11) 0.5327(6) 0.3927(7)
H69 H -0.5726 0.5583 0.4272
C54 C -0.5345(15) 0.4665(7) 0.4116(10)
H70 H -0.5056 0.4430 0.3815
H71 H -0.6056 0.4458 0.4212
H72 H -0.4711 0.4694 0.4439
C55 C -0.4689(17) 0.5574(8) 0.3691(9)
H73 H -0.4832 0.5492 0.3290
H74 H -0.3942 0.5380 0.3850
H75 H -0.4619 0.6018 0.3772
C56 C 0.6298(6) 0.9711(3) 0.7749(3)
H76 H 0.6042 0.9963 0.8054
H77 H 0.6874 0.9961 0.7582
C57 C 0.6925(6) 0.9146(3) 0.7980(3)
H78 H 0.7167 0.8887 0.7676
H79 H 0.6363 0.8902 0.8160
C58 C 0.8091(6) 0.9338(3) 0.8420(3)
H80 H 0.7838 0.9556 0.8743
H81 H 0.8605 0.9623 0.8251
C59 C 1.2839(7) 0.9264(3) 0.9226(3)
H82 H 1.3546 0.9102 0.9464
H83 H 1.3106 0.9351 0.8872
C60 C 1.2603(15) 0.9824(6) 0.9465(8)
H84 H 1.2084 0.9976 0.9131
C61 C 1.1766(18) 0.9941(8) 0.9834(7)
H85 H 1.1097 0.9643 0.9754
H86 H 1.1458 1.0357 0.9789
H87 H 1.2168 0.9904 1.0215
C62 C 1.356(2) 1.0344(8) 0.9513(10)
H88 H 1.3173 1.0732 0.9414
H89 H 1.4140 1.0246 0.9262
H90 H 1.3991 1.0384 0.9893
C63 C 1.3256(9) 0.7317(4) 0.7917(4)
H91 H 1.3988 0.7294 0.8197
H92 H 1.3131 0.6910 0.7721
C64 C 1.3500(10) 0.7773(4) 0.7509(4)
H93 H 1.3483 0.8192 0.7690
C65 C 1.2475(11) 0.7735(5) 0.6982(4)
H94 H 1.2561 0.7358 0.6761
H95 H 1.2550 0.8091 0.6760
H96 H 1.1684 0.7734 0.7102
C66 C 1.4766(10) 0.7698(5) 0.7312(5)
H97 H 1.5372 0.7604 0.7627
H98 H 1.4992 0.8082 0.7158
H99 H 1.4716 0.7364 0.7029
C67 C 0.8402(8) 0.7499(4) 0.7107(3)
H100 H 0.7605 0.7685 0.7109
H101 H 0.8870 0.7773 0.6906
C68 C 0.8207(14) 0.6897(6) 0.6779(4)
H102 H 0.7805 0.6612 0.7005
C69 C 0.7360(15) 0.6955(8) 0.6245(5)
H103 H 0.7617 0.7303 0.6050
H104 H 0.6543 0.7022 0.6324
H105 H 0.7369 0.6577 0.6014
C70 C 0.925(2) 0.6646(10) 0.6715(8)
H106 H 0.9756 0.6620 0.7076
H107 H 0.9662 0.6900 0.6480
H108 H 0.9105 0.6233 0.6541
C71 C 0.7247(7) 0.7860(4) 0.9998(3)
H109 H 0.7389 0.7558 1.0289
H110 H 0.7338 0.8273 1.0184
C72 C 0.5943(8) 0.7780(6) 0.9715(4)
H111 H 0.5854 0.7337 0.9589
C73 C 0.5561(11) 0.8125(8) 0.9209(5)
H112 H 0.4786 0.7960 0.9019
H113 H 0.6166 0.8081 0.8964
H114 H 0.5482 0.8560 0.9313
C74 C 0.5050(9) 0.7875(7) 1.0091(6)
H115 H 0.5076 0.8305 1.0224
H116 H 0.5238 0.7612 1.0405
H117 H 0.4243 0.7769 0.9893
C75 C 1.2006(6) 0.7826(3) 1.0724(3)
H118 H 1.1561 0.7590 1.0965
H119 H 1.2814 0.7646 1.0743
C76 C 1.2157(9) 0.8484(4) 1.0957(3)
H120 H 1.2496 0.8733 1.0684
C77 C 1.3049(14) 0.8526(6) 1.1497(4)
H121 H 1.2766 0.8262 1.1765
H122 H 1.3110 0.8952 1.1646
H123 H 1.3841 0.8392 1.1426
C78 C 1.0916(13) 0.8757(7) 1.1036(6)
H124 H 1.0274 0.8456 1.0899
H125 H 1.0785 0.9131 1.0830
H126 H 1.0911 0.8856 1.1428
C79 C 1.2185(9) 0.5851(4) 0.9365(4)
H127 H 1.1797 0.5647 0.9645
H128 H 1.2057 0.5582 0.9025
C80 C 1.3550(14) 0.5902(6) 0.9576(7)
H129 H 1.3804 0.6268 0.9389
C81 C 1.3824(16) 0.6093(8) 1.0161(7)
H130 H 1.3248 0.6402 1.0248
H131 H 1.4641 0.6269 1.0241
H132 H 1.3766 0.5737 1.0385
C82 C 1.4290(16) 0.5390(9) 0.9364(8)
H133 H 1.5144 0.5508 0.9438
H134 H 1.4037 0.5318 0.8966
H135 H 1.4163 0.5013 0.9552
C83 C 0.7637(11) 0.5966(5) 0.8676(4)
H136 H 0.8095 0.5629 0.8861
H137 H 0.6989 0.6067 0.8893
C84 C 0.7051(14) 0.5713(6) 0.8139(5)
H138 H 0.7591 0.5690 0.7853
C85 C 0.6243(15) 0.5188(6) 0.8119(6)
H139 H 0.5900 0.5184 0.8461
H140 H 0.6688 0.4810 0.8075
H141 H 0.5593 0.5215 0.7805
C86 C 0.599(3) 0.6213(13) 0.8024(12)
H142 H 0.5731 0.6232 0.7626
H143 H 0.6301 0.6618 0.8176
H144 H 0.5310 0.6092 0.8201
loop_
_geom_bond_atom_site_label_1
_geom_bond_atom_site_label_2
_geom_bond_site_symmetry_1
_geom_bond_site_symmetry_2
Br1 C3 1_555 1_555
Br2 C13 1_555 1_555
Si1 O5 1_555 1_555
Si2 O5 1_555 1_555
Si3 O6 1_555 1_555
Si4 O7 1_555 1_555
Si5 O9 1_555 1_555
Si6 O10 1_555 1_555
Si7 O11 1_555 1_555
Si8 O12 1_555 1_555
Si9 O17 1_555 1_555
Si10 O17 1_555 1_555
Si11 O18 1_555 1_555
Si12 O19 1_555 1_555
Si13 O21 1_555 1_555
Si14 O22 1_555 1_555
Si15 O23 1_555 1_555
Si16 O24 1_555 1_555
N1 C21 1_555 1_555
N2 C23 1_555 1_555
O1 C21 1_555 1_555
O2 C22 1_555 1_555
O3 C23 1_555 1_555
O4 C24 1_555 1_555
O6 Si2 1_555 1_555
O7 Si3 1_555 1_555
O8 Si1 1_555 1_555
O9 Si1 1_555 1_555
O10 Si2 1_555 1_555
O11 Si3 1_555 1_555
O12 Si4 1_555 1_555
O13 Si5 1_555 1_555
O14 Si6 1_555 1_555
O15 Si7 1_555 1_555
O16 Si5 1_555 1_555
O18 Si10 1_555 1_555
O19 Si11 1_555 1_555
O20 Si9 1_555 1_555
O21 Si9 1_555 1_555
O22 Si10 1_555 1_555
O23 Si11 1_555 1_555
O24 Si12 1_555 1_555
O25 Si13 1_555 1_555
O26 Si14 1_555 1_555
O27 Si15 1_555 1_555
O28 Si13 1_555 1_555
C1 C2 1_555 1_555
C2 H1 1_555 1_555
C3 C2 1_555 1_555
C4 C3 1_555 1_555
C5 C4 1_555 1_555
C6 C5 1_555 1_555
C7 C6 1_555 1_555
H2 C7 1_555 1_555
C8 C7 1_555 1_555
H3 C8 1_555 1_555
C9 C8 1_555 1_555
C10 C1 1_555 1_555
C11 C12 1_555 1_555
C12 H4 1_555 1_555
C13 C12 1_555 1_555
C14 C6 1_555 1_555
C15 C14 1_555 1_555
C16 C4 1_555 1_555
C17 C16 1_555 1_555
H5 C17 1_555 1_555
C18 C17 1_555 1_555
H6 C18 1_555 1_555
C19 C18 1_555 1_555
C20 C11 1_555 1_555
C21 C1 1_555 1_555
C22 N1 1_555 1_555
C23 C11 1_555 1_555
C24 N2 1_555 1_555
C25 N1 1_555 1_555
H7 C25 1_555 1_555
H8 C25 1_555 1_555
C26 C25 1_555 1_555
H9 C26 1_555 1_555
H10 C26 1_555 1_555
C27 Si1 1_555 1_555
H11 C27 1_555 1_555
H12 C27 1_555 1_555
C28 Si2 1_555 1_555
H13 C28 1_555 1_555
H14 C28 1_555 1_555
C29 C28 1_555 1_555
H15 C29 1_555 1_555
C30 C29 1_555 1_555
H16 C30 1_555 1_555
H17 C30 1_555 1_555
H18 C30 1_555 1_555
C31 C29 1_555 1_555
H19 C31 1_555 1_555
H20 C31 1_555 1_555
H21 C31 1_555 1_555
C32 Si3 1_555 1_555
H22 C32 1_555 1_555
H23 C32 1_555 1_555
C33 C32 1_555 1_555
H24 C33 1_555 1_555
C34 C33 1_555 1_555
H25 C34 1_555 1_555
H26 C34 1_555 1_555
H27 C34 1_555 1_555
C35 C33 1_555 1_555
H28 C35 1_555 1_555
H29 C35 1_555 1_555
H30 C35 1_555 1_555
C36 Si4 1_555 1_555
H31 C36 1_555 1_555
H32 C36 1_555 1_555
C37 C36 1_555 1_555
H33 C37 1_555 1_555
C38 C37 1_555 1_555
H34 C38 1_555 1_555
H35 C38 1_555 1_555
H36 C38 1_555 1_555
C39 C37 1_555 1_555
H37 C39 1_555 1_555
H38 C39 1_555 1_555
H39 C39 1_555 1_555
C40 Si5 1_555 1_555
H40 C40 1_555 1_555
H41 C40 1_555 1_555
C41 C40 1_555 1_555
H42 C41 1_555 1_555
C42 C41 1_555 1_555
H43 C42 1_555 1_555
H44 C42 1_555 1_555
H45 C42 1_555 1_555
C43 C41 1_555 1_555
H46 C43 1_555 1_555
H47 C43 1_555 1_555
H48 C43 1_555 1_555
C44 Si6 1_555 1_555
H49 C44 1_555 1_555
H50 C44 1_555 1_555
C45 C44 1_555 1_555
H51 C45 1_555 1_555
C46 C45 1_555 1_555
H52 C46 1_555 1_555
H53 C46 1_555 1_555
H54 C46 1_555 1_555
C47 C45 1_555 1_555
H55 C47 1_555 1_555
H56 C47 1_555 1_555
H57 C47 1_555 1_555
C48 Si7 1_555 1_555
H58 C48 1_555 1_555
H59 C48 1_555 1_555
C49 C48 1_555 1_555
H60 C49 1_555 1_555
C50 C49 1_555 1_555
H61 C50 1_555 1_555
H62 C50 1_555 1_555
H63 C50 1_555 1_555
C51 C49 1_555 1_555
H64 C51 1_555 1_555
H65 C51 1_555 1_555
H66 C51 1_555 1_555
C52 Si8 1_555 1_555
H67 C52 1_555 1_555
H68 C52 1_555 1_555
C53 C52 1_555 1_555
H69 C53 1_555 1_555
C54 C53 1_555 1_555
H70 C54 1_555 1_555
H71 C54 1_555 1_555
H72 C54 1_555 1_555
C55 C53 1_555 1_555
H73 C55 1_555 1_555
H74 C55 1_555 1_555
H75 C55 1_555 1_555
C56 N2 1_555 1_555
H76 C56 1_555 1_555
H77 C56 1_555 1_555
C57 C56 1_555 1_555
H78 C57 1_555 1_555
H79 C57 1_555 1_555
C58 Si9 1_555 1_555
H80 C58 1_555 1_555
H81 C58 1_555 1_555
C59 Si10 1_555 1_555
H82 C59 1_555 1_555
H83 C59 1_555 1_555
C60 C59 1_555 1_555
H84 C60 1_555 1_555
C61 C60 1_555 1_555
H85 C61 1_555 1_555
H86 C61 1_555 1_555
H87 C61 1_555 1_555
C62 C60 1_555 1_555
H88 C62 1_555 1_555
H89 C62 1_555 1_555
H90 C62 1_555 1_555
C63 Si11 1_555 1_555
H91 C63 1_555 1_555
H92 C63 1_555 1_555
C64 C63 1_555 1_555
H93 C64 1_555 1_555
C65 C64 1_555 1_555
H94 C65 1_555 1_555
H95 C65 1_555 1_555
H96 C65 1_555 1_555
C66 C64 1_555 1_555
H97 C66 1_555 1_555
H98 C66 1_555 1_555
H99 C66 1_555 1_555
C67 Si12 1_555 1_555
H100 C67 1_555 1_555
H101 C67 1_555 1_555
C68 C67 1_555 1_555
H102 C68 1_555 1_555
C69 C68 1_555 1_555
H103 C69 1_555 1_555
H104 C69 1_555 1_555
H105 C69 1_555 1_555
C70 C68 1_555 1_555
H106 C70 1_555 1_555
H107 C70 1_555 1_555
H108 C70 1_555 1_555
C71 Si13 1_555 1_555
H109 C71 1_555 1_555
H110 C71 1_555 1_555
C72 C71 1_555 1_555
H111 C72 1_555 1_555
C73 C72 1_555 1_555
H112 C73 1_555 1_555
H113 C73 1_555 1_555
H114 C73 1_555 1_555
C74 C72 1_555 1_555
H115 C74 1_555 1_555
H116 C74 1_555 1_555
H117 C74 1_555 1_555
C75 Si14 1_555 1_555
H118 C75 1_555 1_555
H119 C75 1_555 1_555
C76 C75 1_555 1_555
H120 C76 1_555 1_555
C77 C76 1_555 1_555
H121 C77 1_555 1_555
H122 C77 1_555 1_555
H123 C77 1_555 1_555
C78 C76 1_555 1_555
H124 C78 1_555 1_555
H125 C78 1_555 1_555
H126 C78 1_555 1_555
C79 Si15 1_555 1_555
H127 C79 1_555 1_555
H128 C79 1_555 1_555
C80 C79 1_555 1_555
H129 C80 1_555 1_555
C81 C80 1_555 1_555
H130 C81 1_555 1_555
H131 C81 1_555 1_555
H132 C81 1_555 1_555
C82 C80 1_555 1_555
H133 C82 1_555 1_555
H134 C82 1_555 1_555
H135 C82 1_555 1_555
C83 Si16 1_555 1_555
H136 C83 1_555 1_555
H137 C83 1_555 1_555
C84 C83 1_555 1_555
H138 C84 1_555 1_555
C85 C84 1_555 1_555
H139 C85 1_555 1_555
H140 C85 1_555 1_555
H141 C85 1_555 1_555
C86 C84 1_555 1_555
H142 C86 1_555 1_555
H143 C86 1_555 1_555
H144 C86 1_555 1_555
Si4 O8 1_555 1_555
Si6 O13 1_555 1_555
Si7 O14 1_555 1_555
Si8 O15 1_555 1_555
Si8 O16 1_555 1_555
Si12 O20 1_555 1_555
Si14 O25 1_555 1_555
Si15 O26 1_555 1_555
Si16 O27 1_555 1_555
Si16 O28 1_555 1_555
C5 C10 1_555 1_555
C9 C10 1_555 1_555
C9 C22 1_555 1_555
C13 C14 1_555 1_555
C15 C16 1_555 1_555
C15 C20 1_555 1_555
C19 C20 1_555 1_555
C19 C24 1_555 1_555
C26 C27 1_555 1_555
C57 C58 1_555 1_555

#END
