
#######################################################################
#
#                 Cambridge Crystallographic Data Centre
#                                CCDC 
#
#######################################################################
#
# If this CIF has been generated from an entry in the Cambridge 
# Structural Database, then it will include bibliographic, chemical, 
# crystal, experimental, refinement or atomic coordinate data resulting 
# from the CCDC's data processing and validation procedures.
#
#######################################################################

data_ADUNIZ
_chemical_formula_moiety         'C26 H18 N2 O2'
_chemical_name_systematic        
1,4-diphenyl-2,3-bis(pyridin-2-yl)but-2-ene-1,4-dione
_symmetry_cell_setting           monoclinic
_symmetry_space_group_name_H-M   'C 2/c'
_symmetry_Int_Tables_number      15
_space_group_name_Hall           '-C 2yn'
loop_
_symmetry_equiv_pos_site_id
_symmetry_equiv_pos_as_xyz
1 x,y,z
2 -x,y,1/2-z
3 1/2+x,1/2+y,z
4 1/2-x,1/2+y,1/2-z
5 -x,-y,-z
6 x,-y,1/2+z
7 1/2-x,1/2-y,-z
8 1/2+x,1/2-y,1/2+z
_cell_length_a                   18.6938(7)
_cell_length_b                   8.1741(3)
_cell_length_c                   14.7066(5)
_cell_angle_alpha                90
_cell_angle_beta                 121.3770(10)
_cell_angle_gamma                90
_cell_volume                     1918.6
_exptl_crystal_colour            brown
_exptl_crystal_description       block
_cell_formula_units_Z            4
loop_
_atom_site_label
_atom_site_type_symbol
_atom_site_fract_x
_atom_site_fract_y
_atom_site_fract_z
C1 C 0.30094(7) 0.81922(13) 0.14665(9)
C2 C 0.36764(7) 0.69082(14) 0.05278(9)
N1 N 0.23347(6) 0.88441(14) 0.14230(8)
C3 C 0.28771(7) 0.75035(13) 0.04570(9)
C4 C 0.39253(7) 0.51637(14) 0.07844(9)
C5 C 0.46900(8) 0.46551(16) 0.09261(10)
H1 H 0.5054 0.5430 0.0891
C6 C 0.31826(8) 0.95916(18) 0.32601(10)
H2 H 0.3224 1.0107 0.3865
C7 C 0.34104(8) 0.40327(16) 0.08706(10)
H3 H 0.2894 0.4375 0.0788
C8 C 0.38709(8) 0.88853(17) 0.33145(10)
H4 H 0.4396 0.8881 0.3966
C9 C 0.36477(9) 0.24070(17) 0.10765(11)
H5 H 0.3296 0.1636 0.1141
C10 C 0.49172(9) 0.30284(17) 0.11165(11)
H6 H 0.5433 0.2680 0.1199
C11 C 0.43954(9) 0.19021(16) 0.11882(11)
H7 H 0.4551 0.0781 0.1314
C12 C 0.24263(9) 0.95304(18) 0.22975(11)
H8 H 0.1948 1.0004 0.2261
C13 C 0.37893(7) 0.81807(15) 0.24095(10)
H9 H 0.4259 0.7695 0.2431
O1 O 0.41404(5) 0.79269(10) 0.04955(7)
C1F C 0.19906(7) 0.68078(13) -0.14665(9)
C2F C 0.13236(7) 0.80918(14) -0.05278(9)
N1F N 0.26653(6) 0.61559(14) -0.14230(8)
C3F C 0.21229(7) 0.74965(13) -0.04570(9)
C4F C 0.10747(7) 0.98363(14) -0.07844(9)
C5F C 0.03100(8) 1.03449(16) -0.09261(10)
H1F H -0.0054 0.9570 -0.0891
C6F C 0.18174(8) 0.54084(18) -0.32601(10)
H2F H 0.1776 0.4893 -0.3865
C7F C 0.15896(8) 1.09673(16) -0.08706(10)
H3F H 0.2106 1.0625 -0.0788
C8F C 0.11291(8) 0.61147(17) -0.33145(10)
H4F H 0.0604 0.6119 -0.3966
C9F C 0.13523(9) 1.25930(17) -0.10765(11)
H5F H 0.1704 1.3364 -0.1141
C10F C 0.00828(9) 1.19716(17) -0.11165(11)
H6F H -0.0433 1.2320 -0.1199
C11F C 0.06046(9) 1.30979(16) -0.11882(11)
H7F H 0.0449 1.4219 -0.1314
C12F C 0.25737(9) 0.54696(18) -0.22975(11)
H8F H 0.3052 0.4996 -0.2261
C13F C 0.12107(7) 0.68193(15) -0.24095(10)
H9F H 0.0741 0.7305 -0.2431
O1F O 0.08596(5) 0.70731(10) -0.04955(7)
loop_
_geom_bond_atom_site_label_1
_geom_bond_atom_site_label_2
_geom_bond_site_symmetry_1
_geom_bond_site_symmetry_2
C1 N1 1_555 1_555
C2 C3 1_555 1_555
N1 C12 1_555 1_555
C3 C1 1_555 1_555
C4 C2 1_555 1_555
C5 C4 1_555 1_555
H1 C5 1_555 1_555
C6 H2 1_555 1_555
C7 C4 1_555 1_555
H3 C7 1_555 1_555
C8 C6 1_555 1_555
H4 C8 1_555 1_555
C9 C7 1_555 1_555
H5 C9 1_555 1_555
C10 C5 1_555 1_555
H6 C10 1_555 1_555
C11 C9 1_555 1_555
H7 C11 1_555 1_555
C12 C6 1_555 1_555
H8 C12 1_555 1_555
C13 C1 1_555 1_555
H9 C13 1_555 1_555
O1 C2 1_555 1_555
C1F N1F 1_555 1_555
C2F C3F 1_555 1_555
N1F C12F 1_555 1_555
C3F C3 1_555 1_555
C4F C2F 1_555 1_555
C5F C4F 1_555 1_555
H1F C5F 1_555 1_555
C6F H2F 1_555 1_555
C7F C4F 1_555 1_555
H3F C7F 1_555 1_555
C8F C6F 1_555 1_555
H4F C8F 1_555 1_555
C9F C7F 1_555 1_555
H5F C9F 1_555 1_555
C10F C5F 1_555 1_555
H6F C10F 1_555 1_555
C11F C9F 1_555 1_555
H7F C11F 1_555 1_555
C12F C6F 1_555 1_555
H8F C12F 1_555 1_555
C13F C1F 1_555 1_555
H9F C13F 1_555 1_555
O1F C2F 1_555 1_555
C8 C13 1_555 1_555
C10 C11 1_555 1_555
C1F C3F 1_555 1_555
C8F C13F 1_555 1_555
C10F C11F 1_555 1_555

#END
