
#######################################################################
#
#                 Cambridge Crystallographic Data Centre
#                                CCDC 
#
#######################################################################
#
# If this CIF has been generated from an entry in the Cambridge 
# Structural Database, then it will include bibliographic, chemical, 
# crystal, experimental, refinement or atomic coordinate data resulting 
# from the CCDC's data processing and validation procedures.
#
#######################################################################

data_ADUQUN
_chemical_formula_moiety         'C13 H9 Br2 N1 O1 Se1'
_chemical_name_systematic        
(2-((4-bromophenyl)carbamoyl)phenyl)-bromo-selenium
_symmetry_cell_setting           monoclinic
_symmetry_space_group_name_H-M   'P 21/n'
_symmetry_Int_Tables_number      14
_space_group_name_Hall           '-P 2yn'
loop_
_symmetry_equiv_pos_site_id
_symmetry_equiv_pos_as_xyz
1 x,y,z
2 1/2-x,1/2+y,1/2-z
3 -x,-y,-z
4 1/2+x,1/2-y,1/2+z
_cell_length_a                   8.5583(16)
_cell_length_b                   13.804(3)
_cell_length_c                   11.489(2)
_cell_angle_alpha                90
_cell_angle_beta                 91.462(11)
_cell_angle_gamma                90
_cell_volume                     1356.85
_exptl_crystal_colour            brown
_exptl_crystal_description       plate
_cell_formula_units_Z            4
loop_
_atom_site_label
_atom_site_type_symbol
_atom_site_fract_x
_atom_site_fract_y
_atom_site_fract_z
Se1 Se 0.86121(7) 0.12658(4) 0.38115(5)
Br1 Br 1.09335(8) 0.03374(5) 0.33063(7)
Br2 Br -0.06669(8) 0.33209(6) 0.63521(6)
O1 O 0.6529(4) 0.2109(3) 0.4180(3)
N1 N 0.5365(5) 0.3538(3) 0.3747(4)
H1 H 0.5463 0.4067 0.3360
C1 C 0.9100(6) 0.2422(4) 0.3013(5)
C2 C 0.7961(6) 0.3157(4) 0.3055(5)
C3 C 0.1981(6) 0.2515(5) 0.5276(5)
H2 H 0.1575 0.1922 0.5504
C4 C 0.6578(6) 0.2911(5) 0.3688(5)
C5 C 1.0473(6) 0.2608(5) 0.2434(5)
H3 H 1.1235 0.2129 0.2400
C6 C 0.8241(7) 0.4039(4) 0.2522(5)
H4 H 0.7489 0.4525 0.2544
C7 C 0.3965(6) 0.3440(4) 0.4356(5)
C8 C 0.3347(6) 0.2557(4) 0.4677(5)
H5 H 0.3861 0.1988 0.4486
C9 C 0.1822(7) 0.4248(5) 0.5210(5)
H6 H 0.1302 0.4818 0.5393
C10 C 0.9620(7) 0.4205(5) 0.1960(5)
H7 H 0.9805 0.4802 0.1613
C11 C 1.0722(7) 0.3479(5) 0.1918(6)
H8 H 1.1647 0.3586 0.1531
C12 C 0.1225(6) 0.3364(5) 0.5533(5)
C13 C 0.3190(7) 0.4281(5) 0.4617(5)
H9 H 0.3596 0.4874 0.4389
loop_
_geom_bond_atom_site_label_1
_geom_bond_atom_site_label_2
_geom_bond_site_symmetry_1
_geom_bond_site_symmetry_2
Se1 Br1 1_555 1_555
Br2 C12 1_555 1_555
O1 Se1 1_555 1_555
N1 H1 1_555 1_555
C1 Se1 1_555 1_555
C2 C1 1_555 1_555
C3 H2 1_555 1_555
C4 O1 1_555 1_555
C5 C1 1_555 1_555
H3 C5 1_555 1_555
C6 C2 1_555 1_555
H4 C6 1_555 1_555
C7 N1 1_555 1_555
C8 C3 1_555 1_555
H5 C8 1_555 1_555
C9 H6 1_555 1_555
C10 C6 1_555 1_555
H7 C10 1_555 1_555
C11 C5 1_555 1_555
H8 C11 1_555 1_555
C12 C3 1_555 1_555
C13 C7 1_555 1_555
H9 C13 1_555 1_555
N1 C4 1_555 1_555
C2 C4 1_555 1_555
C7 C8 1_555 1_555
C9 C12 1_555 1_555
C9 C13 1_555 1_555
C10 C11 1_555 1_555

#END
