
#######################################################################
#
#                 Cambridge Crystallographic Data Centre
#                                CCDC 
#
#######################################################################
#
# If this CIF has been generated from an entry in the Cambridge 
# Structural Database, then it will include bibliographic, chemical, 
# crystal, experimental, refinement or atomic coordinate data resulting 
# from the CCDC's data processing and validation procedures.
#
#######################################################################

data_ADURAT
_chemical_formula_moiety         'C12 H23 Br1 O1'
_chemical_name_systematic        2-Bromocyclododecanol
_symmetry_cell_setting           monoclinic
_symmetry_space_group_name_H-M   'P 21/c'
_symmetry_Int_Tables_number      14
_space_group_name_Hall           '-P 2ybc'
loop_
_symmetry_equiv_pos_site_id
_symmetry_equiv_pos_as_xyz
1 x,y,z
2 -x,1/2+y,1/2-z
3 -x,-y,-z
4 x,1/2-y,1/2+z
_cell_length_a                   11.1140(7)
_cell_length_b                   26.2590(17)
_cell_length_c                   9.1360(6)
_cell_angle_alpha                90
_cell_angle_beta                 106.1840(10)
_cell_angle_gamma                90
_cell_volume                     2560.61
_exptl_crystal_colour            colorless
_exptl_crystal_description       block
_chemical_melting_point          '64.0-65.0 deg.C'
_cell_formula_units_Z            8
_exptl_crystal_recrystallization_method 'petroleum ether'
loop_
_atom_site_label
_atom_site_type_symbol
_atom_site_fract_x
_atom_site_fract_y
_atom_site_fract_z
Br1 Br -0.36496(4) 0.12783(2) 0.72524(6)
O1 O -0.2002(3) 0.21895(10) 0.7066(3)
H1 H -0.2254 0.2186 0.6133
C1 C -0.1880(4) 0.13784(16) 0.8384(4)
H2 H -0.1861 0.1526 0.9375
C2 C -0.1248(4) 0.17536(16) 0.7576(4)
H3 H -0.1070 0.1586 0.6701
C3 C -0.0029(4) 0.19382(16) 0.8664(5)
H4 H 0.0369 0.1656 0.9304
H5 H -0.0215 0.2199 0.9321
C4 C 0.0892(4) 0.21563(18) 0.7844(5)
H6 H 0.0455 0.2411 0.7119
H7 H 0.1562 0.2328 0.8591
C5 C 0.1461(4) 0.1781(2) 0.7020(5)
H8 H 0.1888 0.1962 0.6386
H9 H 0.0799 0.1579 0.6354
C6 C 0.2391(4) 0.14236(18) 0.8086(5)
H10 H 0.3170 0.1606 0.8503
H11 H 0.2062 0.1334 0.8930
C7 C 0.2671(4) 0.0942(2) 0.7357(5)
H12 H 0.3339 0.0763 0.8086
H13 H 0.2976 0.1032 0.6495
C8 C 0.1572(5) 0.05856(18) 0.6814(5)
H14 H 0.1797 0.0321 0.6197
H15 H 0.0875 0.0774 0.6164
C9 C 0.1137(5) 0.03336(17) 0.8084(5)
H16 H 0.1694 0.0051 0.8484
H17 H 0.1225 0.0578 0.8903
C10 C -0.0179(5) 0.01396(16) 0.7644(5)
H18 H -0.0303 -0.0067 0.8470
H19 H -0.0299 -0.0078 0.6758
C11 C -0.1165(4) 0.05585(16) 0.7283(5)
H20 H -0.1977 0.0406 0.6821
H21 H -0.0982 0.0789 0.6543
C12 C -0.1231(4) 0.08641(16) 0.8682(4)
H22 H -0.1659 0.0659 0.9263
H23 H -0.0382 0.0918 0.9316
Br2 Br 0.87254(4) 0.12905(2) 0.31631(6)
O2 O 0.7291(2) 0.21776(10) 0.4003(3)
H24 H 0.7461 0.2386 0.3422
C13 C 0.6434(4) 0.18189(15) 0.3154(4)
H25 H 0.6178 0.1600 0.3882
C14 C 0.6968(4) 0.14756(18) 0.2149(4)
H26 H 0.6966 0.1671 0.1234
C15 C 0.6222(4) 0.09916(17) 0.1623(4)
H27 H 0.5380 0.1088 0.1050
H28 H 0.6597 0.0814 0.0928
C16 C 0.6127(4) 0.06216(17) 0.2861(5)
H29 H 0.6016 0.0813 0.3722
H30 H 0.6907 0.0434 0.3204
C17 C 0.5042(6) 0.02407(17) 0.2337(6)
H31 H 0.5119 0.0070 0.1425
H32 H 0.5125 -0.0016 0.3122
C18 C 0.3753(5) 0.04718(19) 0.2004(6)
H33 H 0.3146 0.0215 0.1517
H34 H 0.3697 0.0746 0.1278
C19 C 0.3382(5) 0.0681(2) 0.3375(5)
H35 H 0.3110 0.0400 0.3896
H36 H 0.4114 0.0832 0.4079
C20 C 0.2359(5) 0.1072(2) 0.2973(6)
H37 H 0.2049 0.1129 0.3852
H38 H 0.1672 0.0939 0.2160
C21 C 0.2765(4) 0.1572(2) 0.2474(5)
H39 H 0.3111 0.1511 0.1625
H40 H 0.2031 0.1785 0.2105
C22 C 0.3714(4) 0.18593(19) 0.3678(5)
H41 H 0.4334 0.1621 0.4253
H42 H 0.3298 0.2010 0.4377
C23 C 0.4386(4) 0.22811(17) 0.3056(5)
H43 H 0.3765 0.2499 0.2391
H44 H 0.4863 0.2487 0.3900
C24 C 0.5262(4) 0.20807(16) 0.2181(4)
H45 H 0.5514 0.2363 0.1647
H46 H 0.4805 0.1841 0.1419
loop_
_geom_bond_atom_site_label_1
_geom_bond_atom_site_label_2
_geom_bond_site_symmetry_1
_geom_bond_site_symmetry_2
Br1 C1 1_555 1_555
O1 H1 1_555 1_555
C1 H2 1_555 1_555
C2 O1 1_555 1_555
H3 C2 1_555 1_555
C3 C2 1_555 1_555
H4 C3 1_555 1_555
H5 C3 1_555 1_555
C4 C3 1_555 1_555
H6 C4 1_555 1_555
H7 C4 1_555 1_555
C5 C4 1_555 1_555
H8 C5 1_555 1_555
H9 C5 1_555 1_555
C6 C5 1_555 1_555
H10 C6 1_555 1_555
H11 C6 1_555 1_555
C7 C6 1_555 1_555
H12 C7 1_555 1_555
H13 C7 1_555 1_555
C8 C7 1_555 1_555
H14 C8 1_555 1_555
H15 C8 1_555 1_555
C9 C8 1_555 1_555
H16 C9 1_555 1_555
H17 C9 1_555 1_555
C10 C9 1_555 1_555
H18 C10 1_555 1_555
H19 C10 1_555 1_555
C11 C10 1_555 1_555
H20 C11 1_555 1_555
H21 C11 1_555 1_555
C12 C1 1_555 1_555
H22 C12 1_555 1_555
H23 C12 1_555 1_555
Br2 C14 1_555 1_555
O2 H24 1_555 1_555
C13 O2 1_555 1_555
H25 C13 1_555 1_555
C14 C13 1_555 1_555
H26 C14 1_555 1_555
C15 C14 1_555 1_555
H27 C15 1_555 1_555
H28 C15 1_555 1_555
C16 C15 1_555 1_555
H29 C16 1_555 1_555
H30 C16 1_555 1_555
C17 C16 1_555 1_555
H31 C17 1_555 1_555
H32 C17 1_555 1_555
C18 C17 1_555 1_555
H33 C18 1_555 1_555
H34 C18 1_555 1_555
C19 C18 1_555 1_555
H35 C19 1_555 1_555
H36 C19 1_555 1_555
C20 C19 1_555 1_555
H37 C20 1_555 1_555
H38 C20 1_555 1_555
C21 C20 1_555 1_555
H39 C21 1_555 1_555
H40 C21 1_555 1_555
C22 C21 1_555 1_555
H41 C22 1_555 1_555
H42 C22 1_555 1_555
C23 C22 1_555 1_555
H43 C23 1_555 1_555
H44 C23 1_555 1_555
C24 C13 1_555 1_555
H45 C24 1_555 1_555
H46 C24 1_555 1_555
C1 C2 1_555 1_555
C11 C12 1_555 1_555
C23 C24 1_555 1_555

#END
