
#######################################################################
#
#                 Cambridge Crystallographic Data Centre
#                                CCDC 
#
#######################################################################
#
# If this CIF has been generated from an entry in the Cambridge 
# Structural Database, then it will include bibliographic, chemical, 
# crystal, experimental, refinement or atomic coordinate data resulting 
# from the CCDC's data processing and validation procedures.
#
#######################################################################

data_ADUSAW
_chemical_formula_moiety         'C38 H58 Li2 N4 O3 Si2'
_chemical_name_systematic        
"(diethyl ether)-bis(tetrahydrofuran)-(\m-N,N'-{1,4-phenylenebis[2-(pyridin-2-yl)ethene-1,1-diyl]}bis(1,1,1-trimethylsilanamino))-di-lithium"
_symmetry_cell_setting           monoclinic
_symmetry_space_group_name_H-M   'C 2/c'
_symmetry_Int_Tables_number      15
_space_group_name_Hall           '-C 2yn'
loop_
_symmetry_equiv_pos_site_id
_symmetry_equiv_pos_as_xyz
1 x,y,z
2 -x,y,1/2-z
3 1/2+x,1/2+y,z
4 1/2-x,1/2+y,1/2-z
5 -x,-y,-z
6 x,-y,1/2+z
7 1/2-x,1/2-y,-z
8 1/2+x,1/2-y,1/2+z
_cell_length_a                   34.7624(15)
_cell_length_b                   11.5278(5)
_cell_length_c                   21.5557(9)
_cell_angle_alpha                90
_cell_angle_beta                 108.965(2)
_cell_angle_gamma                90
_cell_volume                     8169.2
_exptl_crystal_colour            yellow
_exptl_crystal_description       block
_cell_formula_units_Z            8
loop_
_atom_site_label
_atom_site_type_symbol
_atom_site_fract_x
_atom_site_fract_y
_atom_site_fract_z
Si1 Si 0.07331(2) 0.48550(7) 0.72564(4)
Si2 Si 0.06782(2) 0.99164(7) 0.86306(4)
Li1 Li 0.12845(14) 0.3800(4) 0.6544(2)
Li2 Li 0.12562(13) 1.1351(4) 0.9818(2)
N1 N 0.17165(6) 1.07319(18) 1.05594(9)
N2 N 0.11499(6) 0.99569(18) 0.92253(10)
N3 N 0.11949(6) 0.49695(18) 0.71246(11)
N4 N 0.17617(7) 0.4343(2) 0.63540(11)
C1 C 0.14637(7) 0.5845(2) 0.72865(11)
C2 C 0.14574(7) 0.9209(2) 0.93217(11)
C3 C 0.19249(7) 0.9775(2) 1.04757(11)
C4 C 0.14568(7) 0.8333(2) 0.87975(11)
C5 C 0.17881(7) 0.6026(2) 0.70573(11)
H1 H 0.1929 0.6736 0.7197
C6 C 0.14489(7) 0.6726(2) 0.77994(11)
C7 C 0.22706(8) 0.9408(2) 1.09967(12)
H2 H 0.2421 0.8753 1.0937
C8 C 0.18050(7) 0.9131(2) 0.98758(11)
H3 H 0.1994 0.8553 0.9849
C9 C 0.19495(7) 0.5333(2) 0.66468(11)
C10 C 0.14930(8) 0.7149(2) 0.89216(12)
H4 H 0.1524 0.6872 0.9350
C11 C 0.14259(8) 0.7917(2) 0.76780(11)
H5 H 0.1410 0.8195 0.7255
C12 C 0.14262(8) 0.8703(2) 0.81685(12)
H6 H 0.1405 0.9510 0.8072
C13 C 0.14844(9) 0.6365(2) 0.84322(12)
H7 H 0.1503 0.5560 0.8530
C14 C 0.23227(8) 0.5660(2) 0.65655(14)
H8 H 0.2453 0.6357 0.6760
C15 C 0.18467(8) 1.1283(2) 1.11452(12)
H9 H 0.1700 1.1951 1.1199
C16 C 0.21747(9) 1.0949(3) 1.16673(13)
H10 H 0.2251 1.1363 1.2070
C17 C 0.23913(9) 0.9985(2) 1.15858(13)
H11 H 0.2621 0.9725 1.1934
C18 C 0.19392(11) 0.3711(3) 0.59999(17)
H12 H 0.1804 0.3026 0.5796
C19 C 0.23023(11) 0.3985(3) 0.59126(19)
H13 H 0.2415 0.3505 0.5658
C20 C 0.24980(10) 0.4985(3) 0.62094(18)
H14 H 0.2752 0.5200 0.6166
C21 C 0.04667(11) 0.3609(4) 0.6737(2)
H15 H 0.0626 0.2899 0.6881
H16 H 0.0438 0.3764 0.6277
H17 H 0.0197 0.3511 0.6781
C22 C 0.07349(11) 0.4496(4) 0.81072(18)
H18 H 0.0815 0.5183 0.8387
H19 H 0.0929 0.3867 0.8287
H20 H 0.0462 0.4250 0.8091
C23 C 0.06458(13) 1.0750(5) 0.7882(2)
H21 H 0.0830 1.1416 0.7999
H22 H 0.0366 1.1023 0.7675
H23 H 0.0724 1.0250 0.7574
C24 C 0.04076(11) 0.6162(4) 0.6978(2)
H24 H 0.0554 0.6851 0.7200
H25 H 0.0156 0.6072 0.7086
H26 H 0.0341 0.6251 0.6503
C25 C 0.04628(12) 0.8456(4) 0.8366(2)
H27 H 0.0460 0.8007 0.8751
H28 H 0.0630 0.8054 0.8145
H29 H 0.0184 0.8534 0.8063
C26 C 0.13285(15) 0.1276(3) 0.6600(2)
H30 H 0.1468 0.0750 0.6380
H31 H 0.1105 0.0839 0.6684
C27 C 0.03101(12) 1.0568(5) 0.9002(2)
H32 H 0.0348 1.1411 0.9033
H33 H 0.0359 1.0245 0.9441
H34 H 0.0031 1.0390 0.8726
C28 C 0.09111(14) 0.1953(5) 0.5547(2)
H35 H 0.0663 0.1562 0.5570
H36 H 0.1055 0.1413 0.5341
C29 C 0.16185(16) 0.1681(4) 0.7227(2)
H37 H 0.1475 0.2158 0.7457
H38 H 0.1832 0.2144 0.7141
H39 H 0.1741 0.1011 0.7499
C30 C 0.07981(17) 0.3028(7) 0.5145(2)
H40 H 0.1045 0.3406 0.5118
H41 H 0.0655 0.3558 0.5350
H42 H 0.0620 0.2828 0.4703
O1 O 0.11660(7) 0.22480(19) 0.61868(11)
O2 O 0.14866(7) 1.26394(18) 0.94260(10)
C31 C 0.17169(14) 1.2179(3) 0.9043(2)
H43 H 0.1534 1.1930 0.8608
H44 H 0.1878 1.1501 0.9266
C32 C 0.16883(13) 1.3646(3) 0.9764(2)
H45 H 0.1754 1.3543 1.0243
H46 H 0.1511 1.4334 0.9627
C33 C 0.19909(12) 1.3116(3) 0.8968(2)
H47 H 0.1858 1.3599 0.8578
H48 H 0.2247 1.2795 0.8932
C34 C 0.20687(12) 1.3808(4) 0.9599(2)
H49 H 0.2307 1.3501 0.9951
H50 H 0.2115 1.4638 0.9528
O3 O 0.09095(8) 1.2269(2) 1.02243(13)
C35 C 0.07839(15) 1.3434(4) 1.0100(3)
H51 H 0.0767 1.3668 0.9650
H52 H 0.0972 1.3963 1.0419
C36 C 0.0386(3) 1.3431(7) 1.0178(5)
H53 H 0.0171 1.3518 0.9748
H54 H 0.0362 1.4071 1.0469
C37 C 0.03539(16) 1.2314(6) 1.0469(4)
H55 H 0.0178 1.1785 1.0134
H56 H 0.0235 1.2409 1.0826
C38 C 0.07646(13) 1.1845(5) 1.0728(2)
H57 H 0.0917 1.2169 1.1164
H58 H 0.0767 1.0987 1.0749
C39? C 0.0435(5) 1.1359(13) 1.0775(7)
loop_
_geom_bond_atom_site_label_1
_geom_bond_atom_site_label_2
_geom_bond_site_symmetry_1
_geom_bond_site_symmetry_2
Si1 N3 1_555 1_555
Si2 N2 1_555 1_555
Li1 N3 1_555 1_555
Li2 N1 1_555 1_555
N1 C3 1_555 1_555
N2 Li2 1_555 1_555
N3 C1 1_555 1_555
N4 Li1 1_555 1_555
C1 C5 1_555 1_555
C2 N2 1_555 1_555
C3 C7 1_555 1_555
C4 C2 1_555 1_555
C5 H1 1_555 1_555
C6 C1 1_555 1_555
C7 H2 1_555 1_555
C8 C2 1_555 1_555
H3 C8 1_555 1_555
C9 N4 1_555 1_555
C10 C4 1_555 1_555
H4 C10 1_555 1_555
C11 C6 1_555 1_555
H5 C11 1_555 1_555
C12 C4 1_555 1_555
H6 C12 1_555 1_555
C13 C6 1_555 1_555
H7 C13 1_555 1_555
C14 C9 1_555 1_555
H8 C14 1_555 1_555
C15 N1 1_555 1_555
H9 C15 1_555 1_555
C16 C15 1_555 1_555
H10 C16 1_555 1_555
C17 C7 1_555 1_555
H11 C17 1_555 1_555
C18 N4 1_555 1_555
H12 C18 1_555 1_555
C19 C18 1_555 1_555
H13 C19 1_555 1_555
C20 C14 1_555 1_555
H14 C20 1_555 1_555
C21 Si1 1_555 1_555
H15 C21 1_555 1_555
H16 C21 1_555 1_555
H17 C21 1_555 1_555
C22 Si1 1_555 1_555
H18 C22 1_555 1_555
H19 C22 1_555 1_555
H20 C22 1_555 1_555
C23 Si2 1_555 1_555
H21 C23 1_555 1_555
H22 C23 1_555 1_555
H23 C23 1_555 1_555
C24 Si1 1_555 1_555
H24 C24 1_555 1_555
H25 C24 1_555 1_555
H26 C24 1_555 1_555
C25 Si2 1_555 1_555
H27 C25 1_555 1_555
H28 C25 1_555 1_555
H29 C25 1_555 1_555
C26 H30 1_555 1_555
H31 C26 1_555 1_555
C27 Si2 1_555 1_555
H32 C27 1_555 1_555
H33 C27 1_555 1_555
H34 C27 1_555 1_555
C28 H35 1_555 1_555
H36 C28 1_555 1_555
C29 C26 1_555 1_555
H37 C29 1_555 1_555
H38 C29 1_555 1_555
H39 C29 1_555 1_555
C30 C28 1_555 1_555
H40 C30 1_555 1_555
H41 C30 1_555 1_555
H42 C30 1_555 1_555
O1 Li1 1_555 1_555
O2 Li2 1_555 1_555
C31 O2 1_555 1_555
H43 C31 1_555 1_555
H44 C31 1_555 1_555
C32 O2 1_555 1_555
H45 C32 1_555 1_555
H46 C32 1_555 1_555
C33 C31 1_555 1_555
H47 C33 1_555 1_555
H48 C33 1_555 1_555
C34 C32 1_555 1_555
H49 C34 1_555 1_555
H50 C34 1_555 1_555
O3 Li2 1_555 1_555
C35 O3 1_555 1_555
H51 C35 1_555 1_555
H52 C35 1_555 1_555
C36 C35 1_555 1_555
H53 C36 1_555 1_555
H54 C36 1_555 1_555
C37 C36 1_555 1_555
H55 C37 1_555 1_555
H56 C37 1_555 1_555
C38 O3 1_555 1_555
H57 C38 1_555 1_555
H58 C38 1_555 1_555
C3 C8 1_555 1_555
C5 C9 1_555 1_555
C10 C13 1_555 1_555
C11 C12 1_555 1_555
C16 C17 1_555 1_555
C19 C20 1_555 1_555
C26 O1 1_555 1_555
C28 O1 1_555 1_555
C33 C34 1_555 1_555
C37 C38 1_555 1_555

#END
