
#######################################################################
#
#                 Cambridge Crystallographic Data Centre
#                                CCDC 
#
#######################################################################
#
# If this CIF has been generated from an entry in the Cambridge 
# Structural Database, then it will include bibliographic, chemical, 
# crystal, experimental, refinement or atomic coordinate data resulting 
# from the CCDC's data processing and validation procedures.
#
#######################################################################

data_ADUTEA
_chemical_formula_moiety         'C23 H22 Br1 N1 O5 S1'
_chemical_name_systematic        
'Methyl 4-(2-bromophenyl)-3-((4-methylphenyl)sulfonyl)-10-oxa-3-azatricyclo[5.2.1.0^1,5^]dec-8-ene-5-carboxylate'
_symmetry_cell_setting           orthorhombic
_symmetry_space_group_name_H-M   'P 21 21 21'
_symmetry_Int_Tables_number      19
_space_group_name_Hall           'P 2ac 2ab'
loop_
_symmetry_equiv_pos_site_id
_symmetry_equiv_pos_as_xyz
1 x,y,z
2 1/2-x,-y,1/2+z
3 -x,1/2+y,1/2-z
4 1/2+x,1/2-y,-z
_cell_length_a                   7.7952(16)
_cell_length_b                   13.733(3)
_cell_length_c                   21.171(4)
_cell_angle_alpha                90
_cell_angle_beta                 90
_cell_angle_gamma                90
_cell_volume                     2266.39
_exptl_crystal_colour            colorless
_exptl_crystal_description       block
_cell_formula_units_Z            4
loop_
_atom_site_label
_atom_site_type_symbol
_atom_site_fract_x
_atom_site_fract_y
_atom_site_fract_z
Br1 Br 1.07342(4) 0.53558(3) 0.016724(17)
C1 C 1.2009(6) 0.5283(4) 0.3614(2)
H1 H 1.2447 0.5835 0.3841
H2 H 1.2922 0.4983 0.3380
H3 H 1.1540 0.4821 0.3907
C2 C 1.0621(5) 0.5613(2) 0.31631(16)
C3 C 1.1044(4) 0.6018(3) 0.25751(16)
H4 H 1.2192 0.6084 0.2463
C4 C 0.9794(4) 0.6317(2) 0.21631(13)
H5 H 1.0096 0.6572 0.1772
C5 C 0.8082(4) 0.62405(19) 0.23299(12)
C6 C 0.7638(4) 0.5853(2) 0.29165(12)
H6 H 0.6492 0.5805 0.3035
C7 C 0.8913(5) 0.5540(3) 0.33194(14)
H7 H 0.8611 0.5274 0.3708
C8 C 0.5139(4) 0.4848(2) 0.17079(12)
H8 H 0.3970 0.5005 0.1827
H9 H 0.5782 0.4671 0.2083
C9 C 0.5184(3) 0.40577(19) 0.12299(12)
C10 C 0.4984(4) 0.2974(2) 0.13586(14)
H10 H 0.5121 0.2651 0.1741
C11 C 0.4574(4) 0.2594(2) 0.08071(15)
H11 H 0.4382 0.1940 0.0720
C12 C 0.4474(4) 0.3430(2) 0.03444(14)
H12 H 0.3744 0.3315 -0.0025
C13 C 0.6313(4) 0.37683(19) 0.01931(12)
H13 H 0.6321 0.4260 -0.0136
H14 H 0.7033 0.3227 0.0065
C14 C 0.6893(3) 0.41934(17) 0.08340(11)
C15 C 0.8389(4) 0.36207(19) 0.11087(13)
C16 C 1.0331(6) 0.3517(3) 0.19656(19)
H15 H 1.0252 0.2821 0.1933
H16 H 1.0387 0.3700 0.2403
H17 H 1.1347 0.3737 0.1753
C17 C 0.7247(3) 0.53164(17) 0.08942(10)
H18 H 0.8393 0.5400 0.1076
C18 C 0.7182(3) 0.58806(18) 0.02825(11)
C19 C 0.5684(4) 0.6317(2) 0.00657(13)
H19 H 0.4683 0.6275 0.0303
C20 C 0.5680(6) 0.6822(2) -0.05114(16)
H20 H 0.4678 0.7114 -0.0657
C21 C 0.7166(6) 0.6883(3) -0.08608(16)
H21 H 0.7158 0.7222 -0.1241
C22 C 0.8649(5) 0.6457(2) -0.06607(14)
H22 H 0.9646 0.6502 -0.0900
C23 C 0.8637(4) 0.5953(2) -0.00919(13)
N1 N 0.5959(3) 0.56669(14) 0.13712(9)
O1 O 0.7202(3) 0.73244(13) 0.13877(9)
O2 O 0.4976(3) 0.68453(16) 0.21613(10)
O3 O 0.3925(3) 0.42176(14) 0.07510(10)
O4 O 0.9083(4) 0.29440(18) 0.08638(13)
O5 O 0.8820(3) 0.39623(15) 0.16736(9)
S1 S 0.64706(9) 0.66163(5) 0.18018(3)
loop_
_geom_bond_atom_site_label_1
_geom_bond_atom_site_label_2
_geom_bond_site_symmetry_1
_geom_bond_site_symmetry_2
Br1 C23 1_555 1_555
C1 H1 1_555 1_555
H2 C1 1_555 1_555
H3 C1 1_555 1_555
C2 C1 1_555 1_555
C3 C2 1_555 1_555
H4 C3 1_555 1_555
C4 C3 1_555 1_555
H5 C4 1_555 1_555
C5 C4 1_555 1_555
C6 C5 1_555 1_555
H6 C6 1_555 1_555
C7 C2 1_555 1_555
H7 C7 1_555 1_555
C8 H8 1_555 1_555
H9 C8 1_555 1_555
C9 C8 1_555 1_555
C10 C9 1_555 1_555
H10 C10 1_555 1_555
C11 C10 1_555 1_555
H11 C11 1_555 1_555
C12 C11 1_555 1_555
H12 C12 1_555 1_555
C13 C12 1_555 1_555
H13 C13 1_555 1_555
H14 C13 1_555 1_555
C14 C9 1_555 1_555
C15 C14 1_555 1_555
C16 H15 1_555 1_555
H16 C16 1_555 1_555
H17 C16 1_555 1_555
C17 C14 1_555 1_555
H18 C17 1_555 1_555
C18 C17 1_555 1_555
C19 C18 1_555 1_555
H19 C19 1_555 1_555
C20 C19 1_555 1_555
H20 C20 1_555 1_555
C21 C20 1_555 1_555
H21 C21 1_555 1_555
C22 C21 1_555 1_555
H22 C22 1_555 1_555
C23 C18 1_555 1_555
N1 C8 1_555 1_555
O1 S1 1_555 1_555
O2 S1 1_555 1_555
O3 C9 1_555 1_555
O4 C15 1_555 1_555
O5 C15 1_555 1_555
S1 C5 1_555 1_555
C6 C7 1_555 1_555
C12 O3 1_555 1_555
C13 C14 1_555 1_555
C16 O5 1_555 1_555
C17 N1 1_555 1_555
C22 C23 1_555 1_555
N1 S1 1_555 1_555

#END
