
#######################################################################
#
#                 Cambridge Crystallographic Data Centre
#                                CCDC 
#
#######################################################################
#
# If this CIF has been generated from an entry in the Cambridge 
# Structural Database, then it will include bibliographic, chemical, 
# crystal, experimental, refinement or atomic coordinate data resulting 
# from the CCDC's data processing and validation procedures.
#
#######################################################################

data_ADUTEZ
_chemical_formula_moiety         'C28 H32 N2'
_chemical_name_systematic        
(4-(2-(9-Hexyl-9H-carbazol-3-yl)vinyl)phenyl)dimethylamine
_symmetry_cell_setting           monoclinic
_symmetry_space_group_name_H-M   'P 21/c'
_symmetry_Int_Tables_number      14
_space_group_name_Hall           '-P 2ybc'
loop_
_symmetry_equiv_pos_site_id
_symmetry_equiv_pos_as_xyz
1 x,y,z
2 -x,1/2+y,1/2-z
3 -x,-y,-z
4 x,1/2-y,1/2+z
_cell_length_a                   47.87(2)
_cell_length_b                   10.222(4)
_cell_length_c                   9.612(4)
_cell_angle_alpha                90
_cell_angle_beta                 92.401(9)
_cell_angle_gamma                90
_cell_volume                     4699.28
_exptl_crystal_colour            yellow
_exptl_crystal_description       block
_chemical_melting_point          '89-91 deg.C'
_cell_formula_units_Z            8
_exptl_crystal_recrystallization_method 'chloroform/petroleum ether'
loop_
_atom_site_label
_atom_site_type_symbol
_atom_site_fract_x
_atom_site_fract_y
_atom_site_fract_z
C1 C 0.08968(11) 0.5830(4) 0.1397(6)
C2 C 0.06074(13) 0.5747(5) 0.1331(6)
H1 H 0.0509 0.5521 0.2109
C3 C 0.04720(13) 0.6009(6) 0.0078(10)
H2 H 0.0278 0.5944 0.0011
C4 C 0.06125(18) 0.6365(6) -0.1089(9)
H3 H 0.0513 0.6546 -0.1918
C5 C 0.09007(15) 0.6454(4) -0.1029(6)
H4 H 0.0997 0.6686 -0.1811
C6 C 0.10431(12) 0.6187(4) 0.0240(5)
C7 C 0.13351(11) 0.6172(3) 0.0701(5)
C8 C 0.13489(10) 0.5775(3) 0.2117(5)
C9 C 0.16002(10) 0.5589(4) 0.2853(5)
H5 H 0.1607 0.5333 0.3783
C10 C 0.18442(9) 0.5806(4) 0.2128(6)
H6 H 0.2018 0.5674 0.2573
C11 C 0.18277(12) 0.6229(4) 0.0714(6)
C12 C 0.15791(12) 0.6418(4) 0.0063(5)
H7 H 0.1572 0.6724 -0.0849
C13 C 0.09918(9) 0.5196(5) 0.3913(5)
H8 H 0.0822 0.5654 0.4131
H9 H 0.1136 0.5443 0.4600
C14 C 0.09434(10) 0.3764(5) 0.3992(5)
H10 H 0.1120 0.3310 0.3911
H11 H 0.0820 0.3497 0.3217
C15 C 0.08126(11) 0.3367(6) 0.5370(6)
H12 H 0.0822 0.2423 0.5462
H13 H 0.0923 0.3743 0.6139
C16 C 0.05148(12) 0.3793(6) 0.5480(6)
H14 H 0.0511 0.4741 0.5524
H15 H 0.0412 0.3534 0.4635
C17 C 0.03670(12) 0.3275(6) 0.6683(7)
H16 H 0.0370 0.2327 0.6639
H17 H 0.0470 0.3532 0.7529
C18 C 0.00787(12) 0.3695(8) 0.6787(8)
H18 H 0.0074 0.4608 0.7018
H19 H -0.0008 0.3199 0.7499
H20 H -0.0021 0.3554 0.5911
C19 C 0.20864(12) 0.6473(5) -0.0130(6)
H21 H 0.2072 0.7060 -0.0870
C20 C 0.23049(10) 0.5952(4) 0.0110(5)
H22 H 0.2318 0.5413 0.0890
C21 C 0.25758(9) 0.6091(4) -0.0774(5)
C22 C 0.27952(9) 0.5279(4) -0.0500(4)
H23 H 0.2777 0.4649 0.0188
C23 C 0.26103(9) 0.6993(4) -0.1826(5)
H24 H 0.2465 0.7565 -0.2064
C24 C 0.30407(8) 0.5329(4) -0.1172(4)
H25 H 0.3183 0.4744 -0.0924
C25 C 0.28580(9) 0.7067(4) -0.2540(4)
H26 H 0.2874 0.7683 -0.3245
C26 C 0.30822(8) 0.6235(3) -0.2217(4)
C27 C 0.35658(8) 0.5523(4) -0.2365(5)
H27 H 0.3615 0.5737 -0.1414
H28 H 0.3723 0.5678 -0.2929
H29 H 0.3513 0.4617 -0.2428
C28 C 0.33513(9) 0.7001(4) -0.4133(4)
H30 H 0.3206 0.6694 -0.4773
H31 H 0.3530 0.6845 -0.4515
H32 H 0.3328 0.7921 -0.3979
N1 N 0.10773(8) 0.5594(3) 0.2515(4)
N2 N 0.33352(7) 0.6323(3) -0.2850(4)
C29 C 0.40762(8) 0.4827(3) 0.0780(4)
C30 C 0.43332(9) 0.5385(4) 0.0502(4)
H33 H 0.4447 0.5030 -0.0161
C31 C 0.44118(10) 0.6489(5) 0.1252(6)
H34 H 0.4581 0.6896 0.1079
C32 C 0.42438(14) 0.6999(4) 0.2255(6)
H35 H 0.4304 0.7725 0.2766
C33 C 0.39910(11) 0.6454(4) 0.2508(4)
H36 H 0.3879 0.6818 0.3173
C34 C 0.39005(9) 0.5346(3) 0.1764(4)
C35 C 0.36535(9) 0.4541(4) 0.1769(4)
C36 C 0.36954(8) 0.3544(4) 0.0801(4)
C37 C 0.34922(9) 0.2595(4) 0.0536(4)
H37 H 0.3516 0.1940 -0.0119
C38 C 0.32548(11) 0.2664(5) 0.1279(6)
H38 H 0.3121 0.2014 0.1126
C39 C 0.31976(10) 0.3632(7) 0.2246(5)
C40 C 0.34075(11) 0.4554(5) 0.2461(4)
H39 H 0.3381 0.5216 0.3106
C41 C 0.40597(8) 0.2903(4) -0.0890(4)
H40 H 0.4197 0.3398 -0.1385
H41 H 0.3908 0.2685 -0.1550
C42 C 0.41941(8) 0.1645(3) -0.0354(4)
H42 H 0.4059 0.1176 0.0183
H43 H 0.4236 0.1103 -0.1146
C43 C 0.44544(7) 0.1819(3) 0.0525(4)
H44 H 0.4415 0.2387 0.1301
H45 H 0.4594 0.2247 -0.0021
C44 C 0.45734(7) 0.0531(3) 0.1086(4)
H46 H 0.4433 0.0111 0.1635
H47 H 0.4608 -0.0038 0.0305
C45 C 0.48389(8) 0.0655(4) 0.1969(5)
H48 H 0.4803 0.1204 0.2766
H49 H 0.4978 0.1091 0.1431
C46 C 0.49566(9) -0.0636(4) 0.2486(6)
H50 H 0.4840 -0.0983 0.3187
H51 H 0.5142 -0.0506 0.2875
H52 H 0.4962 -0.1241 0.1724
C47 C 0.28053(16) 0.4089(8) 0.3600(9)
H53 H 0.2892 0.4871 0.3862
C48 C 0.29232(18) 0.3277(9) 0.2772(10)
H54 H 0.2837 0.2492 0.2517
C51 C 0.25195(11) 0.3716(8) 0.4129(6)
C52 C 0.23296(13) 0.2704(6) 0.4014(5)
H57 H 0.2373 0.1997 0.3453
C53 C 0.24343(12) 0.4719(6) 0.4975(6)
H58 H 0.2554 0.5429 0.5111
C54 C 0.20778(9) 0.2667(4) 0.4675(5)
H59 H 0.1962 0.1941 0.4569
C55 C 0.21866(11) 0.4738(4) 0.5622(5)
H60 H 0.2143 0.5459 0.6162
C56 C 0.19978(9) 0.3707(4) 0.5495(4)
C57 C 0.15910(9) 0.2524(4) 0.6257(5)
H61 H 0.1517 0.2227 0.5369
H62 H 0.1441 0.2655 0.6872
H63 H 0.1718 0.1879 0.6646
C58 C 0.16692(9) 0.4763(5) 0.7016(4)
H64 H 0.1798 0.4752 0.7808
H65 H 0.1482 0.4647 0.7321
H66 H 0.1682 0.5585 0.6542
N3 N 0.39511(6) 0.3724(3) 0.0194(3)
N4 N 0.17359(8) 0.3722(3) 0.6086(4)
C49? C 0.27496(18) 0.3294(9) 0.3173(10)
H55? H 0.2733 0.2529 0.2652
C50? C 0.29701(19) 0.4043(10) 0.3112(12)
H56? H 0.2982 0.4823 0.3610
loop_
_geom_bond_atom_site_label_1
_geom_bond_atom_site_label_2
_geom_bond_site_symmetry_1
_geom_bond_site_symmetry_2
C1 C2 1_555 1_555
C2 H1 1_555 1_555
C3 C2 1_555 1_555
H2 C3 1_555 1_555
C4 C3 1_555 1_555
H3 C4 1_555 1_555
C5 C4 1_555 1_555
H4 C5 1_555 1_555
C6 C1 1_555 1_555
C7 C6 1_555 1_555
C8 C7 1_555 1_555
C9 C8 1_555 1_555
H5 C9 1_555 1_555
C10 C9 1_555 1_555
H6 C10 1_555 1_555
C11 C10 1_555 1_555
C12 C7 1_555 1_555
H7 C12 1_555 1_555
C13 H8 1_555 1_555
H9 C13 1_555 1_555
C14 C13 1_555 1_555
H10 C14 1_555 1_555
H11 C14 1_555 1_555
C15 C14 1_555 1_555
H12 C15 1_555 1_555
H13 C15 1_555 1_555
C16 C15 1_555 1_555
H14 C16 1_555 1_555
H15 C16 1_555 1_555
C17 C16 1_555 1_555
H16 C17 1_555 1_555
H17 C17 1_555 1_555
C18 C17 1_555 1_555
H18 C18 1_555 1_555
H19 C18 1_555 1_555
H20 C18 1_555 1_555
C19 C11 1_555 1_555
H21 C19 1_555 1_555
C20 C19 1_555 1_555
H22 C20 1_555 1_555
C21 C20 1_555 1_555
C22 C21 1_555 1_555
H23 C22 1_555 1_555
C23 C21 1_555 1_555
H24 C23 1_555 1_555
C24 C22 1_555 1_555
H25 C24 1_555 1_555
C25 C23 1_555 1_555
H26 C25 1_555 1_555
C26 C24 1_555 1_555
C27 H27 1_555 1_555
H28 C27 1_555 1_555
H29 C27 1_555 1_555
C28 H30 1_555 1_555
H31 C28 1_555 1_555
H32 C28 1_555 1_555
C29 C30 1_555 1_555
C30 H33 1_555 1_555
C31 C30 1_555 1_555
H34 C31 1_555 1_555
C32 C31 1_555 1_555
H35 C32 1_555 1_555
C33 C32 1_555 1_555
H36 C33 1_555 1_555
C34 C29 1_555 1_555
C35 C34 1_555 1_555
C36 C35 1_555 1_555
C37 C36 1_555 1_555
H37 C37 1_555 1_555
C38 C37 1_555 1_555
H38 C38 1_555 1_555
C39 C38 1_555 1_555
C40 C35 1_555 1_555
H39 C40 1_555 1_555
C41 H40 1_555 1_555
H41 C41 1_555 1_555
C42 C41 1_555 1_555
H42 C42 1_555 1_555
H43 C42 1_555 1_555
C43 C42 1_555 1_555
H44 C43 1_555 1_555
H45 C43 1_555 1_555
C44 C43 1_555 1_555
H46 C44 1_555 1_555
H47 C44 1_555 1_555
C45 C44 1_555 1_555
H48 C45 1_555 1_555
H49 C45 1_555 1_555
C46 C45 1_555 1_555
H50 C46 1_555 1_555
H51 C46 1_555 1_555
H52 C46 1_555 1_555
C47 H53 1_555 1_555
C48 C39 1_555 1_555
H54 C48 1_555 1_555
C51 C47 1_555 1_555
C52 C51 1_555 1_555
H57 C52 1_555 1_555
C53 C51 1_555 1_555
H58 C53 1_555 1_555
C54 C52 1_555 1_555
H59 C54 1_555 1_555
C55 C53 1_555 1_555
H60 C55 1_555 1_555
C56 C54 1_555 1_555
C57 H61 1_555 1_555
H62 C57 1_555 1_555
H63 C57 1_555 1_555
C58 H64 1_555 1_555
H65 C58 1_555 1_555
H66 C58 1_555 1_555
N1 C1 1_555 1_555
N2 C26 1_555 1_555
N3 C29 1_555 1_555
N4 C56 1_555 1_555
C5 C6 1_555 1_555
C8 N1 1_555 1_555
C11 C12 1_555 1_555
C13 N1 1_555 1_555
C25 C26 1_555 1_555
C27 N2 1_555 1_555
C28 N2 1_555 1_555
C33 C34 1_555 1_555
C36 N3 1_555 1_555
C39 C40 1_555 1_555
C41 N3 1_555 1_555
C47 C48 1_555 1_555
C55 C56 1_555 1_555
C57 N4 1_555 1_555
C58 N4 1_555 1_555

#END
