
#######################################################################
#
#                 Cambridge Crystallographic Data Centre
#                                CCDC 
#
#######################################################################
#
# If this CIF has been generated from an entry in the Cambridge 
# Structural Database, then it will include bibliographic, chemical, 
# crystal, experimental, refinement or atomic coordinate data resulting 
# from the CCDC's data processing and validation procedures.
#
#######################################################################

data_ADUVIF
_chemical_formula_moiety         'C12 H9 N4 O1 1+,N1 O3 1-'
_chemical_name_systematic        
'3-(5-(3-Pyridyl)-1,3,4-oxadiazol-2-yl)pyridinium nitrate'
_symmetry_cell_setting           monoclinic
_symmetry_space_group_name_H-M   'P 21/c'
_symmetry_Int_Tables_number      14
_space_group_name_Hall           '-P 2ybc'
loop_
_symmetry_equiv_pos_site_id
_symmetry_equiv_pos_as_xyz
1 x,y,z
2 -x,1/2+y,1/2-z
3 -x,-y,-z
4 x,1/2-y,1/2+z
_cell_length_a                   4.9112(1)
_cell_length_b                   8.4101(3)
_cell_length_c                   29.4990(10)
_cell_angle_alpha                90
_cell_angle_beta                 93.266(2)
_cell_angle_gamma                90
_cell_volume                     1216.44
_exptl_crystal_colour            yellow
_exptl_crystal_description       block
_cell_formula_units_Z            4
loop_
_atom_site_label
_atom_site_type_symbol
_atom_site_fract_x
_atom_site_fract_y
_atom_site_fract_z
O1 O 0.1393(2) 0.7084(1) 0.36042(4)
N1 N 0.4716(3) 0.5719(2) 0.33247(6)
N2 N 0.4500(3) 0.7186(2) 0.31022(5)
N3 N 0.2821(3) 0.1992(2) 0.42506(5)
N4 N -0.1694(3) 1.1555(2) 0.33551(5)
C1 C 0.2856(3) 0.5727(2) 0.36128(6)
C2 C 0.2150(3) 0.4521(2) 0.39383(5)
C3 C 0.0138(3) 0.4805(2) 0.42397(6)
C4 C -0.0499(3) 0.3639(2) 0.45404(6)
C5 C 0.0884(3) 0.2224(2) 0.45420(6)
C6 C 0.3485(3) 0.3084(2) 0.39495(6)
C7 C 0.2554(3) 0.7941(2) 0.32784(5)
C8 C 0.1475(3) 0.9515(2) 0.31790(5)
C9 C 0.2486(3) 1.0454(2) 0.28415(6)
C10 C 0.1370(4) 1.1926(2) 0.27656(6)
C11 C -0.0693(4) 1.2427(2) 0.30284(6)
C12 C -0.0622(3) 1.0119(2) 0.34253(6)
H1 H 0.3703 0.1014 0.4244
H2 H -0.0816 0.5829 0.4236
H3 H -0.1930 0.3814 0.4753
H4 H 0.0456 0.1380 0.4756
H5 H 0.4909 0.2865 0.3738
H6 H 0.3979 1.0073 0.2663
H7 H 0.2030 1.2614 0.2527
H8 H -0.1467 1.3487 0.2971
H9 H -0.1337 0.9456 0.3665
O2 O 0.5359(3) 0.6951(2) 0.45840(5)
O3 O 0.5455(3) 0.9155(2) 0.42131(5)
O4 O 0.207(2) 0.866(2) 0.4600(3)
N5 N 0.4561(3) 0.8296(2) 0.45124(5)
O5? O 0.282(3) 0.890(2) 0.4754(5)
O6? O 0.378(2) 0.900(2) 0.4852(5)
loop_
_geom_bond_atom_site_label_1
_geom_bond_atom_site_label_2
_geom_bond_site_symmetry_1
_geom_bond_site_symmetry_2
O1 C1 1_555 1_555
N1 N2 1_555 1_555
N2 C7 1_555 1_555
N3 C5 1_555 1_555
N4 C11 1_555 1_555
C1 N1 1_555 1_555
C2 C1 1_555 1_555
C3 C2 1_555 1_555
C4 C3 1_555 1_555
C5 C4 1_555 1_555
C6 N3 1_555 1_555
C7 O1 1_555 1_555
C8 C7 1_555 1_555
C9 C8 1_555 1_555
C10 C9 1_555 1_555
C11 C10 1_555 1_555
C12 N4 1_555 1_555
H1 N3 1_555 1_555
H2 C3 1_555 1_555
H3 C4 1_555 1_555
H4 C5 1_555 1_555
H5 C6 1_555 1_555
H6 C9 1_555 1_555
H7 C10 1_555 1_555
H8 C11 1_555 1_555
H9 C12 1_555 1_555
O2 N5 1_555 1_555
O3 N5 1_555 1_555
O4 N5 1_555 1_555
C2 C6 1_555 1_555
C8 C12 1_555 1_555

#END
