
#######################################################################
#
#                 Cambridge Crystallographic Data Centre
#                                CCDC 
#
#######################################################################
#
# If this CIF has been generated from an entry in the Cambridge 
# Structural Database, then it will include bibliographic, chemical, 
# crystal, experimental, refinement or atomic coordinate data resulting 
# from the CCDC's data processing and validation procedures.
#
#######################################################################

data_ADUWAA
_chemical_formula_moiety         'C17 H12 F3 N1 O2 S1'
_chemical_name_systematic        
1-nitro-4-{[1-phenyl-3-(trifluoromethyl)buta-1,3-dien-2-yl]sulfanyl}benzene
_symmetry_cell_setting           monoclinic
_symmetry_space_group_name_H-M   'P 21/n'
_symmetry_Int_Tables_number      14
_space_group_name_Hall           '-P 2yn'
loop_
_symmetry_equiv_pos_site_id
_symmetry_equiv_pos_as_xyz
1 x,y,z
2 1/2-x,1/2+y,1/2-z
3 -x,-y,-z
4 1/2+x,1/2-y,1/2+z
_cell_length_a                   6.09320(10)
_cell_length_b                   16.40420(10)
_cell_length_c                   15.81510(10)
_cell_angle_alpha                90
_cell_angle_beta                 100.3940(10)
_cell_angle_gamma                90
_cell_volume                     1554.84
_exptl_crystal_colour            'dark colorless'
_exptl_crystal_description       block
_chemical_melting_point          '326 K'
_cell_formula_units_Z            4
_exptl_crystal_recrystallization_method Hexane/dichloromethane
loop_
_atom_site_label
_atom_site_type_symbol
_atom_site_fract_x
_atom_site_fract_y
_atom_site_fract_z
S1 S 1.14743(6) 0.31320(2) 0.48224(2)
F1 F 1.22342(16) 0.20145(7) 0.65091(6)
F2 F 1.21190(18) 0.11842(6) 0.54526(7)
F3 F 1.02301(17) 0.09308(7) 0.64510(7)
O1 O 0.9428(2) 0.61111(7) 0.74291(7)
O2 O 0.60485(19) 0.58374(7) 0.67987(7)
N1 N 0.8067(2) 0.57124(8) 0.69264(8)
C1 C 0.6048(3) 0.09686(9) 0.39465(9)
H1 H 0.730194 0.075242 0.429753
C2 C 0.4133(3) 0.04975(10) 0.37289(10)
H2 H 0.410892 -0.003145 0.393866
C3 C 0.2255(3) 0.08118(10) 0.32003(10)
H3 H 0.096211 0.050056 0.307090
C4 C 0.2315(3) 0.15924(11) 0.28655(10)
H4 H 0.107375 0.179999 0.249962
C5 C 0.4230(3) 0.20628(10) 0.30775(9)
H5 H 0.427249 0.258115 0.284296
C6 C 0.6094(3) 0.17651(9) 0.36400(9)
C7 C 0.7986(2) 0.23257(9) 0.38912(9)
H6 H 0.834615 0.265797 0.345965
C8 C 0.9251(2) 0.24103(8) 0.46757(9)
C9 C 0.8904(2) 0.19857(8) 0.54723(9)
C10 C 0.7035(3) 0.20358(9) 0.57866(9)
H7 H 0.585171 0.234906 0.550618
H8 H 0.690520 0.175760 0.628767
C11 C 1.0867(3) 0.15273(10) 0.59664(10)
C12 C 0.8910(2) 0.50541(9) 0.64478(9)
C13 C 1.1118(2) 0.48209(10) 0.66546(9)
H9 H 1.208231 0.507140 0.710197
C14 C 1.1860(2) 0.42032(9) 0.61780(9)
H10 H 1.332810 0.402317 0.631745
C15 C 1.0411(2) 0.38492(8) 0.54879(9)
C16 C 0.8183(2) 0.40931(9) 0.53000(9)
H11 H 0.721303 0.385225 0.484753
C17 C 0.7422(2) 0.46919(9) 0.57864(9)
H12 H 0.593262 0.485094 0.567298
loop_
_geom_bond_atom_site_label_1
_geom_bond_atom_site_label_2
_geom_bond_site_symmetry_1
_geom_bond_site_symmetry_2
S1 C8 1_555 1_555
F1 C11 1_555 1_555
F2 C11 1_555 1_555
F3 C11 1_555 1_555
O1 N1 1_555 1_555
O2 N1 1_555 1_555
N1 C12 1_555 1_555
C1 H1 1_555 1_555
C2 C1 1_555 1_555
H2 C2 1_555 1_555
C3 C2 1_555 1_555
H3 C3 1_555 1_555
C4 C3 1_555 1_555
H4 C4 1_555 1_555
C5 C4 1_555 1_555
H5 C5 1_555 1_555
C6 C1 1_555 1_555
C7 C6 1_555 1_555
H6 C7 1_555 1_555
C8 C7 1_555 1_555
C9 C8 1_555 1_555
C10 C9 1_555 1_555
H7 C10 1_555 1_555
H8 C10 1_555 1_555
C11 C9 1_555 1_555
C12 C13 1_555 1_555
C13 H9 1_555 1_555
C14 C13 1_555 1_555
H10 C14 1_555 1_555
C15 S1 1_555 1_555
C16 C15 1_555 1_555
H11 C16 1_555 1_555
C17 C12 1_555 1_555
H12 C17 1_555 1_555
C5 C6 1_555 1_555
C14 C15 1_555 1_555
C16 C17 1_555 1_555

#END
