
#######################################################################
#
#                 Cambridge Crystallographic Data Centre
#                                CCDC 
#
#######################################################################
#
# If this CIF has been generated from an entry in the Cambridge 
# Structural Database, then it will include bibliographic, chemical, 
# crystal, experimental, refinement or atomic coordinate data resulting 
# from the CCDC's data processing and validation procedures.
#
#######################################################################

data_ADUWED
_chemical_formula_moiety         'C17 H17 N3 O3 S1'
_chemical_name_systematic        
4-Phenyl-7-(tetrahydro-2H-pyran-2-yl)-2H-pyridazino[4,5-b][1,4]thiazine-3,8(4H,7H)-dione
_symmetry_cell_setting           triclinic
_symmetry_space_group_name_H-M   'C -1'
_symmetry_Int_Tables_number      2
_space_group_name_Hall           '-C 1'
loop_
_symmetry_equiv_pos_site_id
_symmetry_equiv_pos_as_xyz
1 x,y,z
2 1/2+x,1/2+y,z
3 -x,-y,-z
4 1/2-x,1/2-y,-z
_cell_length_a                   18.9249(16)
_cell_length_b                   8.0972(7)
_cell_length_c                   22.4250(19)
_cell_angle_alpha                90.00
_cell_angle_beta                 111.5490(10)
_cell_angle_gamma                90.00
_cell_volume                     3196.19
_cell_formula_units_Z            8
loop_
_atom_site_label
_atom_site_type_symbol
_atom_site_fract_x
_atom_site_fract_y
_atom_site_fract_z
S1 S 0.39337(3) 0.12407(5) 0.70569(2)
N1 N 0.38874(8) 0.36306(15) 0.59807(6)
O1 O 0.44664(7) 0.74943(15) 0.85167(6)
N2 N 0.38680(8) 0.58598(16) 0.76244(6)
O2 O 0.39278(10) 0.33695(15) 0.81156(6)
O3 O 0.39895(9) 0.14466(16) 0.53891(6)
N3 N 0.38997(9) 0.68095(17) 0.71390(7)
C1 C 0.39512(9) 0.33878(18) 0.70762(7)
C2 C 0.39390(9) 0.43182(18) 0.65687(7)
C3 C 0.36060(10) 0.46230(19) 0.54071(7)
C4 C 0.39456(11) 0.60678(19) 0.66434(8)
H1 H 0.3985 0.6717 0.6315
C5 C 0.31269(11) 0.7985(2) 0.79221(9)
H2 H 0.2652 0.7426 0.7687
H3 H 0.3227 0.8770 0.7636
C6 C 0.39247(10) 0.41507(19) 0.76491(8)
C7 C 0.30808(16) 0.6416(2) 0.42920(10)
H4 H 0.2902 0.7011 0.3911
C8 C 0.40816(10) 0.2003(2) 0.59115(8)
C9 C 0.44290(11) 0.1025(2) 0.65144(8)
H5 H 0.4951 0.1376 0.6730
H6 H 0.4435 -0.0133 0.6404
C10 C 0.37622(10) 0.6747(2) 0.81550(8)
H7 H 0.3639 0.5942 0.8428
C11 C 0.44243(12) 0.8277(2) 0.90812(9)
H8 H 0.4913 0.8763 0.9328
H9 H 0.4312 0.7449 0.9347
C12 C 0.38264(12) 0.9589(2) 0.89125(9)
H10 H 0.3964 1.0474 0.8684
H11 H 0.3794 1.0044 0.9302
C13 C 0.25757(14) 0.5707(3) 0.45282(11)
H12 H 0.2056 0.5836 0.4309
C14 C 0.30662(12) 0.8889(3) 0.84997(10)
H13 H 0.2698 0.9776 0.8353
H14 H 0.2891 0.8129 0.8750
C15 C 0.28390(11) 0.4798(2) 0.50924(9)
H15 H 0.2500 0.4318 0.5254
C16 C 0.38397(15) 0.6248(2) 0.46146(11)
H16 H 0.4178 0.6743 0.4456
C17 C 0.41120(12) 0.5352(2) 0.51747(10)
H17 H 0.4632 0.5239 0.5395
S2 S 0.39338(3) 0.87591(5) 0.20572(2)
O4 O 0.44661(7) 0.25068(15) 0.35172(6)
C18 C 0.39509(9) 0.66140(18) 0.20777(7)
N4 N 0.38882(8) 0.63708(15) 0.09814(6)
O5 O 0.39260(10) 0.66326(16) 0.31151(6)
O6 O 0.39905(9) 0.85518(16) 0.03893(6)
C19 C 0.39248(10) 0.58492(19) 0.26498(8)
C20 C 0.39406(9) 0.56806(18) 0.15693(7)
C21 C 0.36053(10) 0.53779(19) 0.04070(7)
N5 N 0.38680(8) 0.41393(16) 0.26243(6)
N6 N 0.39001(9) 0.31898(17) 0.21389(7)
C22 C 0.44294(11) 0.8976(2) 0.15146(8)
H18 H 0.4436 1.0133 0.1405
H19 H 0.4952 0.8624 0.1730
C23 C 0.39449(11) 0.39307(19) 0.16428(8)
H20 H 0.3982 0.3281 0.1314
C24 C 0.44239(12) 0.1721(2) 0.40814(8)
H21 H 0.4312 0.2547 0.4347
H22 H 0.4913 0.1234 0.4328
C25 C 0.31281(11) 0.2013(2) 0.29222(9)
H23 H 0.3229 0.1227 0.2637
H24 H 0.2654 0.2571 0.2686
C26 C 0.30811(16) 0.3582(2) -0.07075(10)
H25 H 0.2902 0.2986 -0.1088
C27 C 0.40814(10) 0.7998(2) 0.09110(8)
C28 C 0.37631(10) 0.32524(19) 0.31543(8)
H26 H 0.3639 0.4058 0.3427
C29 C 0.25762(14) 0.4291(3) -0.04714(11)
H27 H 0.2057 0.4160 -0.0690
C30 C 0.38401(15) 0.3753(2) -0.03856(11)
H28 H 0.4179 0.3261 -0.0545
C31 C 0.38264(12) 0.0411(2) 0.39122(9)
H29 H 0.3794 -0.0046 0.4301
H30 H 0.3964 -0.0474 0.3684
C32 C 0.28403(12) 0.5202(2) 0.00919(9)
H31 H 0.2501 0.5686 0.0253
C33 C 0.41126(12) 0.4649(2) 0.01751(9)
H32 H 0.4633 0.4762 0.0395
C34 C 0.30653(12) 0.1112(3) 0.34994(10)
H33 H 0.2891 0.1873 0.3750
H34 H 0.2697 0.0226 0.3353
loop_
_geom_bond_atom_site_label_1
_geom_bond_atom_site_label_2
_geom_bond_site_symmetry_1
_geom_bond_site_symmetry_2
S1 C1 1_555 1_555
N1 C2 1_555 1_555
O1 C10 1_555 1_555
N2 N3 1_555 1_555
O2 C6 1_555 1_555
O3 C8 1_555 1_555
N3 C4 1_555 1_555
C1 C2 1_555 1_555
C2 C4 1_555 1_555
C3 N1 1_555 1_555
C4 H1 1_555 1_555
C5 H2 1_555 1_555
H3 C5 1_555 1_555
C6 N2 1_555 1_555
C7 H4 1_555 1_555
C8 N1 1_555 1_555
C9 S1 1_555 1_555
H5 C9 1_555 1_555
H6 C9 1_555 1_555
C10 N2 1_555 1_555
H7 C10 1_555 1_555
C11 O1 1_555 1_555
H8 C11 1_555 1_555
H9 C11 1_555 1_555
C12 C11 1_555 1_555
H10 C12 1_555 1_555
H11 C12 1_555 1_555
C13 C7 1_555 1_555
H12 C13 1_555 1_555
C14 C5 1_555 1_555
H13 C14 1_555 1_555
H14 C14 1_555 1_555
C15 C3 1_555 1_555
H15 C15 1_555 1_555
C16 C7 1_555 1_555
H16 C16 1_555 1_555
C17 C3 1_555 1_555
H17 C17 1_555 1_555
S2 C18 1_555 1_555
O4 C24 1_555 1_555
C18 C19 1_555 1_555
N4 C20 1_555 1_555
O5 C19 1_555 1_555
O6 C27 1_555 1_555
C19 N5 1_555 1_555
C20 C18 1_555 1_555
C21 N4 1_555 1_555
N5 N6 1_555 1_555
N6 C23 1_555 1_555
C22 S2 1_555 1_555
H18 C22 1_555 1_555
H19 C22 1_555 1_555
C23 C20 1_555 1_555
H20 C23 1_555 1_555
C24 H21 1_555 1_555
H22 C24 1_555 1_555
C25 H23 1_555 1_555
H24 C25 1_555 1_555
C26 H25 1_555 1_555
C27 N4 1_555 1_555
C28 O4 1_555 1_555
H26 C28 1_555 1_555
C29 C26 1_555 1_555
H27 C29 1_555 1_555
C30 C26 1_555 1_555
H28 C30 1_555 1_555
C31 C24 1_555 1_555
H29 C31 1_555 1_555
H30 C31 1_555 1_555
C32 C21 1_555 1_555
H31 C32 1_555 1_555
C33 C21 1_555 1_555
H32 C33 1_555 1_555
C34 C25 1_555 1_555
H33 C34 1_555 1_555
H34 C34 1_555 1_555
C1 C6 1_555 1_555
C5 C10 1_555 1_555
C8 C9 1_555 1_555
C12 C14 1_555 1_555
C13 C15 1_555 1_555
C16 C17 1_555 1_555
N5 C28 1_555 1_555
C22 C27 1_555 1_555
C25 C28 1_555 1_555
C29 C32 1_555 1_555
C30 C33 1_555 1_555
C31 C34 1_555 1_555

#END
