
#######################################################################
#
#                 Cambridge Crystallographic Data Centre
#                                CCDC 
#
#######################################################################
#
# If this CIF has been generated from an entry in the Cambridge 
# Structural Database, then it will include bibliographic, chemical, 
# crystal, experimental, refinement or atomic coordinate data resulting 
# from the CCDC's data processing and validation procedures.
#
#######################################################################

data_ADUXEE
_chemical_formula_moiety         'C7 H6 Br1 Cl1 N1 O2 S1 1-,H2 O1,K1 1+'
_chemical_name_systematic        
'Potassium bromo((4-chloro-2-methylphenyl)sulfonyl)azanide monohydrate'
_symmetry_cell_setting           monoclinic
_symmetry_space_group_name_H-M   'P 21/c'
_symmetry_Int_Tables_number      14
_space_group_name_Hall           '-P 2ybc'
loop_
_symmetry_equiv_pos_site_id
_symmetry_equiv_pos_as_xyz
1 x,y,z
2 -x,1/2+y,1/2-z
3 -x,-y,-z
4 x,1/2-y,1/2+z
_cell_length_a                   15.2650(10)
_cell_length_b                   11.4817(8)
_cell_length_c                   6.7552(5)
_cell_angle_alpha                90
_cell_angle_beta                 101.617(7)
_cell_angle_gamma                90
_cell_volume                     1159.72
_exptl_crystal_colour            yellow
_exptl_crystal_description       prism
_cell_formula_units_Z            4
loop_
_atom_site_label
_atom_site_type_symbol
_atom_site_fract_x
_atom_site_fract_y
_atom_site_fract_z
Br1 Br 0.23345(3) 0.48001(4) 1.31553(6)
Cl1 Cl 0.53340(9) 0.62486(17) 0.7141(2)
S1 S 0.15358(6) 0.55763(8) 0.91712(13)
O1 O 0.09358(19) 0.5225(3) 0.7316(4)
O2 O 0.1350(2) 0.6710(2) 0.9950(4)
N1 N 0.1502(2) 0.4538(3) 1.0698(5)
C1 C 0.2632(2) 0.5708(3) 0.8616(5)
C2 C 0.3104(3) 0.4738(3) 0.8140(6)
C3 C 0.3941(3) 0.4935(4) 0.7699(7)
H1 H 0.4277 0.4310 0.7389
C4 C 0.4281(3) 0.6058(5) 0.7717(6)
C5 C 0.3810(3) 0.7006(4) 0.8170(6)
H2 H 0.4046 0.7753 0.8170
C6 C 0.2980(3) 0.6829(4) 0.8625(6)
H3 H 0.2651 0.7460 0.8939
C7 C 0.2770(3) 0.3482(3) 0.8127(6)
H4 H 0.2162 0.3443 0.7399
H5 H 0.2801 0.3224 0.9491
H6 H 0.3137 0.2989 0.7483
K1 K 0.04696(6) 0.63387(8) 1.34287(13)
O3 O -0.0700(2) 0.7636(3) 1.0563(6)
H7 H -0.091(3) 0.699(3) 1.011(8)
H8 H -0.109(3) 0.806(3) 1.088(8)
loop_
_geom_bond_atom_site_label_1
_geom_bond_atom_site_label_2
_geom_bond_site_symmetry_1
_geom_bond_site_symmetry_2
Br1 N1 1_555 1_555
Cl1 C4 1_555 1_555
S1 O1 1_555 1_555
O2 S1 1_555 1_555
N1 S1 1_555 1_555
C1 S1 1_555 1_555
C2 C1 1_555 1_555
C3 C2 1_555 1_555
H1 C3 1_555 1_555
C4 C3 1_555 1_555
C5 C4 1_555 1_555
H2 C5 1_555 1_555
C6 C1 1_555 1_555
H3 C6 1_555 1_555
C7 C2 1_555 1_555
H4 C7 1_555 1_555
H5 C7 1_555 1_555
H6 C7 1_555 1_555
O3 H7 1_555 1_555
H8 O3 1_555 1_555
C5 C6 1_555 1_555

#END
