
#######################################################################
#
#                 Cambridge Crystallographic Data Centre
#                                CCDC 
#
#######################################################################
#
# If this CIF has been generated from an entry in the Cambridge 
# Structural Database, then it will include bibliographic, chemical, 
# crystal, experimental, refinement or atomic coordinate data resulting 
# from the CCDC's data processing and validation procedures.
#
#######################################################################

data_ADYPNL
_chemical_formula_moiety         'C32 H26 O1'
_chemical_name_systematic        \a-Dypnopinacoline
_symmetry_cell_setting           triclinic
_symmetry_space_group_name_H-M   'P -1'
_symmetry_Int_Tables_number      2
_space_group_name_Hall           '-P 1'
loop_
_symmetry_equiv_pos_site_id
_symmetry_equiv_pos_as_xyz
1 x,y,z
2 -x,-y,-z
_cell_length_a                   8.870(2)
_cell_length_b                   12.672(1)
_cell_length_c                   10.468(3)
_cell_angle_alpha                95.95(3)
_cell_angle_beta                 82.24(3)
_cell_angle_gamma                97.93(3)
_cell_volume                     1150.34
_cell_formula_units_Z            2
loop_
_atom_site_label
_atom_site_type_symbol
_atom_site_fract_x
_atom_site_fract_y
_atom_site_fract_z
C1 C 0.73960 0.25420 0.68650
C2 C 0.65770 0.14670 0.69440
C3 C 0.51790 0.12500 0.65720
C4 C 0.44370 0.20680 0.60030
C5 C 0.57050 0.28690 0.53100
C6 C 0.69600 0.32600 0.61730
C7 C 0.64530 0.23550 0.40170
O8 O 0.73460 0.17110 0.40210
C9 C 0.61010 0.26470 0.27460
C10 C 0.70140 0.22980 0.16320
C11 C 0.67730 0.25220 0.04260
C12 C 0.56280 0.31140 0.02900
C13 C 0.47130 0.34750 0.13760
C14 C 0.49490 0.32560 0.26050
C15 C 0.33900 0.14950 0.50190
C16 C 0.34360 0.26510 0.71060
C17 C 0.22590 0.20220 0.78270
C18 C 0.12430 0.24880 0.87620
C19 C 0.13610 0.35830 0.90210
C20 C 0.25370 0.42100 0.83620
C21 C 0.35700 0.37490 0.74060
C22 C 0.73380 0.06350 0.74410
C23 C 0.88190 0.04540 0.69050
C24 C 0.95130 -0.03540 0.72900
C25 C 0.87560 -0.09560 0.82520
C26 C 0.73020 -0.07810 0.88120
C27 C 0.65950 0.00050 0.83950
C28 C 0.77220 0.43740 0.61720
C29 C 0.83840 0.48840 0.72450
C30 C 0.91450 0.59200 0.72130
C31 C 0.92480 0.64650 0.61310
C32 C 0.85910 0.59840 0.50680
C33 C 0.78100 0.49500 0.50850
H1 H 0.83300 0.27700 0.73200
H3 H 0.46100 0.05200 0.66400
H5 H 0.52600 0.35100 0.50800
H10 H 0.78100 0.18500 0.17300
H11 H 0.74000 0.22300 -0.03700
H12 H 0.54500 0.32600 -0.05900
H13 H 0.38700 0.39100 0.13000
H14 H 0.42700 0.35200 0.33800
H15 H 0.39200 0.11000 0.43100
H35 H 0.28700 0.19800 0.46300
H45 H 0.26100 0.09700 0.54700
H17 H 0.22000 0.12200 0.75800
H18 H 0.04800 0.20300 0.91600
H19 H 0.05700 0.39000 0.97000
H20 H 0.27200 0.51000 0.85400
H21 H 0.43600 0.42400 0.69600
H23 H 0.93100 0.09100 0.61900
H24 H 1.06300 -0.04600 0.67900
H25 H 0.92600 -0.15800 0.85100
H26 H 0.66600 -0.12300 0.94600
H27 H 0.55700 0.01200 0.88100
H29 H 0.83300 0.44700 0.80200
H30 H 0.96700 0.62400 0.79700
H31 H 0.98400 0.71500 0.60700
H32 H 0.87000 0.64100 0.43000
H33 H 0.74300 0.45800 0.42600
loop_
_geom_bond_atom_site_label_1
_geom_bond_atom_site_label_2
_geom_bond_site_symmetry_1
_geom_bond_site_symmetry_2
C1 C2 1_555 1_555
C2 C3 1_555 1_555
C3 C4 1_555 1_555
C4 C5 1_555 1_555
C5 C6 1_555 1_555
C6 C1 1_555 1_555
C7 C5 1_555 1_555
O8 C7 1_555 1_555
C9 C7 1_555 1_555
C10 C9 1_555 1_555
C11 C10 1_555 1_555
C12 C11 1_555 1_555
C13 C12 1_555 1_555
C14 C9 1_555 1_555
C15 C4 1_555 1_555
C16 C4 1_555 1_555
C17 C16 1_555 1_555
C18 C17 1_555 1_555
C19 C18 1_555 1_555
C20 C19 1_555 1_555
C21 C16 1_555 1_555
C22 C2 1_555 1_555
C23 C22 1_555 1_555
C24 C23 1_555 1_555
C25 C24 1_555 1_555
C26 C25 1_555 1_555
C27 C22 1_555 1_555
C28 C6 1_555 1_555
C29 C28 1_555 1_555
C30 C29 1_555 1_555
C31 C30 1_555 1_555
C32 C31 1_555 1_555
C33 C28 1_555 1_555
H1 C1 1_555 1_555
H3 C3 1_555 1_555
H5 C5 1_555 1_555
H10 C10 1_555 1_555
H11 C11 1_555 1_555
H12 C12 1_555 1_555
H13 C13 1_555 1_555
H14 C14 1_555 1_555
H15 C15 1_555 1_555
H35 C15 1_555 1_555
H45 C15 1_555 1_555
H17 C17 1_555 1_555
H18 C18 1_555 1_555
H19 C19 1_555 1_555
H20 C20 1_555 1_555
H21 C21 1_555 1_555
H23 C23 1_555 1_555
H24 C24 1_555 1_555
H25 C25 1_555 1_555
H26 C26 1_555 1_555
H27 C27 1_555 1_555
H29 C29 1_555 1_555
H30 C30 1_555 1_555
H31 C31 1_555 1_555
H32 C32 1_555 1_555
H33 C33 1_555 1_555
C13 C14 1_555 1_555
C20 C21 1_555 1_555
C26 C27 1_555 1_555
C32 C33 1_555 1_555

#END
