
#######################################################################
#
#                 Cambridge Crystallographic Data Centre
#                                CCDC 
#
#######################################################################
#
# If this CIF has been generated from an entry in the Cambridge 
# Structural Database, then it will include bibliographic, chemical, 
# crystal, experimental, refinement or atomic coordinate data resulting 
# from the CCDC's data processing and validation procedures.
#
#######################################################################

data_ADYPUR10
_chemical_formula_moiety         'C19 H23 N7 O12 P1 1-,Na1 1+,6(H2 O1)'
_chemical_name_systematic        "Sodium adenylyl-(3'-5')-uridine hexahydrate"
_symmetry_cell_setting           monoclinic
_symmetry_space_group_name_H-M   'P 21'
_symmetry_Int_Tables_number      4
_space_group_name_Hall           'P 2yb'
loop_
_symmetry_equiv_pos_site_id
_symmetry_equiv_pos_as_xyz
1 x,y,z
2 -x,1/2+y,-z
_cell_length_a                   18.025
_cell_length_b                   17.501
_cell_length_c                   9.677
_cell_angle_alpha                90
_cell_angle_beta                 99.45
_cell_angle_gamma                90
_cell_volume                     3011.24
_cell_formula_units_Z            4
loop_
_atom_site_label
_atom_site_type_symbol
_atom_site_fract_x
_atom_site_fract_y
_atom_site_fract_z
C1 C -0.04580 0.00530 0.38060
C2 C -0.06160 -0.06690 0.40950
N1 N -0.16490 -0.01750 0.50710
C3 C -0.14700 0.05650 0.47780
C4 C -0.12410 -0.07990 0.47780
O1 O -0.14400 -0.14570 0.51590
O2 O -0.18610 0.10900 0.50700
N2 N -0.08710 0.06600 0.41090
C5 C -0.06480 0.14540 0.38870
C6 C -0.01360 0.17780 0.51960
O3 O -0.02680 0.25810 0.52920
C7 C 0.06430 0.16500 0.48230
O4 O 0.12300 0.20870 0.55930
C8 C 0.04810 0.18250 0.32470
O5 O -0.02340 0.14740 0.27680
C9 C 0.10370 0.15430 0.23610
O6 O 0.11070 0.07150 0.25220
P1 P 0.16250 0.02500 0.16520
O7 O 0.23320 0.06540 0.15210
O8 O 0.16580 -0.05500 0.22420
O9 O 0.11780 0.02600 0.00660
C10 C 0.04770 -0.01304 -0.03290
C11 C 0.03920 -0.04410 -0.18180
C12 C 0.07560 -0.12060 -0.19860
O10 O 0.05180 -0.17610 -0.10880
O11 O -0.04060 -0.04840 -0.22920
C13 C -0.07960 -0.00720 -0.13700
C14 C -0.02090 0.04160 -0.04400
O12 O -0.01020 0.11010 -0.11910
N3 N -0.11690 -0.06220 -0.05470
C15 C -0.10970 -0.14060 -0.05300
N4 N -0.15230 -0.17450 0.02700
C16 C -0.18870 -0.11480 0.07510
C17 C -0.16990 -0.04550 0.02580
N5 N -0.19270 0.02440 0.05610
C18 C -0.24350 0.01810 0.14230
N6 N -0.26940 -0.04480 0.19690
C19 C -0.24450 -0.11240 0.16610
N7 N -0.26960 -0.17710 0.22180
H1 H -0.00160 0.01480 0.33340
H3 H -0.03080 -0.10890 0.38650
H5 H -0.10990 0.17720 0.36530
H7 H -0.02180 0.14970 0.60160
H9 H 0.07990 0.11190 0.49420
H11 H 0.04490 0.23780 0.31480
H13 H 0.15270 0.17830 0.26290
H14 H 0.08710 0.16750 0.13760
H18 H 0.06150 -0.00760 -0.23880
H20 H 0.12980 -0.11500 -0.18200
H21 H 0.06220 -0.13740 -0.29700
H22 H -0.11770 0.02690 -0.19140
H24 H -0.03520 0.05340 0.04790
H26 H -0.07190 -0.16910 -0.10260
H28 H -0.26190 0.06830 0.17190
C20 C 0.49430 -0.01320 0.48840
C21 C 0.51330 -0.08560 0.46200
C22 C 0.57690 -0.09770 0.39590
O13 O 0.59860 -0.16090 0.35960
N8 N 0.61680 -0.03230 0.36730
C23 C 0.59620 0.04140 0.39160
O14 O 0.63190 0.09510 0.35820
N9 N 0.53290 0.04910 0.45540
C24 C 0.50690 0.12890 0.46500
C25 C 0.45580 0.15330 0.32700
O15 O 0.46730 0.23370 0.31220
C26 C 0.37700 0.13570 0.35880
O16 O 0.31890 0.17610 0.27430
C27 C 0.38720 0.16030 0.51220
O17 O 0.46190 0.13280 0.57270
C28 C 0.33040 0.12960 0.59590
O18 O 0.33330 0.04720 0.59180
P2 P 0.29080 0.00000 0.69510
O19 O 0.21340 0.02900 0.69730
O20 O 0.30410 -0.08170 0.66150
O21 O 0.33560 0.02220 0.84920
C29 C 0.40770 -0.00980 0.90080
C30 C 0.41390 -0.03150 1.05420
C31 C 0.37480 -0.10540 1.07910
O22 O 0.3994 -0.1626 1.0044
O23 O 0.49400 -0.03240 1.10390
C32 C 0.53250 0.00500 1.00870
C33 C 0.47270 0.04610 0.90150
O24 O 0.45450 0.11780 0.95770
N10 N 0.57450 -0.05230 0.93940
C34 C 0.57410 -0.12900 0.95520
N11 N 0.61890 -0.16440 0.88010
C35 C 0.65080 -0.10610 0.81660
C36 C 0.62500 -0.03710 0.85230
N12 N 0.64440 0.03350 0.81130
C37 C 0.69650 0.02670 0.72770
N13 N 0.72630 -0.03740 0.68170
C38 C 0.70360 -0.10640 0.72450
N14 N 0.73340 -0.17040 0.67830
H2 H 0.44910 -0.00550 0.53220
H4 H 0.48540 -0.12930 0.48830
H6 H 0.54920 0.16400 0.48590
H8 H 0.46690 0.12550 0.24640
H10 H 0.36510 0.08130 0.34960
H12 H 0.38470 0.21570 0.51640
H15 H 0.27900 0.14750 0.55580
H16 H 0.33930 0.14820 0.69130
H17 H 0.41440 -0.05450 0.84510
H19 H 0.39060 0.00970 1.10280
H23 H 0.56750 0.04290 1.05810
H25 H 0.48750 0.05310 0.80930
H27 H 0.54360 -0.15490 1.01840
H29 H 0.71490 0.07570 0.69370
Na1 Na -0.28440 0.19650 0.42510
Na2 Na 0.21970 0.09400 -0.09090
O25 O -0.12380 -0.31720 0.15460
O26 O -0.31560 -0.31360 0.04210
O27 O 0.20160 -0.20450 -0.38910
O28 O 0.38280 -0.21910 -0.33600
O29 O 0.30370 -0.11050 0.37140
O30 O 0.12200 -0.06470 0.49320
O31 O 0.49670 -0.25940 0.17270
O32 O 0.29210 -0.26880 0.33970
O33 O 0.27670 -0.28030 -0.13020
O34 O 0.36730 -0.31310 0.14110
loop_
_geom_bond_atom_site_label_1
_geom_bond_atom_site_label_2
_geom_bond_site_symmetry_1
_geom_bond_site_symmetry_2
C1 C2 1_555 1_555
C2 C4 1_555 1_555
N1 C3 1_555 1_555
C3 O2 1_555 1_555
C4 N1 1_555 1_555
O1 C4 1_555 1_555
N2 C1 1_555 1_555
C5 N2 1_555 1_555
C6 C5 1_555 1_555
O3 C6 1_555 1_555
C7 C6 1_555 1_555
O4 C7 1_555 1_555
C8 C7 1_555 1_555
O5 C5 1_555 1_555
C9 C8 1_555 1_555
O6 C9 1_555 1_555
P1 O6 1_555 1_555
O7 P1 1_555 1_555
O8 P1 1_555 1_555
O9 P1 1_555 1_555
C10 O9 1_555 1_555
C11 C10 1_555 1_555
C12 C11 1_555 1_555
O10 C12 1_555 1_555
O11 C11 1_555 1_555
C13 O11 1_555 1_555
C14 C10 1_555 1_555
O12 C14 1_555 1_555
N3 C13 1_555 1_555
C15 N3 1_555 1_555
N4 C15 1_555 1_555
C16 N4 1_555 1_555
C17 N3 1_555 1_555
N5 C17 1_555 1_555
C18 N5 1_555 1_555
N6 C18 1_555 1_555
C19 C16 1_555 1_555
N7 C19 1_555 1_555
C20 C21 1_555 1_555
C21 C22 1_555 1_555
C22 O13 1_555 1_555
N8 C22 1_555 1_555
C23 N8 1_555 1_555
O14 C23 1_555 1_555
N9 C20 1_555 1_555
C24 N9 1_555 1_555
C25 C24 1_555 1_555
O15 C25 1_555 1_555
C26 C25 1_555 1_555
O16 C26 1_555 1_555
C27 C26 1_555 1_555
O17 C24 1_555 1_555
C28 C27 1_555 1_555
O18 C28 1_555 1_555
P2 O18 1_555 1_555
O19 P2 1_555 1_555
O20 P2 1_555 1_555
O21 P2 1_555 1_555
C29 O21 1_555 1_555
C30 C29 1_555 1_555
C31 C30 1_555 1_555
O22 C31 1_555 1_555
O23 C30 1_555 1_555
C32 O23 1_555 1_555
C33 C29 1_555 1_555
O24 C33 1_555 1_555
N10 C32 1_555 1_555
C34 N10 1_555 1_555
N11 C34 1_555 1_555
C35 N11 1_555 1_555
C36 N10 1_555 1_555
N12 C36 1_555 1_555
C37 N12 1_555 1_555
N13 C37 1_555 1_555
C38 C35 1_555 1_555
N14 C38 1_555 1_555
H1 C1 1_555 1_555
H2 C20 1_555 1_555
H3 C2 1_555 1_555
H4 C21 1_555 1_555
H5 C5 1_555 1_555
H6 C24 1_555 1_555
H7 C6 1_555 1_555
H8 C25 1_555 1_555
H9 C7 1_555 1_555
H10 C26 1_555 1_555
H11 C8 1_555 1_555
H12 C27 1_555 1_555
H13 C9 1_555 1_555
H14 C9 1_555 1_555
H15 C28 1_555 1_555
H16 C28 1_555 1_555
H17 C29 1_555 1_555
H18 C11 1_555 1_555
H19 C30 1_555 1_555
H20 C12 1_555 1_555
H21 C12 1_555 1_555
H22 C13 1_555 1_555
H23 C32 1_555 1_555
H24 C14 1_555 1_555
H25 C33 1_555 1_555
H26 C15 1_555 1_555
H27 C34 1_555 1_555
H28 C18 1_555 1_555
H29 C37 1_555 1_555
C3 N2 1_555 1_555
C8 O5 1_555 1_555
C13 C14 1_555 1_555
C16 C17 1_555 1_555
N6 C19 1_555 1_555
C23 N9 1_555 1_555
C27 O17 1_555 1_555
C32 C33 1_555 1_555
C35 C36 1_555 1_555
N13 C38 1_555 1_555

#END
