
#######################################################################
#
#                 Cambridge Crystallographic Data Centre
#                                CCDC 
#
#######################################################################
#
# If this CIF has been generated from an entry in the Cambridge 
# Structural Database, then it will include bibliographic, chemical, 
# crystal, experimental, refinement or atomic coordinate data resulting 
# from the CCDC's data processing and validation procedures.
#
#######################################################################

data_AFACUF
_chemical_formula_moiety         'C24 H28 Cl1 N1 O6'
_chemical_name_systematic        
'(3R,5S)-7-Chloro-5-(2,3-dimethoxyphenyl)-1-(neopentyl)-2-oxo-1,2,3,5-tetrahydro-4,1-benzoxazepine-3-acetic acid'
_chemical_properties_biological  
'potent inhibitor of rat and human HepG2 enzymes'
_symmetry_cell_setting           orthorhombic
_symmetry_space_group_name_H-M   'P 21 21 21'
_symmetry_Int_Tables_number      19
_space_group_name_Hall           'P 2ac 2ab'
loop_
_symmetry_equiv_pos_site_id
_symmetry_equiv_pos_as_xyz
1 x,y,z
2 1/2-x,-y,1/2+z
3 1/2+x,1/2-y,-z
4 -x,1/2+y,1/2-z
_cell_length_a                   13.772(3)
_cell_length_b                   20.261(4)
_cell_length_c                   8.504(6)
_cell_angle_alpha                90
_cell_angle_beta                 90
_cell_angle_gamma                90
_cell_volume                     2372.91
_exptl_crystal_colour            colorless
_exptl_crystal_description       needle
_chemical_melting_point          '218-222 deg.C'
_cell_formula_units_Z            4
_exptl_crystal_recrystallization_method methanol
loop_
_atom_site_label
_atom_site_type_symbol
_atom_site_fract_x
_atom_site_fract_y
_atom_site_fract_z
N1 N 0.5381(2) 0.1497(2) 0.4687(4)
C1 C 0.5568(3) 0.0866(2) 0.4223(5)
C2 C 0.5258(3) 0.0686(2) 0.2560(5)
O1 O 0.4235(2) 0.0565(1) 0.2467(3)
C3 C 0.3633(3) 0.1054(2) 0.3189(5)
C4 C 0.4009(3) 0.1749(2) 0.2921(5)
C5 C 0.4870(3) 0.1947(2) 0.3670(5)
C6 C 0.5227(3) 0.2579(2) 0.3438(5)
C7 C 0.4732(3) 0.3019(2) 0.2498(6)
C8 C 0.3883(3) 0.2829(2) 0.1782(5)
C9 C 0.3530(3) 0.2200(2) 0.1978(5)
Cl1 Cl 0.32769(9) 0.33853(6) 0.0585(2)
C10 C 0.2612(3) 0.0940(2) 0.2573(5)
C11 C 0.1833(3) 0.1104(2) 0.3511(5)
C12 C 0.0874(3) 0.0995(2) 0.2979(5)
C13 C 0.0729(3) 0.0727(2) 0.1506(5)
C14 C 0.1509(3) 0.0578(2) 0.0577(6)
C15 C 0.2452(3) 0.0680(2) 0.1091(5)
O2 O 0.1991(2) 0.1418(1) 0.4924(3)
C16 C 0.1860(3) 0.1015(2) 0.6303(6)
O3 O 0.0161(2) 0.1167(2) 0.4006(4)
C17 C -0.0823(3) 0.1057(3) 0.3504(7)
C18 C 0.5773(3) 0.1737(2) 0.6202(5)
C19 C 0.5079(3) 0.1720(2) 0.7603(5)
C20 C 0.5604(4) 0.2069(3) 0.8944(6)
C21 C 0.4129(4) 0.2081(3) 0.7242(7)
C22 C 0.4848(4) 0.1011(3) 0.8075(7)
O4 O 0.5969(2) 0.0465(1) 0.5086(4)
C23 C 0.5743(3) 0.0059(2) 0.2018(6)
C24 C 0.6799(3) 0.0152(2) 0.1682(6)
O5 O 0.7209(2) 0.0672(2) 0.1723(5)
O6 O 0.7227(2) -0.0407(2) 0.1319(5)
H1 H 0.5430 0.1047 0.1843
H2 H 0.3629 0.0971 0.4325
H3 H 0.5804 0.2707 0.3918
H4 H 0.4972 0.3444 0.2348
H5 H 0.2961 0.2076 0.1469
H6 H 0.0102 0.0648 0.1146
H7 H 0.1405 0.0404 -0.0421
H8 H 0.2974 0.0574 0.0444
H9 H 0.1862 0.1291 0.7222
H10 H 0.2379 0.0701 0.6373
H11 H 0.1251 0.0787 0.6234
H12 H -0.1261 0.1191 0.4322
H13 H -0.0915 0.0597 0.3284
H14 H -0.0949 0.1310 0.2572
H15 H 0.5989 0.2189 0.6058
H16 H 0.6339 0.1475 0.6463
H17 H 0.5186 0.2089 0.9846
H18 H 0.5775 0.2508 0.8623
H19 H 0.6183 0.1829 0.9207
H20 H 0.3789 0.1854 0.6418
H21 H 0.4269 0.2524 0.6910
H22 H 0.3732 0.2093 0.8169
H23 H 0.4511 0.0795 0.7231
H24 H 0.4447 0.1011 0.8998
H25 H 0.5442 0.0780 0.8292
H26 H 0.5669 -0.0276 0.2824
H27 H 0.5422 -0.0098 0.1074
H28 H 0.7799 -0.0336 0.1106
loop_
_geom_bond_atom_site_label_1
_geom_bond_atom_site_label_2
_geom_bond_site_symmetry_1
_geom_bond_site_symmetry_2
N1 C1 1_555 1_555
C1 C2 1_555 1_555
C2 O1 1_555 1_555
O1 C3 1_555 1_555
C3 C4 1_555 1_555
C4 C5 1_555 1_555
C5 N1 1_555 1_555
C6 C5 1_555 1_555
C7 C6 1_555 1_555
C8 C7 1_555 1_555
C9 C4 1_555 1_555
Cl1 C8 1_555 1_555
C10 C3 1_555 1_555
C11 C10 1_555 1_555
C12 C11 1_555 1_555
C13 C12 1_555 1_555
C14 C13 1_555 1_555
C15 C10 1_555 1_555
O2 C11 1_555 1_555
C16 O2 1_555 1_555
O3 C12 1_555 1_555
C17 O3 1_555 1_555
C18 N1 1_555 1_555
C19 C18 1_555 1_555
C20 C19 1_555 1_555
C21 C19 1_555 1_555
C22 C19 1_555 1_555
O4 C1 1_555 1_555
C23 C2 1_555 1_555
C24 C23 1_555 1_555
O5 C24 1_555 1_555
O6 C24 1_555 1_555
H1 C2 1_555 1_555
H2 C3 1_555 1_555
H3 C6 1_555 1_555
H4 C7 1_555 1_555
H5 C9 1_555 1_555
H6 C13 1_555 1_555
H7 C14 1_555 1_555
H8 C15 1_555 1_555
H9 C16 1_555 1_555
H10 C16 1_555 1_555
H11 C16 1_555 1_555
H12 C17 1_555 1_555
H13 C17 1_555 1_555
H14 C17 1_555 1_555
H15 C18 1_555 1_555
H16 C18 1_555 1_555
H17 C20 1_555 1_555
H18 C20 1_555 1_555
H19 C20 1_555 1_555
H20 C21 1_555 1_555
H21 C21 1_555 1_555
H22 C21 1_555 1_555
H23 C22 1_555 1_555
H24 C22 1_555 1_555
H25 C22 1_555 1_555
H26 C23 1_555 1_555
H27 C23 1_555 1_555
H28 O6 1_555 1_555
C8 C9 1_555 1_555
C14 C15 1_555 1_555

#END
