
#######################################################################
#
#                 Cambridge Crystallographic Data Centre
#                                CCDC 
#
#######################################################################
#
# If this CIF has been generated from an entry in the Cambridge 
# Structural Database, then it will include bibliographic, chemical, 
# crystal, experimental, refinement or atomic coordinate data resulting 
# from the CCDC's data processing and validation procedures.
#
#######################################################################

data_AFADAP
_chemical_formula_moiety         'C18 H15 F3 I2 S1'
_chemical_name_systematic        
1-methyl-4-{[4,4,4-trifluoro-2-iodo-3-(iodomethyl)-1-phenylbut-1-en-1-yl]sulfanyl}benzene
_symmetry_cell_setting           triclinic
_symmetry_space_group_name_H-M   'P -1'
_symmetry_Int_Tables_number      2
_space_group_name_Hall           '-P 1'
loop_
_symmetry_equiv_pos_site_id
_symmetry_equiv_pos_as_xyz
1 x,y,z
2 -x,-y,-z
_cell_length_a                   8.6631(5)
_cell_length_b                   9.5398(5)
_cell_length_c                   13.2336(7)
_cell_angle_alpha                99.341(2)
_cell_angle_beta                 97.979(2)
_cell_angle_gamma                111.362(2)
_cell_volume                     981.446
_exptl_crystal_colour            colorless
_exptl_crystal_description       block
_chemical_melting_point          '334 K'
_cell_formula_units_Z            2
_chemical_properties_physical    Light-sensitive,Photo-sensitive
_exptl_crystal_recrystallization_method 
'Re-crystallisation from solvent: dichloromethane/hexane'
loop_
_atom_site_label
_atom_site_type_symbol
_atom_site_fract_x
_atom_site_fract_y
_atom_site_fract_z
S1 S 0.7805(3) 0.29950(19) -0.37173(13)
F1 F 1.0594(8) 0.3075(10) -0.0959(5)
F2 F 1.0979(8) 0.1113(10) -0.1377(6)
F3 F 0.9523(11) 0.1299(10) -0.0362(5)
I1 I 0.56889(7) 0.12969(6) -0.08951(4)
I2 I 0.56687(8) -0.14888(6) -0.38585(5)
C1 C 0.4631(9) 0.3772(8) -0.2980(5)
H1 H 0.4237 0.3071 -0.3627
C2 C 0.3789(11) 0.4681(10) -0.2693(6)
H2 H 0.2830 0.4598 -0.3154
C3 C 0.4329(11) 0.5723(10) -0.1731(6)
H3 H 0.3723 0.6315 -0.1540
C4 C 0.5755(11) 0.5873(9) -0.1069(6)
H4 H 0.6135 0.6583 -0.0426
C5 C 0.6647(9) 0.4979(8) -0.1343(6)
H5 H 0.7627 0.5103 -0.0884
C6 C 0.6095(8) 0.3896(7) -0.2298(5)
C7 C 0.7012(8) 0.2900(7) -0.2550(5)
C8 C 0.8826(8) 0.5016(8) -0.3632(5)
C9 C 0.8426(11) 0.5556(9) -0.4491(6)
H6 H 0.7550 0.4904 -0.5053
C10 C 0.9333(11) 0.7073(8) -0.4514(6)
H7 H 0.9083 0.7426 -0.5106
C11 C 1.0597(9) 0.8074(8) -0.3680(6)
C12 C 1.0935(10) 0.7517(9) -0.2824(7)
H8 H 1.1775 0.8178 -0.2247
C13 C 1.0058(9) 0.5993(8) -0.2794(6)
H9 H 1.0310 0.5639 -0.2204
C14 C 1.1589(12) 0.9744(9) -0.3718(8)
H10 H 1.2408 1.0273 -0.3071
H11 H 1.0821 1.0249 -0.3817
H12 H 1.2162 0.9761 -0.4290
C15 C 0.7199(9) 0.1891(8) -0.2011(5)
C16 C 0.8373(9) 0.1046(8) -0.2143(6)
H13 H 0.8846 0.1312 -0.2751
C17 C 1.0143(12) 0.1713(9) -0.1069(7)
C18 C 0.7509(12) -0.0698(10) -0.2402(7)
H14 H 0.6951 -0.1031 -0.1845
H15 H 0.8347 -0.1142 -0.2458
loop_
_geom_bond_atom_site_label_1
_geom_bond_atom_site_label_2
_geom_bond_site_symmetry_1
_geom_bond_site_symmetry_2
S1 C7 1_555 1_555
F1 C17 1_555 1_555
F2 C17 1_555 1_555
F3 C17 1_555 1_555
I1 C15 1_555 1_555
I2 C18 1_555 1_555
C1 H1 1_555 1_555
C2 C1 1_555 1_555
H2 C2 1_555 1_555
C3 C2 1_555 1_555
H3 C3 1_555 1_555
C4 C3 1_555 1_555
H4 C4 1_555 1_555
C5 C4 1_555 1_555
H5 C5 1_555 1_555
C6 C1 1_555 1_555
C7 C6 1_555 1_555
C8 S1 1_555 1_555
C9 C8 1_555 1_555
H6 C9 1_555 1_555
C10 C9 1_555 1_555
H7 C10 1_555 1_555
C11 C10 1_555 1_555
C12 C11 1_555 1_555
H8 C12 1_555 1_555
C13 C8 1_555 1_555
H9 C13 1_555 1_555
C14 C11 1_555 1_555
H10 C14 1_555 1_555
H11 C14 1_555 1_555
H12 C14 1_555 1_555
C15 C7 1_555 1_555
C16 C15 1_555 1_555
H13 C16 1_555 1_555
C17 C16 1_555 1_555
C18 C16 1_555 1_555
H14 C18 1_555 1_555
H15 C18 1_555 1_555
C5 C6 1_555 1_555
C12 C13 1_555 1_555

#END
