
#######################################################################
#
#                 Cambridge Crystallographic Data Centre
#                                CCDC 
#
#######################################################################
#
# If this CIF has been generated from an entry in the Cambridge 
# Structural Database, then it will include bibliographic, chemical, 
# crystal, experimental, refinement or atomic coordinate data resulting 
# from the CCDC's data processing and validation procedures.
#
#######################################################################

data_AFAGAS
_chemical_formula_moiety         'C24 H29 N3 O5 S1'
_chemical_name_systematic        
N-[(1-benzyl-2-oxopyrrolidin-3-yl)(cyclohexyl)methyl]-4-nitrobenzene-1-sulfonamide
_symmetry_cell_setting           triclinic
_symmetry_space_group_name_H-M   'P 1'
_symmetry_Int_Tables_number      1
_space_group_name_Hall           'P 1'
loop_
_symmetry_equiv_pos_site_id
_symmetry_equiv_pos_as_xyz
1 x,y,z
_cell_length_a                   6.2347(5)
_cell_length_b                   12.4464(10)
_cell_length_c                   15.4183(12)
_cell_angle_alpha                101.741(3)
_cell_angle_beta                 98.981(2)
_cell_angle_gamma                91.573(3)
_cell_volume                     1154.89
_exptl_crystal_colour            colorless
_exptl_crystal_description       block
_cell_formula_units_Z            2
loop_
_atom_site_label
_atom_site_type_symbol
_atom_site_fract_x
_atom_site_fract_y
_atom_site_fract_z
S1 S 1.12752(18) 0.62453(10) 0.85573(8)
O1 O 1.0387(7) 0.6113(3) 0.9332(3)
O2 O 1.3532(7) 0.6085(3) 0.8519(3)
O3 O 0.4407(8) 0.2779(4) 0.5446(3)
O4 O 0.7272(10) 0.2681(5) 0.4805(4)
O5 O 1.6541(7) 0.8009(5) 0.8493(3)
N1 N 1.0767(6) 0.7452(3) 0.8408(3)
H1 H 0.9384 0.7515 0.8332
N2 N 0.6316(10) 0.3023(4) 0.5428(4)
N3 N 1.5278(7) 0.8993(4) 0.9721(3)
C1 C 0.7702(9) 0.4907(5) 0.7670(4)
H2 H 0.7047 0.5168 0.8183
C2 C 0.6573(10) 0.4158(5) 0.6947(4)
H3 H 0.5134 0.3895 0.6958
C3 C 0.7550(10) 0.3797(4) 0.6214(4)
C4 C 0.9641(10) 0.4146(4) 0.6171(4)
H4 H 1.0283 0.3882 0.5654
C5 C 1.0781(9) 0.4891(4) 0.6896(4)
H5 H 1.2231 0.5138 0.6888
C6 C 0.9795(8) 0.5274(4) 0.7638(3)
C7 C 1.1716(8) 0.7990(4) 0.7774(3)
H6 H 1.2605 0.7456 0.7429
C8 C 1.3217(8) 0.8974(4) 0.8326(4)
H7 H 1.3701 0.9399 0.7899
C9 C 1.5204(8) 0.8603(5) 0.8842(4)
C10 C 1.2234(9) 0.9769(4) 0.9030(4)
H8 H 1.0708 0.9526 0.9028
H9 H 1.2263 1.0518 0.8905
C11 C 1.3639(10) 0.9757(5) 0.9936(4)
H10 H 1.4316 1.0498 1.0223
H11 H 1.2757 0.9506 1.0346
C12 C 1.7095(9) 0.8800(6) 1.0389(4)
H12 H 1.8025 0.9489 1.0615
H13 H 1.7989 0.8238 1.0092
C13 C 1.6383(6) 0.8425(3) 1.11706(19)
C14 C 1.4458(6) 0.7793(3) 1.1083(2)
H14 H 1.3540 0.7590 1.0516
C15 C 1.3878(7) 0.7457(4) 1.1826(3)
H15 H 1.2563 0.7025 1.1766
C16 C 1.5223(10) 0.7754(4) 1.2656(2)
H16 H 1.4826 0.7524 1.3163
C17 C 1.7147(9) 0.8386(4) 1.27431(19)
H17 H 1.8066 0.8589 1.3310
C18 C 1.7727(6) 0.8722(3) 1.2001(2)
H18 H 1.9043 0.9154 1.2060
C19 C 0.9849(10) 0.8317(4) 0.7111(4)
H19 H 0.9144 0.8931 0.7466
C20 C 1.0601(15) 0.8754(9) 0.6370(6)
H20 H 1.1251 0.8160 0.5983
H21 H 1.1746 0.9349 0.6631
C21 C 0.8727(12) 0.9207(7) 0.5788(5)
H22 H 0.9255 0.9411 0.5267
H23 H 0.8210 0.9872 0.6147
C22 C 0.6776(17) 0.8283(8) 0.5446(7)
H24 H 0.5533 0.8595 0.5119
H25 H 0.7253 0.7666 0.5019
C23 C 0.6060(16) 0.7865(7) 0.6169(6)
H26 H 0.4881 0.7283 0.5921
H27 H 0.5483 0.8464 0.6579
C24 C 0.8013(15) 0.7385(6) 0.6694(5)
H28 H 0.8588 0.6786 0.6284
H29 H 0.7522 0.7076 0.7178
S2 S -0.12574(19) 0.20693(11) 0.13726(8)
O6 O -0.3508(7) 0.1949(4) 0.1433(3)
O7 O -0.0468(7) 0.1552(3) 0.0570(2)
O8 O 0.2839(9) 0.0232(4) 0.5002(3)
O9 O 0.5674(8) 0.0283(4) 0.4374(3)
N4 N -0.0565(7) 0.3351(4) 0.1545(3)
H41 H 0.0803 0.3456 0.1543
N5 N 0.3763(9) 0.0398(4) 0.4392(3)
C30 C 0.0190(8) 0.1532(4) 0.2262(3)
C31 C 0.2232(9) 0.1165(5) 0.2180(3)
H42 H 0.2829 0.1180 0.1652
C32 C 0.3399(9) 0.0773(5) 0.2884(4)
H43 H 0.4808 0.0514 0.2848
C33 C 0.2454(9) 0.0770(4) 0.3637(3)
C34 C 0.0424(9) 0.1133(4) 0.3728(3)
H44 H -0.0167 0.1116 0.4257
C35 C -0.0741(8) 0.1524(4) 0.3025(3)
H45 H -0.2150 0.1781 0.3063
O10 O -0.6162(15) 0.3796(9) 0.1669(6)
N6 N -0.497(2) 0.4215(13) 0.0434(7)
C36 C -0.122(2) 0.4066(10) 0.2265(9)
H46 H -0.2097 0.3638 0.2585
C37 C 0.0756(18) 0.4661(9) 0.2925(8)
H47 H 0.1521 0.5127 0.2597
C38 C 0.0085(15) 0.5434(8) 0.3730(6)
H48 H -0.0708 0.5003 0.4066
H49 H -0.0909 0.5965 0.3514
C39 C 0.2089(17) 0.6066(9) 0.4362(8)
H50 H 0.2762 0.6572 0.4049
H51 H 0.1611 0.6514 0.4898
C40 C 0.379(2) 0.5296(9) 0.4666(7)
H52 H 0.5107 0.5734 0.5018
H53 H 0.3203 0.4860 0.5055
C41 C 0.4393(17) 0.4528(9) 0.3849(7)
H54 H 0.5113 0.4964 0.3494
H55 H 0.5437 0.4009 0.4050
C42 C 0.2414(14) 0.3889(7) 0.3262(6)
H56 H 0.1727 0.3429 0.3609
H57 H 0.2864 0.3394 0.2742
C43 C -0.483(3) 0.4229(13) 0.1313(8)
C44 C -0.270(2) 0.4830(10) 0.1812(8)
H58 H -0.3051 0.5434 0.2295
C45 C -0.185(3) 0.5357(15) 0.1114(8)
H59 H -0.1928 0.6166 0.1272
H60 H -0.0319 0.5188 0.1087
C46 C -0.326(3) 0.4895(14) 0.0217(9)
H61 H -0.3890 0.5492 -0.0060
H62 H -0.2414 0.4448 -0.0200
C47 C -0.683(3) 0.3698(16) -0.0220(9)
H63 H -0.7708 0.4281 -0.0416
H64 H -0.7743 0.3275 0.0080
C48 C -0.747(2) 0.1988(12) -0.2592(6)
H65 H -0.8527 0.1855 -0.3122
C49 C -0.783(2) 0.2728(11) -0.1831(7)
H66 H -0.9139 0.3102 -0.1840
C50 C -0.628(3) 0.2923(15) -0.1056(7)
C51 C -0.436(3) 0.238(2) -0.1042(9)
H67 H -0.3298 0.2510 -0.0512
C52 C -0.400(2) 0.1637(18) -0.1803(11)
H68 H -0.2686 0.1264 -0.1794
C53 C -0.555(2) 0.1442(13) -0.2578(8)
H69 H -0.5301 0.0937 -0.3099
H30? H 0.8594 0.8534 0.7427
C25? C 1.045(3) 0.9231(19) 0.6623(16)
H31? H 1.1313 0.8965 0.6144
H32? H 1.1200 0.9891 0.7043
C26? C 0.791(3) 0.9431(15) 0.6221(12)
H33? H 0.6881 0.9309 0.6625
H34? H 0.7749 1.0163 0.6070
C27? C 0.772(5) 0.8429(17) 0.5323(16)
H35? H 0.6522 0.8525 0.4846
H36? H 0.9098 0.8366 0.5079
C28? C 0.724(4) 0.7476(17) 0.5713(16)
H37? H 0.6893 0.6811 0.5227
H38? H 0.5953 0.7609 0.6015
C29? C 0.920(4) 0.7278(13) 0.6400(12)
H39? H 0.8809 0.6674 0.6686
H40? H 1.0445 0.7061 0.6088
H70? H 0.0827 0.3426 0.1695
O11? O -0.6426(17) 0.4026(9) 0.1361(7)
N7? N -0.485(3) 0.4125(14) 0.0128(7)
C54? C -0.663(3) 0.3562(18) -0.0520(10)
H71? H -0.7543 0.4120 -0.0744
H72? H -0.7537 0.3148 -0.0210
C55? C 0.027(2) 0.5042(9) 0.2834(8)
H73? H 0.1472 0.5221 0.2518
C56? C -0.0502(17) 0.6132(8) 0.3313(7)
H74? H -0.0889 0.6598 0.2870
H75? H -0.1831 0.5979 0.3556
C57? C 0.1209(18) 0.6765(9) 0.4080(7)
H76? H 0.2490 0.6990 0.3837
H77? H 0.0600 0.7437 0.4387
C58? C 0.190(2) 0.6039(9) 0.4747(8)
H78? H 0.0618 0.5815 0.4991
H79? H 0.2972 0.6456 0.5254
C59? C 0.291(2) 0.5019(9) 0.4280(8)
H80? H 0.3386 0.4554 0.4716
H81? H 0.4188 0.5239 0.4037
C60? C 0.1189(16) 0.4372(8) 0.3515(7)
H82? H 0.1849 0.3723 0.3200
H83? H -0.0021 0.4101 0.3777
C61? C -0.156(2) 0.4374(11) 0.2117(9)
H84? H -0.2576 0.4059 0.2454
C62? C -0.492(3) 0.4338(14) 0.1002(10)
C63? C -0.292(2) 0.5024(12) 0.1529(8)
H85? H -0.3372 0.5700 0.1913
C64? C -0.174(3) 0.5350(16) 0.0804(9)
H86? H -0.1712 0.6156 0.0850
H87? H -0.0228 0.5120 0.0869
C65? C -0.306(3) 0.4746(15) -0.0100(10)
H88? H -0.3638 0.5277 -0.0463
H89? H -0.2148 0.4244 -0.0445
C66? C -0.605(3) 0.2782(16) -0.1312(7)
C67? C -0.416(3) 0.222(2) -0.1233(9)
H90? H -0.3231 0.2319 -0.0669
C68? C -0.364(3) 0.151(2) -0.1978(12)
H91? H -0.2345 0.1122 -0.1925
C69? C -0.500(2) 0.1360(14) -0.2803(9)
H92? H -0.4642 0.0874 -0.3312
C70? C -0.689(2) 0.1924(13) -0.2882(7)
H93? H -0.7825 0.1824 -0.3445
C71? C -0.742(2) 0.2635(12) -0.2136(8)
H94? H -0.8710 0.3021 -0.2190
loop_
_geom_bond_atom_site_label_1
_geom_bond_atom_site_label_2
_geom_bond_site_symmetry_1
_geom_bond_site_symmetry_2
S1 O1 1_555 1_555
O2 S1 1_555 1_555
O3 N2 1_555 1_555
O4 N2 1_555 1_555
O5 C9 1_555 1_555
N1 S1 1_555 1_555
H1 N1 1_555 1_555
N2 C3 1_555 1_555
N3 C9 1_555 1_555
C1 H2 1_555 1_555
C2 C1 1_555 1_555
H3 C2 1_555 1_555
C3 C2 1_555 1_555
C4 C3 1_555 1_555
H4 C4 1_555 1_555
C5 C4 1_555 1_555
H5 C5 1_555 1_555
C6 S1 1_555 1_555
C7 N1 1_555 1_555
H6 C7 1_555 1_555
C8 C7 1_555 1_555
H7 C8 1_555 1_555
C9 C8 1_555 1_555
C10 C8 1_555 1_555
H8 C10 1_555 1_555
H9 C10 1_555 1_555
C11 N3 1_555 1_555
H10 C11 1_555 1_555
H11 C11 1_555 1_555
C12 N3 1_555 1_555
H12 C12 1_555 1_555
H13 C12 1_555 1_555
C13 C12 1_555 1_555
C14 C13 1_555 1_555
H14 C14 1_555 1_555
C15 C14 1_555 1_555
H15 C15 1_555 1_555
C16 C15 1_555 1_555
H16 C16 1_555 1_555
C17 C16 1_555 1_555
H17 C17 1_555 1_555
C18 C13 1_555 1_555
H18 C18 1_555 1_555
C19 C7 1_555 1_555
H19 C19 1_555 1_555
C20 C19 1_555 1_555
H20 C20 1_555 1_555
H21 C20 1_555 1_555
C21 C20 1_555 1_555
H22 C21 1_555 1_555
H23 C21 1_555 1_555
C22 C21 1_555 1_555
H24 C22 1_555 1_555
H25 C22 1_555 1_555
C23 C22 1_555 1_555
H26 C23 1_555 1_555
H27 C23 1_555 1_555
C24 C19 1_555 1_555
H28 C24 1_555 1_555
H29 C24 1_555 1_555
S2 O6 1_555 1_555
O7 S2 1_555 1_555
O8 N5 1_555 1_555
O9 N5 1_555 1_555
N4 S2 1_555 1_555
H41 N4 1_555 1_555
N5 C33 1_555 1_555
C30 S2 1_555 1_555
C31 C30 1_555 1_555
H42 C31 1_555 1_555
C32 C31 1_555 1_555
H43 C32 1_555 1_555
C33 C32 1_555 1_555
C34 C33 1_555 1_555
H44 C34 1_555 1_555
C35 C30 1_555 1_555
H45 C35 1_555 1_555
O10 C43 1_555 1_555
N6 C43 1_555 1_555
C36 N4 1_555 1_555
H46 C36 1_555 1_555
C37 C36 1_555 1_555
H47 C37 1_555 1_555
C38 C37 1_555 1_555
H48 C38 1_555 1_555
H49 C38 1_555 1_555
C39 C38 1_555 1_555
H50 C39 1_555 1_555
H51 C39 1_555 1_555
C40 C39 1_555 1_555
H52 C40 1_555 1_555
H53 C40 1_555 1_555
C41 C40 1_555 1_555
H54 C41 1_555 1_555
H55 C41 1_555 1_555
C42 C37 1_555 1_555
H56 C42 1_555 1_555
H57 C42 1_555 1_555
C43 C44 1_555 1_555
C44 C36 1_555 1_555
H58 C44 1_555 1_555
C45 C44 1_555 1_555
H59 C45 1_555 1_555
H60 C45 1_555 1_555
C46 N6 1_555 1_555
H61 C46 1_555 1_555
H62 C46 1_555 1_555
C47 N6 1_555 1_555
H63 C47 1_555 1_555
H64 C47 1_555 1_555
C48 H65 1_555 1_555
C49 C48 1_555 1_555
H66 C49 1_555 1_555
C50 C47 1_555 1_555
C51 C50 1_555 1_555
H67 C51 1_555 1_555
C52 C51 1_555 1_555
H68 C52 1_555 1_555
C53 C48 1_555 1_555
H69 C53 1_555 1_555
C1 C6 1_555 1_555
C5 C6 1_555 1_555
C10 C11 1_555 1_555
C17 C18 1_555 1_555
C23 C24 1_555 1_555
C34 C35 1_555 1_555
C41 C42 1_555 1_555
C45 C46 1_555 1_555
C49 C50 1_555 1_555
C52 C53 1_555 1_555

#END
