
#######################################################################
#
#                 Cambridge Crystallographic Data Centre
#                                CCDC 
#
#######################################################################
#
# If this CIF has been generated from an entry in the Cambridge 
# Structural Database, then it will include bibliographic, chemical, 
# crystal, experimental, refinement or atomic coordinate data resulting 
# from the CCDC's data processing and validation procedures.
#
#######################################################################

data_AFAJEZ
_chemical_formula_moiety         'C46 H36 N6 O2,4(H2 O1)'
_chemical_name_systematic        
'2^4^,3^4^-[butane-1,4-diylbis(oxy-4,1-phenylene)]bis(1^2^,2^2^:2^6^,3^2^-terpyridine) unknown solvate tetrahydrate'
_symmetry_cell_setting           rhombohedral
_symmetry_space_group_name_H-M   'R -3'
_symmetry_Int_Tables_number      148
_space_group_name_Hall           '-R 3'
loop_
_symmetry_equiv_pos_site_id
_symmetry_equiv_pos_as_xyz
1 x,y,z
2 -y,x-y,z
3 -x+y,-x,z
4 2/3+x,1/3+y,1/3+z
5 2/3-y,1/3+x-y,1/3+z
6 2/3-x+y,1/3-x,1/3+z
7 1/3+x,2/3+y,2/3+z
8 1/3-y,2/3+x-y,2/3+z
9 1/3-x+y,2/3-x,2/3+z
10 -x,-y,-z
11 y,-x+y,-z
12 x-y,x,-z
13 1/3-x,2/3-y,2/3-z
14 1/3+y,2/3-x+y,2/3-z
15 1/3+x-y,2/3+x,2/3-z
16 2/3-x,1/3-y,1/3-z
17 2/3+y,1/3-x+y,1/3-z
18 2/3+x-y,1/3+x,1/3-z
_cell_length_a                   46.504(5)
_cell_length_b                   46.504(5)
_cell_length_c                   4.8819(5)
_cell_angle_alpha                90
_cell_angle_beta                 90
_cell_angle_gamma                120
_cell_volume                     9143.24
_exptl_crystal_colour            'light yellow'
_exptl_crystal_description       needle
_cell_formula_units_Z            9
loop_
_atom_site_label
_atom_site_type_symbol
_atom_site_fract_x
_atom_site_fract_y
_atom_site_fract_z
O1 O 0.38651(7) 0.21578(7) -0.1350(6)
N1 N 0.51780(8) 0.37735(8) 0.8647(6)
N2 N 0.44087(8) 0.36787(8) 1.1229(7)
C1 C 0.47358(10) 0.32239(9) 0.5480(8)
C2 C 0.48481(10) 0.36370(10) 0.8929(8)
C3 C 0.52885(10) 0.36373(10) 0.6786(8)
C4 C 0.46219(10) 0.33603(9) 0.7455(7)
H1 H 0.439543 0.326626 0.778137
C5 C 0.50770(9) 0.33687(9) 0.5151(8)
H2 H 0.516345 0.328683 0.384763
C6 C 0.47342(10) 0.37972(10) 1.0985(8)
C7 C 0.44987(9) 0.29376(10) 0.3789(8)
C8 C 0.40608(10) 0.24172(10) 0.0358(8)
C9 C 0.39653(10) 0.26275(10) 0.1545(8)
H3 H 0.375541 0.259771 0.120059
C10 C 0.41834(10) 0.28816(9) 0.3243(8)
H4 H 0.411541 0.301930 0.404376
C11 C 0.56561(11) 0.37904(10) 0.6615(9)
C12 C 0.49647(11) 0.40592(10) 1.2560(8)
H5 H 0.519055 0.414050 1.230299
C13 C 0.45207(11) 0.40711(10) 1.4814(8)
H6 H 0.443885 0.415609 1.613107
C14 C 0.45906(10) 0.27210(10) 0.2606(8)
H7 H 0.479961 0.274924 0.296189
C15 C 0.43066(11) 0.38150(11) 1.3132(8)
H8 H 0.407971 0.373278 1.332921
C16 C 0.43737(10) 0.24656(10) 0.0915(9)
H9 H 0.443900 0.232446 0.014145
N3 N 0.57702(10) 0.36637(11) 0.4761(9)
C17 C 0.48569(11) 0.41992(11) 1.4519(9)
H10 H 0.500745 0.437470 1.560223
C18 C 0.35539(10) 0.21249(10) -0.2143(9)
H11 H 0.358945 0.232391 -0.308158
H12 H 0.341762 0.209216 -0.053996
C19 C 0.33841(11) 0.18287(9) -0.4024(8)
H13 H 0.318840 0.182146 -0.479767
H14 H 0.353291 0.185729 -0.552421
C20 C 0.58612(12) 0.40415(12) 0.8291(10)
H15 H 0.577303 0.412256 0.958735
C21 C 0.63256(13) 0.40625(14) 0.6179(11)
H16 H 0.655359 0.415436 0.596462
C22 C 0.61963(13) 0.41762(13) 0.8088(13)
H17 H 0.633631 0.434640 0.926446
C23 C 0.61050(13) 0.38068(15) 0.4586(13)
H18 H 0.619027 0.372400 0.327944
O1O O 0.28016(7) 0.11755(7) -0.5317(6)
N1O N 0.14887(8) -0.04402(8) -1.5314(6)
N2O N 0.22580(8) -0.03454(8) -1.7896(7)
C1O C 0.19309(10) 0.01094(9) -1.2147(8)
C2O C 0.18186(10) -0.03037(10) -1.5596(8)
C3O C 0.13782(10) -0.03040(10) -1.3453(8)
C4O C 0.20448(10) -0.00270(9) -1.4122(7)
H1O H 0.227124 0.006707 -1.444804
C5O C 0.15897(9) -0.00354(9) -1.1818(8)
H2O H 0.150322 0.004650 -1.051430
C6O C 0.19325(10) -0.04639(10) -1.7652(8)
C7O C 0.21680(9) 0.03957(10) -1.0456(8)
C8O C 0.26059(10) 0.09161(10) -0.7025(8)
C9O C 0.27014(10) 0.07058(10) -0.8212(8)
H3O H 0.291126 0.073562 -0.786726
C10O C 0.24833(10) 0.04517(9) -0.9910(8)
H4O H 0.255126 0.031403 -1.071043
C11O C 0.10106(11) -0.04571(10) -1.3282(9)
C12O C 0.17020(11) -0.07259(10) -1.9227(8)
H5O H 0.147612 -0.080717 -1.896966
C13O C 0.21460(11) -0.07378(10) -2.1481(8)
H6O H 0.222782 -0.082276 -2.279774
C14O C 0.20761(10) 0.06123(10) -0.9273(8)
H7O H 0.186706 0.058409 -0.962856
C15O C 0.23601(11) -0.04817(11) -1.9799(8)
H8O H 0.258696 -0.039945 -1.999588
C16O C 0.22930(10) 0.08677(10) -0.7582(9)
H9O H 0.222767 0.100887 -0.680812
N3O N 0.08965(10) -0.03304(11) -1.1428(9)
C17O C 0.18098(11) -0.08659(11) -2.1186(9)
H10O H 0.165922 -0.104137 -2.226890
C18O C 0.31128(10) 0.12084(10) -0.4524(9)
H11O H 0.307722 0.100942 -0.358509
H12O H 0.324905 0.124117 -0.612671
C19O C 0.32826(11) 0.15046(9) -0.2643(8)
H13O H 0.347827 0.151187 -0.186900
H14O H 0.313376 0.147604 -0.114246
C20O C 0.08055(12) -0.07082(12) -1.4958(10)
H15O H 0.089364 -0.078923 -1.625402
C21O C 0.03411(13) -0.07292(14) -1.2846(11)
H16O H 0.011308 -0.082103 -1.263129
C22O C 0.04704(13) -0.08429(13) -1.4755(13)
H17O H 0.033036 -0.101307 -1.593113
C23O C 0.05617(13) -0.04735(15) -1.1253(13)
H18O H 0.047640 -0.039067 -0.994611
O2 O 0.37764(8) 0.32596(9) 0.8773(6)
H19 H 0.366113 0.315179 1.015067
H20 H 0.397973 0.337156 0.922687
O3 O 0.36886(10) 0.38163(10) 0.7184(8)
H21 H 0.3644(12) 0.3633(6) 0.760(9)
loop_
_geom_bond_atom_site_label_1
_geom_bond_atom_site_label_2
_geom_bond_site_symmetry_1
_geom_bond_site_symmetry_2
O1 C8 1_555 1_555
N1 C2 1_555 1_555
N2 C6 1_555 1_555
C1 C4 1_555 1_555
C2 C4 1_555 1_555
C3 N1 1_555 1_555
C4 H1 1_555 1_555
C5 C1 1_555 1_555
H2 C5 1_555 1_555
C6 C2 1_555 1_555
C7 C1 1_555 1_555
C8 C9 1_555 1_555
C9 H3 1_555 1_555
C10 C7 1_555 1_555
H4 C10 1_555 1_555
C11 C3 1_555 1_555
C12 C6 1_555 1_555
H5 C12 1_555 1_555
C13 H6 1_555 1_555
C14 C7 1_555 1_555
H7 C14 1_555 1_555
C15 N2 1_555 1_555
H8 C15 1_555 1_555
C16 C8 1_555 1_555
H9 C16 1_555 1_555
N3 C11 1_555 1_555
C17 C12 1_555 1_555
H10 C17 1_555 1_555
C18 O1 1_555 1_555
H11 C18 1_555 1_555
H12 C18 1_555 1_555
C19 C18 1_555 1_555
H13 C19 1_555 1_555
H14 C19 1_555 1_555
C20 C11 1_555 1_555
H15 C20 1_555 1_555
C21 H16 1_555 1_555
C22 C20 1_555 1_555
H17 C22 1_555 1_555
C23 N3 1_555 1_555
H18 C23 1_555 1_555
O2 H19 1_555 1_555
H20 O2 1_555 1_555
O3 H21 1_555 1_555
O1O C8O 1_555 1_555
N1O C2O 1_555 1_555
N2O C6O 1_555 1_555
C1O C4O 1_555 1_555
C2O C4O 1_555 1_555
C3O N1O 1_555 1_555
C4O H1O 1_555 1_555
C5O C1O 1_555 1_555
H2O C5O 1_555 1_555
C6O C2O 1_555 1_555
C7O C1O 1_555 1_555
C8O C9O 1_555 1_555
C9O H3O 1_555 1_555
C10O C7O 1_555 1_555
H4O C10O 1_555 1_555
C11O C3O 1_555 1_555
C12O C6O 1_555 1_555
H5O C12O 1_555 1_555
C13O H6O 1_555 1_555
C14O C7O 1_555 1_555
H7O C14O 1_555 1_555
C15O N2O 1_555 1_555
H8O C15O 1_555 1_555
C16O C8O 1_555 1_555
H9O C16O 1_555 1_555
N3O C11O 1_555 1_555
C17O C12O 1_555 1_555
H10O C17O 1_555 1_555
C18O O1O 1_555 1_555
H11O C18O 1_555 1_555
H12O C18O 1_555 1_555
C19O C19 1_555 1_555
H13O C19O 1_555 1_555
H14O C19O 1_555 1_555
C20O C11O 1_555 1_555
H15O C20O 1_555 1_555
C21O H16O 1_555 1_555
C22O C20O 1_555 1_555
H17O C22O 1_555 1_555
C23O N3O 1_555 1_555
H18O C23O 1_555 1_555
C3 C5 1_555 1_555
C9 C10 1_555 1_555
C13 C15 1_555 1_555
C13 C17 1_555 1_555
C14 C16 1_555 1_555
C21 C22 1_555 1_555
C21 C23 1_555 1_555
C3O C5O 1_555 1_555
C9O C10O 1_555 1_555
C13O C15O 1_555 1_555
C13O C17O 1_555 1_555
C14O C16O 1_555 1_555
C18O C19O 1_555 1_555
C21O C22O 1_555 1_555
C21O C23O 1_555 1_555

#END
