
#######################################################################
#
#                 Cambridge Crystallographic Data Centre
#                                CCDC 
#
#######################################################################
#
# If this CIF has been generated from an entry in the Cambridge 
# Structural Database, then it will include bibliographic, chemical, 
# crystal, experimental, refinement or atomic coordinate data resulting 
# from the CCDC's data processing and validation procedures.
#
#######################################################################

data_AFAKOK
_chemical_formula_moiety         'C22 H19 N5'
_chemical_name_systematic        6-(1H-indol-1-yl)-2-phenyl-9-propyl-9H-purine
_symmetry_cell_setting           monoclinic
_symmetry_space_group_name_H-M   'P 21/n'
_symmetry_Int_Tables_number      14
_space_group_name_Hall           '-P 2yn'
loop_
_symmetry_equiv_pos_site_id
_symmetry_equiv_pos_as_xyz
1 x,y,z
2 1/2-x,1/2+y,1/2-z
3 -x,-y,-z
4 1/2+x,1/2-y,1/2+z
_cell_length_a                   6.8768(3)
_cell_length_b                   15.8540(8)
_cell_length_c                   16.6138(6)
_cell_angle_alpha                90
_cell_angle_beta                 91.265(4)
_cell_angle_gamma                90
_cell_volume                     1810.87
_exptl_crystal_colour            colorless
_exptl_crystal_description       plate
_cell_formula_units_Z            4
loop_
_atom_site_label
_atom_site_type_symbol
_atom_site_fract_x
_atom_site_fract_y
_atom_site_fract_z
N1 N 0.69432(18) 0.34464(9) 0.58405(8)
N2 N 0.54694(19) 0.28738(9) 0.46367(8)
N3 N 0.2463(2) 0.35691(9) 0.42647(8)
N4 N 0.5669(2) 0.45516(9) 0.65845(9)
N5 N 0.2314(2) 0.45210(10) 0.52621(9)
C1 C 0.5539(2) 0.40128(10) 0.59249(9)
C2 C 0.4090(2) 0.34493(10) 0.47427(10)
C3 C 0.6853(2) 0.29061(10) 0.52139(9)
C4 C 0.8446(2) 0.22775(10) 0.51577(9)
C5 C 0.3988(2) 0.40399(11) 0.53610(10)
C6 C 0.7169(3) 0.46099(11) 0.71714(10)
C7 C 1.0149(3) 0.23434(12) 0.56201(10)
H1 H 1.0289 0.2779 0.5991
C8 C 0.8266(3) 0.16125(11) 0.46128(11)
H2 H 0.7131 0.1556 0.4302
C9 C 0.6614(3) 0.52233(12) 0.77274(11)
C10 C 0.1475(2) 0.42129(12) 0.46097(11)
H3 H 0.0302 0.4417 0.4400
C11 C -0.0055(3) 0.32203(13) 0.32164(11)
H4 H -0.0093 0.3790 0.3003
H5 H -0.1017 0.3178 0.3633
C12 C 0.1939(3) 0.30396(13) 0.35715(11)
H6 H 0.1994 0.2453 0.3735
H7 H 0.2895 0.3121 0.3158
C13 C 1.1637(3) 0.17645(14) 0.55321(12)
H8 H 1.2772 0.1815 0.5843
C14 C 0.7848(3) 0.54224(14) 0.83782(11)
H9 H 0.7494 0.5830 0.8750
C15 C 0.4235(3) 0.51272(14) 0.67889(13)
H10 H 0.3085 0.5218 0.6497
C16 C 0.9581(3) 0.50099(16) 0.84600(12)
H11 H 1.0406 0.5134 0.8895
C17 C 0.9750(3) 0.10372(13) 0.45293(13)
H12 H 0.9612 0.0595 0.4164
C18 C 1.1446(3) 0.11157(14) 0.49875(13)
H13 H 1.2453 0.0731 0.4927
C19 C 0.8939(3) 0.41985(14) 0.72512(13)
H14 H 0.9317 0.3795 0.6880
C20 C 1.0128(3) 0.44099(15) 0.79052(14)
H15 H 1.1323 0.4141 0.7972
C21 C 0.4753(3) 0.55306(15) 0.74684(13)
H16 H 0.4027 0.5940 0.7727
C22 C -0.0531(4) 0.25949(18) 0.25490(14)
H17 H 0.0346 0.2677 0.2114
H18 H -0.1843 0.2682 0.2358
H19 H -0.0395 0.2031 0.2753
loop_
_geom_bond_atom_site_label_1
_geom_bond_atom_site_label_2
_geom_bond_site_symmetry_1
_geom_bond_site_symmetry_2
N1 C1 1_555 1_555
N2 C2 1_555 1_555
N3 C2 1_555 1_555
N4 C1 1_555 1_555
N5 C5 1_555 1_555
C1 C5 1_555 1_555
C2 C5 1_555 1_555
C3 N1 1_555 1_555
C4 C3 1_555 1_555
C6 N4 1_555 1_555
C7 C4 1_555 1_555
H1 C7 1_555 1_555
C8 C4 1_555 1_555
H2 C8 1_555 1_555
C9 C6 1_555 1_555
C10 N3 1_555 1_555
H3 C10 1_555 1_555
C11 H4 1_555 1_555
H5 C11 1_555 1_555
C12 N3 1_555 1_555
H6 C12 1_555 1_555
H7 C12 1_555 1_555
C13 C7 1_555 1_555
H8 C13 1_555 1_555
C14 C9 1_555 1_555
H9 C14 1_555 1_555
C15 N4 1_555 1_555
H10 C15 1_555 1_555
C16 C14 1_555 1_555
H11 C16 1_555 1_555
C17 C8 1_555 1_555
H12 C17 1_555 1_555
C18 C13 1_555 1_555
H13 C18 1_555 1_555
C19 C6 1_555 1_555
H14 C19 1_555 1_555
C20 C16 1_555 1_555
H15 C20 1_555 1_555
C21 C9 1_555 1_555
H16 C21 1_555 1_555
C22 C11 1_555 1_555
H17 C22 1_555 1_555
H18 C22 1_555 1_555
H19 C22 1_555 1_555
N2 C3 1_555 1_555
N5 C10 1_555 1_555
C11 C12 1_555 1_555
C15 C21 1_555 1_555
C17 C18 1_555 1_555
C19 C20 1_555 1_555

#END
