
#######################################################################
#
#                 Cambridge Crystallographic Data Centre
#                                CCDC 
#
#######################################################################
#
# If this CIF has been generated from an entry in the Cambridge 
# Structural Database, then it will include bibliographic, chemical, 
# crystal, experimental, refinement or atomic coordinate data resulting 
# from the CCDC's data processing and validation procedures.
#
#######################################################################

data_AFAKUQ
_chemical_formula_moiety         'C23 H18 F3 N5'
_chemical_name_systematic        
6-(1H-indol-1-yl)-9-propyl-2-[4-(trifluoromethyl)phenyl]-9H-purine
_symmetry_cell_setting           monoclinic
_symmetry_space_group_name_H-M   'P 21/c'
_symmetry_Int_Tables_number      14
_space_group_name_Hall           '-P 2ybc'
loop_
_symmetry_equiv_pos_site_id
_symmetry_equiv_pos_as_xyz
1 x,y,z
2 -x,1/2+y,1/2-z
3 -x,-y,-z
4 x,1/2-y,1/2+z
_cell_length_a                   13.8657(4)
_cell_length_b                   8.21008(19)
_cell_length_c                   18.9838(6)
_cell_angle_alpha                90
_cell_angle_beta                 111.052(3)
_cell_angle_gamma                90
_cell_volume                     2016.85
_exptl_crystal_colour            colorless
_exptl_crystal_description       block
_cell_formula_units_Z            4
loop_
_atom_site_label
_atom_site_type_symbol
_atom_site_fract_x
_atom_site_fract_y
_atom_site_fract_z
N1 N 0.31762(10) 0.58665(16) 0.47838(7)
N2 N 0.40667(10) 0.73997(16) 0.41305(7)
N3 N 0.38295(10) 0.52636(17) 0.60698(7)
N4 N 0.57636(10) 0.82343(17) 0.49484(8)
N5 N 0.57862(11) 0.71713(19) 0.60468(8)
C1 C 0.39548(12) 0.59763(18) 0.54429(8)
C2 C 0.32607(12) 0.65671(18) 0.41663(8)
C3 C 0.23583(12) 0.64104(19) 0.34497(9)
C4 C 0.48344(12) 0.74635(18) 0.47978(9)
C5 C 0.48594(12) 0.67979(19) 0.54802(8)
C6 C 0.29148(13) 0.46616(19) 0.61365(9)
C7 C 0.23096(13) 0.7318(2) 0.28201(10)
H1 H 0.2848 0.8020 0.2847
C8 C 0.06739(13) 0.6139(2) 0.21082(9)
C9 C 0.60682(13) 0.9087(2) 0.43812(10)
H2 H 0.5599 0.9990 0.4179
H3 H 0.6003 0.8347 0.3968
C10 C 0.31855(15) 0.4034(2) 0.68720(9)
C11 C 0.19004(14) 0.4635(2) 0.56335(10)
H4 H 0.1722 0.5062 0.5150
C12 C 0.46369(14) 0.5007(2) 0.67631(9)
H5 H 0.5322 0.5304 0.6871
C13 C 0.62839(13) 0.8009(2) 0.57016(10)
H6 H 0.6944 0.8421 0.5951
C14 C 0.14707(14) 0.7189(2) 0.21565(10)
H7 H 0.1442 0.7812 0.1740
C15 C 0.15539(14) 0.5358(2) 0.33929(10)
H8 H 0.1578 0.4736 0.3808
C16 C 0.42723(16) 0.4272(3) 0.72442(10)
H9 H 0.4659 0.3968 0.7737
C17 C 0.07151(14) 0.5219(2) 0.27262(11)
H10 H 0.0179 0.4508 0.2694
C18 C -0.02405(15) 0.5974(3) 0.13924(11)
C19 C 0.24258(17) 0.3349(2) 0.71004(10)
H11 H 0.2596 0.2925 0.7584
C20 C 0.11670(16) 0.3953(3) 0.58764(11)
H12 H 0.0482 0.3921 0.5548
C21 C 0.14215(18) 0.3308(3) 0.66007(12)
H13 H 0.0909 0.2849 0.6746
C22 C 0.71563(15) 0.9724(3) 0.46931(13)
H14 H 0.7630 0.8829 0.4901
H15 H 0.7223 1.0490 0.5097
C23 C 0.7436(2) 1.0564(3) 0.40789(16)
H16 H 0.7388 0.9797 0.3686
H17 H 0.8129 1.0975 0.4289
H18 H 0.6967 1.1449 0.3873
F1 F -0.11076(17) 0.6197(9) 0.15209(17)
F2 F -0.0307(4) 0.7197(7) 0.0918(2)
F3 F -0.0306(5) 0.4638(6) 0.1061(3)
F4? F -0.0866(12) 0.475(3) 0.1397(5)
F5? F -0.0013(6) 0.570(3) 0.0808(4)
F6? F -0.0757(13) 0.7159(15) 0.1146(9)
loop_
_geom_bond_atom_site_label_1
_geom_bond_atom_site_label_2
_geom_bond_site_symmetry_1
_geom_bond_site_symmetry_2
N1 C1 1_555 1_555
N2 C2 1_555 1_555
N3 C1 1_555 1_555
N4 C4 1_555 1_555
N5 C5 1_555 1_555
C1 C5 1_555 1_555
C2 N1 1_555 1_555
C3 C2 1_555 1_555
C4 N2 1_555 1_555
C5 C4 1_555 1_555
C6 N3 1_555 1_555
C7 C3 1_555 1_555
H1 C7 1_555 1_555
C8 C14 1_555 1_555
C9 N4 1_555 1_555
H2 C9 1_555 1_555
H3 C9 1_555 1_555
C10 C6 1_555 1_555
C11 C6 1_555 1_555
H4 C11 1_555 1_555
C12 N3 1_555 1_555
H5 C12 1_555 1_555
C13 N4 1_555 1_555
H6 C13 1_555 1_555
C14 C7 1_555 1_555
H7 C14 1_555 1_555
C15 C3 1_555 1_555
H8 C15 1_555 1_555
C16 C10 1_555 1_555
H9 C16 1_555 1_555
C17 C8 1_555 1_555
H10 C17 1_555 1_555
C18 C8 1_555 1_555
C19 C10 1_555 1_555
H11 C19 1_555 1_555
C20 C11 1_555 1_555
H12 C20 1_555 1_555
C21 C19 1_555 1_555
H13 C21 1_555 1_555
C22 C9 1_555 1_555
H14 C22 1_555 1_555
H15 C22 1_555 1_555
C23 C22 1_555 1_555
H16 C23 1_555 1_555
H17 C23 1_555 1_555
H18 C23 1_555 1_555
F1 C18 1_555 1_555
F2 C18 1_555 1_555
F3 C18 1_555 1_555
N5 C13 1_555 1_555
C12 C16 1_555 1_555
C15 C17 1_555 1_555
C20 C21 1_555 1_555

#END
