
#######################################################################
#
#                 Cambridge Crystallographic Data Centre
#                                CCDC 
#
#######################################################################
#
# If this CIF has been generated from an entry in the Cambridge 
# Structural Database, then it will include bibliographic, chemical, 
# crystal, experimental, refinement or atomic coordinate data resulting 
# from the CCDC's data processing and validation procedures.
#
#######################################################################

data_AFALAX
_chemical_formula_moiety         'C23 H18 N6'
_chemical_name_systematic        
4-[6-(1H-indol-1-yl)-9-propyl-9H-purin-2-yl]benzonitrile
_symmetry_cell_setting           triclinic
_symmetry_space_group_name_H-M   'P -1'
_symmetry_Int_Tables_number      2
_space_group_name_Hall           '-P 1'
loop_
_symmetry_equiv_pos_site_id
_symmetry_equiv_pos_as_xyz
1 x,y,z
2 -x,-y,-z
_cell_length_a                   8.0380(6)
_cell_length_b                   10.3402(8)
_cell_length_c                   11.9954(9)
_cell_angle_alpha                73.536(7)
_cell_angle_beta                 81.046(7)
_cell_angle_gamma                84.939(6)
_cell_volume                     943.438
_exptl_crystal_colour            colorless
_exptl_crystal_description       block
_cell_formula_units_Z            2
loop_
_atom_site_label
_atom_site_type_symbol
_atom_site_fract_x
_atom_site_fract_y
_atom_site_fract_z
N1 N 0.73842(19) 0.25696(14) 0.69985(14)
N2 N 0.75274(18) 0.45801(14) 0.54997(13)
N3 N 0.66024(19) 0.49059(14) 0.36262(14)
N4 N 0.5943(2) 0.14588(14) 0.51742(14)
N5 N 0.5547(2) 0.28888(15) 0.34216(15)
C1 C 0.7255(2) 0.53190(16) 0.44133(16)
C2 C 0.7132(2) 0.32930(16) 0.58674(16)
C3 C 0.7736(2) 0.67493(16) 0.40568(16)
N6 N 0.9618(3) 1.18707(17) 0.27271(18)
C4 C 0.6233(2) 0.36083(17) 0.40175(17)
C5 C 0.7375(2) 0.76042(18) 0.29918(17)
H1 H 0.6815 0.7281 0.2510
C6 C 0.7837(2) 0.89281(18) 0.26391(17)
H2 H 0.7587 0.9492 0.1924
C7 C 0.6464(2) 0.27202(17) 0.51031(16)
C8 C 0.8191(2) 0.29680(18) 0.77952(16)
C9 C 0.8675(2) 0.94179(17) 0.33503(17)
C10 C 0.8558(3) 0.72548(18) 0.47704(18)
H3 H 0.8792 0.6696 0.5491
C11 C 0.9199(3) 1.07882(18) 0.29930(18)
C12 C 0.8918(3) 0.41635(19) 0.77249(18)
H4 H 0.8890 0.4898 0.7066
C13 C 0.8240(3) 0.18572(19) 0.87958(17)
C14 C 0.5415(3) 0.16203(18) 0.41690(18)
H5 H 0.4979 0.0922 0.3974
C15 C 0.9031(3) 0.85750(19) 0.44226(19)
H6 H 0.9588 0.8901 0.4904
C16 C 0.6930(3) 0.12336(19) 0.75198(19)
H7 H 0.6372 0.0728 0.7176
C17 C 0.9027(3) 0.1960(2) 0.97174(19)
H8 H 0.9075 0.1229 1.0377
C18 C 0.7418(3) 0.0792(2) 0.8587(2)
H9 H 0.7251 -0.0061 0.9104
C19 C 0.9681(3) 0.4233(2) 0.8656(2)
H10 H 1.0175 0.5026 0.8621
C20 C 0.9729(3) 0.3138(3) 0.9650(2)
H11 H 1.0243 0.3212 1.0271
C21 C 0.5178(4) 0.3425(2) 0.2211(2)
H12 H 0.4354 0.4173 0.2187
H13 H 0.6202 0.3785 0.1720
C22 C 0.4266(4) 0.3110(3) 0.0444(2)
H14 H 0.5326 0.3354 -0.0034
H15 H 0.3530 0.3901 0.0394
H16 H 0.3761 0.2470 0.0170
C23 C 0.4552(5) 0.2488(3) 0.1699(3)
H17 H 0.3498 0.2153 0.2161
H18 H 0.5353 0.1724 0.1735
loop_
_geom_bond_atom_site_label_1
_geom_bond_atom_site_label_2
_geom_bond_site_symmetry_1
_geom_bond_site_symmetry_2
N1 C2 1_555 1_555
N2 C1 1_555 1_555
N3 C1 1_555 1_555
N4 C7 1_555 1_555
N5 C4 1_555 1_555
C1 C3 1_555 1_555
C2 N2 1_555 1_555
C3 C5 1_555 1_555
N6 C11 1_555 1_555
C4 N3 1_555 1_555
C5 H1 1_555 1_555
C6 C5 1_555 1_555
H2 C6 1_555 1_555
C7 C2 1_555 1_555
C8 N1 1_555 1_555
C9 C6 1_555 1_555
C10 C3 1_555 1_555
H3 C10 1_555 1_555
C11 C9 1_555 1_555
C12 C8 1_555 1_555
H4 C12 1_555 1_555
C13 C8 1_555 1_555
C14 N4 1_555 1_555
H5 C14 1_555 1_555
C15 C9 1_555 1_555
H6 C15 1_555 1_555
C16 N1 1_555 1_555
H7 C16 1_555 1_555
C17 C13 1_555 1_555
H8 C17 1_555 1_555
C18 C13 1_555 1_555
H9 C18 1_555 1_555
C19 C12 1_555 1_555
H10 C19 1_555 1_555
C20 C17 1_555 1_555
H11 C20 1_555 1_555
C21 N5 1_555 1_555
H12 C21 1_555 1_555
H13 C21 1_555 1_555
C22 H14 1_555 1_555
H15 C22 1_555 1_555
H16 C22 1_555 1_555
C23 C21 1_555 1_555
H17 C23 1_555 1_555
H18 C23 1_555 1_555
N5 C14 1_555 1_555
C4 C7 1_555 1_555
C10 C15 1_555 1_555
C16 C18 1_555 1_555
C19 C20 1_555 1_555
C22 C23 1_555 1_555

#END
