
#######################################################################
#
#                 Cambridge Crystallographic Data Centre
#                                CCDC 
#
#######################################################################
#
# If this CIF has been generated from an entry in the Cambridge 
# Structural Database, then it will include bibliographic, chemical, 
# crystal, experimental, refinement or atomic coordinate data resulting 
# from the CCDC's data processing and validation procedures.
#
#######################################################################

data_AFALEB
_chemical_formula_moiety         'C23 H19 N5 O1'
_chemical_name_systematic        
4-[6-(1H-indol-1-yl)-9-propyl-9H-purin-2-yl]benzaldehyde
_symmetry_cell_setting           monoclinic
_symmetry_space_group_name_H-M   'P 21/c'
_symmetry_Int_Tables_number      14
_space_group_name_Hall           '-P 2ybc'
loop_
_symmetry_equiv_pos_site_id
_symmetry_equiv_pos_as_xyz
1 x,y,z
2 -x,1/2+y,1/2-z
3 -x,-y,-z
4 x,1/2-y,1/2+z
_cell_length_a                   11.7851(4)
_cell_length_b                   19.9797(6)
_cell_length_c                   8.1892(3)
_cell_angle_alpha                90
_cell_angle_beta                 97.235(3)
_cell_angle_gamma                90
_cell_volume                     1912.9
_exptl_crystal_colour            colorless
_exptl_crystal_description       block
_cell_formula_units_Z            4
loop_
_atom_site_label
_atom_site_type_symbol
_atom_site_fract_x
_atom_site_fract_y
_atom_site_fract_z
N1 N 0.39934(12) 0.52014(7) 0.22990(17)
N2 N 0.35454(12) 0.62070(7) 0.09374(18)
N3 N 0.58785(13) 0.47392(7) 0.2848(2)
O1 O 0.19224(15) 0.24242(9) 0.6295(2)
N4 N 0.61512(13) 0.62414(8) 0.0550(2)
C1 C 0.42844(14) 0.41643(8) 0.37862(19)
C2 C 0.43496(14) 0.57230(8) 0.1498(2)
C3 C 0.47552(14) 0.47352(8) 0.2924(2)
C4 C 0.24997(14) 0.63357(8) 0.1524(2)
C5 C 0.55066(14) 0.57740(8) 0.1270(2)
C6 C 0.33901(16) 0.31041(8) 0.5440(2)
C7 C 0.50104(15) 0.36830(9) 0.4590(2)
H1 H 0.5796 0.3712 0.4569
C8 C 0.62011(15) 0.52653(9) 0.2016(2)
C9 C 0.45597(16) 0.31644(9) 0.5417(2)
H2 H 0.5049 0.2850 0.5969
C10 C 0.31110(15) 0.41024(9) 0.3813(2)
H3 H 0.2619 0.4420 0.3281
C11 C 0.26682(16) 0.35764(9) 0.4620(2)
H4 H 0.1881 0.3538 0.4613
C12 C 0.20262(16) 0.60738(10) 0.2847(2)
H5 H 0.2401 0.5746 0.3519
C13 C 0.29245(18) 0.25361(10) 0.6298(2)
H6 H 0.3442 0.2245 0.6880
C14 C 0.19494(17) 0.68391(9) 0.0520(3)
C15 C 0.36316(18) 0.66292(10) -0.0396(3)
H7 H 0.4250 0.6644 -0.0998
C16 C 0.09728(18) 0.63197(12) 0.3127(3)
H8 H 0.0640 0.6158 0.4020
C17 C 0.08762(19) 0.70631(12) 0.0818(3)
H9 H 0.0490 0.7386 0.0143
C18 C 0.03940(18) 0.68007(12) 0.2121(3)
H10 H -0.0323 0.6946 0.2330
C19 C 0.2691(2) 0.70101(11) -0.0682(3)
H11 H 0.2544 0.7328 -0.1510
C20 C 0.71880(17) 0.60117(12) 0.0871(3)
H12 H 0.7810 0.6218 0.0485
N5 N 0.7301(5) 0.5434(2) 0.184(2)
C21 C 0.8356(3) 0.5115(4) 0.2599(5)
H13 H 0.8862 0.5460 0.3108
H14 H 0.8169 0.4820 0.3466
C22 C 0.8958(6) 0.4737(4) 0.1496(7)
H15 H 0.9249 0.5038 0.0717
H16 H 0.8437 0.4426 0.0882
C23 C 0.9958(11) 0.4349(6) 0.244(2)
H17 H 1.0557 0.4297 0.1761
H18 H 0.9696 0.3916 0.2740
H19 H 1.0244 0.4591 0.3422
H20? H 0.7836 0.6276 0.0855
N6? N 0.7227(16) 0.5404(14) 0.120(8)
C24? C 0.8213(8) 0.4925(6) 0.158(4)
H21? H 0.7935 0.4510 0.1064
H22? H 0.8786 0.5089 0.0928
C25? C 0.8723(15) 0.4760(16) 0.277(4)
H23? H 0.8292 0.4445 0.3348
H24? H 0.8928 0.5141 0.3483
C26? C 0.996(3) 0.4379(15) 0.217(4)
H25? H 0.9796 0.4223 0.1059
H26? H 1.0177 0.4008 0.2887
H27? H 1.0569 0.4699 0.2246
loop_
_geom_bond_atom_site_label_1
_geom_bond_atom_site_label_2
_geom_bond_site_symmetry_1
_geom_bond_site_symmetry_2
N1 C2 1_555 1_555
N2 C2 1_555 1_555
N3 C3 1_555 1_555
O1 C13 1_555 1_555
N4 C5 1_555 1_555
C1 C3 1_555 1_555
C2 C5 1_555 1_555
C3 N1 1_555 1_555
C4 N2 1_555 1_555
C5 C8 1_555 1_555
C6 C9 1_555 1_555
C7 C1 1_555 1_555
H1 C7 1_555 1_555
C8 N3 1_555 1_555
C9 C7 1_555 1_555
H2 C9 1_555 1_555
C10 C1 1_555 1_555
H3 C10 1_555 1_555
C11 C6 1_555 1_555
H4 C11 1_555 1_555
C12 C4 1_555 1_555
H5 C12 1_555 1_555
C13 C6 1_555 1_555
H6 C13 1_555 1_555
C14 C4 1_555 1_555
C15 N2 1_555 1_555
H7 C15 1_555 1_555
C16 C12 1_555 1_555
H8 C16 1_555 1_555
C17 C14 1_555 1_555
H9 C17 1_555 1_555
C18 C16 1_555 1_555
H10 C18 1_555 1_555
C19 C14 1_555 1_555
H11 C19 1_555 1_555
C20 N4 1_555 1_555
H12 C20 1_555 1_555
N5 C8 1_555 1_555
C21 N5 1_555 1_555
H13 C21 1_555 1_555
H14 C21 1_555 1_555
C22 C21 1_555 1_555
H15 C22 1_555 1_555
H16 C22 1_555 1_555
C23 C22 1_555 1_555
H17 C23 1_555 1_555
H18 C23 1_555 1_555
H19 C23 1_555 1_555
C10 C11 1_555 1_555
C15 C19 1_555 1_555
C17 C18 1_555 1_555
C20 N5 1_555 1_555

#END
