
#######################################################################
#
#                 Cambridge Crystallographic Data Centre
#                                CCDC 
#
#######################################################################
#
# If this CIF has been generated from an entry in the Cambridge 
# Structural Database, then it will include bibliographic, chemical, 
# crystal, experimental, refinement or atomic coordinate data resulting 
# from the CCDC's data processing and validation procedures.
#
#######################################################################

data_AFAPUT
_chemical_formula_moiety         'C8 H9 N1 O2'
_chemical_name_systematic        
(1S,2R)-cis-3-Cyano-6-methyl-1,2-dihydrobenzene-1,2-diol
_symmetry_cell_setting           orthorhombic
_symmetry_space_group_name_H-M   'P 21 21 21'
_symmetry_Int_Tables_number      19
_space_group_name_Hall           'P 2ac 2ab'
loop_
_symmetry_equiv_pos_site_id
_symmetry_equiv_pos_as_xyz
1 x,y,z
2 1/2-x,-y,1/2+z
3 -x,1/2+y,1/2-z
4 1/2+x,1/2-y,-z
_cell_length_a                   8.044(2)
_cell_length_b                   8.151(2)
_cell_length_c                   11.400(2)
_cell_angle_alpha                90
_cell_angle_beta                 90
_cell_angle_gamma                90
_cell_volume                     747.46
_exptl_crystal_colour            colorless
_exptl_crystal_description       blocks
_cell_formula_units_Z            4
loop_
_atom_site_label
_atom_site_type_symbol
_atom_site_fract_x
_atom_site_fract_y
_atom_site_fract_z
C1 C 1.0419(3) 0.6129(3) 0.5298(2)
H1 H 0.9282 0.5947 0.5016
O1 O 1.1455(2) 0.6579(2) 0.43225(16)
H2 H 1.1274 0.7536 0.4142
C2 C 1.0397(3) 0.7455(3) 0.6231(2)
H3 H 0.9528 0.7188 0.6803
O2 O 1.0033(2) 0.9009(2) 0.57343(19)
H4 H 0.9031 0.9080 0.5613
C3 C 1.2037(3) 0.7529(3) 0.6864(2)
C4 C 1.2584(3) 0.9057(3) 0.7346(2)
N1 N 1.3033(3) 1.0276(3) 0.7738(3)
C5 C 1.2883(3) 0.6142(3) 0.7044(2)
H5 H 1.3866 0.6170 0.7472
C6 C 1.2290(3) 0.4593(3) 0.6580(2)
H6 H 1.2748 0.3619 0.6857
C7 C 1.1104(3) 0.4536(3) 0.5767(2)
C8 C 1.0451(4) 0.2974(3) 0.5248(3)
H7 H 1.1022 0.2057 0.5590
H8 H 1.0631 0.2980 0.4415
H9 H 0.9282 0.2886 0.5405
loop_
_geom_bond_atom_site_label_1
_geom_bond_atom_site_label_2
_geom_bond_site_symmetry_1
_geom_bond_site_symmetry_2
C1 H1 1_555 1_555
O1 C1 1_555 1_555
H2 O1 1_555 1_555
C2 C1 1_555 1_555
H3 C2 1_555 1_555
O2 C2 1_555 1_555
H4 O2 1_555 1_555
C3 C2 1_555 1_555
C4 C3 1_555 1_555
N1 C4 1_555 1_555
C5 C3 1_555 1_555
H5 C5 1_555 1_555
C6 C5 1_555 1_555
H6 C6 1_555 1_555
C7 C1 1_555 1_555
C8 C7 1_555 1_555
H7 C8 1_555 1_555
H8 C8 1_555 1_555
H9 C8 1_555 1_555
C6 C7 1_555 1_555

#END
