
#######################################################################
#
#                 Cambridge Crystallographic Data Centre
#                                CCDC 
#
#######################################################################
#
# If this CIF has been generated from an entry in the Cambridge 
# Structural Database, then it will include bibliographic, chemical, 
# crystal, experimental, refinement or atomic coordinate data resulting 
# from the CCDC's data processing and validation procedures.
#
#######################################################################

data_AFAPON
_chemical_formula_moiety         'C7 H6 F1 N1 O2'
_chemical_name_systematic        
(1R,2R)-cis-3-Cyano-6-fluoro-1,2-dihydrobenzene-1,2-diol
_symmetry_cell_setting           monoclinic
_symmetry_space_group_name_H-M   'P 21'
_symmetry_Int_Tables_number      4
_space_group_name_Hall           'P 2yb'
loop_
_symmetry_equiv_pos_site_id
_symmetry_equiv_pos_as_xyz
1 x,y,z
2 -x,1/2+y,-z
_cell_length_a                   7.4500(15)
_cell_length_b                   6.2440(12)
_cell_length_c                   7.712(2)
_cell_angle_alpha                90
_cell_angle_beta                 108.06(2)
_cell_angle_gamma                90
_cell_volume                     341.071
_exptl_crystal_colour            colorless
_chemical_melting_point          '106-107 deg.C'
_cell_formula_units_Z            2
loop_
_atom_site_label
_atom_site_type_symbol
_atom_site_fract_x
_atom_site_fract_y
_atom_site_fract_z
C1 C 0.7549(6) 0.4189(9) 0.6036(6)
H1 H 0.6991 0.3925 0.4726
O1 O 0.7302(5) 0.6357(5) 0.6420(4)
H2 H 0.6952 0.7036 0.5463
C2 C 0.6596(5) 0.2780(9) 0.7094(6)
H3 H 0.6578 0.1322 0.6617
O2 O 0.4708(4) 0.3391(5) 0.6781(5)
H4 H 0.4673 0.4595 0.7195
C3 C 0.7723(6) 0.2706(8) 0.9062(6)
C4 C 0.6764(7) 0.2470(9) 1.0370(7)
N1 N 0.5976(7) 0.2290(10) 1.1415(7)
C5 C 0.9597(6) 0.2725(9) 0.9541(6)
H5 H 1.0295 0.2564 1.0763
C6 C 1.0557(6) 0.2987(9) 0.8215(7)
H6 H 1.1835 0.2669 0.8493
C7 C 0.9587(6) 0.3688(8) 0.6598(7)
F1 F 1.0432(4) 0.4155(7) 0.5353(4)
loop_
_geom_bond_atom_site_label_1
_geom_bond_atom_site_label_2
_geom_bond_site_symmetry_1
_geom_bond_site_symmetry_2
C1 H1 1_555 1_555
O1 C1 1_555 1_555
H2 O1 1_555 1_555
C2 C1 1_555 1_555
H3 C2 1_555 1_555
O2 C2 1_555 1_555
H4 O2 1_555 1_555
C3 C2 1_555 1_555
C4 C3 1_555 1_555
N1 C4 1_555 1_555
C5 C3 1_555 1_555
H5 C5 1_555 1_555
C6 C5 1_555 1_555
H6 C6 1_555 1_555
C7 C1 1_555 1_555
F1 C7 1_555 1_555
C6 C7 1_555 1_555

#END
