
#######################################################################
#
#                 Cambridge Crystallographic Data Centre
#                                CCDC 
#
#######################################################################
#
# If this CIF has been generated from an entry in the Cambridge 
# Structural Database, then it will include bibliographic, chemical, 
# crystal, experimental, refinement or atomic coordinate data resulting 
# from the CCDC's data processing and validation procedures.
#
#######################################################################

data_AFATEJ
_chemical_compound_source        'Spondias pinnata Bark'
_chemical_formula_moiety         'C10 H9 N1 O3'
_chemical_name_systematic        7-hydroxy-6-methoxyquinolin-2(1H)-one
_symmetry_cell_setting           triclinic
_symmetry_space_group_name_H-M   'P -1'
_symmetry_Int_Tables_number      2
_space_group_name_Hall           '-P 1'
loop_
_symmetry_equiv_pos_site_id
_symmetry_equiv_pos_as_xyz
1 x,y,z
2 -x,-y,-z
_cell_length_a                   6.7548(6)
_cell_length_b                   7.6045(6)
_cell_length_c                   8.7945(7)
_cell_angle_alpha                109.9530(10)
_cell_angle_beta                 90.989(2)
_cell_angle_gamma                98.977(2)
_cell_volume                     418.217
_cell_formula_units_Z            2
loop_
_atom_site_label
_atom_site_type_symbol
_atom_site_fract_x
_atom_site_fract_y
_atom_site_fract_z
N1 N 0.2504(3) 0.4633(3) 0.2166(2)
C1 C 0.2950(4) 0.7317(4) 0.4562(3)
H1 H 0.3131 0.8089 0.3935
C2 C 0.2339(4) 0.4152(4) 0.4737(3)
C3 C 0.2472(4) 0.4965(4) 0.6437(3)
H2 H 0.2326 0.4189 0.7062
C4 C 0.2820(4) 0.6925(4) 0.7184(3)
C5 C 0.2606(4) 0.5355(4) 0.3836(3)
C6 C 0.1780(4) 0.1463(4) 0.2224(3)
H3 H 0.1472 0.0158 0.1680
C7 C 0.1910(4) 0.2142(4) 0.3851(3)
H4 H 0.1719 0.1301 0.4414
C8 C 0.2108(4) 0.2707(4) 0.1304(3)
C9 C 0.3021(4) 0.8105(4) 0.6237(3)
O1 O 0.3309(3) 1.0019(3) 0.6940(2)
H5 H 0.3066 1.0304 0.7896
O2 O 0.2069(3) 0.2261(3) -0.0168(2)
C10 C 0.2895(5) 0.6757(4) 0.9833(3)
H6 H 0.1560 0.6047 0.9717
H7 H 0.3217 0.7570 1.0944
H8 H 0.3837 0.5897 0.9520
O3 O 0.2999(3) 0.7887(3) 0.8817(2)
loop_
_geom_bond_atom_site_label_1
_geom_bond_atom_site_label_2
_geom_bond_site_symmetry_1
_geom_bond_site_symmetry_2
N1 C5 1_555 1_555
C1 H1 1_555 1_555
C2 C3 1_555 1_555
C3 H2 1_555 1_555
C4 C3 1_555 1_555
C5 C1 1_555 1_555
C6 H3 1_555 1_555
C7 C2 1_555 1_555
H4 C7 1_555 1_555
C8 N1 1_555 1_555
C9 C1 1_555 1_555
O1 C9 1_555 1_555
H5 O1 1_555 1_555
O2 C8 1_555 1_555
C10 H6 1_555 1_555
H7 C10 1_555 1_555
H8 C10 1_555 1_555
O3 C4 1_555 1_555
C2 C5 1_555 1_555
C4 C9 1_555 1_555
C6 C7 1_555 1_555
C6 C8 1_555 1_555
C10 O3 1_555 1_555

#END
