
#######################################################################
#
#                 Cambridge Crystallographic Data Centre
#                                CCDC 
#
#######################################################################
#
# If this CIF has been generated from an entry in the Cambridge 
# Structural Database, then it will include bibliographic, chemical, 
# crystal, experimental, refinement or atomic coordinate data resulting 
# from the CCDC's data processing and validation procedures.
#
#######################################################################

data_AFAWOW
_chemical_formula_moiety         'C43 H38 N2 S1'
_chemical_name_systematic        
"(-)-(R,R)-1,3-bis([5,6,7,8-tetrahydro[1,2'-binaphthalene]]-8-yl)imidazolidine-2-thione unknown solvate"
_symmetry_cell_setting           orthorhombic
_symmetry_space_group_name_H-M   'P 21 21 21'
_symmetry_Int_Tables_number      19
_space_group_name_Hall           'P 2ac 2ab'
loop_
_symmetry_equiv_pos_site_id
_symmetry_equiv_pos_as_xyz
1 x,y,z
2 1/2-x,-y,1/2+z
3 -x,1/2+y,1/2-z
4 1/2+x,1/2-y,-z
_cell_length_a                   12.105(2)
_cell_length_b                   13.680(2)
_cell_length_c                   22.452(4)
_cell_angle_alpha                90
_cell_angle_beta                 90
_cell_angle_gamma                90
_cell_volume                     3717.97
_exptl_crystal_colour            colorless
_exptl_crystal_description       block
_cell_formula_units_Z            4
loop_
_atom_site_label
_atom_site_type_symbol
_atom_site_fract_x
_atom_site_fract_y
_atom_site_fract_z
S1 S 0.58427(9) 0.35611(6) 0.78804(4)
N1 N 0.5847(2) 0.55137(19) 0.80375(12)
N2 N 0.5677(2) 0.5064(2) 0.71016(12)
C1 C 0.5802(3) 0.4743(2) 0.76714(14)
C2 C 0.5615(3) 0.6424(3) 0.77214(15)
H1 H 0.6112 0.6942 0.7844
H2 H 0.4857 0.6633 0.7782
C3 C 0.5819(3) 0.6123(2) 0.70788(16)
H3 H 0.5286 0.6423 0.6812
H4 H 0.6559 0.6297 0.6952
C4 C 0.5832(3) 0.5445(2) 0.86905(14)
H5 H 0.6196 0.4833 0.8804
C5 C 0.4622(4) 0.5402(4) 0.8910(2)
H6 H 0.4185 0.5871 0.8688
H7 H 0.4325 0.4756 0.8832
C6 C 0.4526(6) 0.5610(5) 0.9534(3)
H8 H 0.4979 0.5155 0.9758
H9 H 0.3765 0.5524 0.9658
C7 C 0.4896(4) 0.6660(4) 0.9671(2)
H10 H 0.4363 0.7116 0.9507
H11 H 0.4922 0.6755 1.0099
C8 C 0.6025(3) 0.6864(3) 0.94070(17)
C9 C 0.6593(4) 0.7685(3) 0.96125(18)
H12 H 0.6271 0.8080 0.9902
C10 C 0.7613(4) 0.7917(3) 0.93957(19)
H13 H 0.7974 0.8476 0.9530
C11 C 0.8107(3) 0.7328(3) 0.89811(18)
H14 H 0.8813 0.7478 0.8846
C12 C 0.7563(3) 0.6500(3) 0.87570(15)
C13 C 0.6488(3) 0.6291(2) 0.89633(14)
C14 C 0.8158(3) 0.5923(3) 0.82973(17)
C15 C 0.8556(3) 0.6349(3) 0.77947(18)
H15 H 0.8431 0.7013 0.7734
C16 C 0.9155(3) 0.5819(4) 0.73585(18)
C17 C 0.9534(4) 0.6259(5) 0.6820(2)
H16 H 0.9390 0.6917 0.6750
C18 C 1.0105(5) 0.5730(7) 0.6406(3)
H17 H 1.0355 0.6022 0.6057
C19 C 1.0308(5) 0.4723(7) 0.6519(3)
H18 H 1.0694 0.4360 0.6238
C20 C 0.9965(4) 0.4283(5) 0.7015(3)
H19 H 1.0116 0.3624 0.7077
C21 C 0.9361(3) 0.4830(4) 0.7455(2)
C22 C 0.8974(3) 0.4390(3) 0.7976(2)
H20 H 0.9120 0.3733 0.8046
C23 C 0.8381(3) 0.4915(3) 0.8388(2)
H21 H 0.8123 0.4607 0.8730
C24 C 0.5811(3) 0.4428(3) 0.65827(15)
H22 H 0.5551 0.3774 0.6693
C25 C 0.7038(4) 0.4351(4) 0.6428(2)
H23 H 0.7356 0.5002 0.6423
H24 H 0.7410 0.3980 0.6737
C26 C 0.7240(5) 0.3883(5) 0.5851(2)
H25 H 0.6912 0.3236 0.5847
H26 H 0.8028 0.3816 0.5785
C27 C 0.6725(4) 0.4516(4) 0.53538(19)
H27 H 0.7174 0.5095 0.5297
H28 H 0.6731 0.4149 0.4984
C28 C 0.5569(3) 0.4817(3) 0.54911(17)
C29 C 0.4907(4) 0.5156(3) 0.50133(17)
H29 H 0.5204 0.5171 0.4631
C30 C 0.3854(4) 0.5459(3) 0.50977(18)
H30 H 0.3442 0.5681 0.4775
C31 C 0.3383(4) 0.5440(3) 0.56628(18)
H31 H 0.2664 0.5661 0.5719
C32 C 0.3993(3) 0.5088(3) 0.61454(14)
C33 C 0.5094(3) 0.4794(3) 0.60619(15)
C34 C 0.3410(3) 0.5071(3) 0.67347(15)
C35 C 0.2966(3) 0.5913(3) 0.69667(16)
H32 H 0.3022 0.6493 0.6753
C36 C 0.2427(3) 0.5912(3) 0.75235(17)
C37 C 0.2015(4) 0.6791(3) 0.77824(19)
H33 H 0.2095 0.7381 0.7581
C38 C 0.1510(4) 0.6770(3) 0.8318(2)
H34 H 0.1260 0.7350 0.8487
C39 C 0.1358(4) 0.5884(4) 0.8624(2)
H35 H 0.0981 0.5878 0.8985
C40 C 0.1758(4) 0.5039(4) 0.83942(19)
H36 H 0.1671 0.4460 0.8606
C41 C 0.2304(3) 0.5023(3) 0.78388(17)
C42 C 0.2739(3) 0.4179(3) 0.75800(18)
H37 H 0.2658 0.3587 0.7779
C43 C 0.3275(3) 0.4189(3) 0.70506(18)
H38 H 0.3556 0.3610 0.6895
loop_
_geom_bond_atom_site_label_1
_geom_bond_atom_site_label_2
_geom_bond_site_symmetry_1
_geom_bond_site_symmetry_2
S1 C1 1_555 1_555
N1 C1 1_555 1_555
N2 C1 1_555 1_555
C2 N1 1_555 1_555
H1 C2 1_555 1_555
H2 C2 1_555 1_555
C3 N2 1_555 1_555
H3 C3 1_555 1_555
H4 C3 1_555 1_555
C4 N1 1_555 1_555
H5 C4 1_555 1_555
C5 C4 1_555 1_555
H6 C5 1_555 1_555
H7 C5 1_555 1_555
C6 C5 1_555 1_555
H8 C6 1_555 1_555
H9 C6 1_555 1_555
C7 C6 1_555 1_555
H10 C7 1_555 1_555
H11 C7 1_555 1_555
C8 C7 1_555 1_555
C9 C8 1_555 1_555
H12 C9 1_555 1_555
C10 C9 1_555 1_555
H13 C10 1_555 1_555
C11 C10 1_555 1_555
H14 C11 1_555 1_555
C12 C11 1_555 1_555
C13 C4 1_555 1_555
C14 C12 1_555 1_555
C15 C14 1_555 1_555
H15 C15 1_555 1_555
C16 C15 1_555 1_555
C17 C16 1_555 1_555
H16 C17 1_555 1_555
C18 C17 1_555 1_555
H17 C18 1_555 1_555
C19 C18 1_555 1_555
H18 C19 1_555 1_555
C20 C19 1_555 1_555
H19 C20 1_555 1_555
C21 C16 1_555 1_555
C22 C21 1_555 1_555
H20 C22 1_555 1_555
C23 C14 1_555 1_555
H21 C23 1_555 1_555
C24 N2 1_555 1_555
H22 C24 1_555 1_555
C25 C24 1_555 1_555
H23 C25 1_555 1_555
H24 C25 1_555 1_555
C26 C25 1_555 1_555
H25 C26 1_555 1_555
H26 C26 1_555 1_555
C27 C26 1_555 1_555
H27 C27 1_555 1_555
H28 C27 1_555 1_555
C28 C27 1_555 1_555
C29 C28 1_555 1_555
H29 C29 1_555 1_555
C30 C29 1_555 1_555
H30 C30 1_555 1_555
C31 C30 1_555 1_555
H31 C31 1_555 1_555
C32 C31 1_555 1_555
C33 C24 1_555 1_555
C34 C32 1_555 1_555
C35 C34 1_555 1_555
H32 C35 1_555 1_555
C36 C35 1_555 1_555
C37 C36 1_555 1_555
H33 C37 1_555 1_555
C38 C37 1_555 1_555
H34 C38 1_555 1_555
C39 C38 1_555 1_555
H35 C39 1_555 1_555
C40 C39 1_555 1_555
H36 C40 1_555 1_555
C41 C36 1_555 1_555
C42 C41 1_555 1_555
H37 C42 1_555 1_555
C43 C34 1_555 1_555
H38 C43 1_555 1_555
C2 C3 1_555 1_555
C8 C13 1_555 1_555
C12 C13 1_555 1_555
C20 C21 1_555 1_555
C22 C23 1_555 1_555
C28 C33 1_555 1_555
C32 C33 1_555 1_555
C40 C41 1_555 1_555
C42 C43 1_555 1_555

#END
