
#######################################################################
#
#                 Cambridge Crystallographic Data Centre
#                                CCDC 
#
#######################################################################
#
# If this CIF has been generated from an entry in the Cambridge 
# Structural Database, then it will include bibliographic, chemical, 
# crystal, experimental, refinement or atomic coordinate data resulting 
# from the CCDC's data processing and validation procedures.
#
#######################################################################

data_AFAWIQ
_chemical_formula_moiety         'C41 H38 N2 O2 S1,C1 H2 Cl2'
_chemical_name_systematic        
'(-)-(R,R)-1,3-bis[8-(4-methoxyphenyl)-1,2,3,4-tetrahydronaphthalen-1-yl]-1,3-dihydro-2H-benzimidazole-2-thione dichloromethane solvate'
_symmetry_cell_setting           monoclinic
_symmetry_space_group_name_H-M   'P 21'
_symmetry_Int_Tables_number      4
_space_group_name_Hall           'P 2yb'
loop_
_symmetry_equiv_pos_site_id
_symmetry_equiv_pos_as_xyz
1 x,y,z
2 -x,1/2+y,-z
_cell_length_a                   9.397(3)
_cell_length_b                   18.782(7)
_cell_length_c                   10.370(4)
_cell_angle_alpha                90
_cell_angle_beta                 102.623(7)
_cell_angle_gamma                90
_cell_volume                     1786.01
_exptl_crystal_colour            colorless
_exptl_crystal_description       prismatic
_cell_formula_units_Z            2
loop_
_atom_site_label
_atom_site_type_symbol
_atom_site_fract_x
_atom_site_fract_y
_atom_site_fract_z
S1 S 1.1144(2) 0.30986(13) 0.0544(2)
N1 N 0.8610(7) 0.2438(3) 0.0617(6)
N2 N 0.8798(7) 0.3507(3) 0.1472(6)
O1 O 0.7451(8) 0.3289(4) -0.3983(6)
O2 O 1.2393(8) 0.2664(4) 0.5862(7)
C1 C 0.9497(8) 0.3005(4) 0.0870(7)
C2 C 0.7456(8) 0.3252(4) 0.1563(7)
C3 C 0.7310(8) 0.2576(4) 0.1007(7)
C4 C 0.6037(9) 0.2191(5) 0.0895(8)
H1 H 0.5952 0.1738 0.0526
C5 C 0.4914(9) 0.2486(6) 0.1335(9)
H2 H 0.4037 0.2241 0.1233
C6 C 0.5062(10) 0.3154(6) 0.1937(9)
H3 H 0.4290 0.3344 0.2253
C7 C 0.6316(10) 0.3530(5) 0.2068(8)
H4 H 0.6414 0.3970 0.2492
C8 C 0.9466(11) 0.4183(5) 0.1977(9)
C9 C 1.0602(18) 0.4122(10) 0.3219(13)
H5 H 1.1387 0.4458 0.3222
H6 H 1.1005 0.3645 0.3321
C10 C 0.9818(19) 0.4293(9) 0.4319(15)
H7 H 1.0459 0.4199 0.5171
H8 H 0.8964 0.3991 0.4237
C11 C 0.935(2) 0.5083(12) 0.4233(18)
H9 H 0.8838 0.5191 0.4924
H10 H 1.0209 0.5385 0.4357
C12 C 0.8356(10) 0.5227(5) 0.2872(7)
C13 C 0.8420(10) 0.4792(4) 0.1792(8)
C14 C 0.7550(9) 0.4967(5) 0.0552(8)
C15 C 0.6656(11) 0.5548(5) 0.0423(9)
H11 H 0.6070 0.5651 -0.0401
C16 C 0.6596(12) 0.5990(5) 0.1488(11)
H12 H 0.6005 0.6393 0.1383
C17 C 0.7443(12) 0.5810(5) 0.2700(10)
H13 H 0.7398 0.6090 0.3429
C18 C 0.7536(9) 0.4514(5) -0.0633(8)
C19 C 0.8661(11) 0.4513(5) -0.1317(9)
H14 H 0.9474 0.4799 -0.1019
C20 C 0.8597(11) 0.4102(6) -0.2411(10)
H15 H 0.9364 0.4101 -0.2846
C21 C 0.7398(12) 0.3695(5) -0.2856(9)
C22 C 0.6268(10) 0.3665(5) -0.2244(9)
H16 H 0.5478 0.3367 -0.2553
C23 C 0.6316(10) 0.4094(5) -0.1138(8)
H17 H 0.5526 0.4101 -0.0732
C24 C 0.6226(14) 0.2869(6) -0.4533(10)
H18 H 0.6149 0.2483 -0.3945
H19 H 0.6333 0.2681 -0.5368
H20 H 0.5361 0.3156 -0.4661
C25 C 0.8974(10) 0.1802(4) -0.0052(8)
H21 H 1.0037 0.1788 0.0067
C26 C 0.8332(13) 0.1889(5) -0.1527(9)
H22 H 0.7336 0.2058 -0.1653
H23 H 0.8887 0.2245 -0.1884
C27 C 0.8347(16) 0.1228(7) -0.2246(12)
H24 H 0.9344 0.1060 -0.2127
H25 H 0.7975 0.1313 -0.3181
C28 C 0.7456(14) 0.0673(6) -0.1793(9)
H26 H 0.7650 0.0219 -0.2168
H27 H 0.6433 0.0783 -0.2124
C29 C 0.7749(9) 0.0602(5) -0.0297(9)
C30 C 0.8518(9) 0.1124(4) 0.0517(9)
C31 C 0.8806(9) 0.1011(5) 0.1905(9)
C32 C 0.8251(11) 0.0410(5) 0.2385(10)
H28 H 0.8403 0.0343 0.3294
C33 C 0.7481(11) -0.0092(5) 0.1553(11)
H29 H 0.7113 -0.0492 0.1897
C34 C 0.7259(11) -0.0001(5) 0.0222(11)
H30 H 0.6771 -0.0350 -0.0343
C35 C 0.9726(10) 0.1497(4) 0.2879(8)
C36 C 1.1137(10) 0.1635(5) 0.2908(9)
H31 H 1.1543 0.1452 0.2235
C37 C 1.2009(10) 0.2032(5) 0.3881(9)
H32 H 1.2974 0.2121 0.3850
C38 C 1.1437(11) 0.2304(5) 0.4926(9)
C39 C 1.0005(11) 0.2184(5) 0.4895(10)
H33 H 0.9594 0.2371 0.5560
C40 C 0.9148(11) 0.1789(5) 0.3899(9)
H34 H 0.8171 0.1716 0.3904
C41 C 1.1905(13) 0.2845(7) 0.7030(11)
H35 H 1.1082 0.3159 0.6807
H36 H 1.2679 0.3077 0.7643
H37 H 1.1625 0.2420 0.7425
H38 H 0.998(8) 0.424(4) 0.129(7)
Cl1 Cl 0.5264(6) 0.1000(3) 0.3863(9)
Cl2 Cl 0.5371(9) -0.0302(4) 0.5264(6)
C45 C 0.442(2) 0.0299(9) 0.4158(19)
H45 H 0.4076 0.0053 0.3326
H46 H 0.3574 0.0447 0.4476
C42? C 0.998(3) 0.3991(13) 0.3531(19)
H39? H 0.9175 0.3770 0.3834
H40? H 1.0779 0.3654 0.3661
C43? C 1.046(3) 0.4670(12) 0.434(2)
H41? H 1.1082 0.4965 0.3925
H42? H 1.0973 0.4557 0.5235
C44? C 0.899(3) 0.504(2) 0.432(2)
H43? H 0.8340 0.4716 0.4651
H44? H 0.9129 0.5461 0.4865
loop_
_geom_bond_atom_site_label_1
_geom_bond_atom_site_label_2
_geom_bond_site_symmetry_1
_geom_bond_site_symmetry_2
S1 C1 1_555 1_555
N1 C1 1_555 1_555
N2 C1 1_555 1_555
O1 C21 1_555 1_555
O2 C38 1_555 1_555
C2 N2 1_555 1_555
C3 N1 1_555 1_555
C4 C3 1_555 1_555
H1 C4 1_555 1_555
C5 C4 1_555 1_555
H2 C5 1_555 1_555
C6 C5 1_555 1_555
H3 C6 1_555 1_555
C7 C2 1_555 1_555
H4 C7 1_555 1_555
C8 N2 1_555 1_555
C9 C8 1_555 1_555
H5 C9 1_555 1_555
H6 C9 1_555 1_555
C10 C9 1_555 1_555
H7 C10 1_555 1_555
H8 C10 1_555 1_555
C11 C10 1_555 1_555
H9 C11 1_555 1_555
H10 C11 1_555 1_555
C12 C11 1_555 1_555
C13 C8 1_555 1_555
C14 C13 1_555 1_555
C15 C14 1_555 1_555
H11 C15 1_555 1_555
C16 C15 1_555 1_555
H12 C16 1_555 1_555
C17 C12 1_555 1_555
H13 C17 1_555 1_555
C18 C14 1_555 1_555
C19 C18 1_555 1_555
H14 C19 1_555 1_555
C20 C19 1_555 1_555
H15 C20 1_555 1_555
C21 C20 1_555 1_555
C22 C21 1_555 1_555
H16 C22 1_555 1_555
C23 C18 1_555 1_555
H17 C23 1_555 1_555
C24 O1 1_555 1_555
H18 C24 1_555 1_555
H19 C24 1_555 1_555
H20 C24 1_555 1_555
C25 N1 1_555 1_555
H21 C25 1_555 1_555
C26 C25 1_555 1_555
H22 C26 1_555 1_555
H23 C26 1_555 1_555
C27 C26 1_555 1_555
H24 C27 1_555 1_555
H25 C27 1_555 1_555
C28 C27 1_555 1_555
H26 C28 1_555 1_555
H27 C28 1_555 1_555
C29 C28 1_555 1_555
C30 C25 1_555 1_555
C31 C30 1_555 1_555
C32 C31 1_555 1_555
H28 C32 1_555 1_555
C33 C32 1_555 1_555
H29 C33 1_555 1_555
C34 C29 1_555 1_555
H30 C34 1_555 1_555
C35 C31 1_555 1_555
C36 C35 1_555 1_555
H31 C36 1_555 1_555
C37 C36 1_555 1_555
H32 C37 1_555 1_555
C38 C37 1_555 1_555
C39 C38 1_555 1_555
H33 C39 1_555 1_555
C40 C35 1_555 1_555
H34 C40 1_555 1_555
C41 O2 1_555 1_555
H35 C41 1_555 1_555
H36 C41 1_555 1_555
H37 C41 1_555 1_555
H38 C8 1_555 1_555
Cl1 C45 1_555 1_555
Cl2 C45 1_555 1_555
C45 H45 1_555 1_555
H46 C45 1_555 1_555
C2 C3 1_555 1_555
C6 C7 1_555 1_555
C12 C13 1_555 1_555
C16 C17 1_555 1_555
C22 C23 1_555 1_555
C29 C30 1_555 1_555
C33 C34 1_555 1_555
C39 C40 1_555 1_555

#END
