
#######################################################################
#
#                 Cambridge Crystallographic Data Centre
#                                CCDC 
#
#######################################################################
#
# If this CIF has been generated from an entry in the Cambridge 
# Structural Database, then it will include bibliographic, chemical, 
# crystal, experimental, refinement or atomic coordinate data resulting 
# from the CCDC's data processing and validation procedures.
#
#######################################################################

data_AFAWOU
_chemical_formula_moiety         'C17 H26 O2'
_chemical_name_systematic        (2\b,5\a,14\b)-2-Hydroxygonan-17-one
_symmetry_cell_setting           monoclinic
_symmetry_space_group_name_H-M   'C 2'
_symmetry_Int_Tables_number      5
_space_group_name_Hall           'C 2y'
loop_
_symmetry_equiv_pos_site_id
_symmetry_equiv_pos_as_xyz
1 x,y,z
2 -x,y,-z
3 1/2+x,1/2+y,z
4 1/2-x,1/2+y,-z
_cell_length_a                   30.6266(18)
_cell_length_b                   11.9808(7)
_cell_length_c                   8.5035(5)
_cell_angle_alpha                90
_cell_angle_beta                 104.996(3)
_cell_angle_gamma                90
_cell_volume                     3013.94
_exptl_crystal_colour            colorless
_exptl_crystal_description       rods
_chemical_melting_point          '123-124 deg.C'
_cell_formula_units_Z            8
loop_
_atom_site_label
_atom_site_type_symbol
_atom_site_fract_x
_atom_site_fract_y
_atom_site_fract_z
O1 O 0.98300(5) 1.02411(14) 0.8393(2)
H1 H 0.9873 1.0656 0.7651
O2 O 0.75040(6) 0.87428(17) 1.3409(2)
C1 C 0.92615(7) 0.89022(19) 0.8637(3)
H2 H 0.9142 0.8150 0.8280
H3 H 0.9418 0.8858 0.9810
C2 C 0.96049(7) 0.9235(2) 0.7688(3)
H4 H 0.9833 0.8626 0.7785
C3 C 0.93804(8) 0.9434(2) 0.5914(3)
H5 H 0.9258 0.8721 0.5393
H6 H 0.9607 0.9713 0.5364
C4 C 0.90004(8) 1.0276(2) 0.5707(3)
H7 H 0.8852 1.0364 0.4533
H8 H 0.9129 1.1008 0.6128
C5 C 0.86464(8) 0.9931(2) 0.6592(3)
H9 H 0.8505 0.9218 0.6099
C6 C 0.82746(8) 1.0808(2) 0.6374(3)
H10 H 0.8408 1.1527 0.6834
H11 H 0.8134 1.0920 0.5199
C7 C 0.79137(8) 1.0455(2) 0.7216(3)
H12 H 0.7752 0.9792 0.6656
H13 H 0.7691 1.1066 0.7129
C8 C 0.81174(7) 1.0179(2) 0.9006(3)
H14 H 0.8254 1.0888 0.9536
C9 C 0.85041(7) 0.93282(19) 0.9269(3)
H15 H 0.8375 0.8609 0.8757
C10 C 0.88642(7) 0.97202(18) 0.8406(3)
H16 H 0.8988 1.0448 0.8905
C11 C 0.86964(7) 0.9121(2) 1.1088(3)
H17 H 0.8829 0.9822 1.1621
H18 H 0.8941 0.8558 1.1249
C12 C 0.83324(7) 0.87086(19) 1.1886(3)
H19 H 0.8468 0.8604 1.3066
H20 H 0.8219 0.7975 1.1417
C13 C 0.79325(8) 0.9530(2) 1.1639(3)
H21 H 0.8019 1.0209 1.2334
C14 C 0.77484(8) 0.98489(19) 0.9844(3)
H22 H 0.7547 1.0511 0.9800
C15 C 0.74459(8) 0.8852(2) 0.9113(3)
H23 H 0.7628 0.8226 0.8864
H24 H 0.7217 0.9071 0.8108
C16 C 0.72197(9) 0.8534(2) 1.0483(3)
H25 H 0.6924 0.8915 1.0321
H26 H 0.7171 0.7717 1.0498
C17 C 0.75459(8) 0.8915(2) 1.2061(3)
O3 O 0.50815(6) 0.69883(14) 0.67267(19)
H27 H 0.5074 0.6828 0.5758
O4 O 0.67697(6) 1.11417(15) 0.0944(2)
C18 C 0.58308(9) 0.76445(19) 0.6676(3)
H28 H 0.5783 0.7255 0.5618
H29 H 0.6154 0.7561 0.7259
C19 C 0.55451(8) 0.7077(2) 0.7666(3)
H30 H 0.5666 0.6308 0.7957
C20 C 0.55636(9) 0.7712(2) 0.9225(3)
H31 H 0.5871 0.7654 0.9962
H32 H 0.5349 0.7373 0.9781
C21 C 0.54442(8) 0.8935(2) 0.8880(3)
H33 H 0.5469 0.9330 0.9922
H34 H 0.5127 0.8993 0.8224
C22 C 0.57528(8) 0.95012(19) 0.7966(3)
H35 H 0.6070 0.9438 0.8657
C23 C 0.56485(8) 1.07366(19) 0.7663(3)
H36 H 0.5673 1.1119 0.8715
H37 H 0.5334 1.0826 0.6989
C24 C 0.59736(8) 1.12740(19) 0.6800(3)
H38 H 0.6285 1.1241 0.7514
H39 H 0.5892 1.2069 0.6580
C25 C 0.59575(7) 1.06779(18) 0.5195(3)
H40 H 0.5643 1.0764 0.4490
C26 C 0.60460(7) 0.94236(18) 0.5430(3)
H41 H 0.6364 0.9323 0.6103
C27 C 0.57280(7) 0.88835(18) 0.6356(3)
H42 H 0.5412 0.8950 0.5658
C28 C 0.60075(8) 0.8876(2) 0.3761(3)
H43 H 0.6068 0.8066 0.3912
H44 H 0.5696 0.8970 0.3070
C29 C 0.63390(8) 0.93886(19) 0.2904(3)
H45 H 0.6298 0.9032 0.1825
H46 H 0.6652 0.9234 0.3550
C30 C 0.62755(8) 1.0656(2) 0.2674(3)
H47 H 0.5996 1.0838 0.1802
C31 C 0.62744(7) 1.12317(18) 0.4288(3)
H48 H 0.6165 1.2013 0.4024
C32 C 0.67787(7) 1.1297(2) 0.5180(3)
H49 H 0.6887 1.0578 0.5712
H50 H 0.6835 1.1894 0.6014
C33 C 0.70117(8) 1.1565(2) 0.3822(3)
H51 H 0.7056 1.2379 0.3746
H52 H 0.7309 1.1191 0.4034
C34 C 0.66977(8) 1.11292(19) 0.2280(3)
loop_
_geom_bond_atom_site_label_1
_geom_bond_atom_site_label_2
_geom_bond_site_symmetry_1
_geom_bond_site_symmetry_2
O1 H1 1_555 1_555
O2 C17 1_555 1_555
C1 H2 1_555 1_555
H3 C1 1_555 1_555
C2 O1 1_555 1_555
H4 C2 1_555 1_555
C3 C2 1_555 1_555
H5 C3 1_555 1_555
H6 C3 1_555 1_555
C4 C3 1_555 1_555
H7 C4 1_555 1_555
H8 C4 1_555 1_555
C5 C4 1_555 1_555
H9 C5 1_555 1_555
C6 C5 1_555 1_555
H10 C6 1_555 1_555
H11 C6 1_555 1_555
C7 C6 1_555 1_555
H12 C7 1_555 1_555
H13 C7 1_555 1_555
C8 C7 1_555 1_555
H14 C8 1_555 1_555
C9 C8 1_555 1_555
H15 C9 1_555 1_555
C10 C1 1_555 1_555
H16 C10 1_555 1_555
C11 C9 1_555 1_555
H17 C11 1_555 1_555
H18 C11 1_555 1_555
C12 C11 1_555 1_555
H19 C12 1_555 1_555
H20 C12 1_555 1_555
C13 C12 1_555 1_555
H21 C13 1_555 1_555
C14 C8 1_555 1_555
H22 C14 1_555 1_555
C15 C14 1_555 1_555
H23 C15 1_555 1_555
H24 C15 1_555 1_555
C16 C15 1_555 1_555
H25 C16 1_555 1_555
H26 C16 1_555 1_555
C17 C13 1_555 1_555
O3 H27 1_555 1_555
O4 C34 1_555 1_555
C18 H28 1_555 1_555
H29 C18 1_555 1_555
C19 O3 1_555 1_555
H30 C19 1_555 1_555
C20 C19 1_555 1_555
H31 C20 1_555 1_555
H32 C20 1_555 1_555
C21 C20 1_555 1_555
H33 C21 1_555 1_555
H34 C21 1_555 1_555
C22 C21 1_555 1_555
H35 C22 1_555 1_555
C23 C22 1_555 1_555
H36 C23 1_555 1_555
H37 C23 1_555 1_555
C24 C23 1_555 1_555
H38 C24 1_555 1_555
H39 C24 1_555 1_555
C25 C24 1_555 1_555
H40 C25 1_555 1_555
C26 C25 1_555 1_555
H41 C26 1_555 1_555
C27 C18 1_555 1_555
H42 C27 1_555 1_555
C28 C26 1_555 1_555
H43 C28 1_555 1_555
H44 C28 1_555 1_555
C29 C28 1_555 1_555
H45 C29 1_555 1_555
H46 C29 1_555 1_555
C30 C29 1_555 1_555
H47 C30 1_555 1_555
C31 C25 1_555 1_555
H48 C31 1_555 1_555
C32 C31 1_555 1_555
H49 C32 1_555 1_555
H50 C32 1_555 1_555
C33 C32 1_555 1_555
H51 C33 1_555 1_555
H52 C33 1_555 1_555
C34 C30 1_555 1_555
C1 C2 1_555 1_555
C5 C10 1_555 1_555
C9 C10 1_555 1_555
C13 C14 1_555 1_555
C16 C17 1_555 1_555
C18 C19 1_555 1_555
C22 C27 1_555 1_555
C26 C27 1_555 1_555
C30 C31 1_555 1_555
C33 C34 1_555 1_555

#END
