
#######################################################################
#
#                 Cambridge Crystallographic Data Centre
#                                CCDC 
#
#######################################################################
#
# If this CIF has been generated from an entry in the Cambridge 
# Structural Database, then it will include bibliographic, chemical, 
# crystal, experimental, refinement or atomic coordinate data resulting 
# from the CCDC's data processing and validation procedures.
#
#######################################################################

data_AFAWIO
_chemical_formula_moiety         'C29 H26 N4 O2 S1'
_chemical_name_systematic        
1-Benzyl-4-phenyl-5-(N-benzyl,N-tosylamino)-1H-1,2,3-triazole
_symmetry_cell_setting           triclinic
_symmetry_space_group_name_H-M   'P -1'
_symmetry_Int_Tables_number      2
_space_group_name_Hall           '-P 1'
loop_
_symmetry_equiv_pos_site_id
_symmetry_equiv_pos_as_xyz
1 x,y,z
2 -x,-y,-z
_cell_length_a                   9.5061(9)
_cell_length_b                   10.0252(13)
_cell_length_c                   13.9231(17)
_cell_angle_alpha                77.057(6)
_cell_angle_beta                 70.887(7)
_cell_angle_gamma                89.507(7)
_cell_volume                     1218.86
_exptl_crystal_colour            colorless
_exptl_crystal_description       irregular
_chemical_melting_point          '178 deg.C'
_cell_formula_units_Z            2
loop_
_atom_site_label
_atom_site_type_symbol
_atom_site_fract_x
_atom_site_fract_y
_atom_site_fract_z
S1 S -0.04159(6) 0.54243(5) 0.25792(4)
O1 O 0.05444(16) 0.45776(15) 0.30197(12)
O2 O -0.10019(16) 0.50165(15) 0.18539(12)
N1 N 0.30195(19) 0.67706(18) 0.21254(13)
N2 N 0.3880(2) 0.7312(2) 0.25523(14)
N3 N 0.3125(2) 0.82313(19) 0.30164(14)
N4 N 0.05825(19) 0.69012(17) 0.19490(13)
C1 C 0.1745(2) 0.8268(2) 0.29017(15)
C2 C 0.1666(2) 0.7317(2) 0.23338(15)
C3 C 0.0013(2) 0.7957(2) 0.12497(16)
H1 H -0.0345 0.8699 0.1589
H2 H -0.0822 0.7548 0.1135
C4 C 0.1204(2) 0.8526(2) 0.02129(16)
C5 C 0.1471(2) 0.7870(2) -0.06080(16)
H3 H 0.0932 0.7052 -0.0508
C6 C 0.2533(3) 0.8430(3) -0.15695(17)
H4 H 0.2695 0.7995 -0.2117
C7 C 0.3360(2) 0.9642(3) -0.17191(18)
H5 H 0.4077 1.0016 -0.2364
C8 C 0.3114(3) 1.0286(2) -0.09087(18)
H6 H 0.3673 1.1092 -0.1006
C9 C 0.2038(3) 0.9738(2) 0.00507(18)
H7 H 0.1872 1.0185 0.0591
C10 C -0.1911(2) 0.5772(2) 0.36136(16)
C11 C -0.3144(2) 0.6405(2) 0.34329(17)
H8 H -0.3255 0.6545 0.2779
C12 C -0.4195(2) 0.6820(2) 0.42420(17)
H9 H -0.5019 0.7243 0.4126
C13 C -0.4051(2) 0.6619(2) 0.52310(17)
C14 C -0.2837(3) 0.5935(2) 0.53987(17)
H10 H -0.2744 0.5762 0.6059
C15 C -0.1774(2) 0.5512(2) 0.46034(17)
H11 H -0.0971 0.5057 0.4726
C16 C -0.5167(3) 0.7128(3) 0.60951(19)
H12 H -0.5981 0.6446 0.6462
H13 H -0.5537 0.7960 0.5803
H14 H -0.4694 0.7302 0.6572
C17 C 0.3603(2) 0.5744(2) 0.15183(16)
H15 H 0.2894 0.5539 0.1195
H16 H 0.3716 0.4904 0.1984
C18 C 0.5089(2) 0.6242(2) 0.06815(16)
C19 C 0.5149(2) 0.7288(2) -0.01829(17)
H17 H 0.4281 0.7694 -0.0224
C20 C 0.6488(3) 0.7728(2) -0.09793(17)
H18 H 0.6518 0.8430 -0.1551
C21 C 0.7795(2) 0.7121(2) -0.09263(17)
H19 H 0.8696 0.7407 -0.1465
C22 C 0.7738(2) 0.6090(2) -0.00657(17)
H20 H 0.8607 0.5688 -0.0024
C23 C 0.6397(2) 0.5649(2) 0.07351(17)
H21 H 0.6372 0.4955 0.1310
C24 C 0.0723(2) 0.9279(2) 0.33172(15)
C25 C -0.0812(2) 0.9152(2) 0.35109(16)
H22 H -0.1230 0.8404 0.3382
C26 C -0.1718(3) 1.0138(2) 0.38955(17)
H23 H -0.2739 1.0045 0.4023
C27 C -0.1116(3) 1.1260(2) 0.40912(17)
H24 H -0.1727 1.1922 0.4343
C28 C 0.0410(3) 1.1388(2) 0.39088(17)
H25 H 0.0822 1.2137 0.4040
C29 C 0.1314(3) 1.0406(2) 0.35325(16)
H26 H 0.2332 1.0495 0.3421
loop_
_geom_bond_atom_site_label_1
_geom_bond_atom_site_label_2
_geom_bond_site_symmetry_1
_geom_bond_site_symmetry_2
S1 O1 1_555 1_555
O2 S1 1_555 1_555
N1 N2 1_555 1_555
N2 N3 1_555 1_555
N3 C1 1_555 1_555
N4 S1 1_555 1_555
C1 C2 1_555 1_555
C2 N1 1_555 1_555
C3 N4 1_555 1_555
H1 C3 1_555 1_555
H2 C3 1_555 1_555
C4 C3 1_555 1_555
C5 C4 1_555 1_555
H3 C5 1_555 1_555
C6 C5 1_555 1_555
H4 C6 1_555 1_555
C7 C6 1_555 1_555
H5 C7 1_555 1_555
C8 C7 1_555 1_555
H6 C8 1_555 1_555
C9 C4 1_555 1_555
H7 C9 1_555 1_555
C10 S1 1_555 1_555
C11 C10 1_555 1_555
H8 C11 1_555 1_555
C12 C11 1_555 1_555
H9 C12 1_555 1_555
C13 C12 1_555 1_555
C14 C13 1_555 1_555
H10 C14 1_555 1_555
C15 C10 1_555 1_555
H11 C15 1_555 1_555
C16 C13 1_555 1_555
H12 C16 1_555 1_555
H13 C16 1_555 1_555
H14 C16 1_555 1_555
C17 N1 1_555 1_555
H15 C17 1_555 1_555
H16 C17 1_555 1_555
C18 C17 1_555 1_555
C19 C18 1_555 1_555
H17 C19 1_555 1_555
C20 C19 1_555 1_555
H18 C20 1_555 1_555
C21 C20 1_555 1_555
H19 C21 1_555 1_555
C22 C21 1_555 1_555
H20 C22 1_555 1_555
C23 C18 1_555 1_555
H21 C23 1_555 1_555
C24 C1 1_555 1_555
C25 C24 1_555 1_555
H22 C25 1_555 1_555
C26 C25 1_555 1_555
H23 C26 1_555 1_555
C27 C26 1_555 1_555
H24 C27 1_555 1_555
C28 C27 1_555 1_555
H25 C28 1_555 1_555
C29 C24 1_555 1_555
H26 C29 1_555 1_555
N4 C2 1_555 1_555
C8 C9 1_555 1_555
C14 C15 1_555 1_555
C22 C23 1_555 1_555
C28 C29 1_555 1_555

#END
