
#######################################################################
#
#                 Cambridge Crystallographic Data Centre
#                                CCDC 
#
#######################################################################
#
# If this CIF has been generated from an entry in the Cambridge 
# Structural Database, then it will include bibliographic, chemical, 
# crystal, experimental, refinement or atomic coordinate data resulting 
# from the CCDC's data processing and validation procedures.
#
#######################################################################

data_AFAXOV
_chemical_formula_moiety         'C17 H31 N3 O5'
_chemical_name_systematic        'N-Pivaloylalanyl-valyl-alanine methyl ester'
_symmetry_cell_setting           triclinic
_symmetry_space_group_name_H-M   'P 1'
_symmetry_Int_Tables_number      1
_space_group_name_Hall           'P 1'
loop_
_symmetry_equiv_pos_site_id
_symmetry_equiv_pos_as_xyz
1 x,y,z
_cell_length_a                   9.508(13)
_cell_length_b                   9.842(13)
_cell_length_c                   12.404(15)
_cell_angle_alpha                75.923(10)
_cell_angle_beta                 74.725(10)
_cell_angle_gamma                72.356(10)
_cell_volume                     1050.07
_exptl_crystal_colour            white
_exptl_crystal_description       needle
_cell_formula_units_Z            2
_exptl_crystal_recrystallization_method methanol/water
loop_
_atom_site_label
_atom_site_type_symbol
_atom_site_fract_x
_atom_site_fract_y
_atom_site_fract_z
C1 C 0.3897(5) 0.4130(4) 0.4969(3)
O1 O 0.4127(3) 0.2792(3) 0.5122(2)
C2 C 0.2282(5) 0.5148(4) 0.5183(4)
C3 C 0.2045(6) 0.5483(6) 0.6329(5)
H1 H 0.2427 0.4617 0.6833
H2 H 0.0987 0.5854 0.6610
H3 H 0.2569 0.6195 0.6287
C4 C 0.2192(5) 0.6529(5) 0.4335(4)
H4 H 0.1167 0.7104 0.4424
H5 H 0.2533 0.6311 0.3581
H6 H 0.2818 0.7059 0.4456
C5 C 0.1206(6) 0.4408(6) 0.5069(5)
H7 H 0.1371 0.4309 0.4292
H8 H 0.0195 0.4968 0.5301
H9 H 0.1353 0.3466 0.5540
N1 N 0.5063(4) 0.4714(3) 0.4621(3)
H10 H 0.4893 0.5642 0.4500
C6 C 0.6642(5) 0.3834(4) 0.4433(4)
H11 H 0.6673 0.2903 0.4261
C7 C 0.7283(5) 0.3564(5) 0.5475(4)
H12 H 0.6765 0.2966 0.6083
H13 H 0.7157 0.4471 0.5694
H14 H 0.8337 0.3082 0.5313
C8 C 0.7604(5) 0.4603(5) 0.3453(4)
O2 O 0.7481(3) 0.5923(3) 0.3326(2)
N2 N 0.8550(3) 0.3766(3) 0.2736(3)
H15 H 0.8522 0.2878 0.2837
C9 C 0.9647(4) 0.4310(4) 0.1774(3)
H16 H 0.9757 0.5211 0.1908
C10 C 0.9038(6) 0.4656(6) 0.0619(4)
H17 H 0.8058 0.5368 0.0716
C11 C 1.1143(5) 0.3191(4) 0.1756(3)
C12 C 1.0109(8) 0.5329(9) -0.0354(6)
H18 H 0.9646 0.5717 -0.1002
H19 H 1.1025 0.4603 -0.0547
H20 H 1.0335 0.6093 -0.0129
C13 C 0.8839(9) 0.3458(9) 0.0363(7)
H21 H 0.8130 0.3066 0.0971
H22 H 0.9787 0.2742 0.0264
H23 H 0.8463 0.3725 -0.0326
O3 O 1.1215(3) 0.1870(3) 0.1926(2)
N3 N 1.2359(4) 0.3707(3) 0.1537(3)
H24 H 1.2241 0.4626 0.1451
C14 C 1.3876(5) 0.2751(4) 0.1441(4)
H25 H 1.3771 0.1757 0.1693
C15 C 1.4717(6) 0.2983(6) 0.2181(5)
H26 H 1.4789 0.3968 0.1989
H27 H 1.5711 0.2342 0.2083
H28 H 1.4203 0.2791 0.2958
C16 C 1.4734(6) 0.2855(6) 0.0260(5)
O4 O 1.4156(5) 0.3874(5) -0.0455(4)
C17 C 1.4988(9) 0.4024(8) -0.1658(6)
H29 H 1.4310 0.4620 -0.2141
H30 H 1.5399 0.3084 -0.1869
H31 H 1.5792 0.4466 -0.1741
O5 O 1.5907(6) 0.1968(6) -0.0045(4)
C18 C 1.1747(5) 0.7995(5) 0.1351(4)
O6 O 1.1624(3) 0.6812(3) 0.1304(2)
C19 C 1.3220(5) 0.8473(4) 0.0718(4)
C20 C 1.2861(6) 0.9888(5) -0.0075(4)
H32 H 1.3759 1.0220 -0.0392
H33 H 1.2116 1.0591 0.0334
H34 H 1.2476 0.9759 -0.0675
C21 C 1.4215(7) 0.7319(6) -0.0013(6)
H35 H 1.5065 0.7650 -0.0489
H36 H 1.3632 0.7169 -0.0478
H37 H 1.4563 0.6424 0.0476
C22 C 1.3952(6) 0.8662(5) 0.1572(5)
H38 H 1.3242 0.9316 0.2042
H39 H 1.4802 0.9050 0.1191
H40 H 1.4284 0.7741 0.2037
N4 N 1.0615(3) 0.8947(3) 0.1879(2)
H41 H 1.0740 0.9750 0.1946
C23 C 0.8195(5) 0.8983(5) 0.1442(4)
H42 H 0.8710 0.8424 0.0851
H43 H 0.8042 0.9996 0.1125
H44 H 0.7237 0.8770 0.1780
C24 C 0.9144(4) 0.8597(4) 0.2345(3)
H45 H 0.9329 0.7552 0.2630
C25 C 0.8268(4) 0.9368(4) 0.3316(3)
C26 C 0.5867(6) 0.9840(5) 0.6989(4)
H46 H 0.5054 0.9401 0.7376
H47 H 0.5468 1.0811 0.6625
H48 H 0.6421 0.9861 0.7527
C27 C 0.7282(7) 0.7369(5) 0.6579(5)
H49 H 0.8022 0.6841 0.6033
H50 H 0.6381 0.7038 0.6769
H51 H 0.7672 0.7214 0.7250
N5 N 0.7317(4) 0.8734(3) 0.4078(3)
H52 H 0.7327 0.7878 0.4020
C28 C 0.6928(5) 0.8949(4) 0.6085(4)
H53 H 0.7878 0.9240 0.5868
C29 C 0.6243(5) 0.9356(4) 0.5017(4)
H54 H 0.6035 1.0412 0.4790
C30 C 0.4788(5) 0.8967(5) 0.5213(3)
O7 O 0.4781(3) 0.7731(3) 0.5170(3)
N6 N 0.3528(4) 1.0004(3) 0.5459(3)
H55 H 0.3607 1.0847 0.5471
C31 C 0.2007(5) 0.9764(4) 0.5709(4)
H56 H 0.2129 0.8717 0.5831
C32 C 0.1212(5) 1.0418(5) 0.4791(4)
H57 H 0.1796 1.0051 0.4116
H58 H 0.1057 1.1450 0.4657
H59 H 0.0254 1.0188 0.4990
C33 C 0.1174(7) 1.0260(6) 0.6810(5)
O8 O 0.1507(6) 1.1067(5) 0.7235(4)
C34 C -0.0943(11) 1.0582(12) 0.8183(8)
H60 H -0.0713 1.1477 0.8152
H61 H -0.0669 0.9908 0.8843
H62 H -0.2004 1.0757 0.8224
O9 O -0.0114(6) 0.9992(6) 0.7184(4)
O10 O 0.8378(3) 1.0607(3) 0.3354(2)
loop_
_geom_bond_atom_site_label_1
_geom_bond_atom_site_label_2
_geom_bond_site_symmetry_1
_geom_bond_site_symmetry_2
C1 O1 1_555 1_555
C2 C1 1_555 1_555
C3 C2 1_555 1_555
H1 C3 1_555 1_555
H2 C3 1_555 1_555
H3 C3 1_555 1_555
C4 C2 1_555 1_555
H4 C4 1_555 1_555
H5 C4 1_555 1_555
H6 C4 1_555 1_555
C5 C2 1_555 1_555
H7 C5 1_555 1_555
H8 C5 1_555 1_555
H9 C5 1_555 1_555
N1 C1 1_555 1_555
H10 N1 1_555 1_555
C6 N1 1_555 1_555
H11 C6 1_555 1_555
C7 C6 1_555 1_555
H12 C7 1_555 1_555
H13 C7 1_555 1_555
H14 C7 1_555 1_555
C8 C6 1_555 1_555
O2 C8 1_555 1_555
N2 C8 1_555 1_555
H15 N2 1_555 1_555
C9 N2 1_555 1_555
H16 C9 1_555 1_555
C10 C9 1_555 1_555
H17 C10 1_555 1_555
C11 C9 1_555 1_555
C12 C10 1_555 1_555
H18 C12 1_555 1_555
H19 C12 1_555 1_555
H20 C12 1_555 1_555
C13 C10 1_555 1_555
H21 C13 1_555 1_555
H22 C13 1_555 1_555
H23 C13 1_555 1_555
O3 C11 1_555 1_555
N3 C11 1_555 1_555
H24 N3 1_555 1_555
C14 N3 1_555 1_555
H25 C14 1_555 1_555
C15 C14 1_555 1_555
H26 C15 1_555 1_555
H27 C15 1_555 1_555
H28 C15 1_555 1_555
C16 C14 1_555 1_555
O4 C16 1_555 1_555
C17 O4 1_555 1_555
H29 C17 1_555 1_555
H30 C17 1_555 1_555
H31 C17 1_555 1_555
O5 C16 1_555 1_555
C18 O6 1_555 1_555
C19 C18 1_555 1_555
C20 C19 1_555 1_555
H32 C20 1_555 1_555
H33 C20 1_555 1_555
H34 C20 1_555 1_555
C21 C19 1_555 1_555
H35 C21 1_555 1_555
H36 C21 1_555 1_555
H37 C21 1_555 1_555
C22 C19 1_555 1_555
H38 C22 1_555 1_555
H39 C22 1_555 1_555
H40 C22 1_555 1_555
N4 C18 1_555 1_555
H41 N4 1_555 1_555
C23 H42 1_555 1_555
H43 C23 1_555 1_555
H44 C23 1_555 1_555
C24 N4 1_555 1_555
H45 C24 1_555 1_555
C25 C24 1_555 1_555
C26 H46 1_555 1_555
H47 C26 1_555 1_555
H48 C26 1_555 1_555
C27 H49 1_555 1_555
H50 C27 1_555 1_555
H51 C27 1_555 1_555
N5 C25 1_555 1_555
H52 N5 1_555 1_555
C28 C26 1_555 1_555
H53 C28 1_555 1_555
C29 N5 1_555 1_555
H54 C29 1_555 1_555
C30 C29 1_555 1_555
O7 C30 1_555 1_555
N6 C30 1_555 1_555
H55 N6 1_555 1_555
C31 N6 1_555 1_555
H56 C31 1_555 1_555
C32 C31 1_555 1_555
H57 C32 1_555 1_555
H58 C32 1_555 1_555
H59 C32 1_555 1_555
C33 C31 1_555 1_555
O8 C33 1_555 1_555
C34 H60 1_555 1_555
H61 C34 1_555 1_555
H62 C34 1_555 1_555
O9 C33 1_555 1_555
O10 C25 1_555 1_555
C23 C24 1_555 1_555
C27 C28 1_555 1_555
C28 C29 1_555 1_555
C34 O9 1_555 1_555

#END
