
#######################################################################
#
#                 Cambridge Crystallographic Data Centre
#                                CCDC 
#
#######################################################################
#
# If this CIF has been generated from an entry in the Cambridge 
# Structural Database, then it will include bibliographic, chemical, 
# crystal, experimental, refinement or atomic coordinate data resulting 
# from the CCDC's data processing and validation procedures.
#
#######################################################################

data_AFAYAK
_chemical_formula_moiety         'C39 H43 N2 1+,C1 H1 Cl3,Cl1 1-'
_chemical_name_systematic        
'1,3-bis[8-(3,5-dimethylphenyl)-1,2,3,4-tetrahydronaphthalen-1-yl]-4,5-dihydro-1H-imidazol-3-ium chloride chloroform solvate'
_symmetry_cell_setting           orthorhombic
_symmetry_space_group_name_H-M   'P 21 21 21'
_symmetry_Int_Tables_number      19
_space_group_name_Hall           'P 2ac 2ab'
loop_
_symmetry_equiv_pos_site_id
_symmetry_equiv_pos_as_xyz
1 x,y,z
2 1/2-x,-y,1/2+z
3 -x,1/2+y,1/2-z
4 1/2+x,1/2-y,-z
_cell_length_a                   11.4615(3)
_cell_length_b                   15.3825(4)
_cell_length_c                   20.8998(5)
_cell_angle_alpha                90
_cell_angle_beta                 90
_cell_angle_gamma                90
_cell_volume                     3684.77
_exptl_crystal_colour            colorless
_exptl_crystal_description       prismatic
_cell_formula_units_Z            4
loop_
_atom_site_label
_atom_site_type_symbol
_atom_site_fract_x
_atom_site_fract_y
_atom_site_fract_z
Cl1 Cl 0.59017(10) 0.71457(7) 0.19058(6)
Cl2 Cl 0.6784(2) 0.63424(19) 0.00228(12)
Cl3 Cl 0.4298(2) 0.64896(17) 0.00824(12)
Cl4 Cl 0.5700(3) 0.80331(12) 0.01032(11)
C1 C 0.5607(6) 0.6963(4) 0.0336(3)
H1 H 0.5639 0.6937 0.0814
N1 N 0.5952(3) 0.4406(2) 0.20378(14)
N2 N 0.5731(3) 0.5003(2) 0.29809(13)
C2 C 0.5852(3) 0.5125(2) 0.23622(16)
H2 H 0.5865 0.5685 0.2170
C3 C 0.5808(4) 0.4067(3) 0.31296(18)
H3 H 0.5120 0.3868 0.3376
H4 H 0.6526 0.3932 0.3374
C4 C 0.5838(4) 0.3654(3) 0.24653(19)
H5 H 0.6512 0.3256 0.2420
H6 H 0.5110 0.3328 0.2377
C5 C 0.6050(3) 0.4357(3) 0.13375(17)
H7 H 0.6352 0.4926 0.1177
C6 C 0.4835(4) 0.4213(4) 0.1057(2)
H8 H 0.4403 0.3797 0.1331
H9 H 0.4404 0.4770 0.1059
C7 C 0.4883(5) 0.3866(4) 0.0383(3)
H10 H 0.4085 0.3821 0.0206
H11 H 0.5339 0.4266 0.0109
C8 C 0.5448(4) 0.2985(3) 0.0392(2)
H12 H 0.5577 0.2791 -0.0054
H13 H 0.4911 0.2566 0.0598
C9 C 0.6606(4) 0.2977(3) 0.07464(18)
C10 C 0.7360(4) 0.2280(3) 0.06528(19)
H14 H 0.7142 0.1821 0.0373
C11 C 0.8416(4) 0.2250(3) 0.09616(19)
H15 H 0.8907 0.1757 0.0911
C12 C 0.8769(4) 0.2930(3) 0.13441(19)
H16 H 0.9515 0.2913 0.1541
C13 C 0.8042(3) 0.3643(3) 0.14451(17)
C14 C 0.6927(3) 0.3652(2) 0.11606(16)
C15 C 0.8501(3) 0.4383(3) 0.18392(18)
C16 C 0.8917(4) 0.4225(4) 0.2454(2)
H17 H 0.8875 0.3656 0.2630
C17 C 0.9398(4) 0.4905(5) 0.2813(2)
C18 C 0.9451(4) 0.5734(5) 0.2548(3)
H18 H 0.9773 0.6194 0.2794
C19 C 0.9052(4) 0.5908(4) 0.1940(3)
C20 C 0.8579(4) 0.5221(3) 0.1589(2)
H19 H 0.8301 0.5328 0.1168
C21 C 0.9863(5) 0.4691(7) 0.3479(3)
H20 H 0.9952 0.5228 0.3725
H21 H 1.0621 0.4402 0.3440
H22 H 0.9313 0.4304 0.3698
C22 C 0.9119(6) 0.6793(4) 0.1663(4)
H23 H 0.8341 0.7056 0.1663
H24 H 0.9411 0.6757 0.1223
H25 H 0.9650 0.7150 0.1920
C23 C 0.5634(4) 0.5729(3) 0.34353(17)
C24 C 0.6734(7) 0.6176(6) 0.3662(4)
H26 H 0.6557 0.6782 0.3790
H27 H 0.7316 0.6192 0.3312
C25 C 0.7221(6) 0.5676(6) 0.4228(3)
H28 H 0.8002 0.5902 0.4344
H29 H 0.7298 0.5052 0.4119
C26 C 0.6372(4) 0.5789(4) 0.4795(2)
C27 C 0.5146(3) 0.5521(2) 0.46099(17)
C28 C 0.4366(4) 0.5299(3) 0.50945(17)
H30 H 0.4606 0.5337 0.5529
C29 C 0.3253(4) 0.5025(3) 0.49532(18)
H31 H 0.2733 0.4866 0.5287
C30 C 0.2896(3) 0.4983(3) 0.43204(17)
H32 H 0.2132 0.4784 0.4223
C31 C 0.3638(3) 0.5228(2) 0.38280(17)
C32 C 0.4785(3) 0.5493(2) 0.39699(16)
C33 C 0.3184(3) 0.5191(3) 0.31535(16)
C34 C 0.3067(3) 0.5944(3) 0.27893(18)
H33 H 0.3298 0.6486 0.2966
C35 C 0.2615(3) 0.5916(3) 0.21665(19)
C36 C 0.2290(3) 0.5108(3) 0.19259(18)
H34 H 0.1984 0.5078 0.1504
C37 C 0.2393(3) 0.4344(3) 0.22730(19)
C38 C 0.2845(3) 0.4395(3) 0.29010(18)
H35 H 0.2916 0.3883 0.3152
C39 C 0.2524(5) 0.6732(4) 0.1774(2)
H36 H 0.3299 0.6894 0.1616
H37 H 0.2213 0.7203 0.2040
H38 H 0.2001 0.6631 0.1410
C40 C 0.2015(4) 0.3483(3) 0.2006(2)
H39 H 0.1242 0.3334 0.2174
H40 H 0.2576 0.3033 0.2131
H41 H 0.1979 0.3519 0.1538
H42 H 0.678(4) 0.535(3) 0.501(2)
H43 H 0.643(6) 0.631(3) 0.503(3)
H44 H 0.530(4) 0.617(3) 0.320(2)
C41? C 0.6973(10) 0.5739(9) 0.3681(6)
H45? H 0.7229 0.5142 0.3790
H46? H 0.7491 0.5969 0.3342
C42? C 0.7027(9) 0.6318(8) 0.4269(5)
H47? H 0.6635 0.6881 0.4189
H48? H 0.7845 0.6429 0.4397
loop_
_geom_bond_atom_site_label_1
_geom_bond_atom_site_label_2
_geom_bond_site_symmetry_1
_geom_bond_site_symmetry_2
Cl2 C1 1_555 1_555
Cl3 C1 1_555 1_555
Cl4 C1 1_555 1_555
C1 H1 1_555 1_555
N1 C2 1_555 1_555
N2 C2 1_555 1_555
C2 H2 1_555 1_555
C3 N2 1_555 1_555
H3 C3 1_555 1_555
H4 C3 1_555 1_555
C4 N1 1_555 1_555
H5 C4 1_555 1_555
H6 C4 1_555 1_555
C5 N1 1_555 1_555
H7 C5 1_555 1_555
C6 C5 1_555 1_555
H8 C6 1_555 1_555
H9 C6 1_555 1_555
C7 C6 1_555 1_555
H10 C7 1_555 1_555
H11 C7 1_555 1_555
C8 C7 1_555 1_555
H12 C8 1_555 1_555
H13 C8 1_555 1_555
C9 C8 1_555 1_555
C10 C9 1_555 1_555
H14 C10 1_555 1_555
C11 C10 1_555 1_555
H15 C11 1_555 1_555
C12 C11 1_555 1_555
H16 C12 1_555 1_555
C13 C12 1_555 1_555
C14 C5 1_555 1_555
C15 C13 1_555 1_555
C16 C15 1_555 1_555
H17 C16 1_555 1_555
C17 C16 1_555 1_555
C18 C17 1_555 1_555
H18 C18 1_555 1_555
C19 C18 1_555 1_555
C20 C15 1_555 1_555
H19 C20 1_555 1_555
C21 C17 1_555 1_555
H20 C21 1_555 1_555
H21 C21 1_555 1_555
H22 C21 1_555 1_555
C22 C19 1_555 1_555
H23 C22 1_555 1_555
H24 C22 1_555 1_555
H25 C22 1_555 1_555
C23 N2 1_555 1_555
C24 C23 1_555 1_555
H26 C24 1_555 1_555
H27 C24 1_555 1_555
C25 C24 1_555 1_555
H28 C25 1_555 1_555
H29 C25 1_555 1_555
C26 C25 1_555 1_555
C27 C26 1_555 1_555
C28 C27 1_555 1_555
H30 C28 1_555 1_555
C29 C28 1_555 1_555
H31 C29 1_555 1_555
C30 C29 1_555 1_555
H32 C30 1_555 1_555
C31 C30 1_555 1_555
C32 C23 1_555 1_555
C33 C31 1_555 1_555
C34 C33 1_555 1_555
H33 C34 1_555 1_555
C35 C34 1_555 1_555
C36 C35 1_555 1_555
H34 C36 1_555 1_555
C37 C36 1_555 1_555
C38 C33 1_555 1_555
H35 C38 1_555 1_555
C39 C35 1_555 1_555
H36 C39 1_555 1_555
H37 C39 1_555 1_555
H38 C39 1_555 1_555
C40 C37 1_555 1_555
H39 C40 1_555 1_555
H40 C40 1_555 1_555
H41 C40 1_555 1_555
H42 C26 1_555 1_555
H43 C26 1_555 1_555
H44 C23 1_555 1_555
C3 C4 1_555 1_555
C9 C14 1_555 1_555
C13 C14 1_555 1_555
C19 C20 1_555 1_555
C27 C32 1_555 1_555
C31 C32 1_555 1_555
C37 C38 1_555 1_555

#END
