
#######################################################################
#
#                 Cambridge Crystallographic Data Centre
#                                CCDC 
#
#######################################################################
#
# If this CIF has been generated from an entry in the Cambridge 
# Structural Database, then it will include bibliographic, chemical, 
# crystal, experimental, refinement or atomic coordinate data resulting 
# from the CCDC's data processing and validation procedures.
#
#######################################################################

data_AFAYOV
_chemical_name_common            'S-(4-Nitrophenyl)thioglycolic acid'
_chemical_formula_moiety         'C8 H7 N1 O4 S1'
_chemical_name_systematic        '((4-Nitrophenyl)sulfanyl)acetic acid'
_symmetry_cell_setting           triclinic
_symmetry_space_group_name_H-M   'P -1'
_symmetry_Int_Tables_number      2
_space_group_name_Hall           '-P 1'
loop_
_symmetry_equiv_pos_site_id
_symmetry_equiv_pos_as_xyz
1 x,y,z
2 -x,-y,-z
_cell_length_a                   7.1540(3)
_cell_length_b                   7.8750(2)
_cell_length_c                   8.0352(3)
_cell_angle_alpha                73.8820(16)
_cell_angle_beta                 85.7214(13)
_cell_angle_gamma                80.9841(15)
_cell_volume                     429.287
_exptl_crystal_colour            yellow
_exptl_crystal_description       block
_cell_formula_units_Z            2
_exptl_crystal_recrystallization_method ethanol
loop_
_atom_site_label
_atom_site_type_symbol
_atom_site_fract_x
_atom_site_fract_y
_atom_site_fract_z
N1 N 0.13044(18) 1.73074(17) -0.28790(16)
O1 O 0.03559(18) 1.76769(16) -0.41747(15)
O2 O 0.19580(17) 1.84244(15) -0.23817(15)
C1 C 0.16934(19) 1.54351(19) -0.18877(18)
C2 C 0.1146(2) 1.4153(2) -0.25550(18)
C3 C 0.15042(19) 1.23875(19) -0.16335(18)
C4 C 0.23779(19) 1.19053(19) -0.00328(18)
C5 C 0.2920(2) 1.3224(2) 0.06133(18)
C6 C 0.25774(19) 1.5002(2) -0.03215(18)
S1 S 0.26817(5) 0.96108(5) 0.09835(4)
C7 C 0.3844(2) 0.9426(2) 0.29483(19)
C8 C 0.4329(2) 0.7472(2) 0.38365(18)
O3 O 0.38774(15) 0.62904(14) 0.33039(14)
O4 O 0.52844(16) 0.71778(14) 0.52481(13)
H1 H 0.0533 1.4487 -0.3630
H2 H 0.1158 1.1490 -0.2085
H3 H 0.3522 1.2901 0.1693
H4 H 0.2944 1.5907 0.0106
H5 H 0.5009 0.9997 0.2678
H6 H 0.2996 1.0026 0.3708
H7 H 0.5523 0.6073 0.5702
loop_
_geom_bond_atom_site_label_1
_geom_bond_atom_site_label_2
_geom_bond_site_symmetry_1
_geom_bond_site_symmetry_2
N1 O1 1_555 1_555
O2 N1 1_555 1_555
C1 N1 1_555 1_555
C2 C1 1_555 1_555
C3 C2 1_555 1_555
C4 C3 1_555 1_555
C5 C4 1_555 1_555
C6 C1 1_555 1_555
S1 C4 1_555 1_555
C7 S1 1_555 1_555
C8 C7 1_555 1_555
O3 C8 1_555 1_555
O4 C8 1_555 1_555
H1 C2 1_555 1_555
H2 C3 1_555 1_555
H3 C5 1_555 1_555
H4 C6 1_555 1_555
H5 C7 1_555 1_555
H6 C7 1_555 1_555
H7 O4 1_555 1_555
C5 C6 1_555 1_555

#END
