
#######################################################################
#
#                 Cambridge Crystallographic Data Centre
#                                CCDC 
#
#######################################################################
#
# If this CIF has been generated from an entry in the Cambridge 
# Structural Database, then it will include bibliographic, chemical, 
# crystal, experimental, refinement or atomic coordinate data resulting 
# from the CCDC's data processing and validation procedures.
#
#######################################################################

data_AFAZIT
_chemical_formula_moiety         'C24 H11 Cl6 N2'
_chemical_name_systematic        
'9-[bis(2,4,6-trichlorophenyl)methyl]-9H-\b-carboline radical'
_symmetry_cell_setting           monoclinic
_symmetry_space_group_name_H-M   'P 21/c'
_symmetry_Int_Tables_number      14
_space_group_name_Hall           '-P 2ybc'
loop_
_symmetry_equiv_pos_site_id
_symmetry_equiv_pos_as_xyz
1 x,y,z
2 -x,1/2+y,1/2-z
3 -x,-y,-z
4 x,1/2-y,1/2+z
_cell_length_a                   16.6879(5)
_cell_length_b                   8.2499(2)
_cell_length_c                   17.2222(5)
_cell_angle_alpha                90
_cell_angle_beta                 107.7570(10)
_cell_angle_gamma                90
_cell_volume                     2258.08
_exptl_crystal_colour            colorless
_exptl_crystal_description       block
_cell_formula_units_Z            4
loop_
_atom_site_label
_atom_site_type_symbol
_atom_site_fract_x
_atom_site_fract_y
_atom_site_fract_z
Cl1 Cl 0.30351(7) 0.89322(12) 0.24686(5)
Cl2 Cl 0.20483(6) 0.28209(10) 0.36841(7)
Cl3 Cl 0.11023(6) 0.91669(10) 0.33933(7)
Cl4 Cl 0.27079(7) 0.64871(13) 0.53014(6)
Cl5 Cl 0.43713(7) 1.19981(12) 0.52870(7)
Cl6 Cl -0.09154(7) 0.46117(16) 0.39563(10)
C1 C 0.3049(2) 0.7933(4) 0.4743(2)
C2 C 0.28826(18) 0.7744(3) 0.38986(19)
C3 C 0.32266(19) 0.8950(4) 0.35133(19)
C4 C 0.3510(2) 0.9211(4) 0.5175(2)
H1 H 0.3612 0.9293 0.5736
C5 C 0.3817(2) 1.0360(4) 0.4761(2)
C6 C 0.3689(2) 1.0244(4) 0.3934(2)
H2 H 0.3908 1.1019 0.3663
C7 C 0.23640(19) 0.6431(3) 0.34434(18)
C8 C 0.15579(19) 0.5981(3) 0.35403(18)
C9 C 0.0942(2) 0.7137(4) 0.3559(2)
C10 C 0.0577(2) 0.3936(4) 0.3737(2)
H3 H 0.0451 0.2851 0.3788
C11 C 0.1331(2) 0.4366(4) 0.3632(2)
C12 C 0.0189(2) 0.6737(4) 0.3680(2)
H4 H -0.0194 0.7540 0.3702
C13 C 0.0011(2) 0.5128(5) 0.3768(2)
N1 N 0.26540(16) 0.5554(3) 0.28969(16)
C14 C 0.3494(3) 0.3977(4) 0.2369(3)
C15 C 0.3473(2) 0.4923(4) 0.3041(2)
C16 C 0.2672(3) 0.4057(4) 0.1788(2)
C17 C 0.2168(2) 0.5053(4) 0.2118(2)
C18 C 0.4173(2) 0.5058(5) 0.3722(3)
H5 H 0.4139 0.5656 0.4168
C19 C 0.1358(3) 0.5479(5) 0.1679(2)
H6 H 0.1043 0.6150 0.1908
N2 N 0.4916(2) 0.4324(5) 0.3746(3)
C20 C 0.1027(3) 0.4909(6) 0.0911(3)
H7 H 0.0481 0.5184 0.0607
C21 C 0.4255(4) 0.3201(5) 0.2405(4)
H8 H 0.4295 0.2554 0.1976
C22 C 0.1497(5) 0.3935(8) 0.0591(3)
H9 H 0.1257 0.3562 0.0061
C23 C 0.4935(4) 0.3417(7) 0.3083(5)
H10 H 0.5440 0.2922 0.3095
C24 C 0.2310(4) 0.3458(7) 0.1001(3)
H11 H 0.2605 0.2764 0.0761
loop_
_geom_bond_atom_site_label_1
_geom_bond_atom_site_label_2
_geom_bond_site_symmetry_1
_geom_bond_site_symmetry_2
Cl1 C3 1_555 1_555
Cl2 C11 1_555 1_555
Cl3 C9 1_555 1_555
Cl4 C1 1_555 1_555
Cl5 C5 1_555 1_555
Cl6 C13 1_555 1_555
C1 C2 1_555 1_555
C2 C3 1_555 1_555
C3 C6 1_555 1_555
C4 C1 1_555 1_555
H1 C4 1_555 1_555
C5 C4 1_555 1_555
C6 C5 1_555 1_555
H2 C6 1_555 1_555
C7 C2 1_555 1_555
C8 C7 1_555 1_555
C9 C8 1_555 1_555
C10 H3 1_555 1_555
C11 C8 1_555 1_555
C12 C9 1_555 1_555
H4 C12 1_555 1_555
C13 C10 1_555 1_555
N1 C7 1_555 1_555
C14 C15 1_555 1_555
C15 N1 1_555 1_555
C16 C14 1_555 1_555
C17 N1 1_555 1_555
C18 C15 1_555 1_555
H5 C18 1_555 1_555
C19 C17 1_555 1_555
H6 C19 1_555 1_555
N2 C18 1_555 1_555
C20 C19 1_555 1_555
H7 C20 1_555 1_555
C21 C14 1_555 1_555
H8 C21 1_555 1_555
C22 C20 1_555 1_555
H9 C22 1_555 1_555
C23 N2 1_555 1_555
H10 C23 1_555 1_555
C24 C16 1_555 1_555
H11 C24 1_555 1_555
C10 C11 1_555 1_555
C12 C13 1_555 1_555
C16 C17 1_555 1_555
C21 C23 1_555 1_555
C22 C24 1_555 1_555

#END
