
#######################################################################
#
#                 Cambridge Crystallographic Data Centre
#                                CCDC 
#
#######################################################################
#
# If this CIF has been generated from an entry in the Cambridge 
# Structural Database, then it will include bibliographic, chemical, 
# crystal, experimental, refinement or atomic coordinate data resulting 
# from the CCDC's data processing and validation procedures.
#
#######################################################################

data_AFEBUI02
_chemical_formula_moiety         'C7 H4 D1 N1 O4'
_chemical_name_systematic        '4-deuteropyridine-2,6-dicarboxylic acid'
_symmetry_cell_setting           monoclinic
_symmetry_space_group_name_H-M   'P 21/m'
_symmetry_Int_Tables_number      11
_space_group_name_Hall           '-P 2yb'
loop_
_symmetry_equiv_pos_site_id
_symmetry_equiv_pos_as_xyz
1 x,y,z
2 -x,1/2+y,-z
3 -x,-y,-z
4 x,1/2-y,z
_cell_length_a                   3.6811(2)
_cell_length_b                   16.1614(10)
_cell_length_c                   5.5228(3)
_cell_angle_alpha                90
_cell_angle_beta                 92.221(4)
_cell_angle_gamma                90
_cell_volume                     328.314
_exptl_crystal_colour            colorless
_exptl_crystal_description       plates
_cell_formula_units_Z            2
loop_
_atom_site_label
_atom_site_type_symbol
_atom_site_fract_x
_atom_site_fract_y
_atom_site_fract_z
N1 N 0.6660(4) 0.2500 0.1623(3)
C1 C 0.7620(3) 0.17982(7) 0.2755(2)
C2 C 0.9503(3) 0.17642(7) 0.4994(2)
H1 H 1.008(2) 0.1239(6) 0.5689(19)
C3 C 1.0473(5) 0.2500 0.6143(3)
D1 D 1.176(2) 0.2500 0.7669(15)
C4 C 0.6481(3) 0.10134(7) 0.1484(2)
O1 O 0.7586(3) 0.03437(5) 0.25624(16)
H2 H 0.670(5) -0.0075(11) 0.181(3)
O2 O 0.4609(3) 0.10282(5) -0.04232(15)
C1C C 0.7620(3) 0.32018(7) 0.2755(2)
C2C C 0.9503(3) 0.32358(7) 0.4994(2)
H1C H 1.008(2) 0.3761(6) 0.5689(19)
C4C C 0.6481(3) 0.39866(7) 0.1484(2)
O1C O 0.7586(3) 0.46563(5) 0.25624(16)
H2C H 0.670(5) 0.5075(11) 0.181(3)
O2C O 0.4609(3) 0.39718(5) -0.04232(15)
loop_
_geom_bond_atom_site_label_1
_geom_bond_atom_site_label_2
_geom_bond_site_symmetry_1
_geom_bond_site_symmetry_2
N1 C1 1_555 1_555
C1 C2 1_555 1_555
C2 H1 1_555 1_555
C3 C2 1_555 1_555
D1 C3 1_555 1_555
C4 C1 1_555 1_555
O1 C4 1_555 1_555
H2 O1 1_555 1_555
O2 C4 1_555 1_555
C1C N1 1_555 1_555
C2C C3 1_555 1_555
H1C C2C 1_555 1_555
C4C C1C 1_555 1_555
O1C C4C 1_555 1_555
H2C O1C 1_555 1_555
O2C C4C 1_555 1_555
C1C C2C 1_555 1_555

#END
