
#######################################################################
#
#                 Cambridge Crystallographic Data Centre
#                                CCDC 
#
#######################################################################
#
# If this CIF has been generated from an entry in the Cambridge 
# Structural Database, then it will include bibliographic, chemical, 
# crystal, experimental, refinement or atomic coordinate data resulting 
# from the CCDC's data processing and validation procedures.
#
#######################################################################

data_AFEDEU
_chemical_formula_moiety         'C20 H17 N1 O4'
_chemical_name_systematic        
1-Acetyl-3-(1-(4-methoxyphenyl)-2-oxopropylidene)indol-2(3H)-one
_symmetry_cell_setting           monoclinic
_symmetry_space_group_name_H-M   'P 21/n'
_symmetry_Int_Tables_number      14
_space_group_name_Hall           '-P 2yn'
loop_
_symmetry_equiv_pos_site_id
_symmetry_equiv_pos_as_xyz
1 x,y,z
2 1/2+x,1/2-y,1/2+z
3 -x,-y,-z
4 1/2-x,1/2+y,1/2-z
_cell_length_a                   22.1109(4)
_cell_length_b                   6.93080(10)
_cell_length_c                   22.1109(4)
_cell_angle_alpha                90
_cell_angle_beta                 95.1280(10)
_cell_angle_gamma                90
_cell_volume                     3374.85
_exptl_crystal_colour            yellow
_exptl_crystal_description       block
_cell_formula_units_Z            8
_exptl_crystal_recrystallization_method 'acetone/petroleum ether'
loop_
_atom_site_label
_atom_site_type_symbol
_atom_site_fract_x
_atom_site_fract_y
_atom_site_fract_z
O1 O -0.09264(12) 0.7608(4) 0.58926(13)
O2 O 0.09507(10) 0.6865(3) 0.62492(10)
O3 O 0.20740(12) 0.4531(5) 0.57491(11)
O4 O 0.28727(11) 0.7046(4) 0.30701(10)
N1 N 0.00394(11) 0.7346(4) 0.56289(12)
C1 C 0.06753(15) 0.7072(4) 0.57545(16)
C2 C -0.01026(14) 0.7555(4) 0.49878(15)
C3 C -0.06645(15) 0.7808(4) 0.46605(17)
H1 H -0.1019 0.7882 0.4856
C4 C -0.06796(16) 0.7946(5) 0.40345(17)
H2 H -0.1050 0.8120 0.3806
C5 C -0.01528(16) 0.7829(5) 0.37434(16)
H3 H -0.0176 0.7921 0.3322
C6 C 0.04098(15) 0.7579(5) 0.40648(15)
H4 H 0.0761 0.7502 0.3864
C7 C 0.04355(14) 0.7443(4) 0.46986(15)
C8 C 0.09422(14) 0.7133(4) 0.51589(14)
C9 C 0.15347(14) 0.6807(4) 0.51172(15)
C10 C 0.18476(14) 0.6900(5) 0.45500(14)
C11 C 0.19128(15) 0.8624(5) 0.42523(16)
H5 H 0.1726 0.9727 0.4386
C12 C 0.22548(16) 0.8738(5) 0.37530(16)
H6 H 0.2304 0.9914 0.3561
C13 C 0.25178(15) 0.7100(5) 0.35484(15)
C14 C 0.24525(14) 0.5348(5) 0.38356(14)
H7 H 0.2632 0.4243 0.3694
C15 C 0.21192(14) 0.5249(5) 0.43346(14)
H8 H 0.2076 0.4072 0.4528
C16 C -0.03966(18) 0.7395(5) 0.60621(17)
C17 C -0.01676(18) 0.7186(5) 0.67159(17)
H9 H -0.0505 0.7154 0.6960
H10 H 0.0090 0.8261 0.6836
H11 H 0.0060 0.6009 0.6771
C18 C 0.19595(16) 0.6263(7) 0.56611(16)
C19 C 0.22794(19) 0.7818(7) 0.60213(19)
H12 H 0.2537 0.7259 0.6347
H13 H 0.1987 0.8647 0.6185
H14 H 0.2521 0.8554 0.5765
C20 C 0.2954(2) 0.8809(7) 0.27501(19)
H15 H 0.3201 0.8573 0.2422
H16 H 0.3150 0.9740 0.3023
H17 H 0.2565 0.9295 0.2591
O5 O 0.40974(12) 0.1951(3) 0.58957(11)
O6 O 0.37500(10) 0.2012(3) 0.40060(10)
O7 O 0.43006(13) 0.0159(6) 0.28391(15)
O8 O 0.69472(10) 0.4121(4) 0.22036(11)
N2 N 0.43597(11) 0.2207(3) 0.49310(11)
C21 C 0.42467(15) 0.2196(4) 0.42906(14)
C22 C 0.49978(15) 0.2457(4) 0.50866(14)
C23 C 0.53255(16) 0.2492(5) 0.56507(15)
H18 H 0.5132 0.2342 0.6004
C24 C 0.59484(16) 0.2754(5) 0.56768(16)
H19 H 0.6172 0.2796 0.6053
C25 C 0.62466(17) 0.2956(5) 0.51547(17)
H20 H 0.6666 0.3125 0.5185
C26 C 0.59234(15) 0.2908(4) 0.45885(15)
H21 H 0.6122 0.3049 0.4238
C27 C 0.52985(14) 0.2647(4) 0.45520(14)
C28 C 0.48351(14) 0.2461(4) 0.40372(14)
C29 C 0.48904(15) 0.2395(5) 0.34367(15)
C30 C 0.54533(15) 0.2778(5) 0.31381(14)
C31 C 0.56446(16) 0.4644(6) 0.30613(18)
H22 H 0.5435 0.5654 0.3224
C32 C 0.61425(16) 0.5048(6) 0.27474(18)
H23 H 0.6260 0.6320 0.2693
C33 C 0.64659(15) 0.3560(5) 0.25143(14)
C34 C 0.62896(15) 0.1707(5) 0.25909(16)
H24 H 0.6508 0.0700 0.2438
C35 C 0.57818(16) 0.1315(5) 0.28986(16)
H25 H 0.5661 0.0042 0.2944
C36 C 0.39292(16) 0.2031(4) 0.53616(16)
C37 C 0.32715(16) 0.1989(5) 0.51317(17)
H26 H 0.3027 0.1986 0.5469
H27 H 0.3189 0.0846 0.4893
H28 H 0.3176 0.3107 0.4885
C38 C 0.43639(18) 0.1879(9) 0.29829(18)
C39 C 0.3999(2) 0.3445(9) 0.2699(2)
H29 H 0.3785 0.2991 0.2330
H30 H 0.4259 0.4496 0.2610
H31 H 0.3712 0.3878 0.2972
C40 C 0.73453(18) 0.2683(6) 0.20192(19)
H32 H 0.7655 0.3273 0.1803
H33 H 0.7121 0.1775 0.1759
H34 H 0.7531 0.2025 0.2370
loop_
_geom_bond_atom_site_label_1
_geom_bond_atom_site_label_2
_geom_bond_site_symmetry_1
_geom_bond_site_symmetry_2
O1 C16 1_555 1_555
O2 C1 1_555 1_555
O3 C18 1_555 1_555
O4 C13 1_555 1_555
N1 C1 1_555 1_555
C1 C8 1_555 1_555
C2 N1 1_555 1_555
C3 C2 1_555 1_555
H1 C3 1_555 1_555
C4 C3 1_555 1_555
H2 C4 1_555 1_555
C5 C4 1_555 1_555
H3 C5 1_555 1_555
C6 C5 1_555 1_555
H4 C6 1_555 1_555
C7 C2 1_555 1_555
C8 C7 1_555 1_555
C9 C8 1_555 1_555
C10 C9 1_555 1_555
C11 C10 1_555 1_555
H5 C11 1_555 1_555
C12 C11 1_555 1_555
H6 C12 1_555 1_555
C13 C12 1_555 1_555
C14 C13 1_555 1_555
H7 C14 1_555 1_555
C15 C10 1_555 1_555
H8 C15 1_555 1_555
C16 N1 1_555 1_555
C17 C16 1_555 1_555
H9 C17 1_555 1_555
H10 C17 1_555 1_555
H11 C17 1_555 1_555
C18 C9 1_555 1_555
C19 C18 1_555 1_555
H12 C19 1_555 1_555
H13 C19 1_555 1_555
H14 C19 1_555 1_555
C20 O4 1_555 1_555
H15 C20 1_555 1_555
H16 C20 1_555 1_555
H17 C20 1_555 1_555
O5 C36 1_555 1_555
O6 C21 1_555 1_555
O7 C38 1_555 1_555
O8 C33 1_555 1_555
N2 C21 1_555 1_555
C21 C28 1_555 1_555
C22 N2 1_555 1_555
C23 C22 1_555 1_555
H18 C23 1_555 1_555
C24 C23 1_555 1_555
H19 C24 1_555 1_555
C25 C24 1_555 1_555
H20 C25 1_555 1_555
C26 C25 1_555 1_555
H21 C26 1_555 1_555
C27 C22 1_555 1_555
C28 C27 1_555 1_555
C29 C28 1_555 1_555
C30 C29 1_555 1_555
C31 C30 1_555 1_555
H22 C31 1_555 1_555
C32 C31 1_555 1_555
H23 C32 1_555 1_555
C33 C32 1_555 1_555
C34 C33 1_555 1_555
H24 C34 1_555 1_555
C35 C30 1_555 1_555
H25 C35 1_555 1_555
C36 N2 1_555 1_555
C37 C36 1_555 1_555
H26 C37 1_555 1_555
H27 C37 1_555 1_555
H28 C37 1_555 1_555
C38 C29 1_555 1_555
C39 C38 1_555 1_555
H29 C39 1_555 1_555
H30 C39 1_555 1_555
H31 C39 1_555 1_555
C40 O8 1_555 1_555
H32 C40 1_555 1_555
H33 C40 1_555 1_555
H34 C40 1_555 1_555
C6 C7 1_555 1_555
C14 C15 1_555 1_555
C26 C27 1_555 1_555
C34 C35 1_555 1_555

#END
