
#######################################################################
#
#                 Cambridge Crystallographic Data Centre
#                                CCDC 
#
#######################################################################
#
# If this CIF has been generated from an entry in the Cambridge 
# Structural Database, then it will include bibliographic, chemical, 
# crystal, experimental, refinement or atomic coordinate data resulting 
# from the CCDC's data processing and validation procedures.
#
#######################################################################

data_AFEFID
_chemical_formula_moiety         'C14 H8 O4 2-,2(C3 H7 N6 1+),4(H2 O1)'
_chemical_name_systematic        
"bis(melaminium) 1,1'-biphenyl-4,4'-dicarboxylate tetrahydrate"
_symmetry_cell_setting           monoclinic
_symmetry_space_group_name_H-M   'C 2/c'
_symmetry_Int_Tables_number      15
_space_group_name_Hall           '-C 2yn'
loop_
_symmetry_equiv_pos_site_id
_symmetry_equiv_pos_as_xyz
1 x,y,z
2 -x,y,1/2-z
3 1/2+x,1/2+y,z
4 1/2-x,1/2+y,1/2-z
5 -x,-y,-z
6 x,-y,1/2+z
7 1/2-x,1/2-y,-z
8 1/2+x,1/2-y,1/2+z
_cell_length_a                   10.513(4)
_cell_length_b                   20.013(7)
_cell_length_c                   12.457(4)
_cell_angle_alpha                90
_cell_angle_beta                 103.178(4)
_cell_angle_gamma                90
_cell_volume                     2551.89
_exptl_crystal_colour            colorless
_exptl_crystal_description       block
_cell_formula_units_Z            4
loop_
_atom_site_label
_atom_site_type_symbol
_atom_site_fract_x
_atom_site_fract_y
_atom_site_fract_z
N1 N 0.33799(12) 0.51409(6) 0.54313(10)
N2 N 0.35816(12) 0.41544(6) 0.44663(10)
H1 H 0.371733 0.373048 0.447324
N3 N 0.31894(13) 0.51579(6) 0.34648(10)
N4 N 0.30429(14) 0.61079(6) 0.44358(11)
H2 H 0.293392 0.632513 0.382595
H3 H 0.304617 0.631687 0.503965
N5 N 0.37469(14) 0.41297(6) 0.63311(10)
H4 H 0.375160 0.432327 0.694831
H5 H 0.386313 0.370495 0.631051
N6 N 0.33829(16) 0.41670(7) 0.25935(11)
H6 H 0.325468 0.437399 0.197308
H7 H 0.350940 0.374222 0.261857
C1 C 0.35617(13) 0.44833(7) 0.54183(12)
C2 C 0.32058(14) 0.54520(7) 0.44450(12)
C3 C 0.33854(15) 0.45007(7) 0.35054(12)
O1 O 0.38503(14) 0.28028(6) 0.41558(11)
O2 O 0.42927(14) 0.27633(5) 0.59765(11)
C4 C 0.48908(15) 0.03678(7) 0.50007(13)
C5 C 0.41667(16) 0.24932(7) 0.50506(14)
C6 C 0.44356(15) 0.17546(7) 0.50172(13)
C7 C 0.4404(2) 0.14232(8) 0.40536(14)
H8 H 0.423265 0.165856 0.339254
C8 C 0.4625(2) 0.07383(8) 0.40478(15)
H9 H 0.459162 0.052481 0.337879
C9 C 0.4923(3) 0.07080(9) 0.59576(16)
H10 H 0.509959 0.047574 0.662172
C10 C 0.4698(3) 0.13914(9) 0.59637(16)
H11 H 0.472871 0.160577 0.663144
O1D O 0.61497(14) -0.28028(6) 0.58442(11)
O2D O 0.57073(14) -0.27633(5) 0.40235(11)
C4D C 0.51092(15) -0.03678(7) 0.49993(13)
C5D C 0.58333(16) -0.24932(7) 0.49494(14)
C6D C 0.55644(15) -0.17546(7) 0.49828(13)
C7D C 0.5596(2) -0.14232(8) 0.59464(14)
H8D H 0.576735 -0.165856 0.660746
C8D C 0.5375(2) -0.07383(8) 0.59522(15)
H9D H 0.540838 -0.052481 0.662121
C9D C 0.5077(3) -0.07080(9) 0.40424(16)
H10D H 0.490041 -0.047574 0.337828
C10D C 0.5302(3) -0.13914(9) 0.40363(16)
H11D H 0.527129 -0.160577 0.336856
O3 O 0.69103(14) 0.28142(7) 0.71534(11)
H12 H 0.610296 0.274209 0.688532
H13 H 0.703456 0.268600 0.781982
O4 O 0.86162(16) 0.19971(6) 0.63493(13)
H14 H 0.811197 0.230142 0.648728
H15 H 0.933926 0.219482 0.637987
loop_
_geom_bond_atom_site_label_1
_geom_bond_atom_site_label_2
_geom_bond_site_symmetry_1
_geom_bond_site_symmetry_2
N1 C1 1_555 1_555
N2 H1 1_555 1_555
N3 C2 1_555 1_555
N4 H2 1_555 1_555
H3 N4 1_555 1_555
N5 H4 1_555 1_555
H5 N5 1_555 1_555
N6 H6 1_555 1_555
H7 N6 1_555 1_555
C1 N2 1_555 1_555
C2 N1 1_555 1_555
C3 N2 1_555 1_555
O1 C5 1_555 1_555
O2 C5 1_555 1_555
C4 C8 1_555 1_555
C5 C6 1_555 1_555
C6 C7 1_555 1_555
C7 H8 1_555 1_555
C8 C7 1_555 1_555
H9 C8 1_555 1_555
C9 C4 1_555 1_555
H10 C9 1_555 1_555
C10 C6 1_555 1_555
H11 C10 1_555 1_555
O3 H12 1_555 1_555
H13 O3 1_555 1_555
O4 H14 1_555 1_555
H15 O4 1_555 1_555
O1D C5D 1_555 1_555
O2D C5D 1_555 1_555
C4D C4 1_555 1_555
C5D C6D 1_555 1_555
C6D C7D 1_555 1_555
C7D H8D 1_555 1_555
C8D C4D 1_555 1_555
H9D C8D 1_555 1_555
C9D C4D 1_555 1_555
H10D C9D 1_555 1_555
C10D C6D 1_555 1_555
H11D C10D 1_555 1_555
N3 C3 1_555 1_555
N4 C2 1_555 1_555
N5 C1 1_555 1_555
N6 C3 1_555 1_555
C9 C10 1_555 1_555
C7D C8D 1_555 1_555
C9D C10D 1_555 1_555

#END
