
#######################################################################
#
#                 Cambridge Crystallographic Data Centre
#                                CCDC 
#
#######################################################################
#
# If this CIF has been generated from an entry in the Cambridge 
# Structural Database, then it will include bibliographic, chemical, 
# crystal, experimental, refinement or atomic coordinate data resulting 
# from the CCDC's data processing and validation procedures.
#
#######################################################################

data_AFEJIH
_chemical_formula_moiety         'C18 H10 F3 N1 O4 S1'
_chemical_name_systematic        
'phenyl 3-(1,3-dioxo-1,3-dihydro-2H-isoindol-2-yl)-2-[(trifluoromethyl)sulfanyl]prop-2-enoate'
_symmetry_cell_setting           monoclinic
_symmetry_space_group_name_H-M   'P 21/c'
_symmetry_Int_Tables_number      14
_space_group_name_Hall           '-P 2ybc'
loop_
_symmetry_equiv_pos_site_id
_symmetry_equiv_pos_as_xyz
1 x,y,z
2 -x,1/2+y,1/2-z
3 -x,-y,-z
4 x,1/2-y,1/2+z
_cell_length_a                   15.049(7)
_cell_length_b                   13.920(5)
_cell_length_c                   8.068(6)
_cell_angle_alpha                90
_cell_angle_beta                 92.80(2)
_cell_angle_gamma                90
_cell_volume                     1688.08
_exptl_crystal_colour            colorless
_exptl_crystal_description       block
_cell_formula_units_Z            4
loop_
_atom_site_label
_atom_site_type_symbol
_atom_site_fract_x
_atom_site_fract_y
_atom_site_fract_z
S1 S 0.26627(3) 0.60466(3) 0.58255(5)
F1 F 0.14070(9) 0.65127(14) 0.77002(19)
F2 F 0.10142(8) 0.53833(9) 0.59544(18)
F3 F 0.11008(8) 0.68342(9) 0.51550(18)
O1 O 0.20850(7) 0.40127(7) 0.24848(13)
O2 O 0.17296(8) 0.55925(8) 0.24912(14)
O3 O 0.37721(7) 0.25956(8) 0.70132(14)
O4 O 0.44891(7) 0.57342(7) 0.60123(13)
N1 N 0.38593(8) 0.42273(9) 0.64179(15)
C1 C 0.06845(12) 0.33842(12) -0.1960(2)
H1 H 0.037357 0.323175 -0.294973
C2 C 0.16003(12) 0.32732(11) -0.1825(2)
H2 H 0.190425 0.304434 -0.272085
C3 C 0.20631(10) 0.35056(10) -0.0344(2)
H3 H 0.267740 0.343134 -0.023696
C4 C 0.15953(10) 0.38489(10) 0.09657(19)
C5 C 0.20981(9) 0.49147(10) 0.31210(18)
C6 C 0.26642(10) 0.49568(10) 0.47001(18)
C7 C 0.32040(10) 0.42222(11) 0.51179(18)
H4 H 0.313954 0.366203 0.449549
C8 C 0.44997(9) 0.49658(10) 0.67099(18)
C9 C 0.51723(9) 0.45639(10) 0.79100(17)
C10 C 0.59157(9) 0.49992(11) 0.86562(18)
H5 H 0.604771 0.564110 0.846404
C11 C 0.64583(10) 0.44307(11) 0.97106(19)
H6 H 0.696151 0.469982 1.024053
C12 C 0.02299(11) 0.37223(12) -0.0622(2)
H7 H -0.038529 0.378973 -0.072020
C13 C 0.06838(10) 0.39616(11) 0.0864(2)
H8 H 0.038174 0.419045 0.176222
C14 C 0.1486(2) 0.61861(18) 0.6161(3)
C15 C 0.49724(10) 0.36024(10) 0.81911(18)
C16 C 0.55102(10) 0.30325(11) 0.92258(19)
H9 H 0.537732 0.238962 0.940645
C17 C 0.62594(10) 0.34644(11) 0.99845(19)
H10 H 0.663528 0.310237 1.068816
C18 C 0.41519(10) 0.33555(10) 0.71957(18)
F4? F 0.0884(9) 0.6010(11) 0.5338(19)
F5? F 0.1437(8) 0.5606(9) 0.7798(18)
F6? F 0.1348(10) 0.7035(15) 0.679(2)
C19? C 0.155(2) 0.6136(15) 0.646(3)
loop_
_geom_bond_atom_site_label_1
_geom_bond_atom_site_label_2
_geom_bond_site_symmetry_1
_geom_bond_site_symmetry_2
S1 C6 1_555 1_555
F1 C14 1_555 1_555
F2 C14 1_555 1_555
F3 C14 1_555 1_555
O1 C4 1_555 1_555
O2 C5 1_555 1_555
O3 C18 1_555 1_555
O4 C8 1_555 1_555
N1 C7 1_555 1_555
C1 H1 1_555 1_555
C2 C1 1_555 1_555
H2 C2 1_555 1_555
C3 C2 1_555 1_555
H3 C3 1_555 1_555
C4 C3 1_555 1_555
C5 O1 1_555 1_555
C6 C5 1_555 1_555
C7 C6 1_555 1_555
H4 C7 1_555 1_555
C8 N1 1_555 1_555
C9 C8 1_555 1_555
C10 C9 1_555 1_555
H5 C10 1_555 1_555
C11 C10 1_555 1_555
H6 C11 1_555 1_555
C12 C1 1_555 1_555
H7 C12 1_555 1_555
C13 C4 1_555 1_555
H8 C13 1_555 1_555
C14 S1 1_555 1_555
C15 C9 1_555 1_555
C16 C15 1_555 1_555
H9 C16 1_555 1_555
C17 C11 1_555 1_555
H10 C17 1_555 1_555
C18 N1 1_555 1_555
C12 C13 1_555 1_555
C15 C18 1_555 1_555
C16 C17 1_555 1_555

#END
