
#######################################################################
#
#                 Cambridge Crystallographic Data Centre
#                                CCDC 
#
#######################################################################
#
# If this CIF has been generated from an entry in the Cambridge 
# Structural Database, then it will include bibliographic, chemical, 
# crystal, experimental, refinement or atomic coordinate data resulting 
# from the CCDC's data processing and validation procedures.
#
#######################################################################

data_AFELUT
_chemical_formula_moiety         'C25 H37 N2 Na1 O8 S2'
_chemical_name_systematic        
Diaqua-(1,5-bis(2,6-diethyl-4-sulfonatophenyl)-2,4-dimethyl-1,5-diazoniapentan-3-ido)-sodium(i)
_symmetry_cell_setting           tetragonal
_symmetry_space_group_name_H-M   'I 41/a'
_symmetry_Int_Tables_number      88
_space_group_name_Hall           '-I 4ad'
loop_
_symmetry_equiv_pos_site_id
_symmetry_equiv_pos_as_xyz
1 x,y,z
2 3/4-y,1/4+x,1/4+z
3 1/4+y,1/4-x,1/4+z
4 1/2+x,1/2+y,1/2+z
5 1/4-y,3/4+x,3/4+z
6 -x,1/2-y,z
7 1/2-x,-y,1/2+z
8 3/4+y,3/4-x,3/4+z
9 -x,-y,-z
10 1/4+y,3/4-x,3/4-z
11 3/4-y,3/4+x,3/4-z
12 1/2-x,1/2-y,1/2-z
13 3/4+y,1/4-x,1/4-z
14 x,1/2+y,-z
15 1/2+x,y,1/2-z
16 1/4-y,1/4+x,1/4-z
_cell_length_a                   12.1767(3)
_cell_length_b                   12.1767(3)
_cell_length_c                   41.055(3)
_cell_angle_alpha                90
_cell_angle_beta                 90
_cell_angle_gamma                90
_cell_volume                     6087.31
_exptl_crystal_colour            colorless
_exptl_crystal_description       block
_cell_formula_units_Z            8
_exptl_crystal_recrystallization_method methanol
loop_
_atom_site_label
_atom_site_type_symbol
_atom_site_fract_x
_atom_site_fract_y
_atom_site_fract_z
C1 C 0.5271(3) 0.0576(3) 0.66152(8)
C2 C 0.4370(3) 0.1229(3) 0.65483(9)
H1 H 0.4037 0.1634 0.6720
C3 C 0.3946(3) 0.1304(3) 0.62371(9)
C4 C 0.4459(3) 0.0701(3) 0.59912(8)
C5 C 0.5358(3) 0.0018(3) 0.60522(8)
C6 C 0.5743(3) -0.0025(3) 0.63688(8)
H2 H 0.6353 -0.0483 0.6418
C7 C 0.2966(3) 0.2026(3) 0.61710(10)
H3 H 0.2892 0.2559 0.6352
H4 H 0.3103 0.2448 0.5969
C8 C 0.1899(4) 0.1414(5) 0.61348(17)
H5 H 0.2000 0.0796 0.5985
H6 H 0.1337 0.1910 0.6048
H7 H 0.1664 0.1138 0.6348
C9 C 0.5914(3) -0.0633(3) 0.57863(9)
H8 H 0.6275 -0.1282 0.5885
H9 H 0.5349 -0.0902 0.5632
C10 C 0.6760(6) 0.0018(6) 0.55996(17)
H12 H 0.7139 -0.0466 0.5445
H13 H 0.7295 0.0330 0.5752
H14 H 0.6396 0.0612 0.5480
C12 C 0.4461(3) 0.1622(3) 0.54605(9)
C13 C 0.4170(4) 0.1490(4) 0.51115(9)
H18 H 0.4840 0.1366 0.4984
H19 H 0.3803 0.2156 0.5034
H20 H 0.3676 0.0860 0.5086
C14 C 0.5000 0.2500 0.55988(14)
N1 N 0.4111(3) 0.0809(3) 0.56575(8)
O1 O 0.3487(4) 0.2510(8) 0.78203(14)
Na1 Na 0.5000 0.2500 0.74867(6)
S1 S 0.58590(9) 0.05700(8) 0.70120(2)
O2 O 0.4967(4) 0.0733(5) 0.72347(10)
O3 O 0.6390(5) -0.0470(4) 0.70533(9)
O4 O 0.6590(6) 0.1505(5) 0.70159(15)
H21 H 0.377(3) 0.022(3) 0.5607(9)
H22 H 0.5000 0.2500 0.5828(12)
C1E C 0.4729(3) 0.4424(3) 0.66152(8)
C2E C 0.5630(3) 0.3771(3) 0.65483(9)
H1E H 0.5963 0.3366 0.6720
C3E C 0.6054(3) 0.3696(3) 0.62371(9)
C4E C 0.5541(3) 0.4299(3) 0.59912(8)
C5E C 0.4642(3) 0.4982(3) 0.60522(8)
C6E C 0.4257(3) 0.5025(3) 0.63688(8)
H2E H 0.3647 0.5483 0.6418
C7E C 0.7034(3) 0.2974(3) 0.61710(10)
H3E H 0.7108 0.2441 0.6352
H4E H 0.6897 0.2552 0.5969
C8E C 0.8101(4) 0.3586(5) 0.61348(17)
H5E H 0.8000 0.4204 0.5985
H6E H 0.8663 0.3090 0.6048
H7E H 0.8336 0.3862 0.6348
C9E C 0.4086(3) 0.5633(3) 0.57863(9)
H8E H 0.3725 0.6282 0.5885
H9E H 0.4651 0.5902 0.5632
C10E C 0.3240(6) 0.4982(6) 0.55996(17)
H12E H 0.2861 0.5466 0.5445
H13E H 0.2705 0.4670 0.5752
H14E H 0.3604 0.4388 0.5480
C12E C 0.5539(3) 0.3378(3) 0.54605(9)
C13E C 0.5830(4) 0.3510(4) 0.51115(9)
H18E H 0.5160 0.3634 0.4984
H19E H 0.6197 0.2844 0.5034
H20E H 0.6324 0.4140 0.5086
N1E N 0.5889(3) 0.4191(3) 0.56575(8)
O1E O 0.6513(4) 0.2490(8) 0.78203(14)
S1E S 0.41410(9) 0.44300(8) 0.70120(2)
O2E O 0.5033(4) 0.4267(5) 0.72347(10)
O3E O 0.3610(5) 0.5470(4) 0.70533(9)
O4E O 0.3410(6) 0.3495(5) 0.70159(15)
H21E H 0.623(3) 0.478(3) 0.5607(9)
H10? H 0.5855 -0.0251 0.5580
H11? H 0.6687 -0.0729 0.5837
C11? C 0.5352(10) -0.1738(10) 0.5755(3)
H15? H 0.4582 -0.1629 0.5693
H16? H 0.5386 -0.2124 0.5965
H17? H 0.5723 -0.2176 0.5588
O5? O 0.6973(18) 0.023(4) 0.6994(7)
O6? O 0.506(2) 0.001(4) 0.7204(9)
O7? O 0.590(3) 0.1683(14) 0.7130(8)
loop_
_geom_bond_atom_site_label_1
_geom_bond_atom_site_label_2
_geom_bond_site_symmetry_1
_geom_bond_site_symmetry_2
C1 C2 1_555 1_555
C2 H1 1_555 1_555
C3 C2 1_555 1_555
C4 C3 1_555 1_555
C5 C4 1_555 1_555
C6 C1 1_555 1_555
H2 C6 1_555 1_555
C7 C3 1_555 1_555
H3 C7 1_555 1_555
H4 C7 1_555 1_555
C8 C7 1_555 1_555
H5 C8 1_555 1_555
H6 C8 1_555 1_555
H7 C8 1_555 1_555
C9 C5 1_555 1_555
H8 C9 1_555 1_555
H9 C9 1_555 1_555
C10 C9 1_555 1_555
H12 C10 1_555 1_555
H13 C10 1_555 1_555
H14 C10 1_555 1_555
C12 C13 1_555 1_555
C13 H18 1_555 1_555
H19 C13 1_555 1_555
H20 C13 1_555 1_555
C14 C12 1_555 1_555
N1 C4 1_555 1_555
O1 Na1 1_555 1_555
Na1 O2 1_555 1_555
S1 C1 1_555 1_555
O2 S1 1_555 1_555
O3 S1 1_555 1_555
O4 S1 1_555 1_555
H21 N1 1_555 1_555
H22 C14 1_555 1_555
C1E C2E 1_555 1_555
C2E H1E 1_555 1_555
C3E C2E 1_555 1_555
C4E C3E 1_555 1_555
C5E C4E 1_555 1_555
C6E C1E 1_555 1_555
H2E C6E 1_555 1_555
C7E C3E 1_555 1_555
H3E C7E 1_555 1_555
H4E C7E 1_555 1_555
C8E C7E 1_555 1_555
H5E C8E 1_555 1_555
H6E C8E 1_555 1_555
H7E C8E 1_555 1_555
C9E C5E 1_555 1_555
H8E C9E 1_555 1_555
H9E C9E 1_555 1_555
C10E C9E 1_555 1_555
H12E C10E 1_555 1_555
H13E C10E 1_555 1_555
H14E C10E 1_555 1_555
C12E C14 1_555 1_555
C13E C12E 1_555 1_555
H18E C13E 1_555 1_555
H19E C13E 1_555 1_555
H20E C13E 1_555 1_555
N1E C4E 1_555 1_555
O1E Na1 1_555 1_555
S1E C1E 1_555 1_555
O2E Na1 1_555 1_555
O3E S1E 1_555 1_555
O4E S1E 1_555 1_555
H21E N1E 1_555 1_555
C5 C6 1_555 1_555
C12 N1 1_555 1_555
C5E C6E 1_555 1_555
C12E N1E 1_555 1_555
S1E O2E 1_555 1_555

#END
