
#######################################################################
#
#                 Cambridge Crystallographic Data Centre
#                                CCDC 
#
#######################################################################
#
# If this CIF has been generated from an entry in the Cambridge 
# Structural Database, then it will include bibliographic, chemical, 
# crystal, experimental, refinement or atomic coordinate data resulting 
# from the CCDC's data processing and validation procedures.
#
#######################################################################

data_AFEPOR
_chemical_formula_moiety         'C25 H22 N4 O2'
_chemical_name_systematic        
'Ethyl 5-(5,6-diphenyl-1,2,4-triazin-3-yl)-2,6-dimethylnicotinate'
_symmetry_cell_setting           monoclinic
_symmetry_space_group_name_H-M   'P 21/n'
_symmetry_Int_Tables_number      14
_space_group_name_Hall           '-P 2yn'
loop_
_symmetry_equiv_pos_site_id
_symmetry_equiv_pos_as_xyz
1 x,y,z
2 1/2-x,1/2+y,1/2-z
3 -x,-y,-z
4 1/2+x,1/2-y,1/2+z
_cell_length_a                   8.9520(13)
_cell_length_b                   27.347(4)
_cell_length_c                   9.2555(13)
_cell_angle_alpha                90
_cell_angle_beta                 107.626(2)
_cell_angle_gamma                90
_cell_volume                     2159.47
_exptl_crystal_colour            yellow
_exptl_crystal_description       block
_chemical_melting_point          '373-374 K'
_cell_formula_units_Z            4
_exptl_crystal_recrystallization_method 'ethyl acetate'
loop_
_atom_site_label
_atom_site_type_symbol
_atom_site_fract_x
_atom_site_fract_y
_atom_site_fract_z
C1 C 1.1163(4) 0.84669(10) 0.5849(4)
C2 C 1.2772(3) 0.85283(9) 0.6130(3)
C3 C 1.2660(3) 0.93299(9) 0.6957(3)
C4 C 1.1032(3) 0.92964(9) 0.6701(3)
C5 C 1.0320(3) 0.88554(10) 0.6165(3)
H1 H 0.9250 0.8819 0.6014
C6 C 1.0030(3) 0.97025(9) 0.6923(3)
C7 C 0.8047(3) 1.03660(9) 0.7319(3)
C8 C 0.9678(3) 1.04098(8) 0.8068(3)
C9 C 1.0435(3) 1.08365(8) 0.8995(3)
C10 C 1.1687(3) 1.07663(10) 1.0289(3)
H2 H 1.2022 1.0451 1.0597
C11 C 1.2443(4) 1.11606(12) 1.1128(4)
H3 H 1.3264 1.1110 1.2012
C12 C 1.1978(4) 1.16274(12) 1.0653(5)
H4 H 1.2488 1.1894 1.1214
C13 C 1.0758(4) 1.17022(11) 0.9348(5)
H5 H 1.0463 1.2019 0.9019
C14 C 0.9973(3) 1.13108(10) 0.8528(4)
H6 H 0.9133 1.1364 0.7661
C15 C 0.6798(3) 1.06761(9) 0.7592(3)
C16 C 0.6864(3) 1.08346(11) 0.9026(3)
H7 H 0.7736 1.0760 0.9842
C17 C 0.5656(4) 1.11024(12) 0.9265(4)
H8 H 0.5712 1.1205 1.0238
C18 C 0.4363(4) 1.12181(12) 0.8058(4)
H9 H 0.3550 1.1402 0.8213
C19 C 0.4280(3) 1.10616(11) 0.6629(4)
H10 H 0.3411 1.1141 0.5816
C20 C 0.5471(3) 1.07877(10) 0.6384(3)
H11 H 0.5391 1.0677 0.5414
C21 C 1.3629(3) 0.97780(10) 0.7517(4)
H12 H 1.3818 0.9810 0.8590
H13 H 1.3078 1.0061 0.7013
H14 H 1.4611 0.9750 0.7305
C22 C 1.3846(4) 0.81431(12) 0.5858(5)
H15 H 1.4891 0.8271 0.6103
H16 H 1.3498 0.8047 0.4811
H17 H 1.3836 0.7864 0.6485
C23 C 1.0342(5) 0.80023(13) 0.5232(6)
C24 C 0.8112(11) 0.7428(3) 0.5597(12)
H18 H 0.8784 0.7144 0.5688
H19 H 0.7548 0.7423 0.6342
C25 C 0.7089(14) 0.7541(3) 0.3971(10)
H20 H 0.6412 0.7812 0.3984
H21 H 0.6467 0.7259 0.3555
H22 H 0.7749 0.7621 0.3359
N1 N 1.3472(3) 0.89480(8) 0.6680(3)
N2 N 0.8542(3) 0.96875(8) 0.6040(3)
N3 N 0.7536(3) 1.00124(8) 0.6299(3)
N4 N 1.0635(2) 1.00556(7) 0.7928(2)
O1 O 1.0835(4) 0.77057(12) 0.4538(6)
O2 O 0.8981(4) 0.79630(11) 0.5471(6)
loop_
_geom_bond_atom_site_label_1
_geom_bond_atom_site_label_2
_geom_bond_site_symmetry_1
_geom_bond_site_symmetry_2
C1 C2 1_555 1_555
C2 C22 1_555 1_555
C3 C4 1_555 1_555
C4 C5 1_555 1_555
C5 C1 1_555 1_555
H1 C5 1_555 1_555
C6 C4 1_555 1_555
C7 C8 1_555 1_555
C8 C9 1_555 1_555
C9 C10 1_555 1_555
C10 H2 1_555 1_555
C11 C10 1_555 1_555
H3 C11 1_555 1_555
C12 C11 1_555 1_555
H4 C12 1_555 1_555
C13 C12 1_555 1_555
H5 C13 1_555 1_555
C14 C9 1_555 1_555
H6 C14 1_555 1_555
C15 C7 1_555 1_555
C16 C15 1_555 1_555
H7 C16 1_555 1_555
C17 C16 1_555 1_555
H8 C17 1_555 1_555
C18 C17 1_555 1_555
H9 C18 1_555 1_555
C19 C18 1_555 1_555
H10 C19 1_555 1_555
C20 C15 1_555 1_555
H11 C20 1_555 1_555
C21 C3 1_555 1_555
H12 C21 1_555 1_555
H13 C21 1_555 1_555
H14 C21 1_555 1_555
C22 H15 1_555 1_555
H16 C22 1_555 1_555
H17 C22 1_555 1_555
C23 C1 1_555 1_555
C24 H18 1_555 1_555
H19 C24 1_555 1_555
C25 C24 1_555 1_555
H20 C25 1_555 1_555
H21 C25 1_555 1_555
H22 C25 1_555 1_555
N1 C2 1_555 1_555
N2 C6 1_555 1_555
N3 C7 1_555 1_555
N4 C6 1_555 1_555
O1 C23 1_555 1_555
O2 C23 1_555 1_555
C3 N1 1_555 1_555
C8 N4 1_555 1_555
C13 C14 1_555 1_555
C19 C20 1_555 1_555
C24 O2 1_555 1_555
N2 N3 1_555 1_555

#END
