
#######################################################################
#
#                 Cambridge Crystallographic Data Centre
#                                CCDC 
#
#######################################################################
#
# If this CIF has been generated from an entry in the Cambridge 
# Structural Database, then it will include bibliographic, chemical, 
# crystal, experimental, refinement or atomic coordinate data resulting 
# from the CCDC's data processing and validation procedures.
#
#######################################################################

data_AFEQOS
_chemical_formula_moiety         'C10 H8 N2 O2'
_chemical_name_systematic        '5-Phenyl-1H-pyrazole-3-carboxylic acid'
_symmetry_cell_setting           monoclinic
_symmetry_space_group_name_H-M   'P 21/c'
_symmetry_Int_Tables_number      14
_space_group_name_Hall           '-P 2ybc'
loop_
_symmetry_equiv_pos_site_id
_symmetry_equiv_pos_as_xyz
1 x,y,z
2 -x,1/2+y,1/2-z
3 -x,-y,-z
4 x,1/2-y,1/2+z
_cell_length_a                   10.2391(12)
_cell_length_b                   5.3647(6)
_cell_length_c                   17.5907(17)
_cell_angle_alpha                90
_cell_angle_beta                 106.581(8)
_cell_angle_gamma                90
_cell_volume                     926.072
_exptl_crystal_colour            colorless
_exptl_crystal_description       block
_cell_formula_units_Z            4
_exptl_crystal_recrystallization_method acetone/methanol
loop_
_atom_site_label
_atom_site_type_symbol
_atom_site_fract_x
_atom_site_fract_y
_atom_site_fract_z
O1 O 0.54576(15) 0.8690(3) 0.59886(8)
H1 H 0.571(2) 0.983(4) 0.5702(13)
O2 O 0.38316(15) 0.7806(3) 0.48748(7)
N1 N 0.45958(15) 0.4857(3) 0.67529(8)
N2 N 0.38121(16) 0.3093(3) 0.69483(9)
H2 H 0.4141(19) 0.226(4) 0.7415(12)
C1 C 0.39024(17) 0.5507(3) 0.60188(9)
C2 C 0.26909(17) 0.4153(3) 0.57510(10)
H3 H 0.2045 0.4275 0.5259
C3 C 0.26539(18) 0.2603(3) 0.63673(10)
C4 C 0.44173(19) 0.7448(3) 0.55878(11)
C5 C 0.16279(18) 0.0802(3) 0.64533(10)
C6 C 0.0304(2) 0.0999(4) 0.59687(12)
H4 H 0.0071 0.2280 0.5599
C7 C -0.0674(2) -0.0702(5) 0.60325(14)
H5 H -0.1560 -0.0552 0.5704
C8 C -0.0356(3) -0.2601(4) 0.65715(15)
H6 H -0.1018 -0.3747 0.6607
C9 C 0.0940(3) -0.2798(4) 0.70570(14)
H7 H 0.1157 -0.4083 0.7427
C10 C 0.1939(2) -0.1121(3) 0.70098(12)
H8 H 0.2818 -0.1275 0.7349
loop_
_geom_bond_atom_site_label_1
_geom_bond_atom_site_label_2
_geom_bond_site_symmetry_1
_geom_bond_site_symmetry_2
O1 H1 1_555 1_555
O2 C4 1_555 1_555
N1 N2 1_555 1_555
N2 H2 1_555 1_555
C1 N1 1_555 1_555
C2 C1 1_555 1_555
H3 C2 1_555 1_555
C3 N2 1_555 1_555
C4 O1 1_555 1_555
C5 C3 1_555 1_555
C6 C5 1_555 1_555
H4 C6 1_555 1_555
C7 C6 1_555 1_555
H5 C7 1_555 1_555
C8 C7 1_555 1_555
H6 C8 1_555 1_555
C9 C8 1_555 1_555
H7 C9 1_555 1_555
C10 C5 1_555 1_555
H8 C10 1_555 1_555
C1 C4 1_555 1_555
C2 C3 1_555 1_555
C9 C10 1_555 1_555

#END
