
#######################################################################
#
#                 Cambridge Crystallographic Data Centre
#                                CCDC 
#
#######################################################################
#
# If this CIF has been generated from an entry in the Cambridge 
# Structural Database, then it will include bibliographic, chemical, 
# crystal, experimental, refinement or atomic coordinate data resulting 
# from the CCDC's data processing and validation procedures.
#
#######################################################################

data_AFEQIM
_chemical_formula_moiety         'C19 H17 Br1 O6'
_chemical_name_systematic        
"2-Ethyl 3,4-dimethyl 4'-bromobiphenyl-2,3,4-tricarboxylate"
_symmetry_cell_setting           triclinic
_symmetry_space_group_name_H-M   'P -1'
_symmetry_Int_Tables_number      2
_space_group_name_Hall           '-P 1'
loop_
_symmetry_equiv_pos_site_id
_symmetry_equiv_pos_as_xyz
1 x,y,z
2 -x,-y,-z
_cell_length_a                   7.0122(5)
_cell_length_b                   8.9766(6)
_cell_length_c                   15.3539(10)
_cell_angle_alpha                75.073(10)
_cell_angle_beta                 89.510(10)
_cell_angle_gamma                85.010(10)
_cell_volume                     930.213
_exptl_crystal_colour            colorless
_exptl_crystal_description       block
_cell_formula_units_Z            2
_exptl_crystal_recrystallization_method 'ethyl acetate-hexane'
loop_
_atom_site_label
_atom_site_type_symbol
_atom_site_fract_x
_atom_site_fract_y
_atom_site_fract_z
Br1 Br -0.37088(4) 0.90355(3) 0.43084(2)
O1 O 0.3586(3) 0.90736(19) 0.18374(12)
O2 O 0.3180(2) 0.76398(17) 0.08639(10)
O3 O 0.7671(2) 0.74492(18) 0.09710(10)
O4 O 0.6697(2) 0.54018(19) 0.05724(10)
O5 O 0.9818(3) 0.4143(2) 0.18441(12)
O6 O 0.9334(3) 0.2182(2) 0.30234(12)
C1 C 0.3577(3) 0.5793(2) 0.31186(13)
C2 C 0.4405(3) 0.4438(3) 0.36956(14)
H1 H 0.3833 0.4037 0.4245
C3 C 0.6051(3) 0.3678(3) 0.34720(14)
H2 H 0.6581 0.2779 0.3874
C4 C 0.6932(3) 0.4239(2) 0.26515(13)
C5 C 0.6081(3) 0.5563(2) 0.20462(12)
C6 C 0.4436(3) 0.6351(2) 0.22834(13)
C7 C 0.1801(3) 0.6579(2) 0.33965(13)
C8 C 0.1654(4) 0.6749(3) 0.42695(15)
H3 H 0.2670 0.6372 0.4674
C9 C 0.0018(4) 0.7471(3) 0.45488(16)
H4 H -0.0064 0.7586 0.5133
C10 C -0.1480(3) 0.8014(3) 0.39456(16)
C11 C -0.1396(3) 0.7849(3) 0.30811(16)
H5 H -0.2424 0.8214 0.2683
C12 C 0.0253(3) 0.7125(3) 0.28117(15)
H6 H 0.0320 0.7005 0.2228
C13 C 0.3685(3) 0.7860(2) 0.16512(14)
C14 C 0.2483(5) 0.9014(3) 0.01784(19)
H7 H 0.3369 0.9804 0.0122
H8 H 0.1250 0.9418 0.0351
C15 C 0.2297(6) 0.8634(4) -0.0678(2)
H9 H 0.3530 0.8280 -0.0860
H10 H 0.1792 0.9537 -0.1125
H11 H 0.1445 0.7833 -0.0615
C16 C 0.6951(3) 0.6246(2) 0.11437(13)
C17 C 0.7451(4) 0.5970(4) -0.03205(16)
H12 H 0.6755 0.6935 -0.0616
H13 H 0.7318 0.5229 -0.0664
H14 H 0.8780 0.6125 -0.0274
C18 C 0.8826(3) 0.3531(2) 0.24429(14)
C19 C 1.1191(4) 0.1446(4) 0.2883(2)
H15 H 1.1171 0.1152 0.2325
H16 H 1.1483 0.0542 0.3370
H17 H 1.2148 0.2156 0.2860
loop_
_geom_bond_atom_site_label_1
_geom_bond_atom_site_label_2
_geom_bond_site_symmetry_1
_geom_bond_site_symmetry_2
Br1 C10 1_555 1_555
O1 C13 1_555 1_555
O2 C13 1_555 1_555
O3 C16 1_555 1_555
O4 C16 1_555 1_555
O5 C18 1_555 1_555
O6 C18 1_555 1_555
C1 C2 1_555 1_555
C2 H1 1_555 1_555
C3 C2 1_555 1_555
H2 C3 1_555 1_555
C4 C3 1_555 1_555
C5 C4 1_555 1_555
C6 C1 1_555 1_555
C7 C1 1_555 1_555
C8 C7 1_555 1_555
H3 C8 1_555 1_555
C9 C8 1_555 1_555
H4 C9 1_555 1_555
C10 C9 1_555 1_555
C11 C10 1_555 1_555
H5 C11 1_555 1_555
C12 C7 1_555 1_555
H6 C12 1_555 1_555
C13 C6 1_555 1_555
C14 O2 1_555 1_555
H7 C14 1_555 1_555
H8 C14 1_555 1_555
C15 C14 1_555 1_555
H9 C15 1_555 1_555
H10 C15 1_555 1_555
H11 C15 1_555 1_555
C16 C5 1_555 1_555
C17 O4 1_555 1_555
H12 C17 1_555 1_555
H13 C17 1_555 1_555
H14 C17 1_555 1_555
C18 C4 1_555 1_555
C19 O6 1_555 1_555
H15 C19 1_555 1_555
H16 C19 1_555 1_555
H17 C19 1_555 1_555
C5 C6 1_555 1_555
C11 C12 1_555 1_555

#END
