
#######################################################################
#
#                 Cambridge Crystallographic Data Centre
#                                CCDC 
#
#######################################################################
#
# If this CIF has been generated from an entry in the Cambridge 
# Structural Database, then it will include bibliographic, chemical, 
# crystal, experimental, refinement or atomic coordinate data resulting 
# from the CCDC's data processing and validation procedures.
#
#######################################################################

data_AFETOV
_chemical_formula_moiety         'C40 H30 N4 O4,C3 H7 N1 O1'
_chemical_name_systematic        
"N,N',N'',N'''-tetrakis(2-hydroxybenzylidene)biphenyl-3,3',4,4'-tetramine dimethylformamide solvate"
_symmetry_cell_setting           monoclinic
_symmetry_space_group_name_H-M   'P 21/n'
_symmetry_Int_Tables_number      14
_space_group_name_Hall           '-P 2yn'
loop_
_symmetry_equiv_pos_site_id
_symmetry_equiv_pos_as_xyz
1 x,y,z
2 1/2-x,1/2+y,1/2-z
3 -x,-y,-z
4 1/2+x,1/2-y,1/2+z
_cell_length_a                   15.2109(19)
_cell_length_b                   6.3608(8)
_cell_length_c                   20.119(3)
_cell_angle_alpha                90
_cell_angle_beta                 93.882(2)
_cell_angle_gamma                90
_cell_volume                     1942.12
_exptl_crystal_colour            yellow
_exptl_crystal_description       plate
_cell_formula_units_Z            2
loop_
_atom_site_label
_atom_site_type_symbol
_atom_site_fract_x
_atom_site_fract_y
_atom_site_fract_z
C1 C 0.48192(15) 0.9023(4) 0.01409(12)
C2 C 0.39813(16) 0.8299(4) -0.00735(13)
H1 H 0.3646 0.9065 -0.0407
C3 C 0.36209(16) 0.6484(4) 0.01879(12)
C4 C 0.41093(16) 0.5308(4) 0.06705(12)
C5 C 0.49461(17) 0.6027(4) 0.08812(14)
H2 H 0.5288 0.5256 0.1210
C6 C 0.52886(17) 0.7832(4) 0.06225(14)
H3 H 0.5863 0.8275 0.0778
C7 C 0.21535(18) 0.7113(5) -0.01503(13)
H4 H 0.2263 0.8524 -0.0014
C8 C 0.12903(18) 0.6584(5) -0.04537(14)
C9 C 0.1089(2) 0.4546(5) -0.06790(15)
C10 C 0.0257(2) 0.4126(5) -0.09811(17)
H5 H 0.0119 0.2752 -0.1141
C11 C -0.0367(2) 0.5690(6) -0.10487(17)
H6 H -0.0934 0.5381 -0.1253
C12 C -0.0181(2) 0.7696(6) -0.08249(18)
H7 H -0.0616 0.8769 -0.0871
C13 C 0.06497(19) 0.8126(5) -0.05303(16)
H8 H 0.0782 0.9511 -0.0378
C14 C 0.40784(17) 0.2289(4) 0.13573(13)
H9 H 0.4662 0.2592 0.1529
C15 C 0.36358(17) 0.0459(4) 0.15970(12)
C16 C 0.27688(17) -0.0025(4) 0.13528(13)
C17 C 0.2362(2) -0.1822(4) 0.15791(15)
H10 H 0.1780 -0.2159 0.1412
C18 C 0.2793(2) -0.3114(4) 0.20413(14)
H11 H 0.2510 -0.4345 0.2187
C19 C 0.3637(2) -0.2632(5) 0.22955(15)
H12 H 0.3930 -0.3514 0.2621
C20 C 0.4049(2) -0.0865(5) 0.20737(14)
H13 H 0.4628 -0.0540 0.2249
N1 N 0.27785(14) 0.5760(3) -0.00565(11)
N2 N 0.37056(13) 0.3513(3) 0.09206(10)
O1 O 0.16868(15) 0.2970(3) -0.06137(13)
H21 H 0.2155 0.3424 -0.0420
O2 O 0.23246(12) 0.1201(3) 0.08988(11)
H22 H 0.2659 0.2155 0.0775
C1B C 0.51808(15) 1.0977(4) -0.01409(12)
C2B C 0.60187(16) 1.1701(4) 0.00735(13)
H1B H 0.6354 1.0935 0.0407
C3B C 0.63791(16) 1.3516(4) -0.01879(12)
C4B C 0.58907(16) 1.4692(4) -0.06705(12)
C5B C 0.50539(17) 1.3973(4) -0.08812(14)
H2B H 0.4712 1.4744 -0.1210
C6B C 0.47114(17) 1.2168(4) -0.06225(14)
H3B H 0.4137 1.1725 -0.0778
C7B C 0.78465(18) 1.2887(5) 0.01503(13)
H4B H 0.7737 1.1476 0.0014
C8B C 0.87097(18) 1.3416(5) 0.04537(14)
C9B C 0.8911(2) 1.5454(5) 0.06790(15)
C10B C 0.9743(2) 1.5874(5) 0.09811(17)
H5B H 0.9881 1.7248 0.1141
C11B C 1.0367(2) 1.4310(6) 0.10487(17)
H6B H 1.0934 1.4619 0.1253
C12B C 1.0181(2) 1.2304(6) 0.08249(18)
H7B H 1.0616 1.1231 0.0871
C13B C 0.93503(19) 1.1874(5) 0.05303(16)
H8B H 0.9218 1.0489 0.0378
C14B C 0.59216(17) 1.7711(4) -0.13573(13)
H9B H 0.5338 1.7408 -0.1529
C15B C 0.63642(17) 1.9541(4) -0.15970(12)
C16B C 0.72312(17) 2.0025(4) -0.13528(13)
C17B C 0.7638(2) 2.1822(4) -0.15791(15)
H10B H 0.8220 2.2159 -0.1412
C18B C 0.7207(2) 2.3114(4) -0.20413(14)
H11B H 0.7490 2.4345 -0.2187
C19B C 0.6363(2) 2.2632(5) -0.22955(15)
H12B H 0.6070 2.3514 -0.2621
C20B C 0.5951(2) 2.0865(5) -0.20737(14)
H13B H 0.5372 2.0540 -0.2249
N1B N 0.72215(14) 1.4240(3) 0.00565(11)
N2B N 0.62944(13) 1.6487(3) -0.09206(10)
O1B O 0.83132(15) 1.7030(3) 0.06137(13)
H21B H 0.7845 1.6576 0.0420
O2B O 0.76754(12) 1.8799(3) -0.08988(11)
H22B H 0.7341 1.7845 -0.0775
C21 C 0.7766(7) 0.589(3) 0.3218(5)
H14 H 0.7556 0.5590 0.3642
C22 C 0.7287(11) 0.555(3) 0.1895(4)
H15 H 0.7875 0.5964 0.1772
H16 H 0.6840 0.6357 0.1628
H17 H 0.7199 0.4049 0.1811
C23 C 0.6224(7) 0.556(3) 0.2722(6)
H18 H 0.6135 0.5440 0.3199
H19 H 0.6050 0.4243 0.2498
H20 H 0.5863 0.6716 0.2531
N3 N 0.7204(5) 0.601(3) 0.2628(3)
O3 O 0.8612(5) 0.622(2) 0.3127(4)
loop_
_geom_bond_atom_site_label_1
_geom_bond_atom_site_label_2
_geom_bond_site_symmetry_1
_geom_bond_site_symmetry_2
C1 C2 1_555 1_555
C2 H1 1_555 1_555
C3 C2 1_555 1_555
C4 C3 1_555 1_555
C5 C4 1_555 1_555
H2 C5 1_555 1_555
C6 C1 1_555 1_555
H3 C6 1_555 1_555
C7 H4 1_555 1_555
C8 C7 1_555 1_555
C9 C8 1_555 1_555
C10 C9 1_555 1_555
H5 C10 1_555 1_555
C11 C10 1_555 1_555
H6 C11 1_555 1_555
C12 C11 1_555 1_555
H7 C12 1_555 1_555
C13 C8 1_555 1_555
H8 C13 1_555 1_555
C14 H9 1_555 1_555
C15 C14 1_555 1_555
C16 C15 1_555 1_555
C17 C16 1_555 1_555
H10 C17 1_555 1_555
C18 C17 1_555 1_555
H11 C18 1_555 1_555
C19 C18 1_555 1_555
H12 C19 1_555 1_555
C20 C15 1_555 1_555
H13 C20 1_555 1_555
C21 H14 1_555 1_555
C22 H15 1_555 1_555
H16 C22 1_555 1_555
H17 C22 1_555 1_555
C23 H18 1_555 1_555
H19 C23 1_555 1_555
H20 C23 1_555 1_555
N1 C3 1_555 1_555
N2 C4 1_555 1_555
N3 C21 1_555 1_555
O1 C9 1_555 1_555
H21 O1 1_555 1_555
O2 C16 1_555 1_555
H22 O2 1_555 1_555
O3 C21 1_555 1_555
C1B C1 1_555 1_555
C2B C1B 1_555 1_555
H1B C2B 1_555 1_555
C3B C2B 1_555 1_555
C4B C3B 1_555 1_555
C5B C4B 1_555 1_555
H2B C5B 1_555 1_555
C6B C1B 1_555 1_555
H3B C6B 1_555 1_555
C7B H4B 1_555 1_555
C8B C7B 1_555 1_555
C9B C8B 1_555 1_555
C10B C9B 1_555 1_555
H5B C10B 1_555 1_555
C11B C10B 1_555 1_555
H6B C11B 1_555 1_555
C12B C11B 1_555 1_555
H7B C12B 1_555 1_555
C13B C8B 1_555 1_555
H8B C13B 1_555 1_555
C14B H9B 1_555 1_555
C15B C14B 1_555 1_555
C16B C15B 1_555 1_555
C17B C16B 1_555 1_555
H10B C17B 1_555 1_555
C18B C17B 1_555 1_555
H11B C18B 1_555 1_555
C19B C18B 1_555 1_555
H12B C19B 1_555 1_555
C20B C15B 1_555 1_555
H13B C20B 1_555 1_555
N1B C3B 1_555 1_555
N2B C4B 1_555 1_555
O1B C9B 1_555 1_555
H21B O1B 1_555 1_555
O2B C16B 1_555 1_555
H22B O2B 1_555 1_555
C5 C6 1_555 1_555
C7 N1 1_555 1_555
C12 C13 1_555 1_555
C14 N2 1_555 1_555
C19 C20 1_555 1_555
C22 N3 1_555 1_555
C23 N3 1_555 1_555
C5B C6B 1_555 1_555
C7B N1B 1_555 1_555
C12B C13B 1_555 1_555
C14B N2B 1_555 1_555
C19B C20B 1_555 1_555

#END
