
#######################################################################
#
#                 Cambridge Crystallographic Data Centre
#                                CCDC 
#
#######################################################################
#
# If this CIF has been generated from an entry in the Cambridge 
# Structural Database, then it will include bibliographic, chemical, 
# crystal, experimental, refinement or atomic coordinate data resulting 
# from the CCDC's data processing and validation procedures.
#
#######################################################################

data_AFEVOZ
_chemical_formula_moiety         'C28 H18 B2 Cl2,C7 H8'
_chemical_name_systematic        
'1,2-bis(anthracen-9-yl)-1,2-dichlorodiborane toluene solvate'
_symmetry_cell_setting           orthorhombic
_symmetry_space_group_name_H-M   'P c c a'
_symmetry_Int_Tables_number      54
_space_group_name_Hall           '-P 2a 2ac'
loop_
_symmetry_equiv_pos_site_id
_symmetry_equiv_pos_as_xyz
1 x,y,z
2 1/2-x,-y,z
3 -x,y,1/2-z
4 1/2+x,-y,1/2-z
5 -x,-y,-z
6 1/2+x,y,-z
7 x,-y,1/2+z
8 1/2-x,y,1/2+z
_cell_length_a                   17.525(8)
_cell_length_b                   8.667(4)
_cell_length_c                   18.103(5)
_cell_angle_alpha                90
_cell_angle_beta                 90
_cell_angle_gamma                90
_cell_volume                     2749.65
_exptl_crystal_colour            orange
_exptl_crystal_description       block
_cell_formula_units_Z            4
loop_
_atom_site_label
_atom_site_type_symbol
_atom_site_fract_x
_atom_site_fract_y
_atom_site_fract_z
Cl1 Cl 0.32658(2) 0.33932(5) 0.35102(2)
C1 C 0.36101(7) 0.57243(14) 0.45723(6)
B1 B 0.29745(8) 0.48518(16) 0.41373(7)
C2 C 0.40167(7) 0.69328(14) 0.42264(6)
C3 C 0.38170(7) 0.74978(14) 0.35095(6)
H1 H 0.3401 0.7044 0.3253
C4 C 0.48434(8) 0.93579(15) 0.35554(7)
H2 H 0.5117 1.0172 0.3325
C5 C 0.42114(8) 0.86732(15) 0.31879(7)
H3 H 0.4063 0.9038 0.2714
C6 C 0.46472(7) 0.76451(13) 0.45997(6)
C7 C 0.50574(7) 0.88515(14) 0.42351(7)
H4 H 0.5486 0.9306 0.4472
C8 C 0.44234(7) 0.60197(13) 0.56744(6)
C9 C 0.48402(7) 0.71584(14) 0.53087(6)
H5 H 0.5266 0.7613 0.5549
C10 C 0.45973(7) 0.55681(15) 0.64140(7)
H6 H 0.5007 0.6053 0.6668
C11 C 0.41846(7) 0.44520(16) 0.67605(7)
H7 H 0.4305 0.4171 0.7254
C12 C 0.35734(8) 0.37028(16) 0.63879(7)
H8 H 0.3291 0.2920 0.6633
C13 C 0.33907(7) 0.40982(15) 0.56834(7)
H9 H 0.2984 0.3580 0.5441
C14 C 0.38001(7) 0.52806(13) 0.52993(6)
Cl1A Cl 0.17342(2) 0.66068(5) 0.35102(2)
C1A C 0.13899(7) 0.42757(14) 0.45723(6)
B1A B 0.20255(8) 0.51482(16) 0.41373(7)
C2A C 0.09833(7) 0.30672(14) 0.42264(6)
C3A C 0.11830(7) 0.25022(14) 0.35095(6)
H1A H 0.1599 0.2956 0.3253
C4A C 0.01566(8) 0.06421(15) 0.35554(7)
H2A H -0.0117 -0.0172 0.3325
C5A C 0.07886(8) 0.13268(15) 0.31879(7)
H3A H 0.0937 0.0962 0.2714
C6A C 0.03528(7) 0.23549(13) 0.45997(6)
C7A C -0.00574(7) 0.11485(14) 0.42351(7)
H4A H -0.0486 0.0694 0.4472
C8A C 0.05766(7) 0.39803(13) 0.56744(6)
C9A C 0.01598(7) 0.28416(14) 0.53087(6)
H5A H -0.0266 0.2387 0.5549
C10A C 0.04027(7) 0.44319(15) 0.64140(7)
H6A H -0.0007 0.3947 0.6668
C11A C 0.08154(7) 0.55480(16) 0.67605(7)
H7A H 0.0695 0.5829 0.7254
C12A C 0.14266(8) 0.62972(16) 0.63879(7)
H8A H 0.1709 0.7080 0.6633
C13A C 0.16093(7) 0.59018(15) 0.56834(7)
H9A H 0.2016 0.6420 0.5441
C14A C 0.11999(7) 0.47194(13) 0.52993(6)
C15 C 0.2500 1.0000 0.56113(11)
C16 C 0.30101(8) 0.90865(15) 0.60052(8)
H10 H 0.3364 0.8457 0.5746
C17 C 0.30103(8) 0.90819(17) 0.67703(9)
H11 H 0.3361 0.8448 0.7032
C18 C 0.2500 1.0000 0.71544(12)
H12 H 0.2500 1.0000 0.7679
C19 C 0.2500 1.0000 0.47809(13)
C16A C 0.19899(8) 1.09135(15) 0.60052(8)
H10A H 0.1636 1.1543 0.5746
C17A C 0.19897(8) 1.09181(17) 0.67703(9)
H11A H 0.1639 1.1552 0.7032
H13? H 0.2998 1.0351 0.4600
H14? H 0.2402 0.8953 0.4600
H15? H 0.2101 1.0696 0.4600
loop_
_geom_bond_atom_site_label_1
_geom_bond_atom_site_label_2
_geom_bond_site_symmetry_1
_geom_bond_site_symmetry_2
Cl1 B1 1_555 1_555
C1 B1 1_555 1_555
B1 B1A 1_555 1_555
C2 C1 1_555 1_555
C3 C2 1_555 1_555
H1 C3 1_555 1_555
C4 H2 1_555 1_555
C5 C3 1_555 1_555
H3 C5 1_555 1_555
C6 C2 1_555 1_555
C7 C4 1_555 1_555
H4 C7 1_555 1_555
C8 C9 1_555 1_555
C9 C6 1_555 1_555
H5 C9 1_555 1_555
C10 C8 1_555 1_555
H6 C10 1_555 1_555
C11 C10 1_555 1_555
H7 C11 1_555 1_555
C12 C11 1_555 1_555
H8 C12 1_555 1_555
C13 C12 1_555 1_555
H9 C13 1_555 1_555
C14 C1 1_555 1_555
C15 C16 1_555 1_555
C16 H10 1_555 1_555
C17 C16 1_555 1_555
H11 C17 1_555 1_555
C18 C17 1_555 1_555
H12 C18 1_555 1_555
C19 C15 1_555 1_555
Cl1A B1A 1_555 1_555
C1A B1A 1_555 1_555
C2A C1A 1_555 1_555
C3A C2A 1_555 1_555
H1A C3A 1_555 1_555
C4A H2A 1_555 1_555
C5A C3A 1_555 1_555
H3A C5A 1_555 1_555
C6A C2A 1_555 1_555
C7A C4A 1_555 1_555
H4A C7A 1_555 1_555
C8A C9A 1_555 1_555
C9A C6A 1_555 1_555
H5A C9A 1_555 1_555
C10A C8A 1_555 1_555
H6A C10A 1_555 1_555
C11A C10A 1_555 1_555
H7A C11A 1_555 1_555
C12A C11A 1_555 1_555
H8A C12A 1_555 1_555
C13A C12A 1_555 1_555
H9A C13A 1_555 1_555
C14A C1A 1_555 1_555
C16A C15 1_555 1_555
H10A C16A 1_555 1_555
C17A C18 1_555 1_555
H11A C17A 1_555 1_555
C4 C5 1_555 1_555
C6 C7 1_555 1_555
C8 C14 1_555 1_555
C13 C14 1_555 1_555
C4A C5A 1_555 1_555
C6A C7A 1_555 1_555
C8A C14A 1_555 1_555
C13A C14A 1_555 1_555
C16A C17A 1_555 1_555

#END
