
#######################################################################
#
#                 Cambridge Crystallographic Data Centre
#                                CCDC 
#
#######################################################################
#
# If this CIF has been generated from an entry in the Cambridge 
# Structural Database, then it will include bibliographic, chemical, 
# crystal, experimental, refinement or atomic coordinate data resulting 
# from the CCDC's data processing and validation procedures.
#
#######################################################################

data_AFEVUF
_chemical_formula_moiety         'C6 H18 B2 Cl4 P2'
_chemical_name_systematic        
1,1,2,2-tetrachloro-1,2-bis(trimethylphosphino)diborane
_symmetry_cell_setting           monoclinic
_symmetry_space_group_name_H-M   'P 21/n'
_symmetry_Int_Tables_number      14
_space_group_name_Hall           '-P 2yn'
loop_
_symmetry_equiv_pos_site_id
_symmetry_equiv_pos_as_xyz
1 x,y,z
2 1/2-x,1/2+y,1/2-z
3 -x,-y,-z
4 1/2+x,1/2-y,1/2+z
_cell_length_a                   6.4637(16)
_cell_length_b                   12.672(4)
_cell_length_c                   8.946(3)
_cell_angle_alpha                90
_cell_angle_beta                 95.955(11)
_cell_angle_gamma                90
_cell_volume                     728.795
_exptl_crystal_colour            colorless
_exptl_crystal_description       plate
_cell_formula_units_Z            2
loop_
_atom_site_label
_atom_site_type_symbol
_atom_site_fract_x
_atom_site_fract_y
_atom_site_fract_z
Cl1 Cl 0.65198(4) 0.40577(2) 0.31047(3)
C1 C 0.54186(19) 0.63778(10) 0.12126(13)
H1 H 0.6041 0.5739 0.0833
H2 H 0.6522 0.6870 0.1586
H3 H 0.4518 0.6712 0.0399
P1 P 0.39004(4) 0.60323(2) 0.27210(3)
B1 B 0.56055(18) 0.52034(10) 0.42392(14)
Cl2 Cl 0.78711(4) 0.61147(2) 0.47867(3)
C2 C 0.16395(18) 0.53476(10) 0.18617(14)
H4 H 0.0976 0.5770 0.1028
H5 H 0.0654 0.5237 0.2609
H6 H 0.2058 0.4663 0.1481
C3 C 0.2987(2) 0.72553(10) 0.34249(14)
H7 H 0.2306 0.7670 0.2589
H8 H 0.4167 0.7654 0.3916
H9 H 0.1991 0.7110 0.4153
Cl1B Cl 0.34802(4) 0.59423(2) 0.68953(3)
C1B C 0.45814(19) 0.36222(10) 0.87874(13)
H1B H 0.3959 0.4261 0.9167
H2B H 0.3478 0.3130 0.8414
H3B H 0.5482 0.3288 0.9601
P1B P 0.60996(4) 0.39677(2) 0.72790(3)
B1B B 0.43945(18) 0.47966(10) 0.57608(14)
Cl2B Cl 0.21289(4) 0.38853(2) 0.52133(3)
C2B C 0.83605(18) 0.46524(10) 0.81383(14)
H4B H 0.9024 0.4230 0.8972
H5B H 0.9346 0.4763 0.7391
H6B H 0.7942 0.5337 0.8519
C3B C 0.7013(2) 0.27447(10) 0.65751(14)
H7B H 0.7694 0.2330 0.7411
H8B H 0.5833 0.2346 0.6084
H9B H 0.8009 0.2890 0.5847
loop_
_geom_bond_atom_site_label_1
_geom_bond_atom_site_label_2
_geom_bond_site_symmetry_1
_geom_bond_site_symmetry_2
Cl1 B1 1_555 1_555
C1 H1 1_555 1_555
H2 C1 1_555 1_555
H3 C1 1_555 1_555
P1 C1 1_555 1_555
B1 P1 1_555 1_555
Cl2 B1 1_555 1_555
C2 P1 1_555 1_555
H4 C2 1_555 1_555
H5 C2 1_555 1_555
H6 C2 1_555 1_555
C3 P1 1_555 1_555
H7 C3 1_555 1_555
H8 C3 1_555 1_555
H9 C3 1_555 1_555
Cl1B B1B 1_555 1_555
C1B H1B 1_555 1_555
H2B C1B 1_555 1_555
H3B C1B 1_555 1_555
P1B C1B 1_555 1_555
B1B B1 1_555 1_555
Cl2B B1B 1_555 1_555
C2B P1B 1_555 1_555
H4B C2B 1_555 1_555
H5B C2B 1_555 1_555
H6B C2B 1_555 1_555
C3B P1B 1_555 1_555
H7B C3B 1_555 1_555
H8B C3B 1_555 1_555
H9B C3B 1_555 1_555
P1B B1B 1_555 1_555

#END
