
#######################################################################
#
#                 Cambridge Crystallographic Data Centre
#                                CCDC 
#
#######################################################################
#
# If this CIF has been generated from an entry in the Cambridge 
# Structural Database, then it will include bibliographic, chemical, 
# crystal, experimental, refinement or atomic coordinate data resulting 
# from the CCDC's data processing and validation procedures.
#
#######################################################################

data_AFEWUG
_chemical_formula_moiety         'C56 H38 B2,C7 H8'
_chemical_name_systematic        
'bis(\m-hydrido)-tetrakis(anthracen-9-yl)-di-boron toluene solvate'
_symmetry_cell_setting           monoclinic
_symmetry_space_group_name_H-M   'P 21/c'
_symmetry_Int_Tables_number      14
_space_group_name_Hall           '-P 2ybc'
loop_
_symmetry_equiv_pos_site_id
_symmetry_equiv_pos_as_xyz
1 x,y,z
2 -x,1/2+y,1/2-z
3 -x,-y,-z
4 x,1/2-y,1/2+z
_cell_length_a                   17.286(5)
_cell_length_b                   11.333(4)
_cell_length_c                   22.600(7)
_cell_angle_alpha                90
_cell_angle_beta                 96.45(3)
_cell_angle_gamma                90
_cell_volume                     4399.37
_exptl_crystal_colour            red
_exptl_crystal_description       block
_cell_formula_units_Z            4
loop_
_atom_site_label
_atom_site_type_symbol
_atom_site_fract_x
_atom_site_fract_y
_atom_site_fract_z
B1 B 0.22716(11) 0.21457(17) 0.34198(9)
H1 H 0.2495(10) 0.2374(16) 0.3937(8)
B2 B 0.27358(10) 0.13142(16) 0.40721(8)
H2 H 0.2494(11) 0.1108(18) 0.3514(9)
C1 C 0.36624(9) 0.12906(14) 0.41744(7)
C2 C 0.41239(9) 0.23301(14) 0.42109(7)
C3 C 0.42816(11) 0.44717(16) 0.42939(9)
H3 H 0.405472 0.522907 0.432633
C4 C 0.38187(10) 0.34944(15) 0.42570(8)
H4 H 0.327357 0.359086 0.426216
C5 C 0.50954(11) 0.43711(17) 0.42843(9)
H5 H 0.541237 0.505783 0.430298
C6 C 0.49574(9) 0.22494(16) 0.42208(8)
C7 C 0.54186(10) 0.32948(17) 0.42486(9)
H6 H 0.596553 0.323152 0.424187
C8 C 0.53062(10) 0.11455(16) 0.42194(8)
H7 H 0.585430 0.109670 0.421581
C9 C 0.52471(10) -0.10131(17) 0.42572(8)
H8 H 0.579826 -0.105461 0.427601
C10 C 0.48768(9) 0.01133(15) 0.42231(7)
C11 C 0.48328(11) -0.20210(17) 0.42636(9)
H9 H 0.509182 -0.276130 0.429709
C12 C 0.40098(11) -0.19696(16) 0.42199(9)
H10 H 0.371769 -0.268023 0.421435
C13 C 0.36333(10) -0.09148(16) 0.41860(8)
H11 H 0.308063 -0.090660 0.415505
C14 C 0.40417(9) 0.01817(15) 0.41953(7)
C15 C 0.21546(9) 0.06834(14) 0.44703(7)
C16 C 0.21579(9) 0.10359(15) 0.50696(8)
C17 C 0.27089(10) 0.18802(16) 0.53407(8)
H12 H 0.308015 0.221662 0.511062
C18 C 0.27094(11) 0.22067(18) 0.59190(9)
H13 H 0.308169 0.276403 0.608702
C19 C 0.21626(12) 0.1728(2) 0.62749(9)
H14 H 0.217391 0.195736 0.668006
C20 C 0.16190(11) 0.09367(19) 0.60356(9)
H15 H 0.125108 0.062497 0.627617
C21 C 0.15956(10) 0.05726(16) 0.54320(8)
C22 C 0.10345(10) -0.02189(16) 0.51797(9)
H16 H 0.065160 -0.050535 0.541392
C23 C 0.10222(10) -0.05976(15) 0.45949(8)
C24 C 0.04392(10) -0.14123(16) 0.43413(10)
H17 H 0.005490 -0.168473 0.457800
C25 C 0.04243(11) -0.17982(17) 0.37778(10)
H18 H 0.002541 -0.232205 0.361796
C26 C 0.09987(11) -0.14275(16) 0.34244(9)
H19 H 0.099468 -0.171898 0.302998
C27 C 0.15648(10) -0.06470(15) 0.36466(8)
H20 H 0.195053 -0.041674 0.340153
C28 C 0.15949(9) -0.01669(14) 0.42348(8)
C29 C 0.13383(9) 0.21634(15) 0.33484(8)
C30 C 0.09359(10) 0.15843(15) 0.28478(8)
C31 C 0.13253(11) 0.11050(16) 0.23783(8)
H21 H 0.187143 0.121368 0.238699
C32 C 0.09357(12) 0.04956(18) 0.19177(9)
H22 H 0.121045 0.020081 0.160772
C33 C 0.01243(12) 0.02985(18) 0.18976(10)
H23 H -0.014182 -0.014017 0.157913
C34 C -0.02711(11) 0.07344(18) 0.23316(10)
H24 H -0.081450 0.059084 0.231545
C35 C 0.01065(10) 0.14026(16) 0.28118(9)
C36 C -0.03025(10) 0.18612(17) 0.32521(10)
H25 H -0.084967 0.174486 0.322425
C37 C 0.00624(10) 0.24843(16) 0.37319(9)
C38 C -0.03771(11) 0.29837(17) 0.41703(10)
H26 H -0.092709 0.289554 0.412615
C39 C -0.00298(12) 0.35743(18) 0.46430(10)
H27 H -0.033340 0.389661 0.492886
C40 C 0.07936(11) 0.37165(17) 0.47147(9)
H28 H 0.103947 0.412552 0.505159
C41 C 0.12305(10) 0.32679(16) 0.43017(8)
H29 H 0.177815 0.338444 0.435646
C42 C 0.08976(10) 0.26277(15) 0.37886(8)
C43 C 0.28295(10) 0.27405(16) 0.29922(8)
C44 C 0.28172(10) 0.39855(16) 0.29306(8)
C45 C 0.22863(11) 0.47088(17) 0.32055(9)
H30 H 0.190286 0.434471 0.341436
C46 C 0.23133(12) 0.59066(18) 0.31772(10)
H31 H 0.195038 0.636067 0.336686
C47 C 0.28715(14) 0.6486(2) 0.28707(10)
H32 H 0.289661 0.732367 0.286771
C48 C 0.33694(13) 0.5844(2) 0.25818(10)
H33 H 0.372854 0.623698 0.236080
C49 C 0.33656(11) 0.45857(18) 0.26027(8)
C50 C 0.38984(11) 0.3930(2) 0.23303(9)
H34 H 0.425445 0.432564 0.210753
C51 C 0.39273(11) 0.2705(2) 0.23736(8)
C52 C 0.44916(12) 0.2049(2) 0.20936(9)
H35 H 0.485121 0.246135 0.188085
C53 C 0.45277(12) 0.0862(2) 0.21231(9)
H36 H 0.489972 0.044240 0.192574
C54 C 0.40059(11) 0.0248(2) 0.24508(9)
H37 H 0.403735 -0.058717 0.248029
C55 C 0.34579(11) 0.08359(18) 0.27253(8)
H38 H 0.311005 0.039581 0.293645
C56 C 0.33890(10) 0.20931(17) 0.27060(7)
C57 C 0.23838(10) 0.65371(19) 0.52613(10)
C58 C 0.24877(11) 0.55210(18) 0.56168(10)
H39 H 0.245316 0.476440 0.543482
C59 C 0.26375(13) 0.5609(2) 0.62197(10)
H40 H 0.271441 0.491275 0.645290
C60 C 0.26791(13) 0.6700(2) 0.64974(11)
H41 H 0.276940 0.675210 0.691905
C61 C 0.25885(12) 0.7706(2) 0.61569(11)
H42 H 0.262383 0.845694 0.634459
C62 C 0.24473(10) 0.76342(18) 0.55470(10)
H43 H 0.239218 0.833692 0.531697
C63 C 0.21979(13) 0.6445(2) 0.46109(10)
H44 H 0.226148 0.721817 0.442876
H45 H 0.165866 0.617844 0.451714
H46 H 0.254988 0.587547 0.445397
loop_
_geom_bond_atom_site_label_1
_geom_bond_atom_site_label_2
_geom_bond_site_symmetry_1
_geom_bond_site_symmetry_2
B1 H1 1_555 1_555
H1 B2 1_555 1_555
B2 H2 1_555 1_555
H2 B1 1_555 1_555
C1 B2 1_555 1_555
C2 C1 1_555 1_555
C3 H3 1_555 1_555
C4 C2 1_555 1_555
H4 C4 1_555 1_555
C5 C3 1_555 1_555
H5 C5 1_555 1_555
C6 C2 1_555 1_555
C7 C5 1_555 1_555
H6 C7 1_555 1_555
C8 C6 1_555 1_555
H7 C8 1_555 1_555
C9 H8 1_555 1_555
C10 C8 1_555 1_555
C11 C9 1_555 1_555
H9 C11 1_555 1_555
C12 C11 1_555 1_555
H10 C12 1_555 1_555
C13 C12 1_555 1_555
H11 C13 1_555 1_555
C14 C1 1_555 1_555
C15 B2 1_555 1_555
C16 C15 1_555 1_555
C17 C16 1_555 1_555
H12 C17 1_555 1_555
C18 C17 1_555 1_555
H13 C18 1_555 1_555
C19 C18 1_555 1_555
H14 C19 1_555 1_555
C20 C19 1_555 1_555
H15 C20 1_555 1_555
C21 C16 1_555 1_555
C22 C21 1_555 1_555
H16 C22 1_555 1_555
C23 C22 1_555 1_555
C24 C23 1_555 1_555
H17 C24 1_555 1_555
C25 C24 1_555 1_555
H18 C25 1_555 1_555
C26 C25 1_555 1_555
H19 C26 1_555 1_555
C27 C26 1_555 1_555
H20 C27 1_555 1_555
C28 C15 1_555 1_555
C29 B1 1_555 1_555
C30 C29 1_555 1_555
C31 C30 1_555 1_555
H21 C31 1_555 1_555
C32 C31 1_555 1_555
H22 C32 1_555 1_555
C33 C32 1_555 1_555
H23 C33 1_555 1_555
C34 C33 1_555 1_555
H24 C34 1_555 1_555
C35 C30 1_555 1_555
C36 C35 1_555 1_555
H25 C36 1_555 1_555
C37 C36 1_555 1_555
C38 C37 1_555 1_555
H26 C38 1_555 1_555
C39 C38 1_555 1_555
H27 C39 1_555 1_555
C40 C39 1_555 1_555
H28 C40 1_555 1_555
C41 C40 1_555 1_555
H29 C41 1_555 1_555
C42 C29 1_555 1_555
C43 B1 1_555 1_555
C44 C43 1_555 1_555
C45 C44 1_555 1_555
H30 C45 1_555 1_555
C46 C45 1_555 1_555
H31 C46 1_555 1_555
C47 C46 1_555 1_555
H32 C47 1_555 1_555
C48 C47 1_555 1_555
H33 C48 1_555 1_555
C49 C44 1_555 1_555
C50 C49 1_555 1_555
H34 C50 1_555 1_555
C51 C50 1_555 1_555
C52 C51 1_555 1_555
H35 C52 1_555 1_555
C53 C52 1_555 1_555
H36 C53 1_555 1_555
C54 C53 1_555 1_555
H37 C54 1_555 1_555
C55 C54 1_555 1_555
H38 C55 1_555 1_555
C56 C43 1_555 1_555
C57 C58 1_555 1_555
C58 H39 1_555 1_555
C59 C58 1_555 1_555
H40 C59 1_555 1_555
C60 C59 1_555 1_555
H41 C60 1_555 1_555
C61 C60 1_555 1_555
H42 C61 1_555 1_555
C62 C57 1_555 1_555
H43 C62 1_555 1_555
C63 C57 1_555 1_555
H44 C63 1_555 1_555
H45 C63 1_555 1_555
H46 C63 1_555 1_555
C3 C4 1_555 1_555
C6 C7 1_555 1_555
C9 C10 1_555 1_555
C10 C14 1_555 1_555
C13 C14 1_555 1_555
C20 C21 1_555 1_555
C23 C28 1_555 1_555
C27 C28 1_555 1_555
C34 C35 1_555 1_555
C37 C42 1_555 1_555
C41 C42 1_555 1_555
C48 C49 1_555 1_555
C51 C56 1_555 1_555
C55 C56 1_555 1_555
C61 C62 1_555 1_555

#END
