
#######################################################################
#
#                 Cambridge Crystallographic Data Centre
#                                CCDC 
#
#######################################################################
#
# If this CIF has been generated from an entry in the Cambridge 
# Structural Database, then it will include bibliographic, chemical, 
# crystal, experimental, refinement or atomic coordinate data resulting 
# from the CCDC's data processing and validation procedures.
#
#######################################################################

data_AFEWAM
_chemical_formula_moiety         'C28 H18 B2 F2'
_chemical_name_systematic        1,1-bis(anthracen-9-yl)-2,2-difluorodiborane
_symmetry_cell_setting           monoclinic
_symmetry_space_group_name_H-M   'P 21/c'
_symmetry_Int_Tables_number      14
_space_group_name_Hall           '-P 2ybc'
loop_
_symmetry_equiv_pos_site_id
_symmetry_equiv_pos_as_xyz
1 x,y,z
2 -x,1/2+y,1/2-z
3 -x,-y,-z
4 x,1/2-y,1/2+z
_cell_length_a                   15.010(8)
_cell_length_b                   13.878(7)
_cell_length_c                   19.709(10)
_cell_angle_alpha                90
_cell_angle_beta                 93.77(2)
_cell_angle_gamma                90
_cell_volume                     4096.67
_exptl_crystal_colour            red
_exptl_crystal_description       block
_cell_formula_units_Z            8
loop_
_atom_site_label
_atom_site_type_symbol
_atom_site_fract_x
_atom_site_fract_y
_atom_site_fract_z
C1 C 0.91476(14) 0.63102(14) 0.57755(9)
C2 C 0.94060(14) 0.53722(14) 0.60051(9)
C3 C 0.98215(14) 0.52004(15) 0.66651(10)
H1 H 0.9915 0.5715 0.6963
C4 C 1.00852(15) 0.43038(15) 0.68701(10)
H2 H 1.0370 0.4219 0.7299
C5 C 0.99322(16) 0.35038(15) 0.64404(11)
H3 H 1.0124 0.2895 0.6583
C6 C 0.95070(15) 0.36195(15) 0.58224(11)
H4 H 0.9396 0.3084 0.5546
C7 C 0.92254(14) 0.45440(15) 0.55855(10)
C8 C 0.87749(14) 0.46651(16) 0.49556(10)
H5 H 0.8659 0.4127 0.4683
C9 C 0.84899(14) 0.55611(17) 0.47170(10)
C10 C 0.80255(15) 0.56597(19) 0.40663(11)
H6 H 0.7916 0.5116 0.3798
C11 C 0.77424(16) 0.6529(2) 0.38343(11)
H7 H 0.7442 0.6582 0.3408
C12 C 0.79017(16) 0.73516(18) 0.42357(11)
H8 H 0.7697 0.7947 0.4075
C13 C 0.83507(16) 0.72948(17) 0.48581(10)
H9 H 0.8456 0.7854 0.5110
C14 C 0.86624(14) 0.63974(15) 0.51299(10)
C15 C 0.89708(15) 0.81747(15) 0.62859(9)
C16 C 0.81169(15) 0.81691(15) 0.65503(9)
C17 C 0.75878(16) 0.73235(16) 0.65877(10)
H10 H 0.7808 0.6742 0.6435
C18 C 0.67697(16) 0.73445(17) 0.68413(10)
H11 H 0.6433 0.6782 0.6843
C19 C 0.64168(16) 0.82041(17) 0.71030(10)
H12 H 0.5863 0.8202 0.7289
C20 C 0.68950(16) 0.90293(17) 0.70785(10)
H13 H 0.6667 0.9594 0.7253
C21 C 0.77372(15) 0.90506(16) 0.67914(10)
C22 C 0.82113(16) 0.99066(15) 0.67326(10)
H14 H 0.7979 1.0471 0.6905
C23 C 0.90138(16) 0.99468(15) 0.64279(10)
C24 C 0.94755(17) 1.08267(16) 0.63387(11)
H15 H 0.9234 1.1397 0.6493
C25 C 1.02564(17) 1.08564(16) 0.60355(11)
H16 H 1.0544 1.1442 0.5982
C26 C 1.06348(17) 0.99989(16) 0.57998(11)
H17 H 1.1172 1.0022 0.5590
C27 C 1.02200(15) 0.91391(16) 0.58775(10)
H18 H 1.0476 0.8583 0.5713
C28 C 0.94046(15) 0.90675(15) 0.62034(10)
F1 F 1.07083(9) 0.73707(9) 0.72260(6)
B1 B 1.05395(18) 0.71774(17) 0.65697(12)
F2 F 1.12690(9) 0.69953(9) 0.62495(6)
B2 B 0.94882(18) 0.72089(17) 0.61790(11)
C29 C 0.38457(15) 0.65413(15) 0.57626(10)
C30 C 0.41807(15) 0.55983(15) 0.59074(10)
C31 C 0.46997(15) 0.53663(16) 0.65189(10)
H19 H 0.4843 0.5854 0.6831
C32 C 0.49908(16) 0.44565(16) 0.66602(12)
H20 H 0.5314 0.4330 0.7069
C33 C 0.48076(17) 0.37051(17) 0.61932(13)
H21 H 0.4999 0.3081 0.6296
C34 C 0.43529(16) 0.38956(16) 0.55964(12)
H22 H 0.4242 0.3397 0.5287
C35 C 0.40386(15) 0.48346(15) 0.54248(11)
C36 C 0.36017(15) 0.50394(17) 0.47991(11)
H23 H 0.3508 0.4542 0.4486
C37 C 0.33002(15) 0.59516(17) 0.46214(10)
C38 C 0.28800(16) 0.61445(19) 0.39652(11)
H24 H 0.2813 0.5648 0.3649
C39 C 0.25781(16) 0.70349(19) 0.37949(11)
H25 H 0.2317 0.7152 0.3362
C40 C 0.26603(17) 0.77820(18) 0.42741(11)
H26 H 0.2443 0.8391 0.4157
C41 C 0.30522(16) 0.76306(17) 0.49065(11)
H27 H 0.3087 0.8137 0.5216
C42 C 0.34108(15) 0.67186(15) 0.51084(10)
C43 C 0.40022(15) 0.84256(15) 0.62707(10)
C44 C 0.34236(15) 0.90634(15) 0.65972(10)
C45 C 0.26314(15) 0.87419(16) 0.68724(10)
H28 H 0.2488 0.8091 0.6844
C46 C 0.20698(17) 0.93507(16) 0.71784(11)
H29 H 0.1562 0.9110 0.7365
C47 C 0.22596(17) 1.03479(17) 0.72126(11)
H30 H 0.1875 1.0765 0.7420
C48 C 0.30008(18) 1.06937(16) 0.69437(11)
H31 H 0.3115 1.1352 0.6963
C49 C 0.36108(16) 1.00782(15) 0.66324(10)
C50 C 0.43763(16) 1.04230(15) 0.63600(10)
H32 H 0.4509 1.1076 0.6399
C51 C 0.49517(16) 0.98289(15) 0.60312(10)
C52 C 0.57230(16) 1.01987(17) 0.57427(11)
H33 H 0.5856 1.0851 0.5788
C53 C 0.62671(17) 0.96238(18) 0.54046(11)
H34 H 0.6771 0.9881 0.5222
C54 C 0.60725(16) 0.86316(17) 0.53276(11)
H35 H 0.6443 0.8241 0.5086
C55 C 0.53495(16) 0.82451(16) 0.56037(10)
H36 H 0.5242 0.7588 0.5556
C56 C 0.47474(15) 0.88188(15) 0.59661(10)
B3 B 0.38642(17) 0.73112(18) 0.63365(12)
F3 F 0.30310(10) 0.64038(10) 0.73149(7)
B4 B 0.3718(2) 0.69287(18) 0.71455(13)
F4 F 0.42876(11) 0.71425(10) 0.76678(6)
loop_
_geom_bond_atom_site_label_1
_geom_bond_atom_site_label_2
_geom_bond_site_symmetry_1
_geom_bond_site_symmetry_2
C1 C2 1_555 1_555
C2 C3 1_555 1_555
C3 H1 1_555 1_555
C4 C3 1_555 1_555
H2 C4 1_555 1_555
C5 C4 1_555 1_555
H3 C5 1_555 1_555
C6 C5 1_555 1_555
H4 C6 1_555 1_555
C7 C2 1_555 1_555
C8 C7 1_555 1_555
H5 C8 1_555 1_555
C9 C8 1_555 1_555
C10 C9 1_555 1_555
H6 C10 1_555 1_555
C11 C10 1_555 1_555
H7 C11 1_555 1_555
C12 C11 1_555 1_555
H8 C12 1_555 1_555
C13 C12 1_555 1_555
H9 C13 1_555 1_555
C14 C1 1_555 1_555
C15 C16 1_555 1_555
C16 C17 1_555 1_555
C17 H10 1_555 1_555
C18 C17 1_555 1_555
H11 C18 1_555 1_555
C19 C18 1_555 1_555
H12 C19 1_555 1_555
C20 C19 1_555 1_555
H13 C20 1_555 1_555
C21 C16 1_555 1_555
C22 C21 1_555 1_555
H14 C22 1_555 1_555
C23 C22 1_555 1_555
C24 C23 1_555 1_555
H15 C24 1_555 1_555
C25 C24 1_555 1_555
H16 C25 1_555 1_555
C26 C25 1_555 1_555
H17 C26 1_555 1_555
C27 C26 1_555 1_555
H18 C27 1_555 1_555
C28 C15 1_555 1_555
F1 B1 1_555 1_555
B1 F2 1_555 1_555
B2 C1 1_555 1_555
C29 C30 1_555 1_555
C30 C31 1_555 1_555
C31 H19 1_555 1_555
C32 C31 1_555 1_555
H20 C32 1_555 1_555
C33 C32 1_555 1_555
H21 C33 1_555 1_555
C34 C33 1_555 1_555
H22 C34 1_555 1_555
C35 C30 1_555 1_555
C36 C35 1_555 1_555
H23 C36 1_555 1_555
C37 C36 1_555 1_555
C38 C37 1_555 1_555
H24 C38 1_555 1_555
C39 C38 1_555 1_555
H25 C39 1_555 1_555
C40 C39 1_555 1_555
H26 C40 1_555 1_555
C41 C40 1_555 1_555
H27 C41 1_555 1_555
C42 C29 1_555 1_555
C43 C44 1_555 1_555
C44 C45 1_555 1_555
C45 H28 1_555 1_555
C46 C45 1_555 1_555
H29 C46 1_555 1_555
C47 C46 1_555 1_555
H30 C47 1_555 1_555
C48 C47 1_555 1_555
H31 C48 1_555 1_555
C49 C44 1_555 1_555
C50 C49 1_555 1_555
H32 C50 1_555 1_555
C51 C50 1_555 1_555
C52 C51 1_555 1_555
H33 C52 1_555 1_555
C53 C52 1_555 1_555
H34 C53 1_555 1_555
C54 C53 1_555 1_555
H35 C54 1_555 1_555
C55 C54 1_555 1_555
H36 C55 1_555 1_555
C56 C43 1_555 1_555
B3 C29 1_555 1_555
F3 B4 1_555 1_555
B4 B3 1_555 1_555
F4 B4 1_555 1_555
C6 C7 1_555 1_555
C9 C14 1_555 1_555
C13 C14 1_555 1_555
C15 B2 1_555 1_555
C20 C21 1_555 1_555
C23 C28 1_555 1_555
C27 C28 1_555 1_555
B1 B2 1_555 1_555
C34 C35 1_555 1_555
C37 C42 1_555 1_555
C41 C42 1_555 1_555
C43 B3 1_555 1_555
C48 C49 1_555 1_555
C51 C56 1_555 1_555
C55 C56 1_555 1_555

#END
