
#######################################################################
#
#                 Cambridge Crystallographic Data Centre
#                                CCDC 
#
#######################################################################
#
# If this CIF has been generated from an entry in the Cambridge 
# Structural Database, then it will include bibliographic, chemical, 
# crystal, experimental, refinement or atomic coordinate data resulting 
# from the CCDC's data processing and validation procedures.
#
#######################################################################

data_AFEXAN
_chemical_formula_moiety         'C19 H22 F1 N1 Si1'
_chemical_name_systematic        
7-fluoro-6,8-dimethyl-6-phenyl-3,4,5,6-tetrahydro-2H-1,5-methano-1,6-benzazasilocine
_symmetry_cell_setting           triclinic
_symmetry_space_group_name_H-M   'P -1'
_symmetry_Int_Tables_number      2
_space_group_name_Hall           '-P 1'
loop_
_symmetry_equiv_pos_site_id
_symmetry_equiv_pos_as_xyz
1 x,y,z
2 -x,-y,-z
_cell_length_a                   8.3674(4)
_cell_length_b                   9.8239(5)
_cell_length_c                   10.5168(5)
_cell_angle_alpha                84.3339(17)
_cell_angle_beta                 89.5971(18)
_cell_angle_gamma                71.2191(17)
_cell_volume                     814.178
_exptl_crystal_colour            colorless
_exptl_crystal_description       block
_cell_formula_units_Z            2
loop_
_atom_site_label
_atom_site_type_symbol
_atom_site_fract_x
_atom_site_fract_y
_atom_site_fract_z
Si1 Si 0.25475(3) 0.18190(3) 0.26584(3)
C1 C 0.35158(12) -0.01933(10) 0.26566(9)
C2 C 0.27247(12) -0.11577(11) 0.31882(9)
C3 C 0.34297(14) -0.26446(11) 0.33868(10)
C4 C 0.50992(14) -0.32025(11) 0.30033(11)
H1 H 0.565925 -0.421555 0.313283
C5 C 0.59571(14) -0.23160(11) 0.24395(11)
H2 H 0.708680 -0.273037 0.218271
C6 C 0.51773(13) -0.08139(11) 0.22434(9)
C7 C 0.24593(17) -0.35853(13) 0.39797(13)
H3 H 0.216202 -0.334434 0.485157
H4 H 0.315736 -0.460294 0.400400
H5 H 0.142639 -0.342136 0.346965
F1 F 0.10994(8) -0.05711(7) 0.35709(6)
N1 N 0.61257(11) 0.00183(10) 0.16269(8)
C8 C 0.51479(14) 0.14615(12) 0.10327(10)
H6 H 0.426936 0.137491 0.044993
H7 H 0.590661 0.187368 0.051551
C9 C 0.42958(14) 0.24991(11) 0.20330(10)
H8 H 0.377316 0.348696 0.157801
C10 C 0.56467(14) 0.25671(12) 0.29938(11)
H9 H 0.634632 0.310982 0.256491
H10 H 0.507884 0.310086 0.370965
C11 C 0.67950(14) 0.10675(12) 0.35288(10)
H11 H 0.774313 0.116711 0.402766
H12 H 0.614797 0.060046 0.411239
C12 C 0.74946(13) 0.01161(12) 0.24569(10)
H13 H 0.825553 0.052179 0.193565
H14 H 0.816478 -0.086516 0.283330
C13 C 0.07242(13) 0.25066(11) 0.14798(10)
C14 C -0.05345(14) 0.38422(12) 0.15563(10)
H15 H -0.048899 0.439224 0.224101
C15 C -0.18499(15) 0.43794(12) 0.06495(11)
H16 H -0.268665 0.528857 0.071800
C16 C -0.19381(15) 0.35866(12) -0.03537(11)
H17 H -0.284193 0.394585 -0.096693
C17 C -0.07009(15) 0.22665(12) -0.04583(11)
H18 H -0.075138 0.172549 -0.114869
C18 C 0.06141(14) 0.17353(12) 0.04485(11)
H19 H 0.145445 0.083134 0.036697
C19 C 0.18680(15) 0.23429(12) 0.42830(11)
H20 H 0.133071 0.339283 0.423838
H21 H 0.285528 0.204918 0.486612
H22 H 0.106114 0.186183 0.459818
loop_
_geom_bond_atom_site_label_1
_geom_bond_atom_site_label_2
_geom_bond_site_symmetry_1
_geom_bond_site_symmetry_2
Si1 C1 1_555 1_555
C1 C2 1_555 1_555
C2 C3 1_555 1_555
C3 C4 1_555 1_555
C4 H1 1_555 1_555
C5 C4 1_555 1_555
H2 C5 1_555 1_555
C6 C1 1_555 1_555
C7 C3 1_555 1_555
H3 C7 1_555 1_555
H4 C7 1_555 1_555
H5 C7 1_555 1_555
F1 C2 1_555 1_555
N1 C6 1_555 1_555
C8 N1 1_555 1_555
H6 C8 1_555 1_555
H7 C8 1_555 1_555
C9 Si1 1_555 1_555
H8 C9 1_555 1_555
C10 C9 1_555 1_555
H9 C10 1_555 1_555
H10 C10 1_555 1_555
C11 C10 1_555 1_555
H11 C11 1_555 1_555
H12 C11 1_555 1_555
C12 N1 1_555 1_555
H13 C12 1_555 1_555
H14 C12 1_555 1_555
C13 Si1 1_555 1_555
C14 C13 1_555 1_555
H15 C14 1_555 1_555
C15 C14 1_555 1_555
H16 C15 1_555 1_555
C16 C15 1_555 1_555
H17 C16 1_555 1_555
C17 C16 1_555 1_555
H18 C17 1_555 1_555
C18 C13 1_555 1_555
H19 C18 1_555 1_555
C19 Si1 1_555 1_555
H20 C19 1_555 1_555
H21 C19 1_555 1_555
H22 C19 1_555 1_555
C5 C6 1_555 1_555
C8 C9 1_555 1_555
C11 C12 1_555 1_555
C17 C18 1_555 1_555

#END
