
#######################################################################
#
#                 Cambridge Crystallographic Data Centre
#                                CCDC 
#
#######################################################################
#
# If this CIF has been generated from an entry in the Cambridge 
# Structural Database, then it will include bibliographic, chemical, 
# crystal, experimental, refinement or atomic coordinate data resulting 
# from the CCDC's data processing and validation procedures.
#
#######################################################################

data_AFEXEP
_chemical_formula_moiety         'C9 H10 N2 O3'
_chemical_name_systematic        N-(4-Nitrophenyl)propionamide
_symmetry_cell_setting           orthorhombic
_symmetry_space_group_name_H-M   'P b c a'
_symmetry_Int_Tables_number      61
_space_group_name_Hall           '-P 2ac 2ab'
loop_
_symmetry_equiv_pos_site_id
_symmetry_equiv_pos_as_xyz
1 x,y,z
2 1/2-x,-y,1/2+z
3 -x,1/2+y,1/2-z
4 1/2+x,1/2-y,-z
5 -x,-y,-z
6 1/2+x,y,1/2-z
7 x,1/2-y,1/2+z
8 1/2-x,1/2+y,z
_cell_length_a                   9.763(3)
_cell_length_b                   9.278(3)
_cell_length_c                   20.586(5)
_cell_angle_alpha                90
_cell_angle_beta                 90
_cell_angle_gamma                90
_cell_volume                     1864.7
_exptl_crystal_colour            yellow
_exptl_crystal_description       prism
_cell_formula_units_Z            8
loop_
_atom_site_label
_atom_site_type_symbol
_atom_site_fract_x
_atom_site_fract_y
_atom_site_fract_z
N1 N 0.18357(19) 0.9563(2) 0.29421(10)
H1 H 0.1012 0.9815 0.2834
N2 N 0.2399(3) 0.5853(3) 0.50795(12)
O1 O 0.39868(18) 0.9788(2) 0.25400(9)
O2 O 0.1359(2) 0.5464(3) 0.53559(11)
O3 O 0.3528(3) 0.5507(3) 0.52575(13)
C1 C 0.2042(2) 0.8624(3) 0.34674(12)
C2 C 0.3325(3) 0.8307(3) 0.37243(13)
H2 H 0.4107 0.8714 0.3544
C3 C 0.3431(3) 0.7388(3) 0.42472(13)
H3 H 0.4286 0.7164 0.4418
C4 C 0.2270(3) 0.6805(3) 0.45151(12)
C5 C 0.0993(3) 0.7117(3) 0.42755(14)
H4 H 0.0213 0.6728 0.4467
C6 C 0.0888(3) 0.8013(3) 0.37478(13)
H5 H 0.0028 0.8214 0.3575
C7 C 0.2767(2) 1.0102(3) 0.25161(13)
C8 C 0.2166(3) 1.1091(3) 0.20158(13)
H6 H 0.1601 1.1802 0.2234
H7 H 0.1576 1.0534 0.1732
C9 C 0.3215(4) 1.1863(4) 0.16084(15)
H8 H 0.3810 1.2412 0.1885
H9 H 0.2760 1.2498 0.1310
H10 H 0.3745 1.1170 0.1370
loop_
_geom_bond_atom_site_label_1
_geom_bond_atom_site_label_2
_geom_bond_site_symmetry_1
_geom_bond_site_symmetry_2
N1 H1 1_555 1_555
N2 O2 1_555 1_555
O1 C7 1_555 1_555
O3 N2 1_555 1_555
C1 N1 1_555 1_555
C2 C1 1_555 1_555
H2 C2 1_555 1_555
C3 C2 1_555 1_555
H3 C3 1_555 1_555
C4 N2 1_555 1_555
C5 C4 1_555 1_555
H4 C5 1_555 1_555
C6 C1 1_555 1_555
H5 C6 1_555 1_555
C7 N1 1_555 1_555
C8 C7 1_555 1_555
H6 C8 1_555 1_555
H7 C8 1_555 1_555
C9 C8 1_555 1_555
H8 C9 1_555 1_555
H9 C9 1_555 1_555
H10 C9 1_555 1_555
C3 C4 1_555 1_555
C5 C6 1_555 1_555

#END
