
#######################################################################
#
#                 Cambridge Crystallographic Data Centre
#                                CCDC 
#
#######################################################################
#
# If this CIF has been generated from an entry in the Cambridge 
# Structural Database, then it will include bibliographic, chemical, 
# crystal, experimental, refinement or atomic coordinate data resulting 
# from the CCDC's data processing and validation procedures.
#
#######################################################################

data_AFEXER
_chemical_formula_moiety         'C26 H29 N1 Si1'
_chemical_name_systematic        
3-benzyl-6,8-dimethyl-6-phenyl-3,4,5,6-tetrahydro-2H-1,5-methano-1,6-benzazasilocine
_symmetry_cell_setting           triclinic
_symmetry_space_group_name_H-M   'P -1'
_symmetry_Int_Tables_number      2
_space_group_name_Hall           '-P 1'
loop_
_symmetry_equiv_pos_site_id
_symmetry_equiv_pos_as_xyz
1 x,y,z
2 -x,-y,-z
_cell_length_a                   8.6064(12)
_cell_length_b                   11.5010(17)
_cell_length_c                   12.8161(18)
_cell_angle_alpha                71.480(5)
_cell_angle_beta                 71.156(5)
_cell_angle_gamma                69.281(5)
_cell_volume                     1092.89
_exptl_crystal_colour            colorless
_exptl_crystal_description       block
_cell_formula_units_Z            2
loop_
_atom_site_label
_atom_site_type_symbol
_atom_site_fract_x
_atom_site_fract_y
_atom_site_fract_z
Si1 Si 0.47798(4) 0.62285(3) 0.73540(2)
C1 C 0.49942(13) 0.71339(10) 0.58444(9)
C2 C 0.61256(14) 0.78968(10) 0.53462(9)
H1 H 0.689334 0.785257 0.575816
C3 C 0.61735(15) 0.87118(11) 0.42802(10)
C4 C 0.50304(18) 0.87594(13) 0.36944(10)
H2 H 0.500063 0.933257 0.297502
C5 C 0.39399(17) 0.79891(14) 0.41400(10)
H3 H 0.319349 0.802557 0.371551
C6 C 0.39236(14) 0.71585(11) 0.52065(9)
C7 C 0.74039(19) 0.95181(12) 0.37957(12)
H4 H 0.692254 1.028765 0.409845
H5 H 0.759678 0.976358 0.296857
H6 H 0.849253 0.902731 0.400509
N1 N 0.28345(13) 0.63367(11) 0.55911(9)
C8 C 0.10166(16) 0.70006(15) 0.59706(12)
H7 H 0.031449 0.644417 0.604666
H8 H 0.069691 0.778758 0.538775
C9 C 0.06118(14) 0.73564(13) 0.71063(10)
H9 H 0.124287 0.798256 0.700172
C10 C 0.12215(15) 0.61662(13) 0.80005(11)
H10 H 0.048225 0.559869 0.819682
H11 H 0.109901 0.642689 0.869510
C11 C 0.30983(15) 0.54174(11) 0.75950(11)
H12 H 0.335336 0.457995 0.815182
C12 C 0.33459(17) 0.51612(12) 0.64340(12)
H13 H 0.456415 0.472126 0.615588
H14 H 0.266226 0.458555 0.652542
C13 C -0.13160(16) 0.79973(16) 0.74646(12)
H15 H -0.167036 0.869033 0.682186
H16 H -0.194054 0.735974 0.762594
C14 C -0.18388(14) 0.85492(13) 0.84910(11)
C15 C -0.26227(18) 0.79466(15) 0.95467(13)
H17 H -0.283599 0.716165 0.963142
C16 C -0.3106(2) 0.84615(17) 1.04866(13)
H18 H -0.365564 0.803503 1.120140
C17 C -0.2790(2) 0.95804(17) 1.03824(15)
H19 H -0.310822 0.993028 1.102522
C18 C -0.2011(3) 1.01980(18) 0.93443(17)
H20 H -0.178656 1.097540 0.927067
C19 C -0.1549(2) 0.96924(17) 0.84000(15)
H21 H -0.102731 1.013589 0.768375
C20 C 0.68816(14) 0.50112(10) 0.74954(9)
C21 C 0.73692(17) 0.45029(12) 0.85273(10)
H22 H 0.663004 0.480022 0.917844
C22 C 0.89084(18) 0.35739(13) 0.86216(12)
H23 H 0.920326 0.323381 0.933352
C23 C 1.00077(17) 0.31460(13) 0.76803(13)
H24 H 1.106338 0.251452 0.774276
C24 C 0.95727(18) 0.36362(13) 0.66463(12)
H25 H 1.032977 0.334220 0.599776
C25 C 0.80293(16) 0.45582(12) 0.65556(11)
H26 H 0.774483 0.488954 0.584039
C26 C 0.41594(16) 0.73260(11) 0.83199(10)
H27 H 0.494895 0.785539 0.805701
H28 H 0.421221 0.682135 0.909048
H29 H 0.299217 0.787627 0.831828
loop_
_geom_bond_atom_site_label_1
_geom_bond_atom_site_label_2
_geom_bond_site_symmetry_1
_geom_bond_site_symmetry_2
Si1 C1 1_555 1_555
C1 C2 1_555 1_555
C2 H1 1_555 1_555
C3 C2 1_555 1_555
C4 C3 1_555 1_555
H2 C4 1_555 1_555
C5 C4 1_555 1_555
H3 C5 1_555 1_555
C6 C1 1_555 1_555
C7 C3 1_555 1_555
H4 C7 1_555 1_555
H5 C7 1_555 1_555
H6 C7 1_555 1_555
N1 C6 1_555 1_555
C8 N1 1_555 1_555
H7 C8 1_555 1_555
H8 C8 1_555 1_555
C9 C8 1_555 1_555
H9 C9 1_555 1_555
C10 C9 1_555 1_555
H10 C10 1_555 1_555
H11 C10 1_555 1_555
C11 Si1 1_555 1_555
H12 C11 1_555 1_555
C12 N1 1_555 1_555
H13 C12 1_555 1_555
H14 C12 1_555 1_555
C13 C9 1_555 1_555
H15 C13 1_555 1_555
H16 C13 1_555 1_555
C14 C13 1_555 1_555
C15 C14 1_555 1_555
H17 C15 1_555 1_555
C16 C15 1_555 1_555
H18 C16 1_555 1_555
C17 C16 1_555 1_555
H19 C17 1_555 1_555
C18 C17 1_555 1_555
H20 C18 1_555 1_555
C19 C14 1_555 1_555
H21 C19 1_555 1_555
C20 Si1 1_555 1_555
C21 C20 1_555 1_555
H22 C21 1_555 1_555
C22 C21 1_555 1_555
H23 C22 1_555 1_555
C23 C22 1_555 1_555
H24 C23 1_555 1_555
C24 C23 1_555 1_555
H25 C24 1_555 1_555
C25 C20 1_555 1_555
H26 C25 1_555 1_555
C26 Si1 1_555 1_555
H27 C26 1_555 1_555
H28 C26 1_555 1_555
H29 C26 1_555 1_555
C5 C6 1_555 1_555
C10 C11 1_555 1_555
C11 C12 1_555 1_555
C18 C19 1_555 1_555
C24 C25 1_555 1_555

#END
