
#######################################################################
#
#                 Cambridge Crystallographic Data Centre
#                                CCDC 
#
#######################################################################
#
# If this CIF has been generated from an entry in the Cambridge 
# Structural Database, then it will include bibliographic, chemical, 
# crystal, experimental, refinement or atomic coordinate data resulting 
# from the CCDC's data processing and validation procedures.
#
#######################################################################

data_AFEYEQ
_chemical_formula_moiety         'C25 H20 N6 O3,C1 H1 Cl3'
_chemical_name_systematic        
'2a,11b-Diphenyl-2a,11b-dihydro-6H-2,3,4a,5a,10b,11a-hexaazabenzo[a]pentaleno[1,6-fg]azulene-1,4,6(2H,3H)-trione chloroform solvate'
_symmetry_cell_setting           monoclinic
_symmetry_space_group_name_H-M   'P 21/n'
_symmetry_Int_Tables_number      14
_space_group_name_Hall           '-P 2yn'
loop_
_symmetry_equiv_pos_site_id
_symmetry_equiv_pos_as_xyz
1 x,y,z
2 1/2-x,1/2+y,1/2-z
3 -x,-y,-z
4 1/2+x,1/2-y,1/2+z
_cell_length_a                   17.3315(12)
_cell_length_b                   8.4507(6)
_cell_length_c                   17.7874(12)
_cell_angle_alpha                90
_cell_angle_beta                 94.6520(10)
_cell_angle_gamma                90
_cell_volume                     2596.62
_exptl_crystal_colour            colorless
_exptl_crystal_description       block
_cell_formula_units_Z            4
_exptl_crystal_recrystallization_method methanol/chloroform
loop_
_atom_site_label
_atom_site_type_symbol
_atom_site_fract_x
_atom_site_fract_y
_atom_site_fract_z
C1 C -0.01228(12) 0.6113(2) 0.09136(11)
C2 C -0.08340(13) 0.6849(3) 0.07437(13)
H1 H -0.0897 0.7649 0.0385
C3 C -0.14406(14) 0.6327(3) 0.11352(14)
H2 H -0.1925 0.6790 0.1037
C4 C -0.13512(15) 0.5126(3) 0.16741(14)
H3 H -0.1777 0.4796 0.1919
C5 C -0.06507(15) 0.4427(3) 0.18466(13)
H4 H -0.0592 0.3637 0.2211
C6 C -0.00201(13) 0.4933(2) 0.14600(11)
C7 C 0.07793(12) 0.4425(2) 0.15020(11)
C8 C 0.19109(11) 0.5352(2) 0.08132(11)
H5 H 0.2180 0.4513 0.1099
H6 H 0.1949 0.5134 0.0282
C9 C 0.07849(11) 0.7535(2) 0.00801(11)
H7 H 0.0997 0.7030 -0.0348
H8 H 0.0327 0.8116 -0.0108
C10 C 0.24996(12) 0.7221(2) 0.17428(11)
C11 C 0.11468(11) 0.9955(2) 0.08124(10)
C12 C 0.21600(10) 0.8227(2) 0.05273(10)
C13 C 0.25256(11) 0.8065(2) -0.02170(10)
C14 C 0.31630(13) 0.7111(3) -0.02762(13)
H9 H 0.3367 0.6539 0.0140
C15 C 0.35027(16) 0.7001(3) -0.09556(16)
H10 H 0.3932 0.6354 -0.0990
C16 C 0.32150(18) 0.7826(4) -0.15692(15)
H11 H 0.3443 0.7735 -0.2023
C17 C 0.25842(18) 0.8798(4) -0.15183(15)
H12 H 0.2390 0.9378 -0.1936
C18 C 0.22375(14) 0.8913(3) -0.08427(12)
H13 H 0.1809 0.9565 -0.0811
C19 C 0.24895(11) 0.9617(2) 0.10817(10)
C20 C 0.31752(12) 1.0523(2) 0.08231(12)
C21 C 0.39225(14) 1.0119(3) 0.10742(17)
H14 H 0.4010 0.9328 0.1435
C22 C 0.45422(17) 1.0884(4) 0.0792(2)
H15 H 0.5045 1.0594 0.0958
C23 C 0.4419(2) 1.2067(5) 0.0271(2)
H16 H 0.4838 1.2583 0.0085
C24 C 0.3686(2) 1.2488(4) 0.00243(19)
H17 H 0.3605 1.3292 -0.0330
C25 C 0.30584(16) 1.1725(3) 0.02971(15)
H18 H 0.2558 1.2022 0.0127
N1 N 0.11038(9) 0.53202(19) 0.09645(9)
N2 N 0.05607(9) 0.6324(2) 0.05924(11)
N3 N 0.22939(9) 0.68300(17) 0.09983(8)
N4 N 0.13463(9) 0.86380(18) 0.04135(9)
N5 N 0.26771(11) 0.8756(2) 0.17713(9)
N6 N 0.18148(10) 1.0629(2) 0.11157(10)
O1 O 0.11387(9) 0.34349(17) 0.19079(9)
O2 O 0.25289(11) 0.62845(19) 0.22639(8)
O3 O 0.04941(8) 1.04336(18) 0.08530(8)
H21 H 0.1812(15) 1.133(2) 0.1474(11)
H22 H 0.2804(14) 0.920(3) 0.2196(9)
C26 C 0.46631(16) 0.5204(3) 0.23715(15)
H19 H 0.443(2) 0.596(4) 0.270(2)
Cl1 Cl 0.41377(9) 0.34312(14) 0.23910(8)
Cl2 Cl 0.56162(7) 0.4907(3) 0.27090(7)
Cl3 Cl 0.46003(13) 0.59902(19) 0.14665(6)
H20? H 0.4541(8) 0.5929(15) 0.2749(7)
Cl4? Cl 0.3909(5) 0.4067(16) 0.2006(8)
Cl5? Cl 0.5452(5) 0.4011(15) 0.2668(6)
Cl6? Cl 0.5003(8) 0.6358(12) 0.1606(6)
loop_
_geom_bond_atom_site_label_1
_geom_bond_atom_site_label_2
_geom_bond_site_symmetry_1
_geom_bond_site_symmetry_2
C1 C2 1_555 1_555
C2 H1 1_555 1_555
C3 C2 1_555 1_555
H2 C3 1_555 1_555
C4 C3 1_555 1_555
H3 C4 1_555 1_555
C5 C4 1_555 1_555
H4 C5 1_555 1_555
C6 C1 1_555 1_555
C7 C6 1_555 1_555
C8 H5 1_555 1_555
H6 C8 1_555 1_555
C9 H7 1_555 1_555
H8 C9 1_555 1_555
C10 N3 1_555 1_555
C11 N4 1_555 1_555
C12 C13 1_555 1_555
C13 C14 1_555 1_555
C14 H9 1_555 1_555
C15 C14 1_555 1_555
H10 C15 1_555 1_555
C16 C15 1_555 1_555
H11 C16 1_555 1_555
C17 C16 1_555 1_555
H12 C17 1_555 1_555
C18 C13 1_555 1_555
H13 C18 1_555 1_555
C19 C12 1_555 1_555
C20 C19 1_555 1_555
C21 C20 1_555 1_555
H14 C21 1_555 1_555
C22 C21 1_555 1_555
H15 C22 1_555 1_555
C23 C22 1_555 1_555
H16 C23 1_555 1_555
C24 C23 1_555 1_555
H17 C24 1_555 1_555
C25 C20 1_555 1_555
H18 C25 1_555 1_555
C26 H19 1_555 1_555
Cl1 C26 1_555 1_555
Cl2 C26 1_555 1_555
Cl3 C26 1_555 1_555
N1 C7 1_555 1_555
N2 C1 1_555 1_555
N3 C8 1_555 1_555
N4 C9 1_555 1_555
N5 C10 1_555 1_555
N6 C11 1_555 1_555
O1 C7 1_555 1_555
O2 C10 1_555 1_555
O3 C11 1_555 1_555
H21 N6 1_555 1_555
H22 N5 1_555 1_555
C5 C6 1_555 1_555
C8 N1 1_555 1_555
C9 N2 1_555 1_555
C12 N3 1_555 1_555
C12 N4 1_555 1_555
C17 C18 1_555 1_555
C19 N5 1_555 1_555
C19 N6 1_555 1_555
C24 C25 1_555 1_555
N1 N2 1_555 1_555

#END
