
#######################################################################
#
#                 Cambridge Crystallographic Data Centre
#                                CCDC 
#
#######################################################################
#
# If this CIF has been generated from an entry in the Cambridge 
# Structural Database, then it will include bibliographic, chemical, 
# crystal, experimental, refinement or atomic coordinate data resulting 
# from the CCDC's data processing and validation procedures.
#
#######################################################################

data_AFIFIF
_chemical_formula_moiety         'C25 H23 N3 O5 S1'
_chemical_name_systematic        
N-(2,6-Dimethylphenyl)-2-(2-(3-(4-(methylsulfonyl)phenyl)-1,2,4-oxadiazol-5-yl)phenoxy)acetamide
_symmetry_cell_setting           monoclinic
_symmetry_space_group_name_H-M   'C 2/c'
_symmetry_Int_Tables_number      15
_space_group_name_Hall           '-C 2yn'
loop_
_symmetry_equiv_pos_site_id
_symmetry_equiv_pos_as_xyz
1 x,y,z
2 1/2+x,1/2+y,z
3 -x,y,1/2-z
4 1/2-x,1/2+y,1/2-z
5 -x,-y,-z
6 1/2-x,1/2-y,-z
7 x,-y,1/2+z
8 1/2+x,1/2-y,1/2+z
_cell_length_a                   28.848(6)
_cell_length_b                   13.648(3)
_cell_length_c                   13.562(3)
_cell_angle_alpha                90
_cell_angle_beta                 117.58(3)
_cell_angle_gamma                90
_cell_volume                     4732.83
_exptl_crystal_colour            colorless
_exptl_crystal_description       block
_cell_formula_units_Z            8
loop_
_atom_site_label
_atom_site_type_symbol
_atom_site_fract_x
_atom_site_fract_y
_atom_site_fract_z
S1 S 0.14194(6) 0.18555(9) 0.81078(14)
O1 O 0.16502(17) 0.1933(3) 0.9251(4)
O2 O 0.11504(16) 0.1004(3) 0.7585(4)
O3 O -0.06215(11) 0.6306(2) 0.5510(2)
O4 O 0.06199(10) 0.8113(2) 0.6481(3)
O5 O 0.19856(11) 0.8304(2) 0.7637(3)
N1 N -0.04744(14) 0.5304(3) 0.5690(3)
N2 N 0.02244(12) 0.6304(2) 0.6536(3)
N3 N 0.14383(11) 0.7053(2) 0.7465(3)
H1 H 0.1118 0.6884 0.7242
C1 C 0.1908(2) 0.2025(4) 0.7674(5)
H2 H 0.2148 0.1485 0.7927
H3 H 0.2094 0.2624 0.7983
H4 H 0.1747 0.2059 0.6877
C2 C 0.10088(18) 0.2876(3) 0.7563(4)
C3 C 0.04852(19) 0.2760(3) 0.6783(4)
H5 H 0.0351 0.2137 0.6536
C4 C 0.01671(17) 0.3567(3) 0.6378(4)
H6 H -0.0183 0.3489 0.5867
C5 C 0.03657(15) 0.4475(3) 0.6726(3)
C6 C 0.08838(15) 0.4603(3) 0.7502(3)
H7 H 0.1015 0.5231 0.7731
C7 C 0.12050(17) 0.3807(3) 0.7934(4)
H8 H 0.1551 0.3891 0.8469
C8 C 0.00352(17) 0.5356(3) 0.6299(3)
C9 C -0.01894(15) 0.6851(3) 0.6063(3)
C10 C -0.02598(14) 0.7885(3) 0.5990(3)
C11 C -0.07551(15) 0.8299(3) 0.5674(4)
H9 H -0.1043 0.7892 0.5476
C12 C -0.08211(19) 0.9311(4) 0.5653(4)
H10 H -0.1153 0.9575 0.5423
C13 C -0.04122(19) 0.9897(3) 0.5960(4)
H11 H -0.0456 1.0569 0.5992
C14 C 0.00762(17) 0.9529(3) 0.6232(3)
H12 H 0.0354 0.9958 0.6411
C15 C 0.01587(15) 0.8543(3) 0.6243(3)
C16 C 0.10881(14) 0.8666(3) 0.6885(4)
H13 H 0.1104 0.9126 0.7446
H14 H 0.1095 0.9037 0.6281
C17 C 0.15441(16) 0.7993(3) 0.7373(4)
C18 C 0.18426(14) 0.6307(3) 0.7926(3)
C19 C 0.20946(14) 0.6160(3) 0.9060(3)
C20 C 0.24727(16) 0.5436(3) 0.9441(4)
H15 H 0.2655 0.5334 1.0205
C21 C 0.25960(16) 0.4870(3) 0.8786(4)
H16 H 0.2854 0.4392 0.9087
C22 C 0.23276(17) 0.5023(3) 0.7657(4)
H17 H 0.2398 0.4620 0.7189
C23 C 0.19522(15) 0.5760(3) 0.7186(4)
C24 C 0.16793(17) 0.5935(4) 0.5952(4)
H18 H 0.1800 0.5468 0.5593
H19 H 0.1754 0.6586 0.5799
H20 H 0.1309 0.5862 0.5676
C25 C 0.19565(17) 0.6755(3) 0.9839(4)
H21 H 0.1686 0.7216 0.9413
H22 H 0.2261 0.7102 1.0363
H23 H 0.1836 0.6323 1.0231
loop_
_geom_bond_atom_site_label_1
_geom_bond_atom_site_label_2
_geom_bond_site_symmetry_1
_geom_bond_site_symmetry_2
S1 O1 1_555 1_555
O2 S1 1_555 1_555
O3 N1 1_555 1_555
O4 C15 1_555 1_555
O5 C17 1_555 1_555
N1 C8 1_555 1_555
N2 C8 1_555 1_555
N3 H1 1_555 1_555
C1 S1 1_555 1_555
H2 C1 1_555 1_555
H3 C1 1_555 1_555
H4 C1 1_555 1_555
C2 S1 1_555 1_555
C3 C2 1_555 1_555
H5 C3 1_555 1_555
C4 C3 1_555 1_555
H6 C4 1_555 1_555
C5 C4 1_555 1_555
C6 C5 1_555 1_555
H7 C6 1_555 1_555
C7 C2 1_555 1_555
H8 C7 1_555 1_555
C8 C5 1_555 1_555
C9 O3 1_555 1_555
C10 C9 1_555 1_555
C11 C10 1_555 1_555
H9 C11 1_555 1_555
C12 C11 1_555 1_555
H10 C12 1_555 1_555
C13 C12 1_555 1_555
H11 C13 1_555 1_555
C14 C13 1_555 1_555
H12 C14 1_555 1_555
C15 C10 1_555 1_555
C16 O4 1_555 1_555
H13 C16 1_555 1_555
H14 C16 1_555 1_555
C17 N3 1_555 1_555
C18 N3 1_555 1_555
C19 C18 1_555 1_555
C20 C19 1_555 1_555
H15 C20 1_555 1_555
C21 C20 1_555 1_555
H16 C21 1_555 1_555
C22 C21 1_555 1_555
H17 C22 1_555 1_555
C23 C18 1_555 1_555
C24 C23 1_555 1_555
H18 C24 1_555 1_555
H19 C24 1_555 1_555
H20 C24 1_555 1_555
C25 C19 1_555 1_555
H21 C25 1_555 1_555
H22 C25 1_555 1_555
H23 C25 1_555 1_555
N2 C9 1_555 1_555
C6 C7 1_555 1_555
C14 C15 1_555 1_555
C16 C17 1_555 1_555
C22 C23 1_555 1_555

#END
