
#######################################################################
#
#                 Cambridge Crystallographic Data Centre
#                                CCDC 
#
#######################################################################
#
# If this CIF has been generated from an entry in the Cambridge 
# Structural Database, then it will include bibliographic, chemical, 
# crystal, experimental, refinement or atomic coordinate data resulting 
# from the CCDC's data processing and validation procedures.
#
#######################################################################

data_AFIFAX
_chemical_formula_moiety         'C24 H26 N2'
_chemical_name_systematic        1,3-Dibenzyl-2-phenylperhydropyrimidine
_symmetry_cell_setting           monoclinic
_symmetry_space_group_name_H-M   'P 21/n'
_symmetry_Int_Tables_number      14
_space_group_name_Hall           '-P 2yn'
loop_
_symmetry_equiv_pos_site_id
_symmetry_equiv_pos_as_xyz
1 x,y,z
2 1/2-x,1/2+y,1/2-z
3 -x,-y,-z
4 1/2+x,1/2-y,1/2+z
_cell_length_a                   6.0912(11)
_cell_length_b                   16.900(2)
_cell_length_c                   19.621(3)
_cell_angle_alpha                90
_cell_angle_beta                 98.304(2)
_cell_angle_gamma                90
_cell_volume                     1998.63
_exptl_crystal_colour            colorless
_exptl_crystal_description       block
_cell_formula_units_Z            4
loop_
_atom_site_label
_atom_site_type_symbol
_atom_site_fract_x
_atom_site_fract_y
_atom_site_fract_z
N1 N 0.7318(3) 0.85935(10) 0.06611(9)
N2 N 0.7249(3) 0.88698(10) 0.18657(9)
C1 C 0.8029(4) 0.94061(13) 0.05542(11)
H1 H 0.6737 0.9739 0.0427
H2 H 0.8911 0.9418 0.0181
C2 C 0.9374(5) 0.97215(13) 0.11995(12)
H3 H 1.0714 0.9410 0.1314
H4 H 0.9799 1.0265 0.1129
C3 C 0.8003(4) 0.96792(13) 0.17753(12)
H5 H 0.8878 0.9860 0.2199
H6 H 0.6728 1.0026 0.1674
C4 C 0.5999(4) 0.85434(12) 0.12315(11)
H7 H 0.4616 0.8841 0.1112
C5 C 0.5463(5) 0.76804(13) 0.13427(11)
C6 C 0.7146(4) 0.71554(14) 0.15560(11)
H8 H 0.8593 0.7341 0.1661
C7 C 0.6732(5) 0.63590(15) 0.16175(12)
H9 H 0.7893 0.6012 0.1759
C8 C 0.4605(6) 0.60803(16) 0.14691(13)
H10 H 0.4320 0.5543 0.1506
C9 C 0.2902(5) 0.65937(17) 0.12665(12)
H11 H 0.1459 0.6404 0.1164
C10 C 0.3317(5) 0.73931(15) 0.12132(10)
H12 H 0.2144 0.7741 0.1089
C11 C 0.6008(4) 0.83060(13) 0.00211(11)
H13 H 0.4752 0.8657 -0.0100
H14 H 0.5428 0.7786 0.0106
C12 C 0.7262(5) 0.82518(13) -0.05768(12)
C13 C 0.9340(5) 0.79109(14) -0.05116(13)
H15 H 1.0002 0.7736 -0.0081
C14 C 1.0453(5) 0.78237(14) -0.10665(17)
H16 H 1.1846 0.7588 -0.1011
C15 C 0.9499(6) 0.80870(16) -0.17072(16)
H17 H 1.0253 0.8038 -0.2085
C16 C 0.7445(6) 0.84185(16) -0.17795(14)
H18 H 0.6784 0.8590 -0.2211
C17 C 0.6333(5) 0.85023(13) -0.12196(13)
H19 H 0.4931 0.8732 -0.1278
C18 C 0.5896(4) 0.88619(13) 0.24232(11)
H20 H 0.5094 0.8365 0.2408
H21 H 0.4810 0.9284 0.2345
C19 C 0.7200(5) 0.89608(13) 0.31294(12)
C20 C 0.9327(5) 0.86625(13) 0.32864(14)
H22 H 1.0010 0.8428 0.2943
C21 C 1.0450(5) 0.87117(16) 0.39527(18)
H23 H 1.1887 0.8516 0.4054
C22 C 0.9438(7) 0.9048(2) 0.44608(17)
H24 H 1.0182 0.9071 0.4909
C23 C 0.7348(7) 0.93502(17) 0.43139(16)
H25 H 0.6671 0.9583 0.4660
C24 C 0.6234(5) 0.93087(14) 0.36457(14)
H26 H 0.4814 0.9519 0.3546
loop_
_geom_bond_atom_site_label_1
_geom_bond_atom_site_label_2
_geom_bond_site_symmetry_1
_geom_bond_site_symmetry_2
N1 C1 1_555 1_555
N2 C3 1_555 1_555
C1 H1 1_555 1_555
H2 C1 1_555 1_555
C2 C1 1_555 1_555
H3 C2 1_555 1_555
H4 C2 1_555 1_555
C3 C2 1_555 1_555
H5 C3 1_555 1_555
H6 C3 1_555 1_555
C4 N1 1_555 1_555
H7 C4 1_555 1_555
C5 C4 1_555 1_555
C6 C5 1_555 1_555
H8 C6 1_555 1_555
C7 C6 1_555 1_555
H9 C7 1_555 1_555
C8 C7 1_555 1_555
H10 C8 1_555 1_555
C9 C8 1_555 1_555
H11 C9 1_555 1_555
C10 C5 1_555 1_555
H12 C10 1_555 1_555
C11 N1 1_555 1_555
H13 C11 1_555 1_555
H14 C11 1_555 1_555
C12 C11 1_555 1_555
C13 C12 1_555 1_555
H15 C13 1_555 1_555
C14 C13 1_555 1_555
H16 C14 1_555 1_555
C15 C14 1_555 1_555
H17 C15 1_555 1_555
C16 C15 1_555 1_555
H18 C16 1_555 1_555
C17 C12 1_555 1_555
H19 C17 1_555 1_555
C18 N2 1_555 1_555
H20 C18 1_555 1_555
H21 C18 1_555 1_555
C19 C18 1_555 1_555
C20 C19 1_555 1_555
H22 C20 1_555 1_555
C21 C20 1_555 1_555
H23 C21 1_555 1_555
C22 C21 1_555 1_555
H24 C22 1_555 1_555
C23 C22 1_555 1_555
H25 C23 1_555 1_555
C24 C19 1_555 1_555
H26 C24 1_555 1_555
N2 C4 1_555 1_555
C9 C10 1_555 1_555
C16 C17 1_555 1_555
C23 C24 1_555 1_555

#END
