
#######################################################################
#
#                 Cambridge Crystallographic Data Centre
#                                CCDC 
#
#######################################################################
#
# If this CIF has been generated from an entry in the Cambridge 
# Structural Database, then it will include bibliographic, chemical, 
# crystal, experimental, refinement or atomic coordinate data resulting 
# from the CCDC's data processing and validation procedures.
#
#######################################################################

data_AFIFEB
_chemical_formula_moiety         'C23 H24 N2'
_chemical_name_systematic        1,3-Dibenzyl-2-phenylimidazolidine
_symmetry_cell_setting           monoclinic
_symmetry_space_group_name_H-M   'P 21/n'
_symmetry_Int_Tables_number      14
_space_group_name_Hall           '-P 2yn'
loop_
_symmetry_equiv_pos_site_id
_symmetry_equiv_pos_as_xyz
1 x,y,z
2 1/2-x,1/2+y,1/2-z
3 -x,-y,-z
4 1/2+x,1/2-y,1/2+z
_cell_length_a                   6.0611(12)
_cell_length_b                   16.0637(16)
_cell_length_c                   19.494(2)
_cell_angle_alpha                90
_cell_angle_beta                 91.545(2)
_cell_angle_gamma                90
_cell_volume                     1897.32
_exptl_crystal_colour            colorless
_exptl_crystal_description       block
_cell_formula_units_Z            4
loop_
_atom_site_label
_atom_site_type_symbol
_atom_site_fract_x
_atom_site_fract_y
_atom_site_fract_z
N1 N 0.2099(4) 0.13673(13) 0.09252(11)
N2 N 0.2019(4) 0.12748(13) 0.20804(12)
C1 C 0.3331(5) 0.06115(17) 0.10993(15)
H1 H 0.4870 0.0670 0.0984
H2 H 0.2714 0.0135 0.0856
C2 C 0.3098(6) 0.05136(19) 0.18653(15)
H3 H 0.2206 0.0030 0.1969
H4 H 0.4532 0.0454 0.2093
C3 C 0.0643(5) 0.15306(16) 0.14996(14)
H5 H -0.0676 0.1179 0.1462
C4 C -0.0006(5) 0.24356(17) 0.15271(13)
C5 C 0.1595(5) 0.30273(18) 0.16510(16)
H6 H 0.3046 0.2860 0.1736
C6 C 0.1090(6) 0.3857(2) 0.16520(17)
H7 H 0.2194 0.4247 0.1743
C7 C -0.1020(7) 0.4116(2) 0.15209(17)
H8 H -0.1354 0.4681 0.1514
C8 C -0.2628(6) 0.3543(2) 0.14001(19)
H9 H -0.4072 0.3715 0.1311
C9 C -0.2119(5) 0.2698(2) 0.14094(16)
H10 H -0.3234 0.2309 0.1335
C10 C 0.0966(5) 0.13572(18) 0.02628(14)
H11 H -0.0059 0.1821 0.0238
H12 H 0.0113 0.0848 0.0221
C11 C 0.2500(5) 0.14128(16) -0.03344(14)
C12 C 0.4506(5) 0.18111(18) -0.02765(16)
H13 H 0.4977 0.2021 0.0147
C13 C 0.5840(6) 0.1905(2) -0.08390(19)
H14 H 0.7194 0.2174 -0.0792
C14 C 0.5152(7) 0.1600(2) -0.14597(19)
H15 H 0.6038 0.1662 -0.1838
C15 C 0.3185(7) 0.1206(2) -0.15288(18)
H16 H 0.2724 0.1001 -0.1955
C16 C 0.1852(6) 0.11070(19) -0.09671(16)
H17 H 0.0508 0.0831 -0.1019
C17 C 0.0859(5) 0.12033(18) 0.27187(15)
H18 H -0.0022 0.0699 0.2706
H19 H -0.0141 0.1671 0.2758
C18 C 0.2370(5) 0.11810(16) 0.33424(15)
C19 C 0.4406(6) 0.15655(18) 0.33508(16)
H20 H 0.4898 0.1816 0.2953
C20 C 0.5717(6) 0.1585(2) 0.3935(2)
H21 H 0.7088 0.1844 0.3929
C21 C 0.5023(8) 0.1225(2) 0.4528(2)
H22 H 0.5905 0.1244 0.4926
C22 C 0.3011(8) 0.0835(2) 0.45296(18)
H23 H 0.2534 0.0583 0.4929
C23 C 0.1690(6) 0.08140(18) 0.39426(16)
H24 H 0.0326 0.0550 0.3950
loop_
_geom_bond_atom_site_label_1
_geom_bond_atom_site_label_2
_geom_bond_site_symmetry_1
_geom_bond_site_symmetry_2
N1 C1 1_555 1_555
N2 C2 1_555 1_555
C1 H1 1_555 1_555
H2 C1 1_555 1_555
C2 C1 1_555 1_555
H3 C2 1_555 1_555
H4 C2 1_555 1_555
C3 N1 1_555 1_555
H5 C3 1_555 1_555
C4 C3 1_555 1_555
C5 C4 1_555 1_555
H6 C5 1_555 1_555
C6 C5 1_555 1_555
H7 C6 1_555 1_555
C7 C6 1_555 1_555
H8 C7 1_555 1_555
C8 C7 1_555 1_555
H9 C8 1_555 1_555
C9 C4 1_555 1_555
H10 C9 1_555 1_555
C10 N1 1_555 1_555
H11 C10 1_555 1_555
H12 C10 1_555 1_555
C11 C10 1_555 1_555
C12 C11 1_555 1_555
H13 C12 1_555 1_555
C13 C12 1_555 1_555
H14 C13 1_555 1_555
C14 C13 1_555 1_555
H15 C14 1_555 1_555
C15 C14 1_555 1_555
H16 C15 1_555 1_555
C16 C11 1_555 1_555
H17 C16 1_555 1_555
C17 N2 1_555 1_555
H18 C17 1_555 1_555
H19 C17 1_555 1_555
C18 C17 1_555 1_555
C19 C18 1_555 1_555
H20 C19 1_555 1_555
C20 C19 1_555 1_555
H21 C20 1_555 1_555
C21 C20 1_555 1_555
H22 C21 1_555 1_555
C22 C21 1_555 1_555
H23 C22 1_555 1_555
C23 C18 1_555 1_555
H24 C23 1_555 1_555
N2 C3 1_555 1_555
C8 C9 1_555 1_555
C15 C16 1_555 1_555
C22 C23 1_555 1_555

#END
