
#######################################################################
#
#                 Cambridge Crystallographic Data Centre
#                                CCDC 
#
#######################################################################
#
# If this CIF has been generated from an entry in the Cambridge 
# Structural Database, then it will include bibliographic, chemical, 
# crystal, experimental, refinement or atomic coordinate data resulting 
# from the CCDC's data processing and validation procedures.
#
#######################################################################

data_AFIFUT
_chemical_formula_moiety         'C8 H12 N2 O2'
_chemical_name_systematic        (3,6-dimethylpyrazine-2,5-diyl)dimethanol
_symmetry_cell_setting           monoclinic
_symmetry_space_group_name_H-M   'P 21/n'
_symmetry_Int_Tables_number      14
_space_group_name_Hall           '-P 2yn'
loop_
_symmetry_equiv_pos_site_id
_symmetry_equiv_pos_as_xyz
1 x,y,z
2 1/2-x,1/2+y,1/2-z
3 -x,-y,-z
4 1/2+x,1/2-y,1/2+z
_cell_length_a                   4.0560(8)
_cell_length_b                   12.280(3)
_cell_length_c                   8.5370(17)
_cell_angle_alpha                90
_cell_angle_beta                 96.93(3)
_cell_angle_gamma                90
_cell_volume                     422.102
_exptl_crystal_colour            white
_exptl_crystal_description       block
_cell_formula_units_Z            2
loop_
_atom_site_label
_atom_site_type_symbol
_atom_site_fract_x
_atom_site_fract_y
_atom_site_fract_z
N1 N 0.1276(5) 0.09016(15) 0.0835(2)
C1 C 0.4157(7) -0.0185(2) 0.2930(3)
H1 H 0.4755 0.0533 0.3308
H2 H 0.6131 -0.0588 0.2795
H3 H 0.2965 -0.0551 0.3680
C2 C -0.0721(5) 0.10132(17) -0.0533(2)
O1 O -0.0117(5) 0.23294(15) -0.2529(2)
H4 H -0.0544 0.2950 -0.2848
C3 C 0.2002(6) -0.01048(17) 0.1378(2)
C4 C -0.1482(6) 0.21600(18) -0.1096(3)
H5 H -0.3867 0.2271 -0.1261
H6 H -0.0534 0.2676 -0.0306
N1B N -0.1276(5) -0.09016(15) -0.0835(2)
C1B C -0.4157(7) 0.0185(2) -0.2930(3)
H1B H -0.4755 -0.0533 -0.3308
H2B H -0.6131 0.0588 -0.2795
H3B H -0.2965 0.0551 -0.3680
C2B C 0.0721(5) -0.10132(17) 0.0533(2)
O1B O 0.0117(5) -0.23294(15) 0.2529(2)
H4B H 0.0544 -0.2950 0.2848
C3B C -0.2002(6) 0.01048(17) -0.1378(2)
C4B C 0.1482(6) -0.21600(18) 0.1096(3)
H5B H 0.3867 -0.2271 0.1261
H6B H 0.0534 -0.2676 0.0306
loop_
_geom_bond_atom_site_label_1
_geom_bond_atom_site_label_2
_geom_bond_site_symmetry_1
_geom_bond_site_symmetry_2
N1 C2 1_555 1_555
C1 H1 1_555 1_555
H2 C1 1_555 1_555
H3 C1 1_555 1_555
C2 C4 1_555 1_555
O1 H4 1_555 1_555
C3 N1 1_555 1_555
C4 O1 1_555 1_555
H5 C4 1_555 1_555
H6 C4 1_555 1_555
N1B C2B 1_555 1_555
C1B H1B 1_555 1_555
H2B C1B 1_555 1_555
H3B C1B 1_555 1_555
C2B C3 1_555 1_555
O1B H4B 1_555 1_555
C3B C2 1_555 1_555
C4B C2B 1_555 1_555
H5B C4B 1_555 1_555
H6B C4B 1_555 1_555
C1 C3 1_555 1_555
N1B C3B 1_555 1_555
C1B C3B 1_555 1_555
O1B C4B 1_555 1_555

#END
