
#######################################################################
#
#                 Cambridge Crystallographic Data Centre
#                                CCDC 
#
#######################################################################
#
# If this CIF has been generated from an entry in the Cambridge 
# Structural Database, then it will include bibliographic, chemical, 
# crystal, experimental, refinement or atomic coordinate data resulting 
# from the CCDC's data processing and validation procedures.
#
#######################################################################

data_AFIFOL
_chemical_formula_moiety         'C25 H16 Br1 N1'
_chemical_name_systematic        2-(4-Bromophenyl)-3-phenylbenzo(f)quinoline
_symmetry_cell_setting           monoclinic
_symmetry_space_group_name_H-M   'P 21/c'
_symmetry_Int_Tables_number      14
_space_group_name_Hall           '-P 2ybc'
loop_
_symmetry_equiv_pos_site_id
_symmetry_equiv_pos_as_xyz
1 x,y,z
2 -x,1/2+y,1/2-z
3 -x,-y,-z
4 x,1/2-y,1/2+z
_cell_length_a                   12.704(2)
_cell_length_b                   9.4917(14)
_cell_length_c                   15.142(3)
_cell_angle_alpha                90
_cell_angle_beta                 94.612(4)
_cell_angle_gamma                90
_cell_volume                     1819.95
_exptl_crystal_colour            colorless
_exptl_crystal_description       block
_chemical_melting_point          '478-480 K'
_cell_formula_units_Z            4
loop_
_atom_site_label
_atom_site_type_symbol
_atom_site_fract_x
_atom_site_fract_y
_atom_site_fract_z
Br1 Br 0.41136(3) -0.18517(3) 0.83655(2)
N1 N 0.03956(17) 0.1754(2) 0.57827(14)
C1 C 0.1407(2) 0.1676(3) 0.56232(17)
C2 C 0.1811(2) 0.2330(3) 0.48741(17)
C3 C 0.1113(2) 0.3102(3) 0.43206(17)
H1 H 0.1367 0.3569 0.3825
C4 C 0.0041(2) 0.3215(3) 0.44696(17)
C5 C -0.0276(2) 0.2501(3) 0.52243(17)
C6 C 0.2081(2) 0.0849(3) 0.62874(17)
C7 C 0.1673(2) -0.0381(3) 0.66346(18)
H2 H 0.0978 -0.0677 0.6438
C8 C 0.2262(2) -0.1175(3) 0.72588(18)
H3 H 0.1980 -0.2012 0.7491
C9 C 0.3270(2) -0.0729(3) 0.75395(17)
C10 C 0.3691(2) 0.0492(3) 0.72268(18)
H4 H 0.4378 0.0793 0.7438
C11 C 0.3088(2) 0.1277(3) 0.65955(17)
H5 H 0.3371 0.2119 0.6372
C12 C 0.2918(2) 0.2181(3) 0.46368(17)
C13 C 0.3338(2) 0.0866(3) 0.44567(18)
H6 H 0.2925 0.0041 0.4513
C14 C 0.4349(2) 0.0755(3) 0.41985(19)
H7 H 0.4621 -0.0145 0.4063
C15 C 0.4972(2) 0.1933(3) 0.41337(19)
H8 H 0.5674 0.1845 0.3966
C16 C 0.4569(2) 0.3239(3) 0.43142(19)
H9 H 0.4994 0.4056 0.4275
C17 C 0.3545(2) 0.3359(3) 0.45528(18)
H10 H 0.3266 0.4266 0.4661
C18 C -0.1360(2) 0.2552(3) 0.54188(19)
H11 H -0.1573 0.2086 0.5930
C19 C -0.2081(2) 0.3251(3) 0.48871(19)
H12 H -0.2794 0.3269 0.5031
C20 C -0.1798(2) 0.3970(3) 0.41076(18)
C21 C -0.2560(2) 0.4670(3) 0.35408(19)
H13 H -0.3274 0.4687 0.3685
C22 C -0.2291(3) 0.5324(3) 0.2787(2)
H14 H -0.2815 0.5799 0.2415
C23 C -0.1256(3) 0.5294(4) 0.2567(2)
H15 H -0.1073 0.5736 0.2038
C24 C -0.0491(2) 0.4632(3) 0.3106(2)
H16 H 0.0217 0.4628 0.2946
C25 C -0.0736(2) 0.3956(3) 0.38919(17)
loop_
_geom_bond_atom_site_label_1
_geom_bond_atom_site_label_2
_geom_bond_site_symmetry_1
_geom_bond_site_symmetry_2
Br1 C9 1_555 1_555
N1 C1 1_555 1_555
C1 C2 1_555 1_555
C2 C3 1_555 1_555
C3 H1 1_555 1_555
C4 C3 1_555 1_555
C5 N1 1_555 1_555
C6 C1 1_555 1_555
C7 C6 1_555 1_555
H2 C7 1_555 1_555
C8 C7 1_555 1_555
H3 C8 1_555 1_555
C9 C8 1_555 1_555
C10 C9 1_555 1_555
H4 C10 1_555 1_555
C11 C6 1_555 1_555
H5 C11 1_555 1_555
C12 C2 1_555 1_555
C13 C12 1_555 1_555
H6 C13 1_555 1_555
C14 C13 1_555 1_555
H7 C14 1_555 1_555
C15 C14 1_555 1_555
H8 C15 1_555 1_555
C16 C15 1_555 1_555
H9 C16 1_555 1_555
C17 C12 1_555 1_555
H10 C17 1_555 1_555
C18 C5 1_555 1_555
H11 C18 1_555 1_555
C19 C18 1_555 1_555
H12 C19 1_555 1_555
C20 C19 1_555 1_555
C21 C20 1_555 1_555
H13 C21 1_555 1_555
C22 C21 1_555 1_555
H14 C22 1_555 1_555
C23 C22 1_555 1_555
H15 C23 1_555 1_555
C24 C23 1_555 1_555
H16 C24 1_555 1_555
C25 C4 1_555 1_555
C4 C5 1_555 1_555
C10 C11 1_555 1_555
C16 C17 1_555 1_555
C20 C25 1_555 1_555
C24 C25 1_555 1_555

#END
