
#######################################################################
#
#                 Cambridge Crystallographic Data Centre
#                                CCDC 
#
#######################################################################
#
# If this CIF has been generated from an entry in the Cambridge 
# Structural Database, then it will include bibliographic, chemical, 
# crystal, experimental, refinement or atomic coordinate data resulting 
# from the CCDC's data processing and validation procedures.
#
#######################################################################

data_AFIGED
_chemical_formula_moiety         'C4 H10 N2,2(C6 H5 N1 O3)'
_chemical_name_systematic        'bis(4-Nitrophenol) piperazine'
_symmetry_cell_setting           monoclinic
_symmetry_space_group_name_H-M   'P 21/c'
_symmetry_Int_Tables_number      14
_space_group_name_Hall           '-P 2ybc'
loop_
_symmetry_equiv_pos_site_id
_symmetry_equiv_pos_as_xyz
1 x,y,z
2 -x,1/2+y,1/2-z
3 -x,-y,-z
4 x,1/2-y,1/2+z
_cell_length_a                   6.1879(2)
_cell_length_b                   19.9274(7)
_cell_length_c                   6.9846(2)
_cell_angle_alpha                90
_cell_angle_beta                 91.1990(10)
_cell_angle_gamma                90
_cell_volume                     861.074
_exptl_crystal_colour            yellow
_exptl_crystal_description       Block
_cell_formula_units_Z            2
loop_
_atom_site_label
_atom_site_type_symbol
_atom_site_fract_x
_atom_site_fract_y
_atom_site_fract_z
C1 C 0.3284(2) 0.39314(6) 0.57841(18)
C2 C 0.2308(2) 0.33121(6) 0.61501(19)
H1 H 0.0929 0.3300 0.6654
C3 C 0.3365(2) 0.27233(6) 0.57715(19)
H2 H 0.2711 0.2313 0.6019
C4 C 0.5409(2) 0.27456(6) 0.50202(18)
C5 C 0.6389(2) 0.33516(7) 0.45997(18)
H3 H 0.7756 0.3359 0.4072
C6 C 0.5330(2) 0.39403(7) 0.4966(2)
H4 H 0.5974 0.4348 0.4670
N1 N 0.65536(19) 0.21262(6) 0.46944(16)
O1 O 0.84102(19) 0.21550(6) 0.4113(2)
O2 O 0.56486(19) 0.15891(5) 0.50020(17)
O3 O 0.23383(18) 0.45125(5) 0.61778(16)
H5 H 0.1330 0.4447 0.6898
C7 C 0.8041(2) -0.00321(8) 0.3919(2)
H6 H 0.7274 -0.0085 0.2703
H7 H 0.6982 0.0024 0.4911
C8 C 1.0620(3) 0.06407(7) 0.5674(2)
H8 H 0.9605 0.0707 0.6697
H9 H 1.1545 0.1033 0.5618
N2 N 0.9439(2) 0.05619(6) 0.38520(18)
H10 H 0.867(3) 0.0873(10) 0.362(3)
C7B C 1.1959(2) 0.00321(8) 0.6081(2)
H6B H 1.2726 0.0085 0.7297
H7B H 1.3018 -0.0024 0.5089
C8B C 0.9380(3) -0.06407(7) 0.4326(2)
H8B H 1.0395 -0.0707 0.3303
H9B H 0.8455 -0.1033 0.4382
N2B N 1.0561(2) -0.05619(6) 0.61480(18)
H10B H 1.133(3) -0.0873(10) 0.638(3)
loop_
_geom_bond_atom_site_label_1
_geom_bond_atom_site_label_2
_geom_bond_site_symmetry_1
_geom_bond_site_symmetry_2
C1 C2 1_555 1_555
C2 H1 1_555 1_555
C3 C2 1_555 1_555
H2 C3 1_555 1_555
C4 C3 1_555 1_555
C5 C4 1_555 1_555
H3 C5 1_555 1_555
C6 C1 1_555 1_555
H4 C6 1_555 1_555
N1 C4 1_555 1_555
O1 N1 1_555 1_555
O2 N1 1_555 1_555
O3 C1 1_555 1_555
H5 O3 1_555 1_555
C7 H6 1_555 1_555
H7 C7 1_555 1_555
C8 H8 1_555 1_555
H9 C8 1_555 1_555
N2 C7 1_555 1_555
H10 N2 1_555 1_555
C7B C8 1_555 1_555
H6B C7B 1_555 1_555
H7B C7B 1_555 1_555
C8B C7 1_555 1_555
H8B C8B 1_555 1_555
H9B C8B 1_555 1_555
N2B C7B 1_555 1_555
H10B N2B 1_555 1_555
C5 C6 1_555 1_555
C8 N2 1_555 1_555
C8B N2B 1_555 1_555

#END
