
#######################################################################
#
#                 Cambridge Crystallographic Data Centre
#                                CCDC 
#
#######################################################################
#
# If this CIF has been generated from an entry in the Cambridge 
# Structural Database, then it will include bibliographic, chemical, 
# crystal, experimental, refinement or atomic coordinate data resulting 
# from the CCDC's data processing and validation procedures.
#
#######################################################################

data_AFIGON
_chemical_formula_moiety         'C7 H8 N3 1+,B1 F4 1-'
_chemical_name_systematic        
'2-Methyl[1,2,4]triazolo[4,3-a]pyridin-2-ium tetrafluoroborate'
_symmetry_cell_setting           orthorhombic
_symmetry_space_group_name_H-M   'P b c a'
_symmetry_Int_Tables_number      61
_space_group_name_Hall           '-P 2ac 2ab'
loop_
_symmetry_equiv_pos_site_id
_symmetry_equiv_pos_as_xyz
1 x,y,z
2 1/2-x,-y,1/2+z
3 1/2+x,1/2-y,-z
4 -x,1/2+y,1/2-z
5 -x,-y,-z
6 1/2+x,y,1/2-z
7 1/2-x,1/2+y,z
8 x,1/2-y,1/2+z
_cell_length_a                   7.1508(10)
_cell_length_b                   12.3070(18)
_cell_length_c                   21.431(3)
_cell_angle_alpha                90
_cell_angle_beta                 90
_cell_angle_gamma                90
_cell_volume                     1886.03
_exptl_crystal_colour            colorless
_exptl_crystal_description       block
_chemical_melting_point          '444-446 K'
_cell_formula_units_Z            8
loop_
_atom_site_label
_atom_site_type_symbol
_atom_site_fract_x
_atom_site_fract_y
_atom_site_fract_z
F1 F 0.7647(5) 0.2546(3) 0.66913(12)
F2 F 0.5247(4) 0.3344(2) 0.61787(11)
F3 F 0.7464(5) 0.4320(3) 0.66199(16)
F4 F 0.5444(4) 0.3483(3) 0.72252(10)
B1 B 0.6389(4) 0.3369(3) 0.66829(12)
N1 N 0.1517(3) 0.41555(15) 0.59033(9)
N2 N 0.3053(3) 0.57217(18) 0.59455(10)
N3 N 0.2503(3) 0.53825(19) 0.65195(10)
C1 C 0.1599(4) 0.4458(2) 0.65054(11)
H1 H 0.1110 0.4084 0.6845
C2 C 0.2444(3) 0.49487(18) 0.55689(11)
C3 C 0.2603(3) 0.4838(2) 0.49127(12)
H2 H 0.3203 0.5364 0.4674
C4 C 0.1859(4) 0.3948(2) 0.46456(13)
H3 H 0.1952 0.3859 0.4216
C5 C 0.0940(5) 0.3147(2) 0.50043(15)
H4 H 0.0454 0.2538 0.4805
C6 C 0.0751(4) 0.3243(2) 0.56234(15)
H5 H 0.0130 0.2718 0.5856
C7 C 0.2944(6) 0.6039(3) 0.70666(15)
H6 H 0.2205 0.6690 0.7061
H7 H 0.4247 0.6227 0.7061
H8 H 0.2671 0.5632 0.7438
loop_
_geom_bond_atom_site_label_1
_geom_bond_atom_site_label_2
_geom_bond_site_symmetry_1
_geom_bond_site_symmetry_2
F1 B1 1_555 1_555
F2 B1 1_555 1_555
F3 B1 1_555 1_555
F4 B1 1_555 1_555
N1 C1 1_555 1_555
N2 N3 1_555 1_555
N3 C1 1_555 1_555
C1 H1 1_555 1_555
C2 N1 1_555 1_555
C3 C2 1_555 1_555
H2 C3 1_555 1_555
C4 C3 1_555 1_555
H3 C4 1_555 1_555
C5 C4 1_555 1_555
H4 C5 1_555 1_555
C6 N1 1_555 1_555
H5 C6 1_555 1_555
C7 N3 1_555 1_555
H6 C7 1_555 1_555
H7 C7 1_555 1_555
H8 C7 1_555 1_555
N2 C2 1_555 1_555
C5 C6 1_555 1_555

#END
