
#######################################################################
#
#                 Cambridge Crystallographic Data Centre
#                                CCDC 
#
#######################################################################
#
# If this CIF has been generated from an entry in the Cambridge 
# Structural Database, then it will include bibliographic, chemical, 
# crystal, experimental, refinement or atomic coordinate data resulting 
# from the CCDC's data processing and validation procedures.
#
#######################################################################

data_AFIGAY
_chemical_formula_moiety         'C22 H12 N2 O4'
_chemical_name_systematic        
2-(2-(1,3-Dioxoisoindolin-2-yl)phenyl)isoindoline-1,3-dione
_symmetry_cell_setting           monoclinic
_symmetry_space_group_name_H-M   'P 21/n'
_symmetry_Int_Tables_number      14
_space_group_name_Hall           '-P 2yn'
loop_
_symmetry_equiv_pos_site_id
_symmetry_equiv_pos_as_xyz
1 x,y,z
2 1/2-x,1/2+y,1/2-z
3 -x,-y,-z
4 1/2+x,1/2-y,1/2+z
_cell_length_a                   10.7765(10)
_cell_length_b                   16.9259(17)
_cell_length_c                   10.8518(10)
_cell_angle_alpha                90
_cell_angle_beta                 116.7800(10)
_cell_angle_gamma                90
_cell_volume                     1767.09
_exptl_crystal_colour            colorless
_exptl_crystal_description       block
_cell_formula_units_Z            4
_exptl_crystal_recrystallization_method ethanol
loop_
_atom_site_label
_atom_site_type_symbol
_atom_site_fract_x
_atom_site_fract_y
_atom_site_fract_z
O1 O 0.45581(11) 0.01749(7) 0.14315(11)
O2 O 0.07744(11) 0.13152(8) 0.15937(12)
O3 O 0.74820(11) 0.10013(7) 0.38688(11)
O4 O 0.34849(12) 0.24241(7) 0.14859(13)
N1 N 0.28632(13) 0.07596(8) 0.18964(12)
N2 N 0.53713(12) 0.16715(8) 0.29363(13)
C1 C 0.34000(17) 0.04363(10) 0.10366(16)
C2 C 0.14769(16) 0.10141(10) 0.11178(16)
C3 C 0.66539(16) 0.14316(10) 0.29978(16)
C4 C 0.46318(17) 0.21605(10) 0.17971(16)
C5 C 0.36534(16) 0.09109(10) 0.33430(15)
C6 C 0.48509(16) 0.13677(10) 0.38461(16)
C7 C 0.55851(17) 0.15123(10) 0.52504(16)
H1 H 0.6389 0.1817 0.5587
C8 C 0.51259(18) 0.12054(11) 0.61507(17)
H2 H 0.5619 0.1304 0.7092
C9 C 0.39354(18) 0.07529(11) 0.56535(16)
H3 H 0.3629 0.0544 0.6261
C10 C 0.31966(17) 0.06088(10) 0.42531(16)
H4 H 0.2389 0.0307 0.3921
C11 C 0.22647(16) 0.05014(10) -0.03928(15)
C12 C 0.11188(16) 0.08397(10) -0.03443(16)
C13 C -0.00825(18) 0.09885(11) -0.15363(17)
H5 H -0.0856 0.1211 -0.1505
C14 C -0.00952(18) 0.07944(11) -0.27824(17)
H6 H -0.0890 0.0892 -0.3602
C15 C 0.10523(18) 0.04581(11) -0.28296(17)
H7 H 0.1015 0.0332 -0.3680
C16 C 0.22624(18) 0.03050(11) -0.16251(16)
H8 H 0.3037 0.0079 -0.1652
C17 C 0.67265(16) 0.18160(10) 0.18068(15)
C18 C 0.55298(16) 0.22536(10) 0.10967(16)
C19 C 0.53101(18) 0.26772(11) -0.00715(18)
H9 H 0.4505 0.2973 -0.0546
C20 C 0.63355(19) 0.26451(12) -0.05105(18)
H10 H 0.6214 0.2921 -0.1298
C21 C 0.75357(19) 0.22099(11) 0.02044(18)
H11 H 0.8211 0.2203 -0.0107
C22 C 0.77526(17) 0.17830(11) 0.13755(17)
H12 H 0.8556 0.1487 0.1851
loop_
_geom_bond_atom_site_label_1
_geom_bond_atom_site_label_2
_geom_bond_site_symmetry_1
_geom_bond_site_symmetry_2
O1 C1 1_555 1_555
O2 C2 1_555 1_555
O3 C3 1_555 1_555
O4 C4 1_555 1_555
N1 C1 1_555 1_555
N2 C3 1_555 1_555
C1 C11 1_555 1_555
C2 N1 1_555 1_555
C3 C17 1_555 1_555
C4 N2 1_555 1_555
C5 N1 1_555 1_555
C6 N2 1_555 1_555
C7 C6 1_555 1_555
H1 C7 1_555 1_555
C8 C7 1_555 1_555
H2 C8 1_555 1_555
C9 C8 1_555 1_555
H3 C9 1_555 1_555
C10 C5 1_555 1_555
H4 C10 1_555 1_555
C11 C12 1_555 1_555
C12 C2 1_555 1_555
C13 C12 1_555 1_555
H5 C13 1_555 1_555
C14 C13 1_555 1_555
H6 C14 1_555 1_555
C15 C14 1_555 1_555
H7 C15 1_555 1_555
C16 C11 1_555 1_555
H8 C16 1_555 1_555
C17 C18 1_555 1_555
C18 C4 1_555 1_555
C19 C18 1_555 1_555
H9 C19 1_555 1_555
C20 C19 1_555 1_555
H10 C20 1_555 1_555
C21 C20 1_555 1_555
H11 C21 1_555 1_555
C22 C17 1_555 1_555
H12 C22 1_555 1_555
C5 C6 1_555 1_555
C9 C10 1_555 1_555
C15 C16 1_555 1_555
C21 C22 1_555 1_555

#END
