
#######################################################################
#
#                 Cambridge Crystallographic Data Centre
#                                CCDC 
#
#######################################################################
#
# If this CIF has been generated from an entry in the Cambridge 
# Structural Database, then it will include bibliographic, chemical, 
# crystal, experimental, refinement or atomic coordinate data resulting 
# from the CCDC's data processing and validation procedures.
#
#######################################################################

data_AFIHIH
_chemical_formula_moiety         'C20 H14 Cl2 N2'
_chemical_name_systematic        
1-(4-Chlorobenzyl)-2-(4-chlorophenyl)-1H-benzimidazole
_symmetry_cell_setting           monoclinic
_symmetry_space_group_name_H-M   'P 21'
_symmetry_Int_Tables_number      4
_space_group_name_Hall           'P 2yb'
loop_
_symmetry_equiv_pos_site_id
_symmetry_equiv_pos_as_xyz
1 x,y,z
2 -x,1/2+y,-z
_cell_length_a                   11.6427(17)
_cell_length_b                   5.4420(7)
_cell_length_c                   13.2339(19)
_cell_angle_alpha                90
_cell_angle_beta                 90.936(2)
_cell_angle_gamma                90
_cell_volume                     838.382
_exptl_crystal_colour            yellow
_exptl_crystal_description       plate
_chemical_melting_point          '450-452 K'
_cell_formula_units_Z            2
_exptl_crystal_recrystallization_method ethanol
loop_
_atom_site_label
_atom_site_type_symbol
_atom_site_fract_x
_atom_site_fract_y
_atom_site_fract_z
Cl1 Cl 0.33404(9) 0.0815(2) 0.63346(7)
Cl2 Cl 0.75909(8) 1.0489(3) 0.12846(9)
N1 N 0.2015(2) 0.8712(5) 0.24471(19)
N2 N 0.0955(2) 1.0188(6) 0.3711(2)
C1 C 0.1724(3) 0.8546(7) 0.3452(2)
C2 C 0.0722(3) 1.1501(6) 0.2833(3)
C3 C 0.1370(2) 1.0590(7) 0.2042(2)
C4 C 0.1289(3) 1.1528(7) 0.1067(3)
H1 H 0.1722 1.0892 0.0543
C5 C 0.0540(3) 1.3436(8) 0.0918(3)
H2 H 0.0457 1.4107 0.0274
C6 C -0.0100(3) 1.4397(8) 0.1699(4)
H3 H -0.0592 1.5710 0.1568
C7 C -0.0027(3) 1.3453(8) 0.2671(3)
H4 H -0.0460 1.4099 0.3192
C8 C 0.2738(3) 0.7104(6) 0.1855(2)
H5 H 0.2384 0.6883 0.1193
H6 H 0.2772 0.5507 0.2180
C9 C 0.3948(3) 0.8033(6) 0.1723(2)
C10 C 0.4364(3) 1.0114(7) 0.2183(2)
H7 H 0.3889 1.1036 0.2595
C11 C 0.5489(3) 1.0852(8) 0.2038(3)
H8 H 0.5764 1.2271 0.2350
C12 C 0.6190(3) 0.9516(8) 0.1443(3)
C13 C 0.5794(3) 0.7433(8) 0.0987(3)
H9 H 0.6278 0.6500 0.0587
C14 C 0.4680(3) 0.6721(6) 0.1120(2)
H10 H 0.4410 0.5315 0.0795
C15 C 0.2178(3) 0.6688(6) 0.4160(2)
C16 C 0.3296(3) 0.5778(8) 0.4130(2)
H11 H 0.3803 0.6379 0.3653
C17 C 0.3657(3) 0.3989(7) 0.4805(3)
H12 H 0.4397 0.3357 0.4772
C18 C 0.2917(3) 0.3150(7) 0.5521(2)
C19 C 0.1828(3) 0.4092(7) 0.5594(3)
H13 H 0.1339 0.3547 0.6096
C20 C 0.1469(3) 0.5865(8) 0.4911(2)
H14 H 0.0734 0.6515 0.4959
loop_
_geom_bond_atom_site_label_1
_geom_bond_atom_site_label_2
_geom_bond_site_symmetry_1
_geom_bond_site_symmetry_2
Cl1 C18 1_555 1_555
Cl2 C12 1_555 1_555
N1 C1 1_555 1_555
N2 C1 1_555 1_555
C1 C15 1_555 1_555
C2 N2 1_555 1_555
C3 N1 1_555 1_555
C4 C3 1_555 1_555
H1 C4 1_555 1_555
C5 C4 1_555 1_555
H2 C5 1_555 1_555
C6 C5 1_555 1_555
H3 C6 1_555 1_555
C7 C2 1_555 1_555
H4 C7 1_555 1_555
C8 N1 1_555 1_555
H5 C8 1_555 1_555
H6 C8 1_555 1_555
C9 C8 1_555 1_555
C10 C9 1_555 1_555
H7 C10 1_555 1_555
C11 C10 1_555 1_555
H8 C11 1_555 1_555
C12 C11 1_555 1_555
C13 C12 1_555 1_555
H9 C13 1_555 1_555
C14 C9 1_555 1_555
H10 C14 1_555 1_555
C15 C16 1_555 1_555
C16 H11 1_555 1_555
C17 C16 1_555 1_555
H12 C17 1_555 1_555
C18 C17 1_555 1_555
C19 C18 1_555 1_555
H13 C19 1_555 1_555
C20 C15 1_555 1_555
H14 C20 1_555 1_555
C2 C3 1_555 1_555
C6 C7 1_555 1_555
C13 C14 1_555 1_555
C19 C20 1_555 1_555

#END
