
#######################################################################
#
#                 Cambridge Crystallographic Data Centre
#                                CCDC 
#
#######################################################################
#
# If this CIF has been generated from an entry in the Cambridge 
# Structural Database, then it will include bibliographic, chemical, 
# crystal, experimental, refinement or atomic coordinate data resulting 
# from the CCDC's data processing and validation procedures.
#
#######################################################################

data_AFIHON
_chemical_formula_moiety         'C26 H46 O4'
_chemical_name_systematic        2,5-bis(Methoxymethyl)-1,4-dioctyloxybenzene
_symmetry_cell_setting           triclinic
_symmetry_space_group_name_H-M   'P -1'
_symmetry_Int_Tables_number      2
_space_group_name_Hall           '-P 1'
loop_
_symmetry_equiv_pos_site_id
_symmetry_equiv_pos_as_xyz
1 x,y,z
2 -x,-y,-z
_cell_length_a                   6.6253(9)
_cell_length_b                   8.8218(9)
_cell_length_c                   11.7625(15)
_cell_angle_alpha                106.662(8)
_cell_angle_beta                 95.398(10)
_cell_angle_gamma                96.066(9)
_cell_volume                     649.325
_exptl_crystal_colour            colorless
_exptl_crystal_description       prism
_cell_formula_units_Z            1
loop_
_atom_site_label
_atom_site_type_symbol
_atom_site_fract_x
_atom_site_fract_y
_atom_site_fract_z
O1 O 0.3812(2) 0.14518(16) 0.61889(13)
O2 O 0.0976(3) 0.33836(18) 0.38263(15)
C1 C 0.0952(3) -0.0715(2) 0.57603(17)
H1 H 0.1603 -0.1192 0.6275
C2 C 0.0963(3) 0.1405(2) 0.48497(17)
C3 C 0.1910(3) 0.0668(2) 0.56160(18)
C4 C 0.4938(3) 0.0743(2) 0.69460(19)
H2 H 0.5184 -0.0312 0.6493
H3 H 0.4179 0.0642 0.7593
C5 C 0.6946(3) 0.1825(2) 0.74413(18)
H4 H 0.6666 0.2895 0.7830
H5 H 0.7705 0.1874 0.6784
C6 C 0.8262(3) 0.1272(2) 0.83323(19)
H6 H 0.7490 0.1190 0.8978
H7 H 0.8585 0.0217 0.7937
C7 C 1.0233(3) 0.2394(2) 0.88503(19)
H8 H 0.9905 0.3455 0.9223
H9 H 1.1014 0.2455 0.8204
C8 C 1.1552(3) 0.1891(3) 0.97676(19)
H10 H 1.1896 0.0838 0.9389
H11 H 1.0758 0.1810 1.0405
C9 C 1.3533(3) 0.3028(3) 1.0317(2)
H12 H 1.4318 0.3123 0.9679
H13 H 1.3189 0.4078 1.0707
C10 C 1.4858(3) 0.2508(3) 1.1217(2)
H14 H 1.4068 0.2397 1.1849
H15 H 1.5225 0.1467 1.0824
C11 C 1.6788(4) 0.3651(3) 1.1768(3)
H16 H 1.7535 0.3271 1.2346
H17 H 1.6441 0.4687 1.2156
H18 H 1.7618 0.3723 1.1154
C12 C 0.2062(3) 0.2960(2) 0.47022(18)
H19 H 0.2199 0.3812 0.5452
H20 H 0.3424 0.2800 0.4497
C13 C 0.1897(4) 0.4850(3) 0.3717(2)
H21 H 0.1130 0.5101 0.3077
H22 H 0.3276 0.4759 0.3548
H23 H 0.1909 0.5683 0.4452
O1A O -0.3812(2) -0.14518(16) 0.38111(13)
O2A O -0.0976(3) -0.33836(18) 0.61737(15)
C1A C -0.0952(3) 0.0715(2) 0.42397(17)
H1A H -0.1603 0.1192 0.3725
C2A C -0.0963(3) -0.1405(2) 0.51503(17)
C3A C -0.1910(3) -0.0668(2) 0.43840(18)
C4A C -0.4938(3) -0.0743(2) 0.30540(19)
H2A H -0.5184 0.0312 0.3507
H3A H -0.4179 -0.0642 0.2407
C5A C -0.6946(3) -0.1825(2) 0.25587(18)
H4A H -0.6666 -0.2895 0.2170
H5A H -0.7705 -0.1874 0.3216
C6A C -0.8262(3) -0.1272(2) 0.16677(19)
H6A H -0.7490 -0.1190 0.1022
H7A H -0.8585 -0.0217 0.2063
C7A C -1.0233(3) -0.2394(2) 0.11497(19)
H8A H -0.9905 -0.3455 0.0777
H9A H -1.1014 -0.2455 0.1796
C8A C -1.1552(3) -0.1891(3) 0.02324(19)
H10A H -1.1896 -0.0838 0.0611
H11A H -1.0758 -0.1810 -0.0405
C9A C -1.3533(3) -0.3028(3) -0.0317(2)
H12A H -1.4318 -0.3123 0.0321
H13A H -1.3189 -0.4078 -0.0707
C10A C -1.4858(3) -0.2508(3) -0.1217(2)
H14A H -1.4068 -0.2397 -0.1849
H15A H -1.5225 -0.1467 -0.0824
C11A C -1.6788(4) -0.3651(3) -0.1768(3)
H16A H -1.7535 -0.3271 -0.2346
H17A H -1.6441 -0.4687 -0.2156
H18A H -1.7618 -0.3723 -0.1154
C12A C -0.2062(3) -0.2960(2) 0.52978(18)
H19A H -0.2199 -0.3812 0.4548
H20A H -0.3424 -0.2800 0.5503
C13A C -0.1897(4) -0.4850(3) 0.6283(2)
H21A H -0.1130 -0.5101 0.6923
H22A H -0.3276 -0.4759 0.6452
H23A H -0.1909 -0.5683 0.5548
loop_
_geom_bond_atom_site_label_1
_geom_bond_atom_site_label_2
_geom_bond_site_symmetry_1
_geom_bond_site_symmetry_2
O1 C3 1_555 1_555
O2 C12 1_555 1_555
C1 H1 1_555 1_555
C2 C3 1_555 1_555
C3 C1 1_555 1_555
C4 O1 1_555 1_555
H2 C4 1_555 1_555
H3 C4 1_555 1_555
C5 C4 1_555 1_555
H4 C5 1_555 1_555
H5 C5 1_555 1_555
C6 C5 1_555 1_555
H6 C6 1_555 1_555
H7 C6 1_555 1_555
C7 C6 1_555 1_555
H8 C7 1_555 1_555
H9 C7 1_555 1_555
C8 C7 1_555 1_555
H10 C8 1_555 1_555
H11 C8 1_555 1_555
C9 C8 1_555 1_555
H12 C9 1_555 1_555
H13 C9 1_555 1_555
C10 C9 1_555 1_555
H14 C10 1_555 1_555
H15 C10 1_555 1_555
C11 C10 1_555 1_555
H16 C11 1_555 1_555
H17 C11 1_555 1_555
H18 C11 1_555 1_555
C12 C2 1_555 1_555
H19 C12 1_555 1_555
H20 C12 1_555 1_555
C13 O2 1_555 1_555
H21 C13 1_555 1_555
H22 C13 1_555 1_555
H23 C13 1_555 1_555
O1A C3A 1_555 1_555
O2A C12A 1_555 1_555
C1A C2 1_555 1_555
H1A C1A 1_555 1_555
C2A C1 1_555 1_555
C3A C1A 1_555 1_555
C4A O1A 1_555 1_555
H2A C4A 1_555 1_555
H3A C4A 1_555 1_555
C5A C4A 1_555 1_555
H4A C5A 1_555 1_555
H5A C5A 1_555 1_555
C6A C5A 1_555 1_555
H6A C6A 1_555 1_555
H7A C6A 1_555 1_555
C7A C6A 1_555 1_555
H8A C7A 1_555 1_555
H9A C7A 1_555 1_555
C8A C7A 1_555 1_555
H10A C8A 1_555 1_555
H11A C8A 1_555 1_555
C9A C8A 1_555 1_555
H12A C9A 1_555 1_555
H13A C9A 1_555 1_555
C10A C9A 1_555 1_555
H14A C10A 1_555 1_555
H15A C10A 1_555 1_555
C11A C10A 1_555 1_555
H16A C11A 1_555 1_555
H17A C11A 1_555 1_555
H18A C11A 1_555 1_555
C12A C2A 1_555 1_555
H19A C12A 1_555 1_555
H20A C12A 1_555 1_555
C13A O2A 1_555 1_555
H21A C13A 1_555 1_555
H22A C13A 1_555 1_555
H23A C13A 1_555 1_555
C2A C3A 1_555 1_555

#END
