
#######################################################################
#
#                 Cambridge Crystallographic Data Centre
#                                CCDC 
#
#######################################################################
#
# If this CIF has been generated from an entry in the Cambridge 
# Structural Database, then it will include bibliographic, chemical, 
# crystal, experimental, refinement or atomic coordinate data resulting 
# from the CCDC's data processing and validation procedures.
#
#######################################################################

data_AFIJOQ
_chemical_formula_moiety         'C12 H8 N2,2(H3 B1 O3)'
_chemical_name_systematic        '1,10-phenanthroline bis(boric acid)'
_symmetry_cell_setting           triclinic
_symmetry_space_group_name_H-M   'P -1'
_symmetry_Int_Tables_number      2
_space_group_name_Hall           '-P 1'
loop_
_symmetry_equiv_pos_site_id
_symmetry_equiv_pos_as_xyz
1 x,y,z
2 -x,-y,-z
_cell_length_a                   7.1390(13)
_cell_length_b                   9.6189(13)
_cell_length_c                   10.4756(15)
_cell_angle_alpha                93.767(11)
_cell_angle_beta                 101.546(14)
_cell_angle_gamma                90.644(13)
_cell_volume                     703.054
_exptl_crystal_colour            brown
_exptl_crystal_description       prism
_cell_formula_units_Z            2
loop_
_atom_site_label
_atom_site_type_symbol
_atom_site_fract_x
_atom_site_fract_y
_atom_site_fract_z
B1 B 0.0170(3) 0.65229(18) 0.64598(18)
O1 O 0.07961(17) 0.52138(11) 0.66548(10)
H1 H 0.1261 0.5050 0.7441
O2 O 0.02929(18) 0.75343(11) 0.74334(11)
H2 H 0.0796 0.7268 0.8180
O3 O -0.06394(19) 0.68679(11) 0.52361(11)
H3 H -0.0642 0.6217 0.4646
B2 B 0.2786(3) -0.00132(19) 0.59856(18)
O4 O 0.31472(16) 0.10158(11) 0.52210(12)
H4 H 0.2251 0.1595 0.5081
O5 O 0.39825(18) -0.11040(12) 0.61562(12)
H5 H 0.4881 -0.1068 0.5734
O6 O 0.12843(18) 0.00858(12) 0.65864(12)
H6 H 0.1101 -0.0702 0.6871
C1 C 0.1542(2) 0.83587(17) 1.04155(17)
H7 H 0.1058 0.9001 0.9816
C2 C 0.1999(3) 0.8822(2) 1.17305(19)
H8 H 0.1815 0.9743 1.1999
C3 C 0.2718(3) 0.7893(2) 1.26068(18)
H9 H 0.3014 0.8168 1.3493
C4 C 0.3018(2) 0.65145(18) 1.21789(15)
C5 C 0.2496(2) 0.61314(16) 1.08273(14)
C6 C 0.3852(3) 0.5520(2) 1.30610(17)
H10 H 0.4195 0.5784 1.3948
C7 C 0.4149(3) 0.4217(2) 1.26368(18)
H11 H 0.4714 0.3593 1.3231
C8 C 0.3612(2) 0.37654(17) 1.12795(16)
C9 C 0.2778(2) 0.47095(15) 1.03670(14)
C10 C 0.3890(2) 0.23972(17) 1.08186(18)
H12 H 0.4451 0.1755 1.1396
C11 C 0.3337(2) 0.20134(17) 0.95254(18)
H13 H 0.3496 0.1107 0.9206
C12 C 0.2522(2) 0.30118(16) 0.86861(16)
H14 H 0.2150 0.2741 0.7802
N1 N 0.17492(17) 0.70652(13) 0.99611(12)
N2 N 0.22495(17) 0.43158(12) 0.90711(12)
loop_
_geom_bond_atom_site_label_1
_geom_bond_atom_site_label_2
_geom_bond_site_symmetry_1
_geom_bond_site_symmetry_2
B1 O1 1_555 1_555
O1 H1 1_555 1_555
O2 B1 1_555 1_555
H2 O2 1_555 1_555
O3 B1 1_555 1_555
H3 O3 1_555 1_555
B2 O4 1_555 1_555
O4 H4 1_555 1_555
O5 B2 1_555 1_555
H5 O5 1_555 1_555
O6 B2 1_555 1_555
H6 O6 1_555 1_555
C1 H7 1_555 1_555
C2 C1 1_555 1_555
H8 C2 1_555 1_555
C3 C2 1_555 1_555
H9 C3 1_555 1_555
C4 C3 1_555 1_555
C5 C4 1_555 1_555
C6 C4 1_555 1_555
H10 C6 1_555 1_555
C7 C6 1_555 1_555
H11 C7 1_555 1_555
C8 C7 1_555 1_555
C9 C5 1_555 1_555
C10 C8 1_555 1_555
H12 C10 1_555 1_555
C11 C10 1_555 1_555
H13 C11 1_555 1_555
C12 C11 1_555 1_555
H14 C12 1_555 1_555
N1 C1 1_555 1_555
N2 C9 1_555 1_555
C5 N1 1_555 1_555
C8 C9 1_555 1_555
C12 N2 1_555 1_555

#END
