
#######################################################################
#
#                 Cambridge Crystallographic Data Centre
#                                CCDC 
#
#######################################################################
#
# If this CIF has been generated from an entry in the Cambridge 
# Structural Database, then it will include bibliographic, chemical, 
# crystal, experimental, refinement or atomic coordinate data resulting 
# from the CCDC's data processing and validation procedures.
#
#######################################################################

data_AFIJOQ01
_chemical_formula_moiety         'C12 H8 N2,2(H3 B1 O3)'
_chemical_name_systematic        '1,10-phenanthroline bis(boric acid)'
_symmetry_cell_setting           triclinic
_symmetry_space_group_name_H-M   'P -1'
_symmetry_Int_Tables_number      2
_space_group_name_Hall           '-P 1'
loop_
_symmetry_equiv_pos_site_id
_symmetry_equiv_pos_as_xyz
1 x,y,z
2 -x,-y,-z
_cell_length_a                   7.163(5)
_cell_length_b                   9.644(5)
_cell_length_c                   10.533(9)
_cell_angle_alpha                93.770(9)
_cell_angle_beta                 101.760(7)
_cell_angle_gamma                90.725(5)
_cell_volume                     710.552
_exptl_crystal_colour            colorless
_exptl_crystal_description       block
_cell_formula_units_Z            2
loop_
_atom_site_label
_atom_site_type_symbol
_atom_site_fract_x
_atom_site_fract_y
_atom_site_fract_z
B1 B 0.7782(3) 0.99864(19) 0.09850(17)
O1 O 0.89797(19) 0.88946(12) 0.11573(12)
H1 H 0.9780 0.8961 0.0706
O2 O 0.81523(17) 1.10160(12) 0.02235(12)
H2 H 0.7282 1.1568 0.0142
O3 O 0.62901(18) 1.00879(12) 0.15857(12)
H3 H 0.6109 0.9344 0.1882
B2 B 0.4840(3) 0.34783(19) 0.85393(17)
O4 O 0.47218(19) 0.24682(12) 0.75697(10)
H4 H 0.4222 0.2774 0.6877
O5 O 0.42086(19) 0.47874(11) 0.83443(10)
H5 H 0.3780 0.4852 0.7568
O6 O 0.5653(2) 0.31345(12) 0.97645(10)
H6 H 0.5651 0.3808 1.0281
N1 N 0.27501(18) 0.56843(13) 0.59273(12)
N2 N 0.32536(18) 0.29327(13) 0.50410(12)
C1 C 0.3465(3) 0.16388(18) 0.45858(17)
H7 H 0.3953 0.0999 0.5183
C2 C 0.3008(3) 0.1175(2) 0.32758(18)
H8 H 0.3192 0.0257 0.3009
C3 C 0.2281(3) 0.2106(2) 0.23971(18)
H9 H 0.1983 0.1832 0.1515
C4 C 0.2506(2) 0.38696(16) 0.41739(14)
C5 C 0.1983(2) 0.34809(19) 0.28259(15)
C6 C 0.1147(3) 0.4479(2) 0.19387(17)
H10 H 0.0811 0.4218 0.1055
C7 C 0.0844(3) 0.5783(2) 0.23644(17)
H11 H 0.0274 0.6404 0.1773
C8 C 0.1385(2) 0.62339(18) 0.37170(16)
C9 C 0.2222(2) 0.52854(16) 0.46317(14)
C10 C 0.2480(2) 0.69859(17) 0.63105(16)
H12 H 0.2861 0.7256 0.7190
C11 C 0.1655(3) 0.79857(18) 0.54730(18)
H13 H 0.1486 0.8888 0.5792
C12 C 0.1108(2) 0.75994(18) 0.41789(18)
H14 H 0.0552 0.8240 0.3603
loop_
_geom_bond_atom_site_label_1
_geom_bond_atom_site_label_2
_geom_bond_site_symmetry_1
_geom_bond_site_symmetry_2
B1 O1 1_555 1_555
O1 H1 1_555 1_555
O2 B1 1_555 1_555
H2 O2 1_555 1_555
O3 B1 1_555 1_555
H3 O3 1_555 1_555
B2 O4 1_555 1_555
O4 H4 1_555 1_555
O5 B2 1_555 1_555
H5 O5 1_555 1_555
O6 B2 1_555 1_555
H6 O6 1_555 1_555
N1 C9 1_555 1_555
N2 C1 1_555 1_555
C1 H7 1_555 1_555
C2 C1 1_555 1_555
H8 C2 1_555 1_555
C3 C2 1_555 1_555
H9 C3 1_555 1_555
C4 N2 1_555 1_555
C5 C3 1_555 1_555
C6 C5 1_555 1_555
H10 C6 1_555 1_555
C7 C6 1_555 1_555
H11 C7 1_555 1_555
C8 C7 1_555 1_555
C9 C4 1_555 1_555
C10 N1 1_555 1_555
H12 C10 1_555 1_555
C11 C10 1_555 1_555
H13 C11 1_555 1_555
C12 C8 1_555 1_555
H14 C12 1_555 1_555
C4 C5 1_555 1_555
C8 C9 1_555 1_555
C11 C12 1_555 1_555

#END
