
#######################################################################
#
#                 Cambridge Crystallographic Data Centre
#                                CCDC 
#
#######################################################################
#
# If this CIF has been generated from an entry in the Cambridge 
# Structural Database, then it will include bibliographic, chemical, 
# crystal, experimental, refinement or atomic coordinate data resulting 
# from the CCDC's data processing and validation procedures.
#
#######################################################################

data_AFIJEF
_chemical_formula_moiety         'C18 H22 N2 O4 2+,2(N1 O3 1-)'
_chemical_name_systematic        
"N,N'-bis(3,4-Methenedioxybenzyl)ethane-1,2-diammonium dinitrate"
_symmetry_cell_setting           monoclinic
_symmetry_space_group_name_H-M   'C 2/c'
_symmetry_Int_Tables_number      15
_space_group_name_Hall           '-C 2yn'
loop_
_symmetry_equiv_pos_site_id
_symmetry_equiv_pos_as_xyz
1 x,y,z
2 1/2+x,1/2+y,z
3 -x,y,1/2-z
4 1/2-x,1/2+y,1/2-z
5 -x,-y,-z
6 1/2-x,1/2-y,-z
7 x,-y,1/2+z
8 1/2+x,1/2-y,1/2+z
_cell_length_a                   33.590(3)
_cell_length_b                   5.6421(8)
_cell_length_c                   11.4747(15)
_cell_angle_alpha                90
_cell_angle_beta                 107.326(2)
_cell_angle_gamma                90
_cell_volume                     2075.99
_exptl_crystal_colour            colorless
_exptl_crystal_description       needle
_chemical_melting_point          '501 K'
_cell_formula_units_Z            4
loop_
_atom_site_label
_atom_site_type_symbol
_atom_site_fract_x
_atom_site_fract_y
_atom_site_fract_z
N1 N 0.44318(7) 0.0350(5) -0.0179(2)
H1 H 0.4439 0.1890 0.0031
H2 H 0.4436 -0.0512 0.0485
O1 O 0.29689(9) 0.6277(5) -0.1979(3)
O2 O 0.27695(9) 0.5442(6) -0.0269(3)
C1 C 0.48103(9) -0.0207(6) -0.0538(3)
H3 H 0.4822 0.0796 -0.1214
H4 H 0.4802 -0.1846 -0.0799
C2 C 0.40307(10) -0.0125(6) -0.1155(3)
H5 H 0.3969 -0.1807 -0.1183
H6 H 0.4057 0.0339 -0.1943
C3 C 0.36803(10) 0.1246(6) -0.0901(3)
C4 C 0.35020(11) 0.3134(6) -0.1661(3)
H7 H 0.3588 0.3530 -0.2336
C5 C 0.31951(11) 0.4381(7) -0.1368(3)
C6 C 0.30722(11) 0.3863(8) -0.0360(4)
C7 C 0.32454(13) 0.2067(8) 0.0397(4)
H8 H 0.3163 0.1731 0.1085
C8 C 0.35531(12) 0.0730(8) 0.0106(4)
H9 H 0.3675 -0.0536 0.0604
C9 C 0.26771(15) 0.6847(10) -0.1333(4)
H10 H 0.2698 0.8514 -0.1117
H11 H 0.2395 0.6532 -0.1843
N1D N 0.55682(7) -0.0350(5) 0.0179(2)
H1D H 0.5561 -0.1890 -0.0031
H2D H 0.5564 0.0512 -0.0485
O1D O 0.70311(9) -0.6277(5) 0.1979(3)
O2D O 0.72305(9) -0.5442(6) 0.0269(3)
C1D C 0.51897(9) 0.0207(6) 0.0538(3)
H3D H 0.5178 -0.0796 0.1214
H4D H 0.5198 0.1846 0.0799
C2D C 0.59693(10) 0.0125(6) 0.1155(3)
H5D H 0.6031 0.1807 0.1183
H6D H 0.5943 -0.0339 0.1943
C3D C 0.63197(10) -0.1246(6) 0.0901(3)
C4D C 0.64980(11) -0.3134(6) 0.1661(3)
H7D H 0.6412 -0.3530 0.2336
C5D C 0.68049(11) -0.4381(7) 0.1368(3)
C6D C 0.69278(11) -0.3863(8) 0.0360(4)
C7D C 0.67546(13) -0.2067(8) -0.0397(4)
H8D H 0.6837 -0.1731 -0.1085
C8D C 0.64469(12) -0.0730(8) -0.0106(4)
H9D H 0.6325 0.0536 -0.0604
C9D C 0.73229(15) -0.6847(10) 0.1333(4)
H10D H 0.7302 -0.8514 0.1117
H11D H 0.7605 -0.6532 0.1843
N2 N 0.44342(9) 0.5341(5) 0.1477(3)
O3 O 0.43900(10) 0.7387(5) 0.1821(2)
O4 O 0.45031(9) 0.5127(4) 0.0471(2)
O5 O 0.44070(12) 0.3594(6) 0.2065(3)
loop_
_geom_bond_atom_site_label_1
_geom_bond_atom_site_label_2
_geom_bond_site_symmetry_1
_geom_bond_site_symmetry_2
N1 H1 1_555 1_555
H2 N1 1_555 1_555
O1 C5 1_555 1_555
O2 C6 1_555 1_555
C1 N1 1_555 1_555
H3 C1 1_555 1_555
H4 C1 1_555 1_555
C2 N1 1_555 1_555
H5 C2 1_555 1_555
H6 C2 1_555 1_555
C3 C2 1_555 1_555
C4 C3 1_555 1_555
H7 C4 1_555 1_555
C5 C4 1_555 1_555
C6 C5 1_555 1_555
C7 C6 1_555 1_555
H8 C7 1_555 1_555
C8 C3 1_555 1_555
H9 C8 1_555 1_555
C9 O1 1_555 1_555
H10 C9 1_555 1_555
H11 C9 1_555 1_555
N2 O3 1_555 1_555
O4 N2 1_555 1_555
O5 N2 1_555 1_555
N1D H1D 1_555 1_555
H2D N1D 1_555 1_555
O1D C5D 1_555 1_555
O2D C6D 1_555 1_555
C1D C1 1_555 1_555
H3D C1D 1_555 1_555
H4D C1D 1_555 1_555
C2D N1D 1_555 1_555
H5D C2D 1_555 1_555
H6D C2D 1_555 1_555
C3D C2D 1_555 1_555
C4D C3D 1_555 1_555
H7D C4D 1_555 1_555
C5D C4D 1_555 1_555
C6D C5D 1_555 1_555
C7D C6D 1_555 1_555
H8D C7D 1_555 1_555
C8D C3D 1_555 1_555
H9D C8D 1_555 1_555
C9D O1D 1_555 1_555
H10D C9D 1_555 1_555
H11D C9D 1_555 1_555
O2 C9 1_555 1_555
C7 C8 1_555 1_555
N1D C1D 1_555 1_555
O2D C9D 1_555 1_555
C7D C8D 1_555 1_555

#END
