
#######################################################################
#
#                 Cambridge Crystallographic Data Centre
#                                CCDC 
#
#######################################################################
#
# If this CIF has been generated from an entry in the Cambridge 
# Structural Database, then it will include bibliographic, chemical, 
# crystal, experimental, refinement or atomic coordinate data resulting 
# from the CCDC's data processing and validation procedures.
#
#######################################################################

data_AFIJUV
_chemical_formula_moiety         'C30 H24 N2 O4'
_chemical_name_systematic        
N,N'-bis(2-Methoxyphenyl)anthracene-1,8-dicarboxamide
_symmetry_cell_setting           monoclinic
_symmetry_space_group_name_H-M   'P 21/c'
_symmetry_Int_Tables_number      14
_space_group_name_Hall           '-P 2ybc'
loop_
_symmetry_equiv_pos_site_id
_symmetry_equiv_pos_as_xyz
1 x,y,z
2 -x,1/2+y,1/2-z
3 -x,-y,-z
4 x,1/2-y,1/2+z
_cell_length_a                   13.131(3)
_cell_length_b                   11.864(2)
_cell_length_c                   14.911(3)
_cell_angle_alpha                90
_cell_angle_beta                 91.13(3)
_cell_angle_gamma                90
_cell_volume                     2322.48
_exptl_crystal_colour            yellow
_exptl_crystal_description       block
_cell_formula_units_Z            4
_exptl_crystal_recrystallization_method dmso
loop_
_atom_site_label
_atom_site_type_symbol
_atom_site_fract_x
_atom_site_fract_y
_atom_site_fract_z
O1 O 0.80682(7) 0.43852(9) 0.32771(6)
O2 O 0.92280(7) 0.28470(9) 0.61312(6)
O3 O 0.69131(8) 0.75454(9) 0.28542(7)
O4 O 0.71944(10) 0.92830(10) 0.55977(7)
N1 N 0.83860(8) 0.35283(9) 0.46228(7)
H1 H 0.8081 0.3267 0.5084
N2 N 0.64594(9) 0.86852(10) 0.40038(8)
H2 H 0.5991 0.8824 0.4383
C1 C 0.77717(10) 0.38556(11) 0.39246(8)
C2 C 0.66880(10) 0.34690(11) 0.39944(8)
C3 C 0.65052(12) 0.23509(13) 0.41266(10)
H3 H 0.7051 0.1865 0.4229
C4 C 0.55002(12) 0.19140(13) 0.41107(11)
H4 H 0.5394 0.1145 0.4185
C5 C 0.46969(11) 0.26096(13) 0.39878(10)
H5 H 0.4040 0.2316 0.3983
C6 C 0.48431(10) 0.37878(12) 0.38651(9)
C7 C 0.40171(10) 0.45152(13) 0.37357(9)
H6 H 0.3361 0.4220 0.3739
C8 C 0.41418(10) 0.56646(13) 0.36024(9)
C9 C 0.32907(10) 0.63914(14) 0.34815(10)
H7 H 0.2635 0.6095 0.3491
C10 C 0.34224(11) 0.75113(15) 0.33527(11)
H8 H 0.2859 0.7975 0.3262
C11 C 0.44143(11) 0.79795(13) 0.33559(10)
H9 H 0.4495 0.8753 0.3284
C12 C 0.52564(10) 0.73085(12) 0.34629(9)
C13 C 0.51545(10) 0.61194(12) 0.35810(9)
C14 C 0.59885(10) 0.53955(12) 0.36966(8)
H10 H 0.6644 0.5689 0.3671
C15 C 0.58584(10) 0.42404(12) 0.38492(9)
C16 C 0.62893(10) 0.78344(11) 0.34033(9)
C17 C 0.94581(9) 0.35625(11) 0.46862(8)
C18 C 1.00793(10) 0.39188(12) 0.40017(9)
H11 H 0.9794 0.4213 0.3476
C19 C 1.11299(11) 0.38351(15) 0.41045(10)
H12 H 1.1546 0.4066 0.3642
C20 C 1.15621(11) 0.34135(15) 0.48846(10)
H13 H 1.2267 0.3353 0.4942
C21 C 1.09525(11) 0.30789(13) 0.55847(10)
H14 H 1.1245 0.2806 0.6115
C22 C 0.99064(10) 0.31554(11) 0.54865(9)
C23 C 0.96345(12) 0.23011(13) 0.69133(9)
H15 H 1.0000 0.1637 0.6740
H16 H 0.9088 0.2094 0.7299
H17 H 1.0089 0.2806 0.7227
C24 C 0.73476(10) 0.93539(11) 0.40486(9)
C25 C 0.78309(12) 0.97149(12) 0.32848(10)
H18 H 0.7574 0.9509 0.2723
C26 C 0.86950(12) 1.03800(13) 0.33509(11)
H19 H 0.9021 1.0614 0.2835
C27 C 0.90712(12) 1.06945(12) 0.41811(12)
H20 H 0.9649 1.1145 0.4224
C28 C 0.85948(12) 1.03441(12) 0.49528(11)
H21 H 0.8853 1.0559 0.5512
C29 C 0.77318(11) 0.96719(11) 0.48910(9)
C30 C 0.76496(18) 0.94020(17) 0.64739(11)
H22 H 0.8295 0.9023 0.6493
H23 H 0.7210 0.9076 0.6911
H24 H 0.7748 1.0187 0.6605
loop_
_geom_bond_atom_site_label_1
_geom_bond_atom_site_label_2
_geom_bond_site_symmetry_1
_geom_bond_site_symmetry_2
O1 C1 1_555 1_555
O2 C22 1_555 1_555
O3 C16 1_555 1_555
O4 C29 1_555 1_555
N1 H1 1_555 1_555
N2 H2 1_555 1_555
C1 N1 1_555 1_555
C2 C1 1_555 1_555
C3 C2 1_555 1_555
H3 C3 1_555 1_555
C4 C3 1_555 1_555
H4 C4 1_555 1_555
C5 C4 1_555 1_555
H5 C5 1_555 1_555
C6 C5 1_555 1_555
C7 C6 1_555 1_555
H6 C7 1_555 1_555
C8 C7 1_555 1_555
C9 C8 1_555 1_555
H7 C9 1_555 1_555
C10 C9 1_555 1_555
H8 C10 1_555 1_555
C11 C10 1_555 1_555
H9 C11 1_555 1_555
C12 C11 1_555 1_555
C13 C8 1_555 1_555
C14 C13 1_555 1_555
H10 C14 1_555 1_555
C15 C2 1_555 1_555
C16 N2 1_555 1_555
C17 N1 1_555 1_555
C18 C17 1_555 1_555
H11 C18 1_555 1_555
C19 C18 1_555 1_555
H12 C19 1_555 1_555
C20 C19 1_555 1_555
H13 C20 1_555 1_555
C21 C20 1_555 1_555
H14 C21 1_555 1_555
C22 C17 1_555 1_555
C23 O2 1_555 1_555
H15 C23 1_555 1_555
H16 C23 1_555 1_555
H17 C23 1_555 1_555
C24 N2 1_555 1_555
C25 C24 1_555 1_555
H18 C25 1_555 1_555
C26 C25 1_555 1_555
H19 C26 1_555 1_555
C27 C26 1_555 1_555
H20 C27 1_555 1_555
C28 C27 1_555 1_555
H21 C28 1_555 1_555
C29 C24 1_555 1_555
C30 O4 1_555 1_555
H22 C30 1_555 1_555
H23 C30 1_555 1_555
H24 C30 1_555 1_555
C6 C15 1_555 1_555
C12 C13 1_555 1_555
C12 C16 1_555 1_555
C14 C15 1_555 1_555
C21 C22 1_555 1_555
C28 C29 1_555 1_555

#END
