
#######################################################################
#
#                 Cambridge Crystallographic Data Centre
#                                CCDC 
#
#######################################################################
#
# If this CIF has been generated from an entry in the Cambridge 
# Structural Database, then it will include bibliographic, chemical, 
# crystal, experimental, refinement or atomic coordinate data resulting 
# from the CCDC's data processing and validation procedures.
#
#######################################################################

data_AFIJEG
_chemical_formula_moiety         'C35 H32 N4'
_chemical_name_systematic        
2-(4-(9H-Carbazol-9-yl)phenyl)-1,3-diethyl-1,3-diphenylguanidine
_symmetry_cell_setting           orthorhombic
_symmetry_space_group_name_H-M   'P 21 21 21'
_symmetry_Int_Tables_number      19
_space_group_name_Hall           'P 2ac 2ab'
loop_
_symmetry_equiv_pos_site_id
_symmetry_equiv_pos_as_xyz
1 x,y,z
2 1/2-x,-y,1/2+z
3 1/2+x,1/2-y,-z
4 -x,1/2+y,1/2-z
_cell_length_a                   9.4741(2)
_cell_length_b                   15.9500(6)
_cell_length_c                   17.9102(8)
_cell_angle_alpha                90
_cell_angle_beta                 90
_cell_angle_gamma                90
_cell_volume                     2706.44
_exptl_crystal_colour            colorless
_exptl_crystal_description       block
_cell_formula_units_Z            4
loop_
_atom_site_label
_atom_site_type_symbol
_atom_site_fract_x
_atom_site_fract_y
_atom_site_fract_z
C1 C 0.2398(2) 0.01022(12) 0.15167(10)
N1 N 0.21769(17) 0.08232(11) 0.19605(9)
C2 C 0.0991(2) 0.07985(13) 0.24863(11)
H1 H 0.1373 0.0796 0.3001
H2 H 0.0474 0.0265 0.2413
C3 C -0.0054(2) 0.15231(15) 0.24149(13)
H3 H 0.0455 0.2057 0.2445
H4 H -0.0747 0.1492 0.2820
H5 H -0.0542 0.1486 0.1933
C4 C 0.3269(2) 0.14186(13) 0.20511(11)
C5 C 0.3325(2) 0.19439(14) 0.26785(12)
H6 H 0.2611 0.1910 0.3050
C6 C 0.4426(3) 0.25155(14) 0.27582(13)
H7 H 0.4451 0.2872 0.3183
C7 C 0.5483(2) 0.25736(14) 0.22300(13)
H8 H 0.6245 0.2953 0.2297
C8 C 0.5414(2) 0.20701(14) 0.16015(12)
H9 H 0.6130 0.2111 0.1232
C9 C 0.4312(2) 0.15069(13) 0.15042(11)
H10 H 0.4267 0.1178 0.1062
N2 N 0.12723(17) -0.01060(11) 0.10577(9)
C10 C 0.1179(2) -0.09757(13) 0.07804(11)
H11 H 0.2127 -0.1161 0.0616
H12 H 0.0545 -0.0991 0.0341
C11 C 0.0633(3) -0.15786(14) 0.13647(13)
H13 H 0.1243 -0.1556 0.1806
H14 H 0.0634 -0.2149 0.1162
H15 H -0.0331 -0.1421 0.1505
C12 C 0.0369(2) 0.05132(13) 0.07409(11)
C13 C -0.1054(2) 0.03251(14) 0.06186(11)
H16 H -0.1416 -0.0209 0.0755
C14 C -0.1937(2) 0.09201(14) 0.02976(12)
H17 H -0.2902 0.0789 0.0212
C15 C -0.1423(2) 0.17052(14) 0.01001(12)
H18 H -0.2031 0.2110 -0.0118
C16 C -0.0017(2) 0.18903(14) 0.02245(12)
H19 H 0.0338 0.2428 0.0094
C17 C 0.0877(2) 0.13042(13) 0.05360(11)
H20 H 0.1843 0.1438 0.0612
N3 N 0.34992(17) -0.03696(11) 0.15142(9)
C18 C 0.4536(2) -0.02744(12) 0.20755(11)
C19 C 0.4217(2) -0.02753(13) 0.28357(11)
H21 H 0.3265 -0.0337 0.2994
C20 C 0.5281(2) -0.01872(13) 0.33636(11)
H22 H 0.5060 -0.0200 0.3881
C21 C 0.6666(2) -0.00799(13) 0.31334(11)
C22 C 0.7001(2) -0.01022(14) 0.23777(12)
H23 H 0.7953 -0.0039 0.2221
C23 C 0.5944(2) -0.02163(13) 0.18542(11)
H24 H 0.6180 -0.0255 0.1340
N4 N 0.77493(17) 0.00757(11) 0.36707(9)
C24 C 0.7771(2) 0.07533(13) 0.41611(11)
C25 C 0.6772(2) 0.13854(13) 0.42557(12)
H25 H 0.5941 0.1408 0.3959
C26 C 0.7044(2) 0.19800(14) 0.48025(12)
H26 H 0.6380 0.2417 0.4884
C27 C 0.8272(2) 0.19524(14) 0.52382(12)
H27 H 0.8420 0.2367 0.5611
C28 C 0.9275(2) 0.13299(13) 0.51332(11)
H28 H 1.0107 0.1314 0.5429
C29 C 0.9032(2) 0.07256(13) 0.45807(11)
C30 C 0.9823(2) 0.00075(13) 0.43164(10)
C31 C 1.1140(2) -0.03379(14) 0.44977(11)
H29 H 1.1717 -0.0087 0.4870
C32 C 1.1585(2) -0.10510(14) 0.41248(11)
H30 H 1.2481 -0.1286 0.4238
C33 C 1.0730(2) -0.14313(14) 0.35808(12)
H31 H 1.1058 -0.1922 0.3335
C34 C 0.9419(2) -0.11072(14) 0.33932(12)
H32 H 0.8836 -0.1371 0.3031
C35 C 0.8993(2) -0.03802(13) 0.37572(11)
loop_
_geom_bond_atom_site_label_1
_geom_bond_atom_site_label_2
_geom_bond_site_symmetry_1
_geom_bond_site_symmetry_2
C1 N1 1_555 1_555
N1 C2 1_555 1_555
C2 H1 1_555 1_555
H2 C2 1_555 1_555
C3 C2 1_555 1_555
H3 C3 1_555 1_555
H4 C3 1_555 1_555
H5 C3 1_555 1_555
C4 N1 1_555 1_555
C5 C4 1_555 1_555
H6 C5 1_555 1_555
C6 C5 1_555 1_555
H7 C6 1_555 1_555
C7 C6 1_555 1_555
H8 C7 1_555 1_555
C8 C7 1_555 1_555
H9 C8 1_555 1_555
C9 C4 1_555 1_555
H10 C9 1_555 1_555
N2 C1 1_555 1_555
C10 N2 1_555 1_555
H11 C10 1_555 1_555
H12 C10 1_555 1_555
C11 C10 1_555 1_555
H13 C11 1_555 1_555
H14 C11 1_555 1_555
H15 C11 1_555 1_555
C12 N2 1_555 1_555
C13 C12 1_555 1_555
H16 C13 1_555 1_555
C14 C13 1_555 1_555
H17 C14 1_555 1_555
C15 C14 1_555 1_555
H18 C15 1_555 1_555
C16 C15 1_555 1_555
H19 C16 1_555 1_555
C17 C12 1_555 1_555
H20 C17 1_555 1_555
N3 C1 1_555 1_555
C18 N3 1_555 1_555
C19 C18 1_555 1_555
H21 C19 1_555 1_555
C20 C19 1_555 1_555
H22 C20 1_555 1_555
C21 C20 1_555 1_555
C22 C21 1_555 1_555
H23 C22 1_555 1_555
C23 C18 1_555 1_555
H24 C23 1_555 1_555
N4 C21 1_555 1_555
C24 N4 1_555 1_555
C25 C24 1_555 1_555
H25 C25 1_555 1_555
C26 C25 1_555 1_555
H26 C26 1_555 1_555
C27 C26 1_555 1_555
H27 C27 1_555 1_555
C28 C27 1_555 1_555
H28 C28 1_555 1_555
C29 C24 1_555 1_555
C30 C29 1_555 1_555
C31 C30 1_555 1_555
H29 C31 1_555 1_555
C32 C31 1_555 1_555
H30 C32 1_555 1_555
C33 C32 1_555 1_555
H31 C33 1_555 1_555
C34 C33 1_555 1_555
H32 C34 1_555 1_555
C35 N4 1_555 1_555
C8 C9 1_555 1_555
C16 C17 1_555 1_555
C22 C23 1_555 1_555
C28 C29 1_555 1_555
C30 C35 1_555 1_555
C34 C35 1_555 1_555

#END
