
#######################################################################
#
#                 Cambridge Crystallographic Data Centre
#                                CCDC 
#
#######################################################################
#
# If this CIF has been generated from an entry in the Cambridge 
# Structural Database, then it will include bibliographic, chemical, 
# crystal, experimental, refinement or atomic coordinate data resulting 
# from the CCDC's data processing and validation procedures.
#
#######################################################################

data_AFIKEG
_chemical_formula_moiety         'C16 H22 N2 2+,2(N1 O3 1-)'
_chemical_name_systematic        "N,N'-Dibenzylethane-1,2-diammonium dinitrate"
_symmetry_cell_setting           monoclinic
_symmetry_space_group_name_H-M   'P 21/c'
_symmetry_Int_Tables_number      14
_space_group_name_Hall           '-P 2ybc'
loop_
_symmetry_equiv_pos_site_id
_symmetry_equiv_pos_as_xyz
1 x,y,z
2 -x,1/2+y,1/2-z
3 -x,-y,-z
4 x,1/2-y,1/2+z
_cell_length_a                   5.7889(15)
_cell_length_b                   5.5654(14)
_cell_length_c                   29.858(3)
_cell_angle_alpha                90
_cell_angle_beta                 91.638(3)
_cell_angle_gamma                90
_cell_volume                     961.558
_exptl_crystal_colour            colorless
_exptl_crystal_description       block
_cell_formula_units_Z            2
loop_
_atom_site_label
_atom_site_type_symbol
_atom_site_fract_x
_atom_site_fract_y
_atom_site_fract_z
N1 N 0.4744(4) 0.9458(4) 0.06168(7)
H1 H 0.3281 0.8909 0.0607
H2 H 0.5690 0.8174 0.0626
C1 C 0.5158(5) 1.0821(5) 0.01998(9)
H3 H 0.6714 1.1468 0.0209
H4 H 0.4081 1.2154 0.0174
C2 C 0.5114(6) 1.0864(5) 0.10331(11)
H5 H 0.4219 1.2336 0.1014
H6 H 0.6733 1.1295 0.1066
C3 C 0.4409(7) 0.9453(7) 0.14330(12)
C4 C 0.2417(10) 0.9825(12) 0.16382(17)
H7 H 0.1406 1.1026 0.1540
C5 C 0.1848(15) 0.827(2) 0.2029(2)
H8 H 0.0499 0.8447 0.2187
C6 C 0.347(2) 0.656(2) 0.2133(3)
H9 H 0.3149 0.5565 0.2374
C7 C 0.5403(19) 0.6153(13) 0.1939(2)
H10 H 0.6420 0.4952 0.2034
C8 C 0.5840(11) 0.7599(9) 0.15861(14)
H11 H 0.7199 0.7332 0.1435
N1B N 0.5256(4) 1.0542(4) -0.06168(7)
H1B H 0.6719 1.1091 -0.0607
H2B H 0.4310 1.1826 -0.0626
C1B C 0.4842(5) 0.9179(5) -0.01998(9)
H3B H 0.3286 0.8532 -0.0209
H4B H 0.5919 0.7846 -0.0174
C2B C 0.4886(6) 0.9136(5) -0.10331(11)
H5B H 0.5781 0.7664 -0.1014
H6B H 0.3267 0.8705 -0.1066
C3B C 0.5591(7) 1.0547(7) -0.14330(12)
C4B C 0.7583(10) 1.0175(12) -0.16382(17)
H7B H 0.8594 0.8974 -0.1540
C5B C 0.8152(15) 1.173(2) -0.2029(2)
H8B H 0.9501 1.1553 -0.2187
C6B C 0.653(2) 1.344(2) -0.2133(3)
H9B H 0.6851 1.4435 -0.2374
C7B C 0.4597(19) 1.3847(13) -0.1939(2)
H10B H 0.3580 1.5048 -0.2034
C8B C 0.4160(11) 1.2401(9) -0.15861(14)
H11B H 0.2801 1.2668 -0.1435
N2 N 0.9771(5) 0.6263(5) 0.05954(9)
O1 O 0.9957(4) 0.8469(4) 0.05704(9)
O2 O 0.7799(5) 0.5400(4) 0.06156(10)
O3 O 1.1532(5) 0.5046(4) 0.05864(12)
loop_
_geom_bond_atom_site_label_1
_geom_bond_atom_site_label_2
_geom_bond_site_symmetry_1
_geom_bond_site_symmetry_2
N1 H1 1_555 1_555
H2 N1 1_555 1_555
N2 O1 1_555 1_555
O2 N2 1_555 1_555
O3 N2 1_555 1_555
C1 N1 1_555 1_555
H3 C1 1_555 1_555
H4 C1 1_555 1_555
C2 N1 1_555 1_555
H5 C2 1_555 1_555
H6 C2 1_555 1_555
C3 C2 1_555 1_555
C4 C3 1_555 1_555
H7 C4 1_555 1_555
C5 C4 1_555 1_555
H8 C5 1_555 1_555
C6 C5 1_555 1_555
H9 C6 1_555 1_555
C7 C6 1_555 1_555
H10 C7 1_555 1_555
C8 C3 1_555 1_555
H11 C8 1_555 1_555
N1B H1B 1_555 1_555
H2B N1B 1_555 1_555
C1B C1 1_555 1_555
H3B C1B 1_555 1_555
H4B C1B 1_555 1_555
C2B N1B 1_555 1_555
H5B C2B 1_555 1_555
H6B C2B 1_555 1_555
C3B C2B 1_555 1_555
C4B C3B 1_555 1_555
H7B C4B 1_555 1_555
C5B C4B 1_555 1_555
H8B C5B 1_555 1_555
C6B C5B 1_555 1_555
H9B C6B 1_555 1_555
C7B C6B 1_555 1_555
H10B C7B 1_555 1_555
C8B C3B 1_555 1_555
H11B C8B 1_555 1_555
C7 C8 1_555 1_555
N1B C1B 1_555 1_555
C7B C8B 1_555 1_555

#END
