
#######################################################################
#
#                 Cambridge Crystallographic Data Centre
#                                CCDC 
#
#######################################################################
#
# If this CIF has been generated from an entry in the Cambridge 
# Structural Database, then it will include bibliographic, chemical, 
# crystal, experimental, refinement or atomic coordinate data resulting 
# from the CCDC's data processing and validation procedures.
#
#######################################################################

data_AFIKIK
_chemical_formula_moiety         'C24 H34 N4 O4'
_chemical_name_systematic        
5,5'-bis(Diethylamino)-2,2'-(ethylenedioxybis(nitrilomethylidyne))-diphenol
_symmetry_cell_setting           monoclinic
_symmetry_space_group_name_H-M   'P 21/c'
_symmetry_Int_Tables_number      14
_space_group_name_Hall           '-P 2ybc'
loop_
_symmetry_equiv_pos_site_id
_symmetry_equiv_pos_as_xyz
1 x,y,z
2 -x,1/2+y,1/2-z
3 -x,-y,-z
4 x,1/2-y,1/2+z
_cell_length_a                   7.3705(10)
_cell_length_b                   18.386(2)
_cell_length_c                   8.9368(16)
_cell_angle_alpha                90
_cell_angle_beta                 97.063(2)
_cell_angle_gamma                90
_cell_volume                     1201.87
_exptl_crystal_colour            colorless
_exptl_crystal_description       prism
_cell_formula_units_Z            2
_exptl_crystal_recrystallization_method ethanol
loop_
_atom_site_label
_atom_site_type_symbol
_atom_site_fract_x
_atom_site_fract_y
_atom_site_fract_z
N1 N 0.7756(3) 0.48722(11) 0.1956(2)
N2 N 0.3985(2) 0.32076(11) 0.7116(2)
O1 O 0.7825(2) 0.52817(9) 0.06124(18)
O2 O 0.8711(2) 0.41916(11) 0.4589(2)
H1 H 0.8884 0.4424 0.3836
C1 C 0.9679(3) 0.53421(13) 0.0339(3)
H2 H 1.0441 0.5442 0.1280
H3 H 0.9800 0.5746 -0.0340
C2 C 0.6097(3) 0.47704(12) 0.2187(2)
H4 H 0.5166 0.4960 0.1500
C3 C 0.5613(3) 0.43738(12) 0.3469(2)
C4 C 0.6890(3) 0.40947(13) 0.4609(3)
C5 C 0.6359(3) 0.37169(13) 0.5808(2)
H5 H 0.7245 0.3536 0.6544
C6 C 0.4517(3) 0.35996(12) 0.5943(2)
C7 C 0.3223(3) 0.38893(12) 0.4812(2)
H6 H 0.1981 0.3825 0.4866
C8 C 0.3788(3) 0.42628(12) 0.3639(2)
H7 H 0.2904 0.4454 0.2913
C9 C 0.5293(3) 0.28426(14) 0.8212(3)
H8 H 0.6319 0.2680 0.7716
H9 H 0.4719 0.2416 0.8585
C10 C 0.5996(4) 0.33191(18) 0.9531(3)
H10 H 0.6590 0.3738 0.9174
H11 H 0.6853 0.3050 1.0214
H12 H 0.4992 0.3473 1.0045
C11 C 0.2080(3) 0.31521(14) 0.7367(3)
H13 H 0.1447 0.3591 0.6995
H14 H 0.2016 0.3124 0.8443
C12 C 0.1107(4) 0.25025(17) 0.6610(3)
H15 H 0.0987 0.2565 0.5536
H16 H -0.0084 0.2459 0.6931
H17 H 0.1800 0.2070 0.6882
N1B N 1.2244(3) 0.51278(11) -0.1956(2)
N2B N 1.6015(2) 0.67924(11) -0.7116(2)
O1B O 1.2175(2) 0.47183(9) -0.06124(18)
O2B O 1.1289(2) 0.58084(11) -0.4589(2)
H1B H 1.1116 0.5576 -0.3836
C1B C 1.0321(3) 0.46579(13) -0.0339(3)
H2B H 0.9559 0.4558 -0.1280
H3B H 1.0200 0.4254 0.0340
C2B C 1.3903(3) 0.52296(12) -0.2187(2)
H4B H 1.4834 0.5040 -0.1500
C3B C 1.4387(3) 0.56262(12) -0.3469(2)
C4B C 1.3110(3) 0.59053(13) -0.4609(3)
C5B C 1.3641(3) 0.62831(13) -0.5808(2)
H5B H 1.2755 0.6464 -0.6544
C6B C 1.5483(3) 0.64004(12) -0.5943(2)
C7B C 1.6777(3) 0.61107(12) -0.4812(2)
H6B H 1.8019 0.6175 -0.4866
C8B C 1.6212(3) 0.57372(12) -0.3639(2)
H7B H 1.7096 0.5546 -0.2913
C9B C 1.4707(3) 0.71574(14) -0.8212(3)
H8B H 1.3681 0.7320 -0.7716
H9B H 1.5281 0.7584 -0.8585
C10B C 1.4004(4) 0.66809(18) -0.9531(3)
H10B H 1.3410 0.6262 -0.9174
H11B H 1.3147 0.6950 -1.0214
H12B H 1.5008 0.6527 -1.0045
C11B C 1.7920(3) 0.68479(14) -0.7367(3)
H13B H 1.8553 0.6409 -0.6995
H14B H 1.7984 0.6876 -0.8443
C12B C 1.8893(4) 0.74975(17) -0.6610(3)
H15B H 1.9013 0.7435 -0.5536
H16B H 2.0084 0.7541 -0.6931
H17B H 1.8200 0.7930 -0.6882
loop_
_geom_bond_atom_site_label_1
_geom_bond_atom_site_label_2
_geom_bond_site_symmetry_1
_geom_bond_site_symmetry_2
N1 O1 1_555 1_555
N2 C6 1_555 1_555
O1 C1 1_555 1_555
O2 H1 1_555 1_555
C1 H2 1_555 1_555
H3 C1 1_555 1_555
C2 N1 1_555 1_555
H4 C2 1_555 1_555
C3 C2 1_555 1_555
C4 O2 1_555 1_555
C5 C4 1_555 1_555
H5 C5 1_555 1_555
C6 C5 1_555 1_555
C7 C6 1_555 1_555
H6 C7 1_555 1_555
C8 C3 1_555 1_555
H7 C8 1_555 1_555
C9 N2 1_555 1_555
H8 C9 1_555 1_555
H9 C9 1_555 1_555
C10 C9 1_555 1_555
H10 C10 1_555 1_555
H11 C10 1_555 1_555
H12 C10 1_555 1_555
C11 N2 1_555 1_555
H13 C11 1_555 1_555
H14 C11 1_555 1_555
C12 C11 1_555 1_555
H15 C12 1_555 1_555
H16 C12 1_555 1_555
H17 C12 1_555 1_555
N1B O1B 1_555 1_555
N2B C6B 1_555 1_555
O1B C1B 1_555 1_555
O2B H1B 1_555 1_555
C1B C1 1_555 1_555
H2B C1B 1_555 1_555
H3B C1B 1_555 1_555
C2B N1B 1_555 1_555
H4B C2B 1_555 1_555
C3B C2B 1_555 1_555
C4B O2B 1_555 1_555
C5B C4B 1_555 1_555
H5B C5B 1_555 1_555
C6B C5B 1_555 1_555
C7B C6B 1_555 1_555
H6B C7B 1_555 1_555
C8B C3B 1_555 1_555
H7B C8B 1_555 1_555
C9B N2B 1_555 1_555
H8B C9B 1_555 1_555
H9B C9B 1_555 1_555
C10B C9B 1_555 1_555
H10B C10B 1_555 1_555
H11B C10B 1_555 1_555
H12B C10B 1_555 1_555
C11B N2B 1_555 1_555
H13B C11B 1_555 1_555
H14B C11B 1_555 1_555
C12B C11B 1_555 1_555
H15B C12B 1_555 1_555
H16B C12B 1_555 1_555
H17B C12B 1_555 1_555
C3 C4 1_555 1_555
C7 C8 1_555 1_555
C3B C4B 1_555 1_555
C7B C8B 1_555 1_555

#END
