
#######################################################################
#
#                 Cambridge Crystallographic Data Centre
#                                CCDC 
#
#######################################################################
#
# If this CIF has been generated from an entry in the Cambridge 
# Structural Database, then it will include bibliographic, chemical, 
# crystal, experimental, refinement or atomic coordinate data resulting 
# from the CCDC's data processing and validation procedures.
#
#######################################################################

data_AFILAF
_chemical_compound_source        'Aspergillus terreus'
_chemical_formula_moiety         'C26 H34 O7'
_chemical_name_systematic        'Asperterpene M'
_symmetry_cell_setting           monoclinic
_symmetry_space_group_name_H-M   'P 21'
_symmetry_Int_Tables_number      4
_space_group_name_Hall           'P 2yb'
loop_
_symmetry_equiv_pos_site_id
_symmetry_equiv_pos_as_xyz
1 x,y,z
2 -x,1/2+y,-z
_cell_length_a                   12.2390(16)
_cell_length_b                   8.3534(10)
_cell_length_c                   23.758(3)
_cell_angle_alpha                90
_cell_angle_beta                 97.666(7)
_cell_angle_gamma                90
_cell_volume                     2407.24
_exptl_crystal_colour            colorless
_exptl_crystal_description       plate
_cell_formula_units_Z            4
loop_
_atom_site_label
_atom_site_type_symbol
_atom_site_fract_x
_atom_site_fract_y
_atom_site_fract_z
O1 O 0.7623(6) 0.8278(8) 0.9951(3)
O2 O 0.9328(9) 0.4881(13) 0.6690(4)
O3 O 0.6075(6) 0.9209(11) 1.0176(3)
O4 O 0.7097(8) 1.2814(9) 0.8692(3)
O5 O 0.7446(7) 1.1862(9) 0.9568(3)
O6 O 0.7773(10) 1.0679(11) 0.6902(3)
C1 C 0.6612(8) 0.8891(12) 0.9793(4)
C2 C 0.6213(8) 0.9113(13) 0.9164(4)
C3 C 0.7133(8) 0.9921(11) 0.8852(4)
C4 C 0.6955(8) 0.9617(12) 0.8185(4)
C5 C 0.6955(8) 0.7791(11) 0.8099(4)
H1 H 0.7644 0.7373 0.8325
C6 C 0.6970(9) 0.7214(12) 0.7459(4)
C7 C 0.7162(9) 0.5389(13) 0.7489(4)
H2 H 0.6480 0.4857 0.7574
H3 H 0.7753 0.5151 0.7805
C8 C 0.7491(11) 0.4688(14) 0.6931(5)
H4 H 0.7675 0.3540 0.6986
H5 H 0.6860 0.4777 0.6625
C9 C 0.8476(11) 0.5578(17) 0.6759(4)
C10 C 0.8278(8) 0.7830(11) 0.9517(3)
H6 H 0.7961 0.6868 0.9304
C11 C 0.8289(7) 0.9287(12) 0.9117(3)
O7 O 0.9138(5) 0.9920(8) 0.9035(3)
C12 C 0.7231(11) 1.1717(14) 0.9007(5)
C13 C 0.7560(17) 1.3516(15) 0.9769(6)
H7 H 0.8184 1.4020 0.9620
H8 H 0.7689 1.3527 1.0185
H9 H 0.6883 1.4108 0.9637
C14 C 0.5995(9) 0.7016(13) 0.8339(4)
H10 H 0.5302 0.7342 0.8103
H11 H 0.6062 0.5840 0.8307
C15 C 0.5912(7) 0.7432(13) 0.8953(4)
C16 C 0.5137(10) 1.0135(19) 0.9115(5)
H12 H 0.4634 0.9678 0.9360
H13 H 0.4781 1.0131 0.8720
H14 H 0.5321 1.1237 0.9233
C17 C 0.5492(10) 0.6383(17) 0.9281(5)
H15 H 0.5243 0.5373 0.9132
H16 H 0.5439 0.6640 0.9666
C18 C 0.7977(8) 0.8014(13) 0.7245(4)
H17 H 0.8611 0.7721 0.7537
C19 C 0.8319(9) 0.7357(16) 0.6669(4)
C20 C 0.7500(10) 0.7648(16) 0.6133(4)
H18 H 0.7905 0.7825 0.5810
H19 H 0.7052 0.8593 0.6188
H20 H 0.7020 0.6712 0.6059
C21 C 0.9426(12) 0.8064(19) 0.6583(5)
H21 H 0.9931 0.8001 0.6939
H22 H 0.9329 0.9187 0.6467
H23 H 0.9734 0.7462 0.6287
C22 C 0.7880(10) 0.9776(13) 0.7301(4)
C23 C 0.7912(9) 1.0343(14) 0.7895(4)
H24 H 0.7856 1.1525 0.7897
H25 H 0.8626 1.0041 0.8115
C24 C 0.5889(9) 0.7553(15) 0.7064(4)
H26 H 0.5728 0.6658 0.6799
H27 H 0.5970 0.8539 0.6850
H28 H 0.5284 0.7677 0.7292
C25 C 0.5888(10) 1.0436(15) 0.7908(4)
H29 H 0.5855 1.0399 0.7494
H30 H 0.5882 1.1554 0.8033
H31 H 0.5248 0.9876 0.8021
C26 C 0.9409(8) 0.7473(14) 0.9825(4)
H32 H 0.9723 0.8448 1.0011
H33 H 0.9887 0.7093 0.9553
H34 H 0.9353 0.6645 1.0112
O8 O -0.0481(6) 0.5845(11) 0.8546(3)
O9 O 0.3681(8) 0.4077(12) 0.5358(3)
C27 C 0.4494(13) 0.469(2) 0.5019(6)
H35 H 0.4323 0.5805 0.4917
H36 H 0.4476 0.4045 0.4673
H37 H 0.5229 0.4624 0.5239
O10 O 0.3047(6) 0.0603(11) 0.5160(3)
O11 O 0.1595(6) 0.2034(8) 0.5251(3)
O12 O 0.1619(7) 0.5685(8) 0.5817(3)
O13 O 0.4436(7) 0.5520(11) 0.6090(3)
O14 O 0.3312(6) 0.7233(11) 0.7820(3)
C28 C 0.0379(9) 0.5188(15) 0.8434(4)
C29 C 0.1408(8) 0.6159(13) 0.8321(4)
C30 C 0.1754(7) 0.5425(12) 0.7768(4)
H38 H 0.1104 0.5605 0.7472
C31 C 0.1964(9) 0.3564(12) 0.7757(4)
C32 C 0.2126(8) 0.3109(11) 0.7118(4)
H39 H 0.1409 0.3375 0.6883
C33 C 0.3024(7) 0.4130(11) 0.6860(4)
C34 C 0.2921(8) 0.3666(12) 0.6196(4)
C35 C 0.3782(10) 0.4544(16) 0.5893(4)
C36 C 0.0483(10) 0.3416(15) 0.8423(5)
H40 H -0.0240 0.2937 0.8468
H41 H 0.1016 0.3076 0.8752
C37 C 0.0864(10) 0.2754(14) 0.7875(5)
H42 H 0.0284 0.2950 0.7551
H43 H 0.0975 0.1583 0.7913
C38 C 0.3026(8) 0.1835(13) 0.6086(4)
C39 C 0.4218(9) 0.1217(17) 0.6196(5)
H44 H 0.4225 0.0056 0.6137
H45 H 0.4531 0.1462 0.6588
H46 H 0.4660 0.1739 0.5934
C40 C 0.2594(8) 0.1446(12) 0.5464(4)
C41 C 0.0988(9) 0.3072(12) 0.5601(4)
H47 H 0.0692 0.2421 0.5900
C42 C 0.1810(7) 0.4283(13) 0.5877(4)
C43 C 0.0075(13) 0.3747(16) 0.5211(7)
H48 H 0.0367 0.4277 0.4895
H49 H -0.0324 0.4528 0.5414
H50 H -0.0428 0.2886 0.5064
C44 C 0.2329(8) 0.0797(13) 0.6443(4)
C45 C 0.2278(9) 0.1318(13) 0.7046(4)
H51 H 0.2967 0.0985 0.7284
H52 H 0.1659 0.0753 0.7190
C46 C 0.1848(10) -0.0538(13) 0.6251(5)
H53 H 0.1468 -0.1176 0.6493
H54 H 0.1882 -0.0865 0.5871
C47 C 0.2834(8) 0.5931(12) 0.6947(4)
H55 H 0.3468 0.6539 0.6839
H56 H 0.2166 0.6274 0.6694
C48 C 0.2698(8) 0.6312(12) 0.7545(4)
C49 C 0.2205(9) 0.609(2) 0.8843(5)
H57 H 0.2809 0.6841 0.8813
H58 H 0.2502 0.5001 0.8893
H59 H 0.1835 0.6375 0.9170
C50 C 0.1058(9) 0.7892(14) 0.8213(5)
H60 H 0.0704 0.8288 0.8532
H61 H 0.0537 0.7958 0.7863
H62 H 0.1708 0.8548 0.8174
C51 C 0.4199(8) 0.3737(15) 0.7166(4)
H63 H 0.4750 0.4063 0.6925
H64 H 0.4260 0.2583 0.7238
H65 H 0.4326 0.4317 0.7527
C52 C 0.2916(10) 0.2990(16) 0.8186(4)
H66 H 0.2662 0.2851 0.8557
H67 H 0.3511 0.3783 0.8218
H68 H 0.3189 0.1965 0.8061
loop_
_geom_bond_atom_site_label_1
_geom_bond_atom_site_label_2
_geom_bond_site_symmetry_1
_geom_bond_site_symmetry_2
O1 C1 1_555 1_555
O2 C9 1_555 1_555
O3 C1 1_555 1_555
O4 C12 1_555 1_555
O5 C12 1_555 1_555
O6 C22 1_555 1_555
C1 C2 1_555 1_555
C2 C3 1_555 1_555
C3 C4 1_555 1_555
C4 C5 1_555 1_555
C5 H1 1_555 1_555
C6 C5 1_555 1_555
C7 C6 1_555 1_555
H2 C7 1_555 1_555
H3 C7 1_555 1_555
C8 C7 1_555 1_555
H4 C8 1_555 1_555
H5 C8 1_555 1_555
C9 C8 1_555 1_555
C10 O1 1_555 1_555
H6 C10 1_555 1_555
C11 C3 1_555 1_555
O7 C11 1_555 1_555
C12 C3 1_555 1_555
C13 O5 1_555 1_555
H7 C13 1_555 1_555
H8 C13 1_555 1_555
H9 C13 1_555 1_555
C14 C5 1_555 1_555
H10 C14 1_555 1_555
H11 C14 1_555 1_555
C15 C2 1_555 1_555
C16 C2 1_555 1_555
H12 C16 1_555 1_555
H13 C16 1_555 1_555
H14 C16 1_555 1_555
C17 C15 1_555 1_555
H15 C17 1_555 1_555
H16 C17 1_555 1_555
C18 C6 1_555 1_555
H17 C18 1_555 1_555
C19 C9 1_555 1_555
C20 C19 1_555 1_555
H18 C20 1_555 1_555
H19 C20 1_555 1_555
H20 C20 1_555 1_555
C21 C19 1_555 1_555
H21 C21 1_555 1_555
H22 C21 1_555 1_555
H23 C21 1_555 1_555
C22 C18 1_555 1_555
C23 C4 1_555 1_555
H24 C23 1_555 1_555
H25 C23 1_555 1_555
C24 C6 1_555 1_555
H26 C24 1_555 1_555
H27 C24 1_555 1_555
H28 C24 1_555 1_555
C25 C4 1_555 1_555
H29 C25 1_555 1_555
H30 C25 1_555 1_555
H31 C25 1_555 1_555
C26 C10 1_555 1_555
H32 C26 1_555 1_555
H33 C26 1_555 1_555
H34 C26 1_555 1_555
O8 C28 1_555 1_555
O9 C27 1_555 1_555
C27 H35 1_555 1_555
H36 C27 1_555 1_555
H37 C27 1_555 1_555
O10 C40 1_555 1_555
O11 C40 1_555 1_555
O12 C42 1_555 1_555
O13 C35 1_555 1_555
O14 C48 1_555 1_555
C28 C29 1_555 1_555
C29 C30 1_555 1_555
C30 H38 1_555 1_555
C31 C30 1_555 1_555
C32 C31 1_555 1_555
H39 C32 1_555 1_555
C33 C32 1_555 1_555
C34 C33 1_555 1_555
C35 O9 1_555 1_555
C36 C28 1_555 1_555
H40 C36 1_555 1_555
H41 C36 1_555 1_555
C37 C31 1_555 1_555
H42 C37 1_555 1_555
H43 C37 1_555 1_555
C38 C34 1_555 1_555
C39 C38 1_555 1_555
H44 C39 1_555 1_555
H45 C39 1_555 1_555
H46 C39 1_555 1_555
C40 C38 1_555 1_555
C41 O11 1_555 1_555
H47 C41 1_555 1_555
C42 C34 1_555 1_555
C43 C41 1_555 1_555
H48 C43 1_555 1_555
H49 C43 1_555 1_555
H50 C43 1_555 1_555
C44 C38 1_555 1_555
C45 C32 1_555 1_555
H51 C45 1_555 1_555
H52 C45 1_555 1_555
C46 C44 1_555 1_555
H53 C46 1_555 1_555
H54 C46 1_555 1_555
C47 C33 1_555 1_555
H55 C47 1_555 1_555
H56 C47 1_555 1_555
C48 C30 1_555 1_555
C49 C29 1_555 1_555
H57 C49 1_555 1_555
H58 C49 1_555 1_555
H59 C49 1_555 1_555
C50 C29 1_555 1_555
H60 C50 1_555 1_555
H61 C50 1_555 1_555
H62 C50 1_555 1_555
C51 C33 1_555 1_555
H63 C51 1_555 1_555
H64 C51 1_555 1_555
H65 C51 1_555 1_555
C52 C31 1_555 1_555
H66 C52 1_555 1_555
H67 C52 1_555 1_555
H68 C52 1_555 1_555
C10 C11 1_555 1_555
C14 C15 1_555 1_555
C18 C19 1_555 1_555
C22 C23 1_555 1_555
C34 C35 1_555 1_555
C36 C37 1_555 1_555
C41 C42 1_555 1_555
C44 C45 1_555 1_555
C47 C48 1_555 1_555

#END
