
#######################################################################
#
#                 Cambridge Crystallographic Data Centre
#                                CCDC 
#
#######################################################################
#
# If this CIF has been generated from an entry in the Cambridge 
# Structural Database, then it will include bibliographic, chemical, 
# crystal, experimental, refinement or atomic coordinate data resulting 
# from the CCDC's data processing and validation procedures.
#
#######################################################################

data_AFILIN
_chemical_compound_source        'Aspergillus terreus'
_chemical_formula_moiety         'C26 H34 O8'
_chemical_name_systematic        'Asperterpene G'
_chemical_properties_biological  'tested for BACE1 inhibitory activity'
_symmetry_cell_setting           triclinic
_symmetry_space_group_name_H-M   'P 1'
_symmetry_Int_Tables_number      1
_space_group_name_Hall           'P 1'
loop_
_symmetry_equiv_pos_site_id
_symmetry_equiv_pos_as_xyz
1 x,y,z
_cell_length_a                   6.5706(2)
_cell_length_b                   7.0972(2)
_cell_length_c                   13.8873(5)
_cell_angle_alpha                103.4790(10)
_cell_angle_beta                 90.0680(10)
_cell_angle_gamma                105.9100(10)
_cell_volume                     604.174
_cell_formula_units_Z            1
loop_
_atom_site_label
_atom_site_type_symbol
_atom_site_fract_x
_atom_site_fract_y
_atom_site_fract_z
C1 C -0.0154(3) 0.3753(3) 0.68430(16)
H1 H -0.1271 0.3926 0.6445
H2 H -0.0168 0.2345 0.6644
C2 C -0.0642(4) 0.4245(3) 0.79350(18)
H3 H -0.2082 0.3474 0.7999
H4 H 0.0304 0.3815 0.8318
C3 C -0.0418(4) 0.6433(3) 0.83658(18)
C4 C 0.1586(4) 0.7961(3) 0.81689(16)
C5 C 0.2011(3) 0.7311(3) 0.70640(16)
H5 H 0.0800 0.7460 0.6706
C6 C 0.3923(3) 0.8682(3) 0.67196(17)
C7 C 0.3899(3) 0.8461(3) 0.56169(16)
H6 H 0.2583 0.8684 0.5399
C8 C 0.3896(3) 0.6266(3) 0.50942(16)
C9 C 0.2026(3) 0.4772(3) 0.54682(16)
H7 H 0.0743 0.5075 0.5269
C10 C 0.1999(3) 0.5066(3) 0.66171(15)
C11 C 0.1799(4) 0.2585(3) 0.48783(17)
H8 H 0.3049 0.2204 0.5032
H9 H 0.0582 0.1685 0.5089
C12 C 0.1531(4) 0.2316(3) 0.37752(17)
C13 C 0.3343(4) 0.3675(3) 0.33472(18)
C14 C 0.3545(4) 0.5907(3) 0.39465(16)
H10 H 0.4798 0.6780 0.3729
C15 C 0.1632(3) 0.6477(3) 0.36238(16)
C16 C 0.2381(4) 0.5215(4) 0.19107(19)
C17 C 0.2861(4) 0.3472(4) 0.22415(19)
C18 C 0.3347(4) 0.8045(4) 0.89332(19)
H11 H 0.4671 0.8906 0.8805
H12 H 0.3478 0.6710 0.8877
H13 H 0.2984 0.8571 0.9591
C19 C 0.1208(6) 1.0049(4) 0.8371(2)
H14 H 0.0079 1.0015 0.7922
H15 H 0.2479 1.1025 0.8276
H16 H 0.0827 1.0416 0.9042
C20 C 0.6107(4) 0.6109(4) 0.5362(2)
H17 H 0.7091 0.6624 0.4912
H18 H 0.6036 0.4721 0.5314
H19 H 0.6573 0.6884 0.6028
C21 C 0.3787(4) 0.4474(3) 0.70746(18)
H20 H 0.3433 0.4257 0.7718
H21 H 0.5085 0.5539 0.7138
H22 H 0.3962 0.3255 0.6654
C22 C -0.0167(4) 0.1026(4) 0.3247(2)
H23 H -0.1225 0.0262 0.3557
H24 H -0.0304 0.0881 0.2565
C23 C 0.5372(5) 0.2985(4) 0.3382(2)
H25 H 0.5192 0.1723 0.2903
H26 H 0.5627 0.2817 0.4034
H27 H 0.6558 0.3985 0.3231
C24 C 0.4385(6) 0.6660(5) 0.1674(2)
H28 H 0.4049 0.7804 0.1530
H29 H 0.4967 0.5980 0.1108
H30 H 0.5404 0.7107 0.2234
C25 C 0.0856(5) 0.4316(4) 0.0987(2)
C26 C -0.2569(6) 0.2278(8) 0.0369(3)
H31 H -0.2830 0.3233 0.0030
H32 H -0.3870 0.1589 0.0603
H33 H -0.2024 0.1314 -0.0080
O1 O -0.1747(3) 0.6963(3) 0.88787(17)
O2 O 0.5406(3) 0.9888(3) 0.72581(13)
O3 O 0.5635(3) 0.9908(2) 0.53594(14)
H34 H 0.656(5) 1.033(5) 0.581(2)
O4 O 0.0411(2) 0.7119(2) 0.41435(12)
O5 O 0.1245(3) 0.6244(2) 0.26420(12)
O6 O 0.2936(4) 0.2007(3) 0.16140(15)
O7 O 0.1337(4) 0.4396(4) 0.01677(16)
O8 O -0.1024(4) 0.3338(4) 0.12090(15)
loop_
_geom_bond_atom_site_label_1
_geom_bond_atom_site_label_2
_geom_bond_site_symmetry_1
_geom_bond_site_symmetry_2
C1 H1 1_555 1_555
H2 C1 1_555 1_555
C2 C1 1_555 1_555
H3 C2 1_555 1_555
H4 C2 1_555 1_555
C3 C2 1_555 1_555
C4 C3 1_555 1_555
C5 C4 1_555 1_555
H5 C5 1_555 1_555
C6 C5 1_555 1_555
C7 C6 1_555 1_555
H6 C7 1_555 1_555
C8 C7 1_555 1_555
C9 C8 1_555 1_555
H7 C9 1_555 1_555
C10 C1 1_555 1_555
C11 C9 1_555 1_555
H8 C11 1_555 1_555
H9 C11 1_555 1_555
C12 C11 1_555 1_555
C13 C12 1_555 1_555
C14 C8 1_555 1_555
H10 C14 1_555 1_555
C15 C14 1_555 1_555
C16 C17 1_555 1_555
C17 C13 1_555 1_555
C18 C4 1_555 1_555
H11 C18 1_555 1_555
H12 C18 1_555 1_555
H13 C18 1_555 1_555
C19 C4 1_555 1_555
H14 C19 1_555 1_555
H15 C19 1_555 1_555
H16 C19 1_555 1_555
C20 C8 1_555 1_555
H17 C20 1_555 1_555
H18 C20 1_555 1_555
H19 C20 1_555 1_555
C21 C10 1_555 1_555
H20 C21 1_555 1_555
H21 C21 1_555 1_555
H22 C21 1_555 1_555
C22 C12 1_555 1_555
H23 C22 1_555 1_555
H24 C22 1_555 1_555
C23 C13 1_555 1_555
H25 C23 1_555 1_555
H26 C23 1_555 1_555
H27 C23 1_555 1_555
C24 C16 1_555 1_555
H28 C24 1_555 1_555
H29 C24 1_555 1_555
H30 C24 1_555 1_555
C25 C16 1_555 1_555
C26 H31 1_555 1_555
H32 C26 1_555 1_555
H33 C26 1_555 1_555
O1 C3 1_555 1_555
O2 C6 1_555 1_555
O3 C7 1_555 1_555
H34 O3 1_555 1_555
O4 C15 1_555 1_555
O5 C15 1_555 1_555
O6 C17 1_555 1_555
O7 C25 1_555 1_555
O8 C25 1_555 1_555
C5 C10 1_555 1_555
C9 C10 1_555 1_555
C13 C14 1_555 1_555
C16 O5 1_555 1_555
C26 O8 1_555 1_555

#END
