
#######################################################################
#
#                 Cambridge Crystallographic Data Centre
#                                CCDC 
#
#######################################################################
#
# If this CIF has been generated from an entry in the Cambridge 
# Structural Database, then it will include bibliographic, chemical, 
# crystal, experimental, refinement or atomic coordinate data resulting 
# from the CCDC's data processing and validation procedures.
#
#######################################################################

data_AFILOT
_chemical_compound_source        'Aspergillus terreus'
_chemical_formula_moiety         'C26 H30 O9'
_chemical_name_systematic        'Asperterpene D'
_chemical_properties_biological  'tested for BACE1 inhibitory activity'
_symmetry_cell_setting           monoclinic
_symmetry_space_group_name_H-M   'P 21'
_symmetry_Int_Tables_number      4
_space_group_name_Hall           'P 2yb'
loop_
_symmetry_equiv_pos_site_id
_symmetry_equiv_pos_as_xyz
1 x,y,z
2 -x,1/2+y,-z
_cell_length_a                   18.2722(7)
_cell_length_b                   8.8097(4)
_cell_length_c                   30.3644(12)
_cell_angle_alpha                90
_cell_angle_beta                 106.554(2)
_cell_angle_gamma                90
_cell_volume                     4685.24
_exptl_crystal_colour            colorless
_exptl_crystal_description       needle
_cell_formula_units_Z            8
loop_
_atom_site_label
_atom_site_type_symbol
_atom_site_fract_x
_atom_site_fract_y
_atom_site_fract_z
O1 O 0.51700(14) 0.3654(3) 0.57568(8)
O2 O 0.13329(11) 1.1891(3) 0.44941(7)
O3 O 0.08695(11) 1.0328(3) 0.54477(7)
O4 O 0.22036(11) 0.7388(3) 0.53816(7)
O5 O 0.00010(11) 0.9034(3) 0.45162(7)
O6 O 0.15605(13) 1.2406(3) 0.54071(8)
O7 O 0.24429(11) 1.1663(3) 0.43440(7)
O8 O 0.33963(11) 1.0879(3) 0.52421(7)
O9 O 0.47308(11) 0.9542(3) 0.56023(7)
H1 H 0.4594 1.0454 0.5594
C1 C 0.46955(18) 0.4600(4) 0.57734(10)
C2 C 0.39601(19) 0.4147(4) 0.58684(11)
H2 H 0.4055 0.4026 0.6204
H3 H 0.3798 0.3148 0.5724
C3 C 0.33084(17) 0.5282(4) 0.56922(10)
H4 H 0.3299 0.5999 0.5942
H5 H 0.2816 0.4730 0.5604
C4 C 0.33985(16) 0.6181(4) 0.52739(10)
C5 C 0.26906(16) 0.7183(4) 0.50798(9)
C6 C 0.27775(15) 0.8658(4) 0.48302(9)
C7 C 0.20265(15) 0.9564(4) 0.47396(9)
H6 H 0.1954 0.9755 0.5049
C8 C 0.19959(16) 1.1111(4) 0.45184(10)
C9 C 0.07877(16) 1.1243(4) 0.47056(10)
C10 C 0.11226(16) 1.1418(4) 0.52303(10)
C11 C 0.11902(19) 1.0304(5) 0.59408(11)
H7 H 0.1747 1.0223 0.6017
H8 H 0.0988 0.9430 0.6068
H9 H 0.1053 1.1242 0.6072
C12 C 0.19286(16) 0.6474(4) 0.49621(10)
H10 H 0.1926 0.5352 0.5012
C13 C 0.12881(16) 0.7061(4) 0.45881(10)
C14 C 0.12867(15) 0.8720(4) 0.44578(9)
C15 C 0.11247(17) 0.8900(4) 0.39263(10)
H11 H 0.1542 0.8440 0.3829
H12 H 0.1087 0.9980 0.3846
H13 H 0.0644 0.8391 0.3770
C16 C 0.06246(16) 0.9579(4) 0.45624(9)
C17 C 0.00632(17) 1.2190(4) 0.45461(12)
H14 H 0.0163 1.3217 0.4673
H15 H -0.0342 1.1721 0.4653
H16 H -0.0099 1.2241 0.4210
C18 C 0.34184(15) 0.9519(4) 0.51677(9)
C19 C 0.41091(15) 0.8648(4) 0.54075(9)
C20 C 0.41190(16) 0.7134(4) 0.54561(9)
C21 C 0.48411(17) 0.6295(4) 0.57277(10)
C22 C 0.50927(17) 0.6864(4) 0.62361(10)
H17 H 0.5181 0.7962 0.6241
H18 H 0.5564 0.6347 0.6404
H19 H 0.4690 0.6640 0.6382
C23 C 0.54905(18) 0.6540(5) 0.55079(12)
H20 H 0.5337 0.6146 0.5193
H21 H 0.5948 0.6004 0.5688
H22 H 0.5601 0.7628 0.5503
C24 C 0.30170(16) 0.8354(4) 0.43892(10)
H23 H 0.2977 0.9295 0.4212
H24 H 0.2680 0.7583 0.4203
H25 H 0.3546 0.7990 0.4473
C25 C 0.07625(17) 0.6087(4) 0.43621(11)
H26 H 0.0805 0.5042 0.4443
H27 H 0.0343 0.6433 0.4119
C26 C 0.34796(18) 0.5068(4) 0.48977(11)
H28 H 0.3516 0.5642 0.4628
H29 H 0.3033 0.4400 0.4810
H30 H 0.3942 0.4455 0.5016
O10 O 0.38377(12) 0.5263(3) 1.02891(7)
O11 O 0.04502(16) 1.3948(4) 1.06390(9)
O12 O 0.46483(12) 0.7241(3) 1.04007(7)
O13 O 0.32443(11) 0.5774(3) 0.94347(7)
O14 O 0.20158(12) 0.5814(3) 0.93693(8)
O15 O 0.31272(11) 1.0529(3) 1.02215(7)
O16 O 0.10132(14) 0.8104(3) 1.06139(8)
H31 H 0.1156 0.7200 1.0606
O17 O 0.20580(14) 0.6876(3) 1.02684(8)
O18 O 0.45297(12) 0.8757(3) 0.94301(9)
C27 C 0.3998(2) 0.5066(5) 1.07795(11)
H32 H 0.4545 0.5212 1.0926
H33 H 0.3850 0.4039 1.0845
H34 H 0.3707 0.5812 1.0900
C28 C 0.42011(16) 0.6390(4) 1.01527(10)
C29 C 0.39777(16) 0.6487(4) 0.96252(10)
C30 C 0.39581(16) 0.8139(4) 0.94663(10)
C31 C 0.31679(16) 0.8913(4) 0.93416(9)
C32 C 0.27513(16) 0.8088(4) 0.96612(9)
H35 H 0.3141 0.8009 0.9968
C33 C 0.20735(16) 0.8956(4) 0.97504(10)
C34 C 0.18504(16) 0.8141(4) 1.01391(10)
C35 C 0.13722(16) 0.9006(4) 1.03694(10)
C36 C 0.13197(16) 1.0510(4) 1.03672(10)
C37 C 0.08308(16) 1.1355(4) 1.06236(10)
C38 C 0.0957(2) 1.3059(5) 1.06363(11)
C39 C 0.26094(16) 0.6480(4) 0.94875(10)
C40 C 0.32264(15) 1.0602(4) 0.94181(10)
C41 C 0.29215(16) 1.1284(4) 0.97749(10)
H36 H 0.2914 1.2418 0.9783
C42 C 0.23351(16) 1.0518(4) 0.99397(9)
C43 C 0.17805(17) 1.1489(4) 1.01265(10)
C44 C 0.13725(16) 0.9046(4) 0.93181(10)
H37 H 0.0919 0.9330 0.9410
H38 H 0.1290 0.8055 0.9165
H39 H 0.1467 0.9811 0.9106
C45 C 0.1750(2) 1.3616(5) 1.06904(16)
H40 H 0.2003 1.3773 1.1022
H41 H 0.1718 1.4617 1.0538
C46 C 0.22527(19) 1.2578(4) 1.04974(11)
H42 H 0.2587 1.1976 1.0751
H43 H 0.2584 1.3207 1.0363
C47 C -0.00118(19) 1.0953(6) 1.04096(15)
H44 H -0.0324 1.1489 1.0574
H45 H -0.0082 0.9856 1.0432
H46 H -0.0169 1.1259 1.0086
C48 C 0.10650(19) 1.0923(4) 1.11392(11)
H47 H 0.1599 1.1206 1.1280
H48 H 0.1005 0.9826 1.1170
H49 H 0.0739 1.1464 1.1293
C49 C 0.1255(2) 1.2416(5) 0.97292(12)
H50 H 0.0980 1.1726 0.9485
H51 H 0.1564 1.3120 0.9607
H52 H 0.0888 1.2993 0.9843
C50 C 0.35266(18) 1.1531(4) 0.91691(11)
H53 H 0.3540 1.2594 0.9224
H54 H 0.3727 1.1129 0.8937
C51 C 0.28015(18) 0.8569(4) 0.88251(10)
H55 H 0.2308 0.9088 0.8719
H56 H 0.2726 0.7472 0.8781
H57 H 0.3139 0.8931 0.8648
C52 C 0.45574(18) 0.5569(4) 0.94614(11)
H58 H 0.4575 0.4527 0.9578
H59 H 0.5063 0.6034 0.9577
H60 H 0.4407 0.5554 0.9125
O19 O 1.17982(13) 0.4171(3) 0.69050(7)
O20 O 1.20093(11) 0.4567(3) 0.77736(7)
O21 O 0.69145(12) 0.9904(3) 0.69045(8)
O22 O 1.09384(12) 0.2297(3) 0.68403(8)
O23 O 1.18556(12) 0.6983(3) 0.79088(7)
O24 O 0.92912(11) 0.4777(3) 0.71260(6)
O25 O 1.08058(14) 0.1427(3) 0.77951(9)
O26 O 0.97255(11) 1.0136(3) 0.68084(7)
H61 H 1.0201 1.0232 0.6867
O27 O 1.07565(12) 0.7867(3) 0.70635(8)
C53 C 1.1650(2) 0.4230(5) 0.64128(12)
H62 H 1.1860 0.3322 0.6307
H63 H 1.1890 0.5137 0.6329
H64 H 1.1097 0.4272 0.6268
C54 C 1.14176(16) 0.3139(4) 0.70678(10)
C55 C 1.16752(16) 0.3126(4) 0.75998(10)
C56 C 1.15515(16) 0.5801(4) 0.77749(10)
C57 C 1.07078(16) 0.5420(4) 0.76348(10)
H65 H 1.0597 0.4973 0.7320
C58 C 1.01394(15) 0.6739(4) 0.75920(9)
C59 C 1.02122(16) 0.7836(4) 0.72155(10)
C60 C 0.95629(16) 0.8905(4) 0.70377(10)
C61 C 0.88536(16) 0.8633(4) 0.70624(9)
C62 C 0.81907(16) 0.9713(4) 0.68439(10)
C63 C 0.74190(16) 0.9069(4) 0.68520(10)
C64 C 0.93258(16) 0.6087(4) 0.74220(9)
C65 C 0.91927(16) 0.4566(4) 0.75826(10)
H66 H 0.8658 0.4359 0.7590
C66 C 0.97939(16) 0.3727(4) 0.79242(10)
C67 C 0.95907(18) 0.2742(4) 0.81972(11)
H67 H 0.9066 0.2586 0.8171
H68 H 0.9970 0.2192 0.8419
C68 C 1.06211(16) 0.4075(4) 0.79556(10)
C69 C 1.10869(17) 0.4293(4) 0.84653(10)
H69 H 1.0871 0.5136 0.8598
H70 H 1.1619 0.4520 0.8483
H71 H 1.1065 0.3361 0.8637
C70 C 1.09930(17) 0.2710(4) 0.77825(10)
C71 C 0.86503(15) 0.7183(4) 0.72707(9)
C72 C 0.80060(15) 0.6440(4) 0.68815(9)
H72 H 0.8186 0.6306 0.6606
H73 H 0.7887 0.5424 0.6982
C73 C 0.72792(15) 0.7413(4) 0.67566(10)
H74 H 0.7015 0.7278 0.6426
H75 H 0.6934 0.7039 0.6931
C74 C 0.83226(18) 1.1269(4) 0.70722(12)
H76 H 0.7899 1.1945 0.6922
H77 H 0.8803 1.1695 0.7044
H78 H 0.8351 1.1168 0.7398
C75 C 0.80951(17) 0.9863(4) 0.63213(10)
H79 H 0.8068 0.8850 0.6184
H80 H 0.8532 1.0414 0.6274
H81 H 0.7624 1.0420 0.6175
C76 C 0.83485(16) 0.7524(4) 0.76891(10)
H82 H 0.8765 0.7923 0.7942
H83 H 0.8152 0.6587 0.7787
H84 H 0.7937 0.8276 0.7602
C77 C 1.02586(16) 0.7665(4) 0.80388(10)
H85 H 1.0801 0.7919 0.8163
H86 H 1.0093 0.7063 0.8264
H87 H 0.9958 0.8602 0.7972
C78 C 1.22996(18) 0.1941(4) 0.77658(11)
H88 H 1.2732 0.2189 0.7648
H89 H 1.2100 0.0938 0.7654
H90 H 1.2469 0.1935 0.8102
O28 O 0.24707(12) 1.0813(3) 0.68406(7)
O29 O 0.71196(12) 0.4468(3) 0.82763(8)
O30 O 0.60643(13) 0.2749(3) 0.72849(8)
O31 O 0.53570(11) 0.9848(3) 0.69721(7)
H91 H 0.5815 0.9605 0.7007
O32 O 0.62168(12) 0.7665(3) 0.74443(7)
O33 O 0.44888(11) 0.5085(2) 0.73474(6)
O34 O 0.57444(13) 0.1547(3) 0.81615(8)
O35 O 0.70073(12) 0.6916(3) 0.83725(8)
O36 O 0.72251(16) 0.3792(4) 0.74267(10)
C79 C 0.29189(16) 0.9771(4) 0.68675(9)
C80 C 0.26466(17) 0.8146(4) 0.68286(11)
H92 H 0.2402 0.7910 0.6501
H93 H 0.2253 0.8038 0.6993
C81 C 0.32810(16) 0.6988(4) 0.70223(10)
H94 H 0.3491 0.6638 0.6773
H95 H 0.3064 0.6095 0.7138
C82 C 0.39362(16) 0.7665(4) 0.74176(10)
C83 C 0.45157(15) 0.6431(4) 0.76275(9)
C84 C 0.53455(16) 0.6911(4) 0.78635(9)
C85 C 0.58513(16) 0.5496(4) 0.79809(10)
H96 H 0.5827 0.5009 0.7680
C86 C 0.66919(17) 0.5766(4) 0.82134(11)
C87 C 0.67726(18) 0.3080(4) 0.80614(12)
C88 C 0.67188(18) 0.3243(4) 0.75552(13)
C89 C 0.5961(2) 0.2945(5) 0.67930(12)
H97 H 0.5993 0.4026 0.6725
H98 H 0.5459 0.2552 0.6621
H99 H 0.6361 0.2388 0.6704
C90 C 0.37557(16) 1.0085(4) 0.68973(10)
C91 C 0.37471(17) 1.0003(4) 0.63845(10)
H100 H 0.3583 0.8989 0.6263
H101 H 0.4261 1.0205 0.6359
H102 H 0.3392 1.0763 0.6207
C92 C 0.39829(17) 1.1668(4) 0.70901(11)
H103 H 0.3627 1.2416 0.6907
H104 H 0.4502 1.1895 0.7078
H105 H 0.3966 1.1710 0.7410
C93 C 0.42945(16) 0.8897(4) 0.71879(9)
C94 C 0.50434(16) 0.8887(4) 0.72167(9)
C95 C 0.55915(16) 0.7805(4) 0.75020(10)
C96 C 0.42611(16) 0.4978(4) 0.77702(10)
H106 H 0.3699 0.4894 0.7726
C97 C 0.47429(16) 0.4066(4) 0.81533(10)
C98 C 0.56080(16) 0.4237(4) 0.82731(10)
C99 C 0.59877(17) 0.2801(4) 0.81576(10)
C100 C 0.7323(2) 0.1801(5) 0.82711(17)
H107 H 0.7823 0.2009 0.8225
H108 H 0.7125 0.0839 0.8122
H109 H 0.7376 0.1732 0.8601
C101 C 0.59439(17) 0.4484(4) 0.87977(10)
H110 H 0.5796 0.5490 0.8881
H111 H 0.6502 0.4415 0.8881
H112 H 0.5746 0.3703 0.8964
C102 C 0.44087(17) 0.3188(4) 0.83905(11)
H113 H 0.3867 0.3149 0.8314
H114 H 0.4709 0.2594 0.8637
C103 C 0.35931(17) 0.8330(4) 0.77882(10)
H115 H 0.3299 0.7543 0.7890
H116 H 0.3257 0.9184 0.7658
H117 H 0.4007 0.8683 0.8051
C104 C 0.53931(17) 0.7945(4) 0.82822(10)
H118 H 0.5928 0.8064 0.8461
H119 H 0.5105 0.7483 0.8475
H120 H 0.5176 0.8941 0.8176
loop_
_geom_bond_atom_site_label_1
_geom_bond_atom_site_label_2
_geom_bond_site_symmetry_1
_geom_bond_site_symmetry_2
O1 C1 1_555 1_555
O2 C8 1_555 1_555
O3 C10 1_555 1_555
O4 C5 1_555 1_555
O5 C16 1_555 1_555
O6 C10 1_555 1_555
O7 C8 1_555 1_555
O8 C18 1_555 1_555
O9 H1 1_555 1_555
C1 C2 1_555 1_555
C2 H2 1_555 1_555
H3 C2 1_555 1_555
C3 C2 1_555 1_555
H4 C3 1_555 1_555
H5 C3 1_555 1_555
C4 C3 1_555 1_555
C5 C4 1_555 1_555
C6 C5 1_555 1_555
C7 C6 1_555 1_555
H6 C7 1_555 1_555
C8 C7 1_555 1_555
C9 O2 1_555 1_555
C10 C9 1_555 1_555
C11 O3 1_555 1_555
H7 C11 1_555 1_555
H8 C11 1_555 1_555
H9 C11 1_555 1_555
C12 O4 1_555 1_555
H10 C12 1_555 1_555
C13 C12 1_555 1_555
C14 C7 1_555 1_555
C15 C14 1_555 1_555
H11 C15 1_555 1_555
H12 C15 1_555 1_555
H13 C15 1_555 1_555
C16 C9 1_555 1_555
C17 C9 1_555 1_555
H14 C17 1_555 1_555
H15 C17 1_555 1_555
H16 C17 1_555 1_555
C18 C6 1_555 1_555
C19 O9 1_555 1_555
C20 C4 1_555 1_555
C21 C1 1_555 1_555
C22 C21 1_555 1_555
H17 C22 1_555 1_555
H18 C22 1_555 1_555
H19 C22 1_555 1_555
C23 C21 1_555 1_555
H20 C23 1_555 1_555
H21 C23 1_555 1_555
H22 C23 1_555 1_555
C24 C6 1_555 1_555
H23 C24 1_555 1_555
H24 C24 1_555 1_555
H25 C24 1_555 1_555
C25 C13 1_555 1_555
H26 C25 1_555 1_555
H27 C25 1_555 1_555
C26 C4 1_555 1_555
H28 C26 1_555 1_555
H29 C26 1_555 1_555
H30 C26 1_555 1_555
O10 C27 1_555 1_555
O11 C38 1_555 1_555
O12 C28 1_555 1_555
O13 C29 1_555 1_555
O14 C39 1_555 1_555
O15 C41 1_555 1_555
O16 H31 1_555 1_555
O17 C34 1_555 1_555
O18 C30 1_555 1_555
C27 H32 1_555 1_555
H33 C27 1_555 1_555
H34 C27 1_555 1_555
C28 O10 1_555 1_555
C29 C28 1_555 1_555
C30 C29 1_555 1_555
C31 C30 1_555 1_555
C32 C31 1_555 1_555
H35 C32 1_555 1_555
C33 C32 1_555 1_555
C34 C33 1_555 1_555
C35 O16 1_555 1_555
C36 C35 1_555 1_555
C37 C36 1_555 1_555
C38 C37 1_555 1_555
C39 O13 1_555 1_555
C40 C31 1_555 1_555
C41 C40 1_555 1_555
H36 C41 1_555 1_555
C42 O15 1_555 1_555
C43 C36 1_555 1_555
C44 C33 1_555 1_555
H37 C44 1_555 1_555
H38 C44 1_555 1_555
H39 C44 1_555 1_555
C45 C38 1_555 1_555
H40 C45 1_555 1_555
H41 C45 1_555 1_555
C46 C43 1_555 1_555
H42 C46 1_555 1_555
H43 C46 1_555 1_555
C47 C37 1_555 1_555
H44 C47 1_555 1_555
H45 C47 1_555 1_555
H46 C47 1_555 1_555
C48 C37 1_555 1_555
H47 C48 1_555 1_555
H48 C48 1_555 1_555
H49 C48 1_555 1_555
C49 C43 1_555 1_555
H50 C49 1_555 1_555
H51 C49 1_555 1_555
H52 C49 1_555 1_555
C50 C40 1_555 1_555
H53 C50 1_555 1_555
H54 C50 1_555 1_555
C51 C31 1_555 1_555
H55 C51 1_555 1_555
H56 C51 1_555 1_555
H57 C51 1_555 1_555
C52 C29 1_555 1_555
H58 C52 1_555 1_555
H59 C52 1_555 1_555
H60 C52 1_555 1_555
O19 C53 1_555 1_555
O20 C55 1_555 1_555
O21 C63 1_555 1_555
O22 C54 1_555 1_555
O23 C56 1_555 1_555
O24 C64 1_555 1_555
O25 C70 1_555 1_555
O26 H61 1_555 1_555
O27 C59 1_555 1_555
C53 H62 1_555 1_555
H63 C53 1_555 1_555
H64 C53 1_555 1_555
C54 O19 1_555 1_555
C55 C54 1_555 1_555
C56 O20 1_555 1_555
C57 C56 1_555 1_555
H65 C57 1_555 1_555
C58 C57 1_555 1_555
C59 C58 1_555 1_555
C60 O26 1_555 1_555
C61 C60 1_555 1_555
C62 C61 1_555 1_555
C63 C62 1_555 1_555
C64 C58 1_555 1_555
C65 O24 1_555 1_555
H66 C65 1_555 1_555
C66 C65 1_555 1_555
C67 C66 1_555 1_555
H67 C67 1_555 1_555
H68 C67 1_555 1_555
C68 C57 1_555 1_555
C69 C68 1_555 1_555
H69 C69 1_555 1_555
H70 C69 1_555 1_555
H71 C69 1_555 1_555
C70 C55 1_555 1_555
C71 C61 1_555 1_555
C72 C71 1_555 1_555
H72 C72 1_555 1_555
H73 C72 1_555 1_555
C73 C63 1_555 1_555
H74 C73 1_555 1_555
H75 C73 1_555 1_555
C74 C62 1_555 1_555
H76 C74 1_555 1_555
H77 C74 1_555 1_555
H78 C74 1_555 1_555
C75 C62 1_555 1_555
H79 C75 1_555 1_555
H80 C75 1_555 1_555
H81 C75 1_555 1_555
C76 C71 1_555 1_555
H82 C76 1_555 1_555
H83 C76 1_555 1_555
H84 C76 1_555 1_555
C77 C58 1_555 1_555
H85 C77 1_555 1_555
H86 C77 1_555 1_555
H87 C77 1_555 1_555
C78 C55 1_555 1_555
H88 C78 1_555 1_555
H89 C78 1_555 1_555
H90 C78 1_555 1_555
O28 C79 1_555 1_555
O29 C86 1_555 1_555
O30 C88 1_555 1_555
O31 H91 1_555 1_555
O32 C95 1_555 1_555
O33 C83 1_555 1_555
O34 C99 1_555 1_555
O35 C86 1_555 1_555
O36 C88 1_555 1_555
C79 C80 1_555 1_555
C80 H92 1_555 1_555
H93 C80 1_555 1_555
C81 C80 1_555 1_555
H94 C81 1_555 1_555
H95 C81 1_555 1_555
C82 C81 1_555 1_555
C83 C82 1_555 1_555
C84 C83 1_555 1_555
C85 C84 1_555 1_555
H96 C85 1_555 1_555
C86 C85 1_555 1_555
C87 O29 1_555 1_555
C88 C87 1_555 1_555
C89 O30 1_555 1_555
H97 C89 1_555 1_555
H98 C89 1_555 1_555
H99 C89 1_555 1_555
C90 C79 1_555 1_555
C91 C90 1_555 1_555
H100 C91 1_555 1_555
H101 C91 1_555 1_555
H102 C91 1_555 1_555
C92 C90 1_555 1_555
H103 C92 1_555 1_555
H104 C92 1_555 1_555
H105 C92 1_555 1_555
C93 C82 1_555 1_555
C94 O31 1_555 1_555
C95 C84 1_555 1_555
C96 O33 1_555 1_555
H106 C96 1_555 1_555
C97 C96 1_555 1_555
C98 C85 1_555 1_555
C99 C87 1_555 1_555
C100 C87 1_555 1_555
H107 C100 1_555 1_555
H108 C100 1_555 1_555
H109 C100 1_555 1_555
C101 C98 1_555 1_555
H110 C101 1_555 1_555
H111 C101 1_555 1_555
H112 C101 1_555 1_555
C102 C97 1_555 1_555
H113 C102 1_555 1_555
H114 C102 1_555 1_555
C103 C82 1_555 1_555
H115 C103 1_555 1_555
H116 C103 1_555 1_555
H117 C103 1_555 1_555
C104 C84 1_555 1_555
H118 C104 1_555 1_555
H119 C104 1_555 1_555
H120 C104 1_555 1_555
C5 C12 1_555 1_555
C13 C14 1_555 1_555
C14 C16 1_555 1_555
C18 C19 1_555 1_555
C19 C20 1_555 1_555
C20 C21 1_555 1_555
C32 C39 1_555 1_555
C33 C42 1_555 1_555
C34 C35 1_555 1_555
C41 C42 1_555 1_555
C42 C43 1_555 1_555
C45 C46 1_555 1_555
C59 C60 1_555 1_555
C64 C65 1_555 1_555
C64 C71 1_555 1_555
C66 C68 1_555 1_555
C68 C70 1_555 1_555
C72 C73 1_555 1_555
C83 C96 1_555 1_555
C90 C93 1_555 1_555
C93 C94 1_555 1_555
C94 C95 1_555 1_555
C97 C98 1_555 1_555
C98 C99 1_555 1_555

#END
