
#######################################################################
#
#                 Cambridge Crystallographic Data Centre
#                                CCDC 
#
#######################################################################
#
# If this CIF has been generated from an entry in the Cambridge 
# Structural Database, then it will include bibliographic, chemical, 
# crystal, experimental, refinement or atomic coordinate data resulting 
# from the CCDC's data processing and validation procedures.
#
#######################################################################

data_AFIMOR
_chemical_formula_moiety         'C16 H25 N1 O6 S1'
_chemical_name_systematic        
N-Methyl-N-((2S*,3S*,4S*,6S*)-2,3,6-trimethoxy-2-methyltetrahydro-2H-4-pyranyl)benzenesulfonamide
_symmetry_cell_setting           triclinic
_symmetry_space_group_name_H-M   'P -1'
_symmetry_Int_Tables_number      2
_space_group_name_Hall           '-P 1'
loop_
_symmetry_equiv_pos_site_id
_symmetry_equiv_pos_as_xyz
1 x,y,z
2 -x,-y,-z
_cell_length_a                   8.194(2)
_cell_length_b                   11.102(3)
_cell_length_c                   21.682(6)
_cell_angle_alpha                103.256(5)
_cell_angle_beta                 91.586(5)
_cell_angle_gamma                100.670(5)
_cell_volume                     1881.58
_cell_formula_units_Z            4
loop_
_atom_site_label
_atom_site_type_symbol
_atom_site_fract_x
_atom_site_fract_y
_atom_site_fract_z
S1 S 0.7332(1) 0.4450(1) 0.0906(1)
O1 O 0.6676(4) 0.0581(3) -0.1250(1)
O2 O 0.8614(5) -0.0313(4) -0.0845(2)
O3 O 0.7212(5) 0.2652(3) -0.1377(2)
O4 O 0.4117(4) 0.1388(3) -0.0441(2)
O5 O 0.7680(4) 0.5148(3) 0.0433(2)
O6 O 0.6343(4) 0.4889(4) 0.1408(2)
N1 N 0.6423(5) 0.3024(4) 0.0546(2)
C1 C 0.7607(6) 0.1280(5) -0.0136(2)
C2 C 0.8095(6) 0.0825(5) -0.0800(2)
C3 C 0.5973(7) 0.1665(5) -0.1255(2)
C4 C 0.5467(6) 0.2243(4) -0.0590(2)
C5 C 0.6927(6) 0.2475(4) -0.0101(2)
C6 C 0.9250(5) 0.4353(4) 0.1262(2)
C7 C 0.9328(6) 0.4214(5) 0.1882(2)
C8 C 1.0862(7) 0.4140(5) 0.2157(2)
C9 C 1.2258(7) 0.4216(6) 0.1816(3)
C10 C 1.2159(6) 0.4338(5) 0.1195(3)
C11 C 1.0664(6) 0.4417(5) 0.0920(2)
C12 C 0.9428(9) -0.0698(7) -0.1408(4)
C13 C 0.7898(11) 0.2398(7) -0.1973(3)
C14 C 0.4518(8) 0.1241(6) -0.1749(2)
C15 C 0.2654(7) 0.1886(6) -0.0309(3)
C16 C 0.5742(7) 0.2174(5) 0.0946(2)
H1 H 0.8601 0.1433 0.0111
H2 H 0.6722 0.0588 -0.0030
H3 H 0.9036 0.1429 -0.1005
H4 H 0.5113 0.3047 -0.0576
H5 H 0.7743 0.3093 -0.0204
H6 H 0.8360 0.4201 0.2068
H7 H 1.0659 0.4043 0.2580
H8 H 1.3255 0.4196 0.1993
H9 H 1.3322 0.4576 0.0899
H10 H 1.0564 0.4568 0.0509
H11 H 1.0529 0.0035 -0.1328
H12 H 0.9877 -0.1412 -0.1386
H13 H 0.8567 -0.1015 -0.1663
H14 H 0.8353 0.1545 -0.2109
H15 H 0.9086 0.2794 -0.1907
H16 H 0.7208 0.2628 -0.2268
H17 H 0.5038 0.0977 -0.2175
H18 H 0.3520 0.0779 -0.1530
H19 H 0.3900 0.1996 -0.1773
H20 H 0.3004 0.2675 -0.0158
H21 H 0.1858 0.1082 -0.0146
H22 H 0.1821 0.1847 -0.0634
H23 H 0.6686 0.1749 0.1116
H24 H 0.5081 0.1428 0.0702
H25 H 0.5320 0.2641 0.1327
S2 S 0.2189(1) 0.3580(1) 0.4104(1)
O7 O 0.2405(4) 0.1626(3) 0.6215(1)
O8 O 0.4029(5) 0.0254(4) 0.5781(2)
O9 O 0.3186(5) 0.3817(3) 0.6363(2)
O10 O -0.0476(4) 0.1891(3) 0.5452(2)
O11 O 0.2841(5) 0.4679(3) 0.4585(2)
O12 O 0.0919(4) 0.3607(4) 0.3643(2)
N2 N 0.1451(5) 0.2465(4) 0.4449(2)
C17 C 0.2802(6) 0.1257(5) 0.5093(2)
C18 C 0.3579(6) 0.1380(4) 0.5750(2)
C19 C 0.1843(6) 0.2778(4) 0.6247(2)
C20 C 0.1055(6) 0.2794(4) 0.5599(2)
C21 C 0.2239(5) 0.2474(4) 0.5078(2)
C22 C 0.3869(5) 0.3127(4) 0.3673(2)
C23 C 0.3564(7) 0.2415(5) 0.3054(2)
C24 C 0.4882(9) 0.2081(6) 0.2717(3)
C25 C 0.6471(9) 0.2462(7) 0.2996(4)
C26 C 0.6771(7) 0.3156(7) 0.3617(4)
C27 C 0.5479(6) 0.3486(5) 0.3964(3)
C28 C 0.4981(10) 0.0318(7) 0.6351(3)
C29 C 0.4208(10) 0.4018(6) 0.6935(3)
C30 C 0.0615(9) 0.2852(6) 0.6758(3)
C31 C -0.1892(7) 0.2415(6) 0.5354(3)
C32 C 0.0502(7) 0.1274(6) 0.4043(2)
H26 H 0.1903 0.0487 0.4991
H27 H 0.3583 0.1105 0.4854
H28 H 0.4674 0.2183 0.5859
H29 H 0.0945 0.3612 0.5624
H30 H 0.3205 0.3190 0.5209
H31 H 0.2281 0.2111 0.2856
H32 H 0.4789 0.1625 0.2304
H33 H 0.7498 0.2265 0.2732
H34 H 0.7892 0.3692 0.3960
H35 H 0.5807 0.4003 0.4408
H36 H 0.6008 0.1023 0.6369
H37 H 0.4595 0.0667 0.6669
H38 H 0.5246 -0.0524 0.6289
H39 H 0.4393 0.3137 0.7012
H40 H 0.5029 0.4560 0.6977
H41 H 0.3638 0.4584 0.7305
H42 H 0.0224 0.3627 0.6859
H43 H -0.0378 0.1941 0.6559
H44 H 0.1193 0.2891 0.7151
H45 H -0.1676 0.2758 0.5021
H46 H -0.2032 0.3181 0.5695
H47 H -0.2976 0.1545 0.5152
H48 H -0.0143 0.1370 0.3721
H49 H 0.1545 0.0860 0.3755
H50 H 0.0019 0.0767 0.4292
loop_
_geom_bond_atom_site_label_1
_geom_bond_atom_site_label_2
_geom_bond_site_symmetry_1
_geom_bond_site_symmetry_2
S1 O5 1_555 1_555
S2 O11 1_555 1_555
O1 C2 1_555 1_555
O2 C2 1_555 1_555
O3 C3 1_555 1_555
O4 C4 1_555 1_555
O6 S1 1_555 1_555
O7 C18 1_555 1_555
O8 C18 1_555 1_555
O9 C19 1_555 1_555
O10 C20 1_555 1_555
O12 S2 1_555 1_555
N1 S1 1_555 1_555
N2 S2 1_555 1_555
C1 C2 1_555 1_555
C2 H3 1_555 1_555
C3 O1 1_555 1_555
C4 C3 1_555 1_555
C5 N1 1_555 1_555
C6 S1 1_555 1_555
C7 C6 1_555 1_555
C8 C7 1_555 1_555
C9 C8 1_555 1_555
C10 C9 1_555 1_555
C11 C6 1_555 1_555
C12 O2 1_555 1_555
C13 O3 1_555 1_555
C14 C3 1_555 1_555
C15 O4 1_555 1_555
C16 N1 1_555 1_555
C17 C18 1_555 1_555
C18 H28 1_555 1_555
C19 O7 1_555 1_555
C20 C19 1_555 1_555
C21 N2 1_555 1_555
C22 S2 1_555 1_555
C23 C22 1_555 1_555
C24 C23 1_555 1_555
C25 C24 1_555 1_555
C26 C25 1_555 1_555
C27 C22 1_555 1_555
C28 O8 1_555 1_555
C29 O9 1_555 1_555
C30 C19 1_555 1_555
C31 O10 1_555 1_555
C32 N2 1_555 1_555
H1 C1 1_555 1_555
H2 C1 1_555 1_555
H4 C4 1_555 1_555
H5 C5 1_555 1_555
H6 C7 1_555 1_555
H7 C8 1_555 1_555
H8 C9 1_555 1_555
H9 C10 1_555 1_555
H10 C11 1_555 1_555
H11 C12 1_555 1_555
H12 C12 1_555 1_555
H13 C12 1_555 1_555
H14 C13 1_555 1_555
H15 C13 1_555 1_555
H16 C13 1_555 1_555
H17 C14 1_555 1_555
H18 C14 1_555 1_555
H19 C14 1_555 1_555
H20 C15 1_555 1_555
H21 C15 1_555 1_555
H22 C15 1_555 1_555
H23 C16 1_555 1_555
H24 C16 1_555 1_555
H25 C16 1_555 1_555
H26 C17 1_555 1_555
H27 C17 1_555 1_555
H29 C20 1_555 1_555
H30 C21 1_555 1_555
H31 C23 1_555 1_555
H32 C24 1_555 1_555
H33 C25 1_555 1_555
H34 C26 1_555 1_555
H35 C27 1_555 1_555
H36 C28 1_555 1_555
H37 C28 1_555 1_555
H38 C28 1_555 1_555
H39 C29 1_555 1_555
H40 C29 1_555 1_555
H41 C29 1_555 1_555
H42 C30 1_555 1_555
H43 C30 1_555 1_555
H44 C30 1_555 1_555
H45 C31 1_555 1_555
H46 C31 1_555 1_555
H47 C31 1_555 1_555
H48 C32 1_555 1_555
H49 C32 1_555 1_555
H50 C32 1_555 1_555
C1 C5 1_555 1_555
C4 C5 1_555 1_555
C10 C11 1_555 1_555
C17 C21 1_555 1_555
C20 C21 1_555 1_555
C26 C27 1_555 1_555

#END
