
#######################################################################
#
#                 Cambridge Crystallographic Data Centre
#                                CCDC 
#
#######################################################################
#
# If this CIF has been generated from an entry in the Cambridge 
# Structural Database, then it will include bibliographic, chemical, 
# crystal, experimental, refinement or atomic coordinate data resulting 
# from the CCDC's data processing and validation procedures.
#
#######################################################################

data_AFIMAG
_chemical_compound_source        'Aspergillus terreus'
_chemical_formula_moiety         'C27 H40 O9'
_chemical_name_systematic        'Asperterpene I'
_chemical_properties_biological  'tested for BACE1 inhibitory activity'
_symmetry_cell_setting           orthorhombic
_symmetry_space_group_name_H-M   'P 21 21 21'
_symmetry_Int_Tables_number      19
_space_group_name_Hall           'P 2ac 2ab'
loop_
_symmetry_equiv_pos_site_id
_symmetry_equiv_pos_as_xyz
1 x,y,z
2 1/2+x,1/2-y,-z
3 -x,1/2+y,1/2-z
4 1/2-x,-y,1/2+z
_cell_length_a                   7.8574(2)
_cell_length_b                   11.5792(2)
_cell_length_c                   28.3079(5)
_cell_angle_alpha                90
_cell_angle_beta                 90
_cell_angle_gamma                90
_cell_volume                     2575.52
_cell_formula_units_Z            4
loop_
_atom_site_label
_atom_site_type_symbol
_atom_site_fract_x
_atom_site_fract_y
_atom_site_fract_z
C1 C 0.6664(2) 0.12734(14) 0.09977(6)
H1 H 0.7566 0.1733 0.1145
H2 H 0.7099 0.0916 0.0708
H3 H 0.6291 0.0669 0.1217
O1 O 0.52300(13) 0.20187(9) 0.08829(3)
O2 O 0.04079(13) 0.98530(8) 0.30212(3)
H4 H -0.0390 0.9611 0.3192
O3 O 0.48369(14) 0.24023(9) 0.16512(3)
O4 O -0.04792(12) 0.46856(8) 0.04626(3)
O5 O 0.08069(12) 0.58947(8) -0.00463(3)
O6 O -0.14080(12) 0.72660(8) 0.06804(3)
H5 H -0.1794 0.7935 0.0639
O7 O -0.13601(13) 0.91663(8) 0.12016(3)
O8 O 0.34749(14) 0.35632(8) 0.02794(3)
O9 O 0.24078(13) 0.38887(8) 0.14944(3)
H6 H 0.3086 0.3761 0.1718
C2 C 0.33718(16) 0.40279(11) 0.06589(4)
C3 C 0.35773(17) 0.53521(10) 0.07074(4)
C4 C 0.47331(16) 0.56735(11) 0.11188(4)
C5 C 0.25779(16) 0.71380(11) 0.14307(4)
H7 H 0.2130 0.6493 0.1630
C6 C 0.23323(17) 0.82641(11) 0.17327(4)
C7 C -0.02202(16) 0.92804(11) 0.22015(4)
C8 C 0.07746(17) 0.90161(11) 0.26614(4)
H8 H 0.0404 0.8242 0.2779
C9 C 0.44448(18) 0.58016(11) 0.02552(4)
H9 H 0.4547 0.6644 0.0272
H10 H 0.3759 0.5589 -0.0020
H11 H 0.5580 0.5458 0.0227
C10 C 0.60759(17) 0.50355(12) 0.12310(5)
H12 H 0.6882 0.5314 0.1454
H13 H 0.6231 0.4300 0.1089
C11 C 0.00212(18) 1.05534(11) 0.20585(5)
H14 H -0.0500 1.0686 0.1749
H15 H 0.1239 1.0731 0.2042
H16 H -0.0523 1.1053 0.2294
C12 C 0.15497(16) 0.70800(10) 0.09596(4)
C13 C -0.21273(17) 0.90859(12) 0.22959(5)
H17 H -0.2511 0.9613 0.2545
H18 H -0.2312 0.8286 0.2397
H19 H -0.2773 0.9235 0.2006
C14 C 0.30941(17) 0.93431(11) 0.14939(5)
H20 H 0.3351 0.9926 0.1735
H21 H 0.2273 0.9659 0.1268
H22 H 0.4142 0.9131 0.1328
C15 C 0.44555(18) 0.25120(11) 0.12427(4)
C16 C 0.29169(17) 0.32441(11) 0.10911(4)
C17 C 0.44539(17) 0.68459(11) 0.13393(4)
H23 H 0.4944 0.7442 0.1129
H24 H 0.5078 0.6879 0.1643
C18 C 0.03745(16) 0.83654(10) 0.18347(4)
H25 H 0.0066 0.7608 0.1981
C19 C 0.31997(16) 0.80848(11) 0.22177(4)
H26 H 0.2907 0.7306 0.2337
H27 H 0.4449 0.8114 0.2175
C20 C 0.26858(18) 0.89815(12) 0.25876(4)
H28 H 0.3250 0.8797 0.2891
H29 H 0.3084 0.9753 0.2485
C21 C -0.05539(17) 0.83680(11) 0.13659(4)
C22 C -0.03685(16) 0.72544(10) 0.10839(4)
H30 H -0.0736 0.6597 0.1289
C23 C 0.20635(17) 0.79784(11) 0.05852(4)
H31 H 0.3289 0.8128 0.0607
H32 H 0.1437 0.8698 0.0640
H33 H 0.1792 0.7682 0.0270
C24 C 0.17090(16) 0.58070(11) 0.07832(4)
H34 H 0.1229 0.5322 0.1043
C25 C 0.06405(17) 0.55202(11) 0.03480(4)
C26 C -0.14158(19) 0.41944(13) 0.00731(5)
H35 H -0.1847 0.4816 -0.0129
H36 H -0.2374 0.3742 0.0195
H37 H -0.0663 0.3692 -0.0111
C27 C 0.14684(19) 0.24254(12) 0.09516(5)
H38 H 0.1254 0.1881 0.1210
H39 H 0.1790 0.1998 0.0667
H40 H 0.0435 0.2874 0.0889
loop_
_geom_bond_atom_site_label_1
_geom_bond_atom_site_label_2
_geom_bond_site_symmetry_1
_geom_bond_site_symmetry_2
C1 H1 1_555 1_555
H2 C1 1_555 1_555
H3 C1 1_555 1_555
O1 C1 1_555 1_555
O2 H4 1_555 1_555
O3 C15 1_555 1_555
O4 C25 1_555 1_555
O5 C25 1_555 1_555
O6 H5 1_555 1_555
O7 C21 1_555 1_555
O8 C2 1_555 1_555
O9 H6 1_555 1_555
C2 C3 1_555 1_555
C3 C4 1_555 1_555
C4 C10 1_555 1_555
C5 H7 1_555 1_555
C6 C5 1_555 1_555
C7 C8 1_555 1_555
C8 O2 1_555 1_555
H8 C8 1_555 1_555
C9 C3 1_555 1_555
H9 C9 1_555 1_555
H10 C9 1_555 1_555
H11 C9 1_555 1_555
C10 H12 1_555 1_555
H13 C10 1_555 1_555
C11 C7 1_555 1_555
H14 C11 1_555 1_555
H15 C11 1_555 1_555
H16 C11 1_555 1_555
C12 C5 1_555 1_555
C13 C7 1_555 1_555
H17 C13 1_555 1_555
H18 C13 1_555 1_555
H19 C13 1_555 1_555
C14 C6 1_555 1_555
H20 C14 1_555 1_555
H21 C14 1_555 1_555
H22 C14 1_555 1_555
C15 O1 1_555 1_555
C16 O9 1_555 1_555
C17 C4 1_555 1_555
H23 C17 1_555 1_555
H24 C17 1_555 1_555
C18 C6 1_555 1_555
H25 C18 1_555 1_555
C19 C6 1_555 1_555
H26 C19 1_555 1_555
H27 C19 1_555 1_555
C20 C8 1_555 1_555
H28 C20 1_555 1_555
H29 C20 1_555 1_555
C21 C18 1_555 1_555
C22 O6 1_555 1_555
H30 C22 1_555 1_555
C23 C12 1_555 1_555
H31 C23 1_555 1_555
H32 C23 1_555 1_555
H33 C23 1_555 1_555
C24 C3 1_555 1_555
H34 C24 1_555 1_555
C25 C24 1_555 1_555
C26 O4 1_555 1_555
H35 C26 1_555 1_555
H36 C26 1_555 1_555
H37 C26 1_555 1_555
C27 C16 1_555 1_555
H38 C27 1_555 1_555
H39 C27 1_555 1_555
H40 C27 1_555 1_555
C2 C16 1_555 1_555
C5 C17 1_555 1_555
C7 C18 1_555 1_555
C12 C22 1_555 1_555
C12 C24 1_555 1_555
C15 C16 1_555 1_555
C19 C20 1_555 1_555
C21 C22 1_555 1_555

#END
