
#######################################################################
#
#                 Cambridge Crystallographic Data Centre
#                                CCDC 
#
#######################################################################
#
# If this CIF has been generated from an entry in the Cambridge 
# Structural Database, then it will include bibliographic, chemical, 
# crystal, experimental, refinement or atomic coordinate data resulting 
# from the CCDC's data processing and validation procedures.
#
#######################################################################

data_AFINAG01
_chemical_formula_moiety         'C11 H15 N3 O2 S1'
_chemical_name_systematic        
2-(1-(2-hydroxy-4-methoxyphenyl)ethylidene)-N-methylhydrazinecarbothioamide
_symmetry_cell_setting           monoclinic
_symmetry_space_group_name_H-M   'P 21/c'
_symmetry_Int_Tables_number      14
_space_group_name_Hall           '-P 2ybc'
loop_
_symmetry_equiv_pos_site_id
_symmetry_equiv_pos_as_xyz
1 x,y,z
2 -x,1/2+y,1/2-z
3 -x,-y,-z
4 x,1/2-y,1/2+z
_cell_length_a                   10.9925(8)
_cell_length_b                   9.1009(6)
_cell_length_c                   13.6328(7)
_cell_angle_alpha                90
_cell_angle_beta                 119.978(4)
_cell_angle_gamma                90
_cell_volume                     1181.39
_exptl_crystal_colour            colorless
_exptl_crystal_description       block
_cell_formula_units_Z            4
loop_
_atom_site_label
_atom_site_type_symbol
_atom_site_fract_x
_atom_site_fract_y
_atom_site_fract_z
S1 S 0.65271(5) 0.78804(5) 0.86482(4)
C1 C 0.1538(2) 0.6852(2) 1.04666(16)
C2 C 0.2772(2) 0.6511(2) 1.04802(16)
H1 H 0.3282 0.5658 1.0871
C3 C 0.3277(2) 0.7389(2) 0.99359(16)
C4 C 0.2529(2) 0.8669(2) 0.93454(16)
C5 C 0.1277(2) 0.8961(2) 0.93436(17)
H2 H 0.0751 0.9806 0.8950
C6 C 0.0766(2) 0.8082(2) 0.98859(17)
H3 H -0.0091 0.8314 0.9861
C7 C 0.3039(2) 0.9658(2) 0.87699(16)
C8 C 0.5750(2) 0.9519(2) 0.81009(16)
C9 C 0.7285(2) 1.0121(2) 0.73171(18)
H4 H 0.8012 0.9533 0.7934
H5 H 0.7692 1.1048 0.7253
H6 H 0.6909 0.9574 0.6605
C10 C 0.2385(2) 1.1137(2) 0.83378(18)
H7 H 0.3120 1.1890 0.8619
H8 H 0.1725 1.1353 0.8604
H9 H 0.1882 1.1133 0.7508
C11 C -0.0060(2) 0.6281(2) 1.11165(19)
H10 H 0.0113 0.7201 1.1540
H11 H -0.0261 0.5495 1.1506
H12 H -0.0864 0.6406 1.0352
N1 N 0.40965(17) 0.91684(18) 0.86972(13)
N2 N 0.46502(17) 1.00275(18) 0.81913(14)
H13 H 0.4295 1.0902 0.7927
N3 N 0.61612(17) 1.04257(18) 0.75537(14)
H14 H 0.5719 1.1270 0.7319
O1 O 0.11563(15) 0.59035(15) 1.10450(12)
O2 O 0.45067(14) 0.69821(15) 1.00126(12)
H15 H 0.4668 0.7519 0.9589
loop_
_geom_bond_atom_site_label_1
_geom_bond_atom_site_label_2
_geom_bond_site_symmetry_1
_geom_bond_site_symmetry_2
S1 C8 1_555 1_555
C1 C2 1_555 1_555
C2 H1 1_555 1_555
C3 C2 1_555 1_555
C4 C3 1_555 1_555
C5 C4 1_555 1_555
H2 C5 1_555 1_555
C6 C1 1_555 1_555
H3 C6 1_555 1_555
C7 C4 1_555 1_555
C8 N2 1_555 1_555
C9 H4 1_555 1_555
H5 C9 1_555 1_555
H6 C9 1_555 1_555
C10 C7 1_555 1_555
H7 C10 1_555 1_555
H8 C10 1_555 1_555
H9 C10 1_555 1_555
C11 H10 1_555 1_555
H11 C11 1_555 1_555
H12 C11 1_555 1_555
N1 C7 1_555 1_555
N2 N1 1_555 1_555
H13 N2 1_555 1_555
N3 C8 1_555 1_555
H14 N3 1_555 1_555
O1 C1 1_555 1_555
O2 C3 1_555 1_555
H15 O2 1_555 1_555
C5 C6 1_555 1_555
C9 N3 1_555 1_555
C11 O1 1_555 1_555

#END
