
#######################################################################
#
#                 Cambridge Crystallographic Data Centre
#                                CCDC 
#
#######################################################################
#
# If this CIF has been generated from an entry in the Cambridge 
# Structural Database, then it will include bibliographic, chemical, 
# crystal, experimental, refinement or atomic coordinate data resulting 
# from the CCDC's data processing and validation procedures.
#
#######################################################################

data_AFINEK
_chemical_formula_moiety         'C24 H26 N4'
_chemical_name_systematic        
N,N-Diethyl-4-(1-phenyl-3-(pyridin-2-yl)-4,5-dihydro-1H-pyrazol-5-yl)aniline
_symmetry_cell_setting           monoclinic
_symmetry_space_group_name_H-M   'P 21/c'
_symmetry_Int_Tables_number      14
_space_group_name_Hall           '-P 2ybc'
loop_
_symmetry_equiv_pos_site_id
_symmetry_equiv_pos_as_xyz
1 x,y,z
2 -x,1/2+y,1/2-z
3 -x,-y,-z
4 x,1/2-y,1/2+z
_cell_length_a                   14.902(5)
_cell_length_b                   11.314(5)
_cell_length_c                   12.479(5)
_cell_angle_alpha                90
_cell_angle_beta                 94.644(5)
_cell_angle_gamma                90
_cell_volume                     2097.07
_exptl_crystal_colour            yellow
_exptl_crystal_description       block
_chemical_melting_point          '391 K'
_cell_formula_units_Z            4
loop_
_atom_site_label
_atom_site_type_symbol
_atom_site_fract_x
_atom_site_fract_y
_atom_site_fract_z
C1 C 0.3073(2) -0.2820(3) 0.4677(3)
C2 C 0.3140(2) -0.3449(3) 0.5624(3)
H1 H 0.3316 -0.3074 0.6271
C3 C 0.2946(3) -0.4632(3) 0.5606(4)
H2 H 0.3000 -0.5071 0.6239
C4 C 0.2674(3) -0.5163(4) 0.4651(4)
H3 H 0.2538 -0.5965 0.4616
C5 C 0.2611(3) -0.4473(4) 0.3752(4)
H4 H 0.2423 -0.4835 0.3103
C6 C 0.32889(19) -0.1562(3) 0.4637(2)
C7 C 0.3245(2) -0.0819(3) 0.3641(2)
H5 H 0.2659 -0.0876 0.3245
H6 H 0.3706 -0.1047 0.3175
C8 C 0.3415(2) 0.0433(3) 0.4096(2)
H7 H 0.3888 0.0822 0.3723
C9 C 0.40911(18) 0.0948(2) 0.5983(2)
C10 C 0.4309(2) 0.2102(3) 0.5699(3)
H8 H 0.4198 0.2357 0.4992
C11 C 0.4691(2) 0.2863(3) 0.6473(3)
H9 H 0.4848 0.3623 0.6275
C12 C 0.4846(2) 0.2523(3) 0.7527(3)
H10 H 0.5106 0.3043 0.8039
C13 C 0.4608(2) 0.1400(3) 0.7814(3)
H11 H 0.4703 0.1164 0.8528
C14 C 0.4230(2) 0.0613(3) 0.7055(2)
H12 H 0.4069 -0.0142 0.7264
C15 C 0.2580(2) 0.1196(3) 0.4035(2)
C16 C 0.2344(2) 0.1879(3) 0.3139(3)
H13 H 0.2736 0.1927 0.2597
C17 C 0.1544(2) 0.2488(3) 0.3028(3)
H14 H 0.1410 0.2942 0.2415
C18 C 0.0926(3) 0.2446(3) 0.3813(3)
C19 C 0.1985(2) 0.1174(3) 0.4831(3)
H15 H 0.2132 0.0738 0.5452
C20 C 0.1182(3) 0.1780(4) 0.4727(3)
H16 H 0.0801 0.1744 0.5280
C21 C -0.0287(6) 0.3410(9) 0.2615(7)
H17 H 0.0049 0.3045 0.2069
H18 H -0.0903 0.3128 0.2514
C22 C -0.0282(8) 0.4663(10) 0.2471(10)
H19 H -0.0691 0.5022 0.2931
H20 H -0.0465 0.4849 0.1735
H21 H 0.0315 0.4961 0.2651
C23 C -0.0521(6) 0.2931(9) 0.4622(8)
H22 H -0.0175 0.3015 0.5310
H23 H -0.0961 0.3564 0.4556
C24 C -0.1004(7) 0.1750(9) 0.4583(10)
H24 H -0.1462 0.1748 0.3995
H25 H -0.1277 0.1627 0.5245
H26 H -0.0580 0.1129 0.4483
N1 N 0.0113(3) 0.3032(4) 0.3708(4)
N2 N 0.37522(17) 0.0154(2) 0.5210(2)
N3 N 0.35871(16) -0.0994(2) 0.5487(2)
N4 N 0.2797(2) -0.3311(3) 0.3729(2)
C25? C -0.0141(8) 0.4066(13) 0.2996(14)
H27? H 0.0205 0.3986 0.2373
H28? H -0.0766 0.3947 0.2739
C26? C -0.0068(15) 0.5244(13) 0.3306(17)
H29? H -0.0077 0.5736 0.2679
H30? H 0.0488 0.5360 0.3739
H31? H -0.0563 0.5449 0.3715
C27? C -0.0689(11) 0.2690(15) 0.4247(14)
H32? H -0.1125 0.3326 0.4158
H33? H -0.0518 0.2612 0.5010
C28? C -0.1138(11) 0.1567(14) 0.3859(17)
H34? H -0.1529 0.1725 0.3226
H35? H -0.1483 0.1253 0.4410
H36? H -0.0689 0.1002 0.3692
loop_
_geom_bond_atom_site_label_1
_geom_bond_atom_site_label_2
_geom_bond_site_symmetry_1
_geom_bond_site_symmetry_2
C1 C2 1_555 1_555
C2 H1 1_555 1_555
C3 C2 1_555 1_555
H2 C3 1_555 1_555
C4 C3 1_555 1_555
H3 C4 1_555 1_555
C5 C4 1_555 1_555
H4 C5 1_555 1_555
C6 C1 1_555 1_555
C7 C6 1_555 1_555
H5 C7 1_555 1_555
H6 C7 1_555 1_555
C8 C7 1_555 1_555
H7 C8 1_555 1_555
C9 C10 1_555 1_555
C10 H8 1_555 1_555
C11 C10 1_555 1_555
H9 C11 1_555 1_555
C12 C11 1_555 1_555
H10 C12 1_555 1_555
C13 C12 1_555 1_555
H11 C13 1_555 1_555
C14 C9 1_555 1_555
H12 C14 1_555 1_555
C15 C8 1_555 1_555
C16 C15 1_555 1_555
H13 C16 1_555 1_555
C17 C16 1_555 1_555
H14 C17 1_555 1_555
C18 C17 1_555 1_555
C19 C15 1_555 1_555
H15 C19 1_555 1_555
C20 C18 1_555 1_555
H16 C20 1_555 1_555
C21 H17 1_555 1_555
H18 C21 1_555 1_555
C22 C21 1_555 1_555
H19 C22 1_555 1_555
H20 C22 1_555 1_555
H21 C22 1_555 1_555
C23 H22 1_555 1_555
H23 C23 1_555 1_555
C24 C23 1_555 1_555
H24 C24 1_555 1_555
H25 C24 1_555 1_555
H26 C24 1_555 1_555
N1 C18 1_555 1_555
N2 C8 1_555 1_555
N3 C6 1_555 1_555
N4 C1 1_555 1_555
C5 N4 1_555 1_555
C9 N2 1_555 1_555
C13 C14 1_555 1_555
C19 C20 1_555 1_555
C21 N1 1_555 1_555
C23 N1 1_555 1_555
N2 N3 1_555 1_555

#END
