
#######################################################################
#
#                 Cambridge Crystallographic Data Centre
#                                CCDC 
#
#######################################################################
#
# If this CIF has been generated from an entry in the Cambridge 
# Structural Database, then it will include bibliographic, chemical, 
# crystal, experimental, refinement or atomic coordinate data resulting 
# from the CCDC's data processing and validation procedures.
#
#######################################################################

data_AFIPIQ01
_chemical_formula_moiety         'C9 H9 N3 O2 S1'
_chemical_name_systematic        N-(Carbamothioylcarbamoyl)benzamide
_symmetry_cell_setting           monoclinic
_symmetry_space_group_name_H-M   'C 2/c'
_symmetry_Int_Tables_number      15
_space_group_name_Hall           '-C 2yn'
loop_
_symmetry_equiv_pos_site_id
_symmetry_equiv_pos_as_xyz
1 x,y,z
2 -x,y,1/2-z
3 1/2+x,1/2+y,z
4 1/2-x,1/2+y,1/2-z
5 -x,-y,-z
6 x,-y,1/2+z
7 1/2-x,1/2-y,-z
8 1/2+x,1/2-y,1/2+z
_cell_length_a                   14.4259(14)
_cell_length_b                   6.6145(6)
_cell_length_c                   21.722(2)
_cell_angle_alpha                90
_cell_angle_beta                 94.166(3)
_cell_angle_gamma                90
_cell_volume                     2067.24
_exptl_crystal_colour            yellow
_exptl_crystal_description       block
_cell_formula_units_Z            8
_exptl_crystal_recrystallization_method acetonitrile/methanol
loop_
_atom_site_label
_atom_site_type_symbol
_atom_site_fract_x
_atom_site_fract_y
_atom_site_fract_z
C1 C 0.33533(17) 1.0358(4) 0.65485(12)
C2 C 0.3931(2) 1.1557(4) 0.69320(13)
H1 H 0.4542 1.1162 0.7031
C3 C 0.3604(2) 1.3340(4) 0.71691(15)
H2 H 0.3994 1.4133 0.7429
C4 C 0.2704(2) 1.3943(4) 0.70214(14)
H3 H 0.2492 1.5159 0.7174
C5 C 0.2120(2) 1.2761(4) 0.66512(15)
H4 H 0.1508 1.3161 0.6559
C6 C 0.24417(19) 1.0959(4) 0.64118(13)
H5 H 0.2043 1.0158 0.616
C7 C 0.37532(18) 0.8447(4) 0.63138(13)
O1 O 0.44757(13) 0.7726(3) 0.65381(9)
N1 N 0.32479(17) 0.7544(3) 0.58270(11)
H6 H 0.2806(18) 0.812(4) 0.5652(12)
C8 C 0.34054(18) 0.5751(4) 0.55260(13)
O2 O 0.28343(12) 0.5116(3) 0.51289(9)
N2 N 0.42172(15) 0.4788(3) 0.57068(11)
H7 H 0.4561(17) 0.535(4) 0.6002(12)
C9 C 0.45494(17) 0.3010(4) 0.54659(13)
S1 S 0.55856(5) 0.21601(11) 0.57483(4)
N3 N 0.40313(19) 0.2107(4) 0.50312(13)
H8 H 0.425(2) 0.083(5) 0.4869(15)
H9 H 0.351(2) 0.248(5) 0.4927(15)
loop_
_geom_bond_atom_site_label_1
_geom_bond_atom_site_label_2
_geom_bond_site_symmetry_1
_geom_bond_site_symmetry_2
C1 C2 1_555 1_555
C2 H1 1_555 1_555
C3 C2 1_555 1_555
H2 C3 1_555 1_555
C4 C3 1_555 1_555
H3 C4 1_555 1_555
C5 C4 1_555 1_555
H4 C5 1_555 1_555
C6 C1 1_555 1_555
H5 C6 1_555 1_555
C7 C1 1_555 1_555
O1 C7 1_555 1_555
N1 C7 1_555 1_555
H6 N1 1_555 1_555
C8 N1 1_555 1_555
O2 C8 1_555 1_555
N2 C8 1_555 1_555
H7 N2 1_555 1_555
C9 N2 1_555 1_555
S1 C9 1_555 1_555
N3 C9 1_555 1_555
H8 N3 1_555 1_555
H9 N3 1_555 1_555
C5 C6 1_555 1_555

#END
