
#######################################################################
#
#                 Cambridge Crystallographic Data Centre
#                                CCDC 
#
#######################################################################
#
# If this CIF has been generated from an entry in the Cambridge 
# Structural Database, then it will include bibliographic, chemical, 
# crystal, experimental, refinement or atomic coordinate data resulting 
# from the CCDC's data processing and validation procedures.
#
#######################################################################

data_AFIRUF
_chemical_name_common            
'2-[4-(2,3-dihydro-1H-indol-1-yl)-2,6-dihydroxyphenyl]-4-(diphenyliminio)-3-oxocyclobut-1-en-1-olate dichloromethane solvate'
_chemical_formula_moiety         'C30 H22 N2 O4,0.5(C1 H2 Cl2)'
_chemical_name_systematic        
'2-(2,6-dihydroxy-4-(indolin-1-yl)phenyl)-4-(diphenylamino)cyclobuta-1,3-diene-1,3-bis(olate) dichloromethane solvate'
_symmetry_cell_setting           monoclinic
_symmetry_space_group_name_H-M   'P 21/n'
_symmetry_Int_Tables_number      14
_space_group_name_Hall           '-P 2yn'
loop_
_symmetry_equiv_pos_site_id
_symmetry_equiv_pos_as_xyz
1 x,y,z
2 1/2-x,1/2+y,1/2-z
3 -x,-y,-z
4 1/2+x,1/2-y,1/2+z
_cell_length_a                   11.8232(8)
_cell_length_b                   14.4169(9)
_cell_length_c                   14.7764(9)
_cell_angle_alpha                90
_cell_angle_beta                 104.264(7)
_cell_angle_gamma                90
_cell_volume                     2441.05
_exptl_crystal_colour            'metallic green'
_exptl_crystal_description       plate
_chemical_melting_point          '523-524 K'
_cell_formula_units_Z            4
loop_
_atom_site_label
_atom_site_type_symbol
_atom_site_fract_x
_atom_site_fract_y
_atom_site_fract_z
O1 O 0.29951(16) 0.28574(12) -0.60475(12)
H1 H 0.3178 0.2989 -0.5491
O2 O 0.29438(17) 0.62120(12) -0.64842(11)
H2 H 0.3231 0.6221 -0.5919
O3 O 0.38919(18) 0.63203(12) -0.47145(12)
N1 N 0.18171(17) 0.41592(14) -0.90465(13)
O4 O 0.3537(2) 0.32384(13) -0.42442(13)
N2 N 0.41384(18) 0.50858(14) -0.28328(13)
C1 C 0.1762(2) 0.48066(16) -0.97829(16)
C2 C 0.0983(2) 0.44771(17) -1.05901(16)
C3 C 0.28045(19) 0.36406(16) -0.65569(16)
C4 C 0.0504(2) 0.35464(17) -1.04044(16)
H3 H 0.0571 0.3098 -1.0878
H4 H -0.0308 0.3594 -1.0384
C5 C 0.21892(19) 0.43016(16) -0.81055(16)
C6 C 0.3048(2) 0.45475(16) -0.61455(16)
C7 C 0.4993(2) 0.35752(17) -0.22837(17)
H5 H 0.5240 0.3506 -0.2831
C8 C 0.2398(2) 0.52002(17) -0.77254(16)
H6 H 0.2256 0.5714 -0.8118
C9 C 0.2808(2) 0.53219(16) -0.67832(16)
C10 C 0.4093(2) 0.60402(17) -0.25535(15)
C11 C 0.2379(2) 0.35302(17) -0.75019(16)
H7 H 0.2213 0.2938 -0.7747
C12 C 0.4392(2) 0.43707(17) -0.21362(16)
C13 C 0.4045(2) 0.44860(18) -0.13120(17)
H8 H 0.3644 0.5017 -0.1216
C14 C 0.1277(2) 0.32787(17) -0.94502(17)
H9 H 0.0815 0.3008 -0.9059
H10 H 0.1869 0.2836 -0.9517
C15 C 0.3444(2) 0.46801(16) -0.51758(16)
C16 C 0.2389(2) 0.56173(17) -0.97913(16)
H11 H 0.2951 0.5808 -0.9266
C17 C 0.5219(2) 0.28881(18) -0.16046(18)
H12 H 0.5601 0.2348 -0.1704
C18 C 0.2153(2) 0.61379(17) -1.06118(17)
H13 H 0.2557 0.6688 -1.0631
C19 C 0.0749(2) 0.50049(19) -1.13935(17)
H14 H 0.0213 0.4800 -1.1927
C20 C 0.3779(2) 0.54831(17) -0.45719(16)
C21 C 0.3914(2) 0.48956(17) -0.37476(17)
C22 C 0.5053(2) 0.64281(19) -0.19436(17)
H15 H 0.5711 0.6070 -0.1696
C23 C 0.4302(2) 0.38034(19) -0.06359(17)
H16 H 0.4085 0.3883 -0.0077
C24 C 0.3099(2) 0.65637(19) -0.29055(18)
H17 H 0.2452 0.6297 -0.3310
C25 C 0.1324(2) 0.58499(19) -1.13988(17)
H18 H 0.1152 0.6220 -1.1931
C26 C 0.4878(2) 0.30013(19) -0.07804(18)
H19 H 0.5036 0.2541 -0.0325
C27 C 0.3625(2) 0.40782(18) -0.43524(17)
C28 C 0.5027(3) 0.7357(2) -0.17049(19)
H20 H 0.5676 0.7628 -0.1307
C29 C 0.3074(3) 0.7487(2) -0.2652(2)
H21 H 0.2408 0.7842 -0.2883
C30 C 0.4038(3) 0.78796(19) -0.2057(2)
H22 H 0.4022 0.8501 -0.1892
Cl1? Cl 0.49518(16) -0.03329(10) 0.09301(10)
C31? C 0.4349(8) 0.0150(13) -0.0021(7)
loop_
_geom_bond_atom_site_label_1
_geom_bond_atom_site_label_2
_geom_bond_site_symmetry_1
_geom_bond_site_symmetry_2
O1 H1 1_555 1_555
O2 H2 1_555 1_555
O3 C20 1_555 1_555
N1 C1 1_555 1_555
O4 C27 1_555 1_555
N2 C10 1_555 1_555
C1 C2 1_555 1_555
C2 C4 1_555 1_555
C3 O1 1_555 1_555
C4 H3 1_555 1_555
H4 C4 1_555 1_555
C5 N1 1_555 1_555
C6 C3 1_555 1_555
C7 H5 1_555 1_555
C8 C5 1_555 1_555
H6 C8 1_555 1_555
C9 O2 1_555 1_555
C10 C22 1_555 1_555
C11 C3 1_555 1_555
H7 C11 1_555 1_555
C12 N2 1_555 1_555
C13 C12 1_555 1_555
H8 C13 1_555 1_555
C14 N1 1_555 1_555
H9 C14 1_555 1_555
H10 C14 1_555 1_555
C15 C6 1_555 1_555
C16 C1 1_555 1_555
H11 C16 1_555 1_555
C17 C7 1_555 1_555
H12 C17 1_555 1_555
C18 C16 1_555 1_555
H13 C18 1_555 1_555
C19 C2 1_555 1_555
H14 C19 1_555 1_555
C20 C15 1_555 1_555
C21 N2 1_555 1_555
C22 H15 1_555 1_555
C23 C13 1_555 1_555
H16 C23 1_555 1_555
C24 C10 1_555 1_555
H17 C24 1_555 1_555
C25 C18 1_555 1_555
H18 C25 1_555 1_555
C26 C17 1_555 1_555
H19 C26 1_555 1_555
C27 C15 1_555 1_555
C28 C22 1_555 1_555
H20 C28 1_555 1_555
C29 C24 1_555 1_555
H21 C29 1_555 1_555
C30 C28 1_555 1_555
H22 C30 1_555 1_555
C4 C14 1_555 1_555
C5 C11 1_555 1_555
C6 C9 1_555 1_555
C7 C12 1_555 1_555
C8 C9 1_555 1_555
C19 C25 1_555 1_555
C20 C21 1_555 1_555
C21 C27 1_555 1_555
C23 C26 1_555 1_555
C29 C30 1_555 1_555

#END
