
#######################################################################
#
#                 Cambridge Crystallographic Data Centre
#                                CCDC 
#
#######################################################################
#
# If this CIF has been generated from an entry in the Cambridge 
# Structural Database, then it will include bibliographic, chemical, 
# crystal, experimental, refinement or atomic coordinate data resulting 
# from the CCDC's data processing and validation procedures.
#
#######################################################################

data_AFIREP
_chemical_formula_moiety         'C16 H13 F1 N4 O3,C2 H6 O1 S1'
_chemical_name_systematic        
'ethyl 6-amino-5-cyano-4-(4-fluorophenyl)-2,4-dihydropyrano[2,3-c]pyrazole-3-carboxylate dimethyl sulfoxide solvate'
_symmetry_cell_setting           triclinic
_symmetry_space_group_name_H-M   'P -1'
_symmetry_Int_Tables_number      2
_space_group_name_Hall           '-P 1'
loop_
_symmetry_equiv_pos_site_id
_symmetry_equiv_pos_as_xyz
1 x,y,z
2 -x,-y,-z
_cell_length_a                   8.7914(7)
_cell_length_b                   11.3632(8)
_cell_length_c                   11.4005(9)
_cell_angle_alpha                62.278(7)
_cell_angle_beta                 71.099(7)
_cell_angle_gamma                80.856(6)
_cell_volume                     953.758
_exptl_crystal_colour            white
_exptl_crystal_description       block
_cell_formula_units_Z            2
loop_
_atom_site_label
_atom_site_type_symbol
_atom_site_fract_x
_atom_site_fract_y
_atom_site_fract_z
F1 F 0.6281(2) -0.03898(19) -0.2363(2)
O1 O -0.1261(2) 0.3308(2) -0.01803(18)
C1 C -0.0161(3) 0.3233(3) 0.0474(3)
C2 C 0.1471(3) 0.3417(2) -0.0120(2)
C3 C 0.2272(3) 0.3718(2) -0.1602(2)
H1 H 0.2917 0.4521 -0.2041
C4 C 0.0918(3) 0.4014(2) -0.2276(2)
C5 C -0.0668(3) 0.3776(3) -0.1586(3)
C6 C 0.2003(3) 0.3239(2) 0.0967(2)
N1 N 0.0706(2) 0.2970(2) 0.2083(2)
H2 H 0.0748 0.2822 0.2883
N2 N -0.0671(2) 0.2957(2) 0.1797(2)
C7 C 0.3359(3) 0.2599(2) -0.1786(2)
C8 C 0.2907(3) 0.1295(3) -0.0980(3)
H3 H 0.1926 0.1094 -0.0297
C9 C 0.3883(4) 0.0270(3) -0.1161(3)
H4 H 0.3577 -0.0613 -0.0605
C10 C 0.5300(4) 0.0602(3) -0.2179(3)
C11 C 0.5800(3) 0.1879(3) -0.3014(3)
H5 H 0.6774 0.2073 -0.3706
C12 C 0.4809(3) 0.2879(3) -0.2800(3)
H6 H 0.5130 0.3759 -0.3353
C13 C 0.1391(3) 0.4565(3) -0.3734(3)
N3 N 0.1841(3) 0.5015(3) -0.4910(3)
N4 N -0.1877(3) 0.3911(2) -0.2109(2)
H7 H -0.1690 0.4179 -0.2983
H8 H -0.2843 0.3731 -0.1572
C14 C 0.3652(3) 0.3301(2) 0.0979(3)
O2 O 0.37386(19) 0.30923(17) 0.22040(17)
C15 C 0.5353(3) 0.3117(3) 0.2287(3)
H9 H 0.5876 0.3943 0.1570
H10 H 0.5991 0.2385 0.2156
C16 C 0.5220(4) 0.2997(3) 0.3675(3)
H11 H 0.4522 0.3686 0.3823
H12 H 0.6266 0.3082 0.3720
H13 H 0.4785 0.2144 0.4375
O3 O 0.4787(2) 0.35225(19) -0.00353(18)
O4 O 0.9990(3) 0.8063(3) 0.5125(2)
C17 C 1.0082(5) 0.9237(5) 0.2535(3)
H14 H 0.9069 0.9396 0.2334
H15 H 1.0446 0.8348 0.2689
H16 H 1.0858 0.9860 0.1768
C18 C 0.7814(4) 0.9837(3) 0.4373(4)
H17 H 0.7316 0.9856 0.3729
H18 H 0.7713 1.0697 0.4359
H19 H 0.7295 0.9187 0.5286
S1 S 0.88614(11) 0.84199(9) 0.42389(10)
S2? S 0.9871(5) 0.9416(5) 0.3903(5)
H20? H 0.7567 0.9970 0.5187
H21? H 0.7170 0.9130 0.4557
H22? H 0.7588 1.0640 0.3630
H23? H 1.1180 0.9007 0.2194
H24? H 0.9803 1.0055 0.1839
H25? H 0.9390 0.8543 0.2759
loop_
_geom_bond_atom_site_label_1
_geom_bond_atom_site_label_2
_geom_bond_site_symmetry_1
_geom_bond_site_symmetry_2
F1 C10 1_555 1_555
O1 C1 1_555 1_555
C1 C2 1_555 1_555
C2 C3 1_555 1_555
C3 H1 1_555 1_555
C4 C3 1_555 1_555
C5 O1 1_555 1_555
C6 C2 1_555 1_555
N1 C6 1_555 1_555
H2 N1 1_555 1_555
N2 C1 1_555 1_555
C7 C3 1_555 1_555
C8 C7 1_555 1_555
H3 C8 1_555 1_555
C9 C8 1_555 1_555
H4 C9 1_555 1_555
C10 C9 1_555 1_555
C11 C10 1_555 1_555
H5 C11 1_555 1_555
C12 C7 1_555 1_555
H6 C12 1_555 1_555
C13 C4 1_555 1_555
N3 C13 1_555 1_555
N4 C5 1_555 1_555
H7 N4 1_555 1_555
H8 N4 1_555 1_555
C14 C6 1_555 1_555
O2 C14 1_555 1_555
C15 O2 1_555 1_555
H9 C15 1_555 1_555
H10 C15 1_555 1_555
C16 C15 1_555 1_555
H11 C16 1_555 1_555
H12 C16 1_555 1_555
H13 C16 1_555 1_555
O3 C14 1_555 1_555
O4 S1 1_555 1_555
C17 H14 1_555 1_555
H15 C17 1_555 1_555
H16 C17 1_555 1_555
C18 H17 1_555 1_555
H18 C18 1_555 1_555
H19 C18 1_555 1_555
S1 C17 1_555 1_555
C4 C5 1_555 1_555
N1 N2 1_555 1_555
C11 C12 1_555 1_555
C18 S1 1_555 1_555

#END
