
#######################################################################
#
#                 Cambridge Crystallographic Data Centre
#                                CCDC 
#
#######################################################################
#
# If this CIF has been generated from an entry in the Cambridge 
# Structural Database, then it will include bibliographic, chemical, 
# crystal, experimental, refinement or atomic coordinate data resulting 
# from the CCDC's data processing and validation procedures.
#
#######################################################################

data_AFIWIX
_chemical_formula_moiety         'C27 H25 N1 O3'
_chemical_name_systematic        
(2-t-Butyl-3-phenyl-2,3-dihydro-1,2-oxazole-4,5-diyl)bis(phenylmethanone)
_symmetry_cell_setting           orthorhombic
_symmetry_space_group_name_H-M   'P n a 21'
_symmetry_Int_Tables_number      33
_space_group_name_Hall           'P 2c -2n'
loop_
_symmetry_equiv_pos_site_id
_symmetry_equiv_pos_as_xyz
1 x,y,z
2 -x,-y,1/2+z
3 1/2-x,1/2+y,1/2+z
4 1/2+x,1/2-y,z
_cell_length_a                   20.1034(12)
_cell_length_b                   17.7990(10)
_cell_length_c                   6.1366(3)
_cell_angle_alpha                90
_cell_angle_beta                 90
_cell_angle_gamma                90
_cell_volume                     2195.8
_exptl_crystal_colour            yellow
_exptl_crystal_description       block
_cell_formula_units_Z            4
loop_
_atom_site_label
_atom_site_type_symbol
_atom_site_fract_x
_atom_site_fract_y
_atom_site_fract_z
O1 O 0.14603(9) 0.40278(10) 0.0012(3)
O2 O 0.05003(7) 0.36111(8) 0.3046(3)
O3 O 0.20313(8) 0.27030(9) 0.7795(3)
N1 N 0.01783(8) 0.30875(9) 0.4612(3)
C1 C 0.25597(12) 0.60359(13) 0.4233(5)
H1 H 0.2772 0.6473 0.4690
C2 C 0.26649(13) 0.57720(14) 0.2177(5)
H2 H 0.2956 0.6023 0.1250
C3 C 0.23438(11) 0.51380(13) 0.1469(4)
H3 H 0.2416 0.4962 0.0062
C4 C 0.19103(9) 0.47575(10) 0.2851(3)
C5 C 0.15240(10) 0.41275(12) 0.1949(4)
C6 C 0.11570(9) 0.36106(10) 0.3468(3)
C7 C 0.13418(9) 0.31458(10) 0.5061(3)
C8 C 0.07315(9) 0.27504(10) 0.5896(4)
H4 H 0.0670 0.2856 0.7451
C9 C 0.07424(9) 0.19093(11) 0.5505(4)
C10 C 0.09136(13) 0.16269(13) 0.3489(4)
H5 H 0.1022 0.1956 0.2367
C11 C 0.09257(16) 0.08604(14) 0.3114(5)
H6 H 0.1048 0.0677 0.1752
C12 C 0.07586(14) 0.03747(13) 0.4739(6)
H7 H 0.0765 -0.0140 0.4486
C13 C -0.03126(10) 0.35530(11) 0.5852(4)
C14 C -0.06460(13) 0.30225(15) 0.7463(5)
H8 H -0.0784 0.2575 0.6717
H9 H -0.1027 0.3265 0.8091
H10 H -0.0337 0.2893 0.8595
C15 C -0.08187(12) 0.38226(15) 0.4187(5)
H11 H -0.0603 0.4140 0.3139
H12 H -0.1163 0.4100 0.4912
H13 H -0.1010 0.3397 0.3457
C16 C -0.00051(13) 0.42144(13) 0.7032(5)
H14 H 0.0318 0.4036 0.8061
H15 H -0.0346 0.4488 0.7788
H16 H 0.0208 0.4539 0.5996
C17 C 0.05818(14) 0.06446(14) 0.6739(6)
H17 H 0.0466 0.0312 0.7845
C18 C 0.05747(11) 0.14130(13) 0.7128(5)
H18 H 0.0456 0.1593 0.8497
C19 C 0.19933(10) 0.30137(10) 0.6033(4)
C20 C 0.26076(9) 0.32369(10) 0.4850(4)
C21 C 0.30928(11) 0.36438(13) 0.5935(5)
H19 H 0.3019 0.3810 0.7351
C22 C 0.36829(14) 0.37991(17) 0.4906(7)
H20 H 0.4003 0.4087 0.5612
C23 C 0.38057(15) 0.35349(19) 0.2856(8)
H21 H 0.4213 0.3629 0.2193
C24 C 0.33269(16) 0.31311(17) 0.1776(5)
H22 H 0.3410 0.2951 0.0380
C25 C 0.27250(12) 0.29918(13) 0.2752(4)
H23 H 0.2396 0.2732 0.1998
C26 C 0.18161(10) 0.50193(11) 0.4950(4)
H24 H 0.1534 0.4764 0.5897
C27 C 0.21427(12) 0.56621(12) 0.5637(4)
H25 H 0.2080 0.5840 0.7047
loop_
_geom_bond_atom_site_label_1
_geom_bond_atom_site_label_2
_geom_bond_site_symmetry_1
_geom_bond_site_symmetry_2
O1 C5 1_555 1_555
O2 N1 1_555 1_555
O3 C19 1_555 1_555
N1 C8 1_555 1_555
C1 H1 1_555 1_555
C2 C1 1_555 1_555
H2 C2 1_555 1_555
C3 C2 1_555 1_555
H3 C3 1_555 1_555
C4 C3 1_555 1_555
C5 C4 1_555 1_555
C6 O2 1_555 1_555
C7 C6 1_555 1_555
C8 C7 1_555 1_555
H4 C8 1_555 1_555
C9 C8 1_555 1_555
C10 C9 1_555 1_555
H5 C10 1_555 1_555
C11 C10 1_555 1_555
H6 C11 1_555 1_555
C12 C11 1_555 1_555
H7 C12 1_555 1_555
C13 N1 1_555 1_555
C14 C13 1_555 1_555
H8 C14 1_555 1_555
H9 C14 1_555 1_555
H10 C14 1_555 1_555
C15 C13 1_555 1_555
H11 C15 1_555 1_555
H12 C15 1_555 1_555
H13 C15 1_555 1_555
C16 C13 1_555 1_555
H14 C16 1_555 1_555
H15 C16 1_555 1_555
H16 C16 1_555 1_555
C17 C12 1_555 1_555
H17 C17 1_555 1_555
C18 C9 1_555 1_555
H18 C18 1_555 1_555
C19 C7 1_555 1_555
C20 C19 1_555 1_555
C21 C20 1_555 1_555
H19 C21 1_555 1_555
C22 C21 1_555 1_555
H20 C22 1_555 1_555
C23 C22 1_555 1_555
H21 C23 1_555 1_555
C24 C23 1_555 1_555
H22 C24 1_555 1_555
C25 C20 1_555 1_555
H23 C25 1_555 1_555
C26 C4 1_555 1_555
H24 C26 1_555 1_555
C27 C1 1_555 1_555
H25 C27 1_555 1_555
C5 C6 1_555 1_555
C17 C18 1_555 1_555
C24 C25 1_555 1_555
C26 C27 1_555 1_555

#END
