
#######################################################################
#
#                 Cambridge Crystallographic Data Centre
#                                CCDC 
#
#######################################################################
#
# If this CIF has been generated from an entry in the Cambridge 
# Structural Database, then it will include bibliographic, chemical, 
# crystal, experimental, refinement or atomic coordinate data resulting 
# from the CCDC's data processing and validation procedures.
#
#######################################################################

data_AFIYOG
_chemical_formula_moiety         
'3(C1 H6 N3 1+),C24 H15 O9 S3 3-,2.78(C9 H14 O1),0.53(C6 F6),x(C1 H4 O1)'
_chemical_name_systematic        
'tris(Guanidinium) 1,3,5-tris(4-sulfonatophenyl)benzene tris(isophorone) hexafluorobenzene clathrate methanol solvate'
_symmetry_cell_setting           hexagonal
_symmetry_space_group_name_H-M   'P 63'
_symmetry_Int_Tables_number      173
_space_group_name_Hall           'P 6c'
loop_
_symmetry_equiv_pos_site_id
_symmetry_equiv_pos_as_xyz
1 x,y,z
2 -y,x-y,z
3 -x+y,-x,z
4 -x,-y,1/2+z
5 y,-x+y,1/2+z
6 x-y,x,1/2+z
_cell_length_a                   24.155(16)
_cell_length_b                   24.155(16)
_cell_length_c                   7.471(5)
_cell_angle_alpha                90
_cell_angle_beta                 90
_cell_angle_gamma                120
_cell_volume                     3775.06
_exptl_crystal_colour            colorless
_exptl_crystal_description       needle
_cell_formula_units_Z            2
_exptl_crystal_preparation       
'The crystal was exposed to 50% v/v hexafluorobenzene/hexane vapour for 7 minutes at room temperature prior to data collection.'
loop_
_atom_site_label
_atom_site_type_symbol
_atom_site_fract_x
_atom_site_fract_y
_atom_site_fract_z
N1 N 0.8568(4) 0.7155(4) 0.0922(15)
H6 H 0.870565 0.708113 0.193394
H7 H 0.870771 0.709450 -0.010588
N2 N 0.7937(5) 0.7453(5) 0.2398(12)
H8 H 0.806779 0.738168 0.342728
H9 H 0.766004 0.758793 0.237825
N3 N 0.7933(5) 0.7454(5) -0.0677(10)
H10 H 0.764734 0.757888 -0.070349
H11 H 0.808069 0.738898 -0.168423
C9 C 0.8148(4) 0.7360(5) 0.0944(16)
O4 O 0.5686(4) 0.4747(4) 0.5017(13)
C10 C 0.5769(5) 0.5139(5) 0.618(2)
C11 C 0.6128(5) 0.5211(6) 0.7882(19)
H12 H 0.629442 0.493248 0.807482
C12 C 0.6227(6) 0.5637(6) 0.9123(18)
C13 C 0.6017(6) 0.6118(6) 0.888(2)
H13 H 0.635544 0.653343 0.935001
H14 H 0.562862 0.598512 0.960649
C14 C 0.5872(6) 0.6218(5) 0.6943(15)
C15 C 0.5473(5) 0.5560(5) 0.6056(19)
H15 H 0.504598 0.533656 0.662673
H16 H 0.541130 0.562305 0.477803
C16 C 0.6580(6) 0.5696(6) 1.077(3)
H17 H 0.697367 0.611208 1.079436
H18 H 0.668741 0.535460 1.081630
H19 H 0.631492 0.565915 1.180756
C17 C 0.6502(5) 0.6602(5) 0.583(2)
H20 H 0.680740 0.646690 0.618091
H21 H 0.668673 0.705989 0.607075
H22 H 0.640485 0.651955 0.455485
C18 C 0.5496(6) 0.6583(6) 0.6894(17)
H23 H 0.574284 0.699395 0.750716
H24 H 0.508360 0.632823 0.749648
H25 H 0.542403 0.665623 0.564723
F1 F 0.3950(6) 0.5994(7) 0.559(3)
F2 F 0.2670(7) 0.5374(6) 0.560(3)
C19 C 0.3662(8) 0.6340(10) 0.559(4)
C20 C 0.3000(8) 0.6013(10) 0.562(4)
F1A F 0.4006(7) 0.7956(9) 0.559(3)
F2A F 0.4626(6) 0.7296(9) 0.560(3)
C19A C 0.3660(10) 0.7322(13) 0.559(4)
C20A C 0.3987(10) 0.6987(13) 0.562(4)
F1B F 0.2044(9) 0.6050(6) 0.559(3)
F2B F 0.2704(9) 0.7330(7) 0.560(3)
C19B C 0.2678(13) 0.6338(8) 0.559(4)
C20B C 0.3013(13) 0.7000(8) 0.562(4)
S1 S 0.87179(10) 0.68877(10) 0.5857(4)
O1 O 0.9113(4) 0.7071(3) 0.4270(9)
O2 O 0.8295(3) 0.7141(3) 0.5887(10)
O3 O 0.9105(4) 0.7030(4) 0.7516(9)
C1 C 0.7055(5) 0.4008(5) 0.5481(12)
C2 C 0.6380(5) 0.3721(5) 0.5483(12)
H1 H 0.618766 0.398132 0.548483
C3 C 0.7462(4) 0.4712(4) 0.5555(14)
C4 C 0.8058(5) 0.5017(5) 0.6527(15)
H2 H 0.819619 0.475932 0.711790
C5 C 0.8420(5) 0.5653(5) 0.6615(15)
H3 H 0.881612 0.584033 0.723353
C6 C 0.8222(4) 0.6042(4) 0.5813(15)
C7 C 0.7661(5) 0.5776(5) 0.4859(14)
H4 H 0.753349 0.604248 0.426853
C8 C 0.7275(5) 0.5107(5) 0.4760(15)
H5 H 0.687988 0.492508 0.413558
S1A S 0.31123(10) 0.18302(14) 0.5857(4)
O1A O 0.2929(3) 0.2042(5) 0.4270(9)
O2A O 0.2859(3) 0.1154(4) 0.5887(10)
O3A O 0.2970(4) 0.2075(6) 0.7516(9)
C1A C 0.5992(5) 0.3047(7) 0.5481(12)
C2A C 0.6279(5) 0.2659(7) 0.5483(12)
H1A H 0.601868 0.220634 0.548483
C3A C 0.5288(4) 0.2750(6) 0.5555(14)
C4A C 0.4983(5) 0.3041(7) 0.6527(15)
H2A H 0.524068 0.343687 0.711790
C5A C 0.4347(5) 0.2767(7) 0.6615(15)
H3A H 0.415967 0.297579 0.723353
C6A C 0.3958(4) 0.2180(6) 0.5813(15)
C7A C 0.4224(5) 0.1885(7) 0.4859(14)
H4A H 0.395752 0.149101 0.426853
C8A C 0.4893(5) 0.2168(7) 0.4760(15)
H5A H 0.507492 0.195480 0.413558
S1B S 0.81698(14) 0.12821(10) 0.5857(4)
O1B O 0.7958(5) 0.0887(4) 0.4270(9)
O2B O 0.8846(4) 0.1705(3) 0.5887(10)
O3B O 0.7925(6) 0.0895(4) 0.7516(9)
C1B C 0.6953(7) 0.2945(5) 0.5481(12)
C2B C 0.7341(7) 0.3620(5) 0.5483(12)
H1B H 0.779366 0.381234 0.548483
C3B C 0.7250(6) 0.2538(4) 0.5555(14)
C4B C 0.6959(7) 0.1942(5) 0.6527(15)
H2B H 0.656313 0.180381 0.711790
C5B C 0.7233(7) 0.1580(5) 0.6615(15)
H3B H 0.702421 0.118388 0.723353
C6B C 0.7820(6) 0.1778(4) 0.5813(15)
C7B C 0.8115(7) 0.2339(5) 0.4859(14)
H4B H 0.850899 0.246651 0.426853
C8B C 0.7832(7) 0.2725(5) 0.4760(15)
H5B H 0.804520 0.312012 0.413558
loop_
_geom_bond_atom_site_label_1
_geom_bond_atom_site_label_2
_geom_bond_site_symmetry_1
_geom_bond_site_symmetry_2
S1 O1 1_555 1_555
O2 S1 1_555 1_555
O3 S1 1_555 1_555
C1 C2 1_555 1_555
C2 H1 1_555 1_555
C3 C1 1_555 1_555
C4 C3 1_555 1_555
H2 C4 1_555 1_555
C5 C4 1_555 1_555
H3 C5 1_555 1_555
C6 S1 1_555 1_555
C7 C6 1_555 1_555
H4 C7 1_555 1_555
C8 C3 1_555 1_555
H5 C8 1_555 1_555
N1 H6 1_555 1_555
H7 N1 1_555 1_555
N2 H8 1_555 1_555
H9 N2 1_555 1_555
N3 H10 1_555 1_555
H11 N3 1_555 1_555
C9 N1 1_555 1_555
O4 C10 1_555 1_555
C10 C11 1_555 1_555
C11 H12 1_555 1_555
C12 C11 1_555 1_555
C13 C12 1_555 1_555
H13 C13 1_555 1_555
H14 C13 1_555 1_555
C14 C13 1_555 1_555
C15 C10 1_555 1_555
H15 C15 1_555 1_555
H16 C15 1_555 1_555
C16 C12 1_555 1_555
H17 C16 1_555 1_555
H18 C16 1_555 1_555
H19 C16 1_555 1_555
C17 C14 1_555 1_555
H20 C17 1_555 1_555
H21 C17 1_555 1_555
H22 C17 1_555 1_555
C18 C14 1_555 1_555
H23 C18 1_555 1_555
H24 C18 1_555 1_555
H25 C18 1_555 1_555
F1 C19 1_555 1_555
F2 C20 1_555 1_555
C19 C20 1_555 1_555
C20 C19B 1_555 1_555
S1A O1A 1_555 1_555
O2A S1A 1_555 1_555
O3A S1A 1_555 1_555
C1A C2 1_555 1_555
C2A C1A 1_555 1_555
H1A C2A 1_555 1_555
C3A C1A 1_555 1_555
C4A C3A 1_555 1_555
H2A C4A 1_555 1_555
C5A C4A 1_555 1_555
H3A C5A 1_555 1_555
C6A S1A 1_555 1_555
C7A C6A 1_555 1_555
H4A C7A 1_555 1_555
C8A C3A 1_555 1_555
H5A C8A 1_555 1_555
S1B O1B 1_555 1_555
O2B S1B 1_555 1_555
O3B S1B 1_555 1_555
C1B C2A 1_555 1_555
C2B C1 1_555 1_555
H1B C2B 1_555 1_555
C3B C1B 1_555 1_555
C4B C3B 1_555 1_555
H2B C4B 1_555 1_555
C5B C4B 1_555 1_555
H3B C5B 1_555 1_555
C6B S1B 1_555 1_555
C7B C6B 1_555 1_555
H4B C7B 1_555 1_555
C8B C3B 1_555 1_555
H5B C8B 1_555 1_555
F1A C19A 1_555 1_555
F2A C20A 1_555 1_555
C19A C20A 1_555 1_555
C20A C19 1_555 1_555
F1B C19B 1_555 1_555
F2B C20B 1_555 1_555
C19B C20B 1_555 1_555
C20B C19A 1_555 1_555
C5 C6 1_555 1_555
C7 C8 1_555 1_555
N2 C9 1_555 1_555
N3 C9 1_555 1_555
C14 C15 1_555 1_555
C5A C6A 1_555 1_555
C7A C8A 1_555 1_555
C1B C2B 1_555 1_555
C5B C6B 1_555 1_555
C7B C8B 1_555 1_555

#END
