
#######################################################################
#
#                 Cambridge Crystallographic Data Centre
#                                CCDC 
#
#######################################################################
#
# If this CIF has been generated from an entry in the Cambridge 
# Structural Database, then it will include bibliographic, chemical, 
# crystal, experimental, refinement or atomic coordinate data resulting 
# from the CCDC's data processing and validation procedures.
#
#######################################################################

data_AFIYAR
_chemical_name_common            Amitraz
_chemical_formula_moiety         'C19 H23 N3'
_chemical_name_systematic        
N'-(2,4-Dimethylphenyl)-N-(((2,4-dimethylphenyl)imino)methyl)-N-methylimidoformamide
_chemical_properties_biological  'insecticidal activity'
_symmetry_cell_setting           monoclinic
_symmetry_space_group_name_H-M   'P 21/c'
_symmetry_Int_Tables_number      14
_space_group_name_Hall           '-P 2ybc'
loop_
_symmetry_equiv_pos_site_id
_symmetry_equiv_pos_as_xyz
1 x,y,z
2 -x,1/2+y,1/2-z
3 -x,-y,-z
4 x,1/2-y,1/2+z
_cell_length_a                   11.9362(11)
_cell_length_b                   7.5110(7)
_cell_length_c                   37.514(3)
_cell_angle_alpha                90
_cell_angle_beta                 91.650(2)
_cell_angle_gamma                90
_cell_volume                     3361.84
_exptl_crystal_colour            colorless
_exptl_crystal_description       block
_cell_formula_units_Z            8
loop_
_atom_site_label
_atom_site_type_symbol
_atom_site_fract_x
_atom_site_fract_y
_atom_site_fract_z
N1 N 0.22503(17) 0.8667(3) 0.54029(6)
N2 N 0.07334(17) 0.8469(3) 0.57777(5)
N3 N -0.06461(17) 0.8046(3) 0.61902(5)
C1 C 0.3145(2) 0.6882(4) 0.48038(7)
H1 H 0.2808 0.7846 0.4661
H2 H 0.2551 0.6175 0.4910
H3 H 0.3591 0.6118 0.4651
C2 C 0.3887(2) 0.7661(3) 0.50947(7)
C3 C 0.5052(2) 0.7534(3) 0.50820(7)
H4 H 0.5367 0.6911 0.4889
C4 C 0.5770(2) 0.8273(3) 0.53382(7)
C5 C 0.7027(2) 0.8131(4) 0.53071(8)
H5 H 0.7231 0.8379 0.5061
H6 H 0.7271 0.6927 0.5373
H7 H 0.7394 0.8997 0.5467
C6 C 0.5292(2) 0.9178(3) 0.56183(7)
H8 H 0.5763 0.9703 0.5798
C7 C 0.4140(2) 0.9327(3) 0.56400(7)
H9 H 0.3829 0.9970 0.5831
C8 C 0.3435(2) 0.8542(3) 0.53838(7)
C9 C 0.1853(2) 0.8345(3) 0.57073(7)
H10 H 0.2356 0.8002 0.5896
C10 C -0.0063(2) 0.9115(4) 0.55032(7)
H11 H -0.0510 0.8115 0.5410
H12 H 0.0348 0.9660 0.5309
H13 H -0.0559 1.0002 0.5607
C11 C 0.0382(2) 0.8003(3) 0.61073(7)
H14 H 0.0924 0.7631 0.6282
C12 C -0.0910(2) 0.7724(3) 0.65503(7)
C13 C -0.1938(2) 0.6914(3) 0.66229(7)
C14 C -0.2710(2) 0.6305(4) 0.63229(7)
H15 H -0.3297 0.5543 0.6418
H16 H -0.2281 0.5631 0.6149
H17 H -0.3054 0.7343 0.6206
C15 C -0.2228(2) 0.6670(4) 0.69766(7)
H18 H -0.2925 0.6122 0.7025
C16 C -0.1540(2) 0.7193(4) 0.72608(7)
C17 C -0.1871(3) 0.6882(4) 0.76443(7)
H19 H -0.2529 0.6102 0.7647
H20 H -0.2050 0.8024 0.7755
H21 H -0.1248 0.6319 0.7777
C18 C -0.0534(2) 0.8020(4) 0.71861(7)
H22 H -0.0050 0.8402 0.7377
C19 C -0.0226(2) 0.8295(4) 0.68357(7)
H23 H 0.0460 0.8881 0.6790
N4 N 0.02203(18) 0.7540(3) 0.88836(6)
N5 N 0.16767(17) 0.7179(3) 0.84902(6)
N6 N 0.30082(18) 0.6971(3) 0.80512(6)
C20 C -0.0414(3) 0.9162(4) 0.95372(7)
H24 H -0.0774 0.9872 0.9721
H25 H 0.0204 0.9843 0.9438
H26 H -0.0121 0.8058 0.9644
C21 C -0.1258(2) 0.8719(3) 0.92448(7)
C22 C -0.2386(2) 0.9098(4) 0.92838(7)
H27 H -0.2612 0.9612 0.9502
C23 C -0.3199(2) 0.8764(4) 0.90212(7)
C24 C -0.4417(2) 0.9186(4) 0.90765(8)
H28 H -0.4476 1.0309 0.9208
H29 H -0.4757 0.8226 0.9213
H30 H -0.4809 0.9297 0.8844
C25 C -0.2856(2) 0.7988(4) 0.87098(7)
H31 H -0.3391 0.7734 0.8524
C26 C -0.1744(2) 0.7576(4) 0.86650(7)
H32 H -0.1530 0.7006 0.8451
C27 C -0.0928(2) 0.7972(4) 0.89247(7)
C28 C 0.0609(2) 0.7700(4) 0.85751(7)
H33 H 0.0142 0.8205 0.8393
C29 C 0.2435(2) 0.6444(4) 0.87668(7)
H34 H 0.2636 0.7378 0.8940
H35 H 0.3114 0.5997 0.8657
H36 H 0.2060 0.5466 0.8889
C30 C 0.2031(2) 0.7375(3) 0.81483(7)
H37 H 0.1516 0.7841 0.7974
C31 C 0.3252(2) 0.7255(3) 0.76890(7)
C32 C 0.4296(2) 0.8009(3) 0.76116(7)
C33 C 0.5113(2) 0.8437(4) 0.79118(7)
H38 H 0.4770 0.9280 0.8075
H39 H 0.5790 0.8968 0.7815
H40 H 0.5313 0.7342 0.8041
C34 C 0.4541(2) 0.8329(4) 0.72587(8)
H41 H 0.5238 0.8867 0.7207
C35 C 0.3809(3) 0.7896(4) 0.69786(8)
C36 C 0.4117(3) 0.8261(5) 0.65963(8)
H42 H 0.3974 0.7195 0.6452
H43 H 0.4914 0.8572 0.6588
H44 H 0.3664 0.9251 0.6502
C37 C 0.2804(2) 0.7109(4) 0.70560(8)
H45 H 0.2298 0.6779 0.6867
C38 C 0.2520(2) 0.6791(4) 0.74065(7)
H46 H 0.1821 0.6252 0.7455
loop_
_geom_bond_atom_site_label_1
_geom_bond_atom_site_label_2
_geom_bond_site_symmetry_1
_geom_bond_site_symmetry_2
N1 C8 1_555 1_555
N2 C9 1_555 1_555
N3 C11 1_555 1_555
C1 H1 1_555 1_555
H2 C1 1_555 1_555
H3 C1 1_555 1_555
C2 C1 1_555 1_555
C3 C2 1_555 1_555
H4 C3 1_555 1_555
C4 C3 1_555 1_555
C5 C4 1_555 1_555
H5 C5 1_555 1_555
H6 C5 1_555 1_555
H7 C5 1_555 1_555
C6 C4 1_555 1_555
H8 C6 1_555 1_555
C7 C6 1_555 1_555
H9 C7 1_555 1_555
C8 C2 1_555 1_555
C9 N1 1_555 1_555
H10 C9 1_555 1_555
C10 N2 1_555 1_555
H11 C10 1_555 1_555
H12 C10 1_555 1_555
H13 C10 1_555 1_555
C11 N2 1_555 1_555
H14 C11 1_555 1_555
C12 N3 1_555 1_555
C13 C12 1_555 1_555
C14 C13 1_555 1_555
H15 C14 1_555 1_555
H16 C14 1_555 1_555
H17 C14 1_555 1_555
C15 C13 1_555 1_555
H18 C15 1_555 1_555
C16 C15 1_555 1_555
C17 C16 1_555 1_555
H19 C17 1_555 1_555
H20 C17 1_555 1_555
H21 C17 1_555 1_555
C18 C16 1_555 1_555
H22 C18 1_555 1_555
C19 C12 1_555 1_555
H23 C19 1_555 1_555
N4 C27 1_555 1_555
N5 C28 1_555 1_555
N6 C30 1_555 1_555
C20 H24 1_555 1_555
H25 C20 1_555 1_555
H26 C20 1_555 1_555
C21 C20 1_555 1_555
C22 C21 1_555 1_555
H27 C22 1_555 1_555
C23 C22 1_555 1_555
C24 C23 1_555 1_555
H28 C24 1_555 1_555
H29 C24 1_555 1_555
H30 C24 1_555 1_555
C25 C23 1_555 1_555
H31 C25 1_555 1_555
C26 C25 1_555 1_555
H32 C26 1_555 1_555
C27 C21 1_555 1_555
C28 N4 1_555 1_555
H33 C28 1_555 1_555
C29 N5 1_555 1_555
H34 C29 1_555 1_555
H35 C29 1_555 1_555
H36 C29 1_555 1_555
C30 N5 1_555 1_555
H37 C30 1_555 1_555
C31 N6 1_555 1_555
C32 C31 1_555 1_555
C33 C32 1_555 1_555
H38 C33 1_555 1_555
H39 C33 1_555 1_555
H40 C33 1_555 1_555
C34 C32 1_555 1_555
H41 C34 1_555 1_555
C35 C34 1_555 1_555
C36 C35 1_555 1_555
H42 C36 1_555 1_555
H43 C36 1_555 1_555
H44 C36 1_555 1_555
C37 C35 1_555 1_555
H45 C37 1_555 1_555
C38 C31 1_555 1_555
H46 C38 1_555 1_555
C7 C8 1_555 1_555
C18 C19 1_555 1_555
C26 C27 1_555 1_555
C37 C38 1_555 1_555

#END
