
#######################################################################
#
#                 Cambridge Crystallographic Data Centre
#                                CCDC 
#
#######################################################################
#
# If this CIF has been generated from an entry in the Cambridge 
# Structural Database, then it will include bibliographic, chemical, 
# crystal, experimental, refinement or atomic coordinate data resulting 
# from the CCDC's data processing and validation procedures.
#
#######################################################################

data_AFIYUM
_chemical_formula_moiety         
'3(C1 H6 N3 1+),C24 H15 O9 S3 3-,2.86(C9 H14 O1),0.59(C6 F6),x(C1 H4 O1)'
_chemical_name_systematic        
'tris(Guanidinium) 1,3,5-tris(4-sulfonatophenyl)benzene tris(isophorone) hexafluorobenzene clathrate methanol solvate'
_symmetry_cell_setting           hexagonal
_symmetry_space_group_name_H-M   'P 63'
_symmetry_Int_Tables_number      173
_space_group_name_Hall           'P 6c'
loop_
_symmetry_equiv_pos_site_id
_symmetry_equiv_pos_as_xyz
1 x,y,z
2 -y,x-y,z
3 -x+y,-x,z
4 -x,-y,1/2+z
5 y,-x+y,1/2+z
6 x-y,x,1/2+z
_cell_length_a                   24.002(5)
_cell_length_b                   24.002(5)
_cell_length_c                   7.3978(14)
_cell_angle_alpha                90
_cell_angle_beta                 90
_cell_angle_gamma                120
_cell_volume                     3690.86
_exptl_crystal_colour            colorless
_exptl_crystal_description       needle
_cell_formula_units_Z            2
_exptl_crystal_preparation       
'The crystal was exposed to 50% v/v hexafluorobenzene/hexane vapour for a total of 10 minutes (an 7 minute and a 3 minute exposure) at room temperature prior to data collection.'
loop_
_atom_site_label
_atom_site_type_symbol
_atom_site_fract_x
_atom_site_fract_y
_atom_site_fract_z
N1 N 0.8566(2) 0.7146(2) 0.0884(10)
H6 H 0.870047 0.707158 0.191405
H7 H 0.870761 0.708038 -0.014613
N2 N 0.7934(3) 0.7456(3) 0.2402(7)
H8 H 0.806476 0.738373 0.344280
H9 H 0.765824 0.759563 0.238167
N3 N 0.7935(3) 0.7448(3) -0.0676(7)
H10 H 0.764968 0.757622 -0.068132
H11 H 0.807782 0.738234 -0.170410
C9 C 0.8152(3) 0.7355(3) 0.0884(11)
O4 O 0.5692(2) 0.4747(2) 0.4997(8)
C10 C 0.5772(3) 0.5141(3) 0.6186(11)
C11 C 0.6133(3) 0.5211(3) 0.7879(11)
H12 H 0.629669 0.492802 0.808524
C12 C 0.6235(3) 0.5646(3) 0.9096(10)
C13 C 0.6014(3) 0.6116(3) 0.8853(10)
H13 H 0.634919 0.653687 0.933233
H14 H 0.562133 0.597549 0.958751
C14 C 0.5867(3) 0.6211(3) 0.6913(10)
C15 C 0.5472(3) 0.5563(3) 0.6061(10)
H15 H 0.540446 0.562204 0.477074
H16 H 0.504521 0.534035 0.665237
C16 C 0.6583(4) 0.5694(4) 1.0791(15)
H17 H 0.697518 0.611616 1.085401
H18 H 0.669883 0.535578 1.081404
H19 H 0.630717 0.564148 1.182791
C17 C 0.6507(3) 0.6607(3) 0.5841(12)
H20 H 0.678657 0.642443 0.604652
H21 H 0.672504 0.705516 0.625567
H22 H 0.641183 0.659195 0.454811
C18 C 0.5496(4) 0.6584(4) 0.6888(10)
H23 H 0.575173 0.699871 0.749646
H24 H 0.508443 0.633255 0.751686
H25 H 0.541667 0.665613 0.563344
F1 F 0.3962(3) 0.5999(3) 0.5559(15)
F2 F 0.2669(4) 0.5377(3) 0.5565(15)
C19 C 0.3658(5) 0.6333(5) 0.5570(18)
C20 C 0.2998(5) 0.6010(5) 0.5567(17)
F1A F 0.4001(3) 0.7963(4) 0.5559(15)
F2A F 0.4623(3) 0.7292(5) 0.5565(15)
C19A C 0.3667(5) 0.7325(7) 0.5570(18)
C20A C 0.3990(5) 0.6988(7) 0.5567(17)
F1B F 0.2037(4) 0.6038(3) 0.5559(15)
F2B F 0.2708(5) 0.7331(4) 0.5565(15)
C19B C 0.2675(7) 0.6342(5) 0.5570(18)
C20B C 0.3012(7) 0.7002(5) 0.5567(17)
S1 S 0.87232(6) 0.68869(6) 0.5864(2)
O1 O 0.9116(2) 0.7069(2) 0.4250(5)
O2 O 0.82954(16) 0.71453(16) 0.5885(7)
O3 O 0.9109(2) 0.7030(2) 0.7509(5)
C1 C 0.7058(3) 0.4006(3) 0.5509(8)
C2 C 0.6386(3) 0.3721(3) 0.5500(8)
H1 H 0.619582 0.398501 0.548714
C3 C 0.7466(3) 0.4713(3) 0.5578(9)
C4 C 0.8053(3) 0.5005(3) 0.6512(9)
H2 H 0.819407 0.474165 0.707664
C5 C 0.8427(3) 0.5655(3) 0.6632(9)
H3 H 0.882158 0.584299 0.727826
C6 C 0.8225(2) 0.6039(3) 0.5805(10)
C7 C 0.7662(3) 0.5775(3) 0.4840(9)
H4 H 0.753490 0.604561 0.424854
C8 C 0.7281(3) 0.5113(3) 0.4734(9)
H5 H 0.688775 0.492981 0.407825
S1A S 0.31131(6) 0.18363(8) 0.5864(2)
O1A O 0.2931(2) 0.2047(3) 0.4250(5)
O2A O 0.28547(16) 0.11501(23) 0.5885(7)
O3A O 0.2970(2) 0.2079(3) 0.7509(5)
C1A C 0.5994(3) 0.3052(4) 0.5509(8)
C2A C 0.6279(3) 0.2665(4) 0.5500(8)
H1A H 0.601499 0.221081 0.548714
C3A C 0.5287(3) 0.2753(4) 0.5578(9)
C4A C 0.4995(3) 0.3048(4) 0.6512(9)
H2A H 0.525835 0.345242 0.707664
C5A C 0.4345(3) 0.2772(4) 0.6632(9)
H3A H 0.415701 0.297859 0.727826
C6A C 0.3961(3) 0.2186(4) 0.5805(10)
C7A C 0.4225(3) 0.1887(4) 0.4840(9)
H4A H 0.395439 0.148929 0.424854
C8A C 0.4887(3) 0.2168(4) 0.4734(9)
H5A H 0.507019 0.195794 0.407825
S1B S 0.81637(8) 0.12768(6) 0.5864(2)
O1B O 0.7953(3) 0.0884(2) 0.4250(5)
O2B O 0.88499(23) 0.17046(16) 0.5885(7)
O3B O 0.7921(3) 0.0891(2) 0.7509(5)
C1B C 0.6948(4) 0.2942(3) 0.5509(8)
C2B C 0.7335(4) 0.3614(3) 0.5500(8)
H1B H 0.778919 0.380418 0.548714
C3B C 0.7247(4) 0.2534(3) 0.5578(9)
C4B C 0.6952(4) 0.1947(3) 0.6512(9)
H2B H 0.654758 0.180593 0.707664
C5B C 0.7228(4) 0.1573(3) 0.6632(9)
H3B H 0.702141 0.117842 0.727826
C6B C 0.7814(4) 0.1775(2) 0.5805(10)
C7B C 0.8113(4) 0.2338(3) 0.4840(9)
H4B H 0.851071 0.246510 0.424854
C8B C 0.7832(4) 0.2719(3) 0.4734(9)
H5B H 0.804206 0.311225 0.407825
loop_
_geom_bond_atom_site_label_1
_geom_bond_atom_site_label_2
_geom_bond_site_symmetry_1
_geom_bond_site_symmetry_2
S1 O1 1_555 1_555
O2 S1 1_555 1_555
O3 S1 1_555 1_555
C1 C2 1_555 1_555
C2 H1 1_555 1_555
C3 C1 1_555 1_555
C4 C3 1_555 1_555
H2 C4 1_555 1_555
C5 C4 1_555 1_555
H3 C5 1_555 1_555
C6 S1 1_555 1_555
C7 C6 1_555 1_555
H4 C7 1_555 1_555
C8 C3 1_555 1_555
H5 C8 1_555 1_555
N1 H6 1_555 1_555
H7 N1 1_555 1_555
N2 H8 1_555 1_555
H9 N2 1_555 1_555
N3 H10 1_555 1_555
H11 N3 1_555 1_555
C9 N1 1_555 1_555
O4 C10 1_555 1_555
C10 C11 1_555 1_555
C11 H12 1_555 1_555
C12 C11 1_555 1_555
C13 C12 1_555 1_555
H13 C13 1_555 1_555
H14 C13 1_555 1_555
C14 C13 1_555 1_555
C15 C10 1_555 1_555
H15 C15 1_555 1_555
H16 C15 1_555 1_555
C16 C12 1_555 1_555
H17 C16 1_555 1_555
H18 C16 1_555 1_555
H19 C16 1_555 1_555
C17 C14 1_555 1_555
H20 C17 1_555 1_555
H21 C17 1_555 1_555
H22 C17 1_555 1_555
C18 C14 1_555 1_555
H23 C18 1_555 1_555
H24 C18 1_555 1_555
H25 C18 1_555 1_555
F1 C19 1_555 1_555
F2 C20 1_555 1_555
C19 C20 1_555 1_555
C20 C19B 1_555 1_555
S1A O1A 1_555 1_555
O2A S1A 1_555 1_555
O3A S1A 1_555 1_555
C1A C2 1_555 1_555
C2A C1A 1_555 1_555
H1A C2A 1_555 1_555
C3A C1A 1_555 1_555
C4A C3A 1_555 1_555
H2A C4A 1_555 1_555
C5A C4A 1_555 1_555
H3A C5A 1_555 1_555
C6A S1A 1_555 1_555
C7A C6A 1_555 1_555
H4A C7A 1_555 1_555
C8A C3A 1_555 1_555
H5A C8A 1_555 1_555
S1B O1B 1_555 1_555
O2B S1B 1_555 1_555
O3B S1B 1_555 1_555
C1B C2A 1_555 1_555
C2B C1 1_555 1_555
H1B C2B 1_555 1_555
C3B C1B 1_555 1_555
C4B C3B 1_555 1_555
H2B C4B 1_555 1_555
C5B C4B 1_555 1_555
H3B C5B 1_555 1_555
C6B S1B 1_555 1_555
C7B C6B 1_555 1_555
H4B C7B 1_555 1_555
C8B C3B 1_555 1_555
H5B C8B 1_555 1_555
F1A C19A 1_555 1_555
F2A C20A 1_555 1_555
C19A C20A 1_555 1_555
C20A C19 1_555 1_555
F1B C19B 1_555 1_555
F2B C20B 1_555 1_555
C19B C20B 1_555 1_555
C20B C19A 1_555 1_555
C5 C6 1_555 1_555
C7 C8 1_555 1_555
N2 C9 1_555 1_555
N3 C9 1_555 1_555
C14 C15 1_555 1_555
C5A C6A 1_555 1_555
C7A C8A 1_555 1_555
C1B C2B 1_555 1_555
C5B C6B 1_555 1_555
C7B C8B 1_555 1_555

#END
