
#######################################################################
#
#                 Cambridge Crystallographic Data Centre
#                                CCDC 
#
#######################################################################
#
# If this CIF has been generated from an entry in the Cambridge 
# Structural Database, then it will include bibliographic, chemical, 
# crystal, experimental, refinement or atomic coordinate data resulting 
# from the CCDC's data processing and validation procedures.
#
#######################################################################

data_AFIZAS
_chemical_name_common            2-(Diphenylmethylene)indan-1-one
_chemical_formula_moiety         'C22 H16 O1'
_chemical_name_systematic        
2-(Diphenylmethylidene)-2,3-dihydro-1H-inden-1-one
_symmetry_cell_setting           monoclinic
_symmetry_space_group_name_H-M   'P 21/c'
_symmetry_Int_Tables_number      14
_space_group_name_Hall           '-P 2ybc'
loop_
_symmetry_equiv_pos_site_id
_symmetry_equiv_pos_as_xyz
1 x,y,z
2 -x,1/2+y,1/2-z
3 -x,-y,-z
4 x,1/2-y,1/2+z
_cell_length_a                   9.1634(18)
_cell_length_b                   17.570(3)
_cell_length_c                   10.717(4)
_cell_angle_alpha                90
_cell_angle_beta                 117.89(2)
_cell_angle_gamma                90
_cell_volume                     1525.03
_exptl_crystal_colour            colorless
_exptl_crystal_description       prism
_cell_formula_units_Z            4
loop_
_atom_site_label
_atom_site_type_symbol
_atom_site_fract_x
_atom_site_fract_y
_atom_site_fract_z
O1 O 0.3991(2) 0.62562(11) 0.58262(19)
C1 C 0.2609(3) 0.69082(14) 0.1518(3)
H1 H 0.1860 0.7305 0.1127
C2 C 0.3856(3) 0.68115(15) 0.1133(3)
H2 H 0.3944 0.7148 0.0502
C3 C 0.4960(3) 0.62161(15) 0.1689(3)
H3 H 0.5790 0.6151 0.1431
C4 C 0.4829(3) 0.57117(16) 0.2640(3)
H4 H 0.5567 0.5309 0.3009
C5 C 0.3595(3) 0.58118(15) 0.3035(3)
H5 H 0.3517 0.5475 0.3671
C6 C 0.2469(3) 0.64149(14) 0.2488(3)
C7 C 0.1051(3) 0.65032(13) 0.2802(3)
C8 C -0.0542(3) 0.67304(14) 0.1560(3)
C9 C -0.1456(3) 0.73524(15) 0.1641(3)
H6 H -0.1056 0.7638 0.2466
C10 C -0.2959(3) 0.75445(16) 0.0491(3)
H7 H -0.3562 0.7956 0.0551
C11 C -0.3559(3) 0.71206(17) -0.0747(3)
H8 H -0.4570 0.7245 -0.1510
C12 C -0.2652(3) 0.65121(17) -0.0848(3)
H9 H -0.3054 0.6230 -0.1677
C13 C -0.1145(3) 0.63269(16) 0.0291(3)
H10 H -0.0528 0.5928 0.0209
C14 C 0.1063(3) 0.63406(14) 0.4049(3)
C15 C -0.0506(3) 0.62441(15) 0.4193(3)
H11 H -0.1067 0.6728 0.4076
H12 H -0.1256 0.5888 0.3498
C16 C 0.0094(3) 0.59403(14) 0.5668(3)
C17 C -0.0825(3) 0.56906(14) 0.6321(3)
H13 H -0.1972 0.5682 0.5831
C18 C 0.0010(3) 0.54542(15) 0.7717(3)
H14 H -0.0591 0.5273 0.8153
C19 C 0.1738(4) 0.54814(15) 0.8486(3)
H15 H 0.2266 0.5335 0.9429
C20 C 0.2664(3) 0.57288(14) 0.7835(3)
H16 H 0.3810 0.5750 0.8332
C21 C 0.1817(3) 0.59445(14) 0.6412(3)
C22 C 0.2509(3) 0.61871(14) 0.5466(3)
loop_
_geom_bond_atom_site_label_1
_geom_bond_atom_site_label_2
_geom_bond_site_symmetry_1
_geom_bond_site_symmetry_2
O1 C22 1_555 1_555
C1 H1 1_555 1_555
C2 C1 1_555 1_555
H2 C2 1_555 1_555
C3 C2 1_555 1_555
H3 C3 1_555 1_555
C4 C3 1_555 1_555
H4 C4 1_555 1_555
C5 C4 1_555 1_555
H5 C5 1_555 1_555
C6 C1 1_555 1_555
C7 C6 1_555 1_555
C8 C7 1_555 1_555
C9 C8 1_555 1_555
H6 C9 1_555 1_555
C10 C9 1_555 1_555
H7 C10 1_555 1_555
C11 C10 1_555 1_555
H8 C11 1_555 1_555
C12 C11 1_555 1_555
H9 C12 1_555 1_555
C13 C8 1_555 1_555
H10 C13 1_555 1_555
C14 C7 1_555 1_555
C15 C14 1_555 1_555
H11 C15 1_555 1_555
H12 C15 1_555 1_555
C16 C15 1_555 1_555
C17 C16 1_555 1_555
H13 C17 1_555 1_555
C18 C17 1_555 1_555
H14 C18 1_555 1_555
C19 C18 1_555 1_555
H15 C19 1_555 1_555
C20 C19 1_555 1_555
H16 C20 1_555 1_555
C21 C16 1_555 1_555
C22 C14 1_555 1_555
C5 C6 1_555 1_555
C12 C13 1_555 1_555
C20 C21 1_555 1_555
C21 C22 1_555 1_555

#END
