
#######################################################################
#
#                 Cambridge Crystallographic Data Centre
#                                CCDC 
#
#######################################################################
#
# If this CIF has been generated from an entry in the Cambridge 
# Structural Database, then it will include bibliographic, chemical, 
# crystal, experimental, refinement or atomic coordinate data resulting 
# from the CCDC's data processing and validation procedures.
#
#######################################################################

data_AFIZUN
_chemical_formula_moiety         
'3(C1 H6 N3 1+),C24 H15 O9 S3 3-,2.6(C9 H14 O1),0.59(C6 F6),x(C1 H4 O1)'
_chemical_name_systematic        
'tris(Guanidinium) 1,3,5-tris(4-sulfonatophenyl)benzene bis(isophorone) hexafluorobenzene clathrate methanol solvate'
_symmetry_cell_setting           hexagonal
_symmetry_space_group_name_H-M   'P 63'
_symmetry_Int_Tables_number      173
_space_group_name_Hall           'P 6c'
loop_
_symmetry_equiv_pos_site_id
_symmetry_equiv_pos_as_xyz
1 x,y,z
2 -y,x-y,z
3 -x+y,-x,z
4 -x,-y,1/2+z
5 y,-x+y,1/2+z
6 x-y,x,1/2+z
_cell_length_a                   24.102(13)
_cell_length_b                   24.102(13)
_cell_length_c                   7.467(4)
_cell_angle_alpha                90
_cell_angle_beta                 90
_cell_angle_gamma                120
_cell_volume                     3756.5
_exptl_crystal_colour            colorless
_exptl_crystal_description       needle
_cell_formula_units_Z            2
_exptl_crystal_preparation       
'The crystal was exposed to 25% v/v hexafluorobenzene/hexane vapour for a total of 22 minutes (an 8 minute exposure followed by two 7 minute exposures) at room temperature prior to data collection.'
loop_
_atom_site_label
_atom_site_type_symbol
_atom_site_fract_x
_atom_site_fract_y
_atom_site_fract_z
N1 N 0.1434(4) 0.2846(4) 0.9090(16)
H6 H 0.129744 0.292210 0.807685
H7 H 0.129298 0.290600 1.011761
N2 N 0.2060(5) 0.2553(6) 0.7625(14)
H8 H 0.193255 0.262487 0.659012
H9 H 0.233740 0.241736 0.765559
N3 N 0.2068(6) 0.2547(5) 1.0711(11)
H10 H 0.235489 0.242234 1.072381
H11 H 0.192196 0.260973 1.172531
C9 C 0.1844(5) 0.2646(6) 0.9068(17)
O4 O 0.4309(5) 0.5250(5) 0.4993(14)
C10 C 0.4234(6) 0.4863(6) 0.381(2)
C11 C 0.3870(6) 0.4787(6) 0.211(2)
H12 H 0.370077 0.506405 0.192401
C12 C 0.3771(6) 0.4368(6) 0.087(2)
C13 C 0.3979(7) 0.3881(7) 0.113(2)
H13 H 0.436271 0.400608 0.038013
H14 H 0.363481 0.346226 0.068731
C14 C 0.4139(6) 0.3796(6) 0.3078(17)
C15 C 0.4525(6) 0.4447(6) 0.3922(18)
H15 H 0.459286 0.439017 0.520087
H16 H 0.495088 0.467181 0.334039
C16 C 0.3415(7) 0.4302(7) -0.079(3)
H17 H 0.300043 0.390419 -0.075255
H18 H 0.366257 0.428939 -0.181887
H19 H 0.334610 0.466751 -0.091690
C17 C 0.3504(5) 0.3404(6) 0.418(3)
H20 H 0.313603 0.331476 0.342733
H21 H 0.351343 0.365385 0.522869
H22 H 0.346718 0.299928 0.457869
C18 C 0.4506(7) 0.3413(7) 0.3100(19)
H23 H 0.425489 0.300698 0.245781
H24 H 0.457027 0.332491 0.434162
H25 H 0.492319 0.366610 0.251474
F1 F 0.6048(7) 0.4002(7) 0.434(3)
F2 F 0.7328(8) 0.4620(8) 0.433(3)
C19 C 0.6334(9) 0.3658(11) 0.441(4)
C20 C 0.6995(9) 0.3987(10) 0.432(4)
F1A F 0.5998(7) 0.2046(10) 0.434(3)
F2A F 0.5380(8) 0.2708(11) 0.433(3)
C19A C 0.6342(11) 0.2676(14) 0.441(4)
C20A C 0.6013(10) 0.3008(13) 0.432(4)
F1B F 0.7954(10) 0.3952(7) 0.434(3)
F2B F 0.7292(11) 0.2672(8) 0.433(3)
C19B C 0.7324(14) 0.3666(9) 0.441(4)
C20B C 0.6992(13) 0.3005(9) 0.432(4)
S1 S 0.12774(11) 0.31113(11) 0.4143(4)
O1 O 0.0883(4) 0.2926(4) 0.5734(10)
O2 O 0.1699(3) 0.2859(3) 0.4108(11)
O3 O 0.0898(4) 0.2974(4) 0.2490(10)
C1 C 0.2946(5) 0.5993(5) 0.4506(11)
C2 C 0.3624(5) 0.6277(5) 0.4509(12)
H1 H 0.381742 0.601737 0.451303
C3 C 0.2538(5) 0.5289(5) 0.4473(13)
C4 C 0.1933(5) 0.4983(6) 0.3501(16)
H2 H 0.179126 0.524207 0.292786
C5 C 0.1579(5) 0.4354(6) 0.3404(15)
H3 H 0.118285 0.416550 0.277738
C6 C 0.1778(4) 0.3963(5) 0.4207(17)
C7 C 0.2346(5) 0.4226(5) 0.5150(15)
H4 H 0.247584 0.395867 0.573226
C8 C 0.2732(5) 0.4902(5) 0.5231(17)
H5 H 0.313335 0.508759 0.582775
S1A S 0.68887(11) 0.81661(16) 0.4143(4)
O1A O 0.7074(4) 0.7957(6) 0.5734(10)
O2A O 0.7141(3) 0.8840(4) 0.4108(11)
O3A O 0.7026(4) 0.7924(6) 0.2490(10)
C1A C 0.4007(5) 0.6953(7) 0.4506(11)
C2A C 0.3723(5) 0.7347(7) 0.4509(12)
H1A H 0.398263 0.780005 0.451303
C3A C 0.4711(5) 0.7249(7) 0.4473(13)
C4A C 0.5017(6) 0.6950(8) 0.3501(16)
H2A H 0.475793 0.654919 0.292786
C5A C 0.5646(6) 0.7225(8) 0.3404(15)
H3A H 0.583450 0.701735 0.277738
C6A C 0.6037(5) 0.7815(6) 0.4207(17)
C7A C 0.5774(5) 0.8120(7) 0.5150(15)
H4A H 0.604133 0.851717 0.573226
C8A C 0.5098(5) 0.7830(7) 0.5231(17)
H5A H 0.491241 0.804576 0.582775
S1B S 0.18339(16) 0.87226(11) 0.4143(4)
O1B O 0.2043(6) 0.9117(4) 0.5734(10)
O2B O 0.1160(4) 0.8301(3) 0.4108(11)
O3B O 0.2076(6) 0.9102(4) 0.2490(10)
C1B C 0.3047(7) 0.7054(5) 0.4506(11)
C2B C 0.2653(7) 0.6376(5) 0.4509(12)
H1B H 0.219995 0.618258 0.451303
C3B C 0.2751(7) 0.7462(5) 0.4473(13)
C4B C 0.3050(8) 0.8067(5) 0.3501(16)
H2B H 0.345081 0.820874 0.292786
C5B C 0.2775(8) 0.8421(5) 0.3404(15)
H3B H 0.298265 0.881715 0.277738
C6B C 0.2185(6) 0.8222(4) 0.4207(17)
C7B C 0.1880(7) 0.7654(5) 0.5150(15)
H4B H 0.148283 0.752416 0.573226
C8B C 0.2170(7) 0.7268(5) 0.5231(17)
H5B H 0.195424 0.686665 0.582775
loop_
_geom_bond_atom_site_label_1
_geom_bond_atom_site_label_2
_geom_bond_site_symmetry_1
_geom_bond_site_symmetry_2
S1 O1 1_555 1_555
O2 S1 1_555 1_555
O3 S1 1_555 1_555
C1 C2 1_555 1_555
C2 H1 1_555 1_555
C3 C1 1_555 1_555
C4 C3 1_555 1_555
H2 C4 1_555 1_555
C5 C4 1_555 1_555
H3 C5 1_555 1_555
C6 S1 1_555 1_555
C7 C6 1_555 1_555
H4 C7 1_555 1_555
C8 C3 1_555 1_555
H5 C8 1_555 1_555
N1 H6 1_555 1_555
H7 N1 1_555 1_555
N2 H8 1_555 1_555
H9 N2 1_555 1_555
N3 H10 1_555 1_555
H11 N3 1_555 1_555
C9 N1 1_555 1_555
O4 C10 1_555 1_555
C10 C11 1_555 1_555
C11 H12 1_555 1_555
C12 C11 1_555 1_555
C13 C12 1_555 1_555
H13 C13 1_555 1_555
H14 C13 1_555 1_555
C14 C13 1_555 1_555
C15 C10 1_555 1_555
H15 C15 1_555 1_555
H16 C15 1_555 1_555
C16 C12 1_555 1_555
H17 C16 1_555 1_555
H18 C16 1_555 1_555
H19 C16 1_555 1_555
C17 C14 1_555 1_555
H20 C17 1_555 1_555
H21 C17 1_555 1_555
H22 C17 1_555 1_555
C18 C14 1_555 1_555
H23 C18 1_555 1_555
H24 C18 1_555 1_555
H25 C18 1_555 1_555
F1 C19 1_555 1_555
F2 C20 1_555 1_555
C19 C20 1_555 1_555
C20 C19B 1_555 1_555
S1A O1A 1_555 1_555
O2A S1A 1_555 1_555
O3A S1A 1_555 1_555
C1A C2 1_555 1_555
C2A C1A 1_555 1_555
H1A C2A 1_555 1_555
C3A C1A 1_555 1_555
C4A C3A 1_555 1_555
H2A C4A 1_555 1_555
C5A C4A 1_555 1_555
H3A C5A 1_555 1_555
C6A S1A 1_555 1_555
C7A C6A 1_555 1_555
H4A C7A 1_555 1_555
C8A C3A 1_555 1_555
H5A C8A 1_555 1_555
S1B O1B 1_555 1_555
O2B S1B 1_555 1_555
O3B S1B 1_555 1_555
C1B C2A 1_555 1_555
C2B C1 1_555 1_555
H1B C2B 1_555 1_555
C3B C1B 1_555 1_555
C4B C3B 1_555 1_555
H2B C4B 1_555 1_555
C5B C4B 1_555 1_555
H3B C5B 1_555 1_555
C6B S1B 1_555 1_555
C7B C6B 1_555 1_555
H4B C7B 1_555 1_555
C8B C3B 1_555 1_555
H5B C8B 1_555 1_555
F1A C19A 1_555 1_555
F2A C20A 1_555 1_555
C19A C20A 1_555 1_555
C20A C19 1_555 1_555
F1B C19B 1_555 1_555
F2B C20B 1_555 1_555
C19B C20B 1_555 1_555
C20B C19A 1_555 1_555
C5 C6 1_555 1_555
C7 C8 1_555 1_555
N2 C9 1_555 1_555
N3 C9 1_555 1_555
C14 C15 1_555 1_555
C5A C6A 1_555 1_555
C7A C8A 1_555 1_555
C1B C2B 1_555 1_555
C5B C6B 1_555 1_555
C7B C8B 1_555 1_555

#END
