
#######################################################################
#
#                 Cambridge Crystallographic Data Centre
#                                CCDC 
#
#######################################################################
#
# If this CIF has been generated from an entry in the Cambridge 
# Structural Database, then it will include bibliographic, chemical, 
# crystal, experimental, refinement or atomic coordinate data resulting 
# from the CCDC's data processing and validation procedures.
#
#######################################################################

data_AFOBEF
_chemical_formula_moiety         
'3(C1 H6 N3 1+),C24 H15 O9 S3 3-,3(C9 H14 O1),0.83(C6 F6),x(C1 H4 O1)'
_chemical_name_systematic        
'tris(Guanidinium) 1,3,5-tris(4-sulfonatophenyl)benzene tris(isophorone) hexafluorobenzene clathrate methanol solvate'
_symmetry_cell_setting           hexagonal
_symmetry_space_group_name_H-M   'P 63'
_symmetry_Int_Tables_number      173
_space_group_name_Hall           'P 6c'
loop_
_symmetry_equiv_pos_site_id
_symmetry_equiv_pos_as_xyz
1 x,y,z
2 -y,x-y,z
3 -x+y,-x,z
4 -x,-y,1/2+z
5 y,-x+y,1/2+z
6 x-y,x,1/2+z
_cell_length_a                   24.031(3)
_cell_length_b                   24.031(3)
_cell_length_c                   7.4029(9)
_cell_angle_alpha                90
_cell_angle_beta                 90
_cell_angle_gamma                120
_cell_volume                     3702.34
_exptl_crystal_colour            colorless
_exptl_crystal_description       needle
_cell_formula_units_Z            2
_exptl_crystal_preparation       
'The crystal was exposed to the vapour of neat hexafluorobenzene liquid whilst capped to block the [010] faces for 1h prior to data collection.'
loop_
_atom_site_label
_atom_site_type_symbol
_atom_site_fract_x
_atom_site_fract_y
_atom_site_fract_z
N1 N 0.1433(2) 0.2852(2) 0.9101(11)
H6 H 0.129172 0.292056 0.807517
H7 H 0.129830 0.292351 1.013402
N2 N 0.2051(4) 0.2534(4) 0.7561(8)
H8 H 0.191376 0.260024 0.652509
H9 H 0.232645 0.239406 0.757395
N3 N 0.2055(3) 0.2543(3) 1.0655(8)
H10 H 0.191847 0.261678 1.168154
H11 H 0.233050 0.240337 1.065984
C9 C 0.1844(3) 0.2644(3) 0.9090(13)
O4 O 0.4304(2) 0.5253(3) 0.4962(8)
C10 C 0.4231(3) 0.4859(3) 0.3785(13)
C11 C 0.3869(4) 0.4788(3) 0.2155(13)
H12 H 0.370128 0.506710 0.197358
C12 C 0.3761(3) 0.4352(4) 0.0908(11)
C13 C 0.3988(4) 0.3877(4) 0.1137(10)
H13 H 0.438567 0.402524 0.042012
H14 H 0.365874 0.345885 0.063481
C14 C 0.4126(4) 0.3775(4) 0.3102(11)
C15 C 0.4527(3) 0.4436(3) 0.3941(12)
H15 H 0.459450 0.438424 0.523522
H16 H 0.495367 0.465482 0.334991
C16 C 0.3419(4) 0.4308(3) -0.0799(16)
H17 H 0.302800 0.388606 -0.087566
H18 H 0.369875 0.436345 -0.182707
H19 H 0.330286 0.464523 -0.082225
C17 C 0.3489(3) 0.3390(3) 0.4124(12)
H20 H 0.324343 0.361421 0.404568
H21 H 0.357766 0.334873 0.539418
H22 H 0.324032 0.296200 0.358507
C18 C 0.4501(4) 0.3420(4) 0.3150(12)
H23 H 0.423909 0.298957 0.263369
H24 H 0.461019 0.338262 0.440322
H25 H 0.489686 0.365843 0.244392
F1 F 0.6037(3) 0.4001(3) 0.4417(13)
F2 F 0.7322(3) 0.4623(3) 0.4440(11)
C19 C 0.6351(5) 0.3675(5) 0.4428(18)
C20 C 0.6997(5) 0.3982(4) 0.4427(18)
F1A F 0.5999(3) 0.2036(4) 0.4417(13)
F2A F 0.5377(3) 0.2699(4) 0.4440(11)
C19A C 0.6325(5) 0.2676(7) 0.4428(18)
C20A C 0.6018(4) 0.3015(6) 0.4427(18)
F1B F 0.7964(4) 0.3963(3) 0.4417(13)
F2B F 0.7301(4) 0.2678(3) 0.4440(11)
C19B C 0.7324(7) 0.3649(5) 0.4428(18)
C20B C 0.6985(6) 0.3003(5) 0.4427(18)
S1 S 0.12770(7) 0.31153(7) 0.4130(3)
O1 O 0.0889(2) 0.2938(2) 0.5745(6)
O2 O 0.17048(17) 0.28522(17) 0.4102(8)
O3 O 0.0886(3) 0.2963(2) 0.2497(6)
C1 C 0.2937(3) 0.5994(3) 0.4485(12)
C2 C 0.3612(3) 0.6286(4) 0.4481(12)
H1 H 0.380175 0.602129 0.447423
C3 C 0.2530(3) 0.5287(3) 0.4407(12)
C4 C 0.1947(4) 0.5004(4) 0.3471(11)
H2 H 0.180706 0.526839 0.291088
C5 C 0.1569(3) 0.4339(4) 0.3349(10)
H3 H 0.117451 0.415284 0.270413
C6 C 0.1763(3) 0.3949(3) 0.4157(14)
C7 C 0.2341(3) 0.4228(3) 0.5122(10)
H4 H 0.247520 0.396297 0.570531
C8 C 0.2716(4) 0.4885(4) 0.5226(11)
H5 H 0.310998 0.506823 0.587153
S1A S 0.68847(7) 0.81617(10) 0.4130(3)
O1A O 0.7062(2) 0.7951(3) 0.5745(6)
O2A O 0.71478(17) 0.88526(24) 0.4102(8)
O3A O 0.7037(2) 0.7923(4) 0.2497(6)
C1A C 0.4006(3) 0.6943(4) 0.4485(12)
C2A C 0.3714(4) 0.7326(5) 0.4481(12)
H1A H 0.397871 0.778046 0.447423
C3A C 0.4713(3) 0.7243(4) 0.4407(12)
C4A C 0.4996(4) 0.6943(6) 0.3471(11)
H2A H 0.473161 0.653867 0.291088
C5A C 0.5661(4) 0.7230(5) 0.3349(10)
H3A H 0.584716 0.702167 0.270413
C6A C 0.6051(3) 0.7814(4) 0.4157(14)
C7A C 0.5772(3) 0.8113(4) 0.5122(10)
H4A H 0.603703 0.851223 0.570531
C8A C 0.5115(4) 0.7831(6) 0.5226(11)
H5A H 0.493177 0.804175 0.587153
S1B S 0.18383(10) 0.87230(7) 0.4130(3)
O1B O 0.2049(3) 0.9111(2) 0.5745(6)
O2B O 0.11474(24) 0.82952(17) 0.4102(8)
O3B O 0.2077(4) 0.9114(3) 0.2497(6)
C1B C 0.3057(4) 0.7063(3) 0.4485(12)
C2B C 0.2674(5) 0.6388(3) 0.4481(12)
H1B H 0.221954 0.619825 0.447423
C3B C 0.2757(4) 0.7470(3) 0.4407(12)
C4B C 0.3057(6) 0.8053(4) 0.3471(11)
H2B H 0.346133 0.819294 0.291088
C5B C 0.2770(5) 0.8431(3) 0.3349(10)
H3B H 0.297833 0.882549 0.270413
C6B C 0.2186(4) 0.8237(3) 0.4157(14)
C7B C 0.1887(4) 0.7659(3) 0.5122(10)
H4B H 0.148777 0.752480 0.570531
C8B C 0.2169(6) 0.7284(4) 0.5226(11)
H5B H 0.195825 0.689002 0.587153
loop_
_geom_bond_atom_site_label_1
_geom_bond_atom_site_label_2
_geom_bond_site_symmetry_1
_geom_bond_site_symmetry_2
S1 O1 1_555 1_555
O2 S1 1_555 1_555
O3 S1 1_555 1_555
C1 C2 1_555 1_555
C2 H1 1_555 1_555
C3 C1 1_555 1_555
C4 C3 1_555 1_555
H2 C4 1_555 1_555
C5 C4 1_555 1_555
H3 C5 1_555 1_555
C6 S1 1_555 1_555
C7 C6 1_555 1_555
H4 C7 1_555 1_555
C8 C3 1_555 1_555
H5 C8 1_555 1_555
N1 H6 1_555 1_555
H7 N1 1_555 1_555
N2 H8 1_555 1_555
H9 N2 1_555 1_555
N3 H10 1_555 1_555
H11 N3 1_555 1_555
C9 N1 1_555 1_555
O4 C10 1_555 1_555
C10 C11 1_555 1_555
C11 H12 1_555 1_555
C12 C11 1_555 1_555
C13 C12 1_555 1_555
H13 C13 1_555 1_555
H14 C13 1_555 1_555
C14 C13 1_555 1_555
C15 C10 1_555 1_555
H15 C15 1_555 1_555
H16 C15 1_555 1_555
C16 C12 1_555 1_555
H17 C16 1_555 1_555
H18 C16 1_555 1_555
H19 C16 1_555 1_555
C17 C14 1_555 1_555
H20 C17 1_555 1_555
H21 C17 1_555 1_555
H22 C17 1_555 1_555
C18 C14 1_555 1_555
H23 C18 1_555 1_555
H24 C18 1_555 1_555
H25 C18 1_555 1_555
F1 C19 1_555 1_555
F2 C20 1_555 1_555
C19 C20 1_555 1_555
C20 C19B 1_555 1_555
S1A O1A 1_555 1_555
O2A S1A 1_555 1_555
O3A S1A 1_555 1_555
C1A C2 1_555 1_555
C2A C1A 1_555 1_555
H1A C2A 1_555 1_555
C3A C1A 1_555 1_555
C4A C3A 1_555 1_555
H2A C4A 1_555 1_555
C5A C4A 1_555 1_555
H3A C5A 1_555 1_555
C6A S1A 1_555 1_555
C7A C6A 1_555 1_555
H4A C7A 1_555 1_555
C8A C3A 1_555 1_555
H5A C8A 1_555 1_555
S1B O1B 1_555 1_555
O2B S1B 1_555 1_555
O3B S1B 1_555 1_555
C1B C2A 1_555 1_555
C2B C1 1_555 1_555
H1B C2B 1_555 1_555
C3B C1B 1_555 1_555
C4B C3B 1_555 1_555
H2B C4B 1_555 1_555
C5B C4B 1_555 1_555
H3B C5B 1_555 1_555
C6B S1B 1_555 1_555
C7B C6B 1_555 1_555
H4B C7B 1_555 1_555
C8B C3B 1_555 1_555
H5B C8B 1_555 1_555
F1A C19A 1_555 1_555
F2A C20A 1_555 1_555
C19A C20A 1_555 1_555
C20A C19 1_555 1_555
F1B C19B 1_555 1_555
F2B C20B 1_555 1_555
C19B C20B 1_555 1_555
C20B C19A 1_555 1_555
C5 C6 1_555 1_555
C7 C8 1_555 1_555
N2 C9 1_555 1_555
N3 C9 1_555 1_555
C14 C15 1_555 1_555
C5A C6A 1_555 1_555
C7A C8A 1_555 1_555
C1B C2B 1_555 1_555
C5B C6B 1_555 1_555
C7B C8B 1_555 1_555

#END
