
#######################################################################
#
#                 Cambridge Crystallographic Data Centre
#                                CCDC 
#
#######################################################################
#
# If this CIF has been generated from an entry in the Cambridge 
# Structural Database, then it will include bibliographic, chemical, 
# crystal, experimental, refinement or atomic coordinate data resulting 
# from the CCDC's data processing and validation procedures.
#
#######################################################################

data_AFOBUU
_chemical_compound_source        'roots of Ligularia lapathifolia'
_chemical_name_common            
8beta-Ethoxyeremophil-3,7(11)-diene-8alpha,12;6alpha,15-diolide
_chemical_formula_moiety         'C17 H20 O5'
_chemical_name_systematic        
6a-Ethoxy-9,9c-dimethyl-5,5a,6,6a,9b,9c-hexahydro-2H-furo[3',2':2,3]naphtho[1,8-bc]furan-2,8(4H)-dione
_symmetry_cell_setting           orthorhombic
_symmetry_space_group_name_H-M   'P 21 21 21'
_symmetry_Int_Tables_number      19
_space_group_name_Hall           'P 2ac 2ab'
loop_
_symmetry_equiv_pos_site_id
_symmetry_equiv_pos_as_xyz
1 x,y,z
2 1/2-x,-y,1/2+z
3 1/2+x,1/2-y,-z
4 -x,1/2+y,1/2-z
_cell_length_a                   8.4925(2)
_cell_length_b                   13.0302(4)
_cell_length_c                   14.1381(9)
_cell_angle_alpha                90
_cell_angle_beta                 90
_cell_angle_gamma                90
_cell_volume                     1564.51
_exptl_crystal_colour            colorless
_exptl_crystal_description       block
_cell_formula_units_Z            4
_exptl_crystal_recrystallization_method methanol
loop_
_atom_site_label
_atom_site_type_symbol
_atom_site_fract_x
_atom_site_fract_y
_atom_site_fract_z
O1 O 0.9183(2) 0.64050(12) 0.11330(10)
O2 O 0.79269(15) 0.60175(8) 0.24732(9)
O3 O 0.82873(14) 0.24550(10) 0.20230(9)
O4 O 0.6780(2) 0.17448(13) 0.09057(11)
O5 O 0.81102(14) 0.52062(10) 0.39285(7)
C1 C 0.3694(2) 0.36787(16) 0.35509(16)
H1 H 0.3487 0.3085 0.3945
H2 H 0.3133 0.4257 0.3822
C2 C 0.3051(2) 0.34733(16) 0.25617(17)
H3 H 0.2071 0.3096 0.2617
H4 H 0.2818 0.4124 0.2260
C3 C 0.4146(2) 0.28847(14) 0.19487(14)
H5 H 0.3795 0.2650 0.1365
C4 C 0.5619(2) 0.26851(12) 0.22151(12)
C5 C 0.63488(19) 0.29910(12) 0.31377(12)
C6 C 0.80727(18) 0.31837(12) 0.27873(11)
H6 H 0.8817 0.3034 0.3299
C7 C 0.83272(17) 0.42502(11) 0.24365(11)
C8 C 0.75684(19) 0.50977(12) 0.30066(11)
C9 C 0.58186(19) 0.49238(12) 0.30652(12)
H7 H 0.5376 0.4907 0.2433
H8 H 0.5331 0.5486 0.3407
C10 C 0.5468(2) 0.39090(12) 0.35713(12)
H9 H 0.5794 0.3977 0.4233
C11 C 0.89795(19) 0.46356(14) 0.16573(11)
C12 C 0.8750(2) 0.57663(15) 0.16860(12)
C13 C 0.9784(2) 0.4157(2) 0.08268(13)
H10 H 1.0069 0.3463 0.0978
H11 H 1.0715 0.4541 0.0676
H12 H 0.9085 0.4159 0.0293
C14 C 0.6368(3) 0.20772(17) 0.38296(16)
H13 H 0.6874 0.2279 0.4408
H14 H 0.6935 0.1516 0.3551
H15 H 0.5307 0.1867 0.3961
C15 C 0.6863(2) 0.22373(14) 0.16241(14)
C16 C 0.9771(2) 0.5300(2) 0.40545(14)
H16 H 1.0163 0.5873 0.3686
H17 H 1.0290 0.4681 0.3835
C17 C 1.0122(3) 0.5461(3) 0.50483(17)
H18 H 1.1237 0.5406 0.5148
H19 H 0.9588 0.4953 0.5420
H20 H 0.9773 0.6133 0.5234
loop_
_geom_bond_atom_site_label_1
_geom_bond_atom_site_label_2
_geom_bond_site_symmetry_1
_geom_bond_site_symmetry_2
O1 C12 1_555 1_555
O2 C8 1_555 1_555
O3 C6 1_555 1_555
O4 C15 1_555 1_555
O5 C8 1_555 1_555
C1 H1 1_555 1_555
H2 C1 1_555 1_555
C2 C1 1_555 1_555
H3 C2 1_555 1_555
H4 C2 1_555 1_555
C3 C2 1_555 1_555
H5 C3 1_555 1_555
C4 C3 1_555 1_555
C5 C4 1_555 1_555
C6 C5 1_555 1_555
H6 C6 1_555 1_555
C7 C6 1_555 1_555
C8 C7 1_555 1_555
C9 C8 1_555 1_555
H7 C9 1_555 1_555
H8 C9 1_555 1_555
C10 C1 1_555 1_555
H9 C10 1_555 1_555
C11 C7 1_555 1_555
C12 O2 1_555 1_555
C13 C11 1_555 1_555
H10 C13 1_555 1_555
H11 C13 1_555 1_555
H12 C13 1_555 1_555
C14 C5 1_555 1_555
H13 C14 1_555 1_555
H14 C14 1_555 1_555
H15 C14 1_555 1_555
C15 O3 1_555 1_555
C16 O5 1_555 1_555
H16 C16 1_555 1_555
H17 C16 1_555 1_555
C17 C16 1_555 1_555
H18 C17 1_555 1_555
H19 C17 1_555 1_555
H20 C17 1_555 1_555
C4 C15 1_555 1_555
C5 C10 1_555 1_555
C9 C10 1_555 1_555
C11 C12 1_555 1_555

#END
