
#######################################################################
#
#                 Cambridge Crystallographic Data Centre
#                                CCDC 
#
#######################################################################
#
# If this CIF has been generated from an entry in the Cambridge 
# Structural Database, then it will include bibliographic, chemical, 
# crystal, experimental, refinement or atomic coordinate data resulting 
# from the CCDC's data processing and validation procedures.
#
#######################################################################

data_AFOCIK
_chemical_formula_moiety         'C25 H30 I1 N1 O3'
_chemical_name_systematic        
't-butyl 2-(((2-t-butylphenyl)(4-iodobenzene-1-carbonyl)amino)methyl)prop-2-enoate'
_symmetry_cell_setting           monoclinic
_symmetry_space_group_name_H-M   'P 21'
_symmetry_Int_Tables_number      4
_space_group_name_Hall           'P 2yb'
loop_
_symmetry_equiv_pos_site_id
_symmetry_equiv_pos_as_xyz
1 x,y,z
2 -x,1/2+y,-z
_cell_length_a                   8.8222(2)
_cell_length_b                   22.4497(5)
_cell_length_c                   12.2995(3)
_cell_angle_alpha                90
_cell_angle_beta                 90.664(2)
_cell_angle_gamma                90
_cell_volume                     2435.82
_exptl_crystal_colour            colorless
_exptl_crystal_description       plate
_chemical_melting_point          '152-154 deg.C'
_cell_formula_units_Z            4
loop_
_atom_site_label
_atom_site_type_symbol
_atom_site_fract_x
_atom_site_fract_y
_atom_site_fract_z
I1 I 1.03815(7) 0.32308(3) 1.09311(5)
O1 O 1.0318(8) 0.5329(3) 0.2541(5)
O2 O 1.2394(7) 0.4542(3) 0.6029(5)
O3 O 1.0957(10) 0.6190(3) 0.3386(6)
N1 N 1.0045(8) 0.4348(3) 0.5392(6)
C1 C 1.0604(10) 0.5670(4) 0.3405(8)
C2 C 0.5632(10) 0.3642(5) 0.5532(8)
H1 H 0.465337 0.349147 0.557852
C3 C 1.0409(10) 0.4653(4) 0.4370(7)
H2 H 0.967768 0.453336 0.381691
H3 H 1.140085 0.452188 0.413493
C4 C 1.0800(9) 0.4054(4) 0.7264(7)
C5 C 0.8572(9) 0.4066(4) 0.5436(7)
C6 C 0.7362(10) 0.4456(4) 0.5576(7)
H4 H 0.755880 0.486158 0.564229
C7 C 0.9474(10) 0.4123(4) 0.7852(7)
H5 H 0.866490 0.433210 0.754459
C8 C 0.9336(10) 0.3886(4) 0.8893(7)
H6 H 0.844739 0.394022 0.927984
C9 C 1.0413(10) 0.5327(4) 0.4445(7)
C10 C 1.0528(10) 0.3570(4) 0.9345(7)
C11 C 0.9688(12) 0.2586(5) 0.6109(10)
H7 H 0.875755 0.237681 0.623959
H8 H 0.990978 0.284400 0.671224
H9 H 1.049659 0.230357 0.602835
C12 C 1.1129(9) 0.4335(4) 0.6189(7)
C13 C 0.5885(10) 0.4262(4) 0.5620(7)
H10 H 0.508602 0.452724 0.570342
C14 C 1.1983(11) 0.5800(5) 0.1184(8)
H11 H 1.205209 0.589189 0.042399
H12 H 1.270112 0.549332 0.136673
H13 H 1.220055 0.615009 0.160468
C15 C 1.1987(11) 0.3725(5) 0.7735(8)
H14 H 1.288271 0.367770 0.735393
C16 C 0.6826(9) 0.3265(5) 0.5380(7)
H15 H 0.662689 0.285856 0.533363
C17 C 1.1861(11) 0.3468(5) 0.8761(8)
H16 H 1.263710 0.323428 0.905028
C18 C 0.8971(13) 0.2565(5) 0.4124(11)
H17 H 0.974339 0.228137 0.394451
H18 H 0.875206 0.281003 0.350277
H19 H 0.806912 0.235727 0.433476
C19 C 1.1100(11) 0.3175(5) 0.4736(10)
H20 H 1.161145 0.334288 0.535681
H21 H 1.099630 0.347218 0.417943
H22 H 1.167749 0.284556 0.446386
C20 C 0.8357(10) 0.3457(4) 0.5289(7)
C21 C 1.0238(12) 0.5645(5) 0.5348(8)
H23 H 1.023801 0.605914 0.531523
H24 H 1.011501 0.545387 0.601198
C22 C 0.9526(11) 0.2957(5) 0.5067(9)
C23 C 1.0380(12) 0.5582(5) 0.1433(8)
C24 C 0.9944(17) 0.5049(6) 0.0731(9)
H25 H 1.067392 0.473601 0.083622
H26 H 0.992539 0.516495 -0.002051
H27 H 0.895887 0.490845 0.093314
C25 C 0.9216(13) 0.6072(7) 0.1302(10)
H28 H 0.823229 0.592132 0.148285
H29 H 0.920518 0.620875 0.056228
H30 H 0.947192 0.639690 0.177694
I2 I 0.51954(8) 0.69332(3) 0.29706(5)
O4 O 0.5504(8) 0.4725(3) 1.1238(5)
O5 O 0.7465(7) 0.5426(3) 0.7675(6)
O6 O 0.5176(11) 0.3806(3) 1.0513(6)
C26 C 0.5408(9) 0.4654(4) 0.9343(7)
N2 N 0.5159(8) 0.5627(3) 0.8352(6)
C27 C 0.5507(10) 0.4525(4) 1.2397(7)
C28 C 0.1004(10) 0.5777(5) 0.8130(7)
H31 H 0.017371 0.552545 0.803989
C29 C 0.5335(11) 0.4328(4) 0.8454(8)
H32 H 0.525153 0.391575 0.850600
H33 H 0.536785 0.450910 0.777532
C30 C 0.4447(10) 0.5911(4) 0.5932(7)
H34 H 0.366492 0.568597 0.622190
C31 C 0.2014(10) 0.6746(5) 0.8444(8)
H35 H 0.183336 0.715126 0.852908
C32 C 0.3708(9) 0.5926(4) 0.8332(7)
C33 C 0.6196(9) 0.5654(4) 0.7549(7)
C34 C 0.5349(11) 0.4334(4) 1.0417(8)
C35 C 0.0790(10) 0.6368(5) 0.8242(8)
H36 H -0.018306 0.652473 0.818383
C36 C 0.5822(10) 0.5968(4) 0.6495(7)
C37 C 0.3534(10) 0.6533(4) 0.8524(7)
C38 C 0.2457(10) 0.5541(4) 0.8150(7)
H37 H 0.260941 0.513567 0.804436
C39 C 0.6996(11) 0.6285(5) 0.6051(8)
H38 H 0.791550 0.631203 0.642501
C40 C 0.4252(10) 0.6198(4) 0.4919(7)
H39 H 0.333803 0.617039 0.453853
C41 C 0.4705(10) 0.7010(4) 0.8827(8)
C42 C 0.5452(12) 0.6520(4) 0.4504(8)
C43 C 0.6832(10) 0.4101(5) 1.2589(7)
H40 H 0.670979 0.375552 1.213640
H41 H 0.685974 0.398186 1.333862
H42 H 0.776290 0.429853 1.241293
C44 C 0.5576(10) 0.5321(4) 0.9369(7)
H43 H 0.495155 0.547707 0.994758
H44 H 0.662153 0.541673 0.954733
C45 C 0.3994(12) 0.4238(5) 1.2645(9)
H45 H 0.393299 0.416168 1.341136
H46 H 0.390210 0.387025 1.225304
H47 H 0.318854 0.450201 1.242865
C46 C 0.4908(12) 0.7441(5) 0.7872(9)
H48 H 0.514727 0.721943 0.722875
H49 H 0.571794 0.771320 0.803647
H50 H 0.398626 0.765987 0.775284
C47 C 0.6824(11) 0.6567(5) 0.5043(8)
H51 H 0.761819 0.678206 0.474354
C48 C 0.4188(13) 0.7348(5) 0.9832(9)
H52 H 0.334065 0.759711 0.964379
H53 H 0.500479 0.758961 1.010456
H54 H 0.389130 0.706846 1.038154
C49 C 0.5744(14) 0.5106(5) 1.2987(9)
H55 H 0.669843 0.527498 1.278272
H56 H 0.574235 0.503679 1.375728
H57 H 0.494078 0.537674 1.279719
C50 C 0.6326(11) 0.6759(5) 0.9119(10)
H58 H 0.623862 0.645598 0.966472
H59 H 0.695433 0.707653 0.939113
H60 H 0.677369 0.659275 0.847965
loop_
_geom_bond_atom_site_label_1
_geom_bond_atom_site_label_2
_geom_bond_site_symmetry_1
_geom_bond_site_symmetry_2
I1 C10 1_555 1_555
O1 C1 1_555 1_555
O2 C12 1_555 1_555
O3 C1 1_555 1_555
N1 C3 1_555 1_555
C1 C9 1_555 1_555
C2 H1 1_555 1_555
C3 H2 1_555 1_555
H3 C3 1_555 1_555
C4 C7 1_555 1_555
C5 N1 1_555 1_555
C6 C5 1_555 1_555
H4 C6 1_555 1_555
C7 H5 1_555 1_555
C8 C7 1_555 1_555
H6 C8 1_555 1_555
C9 C3 1_555 1_555
C10 C8 1_555 1_555
C11 H7 1_555 1_555
H8 C11 1_555 1_555
H9 C11 1_555 1_555
C12 N1 1_555 1_555
C13 C2 1_555 1_555
H10 C13 1_555 1_555
C14 H11 1_555 1_555
H12 C14 1_555 1_555
H13 C14 1_555 1_555
C15 C4 1_555 1_555
H14 C15 1_555 1_555
C16 C2 1_555 1_555
H15 C16 1_555 1_555
C17 C10 1_555 1_555
H16 C17 1_555 1_555
C18 H17 1_555 1_555
H18 C18 1_555 1_555
H19 C18 1_555 1_555
C19 H20 1_555 1_555
H21 C19 1_555 1_555
H22 C19 1_555 1_555
C20 C5 1_555 1_555
C21 C9 1_555 1_555
H23 C21 1_555 1_555
H24 C21 1_555 1_555
C22 C11 1_555 1_555
C23 O1 1_555 1_555
C24 C23 1_555 1_555
H25 C24 1_555 1_555
H26 C24 1_555 1_555
H27 C24 1_555 1_555
C25 C23 1_555 1_555
H28 C25 1_555 1_555
H29 C25 1_555 1_555
H30 C25 1_555 1_555
I2 C42 1_555 1_555
O4 C27 1_555 1_555
O5 C33 1_555 1_555
O6 C34 1_555 1_555
C26 C29 1_555 1_555
N2 C32 1_555 1_555
C27 C43 1_555 1_555
C28 H31 1_555 1_555
C29 H32 1_555 1_555
H33 C29 1_555 1_555
C30 H34 1_555 1_555
C31 H35 1_555 1_555
C32 C37 1_555 1_555
C33 N2 1_555 1_555
C34 O4 1_555 1_555
C35 C28 1_555 1_555
H36 C35 1_555 1_555
C36 C30 1_555 1_555
C37 C31 1_555 1_555
C38 C28 1_555 1_555
H37 C38 1_555 1_555
C39 C36 1_555 1_555
H38 C39 1_555 1_555
C40 C30 1_555 1_555
H39 C40 1_555 1_555
C41 C37 1_555 1_555
C42 C40 1_555 1_555
C43 H40 1_555 1_555
H41 C43 1_555 1_555
H42 C43 1_555 1_555
C44 C26 1_555 1_555
H43 C44 1_555 1_555
H44 C44 1_555 1_555
C45 C27 1_555 1_555
H45 C45 1_555 1_555
H46 C45 1_555 1_555
H47 C45 1_555 1_555
C46 C41 1_555 1_555
H48 C46 1_555 1_555
H49 C46 1_555 1_555
H50 C46 1_555 1_555
C47 C39 1_555 1_555
H51 C47 1_555 1_555
C48 C41 1_555 1_555
H52 C48 1_555 1_555
H53 C48 1_555 1_555
H54 C48 1_555 1_555
C49 C27 1_555 1_555
H55 C49 1_555 1_555
H56 C49 1_555 1_555
H57 C49 1_555 1_555
C50 C41 1_555 1_555
H58 C50 1_555 1_555
H59 C50 1_555 1_555
H60 C50 1_555 1_555
C4 C12 1_555 1_555
C6 C13 1_555 1_555
C14 C23 1_555 1_555
C15 C17 1_555 1_555
C16 C20 1_555 1_555
C18 C22 1_555 1_555
C19 C22 1_555 1_555
C20 C22 1_555 1_555
C26 C34 1_555 1_555
N2 C44 1_555 1_555
C31 C35 1_555 1_555
C32 C38 1_555 1_555
C33 C36 1_555 1_555
C42 C47 1_555 1_555

#END
