
#######################################################################
#
#                 Cambridge Crystallographic Data Centre
#                                CCDC 
#
#######################################################################
#
# If this CIF has been generated from an entry in the Cambridge 
# Structural Database, then it will include bibliographic, chemical, 
# crystal, experimental, refinement or atomic coordinate data resulting 
# from the CCDC's data processing and validation procedures.
#
#######################################################################

data_AFOFIN
_chemical_formula_moiety         
'C8 H20 N1 1+,C37 H42 B11 O2 1-,1.7(C4 H8 O1),0.3(C1 H4 O1)'
_chemical_name_systematic        
'tetraethylammonium 1-carboxy-2,3,4,5,6-pentakis(3-methylphenyl)-1-carba-closo-dodecaborate tetrahydrofuran methanol solvate'
_symmetry_cell_setting           monoclinic
_symmetry_space_group_name_H-M   'P 21/n'
_symmetry_Int_Tables_number      14
_space_group_name_Hall           '-P 2yn'
loop_
_symmetry_equiv_pos_site_id
_symmetry_equiv_pos_as_xyz
1 x,y,z
2 1/2-x,1/2+y,1/2-z
3 -x,-y,-z
4 1/2+x,1/2-y,1/2+z
_cell_length_a                   18.1297(9)
_cell_length_b                   12.7407(6)
_cell_length_c                   23.8742(13)
_cell_angle_alpha                90
_cell_angle_beta                 106.874(5)
_cell_angle_gamma                90
_cell_volume                     5277.16
_exptl_crystal_colour            colorless
_exptl_crystal_description       block
_cell_formula_units_Z            4
loop_
_atom_site_label
_atom_site_type_symbol
_atom_site_fract_x
_atom_site_fract_y
_atom_site_fract_z
O1 O 0.40554(10) 0.05140(15) -0.02751(8)
H1 H 0.444(2) 0.032(4) -0.039(2)
O2 O 0.47419(9) -0.00419(14) 0.05990(8)
C1 C 0.26581(19) 0.0971(3) -0.21172(13)
H2 H 0.2615 0.1727 -0.2057
H3 H 0.2359 0.0786 -0.2517
H4 H 0.3200 0.0787 -0.2057
C2 C 0.34705(13) 0.05775(18) 0.04896(10)
C3 C 0.41485(13) 0.03281(18) 0.02697(10)
C4 C 0.30650(14) -0.16530(19) 0.04311(11)
C5 C 0.28371(17) -0.2450(2) 0.07386(13)
H5 H 0.2576 -0.2266 0.1017
C6 C 0.2972(2) -0.3509(2) 0.06594(14)
C7 C 0.33632(19) -0.3774(2) 0.02571(14)
H6 H 0.3481 -0.4487 0.0205
C8 C 0.35781(18) -0.3001(2) -0.00648(14)
H7 H 0.3834 -0.3187 -0.0346
C9 C 0.34269(15) -0.1955(2) 0.00149(12)
H8 H 0.3572 -0.1434 -0.0218
C10 C 0.2712(3) -0.4338(3) 0.1010(2)
H9 H 0.3154 -0.4581 0.1327
H10 H 0.2490 -0.4930 0.0755
H11 H 0.2322 -0.4042 0.1176
C11 C 0.23370(13) 0.0131(2) -0.06710(11)
C12 C 0.25511(14) 0.0694(2) -0.11036(11)
H12 H 0.2844 0.1318 -0.0994
C13 C 0.23517(15) 0.0377(2) -0.16871(12)
C14 C 0.19008(16) -0.0508(3) -0.18517(13)
H13 H 0.1751 -0.0728 -0.2249
C15 C 0.16678(16) -0.1072(2) -0.14385(13)
H14 H 0.1357 -0.1679 -0.1554
C16 C 0.18832(14) -0.0762(2) -0.08585(12)
H15 H 0.1720 -0.1165 -0.0581
C17 C 0.31738(15) 0.26289(19) -0.01250(11)
C18 C 0.25931(18) 0.3279(2) -0.04546(12)
H16 H 0.2080 0.3163 -0.0444
C19 C 0.2733(2) 0.4094(2) -0.08006(13)
C20 C 0.3484(2) 0.4269(3) -0.08056(14)
H17 H 0.3592 0.4818 -0.1040
C21 C 0.4073(2) 0.3660(3) -0.04766(14)
H18 H 0.4587 0.3792 -0.0481
C22 C 0.39244(17) 0.2854(2) -0.01395(12)
H19 H 0.4341 0.2442 0.0088
C23 C 0.2112(3) 0.4808(3) -0.1138(2)
H20 H 0.2039 0.4712 -0.1558
H21 H 0.2258 0.5537 -0.1030
H22 H 0.1631 0.4644 -0.1048
C24 C 0.43180(14) 0.22720(19) 0.12393(10)
C25 C 0.50700(15) 0.1879(2) 0.14019(11)
H23 H 0.5142 0.1140 0.1401
C26 C 0.57216(16) 0.2526(2) 0.15658(13)
C27 C 0.56088(18) 0.3598(2) 0.15758(13)
H24 H 0.6041 0.4055 0.1687
C28 C 0.48742(19) 0.4011(2) 0.14252(12)
H25 H 0.4806 0.4749 0.1438
C29 C 0.42349(16) 0.3363(2) 0.12551(11)
H26 H 0.3733 0.3663 0.1148
C30 C 0.65096(18) 0.2043(3) 0.17189(17)
H27 H 0.6660 0.1817 0.2129
H28 H 0.6881 0.2560 0.1661
H29 H 0.6502 0.1434 0.1466
C31 C 0.42444(14) -0.03741(19) 0.16680(11)
C32 C 0.45605(14) -0.1331(2) 0.15742(12)
H30 H 0.4353 -0.1668 0.1207
C33 C 0.51637(16) -0.1819(2) 0.19893(12)
C34 C 0.54702(18) -0.1319(2) 0.25225(13)
H31 H 0.5886 -0.1632 0.2812
C35 C 0.51767(18) -0.0375(3) 0.26335(13)
H32 H 0.5390 -0.0037 0.3000
C36 C 0.45672(16) 0.0090(2) 0.22125(12)
H33 H 0.4367 0.0740 0.2299
C37 C 0.5474(2) -0.2855(2) 0.18586(15)
H34 H 0.5109 -0.3172 0.1515
H35 H 0.5546 -0.3324 0.2196
H36 H 0.5970 -0.2744 0.1780
B1 B 0.29035(16) -0.0474(2) 0.05763(12)
B2 B 0.25372(15) 0.0482(2) -0.00055(12)
B3 B 0.29592(16) 0.1742(2) 0.02676(12)
B4 B 0.35712(16) 0.1564(2) 0.10197(12)
B5 B 0.35361(16) 0.0187(2) 0.12142(12)
B6 B 0.25619(16) -0.0096(2) 0.11806(13)
H37 H 0.2427 -0.0696 0.1479
B7 B 0.19677(16) 0.0071(2) 0.04508(13)
H38 H 0.1441 -0.0422 0.0270
B8 B 0.19969(17) 0.1414(2) 0.02602(13)
H39 H 0.1488 0.1814 -0.0047
B9 B 0.26181(17) 0.2079(2) 0.08743(13)
H40 H 0.2521 0.2919 0.0970
B10 B 0.29629(16) 0.1145(2) 0.14424(13)
H41 H 0.3092 0.1371 0.1914
B11 B 0.20059(17) 0.1058(2) 0.09838(13)
H42 H 0.1503 0.1222 0.1154
O3 O 0.5244(3) -0.1855(3) 0.52436(17)
C38 C 0.6027(7) -0.1655(9) 0.5277(5)
H43 H 0.6205 -0.1006 0.5504
H44 H 0.6355 -0.2244 0.5477
C39 C 0.6096(7) -0.1533(8) 0.4659(5)
H45 H 0.6544 -0.1934 0.4614
H46 H 0.6164 -0.0785 0.4572
C40 C 0.5470(7) -0.1891(7) 0.4315(4)
H47 H 0.5123 -0.1330 0.4101
H48 H 0.5558 -0.2418 0.4036
C41 C 0.5218(6) -0.2336(6) 0.4756(3)
H49 H 0.5509 -0.2998 0.4868
H50 H 0.4673 -0.2537 0.4576
N1 N -0.02152(13) 0.1396(2) -0.16902(10)
C42 C 0.05689(16) 0.1898(3) -0.14247(13)
H51 H 0.0523 0.2412 -0.1126
H52 H 0.0933 0.1346 -0.1221
C43 C 0.09092(19) 0.2446(3) -0.18482(15)
H53 H 0.0948 0.1952 -0.2153
H54 H 0.1424 0.2708 -0.1640
H55 H 0.0578 0.3036 -0.2028
C44 C -0.05075(16) 0.0994(3) -0.11970(13)
H56 H -0.0528 0.1589 -0.0935
H57 H -0.1041 0.0735 -0.1365
C45 C -0.00304(17) 0.0126(3) -0.08344(14)
H58 H 0.0012 -0.0458 -0.1090
H59 H -0.0279 -0.0120 -0.0545
H60 H 0.0485 0.0393 -0.0633
C46 C -0.01107(19) 0.0512(3) -0.20863(14)
H61 H 0.0047 0.0819 -0.2415
H62 H 0.0315 0.0056 -0.1862
C47 C -0.0813(2) -0.0157(4) -0.2334(2)
H63 H -0.1231 0.0277 -0.2577
H64 H -0.0975 -0.0467 -0.2013
H65 H -0.0690 -0.0718 -0.2574
C48 C -0.07923(19) 0.2174(3) -0.20536(14)
H66 H -0.0613 0.2401 -0.2389
H67 H -0.1292 0.1812 -0.2214
C49 C -0.0920(2) 0.3128(3) -0.17289(17)
H68 H -0.1299 0.3586 -0.1994
H69 H -0.0432 0.3508 -0.1578
H70 H -0.1112 0.2917 -0.1402
O4 O 0.2486(11) -0.0773(15) 0.2795(8)
C50 C 0.3135(14) -0.1358(19) 0.2945(10)
H71 H 0.3272 -0.1559 0.2592
H72 H 0.3049 -0.1991 0.3151
H73 H 0.3556 -0.0948 0.3202
C51? C 0.5608(8) -0.0620(11) 0.4696(6)
H74? H 0.6051 -0.0142 0.4849
H75? H 0.5761 -0.1240 0.4506
O5? O 0.5217(10) -0.0887(16) 0.5125(7)
C52? C 0.4460(13) -0.118(2) 0.4761(10)
H76? H 0.4322 -0.1893 0.4864
H77? H 0.4066 -0.0679 0.4808
C53? C 0.452(2) -0.116(3) 0.4137(13)
H78? H 0.4863 -0.1697 0.4050
H79? H 0.4015 -0.1132 0.3829
C54? C 0.490(2) -0.008(3) 0.432(2)
H80? H 0.4632 0.0388 0.4531
H81? H 0.4996 0.0312 0.3989
O6? O 0.2531(2) -0.1586(4) 0.25453(19)
C55? C 0.3092(3) -0.2347(4) 0.2541(2)
H82? H 0.3175 -0.2369 0.2149
H83? H 0.2909 -0.3047 0.2622
C56? C 0.3815(3) -0.2106(4) 0.2979(3)
H84? H 0.4222 -0.1954 0.2790
H85? H 0.3983 -0.2706 0.3250
C57? C 0.3660(3) -0.1131(4) 0.3314(3)
H86? H 0.4103 -0.0643 0.3418
H87? H 0.3515 -0.1324 0.3670
C58? C 0.2957(4) -0.0678(7) 0.2818(3)
H88? H 0.2634 -0.0221 0.2987
H89? H 0.3138 -0.0268 0.2532
loop_
_geom_bond_atom_site_label_1
_geom_bond_atom_site_label_2
_geom_bond_site_symmetry_1
_geom_bond_site_symmetry_2
O1 H1 1_555 1_555
O2 C3 1_555 1_555
C1 H2 1_555 1_555
H3 C1 1_555 1_555
H4 C1 1_555 1_555
C2 C3 1_555 1_555
C3 O1 1_555 1_555
C4 C5 1_555 1_555
C5 H5 1_555 1_555
C6 C5 1_555 1_555
C7 C6 1_555 1_555
H6 C7 1_555 1_555
C8 C7 1_555 1_555
H7 C8 1_555 1_555
C9 C4 1_555 1_555
H8 C9 1_555 1_555
C10 C6 1_555 1_555
H9 C10 1_555 1_555
H10 C10 1_555 1_555
H11 C10 1_555 1_555
C11 C12 1_555 1_555
C12 H12 1_555 1_555
C13 C1 1_555 1_555
C14 C13 1_555 1_555
H13 C14 1_555 1_555
C15 C14 1_555 1_555
H14 C15 1_555 1_555
C16 C11 1_555 1_555
H15 C16 1_555 1_555
C17 C18 1_555 1_555
C18 H16 1_555 1_555
C19 C18 1_555 1_555
C20 C19 1_555 1_555
H17 C20 1_555 1_555
C21 C20 1_555 1_555
H18 C21 1_555 1_555
C22 C17 1_555 1_555
H19 C22 1_555 1_555
C23 C19 1_555 1_555
H20 C23 1_555 1_555
H21 C23 1_555 1_555
H22 C23 1_555 1_555
C24 C25 1_555 1_555
C25 H23 1_555 1_555
C26 C25 1_555 1_555
C27 C26 1_555 1_555
H24 C27 1_555 1_555
C28 C27 1_555 1_555
H25 C28 1_555 1_555
C29 C24 1_555 1_555
H26 C29 1_555 1_555
C30 C26 1_555 1_555
H27 C30 1_555 1_555
H28 C30 1_555 1_555
H29 C30 1_555 1_555
C31 C32 1_555 1_555
C32 H30 1_555 1_555
C33 C32 1_555 1_555
C34 C33 1_555 1_555
H31 C34 1_555 1_555
C35 C34 1_555 1_555
H32 C35 1_555 1_555
C36 C31 1_555 1_555
H33 C36 1_555 1_555
C37 C33 1_555 1_555
H34 C37 1_555 1_555
H35 C37 1_555 1_555
H36 C37 1_555 1_555
B1 C2 1_555 1_555
B2 C2 1_555 1_555
B3 C2 1_555 1_555
B4 C2 1_555 1_555
B5 C2 1_555 1_555
B6 B1 1_555 1_555
H37 B6 1_555 1_555
B7 B1 1_555 1_555
H38 B7 1_555 1_555
B8 B2 1_555 1_555
H39 B8 1_555 1_555
B9 B3 1_555 1_555
H40 B9 1_555 1_555
B10 B4 1_555 1_555
H41 B10 1_555 1_555
B11 B6 1_555 1_555
H42 B11 1_555 1_555
O3 C38 1_555 1_555
C38 H43 1_555 1_555
H44 C38 1_555 1_555
C39 C38 1_555 1_555
H45 C39 1_555 1_555
H46 C39 1_555 1_555
C40 C39 1_555 1_555
H47 C40 1_555 1_555
H48 C40 1_555 1_555
C41 O3 1_555 1_555
H49 C41 1_555 1_555
H50 C41 1_555 1_555
N1 C42 1_555 1_555
C42 H51 1_555 1_555
H52 C42 1_555 1_555
C43 C42 1_555 1_555
H53 C43 1_555 1_555
H54 C43 1_555 1_555
H55 C43 1_555 1_555
C44 N1 1_555 1_555
H56 C44 1_555 1_555
H57 C44 1_555 1_555
C45 C44 1_555 1_555
H58 C45 1_555 1_555
H59 C45 1_555 1_555
H60 C45 1_555 1_555
C46 N1 1_555 1_555
H61 C46 1_555 1_555
H62 C46 1_555 1_555
C47 C46 1_555 1_555
H63 C47 1_555 1_555
H64 C47 1_555 1_555
H65 C47 1_555 1_555
C48 N1 1_555 1_555
H66 C48 1_555 1_555
H67 C48 1_555 1_555
C49 C48 1_555 1_555
H68 C49 1_555 1_555
H69 C49 1_555 1_555
H70 C49 1_555 1_555
O4 C50 1_555 1_555
C50 H71 1_555 1_555
H72 C50 1_555 1_555
H73 C50 1_555 1_555
C4 B1 1_555 1_555
C8 C9 1_555 1_555
C11 B2 1_555 1_555
C12 C13 1_555 1_555
C15 C16 1_555 1_555
C17 B3 1_555 1_555
C21 C22 1_555 1_555
C24 B4 1_555 1_555
C28 C29 1_555 1_555
C31 B5 1_555 1_555
C35 C36 1_555 1_555
B1 B2 1_555 1_555
B1 B5 1_555 1_555
B2 B3 1_555 1_555
B2 B7 1_555 1_555
B3 B4 1_555 1_555
B3 B8 1_555 1_555
B4 B5 1_555 1_555
B4 B9 1_555 1_555
B5 B6 1_555 1_555
B5 B10 1_555 1_555
B6 B7 1_555 1_555
B6 B10 1_555 1_555
B7 B8 1_555 1_555
B7 B11 1_555 1_555
B8 B9 1_555 1_555
B8 B11 1_555 1_555
B9 B10 1_555 1_555
B9 B11 1_555 1_555
B10 B11 1_555 1_555
C40 C41 1_555 1_555

#END
