
#######################################################################
#
#                 Cambridge Crystallographic Data Centre
#                                CCDC 
#
#######################################################################
#
# If this CIF has been generated from an entry in the Cambridge 
# Structural Database, then it will include bibliographic, chemical, 
# crystal, experimental, refinement or atomic coordinate data resulting 
# from the CCDC's data processing and validation procedures.
#
#######################################################################

data_AFOFAF
_chemical_formula_moiety         'C8 H20 N1 1+,C32 H32 B11 O2 1-'
_chemical_name_systematic        
'tetraethylammonium 1-carboxy-2,3,4,5,6-pentaphenyl-1-carba-closo-dodecaborate'
_symmetry_cell_setting           triclinic
_symmetry_space_group_name_H-M   'P -1'
_symmetry_Int_Tables_number      2
_space_group_name_Hall           '-P 1'
loop_
_symmetry_equiv_pos_site_id
_symmetry_equiv_pos_as_xyz
1 x,y,z
2 -x,-y,-z
_cell_length_a                   11.9001(5)
_cell_length_b                   12.2874(6)
_cell_length_c                   15.7460(7)
_cell_angle_alpha                68.156(3)
_cell_angle_beta                 80.248(3)
_cell_angle_gamma                72.507(3)
_cell_volume                     2033.95
_exptl_crystal_colour            colorless
_exptl_crystal_description       prism
_cell_formula_units_Z            2
loop_
_atom_site_label
_atom_site_type_symbol
_atom_site_fract_x
_atom_site_fract_y
_atom_site_fract_z
O1 O 0.49135(17) 0.35066(14) 0.06857(12)
H1 H 0.503(4) 0.408(4) 0.001(3)
O2 O 0.48845(18) 0.51338(15) 0.09854(11)
C1 C 0.4560(2) 0.34098(19) 0.22300(15)
C2 C 0.4813(2) 0.40838(19) 0.12377(16)
C3 C 0.2083(2) 0.47385(19) 0.20163(17)
C4 C 0.2055(2) 0.4940(2) 0.10907(17)
H2 H 0.265678 0.444917 0.081052
C5 C 0.1167(2) 0.5842(2) 0.0561(2)
H3 H 0.117531 0.596273 -0.007185
C6 C 0.0280(3) 0.6558(2) 0.0953(2)
H4 H -0.032420 0.717491 0.059427
C7 C 0.0280(2) 0.6370(2) 0.1863(2)
H5 H -0.033279 0.685665 0.213906
C8 C 0.1165(2) 0.5474(2) 0.23908(19)
H6 H 0.114443 0.535959 0.302345
C9 C 0.3283(2) 0.19265(19) 0.17891(16)
C10 C 0.2091(2) 0.2026(2) 0.18420(19)
H7 H 0.159369 0.234325 0.228074
C11 C 0.1587(3) 0.1685(3) 0.1283(2)
H8 H 0.075884 0.177922 0.133561
C12 C 0.2292(3) 0.1208(3) 0.0653(2)
H9 H 0.195509 0.096236 0.027097
C13 C 0.3485(3) 0.1088(2) 0.0578(2)
H10 H 0.397412 0.076729 0.013828
C14 C 0.3981(2) 0.1434(2) 0.11414(18)
H11 H 0.481001 0.133608 0.108722
C15 C 0.6339(2) 0.1150(2) 0.21901(16)
C16 C 0.6485(2) -0.0102(2) 0.2448(2)
H12 H 0.598355 -0.047944 0.293275
C17 C 0.7340(3) -0.0807(3) 0.2017(2)
H13 H 0.741809 -0.165420 0.220692
C18 C 0.8074(3) -0.0283(3) 0.1316(2)
H14 H 0.865247 -0.076434 0.101497
C19 C 0.7972(3) 0.0943(3) 0.1049(2)
H15 H 0.848699 0.130613 0.056953
C20 C 0.7112(2) 0.1647(2) 0.14832(18)
H16 H 0.704900 0.249183 0.129213
C21 C 0.6845(2) 0.3432(2) 0.26924(16)
C22 C 0.7855(2) 0.2546(2) 0.30011(18)
H17 H 0.780064 0.175609 0.338756
C23 C 0.8956(2) 0.2787(3) 0.2758(2)
H18 H 0.964464 0.216392 0.298313
C24 C 0.9054(3) 0.3928(3) 0.2190(2)
H19 H 0.980592 0.409338 0.202013
C25 C 0.8048(3) 0.4819(3) 0.1875(2)
H20 H 0.810704 0.560510 0.148178
C26 C 0.6946(2) 0.4581(2) 0.21271(19)
H21 H 0.625649 0.520889 0.191126
C27 C 0.4194(2) 0.5643(2) 0.27409(17)
C28 C 0.4808(2) 0.5928(2) 0.32756(19)
H22 H 0.522094 0.528968 0.376774
C29 C 0.4837(3) 0.7107(2) 0.3116(2)
H23 H 0.525499 0.726507 0.350152
C30 C 0.4264(3) 0.8048(2) 0.2402(2)
H24 H 0.430329 0.885454 0.227818
C31 C 0.3628(3) 0.7806(2) 0.1866(2)
H25 H 0.321567 0.845251 0.137681
C32 C 0.3588(2) 0.6623(2) 0.20377(18)
H26 H 0.313783 0.647643 0.166700
B1 B 0.3096(2) 0.3765(2) 0.26476(18)
B2 B 0.3781(2) 0.2290(2) 0.25013(19)
B3 B 0.5325(2) 0.1892(2) 0.27192(18)
B4 B 0.5586(2) 0.3102(2) 0.30098(18)
B5 B 0.4213(2) 0.4248(2) 0.29852(18)
B6 B 0.2947(3) 0.2388(2) 0.35332(19)
H27 H 0.207221 0.216428 0.371058
B7 B 0.4295(3) 0.1245(2) 0.35759(19)
H28 H 0.431933 0.026199 0.378258
B8 B 0.5397(3) 0.1718(2) 0.38792(19)
H29 H 0.615563 0.104486 0.428105
B9 B 0.4717(3) 0.3137(2) 0.40422(19)
H30 H 0.502217 0.339346 0.455934
B10 B 0.3217(3) 0.3548(2) 0.38162(19)
H31 H 0.251800 0.408987 0.418103
B11 B 0.3930(3) 0.2005(2) 0.4392(2)
H32 H 0.371223 0.152366 0.513292
N1 N 0.0932(2) 0.78227(19) 0.42184(16)
C33 C 0.1973(3) 0.6718(3) 0.4287(2)
H33 H 0.177860 0.621811 0.399274
H34 H 0.266134 0.700275 0.392958
C34 C 0.2329(4) 0.5926(3) 0.5229(3)
H35 H 0.296836 0.521785 0.519607
H36 H 0.165131 0.565604 0.560021
H37 H 0.260346 0.638324 0.550914
C35 C -0.0185(3) 0.7477(4) 0.4698(3)
H38 H -0.080481 0.822638 0.469212
H39 H -0.003571 0.697806 0.534620
C36 C -0.0657(4) 0.6771(4) 0.4278(3)
H40 H -0.079268 0.724643 0.363133
H41 H -0.140176 0.662196 0.460893
H42 H -0.007884 0.599404 0.432535
C37 C 0.0783(3) 0.8488(3) 0.3212(2)
H43 H 0.066564 0.793066 0.293482
H44 H 0.151741 0.872724 0.291943
C38 C -0.0253(4) 0.9621(3) 0.3006(4)
H45 H -0.034305 0.997285 0.234390
H46 H -0.010391 1.021586 0.321943
H47 H -0.097815 0.940020 0.332306
C39 C 0.1191(3) 0.8624(3) 0.4657(2)
H48 H 0.048917 0.931905 0.461814
H49 H 0.129858 0.815236 0.531551
C40 C 0.2249(3) 0.9113(3) 0.4254(3)
H50 H 0.214951 0.960057 0.360453
H51 H 0.295898 0.843686 0.431093
H52 H 0.232981 0.962157 0.458214
loop_
_geom_bond_atom_site_label_1
_geom_bond_atom_site_label_2
_geom_bond_site_symmetry_1
_geom_bond_site_symmetry_2
O1 H1 1_555 1_555
O2 C2 1_555 1_555
C1 C2 1_555 1_555
C2 O1 1_555 1_555
C3 C4 1_555 1_555
C4 H2 1_555 1_555
C5 C4 1_555 1_555
H3 C5 1_555 1_555
C6 C5 1_555 1_555
H4 C6 1_555 1_555
C7 C6 1_555 1_555
H5 C7 1_555 1_555
C8 C3 1_555 1_555
H6 C8 1_555 1_555
C9 C10 1_555 1_555
C10 H7 1_555 1_555
C11 C10 1_555 1_555
H8 C11 1_555 1_555
C12 C11 1_555 1_555
H9 C12 1_555 1_555
C13 C12 1_555 1_555
H10 C13 1_555 1_555
C14 C9 1_555 1_555
H11 C14 1_555 1_555
C15 C16 1_555 1_555
C16 H12 1_555 1_555
C17 C16 1_555 1_555
H13 C17 1_555 1_555
C18 C17 1_555 1_555
H14 C18 1_555 1_555
C19 C18 1_555 1_555
H15 C19 1_555 1_555
C20 C15 1_555 1_555
H16 C20 1_555 1_555
C21 C22 1_555 1_555
C22 H17 1_555 1_555
C23 C22 1_555 1_555
H18 C23 1_555 1_555
C24 C23 1_555 1_555
H19 C24 1_555 1_555
C25 C24 1_555 1_555
H20 C25 1_555 1_555
C26 C21 1_555 1_555
H21 C26 1_555 1_555
C27 C28 1_555 1_555
C28 H22 1_555 1_555
C29 C28 1_555 1_555
H23 C29 1_555 1_555
C30 C29 1_555 1_555
H24 C30 1_555 1_555
C31 C30 1_555 1_555
H25 C31 1_555 1_555
C32 C27 1_555 1_555
H26 C32 1_555 1_555
B1 C1 1_555 1_555
B2 C1 1_555 1_555
B3 C1 1_555 1_555
B4 C1 1_555 1_555
B5 C1 1_555 1_555
B6 B1 1_555 1_555
H27 B6 1_555 1_555
B7 B2 1_555 1_555
H28 B7 1_555 1_555
B8 B3 1_555 1_555
H29 B8 1_555 1_555
B9 B4 1_555 1_555
H30 B9 1_555 1_555
B10 B1 1_555 1_555
H31 B10 1_555 1_555
B11 B6 1_555 1_555
H32 B11 1_555 1_555
N1 C33 1_555 1_555
C33 H33 1_555 1_555
H34 C33 1_555 1_555
C34 C33 1_555 1_555
H35 C34 1_555 1_555
H36 C34 1_555 1_555
H37 C34 1_555 1_555
C35 N1 1_555 1_555
H38 C35 1_555 1_555
H39 C35 1_555 1_555
C36 C35 1_555 1_555
H40 C36 1_555 1_555
H41 C36 1_555 1_555
H42 C36 1_555 1_555
C37 N1 1_555 1_555
H43 C37 1_555 1_555
H44 C37 1_555 1_555
C38 C37 1_555 1_555
H45 C38 1_555 1_555
H46 C38 1_555 1_555
H47 C38 1_555 1_555
C39 N1 1_555 1_555
H48 C39 1_555 1_555
H49 C39 1_555 1_555
C40 C39 1_555 1_555
H50 C40 1_555 1_555
H51 C40 1_555 1_555
H52 C40 1_555 1_555
C3 B1 1_555 1_555
C7 C8 1_555 1_555
C9 B2 1_555 1_555
C13 C14 1_555 1_555
C15 B3 1_555 1_555
C19 C20 1_555 1_555
C21 B4 1_555 1_555
C25 C26 1_555 1_555
C27 B5 1_555 1_555
C31 C32 1_555 1_555
B1 B2 1_555 1_555
B1 B5 1_555 1_555
B2 B3 1_555 1_555
B2 B6 1_555 1_555
B3 B4 1_555 1_555
B3 B7 1_555 1_555
B4 B5 1_555 1_555
B4 B8 1_555 1_555
B5 B9 1_555 1_555
B5 B10 1_555 1_555
B6 B7 1_555 1_555
B6 B10 1_555 1_555
B7 B8 1_555 1_555
B7 B11 1_555 1_555
B8 B9 1_555 1_555
B8 B11 1_555 1_555
B9 B10 1_555 1_555
B9 B11 1_555 1_555
B10 B11 1_555 1_555

#END
