
#######################################################################
#
#                 Cambridge Crystallographic Data Centre
#                                CCDC 
#
#######################################################################
#
# If this CIF has been generated from an entry in the Cambridge 
# Structural Database, then it will include bibliographic, chemical, 
# crystal, experimental, refinement or atomic coordinate data resulting 
# from the CCDC's data processing and validation procedures.
#
#######################################################################

data_AFOFEJ
_chemical_formula_moiety         'C8 H20 N1 1+,C37 H42 B11 O2 1-'
_chemical_name_systematic        
'tetraethylammonium 1-carboxy-2,3,4,5,6-pentakis(4-methylphenyl)-1-carba-closo-dodecaborate'
_symmetry_cell_setting           monoclinic
_symmetry_space_group_name_H-M   'P 21'
_symmetry_Int_Tables_number      4
_space_group_name_Hall           'P 2yb'
loop_
_symmetry_equiv_pos_site_id
_symmetry_equiv_pos_as_xyz
1 x,y,z
2 -x,1/2+y,-z
_cell_length_a                   11.4673(2)
_cell_length_b                   16.6842(3)
_cell_length_c                   12.3236(2)
_cell_angle_alpha                90
_cell_angle_beta                 110.7240(10)
_cell_angle_gamma                90
_cell_volume                     2205.23
_exptl_crystal_colour            colorless
_exptl_crystal_description       plate
_cell_formula_units_Z            2
loop_
_atom_site_label
_atom_site_type_symbol
_atom_site_fract_x
_atom_site_fract_y
_atom_site_fract_z
O1 O 0.51238(13) 0.48272(10) 0.42947(12)
O2 O 0.32019(15) 0.52173(10) 0.38641(13)
H1 H 0.259(4) 0.546(3) 0.329(4)
C1 C 0.38956(17) 0.48866(13) 0.22562(16)
C2 C 0.41382(18) 0.49677(12) 0.35522(16)
C3 C 0.15507(19) 0.58473(13) 0.16489(17)
C4 C 0.0592(2) 0.54845(15) 0.1935(2)
H2 H 0.053366 0.491641 0.192802
C5 C -0.0273(2) 0.59334(15) 0.2229(2)
H3 H -0.090838 0.566658 0.241817
C6 C -0.0226(2) 0.67677(16) 0.2252(2)
C7 C 0.0696(2) 0.71330(14) 0.1937(2)
H4 H 0.073143 0.770158 0.192147
C8 C 0.1564(2) 0.66902(14) 0.1646(2)
H5 H 0.218231 0.696229 0.143924
C9 C -0.1160(3) 0.7252(2) 0.2580(3)
H6 H -0.127650 0.777467 0.219182
H7 H -0.085426 0.733109 0.342202
H8 H -0.195838 0.696657 0.233775
C10 C 0.19012(19) 0.36778(12) 0.18724(19)
C11 C 0.2188(2) 0.34511(14) 0.30292(19)
H9 H 0.290125 0.367684 0.360440
C12 C 0.1468(2) 0.29081(14) 0.3364(2)
H10 H 0.169410 0.277408 0.416172
C13 C 0.0422(2) 0.25553(14) 0.2561(2)
C14 C 0.0149(2) 0.27529(15) 0.1395(2)
H11 H -0.054410 0.250876 0.081834
C15 C 0.0866(2) 0.32949(14) 0.1068(2)
H12 H 0.065270 0.341431 0.026710
C16 C -0.0382(3) 0.19731(18) 0.2916(3)
H13 H -0.122458 0.219388 0.271417
H14 H -0.002350 0.188399 0.375593
H15 H -0.042155 0.146309 0.251057
C17 C 0.49838(19) 0.32265(13) 0.23754(19)
C18 C 0.5585(2) 0.31369(14) 0.3574(2)
H16 H 0.549879 0.354628 0.407591
C19 C 0.6302(2) 0.24701(15) 0.4051(2)
H17 H 0.668828 0.243361 0.486982
C20 C 0.6474(2) 0.18519(14) 0.3364(2)
C21 C 0.5874(2) 0.19278(15) 0.2172(2)
H18 H 0.596421 0.151633 0.167498
C22 C 0.5149(2) 0.25908(14) 0.1696(2)
H19 H 0.474644 0.261714 0.087737
C23 C 0.7258(3) 0.11373(15) 0.3880(2)
H20 H 0.676546 0.075194 0.413842
H21 H 0.798436 0.130518 0.454430
H22 H 0.753728 0.088562 0.329604
C24 C 0.66093(18) 0.49212(13) 0.26755(17)
C25 C 0.7133(2) 0.54838(14) 0.3543(2)
H23 H 0.665877 0.594055 0.359118
C26 C 0.8339(2) 0.53930(15) 0.4345(2)
H24 H 0.866691 0.578702 0.493116
C27 C 0.9067(2) 0.47428(15) 0.4306(2)
C28 C 0.8583(2) 0.41984(14) 0.3419(2)
H25 H 0.907863 0.375777 0.335274
C29 C 0.7375(2) 0.42854(15) 0.2615(2)
H26 H 0.706629 0.390174 0.201123
C30 C 1.0368(3) 0.4627(2) 0.5189(3)
H27 H 1.098424 0.480505 0.485611
H28 H 1.050130 0.405816 0.539511
H29 H 1.046001 0.494189 0.588510
C31 C 0.45839(18) 0.65923(13) 0.21717(18)
C32 C 0.4644(2) 0.68359(13) 0.32776(19)
H30 H 0.431261 0.649402 0.371310
C33 C 0.5172(2) 0.75600(14) 0.37577(19)
H31 H 0.520742 0.769600 0.451724
C34 C 0.5651(2) 0.80909(13) 0.3154(2)
C35 C 0.5555(2) 0.78747(14) 0.2036(2)
H32 H 0.585070 0.823033 0.158931
C36 C 0.5033(2) 0.71463(14) 0.1564(2)
H33 H 0.497917 0.701916 0.079625
C37 C 0.6269(2) 0.88608(14) 0.3692(2)
H34 H 0.713872 0.875487 0.417450
H35 H 0.582928 0.908751 0.417321
H36 H 0.624114 0.924214 0.307837
B1 B 0.2546(2) 0.53546(15) 0.1283(2)
B2 B 0.2696(2) 0.42675(15) 0.1400(2)
B3 B 0.4323(2) 0.40053(15) 0.1700(2)
B4 B 0.5195(2) 0.49250(15) 0.17986(19)
B5 B 0.4109(2) 0.57572(14) 0.1565(2)
B6 B 0.2138(2) 0.47600(16) 0.0020(2)
H37 H 0.114111 0.470148 -0.056802
B7 B 0.3195(2) 0.39524(16) 0.0261(2)
H38 H 0.289066 0.335889 -0.017172
B8 B 0.4702(2) 0.43474(15) 0.0495(2)
H39 H 0.539600 0.401605 0.021388
B9 B 0.4585(2) 0.54029(15) 0.0419(2)
H40 H 0.520542 0.577441 0.009242
B10 B 0.3001(2) 0.56641(16) 0.0120(2)
H41 H 0.257713 0.620905 -0.040166
B11 B 0.3375(2) 0.48035(17) -0.0537(2)
H42 H 0.319474 0.477692 -0.149043
N1 N 0.74026(16) 0.51534(12) 0.79871(16)
C38 C 0.6279(2) 0.55555(14) 0.7096(2)
H43 H 0.578460 0.514019 0.655373
H44 H 0.574943 0.578036 0.750416
C39 C 0.6571(3) 0.62142(18) 0.6396(3)
H45 H 0.702674 0.664336 0.691715
H46 H 0.579204 0.642858 0.584194
H47 H 0.708352 0.599962 0.597442
C40 C 0.8254(2) 0.57689(17) 0.8802(2)
H48 H 0.894538 0.548162 0.939240
H49 H 0.862271 0.610969 0.834935
C41 C 0.7627(3) 0.6303(2) 0.9415(3)
H50 H 0.822826 0.669662 0.988647
H51 H 0.731723 0.597747 0.991778
H52 H 0.692745 0.658280 0.884093
C42 C 0.6877(2) 0.45691(16) 0.8644(2)
H53 H 0.639358 0.487675 0.902738
H54 H 0.628962 0.420460 0.807558
C43 C 0.7832(3) 0.4067(2) 0.9551(3)
H55 H 0.843033 0.441915 1.011334
H56 H 0.827369 0.372555 0.917520
H57 H 0.741152 0.373015 0.995115
C44 C 0.8187(2) 0.47261(15) 0.7401(2)
H58 H 0.849048 0.512858 0.697357
H59 H 0.892578 0.449542 0.801062
C45 C 0.7540(3) 0.40657(18) 0.6569(2)
H60 H 0.728507 0.364255 0.699010
H61 H 0.811308 0.384258 0.621695
H62 H 0.680289 0.428299 0.596045
loop_
_geom_bond_atom_site_label_1
_geom_bond_atom_site_label_2
_geom_bond_site_symmetry_1
_geom_bond_site_symmetry_2
O1 C2 1_555 1_555
O2 H1 1_555 1_555
C1 C2 1_555 1_555
C2 O2 1_555 1_555
C3 C4 1_555 1_555
C4 H2 1_555 1_555
C5 C4 1_555 1_555
H3 C5 1_555 1_555
C6 C5 1_555 1_555
C7 C6 1_555 1_555
H4 C7 1_555 1_555
C8 C3 1_555 1_555
H5 C8 1_555 1_555
C9 C6 1_555 1_555
H6 C9 1_555 1_555
H7 C9 1_555 1_555
H8 C9 1_555 1_555
C10 C11 1_555 1_555
C11 H9 1_555 1_555
C12 C11 1_555 1_555
H10 C12 1_555 1_555
C13 C12 1_555 1_555
C14 C13 1_555 1_555
H11 C14 1_555 1_555
C15 C10 1_555 1_555
H12 C15 1_555 1_555
C16 C13 1_555 1_555
H13 C16 1_555 1_555
H14 C16 1_555 1_555
H15 C16 1_555 1_555
C17 C18 1_555 1_555
C18 H16 1_555 1_555
C19 C18 1_555 1_555
H17 C19 1_555 1_555
C20 C19 1_555 1_555
C21 C20 1_555 1_555
H18 C21 1_555 1_555
C22 C17 1_555 1_555
H19 C22 1_555 1_555
C23 C20 1_555 1_555
H20 C23 1_555 1_555
H21 C23 1_555 1_555
H22 C23 1_555 1_555
C24 C25 1_555 1_555
C25 H23 1_555 1_555
C26 C25 1_555 1_555
H24 C26 1_555 1_555
C27 C26 1_555 1_555
C28 C27 1_555 1_555
H25 C28 1_555 1_555
C29 C24 1_555 1_555
H26 C29 1_555 1_555
C30 C27 1_555 1_555
H27 C30 1_555 1_555
H28 C30 1_555 1_555
H29 C30 1_555 1_555
C31 C32 1_555 1_555
C32 H30 1_555 1_555
C33 C32 1_555 1_555
H31 C33 1_555 1_555
C34 C33 1_555 1_555
C35 C34 1_555 1_555
H32 C35 1_555 1_555
C36 C31 1_555 1_555
H33 C36 1_555 1_555
C37 C34 1_555 1_555
H34 C37 1_555 1_555
H35 C37 1_555 1_555
H36 C37 1_555 1_555
B1 C1 1_555 1_555
B2 C1 1_555 1_555
B3 C1 1_555 1_555
B4 C1 1_555 1_555
B5 C1 1_555 1_555
B6 B1 1_555 1_555
H37 B6 1_555 1_555
B7 B2 1_555 1_555
H38 B7 1_555 1_555
B8 B3 1_555 1_555
H39 B8 1_555 1_555
B9 B4 1_555 1_555
H40 B9 1_555 1_555
B10 B1 1_555 1_555
H41 B10 1_555 1_555
B11 B6 1_555 1_555
H42 B11 1_555 1_555
N1 C38 1_555 1_555
C38 H43 1_555 1_555
H44 C38 1_555 1_555
C39 C38 1_555 1_555
H45 C39 1_555 1_555
H46 C39 1_555 1_555
H47 C39 1_555 1_555
C40 N1 1_555 1_555
H48 C40 1_555 1_555
H49 C40 1_555 1_555
C41 C40 1_555 1_555
H50 C41 1_555 1_555
H51 C41 1_555 1_555
H52 C41 1_555 1_555
C42 N1 1_555 1_555
H53 C42 1_555 1_555
H54 C42 1_555 1_555
C43 C42 1_555 1_555
H55 C43 1_555 1_555
H56 C43 1_555 1_555
H57 C43 1_555 1_555
C44 N1 1_555 1_555
H58 C44 1_555 1_555
H59 C44 1_555 1_555
C45 C44 1_555 1_555
H60 C45 1_555 1_555
H61 C45 1_555 1_555
H62 C45 1_555 1_555
C3 B1 1_555 1_555
C7 C8 1_555 1_555
C10 B2 1_555 1_555
C14 C15 1_555 1_555
C17 B3 1_555 1_555
C21 C22 1_555 1_555
C24 B4 1_555 1_555
C28 C29 1_555 1_555
C31 B5 1_555 1_555
C35 C36 1_555 1_555
B1 B2 1_555 1_555
B1 B5 1_555 1_555
B2 B3 1_555 1_555
B2 B6 1_555 1_555
B3 B4 1_555 1_555
B3 B7 1_555 1_555
B4 B5 1_555 1_555
B4 B8 1_555 1_555
B5 B9 1_555 1_555
B5 B10 1_555 1_555
B6 B7 1_555 1_555
B6 B10 1_555 1_555
B7 B8 1_555 1_555
B7 B11 1_555 1_555
B8 B9 1_555 1_555
B8 B11 1_555 1_555
B9 B10 1_555 1_555
B9 B11 1_555 1_555
B10 B11 1_555 1_555

#END
