
#######################################################################
#
#                 Cambridge Crystallographic Data Centre
#                                CCDC 
#
#######################################################################
#
# If this CIF has been generated from an entry in the Cambridge 
# Structural Database, then it will include bibliographic, chemical, 
# crystal, experimental, refinement or atomic coordinate data resulting 
# from the CCDC's data processing and validation procedures.
#
#######################################################################

data_AFOGOU
_chemical_formula_moiety         
'3(C1 H6 N3 1+),C24 H15 O9 S3 3-,3.7(C9 H14 O1),5.4(C1 H4 O1)'
_chemical_name_systematic        
'tris(Guanidinium) 1,3,5-tris(4-sulfonatophenyl)benzene tetrakis(isophorone) clathrate methanol solvate'
_symmetry_cell_setting           monoclinic
_symmetry_space_group_name_H-M   'P 21'
_symmetry_Int_Tables_number      4
_space_group_name_Hall           'P 2yb'
loop_
_symmetry_equiv_pos_site_id
_symmetry_equiv_pos_as_xyz
1 x,y,z
2 -x,1/2+y,-z
_cell_length_a                   23.127(4)
_cell_length_b                   7.4851(12)
_cell_length_c                   24.166(4)
_cell_angle_alpha                90
_cell_angle_beta                 117.648(2)
_cell_angle_gamma                90
_cell_volume                     3705.65
_exptl_crystal_colour            colorless
_exptl_crystal_description       needle
_cell_formula_units_Z            2
loop_
_atom_site_label
_atom_site_type_symbol
_atom_site_fract_x
_atom_site_fract_y
_atom_site_fract_z
N1 N 0.1628(5) 0.0765(18) 0.3083(5)
H16 H 0.151672 0.176805 0.319783
H17 H 0.153371 -0.026748 0.319549
N2 N 0.2082(6) 0.2324(16) 0.2571(6)
H18 H 0.197358 0.333667 0.268229
H19 H 0.228903 0.233334 0.234309
N3 N 0.2095(6) -0.0765(13) 0.2558(6)
H20 H 0.229465 -0.075532 0.232423
H21 H 0.199771 -0.178831 0.267410
C25 C 0.1938(5) 0.081(2) 0.2742(5)
N4 N 0.7315(5) 0.0771(19) 0.8733(4)
H22 H 0.722475 0.177913 0.852229
H23 H 0.722324 -0.025682 0.853361
N5 N 0.7726(7) 0.2271(15) 0.9654(6)
H24 H 0.764153 0.329907 0.945544
H25 H 0.790728 0.225102 1.006506
N6 N 0.7730(7) -0.0795(15) 0.9656(6)
H26 H 0.792025 -0.081341 1.006729
H27 H 0.763412 -0.180456 0.944553
C26 C 0.7585(6) 0.080(2) 0.9346(5)
N7 N 0.1162(5) 0.0698(18) 0.8472(4)
H28 H 0.137823 -0.030809 0.861019
H29 H 0.135346 0.172494 0.862827
N8 N 0.0247(6) 0.2239(16) 0.7815(6)
H30 H 0.045092 0.325606 0.796572
H31 H -0.016077 0.224194 0.752015
N9 N 0.0258(6) -0.0824(14) 0.7792(6)
H32 H 0.046165 -0.185145 0.792073
H33 H -0.015000 -0.080055 0.749745
C27 C 0.0562(6) 0.067(2) 0.8038(5)
O10 O 0.5473(5) 0.9552(15) 0.4541(5)
C28 C 0.4939(8) 0.890(2) 0.4416(7)
C29 C 0.4587(7) 0.783(2) 0.3856(7)
H34 H 0.477533 0.759322 0.358748
C30 C 0.3994(8) 0.7167(19) 0.3717(7)
C31 C 0.3664(7) 0.7515(19) 0.4090(7)
H35 H 0.372759 0.647068 0.436370
H36 H 0.319037 0.762195 0.380587
C32 C 0.3885(7) 0.9158(17) 0.4489(7)
C33 C 0.4638(6) 0.910(2) 0.4845(7)
H37 H 0.480115 1.021327 0.508936
H38 H 0.477631 0.808650 0.514231
C34 C 0.3653(8) 0.594(3) 0.3150(7)
H39 H 0.322865 0.557312 0.311037
H40 H 0.358775 0.658445 0.277211
H41 H 0.392331 0.488352 0.320407
C35 C 0.3647(8) 0.912(2) 0.4986(8)
H42 H 0.379281 0.801577 0.522844
H43 H 0.382733 1.015054 0.526560
H44 H 0.316927 0.918011 0.478105
C36 C 0.3664(6) 1.085(3) 0.4117(7)
H45 H 0.382010 1.187937 0.439893
H46 H 0.384015 1.090391 0.381880
H47 H 0.318558 1.087215 0.388939
O11 O -0.0966(5) -0.0033(18) 0.4296(5)
C37 C -0.0604(9) 0.115(3) 0.4255(8)
C38 C -0.0881(9) 0.286(3) 0.3919(8)
H48 H -0.133389 0.309153 0.376362
C39 C -0.0516(8) 0.404(2) 0.3834(8)
C40 C 0.0219(7) 0.3825(18) 0.4081(7)
H49 H 0.045055 0.453296 0.446836
H50 H 0.034309 0.430562 0.376861
C41 C 0.0443(8) 0.183(2) 0.4220(7)
C42 C 0.0121(6) 0.094(3) 0.4584(6)
H51 H 0.023183 -0.034412 0.463588
H52 H 0.029859 0.148433 0.500468
C43 C -0.0773(9) 0.576(3) 0.3501(8)
H53 H -0.041614 0.644253 0.349115
H54 H -0.110897 0.552130 0.307320
H55 H -0.096351 0.645579 0.372051
C44 C 0.1181(7) 0.179(2) 0.4602(7)
H56 H 0.137897 0.235908 0.436501
H57 H 0.131272 0.243239 0.499503
H58 H 0.132861 0.054571 0.469086
C45 C 0.0228(6) 0.087(2) 0.3590(6)
H59 H -0.024918 0.090849 0.334820
H60 H 0.042217 0.146546 0.335500
H61 H 0.037307 -0.037690 0.366662
O12 O 0.4549(9) 0.445(3) 0.9102(9)
C46 C 0.4316(13) 0.394(4) 0.9467(12)
C47 C 0.3776(13) 0.267(4) 0.9260(12)
H62 H 0.355151 0.229475 0.883741
C48 C 0.3608(14) 0.207(4) 0.9683(12)
C49 C 0.3916(13) 0.252(4) 1.0333(11)
H63 H 0.416623 0.146737 1.056996
H64 H 0.356777 0.273629 1.045412
C50 C 0.4365(12) 0.410(4) 1.0544(12)
C51 C 0.4754(12) 0.405(4) 1.0169(11)
H65 H 0.502540 0.514406 1.026352
H66 H 0.505173 0.300994 1.030467
C52 C 0.3050(13) 0.075(5) 0.9503(14)
H67 H 0.299699 0.045820 0.987198
H68 H 0.264578 0.129111 0.918372
H69 H 0.314531 -0.033732 0.933617
C53 C 0.4878(15) 0.399(5) 1.1231(12)
H70 H 0.511445 0.285639 1.130736
H71 H 0.518506 0.498542 1.132883
H72 H 0.466152 0.406130 1.149587
C54 C 0.4011(13) 0.583(4) 1.0438(13)
H73 H 0.432691 0.681310 1.058422
H74 H 0.371610 0.597828 0.999117
H75 H 0.375751 0.583781 1.066941
O13 O 0.1279(15) 0.086(7) 0.9898(15)
C55 C 0.0765(18) 0.075(10) 0.993(2)
C56 C 0.0745(19) 0.032(8) 1.0504(18)
H76 H 0.113518 0.008652 1.087666
C57 C 0.015(2) 0.026(7) 1.0495(18)
C58 C -0.0429(19) 0.096(7) 0.9958(17)
H77 H -0.043309 0.228181 0.998923
H78 H -0.082534 0.049842 0.996628
C59 C -0.0447(17) 0.047(6) 0.9353(16)
C60 C 0.0160(17) 0.140(7) 0.9371(19)
H79 H 0.019020 0.112519 0.898405
H80 H 0.012019 0.271099 0.939567
C61 C 0.019(2) 0.129(8) 1.1072(19)
H81 H -0.023014 0.125749 1.107046
H82 H 0.052505 0.073388 1.145471
H83 H 0.031568 0.253669 1.105313
C62 C -0.1029(19) 0.117(7) 0.8770(18)
H84 H -0.099730 0.076985 0.839867
H85 H -0.143338 0.070388 0.875407
H86 H -0.103293 0.247424 0.878152
C63 C -0.037(2) -0.151(6) 0.934(2)
H87 H -0.037770 -0.185897 0.894836
H88 H 0.005267 -0.185771 0.969214
H89 H -0.072210 -0.210350 0.938495
S1 S 0.14934(12) 0.5766(5) 0.33142(12)
S2 S 0.70072(13) 0.5736(5) 0.83468(12)
S3 S 0.15623(14) 0.5700(5) 0.86233(12)
O1 O 0.1084(4) 0.4110(10) 0.3131(4)
O2 O 0.1942(3) 0.5768(13) 0.3056(3)
O3 O 0.1092(4) 0.7346(10) 0.3160(4)
O4 O 0.7227(4) 0.4098(10) 0.8150(4)
O5 O 0.7216(3) 0.5757(14) 0.9013(3)
O6 O 0.7181(5) 0.7332(11) 0.8125(4)
O7 O 0.1741(5) 0.4043(12) 0.9025(4)
O8 O 0.0872(3) 0.5718(13) 0.8171(3)
O9 O 0.1776(5) 0.7285(11) 0.8990(4)
C1 C 0.3030(5) 0.5362(16) 0.6109(5)
C2 C 0.3711(7) 0.5359(16) 0.6418(6)
H1 H 0.393946 0.539693 0.617753
C3 C 0.4064(6) 0.5305(14) 0.7056(6)
C4 C 0.3725(6) 0.5343(17) 0.7411(6)
H2 H 0.396570 0.540100 0.785302
C5 C 0.3057(6) 0.5298(16) 0.7136(6)
C6 C 0.2711(6) 0.5306(16) 0.6477(6)
H3 H 0.224739 0.527223 0.627906
C7 C 0.2659(6) 0.5442(19) 0.5433(6)
C8 C 0.2088(6) 0.6440(18) 0.5139(6)
H4 H 0.193778 0.705590 0.539136
C9 C 0.1729(6) 0.6580(17) 0.4501(6)
H5 H 0.133630 0.725281 0.431727
C10 C 0.1961(5) 0.570(2) 0.4123(4)
C11 C 0.2522(6) 0.4707(15) 0.4400(6)
H6 H 0.267338 0.408905 0.414823
C12 C 0.2873(6) 0.4606(17) 0.5050(6)
H7 H 0.326969 0.394684 0.523448
C13 C 0.4799(6) 0.540(2) 0.7381(6)
C14 C 0.5122(7) 0.6319(19) 0.7114(7)
H8 H 0.488356 0.685631 0.671463
C15 C 0.5800(7) 0.6457(19) 0.7430(7)
H9 H 0.601834 0.715054 0.725469
C16 C 0.6146(5) 0.564(2) 0.7970(5)
C17 C 0.5835(7) 0.466(2) 0.8241(7)
H10 H 0.608525 0.404847 0.862433
C18 C 0.5165(7) 0.456(2) 0.7953(7)
H11 H 0.495060 0.392063 0.814436
C19 C 0.2690(7) 0.5363(19) 0.7499(6)
C20 C 0.2942(7) 0.6307(18) 0.8073(6)
H12 H 0.335393 0.688524 0.822717
C21 C 0.2599(8) 0.640(2) 0.8410(6)
H13 H 0.278759 0.698909 0.880293
C22 C 0.1990(6) 0.565(2) 0.8192(5)
C23 C 0.1757(7) 0.469(2) 0.7646(7)
H14 H 0.135979 0.405110 0.750604
C24 C 0.2095(7) 0.465(2) 0.7291(7)
H15 H 0.189556 0.409645 0.689140
loop_
_geom_bond_atom_site_label_1
_geom_bond_atom_site_label_2
_geom_bond_site_symmetry_1
_geom_bond_site_symmetry_2
S1 O1 1_555 1_555
S2 O4 1_555 1_555
S3 O7 1_555 1_555
O2 S1 1_555 1_555
O3 S1 1_555 1_555
O5 S2 1_555 1_555
O6 S2 1_555 1_555
O8 S3 1_555 1_555
O9 S3 1_555 1_555
C1 C2 1_555 1_555
C2 H1 1_555 1_555
C3 C2 1_555 1_555
C4 C3 1_555 1_555
H2 C4 1_555 1_555
C5 C4 1_555 1_555
C6 C1 1_555 1_555
H3 C6 1_555 1_555
C7 C1 1_555 1_555
C8 C7 1_555 1_555
H4 C8 1_555 1_555
C9 C8 1_555 1_555
H5 C9 1_555 1_555
C10 S1 1_555 1_555
C11 C10 1_555 1_555
H6 C11 1_555 1_555
C12 C7 1_555 1_555
H7 C12 1_555 1_555
C13 C3 1_555 1_555
C14 C13 1_555 1_555
H8 C14 1_555 1_555
C15 C14 1_555 1_555
H9 C15 1_555 1_555
C16 S2 1_555 1_555
C17 C16 1_555 1_555
H10 C17 1_555 1_555
C18 C13 1_555 1_555
H11 C18 1_555 1_555
C19 C5 1_555 1_555
C20 C19 1_555 1_555
H12 C20 1_555 1_555
C21 C20 1_555 1_555
H13 C21 1_555 1_555
C22 S3 1_555 1_555
C23 C22 1_555 1_555
H14 C23 1_555 1_555
C24 C19 1_555 1_555
H15 C24 1_555 1_555
N1 H16 1_555 1_555
H17 N1 1_555 1_555
N2 H18 1_555 1_555
H19 N2 1_555 1_555
N3 H20 1_555 1_555
H21 N3 1_555 1_555
C25 N1 1_555 1_555
N4 H22 1_555 1_555
H23 N4 1_555 1_555
N5 H24 1_555 1_555
H25 N5 1_555 1_555
N6 H26 1_555 1_555
H27 N6 1_555 1_555
C26 N4 1_555 1_555
N7 H28 1_555 1_555
H29 N7 1_555 1_555
N8 H30 1_555 1_555
H31 N8 1_555 1_555
N9 H32 1_555 1_555
H33 N9 1_555 1_555
C27 N7 1_555 1_555
O10 C28 1_555 1_555
C28 C29 1_555 1_555
C29 H34 1_555 1_555
C30 C29 1_555 1_555
C31 C30 1_555 1_555
H35 C31 1_555 1_555
H36 C31 1_555 1_555
C32 C31 1_555 1_555
C33 C28 1_555 1_555
H37 C33 1_555 1_555
H38 C33 1_555 1_555
C34 C30 1_555 1_555
H39 C34 1_555 1_555
H40 C34 1_555 1_555
H41 C34 1_555 1_555
C35 C32 1_555 1_555
H42 C35 1_555 1_555
H43 C35 1_555 1_555
H44 C35 1_555 1_555
C36 C32 1_555 1_555
H45 C36 1_555 1_555
H46 C36 1_555 1_555
H47 C36 1_555 1_555
O11 C37 1_555 1_555
C37 C38 1_555 1_555
C38 H48 1_555 1_555
C39 C38 1_555 1_555
C40 C39 1_555 1_555
H49 C40 1_555 1_555
H50 C40 1_555 1_555
C41 C40 1_555 1_555
C42 C37 1_555 1_555
H51 C42 1_555 1_555
H52 C42 1_555 1_555
C43 C39 1_555 1_555
H53 C43 1_555 1_555
H54 C43 1_555 1_555
H55 C43 1_555 1_555
C44 C41 1_555 1_555
H56 C44 1_555 1_555
H57 C44 1_555 1_555
H58 C44 1_555 1_555
C45 C41 1_555 1_555
H59 C45 1_555 1_555
H60 C45 1_555 1_555
H61 C45 1_555 1_555
O12 C46 1_555 1_555
C46 C47 1_555 1_555
C47 H62 1_555 1_555
C48 C47 1_555 1_555
C49 C48 1_555 1_555
H63 C49 1_555 1_555
H64 C49 1_555 1_555
C50 C49 1_555 1_555
C51 C46 1_555 1_555
H65 C51 1_555 1_555
H66 C51 1_555 1_555
C52 C48 1_555 1_555
H67 C52 1_555 1_555
H68 C52 1_555 1_555
H69 C52 1_555 1_555
C53 C50 1_555 1_555
H70 C53 1_555 1_555
H71 C53 1_555 1_555
H72 C53 1_555 1_555
C54 C50 1_555 1_555
H73 C54 1_555 1_555
H74 C54 1_555 1_555
H75 C54 1_555 1_555
O13 C55 1_555 1_555
C55 C56 1_555 1_555
C56 H76 1_555 1_555
C57 C56 1_555 1_555
C58 C57 1_555 1_555
H77 C58 1_555 1_555
H78 C58 1_555 1_555
C59 C58 1_555 1_555
C60 C55 1_555 1_555
H79 C60 1_555 1_555
H80 C60 1_555 1_555
C61 C57 1_555 1_555
H81 C61 1_555 1_555
H82 C61 1_555 1_555
H83 C61 1_555 1_555
C62 C59 1_555 1_555
H84 C62 1_555 1_555
H85 C62 1_555 1_555
H86 C62 1_555 1_555
C63 C59 1_555 1_555
H87 C63 1_555 1_555
H88 C63 1_555 1_555
H89 C63 1_555 1_555
C5 C6 1_555 1_555
C9 C10 1_555 1_555
C11 C12 1_555 1_555
C15 C16 1_555 1_555
C17 C18 1_555 1_555
C21 C22 1_555 1_555
C23 C24 1_555 1_555
N2 C25 1_555 1_555
N3 C25 1_555 1_555
N5 C26 1_555 1_555
N6 C26 1_555 1_555
N8 C27 1_555 1_555
N9 C27 1_555 1_555
C32 C33 1_555 1_555
C41 C42 1_555 1_555
C50 C51 1_555 1_555
C59 C60 1_555 1_555

#END
