
#######################################################################
#
#                 Cambridge Crystallographic Data Centre
#                                CCDC 
#
#######################################################################
#
# If this CIF has been generated from an entry in the Cambridge 
# Structural Database, then it will include bibliographic, chemical, 
# crystal, experimental, refinement or atomic coordinate data resulting 
# from the CCDC's data processing and validation procedures.
#
#######################################################################

data_AFOGOU02
_chemical_formula_moiety         
'3(C1 H6 N3 1+),C24 H15 O9 S3 3-,3.7(C9 H14 O1),5.4(C1 H4 O1)'
_chemical_name_systematic        
'tris(Guanidinium) 1,3,5-tris(4-sulfonatophenyl)benzene tetrakis(isophorone) clathrate methanol solvate'
_symmetry_cell_setting           monoclinic
_symmetry_space_group_name_H-M   'P 21'
_symmetry_Int_Tables_number      4
_space_group_name_Hall           'P 2yb'
loop_
_symmetry_equiv_pos_site_id
_symmetry_equiv_pos_as_xyz
1 x,y,z
2 -x,1/2+y,-z
_cell_length_a                   23.083(6)
_cell_length_b                   7.4875(19)
_cell_length_c                   24.195(6)
_cell_angle_alpha                90
_cell_angle_beta                 117.476(4)
_cell_angle_gamma                90
_cell_volume                     3710.04
_exptl_crystal_colour            colorless
_exptl_crystal_description       needle
_cell_formula_units_Z            2
_exptl_crystal_preparation       
'In situ linear birefringence measurements of the single crystal-single crystal transformation were analysed with polarized microscopy during exposure to the vapour of a 20% v/v hexafluorobenzene/hexane solution'
loop_
_atom_site_label
_atom_site_type_symbol
_atom_site_fract_x
_atom_site_fract_y
_atom_site_fract_z
N1 N 0.1637(4) 0.0760(16) 0.3090(4)
H16 H 0.153391 0.175735 0.321635
H17 H 0.153759 -0.027701 0.319563
N2 N 0.2100(5) 0.2339(13) 0.2574(5)
H18 H 0.200255 0.335536 0.269369
H19 H 0.230270 0.234060 0.234239
N3 N 0.2081(5) -0.0744(13) 0.2550(5)
H20 H 0.227758 -0.074932 0.231320
H21 H 0.197529 -0.175905 0.266362
C25 C 0.1943(5) 0.082(2) 0.2741(4)
N4 N 0.7330(4) 0.0739(17) 0.8747(3)
H22 H 0.722247 0.175312 0.853959
H23 H 0.724562 -0.028148 0.854420
N5 N 0.7746(5) 0.2259(14) 0.9665(5)
H24 H 0.764065 0.328099 0.946309
H25 H 0.793896 0.224988 1.007533
N6 N 0.7766(5) -0.0788(14) 0.9669(5)
H26 H 0.767194 -0.180838 0.946613
H27 H 0.795840 -0.078179 1.007920
C26 C 0.7616(5) 0.075(2) 0.9356(4)
N7 N 0.1150(4) 0.0727(16) 0.8461(3)
H28 H 0.136972 -0.027177 0.860397
H29 H 0.133864 0.176099 0.861130
N8 N 0.0232(5) 0.2235(13) 0.7807(5)
H30 H 0.043293 0.325405 0.795746
H31 H -0.017627 0.223279 0.751300
N9 N 0.0241(5) -0.0818(14) 0.7784(5)
H32 H 0.044252 -0.184742 0.791361
H33 H -0.016714 -0.079274 0.749023
C27 C 0.0548(4) 0.068(2) 0.8027(4)
O10 O 0.5471(4) 0.9578(14) 0.4534(5)
C28 C 0.4958(7) 0.8900(18) 0.4419(6)
C29 C 0.4594(6) 0.7822(19) 0.3861(6)
H34 H 0.478804 0.756796 0.359840
C30 C 0.3993(6) 0.7174(17) 0.3706(6)
C31 C 0.3658(6) 0.7530(16) 0.4082(6)
H35 H 0.371853 0.648418 0.435343
H36 H 0.318487 0.764414 0.379855
C32 C 0.3883(5) 0.9192(16) 0.4489(6)
C33 C 0.4629(5) 0.9139(18) 0.4830(6)
H37 H 0.478917 1.026392 0.506683
H38 H 0.476697 0.814765 0.513485
C34 C 0.3639(7) 0.593(3) 0.3134(6)
H39 H 0.321078 0.559596 0.309431
H40 H 0.358109 0.655548 0.275624
H41 H 0.390092 0.485127 0.319039
C35 C 0.3638(7) 0.919(2) 0.4976(7)
H42 H 0.377342 0.808614 0.521897
H43 H 0.382233 1.021879 0.525471
H44 H 0.316033 0.927494 0.476787
C36 C 0.3676(6) 1.088(2) 0.4120(6)
H45 H 0.383205 1.190642 0.440308
H46 H 0.386116 1.092509 0.382880
H47 H 0.319830 1.091749 0.388730
O11 O -0.0982(5) -0.0040(16) 0.4282(5)
C37 C -0.0610(8) 0.116(3) 0.4268(7)
C38 C -0.0867(7) 0.283(2) 0.3921(7)
H48 H -0.132296 0.303775 0.375093
C39 C -0.0507(7) 0.406(2) 0.3828(6)
C40 C 0.0211(6) 0.3827(18) 0.4075(6)
H49 H 0.043591 0.453704 0.446155
H50 H 0.033851 0.432092 0.376729
C41 C 0.0459(7) 0.1849(19) 0.4220(7)
C42 C 0.0125(5) 0.095(3) 0.4582(5)
H51 H 0.023109 -0.034482 0.462737
H52 H 0.030880 0.146538 0.500588
C43 C -0.0761(8) 0.581(3) 0.3505(7)
H53 H -0.040259 0.648432 0.349444
H54 H -0.110022 0.558843 0.307808
H55 H -0.094605 0.649542 0.373049
C44 C 0.1176(6) 0.178(2) 0.4599(6)
H56 H 0.130306 0.243271 0.498980
H57 H 0.131708 0.053603 0.469128
H58 H 0.138278 0.233540 0.436759
C45 C 0.0243(5) 0.085(2) 0.3608(5)
H59 H -0.023289 0.090973 0.336433
H60 H 0.044529 0.139628 0.337080
H61 H 0.037960 -0.040309 0.369448
O12 O 0.4553(9) 0.445(3) 0.9117(8)
C46 C 0.4337(12) 0.390(4) 0.9472(11)
C47 C 0.3792(11) 0.272(4) 0.9283(11)
H62 H 0.355060 0.241374 0.885519
C48 C 0.3606(12) 0.203(3) 0.9701(11)
C49 C 0.3927(12) 0.243(3) 1.0353(10)
H63 H 0.419907 0.139221 1.057643
H64 H 0.358795 0.256715 1.049273
C50 C 0.4357(11) 0.408(3) 1.0556(11)
C51 C 0.4732(11) 0.408(4) 1.0179(10)
H65 H 0.504990 0.308269 1.033094
H66 H 0.498583 0.520131 1.026909
C52 C 0.3021(12) 0.073(4) 0.9484(13)
H67 H 0.295934 0.036934 0.984213
H68 H 0.262602 0.132756 0.917582
H69 H 0.310774 -0.032839 0.929500
C53 C 0.4884(15) 0.407(5) 1.1232(12)
H70 H 0.511950 0.293159 1.132405
H71 H 0.519021 0.505294 1.130096
H72 H 0.468124 0.421797 1.150718
C54 C 0.4007(13) 0.585(4) 1.0433(13)
H73 H 0.432779 0.681821 1.058106
H74 H 0.372314 0.598287 0.998515
H75 H 0.374265 0.588879 1.065433
O13 O 0.1279(11) 0.080(5) 0.9881(10)
C55 C 0.0798(13) 0.068(8) 0.9937(14)
C56 C 0.0756(14) 0.040(6) 1.0499(13)
H76 H 0.114356 0.034753 1.088447
C57 C 0.0138(15) 0.019(5) 1.0485(14)
C58 C -0.0465(13) 0.054(6) 0.9930(12)
H77 H -0.058921 0.180070 0.994931
H78 H -0.080781 -0.021894 0.994540
C59 C -0.0481(14) 0.027(5) 0.9313(13)
C60 C 0.0156(12) 0.104(6) 0.9380(13)
H79 H 0.019942 0.065550 0.900974
H80 H 0.010070 0.235810 0.934862
C61 C 0.0144(17) 0.142(6) 1.1025(15)
C62 C -0.1040(14) 0.116(5) 0.8758(14)
H81 H -0.100329 0.089114 0.837854
H82 H -0.145714 0.070717 0.871418
H83 H -0.101834 0.245448 0.882277
C63 C -0.0479(17) -0.169(4) 0.9146(17)
S1 S 0.15055(11) 0.5759(5) 0.33259(11)
S2 S 0.70134(11) 0.5732(5) 0.83574(11)
S3 S 0.15454(12) 0.5700(5) 0.86174(10)
O1 O 0.1106(3) 0.4134(10) 0.3149(3)
O2 O 0.1966(3) 0.5761(12) 0.3070(3)
O3 O 0.1109(4) 0.7350(9) 0.3178(4)
O4 O 0.7239(4) 0.4110(10) 0.8166(4)
O5 O 0.7217(3) 0.5737(12) 0.9020(3)
O6 O 0.7189(4) 0.7321(10) 0.8133(4)
O7 O 0.1717(4) 0.4073(10) 0.9008(4)
O8 O 0.0861(3) 0.5733(12) 0.8163(2)
O9 O 0.1754(4) 0.7307(10) 0.8984(3)
C1 C 0.3037(5) 0.543(2) 0.6113(5)
C2 C 0.3713(5) 0.5391(19) 0.6421(5)
H1 H 0.394308 0.538209 0.618138
C3 C 0.4075(5) 0.5367(17) 0.7078(5)
C4 C 0.3729(5) 0.5349(17) 0.7417(5)
H2 H 0.396400 0.531581 0.785872
C5 C 0.3053(5) 0.5377(19) 0.7135(5)
C6 C 0.2716(5) 0.5350(17) 0.6490(5)
H3 H 0.225344 0.527667 0.629330
C7 C 0.2668(5) 0.548(2) 0.5441(5)
C8 C 0.2099(5) 0.6448(16) 0.5148(6)
H4 H 0.194407 0.706579 0.539677
C9 C 0.1743(5) 0.6557(16) 0.4510(6)
H5 H 0.134564 0.721071 0.432524
C10 C 0.1969(4) 0.5711(18) 0.4144(4)
C11 C 0.2532(5) 0.4706(16) 0.4413(5)
H6 H 0.267972 0.408581 0.415888
C12 C 0.2888(5) 0.4607(16) 0.5070(5)
H7 H 0.328112 0.393423 0.525814
C13 C 0.4789(5) 0.5421(19) 0.7380(5)
C14 C 0.5136(6) 0.634(2) 0.7124(6)
H8 H 0.490276 0.688865 0.672747
C15 C 0.5800(6) 0.6462(17) 0.7425(6)
H9 H 0.601742 0.713536 0.724314
C16 C 0.6155(4) 0.564(2) 0.7978(4)
C17 C 0.5839(6) 0.463(2) 0.8239(6)
H10 H 0.608695 0.398244 0.861292
C18 C 0.5161(7) 0.456(2) 0.7952(7)
H11 H 0.494727 0.392609 0.814582
C19 C 0.2688(5) 0.543(2) 0.7505(5)
C20 C 0.2935(6) 0.6254(18) 0.8083(6)
H12 H 0.336052 0.675554 0.825304
C21 C 0.2595(7) 0.639(2) 0.8421(6)
H13 H 0.277362 0.701207 0.880586
C22 C 0.1991(5) 0.559(2) 0.8192(4)
C23 C 0.1740(6) 0.469(2) 0.7641(6)
H14 H 0.132988 0.410610 0.748959
C24 C 0.2091(6) 0.462(2) 0.7299(6)
H15 H 0.190940 0.400109 0.691336
H84? H -0.049022 -0.178279 0.873692
H85? H -0.086378 -0.228808 0.913202
H86? H 0.021607 0.266313 1.095029
H87? H -0.008260 -0.226813 0.946032
H88? H -0.027650 0.131179 1.103143
H89? H 0.049513 0.102690 1.142711
loop_
_geom_bond_atom_site_label_1
_geom_bond_atom_site_label_2
_geom_bond_site_symmetry_1
_geom_bond_site_symmetry_2
S1 O1 1_555 1_555
S2 O4 1_555 1_555
S3 O7 1_555 1_555
O2 S1 1_555 1_555
O3 S1 1_555 1_555
O5 S2 1_555 1_555
O6 S2 1_555 1_555
O8 S3 1_555 1_555
O9 S3 1_555 1_555
C1 C2 1_555 1_555
C2 H1 1_555 1_555
C3 C2 1_555 1_555
C4 C3 1_555 1_555
H2 C4 1_555 1_555
C5 C4 1_555 1_555
C6 C1 1_555 1_555
H3 C6 1_555 1_555
C7 C1 1_555 1_555
C8 C7 1_555 1_555
H4 C8 1_555 1_555
C9 C8 1_555 1_555
H5 C9 1_555 1_555
C10 S1 1_555 1_555
C11 C10 1_555 1_555
H6 C11 1_555 1_555
C12 C7 1_555 1_555
H7 C12 1_555 1_555
C13 C3 1_555 1_555
C14 C13 1_555 1_555
H8 C14 1_555 1_555
C15 C14 1_555 1_555
H9 C15 1_555 1_555
C16 S2 1_555 1_555
C17 C16 1_555 1_555
H10 C17 1_555 1_555
C18 C13 1_555 1_555
H11 C18 1_555 1_555
C19 C5 1_555 1_555
C20 C19 1_555 1_555
H12 C20 1_555 1_555
C21 C20 1_555 1_555
H13 C21 1_555 1_555
C22 S3 1_555 1_555
C23 C22 1_555 1_555
H14 C23 1_555 1_555
C24 C19 1_555 1_555
H15 C24 1_555 1_555
N1 H16 1_555 1_555
H17 N1 1_555 1_555
N2 H18 1_555 1_555
H19 N2 1_555 1_555
N3 H20 1_555 1_555
H21 N3 1_555 1_555
C25 N1 1_555 1_555
N4 H22 1_555 1_555
H23 N4 1_555 1_555
N5 H24 1_555 1_555
H25 N5 1_555 1_555
N6 H26 1_555 1_555
H27 N6 1_555 1_555
C26 N4 1_555 1_555
N7 H28 1_555 1_555
H29 N7 1_555 1_555
N8 H30 1_555 1_555
H31 N8 1_555 1_555
N9 H32 1_555 1_555
H33 N9 1_555 1_555
C27 N7 1_555 1_555
O10 C28 1_555 1_555
C28 C29 1_555 1_555
C29 H34 1_555 1_555
C30 C29 1_555 1_555
C31 C30 1_555 1_555
H35 C31 1_555 1_555
H36 C31 1_555 1_555
C32 C31 1_555 1_555
C33 C28 1_555 1_555
H37 C33 1_555 1_555
H38 C33 1_555 1_555
C34 C30 1_555 1_555
H39 C34 1_555 1_555
H40 C34 1_555 1_555
H41 C34 1_555 1_555
C35 C32 1_555 1_555
H42 C35 1_555 1_555
H43 C35 1_555 1_555
H44 C35 1_555 1_555
C36 C32 1_555 1_555
H45 C36 1_555 1_555
H46 C36 1_555 1_555
H47 C36 1_555 1_555
O11 C37 1_555 1_555
C37 C38 1_555 1_555
C38 H48 1_555 1_555
C39 C38 1_555 1_555
C40 C39 1_555 1_555
H49 C40 1_555 1_555
H50 C40 1_555 1_555
C41 C40 1_555 1_555
C42 C37 1_555 1_555
H51 C42 1_555 1_555
H52 C42 1_555 1_555
C43 C39 1_555 1_555
H53 C43 1_555 1_555
H54 C43 1_555 1_555
H55 C43 1_555 1_555
C44 C41 1_555 1_555
H56 C44 1_555 1_555
H57 C44 1_555 1_555
H58 C44 1_555 1_555
C45 C41 1_555 1_555
H59 C45 1_555 1_555
H60 C45 1_555 1_555
H61 C45 1_555 1_555
O12 C46 1_555 1_555
C46 C47 1_555 1_555
C47 H62 1_555 1_555
C48 C47 1_555 1_555
C49 C48 1_555 1_555
H63 C49 1_555 1_555
H64 C49 1_555 1_555
C50 C49 1_555 1_555
C51 C46 1_555 1_555
H65 C51 1_555 1_555
H66 C51 1_555 1_555
C52 C48 1_555 1_555
H67 C52 1_555 1_555
H68 C52 1_555 1_555
H69 C52 1_555 1_555
C53 C50 1_555 1_555
H70 C53 1_555 1_555
H71 C53 1_555 1_555
H72 C53 1_555 1_555
C54 C50 1_555 1_555
H73 C54 1_555 1_555
H74 C54 1_555 1_555
H75 C54 1_555 1_555
O13 C55 1_555 1_555
C55 C56 1_555 1_555
C56 H76 1_555 1_555
C57 C56 1_555 1_555
C58 C57 1_555 1_555
H77 C58 1_555 1_555
H78 C58 1_555 1_555
C59 C58 1_555 1_555
C60 C55 1_555 1_555
H79 C60 1_555 1_555
H80 C60 1_555 1_555
C61 C57 1_555 1_555
C62 C59 1_555 1_555
H81 C62 1_555 1_555
H82 C62 1_555 1_555
H83 C62 1_555 1_555
C63 C59 1_555 1_555
C5 C6 1_555 1_555
C9 C10 1_555 1_555
C11 C12 1_555 1_555
C15 C16 1_555 1_555
C17 C18 1_555 1_555
C21 C22 1_555 1_555
C23 C24 1_555 1_555
N2 C25 1_555 1_555
N3 C25 1_555 1_555
N5 C26 1_555 1_555
N6 C26 1_555 1_555
N8 C27 1_555 1_555
N9 C27 1_555 1_555
C32 C33 1_555 1_555
C41 C42 1_555 1_555
C50 C51 1_555 1_555
C59 C60 1_555 1_555

#END
