
#######################################################################
#
#                 Cambridge Crystallographic Data Centre
#                                CCDC 
#
#######################################################################
#
# If this CIF has been generated from an entry in the Cambridge 
# Structural Database, then it will include bibliographic, chemical, 
# crystal, experimental, refinement or atomic coordinate data resulting 
# from the CCDC's data processing and validation procedures.
#
#######################################################################

data_AFOGOU03
_chemical_formula_moiety         
'3(C1 H6 N3 1+),C24 H15 O9 S3 3-,3.7(C9 H14 O1),5.4(C1 H4 O1)'
_chemical_name_systematic        
'tris(Guanidinium) 1,3,5-tris(4-sulfonatophenyl)benzene tetrakis(isophorone) clathrate methanol solvate'
_symmetry_cell_setting           monoclinic
_symmetry_space_group_name_H-M   'P 21'
_symmetry_Int_Tables_number      4
_space_group_name_Hall           'P 2yb'
loop_
_symmetry_equiv_pos_site_id
_symmetry_equiv_pos_as_xyz
1 x,y,z
2 -x,1/2+y,-z
_cell_length_a                   23.536(16)
_cell_length_b                   7.566(5)
_cell_length_c                   23.941(17)
_cell_angle_alpha                90
_cell_angle_beta                 118.697(13)
_cell_angle_gamma                90
_cell_volume                     3739.6
_exptl_crystal_colour            colorless
_exptl_crystal_description       needle
_cell_formula_units_Z            2
loop_
_atom_site_label
_atom_site_type_symbol
_atom_site_fract_x
_atom_site_fract_y
_atom_site_fract_z
N1 N 0.8427(12) 0.932(5) 0.7092(12)
H16 H 0.850833 1.026989 0.694519
H17 H 0.856133 0.831664 0.703326
N2 N 0.7937(17) 0.787(4) 0.7540(16)
H18 H 0.767884 0.782310 0.769905
H19 H 0.808857 0.691324 0.746868
N3 N 0.7900(17) 1.090(4) 0.7495(17)
H20 H 0.797926 1.185328 0.734906
H21 H 0.768502 1.095038 0.770140
C25 C 0.8101(17) 0.941(8) 0.7405(17)
N4 N 0.2745(12) 0.928(5) 0.1260(10)
H22 H 0.280333 0.827981 0.144945
H23 H 0.287937 1.023748 0.147898
N5 N 0.2266(15) 0.787(4) 0.0340(15)
H24 H 0.233680 0.690389 0.055402
H25 H 0.207170 0.783326 -0.006972
N6 N 0.2389(16) 1.093(4) 0.0343(15)
H26 H 0.221529 1.098466 -0.006543
H27 H 0.252356 1.187397 0.056739
C26 C 0.2450(17) 0.935(7) 0.0630(14)
N7 N 0.8786(11) 0.943(5) 0.1524(12)
H28 H 0.858438 1.041562 0.139719
H29 H 0.857779 0.844697 0.139276
N8 N 0.9703(15) 0.784(4) 0.2148(16)
H30 H 1.010519 0.781060 0.243202
H31 H 0.948994 0.686527 0.201361
N9 N 0.9717(16) 1.088(4) 0.2110(16)
H32 H 0.951501 1.186561 0.198324
H33 H 1.012629 1.086493 0.236790
C27 C 0.9405(16) 0.941(7) 0.1913(16)
O10 O 0.4528(17) 0.061(5) 0.5436(18)
C28 C 0.5055(19) 0.128(7) 0.5567(19)
C29 C 0.5419(18) 0.235(6) 0.614(2)
H34 H 0.523400 0.259709 0.640202
C30 C 0.6008(18) 0.297(6) 0.6306(18)
C31 C 0.639(2) 0.255(5) 0.596(2)
H35 H 0.683613 0.235866 0.627307
H36 H 0.636831 0.356242 0.570412
C32 C 0.6131(16) 0.093(4) 0.5536(15)
C33 C 0.5390(16) 0.094(7) 0.5173(18)
H37 H 0.524992 0.182907 0.484212
H38 H 0.524471 -0.019902 0.496468
C34 C 0.641(2) 0.408(7) 0.6890(18)
H39 H 0.681461 0.436820 0.690622
H40 H 0.618052 0.514535 0.687046
H41 H 0.649021 0.342353 0.726435
C35 C 0.629(2) 0.102(7) 0.4986(18)
H42 H 0.612136 -0.001140 0.472506
H43 H 0.608891 0.205721 0.473442
H44 H 0.674745 0.108359 0.515302
C36 C 0.629(2) -0.078(5) 0.5924(19)
H45 H 0.612673 -0.177009 0.563995
H46 H 0.675618 -0.088953 0.617523
H47 H 0.610343 -0.075129 0.619879
O11 O 1.0938(18) 1.001(6) 0.566(2)
C37 C 1.060(2) 0.886(7) 0.573(3)
C38 C 1.085(2) 0.720(7) 0.607(3)
H48 H 1.129011 0.695713 0.624712
C39 C 1.047(2) 0.601(6) 0.614(3)
C40 C 0.976(2) 0.629(6) 0.593(3)
H49 H 0.966990 0.584603 0.625783
H50 H 0.950523 0.560920 0.554579
C41 C 0.955(2) 0.821(6) 0.580(2)
C42 C 0.988(2) 0.916(8) 0.546(2)
H51 H 0.966051 0.880785 0.502098
H52 H 0.980466 1.042361 0.547598
C43 C 1.069(3) 0.425(6) 0.646(3)
H53 H 1.032982 0.363450 0.645062
H54 H 1.087176 0.356990 0.624824
H55 H 1.101522 0.443587 0.689785
C44 C 0.884(2) 0.835(8) 0.531(3)
H56 H 0.871164 0.956679 0.522892
H57 H 0.876706 0.780232 0.491516
H58 H 0.857920 0.775156 0.546074
C45 C 0.975(3) 0.930(9) 0.640(2)
H59 H 0.960625 1.049361 0.629156
H60 H 0.956177 0.879672 0.664435
H61 H 1.021560 0.928234 0.665749
O12 O 0.545(3) 0.580(8) 0.090(2)
C46 C 0.571(3) 0.613(9) 0.056(2)
C47 C 0.620(3) 0.753(10) 0.073(3)
H62 H 0.639781 0.801286 0.114060
C48 C 0.636(4) 0.809(9) 0.030(3)
C49 C 0.609(3) 0.750(8) -0.038(3)
H63 H 0.644755 0.718703 -0.045597
H64 H 0.586450 0.848762 -0.065611
C50 C 0.563(2) 0.594(7) -0.056(2)
C51 C 0.529(2) 0.592(10) -0.015(2)
H65 H 0.497067 0.685182 -0.030248
H66 H 0.505977 0.480497 -0.022874
C52 C 0.684(3) 0.959(9) 0.043(3)
H67 H 0.689248 0.979290 0.006460
H68 H 0.668359 1.064554 0.053497
H69 H 0.725393 0.927864 0.078770
C53 C 0.503(3) 0.613(11) -0.121(2)
H70 H 0.484861 0.729023 -0.124289
H71 H 0.514197 0.596206 -0.153868
H72 H 0.471331 0.525985 -0.124820
C54 C 0.599(3) 0.419(8) -0.040(3)
H73 H 0.635972 0.425896 0.001648
H74 H 0.571156 0.325692 -0.041632
H75 H 0.614022 0.395913 -0.070680
S1 S 0.8510(4) 0.4418(18) 0.6794(4)
S2 S 0.3048(4) 0.4419(18) 0.1634(4)
S3 S 0.8408(4) 0.4437(18) 0.1424(4)
O1 O 0.8934(12) 0.592(3) 0.6965(12)
O2 O 0.8084(9) 0.435(3) 0.7090(9)
O3 O 0.8910(12) 0.273(3) 0.6986(12)
O4 O 0.2844(13) 0.595(3) 0.1863(13)
O5 O 0.2845(9) 0.440(4) 0.0948(10)
O6 O 0.2864(13) 0.280(4) 0.1841(12)
O7 O 0.8227(12) 0.600(3) 0.1036(12)
O8 O 0.9088(9) 0.440(4) 0.1886(9)
O9 O 0.8173(12) 0.283(3) 0.1046(12)
C1 C 0.6986(14) 0.474(4) 0.3944(9)
C2 C 0.6265(16) 0.482(3) 0.3608(15)
H1 H 0.603275 0.486366 0.383079
C3 C 0.5974(12) 0.482(4) 0.2983(15)
C4 C 0.6288(16) 0.488(3) 0.2620(16)
H2 H 0.605055 0.495629 0.217917
C5 C 0.7009(15) 0.481(3) 0.2944(14)
C6 C 0.7299(17) 0.485(4) 0.3604(15)
H3 H 0.774749 0.497014 0.382698
C7 C 0.7370(10) 0.468(3) 0.4648(7)
C8 C 0.7938(11) 0.370(3) 0.4947(9)
H4 H 0.808972 0.310329 0.470478
C9 C 0.8278(9) 0.360(3) 0.5608(10)
H5 H 0.865780 0.294412 0.580756
C10 C 0.8050(10) 0.449(4) 0.5969(7)
C11 C 0.7483(10) 0.547(3) 0.5670(9)
H6 H 0.733042 0.606398 0.591227
C12 C 0.7142(9) 0.557(3) 0.5010(10)
H7 H 0.676234 0.622318 0.480949
C13 C 0.5253(12) 0.469(6) 0.2665(15)
C14 C 0.4938(16) 0.372(5) 0.2924(18)
H8 H 0.515784 0.313615 0.331154
C15 C 0.4300(17) 0.370(5) 0.2577(17)
H9 H 0.409355 0.304283 0.275659
C16 C 0.3912(14) 0.440(7) 0.2041(16)
C17 C 0.4209(17) 0.543(5) 0.1749(18)
H10 H 0.396452 0.604576 0.137144
C18 C 0.4836(16) 0.546(5) 0.2040(17)
H11 H 0.503734 0.602025 0.183497
C19 C 0.7329(11) 0.462(4) 0.2544(11)
C20 C 0.7082(9) 0.368(4) 0.1978(11)
H12 H 0.668745 0.309124 0.182520
C21 C 0.7424(11) 0.361(4) 0.1640(10)
H13 H 0.725863 0.297215 0.126113
C22 C 0.8013(11) 0.448(4) 0.1868(11)
C23 C 0.8260(9) 0.543(4) 0.2435(11)
H14 H 0.865430 0.601191 0.258768
C24 C 0.7918(11) 0.550(4) 0.2773(10)
H15 H 0.808313 0.613102 0.315175
loop_
_geom_bond_atom_site_label_1
_geom_bond_atom_site_label_2
_geom_bond_site_symmetry_1
_geom_bond_site_symmetry_2
S1 O1 1_555 1_555
S2 O4 1_555 1_555
S3 O7 1_555 1_555
O2 S1 1_555 1_555
O3 S1 1_555 1_555
O5 S2 1_555 1_555
O6 S2 1_555 1_555
O8 S3 1_555 1_555
O9 S3 1_555 1_555
C1 C2 1_555 1_555
C2 H1 1_555 1_555
C3 C2 1_555 1_555
C4 C3 1_555 1_555
H2 C4 1_555 1_555
C5 C4 1_555 1_555
C6 C1 1_555 1_555
H3 C6 1_555 1_555
C7 C1 1_555 1_555
C8 C7 1_555 1_555
H4 C8 1_555 1_555
C9 C8 1_555 1_555
H5 C9 1_555 1_555
C10 S1 1_555 1_555
C11 C10 1_555 1_555
H6 C11 1_555 1_555
C12 C7 1_555 1_555
H7 C12 1_555 1_555
C13 C3 1_555 1_555
C14 C13 1_555 1_555
H8 C14 1_555 1_555
C15 C14 1_555 1_555
H9 C15 1_555 1_555
C16 S2 1_555 1_555
C17 C16 1_555 1_555
H10 C17 1_555 1_555
C18 C13 1_555 1_555
H11 C18 1_555 1_555
C19 C5 1_555 1_555
C20 C19 1_555 1_555
H12 C20 1_555 1_555
C21 C20 1_555 1_555
H13 C21 1_555 1_555
C22 S3 1_555 1_555
C23 C22 1_555 1_555
H14 C23 1_555 1_555
C24 C19 1_555 1_555
H15 C24 1_555 1_555
N1 H16 1_555 1_555
H17 N1 1_555 1_555
N2 H18 1_555 1_555
H19 N2 1_555 1_555
N3 H20 1_555 1_555
H21 N3 1_555 1_555
C25 N1 1_555 1_555
N4 H22 1_555 1_555
H23 N4 1_555 1_555
N5 H24 1_555 1_555
H25 N5 1_555 1_555
N6 H26 1_555 1_555
H27 N6 1_555 1_555
C26 N4 1_555 1_555
N7 H28 1_555 1_555
H29 N7 1_555 1_555
N8 H30 1_555 1_555
H31 N8 1_555 1_555
N9 H32 1_555 1_555
H33 N9 1_555 1_555
C27 N7 1_555 1_555
O10 C28 1_555 1_555
C28 C29 1_555 1_555
C29 H34 1_555 1_555
C30 C29 1_555 1_555
C31 C30 1_555 1_555
H35 C31 1_555 1_555
H36 C31 1_555 1_555
C32 C31 1_555 1_555
C33 C28 1_555 1_555
H37 C33 1_555 1_555
H38 C33 1_555 1_555
C34 C30 1_555 1_555
H39 C34 1_555 1_555
H40 C34 1_555 1_555
H41 C34 1_555 1_555
C35 C32 1_555 1_555
H42 C35 1_555 1_555
H43 C35 1_555 1_555
H44 C35 1_555 1_555
C36 C32 1_555 1_555
H45 C36 1_555 1_555
H46 C36 1_555 1_555
H47 C36 1_555 1_555
O11 C37 1_555 1_555
C37 C38 1_555 1_555
C38 H48 1_555 1_555
C39 C38 1_555 1_555
C40 C39 1_555 1_555
H49 C40 1_555 1_555
H50 C40 1_555 1_555
C41 C40 1_555 1_555
C42 C37 1_555 1_555
H51 C42 1_555 1_555
H52 C42 1_555 1_555
C43 C39 1_555 1_555
H53 C43 1_555 1_555
H54 C43 1_555 1_555
H55 C43 1_555 1_555
C44 C41 1_555 1_555
H56 C44 1_555 1_555
H57 C44 1_555 1_555
H58 C44 1_555 1_555
C45 C41 1_555 1_555
H59 C45 1_555 1_555
H60 C45 1_555 1_555
H61 C45 1_555 1_555
O12 C46 1_555 1_555
C46 C47 1_555 1_555
C47 H62 1_555 1_555
C48 C47 1_555 1_555
C49 C48 1_555 1_555
H63 C49 1_555 1_555
H64 C49 1_555 1_555
C50 C49 1_555 1_555
C51 C46 1_555 1_555
H65 C51 1_555 1_555
H66 C51 1_555 1_555
C52 C48 1_555 1_555
H67 C52 1_555 1_555
H68 C52 1_555 1_555
H69 C52 1_555 1_555
C53 C50 1_555 1_555
H70 C53 1_555 1_555
H71 C53 1_555 1_555
H72 C53 1_555 1_555
C54 C50 1_555 1_555
H73 C54 1_555 1_555
H74 C54 1_555 1_555
H75 C54 1_555 1_555
C5 C6 1_555 1_555
C9 C10 1_555 1_555
C11 C12 1_555 1_555
C15 C16 1_555 1_555
C17 C18 1_555 1_555
C21 C22 1_555 1_555
C23 C24 1_555 1_555
N2 C25 1_555 1_555
N3 C25 1_555 1_555
N5 C26 1_555 1_555
N6 C26 1_555 1_555
N8 C27 1_555 1_555
N9 C27 1_555 1_555
C32 C33 1_555 1_555
C41 C42 1_555 1_555
C50 C51 1_555 1_555

#END
