
#######################################################################
#
#                 Cambridge Crystallographic Data Centre
#                                CCDC 
#
#######################################################################
#
# If this CIF has been generated from an entry in the Cambridge 
# Structural Database, then it will include bibliographic, chemical, 
# crystal, experimental, refinement or atomic coordinate data resulting 
# from the CCDC's data processing and validation procedures.
#
#######################################################################

data_AFOGOU04
_chemical_formula_moiety         
'3(C1 H6 N3 1+),C24 H15 O9 S3 3-,3.7(C9 H14 O1),5.4(C1 H4 O1)'
_chemical_name_systematic        
'tris(Guanidinium) 1,3,5-tris(4-sulfonatophenyl)benzene tetrakis(isophorone) clathrate methanol solvate'
_symmetry_cell_setting           monoclinic
_symmetry_space_group_name_H-M   'P 21'
_symmetry_Int_Tables_number      4
_space_group_name_Hall           'P 2yb'
loop_
_symmetry_equiv_pos_site_id
_symmetry_equiv_pos_as_xyz
1 x,y,z
2 -x,1/2+y,-z
_cell_length_a                   23.156(3)
_cell_length_b                   7.5003(11)
_cell_length_c                   24.257(3)
_cell_angle_alpha                90
_cell_angle_beta                 117.923(2)
_cell_angle_gamma                90
_cell_volume                     3722.41
_exptl_crystal_colour            colorless
_exptl_crystal_description       needle
_cell_formula_units_Z            2
loop_
_atom_site_label
_atom_site_type_symbol
_atom_site_fract_x
_atom_site_fract_y
_atom_site_fract_z
N1 N 0.8389(3) 0.9227(14) 0.6936(3)
H24 H 0.847775 0.820701 0.681289
H25 H 0.850049 1.023820 0.682764
N2 N 0.7923(5) 0.7700(11) 0.7441(4)
H26 H 0.771399 0.768369 0.766396
H27 H 0.802483 0.669184 0.732121
N3 N 0.7933(4) 1.0759(10) 0.7465(4)
H28 H 0.772367 1.074224 0.768807
H29 H 0.804101 1.178291 0.736127
C37 C 0.8086(4) 0.9241(17) 0.7285(4)
N4 N 0.2648(4) 0.9285(15) 0.1258(3)
H30 H 0.274593 1.031206 0.145574
H31 H 0.273401 0.828106 0.146942
N5 N 0.2242(5) 0.7695(11) 0.0330(4)
H32 H 0.207351 0.770198 -0.007910
H33 H 0.232365 0.667571 0.053234
N6 N 0.2250(5) 1.0729(13) 0.0342(4)
H34 H 0.234970 1.175074 0.054323
H35 H 0.206623 1.071636 -0.006864
C38 C 0.2374(4) 0.9249(19) 0.0647(4)
N7 N 0.8807(3) 0.9247(14) 0.1523(3)
H36 H 0.858547 1.024255 0.138075
H37 H 0.861851 0.821351 0.137435
N8 N 0.9735(4) 0.7754(11) 0.2171(4)
H38 H 0.953236 0.673954 0.201797
H39 H 1.014594 0.775212 0.246242
N9 N 0.9725(4) 1.0811(11) 0.2198(4)
H40 H 0.951880 1.183311 0.206683
H41 H 1.013567 1.079774 0.248959
C39 C 0.9419(4) 0.9303(17) 0.1959(3)
O10 O 0.4537(4) 0.0527(14) 0.5467(4)
C40 C 0.5057(6) 0.1181(17) 0.5586(6)
C41 C 0.5430(6) 0.231(2) 0.6137(6)
H42 H 0.523506 0.262623 0.639252
C42 C 0.6036(6) 0.2921(16) 0.6296(6)
C43 C 0.6352(6) 0.2502(17) 0.5918(6)
H43 H 0.682565 0.236206 0.620143
H44 H 0.629929 0.353999 0.564667
C44 C 0.6118(5) 0.0863(15) 0.5510(6)
C45 C 0.5375(5) 0.0927(17) 0.5171(5)
H45 H 0.523598 0.191472 0.486480
H46 H 0.521051 -0.019677 0.493479
C46 C 0.6393(6) 0.406(2) 0.6852(7)
H47 H 0.682218 0.436907 0.689086
H48 H 0.614328 0.515355 0.680761
H49 H 0.645150 0.341431 0.722551
C47 C 0.6345(7) 0.085(2) 0.5005(7)
H50 H 0.620171 0.195520 0.476043
H51 H 0.682233 0.077356 0.520439
H52 H 0.615338 -0.017419 0.472926
C48 C 0.6336(5) -0.083(2) 0.5888(5)
H53 H 0.617640 -0.185722 0.560857
H54 H 0.681463 -0.085707 0.611707
H55 H 0.615914 -0.086038 0.618399
O11 O 1.0976(4) 0.9909(14) 0.5701(4)
C49 C 1.0611(7) 0.874(2) 0.5733(6)
C50 C 1.0868(7) 0.706(2) 0.6077(6)
H56 H 1.131975 0.680480 0.623759
C51 C 1.0497(7) 0.5890(19) 0.6172(5)
C52 C 0.9781(6) 0.6129(17) 0.5926(6)
H57 H 0.965480 0.565324 0.623584
H58 H 0.954954 0.541778 0.554002
C53 C 0.9550(6) 0.8083(16) 0.5782(6)
C54 C 0.9865(5) 0.901(3) 0.5408(5)
H59 H 0.967274 0.850776 0.498167
H60 H 0.976578 1.030196 0.537293
C55 C 1.0751(7) 0.414(3) 0.6491(6)
H61 H 1.039658 0.348339 0.651320
H62 H 1.091876 0.344435 0.625560
H63 H 1.110365 0.435308 0.691444
C56 C 0.8819(5) 0.8184(17) 0.5407(6)
H64 H 0.867795 0.753592 0.501342
H65 H 0.861814 0.764657 0.564360
H66 H 0.868478 0.943425 0.531764
C57 C 0.9756(5) 0.9102(19) 0.6391(5)
H67 H 1.023229 0.905041 0.664300
H68 H 0.961704 1.034811 0.629767
H69 H 0.955040 0.856043 0.662364
O12 O 0.5452(15) 0.548(5) 0.0921(14)
C58 C 0.576(2) 0.584(6) 0.0627(16)
C59 C 0.620(2) 0.741(6) 0.0752(16)
H70 H 0.635574 0.798998 0.114404
C60 C 0.639(2) 0.806(6) 0.0348(17)
C61 C 0.610(2) 0.752(6) -0.0281(16)
H71 H 0.646117 0.741186 -0.039287
H72 H 0.581957 0.850764 -0.053286
C62 C 0.5710(17) 0.586(5) -0.0494(15)
C63 C 0.5393(16) 0.567(6) -0.0070(15)
H73 H 0.503667 0.656547 -0.021400
H74 H 0.518027 0.448675 -0.015695
C64 C 0.6892(16) 0.928(6) 0.0386(16)
H75 H 0.686646 0.940761 -0.002654
H76 H 0.682540 1.044942 0.052981
H77 H 0.732237 0.881769 0.068136
C65 C 0.5092(19) 0.615(7) -0.1153(16)
H78 H 0.483802 0.504556 -0.128666
H79 H 0.481871 0.710290 -0.112114
H80 H 0.523647 0.649009 -0.145898
C66 C 0.599(2) 0.406(6) -0.0485(19)
H81 H 0.563945 0.317061 -0.064634
H82 H 0.620967 0.407507 -0.074601
H83 H 0.630769 0.375061 -0.005538
O13 O 0.8716(10) 0.921(4) 0.0102(9)
C67 C 0.9206(12) 0.930(3) 0.0062(12)
C68 C 0.9286(13) 0.965(4) -0.0491(12)
H84 H 0.892192 0.976879 -0.089418
C69 C 0.9917(13) 0.978(5) -0.0396(12)
C70 C 1.0503(13) 0.938(5) 0.0149(11)
H85 H 1.087075 0.999267 0.012931
H86 H 1.058420 0.807698 0.016040
C71 C 1.0491(13) 0.990(4) 0.0727(12)
C72 C 0.9845(12) 0.902(5) 0.0620(12)
H87 H 0.992332 0.772178 0.065083
H88 H 0.978157 0.935914 0.098261
C73 C 1.0147(15) 1.002(5) -0.0842(13)
H89 H 1.062552 1.006848 -0.062721
H90 H 1.000114 0.902050 -0.113633
H91 H 0.997252 1.113724 -0.106972
C74 C 1.1048(13) 0.900(5) 0.1306(12)
H92 H 1.102556 0.937349 0.168257
H93 H 1.100188 0.769909 0.126355
H94 H 1.147090 0.935081 0.133933
C75 C 1.0402(16) 1.183(4) 0.0839(15)
H95 H 1.040446 1.195119 0.124224
H96 H 1.075940 1.253105 0.084101
H97 H 0.998388 1.225615 0.050603
S1 S 0.85181(8) 0.4240(4) 0.66978(8)
S2 S 0.29800(9) 0.4264(4) 0.16492(9)
S3 S 0.84134(10) 0.4301(4) 0.13794(8)
O1 O 0.8920(3) 0.5845(8) 0.6874(3)
O2 O 0.8058(2) 0.4220(10) 0.6947(2)
O3 O 0.8921(3) 0.2624(8) 0.6850(3)
O4 O 0.2766(3) 0.5880(9) 0.1849(3)
O5 O 0.2775(2) 0.4258(11) 0.0984(2)
O6 O 0.2798(3) 0.2665(9) 0.1867(3)
O7 O 0.8228(4) 0.5926(9) 0.0986(3)
O8 O 0.9107(2) 0.4277(10) 0.1830(2)
O9 O 0.8212(3) 0.2697(8) 0.1016(3)
C1 C 0.6968(4) 0.448(2) 0.3898(4)
C2 C 0.6281(4) 0.4531(17) 0.3596(4)
H1 H 0.605457 0.453992 0.383657
C3 C 0.5923(3) 0.4568(17) 0.2939(4)
C4 C 0.6266(5) 0.4570(16) 0.2597(4)
H2 H 0.602848 0.460684 0.215497
C5 C 0.6943(4) 0.4519(19) 0.2880(4)
C6 C 0.7282(4) 0.4544(19) 0.3530(4)
H3 H 0.774554 0.460778 0.372966
C7 C 0.7342(4) 0.4482(16) 0.4585(4)
C8 C 0.7918(4) 0.3484(14) 0.4881(5)
H4 H 0.807029 0.286515 0.463198
C9 C 0.8268(4) 0.3370(14) 0.5514(4)
H5 H 0.865273 0.266436 0.570687
C10 C 0.8044(3) 0.4323(16) 0.5873(3)
C11 C 0.7484(4) 0.5293(13) 0.5606(4)
H6 H 0.733517 0.591238 0.585740
C12 C 0.7130(4) 0.5366(13) 0.4956(5)
H7 H 0.673614 0.603602 0.476568
C13 C 0.5201(5) 0.458(2) 0.2643(6)
C14 C 0.4861(7) 0.368(2) 0.2899(6)
H8 H 0.509820 0.313774 0.329669
C15 C 0.4193(7) 0.356(2) 0.2595(6)
H9 H 0.397470 0.289932 0.277714
C16 C 0.3845(6) 0.436(3) 0.2044(6)
C17 C 0.4149(6) 0.538(2) 0.1785(6)
H10 H 0.390019 0.601378 0.140700
C18 C 0.4853(6) 0.548(2) 0.2100(6)
H11 H 0.507360 0.617413 0.192841
C19 C 0.7301(6) 0.460(2) 0.2504(6)
C20 C 0.7064(6) 0.3640(19) 0.1941(6)
H12 H 0.665272 0.305680 0.178303
C21 C 0.7408(6) 0.3528(19) 0.1620(6)
H13 H 0.723061 0.287489 0.124072
C22 C 0.8003(6) 0.433(3) 0.1826(5)
C23 C 0.8245(6) 0.5294(18) 0.2370(5)
H14 H 0.864289 0.593331 0.251044
C24 C 0.7901(6) 0.5335(18) 0.2719(6)
H15 H 0.809584 0.589594 0.311599
C25? C 0.5203(6) 0.431(5) 0.2594(12)
C26? C 0.4868(10) 0.495(5) 0.2901(10)
H16? H 0.510335 0.539250 0.331555
C27? C 0.4189(10) 0.495(5) 0.2603(12)
H17? H 0.395974 0.538245 0.281384
C28? C 0.3845(6) 0.430(5) 0.1998(12)
C29? C 0.4180(9) 0.366(4) 0.1690(9)
H18? H 0.394436 0.322011 0.127576
C30? C 0.4859(9) 0.367(4) 0.1988(11)
H19? H 0.508797 0.323013 0.177746
C31? C 0.7289(15) 0.438(7) 0.2499(14)
C32? C 0.7954(15) 0.401(5) 0.2776(10)
H20? H 0.818921 0.380082 0.321280
C33? C 0.8274(11) 0.394(5) 0.2414(13)
H21? H 0.872823 0.367999 0.260377
C34? C 0.7929(14) 0.424(6) 0.1775(13)
C35? C 0.7264(14) 0.462(6) 0.1498(10)
H22? H 0.702875 0.482274 0.106173
C36? C 0.6944(11) 0.469(6) 0.1860(14)
H23? H 0.648971 0.494358 0.167075
loop_
_geom_bond_atom_site_label_1
_geom_bond_atom_site_label_2
_geom_bond_site_symmetry_1
_geom_bond_site_symmetry_2
S1 O1 1_555 1_555
S2 O4 1_555 1_555
S3 O7 1_555 1_555
O2 S1 1_555 1_555
O3 S1 1_555 1_555
O5 S2 1_555 1_555
O6 S2 1_555 1_555
O8 S3 1_555 1_555
O9 S3 1_555 1_555
C1 C2 1_555 1_555
C2 H1 1_555 1_555
C3 C2 1_555 1_555
C4 C3 1_555 1_555
H2 C4 1_555 1_555
C5 C4 1_555 1_555
C6 C1 1_555 1_555
H3 C6 1_555 1_555
C7 C1 1_555 1_555
C8 C7 1_555 1_555
H4 C8 1_555 1_555
C9 C8 1_555 1_555
H5 C9 1_555 1_555
C10 S1 1_555 1_555
C11 C10 1_555 1_555
H6 C11 1_555 1_555
C12 C7 1_555 1_555
H7 C12 1_555 1_555
C13 C3 1_555 1_555
C14 C13 1_555 1_555
H8 C14 1_555 1_555
C15 C14 1_555 1_555
H9 C15 1_555 1_555
C16 S2 1_555 1_555
C17 C16 1_555 1_555
H10 C17 1_555 1_555
C18 C13 1_555 1_555
H11 C18 1_555 1_555
C19 C5 1_555 1_555
C20 C19 1_555 1_555
H12 C20 1_555 1_555
C21 C20 1_555 1_555
H13 C21 1_555 1_555
C22 S3 1_555 1_555
C23 C22 1_555 1_555
H14 C23 1_555 1_555
C24 C19 1_555 1_555
H15 C24 1_555 1_555
N1 H24 1_555 1_555
H25 N1 1_555 1_555
N2 H26 1_555 1_555
H27 N2 1_555 1_555
N3 H28 1_555 1_555
H29 N3 1_555 1_555
C37 N1 1_555 1_555
N4 H30 1_555 1_555
H31 N4 1_555 1_555
N5 H32 1_555 1_555
H33 N5 1_555 1_555
N6 H34 1_555 1_555
H35 N6 1_555 1_555
C38 N4 1_555 1_555
N7 H36 1_555 1_555
H37 N7 1_555 1_555
N8 H38 1_555 1_555
H39 N8 1_555 1_555
N9 H40 1_555 1_555
H41 N9 1_555 1_555
C39 N7 1_555 1_555
O10 C40 1_555 1_555
C40 C41 1_555 1_555
C41 H42 1_555 1_555
C42 C41 1_555 1_555
C43 C42 1_555 1_555
H43 C43 1_555 1_555
H44 C43 1_555 1_555
C44 C43 1_555 1_555
C45 C40 1_555 1_555
H45 C45 1_555 1_555
H46 C45 1_555 1_555
C46 C42 1_555 1_555
H47 C46 1_555 1_555
H48 C46 1_555 1_555
H49 C46 1_555 1_555
C47 C44 1_555 1_555
H50 C47 1_555 1_555
H51 C47 1_555 1_555
H52 C47 1_555 1_555
C48 C44 1_555 1_555
H53 C48 1_555 1_555
H54 C48 1_555 1_555
H55 C48 1_555 1_555
O11 C49 1_555 1_555
C49 C50 1_555 1_555
C50 H56 1_555 1_555
C51 C50 1_555 1_555
C52 C51 1_555 1_555
H57 C52 1_555 1_555
H58 C52 1_555 1_555
C53 C52 1_555 1_555
C54 C49 1_555 1_555
H59 C54 1_555 1_555
H60 C54 1_555 1_555
C55 C51 1_555 1_555
H61 C55 1_555 1_555
H62 C55 1_555 1_555
H63 C55 1_555 1_555
C56 C53 1_555 1_555
H64 C56 1_555 1_555
H65 C56 1_555 1_555
H66 C56 1_555 1_555
C57 C53 1_555 1_555
H67 C57 1_555 1_555
H68 C57 1_555 1_555
H69 C57 1_555 1_555
O12 C58 1_555 1_555
C58 C59 1_555 1_555
C59 H70 1_555 1_555
C60 C59 1_555 1_555
C61 C60 1_555 1_555
H71 C61 1_555 1_555
H72 C61 1_555 1_555
C62 C61 1_555 1_555
C63 C58 1_555 1_555
H73 C63 1_555 1_555
H74 C63 1_555 1_555
C64 C60 1_555 1_555
H75 C64 1_555 1_555
H76 C64 1_555 1_555
H77 C64 1_555 1_555
C65 C62 1_555 1_555
H78 C65 1_555 1_555
H79 C65 1_555 1_555
H80 C65 1_555 1_555
C66 C62 1_555 1_555
H81 C66 1_555 1_555
H82 C66 1_555 1_555
H83 C66 1_555 1_555
O13 C67 1_555 1_555
C67 C68 1_555 1_555
C68 H84 1_555 1_555
C69 C68 1_555 1_555
C70 C69 1_555 1_555
H85 C70 1_555 1_555
H86 C70 1_555 1_555
C71 C70 1_555 1_555
C72 C67 1_555 1_555
H87 C72 1_555 1_555
H88 C72 1_555 1_555
C73 C69 1_555 1_555
H89 C73 1_555 1_555
H90 C73 1_555 1_555
H91 C73 1_555 1_555
C74 C71 1_555 1_555
H92 C74 1_555 1_555
H93 C74 1_555 1_555
H94 C74 1_555 1_555
C75 C71 1_555 1_555
H95 C75 1_555 1_555
H96 C75 1_555 1_555
H97 C75 1_555 1_555
C5 C6 1_555 1_555
C9 C10 1_555 1_555
C11 C12 1_555 1_555
C15 C16 1_555 1_555
C17 C18 1_555 1_555
C21 C22 1_555 1_555
C23 C24 1_555 1_555
N2 C37 1_555 1_555
N3 C37 1_555 1_555
N5 C38 1_555 1_555
N6 C38 1_555 1_555
N8 C39 1_555 1_555
N9 C39 1_555 1_555
C44 C45 1_555 1_555
C53 C54 1_555 1_555
C62 C63 1_555 1_555
C71 C72 1_555 1_555

#END
