
#######################################################################
#
#                 Cambridge Crystallographic Data Centre
#                                CCDC 
#
#######################################################################
#
# If this CIF has been generated from an entry in the Cambridge 
# Structural Database, then it will include bibliographic, chemical, 
# crystal, experimental, refinement or atomic coordinate data resulting 
# from the CCDC's data processing and validation procedures.
#
#######################################################################

data_AFOGAG
_chemical_formula_moiety         
'C8 H20 N1 1+,C31 H22 B11 Cl10 1-,0.5(C1 H2 Cl2)'
_chemical_name_systematic        
'tetraethylammonium 2,3,4,5,6-pentakis(3,5-dichlorophenyl)-1-carba-closo-dodecaborate dichloromethane solvate'
_symmetry_cell_setting           orthorhombic
_symmetry_space_group_name_H-M   'P 21 21 21'
_symmetry_Int_Tables_number      19
_space_group_name_Hall           'P 2ac 2ab'
loop_
_symmetry_equiv_pos_site_id
_symmetry_equiv_pos_as_xyz
1 x,y,z
2 1/2-x,-y,1/2+z
3 1/2+x,1/2-y,-z
4 -x,1/2+y,1/2-z
_cell_length_a                   14.6290(5)
_cell_length_b                   14.9866(5)
_cell_length_c                   22.4078(7)
_cell_angle_alpha                90
_cell_angle_beta                 90
_cell_angle_gamma                90
_cell_volume                     4912.66
_exptl_crystal_colour            colorless
_exptl_crystal_description       block
_cell_formula_units_Z            4
loop_
_atom_site_label
_atom_site_type_symbol
_atom_site_fract_x
_atom_site_fract_y
_atom_site_fract_z
N1 N 0.8131(6) 0.9734(6) -0.1586(4)
C32 C 0.7366(8) 1.0366(7) -0.1506(5)
H23 H 0.679717 1.007955 -0.165022
H24 H 0.747860 1.089698 -0.175825
C33 C 0.7224(11) 1.0664(9) -0.0880(5)
H25 H 0.662301 1.094788 -0.084446
H26 H 0.770104 1.109217 -0.077087
H27 H 0.725351 1.014681 -0.061298
C34 C 0.9019(9) 1.0167(8) -0.1388(8)
H28 H 0.899580 1.023315 -0.094850
H29 H 0.952188 0.974702 -0.147897
C35 C 0.7980(8) 0.8888(7) -0.1186(5)
H30 H 0.847719 0.845790 -0.126875
H31 H 0.803034 0.906796 -0.076262
C36 C 0.9273(9) 1.1065(11) -0.1649(6)
H32 H 0.917540 1.105598 -0.208122
H33 H 0.991747 1.119143 -0.156435
H34 H 0.889037 1.153021 -0.146898
C37 C 0.8178(11) 0.9556(12) -0.2183(6)
H35 H 0.831915 1.011343 -0.240146
H36 H 0.757583 0.933808 -0.232270
C38 C 0.8997(13) 0.8772(13) -0.2341(9)
H37 H 0.894089 0.858635 -0.275872
H38 H 0.891314 0.825316 -0.208043
H39 H 0.960446 0.902849 -0.227401
C39 C 0.7090(8) 0.8427(7) -0.1273(5)
H40 H 0.700391 0.829356 -0.169700
H41 H 0.659309 0.881358 -0.113382
H42 H 0.708609 0.786991 -0.104362
Cl1 Cl 0.71306(12) 0.15708(11) 0.07841(8)
Cl2 Cl 0.52686(11) 0.65788(11) 0.05309(9)
Cl3 Cl 1.05379(13) 0.08980(11) -0.00027(9)
Cl4 Cl 0.79303(14) 0.90348(11) 0.04575(9)
Cl5 Cl 0.65572(13) 0.48333(18) 0.17408(8)
Cl6 Cl 0.69850(16) 0.73408(14) -0.29601(9)
Cl7 Cl 0.54840(17) 0.2350(2) -0.14403(13)
Cl8 Cl 0.9997(4) 0.5886(9) 0.2136(2)
Cl9 Cl 0.4616(3) 0.5829(14) -0.1483(4)
Cl10 Cl 0.7908(13) 0.2512(15) -0.3187(4)
C1 C 0.7853(4) 0.4833(4) 0.0887(2)
H1 H 0.738022 0.464543 0.062520
C2 C 0.8134(4) 0.4740(3) -0.0562(2)
H2 H 0.743658 0.454148 -0.040328
B1 B 0.8955(4) 0.4962(4) -0.0024(3)
C3 C 0.7795(4) 0.6524(3) -0.0152(2)
C4 C 0.9603(4) 0.1612(4) 0.0065(3)
B2 B 0.8453(4) 0.5834(4) -0.0473(3)
B3 B 0.9999(4) 0.4646(4) -0.0370(3)
H3 H 1.059494 0.440584 -0.010035
B4 B 0.8198(5) 0.5392(4) -0.1193(3)
B5 B 0.9007(4) 0.3976(4) -0.0477(3)
C5 C 0.8848(5) 0.1334(4) 0.0380(3)
H4 H 0.883394 0.076927 0.057216
C6 C 0.7542(5) 0.7963(4) 0.0285(3)
C7 C 0.6361(4) 0.6904(4) 0.0310(3)
C8 C 0.8127(4) 0.2743(4) 0.0134(2)
H5 H 0.760648 0.312115 0.015855
B6 B 0.9658(4) 0.5788(4) -0.0372(3)
H6 H 1.002897 0.630228 -0.010228
C9 C 0.8104(4) 0.7368(4) -0.0006(3)
H7 H 0.870979 0.753844 -0.010761
C10 C 0.7672(4) 0.4983(4) 0.1485(3)
B7 B 1.0149(4) 0.5313(4) -0.1023(3)
H8 H 1.084565 0.550725 -0.118319
C11 C 0.9647(4) 0.2446(4) -0.0207(3)
H9 H 1.018309 0.262268 -0.041528
C12 C 0.6902(4) 0.6298(3) 0.0015(2)
H10 H 0.666828 0.572207 -0.007707
B8 B 0.9248(4) 0.5069(5) -0.1527(3)
H11 H 0.935123 0.510439 -0.202143
C13 C 0.6662(4) 0.7754(4) 0.0453(2)
H12 H 0.628271 0.816983 0.065628
C14 C 0.7074(5) 0.3248(5) -0.1351(3)
H13 H 0.686245 0.342152 -0.096711
C15 C 0.8892(4) 0.3025(3) -0.0173(2)
C16 C 0.8726(4) 0.4961(4) 0.0678(3)
C17 C 0.7925(4) 0.3555(4) -0.1555(2)
C18 C 0.6769(5) 0.6638(5) -0.2360(3)
C19 C 0.9399(5) 0.5250(6) 0.1062(3)
H14 H 1.000075 0.535953 0.092043
B9 B 0.9195(4) 0.6052(4) -0.1084(3)
H15 H 0.926095 0.673474 -0.128274
C20 C 0.7493(5) 0.6302(4) -0.2035(3)
H16 H 0.810152 0.645816 -0.213968
C21 C 0.7331(4) 0.5731(4) -0.1550(2)
C22 C 0.8112(4) 0.1907(4) 0.0407(3)
C23 C 0.6545(5) 0.2702(5) -0.1697(3)
C24 C 0.6825(6) 0.2416(5) -0.2257(3)
H17 H 0.645506 0.204022 -0.249842
B10 B 0.8532(4) 0.4235(4) -0.1197(3)
B11 B 0.9739(4) 0.4193(4) -0.1090(3)
H18 H 1.016144 0.365099 -0.129600
C25 C 0.8208(6) 0.3262(5) -0.2106(3)
H19 H 0.878576 0.344320 -0.225769
C26 C 0.5732(5) 0.5908(9) -0.1736(4)
C27 C 0.8328(5) 0.5242(6) 0.1883(3)
H20 H 0.819620 0.532164 0.229441
C28 C 0.6440(5) 0.5531(6) -0.1415(3)
H21 H 0.630813 0.512993 -0.109774
C29 C 0.7658(7) 0.2705(6) -0.2441(3)
C30 C 0.5881(6) 0.6460(8) -0.2206(4)
H22 H 0.538652 0.671402 -0.242206
C31 C 0.9185(6) 0.5379(8) 0.1655(3)
Cl11? Cl 0.4592(6) 0.5261(17) -0.1628(5)
Cl12? Cl 0.8255(15) 0.2109(15) -0.3049(8)
Cl13? Cl 1.0183(8) 0.522(2) 0.2161(4)
Cl14? Cl 0.6242(7) 0.8078(7) -0.1168(4)
Cl15? Cl 0.4354(8) 0.7696(7) -0.1462(6)
C40? C 0.525(3) 0.739(3) -0.0989(17)
H43? H 0.540146 0.674725 -0.104741
H44? H 0.507123 0.747481 -0.056735
loop_
_geom_bond_atom_site_label_1
_geom_bond_atom_site_label_2
_geom_bond_site_symmetry_1
_geom_bond_site_symmetry_2
Cl1 C22 1_555 1_555
Cl2 C7 1_555 1_555
Cl3 C4 1_555 1_555
Cl4 C6 1_555 1_555
Cl5 C10 1_555 1_555
Cl6 C18 1_555 1_555
Cl7 C23 1_555 1_555
Cl8 C31 1_555 1_555
Cl9 C26 1_555 1_555
Cl10 C29 1_555 1_555
C1 H1 1_555 1_555
C2 H2 1_555 1_555
B1 C2 1_555 1_555
C3 B2 1_555 1_555
C4 C5 1_555 1_555
B2 C2 1_555 1_555
B3 B1 1_555 1_555
H3 B3 1_555 1_555
B4 C2 1_555 1_555
B5 C2 1_555 1_555
C5 H4 1_555 1_555
C6 C9 1_555 1_555
C7 C12 1_555 1_555
C8 H5 1_555 1_555
B6 B1 1_555 1_555
H6 B6 1_555 1_555
C9 C3 1_555 1_555
H7 C9 1_555 1_555
C10 C1 1_555 1_555
B7 B3 1_555 1_555
H8 B7 1_555 1_555
C11 C4 1_555 1_555
H9 C11 1_555 1_555
C12 C3 1_555 1_555
H10 C12 1_555 1_555
B8 B4 1_555 1_555
H11 B8 1_555 1_555
C13 C6 1_555 1_555
H12 C13 1_555 1_555
C14 H13 1_555 1_555
C15 B5 1_555 1_555
C16 C1 1_555 1_555
C17 C14 1_555 1_555
C18 C20 1_555 1_555
C19 C16 1_555 1_555
H14 C19 1_555 1_555
B9 B2 1_555 1_555
H15 B9 1_555 1_555
C20 H16 1_555 1_555
C21 B4 1_555 1_555
C22 C5 1_555 1_555
C23 C14 1_555 1_555
C24 C23 1_555 1_555
H17 C24 1_555 1_555
B10 C2 1_555 1_555
B11 B3 1_555 1_555
H18 B11 1_555 1_555
C25 C17 1_555 1_555
H19 C25 1_555 1_555
C26 C28 1_555 1_555
C27 C10 1_555 1_555
H20 C27 1_555 1_555
C28 C21 1_555 1_555
H21 C28 1_555 1_555
C29 C24 1_555 1_555
C30 C18 1_555 1_555
H22 C30 1_555 1_555
C31 C19 1_555 1_555
N1 C32 1_555 1_555
C32 H23 1_555 1_555
H24 C32 1_555 1_555
C33 C32 1_555 1_555
H25 C33 1_555 1_555
H26 C33 1_555 1_555
H27 C33 1_555 1_555
C34 N1 1_555 1_555
H28 C34 1_555 1_555
H29 C34 1_555 1_555
C35 N1 1_555 1_555
H30 C35 1_555 1_555
H31 C35 1_555 1_555
C36 C34 1_555 1_555
H32 C36 1_555 1_555
H33 C36 1_555 1_555
H34 C36 1_555 1_555
C37 N1 1_555 1_555
H35 C37 1_555 1_555
H36 C37 1_555 1_555
C38 C37 1_555 1_555
H37 C38 1_555 1_555
H38 C38 1_555 1_555
H39 C38 1_555 1_555
C39 C35 1_555 1_555
H40 C39 1_555 1_555
H41 C39 1_555 1_555
H42 C39 1_555 1_555
B1 B2 1_555 1_555
B1 B5 1_555 1_555
B1 C16 1_555 1_555
B2 B4 1_555 1_555
B2 B6 1_555 1_555
B3 B5 1_555 1_555
B3 B6 1_555 1_555
B4 B9 1_555 1_555
B4 B10 1_555 1_555
B5 B10 1_555 1_555
B5 B11 1_555 1_555
C7 C13 1_555 1_555
C8 C15 1_555 1_555
C8 C22 1_555 1_555
B6 B7 1_555 1_555
B6 B9 1_555 1_555
B7 B8 1_555 1_555
B7 B9 1_555 1_555
B7 B11 1_555 1_555
C11 C15 1_555 1_555
B8 B9 1_555 1_555
B8 B10 1_555 1_555
B8 B11 1_555 1_555
C17 B10 1_555 1_555
C20 C21 1_555 1_555
B10 B11 1_555 1_555
C25 C29 1_555 1_555
C26 C30 1_555 1_555
C27 C31 1_555 1_555

#END
