
#######################################################################
#
#                 Cambridge Crystallographic Data Centre
#                                CCDC 
#
#######################################################################
#
# If this CIF has been generated from an entry in the Cambridge 
# Structural Database, then it will include bibliographic, chemical, 
# crystal, experimental, refinement or atomic coordinate data resulting 
# from the CCDC's data processing and validation procedures.
#
#######################################################################

data_AFOHAG
_chemical_formula_moiety         'C16 H16 Br1 N1 O4'
_chemical_name_systematic        
(2S,3S)-3-(3-Bromophenyl)-6,6-dimethyl-2-nitro-2,3,6,7-tetrahydrobenzofuran-4(5H)-one
_symmetry_cell_setting           orthorhombic
_symmetry_space_group_name_H-M   'P 21 21 21'
_symmetry_Int_Tables_number      19
_space_group_name_Hall           'P 2ac 2ab'
loop_
_symmetry_equiv_pos_site_id
_symmetry_equiv_pos_as_xyz
1 x,y,z
2 1/2-x,-y,1/2+z
3 1/2+x,1/2-y,-z
4 -x,1/2+y,1/2-z
_cell_length_a                   6.6799(7)
_cell_length_b                   7.3713(9)
_cell_length_c                   32.9075(14)
_cell_angle_alpha                90
_cell_angle_beta                 90
_cell_angle_gamma                90
_cell_volume                     1620.35
_exptl_crystal_colour            colorless
_exptl_crystal_description       chunk
_cell_formula_units_Z            4
loop_
_atom_site_label
_atom_site_type_symbol
_atom_site_fract_x
_atom_site_fract_y
_atom_site_fract_z
C1 C 0.7480(8) 0.0956(7) 0.38377(16)
H1 H 0.7209 -0.0091 0.3663
C2 C 0.7540(7) 0.2708(7) 0.35851(13)
H2 H 0.8923 0.3142 0.3564
C3 C 0.6377(8) 0.3915(6) 0.38649(13)
C4 C 0.6168(8) 0.5877(7) 0.38557(14)
C5 C 0.5014(8) 0.6680(7) 0.42097(15)
H3 H 0.4417 0.7813 0.4122
H4 H 0.5956 0.6963 0.4425
C6 C 0.3350(8) 0.5471(7) 0.43873(14)
C7 C 0.4211(8) 0.3581(7) 0.44910(14)
H5 H 0.4962 0.3648 0.4743
H6 H 0.3123 0.2726 0.4529
C8 C 0.5546(7) 0.2937(7) 0.41577(13)
C9 C 0.2524(9) 0.6355(8) 0.47723(16)
H7 H 0.3577 0.6471 0.4969
H8 H 0.1473 0.5614 0.4882
H9 H 0.2004 0.7534 0.4708
C10 C 0.1679(8) 0.5273(8) 0.40747(16)
H10 H 0.2203 0.4722 0.3833
H11 H 0.1147 0.6448 0.4010
H12 H 0.0635 0.4524 0.4184
C11 C 0.6670(6) 0.2454(7) 0.31637(13)
C12 C 0.4643(8) 0.2067(8) 0.31090(16)
H13 H 0.3787 0.1999 0.3331
C13 C 0.3924(9) 0.1789(9) 0.27221(18)
H14 H 0.2568 0.1561 0.2684
C14 C 0.5172(10) 0.1840(9) 0.23926(17)
H15 H 0.4667 0.1635 0.2133
C15 C 0.7173(8) 0.2196(9) 0.24461(15)
C16 C 0.7912(8) 0.2488(8) 0.28321(13)
H16 H 0.9272 0.2710 0.2868
N1 N 0.9468(8) 0.0706(7) 0.40626(16)
O1 O 0.6964(5) 0.6824(5) 0.35982(10)
O2 O 0.5974(6) 0.1130(4) 0.41360(10)
O3 O 0.9540(7) 0.0943(7) 0.44265(13)
O4 O 1.0920(7) 0.0381(7) 0.38474(15)
Br1 Br 0.89492(12) 0.22108(12) 0.200225(18)
loop_
_geom_bond_atom_site_label_1
_geom_bond_atom_site_label_2
_geom_bond_site_symmetry_1
_geom_bond_site_symmetry_2
C1 H1 1_555 1_555
C2 C1 1_555 1_555
H2 C2 1_555 1_555
C3 C2 1_555 1_555
C4 C3 1_555 1_555
C5 C4 1_555 1_555
H3 C5 1_555 1_555
H4 C5 1_555 1_555
C6 C5 1_555 1_555
C7 C6 1_555 1_555
H5 C7 1_555 1_555
H6 C7 1_555 1_555
C8 C3 1_555 1_555
C9 C6 1_555 1_555
H7 C9 1_555 1_555
H8 C9 1_555 1_555
H9 C9 1_555 1_555
C10 C6 1_555 1_555
H10 C10 1_555 1_555
H11 C10 1_555 1_555
H12 C10 1_555 1_555
C11 C2 1_555 1_555
C12 C11 1_555 1_555
H13 C12 1_555 1_555
C13 C12 1_555 1_555
H14 C13 1_555 1_555
C14 C13 1_555 1_555
H15 C14 1_555 1_555
C15 C14 1_555 1_555
C16 C11 1_555 1_555
H16 C16 1_555 1_555
N1 C1 1_555 1_555
O1 C4 1_555 1_555
O2 C1 1_555 1_555
O3 N1 1_555 1_555
O4 N1 1_555 1_555
Br1 C15 1_555 1_555
C7 C8 1_555 1_555
C8 O2 1_555 1_555
C15 C16 1_555 1_555

#END
