
#######################################################################
#
#                 Cambridge Crystallographic Data Centre
#                                CCDC 
#
#######################################################################
#
# If this CIF has been generated from an entry in the Cambridge 
# Structural Database, then it will include bibliographic, chemical, 
# crystal, experimental, refinement or atomic coordinate data resulting 
# from the CCDC's data processing and validation procedures.
#
#######################################################################

data_AFOLOX
_chemical_formula_moiety         'C10 H12 N2 O5 S1'
_chemical_name_systematic        N-(p-Acetamidobenzenesulfonyl)glycine
_symmetry_cell_setting           orthorhombic
_symmetry_space_group_name_H-M   'P b c a'
_symmetry_Int_Tables_number      61
_space_group_name_Hall           '-P 2ac 2ab'
loop_
_symmetry_equiv_pos_site_id
_symmetry_equiv_pos_as_xyz
1 x,y,z
2 1/2-x,-y,1/2+z
3 -x,1/2+y,1/2-z
4 1/2+x,1/2-y,-z
5 -x,-y,-z
6 1/2+x,y,1/2-z
7 x,1/2-y,1/2+z
8 1/2-x,1/2+y,z
_cell_length_a                   12.134(2)
_cell_length_b                   8.9018(15)
_cell_length_c                   22.439(4)
_cell_angle_alpha                90
_cell_angle_beta                 90
_cell_angle_gamma                90
_cell_volume                     2423.74
_cell_formula_units_Z            8
loop_
_atom_site_label
_atom_site_type_symbol
_atom_site_fract_x
_atom_site_fract_y
_atom_site_fract_z
S1 S 0.95082(4) 1.18898(5) 0.73501(2)
O1 O 0.77562(14) 0.7819(2) 0.48830(8)
O2 O 0.89615(15) 1.32295(15) 0.75470(8)
O3 O 1.06389(12) 1.19802(18) 0.71661(8)
O4 O 0.94314(14) 0.9352(2) 0.89926(8)
O5 O 0.76732(14) 0.8749(3) 0.88980(8)
H1 H 0.7769 0.8370 0.9227
N1 N 0.66426(15) 0.8959(2) 0.55552(8)
H2 H 0.5959 0.9102 0.5640
N2 N 0.94778(14) 1.06964(19) 0.78961(8)
H3 H 1.0079 1.0325 0.8035
C1 C 0.5814(2) 0.7375(3) 0.48146(12)
H4 H 0.5784 0.7610 0.4397
H5 H 0.5172 0.7770 0.5009
H6 H 0.5837 0.6304 0.4865
C2 C 0.68274(19) 0.8062(3) 0.50829(10)
C3 C 0.73956(17) 0.9701(2) 0.59341(8)
C4 C 0.69382(17) 1.0696(3) 0.63425(9)
H7 H 0.6185 1.0890 0.6333
C5 C 0.75890(17) 1.1397(2) 0.67610(10)
H8 H 0.7277 1.2054 0.7036
C6 C 0.87121(17) 1.1116(2) 0.67702(9)
C7 C 0.91852(18) 1.0150(3) 0.63584(10)
H9 H 0.9940 0.9971 0.6366
C8 C 0.85278(17) 0.9449(3) 0.59345(10)
H10 H 0.8843 0.8816 0.5652
C9 C 0.84122(17) 1.0261(3) 0.81486(10)
H11 H 0.8018 0.9633 0.7867
H12 H 0.7972 1.1152 0.8223
C10 C 0.85819(18) 0.9413(2) 0.87246(10)
loop_
_geom_bond_atom_site_label_1
_geom_bond_atom_site_label_2
_geom_bond_site_symmetry_1
_geom_bond_site_symmetry_2
S1 O2 1_555 1_555
O1 C2 1_555 1_555
O3 S1 1_555 1_555
O4 C10 1_555 1_555
O5 H1 1_555 1_555
N1 H2 1_555 1_555
N2 S1 1_555 1_555
H3 N2 1_555 1_555
C1 H4 1_555 1_555
H5 C1 1_555 1_555
H6 C1 1_555 1_555
C2 N1 1_555 1_555
C3 N1 1_555 1_555
C4 C3 1_555 1_555
H7 C4 1_555 1_555
C5 C4 1_555 1_555
H8 C5 1_555 1_555
C6 S1 1_555 1_555
C7 C6 1_555 1_555
H9 C7 1_555 1_555
C8 C3 1_555 1_555
H10 C8 1_555 1_555
C9 N2 1_555 1_555
H11 C9 1_555 1_555
H12 C9 1_555 1_555
C10 O5 1_555 1_555
C1 C2 1_555 1_555
C5 C6 1_555 1_555
C7 C8 1_555 1_555
C9 C10 1_555 1_555

#END
