
#######################################################################
#
#                 Cambridge Crystallographic Data Centre
#                                CCDC 
#
#######################################################################
#
# If this CIF has been generated from an entry in the Cambridge 
# Structural Database, then it will include bibliographic, chemical, 
# crystal, experimental, refinement or atomic coordinate data resulting 
# from the CCDC's data processing and validation procedures.
#
#######################################################################

data_AFONOA
_chemical_formula_moiety         'C12 H10 N4 O2'
_chemical_name_systematic        
4-Nitro-N^2^-(pyridin-4-ylmethylidene)benzene-1,2-diamine
_symmetry_cell_setting           monoclinic
_symmetry_space_group_name_H-M   'C 2/c'
_symmetry_Int_Tables_number      15
_space_group_name_Hall           '-C 2yn'
loop_
_symmetry_equiv_pos_site_id
_symmetry_equiv_pos_as_xyz
1 x,y,z
2 -x,y,1/2-z
3 1/2+x,1/2+y,z
4 1/2-x,1/2+y,1/2-z
5 -x,-y,-z
6 x,-y,1/2+z
7 1/2-x,1/2-y,-z
8 1/2+x,1/2-y,1/2+z
_cell_length_a                   21.324(4)
_cell_length_b                   9.1480(18)
_cell_length_c                   12.950(3)
_cell_angle_alpha                90
_cell_angle_beta                 116.36(3)
_cell_angle_gamma                90
_cell_volume                     2263.51
_exptl_crystal_colour            yellow
_exptl_crystal_description       block
_chemical_melting_point          '449.65 K'
_cell_formula_units_Z            8
_exptl_crystal_recrystallization_method ethanol
loop_
_atom_site_label
_atom_site_type_symbol
_atom_site_fract_x
_atom_site_fract_y
_atom_site_fract_z
C1 C 0.32477(14) 0.2795(3) -0.0542(3)
H1 H 0.3229 0.2145 -0.1108
N1 N 0.23039(15) 0.4169(4) -0.2041(3)
O1 O 0.18599(16) 0.5126(4) -0.2272(3)
N2 N 0.42131(15) 0.3378(3) 0.2557(2)
H2 H 0.4219 0.3980 0.3072
H3 H 0.4499 0.2652 0.2754
C2 C 0.27963(16) 0.3970(4) -0.0840(3)
O2 O 0.23537(15) 0.3379(4) -0.2766(3)
N3 N 0.42154(12) 0.1420(2) 0.09465(19)
C3 C 0.28139(17) 0.4952(4) -0.0015(4)
H4 H 0.2506 0.5740 -0.0223
C4 C 0.32854(17) 0.4753(3) 0.1102(4)
H5 H 0.3297 0.5414 0.1656
N4 N 0.53086(14) -0.3605(2) 0.1282(2)
C5 C 0.37562(15) 0.3574(3) 0.1443(3)
C6 C 0.37257(14) 0.2579(3) 0.0586(2)
C7 C 0.40423(15) 0.0216(3) 0.0405(2)
H6 H 0.3597 0.0141 -0.0205
C8 C 0.45009(14) -0.1054(3) 0.0682(2)
C9 C 0.52046(15) -0.1025(3) 0.1456(2)
H7 H 0.5420 -0.0148 0.1789
C10 C 0.55786(15) -0.2301(3) 0.1725(2)
H8 H 0.6050 -0.2258 0.2247
C11 C 0.46362(17) -0.3624(3) 0.0523(3)
H9 H 0.4435 -0.4513 0.0194
C12 C 0.42246(16) -0.2395(3) 0.0201(3)
H10 H 0.3759 -0.2464 -0.0341
loop_
_geom_bond_atom_site_label_1
_geom_bond_atom_site_label_2
_geom_bond_site_symmetry_1
_geom_bond_site_symmetry_2
C1 H1 1_555 1_555
N1 O1 1_555 1_555
N2 H2 1_555 1_555
H3 N2 1_555 1_555
C2 C1 1_555 1_555
O2 N1 1_555 1_555
N3 C6 1_555 1_555
C3 C2 1_555 1_555
H4 C3 1_555 1_555
C4 C3 1_555 1_555
H5 C4 1_555 1_555
N4 C10 1_555 1_555
C5 N2 1_555 1_555
C6 C1 1_555 1_555
C7 N3 1_555 1_555
H6 C7 1_555 1_555
C8 C7 1_555 1_555
C9 C8 1_555 1_555
H7 C9 1_555 1_555
C10 C9 1_555 1_555
H8 C10 1_555 1_555
C11 N4 1_555 1_555
H9 C11 1_555 1_555
C12 C8 1_555 1_555
H10 C12 1_555 1_555
N1 C2 1_555 1_555
C4 C5 1_555 1_555
C5 C6 1_555 1_555
C11 C12 1_555 1_555

#END
