
#######################################################################
#
#                 Cambridge Crystallographic Data Centre
#                                CCDC 
#
#######################################################################
#
# If this CIF has been generated from an entry in the Cambridge 
# Structural Database, then it will include bibliographic, chemical, 
# crystal, experimental, refinement or atomic coordinate data resulting 
# from the CCDC's data processing and validation procedures.
#
#######################################################################

data_AFOQIX
_chemical_formula_moiety         'C2 H7 N4 O1 1+,C2 H1 N4 O3 1-'
_chemical_name_systematic        
'Carbamoyl(diaminomethylidene)azanium 3-nitro-5-oxo-4,5-dihydro-1H-1,2,4-triazol-4-ide'
_symmetry_cell_setting           monoclinic
_symmetry_space_group_name_H-M   'P 21/n'
_symmetry_Int_Tables_number      14
_space_group_name_Hall           '-P 2yn'
loop_
_symmetry_equiv_pos_site_id
_symmetry_equiv_pos_as_xyz
1 x,y,z
2 1/2-x,1/2+y,1/2-z
3 -x,-y,-z
4 1/2+x,1/2-y,1/2+z
_cell_length_a                   3.7100(5)
_cell_length_b                   13.4195(19)
_cell_length_c                   18.033(3)
_cell_angle_alpha                90
_cell_angle_beta                 94.143(3)
_cell_angle_gamma                90
_cell_volume                     895.451
_exptl_crystal_colour            yellow
_exptl_crystal_description       prism
_cell_formula_units_Z            4
loop_
_atom_site_label
_atom_site_type_symbol
_atom_site_fract_x
_atom_site_fract_y
_atom_site_fract_z
O1 O 0.3898(4) 0.79686(10) 0.74934(8)
O2 O 0.9393(5) 0.48678(10) 0.86971(9)
O3 O 1.2361(4) 0.56912(12) 0.95758(9)
N1 N 0.7380(5) 0.80376(12) 0.86167(9)
N2 N 0.9228(5) 0.73874(11) 0.90892(8)
N3 N 0.6699(5) 0.65784(11) 0.80734(9)
N4 N 1.0257(5) 0.56440(12) 0.90216(9)
C1 C 0.8697(5) 0.65588(13) 0.87193(10)
C2 C 0.5814(5) 0.75613(14) 0.80084(10)
H1 H 0.703(6) 0.8651(17) 0.8753(12)
O4 O 0.0042(5) 0.49420(10) 0.59852(8)
N5 N 0.3102(5) 0.50638(14) 0.71153(9)
N6 N 0.1708(5) 0.64808(12) 0.64482(9)
N7 N -0.1373(5) 0.66445(15) 0.52843(10)
N8 N 0.0601(6) 0.80164(14) 0.59459(12)
C3 C 0.1543(6) 0.54422(14) 0.64972(10)
C4 C 0.0251(6) 0.70408(14) 0.58795(10)
H2 H 0.434(6) 0.5511(18) 0.7446(12)
H3 H 0.290(7) 0.440(2) 0.7190(14)
H4 H 0.257(7) 0.6841(19) 0.6834(13)
H5 H 0.177(8) 0.8310(19) 0.6379(16)
H6 H -0.034(7) 0.8406(18) 0.5601(13)
H7 H -0.248(6) 0.7032(18) 0.4929(13)
H8 H -0.162(6) 0.6015(18) 0.5248(13)
loop_
_geom_bond_atom_site_label_1
_geom_bond_atom_site_label_2
_geom_bond_site_symmetry_1
_geom_bond_site_symmetry_2
O1 C2 1_555 1_555
O2 N4 1_555 1_555
O3 N4 1_555 1_555
N1 N2 1_555 1_555
N2 C1 1_555 1_555
N3 C1 1_555 1_555
N4 C1 1_555 1_555
C2 N1 1_555 1_555
H1 N1 1_555 1_555
O4 C3 1_555 1_555
N5 C3 1_555 1_555
N6 C3 1_555 1_555
N7 C4 1_555 1_555
N8 C4 1_555 1_555
C4 N6 1_555 1_555
H2 N5 1_555 1_555
H3 N5 1_555 1_555
H4 N6 1_555 1_555
H5 N8 1_555 1_555
H6 N8 1_555 1_555
H7 N7 1_555 1_555
H8 N7 1_555 1_555
N3 C2 1_555 1_555

#END
