
#######################################################################
#
#                 Cambridge Crystallographic Data Centre
#                                CCDC 
#
#######################################################################
#
# If this CIF has been generated from an entry in the Cambridge 
# Structural Database, then it will include bibliographic, chemical, 
# crystal, experimental, refinement or atomic coordinate data resulting 
# from the CCDC's data processing and validation procedures.
#
#######################################################################

data_AFUCAF
_chemical_formula_moiety         'C26 H26 B1 P1'
_chemical_name_systematic        
1-((Triphenylphosphonio)methyl)-3,5-dimethyl-1-boratabenzene
_symmetry_cell_setting           monoclinic
_symmetry_space_group_name_H-M   'P 21/n'
_symmetry_Int_Tables_number      14
_space_group_name_Hall           '-P 2yn'
loop_
_symmetry_equiv_pos_site_id
_symmetry_equiv_pos_as_xyz
1 x,y,z
2 1/2+x,1/2-y,1/2+z
3 -x,-y,-z
4 1/2-x,1/2+y,1/2-z
_cell_length_a                   9.498(2)
_cell_length_b                   12.950(3)
_cell_length_c                   17.303(5)
_cell_angle_alpha                90
_cell_angle_beta                 93.04(3)
_cell_angle_gamma                90
_cell_volume                     2125.26
_exptl_crystal_colour            'pale yellow'
_exptl_crystal_description       needle
_cell_formula_units_Z            4
_chemical_properties_physical    'air- and moisture-sensitive'
_exptl_crystal_recrystallization_method toluene
loop_
_atom_site_label
_atom_site_type_symbol
_atom_site_fract_x
_atom_site_fract_y
_atom_site_fract_z
P1 P 0.61679(11) 0.59158(9) 0.18006(5)
C1 C 0.5268(5) 0.5246(3) 0.1012(2)
B1 B 0.5505(5) 0.4015(4) 0.0934(2)
C2 C 0.4239(5) 0.3345(4) 0.0975(2)
C3 C 0.4337(5) 0.2290(4) 0.0853(2)
C4 C 0.5615(6) 0.1846(4) 0.0689(2)
C5 C 0.6830(5) 0.2429(4) 0.06332(19)
C6 C 0.6841(4) 0.3475(4) 0.0758(2)
C7 C 0.8147(6) 0.1884(5) 0.0405(3)
C8 C 0.3049(7) 0.1600(5) 0.0888(3)
C9 C 0.6024(4) 0.5211(3) 0.26850(19)
C10 C 0.7157(5) 0.4703(3) 0.3040(2)
C11 C 0.7001(5) 0.4148(4) 0.3710(2)
C12 C 0.5757(5) 0.4089(4) 0.4024(3)
C13 C 0.4626(5) 0.4570(4) 0.3670(3)
C14 C 0.4747(5) 0.5130(4) 0.2997(3)
C15 C 0.7973(4) 0.6145(3) 0.1627(2)
C16 C 0.8549(6) 0.5922(4) 0.0939(3)
C17 C 0.9914(6) 0.6125(4) 0.0805(3)
C18 C 1.0761(6) 0.6577(4) 0.1385(4)
C19 C 1.0207(5) 0.6845(4) 0.2074(3)
C20 C 0.8851(5) 0.6636(3) 0.2206(3)
C21 C 0.5353(4) 0.7129(3) 0.1944(2)
C22 C 0.5340(5) 0.7597(4) 0.2677(2)
C23 C 0.4725(5) 0.8525(4) 0.2768(3)
C24 C 0.4126(5) 0.9028(4) 0.2133(3)
C25 C 0.4151(5) 0.8605(4) 0.1407(3)
C26 C 0.4732(4) 0.7666(4) 0.1310(3)
H1 H 0.567(3) 0.563(3) 0.0594(19)
H2 H 0.423(4) 0.536(3) 0.116(2)
H3 H 0.774(3) 0.377(2) 0.0644(16)
H4 H 0.559(3) 0.113(3) 0.0619(18)
H5 H 0.334(3) 0.368(2) 0.1073(17)
H6 H 0.831(4) 0.182(3) -0.016(2)
H7 H 0.826(5) 0.118(4) 0.055(3)
H8 H 0.907(4) 0.230(3) 0.055(2)
H9 H 0.3096(19) 0.110(2) 0.0538(17)
H10 H 0.227(2) 0.1974(12) 0.079(2)
H11 H 0.302(2) 0.132(2) 0.1360(15)
H12 H 0.811(3) 0.470(3) 0.2861(19)
H13 H 0.777(4) 0.380(3) 0.379(2)
H14 H 0.550(4) 0.373(3) 0.448(2)
H15 H 0.385(3) 0.460(3) 0.3870(18)
H16 H 0.400(3) 0.555(3) 0.272(2)
H17 H 0.598(4) 0.715(3) 0.314(2)
H18 H 0.794(4) 0.560(3) 0.065(2)
H19 H 1.021(4) 0.575(3) 0.031(2)
H20 H 1.175(3) 0.666(3) 0.1279(18)
H21 H 1.081(4) 0.725(3) 0.249(2)
H22 H 0.852(4) 0.684(3) 0.267(2)
H23 H 0.470(4) 0.875(3) 0.325(2)
H24 H 0.385(3) 0.965(2) 0.2132(19)
H25 H 0.393(5) 0.895(3) 0.095(3)
H26 H 0.502(4) 0.742(3) 0.085(2)
loop_
_geom_bond_atom_site_label_1
_geom_bond_atom_site_label_2
_geom_bond_site_symmetry_1
_geom_bond_site_symmetry_2
P1 C1 1_555 1_555
C1 B1 1_555 1_555
B1 C2 1_555 1_555
C2 C3 1_555 1_555
C3 C4 1_555 1_555
C4 C5 1_555 1_555
C5 C6 1_555 1_555
C6 B1 1_555 1_555
C7 C5 1_555 1_555
C8 C3 1_555 1_555
C9 P1 1_555 1_555
C10 C9 1_555 1_555
C11 C10 1_555 1_555
C12 C11 1_555 1_555
C13 C12 1_555 1_555
C14 C9 1_555 1_555
C15 P1 1_555 1_555
C16 C15 1_555 1_555
C17 C16 1_555 1_555
C18 C17 1_555 1_555
C19 C18 1_555 1_555
C20 C15 1_555 1_555
C21 P1 1_555 1_555
C22 C21 1_555 1_555
C23 C22 1_555 1_555
C24 C23 1_555 1_555
C25 C24 1_555 1_555
C26 C21 1_555 1_555
H1 C1 1_555 1_555
H2 C1 1_555 1_555
H3 C6 1_555 1_555
H4 C4 1_555 1_555
H5 C2 1_555 1_555
H6 C7 1_555 1_555
H7 C7 1_555 1_555
H8 C7 1_555 1_555
H9 C8 1_555 1_555
H10 C8 1_555 1_555
H11 C8 1_555 1_555
H12 C10 1_555 1_555
H13 C11 1_555 1_555
H14 C12 1_555 1_555
H15 C13 1_555 1_555
H16 C14 1_555 1_555
H17 C22 1_555 1_555
H18 C16 1_555 1_555
H19 C17 1_555 1_555
H20 C18 1_555 1_555
H21 C19 1_555 1_555
H22 C20 1_555 1_555
H23 C23 1_555 1_555
H24 C24 1_555 1_555
H25 C25 1_555 1_555
H26 C26 1_555 1_555
C13 C14 1_555 1_555
C19 C20 1_555 1_555
C25 C26 1_555 1_555

#END
