
#######################################################################
#
#                 Cambridge Crystallographic Data Centre
#                                CCDC 
#
#######################################################################
#
# If this CIF has been generated from an entry in the Cambridge 
# Structural Database, then it will include bibliographic, chemical, 
# crystal, experimental, refinement or atomic coordinate data resulting 
# from the CCDC's data processing and validation procedures.
#
#######################################################################

data_AFUCEJ
_chemical_formula_moiety         'C29 H34 B1 P1 Si1,0.5(C7 H8)'
_chemical_name_systematic        
'1-((Trimethylsilyl)(triphenylphosphonio)methyl)-3,5-dimethyl-1-boratabenzene toluene solvate'
_symmetry_cell_setting           triclinic
_symmetry_space_group_name_H-M   'P -1'
_symmetry_Int_Tables_number      2
_space_group_name_Hall           '-P 1'
loop_
_symmetry_equiv_pos_site_id
_symmetry_equiv_pos_as_xyz
1 x,y,z
2 -x,-y,-z
_cell_length_a                   9.141(2)
_cell_length_b                   10.733(1)
_cell_length_c                   14.701(2)
_cell_angle_alpha                84.888(8)
_cell_angle_beta                 82.61(1)
_cell_angle_gamma                81.40(1)
_cell_volume                     1410.66
_exptl_crystal_colour            yellow
_exptl_crystal_description       rod
_cell_formula_units_Z            2
_chemical_properties_physical    'air- and moisture-sensitive'
loop_
_atom_site_label
_atom_site_type_symbol
_atom_site_fract_x
_atom_site_fract_y
_atom_site_fract_z
P1 P 0.03379(6) 0.26843(5) 0.25001(4)
C1 C 0.2308(2) 0.2456(2) 0.23324(15)
Si1 Si 0.33786(6) 0.31048(6) 0.12367(4)
C2 C 0.2478(3) 0.4642(2) 0.07178(19)
C3 C 0.5158(3) 0.3436(3) 0.1596(2)
C4 C 0.3797(3) 0.1935(3) 0.03459(18)
B1 B 0.3100(3) 0.0990(2) 0.25471(17)
C5 C 0.4297(2) 0.0752(2) 0.31834(15)
C6 C 0.2781(2) -0.0136(2) 0.21154(15)
C7 C 0.5059(2) -0.0456(2) 0.33289(15)
C8 C 0.4727(2) -0.1456(2) 0.28797(16)
C9 C 0.3612(2) -0.1317(2) 0.22907(15)
C10 C 0.3327(4) -0.2475(3) 0.1875(2)
C11 C 0.6245(3) -0.0731(3) 0.3977(2)
C12 C -0.0377(2) 0.22414(19) 0.36642(14)
C13 C 0.0559(3) 0.1722(2) 0.43147(16)
C14 C -0.1914(3) 0.2496(2) 0.39257(17)
C15 C -0.0519(2) 0.1903(2) 0.17153(15)
C16 C -0.0367(2) 0.4354(2) 0.23663(15)
C17 C -0.1441(3) 0.4845(2) 0.17953(18)
C18 C 0.0178(3) 0.5168(2) 0.2875(2)
C19 C -0.0048(3) 0.1454(3) 0.52111(17)
C20 C -0.1492(3) 0.1030(2) 0.20216(17)
C21 C -0.1929(3) 0.0839(2) 0.04685(18)
C22 C -0.1568(3) 0.1677(2) 0.54634(17)
C23 C -0.2203(3) 0.0507(2) 0.13981(19)
C24 C -0.2501(3) 0.2204(2) 0.48175(17)
C25 C -0.0943(3) 0.1684(3) 0.01577(18)
C26 C -0.0249(3) 0.2223(2) 0.07750(16)
C27 C -0.1348(3) 0.6930(3) 0.2219(2)
C28 C -0.0296(3) 0.6449(3) 0.2803(2)
C29 C -0.1917(3) 0.6137(3) 0.1724(2)
H1 H 0.249(2) 0.297(2) 0.2782(16)
H2 H 0.461(3) 0.139(2) 0.3518(17)
H3 H 0.521(3) -0.221(2) 0.2996(17)
H4 H 0.207(3) -0.015(3) 0.170(2)
H5 H -0.169(3) 0.083(2) 0.2683(17)
H6 H -0.290(3) -0.007(3) 0.164(2)
H7 H -0.244(3) 0.047(2) 0.0032(18)
H8 H -0.079(3) 0.197(2) -0.0445(18)
H9 H 0.036(3) 0.283(2) 0.0564(16)
H10 H 0.157(3) 0.158(2) 0.4128(18)
H11 H 0.059(3) 0.103(3) 0.564(2)
H12 H -0.200(3) 0.144(3) 0.607(2)
H13 H -0.358(3) 0.236(2) 0.4990(17)
H14 H -0.253(3) 0.286(3) 0.3519(19)
H15 H -0.185(3) 0.427(2) 0.1443(18)
H16 H -0.270(4) 0.654(3) 0.138(3)
H17 H -0.160(4) 0.777(3) 0.218(2)
H18 H 0.016(3) 0.696(3) 0.315(2)
H19 H 0.085(3) 0.485(3) 0.324(2)
H20 H 0.236(4) 0.534(3) 0.113(2)
H21 H 0.158(3) 0.456(3) 0.042(2)
H22 H 0.318(3) 0.493(3) 0.026(2)
H23 H 0.505(4) 0.421(3) 0.188(2)
H24 H 0.556(3) 0.274(3) 0.196(2)
H25 H 0.590(4) 0.345(3) 0.102(3)
H26 H 0.437(4) 0.223(3) -0.014(2)
H27 H 0.291(4) 0.170(3) 0.017(2)
H28 H 0.442(3) 0.112(3) 0.058(2)
H29 H 0.317(5) -0.237(4) 0.128(3)
H30 H 0.391(5) -0.303(4) 0.193(3)
H31 H 0.242(6) -0.277(4) 0.213(3)
H32 H 0.660(3) 0.005(3) 0.414(2)
H33 H 0.590(5) -0.113(4) 0.448(3)
H34 H 0.707(4) -0.121(4) 0.368(3)
C30? C 0.4582(16) 0.479(2) 0.5875(8)
H35? H 0.3982 0.4500 0.6434
C31? C 0.4992(16) 0.5093(19) 0.4252(8)
H36? H 0.4681 0.5026 0.3647
C32? C 0.5912(9) 0.5255(6) 0.5942(5)
H37? H 0.6238 0.5319 0.6543
C33? C 0.2677(11) 0.4289(14) 0.4929(9)
H38? H 0.1871 0.5004 0.4964
H39? H 0.2468 0.3646 0.5426
H40? H 0.2745 0.3925 0.4334
C34? C 0.6747(11) 0.5619(13) 0.5151(8)
H41? H 0.7683 0.5939 0.5192
C35? C 0.4110(7) 0.4735(5) 0.5022(4)
C36? C 0.6311(9) 0.5549(6) 0.4304(5)
H42? H 0.6924 0.5817 0.3744
loop_
_geom_bond_atom_site_label_1
_geom_bond_atom_site_label_2
_geom_bond_site_symmetry_1
_geom_bond_site_symmetry_2
P1 C1 1_555 1_555
C1 Si1 1_555 1_555
Si1 C2 1_555 1_555
C2 H20 1_555 1_555
C3 Si1 1_555 1_555
C4 Si1 1_555 1_555
B1 C1 1_555 1_555
C5 B1 1_555 1_555
C6 B1 1_555 1_555
C7 C5 1_555 1_555
C8 C7 1_555 1_555
C9 C6 1_555 1_555
C10 C9 1_555 1_555
C11 C7 1_555 1_555
C12 P1 1_555 1_555
C13 C12 1_555 1_555
C14 C12 1_555 1_555
C15 P1 1_555 1_555
C16 P1 1_555 1_555
C17 C16 1_555 1_555
C18 C16 1_555 1_555
C19 C13 1_555 1_555
C20 C15 1_555 1_555
C21 C23 1_555 1_555
C22 C19 1_555 1_555
C23 C20 1_555 1_555
C24 C14 1_555 1_555
C25 C21 1_555 1_555
C26 C15 1_555 1_555
C27 C28 1_555 1_555
C28 C18 1_555 1_555
C29 C17 1_555 1_555
H1 C1 1_555 1_555
H2 C5 1_555 1_555
H3 C8 1_555 1_555
H4 C6 1_555 1_555
H5 C20 1_555 1_555
H6 C23 1_555 1_555
H7 C21 1_555 1_555
H8 C25 1_555 1_555
H9 C26 1_555 1_555
H10 C13 1_555 1_555
H11 C19 1_555 1_555
H12 C22 1_555 1_555
H13 C24 1_555 1_555
H14 C14 1_555 1_555
H15 C17 1_555 1_555
H16 C29 1_555 1_555
H17 C27 1_555 1_555
H18 C28 1_555 1_555
H19 C18 1_555 1_555
H21 C2 1_555 1_555
H22 C2 1_555 1_555
H23 C3 1_555 1_555
H24 C3 1_555 1_555
H25 C3 1_555 1_555
H26 C4 1_555 1_555
H27 C4 1_555 1_555
H28 C4 1_555 1_555
H29 C10 1_555 1_555
H30 C10 1_555 1_555
H31 C10 1_555 1_555
H32 C11 1_555 1_555
H33 C11 1_555 1_555
H34 C11 1_555 1_555
C8 C9 1_555 1_555
C22 C24 1_555 1_555
C25 C26 1_555 1_555
C27 C29 1_555 1_555

#END
