
#######################################################################
#
#                 Cambridge Crystallographic Data Centre
#                                CCDC 
#
#######################################################################
#
# If this CIF has been generated from an entry in the Cambridge 
# Structural Database, then it will include bibliographic, chemical, 
# crystal, experimental, refinement or atomic coordinate data resulting 
# from the CCDC's data processing and validation procedures.
#
#######################################################################

data_AFUDEN
_chemical_formula_moiety         'C23 H17 N1 O1'
_chemical_name_systematic        
3,5-diphenyl-4,5-dihydronaphtho[1,2-c][1,2]oxazole
_symmetry_cell_setting           monoclinic
_symmetry_space_group_name_H-M   'P 21/c'
_symmetry_Int_Tables_number      14
_space_group_name_Hall           '-P 2ybc'
loop_
_symmetry_equiv_pos_site_id
_symmetry_equiv_pos_as_xyz
1 x,y,z
2 -x,1/2+y,1/2-z
3 -x,-y,-z
4 x,1/2-y,1/2+z
_cell_length_a                   5.880(3)
_cell_length_b                   10.766(5)
_cell_length_c                   25.942(12)
_cell_angle_alpha                90
_cell_angle_beta                 91.181(6)
_cell_angle_gamma                90
_cell_volume                     1641.89
_exptl_crystal_colour            colorless
_exptl_crystal_description       strip
_cell_formula_units_Z            4
loop_
_atom_site_label
_atom_site_type_symbol
_atom_site_fract_x
_atom_site_fract_y
_atom_site_fract_z
C1 C 0.3865(4) 0.8243(2) 0.40281(10)
C2 C 0.5828(4) 0.7863(2) 0.43497(10)
C3 C 0.7071(5) 0.8701(3) 0.46520(11)
H1 H 0.6630 0.9530 0.4662
C4 C 0.8948(5) 0.8317(3) 0.49369(11)
H2 H 0.9757 0.8883 0.5140
C5 C 0.9624(5) 0.7085(2) 0.49189(10)
H3 H 1.0918 0.6828 0.5101
C6 C 0.8373(5) 0.6238(2) 0.46295(10)
H4 H 0.8820 0.5409 0.4626
C7 C 0.6449(4) 0.6604(2) 0.43424(10)
C8 C 0.4867(5) 0.5661(3) 0.40772(11)
H5 H 0.3646 0.5481 0.4318
C9 C 0.6044(4) 0.4418(2) 0.39611(10)
C10 C 0.8016(5) 0.4330(3) 0.36915(11)
H6 H 0.8653 0.5046 0.3555
C11 C 0.9052(6) 0.3233(4) 0.36194(13)
H7 H 1.0407 0.3208 0.3441
C12 C 0.8149(7) 0.2152(3) 0.38041(14)
H8 H 0.8882 0.1399 0.3752
C13 C 0.6102(7) 0.2196(3) 0.40736(13)
H9 H 0.5443 0.1471 0.4197
C14 C 0.5071(5) 0.3355(3) 0.41535(10)
H10 H 0.3731 0.3405 0.4337
C15 C 0.3743(5) 0.6160(2) 0.35873(10)
H11 H 0.4846 0.6173 0.3314
H12 H 0.2512 0.5611 0.3481
C16 C 0.2827(4) 0.7440(2) 0.36620(9)
C17 C 0.1142(4) 0.8145(2) 0.34390(10)
C18 C -0.0599(4) 0.7933(2) 0.30364(10)
C19 C -0.2432(5) 0.8753(3) 0.29749(11)
H13 H -0.2538 0.9445 0.3188
C20 C -0.4094(5) 0.8538(3) 0.25967(11)
H14 H -0.5295 0.9093 0.2554
C21 C -0.3972(5) 0.7502(3) 0.22829(11)
H15 H -0.5106 0.7352 0.2035
C22 C -0.2154(5) 0.6687(3) 0.23381(10)
H16 H -0.2068 0.5991 0.2127
C23 C -0.0468(5) 0.6908(2) 0.27079(10)
H17 H 0.0763 0.6368 0.2738
N1 N 0.2917(4) 0.9348(2) 0.40402(10)
O1 O 0.1155(3) 0.92990(17) 0.36604(8)
loop_
_geom_bond_atom_site_label_1
_geom_bond_atom_site_label_2
_geom_bond_site_symmetry_1
_geom_bond_site_symmetry_2
C1 C2 1_555 1_555
C2 C3 1_555 1_555
C3 H1 1_555 1_555
C4 C3 1_555 1_555
H2 C4 1_555 1_555
C5 C4 1_555 1_555
H3 C5 1_555 1_555
C6 C5 1_555 1_555
H4 C6 1_555 1_555
C7 C2 1_555 1_555
C8 C7 1_555 1_555
H5 C8 1_555 1_555
C9 C8 1_555 1_555
C10 C9 1_555 1_555
H6 C10 1_555 1_555
C11 C10 1_555 1_555
H7 C11 1_555 1_555
C12 C11 1_555 1_555
H8 C12 1_555 1_555
C13 C12 1_555 1_555
H9 C13 1_555 1_555
C14 C9 1_555 1_555
H10 C14 1_555 1_555
C15 C8 1_555 1_555
H11 C15 1_555 1_555
H12 C15 1_555 1_555
C16 C1 1_555 1_555
C17 C16 1_555 1_555
C18 C17 1_555 1_555
C19 C18 1_555 1_555
H13 C19 1_555 1_555
C20 C19 1_555 1_555
H14 C20 1_555 1_555
C21 C20 1_555 1_555
H15 C21 1_555 1_555
C22 C21 1_555 1_555
H16 C22 1_555 1_555
C23 C18 1_555 1_555
H17 C23 1_555 1_555
N1 C1 1_555 1_555
O1 C17 1_555 1_555
C6 C7 1_555 1_555
C13 C14 1_555 1_555
C15 C16 1_555 1_555
C22 C23 1_555 1_555
N1 O1 1_555 1_555

#END
