
#######################################################################
#
#                 Cambridge Crystallographic Data Centre
#                                CCDC 
#
#######################################################################
#
# If this CIF has been generated from an entry in the Cambridge 
# Structural Database, then it will include bibliographic, chemical, 
# crystal, experimental, refinement or atomic coordinate data resulting 
# from the CCDC's data processing and validation procedures.
#
#######################################################################

data_AFUGEP
_chemical_formula_moiety         'C6 N8 O7'
_chemical_name_systematic        
4,4''-Dinitro-3,3':4',3''-ter-1,2,5-oxadiazole
_symmetry_cell_setting           orthorhombic
_symmetry_space_group_name_H-M   'P 21 21 21'
_symmetry_Int_Tables_number      19
_space_group_name_Hall           'P 2ac 2ab'
loop_
_symmetry_equiv_pos_site_id
_symmetry_equiv_pos_as_xyz
1 x,y,z
2 1/2-x,-y,1/2+z
3 -x,1/2+y,1/2-z
4 1/2+x,1/2-y,-z
_cell_length_a                   7.1490(14)
_cell_length_b                   9.801(2)
_cell_length_c                   15.283(3)
_cell_angle_alpha                90
_cell_angle_beta                 90
_cell_angle_gamma                90
_cell_volume                     1070.84
_exptl_crystal_colour            colorless
_exptl_crystal_description       prism
_cell_formula_units_Z            4
loop_
_atom_site_label
_atom_site_type_symbol
_atom_site_fract_x
_atom_site_fract_y
_atom_site_fract_z
O1 O -0.1678(3) 0.15427(18) 0.36787(14)
O2 O 0.1575(3) 0.66126(19) 0.36208(12)
O3 O -0.2633(3) 0.4965(2) 0.65624(11)
O4 O -0.4408(3) 0.5447(2) 0.40340(13)
O5 O -0.6158(3) 0.3743(3) 0.43975(16)
O6 O 0.2883(3) 0.6695(3) 0.62111(16)
O7 O 0.1537(4) 0.7334(3) 0.73978(16)
N1 N -0.3410(3) 0.2048(2) 0.38658(16)
N2 N -0.0342(3) 0.2550(2) 0.36900(15)
N3 N -0.4704(3) 0.4247(2) 0.41537(13)
N4 N 0.1192(3) 0.6799(2) 0.44910(14)
N5 N 0.0711(3) 0.5465(2) 0.32992(13)
N6 N -0.2245(3) 0.4953(2) 0.56818(12)
N7 N -0.1290(3) 0.5648(2) 0.70119(13)
N8 N 0.1571(4) 0.6745(2) 0.67015(15)
C1 C -0.3141(3) 0.3342(2) 0.39861(14)
C2 C -0.1229(3) 0.3668(2) 0.38756(13)
C3 C -0.0217(3) 0.4967(2) 0.39574(13)
C4 C 0.0083(3) 0.58004(19) 0.47045(14)
C5 C -0.0687(3) 0.5625(2) 0.55830(14)
C6 C -0.0118(3) 0.6045(2) 0.64278(14)
loop_
_geom_bond_atom_site_label_1
_geom_bond_atom_site_label_2
_geom_bond_site_symmetry_1
_geom_bond_site_symmetry_2
O1 N1 1_555 1_555
O2 N4 1_555 1_555
O3 N6 1_555 1_555
O4 N3 1_555 1_555
O5 N3 1_555 1_555
O6 N8 1_555 1_555
O7 N8 1_555 1_555
N1 C1 1_555 1_555
N2 O1 1_555 1_555
N3 C1 1_555 1_555
N4 C4 1_555 1_555
N5 O2 1_555 1_555
N6 C5 1_555 1_555
N7 O3 1_555 1_555
N8 C6 1_555 1_555
C1 C2 1_555 1_555
C2 N2 1_555 1_555
C3 N5 1_555 1_555
C4 C3 1_555 1_555
C5 C4 1_555 1_555
C6 N7 1_555 1_555
C2 C3 1_555 1_555
C5 C6 1_555 1_555

#END
