
#######################################################################
#
#                 Cambridge Crystallographic Data Centre
#                                CCDC 
#
#######################################################################
#
# If this CIF has been generated from an entry in the Cambridge 
# Structural Database, then it will include bibliographic, chemical, 
# crystal, experimental, refinement or atomic coordinate data resulting 
# from the CCDC's data processing and validation procedures.
#
#######################################################################

data_AFUGEP01
_chemical_formula_moiety         'C6 N8 O7'
_chemical_name_systematic        
4,4''-Dinitro-3,3':4',3''-ter-1,2,5-oxadiazole
_symmetry_cell_setting           orthorhombic
_symmetry_space_group_name_H-M   'P 21 21 21'
_symmetry_Int_Tables_number      19
_space_group_name_Hall           'P 2ac 2ab'
loop_
_symmetry_equiv_pos_site_id
_symmetry_equiv_pos_as_xyz
1 x,y,z
2 1/2-x,-y,1/2+z
3 -x,1/2+y,1/2-z
4 1/2+x,1/2-y,-z
_cell_length_a                   7.1493(10)
_cell_length_b                   9.7887(14)
_cell_length_c                   15.284(2)
_cell_angle_alpha                90
_cell_angle_beta                 90
_cell_angle_gamma                90
_cell_volume                     1069.61
_cell_formula_units_Z            4
loop_
_atom_site_label
_atom_site_type_symbol
_atom_site_fract_x
_atom_site_fract_y
_atom_site_fract_z
N1 N 0.6587(2) 1.29519(15) 1.11333(11)
N2 N 0.9660(2) 1.24518(14) 1.13097(10)
N3 N 1.0705(2) 0.95345(15) 1.17014(9)
N4 N 1.1192(2) 0.81994(14) 1.05095(10)
N5 N 0.77523(19) 1.00426(16) 0.93176(8)
N6 N 0.8706(2) 0.93549(15) 0.79868(9)
N7 N 0.52956(19) 1.07485(16) 1.08456(9)
N8 N 1.1570(3) 0.82513(16) 0.82972(11)
O1 O 0.55914(18) 0.95503(14) 1.09677(10)
O2 O 0.38416(18) 1.12570(19) 1.06014(11)
O3 O 0.8315(2) 1.34573(13) 1.13222(10)
O4 O 1.15724(17) 0.83865(13) 1.13782(8)
O5 O 0.73668(19) 1.00354(15) 0.84384(8)
O6 O 1.2875(2) 0.83046(17) 0.87906(11)
O7 O 1.1534(3) 0.7669(2) 0.76001(11)
C1 C 0.6854(2) 1.16612(16) 1.10149(10)
C2 C 0.8770(2) 1.13327(14) 1.11250(9)
C3 C 0.97814(19) 1.00301(14) 1.10427(9)
C4 C 1.0081(2) 0.91994(13) 1.02949(10)
C5 C 0.9307(2) 0.93765(14) 0.94163(10)
C6 C 0.9883(2) 0.89549(14) 0.85714(10)
loop_
_geom_bond_atom_site_label_1
_geom_bond_atom_site_label_2
_geom_bond_site_symmetry_1
_geom_bond_site_symmetry_2
N1 O3 1_555 1_555
N2 O3 1_555 1_555
N3 O4 1_555 1_555
N4 O4 1_555 1_555
N5 O5 1_555 1_555
N6 O5 1_555 1_555
N7 O1 1_555 1_555
N8 O6 1_555 1_555
O2 N7 1_555 1_555
O7 N8 1_555 1_555
C1 N1 1_555 1_555
C2 N2 1_555 1_555
C3 N3 1_555 1_555
C4 N4 1_555 1_555
C5 N5 1_555 1_555
C6 N6 1_555 1_555
N7 C1 1_555 1_555
N8 C6 1_555 1_555
C1 C2 1_555 1_555
C2 C3 1_555 1_555
C3 C4 1_555 1_555
C4 C5 1_555 1_555
C5 C6 1_555 1_555

#END
