
#######################################################################
#
#                 Cambridge Crystallographic Data Centre
#                                CCDC 
#
#######################################################################
#
# If this CIF has been generated from an entry in the Cambridge 
# Structural Database, then it will include bibliographic, chemical, 
# crystal, experimental, refinement or atomic coordinate data resulting 
# from the CCDC's data processing and validation procedures.
#
#######################################################################

data_AFUGOA
_chemical_formula_moiety         'C21 H18 N1 O1 P1 S1'
_chemical_name_systematic        
2-(diphenylphosphoryl)-4,5-dihydro-1,3-benzothiazepine
_symmetry_cell_setting           triclinic
_symmetry_space_group_name_H-M   'P -1'
_symmetry_Int_Tables_number      2
_space_group_name_Hall           '-P 1'
loop_
_symmetry_equiv_pos_site_id
_symmetry_equiv_pos_as_xyz
1 x,y,z
2 -x,-y,-z
_cell_length_a                   9.946(3)
_cell_length_b                   11.876(4)
_cell_length_c                   17.113(5)
_cell_angle_alpha                101.807(4)
_cell_angle_beta                 91.970(2)
_cell_angle_gamma                113.077(4)
_cell_volume                     1805.47
_exptl_crystal_colour            colorless
_exptl_crystal_description       block
_cell_formula_units_Z            4
loop_
_atom_site_label
_atom_site_type_symbol
_atom_site_fract_x
_atom_site_fract_y
_atom_site_fract_z
S1 S 0.33559(5) 0.12155(5) 0.11649(3)
P1 P 0.18980(5) 0.26535(5) 0.06018(3)
O1 O 0.07116(15) 0.16800(14) 0.08992(9)
N1 N 0.48174(19) 0.34027(17) 0.06003(11)
C1 C 0.1590(2) 0.24490(19) -0.04723(12)
C2 C 0.0314(2) 0.14487(19) -0.08886(12)
H1 H -0.034890 0.089973 -0.060810
C3 C 0.4954(2) 0.09083(19) 0.12645(12)
C4 C 0.6137(2) 0.12514(19) 0.08136(12)
C5 C 0.3700(2) 0.25763(19) 0.07889(12)
C6 C 0.7241(2) 0.0838(2) 0.09316(13)
H2 H 0.806052 0.107424 0.063818
C7 C 0.4893(2) 0.0166(2) 0.18139(12)
H3 H 0.409124 -0.005775 0.212062
C8 C 0.6249(2) 0.2074(2) 0.02379(13)
H4 H 0.540044 0.163496 -0.019154
H5 H 0.715837 0.220367 -0.001861
C9 C 0.0014(2) 0.1257(2) -0.17143(13)
H6 H -0.086399 0.058132 -0.199638
C10 C 0.6277(2) 0.3366(2) 0.06432(15)
H7 H 0.669229 0.359012 0.121558
H8 H 0.693804 0.400835 0.038265
C11 C 0.6004(3) -0.0239(2) 0.19086(13)
H9 H 0.595967 -0.074484 0.227918
C12 C 0.7175(2) 0.0089(2) 0.14668(13)
H10 H 0.793237 -0.019613 0.152894
C13 C 0.2565(2) 0.3247(2) -0.08882(13)
H11 H 0.343667 0.393127 -0.060726
C14 C 0.0974(3) 0.2037(2) -0.21301(14)
H12 H 0.076505 0.189544 -0.269632
C15 C 0.2251(3) 0.3031(2) -0.17157(15)
H13 H 0.291551 0.356928 -0.200121
C16 C 0.2087(3) 0.4231(2) 0.10505(13)
C17 C 0.3286(8) 0.5297(6) 0.1124(4)
H14 H 0.417880 0.525878 0.097037
C18 C 0.2068(4) 0.6583(3) 0.16516(19)
H15 H 0.206323 0.739503 0.181761
C19 C 0.3246(9) 0.6458(8) 0.1421(4)
H16 H 0.411808 0.719637 0.145867
C20 C 0.0755(4) 0.4257(4) 0.1358(3)
H17 H -0.006896 0.350102 0.136020
C21 C 0.0728(6) 0.5431(5) 0.1650(4)
H18 H -0.012847 0.549514 0.184520
P2 P 0.20509(5) 0.27594(5) 0.55721(3)
S2 S 0.35743(6) 0.13976(5) 0.61740(3)
O2 O 0.09164(15) 0.18454(14) 0.59334(9)
N2 N 0.49077(19) 0.34283(17) 0.54407(11)
C26 C 0.1566(2) 0.24928(18) 0.45062(11)
C27 C 0.3837(2) 0.26510(19) 0.56972(11)
C28 C 0.0194(2) 0.1537(2) 0.41675(12)
H24 H -0.043745 0.106227 0.449494
C29 C 0.5140(2) 0.1028(2) 0.61398(12)
C30 C 0.6593(2) 0.1922(2) 0.62399(13)
C31 C 0.2359(2) 0.43702(19) 0.60219(12)
C32 C 0.2500(2) 0.3182(2) 0.40222(12)
H25 H 0.343929 0.382569 0.424972
C33 C 0.6410(2) 0.3497(2) 0.55016(14)
H26 H 0.708955 0.433677 0.544169
H27 H 0.647173 0.286070 0.504672
C34 C 0.4824(3) -0.0243(2) 0.60725(13)
H28 H 0.382982 -0.084012 0.600341
C35 C -0.0239(2) 0.1285(2) 0.33475(13)
H29 H -0.117231 0.063520 0.311541
C36 C 0.1208(3) 0.4723(2) 0.58881(14)
H30 H 0.036387 0.415552 0.551959
C37 C 0.3597(3) 0.5220(2) 0.65527(14)
H31 H 0.439681 0.499853 0.664841
C38 C 0.7712(3) 0.1491(2) 0.62536(15)
H32 H 0.870837 0.207729 0.630470
C39 C 0.0673(3) 0.1971(2) 0.28650(13)
H33 H 0.036625 0.179612 0.230535
C40 C 0.5964(3) -0.0634(2) 0.61068(14)
H34 H 0.575248 -0.149667 0.606985
C41 C 0.2038(3) 0.2913(2) 0.32038(13)
H35 H 0.266562 0.338190 0.287238
C42 C 0.7407(3) 0.0234(3) 0.61946(15)
H36 H 0.818990 -0.003216 0.621441
C43 C 0.1272(3) 0.5886(2) 0.62835(16)
H37 H 0.047434 0.611188 0.618892
C44 C 0.6943(2) 0.3284(2) 0.62869(14)
H38 H 0.802199 0.377456 0.641361
H39 H 0.647406 0.360106 0.673036
C45 C 0.2504(3) 0.6721(2) 0.68176(16)
H40 H 0.254748 0.751560 0.709595
C46 C 0.3668(3) 0.6397(2) 0.69449(16)
H41 H 0.452242 0.697813 0.730134
H19? H 0.197201 0.728400 0.198716
C22? C 0.0967(9) 0.4564(8) 0.0869(7)
H20? H 0.013285 0.394157 0.051567
C23? C 0.0947(11) 0.5719(8) 0.1154(8)
H21? H 0.013579 0.588892 0.099276
C24? C 0.3421(14) 0.5270(11) 0.1395(8)
H22? H 0.431354 0.515698 0.142893
C25? C 0.3432(13) 0.6464(15) 0.1686(9)
H23? H 0.432758 0.717439 0.190160
loop_
_geom_bond_atom_site_label_1
_geom_bond_atom_site_label_2
_geom_bond_site_symmetry_1
_geom_bond_site_symmetry_2
S1 C3 1_555 1_555
P1 O1 1_555 1_555
N1 C5 1_555 1_555
C1 P1 1_555 1_555
C2 C1 1_555 1_555
H1 C2 1_555 1_555
C3 C4 1_555 1_555
C4 C6 1_555 1_555
C5 S1 1_555 1_555
C6 H2 1_555 1_555
C7 C3 1_555 1_555
H3 C7 1_555 1_555
C8 C4 1_555 1_555
H4 C8 1_555 1_555
H5 C8 1_555 1_555
C9 C2 1_555 1_555
H6 C9 1_555 1_555
C10 N1 1_555 1_555
H7 C10 1_555 1_555
H8 C10 1_555 1_555
C11 C7 1_555 1_555
H9 C11 1_555 1_555
C12 C6 1_555 1_555
H10 C12 1_555 1_555
C13 C1 1_555 1_555
H11 C13 1_555 1_555
C14 C9 1_555 1_555
H12 C14 1_555 1_555
C15 C13 1_555 1_555
H13 C15 1_555 1_555
C16 P1 1_555 1_555
C17 C16 1_555 1_555
H14 C17 1_555 1_555
C18 H15 1_555 1_555
C19 C17 1_555 1_555
H16 C19 1_555 1_555
C20 C16 1_555 1_555
H17 C20 1_555 1_555
C21 C18 1_555 1_555
H18 C21 1_555 1_555
P2 O2 1_555 1_555
S2 C27 1_555 1_555
N2 C27 1_555 1_555
C26 P2 1_555 1_555
C27 P2 1_555 1_555
C28 C26 1_555 1_555
H24 C28 1_555 1_555
C29 S2 1_555 1_555
C30 C29 1_555 1_555
C31 P2 1_555 1_555
C32 C26 1_555 1_555
H25 C32 1_555 1_555
C33 N2 1_555 1_555
H26 C33 1_555 1_555
H27 C33 1_555 1_555
C34 C29 1_555 1_555
H28 C34 1_555 1_555
C35 C28 1_555 1_555
H29 C35 1_555 1_555
C36 C31 1_555 1_555
H30 C36 1_555 1_555
C37 C31 1_555 1_555
H31 C37 1_555 1_555
C38 C30 1_555 1_555
H32 C38 1_555 1_555
C39 C35 1_555 1_555
H33 C39 1_555 1_555
C40 C34 1_555 1_555
H34 C40 1_555 1_555
C41 C32 1_555 1_555
H35 C41 1_555 1_555
C42 C38 1_555 1_555
H36 C42 1_555 1_555
C43 C36 1_555 1_555
H37 C43 1_555 1_555
C44 C30 1_555 1_555
H38 C44 1_555 1_555
H39 C44 1_555 1_555
C45 C43 1_555 1_555
H40 C45 1_555 1_555
C46 C37 1_555 1_555
H41 C46 1_555 1_555
P1 C5 1_555 1_555
C8 C10 1_555 1_555
C11 C12 1_555 1_555
C14 C15 1_555 1_555
C18 C19 1_555 1_555
C20 C21 1_555 1_555
C33 C44 1_555 1_555
C39 C41 1_555 1_555
C40 C42 1_555 1_555
C45 C46 1_555 1_555

#END
