
#######################################################################
#
#                 Cambridge Crystallographic Data Centre
#                                CCDC 
#
#######################################################################
#
# If this CIF has been generated from an entry in the Cambridge 
# Structural Database, then it will include bibliographic, chemical, 
# crystal, experimental, refinement or atomic coordinate data resulting 
# from the CCDC's data processing and validation procedures.
#
#######################################################################

data_AFUHER
_chemical_formula_moiety         'C13 H9 N1,C11 H9 N1 O1,C6 F4 I2'
_chemical_name_systematic        
'4-phenylpyridine N-oxide 1,2,4,5-tetrafluoro-3,6-diiodobenzene acridine'
_symmetry_cell_setting           monoclinic
_symmetry_space_group_name_H-M   'C 2/c'
_symmetry_Int_Tables_number      15
_space_group_name_Hall           '-C 2yn'
loop_
_symmetry_equiv_pos_site_id
_symmetry_equiv_pos_as_xyz
1 x,y,z
2 -x,y,1/2-z
3 1/2+x,1/2+y,z
4 1/2-x,1/2+y,1/2-z
5 -x,-y,-z
6 x,-y,1/2+z
7 1/2-x,1/2-y,-z
8 1/2+x,1/2-y,1/2+z
_cell_length_a                   11.5142(13)
_cell_length_b                   30.352(3)
_cell_length_c                   7.6613(8)
_cell_angle_alpha                90
_cell_angle_beta                 103.360(11)
_cell_angle_gamma                90
_cell_volume                     2605
_exptl_crystal_colour            'light colorless'
_exptl_crystal_description       plate
_cell_formula_units_Z            4
loop_
_atom_site_label
_atom_site_type_symbol
_atom_site_fract_x
_atom_site_fract_y
_atom_site_fract_z
O1 O 0.500 0.32014(12) 0.250
N1 N 0.500 0.36396(15) 0.250
C4 C 0.6011(4) 0.57426(13) 0.2354(6)
H1 H 0.6710(4) 0.58981(13) 0.2261(6)
C5 C 0.5998(4) 0.43143(14) 0.2406(7)
H2 H 0.6710(4) 0.44642(14) 0.2338(7)
C6 C 0.5989(4) 0.38632(14) 0.2410(7)
H3 H 0.6692(4) 0.37065(14) 0.2347(7)
C7 C 0.500 0.50497(17) 0.250
C8 C 0.6008(4) 0.52842(13) 0.2341(6)
H4 H 0.6703(4) 0.51296(13) 0.2223(6)
C9 C 0.500 0.45572(17) 0.250
C10 C 0.500 0.59735(17) 0.250
H5 H 0.500 0.62865(17) 0.250
C4A C 0.3989(4) 0.57426(13) 0.2646(6)
H1A H 0.3290(4) 0.58981(13) 0.2739(6)
C5A C 0.4002(4) 0.43143(14) 0.2594(7)
H2A H 0.3290(4) 0.44642(14) 0.2662(7)
C6A C 0.4011(4) 0.38632(14) 0.2590(7)
H3A H 0.3308(4) 0.37065(14) 0.2653(7)
C8A C 0.3992(4) 0.52842(13) 0.2659(6)
H4A H 0.3297(4) 0.51296(13) 0.2777(6)
C11 C 0.3909(4) 0.11928(14) 1.1245(6)
H6 H 0.3167(4) 0.12003(14) 1.0389(6)
C12 C 0.4433(4) 0.07803(14) 1.1856(5)
C13 C 0.4459(4) 0.15776(15) 1.1873(6)
H7 H 0.4096(4) 0.18500(15) 1.1444(6)
C14 C 0.4451(4) -0.07955(14) 1.1868(6)
H8 H 0.4084(4) -0.10678(14) 1.1447(6)
C15 C 0.3908(4) -0.04128(15) 1.1238(6)
H9 H 0.3169(4) -0.04199(15) 1.0374(6)
C16 C 0.4434(3) 0.00021(13) 1.1858(5)
C17 C 0.3899(3) 0.03923(12) 1.1251(5)
H10 H 0.3207(3) 0.03924(12) 1.0468(5)
C11A C 0.6091(4) 0.11928(14) 1.3755(6)
H6A H 0.6833(4) 0.12003(14) 1.4611(6)
C12A C 0.5567(4) 0.07803(14) 1.3144(5)
C13A C 0.5541(4) 0.15776(15) 1.3127(6)
H7A H 0.5904(4) 0.18500(15) 1.3556(6)
C14A C 0.5549(4) -0.07955(14) 1.3132(6)
H8A H 0.5916(4) -0.10678(14) 1.3553(6)
C15A C 0.6092(4) -0.04128(15) 1.3762(6)
H9A H 0.6831(4) -0.04199(15) 1.4626(6)
C16A C 0.5566(3) 0.00021(13) 1.3142(5)
C17A C 0.6101(3) 0.03923(12) 1.3749(5)
H10A H 0.6793(3) 0.03924(12) 1.4532(5)
I1 I 0.38889(2) 0.287005(7) 0.93119(3)
F1 F 0.3352(2) 0.18983(7) 0.7601(3)
F2 F 0.2684(2) 0.33784(7) 0.5663(3)
C1 C 0.3037(3) 0.26497(12) 0.6752(5)
C2 C 0.2928(4) 0.22009(12) 0.6331(6)
C3 C 0.2596(3) 0.29391(12) 0.5371(5)
I1F I 0.11111(2) 0.212995(7) 0.06881(3)
F1F F 0.1648(2) 0.31017(7) 0.2399(3)
F2F F 0.2316(2) 0.16216(7) 0.4337(3)
C1F C 0.1963(3) 0.23503(12) 0.3248(5)
C2F C 0.2072(4) 0.27991(12) 0.3669(6)
C3F C 0.2404(3) 0.20609(12) 0.4629(5)
N2? N 0.3899(3) 0.03923(12) 1.1251(5)
loop_
_geom_bond_atom_site_label_1
_geom_bond_atom_site_label_2
_geom_bond_site_symmetry_1
_geom_bond_site_symmetry_2
I1 C1 1_555 1_555
F1 C2 1_555 1_555
F2 C3 1_555 1_555
C1 C2 1_555 1_555
C2 C3F 1_555 1_555
C3 C1 1_555 1_555
O1 N1 1_555 1_555
N1 C6 1_555 1_555
C4 H1 1_555 1_555
C5 H2 1_555 1_555
C6 C5 1_555 1_555
H3 C6 1_555 1_555
C7 C8 1_555 1_555
C8 C4 1_555 1_555
H4 C8 1_555 1_555
C9 C5 1_555 1_555
C10 C4 1_555 1_555
H5 C10 1_555 1_555
C11 H6 1_555 1_555
C12 C11 1_555 1_555
C13 C11 1_555 1_555
H7 C13 1_555 1_555
C14 H8 1_555 1_555
C15 C14 1_555 1_555
H9 C15 1_555 1_555
C16 C15 1_555 1_555
C17 C12 1_555 1_555
H10 C17 1_555 1_555
I1F C1F 1_555 1_555
F1F C2F 1_555 1_555
F2F C3F 1_555 1_555
C1F C2F 1_555 1_555
C2F C3 1_555 1_555
C3F C1F 1_555 1_555
C4A C10 1_555 1_555
H1A C4A 1_555 1_555
C5A C9 1_555 1_555
H2A C5A 1_555 1_555
C6A N1 1_555 1_555
H3A C6A 1_555 1_555
C8A C7 1_555 1_555
H4A C8A 1_555 1_555
C11A H6A 1_555 1_555
C12A C12 1_555 1_555
C13A C13 1_555 1_555
H7A C13A 1_555 1_555
C14A C14 1_555 1_555
H8A C14A 1_555 1_555
C15A C14A 1_555 1_555
H9A C15A 1_555 1_555
C16A C16 1_555 1_555
C17A C12A 1_555 1_555
H10A C17A 1_555 1_555
C7 C9 1_555 1_555
C16 C17 1_555 1_555
C4A C8A 1_555 1_555
C5A C6A 1_555 1_555
C11A C12A 1_555 1_555
C11A C13A 1_555 1_555
C15A C16A 1_555 1_555
C16A C17A 1_555 1_555

#END
