
#######################################################################
#
#                 Cambridge Crystallographic Data Centre
#                                CCDC 
#
#######################################################################
#
# If this CIF has been generated from an entry in the Cambridge 
# Structural Database, then it will include bibliographic, chemical, 
# crystal, experimental, refinement or atomic coordinate data resulting 
# from the CCDC's data processing and validation procedures.
#
#######################################################################

data_AFUHEQ
_chemical_formula_moiety         'C9 H9 N2 S1 1+,C9 H8 N2 S1,C6 H3 Cl1 N1 O2 1-'
_chemical_name_systematic        
'2-Amino-4-phenyl-1,3-thiazol-3-ium 2-chloronicotinate 4-phenyl-1,3-thiazol-2-amine'
_symmetry_cell_setting           monoclinic
_symmetry_space_group_name_H-M   'P 21'
_symmetry_Int_Tables_number      4
_space_group_name_Hall           'P 2yb'
loop_
_symmetry_equiv_pos_site_id
_symmetry_equiv_pos_as_xyz
1 x,y,z
2 -x,1/2+y,-z
_cell_length_a                   11.9599(13)
_cell_length_b                   5.6142(6)
_cell_length_c                   18.1618(19)
_cell_angle_alpha                90
_cell_angle_beta                 105.0530(10)
_cell_angle_gamma                90
_cell_volume                     1177.63
_exptl_crystal_colour            colorless
_exptl_crystal_description       block
_cell_formula_units_Z            2
loop_
_atom_site_label
_atom_site_type_symbol
_atom_site_fract_x
_atom_site_fract_y
_atom_site_fract_z
N2 N 0.4492(3) 0.4379(6) 0.85891(19)
N3 N 0.2537(3) 0.3769(7) 0.7933(2)
H4 H 0.2676 0.2404 0.7761
H5 H 0.1843 0.4321 0.7819
S1 S 0.31116(10) 0.7781(2) 0.87393(7)
C7 C 0.3407(4) 0.5043(8) 0.8380(2)
C8 C 0.5155(4) 0.6114(7) 0.9048(2)
C9 C 0.4562(3) 0.8034(8) 0.9174(2)
H6 H 0.4896 0.9342 0.9462
C10 C 0.6396(4) 0.5701(7) 0.9336(2)
C11 C 0.6924(3) 0.3702(8) 0.9127(2)
H7 H 0.6491 0.2614 0.8783
C12 C 0.8104(4) 0.3331(9) 0.9434(3)
H8 H 0.8448 0.1998 0.9282
C13 C 0.8765(4) 0.4837(10) 0.9945(3)
H9 H 0.9551 0.4543 1.0146
C14 C 0.8250(4) 0.6824(9) 1.0162(3)
H10 H 0.8689 0.7883 1.0515
C15 C 0.7071(4) 0.7248(9) 0.9854(3)
H11 H 0.6735 0.8600 1.0002
N4 N 0.7635(3) 0.7285(6) 0.55649(17)
H12 H 0.7793 0.6191 0.5908
N5 N 0.9070(3) 0.6131(7) 0.4983(2)
H13 H 0.9287 0.4980 0.5300
H14 H 0.9414 0.6372 0.4629
S2 S 0.76831(11) 0.9866(2) 0.44322(7)
C16 C 0.8217(4) 0.7515(8) 0.5039(2)
C17 C 0.6753(3) 0.8933(7) 0.5524(2)
C18 C 0.6679(3) 1.0432(8) 0.4940(2)
H15 H 0.6140 1.1658 0.4820
C19 C 0.6045(3) 0.8862(8) 0.6072(2)
C20 C 0.5291(4) 1.0689(9) 0.6103(3)
H16 H 0.5227 1.1964 0.5768
C21 C 0.4629(5) 1.0662(10) 0.6622(4)
H17 H 0.4131 1.1923 0.6638
C22 C 0.4702(4) 0.8785(11) 0.7114(3)
H18 H 0.4264 0.8760 0.7469
C23 C 0.5424(4) 0.6975(9) 0.7073(3)
H19 H 0.5474 0.5683 0.7400
C24 C 0.6086(3) 0.6994(8) 0.6560(2)
H20 H 0.6572 0.5712 0.6545
Cl1 Cl -0.12991(9) 0.3836(2) 0.32378(7)
N1 N -0.0375(3) 0.2011(7) 0.2252(2)
O1 O 0.0290(3) 0.7582(6) 0.39254(17)
O2 O 0.1668(2) 0.8843(5) 0.34281(15)
C1 C 0.0876(3) 0.7429(8) 0.3458(2)
C2 C -0.0231(3) 0.3766(8) 0.2750(2)
C3 C 0.0658(3) 0.5442(7) 0.2876(2)
C4 C 0.1429(3) 0.5140(8) 0.2433(2)
H1 H 0.2049 0.6186 0.2492
C5 C 0.1301(4) 0.3330(8) 0.1909(2)
H2 H 0.1816 0.3159 0.1607
C6 C 0.0397(4) 0.1786(8) 0.1844(3)
H3 H 0.0318 0.0529 0.1501
loop_
_geom_bond_atom_site_label_1
_geom_bond_atom_site_label_2
_geom_bond_site_symmetry_1
_geom_bond_site_symmetry_2
Cl1 C2 1_555 1_555
N1 C2 1_555 1_555
O1 C1 1_555 1_555
O2 C1 1_555 1_555
C1 C3 1_555 1_555
C2 C3 1_555 1_555
C3 C4 1_555 1_555
C4 H1 1_555 1_555
C5 C4 1_555 1_555
H2 C5 1_555 1_555
C6 N1 1_555 1_555
H3 C6 1_555 1_555
N2 C7 1_555 1_555
N3 H4 1_555 1_555
H5 N3 1_555 1_555
S1 C7 1_555 1_555
C7 N3 1_555 1_555
C8 N2 1_555 1_555
C9 S1 1_555 1_555
H6 C9 1_555 1_555
C10 C8 1_555 1_555
C11 C10 1_555 1_555
H7 C11 1_555 1_555
C12 C11 1_555 1_555
H8 C12 1_555 1_555
C13 C12 1_555 1_555
H9 C13 1_555 1_555
C14 C13 1_555 1_555
H10 C14 1_555 1_555
C15 C10 1_555 1_555
H11 C15 1_555 1_555
N4 H12 1_555 1_555
N5 H13 1_555 1_555
H14 N5 1_555 1_555
S2 C16 1_555 1_555
C16 N4 1_555 1_555
C17 N4 1_555 1_555
C18 S2 1_555 1_555
H15 C18 1_555 1_555
C19 C17 1_555 1_555
C20 C19 1_555 1_555
H16 C20 1_555 1_555
C21 C20 1_555 1_555
H17 C21 1_555 1_555
C22 C21 1_555 1_555
H18 C22 1_555 1_555
C23 C22 1_555 1_555
H19 C23 1_555 1_555
C24 C19 1_555 1_555
H20 C24 1_555 1_555
C5 C6 1_555 1_555
C8 C9 1_555 1_555
C14 C15 1_555 1_555
N5 C16 1_555 1_555
C17 C18 1_555 1_555
C23 C24 1_555 1_555

#END
