
#######################################################################
#
#                 Cambridge Crystallographic Data Centre
#                                CCDC 
#
#######################################################################
#
# If this CIF has been generated from an entry in the Cambridge 
# Structural Database, then it will include bibliographic, chemical, 
# crystal, experimental, refinement or atomic coordinate data resulting 
# from the CCDC's data processing and validation procedures.
#
#######################################################################

data_AFUHOA
_chemical_formula_moiety         'C9 H9 N2 S1 1+,C4 H5 O5 1-,0.5(H2 O1)'
_chemical_name_systematic        
'2-Amino-4-phenyl-1,3-thiazol-3-ium hydrogen L-malate hemihydrate'
_symmetry_cell_setting           orthorhombic
_symmetry_space_group_name_H-M   'C 2 2 21'
_symmetry_Int_Tables_number      20
_space_group_name_Hall           'C 2n 2'
loop_
_symmetry_equiv_pos_site_id
_symmetry_equiv_pos_as_xyz
1 x,y,z
2 -x,-y,1/2+z
3 -x,y,1/2-z
4 x,-y,-z
5 1/2+x,1/2+y,z
6 1/2-x,1/2-y,1/2+z
7 1/2-x,1/2+y,1/2-z
8 1/2+x,1/2-y,-z
_cell_length_a                   7.6634(9)
_cell_length_b                   19.244(2)
_cell_length_c                   19.695(3)
_cell_angle_alpha                90
_cell_angle_beta                 90
_cell_angle_gamma                90
_cell_volume                     2904.51
_exptl_crystal_colour            colorless
_exptl_crystal_description       block
_cell_formula_units_Z            8
loop_
_atom_site_label
_atom_site_type_symbol
_atom_site_fract_x
_atom_site_fract_y
_atom_site_fract_z
N1 N 0.2633(3) 0.84211(12) 0.65489(11)
H1 H 0.2484 0.7994 0.6664
N2 N 0.2927(4) 0.81895(14) 0.53885(12)
H2 H 0.2807 0.7750 0.5449
H3 H 0.3084 0.8351 0.4986
S1 S 0.31061(12) 0.95027(4) 0.58497(4)
C1 C 0.2869(4) 0.86133(15) 0.59088(14)
C2 C 0.2643(4) 0.89605(15) 0.70234(14)
C3 C 0.2880(4) 0.95746(16) 0.67197(16)
H4 H 0.2920 0.9995 0.6952
C4 C 0.2443(4) 0.88064(15) 0.77470(14)
C5 C 0.2974(4) 0.81685(16) 0.80123(14)
H5 H 0.3426 0.7830 0.7725
C6 C 0.2834(5) 0.80362(17) 0.86990(15)
H6 H 0.3186 0.7609 0.8872
C7 C 0.2174(5) 0.85372(19) 0.91276(17)
H7 H 0.2083 0.8449 0.9590
C8 C 0.1652(5) 0.91672(19) 0.88715(16)
H8 H 0.1210 0.9504 0.9163
C9 C 0.1777(4) 0.93060(16) 0.81837(15)
H9 H 0.1414 0.9733 0.8015
O1 O -0.1955(3) 0.61544(10) 0.58982(9)
O2 O -0.1742(3) 0.63530(12) 0.70076(10)
O3 O 0.1208(3) 0.71202(10) 0.68306(10)
H10 H 0.2116 0.6969 0.6993
O4 O 0.4086(3) 0.68567(11) 0.57713(11)
O5 O 0.4851(3) 0.58069(12) 0.61123(15)
H11 H 0.5827 0.5945 0.6008
C10 C -0.1177(4) 0.63817(14) 0.64220(14)
C11 C 0.0650(4) 0.66802(14) 0.62982(14)
H12 H 0.0613 0.6955 0.5880
C12 C 0.1885(4) 0.60738(16) 0.61851(17)
H13 H 0.1927 0.5795 0.6595
H14 H 0.1427 0.5784 0.5824
C13 C 0.3716(4) 0.62968(15) 0.60022(14)
O6 O 0.5000 0.6762(5) 0.7500
H15 H 0.5842 0.6505 0.7373
H15B H 0.4158 0.6505 0.7627
O7? O 0.5000 0.5800(8) 0.7500
H16? H 0.5841 0.6057 0.7373
loop_
_geom_bond_atom_site_label_1
_geom_bond_atom_site_label_2
_geom_bond_site_symmetry_1
_geom_bond_site_symmetry_2
N1 H1 1_555 1_555
N2 H2 1_555 1_555
H3 N2 1_555 1_555
S1 C1 1_555 1_555
C1 N1 1_555 1_555
C2 N1 1_555 1_555
C3 S1 1_555 1_555
H4 C3 1_555 1_555
C4 C2 1_555 1_555
C5 C4 1_555 1_555
H5 C5 1_555 1_555
C6 C5 1_555 1_555
H6 C6 1_555 1_555
C7 C6 1_555 1_555
H7 C7 1_555 1_555
C8 C7 1_555 1_555
H8 C8 1_555 1_555
C9 C4 1_555 1_555
H9 C9 1_555 1_555
O1 C10 1_555 1_555
O2 C10 1_555 1_555
O3 H10 1_555 1_555
O4 C13 1_555 1_555
O5 H11 1_555 1_555
C10 C11 1_555 1_555
C11 O3 1_555 1_555
H12 C11 1_555 1_555
C12 C11 1_555 1_555
H13 C12 1_555 1_555
H14 C12 1_555 1_555
C13 O5 1_555 1_555
O6 H15 1_555 1_555
H15B O6 1_555 1_555
N2 C1 1_555 1_555
C2 C3 1_555 1_555
C8 C9 1_555 1_555
C12 C13 1_555 1_555

#END
