
#######################################################################
#
#                 Cambridge Crystallographic Data Centre
#                                CCDC 
#
#######################################################################
#
# If this CIF has been generated from an entry in the Cambridge 
# Structural Database, then it will include bibliographic, chemical, 
# crystal, experimental, refinement or atomic coordinate data resulting 
# from the CCDC's data processing and validation procedures.
#
#######################################################################

data_AFUHIT
_chemical_name_common            31
_chemical_formula_moiety         'C14 H14 O2'
_chemical_name_systematic        
15-Oxahexacyclo(6.6.1.0^2,7^0^3,13^0^6,10^0^9,14^)pentadeca-4,11-dien-1-ol
_symmetry_cell_setting           orthorhombic
_symmetry_space_group_name_H-M   'P b c a'
_symmetry_Int_Tables_number      61
_space_group_name_Hall           '-P 2ac 2ab'
loop_
_symmetry_equiv_pos_site_id
_symmetry_equiv_pos_as_xyz
1 x,y,z
2 1/2-x,-y,1/2+z
3 -x,1/2+y,1/2-z
4 1/2+x,1/2-y,-z
5 -x,-y,-z
6 1/2+x,y,1/2-z
7 x,1/2-y,1/2+z
8 1/2-x,1/2+y,z
_cell_length_a                   13.2563(15)
_cell_length_b                   6.8793(8)
_cell_length_c                   22.324(3)
_cell_angle_alpha                90
_cell_angle_beta                 90
_cell_angle_gamma                90
_cell_volume                     2035.82
_exptl_crystal_colour            colorless
_exptl_crystal_description       cubic
_chemical_melting_point          '218-220 deg.C (dec)'
_cell_formula_units_Z            8
_exptl_crystal_recrystallization_method acetone/dichloromethane
loop_
_atom_site_label
_atom_site_type_symbol
_atom_site_fract_x
_atom_site_fract_y
_atom_site_fract_z
C1 C 0.93988(9) 0.17870(18) 0.43814(6)
C2 C 0.92650(8) 0.41661(17) 0.36139(5)
C3 C 0.86449(8) 0.32812(17) 0.41326(5)
C4 C 0.91996(9) 0.25138(19) 0.31356(6)
C5 C 1.03365(9) 0.44674(18) 0.38754(6)
C6 C 1.04288(9) 0.2845(2) 0.43926(6)
C7 C 0.85431(9) 0.10103(18) 0.34677(6)
C8 C 1.11331(9) 0.4323(2) 0.33932(7)
C9 C 1.02156(10) 0.1481(2) 0.30123(6)
C10 C 1.10809(10) 0.2903(2) 0.29916(7)
C11 C 1.02940(9) -0.01418(19) 0.35271(7)
C12 C 1.12228(10) 0.0007(2) 0.39142(8)
C13 C 0.93231(9) 0.01356(18) 0.39018(6)
C14 C 1.12921(10) 0.1424(2) 0.43168(7)
H1 H 0.8964(10) 0.545(2) 0.3463(7)
H2 H 0.8885(11) 0.301(2) 0.2760(8)
H3 H 0.8125(10) 0.002(2) 0.3221(8)
H4 H 1.0510(12) 0.357(2) 0.4795(8)
H5 H 1.0282(13) -0.144(3) 0.3302(8)
H6 H 1.0182(13) 0.082(2) 0.2606(9)
H7 H 1.1705(12) 0.529(2) 0.3404(8)
H8 H 1.1626(14) 0.270(3) 0.2704(10)
H9 H 0.9202(12) 0.135(2) 0.4787(8)
H10 H 0.9099(11) -0.111(2) 0.4091(7)
H11 H 1.1876(14) 0.165(3) 0.4576(9)
H12 H 1.1773(15) -0.094(3) 0.3877(9)
H13 H 1.0358(11) 0.576(2) 0.4071(7)
H14 H 0.7888(14) 0.556(3) 0.4341(11)
O1 O 0.78652(6) 0.21329(12) 0.38376(4)
O2 O 0.82377(7) 0.45191(15) 0.45554(4)
loop_
_geom_bond_atom_site_label_1
_geom_bond_atom_site_label_2
_geom_bond_site_symmetry_1
_geom_bond_site_symmetry_2
C1 C3 1_555 1_555
C2 C3 1_555 1_555
C3 O1 1_555 1_555
C4 C2 1_555 1_555
C5 C2 1_555 1_555
C6 C1 1_555 1_555
C7 C4 1_555 1_555
C8 C5 1_555 1_555
C9 C4 1_555 1_555
C10 C8 1_555 1_555
C11 C9 1_555 1_555
C12 C11 1_555 1_555
C13 C1 1_555 1_555
C14 C6 1_555 1_555
H1 C2 1_555 1_555
H2 C4 1_555 1_555
H3 C7 1_555 1_555
H4 C6 1_555 1_555
H5 C11 1_555 1_555
H6 C9 1_555 1_555
H7 C8 1_555 1_555
H8 C10 1_555 1_555
H9 C1 1_555 1_555
H10 C13 1_555 1_555
H11 C14 1_555 1_555
H12 C12 1_555 1_555
H13 C5 1_555 1_555
H14 O2 1_555 1_555
O1 C7 1_555 1_555
O2 C3 1_555 1_555
C5 C6 1_555 1_555
C7 C13 1_555 1_555
C9 C10 1_555 1_555
C11 C13 1_555 1_555
C12 C14 1_555 1_555

#END
