
#######################################################################
#
#                 Cambridge Crystallographic Data Centre
#                                CCDC 
#
#######################################################################
#
# If this CIF has been generated from an entry in the Cambridge 
# Structural Database, then it will include bibliographic, chemical, 
# crystal, experimental, refinement or atomic coordinate data resulting 
# from the CCDC's data processing and validation procedures.
#
#######################################################################

data_AFUHIV
_chemical_formula_moiety         'C11 H9 N1 O1,C10 H8 N2,C6 F4 I2'
_chemical_name_systematic        
"1,2,4,5-tetrafluoro-3,6-diiodobenzene 2,2'-bipyridine 4-phenylpyridine N-oxide"
_symmetry_cell_setting           monoclinic
_symmetry_space_group_name_H-M   'C 2/c'
_symmetry_Int_Tables_number      15
_space_group_name_Hall           '-C 2yn'
loop_
_symmetry_equiv_pos_site_id
_symmetry_equiv_pos_as_xyz
1 x,y,z
2 -x,y,1/2-z
3 1/2+x,1/2+y,z
4 1/2-x,1/2+y,1/2-z
5 -x,-y,-z
6 x,-y,1/2+z
7 1/2-x,1/2-y,-z
8 1/2+x,1/2-y,1/2+z
_cell_length_a                   10.7188(3)
_cell_length_b                   30.5269(7)
_cell_length_c                   8.1304(2)
_cell_angle_alpha                90
_cell_angle_beta                 109.935(3)
_cell_angle_gamma                90
_cell_volume                     2500.95
_exptl_crystal_colour            'light colorless'
_exptl_crystal_description       plate
_cell_formula_units_Z            4
loop_
_atom_site_label
_atom_site_type_symbol
_atom_site_fract_x
_atom_site_fract_y
_atom_site_fract_z
C4 C 0.0978(5) 0.38998(14) -0.2767(8)
H1 H 0.1669(5) 0.37473(14) -0.2954(8)
C5 C 0.0992(5) 0.43507(13) -0.2773(9)
H2 H 0.1693(5) 0.44956(13) -0.2968(9)
C6 C 0.000 0.45923(15) -0.25
C7 C 0.000 0.50761(15) -0.25
C8 C 0.1024(4) 0.53111(12) -0.2766(6)
H3 H 0.1723(4) 0.51618(12) -0.2946(6)
C9 C 0.1019(4) 0.57663(12) -0.2766(6)
H4 H 0.1712(4) 0.59184(12) -0.2948(6)
C10 C 0.000 0.59930(15) -0.25
H5 H 0.000 0.62976(15) -0.25
N1 N 0.000 0.36785(13) -0.25
O1 O 0.000 0.32432(11) -0.25
C4A C -0.0978(5) 0.38998(14) -0.2233(8)
H1A H -0.1669(5) 0.37473(14) -0.2046(8)
C5A C -0.0992(5) 0.43507(13) -0.2227(9)
H2A H -0.1693(5) 0.44956(13) -0.2032(9)
C8A C -0.1024(4) 0.53111(12) -0.2234(6)
H3A H -0.1723(4) 0.51618(12) -0.2054(6)
C9A C -0.1019(4) 0.57663(12) -0.2234(6)
H4A H -0.1712(4) 0.59184(12) -0.2052(6)
C11 C 0.500 0.41123(19) 0.750
H6 H 0.500 0.38077(19) 0.750
C12 C 0.4029(4) 0.43441(14) 0.6249(6)
H7 H 0.3368(4) 0.41935(14) 0.5387(6)
C13 C 0.4020(3) 0.47899(12) 0.6252(5)
H8 H 0.3354(3) 0.49443(12) 0.5413(5)
C14 C 0.500 0.50042(16) 0.750
C15 C 0.500 0.54925(17) 0.750
C16 C 0.5976(6) 0.61494(16) 0.8749(9)
H9 H 0.6642(6) 0.62984(16) 0.9609(9)
C17 C 0.500 0.6386(2) 0.750
H10 H 0.500 0.6690(2) 0.750
C18 C 0.5978(4) 0.57071(13) 0.8742(6)
H11 H 0.6644(4) 0.55524(13) 0.9580(6)
C12A C 0.5971(4) 0.43441(14) 0.8751(6)
H7A H 0.6632(4) 0.41935(14) 0.9613(6)
C13A C 0.5980(3) 0.47899(12) 0.8748(5)
H8A H 0.6646(3) 0.49443(12) 0.9587(5)
C16A C 0.4024(6) 0.61494(16) 0.6251(9)
H9A H 0.3358(6) 0.62984(16) 0.5391(9)
C18A C 0.4022(4) 0.57071(13) 0.6258(6)
H11A H 0.3356(4) 0.55524(13) 0.5420(6)
C1 C 0.1959(3) 0.22160(11) 0.3635(4)
C2 C 0.2001(3) 0.26590(10) 0.3261(4)
C3 C 0.2552(3) 0.29361(9) 0.4668(5)
F1 F 0.14473(19) 0.19272(6) 0.2329(3)
F2 F 0.2608(2) 0.33720(6) 0.4409(3)
I1 I 0.116257(18) 0.289751(6) 0.07032(2)
C1F C 0.3041(3) 0.27840(11) 0.6365(4)
C2F C 0.2999(3) 0.23410(10) 0.6739(4)
C3F C 0.2448(3) 0.20639(9) 0.5332(5)
F1F F 0.35527(19) 0.30728(6) 0.7671(3)
F2F F 0.2392(2) 0.16280(6) 0.5591(3)
I1F I 0.383743(18) 0.210249(6) 0.92968(2)
N2? N 0.4020(3) 0.47899(12) 0.6252(5)
H12? H 0.3404(3) 0.49327(12) 0.5476(5)
H13? H 0.6594(4) 0.55640(13) 0.9517(6)
N3? N 0.5978(4) 0.57071(13) 0.8742(6)
loop_
_geom_bond_atom_site_label_1
_geom_bond_atom_site_label_2
_geom_bond_site_symmetry_1
_geom_bond_site_symmetry_2
C1 C2 1_555 1_555
C2 C3 1_555 1_555
C3 F2 1_555 1_555
F1 C1 1_555 1_555
I1 C2 1_555 1_555
C4 H1 1_555 1_555
C5 C4 1_555 1_555
H2 C5 1_555 1_555
C6 C5 1_555 1_555
C7 C6 1_555 1_555
C8 C7 1_555 1_555
H3 C8 1_555 1_555
C9 C8 1_555 1_555
H4 C9 1_555 1_555
C10 C9 1_555 1_555
H5 C10 1_555 1_555
N1 C4 1_555 1_555
O1 N1 1_555 1_555
C11 H6 1_555 1_555
C12 C11 1_555 1_555
H7 C12 1_555 1_555
C13 C12 1_555 1_555
H8 C13 1_555 1_555
C14 C13 1_555 1_555
C15 C14 1_555 1_555
C16 H9 1_555 1_555
C17 C16 1_555 1_555
H10 C17 1_555 1_555
C18 C15 1_555 1_555
H11 C18 1_555 1_555
C1F C3 1_555 1_555
C2F C1F 1_555 1_555
C3F C1 1_555 1_555
F1F C1F 1_555 1_555
F2F C3F 1_555 1_555
I1F C2F 1_555 1_555
C4A N1 1_555 1_555
H1A C4A 1_555 1_555
C5A C6 1_555 1_555
H2A C5A 1_555 1_555
C8A C7 1_555 1_555
H3A C8A 1_555 1_555
C9A C10 1_555 1_555
H4A C9A 1_555 1_555
C12A C11 1_555 1_555
H7A C12A 1_555 1_555
C13A C14 1_555 1_555
H8A C13A 1_555 1_555
C16A C17 1_555 1_555
H9A C16A 1_555 1_555
C18A C15 1_555 1_555
H11A C18A 1_555 1_555
C16 C18 1_555 1_555
C2F C3F 1_555 1_555
C4A C5A 1_555 1_555
C8A C9A 1_555 1_555
C12A C13A 1_555 1_555
C16A C18A 1_555 1_555

#END
