
#######################################################################
#
#                 Cambridge Crystallographic Data Centre
#                                CCDC 
#
#######################################################################
#
# If this CIF has been generated from an entry in the Cambridge 
# Structural Database, then it will include bibliographic, chemical, 
# crystal, experimental, refinement or atomic coordinate data resulting 
# from the CCDC's data processing and validation procedures.
#
#######################################################################

data_AFUKAO
_chemical_formula_moiety         'C31 H29 N1 O2 S1'
_chemical_name_systematic        
1-(4-p-Tolylsulfonyl)-4-trityl-1,2,3,6-tetrahydropyridine
_symmetry_cell_setting           monoclinic
_symmetry_space_group_name_H-M   'P 21/c'
_symmetry_Int_Tables_number      14
_space_group_name_Hall           '-P 2ybc'
loop_
_symmetry_equiv_pos_site_id
_symmetry_equiv_pos_as_xyz
1 x,y,z
2 -x,1/2+y,1/2-z
3 -x,-y,-z
4 x,1/2-y,1/2+z
_cell_length_a                   12.7011(4)
_cell_length_b                   10.5663(3)
_cell_length_c                   18.8754(5)
_cell_angle_alpha                90
_cell_angle_beta                 101.1824(12)
_cell_angle_gamma                90
_cell_volume                     2485.05
_exptl_crystal_colour            colorless
_exptl_crystal_description       columnar
_chemical_melting_point          '241-243 deg.C'
_cell_formula_units_Z            4
_exptl_crystal_recrystallization_method 'ethyl acetate/dichloromethane'
loop_
_atom_site_label
_atom_site_type_symbol
_atom_site_fract_x
_atom_site_fract_y
_atom_site_fract_z
S1 S 0.89147(6) 0.74383(7) 1.00736(3)
O1 O 0.91942(16) 0.8537(2) 1.05155(10)
O2 O 0.91903(16) 0.62081(19) 1.03705(10)
N1 N 0.76111(18) 0.74616(19) 0.98042(11)
C1 C 0.9451(2) 0.7615(3) 0.92862(13)
C2 C 0.9607(2) 0.8814(3) 0.90344(14)
H1 H 0.9466 0.9523 0.9292
C3 C 0.9978(2) 0.8953(3) 0.83902(14)
H2 H 1.0096 0.9761 0.8226
C4 C 1.0174(2) 0.7913(3) 0.79901(14)
C5 C 1.0035(3) 0.6728(3) 0.82633(16)
H3 H 1.0187 0.6018 0.8010
C6 C 0.9671(2) 0.6563(3) 0.89103(15)
H4 H 0.9580 0.5755 0.9084
C7 C 1.0541(3) 0.8070(4) 0.72796(16)
H5 H 1.0840 0.7288 0.7152
H6 H 1.1076 0.8723 0.7325
H7 H 0.9939 0.8300 0.6910
C8 C 0.7117(2) 0.8654(3) 0.94998(14)
H8 H 0.7155 0.8710 0.8992
H9 H 0.7503 0.9368 0.9749
C9 C 0.5962(2) 0.8692(2) 0.95843(15)
H10 H 0.5610 0.9418 0.9327
H11 H 0.5933 0.8789 1.0091
C10 C 0.5366(2) 0.7484(2) 0.92927(12)
C11 C 0.5936(2) 0.6455(2) 0.92029(12)
H12 H 0.5558 0.5747 0.9000
C12 C 0.7137(2) 0.6345(3) 0.94016(14)
H13 H 0.7326 0.5594 0.9694
H14 H 0.7429 0.6255 0.8966
C13 C 0.4124(2) 0.7535(2) 0.90971(12)
C14 C 0.3822(2) 0.8746(2) 0.86458(12)
C15 C 0.4391(2) 0.9015(3) 0.80978(14)
H15 H 0.4941 0.8475 0.8029
C16 C 0.4156(3) 1.0056(3) 0.76588(15)
H16 H 0.4548 1.0215 0.7300
C17 C 0.3353(4) 1.0852(3) 0.77486(19)
H17 H 0.3193 1.1556 0.7451
C18 C 0.2778(3) 1.0614(3) 0.82812(17)
H18 H 0.2226 1.1156 0.8342
C19 C 0.3017(2) 0.9573(3) 0.87270(14)
H19 H 0.2626 0.9428 0.9088
C20 C 0.3647(2) 0.7513(2) 0.97988(12)
C21 C 0.4281(2) 0.7496(3) 1.04836(13)
H20 H 0.5021 0.7566 1.0535
C22 C 0.3833(3) 0.7377(3) 1.10975(14)
H21 H 0.4277 0.7366 1.1552
C23 C 0.2748(3) 0.7276(3) 1.10380(16)
H22 H 0.2447 0.7205 1.1448
C24 C 0.2112(3) 0.7280(3) 1.03665(16)
H23 H 0.1372 0.7203 1.0320
C25 C 0.2545(2) 0.7397(3) 0.97578(14)
H24 H 0.2092 0.7399 0.9307
C26 C 0.3650(2) 0.6361(2) 0.86551(12)
C27 C 0.3619(2) 0.5200(3) 0.89905(13)
H25 H 0.3929 0.5126 0.9477
C28 C 0.3142(3) 0.4146(3) 0.86280(16)
H26 H 0.3135 0.3380 0.8869
C29 C 0.2676(3) 0.4244(3) 0.79028(17)
H27 H 0.2338 0.3549 0.7655
C30 C 0.2719(3) 0.5370(3) 0.75575(15)
H28 H 0.2425 0.5431 0.7068
C31 C 0.3191(2) 0.6422(3) 0.79215(13)
H29 H 0.3204 0.7182 0.7674
loop_
_geom_bond_atom_site_label_1
_geom_bond_atom_site_label_2
_geom_bond_site_symmetry_1
_geom_bond_site_symmetry_2
S1 O1 1_555 1_555
O2 S1 1_555 1_555
N1 S1 1_555 1_555
C1 S1 1_555 1_555
C2 C1 1_555 1_555
H1 C2 1_555 1_555
C3 C2 1_555 1_555
H2 C3 1_555 1_555
C4 C3 1_555 1_555
C5 C4 1_555 1_555
H3 C5 1_555 1_555
C6 C1 1_555 1_555
H4 C6 1_555 1_555
C7 C4 1_555 1_555
H5 C7 1_555 1_555
H6 C7 1_555 1_555
H7 C7 1_555 1_555
C8 N1 1_555 1_555
H8 C8 1_555 1_555
H9 C8 1_555 1_555
C9 C8 1_555 1_555
H10 C9 1_555 1_555
H11 C9 1_555 1_555
C10 C9 1_555 1_555
C11 C10 1_555 1_555
H12 C11 1_555 1_555
C12 N1 1_555 1_555
H13 C12 1_555 1_555
H14 C12 1_555 1_555
C13 C10 1_555 1_555
C14 C13 1_555 1_555
C15 C14 1_555 1_555
H15 C15 1_555 1_555
C16 C15 1_555 1_555
H16 C16 1_555 1_555
C17 C16 1_555 1_555
H17 C17 1_555 1_555
C18 C17 1_555 1_555
H18 C18 1_555 1_555
C19 C14 1_555 1_555
H19 C19 1_555 1_555
C20 C13 1_555 1_555
C21 C20 1_555 1_555
H20 C21 1_555 1_555
C22 C21 1_555 1_555
H21 C22 1_555 1_555
C23 C22 1_555 1_555
H22 C23 1_555 1_555
C24 C23 1_555 1_555
H23 C24 1_555 1_555
C25 C20 1_555 1_555
H24 C25 1_555 1_555
C26 C13 1_555 1_555
C27 C26 1_555 1_555
H25 C27 1_555 1_555
C28 C27 1_555 1_555
H26 C28 1_555 1_555
C29 C28 1_555 1_555
H27 C29 1_555 1_555
C30 C29 1_555 1_555
H28 C30 1_555 1_555
C31 C26 1_555 1_555
H29 C31 1_555 1_555
C5 C6 1_555 1_555
C11 C12 1_555 1_555
C18 C19 1_555 1_555
C24 C25 1_555 1_555
C30 C31 1_555 1_555

#END
