
#######################################################################
#
#                 Cambridge Crystallographic Data Centre
#                                CCDC 
#
#######################################################################
#
# If this CIF has been generated from an entry in the Cambridge 
# Structural Database, then it will include bibliographic, chemical, 
# crystal, experimental, refinement or atomic coordinate data resulting 
# from the CCDC's data processing and validation procedures.
#
#######################################################################

data_AFUREZ
_chemical_compound_source        'fungus Pestalotiopsis adusta'
_chemical_formula_moiety         'C21 H21 Cl2 N1 O5'
_chemical_name_systematic        'Pestachloride A'
_chemical_properties_biological  
'antifungal activity against Fusarium culmorum, Giberella zeae and Verticullium albo-atrum'
_symmetry_cell_setting           triclinic
_symmetry_space_group_name_H-M   'P -1'
_symmetry_Int_Tables_number      2
_space_group_name_Hall           '-P 1'
loop_
_symmetry_equiv_pos_site_id
_symmetry_equiv_pos_as_xyz
1 x,y,z
2 -x,-y,-z
_cell_length_a                   7.905(6)
_cell_length_b                   14.768(12)
_cell_length_c                   17.319(14)
_cell_angle_alpha                98.99(2)
_cell_angle_beta                 96.935(9)
_cell_angle_gamma                90.00(2)
_cell_volume                     1982.02
_exptl_crystal_colour            colorless
_exptl_crystal_description       platelet
_chemical_melting_point          '205-207 deg.C'
_cell_formula_units_Z            4
_exptl_crystal_recrystallization_method methanol/water
loop_
_atom_site_label
_atom_site_type_symbol
_atom_site_fract_x
_atom_site_fract_y
_atom_site_fract_z
Cl1 Cl 0.1396(3) 0.27188(13) 0.35040(12)
Cl2 Cl 0.1268(3) -0.08753(14) 0.38564(12)
N1 N 0.1791(7) 0.0196(4) 0.0709(3)
H1 H 0.0773 -0.0053 0.0692
O1 O 0.1343(5) 0.0806(3) -0.0460(3)
O2 O 0.4316(5) 0.1709(3) -0.0717(3)
H3 H 0.3378 0.1434 -0.0872
O3 O 0.8884(5) 0.1628(4) 0.1382(3)
H4 H 0.9400 0.1890 0.1079
O4 O 0.2563(6) 0.1996(3) 0.1988(3)
H5 H 0.3292 0.1811 0.1687
O5 O 0.2375(6) -0.1164(3) 0.2288(3)
C1 C 0.2218(8) 0.0673(4) 0.0147(4)
C2 C 0.3969(7) 0.0994(4) 0.0400(4)
C3 C 0.4969(8) 0.1482(4) 0.0002(4)
C4 C 0.6618(8) 0.1694(5) 0.0325(4)
H9 H 0.7331 0.2037 0.0068
C5 C 0.7247(8) 0.1402(5) 0.1037(4)
C6 C 0.6292(8) 0.0883(5) 0.1444(4)
C7 C 0.4578(8) 0.0708(4) 0.1114(4)
C8 C 0.3173(8) 0.0131(4) 0.1349(4)
H10 H 0.3544 -0.0520 0.1313
C9 C 0.7027(8) 0.0548(5) 0.2188(4)
H11 H 0.8270 0.0472 0.2183
H12 H 0.6518 -0.0062 0.2200
C10 C 0.6715(9) 0.1195(5) 0.2937(4)
H13 H 0.6794 0.1834 0.2924
C11 C 0.6342(9) 0.0943(5) 0.3606(4)
C12 C 0.6267(11) -0.0019(5) 0.3748(5)
H14 H 0.6122 -0.0432 0.3243
H15 H 0.5301 -0.0102 0.4038
H16 H 0.7327 -0.0160 0.4058
C13 C 0.6018(11) 0.1669(6) 0.4299(4)
H17 H 0.6869 0.1621 0.4751
H18 H 0.4875 0.1574 0.4441
H19 H 0.6101 0.2280 0.4151
C14 C 0.2561(8) 0.0423(4) 0.2137(4)
C15 C 0.2289(7) 0.1338(4) 0.2446(4)
C16 C 0.1724(9) 0.1545(5) 0.3169(4)
C17 C 0.1381(8) 0.0906(5) 0.3637(4)
C18 C 0.1649(9) 0.0002(5) 0.3322(4)
C19 C 0.2196(8) -0.0245(4) 0.2582(4)
C20 C 0.0831(9) 0.1184(6) 0.4435(4)
H20 H 0.1771 0.1512 0.4789
H21 H 0.0514 0.0637 0.4644
H22 H -0.0152 0.1586 0.4395
C21 C 0.0756(9) -0.1593(5) 0.1907(5)
H23 H -0.0109 -0.1482 0.2269
H24 H 0.0904 -0.2255 0.1766
H25 H 0.0390 -0.1330 0.1429
Cl3 Cl 0.5484(2) 0.77087(13) 0.35372(12)
Cl4 Cl 0.5918(3) 0.41120(14) 0.38536(12)
N2 N 0.3599(7) 0.5182(4) 0.0711(3)
H2 H 0.4597 0.4924 0.0680
O6 O 0.3389(6) 0.5797(3) -0.0454(3)
O7 O 0.0287(5) 0.6712(3) -0.0706(3)
H6 H 0.1158 0.6453 -0.0861
O8 O -0.3126(6) 0.6614(4) 0.1391(3)
H7 H -0.3846 0.6817 0.1066
O9 O 0.3513(6) 0.6983(3) 0.2015(3)
H8 H 0.3773 0.7505 0.2272
O10 O 0.3925(6) 0.3835(3) 0.2295(3)
C22 C 0.2861(7) 0.5667(4) 0.0180(4)
C23 C 0.1258(8) 0.5986(4) 0.0418(4)
C24 C 0.0035(8) 0.6471(5) 0.0012(4)
C25 C -0.1442(8) 0.6685(5) 0.0336(4)
H26 H -0.2295 0.7027 0.0081
C26 C -0.1680(8) 0.6393(5) 0.1053(4)
C27 C -0.0486(8) 0.5877(4) 0.1458(4)
C28 C 0.1026(8) 0.5696(4) 0.1122(4)
C29 C 0.2572(7) 0.5122(5) 0.1356(4)
H27 H 0.2183 0.4471 0.1322
C30 C -0.0843(9) 0.5541(5) 0.2203(4)
H28 H -0.0297 0.4940 0.2224
H29 H -0.2088 0.5444 0.2182
C31 C -0.0214(9) 0.6189(5) 0.2955(4)
H30 H -0.0359 0.6825 0.2942
C32 C 0.0517(8) 0.5959(5) 0.3628(4)
C33 C 0.1160(11) 0.6671(6) 0.4326(5)
H31 H 0.2408 0.6703 0.4382
H32 H 0.0787 0.6503 0.4805
H33 H 0.0702 0.7271 0.4244
C34 C 0.0786(11) 0.5004(5) 0.3772(5)
H34 H 0.0349 0.4578 0.3298
H35 H 0.0181 0.4895 0.4212
H36 H 0.2007 0.4908 0.3903
C35 C 0.3617(8) 0.5427(4) 0.2168(4)
C36 C 0.4032(8) 0.6329(5) 0.2462(4)
C37 C 0.4989(9) 0.6558(5) 0.3200(4)
C38 C 0.5593(8) 0.5902(5) 0.3660(4)
C39 C 0.5222(8) 0.4983(5) 0.3336(4)
C40 C 0.4257(8) 0.4739(4) 0.2597(4)
C41 C 0.6565(10) 0.6150(6) 0.4457(4)
H37 H 0.7241 0.6711 0.4475
H38 H 0.7326 0.5650 0.4568
H39 H 0.5768 0.6252 0.4852
C42 C 0.5312(10) 0.3416(5) 0.1900(5)
H40 H 0.5463 0.3720 0.1449
H41 H 0.5045 0.2764 0.1717
H42 H 0.6364 0.3480 0.2269
loop_
_geom_bond_atom_site_label_1
_geom_bond_atom_site_label_2
_geom_bond_site_symmetry_1
_geom_bond_site_symmetry_2
Cl1 C16 1_555 1_555
Cl2 C18 1_555 1_555
Cl3 C37 1_555 1_555
Cl4 C39 1_555 1_555
N1 H1 1_555 1_555
N2 H2 1_555 1_555
O1 C1 1_555 1_555
O2 H3 1_555 1_555
O3 H4 1_555 1_555
O4 H5 1_555 1_555
O5 C19 1_555 1_555
O6 C22 1_555 1_555
O7 H6 1_555 1_555
O8 H7 1_555 1_555
O9 H8 1_555 1_555
O10 C40 1_555 1_555
C1 N1 1_555 1_555
C2 C1 1_555 1_555
C3 O2 1_555 1_555
C4 C3 1_555 1_555
H9 C4 1_555 1_555
C5 O3 1_555 1_555
C6 C5 1_555 1_555
C7 C2 1_555 1_555
C8 N1 1_555 1_555
H10 C8 1_555 1_555
C9 C6 1_555 1_555
H11 C9 1_555 1_555
H12 C9 1_555 1_555
C10 C9 1_555 1_555
H13 C10 1_555 1_555
C11 C10 1_555 1_555
C12 C11 1_555 1_555
H14 C12 1_555 1_555
H15 C12 1_555 1_555
H16 C12 1_555 1_555
C13 C11 1_555 1_555
H17 C13 1_555 1_555
H18 C13 1_555 1_555
H19 C13 1_555 1_555
C14 C8 1_555 1_555
C15 O4 1_555 1_555
C16 C15 1_555 1_555
C17 C16 1_555 1_555
C18 C17 1_555 1_555
C19 C14 1_555 1_555
C20 C17 1_555 1_555
H20 C20 1_555 1_555
H21 C20 1_555 1_555
H22 C20 1_555 1_555
C21 O5 1_555 1_555
H23 C21 1_555 1_555
H24 C21 1_555 1_555
H25 C21 1_555 1_555
C22 N2 1_555 1_555
C23 C22 1_555 1_555
C24 O7 1_555 1_555
C25 C24 1_555 1_555
H26 C25 1_555 1_555
C26 O8 1_555 1_555
C27 C26 1_555 1_555
C28 C23 1_555 1_555
C29 N2 1_555 1_555
H27 C29 1_555 1_555
C30 C27 1_555 1_555
H28 C30 1_555 1_555
H29 C30 1_555 1_555
C31 C30 1_555 1_555
H30 C31 1_555 1_555
C32 C31 1_555 1_555
C33 C32 1_555 1_555
H31 C33 1_555 1_555
H32 C33 1_555 1_555
H33 C33 1_555 1_555
C34 C32 1_555 1_555
H34 C34 1_555 1_555
H35 C34 1_555 1_555
H36 C34 1_555 1_555
C35 C29 1_555 1_555
C36 O9 1_555 1_555
C37 C36 1_555 1_555
C38 C37 1_555 1_555
C39 C38 1_555 1_555
C40 C35 1_555 1_555
C41 C38 1_555 1_555
H37 C41 1_555 1_555
H38 C41 1_555 1_555
H39 C41 1_555 1_555
C42 O10 1_555 1_555
H40 C42 1_555 1_555
H41 C42 1_555 1_555
H42 C42 1_555 1_555
C2 C3 1_555 1_555
C4 C5 1_555 1_555
C6 C7 1_555 1_555
C7 C8 1_555 1_555
C14 C15 1_555 1_555
C18 C19 1_555 1_555
C23 C24 1_555 1_555
C25 C26 1_555 1_555
C27 C28 1_555 1_555
C28 C29 1_555 1_555
C35 C36 1_555 1_555
C39 C40 1_555 1_555

#END
