
#######################################################################
#
#                 Cambridge Crystallographic Data Centre
#                                CCDC 
#
#######################################################################
#
# If this CIF has been generated from an entry in the Cambridge 
# Structural Database, then it will include bibliographic, chemical, 
# crystal, experimental, refinement or atomic coordinate data resulting 
# from the CCDC's data processing and validation procedures.
#
#######################################################################

data_AFUSUR
_chemical_name_common            N,N-Diethyl-2-(1-naphthyloxy)propanamide
_chemical_formula_moiety         'C17 H21 N1 O2'
_chemical_name_systematic        N,N-diethyl-2-(naphthalen-1-yloxy)propanamide
_symmetry_cell_setting           monoclinic
_symmetry_space_group_name_H-M   'P 21'
_symmetry_Int_Tables_number      4
_space_group_name_Hall           'P 2yb'
loop_
_symmetry_equiv_pos_site_id
_symmetry_equiv_pos_as_xyz
1 x,y,z
2 -x,1/2+y,-z
_cell_length_a                   9.8733(3)
_cell_length_b                   10.7710(4)
_cell_length_c                   14.1044(5)
_cell_angle_alpha                90
_cell_angle_beta                 97.943(2)
_cell_angle_gamma                90
_cell_volume                     1485.55
_exptl_crystal_colour            colorless
_exptl_crystal_description       block
_cell_formula_units_Z            4
loop_
_atom_site_label
_atom_site_type_symbol
_atom_site_fract_x
_atom_site_fract_y
_atom_site_fract_z
O1 O 0.64959(13) 0.16746(14) -0.03108(9)
O2 O 0.66356(17) 0.40562(16) 0.14147(11)
N1 N 0.67648(18) 0.20374(17) 0.18196(11)
C1 C 0.78359(19) 0.1750(2) -0.04740(12)
C2 C 0.8753(2) 0.2628(2) -0.00987(13)
H1 H 0.8471 0.3282 0.0282
C3 C 1.0125(2) 0.2560(2) -0.02794(13)
H2 H 1.0764 0.3169 -0.0015
C4 C 1.0541(2) 0.1635(2) -0.08256(14)
H3 H 1.1471 0.1593 -0.0927
C5 C 0.9607(2) 0.0737(2) -0.12436(13)
C6 C 0.9996(2) -0.0220(2) -0.18405(14)
H4 H 1.0921 -0.0277 -0.1952
C7 C 0.9068(2) -0.1059(2) -0.22572(15)
H5 H 0.9348 -0.1690 -0.2659
C8 C 0.7705(2) -0.0996(2) -0.20960(15)
H6 H 0.7064 -0.1584 -0.2391
C9 C 0.7284(2) -0.0093(2) -0.15167(13)
H7 H 0.6355 -0.0062 -0.1412
C10 C 0.8220(2) 0.0790(2) -0.10762(12)
C11 C 0.5932(2) 0.2710(2) 0.01310(14)
H8 H 0.6113 0.3469 -0.0241
C12 C 0.4395(2) 0.2515(3) 0.00062(16)
H9 H 0.4039 0.2498 -0.0678
H10 H 0.3963 0.3196 0.0315
H11 H 0.4189 0.1725 0.0300
C13 C 0.6490(2) 0.2955(2) 0.11836(14)
C14 C 0.6488(2) 0.0708(2) 0.16476(16)
H12 H 0.5902 0.0607 0.1024
H13 H 0.5976 0.0384 0.2151
C15 C 0.7780(3) -0.0051(3) 0.16438(17)
H14 H 0.8216 0.0173 0.1084
H15 H 0.7549 -0.0936 0.1616
H16 H 0.8411 0.0119 0.2229
C16 C 0.7273(2) 0.2395(3) 0.28120(14)
H17 H 0.7921 0.3095 0.2806
H18 H 0.7778 0.1687 0.3141
C17 C 0.6128(3) 0.2773(3) 0.33670(16)
H19 H 0.5676 0.3518 0.3077
H20 H 0.6507 0.2948 0.4033
H21 H 0.5461 0.2097 0.3350
O3 O 0.33269(15) 0.94175(15) 0.27007(9)
O4 O 0.10307(16) 1.13370(15) 0.37266(11)
N2 N 0.07201(18) 0.92770(17) 0.35334(11)
C18 C 0.4283(2) 0.9270(2) 0.34998(13)
C19 C 0.4394(2) 1.0002(2) 0.42959(14)
H22 H 0.3775 1.0670 0.4334
C20 C 0.5439(2) 0.9757(2) 0.50642(15)
H23 H 0.5523 1.0273 0.5616
C21 C 0.6324(2) 0.8802(2) 0.50295(14)
H24 H 0.7016 0.8654 0.5555
C22 C 0.6222(2) 0.8019(2) 0.42105(13)
C23 C 0.7123(2) 0.7017(2) 0.41399(15)
H25 H 0.7823 0.6847 0.4656
C24 C 0.7002(2) 0.6289(2) 0.33414(16)
H26 H 0.7624 0.5623 0.3305
C25 C 0.5972(2) 0.6514(2) 0.25768(15)
H27 H 0.5897 0.6000 0.2025
C26 C 0.5073(2) 0.7470(2) 0.26198(14)
H28 H 0.4367 0.7608 0.2101
C27 C 0.5183(2) 0.8257(2) 0.34330(13)
C28 C 0.2398(2) 1.0435(2) 0.26756(14)
H29 H 0.2949 1.1204 0.2838
C29 C 0.1716(2) 1.0554(2) 0.16425(14)
H30 H 0.2415 1.0701 0.1225
H31 H 0.1074 1.1252 0.1590
H32 H 0.1221 0.9787 0.1448
C30 C 0.1332(2) 1.0349(2) 0.33672(13)
C31 C -0.0305(2) 0.9321(3) 0.41976(15)
H33 H -0.0973 0.8643 0.4034
H34 H -0.0807 1.0117 0.4108
C32 C 0.0295(3) 0.9199(3) 0.52358(14)
H35 H 0.0645 0.8354 0.5358
H36 H -0.0414 0.9368 0.5641
H37 H 0.1044 0.9795 0.5384
C33 C 0.0882(2) 0.8087(2) 0.30606(15)
H38 H 0.1411 0.8222 0.2522
H39 H -0.0033 0.7774 0.2790
C34 C 0.1596(3) 0.7109(2) 0.37179(18)
H40 H 0.2475 0.7434 0.4027
H41 H 0.1754 0.6368 0.3345
H42 H 0.1023 0.6891 0.4207
loop_
_geom_bond_atom_site_label_1
_geom_bond_atom_site_label_2
_geom_bond_site_symmetry_1
_geom_bond_site_symmetry_2
O1 C1 1_555 1_555
O2 C13 1_555 1_555
N1 C13 1_555 1_555
C1 C2 1_555 1_555
C2 H1 1_555 1_555
C3 C2 1_555 1_555
H2 C3 1_555 1_555
C4 C3 1_555 1_555
H3 C4 1_555 1_555
C5 C4 1_555 1_555
C6 C5 1_555 1_555
H4 C6 1_555 1_555
C7 C6 1_555 1_555
H5 C7 1_555 1_555
C8 C7 1_555 1_555
H6 C8 1_555 1_555
C9 C8 1_555 1_555
H7 C9 1_555 1_555
C10 C1 1_555 1_555
C11 O1 1_555 1_555
H8 C11 1_555 1_555
C12 C11 1_555 1_555
H9 C12 1_555 1_555
H10 C12 1_555 1_555
H11 C12 1_555 1_555
C13 C11 1_555 1_555
C14 N1 1_555 1_555
H12 C14 1_555 1_555
H13 C14 1_555 1_555
C15 C14 1_555 1_555
H14 C15 1_555 1_555
H15 C15 1_555 1_555
H16 C15 1_555 1_555
C16 N1 1_555 1_555
H17 C16 1_555 1_555
H18 C16 1_555 1_555
C17 C16 1_555 1_555
H19 C17 1_555 1_555
H20 C17 1_555 1_555
H21 C17 1_555 1_555
O3 C18 1_555 1_555
O4 C30 1_555 1_555
N2 C30 1_555 1_555
C18 C19 1_555 1_555
C19 H22 1_555 1_555
C20 C19 1_555 1_555
H23 C20 1_555 1_555
C21 C20 1_555 1_555
H24 C21 1_555 1_555
C22 C21 1_555 1_555
C23 C22 1_555 1_555
H25 C23 1_555 1_555
C24 C23 1_555 1_555
H26 C24 1_555 1_555
C25 C24 1_555 1_555
H27 C25 1_555 1_555
C26 C25 1_555 1_555
H28 C26 1_555 1_555
C27 C18 1_555 1_555
C28 O3 1_555 1_555
H29 C28 1_555 1_555
C29 C28 1_555 1_555
H30 C29 1_555 1_555
H31 C29 1_555 1_555
H32 C29 1_555 1_555
C30 C28 1_555 1_555
C31 N2 1_555 1_555
H33 C31 1_555 1_555
H34 C31 1_555 1_555
C32 C31 1_555 1_555
H35 C32 1_555 1_555
H36 C32 1_555 1_555
H37 C32 1_555 1_555
C33 N2 1_555 1_555
H38 C33 1_555 1_555
H39 C33 1_555 1_555
C34 C33 1_555 1_555
H40 C34 1_555 1_555
H41 C34 1_555 1_555
H42 C34 1_555 1_555
C5 C10 1_555 1_555
C9 C10 1_555 1_555
C22 C27 1_555 1_555
C26 C27 1_555 1_555

#END
