
#######################################################################
#
#                 Cambridge Crystallographic Data Centre
#                                CCDC 
#
#######################################################################
#
# If this CIF has been generated from an entry in the Cambridge 
# Structural Database, then it will include bibliographic, chemical, 
# crystal, experimental, refinement or atomic coordinate data resulting 
# from the CCDC's data processing and validation procedures.
#
#######################################################################

data_AFUTUR
_chemical_formula_moiety         'C24 H44 Br1 N1 O4 Si2'
_chemical_name_systematic        
'(+-)-syn-(Z)-2-((Methoxycarbonyl)methyl)-5-(t-butyl(dimethyl)silyl)-3-(2-(t-butyl(dimethyl)silyl)-2-cyanoethyl)-4-bromo-3-methylpent-4-enoic acid'
_symmetry_cell_setting           monoclinic
_symmetry_space_group_name_H-M   'P 21/c'
_symmetry_Int_Tables_number      14
_space_group_name_Hall           '-P 2ybc'
loop_
_symmetry_equiv_pos_site_id
_symmetry_equiv_pos_as_xyz
1 x,y,z
2 -x,1/2+y,1/2-z
3 -x,-y,-z
4 x,1/2-y,1/2+z
_cell_length_a                   15.0005(2)
_cell_length_b                   14.8773(3)
_cell_length_c                   14.1645(2)
_cell_angle_alpha                90
_cell_angle_beta                 92.7870(10)
_cell_angle_gamma                90
_cell_volume                     3157.31
_exptl_crystal_colour            colorless
_exptl_crystal_description       Cube
_chemical_melting_point          '154.1-156.2 deg.C'
_cell_formula_units_Z            4
loop_
_atom_site_label
_atom_site_type_symbol
_atom_site_fract_x
_atom_site_fract_y
_atom_site_fract_z
C1 C 0.7512(2) -0.6222(2) 0.4876(3)
H1 H 0.8098 -0.6351 0.4651
H2 H 0.7601 -0.5927 0.5484
C2 C 0.70583(18) -0.5545(2) 0.4191(3)
H3 H 0.6967 -0.5834 0.3572
C3 C 0.61477(18) -0.5309(2) 0.4559(2)
C4 C 0.76344(17) -0.46724(19) 0.4070(2)
C5 C 0.7936(2) -0.4278(2) 0.5030(2)
H4 H 0.8282 -0.4716 0.5384
H5 H 0.7422 -0.4116 0.5371
H6 H 0.8294 -0.3753 0.4937
C6 C 0.70802(19) -0.3972(2) 0.3499(2)
C7 C 0.6818(2) -0.3176(2) 0.3756(2)
H7 H 0.6991 -0.3024 0.4375
C8 C 0.5010(4) -0.2690(5) 0.2798(5)
H8 H 0.473 -0.286 0.3366
H9 H 0.5038 -0.3201 0.2387
H10 H 0.4669 -0.2222 0.2485
C9 C 0.6739(5) -0.1912(5) 0.2028(5)
H11 H 0.7324 -0.1695 0.2216
H12 H 0.6404 -0.1441 0.1713
H13 H 0.679 -0.2413 0.1606
C10 C 0.6141(4) -0.1284(4) 0.3923(4)
C11 C 0.5635(7) -0.0515(5) 0.3425(6)
H14 H 0.5041 -0.071 0.3241
H15 H 0.594 -0.034 0.2874
H16 H 0.5605 -0.0013 0.3847
C12 C 0.7093(6) -0.1001(5) 0.4224(7)
H17 H 0.7399 -0.1498 0.4526
H18 H 0.7074 -0.0506 0.4657
H19 H 0.7402 -0.0823 0.3677
C13 C 0.5642(6) -0.1592(6) 0.4836(5)
H20 H 0.5044 -0.1775 0.4654
H21 H 0.5624 -0.1101 0.5273
H22 H 0.5957 -0.2088 0.5131
C14 C 0.84642(18) -0.4940(2) 0.3513(2)
H23 H 0.8808 -0.538 0.3882
H24 H 0.8259 -0.5229 0.2928
C15 C 0.9087(2) -0.4154(2) 0.3273(2)
H25 H 0.8715 -0.3624 0.3141
C16 C 0.9700(2) -0.3942(2) 0.4074(3)
C17 C 0.9095(5) -0.4998(7) 0.1302(4)
H26 H 0.8907 -0.5553 0.1574
H27 H 0.9438 -0.5122 0.0762
H28 H 0.8581 -0.4647 0.1111
C18 C 1.0746(5) -0.5084(5) 0.2572(5)
H29 H 1.0528 -0.5643 0.2811
H30 H 1.1101 -0.4786 0.3059
H31 H 1.1105 -0.52 0.2042
C19 C 1.0165(5) -0.3266(4) 0.1722(5)
C20 C 1.0725(7) -0.3439(5) 0.0851(6)
H32 H 1.042 -0.3862 0.0438
H33 H 1.1297 -0.3679 0.1056
H34 H 1.0807 -0.2885 0.052
C21 C 1.0609(9) -0.2681(6) 0.2399(8)
H35 H 1.0239 -0.2593 0.2925
H36 H 1.0721 -0.2112 0.2107
H37 H 1.1165 -0.2946 0.2616
C22 C 0.9262(8) -0.2725(7) 0.1395(8)
H38 H 0.892 -0.3076 0.0939
H39 H 0.9418 -0.2161 0.1118
H40 H 0.8914 -0.2617 0.1936
N1 N 1.0206(2) -0.3805(3) 0.4689(3)
O1 O 0.55121(15) -0.5273(2) 0.39038(19)
H41 H 0.5041 -0.5143 0.4142
O2 O 0.60406(15) -0.5168(2) 0.53834(18)
Si1 Si 0.61525(8) -0.22790(8) 0.30965(8)
Si2 Si 0.97922(7) -0.43616(7) 0.21937(8)
Br1 Br 0.67553(3) -0.43523(3) 0.22217(3)
C23 C 0.7062(18) -0.8441(15) 0.582(3)
H42 H 0.7398 -0.8718 0.6337
H43 H 0.712 -0.8793 0.5259
H44 H 0.6445 -0.8408 0.5966
O3 O 0.7400(17) -0.7545(15) 0.567(2)
C24 C 0.7086(14) -0.7050(15) 0.5029(14)
O4 O 0.6347(7) -0.7248(7) 0.4527(12)
C25? C 0.706(3) -0.865(2) 0.529(5)
H45? H 0.728 -0.9004 0.5813
H46? H 0.7239 -0.8911 0.4709
H47? H 0.6417 -0.8629 0.5283
O5? O 0.7426(13) -0.7701(15) 0.538(2)
C26? C 0.7079(19) -0.7185(16) 0.4659(16)
O6? O 0.6820(15) -0.7427(10) 0.405(2)
loop_
_geom_bond_atom_site_label_1
_geom_bond_atom_site_label_2
_geom_bond_site_symmetry_1
_geom_bond_site_symmetry_2
C1 H1 1_555 1_555
H2 C1 1_555 1_555
C2 C1 1_555 1_555
H3 C2 1_555 1_555
C3 C2 1_555 1_555
C4 C2 1_555 1_555
C5 C4 1_555 1_555
H4 C5 1_555 1_555
H5 C5 1_555 1_555
H6 C5 1_555 1_555
C6 C4 1_555 1_555
C7 C6 1_555 1_555
H7 C7 1_555 1_555
C8 H8 1_555 1_555
H9 C8 1_555 1_555
H10 C8 1_555 1_555
C9 H11 1_555 1_555
H12 C9 1_555 1_555
H13 C9 1_555 1_555
C10 C11 1_555 1_555
C11 H14 1_555 1_555
H15 C11 1_555 1_555
H16 C11 1_555 1_555
C12 C10 1_555 1_555
H17 C12 1_555 1_555
H18 C12 1_555 1_555
H19 C12 1_555 1_555
C13 C10 1_555 1_555
H20 C13 1_555 1_555
H21 C13 1_555 1_555
H22 C13 1_555 1_555
C14 C4 1_555 1_555
H23 C14 1_555 1_555
H24 C14 1_555 1_555
C15 C14 1_555 1_555
H25 C15 1_555 1_555
C16 C15 1_555 1_555
C17 H26 1_555 1_555
H27 C17 1_555 1_555
H28 C17 1_555 1_555
C18 H29 1_555 1_555
H30 C18 1_555 1_555
H31 C18 1_555 1_555
C19 C20 1_555 1_555
C20 H32 1_555 1_555
H33 C20 1_555 1_555
H34 C20 1_555 1_555
C21 C19 1_555 1_555
H35 C21 1_555 1_555
H36 C21 1_555 1_555
H37 C21 1_555 1_555
C22 C19 1_555 1_555
H38 C22 1_555 1_555
H39 C22 1_555 1_555
H40 C22 1_555 1_555
N1 C16 1_555 1_555
O1 C3 1_555 1_555
H41 O1 1_555 1_555
O2 C3 1_555 1_555
Si1 C7 1_555 1_555
Si2 C15 1_555 1_555
Br1 C6 1_555 1_555
C23 H42 1_555 1_555
H43 C23 1_555 1_555
H44 C23 1_555 1_555
O3 C23 1_555 1_555
C24 C1 1_555 1_555
O4 C24 1_555 1_555
C8 Si1 1_555 1_555
C9 Si1 1_555 1_555
C10 Si1 1_555 1_555
C17 Si2 1_555 1_555
C18 Si2 1_555 1_555
C19 Si2 1_555 1_555
O3 C24 1_555 1_555

#END
