
#######################################################################
#
#                 Cambridge Crystallographic Data Centre
#                                CCDC 
#
#######################################################################
#
# If this CIF has been generated from an entry in the Cambridge 
# Structural Database, then it will include bibliographic, chemical, 
# crystal, experimental, refinement or atomic coordinate data resulting 
# from the CCDC's data processing and validation procedures.
#
#######################################################################

data_AFUTAY
_chemical_name_common            Bifenox
_chemical_formula_moiety         'C14 H9 Cl2 N1 O5'
_chemical_name_systematic        
'Methyl 5-(2,4-dichlorophenoxy)-2-nitrobenzoate'
_symmetry_cell_setting           triclinic
_symmetry_space_group_name_H-M   'P -1'
_symmetry_Int_Tables_number      2
_space_group_name_Hall           '-P 1'
loop_
_symmetry_equiv_pos_site_id
_symmetry_equiv_pos_as_xyz
1 x,y,z
2 -x,-y,-z
_cell_length_a                   8.4945(7)
_cell_length_b                   9.9610(8)
_cell_length_c                   10.3969(8)
_cell_angle_alpha                64.6010(10)
_cell_angle_beta                 68.7200(10)
_cell_angle_gamma                70.4210(10)
_cell_volume                     723.484
_exptl_crystal_colour            colorless
_exptl_crystal_description       block
_cell_formula_units_Z            2
loop_
_atom_site_label
_atom_site_type_symbol
_atom_site_fract_x
_atom_site_fract_y
_atom_site_fract_z
Cl1 Cl 1.32195(8) 0.11710(8) 0.94482(7)
Cl2 Cl 1.02470(9) -0.03963(9) 0.66832(8)
O1 O 0.7224(2) 0.2017(2) 0.74018(19)
O2 O 0.2690(2) 0.3461(3) 0.4414(2)
O3 O 0.4770(2) 0.2201(2) 0.3023(2)
O4 O 0.5339(3) 0.5178(3) 0.1364(2)
O5 O 0.8081(2) 0.5119(2) 0.0585(2)
N1 N 0.6782(3) 0.4819(2) 0.1575(2)
C1 C 1.1456(3) 0.1440(3) 0.8819(3)
C2 C 1.1569(3) 0.0548(3) 0.8061(3)
H1 H 1.2589 -0.0193 0.7880
C3 C 1.0159(3) 0.0761(3) 0.7571(3)
C4 C 0.8694(3) 0.1865(3) 0.7802(3)
C5 C 0.8603(3) 0.2739(3) 0.8570(3)
H2 H 0.7588 0.3487 0.8742
C6 C 0.9992(3) 0.2526(3) 0.9092(3)
H3 H 0.9935 0.3117 0.9627
C7 C 0.7221(3) 0.2709(3) 0.5937(3)
C8 C 0.8489(3) 0.3448(3) 0.4844(3)
H4 H 0.9450 0.3493 0.5076
C9 C 0.8337(3) 0.4121(3) 0.3410(3)
H5 H 0.9191 0.4638 0.2648
C10 C 0.6932(3) 0.4035(3) 0.3092(3)
C11 C 0.5659(3) 0.3277(3) 0.4177(3)
C12 C 0.5811(3) 0.2624(3) 0.5610(3)
H6 H 0.4951 0.2116 0.6375
C13 C 0.4188(3) 0.3035(3) 0.3881(3)
C14 C 0.3450(4) 0.1934(4) 0.2634(4)
H7 H 0.2658 0.1409 0.3533
H8 H 0.3999 0.1304 0.2013
H9 H 0.2802 0.2909 0.2093
loop_
_geom_bond_atom_site_label_1
_geom_bond_atom_site_label_2
_geom_bond_site_symmetry_1
_geom_bond_site_symmetry_2
Cl1 C1 1_555 1_555
Cl2 C3 1_555 1_555
O1 C4 1_555 1_555
O2 C13 1_555 1_555
O3 C13 1_555 1_555
O4 N1 1_555 1_555
O5 N1 1_555 1_555
N1 C10 1_555 1_555
C1 C2 1_555 1_555
C2 H1 1_555 1_555
C3 C2 1_555 1_555
C4 C3 1_555 1_555
C5 C4 1_555 1_555
H2 C5 1_555 1_555
C6 C1 1_555 1_555
H3 C6 1_555 1_555
C7 O1 1_555 1_555
C8 C7 1_555 1_555
H4 C8 1_555 1_555
C9 C8 1_555 1_555
H5 C9 1_555 1_555
C10 C9 1_555 1_555
C11 C10 1_555 1_555
C12 C7 1_555 1_555
H6 C12 1_555 1_555
C13 C11 1_555 1_555
C14 O3 1_555 1_555
H7 C14 1_555 1_555
H8 C14 1_555 1_555
H9 C14 1_555 1_555
C5 C6 1_555 1_555
C11 C12 1_555 1_555

#END
