
#######################################################################
#
#                 Cambridge Crystallographic Data Centre
#                                CCDC 
#
#######################################################################
#
# If this CIF has been generated from an entry in the Cambridge 
# Structural Database, then it will include bibliographic, chemical, 
# crystal, experimental, refinement or atomic coordinate data resulting 
# from the CCDC's data processing and validation procedures.
#
#######################################################################

data_AFUVOP
_chemical_formula_moiety         'C18 H16 N4 O3'
_chemical_name_systematic        
'methyl 3-(4-methylphenyl)-1-oxo-3,4-dihydro[1,2,4]triazino[4,5-a]benzimidazole-2(1H)-carboxylate'
_symmetry_cell_setting           triclinic
_symmetry_space_group_name_H-M   'P -1'
_symmetry_Int_Tables_number      2
_space_group_name_Hall           '-P 1'
loop_
_symmetry_equiv_pos_site_id
_symmetry_equiv_pos_as_xyz
1 x,y,z
2 -x,-y,-z
_cell_length_a                   9.033(6)
_cell_length_b                   10.136(7)
_cell_length_c                   10.396(7)
_cell_angle_alpha                118.323(7)
_cell_angle_beta                 91.750(8)
_cell_angle_gamma                104.198(7)
_cell_volume                     800.174
_exptl_crystal_colour            colorless
_exptl_crystal_description       Block
_cell_formula_units_Z            2
loop_
_atom_site_label
_atom_site_type_symbol
_atom_site_fract_x
_atom_site_fract_y
_atom_site_fract_z
C1 C 0.34088(19) -0.20562(17) 0.25975(16)
C2 C 0.3730(2) -0.2936(2) 0.3214(2)
H1 H 0.2957 -0.3760 0.3172
C3 C 0.5230(3) -0.2541(2) 0.3886(2)
H2 H 0.5475 -0.3118 0.4294
C4 C 0.6391(2) -0.1294(2) 0.3969(2)
H3 H 0.7389 -0.1056 0.4440
C5 C 0.61036(19) -0.0396(2) 0.33682(18)
H4 H 0.6878 0.0434 0.3420
C6 C 0.45855(17) -0.08154(16) 0.26843(16)
C7 C 0.22998(15) -0.11062(15) 0.15329(15)
C8 C 0.12979(16) -0.06453(16) 0.07521(16)
H5 H 0.1350 -0.1154 -0.0298
H6 H 0.0229 -0.0961 0.0866
C9 C 0.45337(16) 0.09998(16) 0.16720(16)
C10 C 0.37967(18) 0.25133(16) 0.05949(16)
C11 C 0.2700(3) 0.3761(2) -0.0454(2)
H7 H 0.3424 0.4751 0.0249
H8 H 0.1718 0.3911 -0.0620
H9 H 0.3083 0.3329 -0.1373
C12 C 0.16471(15) 0.20375(15) 0.29027(16)
C13 C 0.04321(18) 0.15170(18) 0.3498(2)
H10 H -0.0223 0.0496 0.2952
C14 C 0.01910(19) 0.2515(2) 0.4909(2)
H11 H -0.0622 0.2138 0.5288
C15 C 0.11242(17) 0.40555(18) 0.57678(18)
C16 C 0.23366(18) 0.45565(18) 0.51592(18)
H12 H 0.2987 0.5580 0.5705
C17 C 0.26077(17) 0.35784(17) 0.37616(18)
H13 H 0.3436 0.3952 0.3394
C18 C 0.0849(2) 0.5150(2) 0.7289(2)
H14 H 0.0285 0.5805 0.7213
H15 H 0.1827 0.5793 0.7934
H16 H 0.0261 0.4546 0.7686
N1 N 0.19839(15) -0.22095(14) 0.18676(14)
N2 N 0.38504(12) -0.01748(13) 0.20068(13)
N3 N 0.18624(12) 0.10692(13) 0.14109(14)
N4 N 0.34169(13) 0.15019(14) 0.11964(14)
O1 O 0.59114(12) 0.14698(14) 0.17607(15)
O2 O 0.50858(14) 0.31074(15) 0.05394(15)
O3 O 0.25088(13) 0.26834(14) 0.01285(14)
loop_
_geom_bond_atom_site_label_1
_geom_bond_atom_site_label_2
_geom_bond_site_symmetry_1
_geom_bond_site_symmetry_2
C1 C2 1_555 1_555
C2 H1 1_555 1_555
C3 C2 1_555 1_555
H2 C3 1_555 1_555
C4 C3 1_555 1_555
H3 C4 1_555 1_555
C5 C4 1_555 1_555
H4 C5 1_555 1_555
C6 C1 1_555 1_555
C7 C8 1_555 1_555
C8 H5 1_555 1_555
H6 C8 1_555 1_555
C9 N2 1_555 1_555
C10 N4 1_555 1_555
C11 H7 1_555 1_555
H8 C11 1_555 1_555
H9 C11 1_555 1_555
C12 C13 1_555 1_555
C13 H10 1_555 1_555
C14 C13 1_555 1_555
H11 C14 1_555 1_555
C15 C14 1_555 1_555
C16 C15 1_555 1_555
H12 C16 1_555 1_555
C17 C12 1_555 1_555
H13 C17 1_555 1_555
C18 C15 1_555 1_555
H14 C18 1_555 1_555
H15 C18 1_555 1_555
H16 C18 1_555 1_555
N1 C1 1_555 1_555
N2 C6 1_555 1_555
N3 C8 1_555 1_555
N4 C9 1_555 1_555
O1 C9 1_555 1_555
O2 C10 1_555 1_555
O3 C10 1_555 1_555
C5 C6 1_555 1_555
C7 N1 1_555 1_555
C7 N2 1_555 1_555
C11 O3 1_555 1_555
C12 N3 1_555 1_555
C16 C17 1_555 1_555
N3 N4 1_555 1_555

#END
