
#######################################################################
#
#                 Cambridge Crystallographic Data Centre
#                                CCDC 
#
#######################################################################
#
# If this CIF has been generated from an entry in the Cambridge 
# Structural Database, then it will include bibliographic, chemical, 
# crystal, experimental, refinement or atomic coordinate data resulting 
# from the CCDC's data processing and validation procedures.
#
#######################################################################

data_AFUWUV
_chemical_formula_moiety         'C7 H6 Cl2 N1 O2 S1 1-,H2 O1,K1 1+'
_chemical_name_systematic        
'Potassium chloro((4-chloro-2-methylphenyl)sulfonyl)azanide monohydrate'
_symmetry_cell_setting           monoclinic
_symmetry_space_group_name_H-M   'P 21/c'
_symmetry_Int_Tables_number      14
_space_group_name_Hall           '-P 2ybc'
loop_
_symmetry_equiv_pos_site_id
_symmetry_equiv_pos_as_xyz
1 x,y,z
2 -x,1/2+y,1/2-z
3 -x,-y,-z
4 x,1/2-y,1/2+z
_cell_length_a                   15.1900(10)
_cell_length_b                   11.3138(9)
_cell_length_c                   6.7200(5)
_cell_angle_alpha                90
_cell_angle_beta                 100.627(7)
_cell_angle_gamma                90
_cell_volume                     1135.07
_exptl_crystal_colour            colorless
_exptl_crystal_description       plate
_cell_formula_units_Z            4
loop_
_atom_site_label
_atom_site_type_symbol
_atom_site_fract_x
_atom_site_fract_y
_atom_site_fract_z
C1 C 0.2356(4) 0.4297(6) 0.1358(9)
C2 C 0.1902(4) 0.5272(6) 0.1947(9)
C3 C 0.1045(5) 0.5082(8) 0.2363(10)
H1 H 0.0720 0.5711 0.2749
C4 C 0.0680(5) 0.3960(8) 0.2203(11)
C5 C 0.1126(5) 0.3003(8) 0.1652(12)
H2 H 0.0870 0.2254 0.1570
C6 C 0.1975(5) 0.3183(7) 0.1216(10)
H3 H 0.2291 0.2547 0.0824
C7 C 0.2269(5) 0.6544(6) 0.2104(11)
H4 H 0.2240 0.6863 0.0769
H5 H 0.2880 0.6539 0.2803
H6 H 0.1916 0.7024 0.2837
N1 N 0.3485(4) 0.5488(5) -0.0738(9)
O1 O 0.4057(3) 0.4798(5) 0.2621(7)
O2 O 0.3645(3) 0.3298(4) -0.0029(7)
Cl1 Cl 0.27213(14) 0.52161(18) -0.3006(3)
Cl2 Cl -0.03915(14) 0.3782(3) 0.2755(4)
S1 S 0.34542(10) 0.44325(14) 0.0788(2)
O3 O 0.5671(4) 0.2308(6) -0.0773(10)
H7 H 0.595(5) 0.292(5) -0.027(13)
H8 H 0.598(5) 0.197(7) -0.153(12)
K1 K 0.44984(10) 0.36919(13) -0.3505(2)
loop_
_geom_bond_atom_site_label_1
_geom_bond_atom_site_label_2
_geom_bond_site_symmetry_1
_geom_bond_site_symmetry_2
C1 C2 1_555 1_555
C2 C3 1_555 1_555
C3 H1 1_555 1_555
C4 C3 1_555 1_555
C5 C4 1_555 1_555
H2 C5 1_555 1_555
C6 C1 1_555 1_555
H3 C6 1_555 1_555
C7 C2 1_555 1_555
H4 C7 1_555 1_555
H5 C7 1_555 1_555
H6 C7 1_555 1_555
N1 Cl1 1_555 1_555
O1 S1 1_555 1_555
O2 S1 1_555 1_555
Cl2 C4 1_555 1_555
S1 C1 1_555 1_555
O3 H7 1_555 1_555
H8 O3 1_555 1_555
C5 C6 1_555 1_555
N1 S1 1_555 1_555

#END
