
#######################################################################
#
#                 Cambridge Crystallographic Data Centre
#                                CCDC 
#
#######################################################################
#
# If this CIF has been generated from an entry in the Cambridge 
# Structural Database, then it will include bibliographic, chemical, 
# crystal, experimental, refinement or atomic coordinate data resulting 
# from the CCDC's data processing and validation procedures.
#
#######################################################################

data_AFUYEI
_chemical_formula_moiety         'C11 H16 Br1 N1 O1'
_chemical_name_systematic        4-[(3-bromo-4-methylphenyl)amino]butan-1-ol
_symmetry_cell_setting           monoclinic
_symmetry_space_group_name_H-M   'P 21/c'
_symmetry_Int_Tables_number      14
_space_group_name_Hall           '-P 2ybc'
loop_
_symmetry_equiv_pos_site_id
_symmetry_equiv_pos_as_xyz
1 x,y,z
2 -x,1/2+y,1/2-z
3 -x,-y,-z
4 x,1/2-y,1/2+z
_cell_length_a                   12.1817(7)
_cell_length_b                   6.0879(3)
_cell_length_c                   15.7708(8)
_cell_angle_alpha                90
_cell_angle_beta                 102.615(5)
_cell_angle_gamma                90
_cell_volume                     1141.34
_exptl_crystal_colour            colorless
_exptl_crystal_description       prism
_cell_formula_units_Z            4
loop_
_atom_site_label
_atom_site_type_symbol
_atom_site_fract_x
_atom_site_fract_y
_atom_site_fract_z
Br1 Br 0.78652(3) 0.43441(7) 0.74277(3)
C1 C 0.7458(2) 0.7787(5) 0.62022(17)
H1 H 0.6803 0.7957 0.6408
C2 C 0.8226(2) 0.6177(5) 0.65466(18)
C3 C 0.9231(2) 0.5834(5) 0.62857(19)
C4 C 0.9410(2) 0.7220(5) 0.56391(19)
H2 H 1.0070 0.7054 0.5441
C5 C 0.8665(2) 0.8843(5) 0.52672(19)
H3 H 0.8830 0.9729 0.4831
C6 C 0.7664(2) 0.9151(4) 0.55490(17)
C7 C 1.0074(3) 0.4102(5) 0.6675(2)
H4 H 1.0302 0.4329 0.7291
H5 H 1.0719 0.4198 0.6420
H6 H 0.9738 0.2675 0.6564
C8 C 0.7136(2) 1.2409(5) 0.46092(19)
H7 H 0.7381 1.1759 0.4121
H8 H 0.7754 1.3269 0.4940
C9 C 0.6133(3) 1.3909(5) 0.4274(2)
H9 H 0.5501 1.3029 0.3978
H10 H 0.5918 1.4623 0.4763
C10 C 0.6389(3) 1.5640(5) 0.3658(2)
H11 H 0.6604 1.4919 0.3170
H12 H 0.7026 1.6508 0.3955
C11 C 0.5403(3) 1.7168(5) 0.3316(2)
H13 H 0.5621 1.8210 0.2917
H14 H 0.4780 1.6309 0.2992
N1 N 0.6847(2) 1.0672(4) 0.51580(17)
H15 H 0.642(3) 1.102(5) 0.548(2)
O1 O 0.50347(19) 1.8341(4) 0.39756(17)
H16 H 0.554(3) 1.896(6) 0.425(3)
loop_
_geom_bond_atom_site_label_1
_geom_bond_atom_site_label_2
_geom_bond_site_symmetry_1
_geom_bond_site_symmetry_2
Br1 C2 1_555 1_555
C1 H1 1_555 1_555
C2 C1 1_555 1_555
C3 C2 1_555 1_555
C4 C3 1_555 1_555
H2 C4 1_555 1_555
C5 C4 1_555 1_555
H3 C5 1_555 1_555
C6 C1 1_555 1_555
C7 C3 1_555 1_555
H4 C7 1_555 1_555
H5 C7 1_555 1_555
H6 C7 1_555 1_555
C8 H7 1_555 1_555
H8 C8 1_555 1_555
C9 C8 1_555 1_555
H9 C9 1_555 1_555
H10 C9 1_555 1_555
C10 C9 1_555 1_555
H11 C10 1_555 1_555
H12 C10 1_555 1_555
C11 C10 1_555 1_555
H13 C11 1_555 1_555
H14 C11 1_555 1_555
N1 C6 1_555 1_555
H15 N1 1_555 1_555
O1 C11 1_555 1_555
H16 O1 1_555 1_555
C5 C6 1_555 1_555
C8 N1 1_555 1_555

#END
