
#######################################################################
#
#                 Cambridge Crystallographic Data Centre
#                                CCDC 
#
#######################################################################
#
# If this CIF has been generated from an entry in the Cambridge 
# Structural Database, then it will include bibliographic, chemical, 
# crystal, experimental, refinement or atomic coordinate data resulting 
# from the CCDC's data processing and validation procedures.
#
#######################################################################

data_AFUYEF
_chemical_formula_moiety         'C18 H13 Br1 Cl1 N1 O3'
_chemical_name_systematic        
1-Acetyl-3'-(4-bromophenyl)-3'-chlorospiro(3H-indole-3,2'-oxetan)-2(1H)-one
_symmetry_cell_setting           monoclinic
_symmetry_space_group_name_H-M   'P 21/c'
_symmetry_Int_Tables_number      14
_space_group_name_Hall           '-P 2ybc'
loop_
_symmetry_equiv_pos_site_id
_symmetry_equiv_pos_as_xyz
1 x,y,z
2 x,1/2-y,1/2+z
3 -x,-y,-z
4 -x,1/2+y,1/2-z
_cell_length_a                   18.5810(5)
_cell_length_b                   12.5906(4)
_cell_length_c                   7.4709(2)
_cell_angle_alpha                90
_cell_angle_beta                 94.6450(10)
_cell_angle_gamma                90
_cell_volume                     1742.05
_exptl_crystal_colour            colorless
_exptl_crystal_description       slab
_chemical_melting_point          '382 K'
_cell_formula_units_Z            4
_exptl_crystal_recrystallization_method 'acetone/petroleum ether'
loop_
_atom_site_label
_atom_site_type_symbol
_atom_site_fract_x
_atom_site_fract_y
_atom_site_fract_z
Br1 Br 0.01467(2) 0.17658(4) 0.02239(7)
Cl1 Cl 0.38225(4) 0.06873(6) 0.14071(12)
N1 N 0.25402(12) -0.13389(18) 0.5294(3)
O1 O 0.24139(12) 0.03406(17) 0.6532(3)
O2 O 0.38958(11) 0.06516(17) 0.5772(3)
O3 O 0.18197(14) -0.2778(2) 0.5427(4)
C1 C 0.27250(16) -0.0274(2) 0.5641(4)
C2 C 0.31508(15) -0.1864(2) 0.4589(4)
C3 C 0.32712(18) -0.2932(2) 0.4324(4)
H1 H 0.2920 -0.3436 0.4517
C4 C 0.3933(2) -0.3223(3) 0.3762(4)
H2 H 0.4025 -0.3938 0.3572
C5 C 0.44571(19) -0.2491(3) 0.3476(4)
H3 H 0.4897 -0.2716 0.3099
C6 C 0.43368(16) -0.1421(3) 0.3744(4)
H4 H 0.4692 -0.0921 0.3559
C7 C 0.36768(14) -0.1113(2) 0.4291(4)
C8 C 0.34101(15) -0.0042(2) 0.4713(4)
C9 C 0.32712(15) 0.0872(2) 0.3264(4)
C10 C 0.36599(17) 0.1576(2) 0.4714(5)
H5 H 0.4055 0.1981 0.4286
H6 H 0.3336 0.2036 0.5314
C11 C 0.25103(15) 0.1110(2) 0.2527(4)
C12 C 0.22197(17) 0.2117(2) 0.2610(4)
H7 H 0.2497 0.2664 0.3142
C13 C 0.15194(18) 0.2320(3) 0.1910(5)
H8 H 0.1329 0.3002 0.1950
C14 C 0.11113(17) 0.1500(3) 0.1158(5)
C15 C 0.13853(18) 0.0483(3) 0.1064(5)
H9 H 0.1102 -0.0065 0.0557
C16 C 0.20849(17) 0.0300(3) 0.1736(5)
H10 H 0.2278 -0.0378 0.1662
C17 C 0.18800(18) -0.1837(3) 0.5626(5)
C18 C 0.12870(19) -0.1140(3) 0.6140(7)
H11 H 0.1190 -0.0606 0.5235
H12 H 0.1427 -0.0805 0.7269
H13 H 0.0860 -0.1557 0.6249
loop_
_geom_bond_atom_site_label_1
_geom_bond_atom_site_label_2
_geom_bond_site_symmetry_1
_geom_bond_site_symmetry_2
Br1 C14 1_555 1_555
Cl1 C9 1_555 1_555
N1 C1 1_555 1_555
O1 C1 1_555 1_555
O2 C8 1_555 1_555
O3 C17 1_555 1_555
C1 C8 1_555 1_555
C2 N1 1_555 1_555
C3 C2 1_555 1_555
H1 C3 1_555 1_555
C4 C3 1_555 1_555
H2 C4 1_555 1_555
C5 C4 1_555 1_555
H3 C5 1_555 1_555
C6 C5 1_555 1_555
H4 C6 1_555 1_555
C7 C2 1_555 1_555
C8 C7 1_555 1_555
C9 C8 1_555 1_555
C10 O2 1_555 1_555
H5 C10 1_555 1_555
H6 C10 1_555 1_555
C11 C9 1_555 1_555
C12 C11 1_555 1_555
H7 C12 1_555 1_555
C13 C12 1_555 1_555
H8 C13 1_555 1_555
C14 C13 1_555 1_555
C15 C14 1_555 1_555
H9 C15 1_555 1_555
C16 C11 1_555 1_555
H10 C16 1_555 1_555
C17 N1 1_555 1_555
C18 C17 1_555 1_555
H11 C18 1_555 1_555
H12 C18 1_555 1_555
H13 C18 1_555 1_555
C6 C7 1_555 1_555
C9 C10 1_555 1_555
C15 C16 1_555 1_555

#END
