
#######################################################################
#
#                 Cambridge Crystallographic Data Centre
#                                CCDC 
#
#######################################################################
#
# If this CIF has been generated from an entry in the Cambridge 
# Structural Database, then it will include bibliographic, chemical, 
# crystal, experimental, refinement or atomic coordinate data resulting 
# from the CCDC's data processing and validation procedures.
#
#######################################################################

data_AGAGIA
_chemical_formula_moiety         'C32 H25 Cl2 N3 O7 S1,C1 H1 Cl3'
_chemical_name_systematic        
"4'-(((Benzyloxy)carbonyl)amino)-5'-oxo-1-(phenylsulfonyl)-1,2-dihydrospiro[indole-3,2'-pyrrolidin]-2-yl 2,4-dichlorobenzoate chloroform solvate"
_symmetry_cell_setting           orthorhombic
_symmetry_space_group_name_H-M   'P 21 21 21'
_symmetry_Int_Tables_number      19
_space_group_name_Hall           'P 2ac 2ab'
loop_
_symmetry_equiv_pos_site_id
_symmetry_equiv_pos_as_xyz
1 x,y,z
2 1/2-x,-y,1/2+z
3 1/2+x,1/2-y,-z
4 -x,1/2+y,1/2-z
_cell_length_a                   9.6220(13)
_cell_length_b                   18.082(2)
_cell_length_c                   19.975(3)
_cell_angle_alpha                90
_cell_angle_beta                 90
_cell_angle_gamma                90
_cell_volume                     3475.35
_exptl_crystal_colour            colorless
_exptl_crystal_description       'rectangular prism'
_cell_formula_units_Z            4
loop_
_atom_site_label
_atom_site_type_symbol
_atom_site_fract_x
_atom_site_fract_y
_atom_site_fract_z
N1 N -0.4670(9) -0.8722(3) -0.4607(5)
H1 H -0.5464 -0.8807 -0.4402
C1 C -0.3588(10) -0.9184(6) -0.4559(8)
O1 O -0.2523(6) -0.9171(4) -0.4891(3)
O2 O -0.3834(5) -0.9676(3) -0.4064(4)
C2 C -0.2702(6) -1.0190(4) -0.3954(3)
H2 H -0.1814 -0.9918 -0.3911
H3 H -0.2626 -1.0536 -0.4336
C3 C -0.3009(9) -1.0611(3) -0.3316(3)
C4 C -0.3103(6) -1.1379(3) -0.3349(3)
H4 H -0.3020 -1.1625 -0.3768
C5 C -0.3319(7) -1.1785(3) -0.2767(3)
H5 H -0.3370 -1.2309 -0.2784
C6 C -0.3456(9) -1.1422(4) -0.2168(4)
H6 H -0.3586 -1.1702 -0.1771
C7 C -0.3411(7) -1.0662(5) -0.2125(3)
H7 H -0.3530 -1.0418 -0.1708
C8 C -0.3185(13) -1.0261(4) -0.2715(3)
H8 H -0.3153 -0.9737 -0.2697
S1 S -0.29494(8) -0.62251(4) -0.72931(4)
Cl1 Cl -0.31774(12) -0.56989(6) -0.36730(4)
Cl2 Cl -0.49271(14) -0.29535(6) -0.41396(6)
O3 O -0.4086(2) -0.60438(11) -0.58298(10)
O4 O -0.3285(3) -0.63840(14) -0.79791(12)
N2 N -0.4122(3) -0.66711(14) -0.68443(12)
O5 O -0.1628(2) -0.64293(14) -0.70218(14)
O6 O -0.5847(3) -0.74250(15) -0.41832(11)
O7 O -0.2767(2) -0.64157(15) -0.49629(12)
N3 N -0.5748(3) -0.70390(15) -0.52756(12)
H9 H -0.6268 -0.6641 -0.5231
C9 C -0.3912(3) -0.67681(16) -0.61307(13)
H10 H -0.2993 -0.6997 -0.6022
C10 C -0.5431(3) -0.74803(18) -0.47576(15)
C11 C -0.6178(3) -0.71589(16) -0.64868(14)
C12 C -0.5172(3) -0.72657(15) -0.59141(13)
C13 C -0.3169(3) -0.52653(17) -0.71610(15)
C14 C -0.3484(3) -0.59528(18) -0.52197(15)
C15 C -0.7569(3) -0.73539(18) -0.65189(16)
H11 H -0.8004 -0.7601 -0.6155
C16 C -0.5534(3) -0.68058(15) -0.70183(14)
C17 C -0.4757(3) -0.80812(16) -0.57729(15)
H12 H -0.5529 -0.8424 -0.5877
H13 H -0.3926 -0.8226 -0.6034
C18 C -0.4445(3) -0.80681(18) -0.50202(16)
H14 H -0.3468 -0.7894 -0.4953
C19 C -0.7662(4) -0.68330(19) -0.76262(17)
H15 H -0.8183 -0.6722 -0.8018
C20 C -0.3850(3) -0.52145(18) -0.49409(16)
C21 C -0.8317(3) -0.71797(19) -0.70951(17)
H16 H -0.9277 -0.7299 -0.7123
C22 C -0.6258(4) -0.66419(17) -0.76024(15)
H17 H -0.5813 -0.6409 -0.7971
C23 C -0.4669(4) -0.3963(2) -0.5130(2)
H18 H -0.4990 -0.3588 -0.5426
C24 C -0.3720(4) -0.5053(2) -0.42582(16)
C25 C -0.4329(4) -0.46571(19) -0.53665(17)
H19 H -0.4424 -0.4759 -0.5831
C26 C -0.2063(4) -0.48591(19) -0.69075(17)
H20 H -0.1229 -0.5098 -0.6772
C27 C -0.4395(4) -0.49278(18) -0.73565(18)
H21 H -0.5139 -0.5212 -0.7535
C28 C -0.4529(4) -0.3827(2) -0.44470(19)
C29 C -0.4521(4) -0.4164(2) -0.7287(2)
H22 H -0.5360 -0.3924 -0.7412
C30 C -0.4078(4) -0.4362(2) -0.40145(18)
H23 H -0.4010 -0.4260 -0.3549
C31 C -0.3419(5) -0.3754(2) -0.7038(2)
H24 H -0.3507 -0.3234 -0.6991
C32 C -0.2199(5) -0.4098(2) -0.68558(19)
H25 H -0.1444 -0.3811 -0.6693
Cl3 Cl -0.3677(2) -1.17826(13) -0.55661(7)
Cl4 Cl -0.59671(16) -1.11438(11) -0.48415(7)
Cl5 Cl -0.4615(3) -1.03104(10) -0.58594(8)
C41 C -0.5119(6) -1.1183(3) -0.5618(2)
H35 H -0.5782 -1.1383 -0.5959
N4? N -0.458(2) -0.8805(8) -0.4729(14)
H26? H -0.5446 -0.8954 -0.4678
C33? C -0.361(2) -0.9300(15) -0.4522(17)
O8? O -0.2406(14) -0.9268(10) -0.4728(7)
O9? O -0.4114(13) -0.9848(7) -0.4142(9)
C34? C -0.3127(14) -1.0437(7) -0.3971(6)
H27? H -0.2166 -1.0269 -0.4063
H28? H -0.3315 -1.0880 -0.4248
C35? C -0.328(3) -1.0624(6) -0.3242(6)
C36? C -0.3299(14) -1.1352(6) -0.3026(6)
H29? H -0.3301 -1.1735 -0.3352
C37? C -0.331(2) -1.1544(7) -0.2355(6)
H30? H -0.3331 -1.2046 -0.2213
C38? C -0.3306(14) -1.0964(6) -0.1903(6)
H31? H -0.3335 -1.1074 -0.1438
C39? C -0.3257(15) -1.0230(7) -0.2098(6)
H32? H -0.3244 -0.9848 -0.1772
C40? C -0.323(3) -1.0060(7) -0.2774(6)
H33? H -0.3173 -0.9559 -0.2915
H34? H -0.3468 -0.7894 -0.4953
loop_
_geom_bond_atom_site_label_1
_geom_bond_atom_site_label_2
_geom_bond_site_symmetry_1
_geom_bond_site_symmetry_2
N1 H1 1_555 1_555
C1 N1 1_555 1_555
O1 C1 1_555 1_555
O2 C1 1_555 1_555
C2 O2 1_555 1_555
H2 C2 1_555 1_555
H3 C2 1_555 1_555
C3 C2 1_555 1_555
C4 C3 1_555 1_555
H4 C4 1_555 1_555
C5 C4 1_555 1_555
H5 C5 1_555 1_555
C6 C5 1_555 1_555
H6 C6 1_555 1_555
C7 C6 1_555 1_555
H7 C7 1_555 1_555
C8 C3 1_555 1_555
H8 C8 1_555 1_555
S1 O4 1_555 1_555
Cl1 C24 1_555 1_555
Cl2 C28 1_555 1_555
O3 C9 1_555 1_555
N2 S1 1_555 1_555
O5 S1 1_555 1_555
O6 C10 1_555 1_555
O7 C14 1_555 1_555
N3 H9 1_555 1_555
C9 N2 1_555 1_555
H10 C9 1_555 1_555
C10 N3 1_555 1_555
C11 C12 1_555 1_555
C12 N3 1_555 1_555
C13 S1 1_555 1_555
C14 O3 1_555 1_555
C15 C11 1_555 1_555
H11 C15 1_555 1_555
C16 N2 1_555 1_555
C17 C12 1_555 1_555
H12 C17 1_555 1_555
H13 C17 1_555 1_555
C18 N1 1_555 1_555
H14 C18 1_555 1_555
C19 H15 1_555 1_555
C20 C14 1_555 1_555
C21 C15 1_555 1_555
H16 C21 1_555 1_555
C22 C16 1_555 1_555
H17 C22 1_555 1_555
C23 H18 1_555 1_555
C24 C20 1_555 1_555
C25 C20 1_555 1_555
H19 C25 1_555 1_555
C26 C13 1_555 1_555
H20 C26 1_555 1_555
C27 C13 1_555 1_555
H21 C27 1_555 1_555
C28 C23 1_555 1_555
C29 C27 1_555 1_555
H22 C29 1_555 1_555
C30 C24 1_555 1_555
H23 C30 1_555 1_555
C31 C29 1_555 1_555
H24 C31 1_555 1_555
C32 C26 1_555 1_555
H25 C32 1_555 1_555
Cl3 C41 1_555 1_555
Cl4 C41 1_555 1_555
Cl5 C41 1_555 1_555
C41 H35 1_555 1_555
C7 C8 1_555 1_555
C9 C12 1_555 1_555
C10 C18 1_555 1_555
C11 C16 1_555 1_555
C17 C18 1_555 1_555
C19 C21 1_555 1_555
C19 C22 1_555 1_555
C23 C25 1_555 1_555
C28 C30 1_555 1_555
C31 C32 1_555 1_555

#END
