
#######################################################################
#
#                 Cambridge Crystallographic Data Centre
#                                CCDC 
#
#######################################################################
#
# If this CIF has been generated from an entry in the Cambridge 
# Structural Database, then it will include bibliographic, chemical, 
# crystal, experimental, refinement or atomic coordinate data resulting 
# from the CCDC's data processing and validation procedures.
#
#######################################################################

data_AGAGEW
_chemical_formula_moiety         'C23 H16 Cl2 N2 O6 S1,C3 H6 O1'
_chemical_name_systematic        
"2'-Oxo-1-(phenylsulfonyl)-1,2-dihydrospiro[indole-3,4'-[1,3]oxazolidin]-2-yl 2,4-dichlorobenzoate acetone solvate"
_symmetry_cell_setting           orthorhombic
_symmetry_space_group_name_H-M   'P 21 21 21'
_symmetry_Int_Tables_number      19
_space_group_name_Hall           'P 2ac 2ab'
loop_
_symmetry_equiv_pos_site_id
_symmetry_equiv_pos_as_xyz
1 x,y,z
2 1/2-x,-y,1/2+z
3 1/2+x,1/2-y,-z
4 -x,1/2+y,1/2-z
_cell_length_a                   9.6790(7)
_cell_length_b                   11.8883(8)
_cell_length_c                   22.4824(16)
_cell_angle_alpha                90
_cell_angle_beta                 90
_cell_angle_gamma                90
_cell_volume                     2586.98
_exptl_crystal_colour            colorless
_exptl_crystal_description       trapezoid
_cell_formula_units_Z            4
loop_
_atom_site_label
_atom_site_type_symbol
_atom_site_fract_x
_atom_site_fract_y
_atom_site_fract_z
S1 S -0.34671(8) -0.63107(7) -0.37915(3)
Cl1 Cl -0.23589(8) -0.75974(6) -0.77535(3)
Cl2 Cl -0.48860(12) -0.41431(9) -0.67393(4)
O1 O -0.2651(2) -0.52795(17) -0.50882(8)
O2 O -0.2056(2) -0.18893(19) -0.49684(9)
O3 O -0.3946(2) -0.39473(19) -0.55253(9)
O4 O -0.4628(3) -0.6284(2) -0.41848(10)
O5 O -0.0792(2) -0.2090(2) -0.58048(10)
N1 N -0.2383(3) -0.5384(2) -0.40660(10)
O6 O -0.2724(3) -0.7335(2) -0.36985(12)
N2 N -0.0957(2) -0.3498(2) -0.51070(10)
C1 C -0.2683(3) -0.6833(2) -0.71118(12)
C2 C -0.3989(3) -0.5812(3) -0.30903(12)
C3 C -0.3316(3) -0.4817(3) -0.55603(12)
C4 C -0.3802(3) -0.5279(3) -0.66402(13)
C5 C -0.0603(3) -0.4115(2) -0.40717(12)
C6 C -0.1605(3) -0.3683(2) -0.45360(11)
C7 C -0.1211(3) -0.2469(3) -0.53381(12)
C8 C -0.2018(3) -0.7107(3) -0.65881(13)
H1 H -0.1427 -0.7723 -0.6571
C9 C -0.3595(3) -0.5943(3) -0.71431(12)
H2 H -0.4065 -0.5789 -0.7495
C10 C -0.3138(3) -0.5526(2) -0.61030(11)
C11 C -0.2747(3) -0.4623(2) -0.45473(11)
H3 H -0.3674 -0.4307 -0.4494
C12 C -0.1075(3) -0.5103(2) -0.38158(12)
C13 C -0.2246(3) -0.6452(2) -0.60902(12)
H4 H -0.1794 -0.6631 -0.5738
C14 C -0.0302(3) -0.5688(3) -0.34014(12)
H5 H -0.0618 -0.6354 -0.3233
C15 C -0.2185(3) -0.2489(3) -0.44138(12)
H6 H -0.3144 -0.2529 -0.4291
H7 H -0.1658 -0.2119 -0.4103
C16 C -0.3594(4) -0.6395(3) -0.25827(14)
H8 H -0.2988 -0.7000 -0.2607
C17 C 0.0669(3) -0.3674(3) -0.39235(13)
H9 H 0.0991 -0.3018 -0.4101
C18 C -0.4869(3) -0.4895(3) -0.30629(14)
H10 H -0.5122 -0.4509 -0.3406
C19 C -0.5364(4) -0.4565(4) -0.25087(17)
H11 H -0.5940 -0.3941 -0.2479
C20 C 0.1459(3) -0.4242(3) -0.35004(14)
H12 H 0.2313 -0.3955 -0.3387
C21 C 0.0984(3) -0.5227(3) -0.32480(13)
H13 H 0.1531 -0.5594 -0.2969
C22 C -0.4123(4) -0.6055(4) -0.20380(14)
H14 H -0.3877 -0.6441 -0.1694
C23 C -0.5009(4) -0.5152(4) -0.20035(15)
H15 H -0.5369 -0.4937 -0.1637
H16 H -0.037(3) -0.405(2) -0.5318(15)
O7 O -0.8934(3) -0.5021(2) -0.55872(10)
C24 C -0.8230(4) -0.5681(3) -0.53116(15)
C25 C -0.8877(6) -0.6438(4) -0.48582(18)
H17 H -0.8508 -0.6268 -0.4472
H18 H -0.8681 -0.7207 -0.4956
H19 H -0.9859 -0.6323 -0.4855
C26 C -0.6713(4) -0.5759(4) -0.5408(2)
H20 H -0.6475 -0.5389 -0.5773
H21 H -0.6446 -0.6536 -0.5429
H22 H -0.6240 -0.5403 -0.5083
loop_
_geom_bond_atom_site_label_1
_geom_bond_atom_site_label_2
_geom_bond_site_symmetry_1
_geom_bond_site_symmetry_2
S1 O4 1_555 1_555
Cl1 C1 1_555 1_555
Cl2 C4 1_555 1_555
O1 C3 1_555 1_555
O2 C7 1_555 1_555
O3 C3 1_555 1_555
O5 C7 1_555 1_555
N1 S1 1_555 1_555
O6 S1 1_555 1_555
N2 C6 1_555 1_555
C1 C8 1_555 1_555
C2 S1 1_555 1_555
C3 C10 1_555 1_555
C4 C9 1_555 1_555
C5 C6 1_555 1_555
C6 C11 1_555 1_555
C7 N2 1_555 1_555
C8 H1 1_555 1_555
C9 C1 1_555 1_555
H2 C9 1_555 1_555
C10 C4 1_555 1_555
C11 O1 1_555 1_555
H3 C11 1_555 1_555
C12 N1 1_555 1_555
C13 C8 1_555 1_555
H4 C13 1_555 1_555
C14 C12 1_555 1_555
H5 C14 1_555 1_555
C15 O2 1_555 1_555
H6 C15 1_555 1_555
H7 C15 1_555 1_555
C16 C2 1_555 1_555
H8 C16 1_555 1_555
C17 C5 1_555 1_555
H9 C17 1_555 1_555
C18 C2 1_555 1_555
H10 C18 1_555 1_555
C19 C18 1_555 1_555
H11 C19 1_555 1_555
C20 C17 1_555 1_555
H12 C20 1_555 1_555
C21 C14 1_555 1_555
H13 C21 1_555 1_555
C22 C16 1_555 1_555
H14 C22 1_555 1_555
C23 C19 1_555 1_555
H15 C23 1_555 1_555
H16 N2 1_555 1_555
O7 C24 1_555 1_555
C24 C25 1_555 1_555
C25 H17 1_555 1_555
H18 C25 1_555 1_555
H19 C25 1_555 1_555
C26 C24 1_555 1_555
H20 C26 1_555 1_555
H21 C26 1_555 1_555
H22 C26 1_555 1_555
N1 C11 1_555 1_555
C5 C12 1_555 1_555
C6 C15 1_555 1_555
C10 C13 1_555 1_555
C20 C21 1_555 1_555
C22 C23 1_555 1_555

#END
