
#######################################################################
#
#                 Cambridge Crystallographic Data Centre
#                                CCDC 
#
#######################################################################
#
# If this CIF has been generated from an entry in the Cambridge 
# Structural Database, then it will include bibliographic, chemical, 
# crystal, experimental, refinement or atomic coordinate data resulting 
# from the CCDC's data processing and validation procedures.
#
#######################################################################

data_AGAHUO
_chemical_name_common            
"5,10:15,20-bis(2,2'-[propane-1,3-diylbis(oxy)]bis(5-t-butylphenylene))porphyrin unknown solvate"
_chemical_formula_moiety         'C66 H70 N4 O4'
_chemical_name_systematic        
'9,21,32,44-tetra-t-butyl-13,17,36,40-tetraoxa-51,52,57,58-tetraazaundecacyclo[27.17.4.4^6,24^.1^2,5^.1^25,28^.1^47,50^.1^53,56^.0^7,12^.0^18,23^.0^30,35^.0^41,46^]octapentaconta-1(47),2(57),3,5,7,9,11,18,20,22,24,26,28(52),29(50),30,32,34,41,43,45,48,53,55-tricosaene unknown solvate'
_symmetry_cell_setting           orthorhombic
_symmetry_space_group_name_H-M   'P 21 21 21'
_symmetry_Int_Tables_number      19
_space_group_name_Hall           'P 2ac 2ab'
loop_
_symmetry_equiv_pos_site_id
_symmetry_equiv_pos_as_xyz
1 x,y,z
2 1/2-x,-y,1/2+z
3 1/2+x,1/2-y,-z
4 -x,1/2+y,1/2-z
_cell_length_a                   16.2769(18)
_cell_length_b                   18.6656(14)
_cell_length_c                   19.3939(16)
_cell_angle_alpha                90
_cell_angle_beta                 90
_cell_angle_gamma                90
_cell_volume                     5892.22
_exptl_crystal_colour            pink
_exptl_crystal_description       Block
_cell_formula_units_Z            4
_chemical_properties_physical    Photo-sensitive
_exptl_crystal_recrystallization_method chloroform/methanol
_exptl_crystal_preparation       Luminescent
loop_
_atom_site_label
_atom_site_type_symbol
_atom_site_fract_x
_atom_site_fract_y
_atom_site_fract_z
O1 O 0.6833(6) 0.3824(4) 0.5767(4)
N1 N 0.6994(4) 0.7317(3) 0.5030(3)
H1 H 0.687000 0.686878 0.502693
N2 N 0.6607(4) 0.6288(3) 0.6078(3)
N3 N 0.6026(4) 0.5403(3) 0.4988(3)
H2 H 0.632538 0.578274 0.500531
N4 N 0.6629(4) 0.6336(3) 0.3916(3)
O2 O 0.8760(4) 0.8076(3) 0.4146(3)
O3 O 0.8771(4) 0.8011(3) 0.5999(3)
O4 O 0.6449(4) 0.3612(3) 0.4064(3)
C1 C 0.7090(5) 0.7744(4) 0.4477(4)
C2 C 0.7207(5) 0.8505(4) 0.4716(4)
H3 H 0.726420 0.891271 0.444427
C3 C 0.7211(6) 0.8467(5) 0.5413(4)
H4 H 0.725665 0.885166 0.571502
C4 C 0.7133(6) 0.7737(5) 0.5602(4)
C5 C 0.7220(6) 0.7476(4) 0.6258(4)
C6 C 0.7049(6) 0.6774(4) 0.6472(4)
C7 C 0.7157(7) 0.6415(5) 0.7140(5)
H5 H 0.741796 0.661416 0.752077
C8 C 0.6822(7) 0.5759(5) 0.7119(4)
H6 H 0.682296 0.542655 0.747601
C9 C 0.6464(5) 0.5657(4) 0.6450(4)
C10 C 0.6047(6) 0.5082(5) 0.6184(5)
C11 C 0.5754(5) 0.5029(4) 0.5511(4)
C12 C 0.5185(6) 0.4461(4) 0.5274(5)
H7 H 0.489326 0.414180 0.554983
C13 C 0.5175(6) 0.4496(4) 0.4602(4)
H8 H 0.486263 0.420817 0.431165
C14 C 0.5728(5) 0.5056(4) 0.4385(4)
C15 C 0.6049(5) 0.5130(4) 0.3735(4)
C16 C 0.6519(6) 0.5751(4) 0.3540(4)
C17 C 0.6895(6) 0.5893(4) 0.2882(4)
H9 H 0.693085 0.557131 0.251722
C18 C 0.7188(6) 0.6568(4) 0.2883(4)
H10 H 0.745213 0.679591 0.251862
C19 C 0.7016(6) 0.6872(4) 0.3552(4)
C20 C 0.7233(5) 0.7541(4) 0.3792(4)
C21 C 0.7637(6) 0.8054(5) 0.3344(5)
C22 C 0.7320(6) 0.8264(5) 0.2731(4)
H11 H 0.682674 0.805912 0.259024
C23 C 0.7689(8) 0.8772(5) 0.2294(5)
C24 C 0.8462(7) 0.9016(6) 0.2482(6)
H12 H 0.874512 0.931390 0.218029
C25 C 0.8840(6) 0.8825(5) 0.3124(6)
H13 H 0.933422 0.902529 0.326833
C26 C 0.8421(6) 0.8320(5) 0.3517(5)
C27 C 0.9422(6) 0.8442(5) 0.4465(6)
H14 H 0.923699 0.890451 0.463196
H15 H 0.985705 0.852180 0.413168
C28 C 0.9738(5) 0.8010(5) 0.5047(6)
H16 H 1.033132 0.797538 0.500892
H17 H 0.951634 0.752887 0.501380
C29 C 0.9520(6) 0.8321(5) 0.5760(6)
H18 H 0.995834 0.821983 0.608447
H19 H 0.945912 0.883728 0.572658
C30 C 0.8448(6) 0.8216(5) 0.6623(5)
C31 C 0.8826(7) 0.8642(5) 0.7092(5)
H20 H 0.933130 0.884824 0.698711
C32 C 0.8458(8) 0.8775(6) 0.7737(5)
H21 H 0.874936 0.903292 0.806674
C33 C 0.7696(8) 0.8540(5) 0.7892(5)
C34 C 0.7286(8) 0.8127(5) 0.7416(5)
H22 H 0.676190 0.795280 0.750740
C35 C 0.7686(7) 0.7973(5) 0.6776(4)
C36 C 0.7217(7) 0.9044(5) 0.1632(5)
C37 C 0.6950(10) 0.8421(6) 0.1199(6)
H23 H 0.669378 0.806715 0.148728
H24 H 0.656476 0.858155 0.085754
H25 H 0.741955 0.821436 0.097514
C38 C 0.6346(8) 0.9282(9) 0.1851(7)
H26 H 0.638508 0.969444 0.214540
H27 H 0.603030 0.940086 0.144905
H28 H 0.608110 0.889916 0.209591
C39 C 0.7639(11) 0.9665(8) 0.1269(8)
H29 H 0.777864 1.002675 0.160053
H30 H 0.812977 0.949653 0.104724
H31 H 0.727498 0.986373 0.092964
C40 C 0.7291(8) 0.8709(5) 0.8596(5)
C41 C 0.7010(12) 0.9481(6) 0.8603(7)
H32 H 0.663830 0.956166 0.822687
H33 H 0.673558 0.958037 0.903086
H34 H 0.747746 0.979059 0.855676
C42 C 0.7881(10) 0.8509(8) 0.9164(6)
H35 H 0.802698 0.801255 0.912128
H36 H 0.836653 0.879845 0.912925
H37 H 0.762465 0.858823 0.960335
C43 C 0.6505(8) 0.8287(7) 0.8736(6)
H38 H 0.610544 0.839566 0.838684
H39 H 0.662354 0.778362 0.872938
H40 H 0.629043 0.841762 0.917983
C44 C 0.5955(6) 0.4409(5) 0.6629(5)
C45 C 0.5626(7) 0.4432(6) 0.7281(5)
H41 H 0.546905 0.487139 0.746404
C46 C 0.6246(7) 0.3779(5) 0.6383(5)
C47 C 0.5524(8) 0.3825(8) 0.7669(7)
C48 C 0.5767(7) 0.3183(7) 0.7406(7)
H42 H 0.568930 0.276665 0.766159
C49 C 0.6112(8) 0.3145(6) 0.6791(7)
H43 H 0.627112 0.270178 0.661843
C50 C 0.7125(10) 0.3209(8) 0.5375(7)
H44 H 0.745330 0.289566 0.566267
H45 H 0.666683 0.293871 0.518900
C51 C 0.7587(7) 0.3493(6) 0.4858(6)
H46 H 0.787867 0.309720 0.464549
H47 H 0.799873 0.379342 0.507480
C52 C 0.7220(6) 0.3922(5) 0.4286(5)
H48 H 0.712764 0.440912 0.444153
H49 H 0.759891 0.393704 0.390057
C53 C 0.6157(6) 0.3808(4) 0.3420(5)
C54 C 0.6022(7) 0.3278(5) 0.2948(6)
H50 H 0.614728 0.280868 0.306911
C55 C 0.5705(7) 0.3408(5) 0.2292(5)
H51 H 0.559578 0.302665 0.199737
C56 C 0.5548(7) 0.4117(6) 0.2073(5)
C57 C 0.5678(6) 0.4655(5) 0.2563(5)
H52 H 0.556574 0.512433 0.243342
C58 C 0.5963(6) 0.4538(4) 0.3235(4)
C59 C 0.5895(10) 0.3891(12) 0.8911(8)
H53 H 0.621908 0.431460 0.884260
H54 H 0.568596 0.388449 0.937348
H55 H 0.622995 0.347481 0.883544
C60 C 0.5181(9) 0.3888(8) 0.8404(8)
C61 C 0.5434(7) 0.4291(6) 0.1307(5)
C62 C 0.5418(14) 0.5080(8) 0.1160(8)
H56 H 0.591593 0.529534 0.132466
H57 H 0.537081 0.515575 0.067195
H58 H 0.495589 0.529348 0.138928
C63 C 0.4728(10) 0.3798(10) 0.1107(7)
H59 H 0.485518 0.331688 0.124434
H60 H 0.423499 0.395266 0.133402
H61 H 0.464991 0.381494 0.061669
C64 C 0.6148(10) 0.4039(10) 0.0848(8)
H62 H 0.621912 0.353121 0.089926
H63 H 0.602769 0.414828 0.037498
H64 H 0.664351 0.428006 0.098341
C65 C 0.4453(11) 0.4410(10) 0.8449(9)
H65 H 0.462499 0.487682 0.829894
H66 H 0.401505 0.424314 0.815970
H67 H 0.426505 0.443692 0.891772
C66 C 0.4831(11) 0.3182(9) 0.8652(9)
H68 H 0.434841 0.306760 0.838984
H69 H 0.523295 0.281130 0.859337
H70 H 0.468896 0.322098 0.913140
loop_
_geom_bond_atom_site_label_1
_geom_bond_atom_site_label_2
_geom_bond_site_symmetry_1
_geom_bond_site_symmetry_2
O1 C46 1_555 1_555
N1 H1 1_555 1_555
N2 C6 1_555 1_555
N3 H2 1_555 1_555
N4 C16 1_555 1_555
O2 C26 1_555 1_555
O3 C29 1_555 1_555
O4 C52 1_555 1_555
C1 N1 1_555 1_555
C2 C1 1_555 1_555
H3 C2 1_555 1_555
C3 C2 1_555 1_555
H4 C3 1_555 1_555
C4 N1 1_555 1_555
C5 C4 1_555 1_555
C6 C5 1_555 1_555
C7 C6 1_555 1_555
H5 C7 1_555 1_555
C8 C7 1_555 1_555
H6 C8 1_555 1_555
C9 N2 1_555 1_555
C10 C9 1_555 1_555
C11 N3 1_555 1_555
C12 C11 1_555 1_555
H7 C12 1_555 1_555
C13 C12 1_555 1_555
H8 C13 1_555 1_555
C14 N3 1_555 1_555
C15 C14 1_555 1_555
C16 C15 1_555 1_555
C17 C16 1_555 1_555
H9 C17 1_555 1_555
C18 C17 1_555 1_555
H10 C18 1_555 1_555
C19 N4 1_555 1_555
C20 C1 1_555 1_555
C21 C20 1_555 1_555
C22 C21 1_555 1_555
H11 C22 1_555 1_555
C23 C22 1_555 1_555
C24 C23 1_555 1_555
H12 C24 1_555 1_555
C25 C24 1_555 1_555
H13 C25 1_555 1_555
C26 C21 1_555 1_555
C27 O2 1_555 1_555
H14 C27 1_555 1_555
H15 C27 1_555 1_555
C28 C27 1_555 1_555
H16 C28 1_555 1_555
H17 C28 1_555 1_555
C29 C28 1_555 1_555
H18 C29 1_555 1_555
H19 C29 1_555 1_555
C30 O3 1_555 1_555
C31 C30 1_555 1_555
H20 C31 1_555 1_555
C32 C31 1_555 1_555
H21 C32 1_555 1_555
C33 C32 1_555 1_555
C34 C33 1_555 1_555
H22 C34 1_555 1_555
C35 C5 1_555 1_555
C36 C23 1_555 1_555
C37 C36 1_555 1_555
H23 C37 1_555 1_555
H24 C37 1_555 1_555
H25 C37 1_555 1_555
C38 C36 1_555 1_555
H26 C38 1_555 1_555
H27 C38 1_555 1_555
H28 C38 1_555 1_555
C39 C36 1_555 1_555
H29 C39 1_555 1_555
H30 C39 1_555 1_555
H31 C39 1_555 1_555
C40 C33 1_555 1_555
C41 C40 1_555 1_555
H32 C41 1_555 1_555
H33 C41 1_555 1_555
H34 C41 1_555 1_555
C42 C40 1_555 1_555
H35 C42 1_555 1_555
H36 C42 1_555 1_555
H37 C42 1_555 1_555
C43 C40 1_555 1_555
H38 C43 1_555 1_555
H39 C43 1_555 1_555
H40 C43 1_555 1_555
C44 C10 1_555 1_555
C45 C44 1_555 1_555
H41 C45 1_555 1_555
C46 C44 1_555 1_555
C47 C45 1_555 1_555
C48 C47 1_555 1_555
H42 C48 1_555 1_555
C49 C46 1_555 1_555
H43 C49 1_555 1_555
C50 O1 1_555 1_555
H44 C50 1_555 1_555
H45 C50 1_555 1_555
C51 C50 1_555 1_555
H46 C51 1_555 1_555
H47 C51 1_555 1_555
C52 C51 1_555 1_555
H48 C52 1_555 1_555
H49 C52 1_555 1_555
C53 O4 1_555 1_555
C54 C53 1_555 1_555
H50 C54 1_555 1_555
C55 C54 1_555 1_555
H51 C55 1_555 1_555
C56 C55 1_555 1_555
C57 C56 1_555 1_555
H52 C57 1_555 1_555
C58 C15 1_555 1_555
C59 H53 1_555 1_555
H54 C59 1_555 1_555
H55 C59 1_555 1_555
C60 C47 1_555 1_555
C61 C56 1_555 1_555
C62 C61 1_555 1_555
H56 C62 1_555 1_555
H57 C62 1_555 1_555
H58 C62 1_555 1_555
C63 C61 1_555 1_555
H59 C63 1_555 1_555
H60 C63 1_555 1_555
H61 C63 1_555 1_555
C64 C61 1_555 1_555
H62 C64 1_555 1_555
H63 C64 1_555 1_555
H64 C64 1_555 1_555
C65 C60 1_555 1_555
H65 C65 1_555 1_555
H66 C65 1_555 1_555
H67 C65 1_555 1_555
C66 C60 1_555 1_555
H68 C66 1_555 1_555
H69 C66 1_555 1_555
H70 C66 1_555 1_555
C3 C4 1_555 1_555
C8 C9 1_555 1_555
C10 C11 1_555 1_555
C13 C14 1_555 1_555
C18 C19 1_555 1_555
C19 C20 1_555 1_555
C25 C26 1_555 1_555
C30 C35 1_555 1_555
C34 C35 1_555 1_555
C48 C49 1_555 1_555
C53 C58 1_555 1_555
C57 C58 1_555 1_555
C59 C60 1_555 1_555

#END
