
#######################################################################
#
#                 Cambridge Crystallographic Data Centre
#                                CCDC 
#
#######################################################################
#
# If this CIF has been generated from an entry in the Cambridge 
# Structural Database, then it will include bibliographic, chemical, 
# crystal, experimental, refinement or atomic coordinate data resulting 
# from the CCDC's data processing and validation procedures.
#
#######################################################################

data_AGAJUQ
_chemical_name_common            
"5,10:15,20-bis(2,2'-[butane-1,4-diylbis(oxy)]bis(5-t-butylphenylene))porphyrin unknown solvate"
_chemical_formula_moiety         'C68 H74 N4 O4'
_chemical_name_systematic        
'9,22,33,46-tetra-t-butyl-13,18,37,42-tetraoxa-53,54,59,60-tetraazaundecacyclo[28.18.4.4^6,25^.1^2,5^.1^26,29^.1^49,52^.1^55,58^.0^7,12^.0^19,24^.0^31,36^.0^43,48^]hexaconta-1(49),2,4,6(58),7,9,11,19,21,23,25,27,29,31,33,35,43,45,47,50,52,55(60),56-tricosaene unknown solvate'
_symmetry_cell_setting           triclinic
_symmetry_space_group_name_H-M   'P -1'
_symmetry_Int_Tables_number      2
_space_group_name_Hall           '-P 1'
loop_
_symmetry_equiv_pos_site_id
_symmetry_equiv_pos_as_xyz
1 x,y,z
2 -x,-y,-z
_cell_length_a                   14.6170(15)
_cell_length_b                   14.7467(11)
_cell_length_c                   16.7737(16)
_cell_angle_alpha                103.061(7)
_cell_angle_beta                 96.845(8)
_cell_angle_gamma                96.377(7)
_cell_volume                     3461.19
_exptl_crystal_colour            purple
_exptl_crystal_description       Block
_cell_formula_units_Z            2
_chemical_properties_physical    Photo-sensitive
_exptl_crystal_recrystallization_method chloroform/methanol
_exptl_crystal_preparation       Luminescent
loop_
_atom_site_label
_atom_site_type_symbol
_atom_site_fract_x
_atom_site_fract_y
_atom_site_fract_z
N1 N 0.4618(3) 1.0446(3) 0.8946(3)
H1 H 0.475899 1.026305 0.939115
N2 N 0.5443(3) 0.8862(3) 0.9321(3)
O1 O 0.7830(3) 0.8034(3) 1.0130(3)
O2 O 0.7009(3) 0.9390(3) 0.7790(3)
C1 C 0.4186(4) 1.1238(4) 0.8892(4)
C2 C 0.4065(4) 1.1289(5) 0.8045(4)
H2 H 0.378990 1.174845 0.784500
C3 C 0.4408(4) 1.0571(5) 0.7578(4)
H3 H 0.441512 1.044499 0.700998
C4 C 0.4780(4) 1.0012(4) 0.8172(4)
C5 C 0.5164(4) 0.9208(4) 0.7943(4)
C6 C 0.5417(4) 0.8635(4) 0.8485(4)
C7 C 0.5730(4) 0.7741(4) 0.8238(4)
H4 H 0.576518 0.742092 0.769994
C8 C 0.5965(4) 0.7449(4) 0.8935(4)
H5 H 0.617743 0.688387 0.896222
C9 C 0.5831(4) 0.8151(4) 0.9604(4)
C10 C 0.6026(4) 0.8125(4) 1.0435(4)
C11 C 0.6520(4) 0.7341(4) 1.0618(4)
C12 C 0.6109(4) 0.6653(4) 1.0931(4)
H6 H 0.550418 0.667933 1.104682
C13 C 0.6565(4) 0.5894(4) 1.1091(5)
C14 C 0.7443(5) 0.5863(5) 1.0875(5)
H7 H 0.775280 0.536381 1.094854
C15 C 0.7879(4) 0.6549(5) 1.0551(5)
H8 H 0.847933 0.651734 1.042605
C16 C 0.7413(4) 0.7291(4) 1.0413(4)
C17 C 0.6106(5) 0.5136(4) 1.1459(5)
C18 C 0.5095(5) 0.5209(5) 1.1534(6)
H9 H 0.484499 0.471537 1.176879
H10 H 0.504769 0.580764 1.188637
H11 H 0.475127 0.514870 1.099627
C19 C 0.6645(6) 0.5261(5) 1.2352(5)
H12 H 0.729133 0.521731 1.232169
H13 H 0.658619 0.586500 1.268862
H14 H 0.638867 0.477599 1.259294
C20 C 0.6191(5) 0.4151(4) 1.0961(5)
H15 H 0.683357 0.410600 1.091345
H16 H 0.595600 0.369234 1.123835
H17 H 0.583803 0.403782 1.041901
C21 C 0.8384(4) 0.7789(5) 0.9452(4)
H18 H 0.887911 0.744846 0.960845
H19 H 0.799370 0.740516 0.895580
C22 C 0.8769(4) 0.8700(5) 0.9316(5)
H20 H 0.923598 0.858911 0.895308
H21 H 0.908318 0.909440 0.984222
C23 C 0.8060(4) 0.9255(5) 0.8937(4)
H22 H 0.751864 0.924550 0.922063
H23 H 0.834053 0.990537 0.903488
C24 C 0.7742(4) 0.8865(5) 0.8012(4)
H24 H 0.825501 0.895169 0.770652
H25 H 0.750868 0.819963 0.789214
C25 C 0.6414(4) 0.9011(5) 0.7074(4)
C26 C 0.6687(6) 0.8741(6) 0.6325(5)
H26 H 0.732086 0.878635 0.629488
C27 C 0.6066(6) 0.8401(6) 0.5603(5)
H27 H 0.627649 0.815407 0.510862
C28 C 0.5125(5) 0.8431(7) 0.5624(5)
C29 C 0.4848(5) 0.8646(5) 0.6375(4)
H28 H 0.421248 0.859528 0.639952
C30 C 0.5458(4) 0.8938(5) 0.7111(4)
C31 C 0.4531(5) 0.8191(5) 0.4801(4)
C32 C 0.4744(6) 0.7399(6) 0.4146(5)
H29 H 0.431155 0.731810 0.364907
H30 H 0.536601 0.754189 0.403608
H31 H 0.468918 0.683000 0.433497
C33 C 0.4770(7) 0.8835(7) 0.4258(6)
H32 H 0.436058 0.863902 0.373955
H33 H 0.470167 0.946685 0.452551
H34 H 0.540238 0.881262 0.415998
C34 C 0.3510(4) 0.8108(5) 0.4854(4)
H35 H 0.316317 0.795316 0.430652
H36 H 0.334462 0.762259 0.512917
H37 H 0.336874 0.869571 0.516076
N1A N 0.5382(3) 0.9554(3) 1.1054(3)
H1A H 0.524101 0.973695 1.060885
N2A N 0.4557(3) 1.1138(3) 1.0679(3)
O1A O 0.2170(3) 1.1966(3) 0.9870(3)
O2A O 0.2991(3) 1.0610(3) 1.2210(3)
C1A C 0.5814(4) 0.8762(4) 1.1108(4)
C2A C 0.5935(4) 0.8711(5) 1.1955(4)
H2A H 0.621010 0.825155 1.215500
C3A C 0.5592(4) 0.9429(5) 1.2422(4)
H3A H 0.558488 0.955501 1.299002
C4A C 0.5220(4) 0.9988(4) 1.1828(4)
C5A C 0.4836(4) 1.0792(4) 1.2057(4)
C6A C 0.4583(4) 1.1365(4) 1.1515(4)
C7A C 0.4270(4) 1.2259(4) 1.1762(4)
H4A H 0.423482 1.257908 1.230006
C8A C 0.4035(4) 1.2551(4) 1.1065(4)
H5A H 0.382257 1.311613 1.103778
C9A C 0.4169(4) 1.1849(4) 1.0396(4)
C10A C 0.3974(4) 1.1875(4) 0.9565(4)
C11A C 0.3480(4) 1.2659(4) 0.9382(4)
C12A C 0.3891(4) 1.3347(4) 0.9069(4)
H6A H 0.449582 1.332067 0.895318
C13A C 0.3435(4) 1.4106(4) 0.8909(5)
C14A C 0.2557(5) 1.4137(5) 0.9125(5)
H7A H 0.224720 1.463619 0.905146
C15A C 0.2121(4) 1.3451(5) 0.9449(5)
H8A H 0.152067 1.348266 0.957395
C16A C 0.2587(4) 1.2709(4) 0.9587(4)
C17A C 0.3894(5) 1.4864(4) 0.8541(5)
C18A C 0.4905(5) 1.4791(5) 0.8466(6)
H9A H 0.515501 1.528463 0.823121
H10A H 0.495231 1.419236 0.811363
H11A H 0.524873 1.485130 0.900373
C19A C 0.3355(6) 1.4739(5) 0.7648(5)
H12A H 0.270867 1.478269 0.767831
H13A H 0.341381 1.413500 0.731138
H14A H 0.361133 1.522401 0.740706
C20A C 0.3809(5) 1.5849(4) 0.9039(5)
H15A H 0.316643 1.589400 0.908655
H16A H 0.404400 1.630766 0.876165
H17A H 0.416197 1.596218 0.958099
C21A C 0.1616(4) 1.2211(5) 1.0548(4)
H18A H 0.112089 1.255154 1.039155
H19A H 0.200630 1.259484 1.104420
C22A C 0.1231(4) 1.1300(5) 1.0684(5)
H20A H 0.076402 1.141089 1.104692
H21A H 0.091682 1.090560 1.015778
C23A C 0.1940(4) 1.0745(5) 1.1063(4)
H22A H 0.248136 1.075450 1.077937
H23A H 0.165947 1.009463 1.096512
C24A C 0.2258(4) 1.1135(5) 1.1988(4)
H24A H 0.174499 1.104831 1.229348
H25A H 0.249132 1.180037 1.210786
C25A C 0.3586(4) 1.0989(5) 1.2926(4)
C26A C 0.3313(6) 1.1259(6) 1.3675(5)
H26A H 0.267914 1.121365 1.370512
C27A C 0.3934(6) 1.1599(6) 1.4397(5)
H27A H 0.372351 1.184593 1.489138
C28A C 0.4875(5) 1.1569(7) 1.4376(5)
C29A C 0.5152(5) 1.1354(5) 1.3625(4)
H28A H 0.578752 1.140472 1.360048
C30A C 0.4542(4) 1.1062(5) 1.2889(4)
C31A C 0.5469(5) 1.1809(5) 1.5199(4)
C32A C 0.5256(6) 1.2601(6) 1.5854(5)
H29A H 0.568845 1.268190 1.635093
H30A H 0.463399 1.245811 1.596392
H31A H 0.531082 1.317000 1.566503
C33A C 0.5230(7) 1.1165(7) 1.5742(6)
H32A H 0.563942 1.136098 1.626045
H33A H 0.529833 1.053315 1.547449
H34A H 0.459762 1.118738 1.584002
C34A C 0.6490(4) 1.1892(5) 1.5146(4)
H35A H 0.683683 1.204684 1.569348
H36A H 0.665538 1.237741 1.487083
H37A H 0.663126 1.130429 1.483924
N3 N 0.0371(3) 0.5104(3) -0.1159(3)
H38 H 0.022407 0.506730 -0.068419
N4 N 0.0406(3) 0.6372(3) 0.0448(3)
O3 O 0.1750(3) 0.7656(3) 0.2735(2)
O4 O 0.2670(3) 0.7608(3) -0.0001(2)
C35 C 0.0243(4) 0.4369(4) -0.1851(3)
C36 C 0.0566(4) 0.4754(4) -0.2498(3)
H39 H 0.055086 0.442123 -0.304246
C37 C 0.0896(4) 0.5678(4) -0.2189(3)
H40 H 0.115703 0.608591 -0.247735
C38 C 0.0770(4) 0.5911(4) -0.1344(3)
C39 C 0.0913(3) 0.6804(3) -0.0790(3)
C40 C 0.0692(3) 0.7015(4) 0.0007(3)
C41 C 0.0691(3) 0.7954(4) 0.0501(3)
H41 H 0.083134 0.850795 0.033650
C42 C 0.0461(3) 0.7895(3) 0.1212(3)
H42 H 0.041088 0.839497 0.164801
C43 C 0.0299(3) 0.6908(4) 0.1200(3)
C44 C 0.0068(4) 0.6580(4) 0.1865(3)
C45 C 0.0125(4) 0.7277(4) 0.2678(3)
C46 C -0.0679(4) 0.7406(4) 0.3041(3)
H43 H -0.122894 0.701469 0.278683
C47 C -0.0705(4) 0.8086(4) 0.3761(3)
C48 C 0.0116(4) 0.8647(4) 0.4138(4)
H44 H 0.012924 0.910008 0.462658
C49 C 0.0954(4) 0.8535(4) 0.3780(3)
H45 H 0.150891 0.892227 0.402570
C50 C 0.0919(4) 0.7848(4) 0.3070(4)
C51 C -0.1595(4) 0.8154(4) 0.4155(3)
C52 C -0.2413(4) 0.8149(4) 0.3484(4)
H46 H -0.229295 0.868279 0.325336
H47 H -0.247997 0.758165 0.305428
H48 H -0.297562 0.818077 0.372476
C53 C -0.1798(5) 0.7307(4) 0.4510(4)
H49 H -0.183245 0.674143 0.408398
H50 H -0.131016 0.732085 0.495122
H51 H -0.238106 0.732261 0.471956
C54 C -0.1543(4) 0.9048(4) 0.4839(3)
H52 H -0.141476 0.958810 0.461892
H53 H -0.212642 0.905949 0.504739
H54 H -0.105553 0.905773 0.527905
C55 C 0.2377(4) 0.8458(4) 0.2642(4)
H55 H 0.205591 0.876785 0.226289
H56 H 0.255301 0.890768 0.317368
C56 C 0.3207(4) 0.8159(5) 0.2330(4)
H57 H 0.348239 0.777513 0.266565
H58 H 0.365913 0.870629 0.236644
C57 C 0.2970(4) 0.7611(4) 0.1456(4)
H59 H 0.233685 0.728874 0.136563
H60 H 0.338123 0.713925 0.135165
C58 C 0.3058(4) 0.8250(4) 0.0838(4)
H61 H 0.270158 0.876707 0.096694
H62 H 0.370352 0.850278 0.085598
C59 C 0.2297(4) 0.8033(4) -0.0585(4)
C60 C 0.2745(4) 0.8838(4) -0.0750(4)
H63 H 0.330468 0.914253 -0.042866
C61 C 0.2358(4) 0.9188(4) -0.1395(4)
H64 H 0.267290 0.971840 -0.150605
C62 C 0.1503(4) 0.8765(4) -0.1885(4)
C63 C 0.1053(4) 0.7970(4) -0.1679(3)
H65 H 0.048280 0.768065 -0.198916
C64 C 0.1415(4) 0.7592(4) -0.1039(3)
C65 C 0.1088(5) 0.9146(4) -0.2597(4)
C66 C 0.0223(5) 0.8554(5) -0.3070(5)
H66 H -0.023893 0.853361 -0.271036
H67 H -0.000265 0.881624 -0.351691
H68 H 0.035043 0.792834 -0.328837
C67 C 0.1803(5) 0.9162(5) -0.3183(4)
H69 H 0.237062 0.954328 -0.288908
H70 H 0.192101 0.853340 -0.340132
H71 H 0.156792 0.942131 -0.362987
C68 C 0.0930(6) 1.0175(5) -0.2204(5)
H72 H 0.150706 1.053184 -0.190538
H73 H 0.070462 1.046298 -0.263460
H74 H 0.048016 1.016178 -0.183259
N3A N -0.0371(3) 0.4896(3) 0.1159(3)
H38A H -0.022407 0.493270 0.068419
N4A N -0.0406(3) 0.3628(3) -0.0448(3)
O3A O -0.1750(3) 0.2344(3) -0.2735(2)
O4A O -0.2670(3) 0.2392(3) 0.0001(2)
C35A C -0.0243(4) 0.5631(4) 0.1851(3)
C36A C -0.0566(4) 0.5246(4) 0.2498(3)
H39A H -0.055086 0.557877 0.304246
C37A C -0.0896(4) 0.4322(4) 0.2189(3)
H40A H -0.115703 0.391409 0.247735
C38A C -0.0770(4) 0.4089(4) 0.1344(3)
C39A C -0.0913(3) 0.3196(3) 0.0790(3)
C40A C -0.0692(3) 0.2985(4) -0.0007(3)
C41A C -0.0691(3) 0.2046(4) -0.0501(3)
H41A H -0.083134 0.149205 -0.033650
C42A C -0.0461(3) 0.2105(3) -0.1212(3)
H42A H -0.041088 0.160503 -0.164801
C43A C -0.0299(3) 0.3092(4) -0.1200(3)
C44A C -0.0068(4) 0.3420(4) -0.1865(3)
C45A C -0.0125(4) 0.2723(4) -0.2678(3)
C46A C 0.0679(4) 0.2594(4) -0.3041(3)
H43A H 0.122894 0.298531 -0.278683
C47A C 0.0705(4) 0.1914(4) -0.3761(3)
C48A C -0.0116(4) 0.1353(4) -0.4138(4)
H44A H -0.012924 0.089992 -0.462658
C49A C -0.0954(4) 0.1465(4) -0.3780(3)
H45A H -0.150891 0.107773 -0.402570
C50A C -0.0919(4) 0.2152(4) -0.3070(4)
C51A C 0.1595(4) 0.1846(4) -0.4155(3)
C52A C 0.2413(4) 0.1851(4) -0.3484(4)
H46A H 0.229295 0.131721 -0.325336
H47A H 0.247997 0.241835 -0.305428
H48A H 0.297562 0.181923 -0.372476
C53A C 0.1798(5) 0.2693(4) -0.4510(4)
H49A H 0.183245 0.325857 -0.408398
H50A H 0.131016 0.267915 -0.495122
H51A H 0.238106 0.267739 -0.471956
C54A C 0.1543(4) 0.0952(4) -0.4839(3)
H52A H 0.141476 0.041190 -0.461892
H53A H 0.212642 0.094051 -0.504739
H54A H 0.105553 0.094227 -0.527905
C55A C -0.2377(4) 0.1542(4) -0.2642(4)
H55A H -0.205591 0.123215 -0.226289
H56A H -0.255301 0.109232 -0.317368
C56A C -0.3207(4) 0.1841(5) -0.2330(4)
H57A H -0.348239 0.222487 -0.266565
H58A H -0.365913 0.129371 -0.236644
C57A C -0.2970(4) 0.2389(4) -0.1456(4)
H59A H -0.233685 0.271126 -0.136563
H60A H -0.338123 0.286075 -0.135165
C58A C -0.3058(4) 0.1750(4) -0.0838(4)
H61A H -0.270158 0.123293 -0.096694
H62A H -0.370352 0.149722 -0.085598
C59A C -0.2297(4) 0.1967(4) 0.0585(4)
C60A C -0.2745(4) 0.1162(4) 0.0750(4)
H63A H -0.330468 0.085747 0.042866
C61A C -0.2358(4) 0.0812(4) 0.1395(4)
H64A H -0.267290 0.028160 0.150605
C62A C -0.1503(4) 0.1235(4) 0.1885(4)
C63A C -0.1053(4) 0.2030(4) 0.1679(3)
H65A H -0.048280 0.231935 0.198916
C64A C -0.1415(4) 0.2408(4) 0.1039(3)
C65A C -0.1088(5) 0.0854(4) 0.2597(4)
C66A C -0.0223(5) 0.1446(5) 0.3070(5)
H66A H 0.023893 0.146639 0.271036
H67A H 0.000265 0.118376 0.351691
H68A H -0.035043 0.207166 0.328837
C67A C -0.1803(5) 0.0838(5) 0.3183(4)
H69A H -0.237062 0.045672 0.288908
H70A H -0.192101 0.146660 0.340132
H71A H -0.156792 0.057869 0.362987
C68A C -0.0930(6) -0.0175(5) 0.2204(5)
H72A H -0.150706 -0.053184 0.190538
H73A H -0.070462 -0.046298 0.263460
H74A H -0.048016 -0.016178 0.183259
H75? H 0.031514 0.576837 0.028359
loop_
_geom_bond_atom_site_label_1
_geom_bond_atom_site_label_2
_geom_bond_site_symmetry_1
_geom_bond_site_symmetry_2
N1 H1 1_555 1_555
N2 C6 1_555 1_555
O1 C16 1_555 1_555
O2 C24 1_555 1_555
C1 N1 1_555 1_555
C2 C1 1_555 1_555
H2 C2 1_555 1_555
C3 C2 1_555 1_555
H3 C3 1_555 1_555
C4 N1 1_555 1_555
C5 C4 1_555 1_555
C6 C5 1_555 1_555
C7 C6 1_555 1_555
H4 C7 1_555 1_555
C8 C7 1_555 1_555
H5 C8 1_555 1_555
C9 N2 1_555 1_555
C10 C9 1_555 1_555
C11 C10 1_555 1_555
C12 C11 1_555 1_555
H6 C12 1_555 1_555
C13 C12 1_555 1_555
C14 C13 1_555 1_555
H7 C14 1_555 1_555
C15 C14 1_555 1_555
H8 C15 1_555 1_555
C16 C11 1_555 1_555
C17 C13 1_555 1_555
C18 C17 1_555 1_555
H9 C18 1_555 1_555
H10 C18 1_555 1_555
H11 C18 1_555 1_555
C19 C17 1_555 1_555
H12 C19 1_555 1_555
H13 C19 1_555 1_555
H14 C19 1_555 1_555
C20 C17 1_555 1_555
H15 C20 1_555 1_555
H16 C20 1_555 1_555
H17 C20 1_555 1_555
C21 O1 1_555 1_555
H18 C21 1_555 1_555
H19 C21 1_555 1_555
C22 C21 1_555 1_555
H20 C22 1_555 1_555
H21 C22 1_555 1_555
C23 C22 1_555 1_555
H22 C23 1_555 1_555
H23 C23 1_555 1_555
C24 C23 1_555 1_555
H24 C24 1_555 1_555
H25 C24 1_555 1_555
C25 O2 1_555 1_555
C26 C25 1_555 1_555
H26 C26 1_555 1_555
C27 C26 1_555 1_555
H27 C27 1_555 1_555
C28 C27 1_555 1_555
C29 C28 1_555 1_555
H28 C29 1_555 1_555
C30 C5 1_555 1_555
C31 C28 1_555 1_555
C32 C31 1_555 1_555
H29 C32 1_555 1_555
H30 C32 1_555 1_555
H31 C32 1_555 1_555
C33 C31 1_555 1_555
H32 C33 1_555 1_555
H33 C33 1_555 1_555
H34 C33 1_555 1_555
C34 C31 1_555 1_555
H35 C34 1_555 1_555
H36 C34 1_555 1_555
H37 C34 1_555 1_555
N3 H38 1_555 1_555
N4 C40 1_555 1_555
O3 C50 1_555 1_555
O4 C58 1_555 1_555
C35 N3 1_555 1_555
C36 C35 1_555 1_555
H39 C36 1_555 1_555
C37 C36 1_555 1_555
H40 C37 1_555 1_555
C38 N3 1_555 1_555
C39 C38 1_555 1_555
C40 C39 1_555 1_555
C41 C40 1_555 1_555
H41 C41 1_555 1_555
C42 C41 1_555 1_555
H42 C42 1_555 1_555
C43 N4 1_555 1_555
C44 C43 1_555 1_555
C45 C44 1_555 1_555
C46 C45 1_555 1_555
H43 C46 1_555 1_555
C47 C46 1_555 1_555
C48 C47 1_555 1_555
H44 C48 1_555 1_555
C49 C48 1_555 1_555
H45 C49 1_555 1_555
C50 C45 1_555 1_555
C51 C47 1_555 1_555
C52 C51 1_555 1_555
H46 C52 1_555 1_555
H47 C52 1_555 1_555
H48 C52 1_555 1_555
C53 C51 1_555 1_555
H49 C53 1_555 1_555
H50 C53 1_555 1_555
H51 C53 1_555 1_555
C54 C51 1_555 1_555
H52 C54 1_555 1_555
H53 C54 1_555 1_555
H54 C54 1_555 1_555
C55 O3 1_555 1_555
H55 C55 1_555 1_555
H56 C55 1_555 1_555
C56 C55 1_555 1_555
H57 C56 1_555 1_555
H58 C56 1_555 1_555
C57 C56 1_555 1_555
H59 C57 1_555 1_555
H60 C57 1_555 1_555
C58 C57 1_555 1_555
H61 C58 1_555 1_555
H62 C58 1_555 1_555
C59 O4 1_555 1_555
C60 C59 1_555 1_555
H63 C60 1_555 1_555
C61 C60 1_555 1_555
H64 C61 1_555 1_555
C62 C61 1_555 1_555
C63 C62 1_555 1_555
H65 C63 1_555 1_555
C64 C39 1_555 1_555
C65 C62 1_555 1_555
C66 C65 1_555 1_555
H66 C66 1_555 1_555
H67 C66 1_555 1_555
H68 C66 1_555 1_555
C67 C65 1_555 1_555
H69 C67 1_555 1_555
H70 C67 1_555 1_555
H71 C67 1_555 1_555
C68 C65 1_555 1_555
H72 C68 1_555 1_555
H73 C68 1_555 1_555
H74 C68 1_555 1_555
N1A H1A 1_555 1_555
N2A C6A 1_555 1_555
O1A C16A 1_555 1_555
O2A C24A 1_555 1_555
C1A C10 1_555 1_555
C2A C1A 1_555 1_555
H2A C2A 1_555 1_555
C3A C2A 1_555 1_555
H3A C3A 1_555 1_555
C4A N1A 1_555 1_555
C5A C4A 1_555 1_555
C6A C5A 1_555 1_555
C7A C6A 1_555 1_555
H4A C7A 1_555 1_555
C8A C7A 1_555 1_555
H5A C8A 1_555 1_555
C9A N2A 1_555 1_555
C10A C1 1_555 1_555
C11A C10A 1_555 1_555
C12A C11A 1_555 1_555
H6A C12A 1_555 1_555
C13A C12A 1_555 1_555
C14A C13A 1_555 1_555
H7A C14A 1_555 1_555
C15A C14A 1_555 1_555
H8A C15A 1_555 1_555
C16A C11A 1_555 1_555
C17A C13A 1_555 1_555
C18A C17A 1_555 1_555
H9A C18A 1_555 1_555
H10A C18A 1_555 1_555
H11A C18A 1_555 1_555
C19A C17A 1_555 1_555
H12A C19A 1_555 1_555
H13A C19A 1_555 1_555
H14A C19A 1_555 1_555
C20A C17A 1_555 1_555
H15A C20A 1_555 1_555
H16A C20A 1_555 1_555
H17A C20A 1_555 1_555
C21A O1A 1_555 1_555
H18A C21A 1_555 1_555
H19A C21A 1_555 1_555
C22A C21A 1_555 1_555
H20A C22A 1_555 1_555
H21A C22A 1_555 1_555
C23A C22A 1_555 1_555
H22A C23A 1_555 1_555
H23A C23A 1_555 1_555
C24A C23A 1_555 1_555
H24A C24A 1_555 1_555
H25A C24A 1_555 1_555
C25A O2A 1_555 1_555
C26A C25A 1_555 1_555
H26A C26A 1_555 1_555
C27A C26A 1_555 1_555
H27A C27A 1_555 1_555
C28A C27A 1_555 1_555
C29A C28A 1_555 1_555
H28A C29A 1_555 1_555
C30A C5A 1_555 1_555
C31A C28A 1_555 1_555
C32A C31A 1_555 1_555
H29A C32A 1_555 1_555
H30A C32A 1_555 1_555
H31A C32A 1_555 1_555
C33A C31A 1_555 1_555
H32A C33A 1_555 1_555
H33A C33A 1_555 1_555
H34A C33A 1_555 1_555
C34A C31A 1_555 1_555
H35A C34A 1_555 1_555
H36A C34A 1_555 1_555
H37A C34A 1_555 1_555
N3A H38A 1_555 1_555
N4A C40A 1_555 1_555
O3A C50A 1_555 1_555
O4A C58A 1_555 1_555
C35A C44 1_555 1_555
C36A C35A 1_555 1_555
H39A C36A 1_555 1_555
C37A C36A 1_555 1_555
H40A C37A 1_555 1_555
C38A N3A 1_555 1_555
C39A C38A 1_555 1_555
C40A C39A 1_555 1_555
C41A C40A 1_555 1_555
H41A C41A 1_555 1_555
C42A C41A 1_555 1_555
H42A C42A 1_555 1_555
C43A N4A 1_555 1_555
C44A C35 1_555 1_555
C45A C44A 1_555 1_555
C46A C45A 1_555 1_555
H43A C46A 1_555 1_555
C47A C46A 1_555 1_555
C48A C47A 1_555 1_555
H44A C48A 1_555 1_555
C49A C48A 1_555 1_555
H45A C49A 1_555 1_555
C50A C45A 1_555 1_555
C51A C47A 1_555 1_555
C52A C51A 1_555 1_555
H46A C52A 1_555 1_555
H47A C52A 1_555 1_555
H48A C52A 1_555 1_555
C53A C51A 1_555 1_555
H49A C53A 1_555 1_555
H50A C53A 1_555 1_555
H51A C53A 1_555 1_555
C54A C51A 1_555 1_555
H52A C54A 1_555 1_555
H53A C54A 1_555 1_555
H54A C54A 1_555 1_555
C55A O3A 1_555 1_555
H55A C55A 1_555 1_555
H56A C55A 1_555 1_555
C56A C55A 1_555 1_555
H57A C56A 1_555 1_555
H58A C56A 1_555 1_555
C57A C56A 1_555 1_555
H59A C57A 1_555 1_555
H60A C57A 1_555 1_555
C58A C57A 1_555 1_555
H61A C58A 1_555 1_555
H62A C58A 1_555 1_555
C59A O4A 1_555 1_555
C60A C59A 1_555 1_555
H63A C60A 1_555 1_555
C61A C60A 1_555 1_555
H64A C61A 1_555 1_555
C62A C61A 1_555 1_555
C63A C62A 1_555 1_555
H65A C63A 1_555 1_555
C64A C39A 1_555 1_555
C65A C62A 1_555 1_555
C66A C65A 1_555 1_555
H66A C66A 1_555 1_555
H67A C66A 1_555 1_555
H68A C66A 1_555 1_555
C67A C65A 1_555 1_555
H69A C67A 1_555 1_555
H70A C67A 1_555 1_555
H71A C67A 1_555 1_555
C68A C65A 1_555 1_555
H72A C68A 1_555 1_555
H73A C68A 1_555 1_555
H74A C68A 1_555 1_555
C3 C4 1_555 1_555
C8 C9 1_555 1_555
C15 C16 1_555 1_555
C25 C30 1_555 1_555
C29 C30 1_555 1_555
C37 C38 1_555 1_555
C42 C43 1_555 1_555
C49 C50 1_555 1_555
C59 C64 1_555 1_555
C63 C64 1_555 1_555
N1A C1A 1_555 1_555
C3A C4A 1_555 1_555
C8A C9A 1_555 1_555
C9A C10A 1_555 1_555
C15A C16A 1_555 1_555
C25A C30A 1_555 1_555
C29A C30A 1_555 1_555
N3A C35A 1_555 1_555
C37A C38A 1_555 1_555
C42A C43A 1_555 1_555
C43A C44A 1_555 1_555
C49A C50A 1_555 1_555
C59A C64A 1_555 1_555
C63A C64A 1_555 1_555

#END
