
#######################################################################
#
#                 Cambridge Crystallographic Data Centre
#                                CCDC 
#
#######################################################################
#
# If this CIF has been generated from an entry in the Cambridge 
# Structural Database, then it will include bibliographic, chemical, 
# crystal, experimental, refinement or atomic coordinate data resulting 
# from the CCDC's data processing and validation procedures.
#
#######################################################################

data_AGAJOK
_chemical_name_common            
"5,10:15,20-bis(2,2'-[propane-1,3-diylbis(oxy)]bis(5-t-butylphenylene))porphyrin methanol chloroform solvate"
_chemical_formula_moiety         'C66 H70 N4 O4,C1 H4 O1,2(C1 H1 Cl3)'
_chemical_name_systematic        
'9,21,32,44-tetra-t-butyl-13,17,36,40-tetraoxa-51,52,57,58-tetraazaundecacyclo[27.17.4.4^6,24^.1^2,5^.1^25,28^.1^47,50^.1^53,56^.0^7,12^.0^18,23^.0^30,35^.0^41,46^]octapentaconta-1(47),2,4,6(56),7,9,11,18,20,22,24,26,28,30,32,34,41,43,45,48,50,53(58),54-tricosaene methanol chloroform solvate'
_symmetry_cell_setting           triclinic
_symmetry_space_group_name_H-M   'P -1'
_symmetry_Int_Tables_number      2
_space_group_name_Hall           '-P 1'
loop_
_symmetry_equiv_pos_site_id
_symmetry_equiv_pos_as_xyz
1 x,y,z
2 -x,-y,-z
_cell_length_a                   13.8646(9)
_cell_length_b                   15.0707(10)
_cell_length_c                   16.8583(11)
_cell_angle_alpha                109.209(6)
_cell_angle_beta                 103.622(6)
_cell_angle_gamma                95.483(5)
_cell_volume                     3174.86
_exptl_crystal_colour            purple
_exptl_crystal_description       Block
_cell_formula_units_Z            2
_chemical_properties_physical    Photo-sensitive
_exptl_crystal_recrystallization_method chloroform/methanol
_exptl_crystal_preparation       Luminescent
loop_
_atom_site_label
_atom_site_type_symbol
_atom_site_fract_x
_atom_site_fract_y
_atom_site_fract_z
Cl1 Cl 0.23475(10) 0.44518(9) 0.19299(9)
Cl2 Cl 0.06859(11) 0.30844(11) 0.05870(10)
Cl3 Cl 0.13014(13) 0.29544(12) 0.22980(12)
C1 C 0.1166(4) 0.3731(4) 0.1708(4)
H1 H 0.069617 0.414438 0.189892
N1 N 0.9122(3) 0.4089(2) 0.8727(2)
H2 H 0.948053 0.445525 0.924429
N2 N 1.1149(3) 0.5194(2) 0.9538(2)
O1 O 0.7440(2) 0.2477(2) 1.0004(2)
O2 O 1.0815(3) 0.5955(2) 0.7596(2)
C2 C 0.6591(3) 0.2331(3) 0.9331(3)
C3 C 0.5744(4) 0.1645(3) 0.9087(3)
H3 H 0.571753 0.122404 0.938245
C4 C 0.4923(4) 0.1579(3) 0.8395(3)
H4 H 0.434905 0.111607 0.824288
C5 C 0.4933(3) 0.2178(3) 0.7928(3)
C6 C 0.5809(3) 0.2862(3) 0.8180(3)
H5 H 0.583084 0.327467 0.787508
C7 C 0.6651(3) 0.2957(3) 0.8862(3)
C8 C 0.4031(4) 0.2139(4) 0.7183(3)
C9 C 0.4366(5) 0.2064(6) 0.6368(4)
H6 H 0.478287 0.265823 0.646518
H7 H 0.378290 0.192851 0.587773
H8 H 0.474481 0.155870 0.624792
C10 C 0.3595(5) 0.3052(4) 0.7476(4)
H9 H 0.334980 0.307627 0.796911
H10 H 0.304793 0.304747 0.700320
H11 H 0.411265 0.360164 0.764033
C11 C 0.3193(4) 0.1281(4) 0.6941(4)
H12 H 0.345814 0.070207 0.677725
H13 H 0.265382 0.126679 0.645804
H14 H 0.294175 0.133313 0.743526
C12 C 0.7600(3) 0.3657(3) 0.9128(3)
C13 C 0.8181(3) 0.3580(3) 0.8534(3)
C14 C 0.7860(3) 0.3037(3) 0.7607(3)
H15 H 0.726111 0.259775 0.729542
C15 C 0.8606(3) 0.3291(3) 0.7271(3)
H16 H 0.858524 0.307710 0.668215
C16 C 0.9421(3) 0.3939(3) 0.7978(3)
C17 C 1.0371(3) 0.4298(3) 0.7950(3)
C18 C 1.1189(3) 0.4792(3) 0.8695(3)
C19 C 1.2222(3) 0.4952(3) 0.8656(3)
H17 H 1.244938 0.471546 0.816392
C20 C 1.2788(3) 0.5507(3) 0.9466(3)
H18 H 1.348193 0.573102 0.964630
C21 C 1.2094(3) 0.5689(3) 1.0011(3)
C22 C 1.0535(3) 0.4238(3) 0.7091(3)
C23 C 1.0780(4) 0.5074(4) 0.6948(3)
C24 C 1.0952(4) 0.5040(4) 0.6167(4)
H19 H 1.112916 0.560417 0.607853
C25 C 1.0859(5) 0.4162(5) 0.5512(4)
H20 H 1.096864 0.414636 0.498463
C26 C 1.0608(4) 0.3315(5) 0.5621(3)
C27 C 1.0443(4) 0.3368(4) 0.6423(3)
H21 H 1.026606 0.280380 0.651072
C28 C 1.0512(5) 0.2354(5) 0.4889(4)
C29 C 1.0303(10) 0.1497(6) 0.5147(7)
H22 H 0.961519 0.140309 0.516543
H23 H 1.074919 0.160915 0.571471
H24 H 1.041249 0.093731 0.472512
C30 C 1.1571(6) 0.2282(8) 0.4733(6)
H25 H 1.152975 0.168504 0.427497
H26 H 1.204829 0.231724 0.526245
H27 H 1.178807 0.280113 0.456535
C31 C 0.9795(9) 0.2297(9) 0.4038(6)
H28 H 0.977143 0.170188 0.358474
H29 H 1.002598 0.281863 0.387948
H30 H 0.913135 0.233568 0.410925
C32 C 1.1710(4) 0.6645(4) 0.7893(3)
H31 H 1.181506 0.682531 0.741305
H32 H 1.228431 0.637953 0.810342
C33 C 1.1627(4) 0.7528(4) 0.8633(3)
H33 H 1.142465 0.800317 0.838790
H34 H 1.109620 0.734724 0.886677
C34 C 1.2592(4) 0.7985(4) 0.9384(3)
H35 H 1.318152 0.788999 0.917326
H36 H 1.261943 0.866615 0.965597
N1A N 1.0878(3) 0.5911(2) 1.1273(2)
H2A H 1.051947 0.554475 1.075571
N2A N 0.8851(3) 0.4806(2) 1.0462(2)
O1A O 1.2560(2) 0.7523(2) 0.9996(2)
O2A O 0.9185(3) 0.4045(2) 1.2404(2)
C2A C 1.3409(3) 0.7669(3) 1.0669(3)
C3A C 1.4256(4) 0.8355(3) 1.0913(3)
H3A H 1.428247 0.877596 1.061755
C4A C 1.5077(4) 0.8421(3) 1.1605(3)
H4A H 1.565095 0.888393 1.175712
C5A C 1.5067(3) 0.7822(3) 1.2072(3)
C6A C 1.4191(3) 0.7138(3) 1.1820(3)
H5A H 1.416916 0.672533 1.212492
C7A C 1.3349(3) 0.7043(3) 1.1138(3)
C8A C 1.5969(4) 0.7861(4) 1.2817(3)
C9A C 1.5634(5) 0.7936(6) 1.3632(4)
H6A H 1.521713 0.734177 1.353482
H7A H 1.621710 0.807149 1.412227
H8A H 1.525519 0.844130 1.375208
C10A C 1.6405(5) 0.6948(4) 1.2524(4)
H9A H 1.665020 0.692373 1.203089
H10A H 1.695207 0.695253 1.299680
H11A H 1.588735 0.639836 1.235967
C11A C 1.6807(4) 0.8719(4) 1.3059(4)
H12A H 1.654186 0.929793 1.322275
H13A H 1.734618 0.873321 1.354196
H14A H 1.705825 0.866687 1.256474
C12A C 1.2400(3) 0.6343(3) 1.0872(3)
C13A C 1.1819(3) 0.6420(3) 1.1466(3)
C14A C 1.2140(3) 0.6963(3) 1.2393(3)
H15A H 1.273889 0.740225 1.270458
C15A C 1.1394(3) 0.6709(3) 1.2729(3)
H16A H 1.141476 0.692290 1.331785
C16A C 1.0579(3) 0.6061(3) 1.2022(3)
C17A C 0.9629(3) 0.5702(3) 1.2050(3)
C18A C 0.8811(3) 0.5208(3) 1.1305(3)
C19A C 0.7778(3) 0.5048(3) 1.1344(3)
H17A H 0.755062 0.528454 1.183608
C20A C 0.7212(3) 0.4493(3) 1.0534(3)
H18A H 0.651807 0.426898 1.035370
C21A C 0.7906(3) 0.4311(3) 0.9989(3)
C22A C 0.9465(3) 0.5762(3) 1.2909(3)
C23A C 0.9220(4) 0.4926(4) 1.3052(3)
C24A C 0.9048(4) 0.4960(4) 1.3833(4)
H19A H 0.887084 0.439583 1.392147
C25A C 0.9141(5) 0.5838(5) 1.4488(4)
H20A H 0.903136 0.585364 1.501537
C26A C 0.9392(4) 0.6685(5) 1.4379(3)
C27A C 0.9557(4) 0.6632(4) 1.3577(3)
H21A H 0.973394 0.719620 1.348928
C28A C 0.9488(5) 0.7646(5) 1.5111(4)
C29A C 0.9697(10) 0.8503(6) 1.4853(7)
H22A H 1.038481 0.859691 1.483457
H23A H 0.925081 0.839085 1.428529
H24A H 0.958751 0.906269 1.527488
C30A C 0.8429(6) 0.7718(8) 1.5267(6)
H25A H 0.847025 0.831496 1.572503
H26A H 0.795171 0.768276 1.473755
H27A H 0.821193 0.719887 1.543465
C31A C 1.0205(9) 0.7703(9) 1.5962(6)
H28A H 1.022857 0.829812 1.641526
H29A H 0.997402 0.718137 1.612052
H30A H 1.086865 0.766432 1.589075
C32A C 0.8290(4) 0.3355(4) 1.2107(3)
H31A H 0.818494 0.317469 1.258695
H32A H 0.771569 0.362047 1.189658
C33A C 0.8373(4) 0.2472(4) 1.1367(3)
H33A H 0.857535 0.199683 1.161210
H34A H 0.890380 0.265276 1.113323
C34A C 0.7408(4) 0.2015(4) 1.0616(3)
H35A H 0.681848 0.211001 1.082674
H36A H 0.738057 0.133385 1.034403
N3 N 0.3862(3) 0.9503(3) 0.8804(3)
H46 H 0.435294 0.971598 0.927959
N4 N 0.5775(3) 0.9057(3) 0.9451(3)
O3 O 0.3007(2) 1.2429(2) 0.9175(2)
O4 O 0.4710(3) 0.6589(3) 0.8474(2)
C38 C 0.2035(3) 1.1962(3) 0.8962(3)
C39 C 0.1203(4) 1.2357(3) 0.8684(3)
H47 H 0.131070 1.296002 0.865008
C40 C 0.0237(4) 1.1870(3) 0.8461(4)
H48 H -0.030200 1.215105 0.828438
C41 C 0.0045(4) 1.0968(4) 0.8495(4)
C42 C 0.0877(4) 1.0560(4) 0.8742(4)
H49 H 0.076567 0.994865 0.875694
C43 C 0.1859(3) 1.1039(3) 0.8963(3)
C44 C -0.1025(7) 1.0456(7) 0.8479(6)
C45 C -0.1256(15) 0.9459(10) 0.7760(9)
C46 C -0.1070(8) 1.0356(8) 0.9350(7)
C47 C -0.1848(8) 1.1011(8) 0.8246(9)
C48 C 0.2752(3) 1.0621(3) 0.9270(3)
C49 C 0.3020(3) 0.9901(3) 0.8649(3)
C50 C 0.2414(3) 0.9343(4) 0.7760(3)
H50 H 0.181498 0.946676 0.746760
C51 C 0.2873(4) 0.8615(4) 0.7434(3)
H51 H 0.263094 0.813233 0.688357
C52 C 0.3799(3) 0.8708(3) 0.8080(3)
C53 C 0.4539(4) 0.8148(4) 0.8003(3)
C54 C 0.5508(3) 0.8417(4) 0.8610(3)
C55 C 0.6364(4) 0.7977(4) 0.8436(3)
H52 H 0.638478 0.753058 0.790885
C56 C 0.7116(4) 0.8343(4) 0.9185(4)
H53 H 0.776800 0.821529 0.926802
C57 C 0.6734(3) 0.8967(3) 0.9836(3)
C58 C 0.4300(4) 0.7179(4) 0.7322(3)
C59 C 0.3982(4) 0.6995(5) 0.6415(3)
H54 H 0.394726 0.751179 0.623053
C60 C 0.3720(4) 0.6078(6) 0.5786(4)
C61 C 0.3790(5) 0.5332(6) 0.6076(4)
H55 H 0.360897 0.471068 0.566526
C62 C 0.4125(5) 0.5466(5) 0.6970(4)
H56 H 0.417652 0.494293 0.714378
C63 C 0.4379(4) 0.6389(4) 0.7589(3)
C64 C 0.3402(13) 0.6174(14) 0.4814(10)
C65 C 0.4114(10) 0.5649(14) 0.4355(8)
H57 H 0.398565 0.566901 0.377705
H58 H 0.400587 0.499481 0.431552
H59 H 0.480023 0.594992 0.468289
C66 C 0.2274(5) 0.5744(6) 0.4488(5)
H60 H 0.195371 0.604764 0.492577
H61 H 0.219246 0.507195 0.438396
H62 H 0.196818 0.583574 0.395420
C67 C 0.3445(10) 0.7121(10) 0.4692(7)
H63 H 0.410783 0.750291 0.499256
H64 H 0.295507 0.744797 0.492563
H65 H 0.329805 0.701483 0.407848
C68 C 0.5074(4) 0.5897(4) 0.8799(3)
C69 C 0.5572(4) 0.6388(4) 0.9778(4)
H66 H 0.526599 0.693670 0.999769
H67 H 0.543146 0.594795 1.006460
C70 C 0.6683(4) 0.6715(3) 1.0028(3)
H68 H 0.702543 0.621227 1.012725
H69 H 0.686976 0.685611 0.955651
N3A N 0.6138(3) 1.0497(3) 1.1196(3)
H46A H 0.564706 1.028402 1.072041
N4A N 0.4225(3) 1.0943(3) 1.0549(3)
O3A O 0.6993(2) 0.7571(2) 1.0825(2)
O4A O 0.5290(3) 1.3411(3) 1.1526(2)
C38A C 0.7965(3) 0.8038(3) 1.1038(3)
C39A C 0.8797(4) 0.7643(3) 1.1316(3)
H47A H 0.868930 0.703998 1.134992
C40A C 0.9763(4) 0.8130(3) 1.1539(4)
H48A H 1.030200 0.784895 1.171562
C41A C 0.9955(4) 0.9032(4) 1.1505(4)
C42A C 0.9123(4) 0.9440(4) 1.1258(4)
H49A H 0.923433 1.005135 1.124306
C43A C 0.8141(3) 0.8961(3) 1.1037(3)
C44A C 1.1025(7) 0.9544(7) 1.1521(6)
C45A C 1.1256(15) 1.0541(10) 1.2240(9)
C46A C 1.1070(8) 0.9644(8) 1.0650(7)
C47A C 1.1848(8) 0.8989(8) 1.1754(9)
C48A C 0.7248(3) 0.9379(3) 1.0730(3)
C49A C 0.6980(3) 1.0099(3) 1.1351(3)
C50A C 0.7586(3) 1.0657(4) 1.2240(3)
H50A H 0.818502 1.053324 1.253240
C51A C 0.7127(4) 1.1385(4) 1.2566(3)
H51A H 0.736906 1.186767 1.311643
C52A C 0.6201(3) 1.1292(3) 1.1920(3)
C53A C 0.5461(4) 1.1852(4) 1.1997(3)
C54A C 0.4492(3) 1.1583(4) 1.1390(3)
C55A C 0.3636(4) 1.2023(4) 1.1564(3)
H52A H 0.361522 1.246942 1.209115
C56A C 0.2884(4) 1.1657(4) 1.0815(4)
H53A H 0.223200 1.178471 1.073198
C57A C 0.3266(3) 1.1033(3) 1.0164(3)
C58A C 0.5700(4) 1.2821(4) 1.2678(3)
C59A C 0.6018(4) 1.3005(5) 1.3585(3)
H54A H 0.605274 1.248821 1.376947
C60A C 0.6280(4) 1.3922(6) 1.4214(4)
C61A C 0.6210(5) 1.4668(6) 1.3924(4)
H55A H 0.639103 1.528932 1.433474
C62A C 0.5875(5) 1.4534(5) 1.3030(4)
H56A H 0.582348 1.505707 1.285622
C63A C 0.5621(4) 1.3611(4) 1.2411(3)
C64A C 0.6598(13) 1.3826(14) 1.5186(10)
C65A C 0.5886(10) 1.4351(14) 1.5645(8)
H57A H 0.601435 1.433099 1.622295
H58A H 0.599413 1.500519 1.568448
H59A H 0.519977 1.405008 1.531711
C66A C 0.7726(5) 1.4256(6) 1.5512(5)
H60A H 0.804629 1.395236 1.507423
H61A H 0.780754 1.492805 1.561604
H62A H 0.803182 1.416426 1.604580
C67A C 0.6555(10) 1.2879(10) 1.5308(7)
H63A H 0.589217 1.249709 1.500744
H64A H 0.704493 1.255203 1.507437
H65A H 0.670195 1.298517 1.592152
C68A C 0.4926(4) 1.4103(4) 1.1201(3)
C69A C 0.4428(4) 1.3612(4) 1.0222(4)
H66A H 0.473401 1.306330 1.000231
H67A H 0.456854 1.405205 0.993540
C70A C 0.3317(4) 1.3285(3) 0.9972(3)
H68A H 0.297457 1.378773 0.987275
H69A H 0.313024 1.314389 1.044349
C78 C 0.5802(10) 0.9150(7) 0.5937(7)
H79 H 0.521301 0.891204 0.541854
Cl4 Cl 0.6355(5) 0.8142(4) 0.6027(3)
Cl5 Cl 0.6659(7) 0.9928(5) 0.5764(4)
Cl6 Cl 0.5398(4) 0.9615(4) 0.6825(3)
O5 O 0.6272(10) 1.1010(10) 0.5483(8)
H80 H 0.624672 1.088922 0.591870
C79 C 0.7183(13) 1.0822(14) 0.5273(11)
H81 H 0.738563 1.125119 0.500378
H82 H 0.707676 1.017391 0.487486
H83 H 0.770203 1.091460 0.579849
C35? C 0.9398(12) 0.189(2) 0.4718(17)
H37? H 0.895905 0.230256 0.457801
H38? H 0.931695 0.178478 0.523307
H39? H 0.923070 0.128469 0.423696
C36? C 1.106(2) 0.1637(16) 0.5174(16)
H40? H 1.096515 0.106267 0.467495
H41? H 1.078614 0.148873 0.559956
H42? H 1.176468 0.190402 0.542804
C37? C 1.034(3) 0.255(2) 0.4035(12)
H43? H 1.008824 0.195811 0.354425
H44? H 1.096148 0.285751 0.400829
H45? H 0.984927 0.296128 0.401682
C71? C -0.1020(8) 1.0417(7) 0.8043(7)
C72? C -0.1108(15) 0.9375(8) 0.8005(9)
C73? C -0.1535(9) 1.0387(8) 0.7117(6)
C74? C -0.1582(10) 1.0963(10) 0.8678(9)
H70? H 0.187841 0.522960 0.455596
H71? H 0.211072 0.566469 0.387977
H72? H 0.212668 0.634246 0.481704
C75? C 0.3315(13) 0.5732(12) 0.4807(10)
C76? C 0.3324(13) 0.4666(10) 0.4273(8)
H73? H 0.290212 0.424976 0.443204
H74? H 0.400313 0.455135 0.440240
H75? H 0.307401 0.454211 0.365816
C77? C 0.3986(10) 0.6390(12) 0.4529(8)
H76? H 0.366927 0.632623 0.393704
H77? H 0.463537 0.620788 0.456830
H78? H 0.406854 0.704248 0.491065
Cl7? Cl 0.5865(12) 1.0312(11) 0.6747(9)
loop_
_geom_bond_atom_site_label_1
_geom_bond_atom_site_label_2
_geom_bond_site_symmetry_1
_geom_bond_site_symmetry_2
Cl1 C1 1_555 1_555
Cl2 C1 1_555 1_555
Cl3 C1 1_555 1_555
C1 H1 1_555 1_555
N1 H2 1_555 1_555
N2 C18 1_555 1_555
O1 C2 1_555 1_555
O2 C23 1_555 1_555
C2 C3 1_555 1_555
C3 H3 1_555 1_555
C4 C3 1_555 1_555
H4 C4 1_555 1_555
C5 C4 1_555 1_555
C6 C5 1_555 1_555
H5 C6 1_555 1_555
C7 C2 1_555 1_555
C8 C5 1_555 1_555
C9 C8 1_555 1_555
H6 C9 1_555 1_555
H7 C9 1_555 1_555
H8 C9 1_555 1_555
C10 C8 1_555 1_555
H9 C10 1_555 1_555
H10 C10 1_555 1_555
H11 C10 1_555 1_555
C11 C8 1_555 1_555
H12 C11 1_555 1_555
H13 C11 1_555 1_555
H14 C11 1_555 1_555
C12 C7 1_555 1_555
C13 N1 1_555 1_555
C14 C13 1_555 1_555
H15 C14 1_555 1_555
C15 C14 1_555 1_555
H16 C15 1_555 1_555
C16 N1 1_555 1_555
C17 C16 1_555 1_555
C18 C17 1_555 1_555
C19 C18 1_555 1_555
H17 C19 1_555 1_555
C20 C19 1_555 1_555
H18 C20 1_555 1_555
C21 N2 1_555 1_555
C22 C17 1_555 1_555
C23 C22 1_555 1_555
C24 C23 1_555 1_555
H19 C24 1_555 1_555
C25 C24 1_555 1_555
H20 C25 1_555 1_555
C26 C25 1_555 1_555
C27 C22 1_555 1_555
H21 C27 1_555 1_555
C28 C26 1_555 1_555
C29 C28 1_555 1_555
H22 C29 1_555 1_555
H23 C29 1_555 1_555
H24 C29 1_555 1_555
C30 C28 1_555 1_555
H25 C30 1_555 1_555
H26 C30 1_555 1_555
H27 C30 1_555 1_555
C31 C28 1_555 1_555
H28 C31 1_555 1_555
H29 C31 1_555 1_555
H30 C31 1_555 1_555
C32 O2 1_555 1_555
H31 C32 1_555 1_555
H32 C32 1_555 1_555
C33 C32 1_555 1_555
H33 C33 1_555 1_555
H34 C33 1_555 1_555
C34 C33 1_555 1_555
H35 C34 1_555 1_555
H36 C34 1_555 1_555
N3 H46 1_555 1_555
N4 C54 1_555 1_555
O3 C38 1_555 1_555
O4 C63 1_555 1_555
C38 C39 1_555 1_555
C39 H47 1_555 1_555
C40 C39 1_555 1_555
H48 C40 1_555 1_555
C41 C40 1_555 1_555
C42 C41 1_555 1_555
H49 C42 1_555 1_555
C43 C38 1_555 1_555
C44 C41 1_555 1_555
C45 C44 1_555 1_555
C46 C44 1_555 1_555
C47 C44 1_555 1_555
C48 C43 1_555 1_555
C49 N3 1_555 1_555
C50 C49 1_555 1_555
H50 C50 1_555 1_555
C51 C50 1_555 1_555
H51 C51 1_555 1_555
C52 N3 1_555 1_555
C53 C52 1_555 1_555
C54 C53 1_555 1_555
C55 C54 1_555 1_555
H52 C55 1_555 1_555
C56 C55 1_555 1_555
H53 C56 1_555 1_555
C57 N4 1_555 1_555
C58 C53 1_555 1_555
C59 C58 1_555 1_555
H54 C59 1_555 1_555
C60 C59 1_555 1_555
C61 C60 1_555 1_555
H55 C61 1_555 1_555
C62 C61 1_555 1_555
H56 C62 1_555 1_555
C63 C58 1_555 1_555
C64 C60 1_555 1_555
C65 C64 1_555 1_555
H57 C65 1_555 1_555
H58 C65 1_555 1_555
H59 C65 1_555 1_555
C66 C64 1_555 1_555
H60 C66 1_555 1_555
H61 C66 1_555 1_555
H62 C66 1_555 1_555
C67 C64 1_555 1_555
H63 C67 1_555 1_555
H64 C67 1_555 1_555
H65 C67 1_555 1_555
C68 O4 1_555 1_555
C69 C68 1_555 1_555
H66 C69 1_555 1_555
H67 C69 1_555 1_555
C70 C69 1_555 1_555
H68 C70 1_555 1_555
H69 C70 1_555 1_555
C78 H79 1_555 1_555
Cl4 C78 1_555 1_555
Cl5 C78 1_555 1_555
Cl6 C78 1_555 1_555
O5 H80 1_555 1_555
C79 O5 1_555 1_555
H81 C79 1_555 1_555
H82 C79 1_555 1_555
H83 C79 1_555 1_555
N1A H2A 1_555 1_555
N2A C18A 1_555 1_555
O1A C34 1_555 1_555
O2A C23A 1_555 1_555
C2A O1A 1_555 1_555
C3A C2A 1_555 1_555
H3A C3A 1_555 1_555
C4A C3A 1_555 1_555
H4A C4A 1_555 1_555
C5A C4A 1_555 1_555
C6A C5A 1_555 1_555
H5A C6A 1_555 1_555
C7A C2A 1_555 1_555
C8A C5A 1_555 1_555
C9A C8A 1_555 1_555
H6A C9A 1_555 1_555
H7A C9A 1_555 1_555
H8A C9A 1_555 1_555
C10A C8A 1_555 1_555
H9A C10A 1_555 1_555
H10A C10A 1_555 1_555
H11A C10A 1_555 1_555
C11A C8A 1_555 1_555
H12A C11A 1_555 1_555
H13A C11A 1_555 1_555
H14A C11A 1_555 1_555
C12A C21 1_555 1_555
C13A N1A 1_555 1_555
C14A C13A 1_555 1_555
H15A C14A 1_555 1_555
C15A C14A 1_555 1_555
H16A C15A 1_555 1_555
C16A N1A 1_555 1_555
C17A C16A 1_555 1_555
C18A C17A 1_555 1_555
C19A C18A 1_555 1_555
H17A C19A 1_555 1_555
C20A C19A 1_555 1_555
H18A C20A 1_555 1_555
C21A C12 1_555 1_555
C22A C17A 1_555 1_555
C23A C22A 1_555 1_555
C24A C23A 1_555 1_555
H19A C24A 1_555 1_555
C25A C24A 1_555 1_555
H20A C25A 1_555 1_555
C26A C25A 1_555 1_555
C27A C22A 1_555 1_555
H21A C27A 1_555 1_555
C28A C26A 1_555 1_555
C29A C28A 1_555 1_555
H22A C29A 1_555 1_555
H23A C29A 1_555 1_555
H24A C29A 1_555 1_555
C30A C28A 1_555 1_555
H25A C30A 1_555 1_555
H26A C30A 1_555 1_555
H27A C30A 1_555 1_555
C31A C28A 1_555 1_555
H28A C31A 1_555 1_555
H29A C31A 1_555 1_555
H30A C31A 1_555 1_555
C32A O2A 1_555 1_555
H31A C32A 1_555 1_555
H32A C32A 1_555 1_555
C33A C32A 1_555 1_555
H33A C33A 1_555 1_555
H34A C33A 1_555 1_555
C34A O1 1_555 1_555
H35A C34A 1_555 1_555
H36A C34A 1_555 1_555
N3A H46A 1_555 1_555
N4A C54A 1_555 1_555
O3A C70 1_555 1_555
O4A C63A 1_555 1_555
C38A O3A 1_555 1_555
C39A C38A 1_555 1_555
H47A C39A 1_555 1_555
C40A C39A 1_555 1_555
H48A C40A 1_555 1_555
C41A C40A 1_555 1_555
C42A C41A 1_555 1_555
H49A C42A 1_555 1_555
C43A C38A 1_555 1_555
C44A C41A 1_555 1_555
C45A C44A 1_555 1_555
C46A C44A 1_555 1_555
C47A C44A 1_555 1_555
C48A C57 1_555 1_555
C49A N3A 1_555 1_555
C50A C49A 1_555 1_555
H50A C50A 1_555 1_555
C51A C50A 1_555 1_555
H51A C51A 1_555 1_555
C52A N3A 1_555 1_555
C53A C52A 1_555 1_555
C54A C53A 1_555 1_555
C55A C54A 1_555 1_555
H52A C55A 1_555 1_555
C56A C55A 1_555 1_555
H53A C56A 1_555 1_555
C57A C48 1_555 1_555
C58A C53A 1_555 1_555
C59A C58A 1_555 1_555
H54A C59A 1_555 1_555
C60A C59A 1_555 1_555
C61A C60A 1_555 1_555
H55A C61A 1_555 1_555
C62A C61A 1_555 1_555
H56A C62A 1_555 1_555
C63A C58A 1_555 1_555
C64A C60A 1_555 1_555
C65A C64A 1_555 1_555
H57A C65A 1_555 1_555
H58A C65A 1_555 1_555
H59A C65A 1_555 1_555
C66A C64A 1_555 1_555
H60A C66A 1_555 1_555
H61A C66A 1_555 1_555
H62A C66A 1_555 1_555
C67A C64A 1_555 1_555
H63A C67A 1_555 1_555
H64A C67A 1_555 1_555
H65A C67A 1_555 1_555
C68A O4A 1_555 1_555
C69A C68A 1_555 1_555
H66A C69A 1_555 1_555
H67A C69A 1_555 1_555
C70A O3 1_555 1_555
H68A C70A 1_555 1_555
H69A C70A 1_555 1_555
C6 C7 1_555 1_555
C12 C13 1_555 1_555
C15 C16 1_555 1_555
C20 C21 1_555 1_555
C26 C27 1_555 1_555
C42 C43 1_555 1_555
C48 C49 1_555 1_555
C51 C52 1_555 1_555
C56 C57 1_555 1_555
C62 C63 1_555 1_555
N2A C21A 1_555 1_555
C6A C7A 1_555 1_555
C7A C12A 1_555 1_555
C12A C13A 1_555 1_555
C15A C16A 1_555 1_555
C20A C21A 1_555 1_555
C26A C27A 1_555 1_555
C33A C34A 1_555 1_555
N4A C57A 1_555 1_555
C42A C43A 1_555 1_555
C43A C48A 1_555 1_555
C48A C49A 1_555 1_555
C51A C52A 1_555 1_555
C56A C57A 1_555 1_555
C62A C63A 1_555 1_555
C69A C70A 1_555 1_555

#END
