
#######################################################################
#
#                 Cambridge Crystallographic Data Centre
#                                CCDC 
#
#######################################################################
#
# If this CIF has been generated from an entry in the Cambridge 
# Structural Database, then it will include bibliographic, chemical, 
# crystal, experimental, refinement or atomic coordinate data resulting 
# from the CCDC's data processing and validation procedures.
#
#######################################################################

data_AGAJEA
_chemical_name_common            
"5,10:15,20-bis(2,2'-[pentane-1,5-diylbis(oxy)]bis(5-t-butylphenylene))porphyrin chloroform solvate"
_chemical_formula_moiety         'C70 H78 N4 O4,0.5(C1 H1 Cl3)'
_chemical_name_systematic        
'9,23,34,48-tetra-t-butyl-13,19,38,44-tetraoxa-55,56,61,62-tetraazaundecacyclo[29.19.4.4^6,26^.1^2,5^.1^27,30^.1^51,54^.1^57,60^.0^7,12^.0^20,25^.0^32,37^.0^45,50^]dohexaconta-1(51),2,4,6(60),7,9,11,20,22,24,26,28,30,32,34,36,45,47,49,52,54,57(62),58-tricosaene chloroform solvate'
_symmetry_cell_setting           orthorhombic
_symmetry_space_group_name_H-M   'P 21 21 21'
_symmetry_Int_Tables_number      19
_space_group_name_Hall           'P 2ac 2ab'
loop_
_symmetry_equiv_pos_site_id
_symmetry_equiv_pos_as_xyz
1 x,y,z
2 1/2-x,-y,1/2+z
3 -x,1/2+y,1/2-z
4 1/2+x,1/2-y,-z
_cell_length_a                   15.6212(4)
_cell_length_b                   31.4079(12)
_cell_length_c                   25.8937(7)
_cell_angle_alpha                90
_cell_angle_beta                 90
_cell_angle_gamma                90
_cell_volume                     12704.2
_exptl_crystal_colour            colorless
_exptl_crystal_description       block
_cell_formula_units_Z            8
_chemical_properties_physical    Photo-sensitive
_exptl_crystal_recrystallization_method chloroform/methanol
_exptl_crystal_preparation       Luminescent
loop_
_atom_site_label
_atom_site_type_symbol
_atom_site_fract_x
_atom_site_fract_y
_atom_site_fract_z
Cl1 Cl 0.7756(3) 0.49787(18) 0.2470(2)
Cl2 Cl 0.7427(4) 0.48649(17) 0.3546(2)
Cl3 Cl 0.8071(3) 0.41676(17) 0.29504(19)
C1 C 0.7418(8) 0.4615(4) 0.2936(5)
H1 H 0.6832 0.4526 0.2856
O1 O 0.6548(4) 0.3477(2) 0.2241(2)
O2 O 0.7981(3) 0.2877(2) 0.5003(2)
O3 O 0.7287(3) 0.13141(19) 0.4553(2)
O4 O 0.5544(4) 0.1892(2) 0.1916(2)
N1 N 0.5699(3) 0.32239(19) 0.3895(2)
H2 H 0.5470 0.2977 0.3854
N2 N 0.5869(3) 0.24085(19) 0.4433(2)
N3 N 0.5066(3) 0.19585(19) 0.3586(2)
H3 H 0.5127 0.2222 0.3670
N4 N 0.4937(4) 0.27625(19) 0.3029(2)
C2 C 0.5400(4) 0.3519(2) 0.3034(3)
C3 C 0.5702(4) 0.3544(2) 0.3533(3)
C4 C 0.6123(5) 0.3910(3) 0.3767(3)
H4 H 0.6201 0.4175 0.3615
C5 C 0.6376(5) 0.3794(3) 0.4244(3)
H5 H 0.6670 0.3966 0.4477
C6 C 0.6117(4) 0.3359(2) 0.4333(3)
C7 C 0.6332(4) 0.3108(2) 0.4755(3)
C8 C 0.6176(4) 0.2673(2) 0.4807(3)
C9 C 0.6356(4) 0.2427(2) 0.5278(3)
H6 H 0.6558 0.2533 0.5591
C10 C 0.6173(4) 0.2023(3) 0.5170(3)
H7 H 0.6216 0.1794 0.5396
C11 C 0.5892(4) 0.2002(2) 0.4630(3)
C12 C 0.5658(4) 0.1629(2) 0.4372(3)
C13 C 0.5290(4) 0.1617(2) 0.3879(3)
C14 C 0.5064(5) 0.1237(2) 0.3598(3)
H8 H 0.5145 0.0958 0.3710
C15 C 0.4717(5) 0.1356(2) 0.3147(3)
H9 H 0.4510 0.1176 0.2891
C16 C 0.4724(4) 0.1810(2) 0.3131(3)
C17 C 0.4470(4) 0.2059(2) 0.2709(3)
C18 C 0.4563(4) 0.2498(2) 0.2666(3)
C19 C 0.4361(4) 0.2750(2) 0.2210(3)
H10 H 0.4081 0.2654 0.1915
C20 C 0.4653(5) 0.3145(2) 0.2296(3)
H11 H 0.4623 0.3371 0.2065
C21 C 0.5022(4) 0.3160(2) 0.2806(3)
C22 C 0.5545(5) 0.3892(3) 0.2684(3)
C23 C 0.5121(5) 0.4281(3) 0.2746(3)
H12 H 0.4735 0.4303 0.3018
C24 C 0.5227(6) 0.4629(3) 0.2440(4)
C25 C 0.5812(7) 0.4571(4) 0.2038(4)
H13 H 0.5896 0.4796 0.1809
C26 C 0.6273(6) 0.4202(3) 0.1958(4)
H14 H 0.6669 0.4185 0.1690
C27 C 0.6140(5) 0.3861(3) 0.2277(3)
C28 C 0.4760(7) 0.5053(3) 0.2534(4)
C29 C 0.4489(9) 0.5255(3) 0.2019(4)
H15 H 0.4989 0.5320 0.1818
H16 H 0.4176 0.5512 0.2085
H17 H 0.4134 0.5060 0.1832
C30 C 0.5371(8) 0.5383(3) 0.2804(4)
H18 H 0.5549 0.5273 0.3133
H19 H 0.5072 0.5647 0.2854
H20 H 0.5864 0.5431 0.2591
C31 C 0.3983(7) 0.4996(3) 0.2871(5)
H21 H 0.3586 0.4807 0.2704
H22 H 0.3714 0.5267 0.2927
H23 H 0.4152 0.4877 0.3197
C32 C 0.6818(5) 0.3328(3) 0.5189(3)
C33 C 0.7663(5) 0.3195(3) 0.5294(4)
C34 C 0.8084(6) 0.3408(3) 0.5699(4)
H24 H 0.8634 0.3324 0.5791
C35 C 0.7702(8) 0.3737(3) 0.5960(4)
H25 H 0.8013 0.3875 0.6217
C36 C 0.6877(7) 0.3874(3) 0.5860(4)
C37 C 0.6446(6) 0.3657(3) 0.5466(3)
H26 H 0.5887 0.3736 0.5388
C38 C 0.5734(12) 0.4038(5) 0.6442(6)
H27 H 0.5407 0.3855 0.6220
H28 H 0.5373 0.4261 0.6572
H29 H 0.5959 0.3876 0.6725
C39 C 0.6458(8) 0.4230(4) 0.6142(4)
C40 C 0.6179(16) 0.4535(6) 0.5750(7)
H30 H 0.6663 0.4695 0.5630
H31 H 0.5765 0.4725 0.5898
H32 H 0.5926 0.4384 0.5466
C41 C 0.7068(11) 0.4440(6) 0.6522(6)
H33 H 0.7227 0.4239 0.6784
H34 H 0.6790 0.4680 0.6680
H35 H 0.7571 0.4535 0.6343
C42 C 0.5806(5) 0.1213(2) 0.4634(3)
C43 C 0.6628(5) 0.1055(3) 0.4718(3)
C44 C 0.6738(6) 0.0658(3) 0.4955(3)
H36 H 0.7287 0.0557 0.5021
C45 C 0.6027(6) 0.0414(3) 0.5092(3)
H37 H 0.6107 0.0148 0.5243
C46 C 0.5205(5) 0.0560(2) 0.5005(3)
C47 C 0.5114(5) 0.0962(2) 0.4786(3)
H38 H 0.4564 0.1069 0.4739
C48 C 0.4402(6) 0.0296(3) 0.5112(4)
C49 C 0.4023(7) 0.0175(3) 0.4592(4)
H39 H 0.3862 0.0428 0.4409
H40 H 0.3528 -0.0001 0.4645
H41 H 0.4441 0.0021 0.4395
C50 C 0.3744(7) 0.0558(3) 0.5406(5)
H42 H 0.3974 0.0638 0.5735
H43 H 0.3235 0.0392 0.5455
H44 H 0.3608 0.0809 0.5212
C51 C 0.4604(8) -0.0122(3) 0.5402(4)
H45 H 0.4922 -0.0309 0.5180
H46 H 0.4079 -0.0257 0.5503
H47 H 0.4938 -0.0060 0.5704
C52 C 0.4155(5) 0.1823(2) 0.2243(3)
C53 C 0.4735(5) 0.1733(3) 0.1847(3)
C54 C 0.4469(6) 0.1500(3) 0.1422(3)
H48 H 0.4856 0.1432 0.1163
C55 C 0.3617(6) 0.1367(3) 0.1385(3)
H49 H 0.3449 0.1205 0.1101
C56 C 0.3019(6) 0.1470(3) 0.1759(3)
C57 C 0.3301(5) 0.1693(2) 0.2193(3)
H50 H 0.2914 0.1756 0.2454
C58 C 0.2066(8) 0.1365(5) 0.1702(4)
C59 C 0.1588(9) 0.1839(5) 0.1555(6)
H51 H 0.1667 0.2034 0.1836
H52 H 0.0988 0.1794 0.1499
H53 H 0.1842 0.1954 0.1248
C60 C 0.1623(7) 0.1269(4) 0.2169(4)
H54 H 0.1909 0.1041 0.2344
H55 H 0.1046 0.1186 0.2091
H56 H 0.1616 0.1517 0.2387
C61 C 0.1813(8) 0.1190(6) 0.1223(5)
H57 H 0.2099 0.1337 0.0948
H58 H 0.1205 0.1220 0.1183
H59 H 0.1963 0.0894 0.1213
C62 C 0.8830(5) 0.2726(4) 0.5116(4)
H60 H 0.8867 0.2639 0.5475
H61 H 0.9244 0.2951 0.5057
C63 C 0.9016(5) 0.2360(4) 0.4776(4)
H62 H 0.9614 0.2284 0.4817
H63 H 0.8933 0.2448 0.4421
C64 C 0.8470(5) 0.1968(3) 0.4878(4)
H64 H 0.8519 0.1893 0.5240
H65 H 0.7875 0.2039 0.4811
C65 C 0.8704(5) 0.1583(3) 0.4556(4)
H66 H 0.9300 0.1514 0.4618
H67 H 0.8646 0.1656 0.4194
C66 C 0.8167(5) 0.1192(3) 0.4665(4)
H68 H 0.8342 0.0957 0.4446
H69 H 0.8224 0.1106 0.5023
C67 C 0.7161(6) 0.3412(4) 0.1828(4)
H70 H 0.7675 0.3577 0.1892
H71 H 0.6919 0.3501 0.1501
C68 C 0.7366(5) 0.2945(4) 0.1817(4)
H72 H 0.7619 0.2867 0.2146
H73 H 0.7793 0.2896 0.1552
C69 C 0.6598(5) 0.2650(3) 0.1714(4)
H74 H 0.6218 0.2659 0.2010
H75 H 0.6285 0.2757 0.1418
C70 C 0.6848(6) 0.2200(3) 0.1616(4)
H76 H 0.7132 0.2089 0.1920
H77 H 0.7256 0.2194 0.1334
C71 C 0.6106(6) 0.1912(3) 0.1483(3)
H78 H 0.5803 0.2023 0.1185
H79 H 0.6314 0.1630 0.1400
O5 O 0.8413(3) 0.77644(18) 0.5006(2)
O6 O 0.7080(3) 0.83384(18) 0.7815(2)
O7 O 0.6038(3) 0.67442(19) 0.8132(2)
O8 O 0.7584(3) 0.62004(16) 0.5424(2)
N5 N 0.6197(3) 0.81163(18) 0.6146(2)
H89 H 0.5928 0.7879 0.6184
N6 N 0.5452(3) 0.76650(19) 0.7020(2)
N7 N 0.5505(3) 0.68625(18) 0.6453(2)
H90 H 0.5581 0.7124 0.6368
N8 N 0.6270(3) 0.73096(18) 0.5586(2)
C75 C 0.6775(4) 0.8010(2) 0.5263(3)
C76 C 0.6626(4) 0.8243(2) 0.5709(3)
C77 C 0.6952(5) 0.8666(2) 0.5812(3)
H91 H 0.7257 0.8835 0.5582
C78 C 0.6738(5) 0.8772(2) 0.6296(3)
H92 H 0.6875 0.9026 0.6462
C79 C 0.6271(4) 0.8433(2) 0.6512(3)
C80 C 0.5959(4) 0.8411(2) 0.7016(3)
C81 C 0.5537(4) 0.8063(2) 0.7240(3)
C82 C 0.5175(4) 0.8055(3) 0.7756(3)
H93 H 0.5151 0.8282 0.7987
C83 C 0.4883(4) 0.7659(2) 0.7836(3)
H94 H 0.4610 0.7563 0.8133
C84 C 0.5067(4) 0.7408(2) 0.7381(3)
C85 C 0.4955(4) 0.6965(2) 0.7343(3)
C86 C 0.5193(4) 0.6721(2) 0.6912(3)
C87 C 0.5159(5) 0.6261(2) 0.6895(3)
H95 H 0.4970 0.6081 0.7157
C88 C 0.5456(5) 0.6140(2) 0.6424(3)
H96 H 0.5506 0.5863 0.6303
C89 C 0.5677(4) 0.6518(2) 0.6151(3)
C90 C 0.5988(4) 0.6532(2) 0.5641(3)
C91 C 0.6225(4) 0.6902(2) 0.5377(3)
C92 C 0.6477(4) 0.6929(2) 0.4847(3)
H97 H 0.6492 0.6703 0.4614
C93 C 0.6690(4) 0.7335(2) 0.4743(3)
H98 H 0.6878 0.7440 0.4427
C94 C 0.6573(4) 0.7578(2) 0.5206(3)
C95 C 0.7248(5) 0.8220(2) 0.4845(3)
C96 C 0.8085(5) 0.8095(2) 0.4715(3)
C97 C 0.8536(5) 0.8310(3) 0.4346(4)
H99 H 0.9096 0.8231 0.4269
C98 C 0.8154(6) 0.8650(3) 0.4084(3)
H100 H 0.8461 0.8788 0.3826
C99 C 0.7326(5) 0.8787(3) 0.4197(3)
C100 C 0.6901(5) 0.8555(2) 0.4582(3)
H101 H 0.6344 0.8635 0.4664
C101 C 0.6875(5) 0.9159(3) 0.3921(3)
C102 C 0.7537(8) 0.9389(4) 0.3557(5)
H102 H 0.7264 0.9627 0.3391
H103 H 0.7736 0.9193 0.3299
H104 H 0.8013 0.9489 0.3757
C103 C 0.6572(9) 0.9477(4) 0.4321(5)
H105 H 0.6320 0.9717 0.4150
H106 H 0.7050 0.9569 0.4525
H107 H 0.6154 0.9345 0.4540
C104 C 0.6179(8) 0.8972(4) 0.3592(5)
H108 H 0.5824 0.8791 0.3800
H109 H 0.6430 0.8808 0.3318
H110 H 0.5838 0.9197 0.3448
C105 C 0.6154(5) 0.8781(2) 0.7357(3)
C106 C 0.6764(5) 0.8735(3) 0.7755(3)
C107 C 0.7004(6) 0.9088(3) 0.8033(4)
H111 H 0.7407 0.9063 0.8295
C108 C 0.6640(7) 0.9488(3) 0.7921(4)
H112 H 0.6807 0.9723 0.8117
C109 C 0.6041(6) 0.9546(3) 0.7530(4)
C110 C 0.5819(5) 0.9181(3) 0.7250(3)
H113 H 0.5431 0.9208 0.6980
C111 C 0.5695(10) 0.9981(3) 0.7394(6)
C112 C 0.4970(10) 0.9963(5) 0.7032(8)
H114 H 0.5181 0.9968 0.6684
H115 H 0.4602 1.0203 0.7088
H116 H 0.4654 0.9705 0.7088
C113 C 0.6312(8) 1.0293(4) 0.7377(8)
H117 H 0.6689 1.0262 0.7668
H118 H 0.6044 1.0568 0.7389
H119 H 0.6634 1.0266 0.7063
C114 C 0.5121(13) 1.0133(5) 0.7895(8)
H120 H 0.4691 0.9922 0.7966
H121 H 0.4850 1.0400 0.7820
H122 H 0.5487 1.0164 0.8191
C115 C 0.4642(4) 0.6733(2) 0.7804(3)
C116 C 0.5209(5) 0.6627(3) 0.8203(3)
C117 C 0.4902(5) 0.6414(3) 0.8635(3)
H123 H 0.5279 0.6337 0.8897
C118 C 0.4026(5) 0.6313(2) 0.8680(3)
H124 H 0.3834 0.6160 0.8964
C119 C 0.3447(5) 0.6441(2) 0.8303(3)
C120 C 0.3779(4) 0.6645(2) 0.7867(3)
H125 H 0.3402 0.6726 0.7606
C121 C 0.2474(5) 0.6382(3) 0.8369(3)
C122 C 0.2087(6) 0.6824(3) 0.8501(4)
H126 H 0.2342 0.6929 0.8813
H127 H 0.1480 0.6796 0.8549
H128 H 0.2199 0.7019 0.8224
C123 C 0.2266(7) 0.6068(5) 0.8783(5)
H129 H 0.2550 0.5804 0.8712
H130 H 0.1659 0.6023 0.8793
H131 H 0.2456 0.6176 0.9110
C124 C 0.2077(5) 0.6239(3) 0.7860(4)
H132 H 0.2149 0.6459 0.7606
H133 H 0.1478 0.6184 0.7909
H134 H 0.2355 0.5984 0.7744
C125 C 0.6087(4) 0.6123(2) 0.5354(3)
C126 C 0.6908(5) 0.5962(2) 0.5240(3)
C127 C 0.6973(5) 0.5595(2) 0.4963(3)
H135 H 0.7513 0.5486 0.4889
C128 C 0.6255(5) 0.5378(2) 0.4787(3)
H136 H 0.6326 0.5127 0.4601
C129 C 0.5445(6) 0.5524(3) 0.4883(3)
C130 C 0.5377(5) 0.5909(2) 0.5175(3)
H137 H 0.4836 0.6018 0.5247
C131 C 0.4621(6) 0.5301(3) 0.4701(4)
C132 C 0.4816(6) 0.4883(3) 0.4425(4)
H138 H 0.5174 0.4938 0.4131
H139 H 0.4290 0.4754 0.4312
H140 H 0.5106 0.4693 0.4657
C133 C 0.4047(7) 0.5200(3) 0.5160(4)
H141 H 0.4343 0.5013 0.5392
H142 H 0.3533 0.5065 0.5040
H143 H 0.3904 0.5459 0.5336
C134 C 0.4140(6) 0.5593(3) 0.4327(4)
H144 H 0.3939 0.5839 0.4509
H145 H 0.3662 0.5442 0.4183
H146 H 0.4518 0.5679 0.4054
C135 C 0.9242(5) 0.7603(3) 0.4864(4)
H147 H 0.9676 0.7820 0.4919
H148 H 0.9247 0.7524 0.4502
C136 C 0.9421(5) 0.7221(3) 0.5196(4)
H149 H 0.9389 0.7303 0.5556
H150 H 0.9999 0.7122 0.5129
C137 C 0.8790(5) 0.6853(3) 0.5098(4)
H151 H 0.8219 0.6943 0.5198
H152 H 0.8780 0.6789 0.4731
C138 C 0.9025(5) 0.6448(3) 0.5397(3)
H153 H 0.9608 0.6367 0.5311
H154 H 0.9006 0.6509 0.5764
C139 C 0.8432(5) 0.6076(3) 0.5281(3)
H155 H 0.8452 0.6006 0.4916
H156 H 0.8606 0.5827 0.5476
C140 C 0.7718(5) 0.8261(3) 0.8203(3)
H157 H 0.7511 0.8352 0.8538
H158 H 0.8236 0.8419 0.8124
C141 C 0.7896(5) 0.7797(3) 0.8206(4)
H159 H 0.8324 0.7738 0.8468
H160 H 0.8134 0.7717 0.7874
C142 C 0.7102(5) 0.7520(3) 0.8313(3)
H161 H 0.6787 0.7640 0.8601
H162 H 0.6731 0.7525 0.8013
C143 C 0.7338(5) 0.7058(3) 0.8439(4)
H163 H 0.7613 0.6933 0.8140
H164 H 0.7749 0.7057 0.8720
C144 C 0.6572(5) 0.6786(3) 0.8590(3)
H165 H 0.6761 0.6508 0.8707
H166 H 0.6254 0.6920 0.8867
C72? C 0.635(4) 0.4174(15) 0.6715(18)
H80? H 0.6075 0.3906 0.6783
H81? H 0.5996 0.4400 0.6848
H82? H 0.6896 0.4181 0.6881
C73? C 0.672(4) 0.4679(13) 0.606(2)
H83? H 0.7327 0.4706 0.6122
H84? H 0.6416 0.4860 0.6294
H85? H 0.6599 0.4761 0.5711
C74? C 0.532(3) 0.430(2) 0.600(2)
H86? H 0.5225 0.4252 0.5635
H87? H 0.5144 0.4580 0.6089
H88? H 0.4993 0.4093 0.6191
C145? C 0.583(2) 0.9184(16) 0.4049(18)
H167? H 0.5564 0.8918 0.3961
H168? H 0.5574 0.9409 0.3850
H169? H 0.5745 0.9240 0.4410
C146? C 0.686(3) 0.9064(12) 0.3286(13)
H170? H 0.7073 0.8783 0.3220
H171? H 0.7207 0.9270 0.3111
H172? H 0.6279 0.9085 0.3162
C147? C 0.727(2) 0.9620(11) 0.3992(15)
H173? H 0.6944 0.9821 0.3793
H174? H 0.7853 0.9621 0.3876
H175? H 0.7249 0.9699 0.4350
loop_
_geom_bond_atom_site_label_1
_geom_bond_atom_site_label_2
_geom_bond_site_symmetry_1
_geom_bond_site_symmetry_2
Cl1 C1 1_555 1_555
Cl2 C1 1_555 1_555
Cl3 C1 1_555 1_555
C1 H1 1_555 1_555
O1 C27 1_555 1_555
O2 C33 1_555 1_555
O3 C43 1_555 1_555
O4 C53 1_555 1_555
N1 H2 1_555 1_555
N2 C8 1_555 1_555
N3 H3 1_555 1_555
N4 C18 1_555 1_555
C2 C3 1_555 1_555
C3 N1 1_555 1_555
C4 C3 1_555 1_555
H4 C4 1_555 1_555
C5 C4 1_555 1_555
H5 C5 1_555 1_555
C6 N1 1_555 1_555
C7 C6 1_555 1_555
C8 C7 1_555 1_555
C9 C8 1_555 1_555
H6 C9 1_555 1_555
C10 C9 1_555 1_555
H7 C10 1_555 1_555
C11 N2 1_555 1_555
C12 C11 1_555 1_555
C13 N3 1_555 1_555
C14 C13 1_555 1_555
H8 C14 1_555 1_555
C15 C14 1_555 1_555
H9 C15 1_555 1_555
C16 N3 1_555 1_555
C17 C16 1_555 1_555
C18 C17 1_555 1_555
C19 C18 1_555 1_555
H10 C19 1_555 1_555
C20 C19 1_555 1_555
H11 C20 1_555 1_555
C21 N4 1_555 1_555
C22 C2 1_555 1_555
C23 C22 1_555 1_555
H12 C23 1_555 1_555
C24 C23 1_555 1_555
C25 C24 1_555 1_555
H13 C25 1_555 1_555
C26 C25 1_555 1_555
H14 C26 1_555 1_555
C27 C22 1_555 1_555
C28 C24 1_555 1_555
C29 C28 1_555 1_555
H15 C29 1_555 1_555
H16 C29 1_555 1_555
H17 C29 1_555 1_555
C30 C28 1_555 1_555
H18 C30 1_555 1_555
H19 C30 1_555 1_555
H20 C30 1_555 1_555
C31 C28 1_555 1_555
H21 C31 1_555 1_555
H22 C31 1_555 1_555
H23 C31 1_555 1_555
C32 C7 1_555 1_555
C33 C32 1_555 1_555
C34 C33 1_555 1_555
H24 C34 1_555 1_555
C35 C34 1_555 1_555
H25 C35 1_555 1_555
C36 C35 1_555 1_555
C37 C32 1_555 1_555
H26 C37 1_555 1_555
C38 H27 1_555 1_555
H28 C38 1_555 1_555
H29 C38 1_555 1_555
C39 C36 1_555 1_555
C40 C39 1_555 1_555
H30 C40 1_555 1_555
H31 C40 1_555 1_555
H32 C40 1_555 1_555
C41 C39 1_555 1_555
H33 C41 1_555 1_555
H34 C41 1_555 1_555
H35 C41 1_555 1_555
C42 C12 1_555 1_555
C43 C42 1_555 1_555
C44 C43 1_555 1_555
H36 C44 1_555 1_555
C45 C44 1_555 1_555
H37 C45 1_555 1_555
C46 C45 1_555 1_555
C47 C42 1_555 1_555
H38 C47 1_555 1_555
C48 C46 1_555 1_555
C49 C48 1_555 1_555
H39 C49 1_555 1_555
H40 C49 1_555 1_555
H41 C49 1_555 1_555
C50 C48 1_555 1_555
H42 C50 1_555 1_555
H43 C50 1_555 1_555
H44 C50 1_555 1_555
C51 C48 1_555 1_555
H45 C51 1_555 1_555
H46 C51 1_555 1_555
H47 C51 1_555 1_555
C52 C17 1_555 1_555
C53 C52 1_555 1_555
C54 C53 1_555 1_555
H48 C54 1_555 1_555
C55 C54 1_555 1_555
H49 C55 1_555 1_555
C56 C55 1_555 1_555
C57 C52 1_555 1_555
H50 C57 1_555 1_555
C58 C56 1_555 1_555
C59 C58 1_555 1_555
H51 C59 1_555 1_555
H52 C59 1_555 1_555
H53 C59 1_555 1_555
C60 C58 1_555 1_555
H54 C60 1_555 1_555
H55 C60 1_555 1_555
H56 C60 1_555 1_555
C61 C58 1_555 1_555
H57 C61 1_555 1_555
H58 C61 1_555 1_555
H59 C61 1_555 1_555
C62 O2 1_555 1_555
H60 C62 1_555 1_555
H61 C62 1_555 1_555
C63 C62 1_555 1_555
H62 C63 1_555 1_555
H63 C63 1_555 1_555
C64 C63 1_555 1_555
H64 C64 1_555 1_555
H65 C64 1_555 1_555
C65 C64 1_555 1_555
H66 C65 1_555 1_555
H67 C65 1_555 1_555
C66 O3 1_555 1_555
H68 C66 1_555 1_555
H69 C66 1_555 1_555
C67 O1 1_555 1_555
H70 C67 1_555 1_555
H71 C67 1_555 1_555
C68 C67 1_555 1_555
H72 C68 1_555 1_555
H73 C68 1_555 1_555
C69 C68 1_555 1_555
H74 C69 1_555 1_555
H75 C69 1_555 1_555
C70 C69 1_555 1_555
H76 C70 1_555 1_555
H77 C70 1_555 1_555
C71 O4 1_555 1_555
H78 C71 1_555 1_555
H79 C71 1_555 1_555
O5 C96 1_555 1_555
O6 C106 1_555 1_555
O7 C116 1_555 1_555
O8 C126 1_555 1_555
N5 H89 1_555 1_555
N6 C81 1_555 1_555
N7 H90 1_555 1_555
N8 C91 1_555 1_555
C75 C76 1_555 1_555
C76 N5 1_555 1_555
C77 C76 1_555 1_555
H91 C77 1_555 1_555
C78 C77 1_555 1_555
H92 C78 1_555 1_555
C79 N5 1_555 1_555
C80 C79 1_555 1_555
C81 C80 1_555 1_555
C82 C81 1_555 1_555
H93 C82 1_555 1_555
C83 C82 1_555 1_555
H94 C83 1_555 1_555
C84 N6 1_555 1_555
C85 C84 1_555 1_555
C86 N7 1_555 1_555
C87 C86 1_555 1_555
H95 C87 1_555 1_555
C88 C87 1_555 1_555
H96 C88 1_555 1_555
C89 N7 1_555 1_555
C90 C89 1_555 1_555
C91 C90 1_555 1_555
C92 C91 1_555 1_555
H97 C92 1_555 1_555
C93 C92 1_555 1_555
H98 C93 1_555 1_555
C94 N8 1_555 1_555
C95 C75 1_555 1_555
C96 C95 1_555 1_555
C97 C96 1_555 1_555
H99 C97 1_555 1_555
C98 C97 1_555 1_555
H100 C98 1_555 1_555
C99 C98 1_555 1_555
C100 C95 1_555 1_555
H101 C100 1_555 1_555
C101 C99 1_555 1_555
C102 C101 1_555 1_555
H102 C102 1_555 1_555
H103 C102 1_555 1_555
H104 C102 1_555 1_555
C103 C101 1_555 1_555
H105 C103 1_555 1_555
H106 C103 1_555 1_555
H107 C103 1_555 1_555
C104 C101 1_555 1_555
H108 C104 1_555 1_555
H109 C104 1_555 1_555
H110 C104 1_555 1_555
C105 C80 1_555 1_555
C106 C105 1_555 1_555
C107 C106 1_555 1_555
H111 C107 1_555 1_555
C108 C107 1_555 1_555
H112 C108 1_555 1_555
C109 C108 1_555 1_555
C110 C105 1_555 1_555
H113 C110 1_555 1_555
C111 C109 1_555 1_555
C112 C111 1_555 1_555
H114 C112 1_555 1_555
H115 C112 1_555 1_555
H116 C112 1_555 1_555
C113 C111 1_555 1_555
H117 C113 1_555 1_555
H118 C113 1_555 1_555
H119 C113 1_555 1_555
C114 C111 1_555 1_555
H120 C114 1_555 1_555
H121 C114 1_555 1_555
H122 C114 1_555 1_555
C115 C85 1_555 1_555
C116 C115 1_555 1_555
C117 C116 1_555 1_555
H123 C117 1_555 1_555
C118 C117 1_555 1_555
H124 C118 1_555 1_555
C119 C118 1_555 1_555
C120 C115 1_555 1_555
H125 C120 1_555 1_555
C121 C119 1_555 1_555
C122 C121 1_555 1_555
H126 C122 1_555 1_555
H127 C122 1_555 1_555
H128 C122 1_555 1_555
C123 C121 1_555 1_555
H129 C123 1_555 1_555
H130 C123 1_555 1_555
H131 C123 1_555 1_555
C124 C121 1_555 1_555
H132 C124 1_555 1_555
H133 C124 1_555 1_555
H134 C124 1_555 1_555
C125 C90 1_555 1_555
C126 C125 1_555 1_555
C127 C126 1_555 1_555
H135 C127 1_555 1_555
C128 C127 1_555 1_555
H136 C128 1_555 1_555
C129 C128 1_555 1_555
C130 C125 1_555 1_555
H137 C130 1_555 1_555
C131 C129 1_555 1_555
C132 C131 1_555 1_555
H138 C132 1_555 1_555
H139 C132 1_555 1_555
H140 C132 1_555 1_555
C133 C131 1_555 1_555
H141 C133 1_555 1_555
H142 C133 1_555 1_555
H143 C133 1_555 1_555
C134 C131 1_555 1_555
H144 C134 1_555 1_555
H145 C134 1_555 1_555
H146 C134 1_555 1_555
C135 O5 1_555 1_555
H147 C135 1_555 1_555
H148 C135 1_555 1_555
C136 C135 1_555 1_555
H149 C136 1_555 1_555
H150 C136 1_555 1_555
C137 C136 1_555 1_555
H151 C137 1_555 1_555
H152 C137 1_555 1_555
C138 C137 1_555 1_555
H153 C138 1_555 1_555
H154 C138 1_555 1_555
C139 O8 1_555 1_555
H155 C139 1_555 1_555
H156 C139 1_555 1_555
C140 O6 1_555 1_555
H157 C140 1_555 1_555
H158 C140 1_555 1_555
C141 C140 1_555 1_555
H159 C141 1_555 1_555
H160 C141 1_555 1_555
C142 C141 1_555 1_555
H161 C142 1_555 1_555
H162 C142 1_555 1_555
C143 C142 1_555 1_555
H163 C143 1_555 1_555
H164 C143 1_555 1_555
C144 O7 1_555 1_555
H165 C144 1_555 1_555
H166 C144 1_555 1_555
C2 C21 1_555 1_555
C5 C6 1_555 1_555
C10 C11 1_555 1_555
C12 C13 1_555 1_555
C15 C16 1_555 1_555
C20 C21 1_555 1_555
C26 C27 1_555 1_555
C36 C37 1_555 1_555
C38 C39 1_555 1_555
C46 C47 1_555 1_555
C56 C57 1_555 1_555
C65 C66 1_555 1_555
C70 C71 1_555 1_555
C75 C94 1_555 1_555
C78 C79 1_555 1_555
C83 C84 1_555 1_555
C85 C86 1_555 1_555
C88 C89 1_555 1_555
C93 C94 1_555 1_555
C99 C100 1_555 1_555
C109 C110 1_555 1_555
C119 C120 1_555 1_555
C129 C130 1_555 1_555
C138 C139 1_555 1_555
C143 C144 1_555 1_555

#END
