
#######################################################################
#
#                 Cambridge Crystallographic Data Centre
#                                CCDC 
#
#######################################################################
#
# If this CIF has been generated from an entry in the Cambridge 
# Structural Database, then it will include bibliographic, chemical, 
# crystal, experimental, refinement or atomic coordinate data resulting 
# from the CCDC's data processing and validation procedures.
#
#######################################################################

data_AGAJAW
_chemical_name_common            
"5,10:15,20-bis(2,2'-[butane-1,4-diylbis(oxy)]bis(5-t-butylphenylene))porphyrin chloroform solvate"
_chemical_formula_moiety         'C68 H74 N4 O4,3(C1 H1 Cl3)'
_chemical_name_systematic        
'9,22,33,46-tetra-t-butyl-13,18,37,42-tetraoxa-53,54,59,60-tetraazaundecacyclo[28.18.4.4^6,25^.1^2,5^.1^26,29^.1^49,52^.1^55,58^.0^7,12^.0^19,24^.0^31,36^.0^43,48^]hexaconta-1(49),2,4,6(58),7,9,11,19,21,23,25,27,29,31,33,35,43,45,47,50,52,55(60),56-tricosaene chloroform solvate'
_symmetry_cell_setting           monoclinic
_symmetry_space_group_name_H-M   'P 21/c'
_symmetry_Int_Tables_number      14
_space_group_name_Hall           '-P 2ybc'
loop_
_symmetry_equiv_pos_site_id
_symmetry_equiv_pos_as_xyz
1 x,y,z
2 -x,1/2+y,1/2-z
3 -x,-y,-z
4 x,1/2-y,1/2+z
_cell_length_a                   15.8871(7)
_cell_length_b                   15.3880(6)
_cell_length_c                   28.3212(10)
_cell_angle_alpha                90
_cell_angle_beta                 99.078(4)
_cell_angle_gamma                90
_cell_volume                     6836.98
_exptl_crystal_colour            pink
_exptl_crystal_description       Block
_cell_formula_units_Z            4
_chemical_properties_physical    Photo-sensitive
_exptl_crystal_recrystallization_method chloroform/methanol
_exptl_crystal_preparation       Luminescent
loop_
_atom_site_label
_atom_site_type_symbol
_atom_site_fract_x
_atom_site_fract_y
_atom_site_fract_z
Cl1 Cl 0.33108(12) 0.24604(13) 0.29480(7)
Cl2 Cl 0.24607(16) 0.29452(13) 0.20103(6)
Cl3 Cl 0.15610(16) 0.30491(14) 0.28137(7)
C1 C 0.2337(4) 0.2493(3) 0.25608(19)
H1 H 0.214050 0.189333 0.250301
Cl4 Cl 0.41881(11) 0.43001(13) 0.48023(6)
Cl5 Cl 0.41015(14) 0.46788(15) 0.38003(7)
Cl6 Cl 0.28433(14) 0.3558(2) 0.41226(8)
C2 C 0.3455(6) 0.4423(5) 0.4257(2)
H2 H 0.308689 0.492228 0.429150
Cl7 Cl 0.32322(11) 0.83495(14) 0.57345(8)
Cl8 Cl 0.46902(14) 0.93276(17) 0.55881(10)
Cl9 Cl 0.48900(15) 0.75490(15) 0.58919(8)
C3 C 0.4224(4) 0.8299(5) 0.5550(3)
H3 H 0.414265 0.811187 0.521555
N1 N 0.8225(2) 0.6336(2) 0.39306(11)
H4 H 0.865500 0.637775 0.378207
N2 N 1.0004(2) 0.6810(2) 0.41887(11)
N3 N 1.0480(2) 0.6010(2) 0.33394(11)
H5 H 1.001255 0.617231 0.342925
N4 N 0.8689(2) 0.5653(2) 0.30511(11)
O1 O 0.70681(19) 0.3838(2) 0.35254(10)
O2 O 0.94065(19) 0.35497(18) 0.24907(10)
O3 O 0.9432(3) 0.6162(3) 0.54670(12)
O4 O 1.2177(2) 0.5845(2) 0.48196(12)
C4 C 0.7468(3) 0.5936(3) 0.37522(14)
C5 C 0.6938(3) 0.6013(3) 0.41119(15)
H6 H 0.638731 0.579588 0.409290
C6 C 0.7373(3) 0.6459(3) 0.44872(15)
H7 H 0.716840 0.660615 0.476679
C7 C 0.8197(3) 0.6661(3) 0.43783(14)
C8 C 0.8864(3) 0.7090(3) 0.46668(14)
C9 C 0.9690(3) 0.7199(3) 0.45541(13)
C10 C 1.0348(3) 0.7714(3) 0.48460(14)
H8 H 1.028273 0.805137 0.511011
C11 C 1.1065(3) 0.7605(3) 0.46594(14)
H9 H 1.159399 0.785417 0.476683
C12 C 1.0851(3) 0.7020(3) 0.42556(14)
C13 C 1.1463(3) 0.6680(3) 0.39986(14)
C14 C 1.1278(3) 0.6189(2) 0.35801(14)
C15 C 1.1868(3) 0.5794(3) 0.33143(15)
H10 H 1.245825 0.580488 0.339405
C16 C 1.1419(3) 0.5399(3) 0.29242(14)
H11 H 1.164932 0.509322 0.269155
C17 C 1.0532(3) 0.5534(2) 0.29339(13)
C18 C 0.9844(3) 0.5267(2) 0.25991(13)
C19 C 0.8979(3) 0.5391(2) 0.26458(13)
C20 C 0.8277(3) 0.5159(2) 0.22767(13)
H12 H 0.831406 0.499163 0.196511
C21 C 0.7561(3) 0.5230(3) 0.24702(13)
H13 H 0.700700 0.512044 0.232069
C22 C 0.7827(3) 0.5513(2) 0.29611(14)
C23 C 0.7269(3) 0.5569(3) 0.32986(14)
C24 C 0.6434(3) 0.5113(3) 0.31583(14)
C25 C 0.6383(3) 0.4226(3) 0.32437(14)
C26 C 0.5648(3) 0.3770(3) 0.30578(17)
H14 H 0.560918 0.317846 0.311797
C27 C 0.4977(3) 0.4196(3) 0.27844(17)
H15 H 0.449408 0.388205 0.265660
C28 C 0.5005(3) 0.5087(3) 0.26952(16)
C29 C 0.5735(3) 0.5532(3) 0.28910(15)
H16 H 0.576061 0.612869 0.284344
C30 C 0.7422(3) 0.3071(3) 0.33435(15)
H17 H 0.696597 0.266947 0.322702
H18 H 0.779966 0.278758 0.360023
C31 C 0.7915(3) 0.3289(3) 0.29405(15)
H19 H 0.825009 0.380927 0.302562
H20 H 0.751314 0.341666 0.265417
C32 C 0.8508(3) 0.2564(3) 0.28299(16)
H21 H 0.894150 0.247132 0.310719
H22 H 0.818226 0.203080 0.277183
C33 C 0.8938(3) 0.2753(3) 0.24023(16)
H23 H 0.932137 0.228256 0.235380
H24 H 0.851487 0.280863 0.211696
C34 C 0.9771(3) 0.3894(3) 0.21255(14)
C35 C 0.9918(3) 0.3432(3) 0.17250(15)
H25 H 0.973180 0.286053 0.168278
C36 C 1.0340(3) 0.3820(3) 0.13883(14)
H26 H 1.044076 0.349672 0.112538
C37 C 1.0618(3) 0.4681(3) 0.14316(14)
C38 C 1.0448(3) 0.5137(3) 0.18298(14)
H27 H 1.061951 0.571439 0.186628
C39 C 1.0027(2) 0.4761(3) 0.21775(14)
C40 C 0.8720(3) 0.7422(3) 0.51469(15)
C41 C 0.8261(3) 0.8169(3) 0.51949(15)
H28 H 0.798099 0.843969 0.492099
C42 C 0.8202(3) 0.8533(3) 0.56406(15)
C43 C 0.8663(3) 0.8109(4) 0.60397(16)
H29 H 0.867635 0.835382 0.634093
C44 C 0.9096(4) 0.7342(4) 0.59995(16)
H30 H 0.938019 0.707402 0.627338
C45 C 0.9114(3) 0.6967(4) 0.55576(17)
C46 C 0.9968(5) 0.5666(4) 0.58319(19)
H31 H 0.987979 0.504902 0.577241
H32 H 0.982010 0.579751 0.614356
C47 C 1.0875(4) 0.5891(5) 0.58239(19)
H33 H 1.122966 0.559850 0.608643
H34 H 1.095080 0.651232 0.587183
C48 C 1.1172(4) 0.5634(4) 0.53517(19)
H35 H 1.117503 0.500579 0.532684
H36 H 1.076660 0.585617 0.508679
C49 C 1.2054(3) 0.5978(3) 0.53102(17)
H37 H 1.209394 0.659085 0.539027
H38 H 1.248484 0.566673 0.552652
C50 C 1.2710(3) 0.6398(3) 0.46303(17)
C51 C 1.3562(4) 0.6516(4) 0.4822(2)
H39 H 1.378389 0.625875 0.511200
C52 C 1.4085(3) 0.7019(4) 0.4580(2)
H40 H 1.465442 0.708908 0.471300
C53 C 1.3786(3) 0.7416(3) 0.4151(2)
C54 C 1.2924(3) 0.7297(3) 0.39671(17)
H41 H 1.270368 0.755803 0.367776
C55 C 1.2389(3) 0.6805(3) 0.42003(16)
C56 C 0.4274(3) 0.5541(4) 0.2370(2)
C57 C 0.3473(9) 0.5439(11) 0.2534(6)
H42 H 0.303186 0.570674 0.231088
H43 H 0.349932 0.571025 0.284148
H44 H 0.335105 0.483157 0.256055
C58 C 0.4476(7) 0.6423(8) 0.2221(5)
H45 H 0.500917 0.641529 0.210171
H46 H 0.451694 0.680942 0.248965
H47 H 0.403329 0.662045 0.197347
C59 C 0.4197(6) 0.4983(8) 0.1841(4)
H48 H 0.378530 0.526100 0.160434
H49 H 0.402044 0.439643 0.188737
H50 H 0.474174 0.497825 0.173484
C60 C 1.1103(3) 0.5071(3) 0.10569(14)
C61 C 1.0568(3) 0.4998(3) 0.05579(15)
H51 H 1.006119 0.534227 0.054552
H52 H 1.041404 0.440164 0.049313
H53 H 1.089427 0.520464 0.032286
C62 C 1.1943(3) 0.4560(3) 0.10617(17)
H54 H 1.225328 0.480123 0.082820
H55 H 1.181476 0.396112 0.098695
H56 H 1.228174 0.460018 0.137313
C63 C 1.1315(3) 0.6026(3) 0.11487(16)
H57 H 1.079973 0.634424 0.116316
H58 H 1.158516 0.625123 0.089422
H59 H 1.169304 0.608566 0.144666
C64 C 0.7673(3) 0.9341(3) 0.57019(15)
C65 C 0.7125(4) 0.9625(4) 0.52349(19)
H60 H 0.748532 0.974728 0.500095
H61 H 0.681080 1.013774 0.529023
H62 H 0.673487 0.916756 0.511993
C66 C 0.7073(3) 0.9150(4) 0.60689(18)
H63 H 0.670730 0.964023 0.608914
H64 H 0.740633 0.904234 0.637668
H65 H 0.673309 0.864705 0.596897
C67 C 0.8265(4) 1.0102(4) 0.58863(19)
H66 H 0.859441 1.026813 0.564427
H67 H 0.864183 0.992390 0.616879
H68 H 0.792934 1.058639 0.596061
C68 C 1.4389(3) 0.7946(4) 0.3887(2)
C69 C 1.3937(5) 0.8375(6) 0.3434(3)
H69 H 1.368259 0.793703 0.321602
H70 H 1.434185 0.870221 0.328802
H71 H 1.350241 0.875769 0.351250
C70 C 1.5101(6) 0.7360(8) 0.3767(5)
H72 H 1.544487 0.716698 0.405767
H73 H 1.544962 0.767976 0.357980
H74 H 1.485796 0.686651 0.358854
C71 C 1.4762(5) 0.8696(6) 0.4214(4)
H75 H 1.430601 0.904073 0.430077
H76 H 1.511610 0.905265 0.404845
H77 H 1.509653 0.846333 0.449811
C72? C 0.3424(10) 0.5064(12) 0.2355(8)
H78? H 0.296720 0.543163 0.220982
H79? H 0.334255 0.491993 0.267416
H80? H 0.343003 0.454093 0.217039
C73? C 0.4508(9) 0.5885(11) 0.1954(4)
H81? H 0.460560 0.542026 0.174332
H82? H 0.502073 0.622006 0.203437
H83? H 0.405973 0.625201 0.179861
C74? C 0.4026(7) 0.6435(8) 0.2697(4)
H84? H 0.449016 0.684067 0.273138
H85? H 0.392874 0.624796 0.300723
H86? H 0.352041 0.670967 0.253257
loop_
_geom_bond_atom_site_label_1
_geom_bond_atom_site_label_2
_geom_bond_site_symmetry_1
_geom_bond_site_symmetry_2
Cl1 C1 1_555 1_555
Cl2 C1 1_555 1_555
Cl3 C1 1_555 1_555
C1 H1 1_555 1_555
Cl4 C2 1_555 1_555
Cl5 C2 1_555 1_555
Cl6 C2 1_555 1_555
C2 H2 1_555 1_555
Cl7 C3 1_555 1_555
Cl8 C3 1_555 1_555
Cl9 C3 1_555 1_555
C3 H3 1_555 1_555
N1 H4 1_555 1_555
N2 C9 1_555 1_555
N3 H5 1_555 1_555
N4 C19 1_555 1_555
O1 C25 1_555 1_555
O2 C33 1_555 1_555
O3 C45 1_555 1_555
O4 C49 1_555 1_555
C4 N1 1_555 1_555
C5 C4 1_555 1_555
H6 C5 1_555 1_555
C6 C5 1_555 1_555
H7 C6 1_555 1_555
C7 N1 1_555 1_555
C8 C7 1_555 1_555
C9 C8 1_555 1_555
C10 C9 1_555 1_555
H8 C10 1_555 1_555
C11 C10 1_555 1_555
H9 C11 1_555 1_555
C12 N2 1_555 1_555
C13 C12 1_555 1_555
C14 N3 1_555 1_555
C15 C14 1_555 1_555
H10 C15 1_555 1_555
C16 C15 1_555 1_555
H11 C16 1_555 1_555
C17 N3 1_555 1_555
C18 C17 1_555 1_555
C19 C18 1_555 1_555
C20 C19 1_555 1_555
H12 C20 1_555 1_555
C21 C20 1_555 1_555
H13 C21 1_555 1_555
C22 N4 1_555 1_555
C23 C4 1_555 1_555
C24 C23 1_555 1_555
C25 C24 1_555 1_555
C26 C25 1_555 1_555
H14 C26 1_555 1_555
C27 C26 1_555 1_555
H15 C27 1_555 1_555
C28 C27 1_555 1_555
C29 C24 1_555 1_555
H16 C29 1_555 1_555
C30 O1 1_555 1_555
H17 C30 1_555 1_555
H18 C30 1_555 1_555
C31 C30 1_555 1_555
H19 C31 1_555 1_555
H20 C31 1_555 1_555
C32 C31 1_555 1_555
H21 C32 1_555 1_555
H22 C32 1_555 1_555
C33 C32 1_555 1_555
H23 C33 1_555 1_555
H24 C33 1_555 1_555
C34 O2 1_555 1_555
C35 C34 1_555 1_555
H25 C35 1_555 1_555
C36 C35 1_555 1_555
H26 C36 1_555 1_555
C37 C36 1_555 1_555
C38 C37 1_555 1_555
H27 C38 1_555 1_555
C39 C18 1_555 1_555
C40 C8 1_555 1_555
C41 C40 1_555 1_555
H28 C41 1_555 1_555
C42 C41 1_555 1_555
C43 C42 1_555 1_555
H29 C43 1_555 1_555
C44 C43 1_555 1_555
H30 C44 1_555 1_555
C45 C40 1_555 1_555
C46 O3 1_555 1_555
H31 C46 1_555 1_555
H32 C46 1_555 1_555
C47 C46 1_555 1_555
H33 C47 1_555 1_555
H34 C47 1_555 1_555
C48 C47 1_555 1_555
H35 C48 1_555 1_555
H36 C48 1_555 1_555
C49 C48 1_555 1_555
H37 C49 1_555 1_555
H38 C49 1_555 1_555
C50 O4 1_555 1_555
C51 C50 1_555 1_555
H39 C51 1_555 1_555
C52 C51 1_555 1_555
H40 C52 1_555 1_555
C53 C52 1_555 1_555
C54 C53 1_555 1_555
H41 C54 1_555 1_555
C55 C13 1_555 1_555
C56 C28 1_555 1_555
C57 C56 1_555 1_555
H42 C57 1_555 1_555
H43 C57 1_555 1_555
H44 C57 1_555 1_555
C58 C56 1_555 1_555
H45 C58 1_555 1_555
H46 C58 1_555 1_555
H47 C58 1_555 1_555
C59 C56 1_555 1_555
H48 C59 1_555 1_555
H49 C59 1_555 1_555
H50 C59 1_555 1_555
C60 C37 1_555 1_555
C61 C60 1_555 1_555
H51 C61 1_555 1_555
H52 C61 1_555 1_555
H53 C61 1_555 1_555
C62 C60 1_555 1_555
H54 C62 1_555 1_555
H55 C62 1_555 1_555
H56 C62 1_555 1_555
C63 C60 1_555 1_555
H57 C63 1_555 1_555
H58 C63 1_555 1_555
H59 C63 1_555 1_555
C64 C42 1_555 1_555
C65 C64 1_555 1_555
H60 C65 1_555 1_555
H61 C65 1_555 1_555
H62 C65 1_555 1_555
C66 C64 1_555 1_555
H63 C66 1_555 1_555
H64 C66 1_555 1_555
H65 C66 1_555 1_555
C67 C64 1_555 1_555
H66 C67 1_555 1_555
H67 C67 1_555 1_555
H68 C67 1_555 1_555
C68 C53 1_555 1_555
C69 C68 1_555 1_555
H69 C69 1_555 1_555
H70 C69 1_555 1_555
H71 C69 1_555 1_555
C70 C68 1_555 1_555
H72 C70 1_555 1_555
H73 C70 1_555 1_555
H74 C70 1_555 1_555
C71 C68 1_555 1_555
H75 C71 1_555 1_555
H76 C71 1_555 1_555
H77 C71 1_555 1_555
C6 C7 1_555 1_555
C11 C12 1_555 1_555
C13 C14 1_555 1_555
C16 C17 1_555 1_555
C21 C22 1_555 1_555
C22 C23 1_555 1_555
C28 C29 1_555 1_555
C34 C39 1_555 1_555
C38 C39 1_555 1_555
C44 C45 1_555 1_555
C50 C55 1_555 1_555
C54 C55 1_555 1_555

#END
