
#######################################################################
#
#                 Cambridge Crystallographic Data Centre
#                                CCDC 
#
#######################################################################
#
# If this CIF has been generated from an entry in the Cambridge 
# Structural Database, then it will include bibliographic, chemical, 
# crystal, experimental, refinement or atomic coordinate data resulting 
# from the CCDC's data processing and validation procedures.
#
#######################################################################

data_AGAKOL
_chemical_name_common            
"5,15:10,20-bis(2,2'-[butane-1,4-diylbis(oxy)]bis(5-t-butylphenylene))porphyrin nitrobenzene unknown solvate"
_chemical_formula_moiety         'C68 H74 N4 O4,C6 H5 N1 O2'
_chemical_name_systematic        
'9,22,33,46-tetra-t-butyl-13,18,37,42-tetraoxa-53,58,59,60-tetraazaundecacyclo[23.23.4.4^6,30^.1^2,5^.1^26,29^.1^49,52^.1^54,57^.0^7,12^.0^19,24^.0^31,36^.0^43,48^]hexaconta-1(49),2,4,6(57),7,9,11,19,21,23,25,27,29,31,33,35,43,45,47,50,52,54(60),55-tricosaene nitrobenzene unknown solvate'
_symmetry_cell_setting           triclinic
_symmetry_space_group_name_H-M   'P -1'
_symmetry_Int_Tables_number      2
_space_group_name_Hall           '-P 1'
loop_
_symmetry_equiv_pos_site_id
_symmetry_equiv_pos_as_xyz
1 x,y,z
2 -x,-y,-z
_cell_length_a                   14.0320(14)
_cell_length_b                   16.4690(18)
_cell_length_c                   16.5250(18)
_cell_angle_alpha                114.288(13)
_cell_angle_beta                 91.261(2)
_cell_angle_gamma                94.928(15)
_cell_volume                     3461.02
_exptl_crystal_colour            purple
_exptl_crystal_description       prism
_cell_formula_units_Z            2
_chemical_properties_physical    Photo-sensitive
_exptl_crystal_recrystallization_method chloroform/methanol
_exptl_crystal_preparation       Luminescent
loop_
_atom_site_label
_atom_site_type_symbol
_atom_site_fract_x
_atom_site_fract_y
_atom_site_fract_z
O1 O 0.85472(8) 0.00674(8) 0.31891(7)
O2 O 0.85071(9) 0.09734(9) 0.71806(8)
O3 O 0.90854(9) 0.55792(9) 0.62122(8)
O4 O 1.29186(8) 0.39385(8) 0.59037(8)
N1 N 1.02323(9) 0.21030(9) 0.44812(9)
H1 H 0.9973 0.2360 0.4994
N2 N 0.86362(10) 0.29534(10) 0.50251(9)
N3 N 0.90497(10) 0.31328(10) 0.67550(10)
H2 H 0.9306 0.2888 0.6239
N4 N 1.07198(10) 0.24077(9) 0.62365(9)
C1 C 1.11784(11) 0.19900(11) 0.43700(11)
C2 C 1.13098(11) 0.15499(11) 0.34274(10)
H3 H 1.1902 0.1417 0.3159
C3 C 1.04259(12) 0.13621(11) 0.29983(10)
H4 H 1.0279 0.1036 0.2377
C4 C 0.97554(11) 0.17507(11) 0.36643(10)
C5 C 0.88050(11) 0.18809(11) 0.35018(10)
C6 C 0.83371(11) 0.25606(11) 0.41403(11)
C7 C 0.75474(12) 0.30085(12) 0.40062(11)
H5 H 0.7182 0.2856 0.3464
C8 C 0.74250(12) 0.36906(12) 0.48033(11)
H6 H 0.6985 0.4126 0.4913
C9 C 0.80890(12) 0.36301(11) 0.54515(11)
C10 C 0.80719(12) 0.40957(12) 0.63797(11)
C11 C 0.84421(12) 0.37846(12) 0.69823(11)
C12 C 0.81963(13) 0.40054(13) 0.78837(11)
H7 H 0.7813 0.4461 0.8222
C13 C 0.86139(13) 0.34415(13) 0.81623(12)
H8 H 0.8537 0.3398 0.8713
C14 C 0.91932(12) 0.29249(12) 0.74651(11)
C15 C 0.99277(12) 0.24222(11) 0.75432(10)
C16 C 1.07177(12) 0.22906(11) 0.70104(11)
C17 C 1.16575(12) 0.20991(12) 0.72021(11)
H9 H 1.1846 0.1958 0.7681
C18 C 1.22232(12) 0.21579(12) 0.65660(11)
H10 H 1.2893 0.2108 0.6542
C19 C 1.16177(11) 0.23102(11) 0.59325(10)
C20 C 1.18631(11) 0.22050(11) 0.50811(10)
C21 C 0.81250(12) 0.03292(12) 0.25766(10)
C22 C 0.82713(11) 0.12182(11) 0.26728(10)
C23 C 0.78532(11) 0.14421(12) 0.20242(11)
H11 H 0.7972 0.2038 0.2074
C24 C 0.72688(11) 0.08176(12) 0.13081(10)
C25 C 0.71228(12) -0.00597(12) 0.12414(11)
H12 H 0.6721 -0.0496 0.0763
C26 C 0.75547(12) -0.03051(12) 0.18628(11)
H13 H 0.7459 -0.0907 0.1798
C27 C 0.67369(12) 0.10776(13) 0.06404(11)
C28 C 0.68299(14) 0.03849(15) -0.03127(12)
H14 H 0.7510 0.0343 -0.0430
H15 H 0.6513 0.0570 -0.0734
H16 H 0.6527 -0.0201 -0.0382
C29 C 0.71151(15) 0.20002(15) 0.06997(14)
H17 H 0.7802 0.2013 0.0604
H18 H 0.7012 0.2458 0.1290
H19 H 0.6774 0.2121 0.0244
C30 C 0.56710(13) 0.10796(15) 0.08442(12)
H20 H 0.5305 0.1205 0.0404
H21 H 0.5602 0.1542 0.1441
H22 H 0.5428 0.0493 0.0817
C31 C 0.80527(12) 0.02919(12) 0.40015(11)
H23 H 0.7467 -0.0128 0.3892
H24 H 0.7861 0.0907 0.4207
C32 C 0.87183(12) 0.02306(12) 0.47066(10)
H25 H 0.9348 0.0565 0.4735
H26 H 0.8820 -0.0404 0.4544
C33 C 0.82955(13) 0.06170(13) 0.56197(11)
H27 H 0.8217 0.1257 0.5790
H28 H 0.7653 0.0298 0.5582
C34 C 0.89248(13) 0.05314(12) 0.63298(11)
H29 H 0.8962 -0.0108 0.6196
H30 H 0.9581 0.0816 0.6350
C35 C 0.91195(13) 0.12514(12) 0.79351(11)
C36 C 0.98203(12) 0.19840(12) 0.81725(11)
C37 C 1.03808(13) 0.22625(13) 0.89697(11)
H31 H 1.0863 0.2752 0.9123
C38 C 1.02516(13) 0.18393(13) 0.95491(11)
C39 C 0.95423(15) 0.11118(13) 0.92922(12)
H32 H 0.9439 0.0812 0.9671
C40 C 0.89896(15) 0.08185(13) 0.85028(12)
H33 H 0.8518 0.0320 0.8345
C41 C 1.08324(14) 0.21712(15) 1.04482(12)
C42 C 1.1321(3) 0.1389(2) 1.04975(17)
H34 H 1.1667 0.1590 1.1079
H35 H 1.1772 0.1185 1.0028
H36 H 1.0833 0.0894 1.0417
C43 C 1.1563(3) 0.2964(3) 1.0600(2)
H37 H 1.1242 0.3436 1.0524
H38 H 1.2056 0.2772 1.0168
H39 H 1.1862 0.3195 1.1204
C44 C 1.01570(17) 0.24663(18) 1.11963(14)
H40 H 0.9850 0.2980 1.1201
H41 H 1.0519 0.2637 1.1766
H42 H 0.9665 0.1972 1.1106
C45 C 0.82255(12) 0.56879(12) 0.66230(11)
C46 C 0.76742(12) 0.49798(11) 0.67090(10)
C47 C 0.67749(12) 0.51172(12) 0.70614(11)
H43 H 0.6414 0.4639 0.7134
C48 C 0.63909(12) 0.59313(12) 0.73094(11)
C49 C 0.69481(13) 0.66233(13) 0.71992(11)
H44 H 0.6703 0.7185 0.7357
C50 C 0.78486(13) 0.65060(13) 0.68650(12)
H45 H 0.8212 0.6987 0.6800
C51 C 0.54059(14) 0.60885(14) 0.77008(12)
C52 C 0.48804(15) 0.52461(16) 0.77227(15)
H46 H 0.5270 0.5034 0.8081
H47 H 0.4771 0.4779 0.7115
H48 H 0.4263 0.5386 0.7986
C53 C 0.47669(16) 0.64043(17) 0.71374(15)
H49 H 0.4157 0.6549 0.7415
H50 H 0.4644 0.5926 0.6537
H51 H 0.5094 0.6938 0.7103
C54 C 0.55454(16) 0.68141(15) 0.86596(13)
H52 H 0.5953 0.6615 0.9016
H53 H 0.4921 0.6919 0.8917
H54 H 0.5851 0.7371 0.8657
C55 C 0.99209(12) 0.54462(13) 0.66594(12)
H55 H 0.9727 0.5088 0.6996
H56 H 1.0245 0.6031 0.7082
C56 C 1.05897(12) 0.49594(12) 0.59561(12)
H57 H 1.0781 0.5335 0.5637
H58 H 1.0236 0.4397 0.5519
C57 C 1.14980(12) 0.47293(12) 0.63142(11)
H59 H 1.1867 0.5287 0.6743
H60 H 1.1317 0.4350 0.6633
C58 C 1.21200(12) 0.42355(12) 0.55596(11)
H61 H 1.1734 0.3712 0.5097
H62 H 1.2365 0.4638 0.5284
C59 C 1.33528(11) 0.32317(11) 0.53050(10)
C60 C 1.28896(11) 0.23521(11) 0.49274(10)
C61 C 1.33903(11) 0.16512(11) 0.43858(10)
H63 H 1.3072 0.1061 0.4136
C62 C 1.43458(11) 0.17845(12) 0.41951(10)
C63 C 1.47822(12) 0.26700(12) 0.45730(11)
H64 H 1.5426 0.2789 0.4454
C64 C 1.42980(12) 0.33726(12) 0.51143(11)
H65 H 1.4617 0.3963 0.5361
C65 C 1.48377(12) 0.09782(12) 0.35944(11)
C66 C 1.42443(14) 0.04927(14) 0.26969(12)
H66 H 1.4149 0.0919 0.2436
H67 H 1.3620 0.0244 0.2795
H68 H 1.4587 0.0007 0.2291
C67 C 1.49060(14) 0.03273(14) 0.40436(14)
H69 H 1.5227 -0.0188 0.3660
H70 H 1.4260 0.0121 0.4140
H71 H 1.5275 0.0636 0.4617
C68 C 1.58480(13) 0.12517(14) 0.34042(13)
H72 H 1.5817 0.1680 0.3135
H73 H 1.6126 0.0720 0.2994
H74 H 1.6248 0.1530 0.3962
O5 O 0.61646(17) 0.76703(16) 0.11038(15)
O6 O 0.4961(2) 0.82403(18) 0.08081(14)
N5 N 0.53693(19) 0.79025(15) 0.12355(14)
C69 C 0.48575(15) 0.77691(14) 0.19572(13)
C70 C 0.39470(17) 0.80320(15) 0.21052(16)
H77 H 0.3644 0.8266 0.1740
C71 C 0.34887(19) 0.79441(19) 0.2803(2)
H78 H 0.2861 0.8120 0.2923
C72 C 0.3945(3) 0.7600(2) 0.3325(2)
H79 H 0.3630 0.7542 0.3805
C73 C 0.4853(2) 0.7340(2) 0.31514(19)
H80 H 0.5163 0.7106 0.3514
C74 C 0.53102(17) 0.74167(16) 0.24616(16)
H81 H 0.5932 0.7229 0.2334
H75? H 0.920(3) 0.283(3) 0.533(3)
H76? H 1.0227 0.2525 0.5979
loop_
_geom_bond_atom_site_label_1
_geom_bond_atom_site_label_2
_geom_bond_site_symmetry_1
_geom_bond_site_symmetry_2
O1 C21 1_555 1_555
O2 C34 1_555 1_555
O3 C45 1_555 1_555
O4 C58 1_555 1_555
N1 H1 1_555 1_555
N2 C6 1_555 1_555
N3 H2 1_555 1_555
N4 C16 1_555 1_555
C1 N1 1_555 1_555
C2 C1 1_555 1_555
H3 C2 1_555 1_555
C3 C2 1_555 1_555
H4 C3 1_555 1_555
C4 N1 1_555 1_555
C5 C4 1_555 1_555
C6 C5 1_555 1_555
C7 C6 1_555 1_555
H5 C7 1_555 1_555
C8 C7 1_555 1_555
H6 C8 1_555 1_555
C9 N2 1_555 1_555
C10 C9 1_555 1_555
C11 N3 1_555 1_555
C12 C11 1_555 1_555
H7 C12 1_555 1_555
C13 C12 1_555 1_555
H8 C13 1_555 1_555
C14 N3 1_555 1_555
C15 C14 1_555 1_555
C16 C15 1_555 1_555
C17 C16 1_555 1_555
H9 C17 1_555 1_555
C18 C17 1_555 1_555
H10 C18 1_555 1_555
C19 N4 1_555 1_555
C20 C1 1_555 1_555
C21 C22 1_555 1_555
C22 C5 1_555 1_555
C23 C22 1_555 1_555
H11 C23 1_555 1_555
C24 C23 1_555 1_555
C25 C24 1_555 1_555
H12 C25 1_555 1_555
C26 C21 1_555 1_555
H13 C26 1_555 1_555
C27 C24 1_555 1_555
C28 C27 1_555 1_555
H14 C28 1_555 1_555
H15 C28 1_555 1_555
H16 C28 1_555 1_555
C29 C27 1_555 1_555
H17 C29 1_555 1_555
H18 C29 1_555 1_555
H19 C29 1_555 1_555
C30 C27 1_555 1_555
H20 C30 1_555 1_555
H21 C30 1_555 1_555
H22 C30 1_555 1_555
C31 O1 1_555 1_555
H23 C31 1_555 1_555
H24 C31 1_555 1_555
C32 C31 1_555 1_555
H25 C32 1_555 1_555
H26 C32 1_555 1_555
C33 C32 1_555 1_555
H27 C33 1_555 1_555
H28 C33 1_555 1_555
C34 C33 1_555 1_555
H29 C34 1_555 1_555
H30 C34 1_555 1_555
C35 O2 1_555 1_555
C36 C15 1_555 1_555
C37 C36 1_555 1_555
H31 C37 1_555 1_555
C38 C37 1_555 1_555
C39 C38 1_555 1_555
H32 C39 1_555 1_555
C40 C35 1_555 1_555
H33 C40 1_555 1_555
C41 C38 1_555 1_555
C42 C41 1_555 1_555
H34 C42 1_555 1_555
H35 C42 1_555 1_555
H36 C42 1_555 1_555
C43 C41 1_555 1_555
H37 C43 1_555 1_555
H38 C43 1_555 1_555
H39 C43 1_555 1_555
C44 C41 1_555 1_555
H40 C44 1_555 1_555
H41 C44 1_555 1_555
H42 C44 1_555 1_555
C45 C46 1_555 1_555
C46 C10 1_555 1_555
C47 C46 1_555 1_555
H43 C47 1_555 1_555
C48 C47 1_555 1_555
C49 C48 1_555 1_555
H44 C49 1_555 1_555
C50 C45 1_555 1_555
H45 C50 1_555 1_555
C51 C48 1_555 1_555
C52 C51 1_555 1_555
H46 C52 1_555 1_555
H47 C52 1_555 1_555
H48 C52 1_555 1_555
C53 C51 1_555 1_555
H49 C53 1_555 1_555
H50 C53 1_555 1_555
H51 C53 1_555 1_555
C54 C51 1_555 1_555
H52 C54 1_555 1_555
H53 C54 1_555 1_555
H54 C54 1_555 1_555
C55 O3 1_555 1_555
H55 C55 1_555 1_555
H56 C55 1_555 1_555
C56 C55 1_555 1_555
H57 C56 1_555 1_555
H58 C56 1_555 1_555
C57 C56 1_555 1_555
H59 C57 1_555 1_555
H60 C57 1_555 1_555
C58 C57 1_555 1_555
H61 C58 1_555 1_555
H62 C58 1_555 1_555
C59 O4 1_555 1_555
C60 C20 1_555 1_555
C61 C60 1_555 1_555
H63 C61 1_555 1_555
C62 C61 1_555 1_555
C63 C62 1_555 1_555
H64 C63 1_555 1_555
C64 C59 1_555 1_555
H65 C64 1_555 1_555
C65 C62 1_555 1_555
C66 C65 1_555 1_555
H66 C66 1_555 1_555
H67 C66 1_555 1_555
H68 C66 1_555 1_555
C67 C65 1_555 1_555
H69 C67 1_555 1_555
H70 C67 1_555 1_555
H71 C67 1_555 1_555
C68 C65 1_555 1_555
H72 C68 1_555 1_555
H73 C68 1_555 1_555
H74 C68 1_555 1_555
O5 N5 1_555 1_555
O6 N5 1_555 1_555
N5 C69 1_555 1_555
C69 C70 1_555 1_555
C70 H77 1_555 1_555
C71 C70 1_555 1_555
H78 C71 1_555 1_555
C72 C71 1_555 1_555
H79 C72 1_555 1_555
C73 C72 1_555 1_555
H80 C73 1_555 1_555
C74 C69 1_555 1_555
H81 C74 1_555 1_555
C3 C4 1_555 1_555
C8 C9 1_555 1_555
C10 C11 1_555 1_555
C13 C14 1_555 1_555
C18 C19 1_555 1_555
C19 C20 1_555 1_555
C25 C26 1_555 1_555
C35 C36 1_555 1_555
C39 C40 1_555 1_555
C49 C50 1_555 1_555
C59 C60 1_555 1_555
C63 C64 1_555 1_555
C73 C74 1_555 1_555

#END
