
#######################################################################
#
#                 Cambridge Crystallographic Data Centre
#                                CCDC 
#
#######################################################################
#
# If this CIF has been generated from an entry in the Cambridge 
# Structural Database, then it will include bibliographic, chemical, 
# crystal, experimental, refinement or atomic coordinate data resulting 
# from the CCDC's data processing and validation procedures.
#
#######################################################################

data_AGAKOK
_chemical_formula_moiety         'C14 H23 N2 O6 P1 S1'
_chemical_name_systematic        
'Ethyl (1-((t-butylsulfonyl)amino)-1-(4-nitrophenyl)ethyl)phosphinate'
_symmetry_cell_setting           orthorhombic
_symmetry_space_group_name_H-M   'P 21 21 21'
_symmetry_Int_Tables_number      19
_space_group_name_Hall           'P 2ac 2ab'
loop_
_symmetry_equiv_pos_site_id
_symmetry_equiv_pos_as_xyz
1 x,y,z
2 1/2+x,1/2-y,-z
3 -x,1/2+y,1/2-z
4 1/2-x,-y,1/2+z
_cell_length_a                   8.973(4)
_cell_length_b                   12.797(5)
_cell_length_c                   15.681(7)
_cell_angle_alpha                90
_cell_angle_beta                 90
_cell_angle_gamma                90
_cell_volume                     1800.61
_exptl_crystal_colour            colorless
_exptl_crystal_description       prism
_cell_formula_units_Z            4
loop_
_atom_site_label
_atom_site_type_symbol
_atom_site_fract_x
_atom_site_fract_y
_atom_site_fract_z
P1 P 0.62771(15) 0.19211(10) 0.55043(10)
H1 H 0.693(5) 0.214(4) 0.489(3)
S1 S 0.96589(15) 0.33055(9) 0.70084(10)
N1 N 0.8536(4) 0.2733(3) 0.6338(3)
H2 H 0.8945 0.2356 0.5931
N2 N 0.4581(5) 0.6838(3) 0.5437(3)
O1 O 0.4675(4) 0.2017(3) 0.5329(2)
O2 O 0.6801(4) 0.0824(3) 0.5809(3)
O3 O 0.8803(4) 0.3855(3) 0.7624(3)
O4 O 1.0731(4) 0.3873(3) 0.6505(2)
O5 O 0.5433(5) 0.7460(3) 0.5111(3)
O6 O 0.3299(4) 0.7031(3) 0.5580(3)
C1 C 0.6238(6) 0.2377(4) 0.7196(3)
H3 H 0.6651 0.1682 0.7314
H4 H 0.5151 0.2328 0.7150
H5 H 0.6501 0.2854 0.7661
C2 C 0.6883(6) 0.2792(4) 0.6354(4)
C3 C 0.6302(6) 0.3883(4) 0.6132(3)
C4 C 0.7160(6) 0.4610(4) 0.5701(4)
H6 H 0.8158 0.4432 0.5561
C5 C 0.6643(6) 0.5563(4) 0.5470(4)
H7 H 0.7269 0.6054 0.5190
C6 C 0.5164(6) 0.5799(4) 0.5656(4)
C7 C 0.4255(6) 0.5100(4) 0.6070(4)
H8 H 0.3250 0.5275 0.6195
C8 C 0.4817(6) 0.4155(4) 0.6297(4)
H9 H 0.4187 0.3666 0.6576
C9 C 0.6010(6) -0.0132(4) 0.5573(4)
H10 H 0.6712 -0.0729 0.5564
H11 H 0.5576 -0.0056 0.4995
C10 C 0.4794(7) -0.0334(5) 0.6209(5)
H12 H 0.5221 -0.0360 0.6783
H13 H 0.4312 -0.1002 0.6079
H14 H 0.4056 0.0230 0.6179
C11 C 1.0685(6) 0.2276(4) 0.7539(4)
C12 C 0.9634(6) 0.1581(4) 0.8035(4)
H15 H 0.8985 0.1204 0.7637
H16 H 0.9025 0.2010 0.8417
H17 H 1.0212 0.1078 0.8371
C13 C 1.1535(6) 0.1643(4) 0.6877(4)
H18 H 1.2276 0.2091 0.6598
H19 H 1.0837 0.1374 0.6450
H20 H 1.2041 0.1057 0.7157
C14 C 1.1739(6) 0.2853(5) 0.8145(5)
H21 H 1.2297 0.2345 0.8485
H22 H 1.1157 0.3305 0.8524
H23 H 1.2435 0.3280 0.7813
loop_
_geom_bond_atom_site_label_1
_geom_bond_atom_site_label_2
_geom_bond_site_symmetry_1
_geom_bond_site_symmetry_2
P1 H1 1_555 1_555
S1 N1 1_555 1_555
N1 H2 1_555 1_555
N2 O5 1_555 1_555
O1 P1 1_555 1_555
O2 P1 1_555 1_555
O3 S1 1_555 1_555
O4 S1 1_555 1_555
O6 N2 1_555 1_555
C1 H3 1_555 1_555
H4 C1 1_555 1_555
H5 C1 1_555 1_555
C2 P1 1_555 1_555
C3 C2 1_555 1_555
C4 C3 1_555 1_555
H6 C4 1_555 1_555
C5 C4 1_555 1_555
H7 C5 1_555 1_555
C6 N2 1_555 1_555
C7 C6 1_555 1_555
H8 C7 1_555 1_555
C8 C3 1_555 1_555
H9 C8 1_555 1_555
C9 O2 1_555 1_555
H10 C9 1_555 1_555
H11 C9 1_555 1_555
C10 C9 1_555 1_555
H12 C10 1_555 1_555
H13 C10 1_555 1_555
H14 C10 1_555 1_555
C11 S1 1_555 1_555
C12 C11 1_555 1_555
H15 C12 1_555 1_555
H16 C12 1_555 1_555
H17 C12 1_555 1_555
C13 C11 1_555 1_555
H18 C13 1_555 1_555
H19 C13 1_555 1_555
H20 C13 1_555 1_555
C14 C11 1_555 1_555
H21 C14 1_555 1_555
H22 C14 1_555 1_555
H23 C14 1_555 1_555
N1 C2 1_555 1_555
C1 C2 1_555 1_555
C5 C6 1_555 1_555
C7 C8 1_555 1_555

#END
