
#######################################################################
#
#                 Cambridge Crystallographic Data Centre
#                                CCDC 
#
#######################################################################
#
# If this CIF has been generated from an entry in the Cambridge 
# Structural Database, then it will include bibliographic, chemical, 
# crystal, experimental, refinement or atomic coordinate data resulting 
# from the CCDC's data processing and validation procedures.
#
#######################################################################

data_AGAKEB
_chemical_name_common            
"5,15:10,20-bis(2,2'-[pentane-1,5-diylbis(oxy)]bis(5-t-butylphenylene))porphyrin unknown solvate"
_chemical_formula_moiety         'C70 H78 N4 O4'
_chemical_name_systematic        
'9,23,34,48-tetra-t-butyl-13,19,38,44-tetraoxa-55,60,61,62-tetraazaundecacyclo[24.24.4.4^6,31^.1^2,5^.1^27,30^.1^51,54^.1^56,59^.0^7,12^.0^20,25^.0^32,37^.0^45,50^]dohexaconta-1(51),2,4,6(59),7,9,11,20,22,24,26,28,30,32,34,36,45,47,49,52,54,56(62),57-tricosaene unknown solvate'
_symmetry_cell_setting           triclinic
_symmetry_space_group_name_H-M   'P -1'
_symmetry_Int_Tables_number      2
_space_group_name_Hall           '-P 1'
loop_
_symmetry_equiv_pos_site_id
_symmetry_equiv_pos_as_xyz
1 x,y,z
2 -x,-y,-z
_cell_length_a                   14.492(3)
_cell_length_b                   17.096(3)
_cell_length_c                   17.259(4)
_cell_angle_alpha                63.01(3)
_cell_angle_beta                 80.01(3)
_cell_angle_gamma                72.54(3)
_cell_volume                     3631.23
_exptl_crystal_colour            purple
_exptl_crystal_description       Prism
_cell_formula_units_Z            2
_chemical_properties_physical    Photo-sensitive
_exptl_crystal_recrystallization_method chloroform/methanol
_exptl_crystal_preparation       Luminescent
loop_
_atom_site_label
_atom_site_type_symbol
_atom_site_fract_x
_atom_site_fract_y
_atom_site_fract_z
O1 O 0.8436(3) 0.0707(4) 0.0077(3)
O2 O 0.4276(4) -0.0325(4) 0.1648(4)
O3 O 0.2321(4) 0.4923(4) -0.1558(3)
O4 O 0.4575(5) 0.4003(5) 0.1870(4)
N1 N 0.6111(4) 0.2374(4) 0.0712(4)
N2 N 0.4433(4) 0.1895(4) 0.1546(4)
H1 H 0.4621 0.2118 0.0992
N3 N 0.3715(4) 0.2375(4) 0.0004(4)
N4 N 0.5384(4) 0.2875(4) -0.0908(4)
H2 H 0.5158 0.2656 -0.0365
C1 C 0.6972(7) 0.2426(5) 0.0226(6)
C2 C 0.7697(6) 0.2453(5) 0.0725(5)
H3 H 0.8356 0.2457 0.0555
C3 C 0.7251(5) 0.2471(6) 0.1431(5)
H4 H 0.7514 0.2523 0.1867
C4 C 0.6248(6) 0.2395(5) 0.1448(5)
C5 C 0.5585(5) 0.2294(6) 0.2140(5)
C6 C 0.4793(7) 0.1955(6) 0.2243(5)
C7 C 0.4214(6) 0.1534(6) 0.3032(5)
H5 H 0.4225 0.1521 0.3587
C8 C 0.3661(5) 0.1167(6) 0.2803(5)
H6 H 0.3269 0.0784 0.3200
C9 C 0.3741(5) 0.1419(5) 0.1924(4)
C10 C 0.3173(5) 0.1296(5) 0.1445(5)
C11 C 0.3145(5) 0.1839(5) 0.0491(5)
C12 C 0.2334(6) 0.2022(6) -0.0007(5)
H7 H 0.1831 0.1716 0.0193
C13 C 0.2409(5) 0.2672(6) -0.0768(6)
H8 H 0.1962 0.2961 -0.1218
C14 C 0.3335(5) 0.2869(5) -0.0787(6)
C15 C 0.3818(5) 0.3417(5) -0.1539(4)
C16 C 0.4845(5) 0.3326(5) -0.1614(5)
C17 C 0.5478(6) 0.3528(5) -0.2388(5)
H9 H 0.5295 0.3791 -0.2973
C18 C 0.6385(6) 0.3264(6) -0.2108(5)
H10 H 0.6941 0.3373 -0.2482
C19 C 0.6404(6) 0.2805(6) -0.1185(6)
C20 C 0.7136(5) 0.2517(5) -0.0627(5)
C21 C 0.8136(5) 0.2360(6) -0.0976(5)
C22 C 0.8516(7) 0.3027(7) -0.1607(5)
H11 H 0.8128 0.3633 -0.1850
C23 C 0.9505(7) 0.2821(8) -0.1906(6)
C24 C 1.0089(7) 0.1979(8) -0.1548(7)
H12 H 1.0760 0.1874 -0.1709
C25 C 0.9692(6) 0.1224(7) -0.0911(5)
H13 H 1.0085 0.0620 -0.0703
C26 C 0.8720(5) 0.1406(6) -0.0610(5)
C27 C 0.9911(7) 0.3572(8) -0.2678(7)
C28 C 0.9357(13) 0.4177(14) -0.3491(10)
H14 H 0.8684 0.4416 -0.3335
H15 H 0.9654 0.4682 -0.3854
H16 H 0.9371 0.3829 -0.3816
C29 C 1.0950(9) 0.3225(12) -0.2972(11)
H17 H 1.1341 0.2825 -0.2460
H18 H 1.0946 0.2887 -0.3302
H19 H 1.1228 0.3741 -0.3341
C30 C 1.0010(13) 0.4222(13) -0.2314(13)
H20 H 1.0367 0.3870 -0.1778
H21 H 1.0360 0.4658 -0.2746
H22 H 0.9364 0.4549 -0.2189
C31 C 0.7622(6) 0.0458(5) -0.0052(5)
H23 H 0.7836 0.0114 -0.0411
H24 H 0.7117 0.1012 -0.0364
C32 C 0.7208(5) -0.0121(6) 0.0826(5)
H25 H 0.7065 0.0202 0.1202
H26 H 0.7702 -0.0696 0.1109
C33 C 0.6261(5) -0.0346(6) 0.0757(5)
H27 H 0.5733 0.0216 0.0543
H28 H 0.6374 -0.0625 0.0346
C34 C 0.5995(6) -0.0982(6) 0.1634(6)
H29 H 0.5981 -0.0731 0.2053
H30 H 0.6496 -0.1565 0.1810
C35 C 0.5005(5) -0.1157(6) 0.1674(6)
H31 H 0.4947 -0.1269 0.1172
H32 H 0.4917 -0.1691 0.2218
C36 C 0.3344(6) -0.0323(7) 0.1917(5)
C37 C 0.2983(6) -0.1099(5) 0.2233(5)
H33 H 0.3376 -0.1663 0.2254
C38 C 0.2005(7) -0.0983(7) 0.2515(5)
H34 H 0.1774 -0.1516 0.2782
C39 C 0.1338(6) -0.0194(6) 0.2452(5)
C40 C 0.1778(6) 0.0588(6) 0.2106(5)
H35 H 0.1379 0.1156 0.2071
C41 C 0.2712(5) 0.0532(6) 0.1840(4)
C42 C 0.0320(7) -0.0084(7) 0.2725(7)
C43 C -0.0328(6) 0.0511(7) 0.1940(6)
H36 H -0.0077 0.0322 0.1469
H37 H -0.0331 0.1148 0.1737
H38 H -0.0990 0.0440 0.2113
C44 C 0.0109(6) 0.0308(8) 0.3369(7)
H39 H -0.0570 0.0650 0.3344
H40 H 0.0527 0.0715 0.3233
H41 H 0.0233 -0.0183 0.3955
C45 C 0.0006(8) -0.0904(11) 0.3154(9)
H42 H 0.0197 -0.1239 0.2794
H43 H -0.0700 -0.0757 0.3243
H44 H 0.0305 -0.1277 0.3718
C46 C 0.3257(5) 0.4064(5) -0.2329(4)
C47 C 0.3471(5) 0.3948(5) -0.3108(4)
H45 H 0.4019 0.3488 -0.3142
C48 C 0.2890(6) 0.4501(6) -0.3835(5)
C49 C 0.2214(7) 0.5268(7) -0.3781(5)
H46 H 0.1886 0.5714 -0.4292
C50 C 0.1993(6) 0.5416(6) -0.3040(6)
H47 H 0.1477 0.5908 -0.3025
C51 C 0.2553(5) 0.4817(5) -0.2305(5)
C52 C 0.3191(5) 0.4410(6) -0.4676(5)
C53 C 0.4112(12) 0.3693(14) -0.4669(12)
H48 H 0.4241 0.3690 -0.5244
H49 H 0.4654 0.3828 -0.4525
H50 H 0.4037 0.3097 -0.4232
C54 C 0.325(2) 0.5290(10) -0.5470(8)
H51 H 0.3453 0.5170 -0.5986
H52 H 0.2619 0.5726 -0.5555
H53 H 0.3730 0.5542 -0.5380
C55 C 0.2385(13) 0.4094(18) -0.4907(13)
H54 H 0.2576 0.4034 -0.5454
H55 H 0.2320 0.3509 -0.4439
H56 H 0.1764 0.4547 -0.4969
C56 C 0.3021(5) 0.5157(6) -0.1219(5)
H57 H 0.2990 0.5812 -0.1544
H58 H 0.3687 0.4811 -0.1291
C57 C 0.2762(5) 0.4921(5) -0.0263(5)
H59 H 0.2173 0.5374 -0.0209
H60 H 0.2615 0.4320 0.0021
C58 C 0.3553(5) 0.4900(6) 0.0194(5)
H61 H 0.4073 0.4339 0.0288
H62 H 0.3829 0.5423 -0.0180
C59 C 0.3228(7) 0.4930(8) 0.1033(6)
H63 H 0.2910 0.4430 0.1383
H64 H 0.2729 0.5506 0.0925
C60 C 0.4008(8) 0.4859(7) 0.1587(6)
H65 H 0.4399 0.5300 0.1232
H66 H 0.3699 0.4991 0.2088
C61 C 0.5111(7) 0.3543(7) 0.2616(6)
C62 C 0.5233(6) 0.3965(6) 0.3090(5)
H67 H 0.4900 0.4580 0.2949
C63 C 0.5863(6) 0.3472(8) 0.3791(5)
H68 H 0.5960 0.3765 0.4114
C64 C 0.6333(6) 0.2583(7) 0.4012(5)
C65 C 0.6276(7) 0.2156(5) 0.3460(5)
H69 H 0.6669 0.1568 0.3550
C66 C 0.5617(6) 0.2651(7) 0.2791(5)
C67 C 0.7032(6) 0.2024(6) 0.4758(5)
C68 C 0.6998(8) 0.2553(7) 0.5287(7)
H70 H 0.7449 0.2186 0.5759
H71 H 0.7184 0.3120 0.4906
H72 H 0.6340 0.2691 0.5532
C69 C 0.6779(9) 0.1101(6) 0.5346(6)
H73 H 0.7227 0.0745 0.5822
H74 H 0.6114 0.1210 0.5587
H75 H 0.6837 0.0765 0.4999
C70 C 0.8085(6) 0.1832(9) 0.4330(7)
H76 H 0.8555 0.1475 0.4788
H77 H 0.8105 0.1494 0.3994
H78 H 0.8247 0.2409 0.3943
C71? C 0.9906(19) 0.351(2) -0.3560(11)
H79? H 0.9258 0.3499 -0.3638
H80? H 1.0080 0.4044 -0.4043
H81? H 1.0377 0.2961 -0.3549
C72? C 1.0964(10) 0.3587(16) -0.2670(13)
H82? H 1.1116 0.4096 -0.3196
H83? H 1.1048 0.3656 -0.2155
H84? H 1.1400 0.3017 -0.2654
C73? C 0.9344(18) 0.4581(13) -0.292(2)
H85? H 0.8652 0.4646 -0.2942
H86? H 0.9438 0.4760 -0.2480
H87? H 0.9585 0.4972 -0.3490
C74? C 0.358(2) 0.3438(10) -0.4583(13)
H88? H 0.3758 0.3446 -0.5160
H89? H 0.4155 0.3141 -0.4230
H90? H 0.3083 0.3104 -0.4298
C75? C 0.4091(16) 0.484(2) -0.5118(14)
H91? H 0.4292 0.4785 -0.5666
H92? H 0.3903 0.5484 -0.5233
H93? H 0.4630 0.4520 -0.4724
C76? C 0.2446(15) 0.4906(19) -0.5368(11)
H94? H 0.2713 0.4803 -0.5885
H95? H 0.1863 0.4679 -0.5144
H96? H 0.2280 0.5557 -0.5521
C77? C 0.768(3) 0.2603(19) 0.474(2)
H97? H 0.8126 0.2244 0.5219
H98? H 0.8052 0.2790 0.4185
H99? H 0.7274 0.3142 0.4811
C78? C 0.6416(16) 0.174(3) 0.5636(7)
H100? H 0.6849 0.1380 0.6123
H101? H 0.6008 0.2283 0.5695
H102? H 0.6005 0.1374 0.5639
C79? C 0.766(3) 0.116(2) 0.465(3)
H103? H 0.8106 0.0797 0.5129
H104? H 0.7234 0.0797 0.4675
H105? H 0.8025 0.1335 0.4096
loop_
_geom_bond_atom_site_label_1
_geom_bond_atom_site_label_2
_geom_bond_site_symmetry_1
_geom_bond_site_symmetry_2
O1 C26 1_555 1_555
O2 C35 1_555 1_555
O3 C51 1_555 1_555
O4 C60 1_555 1_555
N1 C1 1_555 1_555
N2 H1 1_555 1_555
N3 C11 1_555 1_555
N4 H2 1_555 1_555
C1 C2 1_555 1_555
C2 H3 1_555 1_555
C3 C2 1_555 1_555
H4 C3 1_555 1_555
C4 N1 1_555 1_555
C5 C4 1_555 1_555
C6 N2 1_555 1_555
C7 C6 1_555 1_555
H5 C7 1_555 1_555
C8 C7 1_555 1_555
H6 C8 1_555 1_555
C9 N2 1_555 1_555
C10 C9 1_555 1_555
C11 C10 1_555 1_555
C12 C11 1_555 1_555
H7 C12 1_555 1_555
C13 C12 1_555 1_555
H8 C13 1_555 1_555
C14 N3 1_555 1_555
C15 C14 1_555 1_555
C16 N4 1_555 1_555
C17 C16 1_555 1_555
H9 C17 1_555 1_555
C18 C17 1_555 1_555
H10 C18 1_555 1_555
C19 N4 1_555 1_555
C20 C1 1_555 1_555
C21 C20 1_555 1_555
C22 C21 1_555 1_555
H11 C22 1_555 1_555
C23 C22 1_555 1_555
C24 C23 1_555 1_555
H12 C24 1_555 1_555
C25 C24 1_555 1_555
H13 C25 1_555 1_555
C26 C21 1_555 1_555
C27 C23 1_555 1_555
C28 C27 1_555 1_555
H14 C28 1_555 1_555
H15 C28 1_555 1_555
H16 C28 1_555 1_555
C29 C27 1_555 1_555
H17 C29 1_555 1_555
H18 C29 1_555 1_555
H19 C29 1_555 1_555
C30 C27 1_555 1_555
H20 C30 1_555 1_555
H21 C30 1_555 1_555
H22 C30 1_555 1_555
C31 O1 1_555 1_555
H23 C31 1_555 1_555
H24 C31 1_555 1_555
C32 C31 1_555 1_555
H25 C32 1_555 1_555
H26 C32 1_555 1_555
C33 C32 1_555 1_555
H27 C33 1_555 1_555
H28 C33 1_555 1_555
C34 C33 1_555 1_555
H29 C34 1_555 1_555
H30 C34 1_555 1_555
C35 C34 1_555 1_555
H31 C35 1_555 1_555
H32 C35 1_555 1_555
C36 O2 1_555 1_555
C37 C36 1_555 1_555
H33 C37 1_555 1_555
C38 C37 1_555 1_555
H34 C38 1_555 1_555
C39 C38 1_555 1_555
C40 C39 1_555 1_555
H35 C40 1_555 1_555
C41 C10 1_555 1_555
C42 C39 1_555 1_555
C43 C42 1_555 1_555
H36 C43 1_555 1_555
H37 C43 1_555 1_555
H38 C43 1_555 1_555
C44 C42 1_555 1_555
H39 C44 1_555 1_555
H40 C44 1_555 1_555
H41 C44 1_555 1_555
C45 C42 1_555 1_555
H42 C45 1_555 1_555
H43 C45 1_555 1_555
H44 C45 1_555 1_555
C46 C15 1_555 1_555
C47 C46 1_555 1_555
H45 C47 1_555 1_555
C48 C47 1_555 1_555
C49 C48 1_555 1_555
H46 C49 1_555 1_555
C50 C49 1_555 1_555
H47 C50 1_555 1_555
C51 C46 1_555 1_555
C52 C48 1_555 1_555
C53 C52 1_555 1_555
H48 C53 1_555 1_555
H49 C53 1_555 1_555
H50 C53 1_555 1_555
C54 C52 1_555 1_555
H51 C54 1_555 1_555
H52 C54 1_555 1_555
H53 C54 1_555 1_555
C55 C52 1_555 1_555
H54 C55 1_555 1_555
H55 C55 1_555 1_555
H56 C55 1_555 1_555
C56 O3 1_555 1_555
H57 C56 1_555 1_555
H58 C56 1_555 1_555
C57 C56 1_555 1_555
H59 C57 1_555 1_555
H60 C57 1_555 1_555
C58 C57 1_555 1_555
H61 C58 1_555 1_555
H62 C58 1_555 1_555
C59 C58 1_555 1_555
H63 C59 1_555 1_555
H64 C59 1_555 1_555
C60 C59 1_555 1_555
H65 C60 1_555 1_555
H66 C60 1_555 1_555
C61 O4 1_555 1_555
C62 C61 1_555 1_555
H67 C62 1_555 1_555
C63 C62 1_555 1_555
H68 C63 1_555 1_555
C64 C63 1_555 1_555
C65 C64 1_555 1_555
H69 C65 1_555 1_555
C66 C5 1_555 1_555
C67 C64 1_555 1_555
C68 C67 1_555 1_555
H70 C68 1_555 1_555
H71 C68 1_555 1_555
H72 C68 1_555 1_555
C69 C67 1_555 1_555
H73 C69 1_555 1_555
H74 C69 1_555 1_555
H75 C69 1_555 1_555
C70 C67 1_555 1_555
H76 C70 1_555 1_555
H77 C70 1_555 1_555
H78 C70 1_555 1_555
C3 C4 1_555 1_555
C5 C6 1_555 1_555
C8 C9 1_555 1_555
C13 C14 1_555 1_555
C15 C16 1_555 1_555
C18 C19 1_555 1_555
C19 C20 1_555 1_555
C25 C26 1_555 1_555
C36 C41 1_555 1_555
C40 C41 1_555 1_555
C50 C51 1_555 1_555
C61 C66 1_555 1_555
C65 C66 1_555 1_555

#END
