
#######################################################################
#
#                 Cambridge Crystallographic Data Centre
#                                CCDC 
#
#######################################################################
#
# If this CIF has been generated from an entry in the Cambridge 
# Structural Database, then it will include bibliographic, chemical, 
# crystal, experimental, refinement or atomic coordinate data resulting 
# from the CCDC's data processing and validation procedures.
#
#######################################################################

data_AGAKUQ
_chemical_formula_moiety         'C18 H30 Br1 N2 O6 P1 S1'
_chemical_name_systematic        
'Ethyl N-((1-(4-bromophenyl)-1-((t-butylsulfonyl)amino)ethyl)(ethoxy)phosphoryl)glycinate'
_symmetry_cell_setting           orthorhombic
_symmetry_space_group_name_H-M   'P 21 21 21'
_symmetry_Int_Tables_number      19
_space_group_name_Hall           'P 2ac 2ab'
loop_
_symmetry_equiv_pos_site_id
_symmetry_equiv_pos_as_xyz
1 x,y,z
2 1/2-x,-y,1/2+z
3 -x,1/2+y,1/2-z
4 1/2+x,1/2-y,-z
_cell_length_a                   9.901(3)
_cell_length_b                   13.938(5)
_cell_length_c                   21.180(7)
_cell_angle_alpha                90
_cell_angle_beta                 90
_cell_angle_gamma                90
_cell_volume                     2922.84
_exptl_crystal_colour            colorless
_exptl_crystal_description       prismatic
_cell_formula_units_Z            4
loop_
_atom_site_label
_atom_site_type_symbol
_atom_site_fract_x
_atom_site_fract_y
_atom_site_fract_z
Br1 Br 0.73347(7) 0.02037(6) 1.19050(4)
P1 P 0.14794(13) 0.19060(9) 1.02749(6)
S1 S 0.16995(13) -0.10687(9) 0.99787(6)
N1 N 0.2599(4) 0.2159(3) 0.97637(19)
N2 N 0.1661(4) 0.0098(3) 1.00052(19)
O1 O 0.0121(3) 0.2017(3) 1.0000(2)
O2 O 0.1765(4) 0.2490(2) 1.08801(17)
O3 O 0.2466(6) 0.0864(3) 0.87667(17)
O4 O 0.1836(6) 0.1996(3) 0.81140(18)
O5 O 0.2769(4) -0.1337(2) 0.95730(16)
O6 O 0.1710(4) -0.1427(2) 1.06078(17)
C1 C 0.1784(5) 0.0685(3) 1.0582(2)
C2 C 0.0632(6) 0.0470(4) 1.1040(3)
H1 H -0.0205 0.0444 1.0813
H2 H 0.0586 0.0966 1.1354
H3 H 0.0792 -0.0136 1.1243
C3 C 0.3178(5) 0.0613(3) 1.0892(2)
C4 C 0.3383(6) 0.0889(4) 1.1518(2)
H4 H 0.2665 0.1150 1.1744
C5 C 0.4596(7) 0.0791(4) 1.1808(3)
H5 H 0.4702 0.0984 1.2226
C6 C 0.5678(6) 0.0401(4) 1.1480(3)
C7 C 0.5519(5) 0.0133(4) 1.0876(3)
H6 H 0.6248 -0.0122 1.0656
C8 C 0.4265(5) 0.0232(4) 1.0572(2)
H7 H 0.4170 0.0041 1.0153
C9 C 0.1510(17) 0.3533(11) 1.0910(7)
H8 H 0.0676 0.3681 1.1130
H9 H 0.1502 0.3825 1.0495
C10 C 0.275(2) 0.3822(15) 1.1290(10)
H10 H 0.2618 0.3649 1.1725
H11 H 0.2877 0.4503 1.1259
H12 H 0.3528 0.3497 1.1127
C11 C 0.2317(6) 0.2471(3) 0.9128(2)
H13 H 0.3014 0.2918 0.8997
H14 H 0.1463 0.2812 0.9125
C12 C 0.2249(6) 0.1673(4) 0.8663(2)
C13 C 0.1893(15) 0.1281(10) 0.7580(6)
H15 H 0.1567 0.0653 0.7705
H16 H 0.2791 0.1226 0.7401
C14 C 0.0880(17) 0.1812(13) 0.7122(8)
H17 H 0.0054 0.1946 0.7342
H18 H 0.0693 0.1409 0.6764
H19 H 0.1276 0.2402 0.6980
C15 C 0.0154(6) -0.1425(4) 0.9598(3)
C16 C 0.0116(8) -0.0973(5) 0.8946(3)
H20 H 0.0851 -0.1215 0.8698
H21 H 0.0195 -0.0289 0.8984
H22 H -0.0724 -0.1129 0.8744
C17 C 0.0235(8) -0.2525(4) 0.9540(4)
H23 H -0.0580 -0.2764 0.9352
H24 H 0.0343 -0.2801 0.9953
H25 H 0.0993 -0.2697 0.9281
C18 C -0.1074(6) -0.1116(6) 1.0003(3)
H26 H -0.1172 -0.0432 0.9985
H27 H -0.0933 -0.1311 1.0433
H28 H -0.1877 -0.1415 0.9842
H29 H 0.097(5) 0.028(6) 0.982(4)
H30 H 0.335(3) 0.231(3) 0.990(2)
C19? C 0.221(2) 0.3548(14) 1.0829(9)
H31? H 0.3182 0.3591 1.0768
H32? H 0.1765 0.3862 1.0479
C20? C 0.181(4) 0.399(2) 1.1440(11)
H33? H 0.0853 0.3949 1.1491
H34? H 0.2078 0.4658 1.1441
H35? H 0.2254 0.3667 1.1781
C21? C 0.120(2) 0.1335(17) 0.7654(8)
H36? H 0.0231 0.1308 0.7717
H37? H 0.1569 0.0693 0.7696
C22? C 0.154(2) 0.1758(19) 0.7009(9)
H38? H 0.0809 0.2161 0.6872
H39? H 0.1667 0.1248 0.6711
H40? H 0.2351 0.2131 0.7039
loop_
_geom_bond_atom_site_label_1
_geom_bond_atom_site_label_2
_geom_bond_site_symmetry_1
_geom_bond_site_symmetry_2
Br1 C6 1_555 1_555
P1 N1 1_555 1_555
S1 N2 1_555 1_555
N1 C11 1_555 1_555
N2 C1 1_555 1_555
O1 P1 1_555 1_555
O2 P1 1_555 1_555
O3 C12 1_555 1_555
O4 C12 1_555 1_555
O5 S1 1_555 1_555
O6 S1 1_555 1_555
C1 P1 1_555 1_555
C2 C1 1_555 1_555
H1 C2 1_555 1_555
H2 C2 1_555 1_555
H3 C2 1_555 1_555
C3 C1 1_555 1_555
C4 C3 1_555 1_555
H4 C4 1_555 1_555
C5 C4 1_555 1_555
H5 C5 1_555 1_555
C6 C5 1_555 1_555
C7 C6 1_555 1_555
H6 C7 1_555 1_555
C8 C3 1_555 1_555
H7 C8 1_555 1_555
C9 O2 1_555 1_555
H8 C9 1_555 1_555
H9 C9 1_555 1_555
C10 C9 1_555 1_555
H10 C10 1_555 1_555
H11 C10 1_555 1_555
H12 C10 1_555 1_555
C11 H13 1_555 1_555
H14 C11 1_555 1_555
C12 C11 1_555 1_555
C13 O4 1_555 1_555
H15 C13 1_555 1_555
H16 C13 1_555 1_555
C14 C13 1_555 1_555
H17 C14 1_555 1_555
H18 C14 1_555 1_555
H19 C14 1_555 1_555
C15 S1 1_555 1_555
C16 C15 1_555 1_555
H20 C16 1_555 1_555
H21 C16 1_555 1_555
H22 C16 1_555 1_555
C17 C15 1_555 1_555
H23 C17 1_555 1_555
H24 C17 1_555 1_555
H25 C17 1_555 1_555
C18 C15 1_555 1_555
H26 C18 1_555 1_555
H27 C18 1_555 1_555
H28 C18 1_555 1_555
H29 N2 1_555 1_555
H30 N1 1_555 1_555
C7 C8 1_555 1_555

#END
