
#######################################################################
#
#                 Cambridge Crystallographic Data Centre
#                                CCDC 
#
#######################################################################
#
# If this CIF has been generated from an entry in the Cambridge 
# Structural Database, then it will include bibliographic, chemical, 
# crystal, experimental, refinement or atomic coordinate data resulting 
# from the CCDC's data processing and validation procedures.
#
#######################################################################

data_AGAKIF
_chemical_name_common            
"5,15:10,20-bis(2,2'-[heptane-1,7-diylbis(oxy)]bis(5-t-butylphenylene))porphyrin chloroform unknown solvate"
_chemical_formula_moiety         'C74 H86 N4 O4,2(C1 H1 Cl3)'
_chemical_name_systematic        
'9,25,36,52-tetra-t-butyl-13,21,40,48-tetraoxa-59,64,65,66-tetraazaundecacyclo[26.26.4.4^6,33^.1^2,5^.1^29,32^.1^55,58^.1^60,63^.0^7,12^.0^22,27^.0^34,39^.0^49,54^]hexahexaconta-1(55),2,4,6(63),7,9,11,22,24,26,28,30,32,34,36,38,49,51,53,56,58,60(66),61-tricosaene chloroform unknown solvate'
_symmetry_cell_setting           triclinic
_symmetry_space_group_name_H-M   'P -1'
_symmetry_Int_Tables_number      2
_space_group_name_Hall           '-P 1'
loop_
_symmetry_equiv_pos_site_id
_symmetry_equiv_pos_as_xyz
1 x,y,z
2 -x,-y,-z
_cell_length_a                   15.686(3)
_cell_length_b                   17.859(4)
_cell_length_c                   30.123(6)
_cell_angle_alpha                83.93(3)
_cell_angle_beta                 80.74(3)
_cell_angle_gamma                65.76(3)
_cell_volume                     7586.89
_exptl_crystal_colour            purple
_exptl_crystal_description       Prism
_cell_formula_units_Z            4
_chemical_properties_physical    Photo-sensitive
_exptl_crystal_recrystallization_method chloroform/methanol
_exptl_crystal_preparation       Luminescent
loop_
_atom_site_label
_atom_site_type_symbol
_atom_site_fract_x
_atom_site_fract_y
_atom_site_fract_z
O1 O 0.3504(3) 0.8886(3) 0.30092(15)
O2 O 0.5425(3) 0.6647(2) 0.06645(13)
O3 O 0.7877(3) 0.9327(2) 0.13005(14)
O4 O 0.9053(2) 0.5051(2) 0.24250(14)
N1 N 0.5776(3) 0.8673(2) 0.23010(14)
H1 H 0.596481 0.820086 0.217279
N2 N 0.6442(3) 0.8097(2) 0.14148(13)
N3 N 0.6923(3) 0.6422(2) 0.17577(14)
H2 H 0.666153 0.690763 0.187642
N4 N 0.6273(3) 0.6997(2) 0.26585(14)
C1 C 0.5384(3) 0.8829(3) 0.27382(17)
C2 C 0.5202(4) 0.9660(3) 0.28190(19)
H3 H 0.492427 0.992797 0.309424
C3 C 0.5495(4) 0.9995(3) 0.24343(18)
H4 H 0.548688 1.053238 0.239211
C4 C 0.5824(3) 0.9381(3) 0.20972(17)
C5 C 0.6133(3) 0.9487(3) 0.16404(18)
C6 C 0.6345(4) 0.8894(3) 0.13187(17)
C7 C 0.6463(4) 0.9034(3) 0.08341(18)
H5 H 0.644012 0.953153 0.067836
C8 C 0.6613(3) 0.8333(3) 0.06430(17)
H6 H 0.668869 0.825053 0.033021
C9 C 0.6636(4) 0.7723(3) 0.10124(17)
C10 C 0.6883(4) 0.6896(3) 0.09545(17)
C11 C 0.7059(4) 0.6278(3) 0.13141(17)
C12 C 0.7491(4) 0.5415(3) 0.12495(18)
H7 H 0.764924 0.515116 0.097198
C13 C 0.7632(4) 0.5042(3) 0.16690(18)
H8 H 0.792017 0.446805 0.173651
C14 C 0.7262(3) 0.5680(3) 0.19883(17)
C15 C 0.7211(3) 0.5557(3) 0.24571(17)
C16 C 0.6712(3) 0.6172(3) 0.27696(17)
C17 C 0.6531(4) 0.6047(3) 0.32526(17)
H9 H 0.678539 0.554119 0.342061
C18 C 0.5941(4) 0.6773(3) 0.34194(18)
H10 H 0.566022 0.687127 0.372308
C19 C 0.5810(3) 0.7384(3) 0.30457(17)
C20 C 0.5328(4) 0.8247(3) 0.30820(17)
C21 C 0.4640(4) 0.8571(3) 0.34958(19)
C22 C 0.4894(5) 0.8546(3) 0.39193(19)
H11 H 0.554508 0.834550 0.395016
C23 C 0.4233(6) 0.8804(4) 0.4303(2)
C24 C 0.3293(5) 0.9103(4) 0.4235(2)
H12 H 0.282147 0.928917 0.448586
C25 C 0.3011(5) 0.9142(4) 0.3811(2)
H13 H 0.236021 0.934671 0.377856
C26 C 0.3681(4) 0.8881(3) 0.34466(18)
C27 C 0.4457(7) 0.8780(5) 0.4772(3)
C28 C 0.5493(8) 0.8462(6) 0.4781(3)
H14 H 0.574654 0.881905 0.458738
H15 H 0.579574 0.790310 0.467158
H16 H 0.561841 0.845407 0.509028
C29 C 0.4024(10) 0.8277(7) 0.5102(3)
H17 H 0.433915 0.769588 0.502913
H18 H 0.335005 0.847467 0.507689
H19 H 0.410526 0.833793 0.540975
C30 C 0.3966(8) 0.9683(5) 0.4947(3)
H20 H 0.414457 0.968783 0.524316
H21 H 0.328029 0.987001 0.496998
H22 H 0.417030 1.005143 0.473465
C31 C 0.2633(4) 0.9052(4) 0.2891(2)
H23 H 0.215687 0.955907 0.303049
H24 H 0.244081 0.859253 0.299559
C32 C 0.2704(5) 0.9161(4) 0.2376(2)
H25 H 0.293510 0.959811 0.227584
H26 H 0.206835 0.933995 0.228518
C33 C 0.3375(5) 0.8359(4) 0.2141(2)
H27 H 0.399081 0.813702 0.225752
H28 H 0.310241 0.794163 0.220342
C34 C 0.3514(5) 0.8546(4) 0.1628(2)
H29 H 0.288819 0.882117 0.152198
H30 H 0.382968 0.893254 0.156931
C35 C 0.4092(5) 0.7789(3) 0.13595(19)
H31 H 0.378913 0.739348 0.142383
H32 H 0.472752 0.752354 0.145609
C36 C 0.4189(5) 0.7993(4) 0.0851(2)
H33 H 0.355946 0.837255 0.077311
H34 H 0.460497 0.829482 0.078526
C37 C 0.4567(4) 0.7285(4) 0.0545(2)
C38 C 0.6222(4) 0.6517(3) 0.03567(17)
C39 C 0.6291(5) 0.6265(3) -0.0079(2)
H35 H 0.578725 0.617647 -0.016853
C40 C 0.7104(5) 0.6147(3) -0.0379(2)
H36 H 0.714733 0.597806 -0.067331
C41 C 0.7858(4) 0.6271(3) -0.02587(19)
C42 C 0.7769(4) 0.6495(3) 0.01744(17)
H37 H 0.828089 0.657034 0.026457
C43 C 0.6971(4) 0.6618(3) 0.04907(17)
C44 C 0.8725(5) 0.6137(4) -0.0601(2)
C45 C 0.8490(5) 0.6459(4) -0.1077(2)
H38 H 0.823673 0.611514 -0.119744
H39 H 0.906230 0.644022 -0.127055
H40 H 0.801859 0.702715 -0.106625
C46 C 0.9406(6) 0.5214(4) -0.0613(2)
H41 H 0.963716 0.502868 -0.032057
H42 H 0.994065 0.514193 -0.084816
H43 H 0.906971 0.489018 -0.067840
C47 C 0.9300(6) 0.6590(6) -0.0473(3)
H44 H 0.888223 0.716512 -0.041892
H45 H 0.979953 0.656538 -0.072015
H46 H 0.958221 0.632549 -0.020000
C48 C 0.6309(4) 1.0239(3) 0.14871(18)
C49 C 0.5608(4) 1.1034(3) 0.15336(19)
H47 H 0.497366 1.110973 0.163659
C50 C 0.5835(4) 1.1721(3) 0.14288(19)
C51 C 0.6750(4) 1.1601(3) 0.12636(19)
H48 H 0.689790 1.206631 0.118095
C52 C 0.7466(4) 1.0818(3) 0.12141(19)
H49 H 0.809578 1.075096 0.110860
C53 C 0.7246(4) 1.0134(3) 0.13213(19)
C54 C 0.5069(4) 1.2608(3) 0.1503(2)
C55 C 0.5332(6) 1.2999(4) 0.1868(3)
H50 H 0.593710 1.303826 0.176225
H51 H 0.538167 1.265643 0.214661
H52 H 0.484177 1.355038 0.192424
C56 C 0.5008(5) 1.3128(4) 0.1058(3)
H53 H 0.479980 1.289569 0.083707
H54 H 0.563011 1.312515 0.094168
H55 H 0.455555 1.369444 0.111104
C57 C 0.4077(4) 1.2622(3) 0.1674(3)
H56 H 0.363890 1.318232 0.175058
H57 H 0.411044 1.225241 0.194111
H58 H 0.385331 1.243985 0.143682
C58 C 0.8831(4) 0.9132(3) 0.1133(2)
H59 H 0.914557 0.927912 0.134846
H60 H 0.888570 0.943462 0.084208
C59 C 0.9281(4) 0.8204(3) 0.1070(2)
H61 H 0.894552 0.806960 0.085927
H62 H 0.994523 0.804420 0.093224
C60 C 0.9254(4) 0.7704(3) 0.1512(2)
H63 H 0.859647 0.790047 0.166323
H64 H 0.963915 0.779982 0.171186
C61 C 0.9626(4) 0.6771(3) 0.14453(19)
H65 H 0.922083 0.667467 0.125699
H66 H 1.027103 0.658190 0.127986
C62 C 0.9648(4) 0.6255(3) 0.18878(18)
H67 H 1.004674 0.635305 0.207877
H68 H 0.900142 0.643381 0.205178
C63 C 1.0029(4) 0.5343(3) 0.1810(2)
H69 H 0.964746 0.525754 0.160389
H70 H 1.068250 0.516856 0.165478
C64 C 1.0035(4) 0.4793(3) 0.2227(2)
H71 H 1.030192 0.420986 0.214774
H72 H 1.041560 0.485991 0.243981
C65 C 0.8734(4) 0.4472(3) 0.26258(18)
C66 C 0.9287(4) 0.3724(3) 0.2819(2)
H73 H 0.994686 0.356384 0.280994
C67 C 0.8845(4) 0.3205(3) 0.30313(19)
H74 H 0.922244 0.269242 0.316414
C68 C 0.7897(4) 0.3409(3) 0.30533(17)
C69 C 0.7361(4) 0.4182(3) 0.28609(17)
H75 H 0.670016 0.434657 0.287384
C70 C 0.7766(3) 0.4712(3) 0.26525(17)
C71 C 0.7416(4) 0.2852(3) 0.32847(19)
C72 C 0.6657(4) 0.2854(3) 0.3011(2)
H76 H 0.619276 0.341893 0.297080
H77 H 0.633946 0.251516 0.317288
H78 H 0.695854 0.263072 0.271507
C73 C 0.6955(6) 0.3175(5) 0.3755(2)
H79 H 0.743532 0.318207 0.392370
H80 H 0.666232 0.281628 0.391544
H81 H 0.647147 0.373422 0.372448
C74 C 0.8130(5) 0.1955(4) 0.3335(2)
H82 H 0.848121 0.176731 0.303958
H83 H 0.779234 0.160671 0.345525
H84 H 0.856898 0.192160 0.354087
O5 O 0.0406(3) 0.4605(2) 0.33035(14)
O6 O -0.1617(3) 0.9576(2) 0.27287(13)
O7 O 0.2921(5) 0.6774(4) 0.4330(2)
O8 O 0.4073(3) 0.5526(3) 0.15824(13)
N5 N 0.1944(3) 0.5934(2) 0.24557(13)
H85 H 0.172775 0.639915 0.259389
N6 N 0.1283(3) 0.7622(2) 0.21644(15)
N7 N 0.0815(3) 0.8058(3) 0.31113(14)
H86 H 0.104894 0.758561 0.297889
N8 N 0.1518(3) 0.6379(2) 0.33956(15)
C75 C 0.2068(3) 0.5178(3) 0.26566(17)
C76 C 0.2416(3) 0.4566(3) 0.23148(17)
H87 H 0.254654 0.399734 0.236199
C77 C 0.2518(3) 0.4975(3) 0.19101(18)
H88 H 0.274475 0.473829 0.162401
C78 C 0.2215(3) 0.5841(3) 0.20012(17)
C79 C 0.2203(3) 0.6454(3) 0.16724(17)
C80 C 0.1721(3) 0.7297(3) 0.17560(17)
C81 C 0.1546(4) 0.7971(3) 0.14182(17)
H89 H 0.178653 0.793009 0.110735
C82 C 0.0984(4) 0.8658(3) 0.16286(18)
H90 H 0.073661 0.919180 0.148818
C83 C 0.0809(4) 0.8463(3) 0.21038(18)
C84 C 0.0316(4) 0.9027(3) 0.24520(18)
C85 C 0.0379(4) 0.8832(3) 0.29110(19)
C86 C 0.0124(4) 0.9439(3) 0.32456(19)
H91 H -0.018131 1.001715 0.319733
C87 C 0.0393(4) 0.9044(3) 0.3634(2)
H92 H 0.032201 0.929318 0.390888
C88 C 0.0813(4) 0.8171(3) 0.35630(18)
C89 C 0.1131(4) 0.7523(3) 0.38847(18)
C90 C 0.1402(4) 0.6703(3) 0.38065(19)
C91 C 0.1565(4) 0.6043(3) 0.4146(2)
H93 H 0.153871 0.608667 0.446019
C92 C 0.1764(4) 0.5341(3) 0.39302(18)
H94 H 0.188991 0.480955 0.406927
C93 C 0.1748(4) 0.5546(3) 0.34627(17)
C94 C 0.1946(4) 0.4996(3) 0.31216(18)
C95 C 0.2075(4) 0.4132(3) 0.32794(16)
C96 C 0.2937(4) 0.3501(3) 0.33353(18)
H95 H 0.349195 0.359852 0.324502
C97 C 0.3025(4) 0.2729(3) 0.35177(18)
C98 C 0.2207(5) 0.2592(3) 0.3625(2)
H96 H 0.224762 0.206402 0.374009
C99 C 0.1327(4) 0.3209(4) 0.3569(2)
H97 H 0.077604 0.310125 0.365251
C100 C 0.1248(4) 0.3985(3) 0.33925(18)
C101 C 0.4007(4) 0.2067(3) 0.3579(2)
C102 C 0.4492(4) 0.2398(4) 0.3877(2)
H98 H 0.453299 0.290307 0.373396
H99 H 0.512758 0.198344 0.390844
H100 H 0.412044 0.251425 0.417466
C103 C 0.3948(5) 0.1272(3) 0.3817(2)
H101 H 0.356792 0.140040 0.411224
H102 H 0.458418 0.086588 0.385537
H103 H 0.365466 0.104670 0.363294
C104 C 0.4607(4) 0.1863(3) 0.3115(2)
H104 H 0.431111 0.164463 0.292925
H105 H 0.524043 0.145216 0.315451
H106 H 0.465216 0.236352 0.296663
C105 C -0.0278(5) 0.4906(3) 0.3690(2)
H107 H 0.000386 0.505438 0.392019
H108 H -0.050503 0.448014 0.382367
C106 C -0.1095(4) 0.5665(3) 0.3531(2)
H109 H -0.158954 0.587403 0.379046
H110 H -0.137195 0.550150 0.330487
C107 C -0.0797(4) 0.6365(3) 0.3323(2)
H111 H -0.053526 0.654092 0.355074
H112 H -0.029339 0.615558 0.306677
C108 C -0.1629(4) 0.7111(3) 0.3157(2)
H113 H -0.192212 0.692416 0.294847
H114 H -0.210886 0.734493 0.341757
C109 C -0.1342(4) 0.7778(3) 0.2918(2)
H115 H -0.084743 0.754188 0.266280
H116 H -0.107145 0.798157 0.312923
C110 C -0.2173(4) 0.8497(3) 0.2742(2)
H117 H -0.249054 0.827555 0.256592
H118 H -0.263009 0.876534 0.300382
C111 C -0.1932(4) 0.9145(3) 0.2453(2)
H119 H -0.142866 0.888328 0.220502
H120 H -0.249465 0.953791 0.231863
C112 C -0.1291(4) 1.0117(3) 0.24617(18)
C113 C -0.1934(4) 1.0899(3) 0.2334(2)
H121 H -0.258839 1.106484 0.243448
C114 C -0.1611(4) 1.1429(3) 0.20592(19)
H122 H -0.205190 1.194908 0.196509
C115 C -0.0654(5) 1.1213(3) 0.19196(18)
C116 C -0.0022(4) 1.0431(3) 0.20593(18)
H123 H 0.063539 1.027841 0.197224
C117 C -0.0325(4) 0.9873(3) 0.23204(18)
C118 C -0.0316(4) 1.1803(3) 0.16093(19)
C119 C -0.0596(5) 1.2601(3) 0.1846(2)
H124 H -0.128216 1.290273 0.187416
H125 H -0.029245 1.293866 0.166898
H126 H -0.039257 1.247325 0.214583
C120 C -0.0790(6) 1.1995(5) 0.1183(2)
H127 H -0.053457 1.150460 0.100424
H128 H -0.066771 1.244211 0.100571
H129 H -0.147084 1.216300 0.126458
C121 C 0.0785(5) 1.1444(4) 0.1475(2)
H130 H 0.109573 1.126707 0.174776
H131 H 0.096593 1.186856 0.130741
H132 H 0.097836 1.097250 0.128610
C122 C 0.1222(4) 0.7723(3) 0.43433(19)
C123 C 0.0443(4) 0.8132(3) 0.46539(16)
H133 H -0.016899 0.831356 0.456657
C124 C 0.0522(4) 0.8288(3) 0.50936(18)
C125 C 0.1441(5) 0.8009(4) 0.5208(3)
H134 H 0.152957 0.810818 0.549698
C126 C 0.2202(6) 0.7599(6) 0.4910(4)
H135 H 0.281423 0.742239 0.499614
C127 C 0.2116(5) 0.7429(5) 0.4484(3)
C128 C -0.0318(6) 0.8684(5) 0.5443(2)
C129 C -0.1245(6) 0.8807(5) 0.5296(3)
H136 H -0.173385 0.892883 0.555767
H137 H -0.117874 0.830513 0.516325
H138 H -0.142332 0.926609 0.507259
C130 C -0.0273(10) 0.9414(7) 0.5591(5)
H139 H -0.064801 0.955301 0.588699
H140 H -0.052385 0.987266 0.537385
H141 H 0.038436 0.930713 0.561251
C131 C -0.0117(9) 0.7931(7) 0.5821(3)
H142 H 0.056477 0.762615 0.581879
H143 H -0.039465 0.756156 0.575289
H144 H -0.039992 0.815139 0.611897
C132 C 0.3400(8) 0.6982(5) 0.3940(3)
H145 H 0.385579 0.718434 0.401796
H146 H 0.295000 0.742133 0.376202
C133 C 0.3921(6) 0.6204(5) 0.3667(2)
H147 H 0.455871 0.589477 0.375676
H148 H 0.357111 0.584454 0.372681
C134 C 0.3997(5) 0.6462(4) 0.3165(2)
H149 H 0.335697 0.677223 0.307822
H150 H 0.434064 0.682637 0.310864
C135 C 0.4514(4) 0.5709(3) 0.2880(2)
H151 H 0.417204 0.534265 0.294254
H152 H 0.515255 0.540264 0.296835
C136 C 0.4602(4) 0.5928(3) 0.2375(2)
H153 H 0.492116 0.631108 0.231206
H154 H 0.396368 0.621093 0.228202
C137 C 0.5167(4) 0.5153(3) 0.20947(19)
H155 H 0.584378 0.496481 0.212457
H156 H 0.496480 0.470965 0.222350
C138 C 0.5052(3) 0.5284(3) 0.15980(18)
H157 H 0.525927 0.571838 0.145742
H158 H 0.542699 0.476997 0.143797
C139 C 0.3701(4) 0.5718(3) 0.11848(17)
C140 C 0.4221(4) 0.5478(3) 0.07620(19)
H159 H 0.488119 0.515779 0.073706
C141 C 0.3766(4) 0.5712(3) 0.03796(18)
H160 H 0.412551 0.553933 0.009569
C142 C 0.2818(4) 0.6182(3) 0.03958(18)
C143 C 0.2310(4) 0.6406(3) 0.08247(17)
H161 H 0.164828 0.671829 0.084716
C144 C 0.2733(4) 0.6190(3) 0.12164(16)
C145 C 0.2329(4) 0.6500(3) -0.00356(17)
C146 C 0.2203(7) 0.7378(4) -0.0139(3)
H162 H 0.189556 0.758540 -0.041109
H163 H 0.282119 0.740961 -0.018653
H164 H 0.181170 0.771304 0.011456
C147 C 0.1449(7) 0.6347(8) 0.0000(3)
H165 H 0.127969 0.637053 -0.030237
H166 H 0.093422 0.676832 0.018029
H167 H 0.155819 0.580323 0.014377
C148 C 0.2954(8) 0.6033(5) -0.0455(3)
H168 H 0.320296 0.544068 -0.038174
H169 H 0.347825 0.620451 -0.054400
H170 H 0.257504 0.616003 -0.070285
C149 C 0.7832(5) 0.9605(4) 0.3802(2)
H171 H 0.825720 0.953306 0.350992
Cl1 Cl 0.80753(15) 1.02213(10) 0.41471(6)
Cl2 Cl 0.66596(16) 1.0104(2) 0.36964(8)
Cl3 Cl 0.80531(16) 0.86386(12) 0.40743(7)
C150 C 0.2053(6) 0.1831(5) 0.2643(3)
H172 H 0.203007 0.216283 0.289535
Cl4 Cl 0.18492(14) 0.24788(12) 0.21558(8)
Cl5 Cl 0.31512(14) 0.10295(11) 0.25780(9)
Cl6 Cl 0.11486(16) 0.14603(14) 0.27871(9)
C151 C 0.4137(5) 0.0667(5) 0.0773(3)
H173 H 0.476248 0.030423 0.087069
Cl7 Cl 0.4236(2) 0.15491(17) 0.05169(8)
Cl8 Cl 0.32966(18) 0.09017(16) 0.12633(10)
Cl9 Cl 0.3906(2) 0.01333(15) 0.03948(9)
C152 C 0.1694(8) 1.0068(5) 0.0341(3)
H174 H 0.203813 1.002871 0.060103
Cl10 Cl 0.0788(2) 0.97313(18) 0.05241(9)
Cl11 Cl 0.25089(19) 0.94237(12) -0.00953(7)
Cl12 Cl 0.1253(3) 1.10768(14) 0.01303(8)
O9? O 0.2773(9) 0.7305(8) 0.3998(4)
loop_
_geom_bond_atom_site_label_1
_geom_bond_atom_site_label_2
_geom_bond_site_symmetry_1
_geom_bond_site_symmetry_2
O1 C26 1_555 1_555
O2 C37 1_555 1_555
O3 C53 1_555 1_555
O4 C64 1_555 1_555
N1 H1 1_555 1_555
N2 C6 1_555 1_555
N3 H2 1_555 1_555
N4 C16 1_555 1_555
C1 N1 1_555 1_555
C2 C1 1_555 1_555
H3 C2 1_555 1_555
C3 C2 1_555 1_555
H4 C3 1_555 1_555
C4 N1 1_555 1_555
C5 C4 1_555 1_555
C6 C5 1_555 1_555
C7 C6 1_555 1_555
H5 C7 1_555 1_555
C8 C7 1_555 1_555
H6 C8 1_555 1_555
C9 N2 1_555 1_555
C10 C9 1_555 1_555
C11 N3 1_555 1_555
C12 C11 1_555 1_555
H7 C12 1_555 1_555
C13 C12 1_555 1_555
H8 C13 1_555 1_555
C14 N3 1_555 1_555
C15 C14 1_555 1_555
C16 C15 1_555 1_555
C17 C16 1_555 1_555
H9 C17 1_555 1_555
C18 C17 1_555 1_555
H10 C18 1_555 1_555
C19 N4 1_555 1_555
C20 C1 1_555 1_555
C21 C20 1_555 1_555
C22 C21 1_555 1_555
H11 C22 1_555 1_555
C23 C22 1_555 1_555
C24 C23 1_555 1_555
H12 C24 1_555 1_555
C25 C24 1_555 1_555
H13 C25 1_555 1_555
C26 C21 1_555 1_555
C27 C23 1_555 1_555
C28 C27 1_555 1_555
H14 C28 1_555 1_555
H15 C28 1_555 1_555
H16 C28 1_555 1_555
C29 C27 1_555 1_555
H17 C29 1_555 1_555
H18 C29 1_555 1_555
H19 C29 1_555 1_555
C30 C27 1_555 1_555
H20 C30 1_555 1_555
H21 C30 1_555 1_555
H22 C30 1_555 1_555
C31 O1 1_555 1_555
H23 C31 1_555 1_555
H24 C31 1_555 1_555
C32 C31 1_555 1_555
H25 C32 1_555 1_555
H26 C32 1_555 1_555
C33 C32 1_555 1_555
H27 C33 1_555 1_555
H28 C33 1_555 1_555
C34 C33 1_555 1_555
H29 C34 1_555 1_555
H30 C34 1_555 1_555
C35 C34 1_555 1_555
H31 C35 1_555 1_555
H32 C35 1_555 1_555
C36 C35 1_555 1_555
H33 C36 1_555 1_555
H34 C36 1_555 1_555
C37 C36 1_555 1_555
C38 O2 1_555 1_555
C39 C38 1_555 1_555
H35 C39 1_555 1_555
C40 C39 1_555 1_555
H36 C40 1_555 1_555
C41 C40 1_555 1_555
C42 C41 1_555 1_555
H37 C42 1_555 1_555
C43 C10 1_555 1_555
C44 C41 1_555 1_555
C45 C44 1_555 1_555
H38 C45 1_555 1_555
H39 C45 1_555 1_555
H40 C45 1_555 1_555
C46 C44 1_555 1_555
H41 C46 1_555 1_555
H42 C46 1_555 1_555
H43 C46 1_555 1_555
C47 C44 1_555 1_555
H44 C47 1_555 1_555
H45 C47 1_555 1_555
H46 C47 1_555 1_555
C48 C5 1_555 1_555
C49 C48 1_555 1_555
H47 C49 1_555 1_555
C50 C49 1_555 1_555
C51 C50 1_555 1_555
H48 C51 1_555 1_555
C52 C51 1_555 1_555
H49 C52 1_555 1_555
C53 C48 1_555 1_555
C54 C50 1_555 1_555
C55 C54 1_555 1_555
H50 C55 1_555 1_555
H51 C55 1_555 1_555
H52 C55 1_555 1_555
C56 C54 1_555 1_555
H53 C56 1_555 1_555
H54 C56 1_555 1_555
H55 C56 1_555 1_555
C57 C54 1_555 1_555
H56 C57 1_555 1_555
H57 C57 1_555 1_555
H58 C57 1_555 1_555
C58 O3 1_555 1_555
H59 C58 1_555 1_555
H60 C58 1_555 1_555
C59 C58 1_555 1_555
H61 C59 1_555 1_555
H62 C59 1_555 1_555
C60 C59 1_555 1_555
H63 C60 1_555 1_555
H64 C60 1_555 1_555
C61 C60 1_555 1_555
H65 C61 1_555 1_555
H66 C61 1_555 1_555
C62 C61 1_555 1_555
H67 C62 1_555 1_555
H68 C62 1_555 1_555
C63 C62 1_555 1_555
H69 C63 1_555 1_555
H70 C63 1_555 1_555
C64 C63 1_555 1_555
H71 C64 1_555 1_555
H72 C64 1_555 1_555
C65 O4 1_555 1_555
C66 C65 1_555 1_555
H73 C66 1_555 1_555
C67 C66 1_555 1_555
H74 C67 1_555 1_555
C68 C67 1_555 1_555
C69 C68 1_555 1_555
H75 C69 1_555 1_555
C70 C15 1_555 1_555
C71 C68 1_555 1_555
C72 C71 1_555 1_555
H76 C72 1_555 1_555
H77 C72 1_555 1_555
H78 C72 1_555 1_555
C73 C71 1_555 1_555
H79 C73 1_555 1_555
H80 C73 1_555 1_555
H81 C73 1_555 1_555
C74 C71 1_555 1_555
H82 C74 1_555 1_555
H83 C74 1_555 1_555
H84 C74 1_555 1_555
O5 C100 1_555 1_555
O6 C111 1_555 1_555
O7 C127 1_555 1_555
O8 C138 1_555 1_555
N5 H85 1_555 1_555
N6 C80 1_555 1_555
N7 H86 1_555 1_555
N8 C90 1_555 1_555
C75 N5 1_555 1_555
C76 C75 1_555 1_555
H87 C76 1_555 1_555
C77 C76 1_555 1_555
H88 C77 1_555 1_555
C78 N5 1_555 1_555
C79 C78 1_555 1_555
C80 C79 1_555 1_555
C81 C80 1_555 1_555
H89 C81 1_555 1_555
C82 C81 1_555 1_555
H90 C82 1_555 1_555
C83 N6 1_555 1_555
C84 C83 1_555 1_555
C85 N7 1_555 1_555
C86 C85 1_555 1_555
H91 C86 1_555 1_555
C87 C86 1_555 1_555
H92 C87 1_555 1_555
C88 N7 1_555 1_555
C89 C88 1_555 1_555
C90 C89 1_555 1_555
C91 C90 1_555 1_555
H93 C91 1_555 1_555
C92 C91 1_555 1_555
H94 C92 1_555 1_555
C93 N8 1_555 1_555
C94 C75 1_555 1_555
C95 C94 1_555 1_555
C96 C95 1_555 1_555
H95 C96 1_555 1_555
C97 C96 1_555 1_555
C98 C97 1_555 1_555
H96 C98 1_555 1_555
C99 C98 1_555 1_555
H97 C99 1_555 1_555
C100 C95 1_555 1_555
C101 C97 1_555 1_555
C102 C101 1_555 1_555
H98 C102 1_555 1_555
H99 C102 1_555 1_555
H100 C102 1_555 1_555
C103 C101 1_555 1_555
H101 C103 1_555 1_555
H102 C103 1_555 1_555
H103 C103 1_555 1_555
C104 C101 1_555 1_555
H104 C104 1_555 1_555
H105 C104 1_555 1_555
H106 C104 1_555 1_555
C105 O5 1_555 1_555
H107 C105 1_555 1_555
H108 C105 1_555 1_555
C106 C105 1_555 1_555
H109 C106 1_555 1_555
H110 C106 1_555 1_555
C107 C106 1_555 1_555
H111 C107 1_555 1_555
H112 C107 1_555 1_555
C108 C107 1_555 1_555
H113 C108 1_555 1_555
H114 C108 1_555 1_555
C109 C108 1_555 1_555
H115 C109 1_555 1_555
H116 C109 1_555 1_555
C110 C109 1_555 1_555
H117 C110 1_555 1_555
H118 C110 1_555 1_555
C111 C110 1_555 1_555
H119 C111 1_555 1_555
H120 C111 1_555 1_555
C112 O6 1_555 1_555
C113 C112 1_555 1_555
H121 C113 1_555 1_555
C114 C113 1_555 1_555
H122 C114 1_555 1_555
C115 C114 1_555 1_555
C116 C115 1_555 1_555
H123 C116 1_555 1_555
C117 C84 1_555 1_555
C118 C115 1_555 1_555
C119 C118 1_555 1_555
H124 C119 1_555 1_555
H125 C119 1_555 1_555
H126 C119 1_555 1_555
C120 C118 1_555 1_555
H127 C120 1_555 1_555
H128 C120 1_555 1_555
H129 C120 1_555 1_555
C121 C118 1_555 1_555
H130 C121 1_555 1_555
H131 C121 1_555 1_555
H132 C121 1_555 1_555
C122 C89 1_555 1_555
C123 C122 1_555 1_555
H133 C123 1_555 1_555
C124 C123 1_555 1_555
C125 C124 1_555 1_555
H134 C125 1_555 1_555
C126 C125 1_555 1_555
H135 C126 1_555 1_555
C127 C122 1_555 1_555
C128 C124 1_555 1_555
C129 C128 1_555 1_555
H136 C129 1_555 1_555
H137 C129 1_555 1_555
H138 C129 1_555 1_555
C130 C128 1_555 1_555
H139 C130 1_555 1_555
H140 C130 1_555 1_555
H141 C130 1_555 1_555
C131 C128 1_555 1_555
H142 C131 1_555 1_555
H143 C131 1_555 1_555
H144 C131 1_555 1_555
C132 O7 1_555 1_555
H145 C132 1_555 1_555
H146 C132 1_555 1_555
C133 C132 1_555 1_555
H147 C133 1_555 1_555
H148 C133 1_555 1_555
C134 C133 1_555 1_555
H149 C134 1_555 1_555
H150 C134 1_555 1_555
C135 C134 1_555 1_555
H151 C135 1_555 1_555
H152 C135 1_555 1_555
C136 C135 1_555 1_555
H153 C136 1_555 1_555
H154 C136 1_555 1_555
C137 C136 1_555 1_555
H155 C137 1_555 1_555
H156 C137 1_555 1_555
C138 C137 1_555 1_555
H157 C138 1_555 1_555
H158 C138 1_555 1_555
C139 O8 1_555 1_555
C140 C139 1_555 1_555
H159 C140 1_555 1_555
C141 C140 1_555 1_555
H160 C141 1_555 1_555
C142 C141 1_555 1_555
C143 C142 1_555 1_555
H161 C143 1_555 1_555
C144 C79 1_555 1_555
C145 C142 1_555 1_555
C146 C145 1_555 1_555
H162 C146 1_555 1_555
H163 C146 1_555 1_555
H164 C146 1_555 1_555
C147 C145 1_555 1_555
H165 C147 1_555 1_555
H166 C147 1_555 1_555
H167 C147 1_555 1_555
C148 C145 1_555 1_555
H168 C148 1_555 1_555
H169 C148 1_555 1_555
H170 C148 1_555 1_555
C149 H171 1_555 1_555
Cl1 C149 1_555 1_555
Cl2 C149 1_555 1_555
Cl3 C149 1_555 1_555
C150 H172 1_555 1_555
Cl4 C150 1_555 1_555
Cl5 C150 1_555 1_555
Cl6 C150 1_555 1_555
C151 H173 1_555 1_555
Cl7 C151 1_555 1_555
Cl8 C151 1_555 1_555
Cl9 C151 1_555 1_555
C152 H174 1_555 1_555
Cl10 C152 1_555 1_555
Cl11 C152 1_555 1_555
Cl12 C152 1_555 1_555
C3 C4 1_555 1_555
C8 C9 1_555 1_555
C10 C11 1_555 1_555
C13 C14 1_555 1_555
C18 C19 1_555 1_555
C19 C20 1_555 1_555
C25 C26 1_555 1_555
C38 C43 1_555 1_555
C42 C43 1_555 1_555
C52 C53 1_555 1_555
C65 C70 1_555 1_555
C69 C70 1_555 1_555
C77 C78 1_555 1_555
C82 C83 1_555 1_555
C84 C85 1_555 1_555
C87 C88 1_555 1_555
C92 C93 1_555 1_555
C93 C94 1_555 1_555
C99 C100 1_555 1_555
C112 C117 1_555 1_555
C116 C117 1_555 1_555
C126 C127 1_555 1_555
C139 C144 1_555 1_555
C143 C144 1_555 1_555

#END
