
#######################################################################
#
#                 Cambridge Crystallographic Data Centre
#                                CCDC 
#
#######################################################################
#
# If this CIF has been generated from an entry in the Cambridge 
# Structural Database, then it will include bibliographic, chemical, 
# crystal, experimental, refinement or atomic coordinate data resulting 
# from the CCDC's data processing and validation procedures.
#
#######################################################################

data_AGAROR
_chemical_formula_moiety         'C19 H18 Cl1 N1 O3'
_chemical_name_systematic        
'Ethyl 4-(4-chlorophenyl)-2-methyl-5-oxo-5,6,7,8-tetrahydroquinoline-3-carboxylate'
_symmetry_cell_setting           monoclinic
_symmetry_space_group_name_H-M   'P 21/c'
_symmetry_Int_Tables_number      14
_space_group_name_Hall           '-P 2ybc'
loop_
_symmetry_equiv_pos_site_id
_symmetry_equiv_pos_as_xyz
1 x,y,z
2 -x,1/2+y,1/2-z
3 -x,-y,-z
4 x,1/2-y,1/2+z
_cell_length_a                   12.5736(7)
_cell_length_b                   8.3815(4)
_cell_length_c                   17.4945(8)
_cell_angle_alpha                90
_cell_angle_beta                 112.151(2)
_cell_angle_gamma                90
_cell_volume                     1707.59
_exptl_crystal_colour            yellow
_exptl_crystal_description       chunk
_cell_formula_units_Z            4
loop_
_atom_site_label
_atom_site_type_symbol
_atom_site_fract_x
_atom_site_fract_y
_atom_site_fract_z
C1 C 0.42545(16) 0.6493(2) 0.58924(11)
C2 C 0.41107(17) 0.7151(2) 0.51265(11)
C3 C 0.50712(19) 0.7626(2) 0.49622(12)
C4 C 0.62896(17) 0.6962(2) 0.62798(12)
C5 C 0.75005(18) 0.7044(3) 0.69010(14)
H1 H 0.7673 0.8142 0.7080
H2 H 0.8018 0.6734 0.6633
C6 C 0.77367(19) 0.6007(3) 0.76517(14)
H3 H 0.8455 0.6329 0.8081
H4 H 0.7811 0.4905 0.7511
C7 C 0.67692(18) 0.6145(3) 0.79737(12)
H5 H 0.6935 0.5475 0.8457
H6 H 0.6707 0.7240 0.8132
C8 C 0.56577(17) 0.5633(2) 0.73116(12)
C9 C 0.53856(16) 0.6381(2) 0.64827(11)
C10 C 0.32257(15) 0.6031(2) 0.60723(11)
C11 C 0.30200(17) 0.6742(2) 0.67217(11)
H7 H 0.3545 0.7475 0.7056
C12 C 0.20518(18) 0.6381(2) 0.68790(12)
H8 H 0.1922 0.6862 0.7315
C13 C 0.12768(16) 0.5288(2) 0.63758(12)
C14 C 0.14541(17) 0.4562(2) 0.57310(12)
H9 H 0.0925 0.3829 0.5400
C15 C 0.24351(16) 0.4933(2) 0.55776(11)
H10 H 0.2562 0.4445 0.5142
C16 C 0.29397(18) 0.7489(2) 0.44907(11)
C17 C 0.1340(2) 0.9227(3) 0.41726(18)
H11 H 0.0757 0.8430 0.4117
H12 H 0.1365 0.9418 0.3633
C18 C 0.1069(2) 1.0718(3) 0.4508(2)
H13 H 0.1020 1.0508 0.5033
H14 H 0.0348 1.1129 0.4134
H15 H 0.1663 1.1488 0.4576
C19 C 0.4969(2) 0.8326(3) 0.41431(14)
H16 H 0.5631 0.8971 0.4216
H17 H 0.4290 0.8974 0.3930
H18 H 0.4920 0.7480 0.3761
Cl1 Cl 0.00542(5) 0.48132(7) 0.65772(4)
N1 N 0.61354(15) 0.7536(2) 0.55298(11)
O1 O 0.50420(13) 0.46307(17) 0.74340(9)
O2 O 0.24504(13) 0.86760(17) 0.47419(9)
O3 O 0.25193(14) 0.68423(19) 0.38335(9)
loop_
_geom_bond_atom_site_label_1
_geom_bond_atom_site_label_2
_geom_bond_site_symmetry_1
_geom_bond_site_symmetry_2
C1 C2 1_555 1_555
C2 C3 1_555 1_555
C3 C19 1_555 1_555
C4 C5 1_555 1_555
C5 H1 1_555 1_555
H2 C5 1_555 1_555
C6 C5 1_555 1_555
H3 C6 1_555 1_555
H4 C6 1_555 1_555
C7 C6 1_555 1_555
H5 C7 1_555 1_555
H6 C7 1_555 1_555
C8 C7 1_555 1_555
C9 C1 1_555 1_555
C10 C1 1_555 1_555
C11 C10 1_555 1_555
H7 C11 1_555 1_555
C12 C11 1_555 1_555
H8 C12 1_555 1_555
C13 C12 1_555 1_555
C14 C13 1_555 1_555
H9 C14 1_555 1_555
C15 C10 1_555 1_555
H10 C15 1_555 1_555
C16 C2 1_555 1_555
C17 H11 1_555 1_555
H12 C17 1_555 1_555
C18 C17 1_555 1_555
H13 C18 1_555 1_555
H14 C18 1_555 1_555
H15 C18 1_555 1_555
C19 H16 1_555 1_555
H17 C19 1_555 1_555
H18 C19 1_555 1_555
Cl1 C13 1_555 1_555
N1 C3 1_555 1_555
O1 C8 1_555 1_555
O2 C16 1_555 1_555
O3 C16 1_555 1_555
C4 C9 1_555 1_555
C4 N1 1_555 1_555
C8 C9 1_555 1_555
C14 C15 1_555 1_555
C17 O2 1_555 1_555

#END
