
#######################################################################
#
#                 Cambridge Crystallographic Data Centre
#                                CCDC 
#
#######################################################################
#
# If this CIF has been generated from an entry in the Cambridge 
# Structural Database, then it will include bibliographic, chemical, 
# crystal, experimental, refinement or atomic coordinate data resulting 
# from the CCDC's data processing and validation procedures.
#
#######################################################################

data_AGASUY
_chemical_formula_moiety         'C13 H15 N1 O2'
_chemical_name_systematic        
1-Benzyl-5-ethyl-5-hydroxy-1,5-dihydro-2H-pyrrol-2-one
_symmetry_cell_setting           monoclinic
_symmetry_space_group_name_H-M   'P 21'
_symmetry_Int_Tables_number      4
_space_group_name_Hall           'P 2yb'
loop_
_symmetry_equiv_pos_site_id
_symmetry_equiv_pos_as_xyz
1 x,y,z
2 -x,1/2+y,-z
_cell_length_a                   7.0399(14)
_cell_length_b                   7.1795(14)
_cell_length_c                   11.817(2)
_cell_angle_alpha                90
_cell_angle_beta                 102.72(3)
_cell_angle_gamma                90
_cell_volume                     582.608
_exptl_crystal_colour            colorless
_exptl_crystal_description       pillar
_cell_formula_units_Z            2
loop_
_atom_site_label
_atom_site_type_symbol
_atom_site_fract_x
_atom_site_fract_y
_atom_site_fract_z
O1 O -0.2177(3) 0.6481(3) 0.96950(15)
N1 N -0.0106(3) 0.7331(3) 0.85306(15)
C1 C -0.2478(4) 0.4825(5) 0.4747(2)
H1 H -0.2359 0.4924 0.3981
O2 O 0.2472(3) 0.9389(2) 0.83792(15)
H2 H 0.2397 1.0049 0.8934
C2 C -0.3230(4) 0.3208(5) 0.5114(2)
H3 H -0.36 0.2222 0.4602
C3 C -0.3426(4) 0.3079(5) 0.6254(2)
H4 H -0.3927 0.2 0.6511
C4 C 0.2774(4) 0.6967(4) 0.9869(2)
H5 H 0.4086 0.6937 1.0235
C5 C -0.1894(4) 0.6312(4) 0.5507(2)
H6 H -0.1362 0.738 0.5255
C6 C -0.1548(4) 0.7814(4) 0.74846(19)
H7 H -0.1033 0.8808 0.7084
H8 H -0.2707 0.8281 0.7706
C7 C 0.2009(4) 0.7521(3) 0.8611(2)
C8 C -0.2875(4) 0.4557(4) 0.7009(2)
H9 H -0.3016 0.4459 0.7771
C9 C -0.0541(3) 0.6758(3) 0.95313(19)
C10 C -0.2118(3) 0.6177(4) 0.66498(19)
C11 C 0.1357(4) 0.6535(4) 1.0372(2)
H10 H 0.151 0.6149 1.1138
C12 C 0.2726(4) 0.6284(4) 0.7756(2)
H11 H 0.4104 0.652 0.7826
H12 H 0.2061 0.6643 0.6978
C13 C 0.2442(4) 0.4196(4) 0.7893(2)
H13 H 0.2931 0.3535 0.7311
H14 H 0.1081 0.3932 0.7807
H15 H 0.3136 0.3806 0.8649
loop_
_geom_bond_atom_site_label_1
_geom_bond_atom_site_label_2
_geom_bond_site_symmetry_1
_geom_bond_site_symmetry_2
O1 C9 1_555 1_555
N1 C6 1_555 1_555
C1 H1 1_555 1_555
O2 H2 1_555 1_555
C2 C1 1_555 1_555
H3 C2 1_555 1_555
C3 C2 1_555 1_555
H4 C3 1_555 1_555
C4 H5 1_555 1_555
C5 C1 1_555 1_555
H6 C5 1_555 1_555
C6 H7 1_555 1_555
H8 C6 1_555 1_555
C7 N1 1_555 1_555
C8 C3 1_555 1_555
H9 C8 1_555 1_555
C9 N1 1_555 1_555
C10 C5 1_555 1_555
C11 C4 1_555 1_555
H10 C11 1_555 1_555
C12 C7 1_555 1_555
H11 C12 1_555 1_555
H12 C12 1_555 1_555
C13 C12 1_555 1_555
H13 C13 1_555 1_555
H14 C13 1_555 1_555
H15 C13 1_555 1_555
O2 C7 1_555 1_555
C4 C7 1_555 1_555
C6 C10 1_555 1_555
C8 C10 1_555 1_555
C9 C11 1_555 1_555

#END
