
#######################################################################
#
#                 Cambridge Crystallographic Data Centre
#                                CCDC 
#
#######################################################################
#
# If this CIF has been generated from an entry in the Cambridge 
# Structural Database, then it will include bibliographic, chemical, 
# crystal, experimental, refinement or atomic coordinate data resulting 
# from the CCDC's data processing and validation procedures.
#
#######################################################################

data_AGATUY
_chemical_formula_moiety         'C60 Cl12'
_chemical_name_systematic        Dodecachloro-C~S~-(1804)-iso-C60fullerene
_symmetry_cell_setting           triclinic
_symmetry_space_group_name_H-M   'P -1'
_symmetry_Int_Tables_number      2
_space_group_name_Hall           '-P 1'
loop_
_symmetry_equiv_pos_site_id
_symmetry_equiv_pos_as_xyz
1 x,y,z
2 -x,-y,-z
_cell_length_a                   11.9854(7)
_cell_length_b                   12.6847(6)
_cell_length_c                   13.8606(8)
_cell_angle_alpha                76.079(4)
_cell_angle_beta                 76.266(5)
_cell_angle_gamma                77.522(5)
_cell_volume                     1958.44
_exptl_crystal_colour            brown
_cell_formula_units_Z            2
_exptl_crystal_recrystallization_method 'carbon disulfide'
loop_
_atom_site_label
_atom_site_type_symbol
_atom_site_fract_x
_atom_site_fract_y
_atom_site_fract_z
Cl1 Cl 0.34778(19) 0.68761(17) 0.69973(16)
Cl2 Cl 0.3691(2) 0.23724(19) 0.30229(16)
Cl3 Cl 0.27797(19) 0.46844(18) 0.34124(15)
Cl4 Cl -0.21928(16) 0.26884(18) 0.79221(16)
Cl5 Cl -0.21627(18) 0.4212(2) 0.92658(17)
Cl6 Cl -0.1061(2) 0.25554(18) 1.09438(15)
Cl7 Cl 0.16122(18) 0.65787(17) 0.50822(16)
Cl8 Cl 0.45472(19) 0.5404(2) 0.88450(16)
Cl9 Cl -0.0691(2) 0.0702(2) 0.63706(17)
Cl10 Cl 0.1268(2) 0.1686(2) 0.39051(17)
Cl11 Cl 0.1950(2) 0.0806(2) 1.13955(17)
Cl12 Cl 0.4948(2) 0.2317(2) 1.02850(18)
C1 C 0.3775(6) 0.4877(6) 0.6449(5)
C2 C 0.0840(6) 0.4228(6) 0.9051(6)
C3 C 0.1849(7) 0.4714(6) 0.8669(5)
C4 C 0.0343(6) 0.4778(6) 0.7412(5)
C5 C 0.3157(6) 0.4759(6) 0.5755(5)
C6 C 0.1350(7) 0.0117(6) 0.8149(6)
C7 C 0.0462(7) 0.1122(7) 0.6741(6)
C8 C 0.5354(6) 0.1421(7) 0.6076(6)
C9 C 0.3897(6) 0.4699(7) 0.8195(6)
C10 C -0.0035(6) 0.3124(6) 0.6944(6)
C11 C 0.5426(6) 0.1957(8) 0.7643(6)
C12 C 0.4812(7) 0.2065(7) 0.5259(6)
C13 C 0.4972(8) 0.0427(7) 0.6609(7)
C14 C 0.3620(6) 0.3948(6) 0.5152(5)
C15 C 0.1207(7) 0.0949(7) 0.9602(6)
C16 C 0.0043(7) 0.4360(6) 0.8404(6)
C17 C 0.4759(6) 0.4103(7) 0.6647(6)
C18 C 0.0480(6) 0.2331(6) 0.6343(5)
C19 C 0.1761(7) 0.0154(6) 0.9017(6)
C20 C 0.5600(7) 0.2168(7) 0.6571(7)
C21 C -0.0145(6) 0.1670(6) 0.8461(6)
C22 C 0.0228(6) 0.1642(6) 0.9356(5)
C23 C 0.4638(7) 0.3241(7) 0.5301(6)
C24 C 0.0943(7) 0.3156(7) 0.9678(6)
C25 C 0.4991(6) 0.2798(7) 0.8216(6)
C26 C 0.1344(6) 0.5332(6) 0.7031(5)
C27 C 0.2150(8) -0.0153(6) 0.7244(7)
C28 C 0.5205(6) 0.3265(7) 0.6090(6)
C29 C 0.2035(6) 0.5376(6) 0.7675(6)
C30 C 0.2829(7) 0.3648(7) 0.4560(6)
C31 C 0.0308(6) 0.4173(6) 0.6658(6)
C32 C 0.1851(6) 0.5253(6) 0.5912(5)
C33 C -0.0731(6) 0.2753(6) 0.8024(6)
C34 C 0.3133(7) 0.2420(7) 0.4333(6)
C35 C 0.4010(7) 0.1693(7) 0.4929(6)
C36 C 0.2929(7) 0.4146(7) 0.8909(6)
C37 C -0.0752(6) 0.3509(6) 0.8821(6)
C38 C 0.1266(6) 0.2649(7) 0.5447(6)
C39 C 0.0387(7) 0.0880(6) 0.7877(6)
C40 C 0.3026(7) 0.3078(7) 0.9387(6)
C41 C 0.2000(7) 0.2537(7) 0.9784(6)
C42 C 0.1646(7) 0.0468(7) 0.6375(6)
C43 C 0.4746(6) 0.3864(7) 0.7715(6)
C44 C 0.2117(8) 0.1299(7) 1.0050(6)
C45 C 0.3305(9) -0.0373(7) 0.7213(6)
C46 C 0.2997(7) -0.0021(6) 0.8961(6)
C47 C 0.3586(8) 0.0694(7) 0.5511(7)
C48 C 0.1660(7) 0.3651(7) 0.5211(5)
C49 C 0.4226(7) 0.1197(7) 0.9119(6)
C50 C 0.4070(8) 0.0086(7) 0.6309(7)
C51 C -0.0149(6) 0.2695(6) 0.9705(6)
C52 C 0.1180(6) 0.4415(6) 0.5805(6)
C53 C 0.2372(8) 0.0847(7) 0.5502(6)
C54 C 0.3265(7) 0.5477(6) 0.7305(6)
C55 C 0.3768(8) -0.0294(7) 0.8089(7)
C56 C 0.4290(7) 0.2325(8) 0.9230(6)
C57 C 0.3263(7) 0.0708(7) 0.9483(6)
C58 C 0.2000(7) 0.1866(7) 0.4810(6)
C59 C 0.4998(7) 0.0936(7) 0.8210(7)
C60 C 0.4798(8) 0.0202(7) 0.7702(7)
loop_
_geom_bond_atom_site_label_1
_geom_bond_atom_site_label_2
_geom_bond_site_symmetry_1
_geom_bond_site_symmetry_2
Cl1 C54 1_555 1_555
Cl2 C34 1_555 1_555
Cl3 C30 1_555 1_555
Cl4 C33 1_555 1_555
Cl5 C37 1_555 1_555
Cl6 C51 1_555 1_555
Cl7 C32 1_555 1_555
Cl8 C9 1_555 1_555
Cl9 C7 1_555 1_555
Cl10 C58 1_555 1_555
Cl11 C44 1_555 1_555
Cl12 C56 1_555 1_555
C1 C5 1_555 1_555
C2 C3 1_555 1_555
C3 C29 1_555 1_555
C4 C16 1_555 1_555
C5 C14 1_555 1_555
C6 C19 1_555 1_555
C7 C18 1_555 1_555
C8 C12 1_555 1_555
C9 C36 1_555 1_555
C10 C18 1_555 1_555
C11 C20 1_555 1_555
C12 C23 1_555 1_555
C13 C8 1_555 1_555
C14 C23 1_555 1_555
C15 C19 1_555 1_555
C16 C2 1_555 1_555
C17 C1 1_555 1_555
C18 C38 1_555 1_555
C19 C46 1_555 1_555
C20 C8 1_555 1_555
C21 C22 1_555 1_555
C22 C15 1_555 1_555
C23 C28 1_555 1_555
C24 C2 1_555 1_555
C25 C11 1_555 1_555
C26 C4 1_555 1_555
C27 C6 1_555 1_555
C28 C17 1_555 1_555
C29 C26 1_555 1_555
C30 C14 1_555 1_555
C31 C4 1_555 1_555
C32 C5 1_555 1_555
C33 C10 1_555 1_555
C34 C30 1_555 1_555
C35 C12 1_555 1_555
C36 C3 1_555 1_555
C37 C16 1_555 1_555
C38 C48 1_555 1_555
C39 C6 1_555 1_555
C40 C36 1_555 1_555
C41 C24 1_555 1_555
C42 C7 1_555 1_555
C43 C9 1_555 1_555
C44 C15 1_555 1_555
C45 C27 1_555 1_555
C46 C55 1_555 1_555
C47 C35 1_555 1_555
C48 C30 1_555 1_555
C49 C56 1_555 1_555
C50 C13 1_555 1_555
C51 C22 1_555 1_555
C52 C31 1_555 1_555
C53 C42 1_555 1_555
C54 C1 1_555 1_555
C55 C45 1_555 1_555
C56 C25 1_555 1_555
C57 C44 1_555 1_555
C58 C34 1_555 1_555
C59 C11 1_555 1_555
C60 C13 1_555 1_555
C7 C39 1_555 1_555
C9 C54 1_555 1_555
C10 C31 1_555 1_555
C17 C43 1_555 1_555
C20 C28 1_555 1_555
C21 C33 1_555 1_555
C21 C39 1_555 1_555
C24 C51 1_555 1_555
C25 C43 1_555 1_555
C26 C32 1_555 1_555
C27 C42 1_555 1_555
C29 C54 1_555 1_555
C32 C52 1_555 1_555
C33 C37 1_555 1_555
C34 C35 1_555 1_555
C37 C51 1_555 1_555
C38 C58 1_555 1_555
C40 C41 1_555 1_555
C40 C56 1_555 1_555
C41 C44 1_555 1_555
C45 C50 1_555 1_555
C46 C57 1_555 1_555
C47 C50 1_555 1_555
C47 C53 1_555 1_555
C48 C52 1_555 1_555
C49 C57 1_555 1_555
C49 C59 1_555 1_555
C53 C58 1_555 1_555
C55 C60 1_555 1_555
C59 C60 1_555 1_555

#END
