
#######################################################################
#
#                 Cambridge Crystallographic Data Centre
#                                CCDC 
#
#######################################################################
#
# If this CIF has been generated from an entry in the Cambridge 
# Structural Database, then it will include bibliographic, chemical, 
# crystal, experimental, refinement or atomic coordinate data resulting 
# from the CCDC's data processing and validation procedures.
#
#######################################################################

data_AGATIN01
_chemical_name_common            
N'-(4-bromobenzylidene)pyrazine-2-carbohydrazide
_chemical_formula_moiety         'C12 H9 Br1 N4 O1'
_chemical_name_systematic        
'4-Bromobenzaldehyde (pyrazin-2-ylcarbonyl)hydrazone'
_symmetry_cell_setting           triclinic
_symmetry_space_group_name_H-M   'P -1'
_symmetry_Int_Tables_number      2
_space_group_name_Hall           '-P 1'
loop_
_symmetry_equiv_pos_site_id
_symmetry_equiv_pos_as_xyz
1 x,y,z
2 -x,-y,-z
_cell_length_a                   5.9219(6)
_cell_length_b                   7.4790(9)
_cell_length_c                   14.3584(16)
_cell_angle_alpha                81.576(5)
_cell_angle_beta                 79.098(7)
_cell_angle_gamma                69.255(6)
_cell_volume                     581.776
_exptl_crystal_colour            colorless
_exptl_crystal_description       needle
_cell_formula_units_Z            2
loop_
_atom_site_label
_atom_site_type_symbol
_atom_site_fract_x
_atom_site_fract_y
_atom_site_fract_z
Br1 Br 0.85132(9) -0.23418(8) 0.97359(4)
O1 O 0.0315(6) 0.3210(5) 0.4533(2)
N1 N 0.0660(7) 0.6091(5) 0.1818(3)
N2 N 0.4672(7) 0.4633(5) 0.2810(3)
N3 N 0.4228(7) 0.3013(5) 0.4599(3)
H1 H 0.5518 0.3281 0.4291
N4 N 0.4305(7) 0.2087(5) 0.5504(3)
C1 C 0.2460(8) 0.4508(6) 0.3206(3)
C2 C 0.0493(8) 0.5244(7) 0.2697(3)
H2 H -0.1036 0.5136 0.2992
C3 C 0.2846(8) 0.6193(7) 0.1441(3)
H3 H 0.3055 0.6768 0.0810
C4 C 0.4825(8) 0.5498(7) 0.1928(3)
H4 H 0.6335 0.5637 0.1629
C5 C 0.2205(8) 0.3515(6) 0.4181(3)
C6 C 0.6401(8) 0.1578(6) 0.5777(3)
H5 H 0.7710 0.1838 0.5353
C7 C 0.6835(8) 0.0615(7) 0.6717(3)
C8 C 0.4954(8) 0.0382(6) 0.7427(3)
H6 H 0.3322 0.0848 0.7296
C9 C 0.5439(8) -0.0515(6) 0.8317(3)
H7 H 0.4155 -0.0676 0.8792
C10 C 0.7816(8) -0.1175(6) 0.8507(3)
C11 C 0.9716(8) -0.0984(7) 0.7821(3)
H8 H 1.1346 -0.1482 0.7955
C12 C 0.9225(8) -0.0057(6) 0.6932(3)
H9 H 1.0517 0.0124 0.6467
loop_
_geom_bond_atom_site_label_1
_geom_bond_atom_site_label_2
_geom_bond_site_symmetry_1
_geom_bond_site_symmetry_2
Br1 C10 1_555 1_555
O1 C5 1_555 1_555
N1 C2 1_555 1_555
N2 C1 1_555 1_555
N3 H1 1_555 1_555
N4 N3 1_555 1_555
C1 C2 1_555 1_555
C2 H2 1_555 1_555
C3 N1 1_555 1_555
H3 C3 1_555 1_555
C4 N2 1_555 1_555
H4 C4 1_555 1_555
C5 N3 1_555 1_555
C6 N4 1_555 1_555
H5 C6 1_555 1_555
C7 C6 1_555 1_555
C8 C7 1_555 1_555
H6 C8 1_555 1_555
C9 C8 1_555 1_555
H7 C9 1_555 1_555
C10 C9 1_555 1_555
C11 C10 1_555 1_555
H8 C11 1_555 1_555
C12 C7 1_555 1_555
H9 C12 1_555 1_555
C1 C5 1_555 1_555
C3 C4 1_555 1_555
C11 C12 1_555 1_555

#END
