
#######################################################################
#
#                 Cambridge Crystallographic Data Centre
#                                CCDC 
#
#######################################################################
#
# If this CIF has been generated from an entry in the Cambridge 
# Structural Database, then it will include bibliographic, chemical, 
# crystal, experimental, refinement or atomic coordinate data resulting 
# from the CCDC's data processing and validation procedures.
#
#######################################################################

data_AGATUA
_chemical_formula_moiety         'C12 H12 F3 N1 O1'
_chemical_name_systematic        
N-(1-(4-(trifluoromethyl)phenyl)ethyl)prop-2-enamide
_symmetry_cell_setting           monoclinic
_symmetry_space_group_name_H-M   'P 21/c'
_symmetry_Int_Tables_number      14
_space_group_name_Hall           '-P 2ybc'
loop_
_symmetry_equiv_pos_site_id
_symmetry_equiv_pos_as_xyz
1 x,y,z
2 -x,1/2+y,1/2-z
3 -x,-y,-z
4 x,1/2-y,1/2+z
_cell_length_a                   12.2177(11)
_cell_length_b                   10.8151(10)
_cell_length_c                   9.4366(8)
_cell_angle_alpha                90
_cell_angle_beta                 98.147(8)
_cell_angle_gamma                90
_cell_volume                     1234.33
_exptl_crystal_colour            colorless
_exptl_crystal_description       block
_cell_formula_units_Z            4
loop_
_atom_site_label
_atom_site_type_symbol
_atom_site_fract_x
_atom_site_fract_y
_atom_site_fract_z
C1 C 0.8265(4) 0.0755(4) 0.4410(4)
H1 H 0.8038 -0.0037 0.4116
C2 C 0.9255(4) 0.1204(4) 0.4074(5)
H2 H 0.9685 0.0716 0.3558
C3 C 0.9602(4) 0.2364(4) 0.4499(4)
C4 C 0.8955(4) 0.3063(4) 0.5252(5)
H3 H 0.9178 0.3858 0.5535
C5 C 0.7973(4) 0.2606(4) 0.5598(5)
H4 H 0.7552 0.3089 0.6133
C6 C 0.7610(3) 0.1451(4) 0.5166(3)
C7 C 1.0641(5) 0.2867(6) 0.4132(7)
C8 C 0.6559(3) 0.0920(4) 0.5588(4)
H5 H 0.6290 0.0275 0.4895
C9 C 0.5176(3) 0.2323(4) 0.4363(4)
C10 C 0.4353(4) 0.3302(5) 0.4547(5)
H6 H 0.4276 0.3552 0.5471
C11 C 0.3740(5) 0.3818(7) 0.3487(6)
H7 H 0.3802 0.3583 0.2554
H8 H 0.3236 0.4427 0.3655
C12 C 0.6761(5) 0.0330(5) 0.7071(5)
H9 H 0.6080 -0.0002 0.7304
H10 H 0.7038 0.0943 0.7766
H11 H 0.7293 -0.0324 0.7074
N1 N 0.5696(3) 0.1849(3) 0.5570(3)
H12 H 0.5516 0.2099 0.6371
O1 O 0.5368(2) 0.1971(3) 0.3182(2)
F1 F 1.0534(4) 0.3749(5) 0.3228(6)
F2 F 1.1224(5) 0.2105(4) 0.3521(9)
F3 F 1.1254(4) 0.3332(8) 0.5173(5)
loop_
_geom_bond_atom_site_label_1
_geom_bond_atom_site_label_2
_geom_bond_site_symmetry_1
_geom_bond_site_symmetry_2
C1 H1 1_555 1_555
C2 C1 1_555 1_555
H2 C2 1_555 1_555
C3 C2 1_555 1_555
C4 C3 1_555 1_555
H3 C4 1_555 1_555
C5 C4 1_555 1_555
H4 C5 1_555 1_555
C6 C1 1_555 1_555
C7 C3 1_555 1_555
C8 C6 1_555 1_555
H5 C8 1_555 1_555
C9 C10 1_555 1_555
C10 H6 1_555 1_555
C11 C10 1_555 1_555
H7 C11 1_555 1_555
H8 C11 1_555 1_555
C12 C8 1_555 1_555
H9 C12 1_555 1_555
H10 C12 1_555 1_555
H11 C12 1_555 1_555
N1 C8 1_555 1_555
H12 N1 1_555 1_555
O1 C9 1_555 1_555
F1 C7 1_555 1_555
F2 C7 1_555 1_555
F3 C7 1_555 1_555
C5 C6 1_555 1_555
C9 N1 1_555 1_555

#END
