
#######################################################################
#
#                 Cambridge Crystallographic Data Centre
#                                CCDC 
#
#######################################################################
#
# If this CIF has been generated from an entry in the Cambridge 
# Structural Database, then it will include bibliographic, chemical, 
# crystal, experimental, refinement or atomic coordinate data resulting 
# from the CCDC's data processing and validation procedures.
#
#######################################################################

data_AGATEK
_chemical_formula_moiety         'C32 H26 F1 N3 O3 S1'
_chemical_name_systematic        
(9R,14aR)-9(9-ethynyl-11-fluoro-14-((4-methylphenyl)sulfonyl)-5,9,14,14a-tetrahydroisoquinolino[1,2-b][1,3,4]benzotriazepin-8(6H)-yl)(phenyl)methanone
_symmetry_cell_setting           orthorhombic
_symmetry_space_group_name_H-M   'P 21 21 21'
_symmetry_Int_Tables_number      19
_space_group_name_Hall           'P 2ac 2ab'
loop_
_symmetry_equiv_pos_site_id
_symmetry_equiv_pos_as_xyz
1 x,y,z
2 1/2-x,-y,1/2+z
3 1/2+x,1/2-y,-z
4 -x,1/2+y,1/2-z
_cell_length_a                   9.2067(4)
_cell_length_b                   9.7073(4)
_cell_length_c                   30.8732(11)
_cell_angle_alpha                90
_cell_angle_beta                 90
_cell_angle_gamma                90
_cell_volume                     2759.21
_exptl_crystal_colour            colorless
_exptl_crystal_description       block
_cell_formula_units_Z            4
loop_
_atom_site_label
_atom_site_type_symbol
_atom_site_fract_x
_atom_site_fract_y
_atom_site_fract_z
S1 S 0.75638(10) 0.35145(8) 0.08379(2)
F1 F 1.3528(2) 0.6646(3) 0.03271(7)
O1 O 0.9792(3) 0.2159(2) 0.19681(7)
O2 O 0.6195(3) 0.3387(2) 0.10536(7)
O3 O 0.8613(3) 0.2434(2) 0.08818(8)
N1 N 0.8246(3) 0.5007(3) 0.09914(7)
N2 N 0.9001(3) 0.5618(3) 0.17249(8)
N3 N 0.9701(3) 0.4348(3) 0.17303(8)
C1 C 0.7828(4) 0.5673(3) 0.14042(9)
H1 H 0.7000 0.5163 0.1523
C2 C 0.7334(4) 0.7140(3) 0.13235(8)
C3 C 0.6226(4) 0.7338(4) 0.10223(10)
H2 H 0.5805 0.6581 0.0887
C4 C 0.5751(4) 0.8646(4) 0.09227(11)
H3 H 0.4996 0.8767 0.0726
C5 C 0.6388(5) 0.9767(4) 0.11123(11)
H4 H 0.6087 1.0650 0.1038
C6 C 0.7476(5) 0.9586(3) 0.14138(11)
H5 H 0.7912 1.0350 0.1541
C7 C 0.7925(4) 0.8269(3) 0.15280(9)
C8 C 0.9039(4) 0.8071(4) 0.18789(11)
H6 H 0.8553 0.7984 0.2156
H7 H 0.9665 0.8874 0.1892
C9 C 0.9953(4) 0.6799(3) 0.17976(11)
H8 H 1.0566 0.6943 0.1546
H9 H 1.0574 0.6625 0.2045
C10 C 0.9639(3) 0.5378(3) 0.08230(9)
C11 C 0.9673(4) 0.6233(3) 0.04606(9)
H10 H 0.8809 0.6526 0.0335
C12 C 1.0986(4) 0.6647(4) 0.02875(10)
H11 H 1.1026 0.7197 0.0041
C13 C 1.2218(4) 0.6223(4) 0.04906(11)
C14 C 1.2233(4) 0.5402(4) 0.08539(11)
H12 H 1.3106 0.5141 0.0982
C15 C 1.0916(4) 0.4972(3) 0.10250(9)
C16 C 1.0897(4) 0.4017(4) 0.14219(10)
H13 H 1.0726 0.3079 0.1316
C17 C 1.2299(5) 0.4006(5) 0.16525(12)
C18 C 1.3405(6) 0.3939(5) 0.18299(16)
H14 H 1.4293 0.3886 0.1972
C19 C 0.9230(4) 0.3304(4) 0.19946(10)
C20 C 0.8007(4) 0.3571(4) 0.23024(9)
C21 C 0.7885(5) 0.4741(4) 0.25589(10)
H15 H 0.8552 0.5455 0.2530
C22 C 0.6775(6) 0.4846(5) 0.28568(12)
H16 H 0.6701 0.5629 0.3029
C23 C 0.5779(6) 0.3804(6) 0.29018(13)
H17 H 0.5027 0.3885 0.3101
C24 C 0.5901(5) 0.2649(6) 0.26517(12)
H18 H 0.5223 0.1944 0.2681
C25 C 0.7018(4) 0.2515(4) 0.23561(11)
H19 H 0.7105 0.1713 0.2193
C26 C 0.6044(4) 0.4426(4) 0.01405(12)
H20 H 0.5341 0.4700 0.0339
C27 C 0.5856(5) 0.4695(4) -0.02962(12)
H21 H 0.5018 0.5143 -0.0388
C28 C 0.6874(6) 0.4316(4) -0.05956(13)
C29 C 0.8082(5) 0.3599(5) -0.04521(12)
H22 H 0.8765 0.3298 -0.0653
C30 C 0.8299(4) 0.3318(4) -0.00138(10)
H23 H 0.9122 0.2845 0.0078
C31 C 0.7275(4) 0.3752(3) 0.02811(9)
C32 C 0.6698(7) 0.4703(5) -0.10670(12)
H24 H 0.5690 0.4663 -0.1144
H25 H 0.7238 0.4070 -0.1244
H26 H 0.7057 0.5620 -0.1112
loop_
_geom_bond_atom_site_label_1
_geom_bond_atom_site_label_2
_geom_bond_site_symmetry_1
_geom_bond_site_symmetry_2
S1 O2 1_555 1_555
F1 C13 1_555 1_555
O1 C19 1_555 1_555
O3 S1 1_555 1_555
N1 S1 1_555 1_555
N2 N3 1_555 1_555
N3 C16 1_555 1_555
C1 N1 1_555 1_555
H1 C1 1_555 1_555
C2 C1 1_555 1_555
C3 C2 1_555 1_555
H2 C3 1_555 1_555
C4 C3 1_555 1_555
H3 C4 1_555 1_555
C5 C4 1_555 1_555
H4 C5 1_555 1_555
C6 C5 1_555 1_555
H5 C6 1_555 1_555
C7 C2 1_555 1_555
C8 C7 1_555 1_555
H6 C8 1_555 1_555
H7 C8 1_555 1_555
C9 N2 1_555 1_555
H8 C9 1_555 1_555
H9 C9 1_555 1_555
C10 N1 1_555 1_555
C11 C10 1_555 1_555
H10 C11 1_555 1_555
C12 C11 1_555 1_555
H11 C12 1_555 1_555
C13 C12 1_555 1_555
C14 C13 1_555 1_555
H12 C14 1_555 1_555
C15 C10 1_555 1_555
C16 C15 1_555 1_555
H13 C16 1_555 1_555
C17 C16 1_555 1_555
C18 C17 1_555 1_555
H14 C18 1_555 1_555
C19 N3 1_555 1_555
C20 C19 1_555 1_555
C21 C20 1_555 1_555
H15 C21 1_555 1_555
C22 C21 1_555 1_555
H16 C22 1_555 1_555
C23 C22 1_555 1_555
H17 C23 1_555 1_555
C24 C23 1_555 1_555
H18 C24 1_555 1_555
C25 C20 1_555 1_555
H19 C25 1_555 1_555
C26 H20 1_555 1_555
C27 C26 1_555 1_555
H21 C27 1_555 1_555
C28 C27 1_555 1_555
C29 C28 1_555 1_555
H22 C29 1_555 1_555
C30 C29 1_555 1_555
H23 C30 1_555 1_555
C31 S1 1_555 1_555
C32 C28 1_555 1_555
H24 C32 1_555 1_555
H25 C32 1_555 1_555
H26 C32 1_555 1_555
N2 C1 1_555 1_555
C6 C7 1_555 1_555
C8 C9 1_555 1_555
C14 C15 1_555 1_555
C24 C25 1_555 1_555
C26 C31 1_555 1_555
C30 C31 1_555 1_555

#END
