
#######################################################################
#
#                 Cambridge Crystallographic Data Centre
#                                CCDC 
#
#######################################################################
#
# If this CIF has been generated from an entry in the Cambridge 
# Structural Database, then it will include bibliographic, chemical, 
# crystal, experimental, refinement or atomic coordinate data resulting 
# from the CCDC's data processing and validation procedures.
#
#######################################################################

data_AGAVUC
_chemical_compound_source        'Chinese liverwort Plagiochila duthiana'
_chemical_name_common            'plagiochianin A'
_chemical_formula_moiety         'C16 H20 O6'
_chemical_name_systematic        
'methyl (3aS,5R,5aS,6aR,7R,8aS,8bR,8cR)-7-hydroxy-8,8-dimethyl-3a,5a,6,7,8,8a,8b,8c-octahydro-5H-5,6a-epoxycyclobuta[f]furo[4,3,2-ij][2]benzopyran-1-carboxylate'
_chemical_properties_biological  
'acetylcholinesterase (AChE) inhibitory activity'
_symmetry_cell_setting           trigonal
_symmetry_space_group_name_H-M   'P 31'
_symmetry_Int_Tables_number      144
_space_group_name_Hall           'P 31'
loop_
_symmetry_equiv_pos_site_id
_symmetry_equiv_pos_as_xyz
1 x,y,z
2 -y,x-y,1/3+z
3 -x+y,-x,2/3+z
_cell_length_a                   14.8217(6)
_cell_length_b                   14.8217(6)
_cell_length_c                   5.6920(5)
_cell_angle_alpha                90
_cell_angle_beta                 90
_cell_angle_gamma                120
_cell_volume                     1082.91
_exptl_crystal_colour            colorless
_exptl_crystal_description       block
_chemical_melting_point          '191-192 deg.C'
_cell_formula_units_Z            3
_exptl_crystal_recrystallization_method ethanol
loop_
_atom_site_label
_atom_site_type_symbol
_atom_site_fract_x
_atom_site_fract_y
_atom_site_fract_z
O1 O 0.11777(16) 0.25488(15) 0.1829(4)
O2 O 0.21548(17) 0.43181(16) 0.0923(4)
O3 O 0.08284(15) 0.05257(16) 0.5448(4)
H1 H 0.0465 0.0715 0.6134
O4 O 0.3836(2) 0.55555(19) 0.1740(4)
O5 O 0.49240(18) 0.4166(2) 0.7839(5)
O6 O 0.60973(19) 0.5186(2) 0.5151(6)
C1 C 0.1584(2) 0.2385(2) 0.3991(5)
C2 C 0.1073(2) 0.2727(2) 0.5827(5)
H2 H 0.1371 0.2791 0.7378
H3 H 0.0324 0.2271 0.5890
C3 C 0.2779(2) 0.2993(2) 0.4213(5)
H4 H 0.3089 0.3115 0.2642
C4 C 0.1241(2) 0.3525(2) 0.2096(6)
H5 H 0.0611 0.3505 0.1496
C5 C 0.2792(3) 0.5090(2) 0.2567(6)
H6 H 0.2588 0.5626 0.2591
C6 C 0.3215(2) 0.4044(2) 0.5511(5)
H7 H 0.3197 0.3919 0.7206
C7 C 0.1613(2) 0.1371(2) 0.4157(5)
H8 H 0.1666 0.1137 0.2578
C8 C 0.2724(2) 0.1990(2) 0.5290(5)
C9 C 0.3539(2) 0.1739(2) 0.4334(6)
H9 H 0.3528 0.1747 0.2648
H10 H 0.3382 0.1062 0.4870
H11 H 0.4217 0.2251 0.4884
C10 C 0.4531(3) 0.5399(2) 0.2941(6)
H12 H 0.5220 0.5769 0.2441
C11 C 0.5215(3) 0.4744(2) 0.5875(6)
C12 C 0.2684(2) 0.1901(2) 0.7949(5)
H13 H 0.3367 0.2343 0.8583
H14 H 0.2445 0.1192 0.8392
H15 H 0.2213 0.2113 0.8556
C13 C 0.4325(2) 0.4764(2) 0.4783(6)
C14 C 0.2563(3) 0.4574(2) 0.4976(5)
H16 H 0.2679 0.5086 0.6199
C15 C 0.1382(2) 0.3784(2) 0.4736(6)
H17 H 0.0947 0.4067 0.5291
C16 C 0.5715(3) 0.4054(4) 0.9064(9)
H18 H 0.5971 0.3710 0.8062
H19 H 0.5422 0.3647 1.0460
H20 H 0.6279 0.4729 0.9483
loop_
_geom_bond_atom_site_label_1
_geom_bond_atom_site_label_2
_geom_bond_site_symmetry_1
_geom_bond_site_symmetry_2
O1 C1 1_555 1_555
O2 C4 1_555 1_555
O3 H1 1_555 1_555
O4 C5 1_555 1_555
O5 C11 1_555 1_555
O6 C11 1_555 1_555
C1 C2 1_555 1_555
C2 H2 1_555 1_555
H3 C2 1_555 1_555
C3 C1 1_555 1_555
H4 C3 1_555 1_555
C4 O1 1_555 1_555
H5 C4 1_555 1_555
C5 O2 1_555 1_555
H6 C5 1_555 1_555
C6 C3 1_555 1_555
H7 C6 1_555 1_555
C7 O3 1_555 1_555
H8 C7 1_555 1_555
C8 C3 1_555 1_555
C9 C8 1_555 1_555
H9 C9 1_555 1_555
H10 C9 1_555 1_555
H11 C9 1_555 1_555
C10 O4 1_555 1_555
H12 C10 1_555 1_555
C11 C13 1_555 1_555
C12 C8 1_555 1_555
H13 C12 1_555 1_555
H14 C12 1_555 1_555
H15 C12 1_555 1_555
C13 C6 1_555 1_555
C14 C5 1_555 1_555
H16 C14 1_555 1_555
C15 C2 1_555 1_555
H17 C15 1_555 1_555
C16 O5 1_555 1_555
H18 C16 1_555 1_555
H19 C16 1_555 1_555
H20 C16 1_555 1_555
C1 C7 1_555 1_555
C4 C15 1_555 1_555
C6 C14 1_555 1_555
C7 C8 1_555 1_555
C10 C13 1_555 1_555
C14 C15 1_555 1_555

#END
