
#######################################################################
#
#                 Cambridge Crystallographic Data Centre
#                                CCDC 
#
#######################################################################
#
# If this CIF has been generated from an entry in the Cambridge 
# Structural Database, then it will include bibliographic, chemical, 
# crystal, experimental, refinement or atomic coordinate data resulting 
# from the CCDC's data processing and validation procedures.
#
#######################################################################

data_AGAVAG
_chemical_formula_moiety         'C21 H31 F1 O3'
_chemical_name_systematic        3\b-Acetoxy-12\b-fluoro-5\a-androstan-17-one
_symmetry_cell_setting           monoclinic
_symmetry_space_group_name_H-M   'P 21'
_symmetry_Int_Tables_number      4
_space_group_name_Hall           'P 2yb'
loop_
_symmetry_equiv_pos_site_id
_symmetry_equiv_pos_as_xyz
1 x,y,z
2 -x,1/2+y,-z
_cell_length_a                   14.5966(5)
_cell_length_b                   7.5825(4)
_cell_length_c                   17.6469(9)
_cell_angle_alpha                90
_cell_angle_beta                 106.84(2)
_cell_angle_gamma                90
_cell_volume                     1869.38
_exptl_crystal_colour            colorless
_cell_formula_units_Z            4
loop_
_atom_site_label
_atom_site_type_symbol
_atom_site_fract_x
_atom_site_fract_y
_atom_site_fract_z
F1 F 0.39113(10) -0.2842(2) 0.37779(7)
O1 O 0.31154(8) -0.23274(19) -0.14619(7)
O2 O 0.18178(9) -0.0814(2) -0.21662(7)
O3 O 0.38050(9) 0.0588(2) 0.47138(7)
C1 C 0.31731(12) -0.2795(2) 0.06807(9)
H1 H 0.2518 -0.2430 0.0669
H2 H 0.3346 -0.3835 0.1032
C2 C 0.31821(12) -0.3329(2) -0.01604(10)
H3 H 0.3816 -0.3823 -0.0142
H4 H 0.2695 -0.4255 -0.0364
C3 C 0.29703(11) -0.1757(3) -0.07130(9)
H5 H 0.2290 -0.1380 -0.0806
C4 C 0.36323(11) -0.0211(2) -0.03949(9)
H6 H 0.4295 -0.0533 -0.0379
H7 H 0.3438 0.0814 -0.0753
C5 C 0.36042(11) 0.0288(2) 0.04394(9)
H8 H 0.2925 0.0601 0.0396
C6 C 0.42037(12) 0.1936(2) 0.07418(9)
H9 H 0.4882 0.1685 0.0784
H10 H 0.3988 0.2910 0.0358
C7 C 0.41239(12) 0.2512(2) 0.15508(9)
H11 H 0.3467 0.2947 0.1491
H12 H 0.4573 0.3498 0.1751
C8 C 0.43513(11) 0.1002(2) 0.21518(9)
H13 H 0.5041 0.0676 0.2261
C9 C 0.37353(11) -0.0641(2) 0.18268(9)
H14 H 0.3053 -0.0254 0.1705
C10 C 0.38733(11) -0.1277(2) 0.10270(9)
C11 C 0.38750(13) -0.2097(2) 0.24564(10)
H15 H 0.4527 -0.2593 0.2560
H16 H 0.3412 -0.3058 0.2246
C12 C 0.37425(13) -0.1448(3) 0.32395(9)
H17 H 0.3073 -0.1049 0.3142
C13 C 0.43986(11) 0.0096(3) 0.35650(9)
C14 C 0.41767(11) 0.1559(2) 0.29271(9)
H18 H 0.3476 0.1805 0.2803
C15 C 0.46897(14) 0.3187(3) 0.33700(10)
H19 H 0.5382 0.3155 0.3417
H20 H 0.4411 0.4292 0.3101
C16 C 0.45135(14) 0.3023(3) 0.41879(10)
H21 H 0.4012 0.3860 0.4233
H22 H 0.5108 0.3274 0.4616
C17 C 0.41936(11) 0.1131(3) 0.42416(9)
C18 C 0.54575(12) -0.0463(3) 0.38325(10)
H23 H 0.5667 -0.0783 0.3371
H24 H 0.5847 0.0520 0.4113
H25 H 0.5533 -0.1480 0.4188
C19 C 0.49132(11) -0.1916(3) 0.11464(9)
H26 H 0.5002 -0.2233 0.0634
H27 H 0.5359 -0.0969 0.1389
H28 H 0.5037 -0.2950 0.1495
C20 C 0.25067(11) -0.1712(3) -0.21376(10)
C21 C 0.28046(14) -0.2290(3) -0.28451(11)
H29 H 0.3134 -0.1317 -0.3023
H30 H 0.3238 -0.3301 -0.2700
H31 H 0.2237 -0.2629 -0.3273
F5 F 0.02424(10) -0.1639(2) 0.16953(7)
O4 O 0.17990(9) 0.3447(2) 0.65043(7)
O5 O 0.31450(9) 0.2060(2) 0.71948(8)
O6 O 0.10556(9) -0.0123(2) 0.03814(8)
C22 C 0.13547(12) 0.0837(2) 0.45957(10)
H32 H 0.2011 0.0486 0.4606
H33 H 0.0929 -0.0187 0.4407
C23 C 0.13504(12) 0.1307(3) 0.54448(9)
H34 H 0.0683 0.1519 0.5448
H35 H 0.1603 0.0299 0.5800
C24 C 0.19528(12) 0.2930(3) 0.57497(9)
H36 H 0.2645 0.2660 0.5830
C25 C 0.16570(13) 0.4488(3) 0.51945(10)
H37 H 0.0998 0.4852 0.5170
H38 H 0.2089 0.5497 0.5395
C26 C 0.16897(12) 0.3984(2) 0.43567(9)
H39 H 0.2361 0.3595 0.4413
C27 C 0.15016(14) 0.5575(3) 0.38047(11)
H40 H 0.0840 0.6000 0.3729
H41 H 0.1946 0.6541 0.4047
C28 C 0.16344(13) 0.5097(3) 0.29993(10)
H42 H 0.1468 0.6127 0.2641
H43 H 0.2314 0.4804 0.3069
C29 C 0.10109(12) 0.3515(2) 0.26235(9)
H44 H 0.0323 0.3863 0.2501
C30 C 0.12017(11) 0.1927(2) 0.31998(9)
H45 H 0.1897 0.1639 0.3315
C31 C 0.10318(11) 0.2387(2) 0.40098(9)
C32 C 0.06429(12) 0.0278(2) 0.28029(10)
H46 H -0.0050 0.0478 0.2714
H47 H 0.0834 -0.0736 0.3168
C33 C 0.08126(12) -0.0185(2) 0.20150(10)
H48 H 0.1500 -0.0520 0.2117
C34 C 0.05989(11) 0.1364(3) 0.14520(9)
C35 C 0.12120(11) 0.2952(2) 0.18586(9)
H49 H 0.1892 0.2540 0.2016
C36 C 0.11156(13) 0.4275(3) 0.11820(10)
H50 H 0.0506 0.4937 0.1068
H51 H 0.1655 0.5121 0.1311
C37 C 0.11440(13) 0.3079(3) 0.04792(10)
H52 H 0.1779 0.3133 0.0384
H53 H 0.0650 0.3453 -0.0008
C38 C 0.09413(11) 0.1228(3) 0.07134(9)
C39 C -0.04817(11) 0.1771(3) 0.11624(10)
H54 H -0.0838 0.0678 0.0987
H55 H -0.0686 0.2291 0.1595
H56 H -0.0607 0.2604 0.0720
C40 C -0.00328(11) 0.2770(3) 0.39051(10)
H57 H -0.0114 0.3175 0.4409
H58 H -0.0255 0.3688 0.3503
H59 H -0.0407 0.1692 0.3737
C41 C 0.24349(12) 0.2884(3) 0.71740(10)
C42 C 0.21303(15) 0.3427(3) 0.78883(11)
H60 H 0.2694 0.3494 0.8352
H61 H 0.1818 0.4583 0.7794
H62 H 0.1681 0.2553 0.7984
F2? F 0.2883(9) -0.1178(19) 0.3161(7)
F3? F 0.3894(9) 0.323(2) 0.0217(8)
F4? F 0.2669(11) -0.481(2) -0.0382(9)
F6? F 0.1679(7) -0.0788(16) 0.2108(6)
F7? F 0.2098(19) 0.694(4) 0.4132(16)
F8? F 0.1746(18) -0.020(4) 0.5812(15)
loop_
_geom_bond_atom_site_label_1
_geom_bond_atom_site_label_2
_geom_bond_site_symmetry_1
_geom_bond_site_symmetry_2
F1 C12 1_555 1_555
O1 C3 1_555 1_555
O2 C20 1_555 1_555
O3 C17 1_555 1_555
C1 H1 1_555 1_555
H2 C1 1_555 1_555
C2 C1 1_555 1_555
H3 C2 1_555 1_555
H4 C2 1_555 1_555
C3 C2 1_555 1_555
H5 C3 1_555 1_555
C4 C3 1_555 1_555
H6 C4 1_555 1_555
H7 C4 1_555 1_555
C5 C4 1_555 1_555
H8 C5 1_555 1_555
C6 C5 1_555 1_555
H9 C6 1_555 1_555
H10 C6 1_555 1_555
C7 C6 1_555 1_555
H11 C7 1_555 1_555
H12 C7 1_555 1_555
C8 C7 1_555 1_555
H13 C8 1_555 1_555
C9 C8 1_555 1_555
H14 C9 1_555 1_555
C10 C1 1_555 1_555
C11 C9 1_555 1_555
H15 C11 1_555 1_555
H16 C11 1_555 1_555
C12 C11 1_555 1_555
H17 C12 1_555 1_555
C13 C12 1_555 1_555
C14 C8 1_555 1_555
H18 C14 1_555 1_555
C15 C14 1_555 1_555
H19 C15 1_555 1_555
H20 C15 1_555 1_555
C16 C15 1_555 1_555
H21 C16 1_555 1_555
H22 C16 1_555 1_555
C17 C13 1_555 1_555
C18 C13 1_555 1_555
H23 C18 1_555 1_555
H24 C18 1_555 1_555
H25 C18 1_555 1_555
C19 C10 1_555 1_555
H26 C19 1_555 1_555
H27 C19 1_555 1_555
H28 C19 1_555 1_555
C20 O1 1_555 1_555
C21 C20 1_555 1_555
H29 C21 1_555 1_555
H30 C21 1_555 1_555
H31 C21 1_555 1_555
F5 C33 1_555 1_555
O4 C24 1_555 1_555
O5 C41 1_555 1_555
O6 C38 1_555 1_555
C22 H32 1_555 1_555
H33 C22 1_555 1_555
C23 C22 1_555 1_555
H34 C23 1_555 1_555
H35 C23 1_555 1_555
C24 C23 1_555 1_555
H36 C24 1_555 1_555
C25 C24 1_555 1_555
H37 C25 1_555 1_555
H38 C25 1_555 1_555
C26 C25 1_555 1_555
H39 C26 1_555 1_555
C27 C26 1_555 1_555
H40 C27 1_555 1_555
H41 C27 1_555 1_555
C28 C27 1_555 1_555
H42 C28 1_555 1_555
H43 C28 1_555 1_555
C29 C28 1_555 1_555
H44 C29 1_555 1_555
C30 C29 1_555 1_555
H45 C30 1_555 1_555
C31 C22 1_555 1_555
C32 C30 1_555 1_555
H46 C32 1_555 1_555
H47 C32 1_555 1_555
C33 C32 1_555 1_555
H48 C33 1_555 1_555
C34 C33 1_555 1_555
C35 C29 1_555 1_555
H49 C35 1_555 1_555
C36 C35 1_555 1_555
H50 C36 1_555 1_555
H51 C36 1_555 1_555
C37 C36 1_555 1_555
H52 C37 1_555 1_555
H53 C37 1_555 1_555
C38 C34 1_555 1_555
C39 C34 1_555 1_555
H54 C39 1_555 1_555
H55 C39 1_555 1_555
H56 C39 1_555 1_555
C40 C31 1_555 1_555
H57 C40 1_555 1_555
H58 C40 1_555 1_555
H59 C40 1_555 1_555
C41 O4 1_555 1_555
C42 C41 1_555 1_555
H60 C42 1_555 1_555
H61 C42 1_555 1_555
H62 C42 1_555 1_555
C5 C10 1_555 1_555
C9 C10 1_555 1_555
C13 C14 1_555 1_555
C16 C17 1_555 1_555
C26 C31 1_555 1_555
C30 C31 1_555 1_555
C34 C35 1_555 1_555
C37 C38 1_555 1_555

#END
