
#######################################################################
#
#                 Cambridge Crystallographic Data Centre
#                                CCDC 
#
#######################################################################
#
# If this CIF has been generated from an entry in the Cambridge 
# Structural Database, then it will include bibliographic, chemical, 
# crystal, experimental, refinement or atomic coordinate data resulting 
# from the CCDC's data processing and validation procedures.
#
#######################################################################

data_AGAXAJ
_chemical_name_common            4-Formyltetrathiafulvalene
_chemical_formula_moiety         'C7 H4 O1 S4'
_chemical_name_systematic        
2-(1,3-Dithiol-2-ylidene)-1,3-dithiole-4-carbaldehyde
_symmetry_cell_setting           orthorhombic
_symmetry_space_group_name_H-M   'P 21 21 21'
_symmetry_Int_Tables_number      19
_space_group_name_Hall           'P 2ac 2ab'
loop_
_symmetry_equiv_pos_site_id
_symmetry_equiv_pos_as_xyz
1 x,y,z
2 1/2-x,-y,1/2+z
3 -x,1/2+y,1/2-z
4 1/2+x,1/2-y,-z
_cell_length_a                   3.8466(3)
_cell_length_b                   7.4052(7)
_cell_length_c                   30.577(3)
_cell_angle_alpha                90
_cell_angle_beta                 90
_cell_angle_gamma                90
_cell_volume                     870.981
_exptl_crystal_colour            red
_exptl_crystal_description       plate
_chemical_melting_point          '383 K'
_cell_formula_units_Z            4
loop_
_atom_site_label
_atom_site_type_symbol
_atom_site_fract_x
_atom_site_fract_y
_atom_site_fract_z
C1 C 0.1960(6) 0.3626(3) 0.24133(7)
H1 H 0.0987 0.4745 0.2504
C2 C 0.3148(6) 0.3446(3) 0.19636(7)
C3 C 0.3234(6) 0.4823(3) 0.16743(7)
H2 H 0.2417 0.5992 0.1751
C4 C 0.5823(5) 0.2086(3) 0.12667(7)
C5 C 0.7332(5) 0.1004(3) 0.09665(7)
C6 C 0.9971(6) -0.1700(3) 0.05523(7)
H3 H 1.0784 -0.2866 0.0473
C7 C 1.0078(7) -0.0331(3) 0.02682(7)
H4 H 1.0959 -0.0492 -0.0019
O1 O 0.2158(5) 0.2405(2) 0.26790(5)
S1 S 0.47171(14) 0.13395(6) 0.17941(2)
S2 S 0.48840(15) 0.43791(6) 0.11609(2)
S3 S 0.85438(14) 0.17653(7) 0.04434(2)
S4 S 0.82962(14) -0.12822(7) 0.10718(2)
loop_
_geom_bond_atom_site_label_1
_geom_bond_atom_site_label_2
_geom_bond_site_symmetry_1
_geom_bond_site_symmetry_2
C1 H1 1_555 1_555
C2 C1 1_555 1_555
C3 C2 1_555 1_555
H2 C3 1_555 1_555
C4 C5 1_555 1_555
C5 S3 1_555 1_555
C6 H3 1_555 1_555
C7 C6 1_555 1_555
H4 C7 1_555 1_555
O1 C1 1_555 1_555
S1 C2 1_555 1_555
S2 C3 1_555 1_555
S3 C7 1_555 1_555
S4 C5 1_555 1_555
C4 S1 1_555 1_555
C4 S2 1_555 1_555
C6 S4 1_555 1_555

#END
