
#######################################################################
#
#                 Cambridge Crystallographic Data Centre
#                                CCDC 
#
#######################################################################
#
# If this CIF has been generated from an entry in the Cambridge 
# Structural Database, then it will include bibliographic, chemical, 
# crystal, experimental, refinement or atomic coordinate data resulting 
# from the CCDC's data processing and validation procedures.
#
#######################################################################

data_AGAZIT
_chemical_formula_moiety         '2(C18 H15 Te1 1+),C2 H4 O2,H2 O1,2(Cl1 1-)'
_chemical_name_systematic        
'bis(Triphenyltelluronium) dichloride acetic acid monohydrate'
_symmetry_cell_setting           monoclinic
_symmetry_space_group_name_H-M   'P 21/n'
_symmetry_Int_Tables_number      14
_space_group_name_Hall           '-P 2yn'
loop_
_symmetry_equiv_pos_site_id
_symmetry_equiv_pos_as_xyz
1 x,y,z
2 1/2-x,1/2+y,1/2-z
3 -x,-y,-z
4 1/2+x,1/2-y,1/2+z
_cell_length_a                   13.9469(6)
_cell_length_b                   9.3616(4)
_cell_length_c                   27.7941(12)
_cell_angle_alpha                90
_cell_angle_beta                 96.5840(10)
_cell_angle_gamma                90
_cell_volume                     3605.01
_exptl_crystal_colour            brown
_exptl_crystal_description       block
_cell_formula_units_Z            4
_exptl_crystal_recrystallization_method acetone/water
loop_
_atom_site_label
_atom_site_type_symbol
_atom_site_fract_x
_atom_site_fract_y
_atom_site_fract_z
Te1 Te 0.755476(16) 0.46663(2) 0.414658(7)
C1 C 0.8800(2) 0.3756(4) 0.38905(12)
C2 C 0.8628(3) 0.2789(4) 0.35126(13)
H1 H 0.7999 0.2523 0.3402
C3 C 0.9382(3) 0.2225(5) 0.33024(16)
H2 H 0.9266 0.1576 0.3049
C4 C 1.0314(3) 0.2618(5) 0.34658(16)
H3 H 1.0826 0.2226 0.3323
C5 C 1.0495(3) 0.3588(5) 0.38395(15)
H4 H 1.1126 0.3854 0.3947
C6 C 0.9731(3) 0.4166(4) 0.40537(13)
H5 H 0.9846 0.4822 0.4305
C7 C 0.7740(2) 0.3768(4) 0.48528(11)
C8 C 0.6948(3) 0.3806(4) 0.51135(13)
H6 H 0.6373 0.4223 0.4980
C9 C 0.7021(3) 0.3219(5) 0.55749(14)
H7 H 0.6495 0.3243 0.5752
C10 C 0.7873(3) 0.2602(5) 0.57685(13)
H8 H 0.7920 0.2209 0.6078
C11 C 0.8653(3) 0.2560(5) 0.55101(14)
H9 H 0.9228 0.2146 0.5646
C12 C 0.8587(3) 0.3134(4) 0.50456(13)
H10 H 0.9111 0.3088 0.4867
C13 C 0.8211(2) 0.6653(4) 0.43414(12)
C14 C 0.8246(3) 0.7642(4) 0.39828(14)
H11 H 0.8023 0.7412 0.3664
C15 C 0.8616(3) 0.8995(5) 0.40968(19)
H12 H 0.8662 0.9657 0.3851
C16 C 0.8915(3) 0.9365(5) 0.45694(19)
H13 H 0.9137 1.0283 0.4646
C17 C 0.8881(3) 0.8355(5) 0.49287(17)
H14 H 0.9099 0.8586 0.5248
C18 C 0.8524(3) 0.6998(4) 0.48167(14)
H15 H 0.8496 0.6323 0.5060
Te2 Te 0.516642(16) 0.42865(2) 0.340189(7)
C19 C 0.5044(2) 0.3287(4) 0.27097(12)
C20 C 0.5441(3) 0.1965(4) 0.26687(14)
H16 H 0.5711 0.1479 0.2943
C21 C 0.5437(3) 0.1352(5) 0.22118(17)
H17 H 0.5694 0.0445 0.2181
C22 C 0.5058(3) 0.2077(5) 0.18109(15)
H18 H 0.5060 0.1663 0.1507
C23 C 0.4675(3) 0.3409(5) 0.18495(14)
H19 H 0.4424 0.3905 0.1574
C24 C 0.4662(3) 0.4013(4) 0.23030(13)
H20 H 0.4395 0.4915 0.2333
C25 C 0.4127(2) 0.3004(4) 0.37028(12)
C26 C 0.4032(3) 0.3210(4) 0.41894(13)
H21 H 0.4387 0.3920 0.4364
C27 C 0.3407(3) 0.2354(5) 0.44147(15)
H22 H 0.3340 0.2488 0.4741
C28 C 0.2889(3) 0.1311(5) 0.41563(17)
H23 H 0.2474 0.0728 0.4308
C29 C 0.2980(4) 0.1127(5) 0.36745(18)
H24 H 0.2615 0.0428 0.3500
C30 C 0.3603(3) 0.1955(5) 0.34439(14)
H25 H 0.3668 0.1809 0.3118
C31 C 0.4204(3) 0.5959(4) 0.31641(12)
C32 C 0.3217(3) 0.5755(4) 0.31313(13)
H26 H 0.2966 0.4907 0.3239
C33 C 0.2602(3) 0.6828(5) 0.29365(14)
H27 H 0.1937 0.6694 0.2909
C34 C 0.2976(4) 0.8087(5) 0.27849(16)
H28 H 0.2564 0.8800 0.2651
C35 C 0.3955(4) 0.8292(5) 0.28302(17)
H29 H 0.4204 0.9154 0.2734
C36 C 0.4581(3) 0.7214(4) 0.30191(15)
H30 H 0.5246 0.7349 0.3046
Cl1 Cl 0.56267(6) 0.63914(9) 0.43435(3)
Cl2 Cl 0.69532(8) 0.57571(11) 0.29684(4)
O1 O 0.6465(2) 0.1871(3) 0.38938(11)
O2 O 0.6185(3) -0.0486(4) 0.37876(12)
H31 H 0.6414 -0.0550 0.3521
C37 C 0.6216(3) 0.0692(4) 0.40485(15)
C38 C 0.5943(5) 0.0527(5) 0.45455(18)
H32 H 0.6515 0.0444 0.4771
H33 H 0.5556 -0.0316 0.4561
H34 H 0.5580 0.1347 0.4626
O3 O 0.7110(4) -0.0844(4) 0.28835(14)
H35 H 0.7501 -0.0326 0.2727
H36 H 0.7111 -0.1736 0.2797
loop_
_geom_bond_atom_site_label_1
_geom_bond_atom_site_label_2
_geom_bond_site_symmetry_1
_geom_bond_site_symmetry_2
Te1 C1 1_555 1_555
C1 C2 1_555 1_555
C2 H1 1_555 1_555
C3 C2 1_555 1_555
H2 C3 1_555 1_555
C4 C3 1_555 1_555
H3 C4 1_555 1_555
C5 C4 1_555 1_555
H4 C5 1_555 1_555
C6 C1 1_555 1_555
H5 C6 1_555 1_555
C7 Te1 1_555 1_555
C8 C7 1_555 1_555
H6 C8 1_555 1_555
C9 C8 1_555 1_555
H7 C9 1_555 1_555
C10 C9 1_555 1_555
H8 C10 1_555 1_555
C11 C10 1_555 1_555
H9 C11 1_555 1_555
C12 C7 1_555 1_555
H10 C12 1_555 1_555
C13 Te1 1_555 1_555
C14 C13 1_555 1_555
H11 C14 1_555 1_555
C15 C14 1_555 1_555
H12 C15 1_555 1_555
C16 C15 1_555 1_555
H13 C16 1_555 1_555
C17 C16 1_555 1_555
H14 C17 1_555 1_555
C18 C13 1_555 1_555
H15 C18 1_555 1_555
Te2 C19 1_555 1_555
C19 C20 1_555 1_555
C20 H16 1_555 1_555
C21 C20 1_555 1_555
H17 C21 1_555 1_555
C22 C21 1_555 1_555
H18 C22 1_555 1_555
C23 C22 1_555 1_555
H19 C23 1_555 1_555
C24 C19 1_555 1_555
H20 C24 1_555 1_555
C25 Te2 1_555 1_555
C26 C25 1_555 1_555
H21 C26 1_555 1_555
C27 C26 1_555 1_555
H22 C27 1_555 1_555
C28 C27 1_555 1_555
H23 C28 1_555 1_555
C29 C28 1_555 1_555
H24 C29 1_555 1_555
C30 C25 1_555 1_555
H25 C30 1_555 1_555
C31 Te2 1_555 1_555
C32 C31 1_555 1_555
H26 C32 1_555 1_555
C33 C32 1_555 1_555
H27 C33 1_555 1_555
C34 C33 1_555 1_555
H28 C34 1_555 1_555
C35 C34 1_555 1_555
H29 C35 1_555 1_555
C36 C31 1_555 1_555
H30 C36 1_555 1_555
O1 C37 1_555 1_555
O2 H31 1_555 1_555
C37 O2 1_555 1_555
C38 C37 1_555 1_555
H32 C38 1_555 1_555
H33 C38 1_555 1_555
H34 C38 1_555 1_555
O3 H35 1_555 1_555
H36 O3 1_555 1_555
C5 C6 1_555 1_555
C11 C12 1_555 1_555
C17 C18 1_555 1_555
C23 C24 1_555 1_555
C29 C30 1_555 1_555
C35 C36 1_555 1_555

#END
