
#######################################################################
#
#                 Cambridge Crystallographic Data Centre
#                                CCDC 
#
#######################################################################
#
# If this CIF has been generated from an entry in the Cambridge 
# Structural Database, then it will include bibliographic, chemical, 
# crystal, experimental, refinement or atomic coordinate data resulting 
# from the CCDC's data processing and validation procedures.
#
#######################################################################

data_AGEBUL
_chemical_formula_moiety         'C21 H30 N2 O1 Si1'
_chemical_name_systematic        
9-Benzylidene-9a-((trimethylsilyl)oxy)-3a,4,4a,5,6,7,8,9,9a,9b-decahydro-3H-azuleno[1,2-c]pyrazole
_symmetry_cell_setting           monoclinic
_symmetry_space_group_name_H-M   'P 21/c'
_symmetry_Int_Tables_number      14
_space_group_name_Hall           '-P 2ybc'
loop_
_symmetry_equiv_pos_site_id
_symmetry_equiv_pos_as_xyz
1 x,y,z
2 -x,1/2+y,1/2-z
3 -x,-y,-z
4 x,1/2-y,1/2+z
_cell_length_a                   8.4425(8)
_cell_length_b                   13.9418(13)
_cell_length_c                   17.4523(16)
_cell_angle_alpha                90
_cell_angle_beta                 91.014(2)
_cell_angle_gamma                90
_cell_volume                     2053.88
_exptl_crystal_description       block
_cell_formula_units_Z            4
loop_
_atom_site_label
_atom_site_type_symbol
_atom_site_fract_x
_atom_site_fract_y
_atom_site_fract_z
N1 N 0.07788(17) 0.08820(10) 0.16051(9)
N2 N 0.0119(2) 0.03437(11) 0.11317(10)
C1 C -0.1436(2) 0.07135(14) 0.08711(12)
H1 H -0.2255 0.0239 0.0954
H2 H -0.1418 0.0865 0.0329
C2 C -0.17538(19) 0.16066(13) 0.13345(11)
H3 H -0.2601 0.1491 0.1700
C3 C -0.2042(2) 0.25488(13) 0.09008(13)
H4 H -0.1813 0.2474 0.0361
H5 H -0.3132 0.2756 0.0950
C4 C -0.0912(2) 0.32661(12) 0.12763(10)
H6 H -0.1337 0.3427 0.1779
C5 C -0.0706(3) 0.42020(14) 0.08392(11)
H7 H 0.0061 0.4102 0.0439
H8 H -0.1707 0.4369 0.0593
C6 C -0.0161(3) 0.50394(14) 0.13340(12)
H9 H -0.0100 0.5606 0.1013
H10 H -0.0960 0.5160 0.1715
C7 C 0.1420(3) 0.49065(13) 0.17427(11)
H11 H 0.1667 0.5488 0.2026
H12 H 0.2230 0.4825 0.1361
C8 C 0.1503(2) 0.40561(12) 0.22967(9)
H13 H 0.2308 0.4187 0.2686
H14 H 0.0495 0.4002 0.2552
C9 C 0.18717(18) 0.31101(11) 0.19249(8)
C10 C 0.05901(18) 0.26624(11) 0.14138(8)
C11 C -0.01615(18) 0.17463(12) 0.17577(10)
H15 H -0.0320 0.1824 0.2309
O1 O 0.11487(13) 0.23934(8) 0.06836(6)
Si1 Si 0.26226(5) 0.23992(3) 0.00934(3)
C12 C 0.3212(2) 0.26313(12) 0.20516(9)
H16 H 0.3278 0.2034 0.1816
C13 C 0.1628(2) 0.22297(16) -0.08490(10)
H17 H 0.1101 0.1620 -0.0860
H18 H 0.2401 0.2250 -0.1245
H19 H 0.0865 0.2731 -0.0932
C14 C 0.3994(2) 0.13802(15) 0.02759(13)
H20 H 0.4592 0.1496 0.0740
H21 H 0.4704 0.1318 -0.0145
H22 H 0.3394 0.0799 0.0327
C15 C 0.3739(2) 0.35497(14) 0.01014(12)
H23 H 0.3027 0.4069 -0.0014
H24 H 0.4550 0.3526 -0.0277
H25 H 0.4216 0.3647 0.0599
C16 C 0.46147(19) 0.29210(14) 0.25169(10)
C17 C 0.5225(2) 0.38426(17) 0.25152(11)
H26 H 0.4772 0.4302 0.2193
C18 C 0.6500(3) 0.4092(2) 0.29854(14)
H27 H 0.6878 0.4718 0.2986
C19 C 0.7202(2) 0.3417(2) 0.34478(14)
H28 H 0.8049 0.3586 0.3768
C20 C 0.6657(3) 0.2498(2) 0.34374(13)
H29 H 0.7148 0.2036 0.3745
C21 C 0.5377(2) 0.22454(16) 0.29729(11)
H30 H 0.5025 0.1613 0.2967
loop_
_geom_bond_atom_site_label_1
_geom_bond_atom_site_label_2
_geom_bond_site_symmetry_1
_geom_bond_site_symmetry_2
N1 N2 1_555 1_555
N2 C1 1_555 1_555
C1 H1 1_555 1_555
H2 C1 1_555 1_555
C2 C1 1_555 1_555
H3 C2 1_555 1_555
C3 C2 1_555 1_555
H4 C3 1_555 1_555
H5 C3 1_555 1_555
C4 C3 1_555 1_555
H6 C4 1_555 1_555
C5 C4 1_555 1_555
H7 C5 1_555 1_555
H8 C5 1_555 1_555
C6 C5 1_555 1_555
H9 C6 1_555 1_555
H10 C6 1_555 1_555
C7 C6 1_555 1_555
H11 C7 1_555 1_555
H12 C7 1_555 1_555
C8 C7 1_555 1_555
H13 C8 1_555 1_555
H14 C8 1_555 1_555
C9 C8 1_555 1_555
C10 C4 1_555 1_555
C11 N1 1_555 1_555
H15 C11 1_555 1_555
O1 C10 1_555 1_555
Si1 O1 1_555 1_555
C12 C9 1_555 1_555
H16 C12 1_555 1_555
C13 Si1 1_555 1_555
H17 C13 1_555 1_555
H18 C13 1_555 1_555
H19 C13 1_555 1_555
C14 Si1 1_555 1_555
H20 C14 1_555 1_555
H21 C14 1_555 1_555
H22 C14 1_555 1_555
C15 Si1 1_555 1_555
H23 C15 1_555 1_555
H24 C15 1_555 1_555
H25 C15 1_555 1_555
C16 C12 1_555 1_555
C17 C16 1_555 1_555
H26 C17 1_555 1_555
C18 C17 1_555 1_555
H27 C18 1_555 1_555
C19 C18 1_555 1_555
H28 C19 1_555 1_555
C20 C19 1_555 1_555
H29 C20 1_555 1_555
C21 C16 1_555 1_555
H30 C21 1_555 1_555
C2 C11 1_555 1_555
C9 C10 1_555 1_555
C10 C11 1_555 1_555
C20 C21 1_555 1_555

#END
