
#######################################################################
#
#                 Cambridge Crystallographic Data Centre
#                                CCDC 
#
#######################################################################
#
# If this CIF has been generated from an entry in the Cambridge 
# Structural Database, then it will include bibliographic, chemical, 
# crystal, experimental, refinement or atomic coordinate data resulting 
# from the CCDC's data processing and validation procedures.
#
#######################################################################

data_AGEDEX
_chemical_formula_moiety         'C20 H30 O4,H2 O1'
_chemical_name_systematic        
'3,4,6-Trihydroxy-5,5,13-trimethyl-9-methylenetetracyclo[11.2.1.0^1,10^.0^4,8^]hexadecan-14-one hydrate'
_symmetry_cell_setting           tetragonal
_symmetry_space_group_name_H-M   'P 43 21 2'
_symmetry_Int_Tables_number      96
_space_group_name_Hall           'P 4nw 2abw'
loop_
_symmetry_equiv_pos_site_id
_symmetry_equiv_pos_as_xyz
1 x,y,z
2 1/2-y,1/2+x,3/4+z
3 -x,-y,1/2+z
4 1/2+y,1/2-x,1/4+z
5 1/2+x,1/2-y,1/4-z
6 y,x,-z
7 1/2-x,1/2+y,3/4-z
8 -y,-x,1/2-z
_cell_length_a                   9.6530(5)
_cell_length_b                   9.6530(5)
_cell_length_c                   40.391(2)
_cell_angle_alpha                90
_cell_angle_beta                 90
_cell_angle_gamma                90
_cell_volume                     3763.65
_exptl_crystal_colour            colorless
_exptl_crystal_description       block
_cell_formula_units_Z            8
loop_
_atom_site_label
_atom_site_type_symbol
_atom_site_fract_x
_atom_site_fract_y
_atom_site_fract_z
C1 C 0.7225(5) 0.2059(5) 0.57016(10)
H1 H 0.7223 0.1472 0.5900
C2 C 0.7461(6) 0.3553(5) 0.58194(13)
H2 H 0.6731 0.4152 0.5737
H3 H 0.7456 0.3592 0.6059
C3 C 0.8865(5) 0.4026(5) 0.56860(10)
H4 H 0.9325 0.4616 0.5850
C4 C 0.9698(5) 0.2672(5) 0.56404(10)
C5 C 0.8537(5) 0.1675(5) 0.55006(9)
C6 C 0.8881(4) 0.0127(4) 0.55234(9)
H5 H 0.9024 -0.0097 0.5758
C7 C 0.7731(5) -0.0825(5) 0.53917(10)
H6 H 0.7506 -0.0523 0.5169
H7 H 0.8114 -0.1751 0.5374
C8 C 0.6380(4) -0.0932(5) 0.55844(9)
C9 C 0.5347(4) 0.0272(4) 0.55171(9)
H8 H 0.4998 0.0114 0.5292
C10 C 0.5928(5) 0.1737(5) 0.55146(10)
C11 C 0.4080(5) 0.0139(5) 0.57431(12)
H9 H 0.4354 0.0331 0.5970
H10 H 0.3395 0.0823 0.5679
C12 C 0.3428(5) -0.1306(5) 0.57266(12)
H11 H 0.2936 -0.1405 0.5519
H12 H 0.2761 -0.1404 0.5905
C13 C 0.4528(5) -0.2466(5) 0.57552(10)
C14 C 0.5590(5) -0.2291(5) 0.54855(10)
H13 H 0.5149 -0.2192 0.5271
H14 H 0.6217 -0.3076 0.5478
C15 C 0.6590(5) -0.1247(5) 0.59602(9)
H15 H 0.7453 -0.1740 0.5996
H16 H 0.6608 -0.0395 0.6087
C16 C 0.5361(5) -0.2139(5) 0.60612(10)
C17 C 0.3822(6) -0.3902(6) 0.57628(13)
H17 H 0.4512 -0.4608 0.5791
H18 H 0.3337 -0.4052 0.5558
H19 H 0.3178 -0.3938 0.5944
C18 C 1.0195(7) 0.2185(6) 0.59794(12)
H20 H 1.0694 0.1330 0.5956
H21 H 0.9411 0.2044 0.6122
H22 H 1.0793 0.2873 0.6074
C19 C 1.0945(6) 0.2867(6) 0.54142(14)
H23 H 1.1466 0.3660 0.5485
H24 H 1.0633 0.3007 0.5191
H25 H 1.1521 0.2058 0.5424
C20 C 0.5278(7) 0.2690(7) 0.53286(15)
H26 H 0.5634 0.3583 0.5313
H27 H 0.4473 0.2456 0.5215
O1 O 0.8698(4) 0.4775(4) 0.53824(8)
H28 H 0.8606 0.4040 0.5283
O2 O 0.8369(3) 0.2060(3) 0.51571(6)
H29 H 0.7961 0.1685 0.5003
O3 O 1.0140(3) -0.0157(4) 0.53527(8)
H30 H 1.0284 -0.0991 0.5371
O4 O 0.5098(4) -0.2482(4) 0.63408(7)
O5 O 0.6865(5) 0.0657(5) 0.45846(13)
H31 H 0.7029 0.0511 0.4388
H32 H 0.6246 0.0077 0.4594
loop_
_geom_bond_atom_site_label_1
_geom_bond_atom_site_label_2
_geom_bond_site_symmetry_1
_geom_bond_site_symmetry_2
C1 H1 1_555 1_555
C2 C1 1_555 1_555
H2 C2 1_555 1_555
H3 C2 1_555 1_555
C3 C2 1_555 1_555
H4 C3 1_555 1_555
C4 C3 1_555 1_555
C5 C1 1_555 1_555
C6 C5 1_555 1_555
H5 C6 1_555 1_555
C7 C6 1_555 1_555
H6 C7 1_555 1_555
H7 C7 1_555 1_555
C8 C7 1_555 1_555
C9 C8 1_555 1_555
H8 C9 1_555 1_555
C10 C1 1_555 1_555
C11 C9 1_555 1_555
H9 C11 1_555 1_555
H10 C11 1_555 1_555
C12 C11 1_555 1_555
H11 C12 1_555 1_555
H12 C12 1_555 1_555
C13 C12 1_555 1_555
C14 C8 1_555 1_555
H13 C14 1_555 1_555
H14 C14 1_555 1_555
C15 C8 1_555 1_555
H15 C15 1_555 1_555
H16 C15 1_555 1_555
C16 C13 1_555 1_555
C17 C13 1_555 1_555
H17 C17 1_555 1_555
H18 C17 1_555 1_555
H19 C17 1_555 1_555
C18 C4 1_555 1_555
H20 C18 1_555 1_555
H21 C18 1_555 1_555
H22 C18 1_555 1_555
C19 C4 1_555 1_555
H23 C19 1_555 1_555
H24 C19 1_555 1_555
H25 C19 1_555 1_555
C20 C10 1_555 1_555
H26 C20 1_555 1_555
H27 C20 1_555 1_555
O1 C3 1_555 1_555
H28 O1 1_555 1_555
O2 C5 1_555 1_555
H29 O2 1_555 1_555
O3 C6 1_555 1_555
H30 O3 1_555 1_555
O4 C16 1_555 1_555
O5 H31 1_555 1_555
H32 O5 1_555 1_555
C4 C5 1_555 1_555
C9 C10 1_555 1_555
C13 C14 1_555 1_555
C15 C16 1_555 1_555

#END
