
#######################################################################
#
#                 Cambridge Crystallographic Data Centre
#                                CCDC 
#
#######################################################################
#
# If this CIF has been generated from an entry in the Cambridge 
# Structural Database, then it will include bibliographic, chemical, 
# crystal, experimental, refinement or atomic coordinate data resulting 
# from the CCDC's data processing and validation procedures.
#
#######################################################################

data_AGEDIB
_chemical_formula_moiety         'C29 H38 O8,C2 H6 O1'
_chemical_name_systematic        
'5-(3,4-Dihydroxyphenyl)-9,17-dihydroxy-8,8,17-trimethyl-12-methylene-4,6-dioxapentacyclo[14.2.1.0^1,13^.0^3,7^.0^7,11^]nonadec-19-yl acetate ethanol solvate'
_symmetry_cell_setting           orthorhombic
_symmetry_space_group_name_H-M   'P 21 21 21'
_symmetry_Int_Tables_number      19
_space_group_name_Hall           'P 2ac 2ab'
loop_
_symmetry_equiv_pos_site_id
_symmetry_equiv_pos_as_xyz
1 x,y,z
2 1/2+x,1/2-y,-z
3 -x,1/2+y,1/2-z
4 1/2-x,-y,1/2+z
_cell_length_a                   9.2161(3)
_cell_length_b                   14.3540(4)
_cell_length_c                   21.9606(6)
_cell_angle_alpha                90
_cell_angle_beta                 90
_cell_angle_gamma                90
_cell_volume                     2905.12
_exptl_crystal_colour            colorless
_exptl_crystal_description       block
_cell_formula_units_Z            4
loop_
_atom_site_label
_atom_site_type_symbol
_atom_site_fract_x
_atom_site_fract_y
_atom_site_fract_z
C1 C 0.7878(2) -0.02833(14) 0.06271(10)
H1 H 0.8216 -0.0451 0.0218
C2 C 0.9110(4) -0.05561(18) 0.10627(15)
H2 H 0.8714 -0.0812 0.1436
H3 H 0.9727 -0.1022 0.0875
C3 C 0.9977(3) 0.03199(18) 0.11981(11)
H4 H 1.1013 0.0193 0.1142
C4 C 0.9478(2) 0.10565(15) 0.07310(10)
C5 C 0.7860(2) 0.07953(14) 0.06461(9)
C6 C 0.7058(2) 0.12766(14) 0.01140(9)
H5 H 0.7656 0.1796 -0.0031
C7 C 0.6695(2) 0.06547(14) -0.04252(8)
H6 H 0.7590 0.0365 -0.0559
H7 H 0.6369 0.1055 -0.0754
C8 C 0.5549(2) -0.01301(13) -0.03487(8)
C9 C 0.5157(2) -0.04030(14) 0.03235(9)
H8 H 0.4822 0.0170 0.0522
C10 C 0.6435(2) -0.07617(14) 0.07050(9)
C11 C 0.3854(3) -0.10720(15) 0.03186(9)
H9 H 0.3721 -0.1323 0.0725
H10 H 0.2987 -0.0724 0.0214
C12 C 0.4027(3) -0.18823(15) -0.01307(10)
H11 H 0.4723 -0.2326 0.0030
H12 H 0.3104 -0.2200 -0.0176
C13 C 0.4543(3) -0.15375(14) -0.07535(10)
H13 H 0.4638 -0.2058 -0.1039
C14 C 0.6005(2) -0.10551(13) -0.06589(9)
H14 H 0.6649 -0.1423 -0.0398
C15 C 0.4142(3) 0.01220(14) -0.07017(10)
H15 H 0.3411 0.0353 -0.0422
H16 H 0.4343 0.0604 -0.1000
C16 C 0.3592(3) -0.07681(15) -0.10235(10)
C17 C 0.1961(3) -0.0928(2) -0.09875(14)
H17 H 0.1462 -0.0392 -0.1145
H18 H 0.1685 -0.1026 -0.0571
H19 H 0.1707 -0.1466 -0.1224
C18 C 1.0346(3) 0.0913(2) 0.01452(12)
H20 H 1.1353 0.1040 0.0221
H21 H 0.9992 0.1327 -0.0164
H22 H 1.0240 0.0280 0.0011
C19 C 0.9740(3) 0.20536(17) 0.09474(12)
H23 H 0.9221 0.2158 0.1320
H24 H 0.9405 0.2482 0.0643
H25 H 1.0759 0.2147 0.1015
C20 C 0.6300(3) -0.14666(18) 0.10894(11)
H26 H 0.7098 -0.1668 0.1313
H27 H 0.5408 -0.1760 0.1136
C21 C 0.6136(2) 0.18415(14) 0.09956(9)
H28 H 0.6687 0.2425 0.1014
C22 C 0.4845(2) 0.19121(13) 0.14057(9)
C23 C 0.4173(3) 0.27648(15) 0.14968(9)
H29 H 0.4511 0.3285 0.1288
C24 C 0.3010(3) 0.28596(14) 0.18909(9)
C25 C 0.2542(2) 0.20900(15) 0.22152(9)
C26 C 0.3176(2) 0.12408(15) 0.21175(10)
H30 H 0.2832 0.0720 0.2323
C27 C 0.4329(2) 0.11483(15) 0.17144(9)
H31 H 0.4752 0.0568 0.1653
C28 C 0.792(3) -0.1161(15) -0.1364(11)
C29 C 0.850(3) -0.0941(16) -0.2013(12)
H32 H 0.9366 -0.0570 -0.1982
H33 H 0.7778 -0.0605 -0.2237
H34 H 0.8721 -0.1513 -0.2220
O1 O 0.8664(5) -0.1492(6) -0.0975(2)
O2 O 0.9720(2) 0.05963(15) 0.18122(8)
H35 H 0.8911 0.0831 0.1839
O3 O 0.57573(16) 0.16532(9) 0.03854(6)
O4 O 0.70457(15) 0.10910(9) 0.11736(5)
O5 O 0.66770(19) -0.08383(10) -0.12388(6)
O6 O 0.3879(2) -0.07115(11) -0.16704(7)
H36 H 0.4402 -0.0262 -0.1739
O7 O 0.2371(3) 0.37024(12) 0.19555(9)
H37 H 0.1624 0.3646 0.2155
O8 O 0.1427(2) 0.22342(12) 0.26131(8)
H38 H 0.1315 0.1769 0.2824
C32 C 0.7101(8) 0.3608(6) 0.2414(4)
H42 H 0.7029 0.4158 0.2168
H43 H 0.6380 0.3628 0.2729
H44 H 0.6946 0.3067 0.2165
C33 C 0.8530(5) 0.3556(4) 0.2660(3)
H45 H 0.8873 0.2919 0.2633
H46 H 0.8442 0.3708 0.3089
O10 O 0.9665(3) 0.4162(2) 0.24059(12)
H47 H 0.9856 0.4586 0.2643
C30? C 0.767(3) -0.1404(16) -0.1453(12)
C31? C 0.823(3) -0.1060(14) -0.2031(10)
H39? H 0.9116 -0.1382 -0.2129
H40? H 0.8425 -0.0405 -0.1999
H41? H 0.7531 -0.1167 -0.2346
O9? O 0.7951(7) -0.2134(3) -0.1231(2)
C34? C 0.740(4) 0.350(3) 0.2959(16)
H48? H 0.7463 0.4132 0.3107
H49? H 0.7824 0.3088 0.3252
H50? H 0.6404 0.3341 0.2895
C35? C 0.802(3) 0.337(3) 0.2325(13)
H51? H 0.8036 0.2728 0.2194
H52? H 0.7527 0.3735 0.2015
O11? O 0.939(2) 0.3830(13) 0.2277(8)
H53? H 0.9546 0.4296 0.2483
loop_
_geom_bond_atom_site_label_1
_geom_bond_atom_site_label_2
_geom_bond_site_symmetry_1
_geom_bond_site_symmetry_2
C1 H1 1_555 1_555
C2 C1 1_555 1_555
H2 C2 1_555 1_555
H3 C2 1_555 1_555
C3 C2 1_555 1_555
H4 C3 1_555 1_555
C4 C3 1_555 1_555
C5 C1 1_555 1_555
C6 C5 1_555 1_555
H5 C6 1_555 1_555
C7 C6 1_555 1_555
H6 C7 1_555 1_555
H7 C7 1_555 1_555
C8 C7 1_555 1_555
C9 C8 1_555 1_555
H8 C9 1_555 1_555
C10 C1 1_555 1_555
C11 C9 1_555 1_555
H9 C11 1_555 1_555
H10 C11 1_555 1_555
C12 C11 1_555 1_555
H11 C12 1_555 1_555
H12 C12 1_555 1_555
C13 C12 1_555 1_555
H13 C13 1_555 1_555
C14 C8 1_555 1_555
H14 C14 1_555 1_555
C15 C8 1_555 1_555
H15 C15 1_555 1_555
H16 C15 1_555 1_555
C16 C13 1_555 1_555
C17 C16 1_555 1_555
H17 C17 1_555 1_555
H18 C17 1_555 1_555
H19 C17 1_555 1_555
C18 C4 1_555 1_555
H20 C18 1_555 1_555
H21 C18 1_555 1_555
H22 C18 1_555 1_555
C19 C4 1_555 1_555
H23 C19 1_555 1_555
H24 C19 1_555 1_555
H25 C19 1_555 1_555
C20 C10 1_555 1_555
H26 C20 1_555 1_555
H27 C20 1_555 1_555
C21 H28 1_555 1_555
C22 C21 1_555 1_555
C23 C22 1_555 1_555
H29 C23 1_555 1_555
C24 C23 1_555 1_555
C25 C24 1_555 1_555
C26 C25 1_555 1_555
H30 C26 1_555 1_555
C27 C22 1_555 1_555
H31 C27 1_555 1_555
C28 C29 1_555 1_555
C29 H32 1_555 1_555
H33 C29 1_555 1_555
H34 C29 1_555 1_555
O1 C28 1_555 1_555
O2 C3 1_555 1_555
H35 O2 1_555 1_555
O3 C6 1_555 1_555
O4 C5 1_555 1_555
O5 C14 1_555 1_555
O6 C16 1_555 1_555
H36 O6 1_555 1_555
O7 C24 1_555 1_555
H37 O7 1_555 1_555
O8 C25 1_555 1_555
H38 O8 1_555 1_555
C32 H42 1_555 1_555
H43 C32 1_555 1_555
H44 C32 1_555 1_555
C33 C32 1_555 1_555
H45 C33 1_555 1_555
H46 C33 1_555 1_555
O10 C33 1_555 1_555
H47 O10 1_555 1_555
C4 C5 1_555 1_555
C9 C10 1_555 1_555
C13 C14 1_555 1_555
C15 C16 1_555 1_555
C21 O3 1_555 1_555
C21 O4 1_555 1_555
C26 C27 1_555 1_555
C28 O5 1_555 1_555

#END
