
#######################################################################
#
#                 Cambridge Crystallographic Data Centre
#                                CCDC 
#
#######################################################################
#
# If this CIF has been generated from an entry in the Cambridge 
# Structural Database, then it will include bibliographic, chemical, 
# crystal, experimental, refinement or atomic coordinate data resulting 
# from the CCDC's data processing and validation procedures.
#
#######################################################################

data_AGEGAW
_chemical_formula_moiety         'C27 H43 Cl1 O6'
_chemical_name_systematic        
'Methyl 3-(((chloromethoxy)carbonyl)oxy)-7-hydroxycholan-24-oate'
_symmetry_cell_setting           orthorhombic
_symmetry_space_group_name_H-M   'P 21 21 21'
_symmetry_Int_Tables_number      19
_space_group_name_Hall           'P 2ac 2ab'
loop_
_symmetry_equiv_pos_site_id
_symmetry_equiv_pos_as_xyz
1 x,y,z
2 1/2-x,-y,1/2+z
3 -x,1/2+y,1/2-z
4 1/2+x,1/2-y,-z
_cell_length_a                   7.8896(13)
_cell_length_b                   10.9493(17)
_cell_length_c                   30.683(5)
_cell_angle_alpha                90
_cell_angle_beta                 90
_cell_angle_gamma                90
_cell_volume                     2650.57
_exptl_crystal_colour            colorless
_exptl_crystal_description       block
_cell_formula_units_Z            4
loop_
_atom_site_label
_atom_site_type_symbol
_atom_site_fract_x
_atom_site_fract_y
_atom_site_fract_z
Cl1 Cl 0.32107(15) 0.26524(10) 0.18096(3)
O1 O 0.2665(3) 0.37444(17) 0.31505(6)
O2 O -0.3225(2) 0.4663(2) 0.46546(7)
H1 H -0.3270 0.4100 0.4831
O3 O 0.1100(3) 0.4228(2) 0.25576(7)
O4 O 0.2450(3) 0.24219(18) 0.26367(6)
O5 O 0.1643(4) 0.0724(2) 0.72053(8)
O6 O 0.2415(3) 0.18771(19) 0.77669(7)
C1 C 0.3092(4) 0.6337(2) 0.39347(9)
H2 H 0.3016 0.7011 0.3730
H3 H 0.3992 0.6527 0.4139
C2 C 0.3587(3) 0.5194(2) 0.36840(9)
H4 H 0.4639 0.5334 0.3528
H5 H 0.3758 0.4521 0.3885
C3 C 0.2202(3) 0.4882(3) 0.33670(9)
H6 H 0.2097 0.5535 0.3150
C4 C 0.0533(3) 0.4714(3) 0.35987(9)
H7 H 0.0613 0.4012 0.3791
H8 H -0.0342 0.4545 0.3385
C5 C 0.0019(3) 0.5833(3) 0.38662(10)
H9 H -0.0158 0.6502 0.3659
C6 C -0.1667(4) 0.5618(3) 0.40940(9)
H10 H -0.2474 0.5302 0.3884
H11 H -0.2097 0.6394 0.4199
C7 C -0.1550(3) 0.4733(3) 0.44751(9)
H12 H -0.1227 0.3926 0.4365
C8 C -0.0229(3) 0.5153(3) 0.48090(9)
H13 H -0.0600 0.5940 0.4927
C9 C 0.1503(3) 0.5350(2) 0.45808(8)
H14 H 0.1819 0.4558 0.4457
C10 C 0.1415(3) 0.6260(2) 0.41883(9)
C11 C 0.2904(4) 0.5677(3) 0.49034(9)
H15 H 0.2699 0.6494 0.5014
H16 H 0.3979 0.5688 0.4750
C12 C 0.3042(3) 0.4796(3) 0.52914(9)
H17 H 0.3393 0.3998 0.5188
H18 H 0.3897 0.5091 0.5492
C13 C 0.1340(3) 0.4681(2) 0.55303(9)
C14 C -0.0003(3) 0.4264(3) 0.51936(9)
H19 H 0.0433 0.3504 0.5067
C15 C -0.1512(4) 0.3896(3) 0.54761(10)
H20 H -0.2190 0.3277 0.5332
H21 H -0.2223 0.4597 0.5539
C16 C -0.0713(4) 0.3389(3) 0.58960(10)
H22 H -0.0917 0.2517 0.5918
H23 H -0.1206 0.3784 0.6149
C17 C 0.1219(4) 0.3648(3) 0.58750(9)
H24 H 0.1754 0.2924 0.5748
C18 C 0.1007(4) 0.7560(3) 0.43452(10)
H25 H 0.1943 0.7871 0.4511
H26 H 0.0010 0.7543 0.4525
H27 H 0.0812 0.8078 0.4098
C19 C 0.0859(4) 0.5906(2) 0.57389(9)
H28 H 0.0679 0.6503 0.5515
H29 H 0.1758 0.6172 0.5927
H30 H -0.0162 0.5809 0.5906
C20 C 0.2012(4) 0.3833(3) 0.63295(9)
H31 H 0.1423 0.4517 0.6469
C21 C 0.1710(4) 0.2695(3) 0.66091(9)
H32 H 0.0532 0.2455 0.6580
H33 H 0.2399 0.2034 0.6495
C22 C 0.2112(5) 0.2856(3) 0.70923(10)
H34 H 0.3244 0.3192 0.7121
H35 H 0.1325 0.3441 0.7216
C23 C 0.2014(4) 0.1701(3) 0.73474(10)
C24 C 0.2399(5) 0.0802(3) 0.80385(11)
H36 H 0.1299 0.0429 0.8027
H37 H 0.2653 0.1028 0.8334
H38 H 0.3236 0.0234 0.7936
C25 C 0.3888(4) 0.4142(4) 0.63165(12)
H39 H 0.4474 0.3547 0.6143
H40 H 0.4336 0.4135 0.6607
H41 H 0.4038 0.4938 0.6191
C26 C 0.1968(4) 0.3558(3) 0.27627(10)
C27 C 0.1876(5) 0.2065(3) 0.22191(9)
H42 H 0.0731 0.2362 0.2174
H43 H 0.1854 0.1181 0.2201
loop_
_geom_bond_atom_site_label_1
_geom_bond_atom_site_label_2
_geom_bond_site_symmetry_1
_geom_bond_site_symmetry_2
Cl1 C27 1_555 1_555
O1 C3 1_555 1_555
O2 H1 1_555 1_555
O3 C26 1_555 1_555
O4 C26 1_555 1_555
O5 C23 1_555 1_555
O6 C23 1_555 1_555
C1 H2 1_555 1_555
H3 C1 1_555 1_555
C2 C1 1_555 1_555
H4 C2 1_555 1_555
H5 C2 1_555 1_555
C3 C2 1_555 1_555
H6 C3 1_555 1_555
C4 C3 1_555 1_555
H7 C4 1_555 1_555
H8 C4 1_555 1_555
C5 C4 1_555 1_555
H9 C5 1_555 1_555
C6 C5 1_555 1_555
H10 C6 1_555 1_555
H11 C6 1_555 1_555
C7 O2 1_555 1_555
H12 C7 1_555 1_555
C8 C7 1_555 1_555
H13 C8 1_555 1_555
C9 C8 1_555 1_555
H14 C9 1_555 1_555
C10 C1 1_555 1_555
C11 C9 1_555 1_555
H15 C11 1_555 1_555
H16 C11 1_555 1_555
C12 C11 1_555 1_555
H17 C12 1_555 1_555
H18 C12 1_555 1_555
C13 C12 1_555 1_555
C14 C8 1_555 1_555
H19 C14 1_555 1_555
C15 C14 1_555 1_555
H20 C15 1_555 1_555
H21 C15 1_555 1_555
C16 C15 1_555 1_555
H22 C16 1_555 1_555
H23 C16 1_555 1_555
C17 C13 1_555 1_555
H24 C17 1_555 1_555
C18 C10 1_555 1_555
H25 C18 1_555 1_555
H26 C18 1_555 1_555
H27 C18 1_555 1_555
C19 C13 1_555 1_555
H28 C19 1_555 1_555
H29 C19 1_555 1_555
H30 C19 1_555 1_555
C20 C17 1_555 1_555
H31 C20 1_555 1_555
C21 C20 1_555 1_555
H32 C21 1_555 1_555
H33 C21 1_555 1_555
C22 C21 1_555 1_555
H34 C22 1_555 1_555
H35 C22 1_555 1_555
C23 C22 1_555 1_555
C24 O6 1_555 1_555
H36 C24 1_555 1_555
H37 C24 1_555 1_555
H38 C24 1_555 1_555
C25 C20 1_555 1_555
H39 C25 1_555 1_555
H40 C25 1_555 1_555
H41 C25 1_555 1_555
C26 O1 1_555 1_555
C27 O4 1_555 1_555
H42 C27 1_555 1_555
H43 C27 1_555 1_555
C5 C10 1_555 1_555
C6 C7 1_555 1_555
C9 C10 1_555 1_555
C13 C14 1_555 1_555
C16 C17 1_555 1_555

#END
