
#######################################################################
#
#                 Cambridge Crystallographic Data Centre
#                                CCDC 
#
#######################################################################
#
# If this CIF has been generated from an entry in the Cambridge 
# Structural Database, then it will include bibliographic, chemical, 
# crystal, experimental, refinement or atomic coordinate data resulting 
# from the CCDC's data processing and validation procedures.
#
#######################################################################

data_AGENOR
_chemical_formula_moiety         'C66 H72 O6'
_chemical_name_systematic        
1,2,5,6,9,10-Hexabutoxy-3,7,12-triphenylcoronene
_symmetry_cell_setting           triclinic
_symmetry_space_group_name_H-M   'P -1'
_symmetry_Int_Tables_number      2
_space_group_name_Hall           '-P 1'
loop_
_symmetry_equiv_pos_site_id
_symmetry_equiv_pos_as_xyz
1 x,y,z
2 -x,-y,-z
_cell_length_a                   12.2923(15)
_cell_length_b                   13.5731(18)
_cell_length_c                   17.213(2)
_cell_angle_alpha                108.910(6)
_cell_angle_beta                 92.790(6)
_cell_angle_gamma                95.513(6)
_cell_volume                     2694.6
_cell_formula_units_Z            2
loop_
_atom_site_label
_atom_site_type_symbol
_atom_site_fract_x
_atom_site_fract_y
_atom_site_fract_z
C1 C 0.2134(17) 0.4747(10) 0.8930(8)
C2 C 0.1379(10) 0.5111(12) 0.9501(13)
H1 H 0.0616 0.4978 0.9332
C3 C 0.1739(17) 0.5668(12) 1.0318(11)
H2 H 0.1222 0.5916 1.0707
C4 C 0.285(2) 0.5862(11) 1.0565(9)
H3 H 0.3100 0.6243 1.1123
C5 C 0.3610(11) 0.5498(14) 0.9995(15)
H4 H 0.4372 0.5631 1.0163
C6 C 0.3250(14) 0.4941(14) 0.9177(13)
H5 H 0.3766 0.4693 0.8788
O1 O 0.2508(7) 0.4975(8) 0.4805(6)
C7 C 0.2234(11) 0.6027(10) 0.4920(8)
H6 H 0.2622 0.6524 0.5436
H7 H 0.1435 0.6045 0.4960
C8 C 0.2586(12) 0.6344(11) 0.4171(9)
H8 H 0.2544 0.7103 0.4288
H9 H 0.3355 0.6212 0.4078
C9 C 0.1856(11) 0.5729(12) 0.3416(9)
H10 H 0.1085 0.5813 0.3537
H11 H 0.1946 0.4977 0.3286
C10 C 0.2070(12) 0.6040(13) 0.2667(10)
H12 H 0.2119 0.6804 0.2816
H13 H 0.1469 0.5713 0.2237
H14 H 0.2762 0.5803 0.2460
C11 C -0.2866(9) -0.0510(9) 0.5710(5)
C12 C -0.2687(8) -0.1528(11) 0.5645(5)
H15 H -0.1960 -0.1699 0.5685
C13 C -0.3573(13) -0.2296(7) 0.5522(6)
H16 H -0.3451 -0.2991 0.5478
C14 C -0.4637(10) -0.2045(11) 0.5464(6)
H17 H -0.5242 -0.2569 0.5380
C15 C -0.4816(8) -0.1026(13) 0.5528(5)
H18 H -0.5543 -0.0855 0.5488
C16 C -0.3930(12) -0.0259(8) 0.5651(5)
H19 H -0.4052 0.0437 0.5695
O2 O 0.3165(8) 0.5618(9) 0.6475(6)
C17 C 0.4273(12) 0.5394(13) 0.6349(11)
H20 H 0.4413 0.5274 0.5765
H21 H 0.4396 0.4753 0.6480
C18 C 0.5063(12) 0.6343(14) 0.6919(12)
H22 H 0.5071 0.6926 0.6690
H23 H 0.4778 0.6585 0.7469
C19 C 0.6201(16) 0.610(2) 0.701(2)
H24 H 0.6461 0.5789 0.6461
H25 H 0.6206 0.5570 0.7297
C20 C 0.6995(19) 0.708(3) 0.751(2)
H26 H 0.6748 0.7699 0.7416
H27 H 0.7734 0.6992 0.7329
H28 H 0.7006 0.7166 0.8098
C21 C -0.0231(10) 0.2298(13) 0.2933(8)
C22 C 0.0066(9) 0.1353(11) 0.2430(12)
H29 H 0.0307 0.0860 0.2667
C23 C 0.0012(11) 0.1127(11) 0.1581(11)
H30 H 0.0215 0.0481 0.1237
C24 C -0.0341(11) 0.1847(16) 0.1235(8)
H31 H -0.0378 0.1693 0.0654
C25 C -0.0638(10) 0.2793(13) 0.1738(11)
H32 H -0.0879 0.3285 0.1501
C26 C -0.0584(10) 0.3018(9) 0.2587(10)
H33 H -0.0787 0.3665 0.2931
O3 O 0.1022(9) 0.2884(7) 0.8993(6)
C27 C 0.1803(17) 0.2232(16) 0.9084(11)
H34 H 0.2401 0.2299 0.8732
H35 H 0.1452 0.1498 0.8867
C28 C 0.232(3) 0.243(2) 0.9953(15)
H36 H 0.2606 0.3177 1.0201
H37 H 0.1746 0.2268 1.0293
C29 C 0.324(3) 0.178(4) 0.998(3)
H38 H 0.3830 0.2213 1.0388
H39 H 0.3536 0.1563 0.9431
C30 C 0.286(5) 0.081(3) 1.019(4)
H40 H 0.2097 0.0811 1.0321
H41 H 0.3324 0.0803 1.0673
H42 H 0.2940 0.0185 0.9723
O4 O -0.0569(9) 0.1199(8) 0.8338(6)
C31 C -0.1399(15) 0.1621(13) 0.8853(12)
H43 H -0.1835 0.1987 0.8558
H44 H -0.1023 0.2166 0.9351
C32 C -0.2189(19) 0.095(2) 0.9140(14)
H45 H -0.1796 0.0753 0.9574
H46 H -0.2762 0.1378 0.9404
C33 C -0.274(2) -0.0024(18) 0.8525(19)
H47 H -0.2921 -0.0547 0.8803
H48 H -0.2232 -0.0313 0.8106
C34 C -0.380(3) 0.013(3) 0.809(2)
H49 H -0.4034 0.0803 0.8397
H50 H -0.4373 -0.0440 0.8067
H51 H -0.3663 0.0107 0.7531
O5 O -0.2708(7) -0.0134(7) 0.4228(5)
C35 C -0.2388(11) -0.1153(10) 0.3744(8)
H52 H -0.1893 -0.1400 0.4093
H53 H -0.1990 -0.1080 0.3276
C36 C -0.3398(11) -0.1940(9) 0.3424(9)
H54 H -0.3815 -0.1980 0.3893
H55 H -0.3173 -0.2642 0.3146
C37 C -0.4129(13) -0.1637(12) 0.2821(10)
H56 H -0.3719 -0.1609 0.2346
H57 H -0.4350 -0.0933 0.3095
C38 C -0.5152(15) -0.2441(17) 0.2517(13)
H58 H -0.4931 -0.3149 0.2315
H59 H -0.5563 -0.2301 0.2069
H60 H -0.5617 -0.2388 0.2972
O6 O -0.1791(7) 0.0808(6) 0.3234(6)
C39 C -0.2705(12) 0.1283(11) 0.3079(7)
H61 H -0.2520 0.2055 0.3290
H62 H -0.3319 0.1100 0.3377
C40 C -0.3073(14) 0.0930(14) 0.2148(9)
H63 H -0.2419 0.0878 0.1830
H64 H -0.3501 0.0227 0.1978
C41 C -0.376(2) 0.1693(19) 0.1958(14)
H65 H -0.3383 0.2414 0.2210
H66 H -0.4471 0.1661 0.2205
C42 C -0.398(3) 0.145(3) 0.1025(16)
H67 H -0.3406 0.1069 0.0738
H68 H -0.3990 0.2113 0.0907
H69 H -0.4696 0.1029 0.0834
C43 C 0.2011(17) 0.4539(16) 0.5340(15)
C44 C 0.2352(13) 0.4797(12) 0.6156(17)
C45 C 0.1882(16) 0.4313(18) 0.6680(13)
C46 C 0.2224(11) 0.4645(12) 0.7545(16)
H70 H 0.2763 0.5235 0.7770
C47 C 0.1805(15) 0.4148(17) 0.8054(11)
C48 C 0.1016(13) 0.3249(13) 0.7701(13)
C49 C 0.0617(14) 0.2636(15) 0.8214(12)
C50 C -0.0168(14) 0.1821(13) 0.7872(13)
C51 C -0.0639(14) 0.1500(13) 0.7063(11)
C52 C -0.1477(14) 0.0672(13) 0.6702(12)
H71 H -0.1755 0.0291 0.7040
C53 C -0.1923(10) 0.0371(10) 0.5913(12)
C54 C -0.1477(15) 0.0899(14) 0.5386(11)
C55 C -0.1848(12) 0.0631(11) 0.4561(13)
C56 C -0.1394(14) 0.1146(14) 0.4044(9)
C57 C -0.0526(14) 0.1965(14) 0.4347(12)
C58 C -0.0019(16) 0.2507(16) 0.3840(9)
C59 C 0.0772(15) 0.3339(16) 0.4188(15)
H72 H 0.1067 0.3703 0.3844
C60 C 0.1161(15) 0.3676(15) 0.4993(13)
C61 C 0.0688(13) 0.3122(15) 0.5519(12)
C62 C 0.1057(15) 0.3459(15) 0.6332(13)
C63 C 0.0618(13) 0.2924(13) 0.6892(12)
C64 C -0.0194(12) 0.2068(13) 0.6555(11)
C65 C -0.0617(14) 0.1730(14) 0.5717(11)
C66 C -0.0140(14) 0.2272(14) 0.5176(12)
loop_
_geom_bond_atom_site_label_1
_geom_bond_atom_site_label_2
_geom_bond_site_symmetry_1
_geom_bond_site_symmetry_2
C1 C2 1_555 1_555
C2 H1 1_555 1_555
C3 C2 1_555 1_555
H2 C3 1_555 1_555
C4 C3 1_555 1_555
H3 C4 1_555 1_555
C5 C4 1_555 1_555
H4 C5 1_555 1_555
C6 C1 1_555 1_555
H5 C6 1_555 1_555
O1 C7 1_555 1_555
C7 H6 1_555 1_555
H7 C7 1_555 1_555
C8 C7 1_555 1_555
H8 C8 1_555 1_555
H9 C8 1_555 1_555
C9 C8 1_555 1_555
H10 C9 1_555 1_555
H11 C9 1_555 1_555
C10 C9 1_555 1_555
H12 C10 1_555 1_555
H13 C10 1_555 1_555
H14 C10 1_555 1_555
C11 C12 1_555 1_555
C12 H15 1_555 1_555
C13 C12 1_555 1_555
H16 C13 1_555 1_555
C14 C13 1_555 1_555
H17 C14 1_555 1_555
C15 C14 1_555 1_555
H18 C15 1_555 1_555
C16 C11 1_555 1_555
H19 C16 1_555 1_555
O2 C17 1_555 1_555
C17 H20 1_555 1_555
H21 C17 1_555 1_555
C18 C17 1_555 1_555
H22 C18 1_555 1_555
H23 C18 1_555 1_555
C19 C18 1_555 1_555
H24 C19 1_555 1_555
H25 C19 1_555 1_555
C20 C19 1_555 1_555
H26 C20 1_555 1_555
H27 C20 1_555 1_555
H28 C20 1_555 1_555
C21 C22 1_555 1_555
C22 H29 1_555 1_555
C23 C22 1_555 1_555
H30 C23 1_555 1_555
C24 C23 1_555 1_555
H31 C24 1_555 1_555
C25 C24 1_555 1_555
H32 C25 1_555 1_555
C26 C21 1_555 1_555
H33 C26 1_555 1_555
O3 C27 1_555 1_555
C27 H34 1_555 1_555
H35 C27 1_555 1_555
C28 C27 1_555 1_555
H36 C28 1_555 1_555
H37 C28 1_555 1_555
C29 C28 1_555 1_555
H38 C29 1_555 1_555
H39 C29 1_555 1_555
C30 C29 1_555 1_555
H40 C30 1_555 1_555
H41 C30 1_555 1_555
H42 C30 1_555 1_555
O4 C31 1_555 1_555
C31 H43 1_555 1_555
H44 C31 1_555 1_555
C32 C31 1_555 1_555
H45 C32 1_555 1_555
H46 C32 1_555 1_555
C33 C32 1_555 1_555
H47 C33 1_555 1_555
H48 C33 1_555 1_555
C34 C33 1_555 1_555
H49 C34 1_555 1_555
H50 C34 1_555 1_555
H51 C34 1_555 1_555
O5 C35 1_555 1_555
C35 H52 1_555 1_555
H53 C35 1_555 1_555
C36 C35 1_555 1_555
H54 C36 1_555 1_555
H55 C36 1_555 1_555
C37 C36 1_555 1_555
H56 C37 1_555 1_555
H57 C37 1_555 1_555
C38 C37 1_555 1_555
H58 C38 1_555 1_555
H59 C38 1_555 1_555
H60 C38 1_555 1_555
O6 C39 1_555 1_555
C39 H61 1_555 1_555
H62 C39 1_555 1_555
C40 C39 1_555 1_555
H63 C40 1_555 1_555
H64 C40 1_555 1_555
C41 C40 1_555 1_555
H65 C41 1_555 1_555
H66 C41 1_555 1_555
C42 C41 1_555 1_555
H67 C42 1_555 1_555
H68 C42 1_555 1_555
H69 C42 1_555 1_555
C43 O1 1_555 1_555
C44 O2 1_555 1_555
C45 C44 1_555 1_555
C46 C45 1_555 1_555
H70 C46 1_555 1_555
C47 C1 1_555 1_555
C48 C47 1_555 1_555
C49 O3 1_555 1_555
C50 O4 1_555 1_555
C51 C50 1_555 1_555
C52 C51 1_555 1_555
H71 C52 1_555 1_555
C53 C11 1_555 1_555
C54 C53 1_555 1_555
C55 O5 1_555 1_555
C56 O6 1_555 1_555
C57 C56 1_555 1_555
C58 C21 1_555 1_555
C59 C58 1_555 1_555
H72 C59 1_555 1_555
C60 C43 1_555 1_555
C61 C60 1_555 1_555
C62 C45 1_555 1_555
C63 C48 1_555 1_555
C64 C51 1_555 1_555
C65 C54 1_555 1_555
C66 C57 1_555 1_555
C5 C6 1_555 1_555
C15 C16 1_555 1_555
C25 C26 1_555 1_555
C43 C44 1_555 1_555
C46 C47 1_555 1_555
C48 C49 1_555 1_555
C49 C50 1_555 1_555
C52 C53 1_555 1_555
C54 C55 1_555 1_555
C55 C56 1_555 1_555
C57 C58 1_555 1_555
C59 C60 1_555 1_555
C61 C62 1_555 1_555
C61 C66 1_555 1_555
C62 C63 1_555 1_555
C63 C64 1_555 1_555
C64 C65 1_555 1_555
C65 C66 1_555 1_555

#END
