
#######################################################################
#
#                 Cambridge Crystallographic Data Centre
#                                CCDC 
#
#######################################################################
#
# If this CIF has been generated from an entry in the Cambridge 
# Structural Database, then it will include bibliographic, chemical, 
# crystal, experimental, refinement or atomic coordinate data resulting 
# from the CCDC's data processing and validation procedures.
#
#######################################################################

data_AGENUX
_chemical_formula_moiety         'C66 H72 O6'
_chemical_name_systematic        
2,3,6,7,10,11-Hexabutoxy-1,4,8-tris(phenylethynyl)triphenylene
_symmetry_cell_setting           monoclinic
_symmetry_space_group_name_H-M   'C 2/c'
_symmetry_Int_Tables_number      15
_space_group_name_Hall           '-C 2yn'
loop_
_symmetry_equiv_pos_site_id
_symmetry_equiv_pos_as_xyz
1 x,y,z
2 -x,y,1/2-z
3 1/2+x,1/2+y,z
4 1/2-x,1/2+y,1/2-z
5 -x,-y,-z
6 x,-y,1/2+z
7 1/2-x,1/2-y,-z
8 1/2+x,1/2-y,1/2+z
_cell_length_a                   19.257(5)
_cell_length_b                   34.153(9)
_cell_length_c                   18.252(5)
_cell_angle_alpha                90
_cell_angle_beta                 101.264(4)
_cell_angle_gamma                90
_cell_volume                     11772.8
_cell_formula_units_Z            8
loop_
_atom_site_label
_atom_site_type_symbol
_atom_site_fract_x
_atom_site_fract_y
_atom_site_fract_z
C1 C 0.6096(4) 0.2568(3) 0.9288(7)
C2 C 0.6343(5) 0.2255(5) 0.9759(6)
C3 C 0.6553(5) 0.1906(4) 0.9479(9)
C4 C 0.6456(5) 0.1848(4) 0.8714(9)
C5 C 0.6140(4) 0.2151(4) 0.8197(7)
C6 C 0.6037(4) 0.2525(4) 0.8498(7)
C7 C 0.5949(4) 0.2846(4) 0.7964(7)
C8 C 0.5958(4) 0.2778(4) 0.7195(8)
C9 C 0.5865(4) 0.2391(5) 0.6905(7)
C10 C 0.5940(4) 0.2079(5) 0.7403(7)
C11 C 0.6055(4) 0.3112(5) 0.6766(6)
C12 C 0.6047(5) 0.3484(5) 0.7027(8)
C13 C 0.5970(5) 0.3557(5) 0.7761(8)
C14 C 0.5937(4) 0.3226(6) 0.8198(5)
H1 H 0.5904 0.3266 0.8694
C15 C 0.5622(5) 0.2295(5) 0.6139(8)
H2 H 0.5555 0.2498 0.5793
C16 C 0.5483(5) 0.1924(7) 0.5887(9)
C17 C 0.5522(5) 0.1628(5) 0.6395(11)
C18 C 0.5749(6) 0.1703(5) 0.7129(9)
H3 H 0.5780 0.1497 0.7466
C19 C 0.5906(4) 0.2905(4) 0.9654(6)
C20 C 0.5757(5) 0.3144(4) 1.0039(6)
C21 C 0.5564(6) 0.3449(2) 1.0519(6)
C22 C 0.5933(5) 0.3461(3) 1.1254(7)
H4 H 0.6293 0.3282 1.1418
C23 C 0.5762(7) 0.3740(4) 1.1744(4)
H5 H 0.6009 0.3748 1.2235
C24 C 0.5223(7) 0.4008(3) 1.1499(7)
H6 H 0.5109 0.4195 1.1826
C25 C 0.4854(5) 0.3996(3) 1.0764(8)
H7 H 0.4494 0.4175 1.0600
C26 C 0.5025(5) 0.3717(3) 1.0274(4)
H8 H 0.4778 0.3709 0.9783
C27 C 0.5798(8) 0.4011(4) 0.8676(8)
H9 H 0.6150 0.3895 0.9070
H10 H 0.5332 0.3918 0.8719
C28 C 0.5840(17) 0.4461(5) 0.8693(11)
H11 H 0.6297 0.4538 0.8980
H12 H 0.5812 0.4555 0.8186
C29 C 0.530(2) 0.4648(8) 0.900(3)
H13 H 0.5344 0.4578 0.9522
H14 H 0.4837 0.4571 0.8731
C30 C 0.542(4) 0.5094(8) 0.892(4)
H15 H 0.5497 0.5215 0.9404
H16 H 0.5002 0.5207 0.8613
H17 H 0.5818 0.5138 0.8691
C31 C 0.6788(8) 0.3988(4) 0.6705(8)
H18 H 0.7161 0.3797 0.6859
H19 H 0.6807 0.4180 0.7101
C32 C 0.6877(9) 0.4188(5) 0.5978(9)
H20 H 0.6621 0.4434 0.5905
H21 H 0.6719 0.4021 0.5549
C33 C 0.774(3) 0.4258(14) 0.613(3)
H22 H 0.7902 0.4481 0.6446
H23 H 0.8017 0.4026 0.6299
C34 C 0.769(3) 0.4348(14) 0.524(3)
H24 H 0.7634 0.4106 0.4967
H25 H 0.8110 0.4478 0.5166
H26 H 0.7285 0.4512 0.5065
C35 C 0.6229(5) 0.3073(3) 0.6009(8)
C36 C 0.6442(5) 0.3078(3) 0.5436(7)
C37 C 0.6714(6) 0.3086(2) 0.4760(5)
C38 C 0.6223(4) 0.3122(4) 0.4096(7)
H27 H 0.5741 0.3125 0.4103
C39 C 0.6451(7) 0.3152(5) 0.3422(5)
H28 H 0.6122 0.3176 0.2977
C40 C 0.7171(8) 0.3147(4) 0.3411(6)
H29 H 0.7323 0.3168 0.2960
C41 C 0.7662(5) 0.3112(4) 0.4075(9)
H30 H 0.8144 0.3108 0.4068
C42 C 0.7434(5) 0.3081(4) 0.4750(6)
H31 H 0.7763 0.3057 0.5194
C43 C 0.5362(6) 0.2097(4) 0.4630(8)
H32 H 0.5850 0.2186 0.4741
H33 H 0.5056 0.2321 0.4641
C44 C 0.5205(7) 0.1910(5) 0.3878(7)
H34 H 0.4698 0.1869 0.3733
H35 H 0.5346 0.2086 0.3517
C45 C 0.5572(13) 0.1529(6) 0.3855(10)
H36 H 0.5473 0.1363 0.4253
H37 H 0.6079 0.1574 0.3944
C46 C 0.535(2) 0.1321(9) 0.3114(15)
H38 H 0.5426 0.1488 0.2716
H39 H 0.4851 0.1257 0.3041
H40 H 0.5616 0.1085 0.3114
C47 C 0.5326(12) 0.0965(6) 0.6510(14)
H41 H 0.4992 0.0999 0.6840
H42 H 0.5794 0.0932 0.6817
C48 C 0.5124(12) 0.0591(5) 0.6019(11)
H43 H 0.4728 0.0649 0.5616
H44 H 0.5522 0.0511 0.5801
C49 C 0.493(3) 0.0274(9) 0.6487(17)
H45 H 0.4624 0.0376 0.6805
H46 H 0.5354 0.0170 0.6804
C50 C 0.455(3) -0.0051(11) 0.599(3)
H47 H 0.4870 -0.0266 0.5980
H48 H 0.4396 0.0048 0.5491
H49 H 0.4149 -0.0138 0.6183
C51 C 0.6749(7) 0.1508(5) 0.8483(7)
C52 C 0.7035(8) 0.1213(5) 0.8317(8)
C53 C 0.7448(8) 0.0877(3) 0.8133(11)
C54 C 0.7374(8) 0.0793(5) 0.7377(9)
H50 H 0.7095 0.0953 0.7024
C55 C 0.7717(11) 0.0471(6) 0.7147(7)
H51 H 0.7668 0.0415 0.6641
C56 C 0.8134(9) 0.0233(4) 0.7674(12)
H52 H 0.8364 0.0017 0.7520
C57 C 0.8208(8) 0.0316(5) 0.8431(11)
H53 H 0.8487 0.0157 0.8783
C58 C 0.7865(10) 0.0639(5) 0.8660(6)
H54 H 0.7915 0.0695 0.9167
C59 C 0.6432(8) 0.1362(5) 1.0194(9)
H55 H 0.6139 0.1232 0.9771
H56 H 0.6128 0.1493 1.0482
C60 C 0.6919(9) 0.1068(6) 1.0679(10)
H57 H 0.7177 0.0916 1.0370
H58 H 0.7260 0.1206 1.1051
C61 C 0.6481(15) 0.0800(8) 1.1057(17)
H59 H 0.6222 0.0954 1.1361
H60 H 0.6139 0.0664 1.0682
C62 C 0.692(2) 0.0512(11) 1.153(3)
H61 H 0.6623 0.0329 1.1720
H62 H 0.7219 0.0644 1.1937
H63 H 0.7209 0.0375 1.1239
C63 C 0.7060(4) 0.2428(3) 1.0933(5)
H64 H 0.7146 0.2693 1.0778
H65 H 0.7441 0.2262 1.0839
C64 C 0.7033(5) 0.2423(4) 1.1740(6)
H66 H 0.6619 0.2568 1.1813
H67 H 0.7447 0.2559 1.2012
C65 C 0.7008(6) 0.2025(4) 1.2063(6)
H68 H 0.7428 0.1881 1.2005
H69 H 0.6598 0.1887 1.1790
C66 C 0.6968(7) 0.2038(5) 1.2872(8)
H70 H 0.7393 0.2153 1.3151
H71 H 0.6917 0.1777 1.3049
H72 H 0.6567 0.2192 1.2936
O1 O 0.5944(5) 0.3933(3) 0.7972(5)
O2 O 0.6112(4) 0.3801(2) 0.6549(4)
O3 O 0.5254(4) 0.1828(3) 0.5150(6)
O4 O 0.5321(5) 0.1277(5) 0.6095(5)
O5 O 0.6887(4) 0.1623(3) 0.9960(5)
O6 O 0.6380(3) 0.22857(17) 1.0513(4)
loop_
_geom_bond_atom_site_label_1
_geom_bond_atom_site_label_2
_geom_bond_site_symmetry_1
_geom_bond_site_symmetry_2
C1 C2 1_555 1_555
C2 C3 1_555 1_555
C3 C4 1_555 1_555
C4 C5 1_555 1_555
C5 C6 1_555 1_555
C6 C1 1_555 1_555
C7 C6 1_555 1_555
C8 C7 1_555 1_555
C9 C8 1_555 1_555
C10 C5 1_555 1_555
C11 C8 1_555 1_555
C12 C11 1_555 1_555
C13 C12 1_555 1_555
C14 C7 1_555 1_555
H1 C14 1_555 1_555
C15 C9 1_555 1_555
H2 C15 1_555 1_555
C16 C15 1_555 1_555
C17 C16 1_555 1_555
C18 C10 1_555 1_555
H3 C18 1_555 1_555
C19 C1 1_555 1_555
C20 C19 1_555 1_555
C21 C20 1_555 1_555
C22 C21 1_555 1_555
H4 C22 1_555 1_555
C23 C22 1_555 1_555
H5 C23 1_555 1_555
C24 C23 1_555 1_555
H6 C24 1_555 1_555
C25 C24 1_555 1_555
H7 C25 1_555 1_555
C26 C21 1_555 1_555
H8 C26 1_555 1_555
C27 H9 1_555 1_555
H10 C27 1_555 1_555
C28 C27 1_555 1_555
H11 C28 1_555 1_555
H12 C28 1_555 1_555
C29 C28 1_555 1_555
H13 C29 1_555 1_555
H14 C29 1_555 1_555
C30 C29 1_555 1_555
H15 C30 1_555 1_555
H16 C30 1_555 1_555
H17 C30 1_555 1_555
C31 H18 1_555 1_555
H19 C31 1_555 1_555
C32 C31 1_555 1_555
H20 C32 1_555 1_555
H21 C32 1_555 1_555
C33 C32 1_555 1_555
H22 C33 1_555 1_555
H23 C33 1_555 1_555
C34 C33 1_555 1_555
H24 C34 1_555 1_555
H25 C34 1_555 1_555
H26 C34 1_555 1_555
C35 C11 1_555 1_555
C36 C35 1_555 1_555
C37 C36 1_555 1_555
C38 C37 1_555 1_555
H27 C38 1_555 1_555
C39 C38 1_555 1_555
H28 C39 1_555 1_555
C40 C39 1_555 1_555
H29 C40 1_555 1_555
C41 C40 1_555 1_555
H30 C41 1_555 1_555
C42 C37 1_555 1_555
H31 C42 1_555 1_555
C43 H32 1_555 1_555
H33 C43 1_555 1_555
C44 C43 1_555 1_555
H34 C44 1_555 1_555
H35 C44 1_555 1_555
C45 C44 1_555 1_555
H36 C45 1_555 1_555
H37 C45 1_555 1_555
C46 C45 1_555 1_555
H38 C46 1_555 1_555
H39 C46 1_555 1_555
H40 C46 1_555 1_555
C47 H41 1_555 1_555
H42 C47 1_555 1_555
C48 C47 1_555 1_555
H43 C48 1_555 1_555
H44 C48 1_555 1_555
C49 C48 1_555 1_555
H45 C49 1_555 1_555
H46 C49 1_555 1_555
C50 C49 1_555 1_555
H47 C50 1_555 1_555
H48 C50 1_555 1_555
H49 C50 1_555 1_555
C51 C4 1_555 1_555
C52 C51 1_555 1_555
C53 C52 1_555 1_555
C54 C53 1_555 1_555
H50 C54 1_555 1_555
C55 C54 1_555 1_555
H51 C55 1_555 1_555
C56 C55 1_555 1_555
H52 C56 1_555 1_555
C57 C56 1_555 1_555
H53 C57 1_555 1_555
C58 C53 1_555 1_555
H54 C58 1_555 1_555
C59 H55 1_555 1_555
H56 C59 1_555 1_555
C60 C59 1_555 1_555
H57 C60 1_555 1_555
H58 C60 1_555 1_555
C61 C60 1_555 1_555
H59 C61 1_555 1_555
H60 C61 1_555 1_555
C62 C61 1_555 1_555
H61 C62 1_555 1_555
H62 C62 1_555 1_555
H63 C62 1_555 1_555
C63 H64 1_555 1_555
H65 C63 1_555 1_555
C64 C63 1_555 1_555
H66 C64 1_555 1_555
H67 C64 1_555 1_555
C65 C64 1_555 1_555
H68 C65 1_555 1_555
H69 C65 1_555 1_555
C66 C65 1_555 1_555
H70 C66 1_555 1_555
H71 C66 1_555 1_555
H72 C66 1_555 1_555
O1 C13 1_555 1_555
O2 C12 1_555 1_555
O3 C16 1_555 1_555
O4 C17 1_555 1_555
O5 C3 1_555 1_555
O6 C2 1_555 1_555
C9 C10 1_555 1_555
C13 C14 1_555 1_555
C17 C18 1_555 1_555
C25 C26 1_555 1_555
C27 O1 1_555 1_555
C31 O2 1_555 1_555
C41 C42 1_555 1_555
C43 O3 1_555 1_555
C47 O4 1_555 1_555
C57 C58 1_555 1_555
C59 O5 1_555 1_555
C63 O6 1_555 1_555

#END
