
#######################################################################
#
#                 Cambridge Crystallographic Data Centre
#                                CCDC 
#
#######################################################################
#
# If this CIF has been generated from an entry in the Cambridge 
# Structural Database, then it will include bibliographic, chemical, 
# crystal, experimental, refinement or atomic coordinate data resulting 
# from the CCDC's data processing and validation procedures.
#
#######################################################################

data_AGETIR
_chemical_formula_moiety         'C25 H24 N8 O2'
_chemical_name_systematic        
'2,8,14,20-Tetramethyl-28-nitro-2,8,14,20,25,26,27-hepta-azapentacyclo[19.3.1.1^3,7^.1^9,13^.1^15,19^]octacosa-1(25),3(28),4,6,9(27),10,12,15(26),16,18,21,23-dodecaene unknown solvate'
_symmetry_cell_setting           monoclinic
_symmetry_space_group_name_H-M   'P 21/c'
_symmetry_Int_Tables_number      14
_space_group_name_Hall           '-P 2ybc'
loop_
_symmetry_equiv_pos_site_id
_symmetry_equiv_pos_as_xyz
1 x,y,z
2 -x,1/2+y,1/2-z
3 -x,-y,-z
4 x,1/2-y,1/2+z
_cell_length_a                   10.295(2)
_cell_length_b                   13.858(3)
_cell_length_c                   35.376(7)
_cell_angle_alpha                90
_cell_angle_beta                 92.18(3)
_cell_angle_gamma                90
_cell_volume                     5043.37
_exptl_crystal_colour            yellow
_exptl_crystal_description       block
_cell_formula_units_Z            8
loop_
_atom_site_label
_atom_site_type_symbol
_atom_site_fract_x
_atom_site_fract_y
_atom_site_fract_z
O1 O 0.0721(3) 0.2445(2) -0.07768(8)
O2 O 0.0825(2) 0.2764(2) -0.01819(7)
N1 N 0.1321(3) 0.26126(19) -0.04821(8)
N2 N 0.2677(3) 0.4358(2) -0.03270(8)
N3 N 0.3084(2) 0.41141(18) 0.03063(7)
N4 N 0.3526(3) 0.3704(2) 0.09294(7)
N5 N 0.3334(2) 0.20551(19) 0.07790(7)
N6 N 0.2973(3) 0.0427(2) 0.06159(8)
N7 N 0.2763(2) 0.06284(18) -0.00327(7)
N8 N 0.2708(3) 0.0924(2) -0.06689(7)
C1 C 0.2760(3) 0.2641(2) -0.04901(8)
C2 C 0.3405(3) 0.1797(2) -0.05857(8)
C3 C 0.4748(3) 0.1828(3) -0.05848(9)
H1 H 0.5220 0.1266 -0.0649
C4 C 0.5411(3) 0.2667(3) -0.04913(10)
H2 H 0.6334 0.2675 -0.0489
C5 C 0.4735(3) 0.3504(2) -0.03998(9)
H3 H 0.5200 0.4079 -0.0338
C6 C 0.3384(3) 0.3499(2) -0.03985(8)
C7 C 0.1954(4) 0.4820(3) -0.06424(11)
H4 H 0.2276 0.5479 -0.0675
H5 H 0.1028 0.4840 -0.0588
H6 H 0.2075 0.4451 -0.0875
C8 C 0.2529(3) 0.4668(2) 0.00421(9)
C9 C 0.1825(3) 0.5505(3) 0.01264(12)
H7 H 0.1457 0.5904 -0.0068
C10 C 0.1694(4) 0.5718(3) 0.05019(12)
H8 H 0.1221 0.6277 0.0569
C11 C 0.2233(3) 0.5142(3) 0.07819(11)
H9 H 0.2130 0.5287 0.1042
C12 C 0.2941(3) 0.4332(2) 0.06706(9)
C13 C 0.2980(4) 0.3613(3) 0.13050(10)
H10 H 0.2090 0.3364 0.1279
H11 H 0.2971 0.4247 0.1427
H12 H 0.3514 0.3167 0.1460
C14 C 0.4076(3) 0.2847(2) 0.07765(8)
C15 C 0.5299(3) 0.2871(3) 0.06317(10)
H13 H 0.5806 0.3444 0.0642
C16 C 0.5769(3) 0.2034(3) 0.04707(10)
H14 H 0.6604 0.2026 0.0365
C17 C 0.5017(3) 0.1218(3) 0.04656(10)
H15 H 0.5321 0.0636 0.0358
C18 C 0.3793(3) 0.1259(2) 0.06219(8)
C19 C 0.2330(5) 0.0188(3) 0.09631(11)
H16 H 0.1427 0.0413 0.0945
H17 H 0.2785 0.0503 0.1178
H18 H 0.2344 -0.0513 0.1000
C20 C 0.2438(3) 0.0113(2) 0.02704(9)
C21 C 0.1625(4) -0.0688(2) 0.02422(11)
H19 H 0.1414 -0.1050 0.0459
C22 C 0.1138(4) -0.0935(3) -0.01137(11)
H20 H 0.0566 -0.1471 -0.0141
C23 C 0.1461(3) -0.0426(3) -0.04302(10)
H21 H 0.1135 -0.0601 -0.0675
C24 C 0.2295(3) 0.0366(2) -0.03730(9)
C25 C 0.2371(4) 0.0681(3) -0.10609(10)
H22 H 0.2653 0.0020 -0.1113
H23 H 0.2807 0.1129 -0.1229
H24 H 0.1428 0.0729 -0.1105
O3 O 0.9440(3) 0.40064(19) 0.26652(8)
O4 O 0.9967(2) 0.4527(2) 0.32267(8)
N9 N 0.9170(3) 0.43114(19) 0.29726(8)
N10 N 0.8036(2) 0.61136(18) 0.28501(7)
N11 N 0.6988(2) 0.59190(18) 0.22713(7)
N12 N 0.5864(3) 0.5585(2) 0.17127(8)
N13 N 0.6076(3) 0.39374(19) 0.18490(7)
N14 N 0.6452(3) 0.2300(2) 0.19890(8)
N15 N 0.7125(3) 0.24435(18) 0.26143(8)
N16 N 0.7735(3) 0.2745(2) 0.32332(8)
C26 C 0.7783(3) 0.4447(2) 0.30540(8)
C27 C 0.7103(3) 0.3658(2) 0.31847(9)
C28 C 0.5815(3) 0.3797(3) 0.32601(10)
H25 H 0.5316 0.3279 0.3354
C29 C 0.5246(3) 0.4692(3) 0.31988(10)
H26 H 0.4354 0.4778 0.3250
C30 C 0.5945(3) 0.5462(2) 0.30640(9)
H27 H 0.5534 0.6069 0.3023
C31 C 0.7246(3) 0.5348(2) 0.29883(8)
C32 C 0.8774(3) 0.6699(2) 0.31279(9)
H28 H 0.9653 0.6807 0.3040
H29 H 0.8825 0.6361 0.3371
H30 H 0.8338 0.7322 0.3158
C33 C 0.7794(3) 0.6456(2) 0.24851(8)
C34 C 0.8371(3) 0.7301(2) 0.23546(9)
H31 H 0.8944 0.7675 0.2512
C35 C 0.8064(3) 0.7563(2) 0.19853(10)
H32 H 0.8446 0.8128 0.1885
C36 C 0.7219(3) 0.7027(2) 0.17578(9)
H33 H 0.7001 0.7217 0.1505
C37 C 0.6698(3) 0.6194(2) 0.19146(8)
C38 C 0.5347(5) 0.5800(3) 0.13459(10)
H34 H 0.5075 0.5201 0.1219
H35 H 0.6013 0.6120 0.1200
H36 H 0.4596 0.6229 0.1366
C39 C 0.5407(3) 0.4751(2) 0.19051(8)
C40 C 0.4376(3) 0.4818(2) 0.21347(9)
H37 H 0.3931 0.5413 0.2164
C41 C 0.3993(3) 0.3997(2) 0.23247(9)
H38 H 0.3268 0.4016 0.2483
C42 C 0.4678(3) 0.3155(2) 0.22803(9)
H39 H 0.4448 0.2585 0.2411
C43 C 0.5712(3) 0.3157(2) 0.20402(9)
C44 C 0.6766(4) 0.2032(3) 0.15996(10)
H40 H 0.6243 0.2422 0.1420
H41 H 0.6574 0.1347 0.1558
H42 H 0.7691 0.2151 0.1562
C45 C 0.7178(3) 0.1933(2) 0.22947(10)
C46 C 0.7925(3) 0.1091(3) 0.22683(11)
H43 H 0.7952 0.0734 0.2039
C47 C 0.8618(3) 0.0803(3) 0.25908(12)
H44 H 0.9138 0.0238 0.2582
C48 C 0.8577(3) 0.1310(3) 0.29238(12)
H45 H 0.9042 0.1101 0.3146
C49 C 0.7818(3) 0.2149(2) 0.29199(10)
C50 C 0.8403(5) 0.2527(3) 0.35901(11)
H46 H 0.8109 0.1900 0.3682
H47 H 0.8211 0.3028 0.3775
H48 H 0.9342 0.2505 0.3555
loop_
_geom_bond_atom_site_label_1
_geom_bond_atom_site_label_2
_geom_bond_site_symmetry_1
_geom_bond_site_symmetry_2
O1 N1 1_555 1_555
O2 N1 1_555 1_555
N1 C1 1_555 1_555
N2 C6 1_555 1_555
N3 C8 1_555 1_555
N4 C12 1_555 1_555
N5 C14 1_555 1_555
N6 C18 1_555 1_555
N7 C20 1_555 1_555
N8 C2 1_555 1_555
C1 C2 1_555 1_555
C2 C3 1_555 1_555
C3 H1 1_555 1_555
C4 C3 1_555 1_555
H2 C4 1_555 1_555
C5 C4 1_555 1_555
H3 C5 1_555 1_555
C6 C1 1_555 1_555
C7 N2 1_555 1_555
H4 C7 1_555 1_555
H5 C7 1_555 1_555
H6 C7 1_555 1_555
C8 N2 1_555 1_555
C9 C8 1_555 1_555
H7 C9 1_555 1_555
C10 C9 1_555 1_555
H8 C10 1_555 1_555
C11 C10 1_555 1_555
H9 C11 1_555 1_555
C12 N3 1_555 1_555
C13 N4 1_555 1_555
H10 C13 1_555 1_555
H11 C13 1_555 1_555
H12 C13 1_555 1_555
C14 N4 1_555 1_555
C15 C14 1_555 1_555
H13 C15 1_555 1_555
C16 C15 1_555 1_555
H14 C16 1_555 1_555
C17 C16 1_555 1_555
H15 C17 1_555 1_555
C18 N5 1_555 1_555
C19 N6 1_555 1_555
H16 C19 1_555 1_555
H17 C19 1_555 1_555
H18 C19 1_555 1_555
C20 N6 1_555 1_555
C21 C20 1_555 1_555
H19 C21 1_555 1_555
C22 C21 1_555 1_555
H20 C22 1_555 1_555
C23 C22 1_555 1_555
H21 C23 1_555 1_555
C24 N7 1_555 1_555
C25 N8 1_555 1_555
H22 C25 1_555 1_555
H23 C25 1_555 1_555
H24 C25 1_555 1_555
O3 N9 1_555 1_555
O4 N9 1_555 1_555
N9 C26 1_555 1_555
N10 C31 1_555 1_555
N11 C33 1_555 1_555
N12 C37 1_555 1_555
N13 C39 1_555 1_555
N14 C43 1_555 1_555
N15 C45 1_555 1_555
N16 C27 1_555 1_555
C26 C27 1_555 1_555
C27 C28 1_555 1_555
C28 H25 1_555 1_555
C29 C28 1_555 1_555
H26 C29 1_555 1_555
C30 C29 1_555 1_555
H27 C30 1_555 1_555
C31 C26 1_555 1_555
C32 N10 1_555 1_555
H28 C32 1_555 1_555
H29 C32 1_555 1_555
H30 C32 1_555 1_555
C33 N10 1_555 1_555
C34 C33 1_555 1_555
H31 C34 1_555 1_555
C35 C34 1_555 1_555
H32 C35 1_555 1_555
C36 C35 1_555 1_555
H33 C36 1_555 1_555
C37 N11 1_555 1_555
C38 N12 1_555 1_555
H34 C38 1_555 1_555
H35 C38 1_555 1_555
H36 C38 1_555 1_555
C39 N12 1_555 1_555
C40 C39 1_555 1_555
H37 C40 1_555 1_555
C41 C40 1_555 1_555
H38 C41 1_555 1_555
C42 C41 1_555 1_555
H39 C42 1_555 1_555
C43 N13 1_555 1_555
C44 N14 1_555 1_555
H40 C44 1_555 1_555
H41 C44 1_555 1_555
H42 C44 1_555 1_555
C45 N14 1_555 1_555
C46 C45 1_555 1_555
H43 C46 1_555 1_555
C47 C46 1_555 1_555
H44 C47 1_555 1_555
C48 C47 1_555 1_555
H45 C48 1_555 1_555
C49 N15 1_555 1_555
C50 N16 1_555 1_555
H46 C50 1_555 1_555
H47 C50 1_555 1_555
H48 C50 1_555 1_555
N8 C24 1_555 1_555
C5 C6 1_555 1_555
C11 C12 1_555 1_555
C17 C18 1_555 1_555
C23 C24 1_555 1_555
N16 C49 1_555 1_555
C30 C31 1_555 1_555
C36 C37 1_555 1_555
C42 C43 1_555 1_555
C48 C49 1_555 1_555

#END
