
#######################################################################
#
#                 Cambridge Crystallographic Data Centre
#                                CCDC 
#
#######################################################################
#
# If this CIF has been generated from an entry in the Cambridge 
# Structural Database, then it will include bibliographic, chemical, 
# crystal, experimental, refinement or atomic coordinate data resulting 
# from the CCDC's data processing and validation procedures.
#
#######################################################################

data_AGIDAX
_chemical_name_common            Naphthoquinones
_chemical_formula_moiety         'C13 H12 Cl1 N1 O2'
_chemical_name_systematic        2-Chloro-3-(propylamino)-1,4-naphthoquinone
_symmetry_cell_setting           triclinic
_symmetry_space_group_name_H-M   'P -1'
_symmetry_Int_Tables_number      2
_space_group_name_Hall           '-P 1'
loop_
_symmetry_equiv_pos_site_id
_symmetry_equiv_pos_as_xyz
1 x,y,z
2 -x,-y,-z
_cell_length_a                   7.3022(5)
_cell_length_b                   7.9970(6)
_cell_length_c                   11.0164(8)
_cell_angle_alpha                68.8010(10)
_cell_angle_beta                 84.3960(10)
_cell_angle_gamma                84.6730(10)
_cell_volume                     595.763
_exptl_crystal_colour            red
_exptl_crystal_description       Plate
_cell_formula_units_Z            2
loop_
_atom_site_label
_atom_site_type_symbol
_atom_site_fract_x
_atom_site_fract_y
_atom_site_fract_z
Cl1 Cl 1.10961(8) 1.10925(9) 0.17644(5)
O1 O 1.3512(2) 0.8417(3) 0.34324(17)
O2 O 0.66337(19) 0.7981(2) 0.56042(13)
N1 N 0.7092(2) 1.0361(2) 0.32936(16)
H1 H 0.6119 1.0069 0.3811
C1 C 1.1919(3) 0.8319(3) 0.3925(2)
C2 C 1.0427(3) 0.9536(3) 0.32757(19)
C3 C 0.8623(2) 0.9414(2) 0.37737(17)
C4 C 0.8200(3) 0.8004(3) 0.51097(18)
C5 C 0.9292(3) 0.5335(3) 0.6934(2)
H2 H 0.8091 0.5223 0.7308
C6 C 1.0693(4) 0.4124(3) 0.7546(2)
H3 H 1.0430 0.3183 0.8323
C7 C 1.2474(4) 0.4315(3) 0.7003(3)
H4 H 1.3412 0.3504 0.7420
C8 C 1.2878(3) 0.5689(3) 0.5854(2)
H5 H 1.4091 0.5818 0.5506
C9 C 1.1488(3) 0.6891(3) 0.5203(2)
C10 C 0.9687(3) 0.6716(3) 0.57614(18)
C11 C 0.6757(3) 1.1797(3) 0.2057(2)
H6 H 0.7764 1.2591 0.1818
H7 H 0.5634 1.2494 0.2167
C12 C 0.6576(3) 1.1121(3) 0.0965(2)
H8 H 0.5631 1.0260 0.1223
H9 H 0.7732 1.0513 0.0799
C13 C 0.6080(5) 1.2651(4) -0.0269(2)
H10 H 0.4861 1.3151 -0.0141
H11 H 0.6117 1.2210 -0.0975
H12 H 0.6945 1.3564 -0.0475
loop_
_geom_bond_atom_site_label_1
_geom_bond_atom_site_label_2
_geom_bond_site_symmetry_1
_geom_bond_site_symmetry_2
Cl1 C2 1_555 1_555
O1 C1 1_555 1_555
O2 C4 1_555 1_555
N1 H1 1_555 1_555
C1 C2 1_555 1_555
C2 C3 1_555 1_555
C3 N1 1_555 1_555
C4 C3 1_555 1_555
C5 H2 1_555 1_555
C6 C5 1_555 1_555
H3 C6 1_555 1_555
C7 C6 1_555 1_555
H4 C7 1_555 1_555
C8 C7 1_555 1_555
H5 C8 1_555 1_555
C9 C1 1_555 1_555
C10 C4 1_555 1_555
C11 N1 1_555 1_555
H6 C11 1_555 1_555
H7 C11 1_555 1_555
C12 C11 1_555 1_555
H8 C12 1_555 1_555
H9 C12 1_555 1_555
C13 C12 1_555 1_555
H10 C13 1_555 1_555
H11 C13 1_555 1_555
H12 C13 1_555 1_555
C5 C10 1_555 1_555
C8 C9 1_555 1_555
C9 C10 1_555 1_555

#END
