
#######################################################################
#
#                 Cambridge Crystallographic Data Centre
#                                CCDC 
#
#######################################################################
#
# If this CIF has been generated from an entry in the Cambridge 
# Structural Database, then it will include bibliographic, chemical, 
# crystal, experimental, refinement or atomic coordinate data resulting 
# from the CCDC's data processing and validation procedures.
#
#######################################################################

data_AGIGEF
_chemical_formula_moiety         'C60 H49 N1 O2,C60,C6 H4 Cl2'
_chemical_name_systematic        
"2-hexyl-4,17-bis(2,4,6-trimethylphenyl)-4,17-dihydro-1H-benzo[6,7]diindeno[1',2':8,9;2'',1'':2,3]fluorantheno[1,10-efg]isoindole-1,3(2H)-dione C60-fullerene 1,2-dichlorobenzene solvate"
_symmetry_cell_setting           monoclinic
_symmetry_space_group_name_H-M   'P 21/c'
_symmetry_Int_Tables_number      14
_space_group_name_Hall           '-P 2ybc'
loop_
_symmetry_equiv_pos_site_id
_symmetry_equiv_pos_as_xyz
1 x,y,z
2 -x,1/2+y,1/2-z
3 -x,-y,-z
4 x,1/2-y,1/2+z
_cell_length_a                   13.3940(6)
_cell_length_b                   42.521(4)
_cell_length_c                   13.6185(7)
_cell_angle_alpha                90
_cell_angle_beta                 105.268(5)
_cell_angle_gamma                90
_cell_volume                     7482.34
_exptl_crystal_colour            'dull dark red'
_exptl_crystal_description       prism
_cell_formula_units_Z            4
loop_
_atom_site_label
_atom_site_type_symbol
_atom_site_fract_x
_atom_site_fract_y
_atom_site_fract_z
Cl1 Cl 0.22046(12) 0.52718(4) 0.29513(14)
Cl2 Cl 0.13106(18) 0.53182(5) 0.05804(15)
C1 C 0.2264(5) 0.59037(18) 0.2916(5)
H1 H 0.2518 0.5891 0.3619
C2 C 0.2026(4) 0.56339(15) 0.2368(5)
C3 C 0.1640(5) 0.56556(15) 0.1313(5)
C4 C 0.1486(6) 0.59438(17) 0.0839(6)
H2 H 0.1204 0.5957 0.0139
C5 C 0.2139(6) 0.61915(19) 0.2460(7)
H3 H 0.2310 0.6373 0.2850
C6 C 0.1756(7) 0.62135(19) 0.1413(7)
H4 H 0.1681 0.6409 0.1097
O1 O 0.5957(3) 0.70933(9) 0.4295(3)
O2 O 0.9462(3) 0.70706(9) 0.5098(3)
N1 N 0.7707(3) 0.71609(10) 0.4560(3)
C7 C 0.4660(4) 0.72236(12) 0.6426(4)
C8 C 0.4395(4) 0.70763(12) 0.5474(4)
C9 C 0.6893(4) 0.62063(12) 0.7433(4)
C10 C 0.7787(4) 0.60299(12) 0.7900(4)
C11 C 0.8660(4) 0.62004(12) 0.7819(4)
C12 C 0.3897(4) 0.72554(13) 0.4620(4)
C13 C 0.8279(4) 0.68488(11) 0.5995(4)
C14 C 0.9611(4) 0.60648(12) 0.7904(4)
C15 C 0.5927(4) 0.60757(12) 0.7088(4)
C16 C 0.8909(4) 0.66536(11) 0.6770(4)
C17 C 0.7189(4) 0.68523(11) 0.5743(4)
C18 C 0.6584(4) 0.66566(11) 0.6235(4)
C19 C 0.5507(4) 0.65631(11) 0.6017(4)
C20 C 0.8307(4) 0.64794(11) 0.7266(4)
C21 C 0.7220(4) 0.64828(11) 0.7023(4)
C22 C 0.4515(4) 0.75465(13) 0.6489(5)
H5 H 0.4744 0.7644 0.7120
C23 C 1.0003(4) 0.65647(12) 0.7092(4)
C24 C 0.5206(4) 0.62834(12) 0.6397(4)
C25 C 0.6835(4) 0.70432(11) 0.4799(4)
C26 C 0.7664(4) 0.73548(12) 0.3669(4)
H6 H 0.8304 0.7473 0.3779
H7 H 0.7102 0.7505 0.3589
C27 C 0.8593(4) 0.70369(11) 0.5203(4)
C28 C 0.9657(4) 0.57351(13) 0.8151(4)
H8 H 1.0291 0.5632 0.8271
C29 C 1.0930(4) 0.67598(12) 0.7023(4)
H9 H 1.0949 0.6757 0.6309
C30 C 1.0653(4) 0.77473(13) 0.7719(5)
C31 C 1.0573(4) 0.71972(13) 0.8182(4)
C32 C 0.4083(4) 0.62475(12) 0.6012(4)
C33 C 1.1088(4) 0.76530(13) 0.6932(5)
H10 H 1.1292 0.7805 0.6533
C34 C 0.4569(4) 0.67262(12) 0.5334(4)
H11 H 0.4633 0.6702 0.4637
C35 C 0.2636(4) 0.65522(13) 0.5023(4)
H12 H 0.2376 0.6731 0.4651
C36 C 0.3572(4) 0.71142(15) 0.3564(4)
H13 H 0.4168 0.7031 0.3388
H14 H 0.3258 0.7274 0.3082
H15 H 0.3082 0.6948 0.3551
C37 C 1.0452(4) 0.75160(14) 0.8347(5)
H16 H 1.0224 0.7576 0.8908
C38 C 0.3688(4) 0.65132(12) 0.5415(4)
C39 C 1.0912(4) 0.71034(12) 0.7329(4)
C40 C 0.3734(4) 0.75736(14) 0.4719(5)
H17 H 0.3408 0.7689 0.4143
C41 C 1.1218(4) 0.73385(13) 0.6742(4)
C42 C 0.7506(5) 0.71656(13) 0.2700(4)
H18 H 0.6900 0.7033 0.2624
H19 H 0.8098 0.7029 0.2760
C43 C 0.7787(4) 0.57096(12) 0.8025(4)
C44 C 0.5892(4) 0.57477(13) 0.7333(4)
H20 H 0.5250 0.5649 0.7182
C45 C 1.0323(4) 0.62840(12) 0.7603(4)
C46 C 1.1827(4) 0.65585(13) 0.7610(4)
C47 C 1.1461(4) 0.62744(13) 0.7886(4)
C48 C 0.4043(5) 0.77270(14) 0.5652(5)
C49 C 0.5140(4) 0.70540(13) 0.7415(4)
H21 H 0.4815 0.6853 0.7410
H22 H 0.5043 0.7177 0.7974
H23 H 0.5867 0.7025 0.7487
C50 C 0.1965(4) 0.63188(13) 0.5193(4)
H24 H 0.1255 0.6343 0.4932
C51 C 1.1751(4) 0.72578(14) 0.5927(4)
H25 H 1.1278 0.7147 0.5385
H26 H 1.2342 0.7128 0.6212
H27 H 1.1971 0.7448 0.5665
C52 C 0.8797(4) 0.55660(13) 0.8217(4)
H28 H 0.8870 0.5354 0.8389
C53 C 1.3205(4) 0.61104(15) 0.8641(4)
H29 H 1.3676 0.5959 0.8974
C54 C 0.6761(4) 0.55718(13) 0.7780(4)
H30 H 0.6685 0.5361 0.7927
C55 C 0.3408(4) 0.60144(13) 0.6171(4)
H31 H 0.3660 0.5837 0.6555
C56 C 1.2872(4) 0.66228(14) 0.7858(4)
H32 H 1.3112 0.6814 0.7677
C57 C 0.7366(5) 0.73669(14) 0.1741(5)
H33 H 0.8006 0.7478 0.1772
H34 H 0.6831 0.7522 0.1722
C58 C 1.3565(4) 0.63957(15) 0.8386(5)
H35 H 1.4272 0.6437 0.8567
C59 C 1.0372(5) 0.69653(15) 0.8946(5)
H36 H 1.0443 0.7069 0.9587
H37 H 1.0861 0.6796 0.9032
H38 H 0.9682 0.6883 0.8706
C60 C 1.0475(5) 0.80895(15) 0.7885(6)
H39 H 1.1059 0.8209 0.7812
H40 H 1.0390 0.8119 0.8558
H41 H 0.9863 0.8159 0.7392
C61 C 0.2348(4) 0.60537(14) 0.5741(5)
H42 H 0.1892 0.5898 0.5828
C62 C 1.2146(4) 0.60450(14) 0.8407(4)
H43 H 1.1904 0.5855 0.8593
C63 C 0.7066(6) 0.71682(16) 0.0753(6)
H44 H 0.6535 0.7018 0.0801
H45 H 0.6777 0.7306 0.0180
C64 C 0.7966(6) 0.69959(17) 0.0567(5)
H46 H 0.8273 0.6865 0.1151
H47 H 0.8484 0.7146 0.0488
C65 C 0.7641(7) 0.67868(17) -0.0402(6)
H48 H 0.7536 0.6917 -0.0997
H49 H 0.7011 0.6678 -0.0411
H50 H 0.8177 0.6636 -0.0397
C66 C 0.3872(8) 0.80739(17) 0.5757(7)
H51 H 0.3144 0.8115 0.5623
H52 H 0.4149 0.8188 0.5279
H53 H 0.4215 0.8140 0.6436
C67 C 0.4702(6) 0.5705(3) 0.3289(9)
C68 C 0.9857(6) 0.5567(3) 0.3503(10)
C69 C 0.5129(10) 0.6026(3) 0.3415(11)
C70 C 0.9175(9) 0.5043(3) 0.3290(9)
C71 C 0.9076(8) 0.5657(4) 0.5160(8)
C72 C 0.7742(9) 0.5327(3) 0.5413(6)
C73 C 0.5206(8) 0.5530(4) 0.0576(8)
C74 C 0.9609(6) 0.5484(3) 0.2433(9)
C75 C 0.9281(10) 0.6094(3) 0.3005(15)
C76 C 0.5119(7) 0.5481(3) 0.4021(8)
C77 C 0.9210(7) 0.5703(3) 0.1748(8)
C78 C 0.5921(10) 0.6092(2) 0.4256(8)
C79 C 0.7632(10) 0.5898(3) 0.0634(7)
C80 C 0.9698(8) 0.5873(5) 0.3756(11)
C81 C 0.8430(8) 0.5096(2) 0.1512(8)
C82 C 0.4445(6) 0.5621(4) 0.2258(10)
C83 C 0.5056(9) 0.5088(3) 0.2753(13)
C84 C 0.5906(9) 0.6068(3) 0.0782(9)
C85 C 0.4612(6) 0.5305(4) 0.1974(9)
C86 C 0.7997(9) 0.5341(3) 0.0742(7)
C87 C 0.5271(8) 0.5174(3) 0.3728(11)
C88 C 0.8387(8) 0.5123(3) 0.4945(8)
C89 C 0.6675(9) 0.5286(2) 0.5115(7)
C90 C 0.6136(10) 0.5544(4) 0.0219(6)
C91 C 0.5164(10) 0.6155(3) 0.2421(10)
C92 C 0.9042(8) 0.6011(3) 0.2000(11)
C93 C 0.9210(8) 0.5170(3) 0.2329(9)
C94 C 0.6326(10) 0.5842(3) 0.4989(7)
C95 C 0.7499(10) 0.5881(3) 0.5363(7)
C96 C 0.8147(9) 0.5639(3) 0.5533(6)
C97 C 0.6825(10) 0.5298(3) 0.0394(7)
C98 C 0.7572(11) 0.4908(2) 0.1577(9)
C99 C 0.6035(13) 0.6344(2) 0.2400(11)
C100 C 0.6559(10) 0.5861(3) 0.0334(6)
C101 C 0.6437(12) 0.6296(2) 0.1512(9)
C102 C 0.4681(7) 0.5889(5) 0.1700(11)
C103 C 0.9243(8) 0.5335(4) 0.4832(8)
C104 C 0.8303(10) 0.5628(3) 0.0818(8)
C105 C 0.6027(9) 0.5558(3) 0.4927(8)
C106 C 0.6264(9) 0.5052(2) 0.4424(9)
C107 C 0.7932(13) 0.4898(3) 0.4250(10)
C108 C 0.9283(9) 0.5922(4) 0.4649(11)
C109 C 0.7495(11) 0.6317(2) 0.1759(10)
C110 C 0.6772(13) 0.6274(2) 0.4175(9)
C111 C 0.6863(12) 0.4865(2) 0.4005(9)
C112 C 0.8341(13) 0.4853(3) 0.3395(11)
C113 C 0.7517(13) 0.47885(19) 0.2478(12)
C114 C 0.8039(11) 0.6129(3) 0.1323(12)
C115 C 0.6596(12) 0.5031(3) 0.0905(10)
C116 C 0.5734(12) 0.5009(3) 0.1296(10)
C117 C 0.6809(11) 0.63957(19) 0.3280(11)
C118 C 0.8600(14) 0.6169(4) 0.4481(11)
C119 C 0.9623(8) 0.5303(5) 0.4044(10)
C120 C 0.7729(12) 0.6152(3) 0.4827(9)
C121 C 0.5059(10) 0.5857(5) 0.0921(10)
C122 C 0.5036(9) 0.5260(5) 0.1110(11)
C123 C 0.5807(15) 0.4883(3) 0.2291(14)
C124 C 0.7769(18) 0.6392(2) 0.299(2)
C125 C 0.8560(15) 0.6292(4) 0.333(2)
C126 C 0.6593(16) 0.4789(3) 0.2911(14)
loop_
_geom_bond_atom_site_label_1
_geom_bond_atom_site_label_2
_geom_bond_site_symmetry_1
_geom_bond_site_symmetry_2
Cl1 C2 1_555 1_555
Cl2 C3 1_555 1_555
C1 H1 1_555 1_555
C2 C1 1_555 1_555
C3 C2 1_555 1_555
C4 C3 1_555 1_555
H2 C4 1_555 1_555
C5 C1 1_555 1_555
H3 C5 1_555 1_555
C6 C4 1_555 1_555
H4 C6 1_555 1_555
O1 C25 1_555 1_555
O2 C27 1_555 1_555
N1 C25 1_555 1_555
C7 C8 1_555 1_555
C8 C12 1_555 1_555
C9 C10 1_555 1_555
C10 C11 1_555 1_555
C11 C14 1_555 1_555
C12 C36 1_555 1_555
C13 C16 1_555 1_555
C14 C28 1_555 1_555
C15 C9 1_555 1_555
C16 C20 1_555 1_555
C17 C13 1_555 1_555
C18 C17 1_555 1_555
C19 C18 1_555 1_555
C20 C11 1_555 1_555
C21 C9 1_555 1_555
C22 C7 1_555 1_555
H5 C22 1_555 1_555
C23 C16 1_555 1_555
C24 C15 1_555 1_555
C25 C17 1_555 1_555
C26 N1 1_555 1_555
H6 C26 1_555 1_555
H7 C26 1_555 1_555
C27 N1 1_555 1_555
C28 H8 1_555 1_555
C29 C23 1_555 1_555
H9 C29 1_555 1_555
C30 C33 1_555 1_555
C31 C37 1_555 1_555
C32 C24 1_555 1_555
C33 H10 1_555 1_555
C34 C8 1_555 1_555
H11 C34 1_555 1_555
C35 H12 1_555 1_555
C36 H13 1_555 1_555
H14 C36 1_555 1_555
H15 C36 1_555 1_555
C37 C30 1_555 1_555
H16 C37 1_555 1_555
C38 C32 1_555 1_555
C39 C29 1_555 1_555
C40 C12 1_555 1_555
H17 C40 1_555 1_555
C41 C33 1_555 1_555
C42 C26 1_555 1_555
H18 C42 1_555 1_555
H19 C42 1_555 1_555
C43 C10 1_555 1_555
C44 C15 1_555 1_555
H20 C44 1_555 1_555
C45 C14 1_555 1_555
C46 C29 1_555 1_555
C47 C45 1_555 1_555
C48 C22 1_555 1_555
C49 C7 1_555 1_555
H21 C49 1_555 1_555
H22 C49 1_555 1_555
H23 C49 1_555 1_555
C50 C35 1_555 1_555
H24 C50 1_555 1_555
C51 C41 1_555 1_555
H25 C51 1_555 1_555
H26 C51 1_555 1_555
H27 C51 1_555 1_555
C52 C28 1_555 1_555
H28 C52 1_555 1_555
C53 H29 1_555 1_555
C54 C43 1_555 1_555
H30 C54 1_555 1_555
C55 C32 1_555 1_555
H31 C55 1_555 1_555
C56 C46 1_555 1_555
H32 C56 1_555 1_555
C57 C42 1_555 1_555
H33 C57 1_555 1_555
H34 C57 1_555 1_555
C58 C53 1_555 1_555
H35 C58 1_555 1_555
C59 C31 1_555 1_555
H36 C59 1_555 1_555
H37 C59 1_555 1_555
H38 C59 1_555 1_555
C60 C30 1_555 1_555
H39 C60 1_555 1_555
H40 C60 1_555 1_555
H41 C60 1_555 1_555
C61 C50 1_555 1_555
H42 C61 1_555 1_555
C62 C47 1_555 1_555
H43 C62 1_555 1_555
C63 C57 1_555 1_555
H44 C63 1_555 1_555
H45 C63 1_555 1_555
C64 C63 1_555 1_555
H46 C64 1_555 1_555
H47 C64 1_555 1_555
C65 C64 1_555 1_555
H48 C65 1_555 1_555
H49 C65 1_555 1_555
H50 C65 1_555 1_555
C66 C48 1_555 1_555
H51 C66 1_555 1_555
H52 C66 1_555 1_555
H53 C66 1_555 1_555
C67 C69 1_555 1_555
C68 C74 1_555 1_555
C69 C78 1_555 1_555
C70 C93 1_555 1_555
C71 C96 1_555 1_555
C72 C88 1_555 1_555
C73 C90 1_555 1_555
C74 C77 1_555 1_555
C75 C80 1_555 1_555
C76 C67 1_555 1_555
C77 C92 1_555 1_555
C78 C94 1_555 1_555
C79 C100 1_555 1_555
C80 C68 1_555 1_555
C81 C86 1_555 1_555
C82 C67 1_555 1_555
C83 C85 1_555 1_555
C84 C100 1_555 1_555
C85 C82 1_555 1_555
C86 C97 1_555 1_555
C87 C76 1_555 1_555
C88 C103 1_555 1_555
C89 C72 1_555 1_555
C90 C97 1_555 1_555
C91 C69 1_555 1_555
C92 C75 1_555 1_555
C93 C74 1_555 1_555
C94 C95 1_555 1_555
C95 C96 1_555 1_555
C96 C72 1_555 1_555
C97 C115 1_555 1_555
C98 C81 1_555 1_555
C99 C91 1_555 1_555
C100 C90 1_555 1_555
C101 C84 1_555 1_555
C102 C82 1_555 1_555
C103 C71 1_555 1_555
C104 C77 1_555 1_555
C105 C76 1_555 1_555
C106 C87 1_555 1_555
C107 C88 1_555 1_555
C108 C71 1_555 1_555
C109 C101 1_555 1_555
C110 C78 1_555 1_555
C111 C106 1_555 1_555
C112 C70 1_555 1_555
C113 C98 1_555 1_555
C114 C79 1_555 1_555
C115 C98 1_555 1_555
C116 C115 1_555 1_555
C117 C99 1_555 1_555
C118 C108 1_555 1_555
C119 C68 1_555 1_555
C120 C95 1_555 1_555
C121 C73 1_555 1_555
C122 C73 1_555 1_555
C123 C83 1_555 1_555
C124 C109 1_555 1_555
C125 C75 1_555 1_555
C126 C111 1_555 1_555
C5 C6 1_555 1_555
C13 C27 1_555 1_555
C18 C21 1_555 1_555
C19 C24 1_555 1_555
C19 C34 1_555 1_555
C20 C21 1_555 1_555
C23 C45 1_555 1_555
C31 C39 1_555 1_555
C34 C38 1_555 1_555
C35 C38 1_555 1_555
C39 C41 1_555 1_555
C40 C48 1_555 1_555
C43 C52 1_555 1_555
C44 C54 1_555 1_555
C46 C47 1_555 1_555
C53 C62 1_555 1_555
C55 C61 1_555 1_555
C56 C58 1_555 1_555
C70 C119 1_555 1_555
C79 C104 1_555 1_555
C80 C108 1_555 1_555
C81 C93 1_555 1_555
C83 C87 1_555 1_555
C84 C121 1_555 1_555
C85 C122 1_555 1_555
C86 C104 1_555 1_555
C89 C105 1_555 1_555
C89 C106 1_555 1_555
C91 C102 1_555 1_555
C92 C114 1_555 1_555
C94 C105 1_555 1_555
C99 C101 1_555 1_555
C102 C121 1_555 1_555
C103 C119 1_555 1_555
C107 C111 1_555 1_555
C107 C112 1_555 1_555
C109 C114 1_555 1_555
C110 C117 1_555 1_555
C110 C120 1_555 1_555
C112 C113 1_555 1_555
C113 C126 1_555 1_555
C116 C122 1_555 1_555
C116 C123 1_555 1_555
C117 C124 1_555 1_555
C118 C120 1_555 1_555
C118 C125 1_555 1_555
C123 C126 1_555 1_555
C124 C125 1_555 1_555

#END
