
#######################################################################
#
#                 Cambridge Crystallographic Data Centre
#                                CCDC 
#
#######################################################################
#
# If this CIF has been generated from an entry in the Cambridge 
# Structural Database, then it will include bibliographic, chemical, 
# crystal, experimental, refinement or atomic coordinate data resulting 
# from the CCDC's data processing and validation procedures.
#
#######################################################################

data_AGIMEK
_chemical_name_common            
'2-(1-Oxo-1H-2,3-dihydroisoindol-2-yl)-3-imidazolyl-L-lactamic acid'
_chemical_formula_moiety         'C14 H13 N3 O3'
_chemical_name_systematic        
3-(1H-Imidazol-3-ium-5-yl)-2-(1-oxo-1,3-dihydro-2H-isoindol-2-yl)propanoate
_symmetry_cell_setting           orthorhombic
_symmetry_space_group_name_H-M   'P 21 21 21'
_symmetry_Int_Tables_number      19
_space_group_name_Hall           'P 2ac 2ab'
loop_
_symmetry_equiv_pos_site_id
_symmetry_equiv_pos_as_xyz
1 x,y,z
2 1/2-x,-y,1/2+z
3 -x,1/2+y,1/2-z
4 1/2+x,1/2-y,-z
_cell_length_a                   8.9719(3)
_cell_length_b                   10.6840(4)
_cell_length_c                   13.3227(5)
_cell_angle_alpha                90
_cell_angle_beta                 90
_cell_angle_gamma                90
_cell_volume                     1277.06
_exptl_crystal_colour            colorless
_exptl_crystal_description       block
_cell_formula_units_Z            4
loop_
_atom_site_label
_atom_site_type_symbol
_atom_site_fract_x
_atom_site_fract_y
_atom_site_fract_z
O1 O -0.0068(3) 0.2997(3) 0.69377(14)
O2 O -0.0702(3) 0.1878(2) 0.82619(19)
O3 O -0.1880(3) 0.50650(19) 0.97853(17)
N1 N 0.1975(2) 0.65055(19) 0.90242(16)
H1 H 0.142(3) 0.680(3) 0.851(2)
N2 N 0.3430(3) 0.6379(2) 1.03002(18)
H2 H 0.396(4) 0.659(4) 1.083(2)
N3 N 0.0062(2) 0.36863(19) 0.95832(15)
C1 C 0.2472(3) 0.5285(2) 0.90544(18)
C2 C 0.3377(3) 0.5220(2) 0.9877(2)
H3 H 0.3869 0.4509 1.0108
C3 C 0.2579(3) 0.7138(2) 0.9783(2)
H4 H 0.2422 0.7980 0.9923
C4 C 0.1960(3) 0.4306(2) 0.83375(18)
H5 H 0.2588 0.3572 0.8403
H6 H 0.2058 0.4617 0.7657
C5 C 0.0320(3) 0.3936(2) 0.85319(17)
H7 H -0.0299 0.4656 0.8348
C6 C -0.0179(3) 0.2820(3) 0.7867(2)
C7 C -0.1008(3) 0.4279(2) 1.01137(18)
C8 C -0.0905(3) 0.3790(2) 1.11450(18)
C9 C -0.1774(5) 0.4109(3) 1.1979(2)
H8 H -0.2539 0.4694 1.1934
C10 C -0.1442(5) 0.3512(4) 1.2873(2)
H9 H -0.1979 0.3711 1.3448
C11 C -0.0328(5) 0.2626(4) 1.2925(2)
H10 H -0.0138 0.2234 1.3535
C12 C 0.0518(4) 0.2305(4) 1.2093(2)
H11 H 0.1269 0.1707 1.2138
C13 C 0.0208(3) 0.2903(3) 1.11909(19)
C14 C 0.0916(3) 0.2780(2) 1.01840(19)
H12 H 0.1965 0.2998 1.0207
H13 H 0.0810 0.1938 0.9922
loop_
_geom_bond_atom_site_label_1
_geom_bond_atom_site_label_2
_geom_bond_site_symmetry_1
_geom_bond_site_symmetry_2
O1 C6 1_555 1_555
O2 C6 1_555 1_555
O3 C7 1_555 1_555
N1 H1 1_555 1_555
N2 H2 1_555 1_555
N3 C5 1_555 1_555
C1 N1 1_555 1_555
C2 N2 1_555 1_555
H3 C2 1_555 1_555
C3 N1 1_555 1_555
H4 C3 1_555 1_555
C4 C1 1_555 1_555
H5 C4 1_555 1_555
H6 C4 1_555 1_555
C5 C4 1_555 1_555
H7 C5 1_555 1_555
C6 C5 1_555 1_555
C7 N3 1_555 1_555
C8 C7 1_555 1_555
C9 C8 1_555 1_555
H8 C9 1_555 1_555
C10 C9 1_555 1_555
H9 C10 1_555 1_555
C11 C10 1_555 1_555
H10 C11 1_555 1_555
C12 C11 1_555 1_555
H11 C12 1_555 1_555
C13 C8 1_555 1_555
C14 N3 1_555 1_555
H12 C14 1_555 1_555
H13 C14 1_555 1_555
N2 C3 1_555 1_555
C1 C2 1_555 1_555
C12 C13 1_555 1_555
C13 C14 1_555 1_555

#END
