
#######################################################################
#
#                 Cambridge Crystallographic Data Centre
#                                CCDC 
#
#######################################################################
#
# If this CIF has been generated from an entry in the Cambridge 
# Structural Database, then it will include bibliographic, chemical, 
# crystal, experimental, refinement or atomic coordinate data resulting 
# from the CCDC's data processing and validation procedures.
#
#######################################################################

data_AGINAI
_chemical_formula_moiety         'C38 H36 N2'
_chemical_name_systematic        
N,N'-(octane-1,8-diyl)bis[1-(anthracen-9-yl)methanimine]
_symmetry_cell_setting           monoclinic
_symmetry_space_group_name_H-M   'P 21/c'
_symmetry_Int_Tables_number      14
_space_group_name_Hall           '-P 2ybc'
loop_
_symmetry_equiv_pos_site_id
_symmetry_equiv_pos_as_xyz
1 x,y,z
2 -x,1/2+y,1/2-z
3 -x,-y,-z
4 x,1/2-y,1/2+z
_cell_length_a                   4.2722(3)
_cell_length_b                   30.7963(16)
_cell_length_c                   31.8951(14)
_cell_angle_alpha                90
_cell_angle_beta                 91.470(5)
_cell_angle_gamma                90
_cell_volume                     4194.99
_exptl_crystal_colour            'light yellow'
_exptl_crystal_description       needle
_cell_formula_units_Z            6
loop_
_atom_site_label
_atom_site_type_symbol
_atom_site_fract_x
_atom_site_fract_y
_atom_site_fract_z
C1 C 0.1518(6) 0.52154(7) 0.30569(7)
C2 C -0.1186(6) 0.51819(7) 0.37265(6)
C3 C 0.2628(6) 0.47808(8) 0.31242(7)
C4 C -0.0377(6) 0.54130(7) 0.33609(7)
N1 N -0.0023(5) 0.61808(6) 0.31930(5)
C5 C -1.0955(6) 0.79008(7) 0.05854(6)
C6 C -0.8445(6) 0.79744(7) -0.00933(6)
C7 C -1.1667(6) 0.76740(8) 0.09641(7)
H1 H -1.0845 0.7398 0.1009
C8 C 0.2350(6) 0.54249(8) 0.26749(7)
H2 H 0.1658 0.5706 0.2622
C9 C 0.1811(6) 0.45594(8) 0.34855(7)
H3 H 0.2533 0.4277 0.3527
C10 C -0.0058(6) 0.47482(8) 0.37873(7)
N2 N -0.8993(5) 0.69496(6) 0.04297(5)
C11 C -0.9681(6) 0.84053(8) -0.01341(7)
C12 C 0.4131(6) 0.52206(8) 0.23880(7)
H4 H 0.4626 0.5364 0.2142
C13 C -1.2207(6) 0.83315(7) 0.05375(7)
C14 C -1.1516(6) 0.85708(8) 0.01807(7)
H5 H -1.2313 0.8851 0.0153
C15 C -0.9074(6) 0.77247(7) 0.02694(7)
C16 C -0.3059(6) 0.53644(8) 0.40464(7)
H6 H -0.3830 0.5645 0.4014
C17 C -0.6673(6) 0.78110(8) -0.04348(7)
H7 H -0.5854 0.7532 -0.0418
C18 C -1.4119(6) 0.85053(8) 0.08579(7)
H8 H -1.4941 0.8783 0.0825
C19 C -1.4771(6) 0.82763(8) 0.12088(7)
H9 H -1.6028 0.8395 0.1413
C20 C -0.1667(6) 0.58582(8) 0.33050(6)
H10 H -0.3779 0.5903 0.3354
C21 C 0.5242(6) 0.47940(8) 0.24573(7)
H11 H 0.6458 0.4658 0.2258
C22 C -0.7339(6) 0.84831(8) -0.08151(7)
H12 H -0.6956 0.8648 -0.1053
C23 C 0.4527(6) 0.45830(8) 0.28159(7)
H13 H 0.5290 0.4304 0.2862
C24 C -0.7589(6) 0.72889(8) 0.03037(6)
H14 H -0.5509 0.7262 0.0229
C25 C -0.3606(6) 0.66926(8) 0.19526(6)
H15 H -0.1633 0.6805 0.1855
H16 H -0.5010 0.6937 0.1987
C26 C -0.5571(6) 0.66170(7) 0.11980(6)
H17 H -0.6922 0.6865 0.1241
H18 H -0.3588 0.6725 0.1100
C27 C -0.9013(6) 0.86526(8) -0.05029(7)
H19 H -0.9753 0.8936 -0.0527
C28 C -0.5000(6) 0.63897(8) 0.16180(7)
H20 H -0.3587 0.6147 0.1579
H21 H -0.6967 0.6274 0.1715
C29 C -1.3510(6) 0.78522(8) 0.12598(7)
H22 H -1.3951 0.7694 0.1499
C30 C -0.3736(7) 0.51353(8) 0.43978(7)
H23 H -0.4966 0.5261 0.4601
C31 C -0.1645(6) 0.66002(7) 0.31523(7)
H24 H -0.0680 0.6808 0.3344
H25 H -0.3816 0.6565 0.3228
C32 C -0.0841(6) 0.45198(8) 0.41621(7)
H26 H -0.0130 0.4237 0.4202
C33 C -0.7050(6) 0.63316(7) 0.08576(7)
H27 H -0.9168 0.6259 0.0935
H28 H -0.5875 0.6063 0.0842
C34 C -0.7147(6) 0.65458(7) 0.04269(7)
H29 H -0.5030 0.6610 0.0343
H30 H -0.8064 0.6346 0.0223
C35 C -0.6161(6) 0.80546(8) -0.07821(7)
H31 H -0.5025 0.7938 -0.1000
C36 C -0.3041(6) 0.64759(8) 0.23778(7)
H32 H -0.5029 0.6376 0.2482
H33 H -0.1720 0.6223 0.2341
C37 C -0.2596(7) 0.47091(9) 0.44577(7)
H34 H -0.3054 0.4558 0.4701
C38 C -0.1505(6) 0.67733(7) 0.27050(7)
H35 H -0.2527 0.7054 0.2692
H36 H 0.0671 0.6816 0.2635
C39 C 0.3317(6) 0.68850(8) 0.79552(7)
C40 C 0.2579(6) 0.62281(7) 0.83820(6)
C41 C 0.5845(6) 0.68330(8) 0.86454(7)
C42 C -0.0317(6) 0.65162(8) 0.73019(7)
H37 H -0.1495 0.6394 0.7083
N3 N 0.2373(5) 0.54631(6) 0.85733(5)
C43 C 0.8413(7) 0.67933(8) 0.93305(7)
H38 H 0.9689 0.6916 0.9539
C44 C 0.4522(6) 0.64082(8) 0.87031(7)
C45 C 0.1986(6) 0.64607(7) 0.80051(7)
C46 C 0.0164(6) 0.62887(8) 0.76619(7)
H39 H -0.0715 0.6014 0.7686
C47 C 0.5183(6) 0.70590(8) 0.82755(7)
H40 H 0.6019 0.7335 0.8242
C48 C 0.5233(6) 0.61907(8) 0.90903(7)
H41 H 0.4404 0.5916 0.9137
C49 C 0.0958(6) 0.69384(8) 0.72563(7)
H42 H 0.0588 0.7093 0.7010
C50 C 0.7822(6) 0.70121(8) 0.89695(7)
H43 H 0.8718 0.7284 0.8932
C51 C 0.2710(6) 0.71150(8) 0.75710(7)
H44 H 0.3540 0.7392 0.7538
C52 C 0.7092(6) 0.63778(8) 0.93900(7)
H45 H 0.7505 0.6230 0.9640
C53 C 0.0997(6) 0.58019(8) 0.84348(6)
H46 H -0.1120 0.5782 0.8362
C54 C 0.0019(6) 0.51032(8) 0.93946(7)
H47 H 0.1223 0.5370 0.9407
H48 H -0.2169 0.5181 0.9356
C55 C 0.0443(7) 0.48628(8) 0.98098(6)
H49 H 0.2612 0.4773 0.9843
H50 H -0.0837 0.4603 0.9802
C56 C 0.0462(6) 0.50661(8) 0.85976(7)
H51 H 0.0983 0.4872 0.8370
H52 H -0.1737 0.5141 0.8567
C57 C 0.1042(6) 0.48377(8) 0.90155(7)
H53 H 0.3258 0.4774 0.9048
H54 H -0.0078 0.4564 0.9012
C39B C -0.3317(6) 0.31150(8) 1.20448(7)
C40B C -0.2579(6) 0.37719(7) 1.16180(6)
C41B C -0.5845(6) 0.31670(8) 1.13546(7)
C42B C 0.0317(6) 0.34838(8) 1.26981(7)
H37B H 0.1495 0.3606 1.2917
N3B N -0.2373(5) 0.45369(6) 1.14267(5)
C43B C -0.8413(7) 0.32067(8) 1.06695(7)
H38B H -0.9689 0.3084 1.0461
C44B C -0.4522(6) 0.35918(8) 1.12969(7)
C45B C -0.1986(6) 0.35393(7) 1.19949(7)
C46B C -0.0164(6) 0.37113(8) 1.23381(7)
H39B H 0.0715 0.3986 1.2314
C47B C -0.5183(6) 0.29410(8) 1.17245(7)
H40B H -0.6019 0.2665 1.1758
C48B C -0.5233(6) 0.38093(8) 1.09097(7)
H41B H -0.4404 0.4084 1.0863
C49B C -0.0958(6) 0.30616(8) 1.27437(7)
H42B H -0.0588 0.2907 1.2990
C50B C -0.7822(6) 0.29879(8) 1.10305(7)
H43B H -0.8718 0.2716 1.1068
C51B C -0.2710(6) 0.28850(8) 1.24290(7)
H44B H -0.3540 0.2608 1.2462
C52B C -0.7092(6) 0.36222(8) 1.06100(7)
H45B H -0.7505 0.3770 1.0360
C53B C -0.0997(6) 0.41981(8) 1.15652(6)
H46B H 0.1120 0.4218 1.1638
C54B C -0.0019(6) 0.48968(8) 1.06054(7)
H47B H -0.1223 0.4630 1.0593
H48B H 0.2169 0.4819 1.0644
C55B C -0.0443(7) 0.51372(8) 1.01902(6)
H49B H -0.2612 0.5227 1.0157
H50B H 0.0837 0.5397 1.0198
C56B C -0.0462(6) 0.49339(8) 1.14024(7)
H51B H -0.0983 0.5128 1.1630
H52B H 0.1737 0.4859 1.1433
C57B C -0.1042(6) 0.51623(8) 1.09845(7)
H53B H -0.3258 0.5226 1.0952
H54B H 0.0078 0.5436 1.0988
loop_
_geom_bond_atom_site_label_1
_geom_bond_atom_site_label_2
_geom_bond_site_symmetry_1
_geom_bond_site_symmetry_2
C1 C3 1_555 1_555
C2 C4 1_555 1_555
C3 C9 1_555 1_555
C4 C1 1_555 1_555
N1 C20 1_555 1_555
C5 C7 1_555 1_555
C6 C11 1_555 1_555
C7 H1 1_555 1_555
C8 C1 1_555 1_555
H2 C8 1_555 1_555
C9 H3 1_555 1_555
C10 C2 1_555 1_555
N2 C24 1_555 1_555
C11 C14 1_555 1_555
C12 C8 1_555 1_555
H4 C12 1_555 1_555
C13 C5 1_555 1_555
C14 C13 1_555 1_555
H5 C14 1_555 1_555
C15 C5 1_555 1_555
C16 C2 1_555 1_555
H6 C16 1_555 1_555
C17 C6 1_555 1_555
H7 C17 1_555 1_555
C18 C13 1_555 1_555
H8 C18 1_555 1_555
C19 C18 1_555 1_555
H9 C19 1_555 1_555
C20 C4 1_555 1_555
H10 C20 1_555 1_555
C21 C12 1_555 1_555
H11 C21 1_555 1_555
C22 H12 1_555 1_555
C23 C3 1_555 1_555
H13 C23 1_555 1_555
C24 C15 1_555 1_555
H14 C24 1_555 1_555
C25 H15 1_555 1_555
H16 C25 1_555 1_555
C26 H17 1_555 1_555
H18 C26 1_555 1_555
C27 C11 1_555 1_555
H19 C27 1_555 1_555
C28 C25 1_555 1_555
H20 C28 1_555 1_555
H21 C28 1_555 1_555
C29 C7 1_555 1_555
H22 C29 1_555 1_555
C30 C16 1_555 1_555
H23 C30 1_555 1_555
C31 N1 1_555 1_555
H24 C31 1_555 1_555
H25 C31 1_555 1_555
C32 C10 1_555 1_555
H26 C32 1_555 1_555
C33 C26 1_555 1_555
H27 C33 1_555 1_555
H28 C33 1_555 1_555
C34 N2 1_555 1_555
H29 C34 1_555 1_555
H30 C34 1_555 1_555
C35 C17 1_555 1_555
H31 C35 1_555 1_555
C36 C25 1_555 1_555
H32 C36 1_555 1_555
H33 C36 1_555 1_555
C37 C30 1_555 1_555
H34 C37 1_555 1_555
C38 C31 1_555 1_555
H35 C38 1_555 1_555
H36 C38 1_555 1_555
C39 C45 1_555 1_555
C40 C44 1_555 1_555
C41 C44 1_555 1_555
C42 H37 1_555 1_555
N3 C53 1_555 1_555
C43 H38 1_555 1_555
C44 C48 1_555 1_555
C45 C40 1_555 1_555
C46 C42 1_555 1_555
H39 C46 1_555 1_555
C47 C39 1_555 1_555
H40 C47 1_555 1_555
C48 H41 1_555 1_555
C49 C42 1_555 1_555
H42 C49 1_555 1_555
C50 C41 1_555 1_555
H43 C50 1_555 1_555
C51 C39 1_555 1_555
H44 C51 1_555 1_555
C52 C43 1_555 1_555
H45 C52 1_555 1_555
C53 C40 1_555 1_555
H46 C53 1_555 1_555
C54 H47 1_555 1_555
H48 C54 1_555 1_555
C55 C54 1_555 1_555
H49 C55 1_555 1_555
H50 C55 1_555 1_555
C56 N3 1_555 1_555
H51 C56 1_555 1_555
H52 C56 1_555 1_555
C57 C54 1_555 1_555
H53 C57 1_555 1_555
H54 C57 1_555 1_555
C39B C45B 1_555 1_555
C40B C44B 1_555 1_555
C41B C44B 1_555 1_555
C42B H37B 1_555 1_555
N3B C53B 1_555 1_555
C43B H38B 1_555 1_555
C44B C48B 1_555 1_555
C45B C40B 1_555 1_555
C46B C42B 1_555 1_555
H39B C46B 1_555 1_555
C47B C39B 1_555 1_555
H40B C47B 1_555 1_555
C48B H41B 1_555 1_555
C49B C42B 1_555 1_555
H42B C49B 1_555 1_555
C50B C41B 1_555 1_555
H43B C50B 1_555 1_555
C51B C39B 1_555 1_555
H44B C51B 1_555 1_555
C52B C43B 1_555 1_555
H45B C52B 1_555 1_555
C53B C40B 1_555 1_555
H46B C53B 1_555 1_555
C54B H47B 1_555 1_555
H48B C54B 1_555 1_555
C55B C55 1_555 1_555
H49B C55B 1_555 1_555
H50B C55B 1_555 1_555
C56B N3B 1_555 1_555
H51B C56B 1_555 1_555
H52B C56B 1_555 1_555
C57B C54B 1_555 1_555
H53B C57B 1_555 1_555
H54B C57B 1_555 1_555
C6 C15 1_555 1_555
C9 C10 1_555 1_555
C19 C29 1_555 1_555
C21 C23 1_555 1_555
C22 C27 1_555 1_555
C22 C35 1_555 1_555
C26 C28 1_555 1_555
C32 C37 1_555 1_555
C33 C34 1_555 1_555
C36 C38 1_555 1_555
C41 C47 1_555 1_555
C43 C50 1_555 1_555
C45 C46 1_555 1_555
C48 C52 1_555 1_555
C49 C51 1_555 1_555
C56 C57 1_555 1_555
C41B C47B 1_555 1_555
C43B C50B 1_555 1_555
C45B C46B 1_555 1_555
C48B C52B 1_555 1_555
C49B C51B 1_555 1_555
C54B C55B 1_555 1_555
C56B C57B 1_555 1_555

#END
