
#######################################################################
#
#                 Cambridge Crystallographic Data Centre
#                                CCDC 
#
#######################################################################
#
# If this CIF has been generated from an entry in the Cambridge 
# Structural Database, then it will include bibliographic, chemical, 
# crystal, experimental, refinement or atomic coordinate data resulting 
# from the CCDC's data processing and validation procedures.
#
#######################################################################

data_AGINIQ
_chemical_formula_moiety         'C35 H30 N2'
_chemical_name_systematic        
N,N'-(pentane-1,5-diyl)bis[1-(anthracen-9-yl)methanimine]
_symmetry_cell_setting           monoclinic
_symmetry_space_group_name_H-M   'P 21/n'
_symmetry_Int_Tables_number      14
_space_group_name_Hall           '-P 2yn'
loop_
_symmetry_equiv_pos_site_id
_symmetry_equiv_pos_as_xyz
1 x,y,z
2 1/2-x,1/2+y,1/2-z
3 -x,-y,-z
4 1/2+x,1/2-y,1/2+z
_cell_length_a                   4.3991(2)
_cell_length_b                   39.429(2)
_cell_length_c                   14.6198(7)
_cell_angle_alpha                90
_cell_angle_beta                 98.432(6)
_cell_angle_gamma                90
_cell_volume                     2508.42
_exptl_crystal_colour            'light yellow'
_exptl_crystal_description       needle
_cell_formula_units_Z            4
loop_
_atom_site_label
_atom_site_type_symbol
_atom_site_fract_x
_atom_site_fract_y
_atom_site_fract_z
C1 C 0.7959(5) 0.12882(6) 0.04587(17)
N1 N 1.3038(4) -0.09350(5) 0.47771(14)
C2 C 0.9158(5) 0.09553(6) 0.05702(17)
C3 C 1.1558(6) 0.01224(6) 0.28545(17)
H1 H 1.3703 0.0116 0.2769
H2 H 1.0390 -0.0001 0.2347
C4 C 0.8580(5) 0.14879(6) -0.03146(17)
N2 N 1.1056(4) 0.06555(5) 0.19674(15)
C5 C 1.0763(5) 0.08132(6) -0.01016(17)
C6 C 1.0235(5) 0.13451(6) -0.09582(17)
H3 H 1.0641 0.1476 -0.1455
C7 C 1.1307(5) 0.10117(6) -0.08822(17)
C8 C 1.1205(6) -0.00546(6) 0.37635(17)
H4 H 1.2387 0.0069 0.4269
H5 H 0.9063 -0.0045 0.3851
C9 C 1.0644(5) -0.17513(6) 0.41272(17)
C10 C 0.7529(5) 0.18311(6) -0.03955(18)
H6 H 0.7981 0.1964 -0.0884
C11 C 0.8757(5) 0.07705(6) 0.14322(17)
H7 H 0.6792 0.0739 0.1581
C12 C 0.5883(5) 0.19661(6) 0.02301(18)
H8 H 0.5219 0.2190 0.0170
C13 C 1.1820(5) -0.05900(6) 0.47249(18)
H9 H 1.2873 -0.0457 0.5233
H10 H 0.9651 -0.0595 0.4782
C14 C 1.5350(5) -0.20057(6) 0.54770(17)
C15 C 1.1715(5) -0.20912(6) 0.40719(17)
C16 C 0.5174(5) 0.17657(6) 0.09748(18)
H11 H 0.3986 0.1857 0.1390
C17 C 1.2074(5) -0.15341(6) 0.48328(16)
C18 C 1.1806(5) 0.04666(6) -0.00713(18)
H12 H 1.1448 0.0328 0.0417
C19 C 1.1120(5) -0.11725(6) 0.48182(17)
H13 H 0.9073 -0.1119 0.4840
C20 C 1.3303(5) 0.03384(7) -0.07423(17)
H14 H 1.3928 0.0113 -0.0710
C21 C 1.2949(5) 0.08684(6) -0.15552(17)
H15 H 1.3359 0.1001 -0.2049
C22 C 1.4034(5) -0.22102(6) 0.47503(17)
H16 H 1.4718 -0.2432 0.4715
C23 C 1.0476(5) 0.04900(6) 0.28200(17)
H17 H 0.8293 0.0497 0.2857
H18 H 1.1543 0.0612 0.3348
C24 C 1.4393(5) -0.16580(6) 0.55225(17)
C25 C 0.6205(5) 0.14408(6) 0.10924(16)
H19 H 0.5755 0.1316 0.1596
C26 C 1.2246(6) -0.04242(6) 0.38090(18)
H20 H 1.1074 -0.0549 0.3305
H21 H 1.4397 -0.0435 0.3732
C27 C 0.8126(6) -0.21754(7) 0.26594(19)
H22 H 0.7328 -0.2311 0.2162
C28 C 1.7654(5) -0.21320(6) 0.61862(18)
H23 H 1.8267 -0.2357 0.6167
C29 C 1.3930(5) 0.05418(7) -0.14900(18)
H24 H 1.5009 0.0452 -0.1935
C30 C 0.8188(5) -0.16373(7) 0.34411(17)
H25 H 0.7427 -0.1418 0.3474
C31 C 1.5820(5) -0.14568(6) 0.62763(16)
H26 H 1.5235 -0.1232 0.6322
C32 C 1.8965(5) -0.19308(7) 0.68863(18)
H27 H 2.0479 -0.2017 0.7337
C33 C 1.8025(5) -0.15890(7) 0.69298(18)
H28 H 1.8928 -0.1452 0.7413
C34 C 1.0422(5) -0.22944(7) 0.33072(18)
H29 H 1.1160 -0.2513 0.3249
C35 C 0.6963(6) -0.18452(7) 0.27450(19)
H30 H 0.5331 -0.1769 0.2317
loop_
_geom_bond_atom_site_label_1
_geom_bond_atom_site_label_2
_geom_bond_site_symmetry_1
_geom_bond_site_symmetry_2
C1 C2 1_555 1_555
N1 C13 1_555 1_555
C2 C5 1_555 1_555
C3 H1 1_555 1_555
H2 C3 1_555 1_555
C4 C1 1_555 1_555
N2 C11 1_555 1_555
C5 C7 1_555 1_555
C6 C4 1_555 1_555
H3 C6 1_555 1_555
C7 C6 1_555 1_555
C8 C3 1_555 1_555
H4 C8 1_555 1_555
H5 C8 1_555 1_555
C9 C15 1_555 1_555
C10 C4 1_555 1_555
H6 C10 1_555 1_555
C11 C2 1_555 1_555
H7 C11 1_555 1_555
C12 C10 1_555 1_555
H8 C12 1_555 1_555
C13 H9 1_555 1_555
H10 C13 1_555 1_555
C14 C22 1_555 1_555
C15 C22 1_555 1_555
C16 C12 1_555 1_555
H11 C16 1_555 1_555
C17 C9 1_555 1_555
C18 C5 1_555 1_555
H12 C18 1_555 1_555
C19 N1 1_555 1_555
H13 C19 1_555 1_555
C20 C18 1_555 1_555
H14 C20 1_555 1_555
C21 C7 1_555 1_555
H15 C21 1_555 1_555
C22 H16 1_555 1_555
C23 C3 1_555 1_555
H17 C23 1_555 1_555
H18 C23 1_555 1_555
C24 C14 1_555 1_555
C25 C1 1_555 1_555
H19 C25 1_555 1_555
C26 C8 1_555 1_555
H20 C26 1_555 1_555
H21 C26 1_555 1_555
C27 H22 1_555 1_555
C28 C14 1_555 1_555
H23 C28 1_555 1_555
C29 C20 1_555 1_555
H24 C29 1_555 1_555
C30 C9 1_555 1_555
H25 C30 1_555 1_555
C31 C24 1_555 1_555
H26 C31 1_555 1_555
C32 C28 1_555 1_555
H27 C32 1_555 1_555
C33 C31 1_555 1_555
H28 C33 1_555 1_555
C34 C15 1_555 1_555
H29 C34 1_555 1_555
C35 C27 1_555 1_555
H30 C35 1_555 1_555
N2 C23 1_555 1_555
C13 C26 1_555 1_555
C16 C25 1_555 1_555
C17 C19 1_555 1_555
C17 C24 1_555 1_555
C21 C29 1_555 1_555
C27 C34 1_555 1_555
C30 C35 1_555 1_555
C32 C33 1_555 1_555

#END
