
#######################################################################
#
#                 Cambridge Crystallographic Data Centre
#                                CCDC 
#
#######################################################################
#
# If this CIF has been generated from an entry in the Cambridge 
# Structural Database, then it will include bibliographic, chemical, 
# crystal, experimental, refinement or atomic coordinate data resulting 
# from the CCDC's data processing and validation procedures.
#
#######################################################################

data_AGIQOY
_chemical_formula_moiety         'C15 H6 F4 N4 O1'
_chemical_name_systematic        
4-Azido-N-(4-ethynylphenyl)-2,3,5,6-tetrafluorobenzamide
_symmetry_cell_setting           orthorhombic
_symmetry_space_group_name_H-M   'P 21 21 21'
_symmetry_Int_Tables_number      19
_space_group_name_Hall           'P 2ac 2ab'
loop_
_symmetry_equiv_pos_site_id
_symmetry_equiv_pos_as_xyz
1 x,y,z
2 1/2-x,-y,1/2+z
3 -x,1/2+y,1/2-z
4 1/2+x,1/2-y,-z
_cell_length_a                   6.1396(12)
_cell_length_b                   7.5599(15)
_cell_length_c                   30.535(6)
_cell_angle_alpha                90
_cell_angle_beta                 90
_cell_angle_gamma                90
_cell_volume                     1417.27
_exptl_crystal_colour            colorless
_exptl_crystal_description       block
_cell_formula_units_Z            4
loop_
_atom_site_label
_atom_site_type_symbol
_atom_site_fract_x
_atom_site_fract_y
_atom_site_fract_z
C1 C 0.5891(6) 0.4542(5) 0.24878(11)
C2 C 0.6114(6) 0.4204(5) 0.20074(11)
C3 C 0.7983(6) 0.3504(6) 0.18357(13)
C4 C 0.8372(6) 0.3353(6) 0.13910(14)
C5 C 0.6871(7) 0.3960(6) 0.10916(12)
C6 C 0.4968(6) 0.4667(6) 0.12534(11)
C7 C 0.4603(6) 0.4781(6) 0.16968(12)
C8 C 0.3573(6) 0.3939(5) 0.31285(11)
C9 C 0.1535(6) 0.3318(5) 0.32405(11)
H1 H 0.0582 0.2953 0.3022
C10 C 0.0890(6) 0.3232(5) 0.36755(12)
H2 H -0.0478 0.2788 0.3747
C11 C 0.2283(7) 0.3806(6) 0.40051(12)
C12 C 0.4309(7) 0.4429(6) 0.38918(11)
H3 H 0.5263 0.4791 0.4111
C13 C 0.4962(6) 0.4529(5) 0.34553(11)
H4 H 0.6321 0.4988 0.3384
C14 C 0.1602(8) 0.3726(7) 0.44582(12)
C15 C 0.1035(8) 0.3676(7) 0.48175(13)
H5 H 0.0577 0.3636 0.5108
F1 F 0.9497(3) 0.2840(4) 0.21113(6)
F2 F 1.0234(3) 0.2599(3) 0.12560(8)
F3 F 0.3445(3) 0.5310(3) 0.09779(6)
F4 F 0.2736(3) 0.5561(3) 0.18366(6)
N1 N 0.4086(5) 0.3872(4) 0.26695(8)
N2 N 0.7024(6) 0.3912(6) 0.06325(11)
N3 N 0.8819(8) 0.3522(7) 0.04708(13)
N4 N 1.0275(8) 0.3228(8) 0.02615(13)
O1 O 0.7327(4) 0.5375(4) 0.26698(7)
loop_
_geom_bond_atom_site_label_1
_geom_bond_atom_site_label_2
_geom_bond_site_symmetry_1
_geom_bond_site_symmetry_2
C1 C2 1_555 1_555
C2 C3 1_555 1_555
C3 C4 1_555 1_555
C4 C5 1_555 1_555
C5 C6 1_555 1_555
C6 C7 1_555 1_555
C7 C2 1_555 1_555
C8 C9 1_555 1_555
C9 H1 1_555 1_555
C10 C9 1_555 1_555
H2 C10 1_555 1_555
C11 C10 1_555 1_555
C12 C11 1_555 1_555
H3 C12 1_555 1_555
C13 C8 1_555 1_555
H4 C13 1_555 1_555
C14 C11 1_555 1_555
C15 C14 1_555 1_555
H5 C15 1_555 1_555
F1 C3 1_555 1_555
F2 C4 1_555 1_555
F3 C6 1_555 1_555
F4 C7 1_555 1_555
N1 C1 1_555 1_555
N2 C5 1_555 1_555
N3 N2 1_555 1_555
N4 N3 1_555 1_555
O1 C1 1_555 1_555
C8 N1 1_555 1_555
C12 C13 1_555 1_555

#END
