
#######################################################################
#
#                 Cambridge Crystallographic Data Centre
#                                CCDC 
#
#######################################################################
#
# If this CIF has been generated from an entry in the Cambridge 
# Structural Database, then it will include bibliographic, chemical, 
# crystal, experimental, refinement or atomic coordinate data resulting 
# from the CCDC's data processing and validation procedures.
#
#######################################################################

data_AGIREQ
_chemical_formula_moiety         'C16 H26 N4 O3 Si1'
_chemical_name_systematic        
'methyl 5-amino-2-(methylamino)-1-{[2-(trimethylsilyl)ethoxy]methyl}-1H-benzimidazole-6-carboxylate'
_symmetry_cell_setting           monoclinic
_symmetry_space_group_name_H-M   'P 21/c'
_symmetry_Int_Tables_number      14
_space_group_name_Hall           '-P 2ybc'
loop_
_symmetry_equiv_pos_site_id
_symmetry_equiv_pos_as_xyz
1 x,y,z
2 -x,1/2+y,1/2-z
3 -x,-y,-z
4 x,1/2-y,1/2+z
_cell_length_a                   14.701(3)
_cell_length_b                   14.486(3)
_cell_length_c                   9.0982(19)
_cell_angle_alpha                90
_cell_angle_beta                 95.384(7)
_cell_angle_gamma                90
_cell_volume                     1928.99
_exptl_crystal_colour            colorless
_exptl_crystal_description       plate
_chemical_melting_point          '421 K'
_cell_formula_units_Z            4
_exptl_crystal_recrystallization_method 
'Re-crystallisation from solvent: Hexane/Toluene'
loop_
_atom_site_label
_atom_site_type_symbol
_atom_site_fract_x
_atom_site_fract_y
_atom_site_fract_z
Si1 Si 0.12555(4) 0.59348(4) 0.29874(8)
O1 O 0.35047(9) 0.59181(9) 0.34768(14)
N1 N 0.45183(11) 0.61938(10) 0.16580(17)
O2 O 0.21460(10) 0.36471(10) -0.24459(16)
O3 O 0.22894(9) 0.36258(9) 0.00270(15)
N2 N 0.50367(11) 0.68534(10) -0.03507(17)
N3 N 0.56394(11) 0.73755(10) 0.20049(18)
H1 H 0.5486(14) 0.7474(14) 0.2909(18)
C1 C 0.35127(13) 0.51100(12) -0.2385(2)
N4 N 0.32808(12) 0.47742(12) -0.37826(19)
H2 H 0.2828(13) 0.4385(14) -0.389(2)
H3 H 0.3342(15) 0.5136(14) -0.453(2)
C2 C 0.41242(13) 0.58593(12) -0.2209(2)
H4 H 0.4327 0.6159 -0.3048
C3 C 0.34864(13) 0.50160(12) 0.0299(2)
H5 H 0.3271 0.4743 0.1151
C4 C 0.44257(13) 0.61543(12) -0.0803(2)
C5 C 0.40970(13) 0.57278(12) 0.0424(2)
C6 C 0.50820(12) 0.68429(12) 0.1114(2)
C7 C 0.62323(13) 0.80460(13) 0.1394(2)
H6 H 0.6503 0.7774 0.0551
H7 H 0.6719 0.8225 0.2151
H8 H 0.5876 0.8592 0.1068
C8 C 0.25057(13) 0.39535(13) -0.1291(2)
C9 C 0.44260(13) 0.59372(13) 0.3167(2)
H9 H 0.4700 0.5320 0.3361
H10 H 0.4766 0.6383 0.3836
C10 C 0.31834(13) 0.46965(12) -0.1123(2)
C11 C 0.15820(15) 0.29310(14) -0.0050(2)
H11 H 0.1750 0.2421 -0.0679
H12 H 0.1004 0.3203 -0.0467
H13 H 0.1512 0.2698 0.0944
C12 C 0.15057(16) 0.46922(15) 0.3341(3)
H14 H 0.1558 0.4576 0.4407
H15 H 0.1009 0.4317 0.2860
H16 H 0.2081 0.4529 0.2943
C13 C 0.11573(19) 0.6144(2) 0.0961(3)
H17 H 0.1025 0.6798 0.0765
H18 H 0.1733 0.5979 0.0566
H19 H 0.0661 0.5766 0.0483
C14 C 0.30664(15) 0.68054(14) 0.3352(3)
H20 H 0.2995 0.7004 0.2306
H21 H 0.3442 0.7270 0.3929
C15 C 0.21378(16) 0.67253(16) 0.3937(3)
H22 H 0.1870 0.7352 0.3934
H23 H 0.2239 0.6528 0.4981
C16 C 0.01621(17) 0.6234(2) 0.3755(3)
H24 H 0.0025 0.6888 0.3573
H25 H -0.0333 0.5855 0.3275
H26 H 0.0219 0.6115 0.4820
loop_
_geom_bond_atom_site_label_1
_geom_bond_atom_site_label_2
_geom_bond_site_symmetry_1
_geom_bond_site_symmetry_2
Si1 C12 1_555 1_555
O1 C9 1_555 1_555
N1 C5 1_555 1_555
O2 C8 1_555 1_555
O3 C8 1_555 1_555
N2 C4 1_555 1_555
N3 H1 1_555 1_555
C1 N4 1_555 1_555
N4 H2 1_555 1_555
H3 N4 1_555 1_555
C2 C1 1_555 1_555
H4 C2 1_555 1_555
C3 H5 1_555 1_555
C4 C2 1_555 1_555
C5 C3 1_555 1_555
C6 N1 1_555 1_555
C7 N3 1_555 1_555
H6 C7 1_555 1_555
H7 C7 1_555 1_555
H8 C7 1_555 1_555
C8 C10 1_555 1_555
C9 N1 1_555 1_555
H9 C9 1_555 1_555
H10 C9 1_555 1_555
C10 C1 1_555 1_555
C11 O3 1_555 1_555
H11 C11 1_555 1_555
H12 C11 1_555 1_555
H13 C11 1_555 1_555
C12 H14 1_555 1_555
H15 C12 1_555 1_555
H16 C12 1_555 1_555
C13 Si1 1_555 1_555
H17 C13 1_555 1_555
H18 C13 1_555 1_555
H19 C13 1_555 1_555
C14 O1 1_555 1_555
H20 C14 1_555 1_555
H21 C14 1_555 1_555
C15 Si1 1_555 1_555
H22 C15 1_555 1_555
H23 C15 1_555 1_555
C16 Si1 1_555 1_555
H24 C16 1_555 1_555
H25 C16 1_555 1_555
H26 C16 1_555 1_555
N2 C6 1_555 1_555
N3 C6 1_555 1_555
C3 C10 1_555 1_555
C4 C5 1_555 1_555
C14 C15 1_555 1_555

#END
