
#######################################################################
#
#                 Cambridge Crystallographic Data Centre
#                                CCDC 
#
#######################################################################
#
# If this CIF has been generated from an entry in the Cambridge 
# Structural Database, then it will include bibliographic, chemical, 
# crystal, experimental, refinement or atomic coordinate data resulting 
# from the CCDC's data processing and validation procedures.
#
#######################################################################

data_AGIRAM
_chemical_formula_moiety         'C16 H26 N4 O3 Si1'
_chemical_name_systematic        
'methyl 6-amino-2-(methylamino)-1-{[2-(trimethylsilyl)ethoxy]methyl}-1H-benzimidazole-5-carboxylate'
_symmetry_cell_setting           monoclinic
_symmetry_space_group_name_H-M   'P 21/c'
_symmetry_Int_Tables_number      14
_space_group_name_Hall           '-P 2ybc'
loop_
_symmetry_equiv_pos_site_id
_symmetry_equiv_pos_as_xyz
1 x,y,z
2 -x,1/2+y,1/2-z
3 -x,-y,-z
4 x,1/2-y,1/2+z
_cell_length_a                   21.5139(18)
_cell_length_b                   9.6626(8)
_cell_length_c                   9.1494(7)
_cell_angle_alpha                90
_cell_angle_beta                 97.742(3)
_cell_angle_gamma                90
_cell_volume                     1884.64
_exptl_crystal_colour            colorless
_exptl_crystal_description       plate
_chemical_melting_point          '378 K'
_cell_formula_units_Z            4
_exptl_crystal_recrystallization_method 
'Re-crystallisation from solvent: Hexane/Toluene'
loop_
_atom_site_label
_atom_site_type_symbol
_atom_site_fract_x
_atom_site_fract_y
_atom_site_fract_z
Si1 Si 0.40655(2) 0.61181(6) 0.70218(6)
O1 O 0.09079(5) 0.40946(12) 1.25584(11)
O2 O 0.03077(5) 0.59205(11) 1.17937(11)
O3 O 0.26700(5) 0.60151(12) 0.54743(12)
N1 N 0.20021(6) 0.45923(13) 0.67005(13)
N2 N 0.22521(6) 0.30511(13) 0.85478(13)
N3 N 0.27751(6) 0.28694(14) 0.64373(13)
H1 H 0.2674(8) 0.2850(18) 0.5484(15)
C1 C 0.12319(7) 0.60324(16) 0.79012(15)
H2 H 0.1147 0.6690 0.7129
N4 N 0.05292(6) 0.71915(15) 0.93155(15)
H3 H 0.0400(8) 0.7695(18) 0.8552(16)
H4 H 0.0267(7) 0.7118(19) 0.9957(16)
C2 C 0.18049(6) 0.39919(16) 0.89406(15)
C3 C 0.07226(6) 0.51089(16) 1.15854(15)
C4 C 0.10657(6) 0.51020(16) 1.03056(15)
C5 C 0.09319(6) 0.61141(16) 0.91761(15)
C6 C 0.05726(7) 0.40162(18) 1.38194(16)
H5 H 0.0120 0.4004 1.3485
H6 H 0.0677 0.4823 1.4455
H7 H 0.0693 0.3169 1.4375
C7 C 0.15089(6) 0.40557(16) 1.01812(15)
H8 H 0.1604 0.3396 1.0949
C8 C 0.23588(6) 0.34488(16) 0.72318(15)
C9 C 0.16520(6) 0.49716(16) 0.78074(15)
C10 C 0.20806(7) 0.53793(17) 0.53797(16)
H9 H 0.2026 0.4752 0.4517
H10 H 0.1750 0.6098 0.5220
C11 C 0.30947(8) 0.16162(18) 0.70079(17)
H11 H 0.3361 0.1274 0.6298
H12 H 0.2784 0.0909 0.7163
H13 H 0.3355 0.1820 0.7947
C12 C 0.40843(8) 0.5021(2) 0.5359(2)
H14 H 0.3685 0.4525 0.5137
H15 H 0.4428 0.4352 0.5545
H16 H 0.4149 0.5607 0.4519
C13 C 0.27722(8) 0.70478(19) 0.6611(2)
H17 H 0.2689 0.6658 0.7566
H18 H 0.2488 0.7845 0.6365
C14 C 0.39305(9) 0.4992(2) 0.8609(2)
H19 H 0.4041 0.5501 0.9533
H20 H 0.4192 0.4161 0.8616
H21 H 0.3488 0.4723 0.8509
C15 C 0.48416(10) 0.7004(3) 0.7464(3)
H22 H 0.4905 0.7637 0.6660
H23 H 0.5177 0.6311 0.7581
H24 H 0.4849 0.7529 0.8383
C16 C 0.34521(9) 0.7506(2) 0.6706(3)
H25 H 0.3534 0.8189 0.7515
H26 H 0.3505 0.7990 0.5777
loop_
_geom_bond_atom_site_label_1
_geom_bond_atom_site_label_2
_geom_bond_site_symmetry_1
_geom_bond_site_symmetry_2
Si1 C12 1_555 1_555
O1 C3 1_555 1_555
O2 C3 1_555 1_555
O3 C10 1_555 1_555
N1 C8 1_555 1_555
N2 C2 1_555 1_555
N3 H1 1_555 1_555
C1 H2 1_555 1_555
N4 H3 1_555 1_555
H4 N4 1_555 1_555
C2 C7 1_555 1_555
C3 C4 1_555 1_555
C4 C5 1_555 1_555
C5 C1 1_555 1_555
C6 O1 1_555 1_555
H5 C6 1_555 1_555
H6 C6 1_555 1_555
H7 C6 1_555 1_555
C7 C4 1_555 1_555
H8 C7 1_555 1_555
C8 N2 1_555 1_555
C9 N1 1_555 1_555
C10 N1 1_555 1_555
H9 C10 1_555 1_555
H10 C10 1_555 1_555
C11 N3 1_555 1_555
H11 C11 1_555 1_555
H12 C11 1_555 1_555
H13 C11 1_555 1_555
C12 H14 1_555 1_555
H15 C12 1_555 1_555
H16 C12 1_555 1_555
C13 O3 1_555 1_555
H17 C13 1_555 1_555
H18 C13 1_555 1_555
C14 Si1 1_555 1_555
H19 C14 1_555 1_555
H20 C14 1_555 1_555
H21 C14 1_555 1_555
C15 Si1 1_555 1_555
H22 C15 1_555 1_555
H23 C15 1_555 1_555
H24 C15 1_555 1_555
C16 Si1 1_555 1_555
H25 C16 1_555 1_555
H26 C16 1_555 1_555
N3 C8 1_555 1_555
C1 C9 1_555 1_555
N4 C5 1_555 1_555
C2 C9 1_555 1_555
C13 C16 1_555 1_555

#END
