
#######################################################################
#
#                 Cambridge Crystallographic Data Centre
#                                CCDC 
#
#######################################################################
#
# If this CIF has been generated from an entry in the Cambridge 
# Structural Database, then it will include bibliographic, chemical, 
# crystal, experimental, refinement or atomic coordinate data resulting 
# from the CCDC's data processing and validation procedures.
#
#######################################################################

data_AGIROZ
_chemical_formula_moiety         'C18 H16 N2 O2'
_chemical_name_systematic        
5-Methyl-6-(4-methylphenyl)-3-phenylpyrimidine-2,4(1H,3H)-dione
_symmetry_cell_setting           monoclinic
_symmetry_space_group_name_H-M   'P 21/c'
_symmetry_Int_Tables_number      14
_space_group_name_Hall           '-P 2ybc'
loop_
_symmetry_equiv_pos_site_id
_symmetry_equiv_pos_as_xyz
1 x,y,z
2 -x,1/2+y,1/2-z
3 -x,-y,-z
4 x,1/2-y,1/2+z
_cell_length_a                   11.1596(3)
_cell_length_b                   9.7432(3)
_cell_length_c                   13.8929(4)
_cell_angle_alpha                90
_cell_angle_beta                 102.5580(10)
_cell_angle_gamma                90
_cell_volume                     1474.44
_exptl_crystal_colour            colorless
_exptl_crystal_description       plate
_cell_formula_units_Z            4
loop_
_atom_site_label
_atom_site_type_symbol
_atom_site_fract_x
_atom_site_fract_y
_atom_site_fract_z
N1 N 0.04283(7) 0.18278(8) 0.96509(6)
H1 H -0.0146 0.123 0.94
N2 N 0.21371(8) 0.24310(9) 1.08551(6)
O1 O 0.12278(6) 0.03286(7) 1.08698(5)
O2 O 0.31173(8) 0.44524(9) 1.07240(6)
C1 C 0.04207(9) 0.30774(10) 0.91691(7)
C2 C -0.06045(9) 0.32245(10) 0.82947(7)
C3 C -0.17788(9) 0.27603(11) 0.83306(8)
H2 H -0.1922 0.238 0.8925
C4 C 0.29568(9) 0.21159(11) 1.17897(7)
C5 C 0.12552(8) 0.14598(10) 1.04794(7)
C6 C -0.04125(10) 0.37697(10) 0.74090(7)
H3 H 0.0379 0.409 0.7368
C7 C -0.13787(10) 0.38434(11) 0.65882(8)
H4 H -0.1236 0.4214 0.5991
C8 C 0.22566(10) 0.37020(11) 1.03846(8)
C9 C -0.27394(10) 0.28481(11) 0.75079(8)
H5 H -0.3534 0.2538 0.7549
C10 C -0.25502(10) 0.33857(11) 0.66221(8)
C11 C 0.13821(12) 0.54186(12) 0.90779(9)
H6 H 0.1958 0.5393 0.8637
H7 H 0.1671 0.6081 0.9608
H8 H 0.0569 0.5694 0.8704
C12 C 0.13032(10) 0.40203(10) 0.95138(7)
C13 C 0.37379(10) 0.09996(12) 1.18677(8)
H9 H 0.3772 0.0467 1.1301
C14 C -0.35848(12) 0.34360(15) 0.57202(9)
H10 H -0.4015 0.4316 0.57
H11 H -0.416 0.2685 0.5747
H12 H -0.3251 0.334 0.5127
C15 C 0.29050(11) 0.29125(12) 1.26052(8)
H13 H 0.2371 0.3682 1.2547
C16 C 0.44745(11) 0.06597(13) 1.27802(9)
H14 H 0.501 -0.0108 1.2838
C17 C 0.44254(12) 0.14397(14) 1.36011(9)
H15 H 0.4923 0.1204 1.4225
C18 C 0.36515(13) 0.25644(14) 1.35143(9)
H16 H 0.3628 0.3105 1.4079
loop_
_geom_bond_atom_site_label_1
_geom_bond_atom_site_label_2
_geom_bond_site_symmetry_1
_geom_bond_site_symmetry_2
N1 H1 1_555 1_555
N2 C4 1_555 1_555
O1 C5 1_555 1_555
O2 C8 1_555 1_555
C1 N1 1_555 1_555
C2 C1 1_555 1_555
C3 C2 1_555 1_555
H2 C3 1_555 1_555
C4 C13 1_555 1_555
C5 N1 1_555 1_555
C6 C2 1_555 1_555
H3 C6 1_555 1_555
C7 C6 1_555 1_555
H4 C7 1_555 1_555
C8 N2 1_555 1_555
C9 C3 1_555 1_555
H5 C9 1_555 1_555
C10 C7 1_555 1_555
C11 H6 1_555 1_555
H7 C11 1_555 1_555
H8 C11 1_555 1_555
C12 C1 1_555 1_555
C13 H9 1_555 1_555
C14 C10 1_555 1_555
H10 C14 1_555 1_555
H11 C14 1_555 1_555
H12 C14 1_555 1_555
C15 C4 1_555 1_555
H13 C15 1_555 1_555
C16 C13 1_555 1_555
H14 C16 1_555 1_555
C17 C16 1_555 1_555
H15 C17 1_555 1_555
C18 C15 1_555 1_555
H16 C18 1_555 1_555
N2 C5 1_555 1_555
C8 C12 1_555 1_555
C9 C10 1_555 1_555
C11 C12 1_555 1_555
C17 C18 1_555 1_555

#END
