
#######################################################################
#
#                 Cambridge Crystallographic Data Centre
#                                CCDC 
#
#######################################################################
#
# If this CIF has been generated from an entry in the Cambridge 
# Structural Database, then it will include bibliographic, chemical, 
# crystal, experimental, refinement or atomic coordinate data resulting 
# from the CCDC's data processing and validation procedures.
#
#######################################################################

data_AGITIV
_chemical_formula_moiety         'C27 H22 F3 N1 O4 S1'
_chemical_name_systematic        
'Methyl 3-((1,3-diphenylprop-2-yn-1-yl)((4-methylphenyl)sulfonyl)amino)-4,4,4-trifluorobut-2-enoate'
_symmetry_cell_setting           monoclinic
_symmetry_space_group_name_H-M   'P 21/c'
_symmetry_Int_Tables_number      14
_space_group_name_Hall           '-P 2ybc'
loop_
_symmetry_equiv_pos_site_id
_symmetry_equiv_pos_as_xyz
1 x,y,z
2 -x,1/2+y,1/2-z
3 -x,-y,-z
4 x,1/2-y,1/2+z
_cell_length_a                   10.3946(8)
_cell_length_b                   19.3743(12)
_cell_length_c                   12.6676(8)
_cell_angle_alpha                90
_cell_angle_beta                 98.403(4)
_cell_angle_gamma                90
_cell_volume                     2523.72
_exptl_crystal_colour            colorless
_exptl_crystal_description       needle
_cell_formula_units_Z            4
loop_
_atom_site_label
_atom_site_type_symbol
_atom_site_fract_x
_atom_site_fract_y
_atom_site_fract_z
S1 S 0.40421(10) 1.09868(5) 0.73102(8)
F1 F -0.0350(3) 1.1128(2) 0.7896(3)
F2 F 0.1238(4) 1.18337(18) 0.7980(3)
F3 F 0.0346(3) 1.14684(17) 0.6487(2)
O1 O 0.3356(3) 1.13276(14) 0.6399(2)
O2 O 0.5086(3) 1.13111(14) 0.7969(2)
O3 O -0.0790(4) 1.0142(3) 0.6219(4)
O4 O 0.0163(3) 0.9126(2) 0.6497(2)
N1 N 0.2928(3) 1.08261(15) 0.8093(2)
C1 C 0.5685(5) 0.8153(2) 0.6077(4)
H1 H 0.5151 0.8005 0.5434
H2 H 0.6582 0.8145 0.5974
H3 H 0.5562 0.7848 0.6651
C2 C 0.5298(4) 0.8871(2) 0.6351(3)
C3 C 0.4339(4) 0.9218(2) 0.5723(3)
H4 H 0.3912 0.9002 0.5085
C4 C 0.3963(4) 0.9877(2) 0.5982(3)
H5 H 0.3282 1.0115 0.5531
C5 C 0.4584(3) 1.01871(19) 0.6906(3)
C6 C 0.5582(4) 0.9851(2) 0.7534(3)
H6 H 0.6020 1.0071 0.8165
C7 C 0.5945(4) 0.9204(2) 0.7251(3)
H7 H 0.6650 0.8973 0.7684
C8 C 0.3345(3) 1.05902(18) 0.9215(3)
H8 H 0.4234 1.0728 0.9418
C9 C 0.3295(4) 0.9837(2) 0.9310(3)
C10 C 0.3163(3) 0.9229(2) 0.9351(3)
C11 C 0.2956(4) 0.8493(2) 0.9332(4)
C12 C 0.3242(6) 0.8110(3) 0.8480(5)
H9 H 0.3655 0.8329 0.7938
C13 C 0.2931(7) 0.7395(4) 0.8432(6)
H10 H 0.3117 0.7118 0.7844
C14 C 0.2421(6) 0.7138(4) 0.9175(5)
H11 H 0.2198 0.6657 0.9102
C15 C 0.2140(6) 0.7439(3) 1.0032(5)
H12 H 0.1764 0.7194 1.0571
C16 C 0.2421(5) 0.8180(3) 1.0154(5)
H13 H 0.2252 0.8442 1.0763
C17 C 0.2541(3) 1.09678(17) 0.9938(3)
C18 C 0.2838(4) 1.1644(2) 1.0206(3)
H14 H 0.3575 1.1858 0.9964
C19 C 0.2078(5) 1.2018(2) 1.0818(4)
H15 H 0.2299 1.2487 1.1009
C20 C 0.1004(5) 1.1712(3) 1.1153(3)
H16 H 0.0471 1.1974 1.1565
C21 C 0.0713(4) 1.1043(2) 1.0891(3)
H17 H -0.0027 1.0832 1.1132
C22 C 0.1468(4) 1.0667(2) 1.0290(3)
H18 H 0.1260 1.0194 1.0117
C23 C 0.0715(5) 1.1283(3) 0.7485(4)
C24 C 0.1648(4) 1.0670(2) 0.7574(3)
C25 C 0.1349(4) 1.0050(2) 0.7200(3)
H19 H 0.2028 0.9711 0.7334
C26 C 0.0116(5) 0.9798(3) 0.6596(4)
C27 C -0.0979(6) 0.8787(4) 0.5929(5)
H20 H -0.0813 0.8300 0.5923
H21 H -0.1717 0.8874 0.6286
H22 H -0.1157 0.8954 0.5208
loop_
_geom_bond_atom_site_label_1
_geom_bond_atom_site_label_2
_geom_bond_site_symmetry_1
_geom_bond_site_symmetry_2
S1 O1 1_555 1_555
F1 C23 1_555 1_555
F2 C23 1_555 1_555
F3 C23 1_555 1_555
O2 S1 1_555 1_555
O3 C26 1_555 1_555
O4 C26 1_555 1_555
N1 S1 1_555 1_555
C1 H1 1_555 1_555
H2 C1 1_555 1_555
H3 C1 1_555 1_555
C2 C1 1_555 1_555
C3 C2 1_555 1_555
H4 C3 1_555 1_555
C4 C3 1_555 1_555
H5 C4 1_555 1_555
C5 S1 1_555 1_555
C6 C5 1_555 1_555
H6 C6 1_555 1_555
C7 C2 1_555 1_555
H7 C7 1_555 1_555
C8 N1 1_555 1_555
H8 C8 1_555 1_555
C9 C8 1_555 1_555
C10 C9 1_555 1_555
C11 C10 1_555 1_555
C12 C11 1_555 1_555
H9 C12 1_555 1_555
C13 C12 1_555 1_555
H10 C13 1_555 1_555
C14 C13 1_555 1_555
H11 C14 1_555 1_555
C15 C14 1_555 1_555
H12 C15 1_555 1_555
C16 C11 1_555 1_555
H13 C16 1_555 1_555
C17 C8 1_555 1_555
C18 C17 1_555 1_555
H14 C18 1_555 1_555
C19 C18 1_555 1_555
H15 C19 1_555 1_555
C20 C19 1_555 1_555
H16 C20 1_555 1_555
C21 C20 1_555 1_555
H17 C21 1_555 1_555
C22 C17 1_555 1_555
H18 C22 1_555 1_555
C23 C24 1_555 1_555
C24 N1 1_555 1_555
C25 C24 1_555 1_555
H19 C25 1_555 1_555
C26 C25 1_555 1_555
C27 O4 1_555 1_555
H20 C27 1_555 1_555
H21 C27 1_555 1_555
H22 C27 1_555 1_555
C4 C5 1_555 1_555
C6 C7 1_555 1_555
C15 C16 1_555 1_555
C21 C22 1_555 1_555

#END
