
#######################################################################
#
#                 Cambridge Crystallographic Data Centre
#                                CCDC 
#
#######################################################################
#
# If this CIF has been generated from an entry in the Cambridge 
# Structural Database, then it will include bibliographic, chemical, 
# crystal, experimental, refinement or atomic coordinate data resulting 
# from the CCDC's data processing and validation procedures.
#
#######################################################################

data_AGIVAQ
_chemical_formula_moiety         'C27 H22 N1 O2 P1'
_chemical_name_systematic        
(Z)-N-[2-(diphenylphosphoryl)-2-phenylethenyl]benzamide
_symmetry_cell_setting           monoclinic
_symmetry_space_group_name_H-M   'P 21'
_symmetry_Int_Tables_number      4
_space_group_name_Hall           'P 2yb'
loop_
_symmetry_equiv_pos_site_id
_symmetry_equiv_pos_as_xyz
1 x,y,z
2 -x,1/2+y,-z
_cell_length_a                   7.8836(5)
_cell_length_b                   12.2399(8)
_cell_length_c                   11.1988(8)
_cell_angle_alpha                90
_cell_angle_beta                 90.174(2)
_cell_angle_gamma                90
_cell_volume                     1080.62
_exptl_crystal_colour            colorless
_exptl_crystal_description       block
_cell_formula_units_Z            2
loop_
_atom_site_label
_atom_site_type_symbol
_atom_site_fract_x
_atom_site_fract_y
_atom_site_fract_z
C1 C 0.4872(3) 1.2214(2) 0.8472(2)
C2 C 0.3416(4) 1.2165(3) 0.9161(3)
H1 H 0.277678 1.150819 0.919704
C3 C 0.2892(4) 1.3075(3) 0.9798(3)
H2 H 0.189007 1.303730 1.026571
C4 C 0.3799(3) 1.4024(2) 0.9762(2)
H3 H 0.343450 1.464268 1.020495
C5 C 0.5241(3) 1.4079(2) 0.9081(2)
H4 H 0.587678 1.473744 0.905147
C6 C 0.5771(3) 1.3178(2) 0.8437(2)
H5 H 0.676732 1.322461 0.796470
C7 C 0.5552(3) 1.1243(2) 0.7817(2)
C8 C 0.4962(3) 0.9385(2) 0.7244(2)
H6 H 0.611982 0.931187 0.702552
C9 C 0.3958(3) 0.8519(2) 0.70531(18)
C10 C 0.4707(3) 0.7534(2) 0.6481(2)
C11 C 0.4548(3) 0.6488(2) 0.6957(2)
H7 H 0.390846 0.638140 0.766485
C12 C 0.5311(3) 0.5602(2) 0.6408(2)
H8 H 0.517820 0.489146 0.673510
C13 C 0.6267(3) 0.5746(2) 0.5386(2)
H9 H 0.680276 0.513734 0.501911
C14 C 0.6437(3) 0.6775(2) 0.4902(2)
H10 H 0.709605 0.687687 0.420165
C15 C 0.5651(3) 0.7661(2) 0.5433(2)
H11 H 0.575369 0.836449 0.508227
C16 C 0.0704(3) 0.8696(2) 0.58701(19)
C17 C -0.0440(3) 0.9543(2) 0.5673(2)
H12 H -0.068603 1.004751 0.629337
C18 C -0.1220(3) 0.9649(3) 0.4567(3)
H13 H -0.199832 1.022889 0.443308
C19 C -0.0874(3) 0.8918(3) 0.3659(2)
H14 H -0.141533 0.899589 0.290464
C20 C 0.0266(3) 0.8070(3) 0.3851(2)
H15 H 0.050293 0.756686 0.322732
C21 C 0.1055(3) 0.7957(2) 0.4949(2)
H16 H 0.183607 0.737702 0.507863
C22 C 0.0946(3) 0.7423(2) 0.8056(2)
C23 C 0.1502(3) 0.7249(2) 0.9227(2)
H17 H 0.229443 0.773677 0.957985
C24 C 0.0904(3) 0.6372(2) 0.9871(2)
H18 H 0.127198 0.626243 1.067081
C25 C -0.0231(3) 0.5649(2) 0.9354(2)
H19 H -0.062970 0.503799 0.979526
C26 C -0.0786(3) 0.5815(2) 0.8196(2)
H20 H -0.156430 0.531714 0.784266
C27 C -0.0209(3) 0.6708(2) 0.7548(2)
H21 H -0.060755 0.682734 0.675762
P1 P 0.16989(7) 0.86376(5) 0.73209(5)
N1 N 0.4477(3) 1.03729(17) 0.77252(17)
H22 H 0.343017 1.044542 0.798461
O1 O 0.6987(2) 1.12317(16) 0.74086(16)
O2 O 0.1313(2) 0.96343(15) 0.80426(16)
loop_
_geom_bond_atom_site_label_1
_geom_bond_atom_site_label_2
_geom_bond_site_symmetry_1
_geom_bond_site_symmetry_2
C1 C2 1_555 1_555
C2 H1 1_555 1_555
C3 C2 1_555 1_555
H2 C3 1_555 1_555
C4 C3 1_555 1_555
H3 C4 1_555 1_555
C5 C4 1_555 1_555
H4 C5 1_555 1_555
C6 C1 1_555 1_555
H5 C6 1_555 1_555
C7 C1 1_555 1_555
C8 H6 1_555 1_555
C9 C8 1_555 1_555
C10 C9 1_555 1_555
C11 C10 1_555 1_555
H7 C11 1_555 1_555
C12 C11 1_555 1_555
H8 C12 1_555 1_555
C13 C12 1_555 1_555
H9 C13 1_555 1_555
C14 C13 1_555 1_555
H10 C14 1_555 1_555
C15 C10 1_555 1_555
H11 C15 1_555 1_555
C16 C17 1_555 1_555
C17 H12 1_555 1_555
C18 C17 1_555 1_555
H13 C18 1_555 1_555
C19 C18 1_555 1_555
H14 C19 1_555 1_555
C20 C19 1_555 1_555
H15 C20 1_555 1_555
C21 C16 1_555 1_555
H16 C21 1_555 1_555
C22 C23 1_555 1_555
C23 H17 1_555 1_555
C24 C23 1_555 1_555
H18 C24 1_555 1_555
C25 C24 1_555 1_555
H19 C25 1_555 1_555
C26 C25 1_555 1_555
H20 C26 1_555 1_555
C27 C22 1_555 1_555
H21 C27 1_555 1_555
P1 C9 1_555 1_555
N1 C7 1_555 1_555
H22 N1 1_555 1_555
O1 C7 1_555 1_555
O2 P1 1_555 1_555
C5 C6 1_555 1_555
C8 N1 1_555 1_555
C14 C15 1_555 1_555
C16 P1 1_555 1_555
C20 C21 1_555 1_555
C22 P1 1_555 1_555
C26 C27 1_555 1_555

#END
