
#######################################################################
#
#                 Cambridge Crystallographic Data Centre
#                                CCDC 
#
#######################################################################
#
# If this CIF has been generated from an entry in the Cambridge 
# Structural Database, then it will include bibliographic, chemical, 
# crystal, experimental, refinement or atomic coordinate data resulting 
# from the CCDC's data processing and validation procedures.
#
#######################################################################

data_AGIWOE
_chemical_formula_moiety         'C27 H21 Cl1 F3 N1 O4 S1'
_chemical_name_systematic        
'Methyl 3-benzylidene-2-(4-chlorophenyl)-4-(((4-methylphenyl)sulfonyl)amino)-4-(trifluoromethyl)cyclobut-1-ene-1-carboxylate'
_symmetry_cell_setting           triclinic
_symmetry_space_group_name_H-M   'P -1'
_symmetry_Int_Tables_number      2
_space_group_name_Hall           '-P 1'
loop_
_symmetry_equiv_pos_site_id
_symmetry_equiv_pos_as_xyz
1 x,y,z
2 -x,-y,-z
_cell_length_a                   8.6762(19)
_cell_length_b                   14.417(3)
_cell_length_c                   21.577(6)
_cell_angle_alpha                77.868(15)
_cell_angle_beta                 82.340(18)
_cell_angle_gamma                88.336(16)
_cell_volume                     2615.13
_exptl_crystal_colour            colorless
_exptl_crystal_description       block
_cell_formula_units_Z            4
loop_
_atom_site_label
_atom_site_type_symbol
_atom_site_fract_x
_atom_site_fract_y
_atom_site_fract_z
Cl1 Cl 0.40651(12) 0.58929(6) 0.65692(4)
S1 S -0.05484(11) 0.15891(6) 0.47302(4)
F1 F 0.5242(2) 0.19791(13) 0.41689(9)
F2 F 0.4225(2) 0.05903(12) 0.44302(8)
F3 F 0.3643(2) 0.15662(13) 0.35941(8)
O1 O -0.1417(2) 0.07517(13) 0.47247(9)
O2 O -0.0764(2) 0.24529(14) 0.42732(10)
O3 O 0.1551(3) 0.44778(15) 0.40582(10)
O4 O 0.2089(3) 0.34035(14) 0.34342(11)
N1 N 0.1261(3) 0.12608(15) 0.46194(10)
H1 H 0.1445 0.0697 0.4555
C1 C -0.1531(5) 0.2434(3) 0.7402(2)
H2 H -0.0690 0.2146 0.7622
H3 H -0.2500 0.2172 0.7630
H4 H -0.1528 0.3106 0.7378
C2 C -0.1329(5) 0.2237(4) 0.6723(2)
C3 C -0.1057(4) 0.1312(3) 0.66420(19)
H5 H -0.1019 0.0822 0.6997
C4 C -0.0843(4) 0.1119(2) 0.60351(17)
H6 H -0.0662 0.0498 0.5986
C5 C -0.0894(3) 0.1833(2) 0.55013(17)
C6 C -0.1177(4) 0.2765(2) 0.5578(2)
H7 H -0.1226 0.3256 0.5224
C7 C -0.1381(5) 0.2941(3) 0.6187(3)
H8 H -0.1561 0.3562 0.6238
C8 C 0.3922(4) 0.1510(2) 0.41994(17)
C9 C 0.2602(4) 0.18604(19) 0.46211(14)
C10 C 0.3064(3) 0.1937(2) 0.52740(14)
C11 C 0.3437(3) 0.1267(2) 0.57619(13)
H9 H 0.3522 0.0654 0.5687
C12 C 0.3732(4) 0.1370(2) 0.64010(14)
C13 C 0.4858(4) 0.0821(2) 0.67142(15)
H10 H 0.5431 0.0383 0.6517
C14 C 0.5143(4) 0.0919(3) 0.73238(17)
H11 H 0.5912 0.0556 0.7523
C15 C 0.4285(5) 0.1552(3) 0.76253(17)
H12 H 0.4466 0.1618 0.8029
C16 C 0.3153(4) 0.2086(2) 0.73224(16)
H13 H 0.2564 0.2512 0.7525
C17 C 0.2881(4) 0.1995(2) 0.67172(15)
H14 H 0.2112 0.2363 0.6521
C18 C 0.2855(3) 0.29693(19) 0.50932(14)
C19 C 0.3180(4) 0.3735(2) 0.54175(14)
C20 C 0.4557(4) 0.3721(2) 0.56837(14)
H15 H 0.5294 0.3252 0.5634
C21 C 0.4838(4) 0.4406(2) 0.60248(16)
H16 H 0.5771 0.4405 0.6193
C22 C 0.3741(4) 0.5074(2) 0.61102(15)
C23 C 0.2365(4) 0.5113(2) 0.58533(14)
H17 H 0.1626 0.5575 0.5917
C24 C 0.2099(4) 0.4442(2) 0.54949(14)
H18 H 0.1190 0.4471 0.5307
C25 C 0.2378(3) 0.29350(19) 0.45232(14)
C26 C 0.1947(4) 0.3691(2) 0.39884(17)
C27 C 0.1661(5) 0.4109(2) 0.28906(15)
H19 H 0.0561 0.4221 0.2950
H20 H 0.1938 0.3878 0.2504
H21 H 0.2205 0.4690 0.2860
Cl2 Cl 0.99588(12) 0.41020(6) 0.82172(5)
S2 S 0.43609(10) 0.84349(6) 1.03471(4)
F4 F 0.9096(2) 0.93013(13) 1.04512(8)
F5 F 0.8343(2) 0.82214(13) 1.12750(8)
F6 F 1.0064(2) 0.78914(14) 1.05529(9)
O5 O 0.3520(2) 0.93109(14) 1.03652(10)
O6 O 0.3969(2) 0.76075(14) 1.08423(9)
O7 O 0.6109(3) 0.55393(15) 1.08027(10)
O8 O 0.6450(3) 0.65565(14) 1.14340(10)
N2 N 0.6169(3) 0.87276(16) 1.03546(11)
H22 H 0.6344 0.9285 1.0412
C28 C 0.4107(5) 0.7322(2) 0.77956(16)
H23 H 0.4165 0.6644 0.7853
H24 H 0.4983 0.7602 0.7503
H25 H 0.3163 0.7544 0.7626
C29 C 0.4122(4) 0.7601(3) 0.84337(18)
C30 C 0.3955(4) 0.6939(2) 0.90000(18)
H26 H 0.3805 0.6307 0.8991
C31 C 0.4005(4) 0.7187(2) 0.95802(16)
H27 H 0.3889 0.6723 0.9954
C32 C 0.4226(3) 0.8125(2) 0.96080(14)
C33 C 0.4406(4) 0.8798(2) 0.90430(18)
H28 H 0.4563 0.9431 0.9051
C34 C 0.4352(4) 0.8536(3) 0.84662(17)
H29 H 0.4474 0.8998 0.8091
C35 C 0.7497(4) 0.8107(2) 1.02702(14)
C36 C 0.8190(3) 0.8075(2) 0.95785(14)
C37 C 0.8703(3) 0.8789(2) 0.91002(14)
H30 H 0.8701 0.9379 0.9210
C38 C 0.9272(4) 0.8789(2) 0.84282(15)
C39 C 0.8640(4) 0.8245(2) 0.80703(16)
H31 H 0.7802 0.7850 0.8258
C40 C 0.9229(5) 0.8276(3) 0.74361(19)
H32 H 0.8776 0.7915 0.7199
C41 C 1.0487(6) 0.8843(3) 0.71604(18)
H33 H 1.0914 0.8849 0.6741
C42 C 1.1114(5) 0.9402(3) 0.75055(19)
H34 H 1.1952 0.9796 0.7316
C43 C 1.0507(4) 0.9382(2) 0.81313(16)
H35 H 1.0929 0.9771 0.8358
C44 C 0.7934(3) 0.7042(2) 0.97341(15)
C45 C 0.8413(4) 0.6298(2) 0.93793(14)
C46 C 0.9851(4) 0.6359(2) 0.90173(17)
H36 H 1.0500 0.6866 0.9008
C47 C 1.0347(4) 0.5679(2) 0.86661(17)
H37 H 1.1326 0.5724 0.8427
C48 C 0.9373(5) 0.4937(2) 0.86761(17)
C49 C 0.7941(5) 0.4857(2) 0.90287(16)
H38 H 0.7290 0.4356 0.9029
C50 C 0.7466(4) 0.5528(2) 0.93859(14)
H39 H 0.6499 0.5466 0.9635
C51 C 0.7246(4) 0.7046(2) 1.03383(15)
C52 C 0.6542(4) 0.6295(2) 1.08722(16)
C53 C 0.5627(4) 0.5912(2) 1.19764(14)
H40 H 0.4557 0.5875 1.1915
H41 H 0.5689 0.6141 1.2359
H42 H 0.6092 0.5294 1.2014
C54 C 0.8753(5) 0.8375(2) 1.06442(17)
loop_
_geom_bond_atom_site_label_1
_geom_bond_atom_site_label_2
_geom_bond_site_symmetry_1
_geom_bond_site_symmetry_2
Cl1 C22 1_555 1_555
S1 O1 1_555 1_555
F1 C8 1_555 1_555
F2 C8 1_555 1_555
F3 C8 1_555 1_555
O2 S1 1_555 1_555
O3 C26 1_555 1_555
O4 C26 1_555 1_555
N1 S1 1_555 1_555
H1 N1 1_555 1_555
C1 H2 1_555 1_555
H3 C1 1_555 1_555
H4 C1 1_555 1_555
C2 C1 1_555 1_555
C3 C2 1_555 1_555
H5 C3 1_555 1_555
C4 C3 1_555 1_555
H6 C4 1_555 1_555
C5 S1 1_555 1_555
C6 C5 1_555 1_555
H7 C6 1_555 1_555
C7 C2 1_555 1_555
H8 C7 1_555 1_555
C8 C9 1_555 1_555
C9 N1 1_555 1_555
C10 C9 1_555 1_555
C11 C10 1_555 1_555
H9 C11 1_555 1_555
C12 C11 1_555 1_555
C13 C12 1_555 1_555
H10 C13 1_555 1_555
C14 C13 1_555 1_555
H11 C14 1_555 1_555
C15 C14 1_555 1_555
H12 C15 1_555 1_555
C16 C15 1_555 1_555
H13 C16 1_555 1_555
C17 C12 1_555 1_555
H14 C17 1_555 1_555
C18 C10 1_555 1_555
C19 C18 1_555 1_555
C20 C19 1_555 1_555
H15 C20 1_555 1_555
C21 C20 1_555 1_555
H16 C21 1_555 1_555
C22 C21 1_555 1_555
C23 C22 1_555 1_555
H17 C23 1_555 1_555
C24 C19 1_555 1_555
H18 C24 1_555 1_555
C25 C9 1_555 1_555
C26 C25 1_555 1_555
C27 O4 1_555 1_555
H19 C27 1_555 1_555
H20 C27 1_555 1_555
H21 C27 1_555 1_555
Cl2 C48 1_555 1_555
S2 O5 1_555 1_555
F4 C54 1_555 1_555
F5 C54 1_555 1_555
F6 C54 1_555 1_555
O6 S2 1_555 1_555
O7 C52 1_555 1_555
O8 C52 1_555 1_555
N2 S2 1_555 1_555
H22 N2 1_555 1_555
C28 H23 1_555 1_555
H24 C28 1_555 1_555
H25 C28 1_555 1_555
C29 C28 1_555 1_555
C30 C29 1_555 1_555
H26 C30 1_555 1_555
C31 C30 1_555 1_555
H27 C31 1_555 1_555
C32 S2 1_555 1_555
C33 C32 1_555 1_555
H28 C33 1_555 1_555
C34 C29 1_555 1_555
H29 C34 1_555 1_555
C35 N2 1_555 1_555
C36 C35 1_555 1_555
C37 C36 1_555 1_555
H30 C37 1_555 1_555
C38 C37 1_555 1_555
C39 C38 1_555 1_555
H31 C39 1_555 1_555
C40 C39 1_555 1_555
H32 C40 1_555 1_555
C41 C40 1_555 1_555
H33 C41 1_555 1_555
C42 C41 1_555 1_555
H34 C42 1_555 1_555
C43 C38 1_555 1_555
H35 C43 1_555 1_555
C44 C36 1_555 1_555
C45 C44 1_555 1_555
C46 C45 1_555 1_555
H36 C46 1_555 1_555
C47 C46 1_555 1_555
H37 C47 1_555 1_555
C48 C47 1_555 1_555
C49 C48 1_555 1_555
H38 C49 1_555 1_555
C50 C45 1_555 1_555
H39 C50 1_555 1_555
C51 C35 1_555 1_555
C52 C51 1_555 1_555
C53 O8 1_555 1_555
H40 C53 1_555 1_555
H41 C53 1_555 1_555
H42 C53 1_555 1_555
C54 C35 1_555 1_555
C4 C5 1_555 1_555
C6 C7 1_555 1_555
C16 C17 1_555 1_555
C18 C25 1_555 1_555
C23 C24 1_555 1_555
C31 C32 1_555 1_555
C33 C34 1_555 1_555
C42 C43 1_555 1_555
C44 C51 1_555 1_555
C49 C50 1_555 1_555

#END
