
#######################################################################
#
#                 Cambridge Crystallographic Data Centre
#                                CCDC 
#
#######################################################################
#
# If this CIF has been generated from an entry in the Cambridge 
# Structural Database, then it will include bibliographic, chemical, 
# crystal, experimental, refinement or atomic coordinate data resulting 
# from the CCDC's data processing and validation procedures.
#
#######################################################################

data_AGIWUK
_chemical_formula_moiety         'C19 H16 O3'
_chemical_name_systematic        4-(3-Oxobutyl)-3-phenyl-1H-isochromen-1-one
_symmetry_cell_setting           triclinic
_symmetry_space_group_name_H-M   'P 1'
_symmetry_Int_Tables_number      1
_space_group_name_Hall           'P 1'
loop_
_symmetry_equiv_pos_site_id
_symmetry_equiv_pos_as_xyz
1 x,y,z
_cell_length_a                   4.5737(10)
_cell_length_b                   8.645(2)
_cell_length_c                   10.203(2)
_cell_angle_alpha                66.362(3)
_cell_angle_beta                 88.474(3)
_cell_angle_gamma                81.886(3)
_cell_volume                     365.675
_exptl_crystal_colour            colorless
_exptl_crystal_description       block
_cell_formula_units_Z            1
loop_
_atom_site_label
_atom_site_type_symbol
_atom_site_fract_x
_atom_site_fract_y
_atom_site_fract_z
O1 O -0.2511(5) -0.1203(3) 1.1214(2)
O2 O 0.0456(4) -0.0703(2) 0.94003(19)
O3 O 0.6733(4) 0.4153(3) 0.44568(19)
C1 C -0.0921(5) -0.0255(4) 1.0441(3)
C2 C -0.0339(5) 0.1335(4) 1.0479(3)
C3 C -0.1588(6) 0.1817(5) 1.1548(3)
H1 H -0.2759 0.1096 1.2248
C4 C -0.1120(7) 0.3343(5) 1.1589(3)
H2 H -0.1982 0.3674 1.2312
C5 C 0.0611(7) 0.4391(4) 1.0572(3)
H3 H 0.0925 0.5442 1.0598
C6 C 0.1885(6) 0.3910(4) 0.9515(3)
H4 H 0.3080 0.4631 0.8829
C7 C 0.1425(5) 0.2373(3) 0.9452(2)
C8 C 0.2726(5) 0.1821(3) 0.8363(2)
C9 C 0.2163(5) 0.0333(3) 0.8382(2)
C10 C 0.4626(5) 0.2893(3) 0.7230(2)
H5 H 0.5871 0.2156 0.6838
H6 H 0.5959 0.3365 0.7676
C11 C 0.2832(5) 0.4371(3) 0.5993(2)
H7 H 0.0896 0.4039 0.5888
H8 H 0.2454 0.5375 0.6242
C12 C 0.4336(5) 0.4876(3) 0.4576(2)
C13 C 0.2670(6) 0.6279(4) 0.3324(3)
H9 H 0.3944 0.6605 0.2497
H10 H 0.2051 0.7266 0.3560
H11 H 0.0923 0.5885 0.3094
C14 C 0.3310(5) -0.0448(3) 0.7381(3)
C15 C 0.5372(6) -0.1906(3) 0.7860(3)
H12 H 0.5939 -0.2460 0.8847
C16 C 0.6611(6) -0.2558(4) 0.6900(4)
H13 H 0.8041 -0.3554 0.7232
C17 C 0.5790(6) -0.1780(4) 0.5475(3)
H14 H 0.6664 -0.2233 0.4826
C18 C 0.3688(6) -0.0330(4) 0.4978(3)
H15 H 0.3105 0.0199 0.3993
C19 C 0.2437(6) 0.0343(4) 0.5929(3)
H16 H 0.0998 0.1334 0.5595
loop_
_geom_bond_atom_site_label_1
_geom_bond_atom_site_label_2
_geom_bond_site_symmetry_1
_geom_bond_site_symmetry_2
O1 C1 1_555 1_555
O2 C1 1_555 1_555
O3 C12 1_555 1_555
C1 C2 1_555 1_555
C2 C3 1_555 1_555
C3 H1 1_555 1_555
C4 C3 1_555 1_555
H2 C4 1_555 1_555
C5 C4 1_555 1_555
H3 C5 1_555 1_555
C6 C5 1_555 1_555
H4 C6 1_555 1_555
C7 C2 1_555 1_555
C8 C7 1_555 1_555
C9 O2 1_555 1_555
C10 C8 1_555 1_555
H5 C10 1_555 1_555
H6 C10 1_555 1_555
C11 C10 1_555 1_555
H7 C11 1_555 1_555
H8 C11 1_555 1_555
C12 C11 1_555 1_555
C13 C12 1_555 1_555
H9 C13 1_555 1_555
H10 C13 1_555 1_555
H11 C13 1_555 1_555
C14 C9 1_555 1_555
C15 C14 1_555 1_555
H12 C15 1_555 1_555
C16 C15 1_555 1_555
H13 C16 1_555 1_555
C17 C16 1_555 1_555
H14 C17 1_555 1_555
C18 C17 1_555 1_555
H15 C18 1_555 1_555
C19 C14 1_555 1_555
H16 C19 1_555 1_555
C6 C7 1_555 1_555
C8 C9 1_555 1_555
C18 C19 1_555 1_555

#END
