
#######################################################################
#
#                 Cambridge Crystallographic Data Centre
#                                CCDC 
#
#######################################################################
#
# If this CIF has been generated from an entry in the Cambridge 
# Structural Database, then it will include bibliographic, chemical, 
# crystal, experimental, refinement or atomic coordinate data resulting 
# from the CCDC's data processing and validation procedures.
#
#######################################################################

data_AGIXEW
_chemical_formula_moiety         'C40 H41 N1 O8 S1'
_chemical_name_systematic        
'diethyl {3-(3,4-dimethoxyphenyl)-1-[(4-methylphenyl)sulfonyl]-4-phenyl-2,3,4,5-tetrahydro-1H-indeno[1,2-b]pyridin-2-yl}propanedioate'
_symmetry_cell_setting           monoclinic
_symmetry_space_group_name_H-M   'P 21/n'
_symmetry_Int_Tables_number      14
_space_group_name_Hall           '-P 2yn'
loop_
_symmetry_equiv_pos_site_id
_symmetry_equiv_pos_as_xyz
1 x,y,z
2 1/2-x,1/2+y,1/2-z
3 -x,-y,-z
4 1/2+x,1/2-y,1/2+z
_cell_length_a                   11.7951(8)
_cell_length_b                   17.2446(12)
_cell_length_c                   18.4070(12)
_cell_angle_alpha                90
_cell_angle_beta                 100.216(3)
_cell_angle_gamma                90
_cell_volume                     3684.66
_exptl_crystal_colour            colorless
_exptl_crystal_description       block
_cell_formula_units_Z            4
loop_
_atom_site_label
_atom_site_type_symbol
_atom_site_fract_x
_atom_site_fract_y
_atom_site_fract_z
S1 S 0.14478(9) 0.23690(7) 0.58603(6)
O1 O 0.1373(3) 0.2443(2) 0.66231(17)
O2 O 0.7607(2) 0.49412(17) 0.71328(18)
O3 O 0.8411(2) 0.35427(18) 0.72392(18)
N1 N 0.2700(3) 0.19686(19) 0.58327(17)
O4 O 0.0609(2) 0.19313(19) 0.53668(19)
O5 O 0.4493(3) 0.3015(2) 0.77567(17)
O6 O 0.4089(3) 0.0641(2) 0.74738(19)
O7 O 0.5767(3) 0.2053(2) 0.79156(19)
C1 C 0.4356(3) 0.2520(2) 0.5031(2)
H1 H 0.3834 0.2964 0.4931
C2 C 0.2893(3) 0.1562(2) 0.5196(2)
C3 C 0.3732(3) 0.2358(2) 0.6290(2)
H2 H 0.3484 0.2880 0.6403
C4 C 0.2438(3) 0.0799(2) 0.4962(2)
C5 C 0.4755(3) 0.2461(2) 0.5886(2)
H3 H 0.5238 0.1997 0.5983
C6 C 0.5483(3) 0.3147(2) 0.6197(2)
C7 C 0.7302(3) 0.3627(2) 0.6872(2)
C8 C 0.4009(3) 0.1919(2) 0.7033(2)
H4 H 0.3288 0.1895 0.7228
C9 C 0.6614(3) 0.3022(2) 0.6567(2)
H5 H 0.6905 0.2519 0.6607
C10 C 0.1492(3) 0.3311(3) 0.5512(2)
O8 O 0.4905(4) 0.0855(2) 0.6506(2)
C11 C 0.3675(3) 0.1805(2) 0.4807(2)
C12 C 0.4381(4) 0.1085(3) 0.6950(2)
C13 C 0.1439(4) -0.0410(3) 0.4870(3)
H6 H 0.0918 -0.0746 0.5029
C14 C 0.2987(4) 0.0574(3) 0.4385(2)
C15 C 0.5087(4) 0.3897(2) 0.6135(2)
H7 H 0.4342 0.3994 0.5889
C16 C 0.1667(3) 0.0305(3) 0.5209(2)
H8 H 0.1306 0.0450 0.5598
C17 C 0.5352(4) 0.2655(3) 0.4631(2)
C18 C 0.1525(4) 0.4807(3) 0.4939(3)
C19 C 0.6874(3) 0.4381(3) 0.6814(2)
C20 C 0.3818(4) 0.1196(3) 0.4243(2)
H9 H 0.3617 0.1398 0.3745
H10 H 0.4602 0.1001 0.4319
C21 C 0.5770(4) 0.4509(3) 0.6431(3)
H11 H 0.5485 0.5012 0.6372
C22 C 0.1744(4) 0.3932(3) 0.5974(2)
H12 H 0.1900 0.3854 0.6482
C23 C 0.4466(5) -0.0170(3) 0.7475(3)
H13 H 0.5204 -0.0197 0.7312
H14 H 0.4566 -0.0374 0.7973
C24 C 0.6301(4) 0.2184(3) 0.4718(3)
H15 H 0.6345 0.1767 0.5043
C25 C 0.1983(4) -0.0622(3) 0.4296(3)
H16 H 0.1821 -0.1102 0.4071
C26 C 0.1768(4) 0.4669(3) 0.5699(3)
H17 H 0.1948 0.5083 0.6022
C27 C 0.2760(4) -0.0137(3) 0.4050(3)
H18 H 0.3126 -0.0287 0.3665
C28 C 0.4876(4) 0.2322(3) 0.7614(2)
C29 C 0.1262(4) 0.3441(3) 0.4747(2)
H19 H 0.1096 0.3026 0.4422
C30 C 0.7188(5) 0.5707(3) 0.7132(3)
H20 H 0.7789 0.6042 0.7373
H21 H 0.6940 0.5876 0.6633
H22 H 0.6550 0.5723 0.7391
C31 C 0.5312(5) 0.3250(3) 0.4131(3)
H23 H 0.4678 0.3579 0.4053
C32 C 0.7191(5) 0.2308(3) 0.4340(3)
H24 H 0.7837 0.1990 0.4423
C33 C 0.1282(4) 0.4179(3) 0.4484(3)
H25 H 0.1125 0.4259 0.3977
C34 C 0.8886(4) 0.2789(3) 0.7274(4)
H26 H 0.9661 0.2803 0.7543
H27 H 0.8431 0.2449 0.7520
H28 H 0.8887 0.2601 0.6783
C35 C 0.5259(5) 0.3492(4) 0.8288(3)
H29 H 0.5346 0.3264 0.8777
H30 H 0.6014 0.3524 0.8149
C36 C 0.6197(6) 0.3370(4) 0.3740(4)
H31 H 0.6153 0.3777 0.3405
C37 C 0.1541(5) 0.5624(3) 0.4653(3)
H32 H 0.1730 0.5976 0.5061
H33 H 0.2108 0.5665 0.4340
H34 H 0.0796 0.5752 0.4376
C38 C 0.7124(6) 0.2897(4) 0.3844(3)
H35 H 0.7714 0.2975 0.3578
C39 C 0.3623(6) -0.0644(4) 0.6987(4)
H36 H 0.3887 -0.1171 0.6997
H37 H 0.2896 -0.0624 0.7153
H38 H 0.3532 -0.0447 0.6492
C40 C 0.4754(5) 0.4256(4) 0.8287(4)
H39 H 0.5242 0.4582 0.8633
H40 H 0.4674 0.4477 0.7802
H41 H 0.4009 0.4218 0.8427
loop_
_geom_bond_atom_site_label_1
_geom_bond_atom_site_label_2
_geom_bond_site_symmetry_1
_geom_bond_site_symmetry_2
S1 O1 1_555 1_555
O2 C19 1_555 1_555
O3 C7 1_555 1_555
N1 S1 1_555 1_555
O4 S1 1_555 1_555
O5 C28 1_555 1_555
O6 C12 1_555 1_555
O7 C28 1_555 1_555
C1 H1 1_555 1_555
C2 N1 1_555 1_555
C3 N1 1_555 1_555
H2 C3 1_555 1_555
C4 C2 1_555 1_555
C5 C1 1_555 1_555
H3 C5 1_555 1_555
C6 C5 1_555 1_555
C7 C9 1_555 1_555
C8 C3 1_555 1_555
H4 C8 1_555 1_555
C9 C6 1_555 1_555
H5 C9 1_555 1_555
C10 S1 1_555 1_555
O8 C12 1_555 1_555
C11 C1 1_555 1_555
C12 C8 1_555 1_555
C13 H6 1_555 1_555
C14 C4 1_555 1_555
C15 C6 1_555 1_555
H7 C15 1_555 1_555
C16 C4 1_555 1_555
H8 C16 1_555 1_555
C17 C1 1_555 1_555
C18 C26 1_555 1_555
C19 C7 1_555 1_555
C20 C11 1_555 1_555
H9 C20 1_555 1_555
H10 C20 1_555 1_555
C21 C15 1_555 1_555
H11 C21 1_555 1_555
C22 C10 1_555 1_555
H12 C22 1_555 1_555
C23 O6 1_555 1_555
H13 C23 1_555 1_555
H14 C23 1_555 1_555
C24 C17 1_555 1_555
H15 C24 1_555 1_555
C25 C13 1_555 1_555
H16 C25 1_555 1_555
C26 C22 1_555 1_555
H17 C26 1_555 1_555
C27 C14 1_555 1_555
H18 C27 1_555 1_555
C28 C8 1_555 1_555
C29 C10 1_555 1_555
H19 C29 1_555 1_555
C30 O2 1_555 1_555
H20 C30 1_555 1_555
H21 C30 1_555 1_555
H22 C30 1_555 1_555
C31 C17 1_555 1_555
H23 C31 1_555 1_555
C32 C24 1_555 1_555
H24 C32 1_555 1_555
C33 C18 1_555 1_555
H25 C33 1_555 1_555
C34 O3 1_555 1_555
H26 C34 1_555 1_555
H27 C34 1_555 1_555
H28 C34 1_555 1_555
C35 O5 1_555 1_555
H29 C35 1_555 1_555
H30 C35 1_555 1_555
C36 C31 1_555 1_555
H31 C36 1_555 1_555
C37 C18 1_555 1_555
H32 C37 1_555 1_555
H33 C37 1_555 1_555
H34 C37 1_555 1_555
C38 C32 1_555 1_555
H35 C38 1_555 1_555
C39 C23 1_555 1_555
H36 C39 1_555 1_555
H37 C39 1_555 1_555
H38 C39 1_555 1_555
C40 C35 1_555 1_555
H39 C40 1_555 1_555
H40 C40 1_555 1_555
H41 C40 1_555 1_555
C2 C11 1_555 1_555
C3 C5 1_555 1_555
C13 C16 1_555 1_555
C14 C20 1_555 1_555
C19 C21 1_555 1_555
C25 C27 1_555 1_555
C29 C33 1_555 1_555
C36 C38 1_555 1_555

#END
