
#######################################################################
#
#                 Cambridge Crystallographic Data Centre
#                                CCDC 
#
#######################################################################
#
# If this CIF has been generated from an entry in the Cambridge 
# Structural Database, then it will include bibliographic, chemical, 
# crystal, experimental, refinement or atomic coordinate data resulting 
# from the CCDC's data processing and validation procedures.
#
#######################################################################

data_AGIXIA
_chemical_formula_moiety         'C38 H36 N2 O10 S1'
_chemical_name_systematic        
'diethyl {4-(4-methylphenyl)-2-[(4-nitrophenyl)sulfonyl]-1,6-dioxo-5-phenyl-2,3,4,5,6,7-hexahydro-1H-2-benzazonin-3-yl}propanedioate'
_symmetry_cell_setting           orthorhombic
_symmetry_space_group_name_H-M   'P c a 21'
_symmetry_Int_Tables_number      29
_space_group_name_Hall           'P 2c -2ac'
loop_
_symmetry_equiv_pos_site_id
_symmetry_equiv_pos_as_xyz
1 x,y,z
2 -x,-y,1/2+z
3 1/2-x,y,1/2+z
4 1/2+x,-y,z
_cell_length_a                   24.8952(4)
_cell_length_b                   18.6396(3)
_cell_length_c                   15.2825(3)
_cell_angle_alpha                90
_cell_angle_beta                 90
_cell_angle_gamma                90
_cell_volume                     7091.64
_exptl_crystal_colour            colorless
_exptl_crystal_description       block
_cell_formula_units_Z            8
loop_
_atom_site_label
_atom_site_type_symbol
_atom_site_fract_x
_atom_site_fract_y
_atom_site_fract_z
S1 S 0.65994(3) 0.24580(4) 0.38270(5)
O1 O 0.60513(8) 0.22620(13) 0.39403(17)
O2 O 0.65246(11) 0.44067(17) 0.35794(18)
C1 C 0.3732(2) 0.3616(4) 0.6457(6)
H1 H 0.3710 0.3979 0.6901
H2 H 0.3562 0.3785 0.5932
H3 H 0.3553 0.3189 0.6656
C2 C 0.5980(2) 0.2244(3) 0.8874(3)
H4 H 0.6027 0.2407 0.9444
C3 C 0.58504(11) 0.37950(15) 0.4439(2)
H5 H 0.5553 0.3471 0.4296
C4 C 0.73920(12) 0.3705(2) 0.6231(3)
C5 C 0.57296(18) 0.1606(3) 0.8729(4)
H6 H 0.5609 0.1332 0.9198
C6 C 0.78410(13) 0.10873(19) 0.4030(3)
H7 H 0.8205 0.1071 0.3895
O3 O 0.67728(11) 0.27315(15) 0.30073(16)
C7 C 0.68783(13) 0.24966(18) 0.6358(2)
O4 O 0.51519(10) 0.46406(15) 0.4616(2)
O5 O 0.68970(10) 0.18690(13) 0.61483(19)
O6 O 0.58931(11) 0.48176(15) 0.5406(2)
C8 C 0.75942(14) 0.05153(17) 0.4423(3)
N1 N 0.67162(9) 0.30777(13) 0.46155(16)
N2 N 0.79133(15) -0.01298(17) 0.4620(3)
O7 O 0.75793(10) 0.32197(14) 0.4163(2)
O8 O 0.83958(14) -0.00621(19) 0.4671(4)
C9 C 0.72320(12) 0.33965(16) 0.4662(2)
O9 O 0.58096(11) 0.39400(16) 0.29125(17)
O10 O 0.76833(15) -0.06920(15) 0.4717(3)
C10 C 0.75393(13) 0.16884(17) 0.3839(3)
H8 H 0.7692 0.2076 0.3547
C11 C 0.56386(12) 0.44718(17) 0.4896(2)
C12 C 0.49923(13) 0.27683(19) 0.5496(2)
H9 H 0.5075 0.2422 0.5078
C13 C 0.73225(11) 0.39310(17) 0.5377(2)
C14 C 0.74941(17) 0.4220(3) 0.6867(3)
H10 H 0.7541 0.4081 0.7446
C15 C 0.7527(2) 0.4938(3) 0.6645(4)
H11 H 0.7591 0.5278 0.7077
C16 C 0.62509(11) 0.34213(15) 0.50726(19)
H12 H 0.6407 0.3809 0.5424
C17 C 0.60989(12) 0.24227(19) 0.7322(2)
C18 C 0.52630(14) 0.3611(2) 0.6576(2)
H13 H 0.5530 0.3839 0.6898
C19 C 0.59836(11) 0.29007(15) 0.57448(19)
H14 H 0.5978 0.2423 0.5478
C20 C 0.73948(14) 0.2916(2) 0.6468(3)
H15 H 0.7505 0.2876 0.7075
H16 H 0.7669 0.2684 0.6117
C21 C 0.70042(12) 0.17053(16) 0.4089(2)
C22 C 0.61105(12) 0.40833(17) 0.3602(2)
C23 C 0.54043(12) 0.31031(17) 0.5951(2)
C24 C 0.56554(17) 0.1369(3) 0.7883(4)
H17 H 0.5479 0.0937 0.7782
C25 C 0.58432(15) 0.1770(2) 0.7183(3)
H18 H 0.5798 0.1601 0.6615
C26 C 0.73637(14) 0.46553(19) 0.5155(3)
H19 H 0.7322 0.4802 0.4577
C27 C 0.49276(18) 0.5303(3) 0.4968(4)
H20 H 0.5083 0.5400 0.5538
H21 H 0.4542 0.5250 0.5041
C28 C 0.67631(13) 0.11241(17) 0.4494(3)
H22 H 0.6403 0.1144 0.4653
C29 C 0.74668(19) 0.5150(2) 0.5801(4)
H23 H 0.7496 0.5633 0.5658
C30 C 0.63407(12) 0.28539(16) 0.6577(2)
H24 H 0.6411 0.3342 0.6786
C31 C 0.70621(15) 0.05156(18) 0.4659(3)
H25 H 0.6907 0.0117 0.4924
C32 C 0.47279(17) 0.3781(3) 0.6727(3)
H26 H 0.4643 0.4127 0.7143
C33 C 0.44581(15) 0.2941(2) 0.5654(3)
H27 H 0.4190 0.2711 0.5338
C34 C 0.43185(16) 0.3448(3) 0.6269(3)
C35 C 0.6001(3) 0.4221(4) 0.2075(3)
H28 H 0.5759 0.4592 0.1868
H29 H 0.6354 0.4433 0.2151
C36 C 0.61705(18) 0.2658(2) 0.8169(3)
H30 H 0.6345 0.3091 0.8275
C37 C 0.6030(2) 0.3647(3) 0.1435(3)
H31 H 0.6156 0.3835 0.0888
H32 H 0.6273 0.3284 0.1638
H33 H 0.5679 0.3442 0.1357
C38 C 0.5040(3) 0.5904(3) 0.4375(5)
H34 H 0.4890 0.6337 0.4613
H35 H 0.5421 0.5959 0.4310
H36 H 0.4881 0.5810 0.3814
S2 S 0.53758(3) 0.75024(4) 0.68959(5)
C39 C 0.57356(12) 0.78088(16) 0.3704(2)
H37 H 0.5543 0.7425 0.3932
O11 O 0.51543(10) 0.94101(15) 0.67974(18)
C40 C 0.64043(12) 0.87131(17) 0.3848(2)
H38 H 0.6670 0.8941 0.4172
C41 C 0.72707(14) 0.7985(2) 0.6875(3)
H39 H 0.7270 0.7763 0.7450
H40 H 0.7639 0.7982 0.6667
C42 C 0.71213(18) 0.6247(2) 0.3825(3)
H41 H 0.6951 0.5841 0.3605
N3 N 0.58793(9) 0.81014(12) 0.67070(16)
C43 C 0.65771(13) 0.89373(18) 0.7242(2)
C44 C 0.59349(10) 0.84348(14) 0.58229(18)
H42 H 0.6190 0.8830 0.5897
C45 C 0.58571(15) 0.60678(19) 0.8676(2)
H43 H 0.5855 0.6013 0.9280
O12 O 0.68162(11) 0.69182(14) 0.64637(19)
O13 O 0.59239(9) 0.98538(12) 0.51551(18)
C46 C 0.70930(12) 0.73226(17) 0.4702(2)
C47 C 0.74480(16) 0.9316(3) 0.6805(3)
H44 H 0.7796 0.9210 0.6623
O14 O 0.63611(17) 0.4892(2) 0.9343(3)
C48 C 0.62037(11) 0.79106(15) 0.51622(19)
H45 H 0.6034 0.7440 0.5235
C49 C 0.69374(12) 0.75198(18) 0.6264(2)
C50 C 0.68140(11) 0.78210(15) 0.5352(2)
H46 H 0.6982 0.8295 0.5307
C51 C 0.70945(13) 0.87569(19) 0.6977(2)
C52 C 0.59097(17) 0.8606(2) 0.2494(2)
C53 C 0.68527(14) 0.67049(19) 0.4394(3)
H47 H 0.6505 0.6593 0.4571
O15 O 0.51793(10) 0.96085(14) 0.43775(18)
C54 C 0.62974(15) 0.89403(19) 0.3002(2)
H48 H 0.6489 0.9324 0.2770
C55 C 0.56641(13) 0.67369(17) 0.7389(2)
C56 C 0.61173(11) 0.81457(15) 0.42185(19)
C57 C 0.55465(11) 0.94796(16) 0.4987(2)
C58 C 0.54103(10) 0.87853(14) 0.54758(19)
H49 H 0.5225 0.8452 0.5082
C59 C 0.56532(14) 0.66791(18) 0.8291(2)
H50 H 0.5511 0.7046 0.8632
C60 C 0.50276(11) 0.90323(16) 0.6197(2)
O16 O 0.45322(8) 0.87881(13) 0.60492(17)
O17 O 0.52002(10) 0.73059(13) 0.60352(17)
C61 C 0.61619(13) 0.83652(16) 0.7432(2)
C62 C 0.76149(14) 0.74691(19) 0.4459(3)
H51 H 0.7785 0.7879 0.4668
C63 C 0.78857(18) 0.7006(2) 0.3902(4)
H52 H 0.8237 0.7109 0.3741
C64 C 0.60648(14) 0.55373(18) 0.8141(3)
O18 O 0.60837(11) 0.81328(14) 0.81548(15)
C65 C 0.60663(17) 0.55822(19) 0.7248(3)
H53 H 0.6204 0.5211 0.6910
C66 C 0.5238(2) 1.0270(2) 0.3876(3)
H54 H 0.5615 1.0399 0.3840
H55 H 0.5105 1.0197 0.3286
O19 O 0.50095(9) 0.78032(14) 0.75010(18)
C67 C 0.72968(19) 1.0023(3) 0.6896(4)
H56 H 0.7542 1.0386 0.6777
C68 C 0.58587(15) 0.61923(18) 0.6860(2)
H57 H 0.5850 0.6236 0.6254
C69 C 0.64268(16) 0.96532(19) 0.7348(3)
H58 H 0.6084 0.9767 0.7544
C70 C 0.56353(15) 0.80336(18) 0.2850(2)
H59 H 0.5379 0.7795 0.2516
C71 C 0.5790(3) 0.8866(3) 0.1573(3)
H60 H 0.5513 0.8574 0.1320
H61 H 0.5672 0.9356 0.1595
H62 H 0.6109 0.8833 0.1223
C72 C 0.76448(18) 0.6404(2) 0.3590(3)
H63 H 0.7832 0.6097 0.3218
N4 N 0.63028(16) 0.4893(2) 0.8547(3)
C73 C 0.67896(19) 1.0193(2) 0.7160(3)
H64 H 0.6688 1.0671 0.7214
C74 C 0.36246(17) 0.8608(4) 0.6419(5)
H65 H 0.3347 0.8702 0.6840
H66 H 0.3521 0.8803 0.5862
H67 H 0.3677 0.8100 0.6365
O20 O 0.6415(3) 0.4397(2) 0.8078(4)
C75 C 0.41310(14) 0.8948(3) 0.6710(4)
H68 H 0.4084 0.9463 0.6766
H69 H 0.4240 0.8757 0.7272
C76 C 0.4938(3) 1.0851(3) 0.4292(5)
H70 H 0.4980 1.1283 0.3956
H71 H 0.4565 1.0725 0.4320
H72 H 0.5073 1.0927 0.4873
loop_
_geom_bond_atom_site_label_1
_geom_bond_atom_site_label_2
_geom_bond_site_symmetry_1
_geom_bond_site_symmetry_2
S1 O1 1_555 1_555
O2 C22 1_555 1_555
C1 H1 1_555 1_555
H2 C1 1_555 1_555
H3 C1 1_555 1_555
C2 H4 1_555 1_555
C3 H5 1_555 1_555
C4 C13 1_555 1_555
C5 C2 1_555 1_555
H6 C5 1_555 1_555
C6 H7 1_555 1_555
O3 S1 1_555 1_555
C7 O5 1_555 1_555
O4 C11 1_555 1_555
O6 C11 1_555 1_555
C8 C6 1_555 1_555
N1 S1 1_555 1_555
N2 C8 1_555 1_555
O7 C9 1_555 1_555
O8 N2 1_555 1_555
C9 N1 1_555 1_555
O9 C22 1_555 1_555
O10 N2 1_555 1_555
C10 C6 1_555 1_555
H8 C10 1_555 1_555
C11 C3 1_555 1_555
C12 H9 1_555 1_555
C13 C9 1_555 1_555
C14 C4 1_555 1_555
H10 C14 1_555 1_555
C15 C14 1_555 1_555
H11 C15 1_555 1_555
C16 C3 1_555 1_555
H12 C16 1_555 1_555
C17 C25 1_555 1_555
C18 H13 1_555 1_555
C19 C16 1_555 1_555
H14 C19 1_555 1_555
C20 C4 1_555 1_555
H15 C20 1_555 1_555
H16 C20 1_555 1_555
C21 S1 1_555 1_555
C22 C3 1_555 1_555
C23 C12 1_555 1_555
C24 C5 1_555 1_555
H17 C24 1_555 1_555
C25 C24 1_555 1_555
H18 C25 1_555 1_555
C26 C13 1_555 1_555
H19 C26 1_555 1_555
C27 O4 1_555 1_555
H20 C27 1_555 1_555
H21 C27 1_555 1_555
C28 C21 1_555 1_555
H22 C28 1_555 1_555
C29 C15 1_555 1_555
H23 C29 1_555 1_555
C30 C7 1_555 1_555
H24 C30 1_555 1_555
C31 C8 1_555 1_555
H25 C31 1_555 1_555
C32 C18 1_555 1_555
H26 C32 1_555 1_555
C33 C12 1_555 1_555
H27 C33 1_555 1_555
C34 C1 1_555 1_555
C35 O9 1_555 1_555
H28 C35 1_555 1_555
H29 C35 1_555 1_555
C36 C2 1_555 1_555
H30 C36 1_555 1_555
C37 C35 1_555 1_555
H31 C37 1_555 1_555
H32 C37 1_555 1_555
H33 C37 1_555 1_555
C38 C27 1_555 1_555
H34 C38 1_555 1_555
H35 C38 1_555 1_555
H36 C38 1_555 1_555
S2 N3 1_555 1_555
C39 H37 1_555 1_555
O11 C60 1_555 1_555
C40 H38 1_555 1_555
C41 H39 1_555 1_555
H40 C41 1_555 1_555
C42 H41 1_555 1_555
N3 C44 1_555 1_555
C43 C51 1_555 1_555
C44 H42 1_555 1_555
C45 H43 1_555 1_555
O12 C49 1_555 1_555
O13 C57 1_555 1_555
C46 C50 1_555 1_555
C47 H44 1_555 1_555
O14 N4 1_555 1_555
C48 C44 1_555 1_555
H45 C48 1_555 1_555
C49 C41 1_555 1_555
C50 C48 1_555 1_555
H46 C50 1_555 1_555
C51 C41 1_555 1_555
C52 C54 1_555 1_555
C53 C42 1_555 1_555
H47 C53 1_555 1_555
O15 C57 1_555 1_555
C54 C40 1_555 1_555
H48 C54 1_555 1_555
C55 S2 1_555 1_555
C56 C39 1_555 1_555
C57 C58 1_555 1_555
C58 C44 1_555 1_555
H49 C58 1_555 1_555
C59 C45 1_555 1_555
H50 C59 1_555 1_555
C60 C58 1_555 1_555
O16 C60 1_555 1_555
O17 S2 1_555 1_555
C61 N3 1_555 1_555
C62 C46 1_555 1_555
H51 C62 1_555 1_555
C63 C62 1_555 1_555
H52 C63 1_555 1_555
C64 C45 1_555 1_555
O18 C61 1_555 1_555
C65 C64 1_555 1_555
H53 C65 1_555 1_555
C66 O15 1_555 1_555
H54 C66 1_555 1_555
H55 C66 1_555 1_555
O19 S2 1_555 1_555
C67 C47 1_555 1_555
H56 C67 1_555 1_555
C68 C55 1_555 1_555
H57 C68 1_555 1_555
C69 C43 1_555 1_555
H58 C69 1_555 1_555
C70 C39 1_555 1_555
H59 C70 1_555 1_555
C71 C52 1_555 1_555
H60 C71 1_555 1_555
H61 C71 1_555 1_555
H62 C71 1_555 1_555
C72 C42 1_555 1_555
H63 C72 1_555 1_555
N4 C64 1_555 1_555
C73 C67 1_555 1_555
H64 C73 1_555 1_555
C74 H65 1_555 1_555
H66 C74 1_555 1_555
H67 C74 1_555 1_555
O20 N4 1_555 1_555
C75 O16 1_555 1_555
H68 C75 1_555 1_555
H69 C75 1_555 1_555
C76 C66 1_555 1_555
H70 C76 1_555 1_555
H71 C76 1_555 1_555
H72 C76 1_555 1_555
C7 C20 1_555 1_555
N1 C16 1_555 1_555
C10 C21 1_555 1_555
C17 C30 1_555 1_555
C17 C36 1_555 1_555
C18 C23 1_555 1_555
C19 C23 1_555 1_555
C19 C30 1_555 1_555
C26 C29 1_555 1_555
C28 C31 1_555 1_555
C32 C34 1_555 1_555
C33 C34 1_555 1_555
C40 C56 1_555 1_555
C43 C61 1_555 1_555
C46 C53 1_555 1_555
C47 C51 1_555 1_555
C48 C56 1_555 1_555
C49 C50 1_555 1_555
C52 C70 1_555 1_555
C55 C59 1_555 1_555
C63 C72 1_555 1_555
C65 C68 1_555 1_555
C69 C73 1_555 1_555
C74 C75 1_555 1_555

#END
