
#######################################################################
#
#                 Cambridge Crystallographic Data Centre
#                                CCDC 
#
#######################################################################
#
# If this CIF has been generated from an entry in the Cambridge 
# Structural Database, then it will include bibliographic, chemical, 
# crystal, experimental, refinement or atomic coordinate data resulting 
# from the CCDC's data processing and validation procedures.
#
#######################################################################

data_AGIXOG
_chemical_formula_moiety         'C38 H36 N2 O9 S1'
_chemical_name_systematic        
"diethyl {4'-(4-methylphenyl)-1'-[(4-nitrophenyl)sulfonyl]-2-oxo-3'-phenyl-2,3-dihydrospiro[indene-1,2'-pyrrolidin]-5'-yl}propanedioate"
_symmetry_cell_setting           monoclinic
_symmetry_space_group_name_H-M   'P 21/c'
_symmetry_Int_Tables_number      14
_space_group_name_Hall           '-P 2ybc'
loop_
_symmetry_equiv_pos_site_id
_symmetry_equiv_pos_as_xyz
1 x,y,z
2 -x,1/2+y,1/2-z
3 -x,-y,-z
4 x,1/2-y,1/2+z
_cell_length_a                   7.798(5)
_cell_length_b                   20.550(5)
_cell_length_c                   22.008(5)
_cell_angle_alpha                90
_cell_angle_beta                 93.750(5)
_cell_angle_gamma                90
_cell_volume                     3519.21
_exptl_crystal_colour            colorless
_exptl_crystal_description       block
_cell_formula_units_Z            4
loop_
_atom_site_label
_atom_site_type_symbol
_atom_site_fract_x
_atom_site_fract_y
_atom_site_fract_z
S1 S 0.42996(9) -0.04322(3) 0.69227(3)
O1 O 0.3732(3) -0.04958(11) 0.62888(10)
O2 O 0.0928(3) 0.04680(11) 0.64282(10)
O3 O 0.8405(3) -0.01152(11) 0.83108(11)
O4 O 0.6467(3) 0.09200(12) 0.90394(10)
O5 O 0.8180(3) 0.08093(12) 0.77615(11)
N1 N 0.4541(3) 0.03491(12) 0.70536(11)
O6 O 0.3979(3) 0.03766(15) 0.90258(11)
O7 O 1.1775(3) -0.17865(13) 0.65086(13)
C1 C 0.5154(4) 0.09337(14) 0.60869(13)
O8 O 0.3310(3) -0.07153(11) 0.73810(10)
C2 C 0.3728(4) 0.17485(15) 0.80770(13)
C3 C 0.1387(4) 0.20281(16) 0.86982(15)
H1 H 0.0255 0.1967 0.8794
O9 O 1.1443(4) -0.21587(15) 0.74209(15)
C4 C 0.2022(4) 0.16690(15) 0.82302(14)
H2 H 0.1313 0.1373 0.8016
N2 N 1.0996(4) -0.18184(14) 0.69775(15)
C5 C 0.4357(4) 0.06069(15) 0.76755(13)
H3 H 0.3195 0.0503 0.7791
C6 C 0.6385(4) -0.07821(14) 0.70003(13)
C7 C 0.3418(4) 0.14208(15) 0.69613(13)
H4 H 0.2209 0.1363 0.7045
C8 C 0.5265(4) 0.09497(17) 0.49934(15)
H5 H 0.4740 0.0888 0.4606
C9 C 0.2514(4) 0.06428(16) 0.55251(14)
H6 H 0.2323 0.0225 0.5328
H7 H 0.1748 0.0962 0.5328
C10 C 0.9223(4) -0.08795(15) 0.66549(16)
H8 H 1.0105 -0.0734 0.6425
C11 C 0.2403(5) 0.24784(16) 0.90275(15)
C12 C 0.6606(4) -0.13340(15) 0.73539(14)
H9 H 0.5728 -0.1481 0.7585
C13 C 0.3915(4) 0.08179(14) 0.65739(13)
C14 C 0.9404(4) -0.14399(16) 0.70045(15)
C15 C 0.5653(4) 0.02988(15) 0.81515(13)
H10 H 0.5422 -0.0170 0.8144
C16 C 0.6872(4) 0.11119(15) 0.61607(15)
H11 H 0.7412 0.1157 0.6548
C17 C 0.7767(4) 0.12215(17) 0.56483(16)
H12 H 0.8912 0.1349 0.5692
C18 C 0.4353(4) 0.08498(14) 0.55064(14)
C19 C 0.7543(4) 0.03770(15) 0.80385(14)
C20 C 0.6970(4) 0.11423(18) 0.50668(16)
H13 H 0.7586 0.1219 0.4726
C21 C 0.8153(4) -0.16670(15) 0.73601(15)
H14 H 0.8339 -0.2036 0.7600
C22 C 0.7679(4) -0.05435(16) 0.66605(15)
H15 H 0.7516 -0.0161 0.6438
C23 C 0.2245(4) 0.05990(14) 0.61979(14)
C24 C 0.4461(4) 0.13491(15) 0.75763(13)
H16 H 0.5657 0.1476 0.7531
C25 C 0.4742(4) 0.22035(16) 0.83985(15)
H17 H 0.5873 0.2266 0.8302
C26 C 1.0264(4) -0.01074(17) 0.82810(17)
H18 H 1.0751 0.0268 0.8496
H19 H 1.0563 -0.0086 0.7861
C27 C 0.5265(4) 0.05374(17) 0.87909(14)
C28 C 0.3533(5) 0.20710(16) 0.66367(14)
C29 C 0.4082(5) 0.25673(17) 0.88638(16)
H20 H 0.4776 0.2875 0.9069
C30 C 0.1699(6) 0.28680(19) 0.95352(17)
H21 H 0.0530 0.2742 0.9583
H22 H 0.2377 0.2787 0.9907
H23 H 0.1741 0.3323 0.9438
C31 C 1.0944(5) -0.07242(19) 0.8573(2)
H24 H 1.2172 -0.0735 0.8561
H25 H 1.0640 -0.0740 0.8988
H26 H 1.0454 -0.1092 0.8356
C32 C 0.2131(11) 0.2902(3) 0.6011(2)
H27 H 0.1145 0.3062 0.5802
C33 C 0.5054(6) 0.24255(18) 0.66373(18)
H28 H 0.6046 0.2273 0.6848
C34 C 0.7514(6) 0.1677(3) 0.9797(2)
H29 H 0.7329 0.1865 1.0187
H30 H 0.8610 0.1462 0.9816
H31 H 0.7495 0.2013 0.9494
C35 C 0.6119(5) 0.1190(2) 0.96336(17)
H32 H 0.6124 0.0848 0.9937
H33 H 0.5003 0.1401 0.9614
C36 C 0.2084(7) 0.2319(2) 0.63218(18)
H34 H 0.1058 0.2088 0.6319
C37 C 0.5076(10) 0.3009(2) 0.6321(2)
H35 H 0.6097 0.3244 0.6322
C38 C 0.3664(12) 0.3246(2) 0.6012(2)
H36 H 0.3715 0.3638 0.5802
loop_
_geom_bond_atom_site_label_1
_geom_bond_atom_site_label_2
_geom_bond_site_symmetry_1
_geom_bond_site_symmetry_2
S1 O1 1_555 1_555
O2 C23 1_555 1_555
O3 C19 1_555 1_555
O4 C27 1_555 1_555
O5 C19 1_555 1_555
N1 S1 1_555 1_555
O6 C27 1_555 1_555
O7 N2 1_555 1_555
C1 C13 1_555 1_555
O8 S1 1_555 1_555
C2 C4 1_555 1_555
C3 H1 1_555 1_555
O9 N2 1_555 1_555
C4 C3 1_555 1_555
H2 C4 1_555 1_555
N2 C14 1_555 1_555
C5 N1 1_555 1_555
H3 C5 1_555 1_555
C6 S1 1_555 1_555
C7 H4 1_555 1_555
C8 H5 1_555 1_555
C9 H6 1_555 1_555
H7 C9 1_555 1_555
C10 H8 1_555 1_555
C11 C3 1_555 1_555
C12 C6 1_555 1_555
H9 C12 1_555 1_555
C13 N1 1_555 1_555
C14 C10 1_555 1_555
C15 C5 1_555 1_555
H10 C15 1_555 1_555
C16 C1 1_555 1_555
H11 C16 1_555 1_555
C17 C16 1_555 1_555
H12 C17 1_555 1_555
C18 C1 1_555 1_555
C19 C15 1_555 1_555
C20 C8 1_555 1_555
H13 C20 1_555 1_555
C21 C12 1_555 1_555
H14 C21 1_555 1_555
C22 C6 1_555 1_555
H15 C22 1_555 1_555
C23 C9 1_555 1_555
C24 C2 1_555 1_555
H16 C24 1_555 1_555
C25 C2 1_555 1_555
H17 C25 1_555 1_555
C26 O3 1_555 1_555
H18 C26 1_555 1_555
H19 C26 1_555 1_555
C27 C15 1_555 1_555
C28 C7 1_555 1_555
C29 C11 1_555 1_555
H20 C29 1_555 1_555
C30 C11 1_555 1_555
H21 C30 1_555 1_555
H22 C30 1_555 1_555
H23 C30 1_555 1_555
C31 C26 1_555 1_555
H24 C31 1_555 1_555
H25 C31 1_555 1_555
H26 C31 1_555 1_555
C32 H27 1_555 1_555
C33 C28 1_555 1_555
H28 C33 1_555 1_555
C34 H29 1_555 1_555
H30 C34 1_555 1_555
H31 C34 1_555 1_555
C35 O4 1_555 1_555
H32 C35 1_555 1_555
H33 C35 1_555 1_555
C36 C28 1_555 1_555
H34 C36 1_555 1_555
C37 C33 1_555 1_555
H35 C37 1_555 1_555
C38 C32 1_555 1_555
H36 C38 1_555 1_555
C5 C24 1_555 1_555
C7 C13 1_555 1_555
C7 C24 1_555 1_555
C8 C18 1_555 1_555
C9 C18 1_555 1_555
C10 C22 1_555 1_555
C13 C23 1_555 1_555
C14 C21 1_555 1_555
C17 C20 1_555 1_555
C25 C29 1_555 1_555
C32 C36 1_555 1_555
C34 C35 1_555 1_555
C37 C38 1_555 1_555

#END
