
#######################################################################
#
#                 Cambridge Crystallographic Data Centre
#                                CCDC 
#
#######################################################################
#
# If this CIF has been generated from an entry in the Cambridge 
# Structural Database, then it will include bibliographic, chemical, 
# crystal, experimental, refinement or atomic coordinate data resulting 
# from the CCDC's data processing and validation procedures.
#
#######################################################################

data_AGOBAC
_chemical_formula_moiety         'C22 H32 P2'
_chemical_name_systematic        
([1,1'-biphenyl]-2,2'-diyl)bis[t-butyl(methyl)phosphane]
_symmetry_cell_setting           monoclinic
_symmetry_space_group_name_H-M   'P 21'
_symmetry_Int_Tables_number      4
_space_group_name_Hall           'P 2yb'
loop_
_symmetry_equiv_pos_site_id
_symmetry_equiv_pos_as_xyz
1 x,y,z
2 -x,1/2+y,-z
_cell_length_a                   14.5004(4)
_cell_length_b                   19.6775(6)
_cell_length_c                   15.4361(5)
_cell_angle_alpha                90
_cell_angle_beta                 90.6300(10)
_cell_angle_gamma                90
_cell_volume                     4404.14
_exptl_crystal_colour            colorless
_exptl_crystal_description       block
_cell_formula_units_Z            8
loop_
_atom_site_label
_atom_site_type_symbol
_atom_site_fract_x
_atom_site_fract_y
_atom_site_fract_z
P1 P 0.13213(6) 0.56386(4) 0.15267(6)
C1 C 0.1635(2) 0.46876(18) 0.2866(2)
P2 P 0.11459(6) 0.40170(5) 0.10569(5)
C2 C 0.2169(3) 0.4373(2) 0.3510(2)
H1 H 0.191526 0.400598 0.382921
C3 C 0.3064(3) 0.4588(2) 0.3693(3)
H2 H 0.342419 0.436135 0.412220
C4 C 0.3423(3) 0.5130(2) 0.3248(3)
H3 H 0.403159 0.528246 0.337247
C5 C 0.2900(2) 0.5450(2) 0.2621(2)
H4 H 0.315935 0.582471 0.232081
C6 C 0.2001(2) 0.52455(18) 0.2410(2)
C7 C 0.2246(3) 0.5916(2) 0.0797(3)
H5 H 0.256616 0.551696 0.056875
H6 H 0.268541 0.620118 0.111910
H7 H 0.197816 0.617756 0.031645
C8 C 0.0923(3) 0.64635(19) 0.2003(3)
C9 C 0.1669(4) 0.6916(2) 0.2405(4)
H8 H 0.210917 0.704894 0.195852
H9 H 0.199291 0.666643 0.286569
H10 H 0.138355 0.732413 0.264903
C10 C 0.0438(4) 0.6839(3) 0.1263(3)
H11 H 0.088720 0.695288 0.081611
H12 H 0.015933 0.725707 0.148462
H13 H -0.004433 0.654779 0.101272
C11 C 0.0223(3) 0.6287(2) 0.2700(3)
H14 H -0.026073 0.599678 0.245029
H15 H -0.005443 0.670565 0.292222
H16 H 0.053372 0.604536 0.317552
C12 C 0.0658(2) 0.44496(17) 0.2732(2)
C13 C 0.0053(3) 0.4534(2) 0.3420(2)
H17 H 0.027934 0.471289 0.395350
C14 C -0.0870(3) 0.4362(2) 0.3342(3)
H18 H -0.127219 0.442008 0.381747
C15 C -0.1200(2) 0.4105(2) 0.2568(3)
H19 H -0.183480 0.399355 0.250351
C16 C -0.0604(2) 0.40089(19) 0.1884(2)
H20 H -0.084020 0.383226 0.135345
C17 C 0.0386(3) 0.4128(3) 0.0106(3)
H21 H 0.074702 0.408061 -0.042326
H22 H 0.010477 0.458039 0.012236
H23 H -0.009941 0.378117 0.011296
C18 C 0.1315(3) 0.3071(2) 0.1094(3)
C19 C 0.1903(4) 0.2881(3) 0.0307(5)
H24 H 0.201079 0.238972 0.030353
H25 H 0.249582 0.311980 0.034179
H26 H 0.157754 0.301373 -0.022674
C20 C 0.0446(3) 0.2637(2) 0.1060(3)
H27 H 0.013419 0.269926 0.049937
H28 H 0.003183 0.277459 0.152611
H29 H 0.061226 0.215747 0.113373
C21 C 0.1820(5) 0.2919(3) 0.1941(5)
H30 H 0.199673 0.243799 0.195497
H31 H 0.141381 0.301738 0.242803
H32 H 0.237417 0.320198 0.198439
C22 C 0.0339(2) 0.41643(16) 0.1949(2)
P3 P -0.14081(6) 0.09876(5) 0.39895(5)
P4 P -0.12925(6) -0.06745(5) 0.34618(6)
C23 C -0.2572(3) 0.04585(19) 0.1629(2)
H33 H -0.236125 0.028810 0.109076
C24 C -0.3497(2) 0.06116(19) 0.1720(2)
H34 H -0.391430 0.054984 0.124799
C25 C -0.3809(2) 0.08552(19) 0.2504(3)
H35 H -0.444662 0.094469 0.258177
C26 C -0.3182(2) 0.09684(18) 0.3178(2)
H36 H -0.340354 0.114281 0.371054
C27 C -0.2242(2) 0.08356(17) 0.3101(2)
C28 C -0.2156(3) 0.0898(3) 0.4939(2)
H37 H -0.263577 0.124867 0.491978
H38 H -0.178540 0.095083 0.546952
H39 H -0.244393 0.044782 0.493260
C29 C -0.0715(4) 0.2143(2) 0.4777(3)
H40 H -0.014678 0.187592 0.483931
H41 H -0.111393 0.205544 0.527336
H42 H -0.056098 0.262719 0.475577
C30 C -0.1219(3) 0.19374(19) 0.3938(2)
C31 C -0.0585(3) 0.2067(2) 0.3170(3)
H43 H -0.001358 0.180694 0.324666
H44 H -0.043914 0.255287 0.313812
H45 H -0.089556 0.192512 0.263274
C32 C -0.2085(3) 0.2363(2) 0.3833(3)
H46 H -0.191660 0.284490 0.379909
H47 H -0.248628 0.229066 0.433108
H48 H -0.241172 0.222976 0.330039
C33 C -0.0975(2) 0.03120(18) 0.2169(2)
C34 C -0.0447(3) 0.0638(2) 0.1544(2)
H49 H -0.069736 0.101908 0.124543
C35 C 0.0430(3) 0.0420(2) 0.1349(2)
H50 H 0.078485 0.065666 0.093302
C36 C 0.0789(2) -0.0145(2) 0.1764(3)
H51 H 0.138850 -0.030387 0.162577
C37 C 0.0272(2) -0.0480(2) 0.2381(2)
H52 H 0.052608 -0.086745 0.266209
C38 C -0.0615(2) -0.02634(18) 0.2601(2)
C39 C -0.0364(3) -0.1001(2) 0.4170(3)
H53 H -0.063233 -0.120894 0.468565
H54 H 0.004207 -0.062604 0.434418
H55 H -0.000629 -0.134261 0.385545
C40 C -0.1744(3) -0.14702(19) 0.2929(3)
C41 C -0.1028(3) -0.1909(2) 0.2485(3)
H56 H -0.133069 -0.230531 0.222268
H57 H -0.056878 -0.206183 0.291340
H58 H -0.072270 -0.164396 0.203421
C42 C -0.2470(3) -0.1257(2) 0.2253(3)
H59 H -0.217403 -0.099198 0.179556
H60 H -0.294279 -0.097865 0.253133
H61 H -0.275704 -0.166252 0.199996
C43 C -0.2216(4) -0.1875(3) 0.3650(3)
H62 H -0.253122 -0.227031 0.339838
H63 H -0.266666 -0.158493 0.394039
H64 H -0.175114 -0.202891 0.407219
C44 C -0.1939(2) 0.05483(17) 0.2311(2)
P5 P -0.42892(5) 0.62394(4) -0.43008(5)
P6 P -0.39694(6) 0.45406(4) -0.38424(5)
C45 C -0.3072(2) 0.60541(17) -0.4526(2)
C46 C -0.2653(2) 0.6212(2) -0.5313(2)
H65 H -0.300940 0.642415 -0.575648
C47 C -0.1732(2) 0.6067(2) -0.5464(2)
H66 H -0.146713 0.617190 -0.600764
C48 C -0.1203(2) 0.5770(2) -0.4821(3)
H67 H -0.056984 0.567461 -0.491922
C49 C -0.1593(2) 0.56098(19) -0.4034(2)
H68 H -0.122217 0.541138 -0.359025
C50 C -0.2526(2) 0.57363(17) -0.3882(2)
C51 C -0.4812(3) 0.6218(2) -0.5392(2)
H69 H -0.452293 0.656472 -0.575569
H70 H -0.547476 0.631006 -0.535310
H71 H -0.471763 0.576868 -0.564982
C52 C -0.3848(3) 0.7626(2) -0.4742(4)
H72 H -0.417668 0.755582 -0.529340
H73 H -0.319643 0.750734 -0.481084
H74 H -0.389915 0.810345 -0.456975
C53 C -0.4271(2) 0.71759(18) -0.4048(2)
C54 C -0.5282(2) 0.73723(18) -0.3906(2)
H75 H -0.564610 0.725870 -0.442429
H76 H -0.532335 0.786166 -0.379474
H77 H -0.552152 0.712211 -0.340770
C55 C -0.3740(4) 0.7271(2) -0.3202(3)
H78 H -0.309273 0.714554 -0.328470
H79 H -0.400775 0.698041 -0.275397
H80 H -0.377697 0.774720 -0.302065
C56 C -0.2917(2) 0.55574(17) -0.3014(2)
C57 C -0.2584(2) 0.59064(19) -0.2292(2)
H81 H -0.209217 0.622088 -0.235761
C58 C -0.2954(3) 0.5804(2) -0.1477(2)
H82 H -0.271625 0.604564 -0.099021
C59 C -0.3672(3) 0.5350(2) -0.1377(2)
H83 H -0.394759 0.529102 -0.082668
C60 C -0.3985(3) 0.49823(19) -0.2080(2)
H84 H -0.446864 0.466309 -0.200294
C61 C -0.3612(2) 0.50651(17) -0.2905(2)
C62 C -0.5179(3) 0.4339(2) -0.3597(3)
H85 H -0.554513 0.475752 -0.360413
H86 H -0.521227 0.412841 -0.302282
H87 H -0.542362 0.402322 -0.403369
C63 C -0.3358(3) 0.3713(2) -0.3597(2)
C64 C -0.3563(6) 0.3402(3) -0.2727(3)
H88 H -0.422105 0.329125 -0.269759
H89 H -0.340349 0.372605 -0.226739
H90 H -0.319851 0.298644 -0.265107
C65 C -0.2338(3) 0.3844(3) -0.3677(5)
H91 H -0.200327 0.341177 -0.364065
H92 H -0.213243 0.414380 -0.320687
H93 H -0.221595 0.406013 -0.423599
C66 C -0.3651(3) 0.3211(2) -0.4298(3)
H94 H -0.352289 0.340495 -0.486907
H95 H -0.431280 0.311974 -0.425104
H96 H -0.330607 0.278661 -0.422493
P7 P -0.30652(5) 0.37359(4) 0.06981(5)
P8 P -0.33546(6) 0.55002(5) 0.11325(5)
C67 C -0.5724(2) 0.44256(18) 0.0981(2)
H97 H -0.607755 0.462143 0.143093
C68 C -0.6145(2) 0.4275(2) 0.0197(2)
H98 H -0.678257 0.436639 0.011182
C69 C -0.5636(3) 0.3990(2) -0.0462(2)
H99 H -0.591676 0.389729 -0.100857
C70 C -0.4713(2) 0.38426(18) -0.0320(2)
H100 H -0.436920 0.364182 -0.077317
C71 C -0.4273(2) 0.39790(17) 0.0468(2)
C72 C -0.4785(2) 0.42955(17) 0.1125(2)
C73 C -0.4366(2) 0.44865(17) 0.1985(2)
C74 C -0.4685(2) 0.41517(17) 0.2721(2)
H101 H -0.517139 0.383066 0.266461
C75 C -0.4304(3) 0.42802(19) 0.3531(2)
H102 H -0.453589 0.405290 0.402590
C76 C -0.3589(3) 0.47363(19) 0.3622(2)
H103 H -0.330728 0.480964 0.417261
C77 C -0.3284(2) 0.50879(18) 0.2900(2)
H104 H -0.279561 0.540633 0.296482
C78 C -0.3678(2) 0.49849(17) 0.2078(2)
C79 C -0.2145(3) 0.5716(2) 0.1381(3)
H105 H -0.190346 0.601008 0.092393
H106 H -0.177754 0.529842 0.141291
H107 H -0.210949 0.595403 0.193781
C80 C -0.3759(5) 0.6650(3) 0.2233(3)
H108 H -0.309239 0.672284 0.228529
H109 H -0.396391 0.635145 0.270119
H110 H -0.407895 0.708748 0.227242
C81 C -0.3982(3) 0.63192(19) 0.1358(2)
C82 C -0.3727(4) 0.6817(3) 0.0634(3)
H111 H -0.386367 0.660956 0.006984
H112 H -0.306837 0.692449 0.067437
H113 H -0.408770 0.723541 0.069526
C83 C -0.5005(3) 0.6173(3) 0.1298(4)
H114 H -0.515191 0.597639 0.073003
H115 H -0.535034 0.659653 0.137231
H116 H -0.517465 0.585093 0.175391
C84 C -0.3656(3) 0.2385(2) 0.0172(3)
H117 H -0.429600 0.253754 0.010648
H118 H -0.364515 0.190159 0.032264
H119 H -0.332964 0.245524 -0.037330
C85 C -0.3181(2) 0.27936(18) 0.0891(2)
C86 C -0.3712(3) 0.2710(2) 0.1737(3)
H120 H -0.435127 0.285851 0.164926
H121 H -0.342039 0.298734 0.219114
H122 H -0.370336 0.223160 0.191243
C87 C -0.2205(3) 0.2519(2) 0.1032(3)
H123 H -0.184517 0.258778 0.050543
H124 H -0.223346 0.203255 0.116539
H125 H -0.190918 0.276063 0.151605
C88 C -0.2551(3) 0.3772(2) -0.0384(2)
H126 H -0.287645 0.345626 -0.077175
H127 H -0.189879 0.364297 -0.034350
H128 H -0.260275 0.423460 -0.061308
loop_
_geom_bond_atom_site_label_1
_geom_bond_atom_site_label_2
_geom_bond_site_symmetry_1
_geom_bond_site_symmetry_2
P1 C6 1_555 1_555
C1 C2 1_555 1_555
P2 C17 1_555 1_555
C2 H1 1_555 1_555
C3 C2 1_555 1_555
H2 C3 1_555 1_555
C4 C3 1_555 1_555
H3 C4 1_555 1_555
C5 C4 1_555 1_555
H4 C5 1_555 1_555
C6 C1 1_555 1_555
C7 P1 1_555 1_555
H5 C7 1_555 1_555
H6 C7 1_555 1_555
H7 C7 1_555 1_555
C8 P1 1_555 1_555
C9 C8 1_555 1_555
H8 C9 1_555 1_555
H9 C9 1_555 1_555
H10 C9 1_555 1_555
C10 C8 1_555 1_555
H11 C10 1_555 1_555
H12 C10 1_555 1_555
H13 C10 1_555 1_555
C11 C8 1_555 1_555
H14 C11 1_555 1_555
H15 C11 1_555 1_555
H16 C11 1_555 1_555
C12 C1 1_555 1_555
C13 C12 1_555 1_555
H17 C13 1_555 1_555
C14 C13 1_555 1_555
H18 C14 1_555 1_555
C15 C14 1_555 1_555
H19 C15 1_555 1_555
C16 C15 1_555 1_555
H20 C16 1_555 1_555
C17 H21 1_555 1_555
H22 C17 1_555 1_555
H23 C17 1_555 1_555
C18 P2 1_555 1_555
C19 C18 1_555 1_555
H24 C19 1_555 1_555
H25 C19 1_555 1_555
H26 C19 1_555 1_555
C20 C18 1_555 1_555
H27 C20 1_555 1_555
H28 C20 1_555 1_555
H29 C20 1_555 1_555
C21 C18 1_555 1_555
H30 C21 1_555 1_555
H31 C21 1_555 1_555
H32 C21 1_555 1_555
C22 P2 1_555 1_555
P3 C27 1_555 1_555
P4 C38 1_555 1_555
C23 H33 1_555 1_555
C24 C23 1_555 1_555
H34 C24 1_555 1_555
C25 C24 1_555 1_555
H35 C25 1_555 1_555
C26 C25 1_555 1_555
H36 C26 1_555 1_555
C27 C26 1_555 1_555
C28 P3 1_555 1_555
H37 C28 1_555 1_555
H38 C28 1_555 1_555
H39 C28 1_555 1_555
C29 H40 1_555 1_555
H41 C29 1_555 1_555
H42 C29 1_555 1_555
C30 P3 1_555 1_555
C31 C30 1_555 1_555
H43 C31 1_555 1_555
H44 C31 1_555 1_555
H45 C31 1_555 1_555
C32 C30 1_555 1_555
H46 C32 1_555 1_555
H47 C32 1_555 1_555
H48 C32 1_555 1_555
C33 C34 1_555 1_555
C34 H49 1_555 1_555
C35 C34 1_555 1_555
H50 C35 1_555 1_555
C36 C35 1_555 1_555
H51 C36 1_555 1_555
C37 C36 1_555 1_555
H52 C37 1_555 1_555
C38 C33 1_555 1_555
C39 P4 1_555 1_555
H53 C39 1_555 1_555
H54 C39 1_555 1_555
H55 C39 1_555 1_555
C40 P4 1_555 1_555
C41 C40 1_555 1_555
H56 C41 1_555 1_555
H57 C41 1_555 1_555
H58 C41 1_555 1_555
C42 C40 1_555 1_555
H59 C42 1_555 1_555
H60 C42 1_555 1_555
H61 C42 1_555 1_555
C43 C40 1_555 1_555
H62 C43 1_555 1_555
H63 C43 1_555 1_555
H64 C43 1_555 1_555
C44 C23 1_555 1_555
P5 C45 1_555 1_555
P6 C61 1_555 1_555
C45 C46 1_555 1_555
C46 H65 1_555 1_555
C47 C46 1_555 1_555
H66 C47 1_555 1_555
C48 C47 1_555 1_555
H67 C48 1_555 1_555
C49 C48 1_555 1_555
H68 C49 1_555 1_555
C50 C45 1_555 1_555
C51 P5 1_555 1_555
H69 C51 1_555 1_555
H70 C51 1_555 1_555
H71 C51 1_555 1_555
C52 H72 1_555 1_555
H73 C52 1_555 1_555
H74 C52 1_555 1_555
C53 P5 1_555 1_555
C54 C53 1_555 1_555
H75 C54 1_555 1_555
H76 C54 1_555 1_555
H77 C54 1_555 1_555
C55 C53 1_555 1_555
H78 C55 1_555 1_555
H79 C55 1_555 1_555
H80 C55 1_555 1_555
C56 C50 1_555 1_555
C57 C56 1_555 1_555
H81 C57 1_555 1_555
C58 C57 1_555 1_555
H82 C58 1_555 1_555
C59 C58 1_555 1_555
H83 C59 1_555 1_555
C60 C59 1_555 1_555
H84 C60 1_555 1_555
C61 C56 1_555 1_555
C62 P6 1_555 1_555
H85 C62 1_555 1_555
H86 C62 1_555 1_555
H87 C62 1_555 1_555
C63 P6 1_555 1_555
C64 C63 1_555 1_555
H88 C64 1_555 1_555
H89 C64 1_555 1_555
H90 C64 1_555 1_555
C65 C63 1_555 1_555
H91 C65 1_555 1_555
H92 C65 1_555 1_555
H93 C65 1_555 1_555
C66 C63 1_555 1_555
H94 C66 1_555 1_555
H95 C66 1_555 1_555
H96 C66 1_555 1_555
P7 C71 1_555 1_555
P8 C78 1_555 1_555
C67 H97 1_555 1_555
C68 C67 1_555 1_555
H98 C68 1_555 1_555
C69 C68 1_555 1_555
H99 C69 1_555 1_555
C70 C69 1_555 1_555
H100 C70 1_555 1_555
C71 C70 1_555 1_555
C72 C67 1_555 1_555
C73 C72 1_555 1_555
C74 C73 1_555 1_555
H101 C74 1_555 1_555
C75 C74 1_555 1_555
H102 C75 1_555 1_555
C76 C75 1_555 1_555
H103 C76 1_555 1_555
C77 C76 1_555 1_555
H104 C77 1_555 1_555
C78 C73 1_555 1_555
C79 P8 1_555 1_555
H105 C79 1_555 1_555
H106 C79 1_555 1_555
H107 C79 1_555 1_555
C80 H108 1_555 1_555
H109 C80 1_555 1_555
H110 C80 1_555 1_555
C81 P8 1_555 1_555
C82 C81 1_555 1_555
H111 C82 1_555 1_555
H112 C82 1_555 1_555
H113 C82 1_555 1_555
C83 C81 1_555 1_555
H114 C83 1_555 1_555
H115 C83 1_555 1_555
H116 C83 1_555 1_555
C84 H117 1_555 1_555
H118 C84 1_555 1_555
H119 C84 1_555 1_555
C85 P7 1_555 1_555
C86 C85 1_555 1_555
H120 C86 1_555 1_555
H121 C86 1_555 1_555
H122 C86 1_555 1_555
C87 C85 1_555 1_555
H123 C87 1_555 1_555
H124 C87 1_555 1_555
H125 C87 1_555 1_555
C88 P7 1_555 1_555
H126 C88 1_555 1_555
H127 C88 1_555 1_555
H128 C88 1_555 1_555
C5 C6 1_555 1_555
C12 C22 1_555 1_555
C16 C22 1_555 1_555
C27 C44 1_555 1_555
C29 C30 1_555 1_555
C33 C44 1_555 1_555
C37 C38 1_555 1_555
C49 C50 1_555 1_555
C52 C53 1_555 1_555
C60 C61 1_555 1_555
C71 C72 1_555 1_555
C77 C78 1_555 1_555
C80 C81 1_555 1_555
C84 C85 1_555 1_555

#END
