
#######################################################################
#
#                 Cambridge Crystallographic Data Centre
#                                CCDC 
#
#######################################################################
#
# If this CIF has been generated from an entry in the Cambridge 
# Structural Database, then it will include bibliographic, chemical, 
# crystal, experimental, refinement or atomic coordinate data resulting 
# from the CCDC's data processing and validation procedures.
#
#######################################################################

data_AGOBEG
_chemical_formula_moiety         'C38 H36 F1 N1 O8 S1'
_chemical_name_systematic        
'diethyl {4-(4-fluorophenyl)-2-[(4-methylphenyl)sulfonyl]-1,6-dioxo-5-phenyl-2,3,4,5,6,7-hexahydro-1H-2-benzazonin-3-yl}propanedioate'
_symmetry_cell_setting           monoclinic
_symmetry_space_group_name_H-M   'P 21/n'
_symmetry_Int_Tables_number      14
_space_group_name_Hall           '-P 2yn'
loop_
_symmetry_equiv_pos_site_id
_symmetry_equiv_pos_as_xyz
1 x,y,z
2 1/2-x,1/2+y,1/2-z
3 -x,-y,-z
4 1/2+x,1/2-y,1/2+z
_cell_length_a                   14.9123(6)
_cell_length_b                   16.0546(6)
_cell_length_c                   14.9680(5)
_cell_angle_alpha                90
_cell_angle_beta                 101.2430(10)
_cell_angle_gamma                90
_cell_volume                     3514.73
_exptl_crystal_colour            colorless
_exptl_crystal_description       block
_cell_formula_units_Z            4
loop_
_atom_site_label
_atom_site_type_symbol
_atom_site_fract_x
_atom_site_fract_y
_atom_site_fract_z
S1 S 0.04549(4) 0.46317(4) 0.31454(4)
O1 O 0.25865(13) 0.39578(15) 0.24360(13)
O2 O -0.00372(12) 0.42489(11) 0.37646(12)
O3 O -0.00057(13) 0.48159(13) 0.22425(12)
O4 O 0.24503(15) 0.42359(14) 0.57699(13)
O5 O 0.37546(16) 0.35827(17) 0.57379(15)
O6 O 0.41871(14) 0.41255(15) 0.39326(17)
O7 O 0.36467(14) 0.28160(15) 0.37924(16)
O8 O 0.15204(15) 0.21812(13) 0.20964(14)
C1 C 0.16701(16) 0.26299(14) 0.39618(16)
H1 H 0.2176 0.2377 0.3727
N1 N 0.13261(13) 0.39783(11) 0.30722(12)
C2 C -0.0055(3) -0.0151(2) 0.3759(3)
H2 H -0.0230 -0.0693 0.3861
C3 C -0.0597(3) 0.0505(2) 0.3907(3)
H3 H -0.1144 0.0406 0.4100
C4 C -0.0331(2) 0.13159(19) 0.3769(2)
H4 H -0.0702 0.1759 0.3867
C5 C 0.04784(18) 0.14684(15) 0.34884(18)
C6 C 0.07576(17) 0.23594(14) 0.33409(17)
H5 H 0.0271 0.2733 0.3452
C7 C 0.17882(15) 0.35976(14) 0.39589(14)
H6 H 0.1434 0.3799 0.4402
C8 C 0.09691(17) 0.55419(15) 0.36471(17)
C9 C 0.10755(19) 0.56642(16) 0.45719(18)
H7 H 0.0885 0.5259 0.4938
C10 C 0.1466(2) 0.63905(17) 0.4949(2)
H8 H 0.1539 0.6473 0.5574
C11 C 0.1752(2) 0.70036(17) 0.4413(3)
C12 C 0.2188(3) 0.7802(2) 0.4832(4)
H9 H 0.2341 0.8151 0.4363
H10 H 0.1766 0.8090 0.5133
H11 H 0.2733 0.7671 0.5267
C13 C 0.1246(2) 0.61511(18) 0.3090(2)
H12 H 0.1172 0.6068 0.2465
C14 C 0.1627(2) 0.68729(19) 0.3480(3)
H13 H 0.1805 0.7283 0.3113
C15 C 0.27690(16) 0.39290(15) 0.43171(16)
H14 H 0.2763 0.4521 0.4157
C16 C 0.30550(19) 0.38810(16) 0.53535(18)
C17 C 0.2702(3) 0.4209(3) 0.6767(2)
H15 H 0.2853 0.3643 0.6969
H16 H 0.3231 0.4558 0.6977
C18 C 0.1936(4) 0.4503(4) 0.7131(3)
H17 H 0.2087 0.4490 0.7784
H18 H 0.1794 0.5064 0.6930
H19 H 0.1417 0.4152 0.6922
C19 C 0.35650(17) 0.35380(19) 0.39632(19)
C20 C 0.5068(2) 0.3851(3) 0.3735(3)
H20 H 0.5035 0.3264 0.3577
H21 H 0.5201 0.4161 0.3220
C21 C 0.5760(3) 0.3978(5) 0.4490(5)
H22 H 0.6332 0.3797 0.4354
H23 H 0.5796 0.4560 0.4641
H24 H 0.5630 0.3666 0.4997
C22 C 0.17303(18) 0.23432(15) 0.49406(18)
C23 C 0.2439(2) 0.18359(19) 0.5352(2)
H25 H 0.2877 0.1666 0.5024
C24 C 0.2508(3) 0.1574(2) 0.6253(3)
H26 H 0.2990 0.1238 0.6533
C25 C 0.1846(3) 0.1828(3) 0.6712(2)
F1 F 0.1918(3) 0.1578(2) 0.75883(16)
C26 C 0.1128(3) 0.2316(2) 0.6326(2)
H27 H 0.0684 0.2472 0.6652
C27 C 0.1074(2) 0.25742(19) 0.5430(2)
H28 H 0.0589 0.2908 0.5155
C28 C 0.0734(3) -0.0009(2) 0.3465(3)
H29 H 0.1089 -0.0457 0.3348
C29 C 0.1017(2) 0.07931(17) 0.3338(2)
H30 H 0.1568 0.0883 0.3151
C30 C 0.08556(18) 0.24536(15) 0.23501(18)
C31 C 0.01158(19) 0.29032(18) 0.16866(19)
H31 H -0.0275 0.2495 0.1324
H32 H -0.0258 0.3221 0.2027
C32 C 0.04960(18) 0.34867(16) 0.10549(17)
C33 C 0.0133(2) 0.34704(18) 0.01302(18)
H33 H -0.0334 0.3097 -0.0093
C34 C 0.0452(3) 0.4002(2) -0.04688(18)
H34 H 0.0194 0.3984 -0.1086
C35 C 0.1141(2) 0.45488(18) -0.01606(19)
H35 H 0.1342 0.4914 -0.0562
C36 C 0.1542(2) 0.45569(16) 0.07594(17)
H36 H 0.2029 0.4913 0.0970
C37 C 0.12176(17) 0.40338(15) 0.13645(15)
C38 C 0.17676(16) 0.40100(14) 0.23102(15)
loop_
_geom_bond_atom_site_label_1
_geom_bond_atom_site_label_2
_geom_bond_site_symmetry_1
_geom_bond_site_symmetry_2
S1 O2 1_555 1_555
O1 C38 1_555 1_555
O3 S1 1_555 1_555
O4 C16 1_555 1_555
O5 C16 1_555 1_555
O6 C19 1_555 1_555
O7 C19 1_555 1_555
O8 C30 1_555 1_555
C1 H1 1_555 1_555
N1 S1 1_555 1_555
C2 H2 1_555 1_555
C3 C2 1_555 1_555
H3 C3 1_555 1_555
C4 C3 1_555 1_555
H4 C4 1_555 1_555
C5 C4 1_555 1_555
C6 C1 1_555 1_555
H5 C6 1_555 1_555
C7 C1 1_555 1_555
H6 C7 1_555 1_555
C8 S1 1_555 1_555
C9 C8 1_555 1_555
H7 C9 1_555 1_555
C10 C9 1_555 1_555
H8 C10 1_555 1_555
C11 C10 1_555 1_555
C12 C11 1_555 1_555
H9 C12 1_555 1_555
H10 C12 1_555 1_555
H11 C12 1_555 1_555
C13 C8 1_555 1_555
H12 C13 1_555 1_555
C14 C11 1_555 1_555
H13 C14 1_555 1_555
C15 C7 1_555 1_555
H14 C15 1_555 1_555
C16 C15 1_555 1_555
C17 O4 1_555 1_555
H15 C17 1_555 1_555
H16 C17 1_555 1_555
C18 C17 1_555 1_555
H17 C18 1_555 1_555
H18 C18 1_555 1_555
H19 C18 1_555 1_555
C19 C15 1_555 1_555
C20 O6 1_555 1_555
H20 C20 1_555 1_555
H21 C20 1_555 1_555
C21 C20 1_555 1_555
H22 C21 1_555 1_555
H23 C21 1_555 1_555
H24 C21 1_555 1_555
C22 C1 1_555 1_555
C23 C22 1_555 1_555
H25 C23 1_555 1_555
C24 C23 1_555 1_555
H26 C24 1_555 1_555
C25 C24 1_555 1_555
F1 C25 1_555 1_555
C26 C25 1_555 1_555
H27 C26 1_555 1_555
C27 C22 1_555 1_555
H28 C27 1_555 1_555
C28 C2 1_555 1_555
H29 C28 1_555 1_555
C29 C5 1_555 1_555
H30 C29 1_555 1_555
C30 C6 1_555 1_555
C31 C30 1_555 1_555
H31 C31 1_555 1_555
H32 C31 1_555 1_555
C32 C31 1_555 1_555
C33 C32 1_555 1_555
H33 C33 1_555 1_555
C34 C33 1_555 1_555
H34 C34 1_555 1_555
C35 C34 1_555 1_555
H35 C35 1_555 1_555
C36 C35 1_555 1_555
H36 C36 1_555 1_555
C37 C32 1_555 1_555
C38 N1 1_555 1_555
N1 C7 1_555 1_555
C5 C6 1_555 1_555
C13 C14 1_555 1_555
C26 C27 1_555 1_555
C28 C29 1_555 1_555
C36 C37 1_555 1_555
C37 C38 1_555 1_555

#END
