
#######################################################################
#
#                 Cambridge Crystallographic Data Centre
#                                CCDC 
#
#######################################################################
#
# If this CIF has been generated from an entry in the Cambridge 
# Structural Database, then it will include bibliographic, chemical, 
# crystal, experimental, refinement or atomic coordinate data resulting 
# from the CCDC's data processing and validation procedures.
#
#######################################################################

data_AGONIW
_chemical_formula_moiety         'C15 H18 N2 O4'
_chemical_name_systematic        
'ethyl 1,3-dimethyl-2,4-dioxo-6-phenylhexahydropyrimidine-5-carboxylate'
_symmetry_cell_setting           monoclinic
_symmetry_space_group_name_H-M   'C 2/c'
_symmetry_Int_Tables_number      15
_space_group_name_Hall           '-C 2yn'
loop_
_symmetry_equiv_pos_site_id
_symmetry_equiv_pos_as_xyz
1 x,y,z
2 -x,y,1/2-z
3 1/2+x,1/2+y,z
4 1/2-x,1/2+y,1/2-z
5 -x,-y,-z
6 x,-y,1/2+z
7 1/2-x,1/2-y,-z
8 1/2+x,1/2-y,1/2+z
_cell_length_a                   16.7257(3)
_cell_length_b                   8.0383(2)
_cell_length_c                   22.0664(4)
_cell_angle_alpha                90
_cell_angle_beta                 98.396(2)
_cell_angle_gamma                90
_cell_volume                     2934.95
_exptl_crystal_colour            colorless
_exptl_crystal_description       block
_cell_formula_units_Z            8
_exptl_crystal_recrystallization_method 'Re-crystallisation from solvent'
loop_
_atom_site_label
_atom_site_type_symbol
_atom_site_fract_x
_atom_site_fract_y
_atom_site_fract_z
O1 O 0.17349(5) 0.60991(12) 0.46064(4)
O2 O 0.15563(6) 0.46289(12) 0.27534(4)
O3 O 0.20788(6) 0.98304(12) 0.31148(4)
O4 O 0.13344(6) 0.69726(12) 0.21972(4)
N1 N 0.19795(6) 0.80338(13) 0.38955(5)
N2 N 0.25566(6) 0.53600(13) 0.39157(5)
C1 C 0.38164(7) 0.65902(15) 0.36389(6)
C2 C 0.21619(7) 0.84286(16) 0.33256(5)
C3 C 0.20746(7) 0.64232(16) 0.41662(5)
C4 C 0.29915(7) 0.58241(15) 0.34149(6)
H1 H 0.3081 0.4808 0.3189
C5 C 0.24601(7) 0.69789(15) 0.29769(5)
H2 H 0.2783 0.7418 0.2676
C6 C 0.17391(7) 0.60362(16) 0.26376(6)
C7 C 0.43995(8) 0.65977(16) 0.32457(6)
H3 H 0.4281 0.6129 0.2858
C8 C 0.40027(8) 0.72912(17) 0.42194(6)
H4 H 0.3619 0.7295 0.4485
C9 C 0.16456(8) 0.93309(17) 0.42530(6)
H5 H 0.2046 0.9662 0.4588
H6 H 0.1180 0.8906 0.4410
H7 H 0.1492 1.0275 0.3995
C10 C 0.26786(8) 0.36731(16) 0.41535(6)
H8 H 0.3239 0.3515 0.4313
H9 H 0.2521 0.2890 0.3829
H10 H 0.2356 0.3503 0.4474
C11 C 0.51537(8) 0.72999(17) 0.34301(7)
H11 H 0.5538 0.7305 0.3165
C12 C 0.47624(8) 0.79871(18) 0.44041(6)
H12 H 0.4885 0.8448 0.4793
C13 C 0.53366(8) 0.79952(17) 0.40101(7)
H13 H 0.5842 0.8465 0.4134
C14 C 0.06749(9) 0.61074(19) 0.18137(7)
H14 H 0.0367 0.5453 0.2068
H15 H 0.0892 0.5363 0.1533
C15 C 0.01447(10) 0.7372(2) 0.14656(8)
H16 H -0.0286 0.6823 0.1206
H17 H 0.0455 0.8022 0.1219
H18 H -0.0078 0.8087 0.1747
loop_
_geom_bond_atom_site_label_1
_geom_bond_atom_site_label_2
_geom_bond_site_symmetry_1
_geom_bond_site_symmetry_2
O1 C3 1_555 1_555
O2 C6 1_555 1_555
O3 C2 1_555 1_555
O4 C6 1_555 1_555
N1 C2 1_555 1_555
N2 C3 1_555 1_555
C1 C4 1_555 1_555
C2 C5 1_555 1_555
C3 N1 1_555 1_555
C4 N2 1_555 1_555
H1 C4 1_555 1_555
C5 C4 1_555 1_555
H2 C5 1_555 1_555
C6 C5 1_555 1_555
C7 C1 1_555 1_555
H3 C7 1_555 1_555
C8 C1 1_555 1_555
H4 C8 1_555 1_555
C9 N1 1_555 1_555
H5 C9 1_555 1_555
H6 C9 1_555 1_555
H7 C9 1_555 1_555
C10 N2 1_555 1_555
H8 C10 1_555 1_555
H9 C10 1_555 1_555
H10 C10 1_555 1_555
C11 C7 1_555 1_555
H11 C11 1_555 1_555
C12 C8 1_555 1_555
H12 C12 1_555 1_555
C13 C11 1_555 1_555
H13 C13 1_555 1_555
C14 O4 1_555 1_555
H14 C14 1_555 1_555
H15 C14 1_555 1_555
C15 C14 1_555 1_555
H16 C15 1_555 1_555
H17 C15 1_555 1_555
H18 C15 1_555 1_555
C12 C13 1_555 1_555

#END
