
#######################################################################
#
#                 Cambridge Crystallographic Data Centre
#                                CCDC 
#
#######################################################################
#
# If this CIF has been generated from an entry in the Cambridge 
# Structural Database, then it will include bibliographic, chemical, 
# crystal, experimental, refinement or atomic coordinate data resulting 
# from the CCDC's data processing and validation procedures.
#
#######################################################################

data_AGOPOD
_chemical_formula_moiety         'C16 H16 O4'
_chemical_name_systematic        'Methyl 4-(benzyloxy)-3-methoxybenzoate'
_symmetry_cell_setting           monoclinic
_symmetry_space_group_name_H-M   'P 21/c'
_symmetry_Int_Tables_number      14
_space_group_name_Hall           '-P 2ybc'
loop_
_symmetry_equiv_pos_site_id
_symmetry_equiv_pos_as_xyz
1 x,y,z
2 -x,1/2+y,1/2-z
3 -x,-y,-z
4 x,1/2-y,1/2+z
_cell_length_a                   5.2466(7)
_cell_length_b                   17.973(2)
_cell_length_c                   14.8785(18)
_cell_angle_alpha                90
_cell_angle_beta                 94.018(3)
_cell_angle_gamma                90
_cell_volume                     1399.55
_exptl_crystal_colour            colorless
_exptl_crystal_description       block
_cell_formula_units_Z            4
loop_
_atom_site_label
_atom_site_type_symbol
_atom_site_fract_x
_atom_site_fract_y
_atom_site_fract_z
O1 O 0.8880(3) 0.30300(7) 0.59482(9)
O2 O 0.5720(3) 0.29367(7) 0.71794(9)
O3 O 0.3782(4) 0.61921(8) 0.64985(12)
O4 O 0.2344(3) 0.55257(8) 0.76146(10)
C1 C 1.3108(4) 0.18726(11) 0.53747(14)
H1 H 1.4248 0.2124 0.5774
C2 C 1.3529(5) 0.11390(13) 0.51813(17)
H2 H 1.4940 0.0896 0.5457
C3 C 1.1895(5) 0.07597(12) 0.45856(17)
H3 H 1.2194 0.0263 0.4453
C4 C 0.9838(5) 0.11185(14) 0.41926(18)
H4 H 0.8709 0.0866 0.3790
C5 C 0.9409(4) 0.18540(14) 0.43850(16)
H5 H 0.8002 0.2095 0.4104
C6 C 1.1025(4) 0.22385(11) 0.49856(13)
C7 C 1.0484(4) 0.30341(11) 0.52037(14)
H6 H 1.2064 0.3297 0.5366
H7 H 0.9622 0.3279 0.4687
C8 C 0.7756(3) 0.36807(10) 0.61691(12)
C9 C 0.6001(3) 0.36283(10) 0.68347(12)
C10 C 0.4714(3) 0.42556(10) 0.70828(12)
H8 H 0.3552 0.4222 0.7525
C11 C 0.5133(4) 0.49364(10) 0.66796(12)
C12 C 0.6864(4) 0.49822(11) 0.60332(15)
H9 H 0.7146 0.5438 0.5760
C13 C 0.8196(4) 0.43625(11) 0.57813(16)
H10 H 0.9389 0.4404 0.5350
C14 C 0.3712(4) 0.28318(11) 0.77630(14)
H11 H 0.3996 0.3146 0.8282
H12 H 0.3679 0.2321 0.7951
H13 H 0.2109 0.2958 0.7450
C15 C 0.3720(4) 0.56143(11) 0.69069(15)
C16 C 0.0836(5) 0.61549(13) 0.78568(19)
H14 H 0.1948 0.6546 0.8085
H15 H -0.0272 0.6009 0.8312
H16 H -0.0171 0.6329 0.7335
loop_
_geom_bond_atom_site_label_1
_geom_bond_atom_site_label_2
_geom_bond_site_symmetry_1
_geom_bond_site_symmetry_2
O1 C7 1_555 1_555
O2 C9 1_555 1_555
O3 C15 1_555 1_555
O4 C15 1_555 1_555
C1 H1 1_555 1_555
C2 C1 1_555 1_555
H2 C2 1_555 1_555
C3 C2 1_555 1_555
H3 C3 1_555 1_555
C4 C3 1_555 1_555
H4 C4 1_555 1_555
C5 C4 1_555 1_555
H5 C5 1_555 1_555
C6 C1 1_555 1_555
C7 C6 1_555 1_555
H6 C7 1_555 1_555
H7 C7 1_555 1_555
C8 O1 1_555 1_555
C9 C8 1_555 1_555
C10 C9 1_555 1_555
H8 C10 1_555 1_555
C11 C10 1_555 1_555
C12 C11 1_555 1_555
H9 C12 1_555 1_555
C13 C8 1_555 1_555
H10 C13 1_555 1_555
C14 O2 1_555 1_555
H11 C14 1_555 1_555
H12 C14 1_555 1_555
H13 C14 1_555 1_555
C15 C11 1_555 1_555
C16 O4 1_555 1_555
H14 C16 1_555 1_555
H15 C16 1_555 1_555
H16 C16 1_555 1_555
C5 C6 1_555 1_555
C12 C13 1_555 1_555

#END
