
#######################################################################
#
#                 Cambridge Crystallographic Data Centre
#                                CCDC 
#
#######################################################################
#
# If this CIF has been generated from an entry in the Cambridge 
# Structural Database, then it will include bibliographic, chemical, 
# crystal, experimental, refinement or atomic coordinate data resulting 
# from the CCDC's data processing and validation procedures.
#
#######################################################################

data_AGOSUK
_chemical_formula_moiety         'C18 H18 N6,2(H2 O1)'
_chemical_name_systematic        
'1,3,5-tris(imidazol-1-ylmethyl)benzene dihydrate'
_symmetry_cell_setting           monoclinic
_symmetry_space_group_name_H-M   'P 21/c'
_symmetry_Int_Tables_number      14
_space_group_name_Hall           '-P 2ybc'
loop_
_symmetry_equiv_pos_site_id
_symmetry_equiv_pos_as_xyz
1 x,y,z
2 x,1/2-y,1/2+z
3 -x,-y,-z
4 -x,1/2+y,1/2-z
_cell_length_a                   18.590(4)
_cell_length_b                   16.384(3)
_cell_length_c                   11.721(2)
_cell_angle_alpha                90.00
_cell_angle_beta                 102.20(3)
_cell_angle_gamma                90.00
_cell_volume                     3489.34
_exptl_crystal_colour            colorless
_cell_formula_units_Z            8
loop_
_atom_site_label
_atom_site_type_symbol
_atom_site_fract_x
_atom_site_fract_y
_atom_site_fract_z
N1 N 0.07674(9) 0.42519(9) 0.51614(12)
C1 C 0.17919(11) 0.36707(11) 0.33770(15)
H1 H 0.1336 0.3546 0.2909
N2 N 0.40245(9) 0.38376(10) 0.66781(12)
C2 C 0.18370(11) 0.42671(11) 0.42271(15)
C3 C 0.24091(11) 0.32558(11) 0.32069(14)
C4 C 0.31476(11) 0.40311(12) 0.47800(15)
N3 N 0.22197(10) 0.30215(9) 0.10910(12)
N4 N 0.44045(10) 0.29322(11) 0.80612(14)
C5 C 0.01195(12) 0.38719(13) 0.48240(18)
H2 H -0.0149 0.3869 0.4059
C6 C 0.30841(11) 0.34393(11) 0.39192(14)
H3 H 0.3502 0.3161 0.3818
C7 C 0.38938(11) 0.42362(13) 0.55289(15)
H4 H 0.4274 0.4069 0.5124
H5 H 0.3930 0.4823 0.5638
C8 C 0.23472(12) 0.26338(11) 0.22375(15)
H6 H 0.2797 0.2316 0.2353
H7 H 0.1945 0.2264 0.2268
C9 C 0.25225(12) 0.44442(11) 0.49157(15)
H8 H 0.2562 0.4850 0.5481
C10 C 0.04537(14) 0.36621(13) 0.66355(18)
H9 H 0.0462 0.3478 0.7389
N5 N -0.00953(10) 0.35040(11) 0.56865(16)
C11 C 0.15964(13) 0.30123(14) 0.02781(18)
H10 H 0.1179 0.2721 0.0352
C12 C 0.11582(11) 0.47063(12) 0.44040(17)
H11 H 0.1297 0.5237 0.4746
H12 H 0.0831 0.4792 0.3652
C13 C 0.41121(12) 0.35911(13) 0.85125(17)
H13 H 0.4080 0.3646 0.9290
C14 C 0.43407(12) 0.31114(13) 0.69506(17)
H14 H 0.4498 0.2771 0.6416
N6 N 0.16361(14) 0.34584(13) -0.06374(16)
C15 C 0.38776(12) 0.41487(13) 0.76801(16)
H15 H 0.3658 0.4648 0.7770
C16 C 0.09809(13) 0.41212(13) 0.63273(16)
H16 H 0.1408 0.4312 0.6817
C17 C 0.26947(15) 0.35103(14) 0.06748(19)
H17 H 0.3174 0.3641 0.1043
C18 C 0.23281(19) 0.37682(15) -0.0384(2)
H18 H 0.2524 0.4111 -0.0873
N7 N 0.07802(9) 0.56948(9) 0.00188(13)
C19 C 0.22453(13) 0.67852(11) 0.33658(15)
N8 N 0.23455(11) 0.68456(10) 0.55054(14)
C20 C 0.29809(11) 0.63085(11) 0.20349(16)
C21 C 0.17295(12) 0.58467(11) 0.18236(15)
C22 C 0.23864(13) 0.58431(11) 0.14661(16)
H19 H 0.2435 0.5523 0.0831
C23 C 0.16617(11) 0.63245(11) 0.27743(15)
H20 H 0.1217 0.6334 0.3017
N9 N 0.40823(9) 0.55222(10) 0.18574(15)
C24 C 0.28982(13) 0.67698(11) 0.29850(16)
H21 H 0.3293 0.7078 0.3379
N10 N 0.29695(13) 0.61968(10) 0.70454(15)
N11 N 0.04778(11) 0.58225(12) -0.18966(15)
C25 C 0.30104(12) 0.65897(12) 0.60822(17)
H22 H 0.3446 0.6679 0.5831
C26 C 0.21794(14) 0.73003(13) 0.44050(16)
H23 H 0.2514 0.7760 0.4458
H24 H 0.1683 0.7515 0.4288
C27 C 0.04667(13) 0.64419(13) -0.0215(2)
H25 H 0.0389 0.6830 0.0325
N12 N 0.46349(10) 0.43805(11) 0.15427(17)
C28 C 0.10892(12) 0.53495(14) 0.11732(16)
H26 H 0.1252 0.4795 0.1082
H27 H 0.0709 0.5329 0.1626
C29 C 0.07704(12) 0.53472(13) -0.10223(17)
H28 H 0.0951 0.4827 -0.1112
C30 C 0.43059(13) 0.50455(14) 0.1080(2)
H29 H 0.4236 0.5172 0.0291
C31 C 0.37043(13) 0.63051(12) 0.1640(2)
H30 H 0.3614 0.6425 0.0812
H31 H 0.4019 0.6731 0.2049
C32 C 0.02921(12) 0.65068(14) -0.1377(2)
H32 H 0.0072 0.6963 -0.1778
C33 C 0.18506(14) 0.65996(15) 0.6136(2)
H33 H 0.1345 0.6686 0.5956
C34 C 0.46206(13) 0.44486(15) 0.2703(2)
H34 H 0.4815 0.4066 0.3271
C35 C 0.22395(17) 0.62049(14) 0.7076(2)
H35 H 0.2039 0.5971 0.7662
C36 C 0.42885(13) 0.51417(15) 0.2908(2)
H36 H 0.4214 0.5326 0.3624
O1 O 0.53946(8) 0.20391(9) 0.98045(12)
O2 O 0.58169(9) 0.34602(10) 0.11064(13)
loop_
_geom_bond_atom_site_label_1
_geom_bond_atom_site_label_2
_geom_bond_site_symmetry_1
_geom_bond_site_symmetry_2
N1 C5 1_555 1_555
C1 H1 1_555 1_555
N2 C7 1_555 1_555
C2 C1 1_555 1_555
C3 C1 1_555 1_555
C4 C6 1_555 1_555
N3 C8 1_555 1_555
N4 C13 1_555 1_555
C5 H2 1_555 1_555
C6 C3 1_555 1_555
H3 C6 1_555 1_555
C7 C4 1_555 1_555
H4 C7 1_555 1_555
H5 C7 1_555 1_555
C8 C3 1_555 1_555
H6 C8 1_555 1_555
H7 C8 1_555 1_555
C9 C2 1_555 1_555
H8 C9 1_555 1_555
C10 H9 1_555 1_555
N5 C5 1_555 1_555
C11 N3 1_555 1_555
H10 C11 1_555 1_555
C12 N1 1_555 1_555
H11 C12 1_555 1_555
H12 C12 1_555 1_555
C13 H13 1_555 1_555
C14 N2 1_555 1_555
H14 C14 1_555 1_555
N6 C11 1_555 1_555
C15 N2 1_555 1_555
H15 C15 1_555 1_555
C16 N1 1_555 1_555
H16 C16 1_555 1_555
C17 N3 1_555 1_555
H17 C17 1_555 1_555
C18 N6 1_555 1_555
H18 C18 1_555 1_555
N7 C27 1_555 1_555
C19 C23 1_555 1_555
N8 C25 1_555 1_555
C20 C22 1_555 1_555
C21 C22 1_555 1_555
C22 H19 1_555 1_555
C23 C21 1_555 1_555
H20 C23 1_555 1_555
N9 C30 1_555 1_555
C24 C19 1_555 1_555
H21 C24 1_555 1_555
N10 C25 1_555 1_555
N11 C29 1_555 1_555
C25 H22 1_555 1_555
C26 C19 1_555 1_555
H23 C26 1_555 1_555
H24 C26 1_555 1_555
C27 H25 1_555 1_555
N12 C30 1_555 1_555
C28 N7 1_555 1_555
H26 C28 1_555 1_555
H27 C28 1_555 1_555
C29 N7 1_555 1_555
H28 C29 1_555 1_555
C30 H29 1_555 1_555
C31 C20 1_555 1_555
H30 C31 1_555 1_555
H31 C31 1_555 1_555
C32 N11 1_555 1_555
H32 C32 1_555 1_555
C33 N8 1_555 1_555
H33 C33 1_555 1_555
C34 N12 1_555 1_555
H34 C34 1_555 1_555
C35 N10 1_555 1_555
H35 C35 1_555 1_555
C36 N9 1_555 1_555
H36 C36 1_555 1_555
C2 C12 1_555 1_555
C4 C9 1_555 1_555
N4 C14 1_555 1_555
C10 N5 1_555 1_555
C10 C16 1_555 1_555
C13 C15 1_555 1_555
C17 C18 1_555 1_555
N8 C26 1_555 1_555
C20 C24 1_555 1_555
C21 C28 1_555 1_555
N9 C31 1_555 1_555
C27 C32 1_555 1_555
C33 C35 1_555 1_555
C34 C36 1_555 1_555

#END
