
#######################################################################
#
#                 Cambridge Crystallographic Data Centre
#                                CCDC 
#
#######################################################################
#
# If this CIF has been generated from an entry in the Cambridge 
# Structural Database, then it will include bibliographic, chemical, 
# crystal, experimental, refinement or atomic coordinate data resulting 
# from the CCDC's data processing and validation procedures.
#
#######################################################################

data_AGOSUN
_chemical_formula_moiety         'C29 H42 N3 O1 1+,F6 P1 1-'
_chemical_name_systematic        
'1,3-bis(2,6-di-isopropylphenyl)-5-ethoxy-4-methyl-1,2,3-triazolium hexafluorophosphate'
_symmetry_cell_setting           orthorhombic
_symmetry_space_group_name_H-M   'P b c a'
_symmetry_Int_Tables_number      61
_space_group_name_Hall           '-P 2ac 2ab'
loop_
_symmetry_equiv_pos_site_id
_symmetry_equiv_pos_as_xyz
1 x,y,z
2 1/2-x,-y,1/2+z
3 -x,1/2+y,1/2-z
4 1/2+x,1/2-y,-z
5 -x,-y,-z
6 1/2+x,y,1/2-z
7 x,1/2-y,1/2+z
8 1/2-x,1/2+y,z
_cell_length_a                   19.005(4)
_cell_length_b                   15.740(3)
_cell_length_c                   20.670(4)
_cell_angle_alpha                90
_cell_angle_beta                 90
_cell_angle_gamma                90
_cell_volume                     6183.2
_exptl_crystal_colour            colorless
_exptl_crystal_description       Block
_cell_formula_units_Z            8
loop_
_atom_site_label
_atom_site_type_symbol
_atom_site_fract_x
_atom_site_fract_y
_atom_site_fract_z
P1 P 0.82744(4) 0.48154(4) 0.40974(4)
F1 F 0.83191(13) 0.53394(16) 0.47484(12)
F2 F 0.75006(10) 0.45003(15) 0.42732(11)
F3 F 0.79383(18) 0.56200(15) 0.37584(18)
F4 F 0.82063(12) 0.43068(14) 0.34365(10)
F5 F 0.85829(13) 0.39995(14) 0.44256(13)
F6 F 0.90280(12) 0.51297(14) 0.38962(13)
O1 O 0.67387(9) 0.71693(11) 0.35235(8)
N1 N 0.58183(9) 0.66516(11) 0.41227(8)
C1 C 0.64755(11) 0.69875(13) 0.40952(10)
N2 N 0.56131(9) 0.64831(11) 0.47286(8)
C2 C 0.67075(11) 0.70452(14) 0.47294(11)
N3 N 0.61583(9) 0.67247(11) 0.50775(9)
C3 C 0.73639(13) 0.73548(18) 0.50394(13)
H1 H 0.774709 0.695455 0.495144
H2 H 0.729216 0.740008 0.550765
H3 H 0.748558 0.791414 0.486378
C4 C 0.61208(12) 0.66645(16) 0.57780(11)
C5 C 0.76843(16) 0.7509(3) 0.28166(16)
H4 H 0.763430 0.694718 0.261823
H5 H 0.817616 0.769274 0.278823
H6 H 0.738425 0.791725 0.258811
C6 C 0.74691(13) 0.74656(17) 0.35080(13)
H7 H 0.777656 0.706647 0.374704
H8 H 0.750672 0.803311 0.371159
C7 C 0.64335(12) 0.59605(17) 0.60741(12)
C8 C 0.64125(15) 0.5948(2) 0.67472(13)
H9 H 0.661357 0.548346 0.697457
C9 C 0.61023(16) 0.6606(2) 0.70899(13)
H10 H 0.610080 0.658737 0.754932
C10 C 0.57965(14) 0.73327(18) 0.61061(12)
C11 C 0.57974(16) 0.7282(2) 0.67798(13)
H11 H 0.558416 0.772123 0.702667
C12 C 0.54397(16) 0.80686(18) 0.57620(14)
H12 H 0.557314 0.803758 0.529459
C13 C 0.46430(18) 0.7967(2) 0.58041(19)
H13 H 0.441449 0.843071 0.556773
H14 H 0.449695 0.798280 0.625862
H15 H 0.450572 0.742171 0.561301
C14 C 0.56727(19) 0.8936(2) 0.60158(17)
H16 H 0.618730 0.897272 0.600383
H17 H 0.550924 0.900696 0.646218
H18 H 0.547100 0.938435 0.574413
C15 C 0.67445(13) 0.52394(17) 0.56800(13)
H19 H 0.694492 0.548999 0.527543
C16 C 0.73394(19) 0.4771(2) 0.60287(18)
H20 H 0.754750 0.435012 0.573628
H21 H 0.715104 0.448314 0.641177
H22 H 0.770080 0.517953 0.616132
C17 C 0.61655(17) 0.46192(19) 0.54819(15)
H23 H 0.579553 0.492643 0.524881
H24 H 0.596521 0.435379 0.586925
H25 H 0.636415 0.417920 0.520052
C18 C 0.53433(11) 0.64657(14) 0.35917(10)
C19 C 0.54622(12) 0.57225(15) 0.32391(11)
C20 C 0.49801(13) 0.55417(16) 0.27488(11)
H26 H 0.503813 0.504219 0.249642
C21 C 0.44199(14) 0.60768(17) 0.26242(12)
H27 H 0.409378 0.593901 0.229210
C22 C 0.43326(13) 0.68101(17) 0.29803(12)
H28 H 0.394914 0.717577 0.288347
C23 C 0.47910(12) 0.70283(15) 0.34772(11)
C24 C 0.46767(14) 0.78382(17) 0.38653(12)
H29 H 0.502034 0.783807 0.423166
C25 C 0.4809(2) 0.8622(2) 0.34661(19)
H30 H 0.530476 0.863798 0.333519
H31 H 0.469944 0.912798 0.372306
H32 H 0.451006 0.860986 0.308007
C26 C 0.3949(2) 0.7885(3) 0.4148(2)
H33 H 0.360171 0.789594 0.379806
H34 H 0.390510 0.840343 0.440820
H35 H 0.386657 0.738794 0.442295
C27 C 0.60710(13) 0.51232(16) 0.33693(13)
H36 H 0.635971 0.536996 0.372749
C28 C 0.58012(17) 0.42541(18) 0.35919(16)
H37 H 0.552201 0.399512 0.324548
H38 H 0.550733 0.432509 0.397767
H39 H 0.620173 0.388597 0.369486
C29 C 0.65422(16) 0.5041(2) 0.27727(15)
H40 H 0.627407 0.478478 0.241802
H41 H 0.694765 0.468141 0.287593
H42 H 0.670690 0.560592 0.264180
loop_
_geom_bond_atom_site_label_1
_geom_bond_atom_site_label_2
_geom_bond_site_symmetry_1
_geom_bond_site_symmetry_2
P1 F1 1_555 1_555
F2 P1 1_555 1_555
F3 P1 1_555 1_555
F4 P1 1_555 1_555
F5 P1 1_555 1_555
F6 P1 1_555 1_555
O1 C1 1_555 1_555
N1 C1 1_555 1_555
C1 C2 1_555 1_555
N2 N1 1_555 1_555
C2 N3 1_555 1_555
N3 N2 1_555 1_555
C3 C2 1_555 1_555
H1 C3 1_555 1_555
H2 C3 1_555 1_555
H3 C3 1_555 1_555
C4 N3 1_555 1_555
C5 H4 1_555 1_555
H5 C5 1_555 1_555
H6 C5 1_555 1_555
C6 O1 1_555 1_555
H7 C6 1_555 1_555
H8 C6 1_555 1_555
C7 C4 1_555 1_555
C8 C7 1_555 1_555
H9 C8 1_555 1_555
C9 C8 1_555 1_555
H10 C9 1_555 1_555
C10 C4 1_555 1_555
C11 C9 1_555 1_555
H11 C11 1_555 1_555
C12 C10 1_555 1_555
H12 C12 1_555 1_555
C13 C12 1_555 1_555
H13 C13 1_555 1_555
H14 C13 1_555 1_555
H15 C13 1_555 1_555
C14 C12 1_555 1_555
H16 C14 1_555 1_555
H17 C14 1_555 1_555
H18 C14 1_555 1_555
C15 C7 1_555 1_555
H19 C15 1_555 1_555
C16 C15 1_555 1_555
H20 C16 1_555 1_555
H21 C16 1_555 1_555
H22 C16 1_555 1_555
C17 C15 1_555 1_555
H23 C17 1_555 1_555
H24 C17 1_555 1_555
H25 C17 1_555 1_555
C18 N1 1_555 1_555
C19 C18 1_555 1_555
C20 C19 1_555 1_555
H26 C20 1_555 1_555
C21 C20 1_555 1_555
H27 C21 1_555 1_555
C22 C21 1_555 1_555
H28 C22 1_555 1_555
C23 C18 1_555 1_555
C24 C23 1_555 1_555
H29 C24 1_555 1_555
C25 C24 1_555 1_555
H30 C25 1_555 1_555
H31 C25 1_555 1_555
H32 C25 1_555 1_555
C26 C24 1_555 1_555
H33 C26 1_555 1_555
H34 C26 1_555 1_555
H35 C26 1_555 1_555
C27 C19 1_555 1_555
H36 C27 1_555 1_555
C28 C27 1_555 1_555
H37 C28 1_555 1_555
H38 C28 1_555 1_555
H39 C28 1_555 1_555
C29 C27 1_555 1_555
H40 C29 1_555 1_555
H41 C29 1_555 1_555
H42 C29 1_555 1_555
C5 C6 1_555 1_555
C10 C11 1_555 1_555
C22 C23 1_555 1_555

#END
