
#######################################################################
#
#                 Cambridge Crystallographic Data Centre
#                                CCDC 
#
#######################################################################
#
# If this CIF has been generated from an entry in the Cambridge 
# Structural Database, then it will include bibliographic, chemical, 
# crystal, experimental, refinement or atomic coordinate data resulting 
# from the CCDC's data processing and validation procedures.
#
#######################################################################

data_AGOTUO
_chemical_formula_moiety         'C78 H70 B2 F16 N2,3(C1 H1 Cl3)'
_chemical_name_systematic        
'2,5-bis((isoquinolin-2-ium-2-yl)bis(2,3,5,6-tetrafluorophenyl)boranidyl)-1,4-bis(3,5-di-t-butylphenyl)octahydropentalene chloroform unknown solvate'
_symmetry_cell_setting           monoclinic
_symmetry_space_group_name_H-M   'P 21/c'
_symmetry_Int_Tables_number      14
_space_group_name_Hall           '-P 2ybc'
loop_
_symmetry_equiv_pos_site_id
_symmetry_equiv_pos_as_xyz
1 x,y,z
2 -x,1/2+y,1/2-z
3 -x,-y,-z
4 x,1/2-y,1/2+z
_cell_length_a                   13.6111(7)
_cell_length_b                   45.836(2)
_cell_length_c                   15.4927(8)
_cell_angle_alpha                90
_cell_angle_beta                 115.023(7)
_cell_angle_gamma                90
_cell_volume                     8758.33
_exptl_crystal_colour            colorless
_exptl_crystal_description       block
_cell_formula_units_Z            4
loop_
_atom_site_label
_atom_site_type_symbol
_atom_site_fract_x
_atom_site_fract_y
_atom_site_fract_z
Cl1 Cl -0.4347(4) 0.16210(10) -1.0232(3)
Cl2 Cl -0.3248(3) 0.20543(14) -1.0815(3)
Cl3 Cl -0.4645(2) 0.22241(7) -0.9967(2)
C1 C -0.4425(10) 0.1970(3) -1.0688(8)
H1 H -0.5037 0.1977 -1.1318
Cl4 Cl 0.1207(2) 0.22200(6) 0.08943(17)
Cl5 Cl 0.2559(3) 0.21693(8) -0.0105(2)
Cl6 Cl 0.0263(2) 0.20527(6) -0.10879(18)
C2 C 0.1393(7) 0.2030(2) -0.0015(6)
H2 H 0.1522 0.1824 0.0168
Cl7 Cl 0.8129(2) 0.08663(8) -0.2998(2)
Cl8 Cl 0.8778(3) 0.05946(8) -0.4361(3)
Cl9 Cl 0.6535(2) 0.07243(10) -0.4914(3)
C3 C 0.7870(8) 0.0829(2) -0.4232(8)
H3 H 0.7974 0.1022 -0.4459
F1 F 0.3979(4) 0.00370(11) -0.0740(4)
F2 F 0.3200(5) -0.04801(12) -0.1339(5)
F3 F -0.0352(4) -0.00995(12) -0.2631(4)
F4 F 0.0406(3) 0.04171(11) -0.2039(4)
F5 F 0.4745(3) 0.09295(10) 0.0444(3)
F6 F 0.6530(3) 0.10324(12) 0.0244(3)
F7 F 0.5140(4) 0.05209(13) -0.2669(4)
F8 F 0.3370(3) 0.04001(10) -0.2464(3)
F9 F 0.1542(3) 0.13612(10) -0.5532(3)
F10 F 0.2618(5) 0.09220(12) -0.5795(5)
F11 F 0.5633(4) 0.11482(13) -0.2928(4)
F12 F 0.4575(3) 0.15852(11) -0.2636(3)
F13 F 0.4288(3) 0.19819(10) -0.4101(3)
F14 F 0.5581(3) 0.24073(12) -0.3221(4)
F15 F 0.3327(4) 0.26529(11) -0.1707(4)
F16 F 0.2013(3) 0.22291(10) -0.2588(3)
N1 N 0.3036(4) 0.05435(14) 0.0208(4)
N2 N 0.1478(4) 0.19111(13) -0.4879(4)
C4 C 0.2195(6) 0.05989(19) 0.0471(6)
H4 H 0.1545 0.0672 0.0016
C5 C 0.2288(8) 0.05509(19) 0.1362(6)
H5 H 0.1718 0.0598 0.1519
C6 C 0.3224(7) 0.0433(2) 0.2036(6)
C7 C 0.3389(10) 0.0370(3) 0.3007(7)
H6 H 0.2845 0.0406 0.3206
C8 C 0.4314(12) 0.0261(3) 0.3590(9)
H7 H 0.4401 0.0223 0.4208
C9 C 0.5188(10) 0.0196(3) 0.3379(7)
H8 H 0.5834 0.0120 0.3832
C10 C 0.5035(8) 0.0252(3) 0.2447(7)
H9 H 0.5582 0.0208 0.2259
C11 C 0.4086(6) 0.03697(19) 0.1811(6)
C12 C 0.3916(6) 0.04278(19) 0.0836(5)
H10 H 0.4465 0.0380 0.0654
C13 C 0.2250(6) 0.02680(17) -0.1361(5)
C14 C 0.1159(5) 0.02099(18) -0.1850(5)
C15 C 0.0738(6) -0.0066(2) -0.2165(6)
C16 C 0.1400(7) -0.0303(2) -0.2004(6)
H11 H 0.1120 -0.0488 -0.2213
C17 C 0.2498(6) -0.02562(18) -0.1522(6)
C18 C 0.2894(6) 0.00204(18) -0.1211(5)
C19 C 0.3959(5) 0.06523(16) -0.0995(5)
C20 C 0.4798(5) 0.08202(17) -0.0354(5)
C21 C 0.5745(5) 0.08738(19) -0.0446(6)
C22 C 0.5898(7) 0.0782(2) -0.1216(7)
H12 H 0.6527 0.0824 -0.1289
C23 C 0.5049(6) 0.06204(19) -0.1886(6)
C24 C 0.4132(5) 0.05623(17) -0.1752(5)
C25 C 0.2009(5) 0.08669(15) -0.1394(4)
H13 H 0.1333 0.0825 -0.1337
C26 C 0.2341(5) 0.11790(15) -0.0997(4)
H14 H 0.3125 0.1200 -0.0788
C27 C 0.1753(5) 0.13894(15) -0.1854(4)
H15 H 0.1284 0.1525 -0.1714
C28 C 0.2483(5) 0.15551(16) -0.2224(4)
H16 H 0.3061 0.1431 -0.2222
H17 H 0.2797 0.1727 -0.1841
C29 C 0.1693(5) 0.16394(16) -0.3248(4)
H18 H 0.1218 0.1793 -0.3199
C30 C 0.0981(5) 0.13580(16) -0.3624(4)
H19 H 0.1301 0.1236 -0.3959
C31 C 0.1077(5) 0.11931(15) -0.2707(4)
H20 H 0.0353 0.1164 -0.2729
C32 C 0.1690(5) 0.09068(15) -0.2472(4)
H21 H 0.2328 0.0917 -0.2600
H22 H 0.1233 0.0748 -0.2837
C33 C 0.2078(5) 0.12522(14) -0.0165(4)
C34 C 0.2868(5) 0.13155(15) 0.0732(4)
H23 H 0.3590 0.1315 0.0828
C35 C 0.2623(5) 0.13808(16) 0.1500(5)
C36 C 0.1538(5) 0.13720(17) 0.1349(5)
H24 H 0.1364 0.1408 0.1858
C37 C 0.0699(5) 0.13104(16) 0.0452(5)
C38 C 0.0994(5) 0.12525(16) -0.0291(5)
H25 H 0.0452 0.1213 -0.0892
C39 C 0.3546(5) 0.14484(17) 0.2475(5)
C40 C 0.4334(7) 0.1664(2) 0.2364(6)
H26 H 0.4891 0.1712 0.2980
H27 H 0.3951 0.1838 0.2061
H28 H 0.4657 0.1578 0.1981
C41 C 0.3138(6) 0.1580(2) 0.3174(5)
H29 H 0.2665 0.1443 0.3279
H30 H 0.2749 0.1757 0.2912
H31 H 0.3744 0.1622 0.3768
C42 C 0.4131(6) 0.1166(2) 0.2913(5)
H32 H 0.3641 0.1036 0.3021
H33 H 0.4737 0.1207 0.3507
H34 H 0.4385 0.1075 0.2485
C43 C -0.0474(6) 0.12888(19) 0.0337(5)
C44 C -0.0572(7) 0.1004(2) 0.0822(7)
H35 H -0.0358 0.0842 0.0548
H36 H -0.1310 0.0978 0.0730
H37 H -0.0110 0.1014 0.1492
C45 C -0.0744(7) 0.1544(2) 0.0812(7)
H38 H -0.0272 0.1543 0.1480
H39 H -0.1483 0.1529 0.0726
H40 H -0.0647 0.1723 0.0533
C46 C -0.1291(6) 0.1280(3) -0.0710(6)
H41 H -0.1209 0.1452 -0.1028
H42 H -0.2013 0.1273 -0.0749
H43 H -0.1162 0.1110 -0.1009
C47 C -0.0191(5) 0.14198(16) -0.4290(4)
C48 C -0.0625(5) 0.13247(16) -0.5233(4)
H44 H -0.0179 0.1226 -0.5453
C49 C -0.1688(5) 0.13721(17) -0.5847(4)
C50 C -0.2341(5) 0.15210(17) -0.5513(5)
H45 H -0.3057 0.1559 -0.5930
C51 C -0.1960(5) 0.16172(16) -0.4564(5)
C52 C -0.0873(5) 0.15646(16) -0.3965(4)
H46 H -0.0596 0.1627 -0.3335
C53 C -0.2153(6) 0.1267(2) -0.6887(5)
C54 C -0.1332(8) 0.1110(3) -0.7140(7)
H47 H -0.0779 0.1245 -0.7112
H48 H -0.1687 0.1032 -0.7773
H49 H -0.1008 0.0954 -0.6697
C55 C -0.2645(11) 0.1516(3) -0.7557(8)
H50 H -0.3262 0.1589 -0.7477
H51 H -0.2869 0.1451 -0.8201
H52 H -0.2118 0.1669 -0.7424
C56 C -0.3078(9) 0.1051(3) -0.7063(8)
H53 H -0.2795 0.0880 -0.6680
H54 H -0.3407 0.0997 -0.7724
H55 H -0.3611 0.1141 -0.6896
C57 C -0.2736(5) 0.17697(18) -0.4225(5)
C58 C -0.3689(6) 0.1562(2) -0.4380(7)
H56 H -0.4038 0.1507 -0.5038
H57 H -0.4201 0.1660 -0.4204
H58 H -0.3421 0.1391 -0.3993
C59 C -0.3209(7) 0.2044(2) -0.4808(6)
H59 H -0.2631 0.2173 -0.4756
H60 H -0.3672 0.2140 -0.4571
H61 H -0.3622 0.1992 -0.5464
C60 C -0.2194(6) 0.1849(2) -0.3170(5)
H62 H -0.1907 0.1676 -0.2800
H63 H -0.2719 0.1936 -0.2987
H64 H -0.1616 0.1985 -0.3060
C61 C 0.1831(6) 0.19625(18) -0.5582(5)
H65 H 0.2539 0.1915 -0.5469
C62 C 0.1163(6) 0.20817(19) -0.6437(5)
H66 H 0.1427 0.2114 -0.6894
C63 C 0.0088(6) 0.21569(18) -0.6644(5)
C64 C -0.0654(6) 0.22678(19) -0.7522(6)
H67 H -0.0453 0.2291 -0.8022
C65 C -0.1673(7) 0.2341(2) -0.7636(7)
H68 H -0.2170 0.2411 -0.8221
C66 C -0.1983(6) 0.2313(2) -0.6889(8)
H69 H -0.2673 0.2372 -0.6978
C67 C -0.1298(6) 0.2201(2) -0.6036(6)
H70 H -0.1518 0.2179 -0.5547
C68 C -0.0250(5) 0.21170(17) -0.5905(5)
C69 C 0.0489(5) 0.19932(16) -0.5041(5)
H71 H 0.0263 0.1968 -0.4557
C70 C 0.3116(5) 0.20606(16) -0.3341(5)
C71 C 0.4017(6) 0.21322(17) -0.3492(5)
C72 C 0.4698(6) 0.23599(19) -0.3041(6)
C73 C 0.4506(6) 0.25412(18) -0.2420(6)
H72 H 0.4967 0.2695 -0.2111
C74 C 0.3595(6) 0.24816(18) -0.2287(6)
C75 C 0.2918(5) 0.22533(17) -0.2750(5)
C76 C 0.2999(6) 0.15069(16) -0.4076(5)
C77 C 0.4042(6) 0.1425(2) -0.3438(6)
C78 C 0.4621(7) 0.1197(2) -0.3568(8)
C79 C 0.4154(9) 0.1019(2) -0.4365(8)
H73 H 0.4521 0.0860 -0.4461
C80 C 0.3118(7) 0.1090(2) -0.5002(7)
C81 C 0.2568(6) 0.13183(17) -0.4856(5)
B1 B 0.2795(5) 0.05930(19) -0.0924(5)
B2 B 0.2327(6) 0.17754(18) -0.3860(5)
loop_
_geom_bond_atom_site_label_1
_geom_bond_atom_site_label_2
_geom_bond_site_symmetry_1
_geom_bond_site_symmetry_2
Cl1 C1 1_555 1_555
Cl2 C1 1_555 1_555
Cl3 C1 1_555 1_555
C1 H1 1_555 1_555
Cl4 C2 1_555 1_555
Cl5 C2 1_555 1_555
Cl6 C2 1_555 1_555
C2 H2 1_555 1_555
Cl7 C3 1_555 1_555
Cl8 C3 1_555 1_555
Cl9 C3 1_555 1_555
C3 H3 1_555 1_555
F1 C18 1_555 1_555
F2 C17 1_555 1_555
F3 C15 1_555 1_555
F4 C14 1_555 1_555
F5 C20 1_555 1_555
F6 C21 1_555 1_555
F7 C23 1_555 1_555
F8 C24 1_555 1_555
F9 C81 1_555 1_555
F10 C80 1_555 1_555
F11 C78 1_555 1_555
F12 C77 1_555 1_555
F13 C71 1_555 1_555
F14 C72 1_555 1_555
F15 C74 1_555 1_555
F16 C75 1_555 1_555
N1 C4 1_555 1_555
N2 C61 1_555 1_555
C4 H4 1_555 1_555
C5 C4 1_555 1_555
H5 C5 1_555 1_555
C6 C5 1_555 1_555
C7 C6 1_555 1_555
H6 C7 1_555 1_555
C8 C7 1_555 1_555
H7 C8 1_555 1_555
C9 C8 1_555 1_555
H8 C9 1_555 1_555
C10 C9 1_555 1_555
H9 C10 1_555 1_555
C11 C6 1_555 1_555
C12 N1 1_555 1_555
H10 C12 1_555 1_555
C13 C14 1_555 1_555
C14 C15 1_555 1_555
C15 C16 1_555 1_555
C16 H11 1_555 1_555
C17 C16 1_555 1_555
C18 C13 1_555 1_555
C19 C20 1_555 1_555
C20 C21 1_555 1_555
C21 C22 1_555 1_555
C22 H12 1_555 1_555
C23 C22 1_555 1_555
C24 C19 1_555 1_555
C25 H13 1_555 1_555
C26 C25 1_555 1_555
H14 C26 1_555 1_555
C27 C26 1_555 1_555
H15 C27 1_555 1_555
C28 C27 1_555 1_555
H16 C28 1_555 1_555
H17 C28 1_555 1_555
C29 C28 1_555 1_555
H18 C29 1_555 1_555
C30 C29 1_555 1_555
H19 C30 1_555 1_555
C31 C27 1_555 1_555
H20 C31 1_555 1_555
C32 C25 1_555 1_555
H21 C32 1_555 1_555
H22 C32 1_555 1_555
C33 C26 1_555 1_555
C34 C33 1_555 1_555
H23 C34 1_555 1_555
C35 C34 1_555 1_555
C36 C35 1_555 1_555
H24 C36 1_555 1_555
C37 C36 1_555 1_555
C38 C33 1_555 1_555
H25 C38 1_555 1_555
C39 C35 1_555 1_555
C40 C39 1_555 1_555
H26 C40 1_555 1_555
H27 C40 1_555 1_555
H28 C40 1_555 1_555
C41 C39 1_555 1_555
H29 C41 1_555 1_555
H30 C41 1_555 1_555
H31 C41 1_555 1_555
C42 C39 1_555 1_555
H32 C42 1_555 1_555
H33 C42 1_555 1_555
H34 C42 1_555 1_555
C43 C37 1_555 1_555
C44 C43 1_555 1_555
H35 C44 1_555 1_555
H36 C44 1_555 1_555
H37 C44 1_555 1_555
C45 C43 1_555 1_555
H38 C45 1_555 1_555
H39 C45 1_555 1_555
H40 C45 1_555 1_555
C46 C43 1_555 1_555
H41 C46 1_555 1_555
H42 C46 1_555 1_555
H43 C46 1_555 1_555
C47 C30 1_555 1_555
C48 C47 1_555 1_555
H44 C48 1_555 1_555
C49 C48 1_555 1_555
C50 C49 1_555 1_555
H45 C50 1_555 1_555
C51 C50 1_555 1_555
C52 C47 1_555 1_555
H46 C52 1_555 1_555
C53 C49 1_555 1_555
C54 C53 1_555 1_555
H47 C54 1_555 1_555
H48 C54 1_555 1_555
H49 C54 1_555 1_555
C55 C53 1_555 1_555
H50 C55 1_555 1_555
H51 C55 1_555 1_555
H52 C55 1_555 1_555
C56 C53 1_555 1_555
H53 C56 1_555 1_555
H54 C56 1_555 1_555
H55 C56 1_555 1_555
C57 C51 1_555 1_555
C58 C57 1_555 1_555
H56 C58 1_555 1_555
H57 C58 1_555 1_555
H58 C58 1_555 1_555
C59 C57 1_555 1_555
H59 C59 1_555 1_555
H60 C59 1_555 1_555
H61 C59 1_555 1_555
C60 C57 1_555 1_555
H62 C60 1_555 1_555
H63 C60 1_555 1_555
H64 C60 1_555 1_555
C61 H65 1_555 1_555
C62 C61 1_555 1_555
H66 C62 1_555 1_555
C63 C62 1_555 1_555
C64 C63 1_555 1_555
H67 C64 1_555 1_555
C65 C64 1_555 1_555
H68 C65 1_555 1_555
C66 C65 1_555 1_555
H69 C66 1_555 1_555
C67 C66 1_555 1_555
H70 C67 1_555 1_555
C68 C63 1_555 1_555
C69 N2 1_555 1_555
H71 C69 1_555 1_555
C70 C71 1_555 1_555
C71 C72 1_555 1_555
C72 C73 1_555 1_555
C73 H72 1_555 1_555
C74 C73 1_555 1_555
C75 C70 1_555 1_555
C76 C77 1_555 1_555
C77 C78 1_555 1_555
C78 C79 1_555 1_555
C79 H73 1_555 1_555
C80 C79 1_555 1_555
C81 C76 1_555 1_555
B1 N1 1_555 1_555
B2 N2 1_555 1_555
C10 C11 1_555 1_555
C11 C12 1_555 1_555
C13 B1 1_555 1_555
C17 C18 1_555 1_555
C19 B1 1_555 1_555
C23 C24 1_555 1_555
C25 B1 1_555 1_555
C29 B2 1_555 1_555
C30 C31 1_555 1_555
C31 C32 1_555 1_555
C37 C38 1_555 1_555
C51 C52 1_555 1_555
C67 C68 1_555 1_555
C68 C69 1_555 1_555
C70 B2 1_555 1_555
C74 C75 1_555 1_555
C76 B2 1_555 1_555
C80 C81 1_555 1_555

#END
