
#######################################################################
#
#                 Cambridge Crystallographic Data Centre
#                                CCDC 
#
#######################################################################
#
# If this CIF has been generated from an entry in the Cambridge 
# Structural Database, then it will include bibliographic, chemical, 
# crystal, experimental, refinement or atomic coordinate data resulting 
# from the CCDC's data processing and validation procedures.
#
#######################################################################

data_AGOTOI
_chemical_formula_moiety         'C78 H66 B2 F20 N2'
_chemical_name_systematic        
'2,5-bis((isoquinolin-2-ium-2-yl)bis(pentafluorophenyl)boranidyl)-1,4-bis(3,5-di-t-butylphenyl)octahydropentalene unknown solvate'
_symmetry_cell_setting           triclinic
_symmetry_space_group_name_H-M   'P -1'
_symmetry_Int_Tables_number      2
_space_group_name_Hall           '-P 1'
loop_
_symmetry_equiv_pos_site_id
_symmetry_equiv_pos_as_xyz
1 x,y,z
2 -x,-y,-z
_cell_length_a                   13.8439(2)
_cell_length_b                   15.6017(3)
_cell_length_c                   22.8464(4)
_cell_angle_alpha                82.1629(15)
_cell_angle_beta                 83.8500(14)
_cell_angle_gamma                64.8680(17)
_cell_volume                     4419.01
_exptl_crystal_colour            colorless
_exptl_crystal_description       block
_cell_formula_units_Z            2
_chemical_properties_physical    Moisture-sensitive,Hygroscopic,Heat-sensitive
loop_
_atom_site_label
_atom_site_type_symbol
_atom_site_fract_x
_atom_site_fract_y
_atom_site_fract_z
F1 F 0.06616(8) 0.68956(8) 0.41318(5)
F2 F -0.02790(10) 0.75780(10) 0.51221(6)
F3 F 0.08734(14) 0.74184(12) 0.60588(6)
F4 F 0.30626(12) 0.65904(10) 0.59348(5)
F5 F 0.40403(9) 0.59229(7) 0.49398(4)
F6 F 0.36685(8) 0.74635(6) 0.40991(4)
F7 F 0.55429(9) 0.75239(7) 0.38749(5)
F8 F 0.71604(8) 0.61651(9) 0.32719(6)
F9 F 0.68395(8) 0.46962(8) 0.29478(5)
F10 F 0.50082(7) 0.45515(6) 0.32267(4)
F11 F 0.20427(7) 1.06001(6) 0.23679(4)
F12 F 0.30242(10) 1.06507(8) 0.32811(5)
F13 F 0.50975(11) 0.94356(8) 0.34439(5)
F14 F 0.61337(8) 0.80701(8) 0.26799(5)
F15 F 0.51490(7) 0.79356(6) 0.17981(4)
F16 F 0.47982(7) 0.96361(7) 0.10380(4)
F17 F 0.61507(8) 0.90112(8) 0.01297(4)
F18 F 0.58815(9) 0.78958(10) -0.05979(5)
F19 F 0.41931(9) 0.74049(9) -0.03685(5)
F20 F 0.28334(8) 0.80044(8) 0.05296(4)
N1 N 0.32450(11) 0.48340(9) 0.39889(5)
N2 N 0.21150(10) 1.02598(9) 0.11923(5)
C1 C 0.27937(11) 0.61346(10) 0.26196(6)
H1 H 0.3570 0.5926 0.2598
C2 C 0.22940(11) 0.70474(10) 0.21868(6)
H2 H 0.1912 0.6937 0.1888
C3 C 0.30471(11) 0.74841(10) 0.18879(6)
H3 H 0.3441 0.7158 0.1548
H4 H 0.3550 0.7457 0.2162
C4 C 0.22881(11) 0.85224(10) 0.16974(6)
H5 H 0.1902 0.8509 0.1366
C5 C 0.14585(11) 0.88032(10) 0.22398(6)
H6 H 0.1707 0.9100 0.2506
C6 C 0.15104(11) 0.78384(10) 0.25589(6)
H7 H 0.0801 0.7834 0.2592
C7 C 0.20064(12) 0.75371(10) 0.31599(6)
H8 H 0.1492 0.7855 0.3469
H9 H 0.2623 0.7681 0.3156
C8 C 0.23349(11) 0.64558(10) 0.32529(6)
H10 H 0.1674 0.6363 0.3332
C9 C 0.25939(14) 0.45018(11) 0.38285(7)
H11 H 0.2048 0.4899 0.3584
C10 C 0.26872(15) 0.35684(12) 0.40111(8)
C11 C 0.19873(17) 0.32355(14) 0.38213(9)
H12 H 0.1452 0.3629 0.3570
C12 C 0.2099(2) 0.23286(16) 0.40088(11)
H13 H 0.1640 0.2104 0.3883
C13 C 0.2901(2) 0.17380(16) 0.43895(11)
H14 H 0.2967 0.1124 0.4513
C14 C 0.3587(2) 0.20401(15) 0.45829(10)
H15 H 0.4109 0.1637 0.4839
C15 C 0.35037(18) 0.29722(12) 0.43932(8)
C16 C 0.41785(18) 0.33464(13) 0.45589(8)
H16 H 0.4725 0.2974 0.4809
C17 C 0.40449(15) 0.42483(12) 0.43585(8)
H17 H 0.4507 0.4478 0.4474
C18 C 0.24258(13) 0.63987(11) 0.44550(7)
C19 C 0.29579(15) 0.63371(12) 0.49508(7)
C20 C 0.24657(19) 0.66680(14) 0.54837(8)
C21 C 0.1376(2) 0.70917(15) 0.55444(8)
C22 C 0.07988(17) 0.71672(14) 0.50749(9)
C23 C 0.13239(15) 0.68153(12) 0.45524(7)
C24 C 0.42226(12) 0.59905(10) 0.36889(6)
C25 C 0.50856(13) 0.53215(11) 0.33902(7)
C26 C 0.60543(13) 0.53703(12) 0.32448(8)
C27 C 0.62170(13) 0.61150(13) 0.34040(8)
C28 C 0.54016(14) 0.67969(12) 0.36992(8)
C29 C 0.44336(13) 0.67379(11) 0.38201(7)
C30 C 0.25487(11) 0.53272(10) 0.24744(6)
C31 C 0.33443(12) 0.44250(10) 0.24183(6)
H18 H 0.4050 0.4315 0.2458
C32 C 0.31161(12) 0.36720(10) 0.23032(7)
C33 C 0.20535(13) 0.38626(11) 0.22398(8)
H19 H 0.1887 0.3370 0.2167
C34 C 0.12256(13) 0.47689(12) 0.22820(9)
C35 C 0.14908(12) 0.54902(11) 0.24002(8)
H20 H 0.0952 0.6097 0.2431
C36 C 0.40339(12) 0.26874(10) 0.22481(7)
C37 C 0.45509(14) 0.22830(12) 0.28433(8)
H21 H 0.4789 0.2719 0.2970
H22 H 0.5150 0.1683 0.2800
H23 H 0.4037 0.2193 0.3133
C38 C 0.36527(14) 0.19850(12) 0.20579(8)
H24 H 0.3131 0.1909 0.2348
H25 H 0.4250 0.1381 0.2025
H26 H 0.3338 0.2224 0.1682
C39 C 0.48729(14) 0.27823(12) 0.17773(8)
H27 H 0.4546 0.3049 0.1407
H28 H 0.5441 0.2166 0.1733
H29 H 0.5156 0.3191 0.1899
C40 C 0.00697(15) 0.49305(14) 0.22101(12)
C41 C -0.03051(19) 0.4427(2) 0.27743(14)
H30 H 0.0133 0.3755 0.2800
H31 H -0.1037 0.4540 0.2746
H32 H -0.0240 0.4679 0.3121
C42 C -0.0001(2) 0.4479(2) 0.16869(14)
H33 H -0.0723 0.4557 0.1665
H34 H 0.0465 0.3813 0.1729
H35 H 0.0209 0.4777 0.1332
C43 C -0.06991(19) 0.59707(18) 0.21930(16)
H36 H -0.0658 0.6219 0.2547
H37 H -0.1414 0.6033 0.2166
H38 H -0.0513 0.6320 0.1855
C44 C 0.35400(12) 0.92711(10) 0.20170(6)
C45 C 0.30576(13) 0.99325(11) 0.24278(7)
C46 C 0.35538(15) 0.99827(12) 0.29075(7)
C47 C 0.45947(16) 0.93694(13) 0.29945(8)
C48 C 0.51136(13) 0.86866(12) 0.26093(7)
C49 C 0.45748(12) 0.86457(11) 0.21458(7)
C50 C 0.37546(12) 0.88170(11) 0.08712(6)
C51 C 0.46147(12) 0.90607(11) 0.07155(7)
C52 C 0.53299(13) 0.87554(12) 0.02386(7)
C53 C 0.51971(14) 0.81927(14) -0.01275(7)
C54 C 0.43540(14) 0.79428(13) -0.00094(7)
C55 C 0.36587(12) 0.82619(12) 0.04735(7)
C56 C 0.12202(12) 1.04105(11) 0.09581(7)
H39 H 0.1020 0.9908 0.0982
C57 C 0.05526(13) 1.12949(12) 0.06742(7)
C58 C -0.04034(15) 1.14288(14) 0.04291(9)
H40 H -0.0611 1.0930 0.0456
C59 C -0.10204(17) 1.23003(16) 0.01521(11)
H41 H -0.1648 1.2392 -0.0012
C60 C -0.07159(19) 1.30515(16) 0.01134(11)
H42 H -0.1145 1.3637 -0.0078
C61 C 0.01923(17) 1.29500(14) 0.03488(10)
H43 H 0.0377 1.3463 0.0321
C62 C 0.08554(14) 1.20592(12) 0.06367(8)
C63 C 0.18150(14) 1.18799(12) 0.08897(8)
H44 H 0.2039 1.2366 0.0877
C64 C 0.24135(13) 1.10048(11) 0.11510(7)
H45 H 0.3050 1.0902 0.1309
C65 C 0.03375(11) 0.94833(10) 0.20767(6)
C66 C -0.01134(12) 1.04049(10) 0.22386(6)
H46 H 0.0281 1.0598 0.2453
C67 C -0.11430(12) 1.10522(11) 0.20890(7)
C68 C -0.17194(12) 1.07326(11) 0.17799(7)
H47 H -0.2407 1.1153 0.1679
C69 C -0.13094(12) 0.98096(11) 0.16149(7)
C70 C -0.02704(12) 0.91954(10) 0.17623(6)
H48 H 0.0026 0.8581 0.1649
C71 C -0.16382(14) 1.20688(12) 0.22703(9)
C72 C -0.08290(18) 1.23151(15) 0.25279(14)
H49 H -0.0573 1.1902 0.2882
H50 H -0.1163 1.2964 0.2619
H51 H -0.0240 1.2235 0.2245
C73 C -0.2093(2) 1.27901(15) 0.17387(12)
H52 H -0.1529 1.2740 0.1443
H53 H -0.2411 1.3421 0.1862
H54 H -0.2626 1.2663 0.1577
C74 C -0.25384(19) 1.21575(17) 0.27424(12)
H55 H -0.3057 1.2002 0.2589
H56 H -0.2875 1.2798 0.2849
H57 H -0.2249 1.1728 0.3086
C75 C -0.20096(13) 0.94973(12) 0.12944(8)
C76 C -0.2320(2) 1.01115(18) 0.07083(11)
H58 H -0.2649 1.0771 0.0778
H59 H -0.2814 0.9958 0.0528
H60 H -0.1692 0.9993 0.0450
C77 C -0.30345(18) 0.9640(2) 0.16821(13)
H61 H -0.2850 0.9280 0.2061
H62 H -0.3467 0.9425 0.1493
H63 H -0.3427 1.0302 0.1735
C78 C -0.14611(19) 0.84677(15) 0.11703(13)
H64 H -0.0827 0.8370 0.0921
H65 H -0.1935 0.8310 0.0975
H66 H -0.1273 0.8069 0.1536
B1 B 0.30503(14) 0.59473(12) 0.38269(7)
B2 B 0.29253(13) 0.91884(12) 0.14589(7)
loop_
_geom_bond_atom_site_label_1
_geom_bond_atom_site_label_2
_geom_bond_site_symmetry_1
_geom_bond_site_symmetry_2
F1 C23 1_555 1_555
F2 C22 1_555 1_555
F3 C21 1_555 1_555
F4 C20 1_555 1_555
F5 C19 1_555 1_555
F6 C29 1_555 1_555
F7 C28 1_555 1_555
F8 C27 1_555 1_555
F9 C26 1_555 1_555
F10 C25 1_555 1_555
F11 C45 1_555 1_555
F12 C46 1_555 1_555
F13 C47 1_555 1_555
F14 C48 1_555 1_555
F15 C49 1_555 1_555
F16 C51 1_555 1_555
F17 C52 1_555 1_555
F18 C53 1_555 1_555
F19 C54 1_555 1_555
F20 C55 1_555 1_555
N1 C9 1_555 1_555
N2 C56 1_555 1_555
C1 H1 1_555 1_555
C2 C1 1_555 1_555
H2 C2 1_555 1_555
C3 C2 1_555 1_555
H3 C3 1_555 1_555
H4 C3 1_555 1_555
C4 C3 1_555 1_555
H5 C4 1_555 1_555
C5 C4 1_555 1_555
H6 C5 1_555 1_555
C6 C2 1_555 1_555
H7 C6 1_555 1_555
C7 C6 1_555 1_555
H8 C7 1_555 1_555
H9 C7 1_555 1_555
C8 C1 1_555 1_555
H10 C8 1_555 1_555
C9 H11 1_555 1_555
C10 C9 1_555 1_555
C11 C10 1_555 1_555
H12 C11 1_555 1_555
C12 C11 1_555 1_555
H13 C12 1_555 1_555
C13 C12 1_555 1_555
H14 C13 1_555 1_555
C14 C13 1_555 1_555
H15 C14 1_555 1_555
C15 C10 1_555 1_555
C16 C15 1_555 1_555
H16 C16 1_555 1_555
C17 N1 1_555 1_555
H17 C17 1_555 1_555
C18 C19 1_555 1_555
C19 C20 1_555 1_555
C20 C21 1_555 1_555
C21 C22 1_555 1_555
C22 C23 1_555 1_555
C23 C18 1_555 1_555
C24 C25 1_555 1_555
C25 C26 1_555 1_555
C26 C27 1_555 1_555
C27 C28 1_555 1_555
C28 C29 1_555 1_555
C29 C24 1_555 1_555
C30 C1 1_555 1_555
C31 C30 1_555 1_555
H18 C31 1_555 1_555
C32 C31 1_555 1_555
C33 C32 1_555 1_555
H19 C33 1_555 1_555
C34 C33 1_555 1_555
C35 C30 1_555 1_555
H20 C35 1_555 1_555
C36 C32 1_555 1_555
C37 C36 1_555 1_555
H21 C37 1_555 1_555
H22 C37 1_555 1_555
H23 C37 1_555 1_555
C38 C36 1_555 1_555
H24 C38 1_555 1_555
H25 C38 1_555 1_555
H26 C38 1_555 1_555
C39 C36 1_555 1_555
H27 C39 1_555 1_555
H28 C39 1_555 1_555
H29 C39 1_555 1_555
C40 C34 1_555 1_555
C41 C40 1_555 1_555
H30 C41 1_555 1_555
H31 C41 1_555 1_555
H32 C41 1_555 1_555
C42 C40 1_555 1_555
H33 C42 1_555 1_555
H34 C42 1_555 1_555
H35 C42 1_555 1_555
C43 C40 1_555 1_555
H36 C43 1_555 1_555
H37 C43 1_555 1_555
H38 C43 1_555 1_555
C44 C45 1_555 1_555
C45 C46 1_555 1_555
C46 C47 1_555 1_555
C47 C48 1_555 1_555
C48 C49 1_555 1_555
C49 C44 1_555 1_555
C50 C51 1_555 1_555
C51 C52 1_555 1_555
C52 C53 1_555 1_555
C53 C54 1_555 1_555
C54 C55 1_555 1_555
C55 C50 1_555 1_555
C56 H39 1_555 1_555
C57 C56 1_555 1_555
C58 C57 1_555 1_555
H40 C58 1_555 1_555
C59 C58 1_555 1_555
H41 C59 1_555 1_555
C60 C59 1_555 1_555
H42 C60 1_555 1_555
C61 C60 1_555 1_555
H43 C61 1_555 1_555
C62 C57 1_555 1_555
C63 C62 1_555 1_555
H44 C63 1_555 1_555
C64 N2 1_555 1_555
H45 C64 1_555 1_555
C65 C5 1_555 1_555
C66 C65 1_555 1_555
H46 C66 1_555 1_555
C67 C66 1_555 1_555
C68 C67 1_555 1_555
H47 C68 1_555 1_555
C69 C68 1_555 1_555
C70 C65 1_555 1_555
H48 C70 1_555 1_555
C71 C67 1_555 1_555
C72 C71 1_555 1_555
H49 C72 1_555 1_555
H50 C72 1_555 1_555
H51 C72 1_555 1_555
C73 C71 1_555 1_555
H52 C73 1_555 1_555
H53 C73 1_555 1_555
H54 C73 1_555 1_555
C74 C71 1_555 1_555
H55 C74 1_555 1_555
H56 C74 1_555 1_555
H57 C74 1_555 1_555
C75 C69 1_555 1_555
C76 C75 1_555 1_555
H58 C76 1_555 1_555
H59 C76 1_555 1_555
H60 C76 1_555 1_555
C77 C75 1_555 1_555
H61 C77 1_555 1_555
H62 C77 1_555 1_555
H63 C77 1_555 1_555
C78 C75 1_555 1_555
H64 C78 1_555 1_555
H65 C78 1_555 1_555
H66 C78 1_555 1_555
B1 N1 1_555 1_555
B2 N2 1_555 1_555
C4 B2 1_555 1_555
C5 C6 1_555 1_555
C7 C8 1_555 1_555
C8 B1 1_555 1_555
C14 C15 1_555 1_555
C16 C17 1_555 1_555
C18 B1 1_555 1_555
C24 B1 1_555 1_555
C34 C35 1_555 1_555
C44 B2 1_555 1_555
C50 B2 1_555 1_555
C61 C62 1_555 1_555
C63 C64 1_555 1_555
C69 C70 1_555 1_555

#END
