
#######################################################################
#
#                 Cambridge Crystallographic Data Centre
#                                CCDC 
#
#######################################################################
#
# If this CIF has been generated from an entry in the Cambridge 
# Structural Database, then it will include bibliographic, chemical, 
# crystal, experimental, refinement or atomic coordinate data resulting 
# from the CCDC's data processing and validation procedures.
#
#######################################################################

data_AGOVEA
_chemical_formula_moiety         'C62 H34 B2 F20 N2'
_chemical_name_systematic        
'2,5-bis((isoquinolin-2-ium-2-yl)bis(pentafluorophenyl)boranidyl)-1,4-diphenyloctahydropentalene unknown solvate'
_symmetry_cell_setting           monoclinic
_symmetry_space_group_name_H-M   'P 21/n'
_symmetry_Int_Tables_number      14
_space_group_name_Hall           '-P 2yn'
loop_
_symmetry_equiv_pos_site_id
_symmetry_equiv_pos_as_xyz
1 x,y,z
2 1/2-x,1/2+y,1/2-z
3 -x,-y,-z
4 1/2+x,1/2-y,1/2+z
_cell_length_a                   15.3040(9)
_cell_length_b                   23.6474(7)
_cell_length_c                   17.1402(8)
_cell_angle_alpha                90
_cell_angle_beta                 106.781(6)
_cell_angle_gamma                90
_cell_volume                     5938.88
_exptl_crystal_colour            colorless
_exptl_crystal_description       prism
_cell_formula_units_Z            4
loop_
_atom_site_label
_atom_site_type_symbol
_atom_site_fract_x
_atom_site_fract_y
_atom_site_fract_z
F1 F 0.37691(12) 1.10374(7) 1.02438(10)
F2 F 0.31881(14) 1.10558(8) 1.15479(10)
F3 F 0.17606(14) 1.17185(8) 1.16082(11)
F4 F 0.08975(13) 1.23572(8) 1.02837(11)
F5 F 0.14510(11) 1.23540(7) 0.89604(10)
F6 F 0.25713(14) 1.18088(7) 0.68492(10)
F7 F 0.24492(12) 1.27532(7) 0.60564(10)
F8 F 0.27082(12) 1.37687(7) 0.68374(11)
F9 F 0.30853(13) 1.37864(7) 0.85034(11)
F10 F 0.31956(12) 1.28446(7) 0.93391(10)
F11 F 0.03762(11) 0.86659(7) 0.75910(10)
F12 F 0.09288(13) 0.82623(8) 0.90776(11)
F13 F 0.03363(13) 0.87104(8) 1.02956(10)
F14 F -0.08999(13) 0.95814(7) 0.99392(10)
F15 F -0.14919(11) 0.99892(7) 0.84603(10)
F16 F -0.17284(13) 0.86541(7) 0.66334(11)
F17 F -0.16741(14) 0.79122(8) 0.54894(12)
F18 F -0.05462(14) 0.80869(7) 0.45292(11)
F19 F 0.05017(13) 0.90341(7) 0.47540(10)
F20 F 0.04113(12) 0.98003(7) 0.58297(10)
N1 N 0.40641(16) 1.15377(10) 0.89218(14)
N2 N -0.18002(16) 0.99353(10) 0.66967(14)
C1 C 0.2658(2) 1.17013(12) 0.95161(17)
C2 C 0.3051(2) 1.13861(12) 1.02097(18)
C3 C 0.2768(2) 1.13819(13) 1.09055(18)
C4 C 0.2038(2) 1.17132(13) 1.09345(19)
C5 C 0.1614(2) 1.20312(13) 1.0270(2)
C6 C 0.1922(2) 1.20230(13) 0.95870(18)
C7 C 0.28645(19) 1.22554(12) 0.81578(17)
C8 C 0.2685(2) 1.22817(12) 0.73120(18)
C9 C 0.2627(2) 1.27770(13) 0.68711(18)
C10 C 0.2749(2) 1.32878(12) 0.72603(19)
C11 C 0.2946(2) 1.32930(12) 0.80937(19)
C12 C 0.2995(2) 1.27893(13) 0.85100(18)
C13 C 0.4430(2) 1.11404(12) 0.85797(18)
H1 H 0.403896 1.091739 0.816166
C14 C 0.4641(2) 1.18757(12) 0.94995(18)
H2 H 0.438529 1.216718 0.974644
C15 C 0.5555(2) 1.18086(12) 0.97286(18)
H3 H 0.592785 1.205932 1.011806
C16 C 0.5967(2) 1.13702(12) 0.93969(18)
C17 C 0.5371(2) 1.10298(12) 0.88023(18)
C18 C 0.5722(2) 1.05696(14) 0.8452(2)
H4 H 0.532653 1.034079 0.804492
C19 C 0.6640(2) 1.04610(15) 0.8710(2)
H5 H 0.687900 1.015025 0.848567
C20 C 0.7231(2) 1.08033(14) 0.9301(2)
H6 H 0.786473 1.071790 0.947298
C21 C 0.6915(2) 1.12571(13) 0.96345(19)
H7 H 0.732647 1.149276 1.001973
C22 C 0.23875(19) 1.11285(11) 0.81162(17)
H8 H 0.263680 1.107306 0.764277
C23 C 0.2408(2) 1.05385(11) 0.85423(18)
H9 H 0.261349 1.061100 0.914257
C24 C 0.13988(19) 1.03494(12) 0.83327(17)
H10 H 0.129489 1.011598 0.878421
C25 C 0.0993(2) 1.00578(12) 0.75108(18)
H11 H 0.103753 0.964181 0.757578
H12 H 0.132604 1.017334 0.711972
C26 C -0.00350(19) 1.02456(11) 0.71952(17)
H13 H -0.012307 1.043805 0.665849
C27 C -0.01298(19) 1.07078(11) 0.78249(17)
H14 H -0.033684 1.050514 0.825206
C28 C 0.08589(19) 1.09005(11) 0.82386(17)
H15 H 0.090970 1.106958 0.878468
C29 C 0.13497(19) 1.12714(12) 0.77657(17)
H16 H 0.123886 1.167680 0.784583
H17 H 0.113280 1.118507 0.717586
C30 C 0.3059(2) 1.01075(12) 0.8373(2)
C31 C 0.3651(2) 0.98238(15) 0.9024(3)
H18 H 0.363216 0.990359 0.956254
C32 C 0.4272(3) 0.94248(19) 0.8907(4)
H19 H 0.467145 0.923759 0.936173
C33 C 0.4305(3) 0.93032(17) 0.8135(4)
H20 H 0.472645 0.903036 0.805385
C34 C 0.3720(3) 0.95803(16) 0.7466(3)
H21 H 0.373984 0.949497 0.693005
C35 C 0.3103(2) 0.99858(13) 0.7591(2)
H22 H 0.271185 1.017868 0.713715
C36 C -0.0836(2) 1.11641(12) 0.74847(18)
C37 C -0.1567(2) 1.12297(13) 0.78103(19)
H23 H -0.159373 1.100250 0.825988
C38 C -0.2256(2) 1.16204(14) 0.7491(2)
H24 H -0.274986 1.165274 0.772066
C39 C -0.2232(3) 1.19576(14) 0.6852(2)
H25 H -0.270751 1.222140 0.663069
C40 C -0.1494(3) 1.19075(14) 0.6528(2)
H26 H -0.146186 1.214383 0.608917
C41 C -0.0811(2) 1.15171(12) 0.68426(17)
H27 H -0.031456 1.148940 0.661564
C42 C -0.05711(19) 0.93755(11) 0.79242(17)
C43 C 0.0040(2) 0.89226(12) 0.81461(18)
C44 C 0.0344(2) 0.87008(13) 0.89211(19)
C45 C 0.0047(2) 0.89214(13) 0.95399(17)
C46 C -0.0581(2) 0.93570(13) 0.93509(18)
C47 C -0.0860(2) 0.95648(12) 0.85719(18)
C48 C -0.0665(2) 0.92754(12) 0.63114(17)
C49 C -0.1176(2) 0.87777(13) 0.61607(18)
C50 C -0.1157(2) 0.83807(13) 0.55779(19)
C51 C -0.0591(2) 0.84684(12) 0.50963(18)
C52 C -0.0073(2) 0.89445(13) 0.52086(18)
C53 C -0.0122(2) 0.93397(12) 0.57933(17)
C54 C -0.1969(2) 1.03296(13) 0.61257(18)
H28 H -0.147391 1.047274 0.595551
C55 C -0.2527(2) 0.97105(14) 0.69127(19)
H29 H -0.242039 0.941128 0.729857
C56 C -0.3392(2) 0.99030(15) 0.6592(2)
H30 H -0.387346 0.974097 0.676383
C57 C -0.3589(2) 1.03428(16) 0.6003(2)
C58 C -0.2847(2) 1.05475(14) 0.5758(2)
C59 C -0.2993(3) 1.09753(16) 0.5150(2)
H31 H -0.249717 1.111655 0.497801
C60 C -0.3857(4) 1.11806(19) 0.4817(3)
H32 H -0.396140 1.146226 0.440513
C61 C -0.4582(3) 1.0983(2) 0.5073(3)
H33 H -0.517196 1.114040 0.484427
C62 C -0.4467(3) 1.0570(2) 0.5642(3)
H34 H -0.497558 1.043331 0.579757
B1 B 0.2955(2) 1.16489(14) 0.8663(2)
B2 B -0.0739(2) 0.97104(14) 0.7046(2)
loop_
_geom_bond_atom_site_label_1
_geom_bond_atom_site_label_2
_geom_bond_site_symmetry_1
_geom_bond_site_symmetry_2
F1 C2 1_555 1_555
F2 C3 1_555 1_555
F3 C4 1_555 1_555
F4 C5 1_555 1_555
F5 C6 1_555 1_555
F6 C8 1_555 1_555
F7 C9 1_555 1_555
F8 C10 1_555 1_555
F9 C11 1_555 1_555
F10 C12 1_555 1_555
F11 C43 1_555 1_555
F12 C44 1_555 1_555
F13 C45 1_555 1_555
F14 C46 1_555 1_555
F15 C47 1_555 1_555
F16 C49 1_555 1_555
F17 C50 1_555 1_555
F18 C51 1_555 1_555
F19 C52 1_555 1_555
F20 C53 1_555 1_555
N1 C13 1_555 1_555
N2 C54 1_555 1_555
C1 C2 1_555 1_555
C2 C3 1_555 1_555
C3 C4 1_555 1_555
C4 C5 1_555 1_555
C5 C6 1_555 1_555
C6 C1 1_555 1_555
C7 C8 1_555 1_555
C8 C9 1_555 1_555
C9 C10 1_555 1_555
C10 C11 1_555 1_555
C11 C12 1_555 1_555
C12 C7 1_555 1_555
C13 H1 1_555 1_555
C14 N1 1_555 1_555
H2 C14 1_555 1_555
C15 C14 1_555 1_555
H3 C15 1_555 1_555
C16 C15 1_555 1_555
C17 C13 1_555 1_555
C18 C17 1_555 1_555
H4 C18 1_555 1_555
C19 C18 1_555 1_555
H5 C19 1_555 1_555
C20 C19 1_555 1_555
H6 C20 1_555 1_555
C21 C16 1_555 1_555
H7 C21 1_555 1_555
C22 H8 1_555 1_555
C23 C22 1_555 1_555
H9 C23 1_555 1_555
C24 C23 1_555 1_555
H10 C24 1_555 1_555
C25 C24 1_555 1_555
H11 C25 1_555 1_555
H12 C25 1_555 1_555
C26 C25 1_555 1_555
H13 C26 1_555 1_555
C27 C26 1_555 1_555
H14 C27 1_555 1_555
C28 C24 1_555 1_555
H15 C28 1_555 1_555
C29 C22 1_555 1_555
H16 C29 1_555 1_555
H17 C29 1_555 1_555
C30 C23 1_555 1_555
C31 C30 1_555 1_555
H18 C31 1_555 1_555
C32 C31 1_555 1_555
H19 C32 1_555 1_555
C33 C32 1_555 1_555
H20 C33 1_555 1_555
C34 C33 1_555 1_555
H21 C34 1_555 1_555
C35 C30 1_555 1_555
H22 C35 1_555 1_555
C36 C27 1_555 1_555
C37 C36 1_555 1_555
H23 C37 1_555 1_555
C38 C37 1_555 1_555
H24 C38 1_555 1_555
C39 C38 1_555 1_555
H25 C39 1_555 1_555
C40 C39 1_555 1_555
H26 C40 1_555 1_555
C41 C36 1_555 1_555
H27 C41 1_555 1_555
C42 C43 1_555 1_555
C43 C44 1_555 1_555
C44 C45 1_555 1_555
C45 C46 1_555 1_555
C46 C47 1_555 1_555
C47 C42 1_555 1_555
C48 C49 1_555 1_555
C49 C50 1_555 1_555
C50 C51 1_555 1_555
C51 C52 1_555 1_555
C52 C53 1_555 1_555
C53 C48 1_555 1_555
C54 H28 1_555 1_555
C55 N2 1_555 1_555
H29 C55 1_555 1_555
C56 C55 1_555 1_555
H30 C56 1_555 1_555
C57 C56 1_555 1_555
C58 C54 1_555 1_555
C59 C58 1_555 1_555
H31 C59 1_555 1_555
C60 C59 1_555 1_555
H32 C60 1_555 1_555
C61 C60 1_555 1_555
H33 C61 1_555 1_555
C62 C57 1_555 1_555
H34 C62 1_555 1_555
B1 N1 1_555 1_555
B2 N2 1_555 1_555
C1 B1 1_555 1_555
C7 B1 1_555 1_555
C16 C17 1_555 1_555
C20 C21 1_555 1_555
C22 B1 1_555 1_555
C26 B2 1_555 1_555
C27 C28 1_555 1_555
C28 C29 1_555 1_555
C34 C35 1_555 1_555
C40 C41 1_555 1_555
C42 B2 1_555 1_555
C48 B2 1_555 1_555
C57 C58 1_555 1_555
C61 C62 1_555 1_555

#END
