
#######################################################################
#
#                 Cambridge Crystallographic Data Centre
#                                CCDC 
#
#######################################################################
#
# If this CIF has been generated from an entry in the Cambridge 
# Structural Database, then it will include bibliographic, chemical, 
# crystal, experimental, refinement or atomic coordinate data resulting 
# from the CCDC's data processing and validation procedures.
#
#######################################################################

data_AGOXIF
_chemical_formula_moiety         'C11 H12 I1 N3 O1'
_chemical_name_systematic        
(5-Iodo-1-(4-methylbenzyl)-1H-1,2,3-triazol-4-yl)methanol
_symmetry_cell_setting           orthorhombic
_symmetry_space_group_name_H-M   'P 21 21 21'
_symmetry_Int_Tables_number      19
_space_group_name_Hall           'P 2ac 2ab'
loop_
_symmetry_equiv_pos_site_id
_symmetry_equiv_pos_as_xyz
1 x,y,z
2 1/2+x,1/2-y,-z
3 -x,1/2+y,1/2-z
4 1/2-x,-y,1/2+z
_cell_length_a                   5.8628(1)
_cell_length_b                   7.5482(1)
_cell_length_c                   26.7283(6)
_cell_angle_alpha                90
_cell_angle_beta                 90
_cell_angle_gamma                90
_cell_volume                     1182.82
_exptl_crystal_colour            colorless
_exptl_crystal_description       prism
_cell_formula_units_Z            4
loop_
_atom_site_label
_atom_site_type_symbol
_atom_site_fract_x
_atom_site_fract_y
_atom_site_fract_z
C1 C 0.1877(5) 0.1402(4) 0.07195(10)
C2 C 0.2011(5) -0.0313(4) 0.05353(13)
C3 C 0.0438(6) -0.1236(4) 0.01835(11)
H1 H 0.0503 -0.2529 0.0244
H2 H -0.1146 -0.0835 0.0244
C4 C 0.4254(5) 0.3008(4) 0.13705(11)
H3 H 0.3640 0.4127 0.1232
H4 H 0.5934 0.3125 0.1390
C5 C 0.3323(5) 0.2749(4) 0.18907(11)
C6 C 0.1246(5) 0.1924(4) 0.19828(12)
H5 H 0.0376 0.1475 0.1711
C7 C 0.0428(6) 0.1751(5) 0.24683(12)
H6 H -0.0996 0.1184 0.2525
C8 C 0.1663(6) 0.2395(4) 0.28712(12)
C9 C 0.3738(6) 0.3209(5) 0.27797(12)
H7 H 0.4615 0.3646 0.3052
C10 C 0.4554(5) 0.3393(4) 0.22941(11)
H8 H 0.5973 0.3967 0.2238
C11 C 0.0746(8) 0.2186(5) 0.33965(14)
H9 H 0.1648 0.2912 0.3627
H10 H 0.0845 0.0939 0.3497
H11 H -0.0850 0.2569 0.3406
I1 I -0.04103(3) 0.33642(2) 0.054727(7)
N1 N 0.3686(4) 0.1551(4) 0.10304(9)
N2 N 0.4898(4) 0.0037(4) 0.10385(10)
N3 N 0.3928(5) -0.1072(3) 0.07491(10)
O1 O 0.1045(4) -0.0878(3) -0.03194(9)
H12 H 0.0453 -0.1641 -0.0508
loop_
_geom_bond_atom_site_label_1
_geom_bond_atom_site_label_2
_geom_bond_site_symmetry_1
_geom_bond_site_symmetry_2
C1 C2 1_555 1_555
C2 C3 1_555 1_555
C3 H1 1_555 1_555
H2 C3 1_555 1_555
C4 H3 1_555 1_555
H4 C4 1_555 1_555
C5 C4 1_555 1_555
C6 C5 1_555 1_555
H5 C6 1_555 1_555
C7 C6 1_555 1_555
H6 C7 1_555 1_555
C8 C7 1_555 1_555
C9 C8 1_555 1_555
H7 C9 1_555 1_555
C10 C5 1_555 1_555
H8 C10 1_555 1_555
C11 C8 1_555 1_555
H9 C11 1_555 1_555
H10 C11 1_555 1_555
H11 C11 1_555 1_555
I1 C1 1_555 1_555
N1 C1 1_555 1_555
N2 N1 1_555 1_555
N3 C2 1_555 1_555
O1 C3 1_555 1_555
H12 O1 1_555 1_555
C4 N1 1_555 1_555
C9 C10 1_555 1_555
N2 N3 1_555 1_555

#END
