
#######################################################################
#
#                 Cambridge Crystallographic Data Centre
#                                CCDC 
#
#######################################################################
#
# If this CIF has been generated from an entry in the Cambridge 
# Structural Database, then it will include bibliographic, chemical, 
# crystal, experimental, refinement or atomic coordinate data resulting 
# from the CCDC's data processing and validation procedures.
#
#######################################################################

data_AGOXOL
_chemical_formula_moiety         'C9 H15 N3 O1'
_chemical_name_systematic        (1-Cyclohexyl-1H-1,2,3-triazol-4-yl)methanol
_symmetry_cell_setting           monoclinic
_symmetry_space_group_name_H-M   'P 21/c'
_symmetry_Int_Tables_number      14
_space_group_name_Hall           '-P 2ybc'
loop_
_symmetry_equiv_pos_site_id
_symmetry_equiv_pos_as_xyz
1 x,y,z
2 -x,1/2+y,1/2-z
3 -x,-y,-z
4 x,1/2-y,1/2+z
_cell_length_a                   14.2822(4)
_cell_length_b                   8.3517(2)
_cell_length_c                   8.0670(3)
_cell_angle_alpha                90
_cell_angle_beta                 94.301(2)
_cell_angle_gamma                90
_cell_volume                     959.527
_exptl_crystal_colour            colorless
_exptl_crystal_description       plate
_cell_formula_units_Z            4
loop_
_atom_site_label
_atom_site_type_symbol
_atom_site_fract_x
_atom_site_fract_y
_atom_site_fract_z
O1 O 0.59944(6) 0.00031(10) 0.29377(11)
N1 N 0.29937(6) 0.03764(11) 0.13240(12)
N2 N 0.29963(7) 0.01101(11) 0.29673(12)
N3 N 0.38496(7) 0.04460(12) 0.36117(12)
C1 C 0.38440(7) 0.08745(14) 0.09136(14)
H1 H 0.4025 0.1136 -0.0163
C2 C 0.43894(8) 0.09218(13) 0.23813(14)
C3 C 0.53986(8) 0.13672(14) 0.27206(15)
H2 H 0.5599 0.2016 0.1783
H3 H 0.5468 0.2035 0.3736
C4 C 0.21273(8) 0.01166(13) 0.02615(14)
H4 H 0.1595 0.0067 0.0997
C5 C 0.21563(8) -0.14705(14) -0.06644(15)
H5 H 0.2274 -0.2356 0.0140
H6 H 0.2674 -0.1455 -0.1415
C6 C 0.12218(8) -0.17416(16) -0.16740(16)
H7 H 0.1253 -0.2750 -0.2312
H8 H 0.0715 -0.1852 -0.0909
C7 C 0.09921(9) -0.03593(17) -0.28681(17)
H9 H 0.0363 -0.0531 -0.3442
H10 H 0.1456 -0.0336 -0.3721
C8 C 0.10062(8) 0.12417(16) -0.19608(16)
H11 H 0.0487 0.1272 -0.1214
H12 H 0.0905 0.2118 -0.2781
C9 C 0.19405(8) 0.15056(14) -0.09403(15)
H13 H 0.2455 0.1584 -0.1692
H14 H 0.1917 0.2521 -0.0312
H15 H 0.6027(11) -0.0236(19) 0.407(2)
loop_
_geom_bond_atom_site_label_1
_geom_bond_atom_site_label_2
_geom_bond_site_symmetry_1
_geom_bond_site_symmetry_2
O1 C3 1_555 1_555
N1 N2 1_555 1_555
N2 N3 1_555 1_555
N3 C2 1_555 1_555
C1 N1 1_555 1_555
H1 C1 1_555 1_555
C2 C1 1_555 1_555
C3 C2 1_555 1_555
H2 C3 1_555 1_555
H3 C3 1_555 1_555
C4 N1 1_555 1_555
H4 C4 1_555 1_555
C5 C4 1_555 1_555
H5 C5 1_555 1_555
H6 C5 1_555 1_555
C6 C5 1_555 1_555
H7 C6 1_555 1_555
H8 C6 1_555 1_555
C7 C6 1_555 1_555
H9 C7 1_555 1_555
H10 C7 1_555 1_555
C8 C7 1_555 1_555
H11 C8 1_555 1_555
H12 C8 1_555 1_555
C9 C4 1_555 1_555
H13 C9 1_555 1_555
H14 C9 1_555 1_555
H15 O1 1_555 1_555
C8 C9 1_555 1_555

#END
