
#######################################################################
#
#                 Cambridge Crystallographic Data Centre
#                                CCDC 
#
#######################################################################
#
# If this CIF has been generated from an entry in the Cambridge 
# Structural Database, then it will include bibliographic, chemical, 
# crystal, experimental, refinement or atomic coordinate data resulting 
# from the CCDC's data processing and validation procedures.
#
#######################################################################

data_AGUGEQ
_chemical_formula_moiety         'C102 H138 N6 Si6'
_chemical_name_systematic        
5,8,13,16,21,24-hexakis((Tri-isopropylsilyl)ethynyl)benzo[i]bisbenzo[6,7]quinoxalino[2,3-a:2',3'-c]phenazine
_symmetry_cell_setting           cubic
_symmetry_space_group_name_H-M   'F d -3 c'
_symmetry_Int_Tables_number      228
_space_group_name_Hall           '-F 4ud 2vw 3'
loop_
_symmetry_equiv_pos_site_id
_symmetry_equiv_pos_as_xyz
1 x,y,z
2 1/4-x,3/4-y,1/2+z
3 3/4-x,1/2+y,1/4-z
4 1/2+x,1/4-y,3/4-z
5 z,x,y
6 1/2+z,1/4-x,3/4-y
7 1/4-z,3/4-x,1/2+y
8 3/4-z,1/2+x,1/4-y
9 y,z,x
10 3/4-y,1/2+z,1/4-x
11 1/2+y,1/4-z,3/4-x
12 1/4-y,3/4-z,1/2+x
13 3/4+y,1/4+x,-z
14 1/2-y,1/2-x,1/2-z
15 1/4+y,-x,3/4+z
16 -y,3/4+x,1/4+z
17 3/4+x,1/4+z,-y
18 -x,3/4+z,1/4+y
19 1/2-x,1/2-z,1/2-y
20 1/4+x,-z,3/4+y
21 3/4+z,1/4+y,-x
22 1/4+z,-y,3/4+x
23 -z,3/4+y,1/4+x
24 1/2-z,1/2-y,1/2-x
25 x,1/2+y,1/2+z
26 1/4-x,1/4-y,z
27 3/4-x,y,3/4-z
28 1/2+x,3/4-y,1/4-z
29 z,1/2+x,1/2+y
30 1/2+z,3/4-x,1/4-y
31 1/4-z,1/4-x,y
32 3/4-z,x,3/4-y
33 y,1/2+z,1/2+x
34 3/4-y,z,3/4-x
35 1/2+y,3/4-z,1/4-x
36 1/4-y,1/4-z,x
37 3/4+y,3/4+x,1/2-z
38 1/2-y,-x,-z
39 1/4+y,1/2-x,1/4+z
40 -y,1/4+x,3/4+z
41 3/4+x,3/4+z,1/2-y
42 -x,1/4+z,3/4+y
43 1/2-x,-z,-y
44 1/4+x,1/2-z,1/4+y
45 3/4+z,3/4+y,1/2-x
46 1/4+z,1/2-y,1/4+x
47 -z,1/4+y,3/4+x
48 1/2-z,-y,-x
49 1/2+x,y,1/2+z
50 3/4-x,3/4-y,z
51 1/4-x,1/2+y,3/4-z
52 x,1/4-y,1/4-z
53 1/2+z,x,1/2+y
54 z,1/4-x,1/4-y
55 3/4-z,3/4-x,y
56 1/4-z,1/2+x,3/4-y
57 1/2+y,z,1/2+x
58 1/4-y,1/2+z,3/4-x
59 y,1/4-z,1/4-x
60 3/4-y,3/4-z,x
61 1/4+y,1/4+x,1/2-z
62 -y,1/2-x,-z
63 3/4+y,-x,1/4+z
64 1/2-y,3/4+x,3/4+z
65 1/4+x,1/4+z,1/2-y
66 1/2-x,3/4+z,3/4+y
67 -x,1/2-z,-y
68 3/4+x,-z,1/4+y
69 1/4+z,1/4+y,1/2-x
70 3/4+z,-y,1/4+x
71 1/2-z,3/4+y,3/4+x
72 -z,1/2-y,-x
73 1/2+x,1/2+y,z
74 3/4-x,1/4-y,1/2+z
75 1/4-x,y,1/4-z
76 x,3/4-y,3/4-z
77 1/2+z,1/2+x,y
78 z,3/4-x,3/4-y
79 3/4-z,1/4-x,1/2+y
80 1/4-z,x,1/4-y
81 1/2+y,1/2+z,x
82 1/4-y,z,1/4-x
83 y,3/4-z,3/4-x
84 3/4-y,1/4-z,1/2+x
85 1/4+y,3/4+x,-z
86 -y,-x,1/2-z
87 3/4+y,1/2-x,3/4+z
88 1/2-y,1/4+x,1/4+z
89 1/4+x,3/4+z,-y
90 1/2-x,1/4+z,1/4+y
91 -x,-z,1/2-y
92 3/4+x,1/2-z,3/4+y
93 1/4+z,3/4+y,-x
94 3/4+z,1/2-y,3/4+x
95 1/2-z,1/4+y,1/4+x
96 -z,-y,1/2-x
97 -x,-y,-z
98 3/4+x,1/4+y,1/2-z
99 1/4+x,1/2-y,3/4+z
100 1/2-x,3/4+y,1/4+z
101 -z,-x,-y
102 1/2-z,3/4+x,1/4+y
103 3/4+z,1/4+x,1/2-y
104 1/4+z,1/2-x,3/4+y
105 -y,-z,-x
106 1/4+y,1/2-z,3/4+x
107 1/2-y,3/4+z,1/4+x
108 3/4+y,1/4+z,1/2-x
109 1/4-y,3/4-x,z
110 1/2+y,1/2+x,1/2+z
111 3/4-y,x,1/4-z
112 y,1/4-x,3/4-z
113 1/4-x,3/4-z,y
114 x,1/4-z,3/4-y
115 1/2+x,1/2+z,1/2+y
116 3/4-x,z,1/4-y
117 1/4-z,3/4-y,x
118 3/4-z,y,1/4-x
119 z,1/4-y,3/4-x
120 1/2+z,1/2+y,1/2+x
121 -x,1/2-y,1/2-z
122 3/4+x,3/4+y,-z
123 1/4+x,-y,1/4+z
124 1/2-x,1/4+y,3/4+z
125 -z,1/2-x,1/2-y
126 1/2-z,1/4+x,3/4+y
127 3/4+z,3/4+x,-y
128 1/4+z,-x,1/4+y
129 -y,1/2-z,1/2-x
130 1/4+y,-z,1/4+x
131 1/2-y,1/4+z,3/4+x
132 3/4+y,3/4+z,-x
133 1/4-y,1/4-x,1/2+z
134 1/2+y,x,z
135 3/4-y,1/2+x,3/4-z
136 y,3/4-x,1/4-z
137 1/4-x,1/4-z,1/2+y
138 x,3/4-z,1/4-y
139 1/2+x,z,y
140 3/4-x,1/2+z,3/4-y
141 1/4-z,1/4-y,1/2+x
142 3/4-z,1/2+y,3/4-x
143 z,3/4-y,1/4-x
144 1/2+z,y,x
145 1/2-x,-y,1/2-z
146 1/4+x,1/4+y,-z
147 3/4+x,1/2-y,1/4+z
148 -x,3/4+y,3/4+z
149 1/2-z,-x,1/2-y
150 -z,3/4+x,3/4+y
151 1/4+z,1/4+x,-y
152 3/4+z,1/2-x,1/4+y
153 1/2-y,-z,1/2-x
154 3/4+y,1/2-z,1/4+x
155 -y,3/4+z,3/4+x
156 1/4+y,1/4+z,-x
157 3/4-y,3/4-x,1/2+z
158 y,1/2+x,z
159 1/4-y,x,3/4-z
160 1/2+y,1/4-x,1/4-z
161 3/4-x,3/4-z,1/2+y
162 1/2+x,1/4-z,1/4-y
163 x,1/2+z,y
164 1/4-x,z,3/4-y
165 3/4-z,3/4-y,1/2+x
166 1/4-z,y,3/4-x
167 1/2+z,1/4-y,1/4-x
168 z,1/2+y,x
169 1/2-x,1/2-y,-z
170 1/4+x,3/4+y,1/2-z
171 3/4+x,-y,3/4+z
172 -x,1/4+y,1/4+z
173 1/2-z,1/2-x,-y
174 -z,1/4+x,1/4+y
175 1/4+z,3/4+x,1/2-y
176 3/4+z,-x,3/4+y
177 1/2-y,1/2-z,-x
178 3/4+y,-z,3/4+x
179 -y,1/4+z,1/4+x
180 1/4+y,3/4+z,1/2-x
181 3/4-y,1/4-x,z
182 y,x,1/2+z
183 1/4-y,1/2+x,1/4-z
184 1/2+y,3/4-x,3/4-z
185 3/4-x,1/4-z,y
186 1/2+x,3/4-z,3/4-y
187 x,z,1/2+y
188 1/4-x,1/2+z,1/4-y
189 3/4-z,1/4-y,x
190 1/4-z,1/2+y,1/4-x
191 1/2+z,3/4-y,3/4-x
192 z,y,1/2+x
_cell_length_a                   55.9032(14)
_cell_length_b                   55.9032(14)
_cell_length_c                   55.9032(14)
_cell_angle_alpha                90
_cell_angle_beta                 90
_cell_angle_gamma                90
_cell_volume                     174707
_exptl_crystal_colour            black
_exptl_crystal_description       rhombus
_cell_formula_units_Z            64
loop_
_atom_site_label
_atom_site_type_symbol
_atom_site_fract_x
_atom_site_fract_y
_atom_site_fract_z
C1 C 0.7335(2) 0.2675(2) 0.1276(2)
C2 C 0.7458(2) 0.2725(3) 0.1502(2)
C3 C 0.7437(2) 0.2953(3) 0.1594(3)
C4 C 0.7307(2) 0.3126(2) 0.1479(3)
C5 C 0.7187(2) 0.3076(2) 0.1270(2)
C6 C 0.72112(19) 0.2847(2) 0.1164(2)
C7 C 0.7086(2) 0.2797(2) 0.0951(2)
C8 C 0.6948(2) 0.2975(2) 0.0823(2)
C9 C 0.6855(3) 0.3134(2) 0.0723(2)
C10 C 0.6968(4) 0.3495(4) 0.0355(5)
C11 C 0.7076(4) 0.3280(4) 0.0196(4)
C12 C 0.7105(5) 0.3641(5) 0.0568(5)
C13 C 0.6614(5) 0.3633(5) 0.0787(5)
C14 C 0.6490(5) 0.3860(5) 0.0663(5)
C15 C 0.6388(4) 0.3505(4) 0.0898(4)
C16 C 0.6462(5) 0.3293(5) 0.0363(5)
C17 C 0.6405(4) 0.3463(4) 0.0138(4)
C18 C 0.6549(6) 0.3013(6) 0.0227(6)
C19 C 0.71034(19) 0.2570(2) 0.0851(2)
C20 C 0.70244(19) 0.2297(2) 0.0550(2)
C21 C 0.6877(2) 0.22170(19) 0.03496(19)
C22 C 0.6546(2) 0.2267(2) 0.0101(2)
C23 C 0.6327(2) 0.2366(2) 0.0058(2)
C24 C 0.6192(2) 0.2494(2) 0.0252(3)
C25 C 0.6062(2) 0.2575(3) 0.0398(3)
C26 C 0.6051(2) 0.2901(3) 0.0803(2)
C27 C 0.6292(3) 0.2786(3) 0.0904(3)
C28 C 0.5904(3) 0.3012(4) 0.1022(3)
C29 C 0.5602(5) 0.2799(4) 0.0549(4)
C30 C 0.5661(4) 0.3019(4) 0.0375(4)
C31 C 0.5450(5) 0.2657(6) 0.0352(5)
C32 C 0.5786(6) 0.2371(6) 0.0816(5)
C33 C 0.5798(8) 0.2455(7) 0.1090(6)
C34 C 0.5976(8) 0.2158(8) 0.0782(7)
N1 N 0.69780(15) 0.25064(17) 0.06488(17)
N2 N 0.66645(17) 0.23251(16) 0.03125(17)
Si1 Si 0.67379(8) 0.33839(8) 0.05356(8)
Si2 Si 0.58711(11) 0.26769(11) 0.06373(11)
C1G C 0.6224(2) 0.2335(2) -0.0175(2)
C2G C 0.5998(2) 0.2458(2) -0.0225(3)
C3G C 0.5906(3) 0.2437(2) -0.0453(3)
C4G C 0.6021(3) 0.2307(2) -0.0626(2)
C5G C 0.6230(2) 0.2187(2) -0.0576(2)
C6G C 0.6336(2) 0.22112(19) -0.0347(2)
C7G C 0.6549(2) 0.2086(2) -0.0297(2)
C8G C 0.6677(2) 0.1948(2) -0.0475(2)
C9G C 0.6777(2) 0.1855(3) -0.0634(2)
C10G C 0.7145(5) 0.1968(4) -0.0995(4)
C11G C 0.7304(4) 0.2076(4) -0.0780(4)
C12G C 0.6932(5) 0.2105(5) -0.1141(5)
C13G C 0.6713(5) 0.1614(5) -0.1133(5)
C14G C 0.6837(5) 0.1490(5) -0.1360(5)
C15G C 0.6602(4) 0.1388(4) -0.1005(4)
C16G C 0.7137(5) 0.1462(5) -0.0793(5)
C17G C 0.7362(4) 0.1405(4) -0.0963(4)
C18G C 0.7273(6) 0.1549(6) -0.0513(6)
C19G C 0.6649(2) 0.21034(19) -0.0070(2)
C20G C 0.6950(2) 0.20244(19) 0.0203(2)
C21G C 0.71504(19) 0.1877(2) 0.02830(19)
C22G C 0.7399(2) 0.1546(2) 0.0233(2)
C23G C 0.7442(2) 0.1327(2) 0.0134(2)
C24G C 0.7248(3) 0.1192(2) 0.0006(2)
C25G C 0.7102(3) 0.1062(2) -0.0075(3)
C26G C 0.6697(2) 0.1051(2) -0.0401(3)
C27G C 0.6596(3) 0.1292(3) -0.0286(3)
C28G C 0.6478(3) 0.0904(3) -0.0512(4)
C29G C 0.6951(4) 0.0602(5) -0.0299(4)
C30G C 0.7125(4) 0.0661(4) -0.0519(4)
C31G C 0.7148(5) 0.0450(5) -0.0157(6)
C32G C 0.6684(5) 0.0786(6) 0.0129(6)
C33G C 0.6410(6) 0.0798(8) 0.0045(7)
C34G C 0.6718(7) 0.0976(8) 0.0342(8)
N1G N 0.68512(17) 0.19780(15) -0.00064(17)
N2G N 0.71875(17) 0.16645(17) 0.01749(16)
Si1G Si 0.69644(8) 0.17379(8) -0.08839(8)
Si2G Si 0.68627(11) 0.08711(11) -0.01769(11)
C1J C 0.7675(2) 0.1224(2) 0.0165(2)
C2J C 0.7725(3) 0.0998(2) 0.0042(2)
C3J C 0.7953(3) 0.0906(3) 0.0063(2)
C4J C 0.8126(2) 0.1021(3) 0.0193(2)
C5J C 0.8076(2) 0.1230(2) 0.0313(2)
C6J C 0.7847(2) 0.1336(2) 0.02888(19)
C7J C 0.7797(2) 0.1549(2) 0.0414(2)
C8J C 0.7975(2) 0.1677(2) 0.0552(2)
C9J C 0.8134(2) 0.1777(2) 0.0645(3)
C10J C 0.8495(4) 0.2145(5) 0.0532(4)
C11J C 0.8280(4) 0.2304(4) 0.0424(4)
C12J C 0.8641(5) 0.1932(5) 0.0395(5)
C13J C 0.8633(5) 0.1713(5) 0.0886(5)
C14J C 0.8860(5) 0.1837(5) 0.1010(5)
C15J C 0.8505(4) 0.1602(4) 0.1112(4)
C16J C 0.8293(5) 0.2137(5) 0.1038(5)
C17J C 0.8463(4) 0.2362(4) 0.1095(4)
C18J C 0.8013(6) 0.2273(6) 0.0951(6)
C19J C 0.7570(2) 0.1649(2) 0.03966(19)
C20J C 0.7297(2) 0.1950(2) 0.04756(19)
C21J C 0.72170(19) 0.21504(19) 0.0623(2)
C22J C 0.7267(2) 0.2399(2) 0.0954(2)
C23J C 0.7366(2) 0.2442(2) 0.1173(2)
C24J C 0.7494(2) 0.2248(3) 0.1308(2)
C25J C 0.7575(3) 0.2102(3) 0.1438(2)
C26J C 0.7901(3) 0.1697(2) 0.1449(2)
C27J C 0.7786(3) 0.1596(3) 0.1208(3)
C28J C 0.8012(4) 0.1478(3) 0.1596(3)
C29J C 0.7799(4) 0.1951(4) 0.1898(5)
C30J C 0.8019(4) 0.2125(4) 0.1839(4)
C31J C 0.7657(6) 0.2148(5) 0.2050(5)
C32J C 0.7371(6) 0.1684(5) 0.1714(6)
C33J C 0.7455(7) 0.1410(6) 0.1702(8)
C34J C 0.7158(8) 0.1718(7) 0.1524(8)
N1J N 0.75064(17) 0.18512(17) 0.05220(15)
N2J N 0.73251(16) 0.21875(17) 0.08355(17)
Si1J Si 0.83839(8) 0.19644(8) 0.07621(8)
Si2J Si 0.76769(11) 0.18627(11) 0.16289(11)
loop_
_geom_bond_atom_site_label_1
_geom_bond_atom_site_label_2
_geom_bond_site_symmetry_1
_geom_bond_site_symmetry_2
C1 C2 1_555 1_555
C2 C3 1_555 1_555
C3 C4 1_555 1_555
C4 C5 1_555 1_555
C5 C6 1_555 1_555
C6 C1 1_555 1_555
C7 C6 1_555 1_555
C8 C7 1_555 1_555
C9 C8 1_555 1_555
C10 C11 1_555 1_555
C12 C10 1_555 1_555
C13 C14 1_555 1_555
C15 C13 1_555 1_555
C16 C17 1_555 1_555
C18 C16 1_555 1_555
C19 C7 1_555 1_555
C20 C21 1_555 1_555
C21 N2 1_555 1_555
C22 C23 1_555 1_555
C23 C24 1_555 1_555
C24 C25 1_555 1_555
C25 Si2 1_555 1_555
C26 C27 1_555 1_555
C28 C26 1_555 1_555
C29 C30 1_555 1_555
C31 C29 1_555 1_555
C32 C33 1_555 1_555
C34 C32 1_555 1_555
N1 C19 1_555 1_555
N2 C22 1_555 1_555
Si1 C9 1_555 1_555
Si2 C26 1_555 1_555
C1G C23 1_555 1_555
C2G C1G 1_555 1_555
C3G C2G 1_555 1_555
C4G C3G 1_555 1_555
C5G C4G 1_555 1_555
C6G C1G 1_555 1_555
C7G C6G 1_555 1_555
C8G C7G 1_555 1_555
C9G C8G 1_555 1_555
C10G C11G 1_555 1_555
C12G C10G 1_555 1_555
C13G C14G 1_555 1_555
C15G C13G 1_555 1_555
C16G C17G 1_555 1_555
C18G C16G 1_555 1_555
C19G C22 1_555 1_555
C20G C21 1_555 1_555
C21G C20G 1_555 1_555
C22G C23G 1_555 1_555
C23G C24G 1_555 1_555
C24G C25G 1_555 1_555
C25G Si2G 1_555 1_555
C26G C27G 1_555 1_555
C28G C26G 1_555 1_555
C29G C30G 1_555 1_555
C31G C29G 1_555 1_555
C32G C33G 1_555 1_555
C34G C32G 1_555 1_555
N1G C19G 1_555 1_555
N2G C21G 1_555 1_555
Si1G C9G 1_555 1_555
Si2G C26G 1_555 1_555
C1J C23G 1_555 1_555
C2J C1J 1_555 1_555
C3J C2J 1_555 1_555
C4J C3J 1_555 1_555
C5J C4J 1_555 1_555
C6J C1J 1_555 1_555
C7J C6J 1_555 1_555
C8J C7J 1_555 1_555
C9J C8J 1_555 1_555
C10J C11J 1_555 1_555
C12J C10J 1_555 1_555
C13J C14J 1_555 1_555
C15J C13J 1_555 1_555
C16J C17J 1_555 1_555
C18J C16J 1_555 1_555
C19J C22G 1_555 1_555
C20J C21G 1_555 1_555
C21J C20 1_555 1_555
C22J C19 1_555 1_555
C23J C1 1_555 1_555
C24J C23J 1_555 1_555
C25J C24J 1_555 1_555
C26J C27J 1_555 1_555
C28J C26J 1_555 1_555
C29J C30J 1_555 1_555
C31J C29J 1_555 1_555
C32J C33J 1_555 1_555
C34J C32J 1_555 1_555
N1J C19J 1_555 1_555
N2J C21J 1_555 1_555
Si1J C9J 1_555 1_555
Si2J C25J 1_555 1_555
C10 Si1 1_555 1_555
C13 Si1 1_555 1_555
C16 Si1 1_555 1_555
C20 N1 1_555 1_555
C29 Si2 1_555 1_555
C32 Si2 1_555 1_555
C5G C6G 1_555 1_555
C7G C19G 1_555 1_555
C10G Si1G 1_555 1_555
C13G Si1G 1_555 1_555
C16G Si1G 1_555 1_555
C20G N1G 1_555 1_555
C22G N2G 1_555 1_555
C29G Si2G 1_555 1_555
C32G Si2G 1_555 1_555
C5J C6J 1_555 1_555
C7J C19J 1_555 1_555
C10J Si1J 1_555 1_555
C13J Si1J 1_555 1_555
C16J Si1J 1_555 1_555
C20J C21J 1_555 1_555
C20J N1J 1_555 1_555
C22J C23J 1_555 1_555
C22J N2J 1_555 1_555
C26J Si2J 1_555 1_555
C29J Si2J 1_555 1_555
C32J Si2J 1_555 1_555

#END
