
#######################################################################
#
#                 Cambridge Crystallographic Data Centre
#                                CCDC 
#
#######################################################################
#
# If this CIF has been generated from an entry in the Cambridge 
# Structural Database, then it will include bibliographic, chemical, 
# crystal, experimental, refinement or atomic coordinate data resulting 
# from the CCDC's data processing and validation procedures.
#
#######################################################################

data_AGUROJ
_chemical_formula_moiety         'C25 H25 N3'
_chemical_name_systematic        
3-(9H-Fluoren-9-yl)-2-(diethylamino)-5-methyl-2H-indazole
_symmetry_cell_setting           monoclinic
_symmetry_space_group_name_H-M   'P 21/n'
_symmetry_Int_Tables_number      14
_space_group_name_Hall           '-P 2yn'
loop_
_symmetry_equiv_pos_site_id
_symmetry_equiv_pos_as_xyz
1 x,y,z
2 1/2+x,1/2-y,1/2+z
3 -x,-y,-z
4 1/2-x,1/2+y,1/2-z
_cell_length_a                   8.503(2)
_cell_length_b                   14.849(2)
_cell_length_c                   16.740(2)
_cell_angle_alpha                90
_cell_angle_beta                 100.59(2)
_cell_angle_gamma                90
_cell_volume                     2077.61
_exptl_crystal_colour            yellow
_exptl_crystal_description       prism
_chemical_melting_point          '203.1-204.0 deg.C'
_cell_formula_units_Z            4
_exptl_crystal_recrystallization_method ethanol
loop_
_atom_site_label
_atom_site_type_symbol
_atom_site_fract_x
_atom_site_fract_y
_atom_site_fract_z
N1 N 0.3180(4) 0.2248(2) 0.66339(17)
N2 N 0.3808(4) 0.16720(19) 0.61490(16)
N3 N 0.4068(5) 0.0759(2) 0.63695(19)
C1 C 0.3046(4) 0.3022(3) 0.6206(2)
C2 C 0.2442(5) 0.3858(3) 0.6408(2)
C3 C 0.2343(5) 0.4536(3) 0.5861(3)
C4 C 0.2828(5) 0.4450(3) 0.5096(2)
C5 C 0.3443(4) 0.3646(2) 0.4897(2)
C6 C 0.3558(4) 0.2921(2) 0.5443(2)
C7 C 0.4067(4) 0.2036(2) 0.54395(18)
C8 C 0.4812(4) 0.1531(2) 0.48246(19)
C9 C 0.3823(5) 0.1553(2) 0.3971(2)
C10 C 0.2276(5) 0.1298(3) 0.3702(3)
C11 C 0.1636(5) 0.1358(3) 0.2878(3)
C12 C 0.2566(7) 0.1665(3) 0.2335(3)
C13 C 0.4110(6) 0.1944(3) 0.2604(2)
C14 C 0.4753(5) 0.1892(2) 0.3429(2)
C15 C 0.6331(5) 0.2133(2) 0.3879(2)
C16 C 0.7660(6) 0.2505(3) 0.3631(3)
C17 C 0.9008(6) 0.2670(3) 0.4201(4)
C18 C 0.9082(5) 0.2474(3) 0.5001(3)
C19 C 0.7763(5) 0.2098(3) 0.5261(2)
C20 C 0.6397(5) 0.1929(2) 0.4699(2)
C21 C 0.2653(6) 0.5246(3) 0.4529(3)
C22 C 0.2484(11) 0.0288(4) 0.6325(6)
C23 C 0.1326(11) 0.0375(7) 0.6014(12)
C24 C 0.5200(12) 0.0667(4) 0.7137(4)
C25 C 0.6603(12) 0.1015(5) 0.7247(6)
H1 H 0.2114 0.3944 0.6916
H2 H 0.1927 0.5098 0.5994
H3 H 0.3789 0.3579 0.4392
H4 H 0.4975 0.0922 0.4994
H5 H 0.1644 0.1081 0.4073
H6 H 0.0556 0.1188 0.2685
H7 H 0.2128 0.1683 0.1770
H8 H 0.4733 0.2169 0.2232
H9 H 0.7636 0.2644 0.3075
H10 H 0.9915 0.2929 0.4032
H11 H 1.0034 0.2593 0.5381
H12 H 0.7804 0.1961 0.5819
H13 H 0.3673 0.5409 0.4421
H14 H 0.1964 0.5091 0.4035
H15 H 0.2210 0.5739 0.4774
H16 H 0.2721 -0.0307 0.6176
H17 H 0.2349 0.0294 0.6876
H18 H 0.4685 0.0915 0.7544
H19 H 0.5350 0.0038 0.7227
H20 H 0.1101 0.1001 0.5949
H21 H 0.1212 0.0098 0.5495
H22 H 0.0601 0.0108 0.6313
H23 H 0.7122 0.0918 0.7793
H24 H 0.7207 0.0741 0.6889
H25 H 0.6519 0.1643 0.7142
loop_
_geom_bond_atom_site_label_1
_geom_bond_atom_site_label_2
_geom_bond_site_symmetry_1
_geom_bond_site_symmetry_2
N1 N2 1_555 1_555
N2 N3 1_555 1_555
N3 C22 1_555 1_555
C1 N1 1_555 1_555
C2 C1 1_555 1_555
C3 C2 1_555 1_555
C4 C3 1_555 1_555
C5 C4 1_555 1_555
C6 C1 1_555 1_555
C7 N2 1_555 1_555
C8 C7 1_555 1_555
C9 C8 1_555 1_555
C10 C9 1_555 1_555
C11 C10 1_555 1_555
C12 C11 1_555 1_555
C13 C12 1_555 1_555
C14 C9 1_555 1_555
C15 C14 1_555 1_555
C16 C15 1_555 1_555
C17 C16 1_555 1_555
C18 C17 1_555 1_555
C19 C18 1_555 1_555
C20 C8 1_555 1_555
C21 C4 1_555 1_555
C22 C23 1_555 1_555
C23 H20 1_555 1_555
C24 N3 1_555 1_555
C25 C24 1_555 1_555
H1 C2 1_555 1_555
H2 C3 1_555 1_555
H3 C5 1_555 1_555
H4 C8 1_555 1_555
H5 C10 1_555 1_555
H6 C11 1_555 1_555
H7 C12 1_555 1_555
H8 C13 1_555 1_555
H9 C16 1_555 1_555
H10 C17 1_555 1_555
H11 C18 1_555 1_555
H12 C19 1_555 1_555
H13 C21 1_555 1_555
H14 C21 1_555 1_555
H15 C21 1_555 1_555
H16 C22 1_555 1_555
H17 C22 1_555 1_555
H18 C24 1_555 1_555
H19 C24 1_555 1_555
H21 C23 1_555 1_555
H22 C23 1_555 1_555
H23 C25 1_555 1_555
H24 C25 1_555 1_555
H25 C25 1_555 1_555
C5 C6 1_555 1_555
C6 C7 1_555 1_555
C13 C14 1_555 1_555
C15 C20 1_555 1_555
C19 C20 1_555 1_555

#END
