
#######################################################################
#
#                 Cambridge Crystallographic Data Centre
#                                CCDC 
#
#######################################################################
#
# If this CIF has been generated from an entry in the Cambridge 
# Structural Database, then it will include bibliographic, chemical, 
# crystal, experimental, refinement or atomic coordinate data resulting 
# from the CCDC's data processing and validation procedures.
#
#######################################################################

data_AGUSAW
_chemical_formula_moiety         'C30 H34'
_chemical_name_systematic        
2,7-Di-t-butyl-12c,12d-dimethyl-12c,12d-dihydrobenzo(e)pyrene
_symmetry_cell_setting           orthorhombic
_symmetry_space_group_name_H-M   'P b c a'
_symmetry_Int_Tables_number      61
_space_group_name_Hall           '-P 2ac 2ab'
loop_
_symmetry_equiv_pos_site_id
_symmetry_equiv_pos_as_xyz
1 x,y,z
2 1/2+x,y,1/2-z
3 x,1/2-y,1/2+z
4 1/2-x,1/2+y,z
5 -x,-y,-z
6 1/2-x,-y,1/2+z
7 -x,1/2+y,1/2-z
8 1/2+x,1/2-y,-z
_cell_length_a                   12.701(9)
_cell_length_b                   9.569(7)
_cell_length_c                   38.07(3)
_cell_angle_alpha                90
_cell_angle_beta                 90
_cell_angle_gamma                90
_cell_volume                     4626.87
_exptl_crystal_colour            red
_exptl_crystal_description       block
_cell_formula_units_Z            8
loop_
_atom_site_label
_atom_site_type_symbol
_atom_site_fract_x
_atom_site_fract_y
_atom_site_fract_z
C1 C 0.5411(2) 0.7545(3) 0.10535(6)
H1 H 0.4947 0.7326 0.0859
H2 H 0.6137 0.7480 0.0977
H3 H 0.5268 0.8486 0.1135
C2 C 0.5213(2) 0.6472(2) 0.13630(6)
C3 C 0.6005(2) 0.6831(2) 0.16491(6)
C4 C 0.5680(3) 0.7769(2) 0.19211(6)
H4 H 0.6195 0.8145 0.2071
C5 C 0.4662(2) 0.8136(2) 0.19717(6)
C6 C 0.3864(2) 0.7526(2) 0.17509(6)
H5 H 0.3156 0.7723 0.1802
C7 C 0.4077(2) 0.6681(2) 0.14718(6)
C8 C 0.3279(2) 0.6077(2) 0.12397(6)
C9 C 0.2211(2) 0.6484(3) 0.12605(6)
H6 H 0.2015 0.7154 0.1429
C10 C 0.1456(2) 0.5941(3) 0.10463(6)
H7 H 0.0753 0.6240 0.1067
C11 C 0.1731(3) 0.4938(3) 0.07960(7)
H8 H 0.1213 0.4548 0.0650
C12 C 0.2755(2) 0.4528(3) 0.07653(6)
H9 H 0.2927 0.3847 0.0597
C13 C 0.3565(2) 0.5088(2) 0.09762(6)
C14 C 0.4650(2) 0.4655(2) 0.09301(6)
C15 C 0.5004(2) 0.3886(2) 0.06526(6)
H10 H 0.4510 0.3600 0.0483
C16 C 0.6083(2) 0.3483(2) 0.06019(6)
C17 C 0.6818(2) 0.3966(3) 0.08313(6)
H11 H 0.7527 0.3717 0.0797
C18 C 0.6554(2) 0.4838(2) 0.11232(6)
C19 C 0.7297(3) 0.5446(3) 0.13329(7)
H12 H 0.8014 0.5257 0.1293
C20 C 0.7003(3) 0.6366(3) 0.16118(7)
H13 H 0.7518 0.6656 0.1774
C21 C 0.5412(2) 0.4992(2) 0.12259(6)
C22 C 0.5189(3) 0.3897(3) 0.15271(6)
H14 H 0.4471 0.4006 0.1610
H15 H 0.5674 0.4052 0.1720
H16 H 0.5284 0.2958 0.1436
C23 C 0.6350(2) 0.2571(2) 0.02814(6)
C24 C 0.5765(3) 0.1191(3) 0.03122(8)
H17 H 0.5013 0.1363 0.0311
H18 H 0.5960 0.0734 0.0530
H19 H 0.5950 0.0595 0.0116
C25 C 0.6001(3) 0.3331(3) -0.00575(6)
H20 H 0.5241 0.3424 -0.0059
H21 H 0.6223 0.2795 -0.0261
H22 H 0.6321 0.4251 -0.0066
C26 C 0.7529(3) 0.2273(3) 0.02542(7)
H23 H 0.7663 0.1693 0.0050
H24 H 0.7762 0.1790 0.0464
H25 H 0.7909 0.3147 0.0231
C27 C 0.4318(2) 0.9157(2) 0.22622(6)
C28 C 0.5237(3) 0.9623(3) 0.24909(8)
H26 H 0.5563 0.8811 0.2598
H27 H 0.4982 1.0245 0.2673
H28 H 0.5750 1.0109 0.2347
C29 C 0.3827(3) 1.0448(3) 0.20893(8)
H29 H 0.4343 1.0893 0.1939
H30 H 0.3604 1.1100 0.2270
H31 H 0.3223 1.0167 0.1950
C30 C 0.3505(3) 0.8469(3) 0.25048(7)
H32 H 0.2893 0.8194 0.2369
H33 H 0.3294 0.9127 0.2685
H34 H 0.3813 0.7649 0.2614
loop_
_geom_bond_atom_site_label_1
_geom_bond_atom_site_label_2
_geom_bond_site_symmetry_1
_geom_bond_site_symmetry_2
C1 H1 1_555 1_555
H2 C1 1_555 1_555
H3 C1 1_555 1_555
C2 C1 1_555 1_555
C3 C2 1_555 1_555
C4 C3 1_555 1_555
H4 C4 1_555 1_555
C5 C4 1_555 1_555
C6 C5 1_555 1_555
H5 C6 1_555 1_555
C7 C2 1_555 1_555
C8 C7 1_555 1_555
C9 C8 1_555 1_555
H6 C9 1_555 1_555
C10 C9 1_555 1_555
H7 C10 1_555 1_555
C11 C10 1_555 1_555
H8 C11 1_555 1_555
C12 C11 1_555 1_555
H9 C12 1_555 1_555
C13 C8 1_555 1_555
C14 C13 1_555 1_555
C15 C14 1_555 1_555
H10 C15 1_555 1_555
C16 C15 1_555 1_555
C17 C16 1_555 1_555
H11 C17 1_555 1_555
C18 C17 1_555 1_555
C19 C18 1_555 1_555
H12 C19 1_555 1_555
C20 C3 1_555 1_555
H13 C20 1_555 1_555
C21 C2 1_555 1_555
C22 C21 1_555 1_555
H14 C22 1_555 1_555
H15 C22 1_555 1_555
H16 C22 1_555 1_555
C23 C16 1_555 1_555
C24 C23 1_555 1_555
H17 C24 1_555 1_555
H18 C24 1_555 1_555
H19 C24 1_555 1_555
C25 C23 1_555 1_555
H20 C25 1_555 1_555
H21 C25 1_555 1_555
H22 C25 1_555 1_555
C26 C23 1_555 1_555
H23 C26 1_555 1_555
H24 C26 1_555 1_555
H25 C26 1_555 1_555
C27 C5 1_555 1_555
C28 C27 1_555 1_555
H26 C28 1_555 1_555
H27 C28 1_555 1_555
H28 C28 1_555 1_555
C29 C27 1_555 1_555
H29 C29 1_555 1_555
H30 C29 1_555 1_555
H31 C29 1_555 1_555
C30 C27 1_555 1_555
H32 C30 1_555 1_555
H33 C30 1_555 1_555
H34 C30 1_555 1_555
C6 C7 1_555 1_555
C12 C13 1_555 1_555
C14 C21 1_555 1_555
C18 C21 1_555 1_555
C19 C20 1_555 1_555

#END
