
#######################################################################
#
#                 Cambridge Crystallographic Data Centre
#                                CCDC 
#
#######################################################################
#
# If this CIF has been generated from an entry in the Cambridge 
# Structural Database, then it will include bibliographic, chemical, 
# crystal, experimental, refinement or atomic coordinate data resulting 
# from the CCDC's data processing and validation procedures.
#
#######################################################################

data_AGUVEF
_chemical_formula_moiety         'C12 H11 N3 S2'
_chemical_name_systematic        
N-Phenyl-2-(2-thienylmethylene)hydrazinecarbothioamide
_symmetry_cell_setting           triclinic
_symmetry_space_group_name_H-M   'P -1'
_symmetry_Int_Tables_number      2
_space_group_name_Hall           '-P 1'
loop_
_symmetry_equiv_pos_site_id
_symmetry_equiv_pos_as_xyz
1 x,y,z
2 -x,-y,-z
_cell_length_a                   5.7239(11)
_cell_length_b                   10.0856(19)
_cell_length_c                   11.558(2)
_cell_angle_alpha                72.374(3)
_cell_angle_beta                 81.929(4)
_cell_angle_gamma                88.249(4)
_cell_volume                     629.558
_exptl_crystal_colour            colorless
_exptl_crystal_description       block
_cell_formula_units_Z            2
loop_
_atom_site_label
_atom_site_type_symbol
_atom_site_fract_x
_atom_site_fract_y
_atom_site_fract_z
S1 S -0.00235(19) 0.61966(11) 0.63293(10)
S2 S -0.9538(3) 0.18184(15) 0.76259(14)
N1 N -0.4363(6) 0.5542(3) 0.7558(3)
H1 H -0.5675 0.5118 0.7615
N2 N -0.3113(6) 0.4405(3) 0.6191(3)
H2 H -0.2166 0.4308 0.5575
N3 N -0.5120(6) 0.3585(3) 0.6618(3)
C1 C -0.2556(8) 0.6200(4) 0.9102(4)
H3 H -0.1327 0.5589 0.9043
C2 C -0.2644(8) 0.6946(5) 0.9926(4)
H4 H -0.1452 0.6841 1.0416
C3 C -0.4438(9) 0.7833(5) 1.0040(4)
H5 H -0.4483 0.8326 1.0605
C4 C -0.6193(8) 0.7992(5) 0.9302(4)
H6 H -0.7425 0.8599 0.9370
C5 C -0.6131(8) 0.7258(4) 0.8465(4)
H7 H -0.7318 0.7366 0.7972
C6 C -0.4299(7) 0.6368(4) 0.8367(3)
C7 C -0.2623(7) 0.5352(4) 0.6726(3)
C8 C -0.5383(7) 0.2634(4) 0.6112(4)
H8 H -0.4264 0.2558 0.5470
C9 C -0.7342(7) 0.1697(4) 0.6513(4)
C10 C -0.7743(7) 0.0509(4) 0.6055(4)
H9 H -0.6758 0.0214 0.5473
C11 C -0.9959(11) -0.0081(5) 0.6696(6)
H10 H -1.0627 -0.0827 0.6540
C12 C -1.1019(9) 0.0476(5) 0.7521(5)
H11 H -1.2453 0.0151 0.7997
loop_
_geom_bond_atom_site_label_1
_geom_bond_atom_site_label_2
_geom_bond_site_symmetry_1
_geom_bond_site_symmetry_2
S1 C7 1_555 1_555
S2 C9 1_555 1_555
N1 H1 1_555 1_555
N2 H2 1_555 1_555
N3 N2 1_555 1_555
C1 H3 1_555 1_555
C2 C1 1_555 1_555
H4 C2 1_555 1_555
C3 C2 1_555 1_555
H5 C3 1_555 1_555
C4 C3 1_555 1_555
H6 C4 1_555 1_555
C5 C4 1_555 1_555
H7 C5 1_555 1_555
C6 N1 1_555 1_555
C7 N1 1_555 1_555
C8 N3 1_555 1_555
H8 C8 1_555 1_555
C9 C8 1_555 1_555
C10 C9 1_555 1_555
H9 C10 1_555 1_555
C11 C10 1_555 1_555
H10 C11 1_555 1_555
C12 S2 1_555 1_555
H11 C12 1_555 1_555
N2 C7 1_555 1_555
C1 C6 1_555 1_555
C5 C6 1_555 1_555
C11 C12 1_555 1_555

#END
