
#######################################################################
#
#                 Cambridge Crystallographic Data Centre
#                                CCDC 
#
#######################################################################
#
# If this CIF has been generated from an entry in the Cambridge 
# Structural Database, then it will include bibliographic, chemical, 
# crystal, experimental, refinement or atomic coordinate data resulting 
# from the CCDC's data processing and validation procedures.
#
#######################################################################

data_AHASOS
_chemical_formula_moiety         'C18 H12 Br1 N1 O1'
_chemical_name_systematic        
3-(4-Bromophenyl)-3H-pyrrolo[1,2-a]indole-2-carbaldehyde
_symmetry_cell_setting           monoclinic
_symmetry_space_group_name_H-M   'P 21'
_symmetry_Int_Tables_number      4
_space_group_name_Hall           'P 2yb'
loop_
_symmetry_equiv_pos_site_id
_symmetry_equiv_pos_as_xyz
1 x,y,z
2 -x,1/2+y,-z
_cell_length_a                   11.0405(11)
_cell_length_b                   6.0737(6)
_cell_length_c                   11.1674(10)
_cell_angle_alpha                90
_cell_angle_beta                 103.825(4)
_cell_angle_gamma                90
_cell_volume                     727.155
_exptl_crystal_colour            yellow
_exptl_crystal_description       block
_cell_formula_units_Z            2
loop_
_atom_site_label
_atom_site_type_symbol
_atom_site_fract_x
_atom_site_fract_y
_atom_site_fract_z
Br1 Br -0.00836(3) 0.39566(9) 0.28749(3)
C1 C 0.5057(2) -0.0054(6) 0.7114(3)
C2 C 0.5163(3) -0.1971(6) 0.7728(3)
H1 H 0.5699 -0.3116 0.7654
C3 C 0.4303(3) -0.1963(5) 0.8526(3)
C4 C 0.3947(3) -0.3135(5) 0.9415(3)
H2 H 0.4229 -0.4524 0.9705
C5 C 0.3052(3) -0.1814(5) 0.9817(3)
C6 C 0.2347(3) -0.2106(7) 1.0704(3)
H3 H 0.2405 -0.3402 1.1157
C7 C 0.1580(3) -0.0452(8) 1.0882(3)
H4 H 0.1112 -0.0638 1.1466
C8 C 0.1469(3) 0.1528(7) 1.0216(3)
H5 H 0.0944 0.2629 1.0377
C9 C 0.2127(3) 0.1862(6) 0.9326(3)
H6 H 0.2047 0.3160 0.8873
C10 C 0.2911(2) 0.0185(5) 0.9136(3)
C11 C 0.4065(2) 0.1421(5) 0.7435(3)
H7 H 0.4454 0.2763 0.7840
C12 C 0.5795(3) 0.0596(9) 0.6258(4)
H8 H 0.6325 -0.0440 0.6041
C13 C 0.3014(2) 0.2027(5) 0.6335(2)
C14 C 0.2586(3) 0.0522(5) 0.5406(3)
H9 H 0.2931 -0.0882 0.5468
C15 C 0.1657(3) 0.1062(6) 0.4391(3)
H10 H 0.1377 0.0033 0.3770
C16 C 0.1147(3) 0.3130(6) 0.4301(3)
C17 C 0.1530(3) 0.4624(5) 0.5216(3)
H11 H 0.1161 0.6009 0.5154
C18 C 0.2469(2) 0.4099(6) 0.6243(3)
H12 H 0.2733 0.5130 0.6866
N1 N 0.36715(19) 0.0017(4) 0.8336(2)
O1 O 0.5755(3) 0.2404(6) 0.5817(3)
loop_
_geom_bond_atom_site_label_1
_geom_bond_atom_site_label_2
_geom_bond_site_symmetry_1
_geom_bond_site_symmetry_2
Br1 C16 1_555 1_555
C1 C2 1_555 1_555
C2 H1 1_555 1_555
C3 C2 1_555 1_555
C4 C3 1_555 1_555
H2 C4 1_555 1_555
C5 C4 1_555 1_555
C6 C5 1_555 1_555
H3 C6 1_555 1_555
C7 C6 1_555 1_555
H4 C7 1_555 1_555
C8 C7 1_555 1_555
H5 C8 1_555 1_555
C9 C8 1_555 1_555
H6 C9 1_555 1_555
C10 C5 1_555 1_555
C11 C1 1_555 1_555
H7 C11 1_555 1_555
C12 C1 1_555 1_555
H8 C12 1_555 1_555
C13 C11 1_555 1_555
C14 C13 1_555 1_555
H9 C14 1_555 1_555
C15 C14 1_555 1_555
H10 C15 1_555 1_555
C16 C15 1_555 1_555
C17 C16 1_555 1_555
H11 C17 1_555 1_555
C18 C13 1_555 1_555
H12 C18 1_555 1_555
N1 C3 1_555 1_555
O1 C12 1_555 1_555
C9 C10 1_555 1_555
C10 N1 1_555 1_555
C11 N1 1_555 1_555
C17 C18 1_555 1_555

#END
