
#######################################################################
#
#                 Cambridge Crystallographic Data Centre
#                                CCDC 
#
#######################################################################
#
# If this CIF has been generated from an entry in the Cambridge 
# Structural Database, then it will include bibliographic, chemical, 
# crystal, experimental, refinement or atomic coordinate data resulting 
# from the CCDC's data processing and validation procedures.
#
#######################################################################

data_AHATAF
_chemical_formula_moiety         'C36 H33 N1 O2'
_chemical_name_systematic        
5-(4-Methoxyphenyl)-1-methyl-3,6-diphenyl-4-(1-phenylprop-1-en-2-yl)-4,5,6,7-tetrahydrofuro[3,4-c]pyridine
_symmetry_cell_setting           triclinic
_symmetry_space_group_name_H-M   'P -1'
_symmetry_Int_Tables_number      2
_space_group_name_Hall           '-P 1'
loop_
_symmetry_equiv_pos_site_id
_symmetry_equiv_pos_as_xyz
1 x,y,z
2 -x,-y,-z
_cell_length_a                   10.8473(9)
_cell_length_b                   11.0097(9)
_cell_length_c                   12.8705(10)
_cell_angle_alpha                83.079(2)
_cell_angle_beta                 71.903(2)
_cell_angle_gamma                71.761(2)
_cell_volume                     1387.17
_exptl_crystal_colour            colorless
_exptl_crystal_description       block
_cell_formula_units_Z            2
loop_
_atom_site_label
_atom_site_type_symbol
_atom_site_fract_x
_atom_site_fract_y
_atom_site_fract_z
N1 N 1.16505(11) 0.75178(11) 0.15878(9)
O1 O 0.79729(11) 0.62888(12) -0.00528(9)
O2 O 0.86996(10) 0.98795(9) 0.45142(8)
C1 C 1.38992(15) 0.77430(15) -0.03649(13)
H1 H 1.4138 0.7043 0.0115
C2 C 1.46867(16) 0.77185(16) -0.14399(14)
H2 H 1.5456 0.7005 -0.1694
C3 C 1.43532(18) 0.87360(17) -0.21484(14)
H3 H 1.4890 0.8723 -0.2890
C4 C 1.32368(18) 0.97657(17) -0.17671(14)
H4 H 1.3005 1.0465 -0.2249
C5 C 1.24460(16) 0.97911(15) -0.06823(12)
H5 H 1.1684 1.0511 -0.0428
C6 C 1.27616(14) 0.87731(13) 0.00307(12)
C7 C 1.19645(14) 0.87562(13) 0.12281(11)
H6 H 1.2587 0.8809 0.1642
C8 C 1.06920(15) 0.98866(13) 0.16008(11)
H7 H 1.0940 1.0695 0.1493
H8 H 1.0063 0.9947 0.1167
C9 C 1.00224(14) 0.96756(13) 0.27897(12)
C10 C 1.04007(14) 0.84897(13) 0.33720(11)
C11 C 1.14396(14) 0.73230(13) 0.27838(11)
H9 H 1.1036 0.6597 0.3014
C12 C 0.89915(14) 1.04805(14) 0.35069(12)
C13 C 0.95733(14) 0.86511(13) 0.44197(11)
C14 C 0.93918(14) 0.78335(13) 0.54020(11)
C15 C 1.01627(15) 0.65488(14) 0.53883(12)
H10 H 1.0831 0.6205 0.4735
C16 C 0.99617(16) 0.57712(14) 0.63195(12)
H11 H 1.0486 0.4898 0.6293
C17 C 0.90099(16) 0.62494(15) 0.72857(12)
H12 H 0.8877 0.5713 0.7921
C18 C 0.82515(16) 0.75271(15) 0.73123(12)
H13 H 0.7602 0.7869 0.7974
C19 C 0.84315(15) 0.83075(15) 0.63857(12)
H14 H 0.7896 0.9177 0.6417
C20 C 1.28166(14) 0.68864(13) 0.30037(11)
C21 C 1.36523(15) 0.55912(14) 0.25509(13)
H15 H 1.4526 0.5349 0.2710
H16 H 1.3806 0.5620 0.1758
H17 H 1.3170 0.4960 0.2890
C22 C 1.31810(14) 0.76155(13) 0.35472(11)
H18 H 1.2527 0.8415 0.3767
C23 C 1.44394(14) 0.73712(14) 0.38580(11)
C24 C 1.47807(16) 0.84221(16) 0.40686(13)
H19 H 1.4223 0.9261 0.3974
C25 C 1.59119(17) 0.82681(17) 0.44111(14)
H20 H 1.6130 0.8998 0.4537
C26 C 1.67239(16) 0.70594(18) 0.45703(13)
H21 H 1.7494 0.6951 0.4815
C27 C 1.64031(17) 0.60085(17) 0.43695(15)
H22 H 1.6959 0.5172 0.4475
C28 C 1.52814(16) 0.61606(15) 0.40169(13)
H23 H 1.5081 0.5425 0.3880
C29 C 1.06395(14) 0.72858(12) 0.12023(11)
C30 C 0.94067(14) 0.71694(13) 0.18941(11)
H24 H 0.9180 0.7328 0.2650
C31 C 0.84957(15) 0.68274(14) 0.15135(12)
H25 H 0.7673 0.6733 0.2009
C32 C 0.87933(15) 0.66264(14) 0.04131(12)
C33 C 1.00023(16) 0.67690(15) -0.02997(12)
H26 H 1.0204 0.6649 -0.1060
C34 C 1.09108(15) 0.70827(14) 0.00878(12)
H27 H 1.1738 0.7163 -0.0410
C35 C 0.68082(17) 0.60000(19) 0.06748(15)
H28 H 0.6309 0.5762 0.0254
H29 H 0.6223 0.6753 0.1106
H30 H 0.7090 0.5286 0.1166
C36 C 0.81530(16) 1.18197(14) 0.34070(13)
H31 H 0.8452 1.2143 0.2656
H32 H 0.8255 1.2354 0.3913
H33 H 0.7199 1.1846 0.3586
loop_
_geom_bond_atom_site_label_1
_geom_bond_atom_site_label_2
_geom_bond_site_symmetry_1
_geom_bond_site_symmetry_2
N1 C7 1_555 1_555
O1 C32 1_555 1_555
O2 C12 1_555 1_555
C1 H1 1_555 1_555
C2 C1 1_555 1_555
H2 C2 1_555 1_555
C3 C2 1_555 1_555
H3 C3 1_555 1_555
C4 C3 1_555 1_555
H4 C4 1_555 1_555
C5 C4 1_555 1_555
H5 C5 1_555 1_555
C6 C1 1_555 1_555
C7 C6 1_555 1_555
H6 C7 1_555 1_555
C8 C7 1_555 1_555
H7 C8 1_555 1_555
H8 C8 1_555 1_555
C9 C8 1_555 1_555
C10 C9 1_555 1_555
C11 N1 1_555 1_555
H9 C11 1_555 1_555
C12 C9 1_555 1_555
C13 O2 1_555 1_555
C14 C13 1_555 1_555
C15 C14 1_555 1_555
H10 C15 1_555 1_555
C16 C15 1_555 1_555
H11 C16 1_555 1_555
C17 C16 1_555 1_555
H12 C17 1_555 1_555
C18 C17 1_555 1_555
H13 C18 1_555 1_555
C19 C14 1_555 1_555
H14 C19 1_555 1_555
C20 C11 1_555 1_555
C21 C20 1_555 1_555
H15 C21 1_555 1_555
H16 C21 1_555 1_555
H17 C21 1_555 1_555
C22 C20 1_555 1_555
H18 C22 1_555 1_555
C23 C22 1_555 1_555
C24 C23 1_555 1_555
H19 C24 1_555 1_555
C25 C24 1_555 1_555
H20 C25 1_555 1_555
C26 C25 1_555 1_555
H21 C26 1_555 1_555
C27 C26 1_555 1_555
H22 C27 1_555 1_555
C28 C23 1_555 1_555
H23 C28 1_555 1_555
C29 N1 1_555 1_555
C30 C29 1_555 1_555
H24 C30 1_555 1_555
C31 C30 1_555 1_555
H25 C31 1_555 1_555
C32 C31 1_555 1_555
C33 C32 1_555 1_555
H26 C33 1_555 1_555
C34 C29 1_555 1_555
H27 C34 1_555 1_555
C35 O1 1_555 1_555
H28 C35 1_555 1_555
H29 C35 1_555 1_555
H30 C35 1_555 1_555
C36 C12 1_555 1_555
H31 C36 1_555 1_555
H32 C36 1_555 1_555
H33 C36 1_555 1_555
C5 C6 1_555 1_555
C10 C11 1_555 1_555
C10 C13 1_555 1_555
C18 C19 1_555 1_555
C27 C28 1_555 1_555
C33 C34 1_555 1_555

#END
