
#######################################################################
#
#                 Cambridge Crystallographic Data Centre
#                                CCDC 
#
#######################################################################
#
# If this CIF has been generated from an entry in the Cambridge 
# Structural Database, then it will include bibliographic, chemical, 
# crystal, experimental, refinement or atomic coordinate data resulting 
# from the CCDC's data processing and validation procedures.
#
#######################################################################

data_AHECUN
_chemical_formula_moiety         'C29 H23 Cl1 N2 O1,0.5(H2 O1)'
_chemical_name_systematic        
'4-(4-chlorophenyl)-1-phenyl-4-(2-phenyl-1H-benzimidazol-1-yl)butan-1-one hemihydrate'
_symmetry_cell_setting           tetragonal
_symmetry_space_group_name_H-M   'P 43 21 2'
_symmetry_Int_Tables_number      96
_space_group_name_Hall           'P 4nw 2abw'
loop_
_symmetry_equiv_pos_site_id
_symmetry_equiv_pos_as_xyz
1 x,y,z
2 -x,-y,1/2+z
3 1/2-y,1/2+x,3/4+z
4 1/2+y,1/2-x,1/4+z
5 1/2-x,1/2+y,3/4-z
6 1/2+x,1/2-y,1/4-z
7 y,x,-z
8 -y,-x,1/2-z
_cell_length_a                   9.63175(7)
_cell_length_b                   9.63175(7)
_cell_length_c                   51.6955(6)
_cell_angle_alpha                90
_cell_angle_beta                 90
_cell_angle_gamma                90
_cell_volume                     4795.82
_exptl_crystal_colour            'light colorless'
_cell_formula_units_Z            8
loop_
_atom_site_label
_atom_site_type_symbol
_atom_site_fract_x
_atom_site_fract_y
_atom_site_fract_z
Cl1 Cl 0.99582(11) 1.32984(10) 0.63948(2)
N1 N 0.5702(2) 0.9063(2) 0.70680(4)
N2 N 0.3695(3) 0.9017(3) 0.72883(5)
O1 O 0.6255(4) 0.5674(3) 0.66297(5)
C1 C 0.4300(3) 0.8792(3) 0.70650(5)
C2 C 0.7587(3) 0.9792(3) 0.67730(5)
C3 C 0.6013(3) 0.9481(3) 0.73200(5)
C4 C 0.4750(3) 0.9446(3) 0.74517(5)
C5 C 0.3542(3) 0.8291(3) 0.68350(5)
C6 C 0.6724(3) 0.8590(3) 0.68769(5)
H1 H 0.6193 0.8227 0.6730
C7 C 0.7025(3) 1.1091(3) 0.67482(6)
H2 H 0.6137 1.1255 0.6812
C8 C 0.7743(4) 1.2170(3) 0.66312(6)
H3 H 0.7336 1.3041 0.6614
C9 C 0.2622(4) 0.7199(4) 0.68653(7)
H4 H 0.2510 0.6784 0.7026
C10 C 0.4918(4) 0.4295(3) 0.69050(6)
C11 C 0.4693(4) 0.9812(4) 0.77141(6)
H5 H 0.3859 0.9794 0.7805
C12 C 0.7243(4) 0.9873(4) 0.74394(6)
H6 H 0.8081 0.9894 0.7350
C13 C 0.9047(3) 1.1935(3) 0.65426(5)
C14 C 0.5947(4) 0.5406(3) 0.68504(6)
C15 C 0.3694(4) 0.8907(4) 0.65927(6)
H7 H 0.4314 0.9638 0.6570
C16 C 0.7551(3) 0.7362(3) 0.69868(7)
H8 H 0.8194 0.7031 0.6856
H9 H 0.8091 0.7677 0.7134
C17 C 0.6623(4) 0.6172(3) 0.70709(6)
H10 H 0.7171 0.5520 0.7171
H11 H 0.5903 0.6535 0.7183
C18 C 0.5904(5) 1.0197(4) 0.78322(6)
H12 H 0.5890 1.0443 0.8006
C19 C 0.7160(4) 1.0230(4) 0.76983(7)
H13 H 0.7962 1.0499 0.7785
C20 C 0.4176(4) 0.3730(4) 0.67012(8)
H14 H 0.4319 0.4061 0.6534
C21 C 0.8925(4) 0.9600(4) 0.66813(8)
H15 H 0.9343 0.8734 0.6698
C22 C 0.2925(4) 0.8434(5) 0.63867(7)
H16 H 0.3023 0.8852 0.6226
C23 C 0.9652(4) 1.0672(4) 0.65650(9)
H17 H 1.0546 1.0525 0.6503
C24 C 0.1870(4) 0.6727(5) 0.66554(8)
H18 H 0.1262 0.5985 0.6675
C25 C 0.4675(6) 0.3770(4) 0.71500(7)
H19 H 0.5158 0.4129 0.7291
C26 C 0.2013(5) 0.7348(5) 0.64172(8)
H20 H 0.1495 0.7034 0.6277
C27 C 0.3234(5) 0.2688(5) 0.67423(10)
H21 H 0.2753 0.2315 0.6603
C28 C 0.2991(5) 0.2190(5) 0.69839(10)
H22 H 0.2334 0.1497 0.7010
C29 C 0.3720(7) 0.2714(5) 0.71876(10)
H23 H 0.3574 0.2362 0.7353
O2 O 0.0828(4) 0.9172(4) 0.7500
H24 H 0.0922 1.0089 0.7482
H24G H -0.0089 0.9078 0.7518
H25? H 0.1519 0.8919 0.7409
loop_
_geom_bond_atom_site_label_1
_geom_bond_atom_site_label_2
_geom_bond_site_symmetry_1
_geom_bond_site_symmetry_2
Cl1 C13 1_555 1_555
N1 C1 1_555 1_555
N2 C1 1_555 1_555
O1 C14 1_555 1_555
C1 C5 1_555 1_555
C2 C6 1_555 1_555
C3 N1 1_555 1_555
C4 N2 1_555 1_555
C5 C9 1_555 1_555
C6 N1 1_555 1_555
H1 C6 1_555 1_555
C7 C2 1_555 1_555
H2 C7 1_555 1_555
C8 C7 1_555 1_555
H3 C8 1_555 1_555
C9 H4 1_555 1_555
C10 C14 1_555 1_555
C11 C4 1_555 1_555
H5 C11 1_555 1_555
C12 C3 1_555 1_555
H6 C12 1_555 1_555
C13 C8 1_555 1_555
C14 C17 1_555 1_555
C15 C5 1_555 1_555
H7 C15 1_555 1_555
C16 C6 1_555 1_555
H8 C16 1_555 1_555
H9 C16 1_555 1_555
C17 C16 1_555 1_555
H10 C17 1_555 1_555
H11 C17 1_555 1_555
C18 C11 1_555 1_555
H12 C18 1_555 1_555
C19 C12 1_555 1_555
H13 C19 1_555 1_555
C20 C10 1_555 1_555
H14 C20 1_555 1_555
C21 C2 1_555 1_555
H15 C21 1_555 1_555
C22 C15 1_555 1_555
H16 C22 1_555 1_555
C23 C13 1_555 1_555
H17 C23 1_555 1_555
C24 C9 1_555 1_555
H18 C24 1_555 1_555
C25 C10 1_555 1_555
H19 C25 1_555 1_555
C26 C22 1_555 1_555
H20 C26 1_555 1_555
C27 C20 1_555 1_555
H21 C27 1_555 1_555
C28 C27 1_555 1_555
H22 C28 1_555 1_555
C29 C25 1_555 1_555
H23 C29 1_555 1_555
O2 H24 1_555 1_555
H24G O2 1_555 1_555
C3 C4 1_555 1_555
C18 C19 1_555 1_555
C21 C23 1_555 1_555
C24 C26 1_555 1_555
C28 C29 1_555 1_555

#END
