
#######################################################################
#
#                 Cambridge Crystallographic Data Centre
#                                CCDC 
#
#######################################################################
#
# If this CIF has been generated from an entry in the Cambridge 
# Structural Database, then it will include bibliographic, chemical, 
# crystal, experimental, refinement or atomic coordinate data resulting 
# from the CCDC's data processing and validation procedures.
#
#######################################################################

data_AHEDIC
_chemical_formula_moiety         'C19 H18 F1 N1 O3 S1'
_chemical_name_systematic        
'methyl 3-(3-fluorophenyl)-1-methyl-1,9b-dihydro-3H-thiochromeno[4,3-c][1,2]oxazole-3a(4H)-carboxylate'
_symmetry_cell_setting           monoclinic
_symmetry_space_group_name_H-M   'P 21/n'
_symmetry_Int_Tables_number      14
_space_group_name_Hall           '-P 2yn'
loop_
_symmetry_equiv_pos_site_id
_symmetry_equiv_pos_as_xyz
1 x,y,z
2 1/2-x,1/2+y,1/2-z
3 -x,-y,-z
4 1/2+x,1/2-y,1/2+z
_cell_length_a                   10.7729(8)
_cell_length_b                   12.6361(8)
_cell_length_c                   12.6250(10)
_cell_angle_alpha                90
_cell_angle_beta                 92.992(3)
_cell_angle_gamma                90
_cell_volume                     1716.27
_exptl_crystal_colour            colorless
_exptl_crystal_description       Block
_cell_formula_units_Z            4
loop_
_atom_site_label
_atom_site_type_symbol
_atom_site_fract_x
_atom_site_fract_y
_atom_site_fract_z
S1 S 0.38912(6) -0.09256(5) 0.73827(6)
O1 O 0.14448(16) 0.08198(17) 0.72833(14)
O2 O 0.44199(15) 0.19965(17) 0.95772(13)
F1 F -0.09742(14) 0.14114(17) 1.01633(15)
C1 C 0.54244(19) 0.08164(16) 0.70941(16)
C2 C 0.5127(2) -0.02335(18) 0.68520(17)
C3 C 0.34366(18) 0.10865(17) 0.81229(16)
C4 C 0.3219(2) 0.18273(19) 0.90866(17)
C5 C 0.47396(19) 0.14639(17) 0.78729(16)
C6 C 0.25020(19) 0.13405(18) 0.72143(16)
C7 C 0.2322(2) 0.14500(17) 0.98805(16)
C8 C 0.3454(2) -0.00741(18) 0.84444(18)
C9 C 0.1063(2) 0.16036(18) 0.96619(18)
H1 H 0.0780 0.1928 0.9034
C10 C 0.0609(3) 0.0799(2) 1.1315(2)
H2 H 0.0030 0.0583 1.1791
C11 C 0.6370(2) 0.12968(19) 0.65535(18)
H3 H 0.6571 0.1999 0.6700
C12 C 0.2719(2) 0.0969(2) 1.08214(19)
H4 H 0.3562 0.0861 1.0977
C13 C 0.6718(2) -0.0280(2) 0.55821(19)
H5 H 0.7149 -0.0649 0.5081
C14 C 0.7016(2) 0.0757(2) 0.58066(19)
H6 H 0.7647 0.1091 0.5459
C15 C 0.5789(2) -0.0770(2) 0.60926(19)
H7 H 0.5594 -0.1472 0.5933
C16 C 0.0242(2) 0.1273(2) 1.0381(2)
C17 C 0.1858(3) 0.0649(2) 1.1532(2)
H8 H 0.2130 0.0328 1.2165
C18 C 0.6429(2) 0.2148(2) 0.9055(2)
H9 H 0.6781 0.2105 0.9768
H10 H 0.6183 0.2864 0.8902
H11 H 0.7036 0.1929 0.8570
C19 C 0.0474(3) 0.1068(3) 0.6484(3)
H12 H -0.0251 0.0652 0.6606
H13 H 0.0759 0.0911 0.5794
H14 H 0.0270 0.1806 0.6524
N1 N 0.53515(17) 0.14612(15) 0.89425(14)
O3 O 0.26780(16) 0.19605(16) 0.65350(14)
H15 H 0.264(2) -0.0329(19) 0.8609(18)
H16 H 0.403(2) -0.0170(19) 0.902(2)
H17 H 0.469(2) 0.2167(19) 0.7624(17)
H18 H 0.294(2) 0.249(2) 0.8768(19)
loop_
_geom_bond_atom_site_label_1
_geom_bond_atom_site_label_2
_geom_bond_site_symmetry_1
_geom_bond_site_symmetry_2
S1 C2 1_555 1_555
O1 C6 1_555 1_555
O2 C4 1_555 1_555
F1 C16 1_555 1_555
C1 C2 1_555 1_555
C2 C15 1_555 1_555
C3 C4 1_555 1_555
C4 C7 1_555 1_555
C5 C1 1_555 1_555
C6 C3 1_555 1_555
C7 C9 1_555 1_555
C8 S1 1_555 1_555
C9 H1 1_555 1_555
C10 H2 1_555 1_555
C11 C1 1_555 1_555
H3 C11 1_555 1_555
C12 C7 1_555 1_555
H4 C12 1_555 1_555
C13 H5 1_555 1_555
C14 C11 1_555 1_555
H6 C14 1_555 1_555
C15 C13 1_555 1_555
H7 C15 1_555 1_555
C16 C9 1_555 1_555
C17 C10 1_555 1_555
H8 C17 1_555 1_555
C18 H9 1_555 1_555
H10 C18 1_555 1_555
H11 C18 1_555 1_555
C19 O1 1_555 1_555
H12 C19 1_555 1_555
H13 C19 1_555 1_555
H14 C19 1_555 1_555
N1 O2 1_555 1_555
O3 C6 1_555 1_555
H15 C8 1_555 1_555
H16 C8 1_555 1_555
H17 C5 1_555 1_555
H18 C4 1_555 1_555
C3 C5 1_555 1_555
C3 C8 1_555 1_555
C5 N1 1_555 1_555
C10 C16 1_555 1_555
C12 C17 1_555 1_555
C13 C14 1_555 1_555
C18 N1 1_555 1_555

#END
