
#######################################################################
#
#                 Cambridge Crystallographic Data Centre
#                                CCDC 
#
#######################################################################
#
# If this CIF has been generated from an entry in the Cambridge 
# Structural Database, then it will include bibliographic, chemical, 
# crystal, experimental, refinement or atomic coordinate data resulting 
# from the CCDC's data processing and validation procedures.
#
#######################################################################

data_AHEGIE
_chemical_formula_moiety         'C21 H16 N4'
_chemical_name_systematic        
(2E)-(3-(4-Cyanophenyl)-1-(4-(dimethylamino)phenyl)prop-2-en-1-ylidene)malononitrile
_symmetry_cell_setting           monoclinic
_symmetry_space_group_name_H-M   'P 21/c'
_symmetry_Int_Tables_number      14
_space_group_name_Hall           '-P 2ybc'
loop_
_symmetry_equiv_pos_site_id
_symmetry_equiv_pos_as_xyz
1 x,y,z
2 -x,1/2+y,1/2-z
3 -x,-y,-z
4 x,1/2-y,1/2+z
_cell_length_a                   9.6650(4)
_cell_length_b                   7.8764(6)
_cell_length_c                   23.977(2)
_cell_angle_alpha                90
_cell_angle_beta                 97.899(5)
_cell_angle_gamma                90
_cell_volume                     1807.94
_exptl_crystal_colour            'dark brown'
_exptl_crystal_description       needle
_chemical_melting_point          '214-215 deg.C'
_cell_formula_units_Z            4
_exptl_crystal_recrystallization_method pentane/chloroform
loop_
_atom_site_label
_atom_site_type_symbol
_atom_site_fract_x
_atom_site_fract_y
_atom_site_fract_z
N1 N 0.3960(3) -0.1327(5) 0.32656(12)
N2 N 0.1858(4) -0.0260(4) 0.47011(13)
N3 N -0.7367(4) 0.4640(5) 0.44223(15)
N4 N 0.1515(2) 0.2163(3) 0.10241(9)
C1 C 0.1846(3) 0.0078(4) 0.36298(11)
C2 C 0.0754(3) 0.0850(3) 0.32919(11)
C3 C -0.0500(3) 0.1259(3) 0.35340(12)
C4 C -0.1527(3) 0.2282(3) 0.32993(12)
C5 C -0.2779(3) 0.2732(3) 0.35499(11)
C6 C -0.2926(3) 0.2380(4) 0.41115(12)
C7 C -0.4099(3) 0.2852(4) 0.43339(13)
C8 C -0.5172(3) 0.3712(4) 0.40018(12)
C9 C -0.5041(3) 0.4100(4) 0.34455(12)
C10 C -0.3865(3) 0.3607(3) 0.32233(12)
C11 C 0.0892(3) 0.1238(3) 0.27051(10)
C12 C 0.2131(3) 0.1956(3) 0.25696(11)
C13 C 0.2330(3) 0.2303(3) 0.20258(11)
C14 C 0.1297(3) 0.1899(3) 0.15701(10)
C15 C 0.0038(3) 0.1199(3) 0.17036(11)
C16 C -0.0162(3) 0.0907(3) 0.22570(11)
C17 C 0.3017(4) -0.0661(4) 0.34179(12)
C18 C 0.1853(4) -0.0105(4) 0.42232(14)
C19 C -0.6394(4) 0.4233(5) 0.42345(13)
C20 C 0.2864(3) 0.2743(5) 0.08998(14)
C21 C 0.0599(4) 0.1384(6) 0.05605(14)
H1 H -0.146(2) 0.272(3) 0.2948(11)
H2 H 0.292(3) 0.218(3) 0.2878(11)
H3 H -0.105(3) 0.037(4) 0.2343(11)
H4 H -0.057(3) 0.079(4) 0.3912(13)
H5 H 0.322(3) 0.280(4) 0.1964(11)
H6 H -0.069(3) 0.096(4) 0.1395(12)
H7 H -0.377(3) 0.386(4) 0.2833(14)
H8 H -0.582(3) 0.479(4) 0.3211(13)
H9 H 0.282(4) 0.297(5) 0.0478(18)
H10 H -0.424(3) 0.256(4) 0.4729(15)
H11 H -0.219(3) 0.185(3) 0.4348(12)
H12 H 0.357(4) 0.182(5) 0.1009(14)
H13 H 0.054(5) 0.013(7) 0.0595(19)
H14 H 0.093(4) 0.161(5) 0.0219(19)
H15 H -0.036(6) 0.169(6) 0.0553(19)
H16 H 0.319(4) 0.388(5) 0.1176(17)
loop_
_geom_bond_atom_site_label_1
_geom_bond_atom_site_label_2
_geom_bond_site_symmetry_1
_geom_bond_site_symmetry_2
N1 C17 1_555 1_555
N2 C18 1_555 1_555
N3 C19 1_555 1_555
N4 C14 1_555 1_555
C1 C2 1_555 1_555
C2 C3 1_555 1_555
C3 C4 1_555 1_555
C4 C5 1_555 1_555
C5 C6 1_555 1_555
C6 C7 1_555 1_555
C7 C8 1_555 1_555
C8 C9 1_555 1_555
C9 C10 1_555 1_555
C10 C5 1_555 1_555
C11 C2 1_555 1_555
C12 C11 1_555 1_555
C13 C12 1_555 1_555
C14 C13 1_555 1_555
C15 C14 1_555 1_555
C16 C11 1_555 1_555
C17 C1 1_555 1_555
C18 C1 1_555 1_555
C19 C8 1_555 1_555
C20 N4 1_555 1_555
C21 N4 1_555 1_555
H1 C4 1_555 1_555
H2 C12 1_555 1_555
H3 C16 1_555 1_555
H4 C3 1_555 1_555
H5 C13 1_555 1_555
H6 C15 1_555 1_555
H7 C10 1_555 1_555
H8 C9 1_555 1_555
H9 C20 1_555 1_555
H10 C7 1_555 1_555
H11 C6 1_555 1_555
H12 C20 1_555 1_555
H13 C21 1_555 1_555
H14 C21 1_555 1_555
H15 C21 1_555 1_555
H16 C20 1_555 1_555
C15 C16 1_555 1_555

#END
