
#######################################################################
#
#                 Cambridge Crystallographic Data Centre
#                                CCDC 
#
#######################################################################
#
# If this CIF has been generated from an entry in the Cambridge 
# Structural Database, then it will include bibliographic, chemical, 
# crystal, experimental, refinement or atomic coordinate data resulting 
# from the CCDC's data processing and validation procedures.
#
#######################################################################

data_AHEGAW
_chemical_formula_moiety         'C14 H13 N3'
_chemical_name_systematic        
2-(4-(Dimethylamino)phenyl)cyclobut-2-ene-1,1-dicarbonitrile
_symmetry_cell_setting           monoclinic
_symmetry_space_group_name_H-M   'P 21/c'
_symmetry_Int_Tables_number      14
_space_group_name_Hall           '-P 2ybc'
loop_
_symmetry_equiv_pos_site_id
_symmetry_equiv_pos_as_xyz
1 x,y,z
2 -x,1/2+y,1/2-z
3 -x,-y,-z
4 x,1/2-y,1/2+z
_cell_length_a                   6.7709(4)
_cell_length_b                   7.6141(4)
_cell_length_c                   24.105(2)
_cell_angle_alpha                90
_cell_angle_beta                 95.336(2)
_cell_angle_gamma                90
_cell_volume                     1237.33
_exptl_crystal_colour            'pale yellow'
_exptl_crystal_description       cube
_chemical_melting_point          'above 133 deg.C'
_cell_formula_units_Z            4
_chemical_properties_physical    heat-sensitive
_exptl_crystal_recrystallization_method pentane/chloroform
loop_
_atom_site_label
_atom_site_type_symbol
_atom_site_fract_x
_atom_site_fract_y
_atom_site_fract_z
N1 N 0.4526(3) -0.1432(3) 0.43941(9)
N2 N 0.2033(4) 0.3675(3) 0.46017(11)
N3 N 0.0321(3) 0.1918(3) 0.16421(8)
C1 C 0.4116(3) 0.2260(3) 0.31277(10)
C2 C 0.2276(3) 0.1429(3) 0.31141(10)
C3 C 0.1013(4) 0.1316(3) 0.26297(10)
C4 C 0.1553(3) 0.2037(3) 0.21253(9)
C5 C 0.3423(4) 0.2861(3) 0.21435(10)
C6 C 0.4652(4) 0.2977(3) 0.26322(10)
C7 C 0.5415(4) 0.2423(3) 0.36404(10)
C8 C 0.7223(4) 0.3008(3) 0.38073(12)
C9 C 0.7128(4) 0.2647(4) 0.44166(12)
C10 C 0.4965(3) 0.1927(3) 0.42367(10)
C11 C 0.4701(3) 0.0044(3) 0.43328(9)
C12 C 0.3322(4) 0.2903(3) 0.44551(10)
C13 C -0.1669(4) 0.1296(4) 0.16523(13)
C14 C 0.0919(5) 0.2623(5) 0.11273(13)
H1 H 0.190(4) 0.090(3) 0.3466(10)
H2 H -0.035(4) 0.076(3) 0.2638(9)
H3 H 0.381(4) 0.342(3) 0.1804(12)
H4 H 0.592(4) 0.366(3) 0.2636(10)
H5 H 0.831(4) 0.350(3) 0.3613(11)
H6 H 0.808(5) 0.173(4) 0.4607(12)
H7 H 0.708(4) 0.371(4) 0.4623(13)
H8 H -0.163(5) 0.008(5) 0.1784(15)
H9 H -0.237(6) 0.200(4) 0.1898(17)
H10 H -0.237(5) 0.132(4) 0.1285(14)
H11 H -0.009(5) 0.235(4) 0.0814(16)
H12 H 0.224(5) 0.210(4) 0.1041(13)
H13 H 0.114(5) 0.396(4) 0.1168(12)
loop_
_geom_bond_atom_site_label_1
_geom_bond_atom_site_label_2
_geom_bond_site_symmetry_1
_geom_bond_site_symmetry_2
N1 C11 1_555 1_555
N2 C12 1_555 1_555
N3 C4 1_555 1_555
C1 C2 1_555 1_555
C2 C3 1_555 1_555
C3 C4 1_555 1_555
C4 C5 1_555 1_555
C5 C6 1_555 1_555
C6 C1 1_555 1_555
C7 C1 1_555 1_555
C8 C7 1_555 1_555
C9 C8 1_555 1_555
C10 C7 1_555 1_555
C11 C10 1_555 1_555
C12 C10 1_555 1_555
C13 N3 1_555 1_555
C14 N3 1_555 1_555
H1 C2 1_555 1_555
H2 C3 1_555 1_555
H3 C5 1_555 1_555
H4 C6 1_555 1_555
H5 C8 1_555 1_555
H6 C9 1_555 1_555
H7 C9 1_555 1_555
H8 C13 1_555 1_555
H9 C13 1_555 1_555
H10 C13 1_555 1_555
H11 C14 1_555 1_555
H12 C14 1_555 1_555
H13 C14 1_555 1_555
C9 C10 1_555 1_555

#END
