
#######################################################################
#
#                 Cambridge Crystallographic Data Centre
#                                CCDC 
#
#######################################################################
#
# If this CIF has been generated from an entry in the Cambridge 
# Structural Database, then it will include bibliographic, chemical, 
# crystal, experimental, refinement or atomic coordinate data resulting 
# from the CCDC's data processing and validation procedures.
#
#######################################################################

data_AHEJEC02
_chemical_formula_moiety         'C5 H11 N1 O2'
_chemical_name_systematic        D-Valine
_symmetry_cell_setting           monoclinic
_symmetry_space_group_name_H-M   'P 21'
_symmetry_Int_Tables_number      4
_space_group_name_Hall           'P 2yb'
loop_
_symmetry_equiv_pos_site_id
_symmetry_equiv_pos_as_xyz
1 x,y,z
2 -x,1/2+y,-z
_cell_length_a                   9.6706(5)
_cell_length_b                   5.2680(3)
_cell_length_c                   12.0256(7)
_cell_angle_alpha                90
_cell_angle_beta                 90.724(2)
_cell_angle_gamma                90
_cell_volume                     612.592
_exptl_crystal_colour            colorless
_exptl_crystal_description       plate
_cell_formula_units_Z            4
_exptl_crystal_preparation       diamagnetic
loop_
_atom_site_label
_atom_site_type_symbol
_atom_site_fract_x
_atom_site_fract_y
_atom_site_fract_z
O1 O -0.85484(10) -0.4669(2) -0.39617(10)
O2 O -0.77426(12) -0.0756(2) -0.36855(11)
N1 N -0.58886(14) -0.6487(3) -0.37440(13)
C1 C -0.63468(14) -0.4255(3) -0.30827(13)
C2 C -0.76468(14) -0.3098(3) -0.36376(12)
C3 C -0.66508(15) -0.5076(3) -0.18817(14)
C4 C -0.7161(3) -0.2860(5) -0.11904(18)
C5 C -0.5399(2) -0.6297(5) -0.13200(18)
H1 H -0.501(2) -0.692(4) -0.3599(15)
H2 H -0.5990(19) -0.623(4) -0.4486(19)
H3 H -0.646(2) -0.793(5) -0.3688(17)
H4 H -0.5616(19) -0.300(4) -0.3079(16)
H5 H -0.7369(17) -0.629(4) -0.1915(14)
H6 H -0.502(2) -0.771(6) -0.170(2)
H7 H -0.466(3) -0.499(6) -0.127(2)
H8 H -0.560(2) -0.689(5) -0.056(2)
H9 H -0.642(4) -0.148(8) -0.119(3)
H10 H -0.735(3) -0.338(6) -0.043(3)
H11 H -0.802(3) -0.200(6) -0.148(2)
O3 O -0.37151(10) -1.0694(2) -0.39968(9)
O4 O -0.29222(10) -0.7005(2) -0.33664(11)
N2 N -0.12350(13) -1.2848(3) -0.41041(12)
C6 C -0.13327(13) -1.0437(3) -0.34604(13)
C7 C -0.27708(14) -0.9280(3) -0.36329(12)
C8 C -0.09724(15) -1.0930(3) -0.22290(13)
C9 C -0.0427(2) -0.8531(4) -0.1668(2)
C10 C -0.2184(2) -1.2041(4) -0.15891(16)
H12 H -0.036(2) -1.342(4) -0.4063(16)
H13 H -0.1397(16) -1.254(4) -0.4849(16)
H14 H -0.178(2) -1.407(4) -0.3839(16)
H15 H -0.0636(16) -0.931(4) -0.3780(13)
H16 H -0.0223(19) -1.219(4) -0.2239(15)
H17 H 0.028(2) -0.770(6) -0.212(2)
H18 H -0.115(2) -0.728(5) -0.1613(18)
H19 H -0.008(2) -0.886(5) -0.091(2)
H20 H -0.289(2) -1.082(5) -0.1530(16)
H21 H -0.260(2) -1.343(6) -0.196(2)
H22 H -0.195(2) -1.257(5) -0.087(2)
loop_
_geom_bond_atom_site_label_1
_geom_bond_atom_site_label_2
_geom_bond_site_symmetry_1
_geom_bond_site_symmetry_2
O1 C2 1_555 1_555
O2 C2 1_555 1_555
N1 C1 1_555 1_555
C1 C2 1_555 1_555
C3 C1 1_555 1_555
C4 C3 1_555 1_555
C5 C3 1_555 1_555
H1 N1 1_555 1_555
H2 N1 1_555 1_555
H3 N1 1_555 1_555
H4 C1 1_555 1_555
H5 C3 1_555 1_555
H6 C5 1_555 1_555
H7 C5 1_555 1_555
H8 C5 1_555 1_555
H9 C4 1_555 1_555
H10 C4 1_555 1_555
H11 C4 1_555 1_555
O3 C7 1_555 1_555
O4 C7 1_555 1_555
N2 C6 1_555 1_555
C6 C7 1_555 1_555
C8 C6 1_555 1_555
C9 C8 1_555 1_555
C10 C8 1_555 1_555
H12 N2 1_555 1_555
H13 N2 1_555 1_555
H14 N2 1_555 1_555
H15 C6 1_555 1_555
H16 C8 1_555 1_555
H17 C9 1_555 1_555
H18 C9 1_555 1_555
H19 C9 1_555 1_555
H20 C10 1_555 1_555
H21 C10 1_555 1_555
H22 C10 1_555 1_555

#END
