
#######################################################################
#
#                 Cambridge Crystallographic Data Centre
#                                CCDC 
#
#######################################################################
#
# If this CIF has been generated from an entry in the Cambridge 
# Structural Database, then it will include bibliographic, chemical, 
# crystal, experimental, refinement or atomic coordinate data resulting 
# from the CCDC's data processing and validation procedures.
#
#######################################################################

data_AHEJEC
_chemical_formula_moiety         'C5 H11 N1 O2'
_chemical_name_systematic        D-Valine
_symmetry_cell_setting           monoclinic
_symmetry_space_group_name_H-M   'P 21'
_symmetry_Int_Tables_number      4
_space_group_name_Hall           'P 2yb'
loop_
_symmetry_equiv_pos_site_id
_symmetry_equiv_pos_as_xyz
1 x,y,z
2 -x,1/2+y,-z
_cell_length_a                   9.6662(5)
_cell_length_b                   5.2568(3)
_cell_length_c                   11.9836(7)
_cell_angle_alpha                90
_cell_angle_beta                 90.655(2)
_cell_angle_gamma                90
_cell_volume                     608.886
_exptl_crystal_colour            colorless
_exptl_crystal_description       plate
_cell_formula_units_Z            4
_exptl_crystal_preparation       diamagnetic
loop_
_atom_site_label
_atom_site_type_symbol
_atom_site_fract_x
_atom_site_fract_y
_atom_site_fract_z
O1 O -0.85481(10) -0.4665(2) -0.39615(9)
O2 O -0.77477(11) -0.0733(2) -0.36822(10)
N1 N -0.58868(13) -0.6474(2) -0.37362(12)
C1 C -0.63482(13) -0.4233(3) -0.30746(12)
C2 C -0.76474(13) -0.3081(3) -0.36329(12)
C3 C -0.66578(14) -0.5056(3) -0.18684(13)
C4 C -0.7167(2) -0.2821(4) -0.11775(16)
C5 C -0.54019(17) -0.6264(4) -0.13001(16)
H1 H -0.5001(19) -0.688(3) -0.3582(14)
H2 H -0.6002(18) -0.620(4) -0.4491(18)
H3 H -0.6448(19) -0.788(5) -0.3668(16)
H4 H -0.5588(17) -0.298(4) -0.3076(15)
H5 H -0.7376(16) -0.628(3) -0.1867(13)
H6 H -0.505(2) -0.770(5) -0.1688(17)
H7 H -0.464(3) -0.492(5) -0.124(2)
H8 H -0.5598(19) -0.685(4) -0.0535(18)
H9 H -0.640(3) -0.144(7) -0.117(2)
H10 H -0.736(2) -0.342(5) -0.041(2)
H11 H -0.802(3) -0.196(5) -0.148(2)
O3 O -0.37197(9) -1.0717(2) -0.39966(9)
O4 O -0.29288(10) -0.7018(2) -0.33619(10)
N2 N -0.12377(12) -1.2873(2) -0.41088(11)
C6 C -0.13344(13) -1.0452(3) -0.34628(12)
C7 C -0.27771(13) -0.9298(3) -0.36332(12)
C8 C -0.09727(14) -1.0940(3) -0.22264(13)
C9 C -0.04266(18) -0.8536(4) -0.16662(18)
C10 C -0.21873(18) -1.2054(4) -0.15809(15)
H12 H -0.037(2) -1.344(4) -0.4064(15)
H13 H -0.1431(15) -1.254(3) -0.4852(15)
H14 H -0.1791(18) -1.409(4) -0.3853(15)
H15 H -0.0646(15) -0.931(4) -0.3796(13)
H16 H -0.0219(18) -1.219(4) -0.2233(14)
H17 H 0.029(2) -0.776(5) -0.2131(19)
H18 H -0.115(2) -0.731(5) -0.1631(18)
H19 H -0.009(2) -0.881(4) -0.088(2)
H20 H -0.2915(19) -1.083(4) -0.1529(15)
H21 H -0.259(2) -1.345(5) -0.1941(18)
H22 H -0.1916(19) -1.258(4) -0.0868(18)
loop_
_geom_bond_atom_site_label_1
_geom_bond_atom_site_label_2
_geom_bond_site_symmetry_1
_geom_bond_site_symmetry_2
O1 C2 1_555 1_555
O2 C2 1_555 1_555
N1 C1 1_555 1_555
C1 C2 1_555 1_555
C3 C1 1_555 1_555
C4 C3 1_555 1_555
C5 C3 1_555 1_555
H1 N1 1_555 1_555
H2 N1 1_555 1_555
H3 N1 1_555 1_555
H4 C1 1_555 1_555
H5 C3 1_555 1_555
H6 C5 1_555 1_555
H7 C5 1_555 1_555
H8 C5 1_555 1_555
H9 C4 1_555 1_555
H10 C4 1_555 1_555
H11 C4 1_555 1_555
O3 C7 1_555 1_555
O4 C7 1_555 1_555
N2 C6 1_555 1_555
C6 C7 1_555 1_555
C8 C6 1_555 1_555
C9 C8 1_555 1_555
C10 C8 1_555 1_555
H12 N2 1_555 1_555
H13 N2 1_555 1_555
H14 N2 1_555 1_555
H15 C6 1_555 1_555
H16 C8 1_555 1_555
H17 C9 1_555 1_555
H18 C9 1_555 1_555
H19 C9 1_555 1_555
H20 C10 1_555 1_555
H21 C10 1_555 1_555
H22 C10 1_555 1_555

#END
