
#######################################################################
#
#                 Cambridge Crystallographic Data Centre
#                                CCDC 
#
#######################################################################
#
# If this CIF has been generated from an entry in the Cambridge 
# Structural Database, then it will include bibliographic, chemical, 
# crystal, experimental, refinement or atomic coordinate data resulting 
# from the CCDC's data processing and validation procedures.
#
#######################################################################

data_AHELEE
_chemical_formula_moiety         'C21 H16 Br2 N2 O2 S1'
_chemical_name_systematic        
2-Bromo-N-(3-bromo-N-(phenylsulfonyl)indol-2-ylmethyl)aniline
_symmetry_cell_setting           monoclinic
_symmetry_space_group_name_H-M   'P 21/c'
_symmetry_Int_Tables_number      14
_space_group_name_Hall           '-P 2ybc'
loop_
_symmetry_equiv_pos_site_id
_symmetry_equiv_pos_as_xyz
1 x,y,z
2 x,1/2-y,1/2+z
3 -x,-y,-z
4 -x,1/2+y,1/2-z
_cell_length_a                   12.3288(9)
_cell_length_b                   8.4100(8)
_cell_length_c                   19.441(2)
_cell_angle_alpha                90
_cell_angle_beta                 106.296(7)
_cell_angle_gamma                90
_cell_volume                     1934.76
_exptl_crystal_colour            colorless
_exptl_crystal_description       prism
_cell_formula_units_Z            4
_exptl_crystal_recrystallization_method 'ethyl acetate-hexane'
loop_
_atom_site_label
_atom_site_type_symbol
_atom_site_fract_x
_atom_site_fract_y
_atom_site_fract_z
Br1 Br 0.51963(10) 0.14532(16) 0.07411(7)
Br2 Br 0.05736(11) 0.34834(19) -0.09092(7)
S1 S 0.1569(3) 0.2701(4) 0.20651(16)
N1 N 0.0850(7) 0.2841(11) 0.1195(5)
N2 N 0.3273(7) 0.3666(12) 0.0823(5)
H1 H 0.317(7) 0.274(11) 0.059(5)
O1 O 0.0745(7) 0.2693(10) 0.2445(4)
O2 O 0.2368(7) 0.3937(9) 0.2197(4)
C1 C 0.1230(8) 0.3429(14) 0.0615(6)
C2 C 0.0474(9) 0.2977(13) 0.0000(6)
C3 C -0.0390(9) 0.2062(12) 0.0153(6)
C4 C -0.1368(10) 0.1335(14) -0.0293(7)
H2 H -0.1521 0.1375 -0.0789
C5 C -0.2050(11) 0.0608(17) 0.0004(9)
H3 H -0.2712 0.0167 -0.0287
C6 C -0.1821(11) 0.0470(17) 0.0740(9)
H4 H -0.2311 -0.0114 0.0929
C7 C -0.0868(10) 0.1191(15) 0.1211(7)
H5 H -0.0725 0.1150 0.1706
C8 C -0.0169(9) 0.1954(13) 0.0884(6)
C9 C 0.3331(9) 0.0751(16) 0.2096(5)
H6 H 0.3684 0.1657 0.1988
C10 C 0.3880(11) -0.0660(18) 0.2192(6)
H7 H 0.4619 -0.0730 0.2163
C11 C 0.3331(12) -0.1983(16) 0.2332(6)
H8 H 0.3715 -0.2948 0.2405
C12 C 0.2254(12) -0.1938(16) 0.2366(6)
H9 H 0.1885 -0.2867 0.2431
C13 C 0.1705(10) -0.0480(17) 0.2302(6)
H10 H 0.0981 -0.0403 0.2356
C14 C 0.2252(10) 0.0837(13) 0.2159(5)
C15 C 0.2207(7) 0.4518(14) 0.0707(6)
H11 H 0.2088 0.5178 0.0283
H12 H 0.2251 0.5211 0.1113
C16 C 0.4279(8) 0.4512(15) 0.0884(5)
C17 C 0.5244(10) 0.3671(14) 0.0862(6)
C18 C 0.6257(10) 0.4454(16) 0.0927(6)
H13 H 0.6895 0.3892 0.0902
C19 C 0.6305(10) 0.6056(17) 0.1030(6)
H14 H 0.6987 0.6582 0.1082
C20 C 0.5388(11) 0.6899(14) 0.1057(6)
H15 H 0.5443 0.7992 0.1131
C21 C 0.4358(10) 0.6128(14) 0.0973(6)
H16 H 0.3721 0.6714 0.0978
loop_
_geom_bond_atom_site_label_1
_geom_bond_atom_site_label_2
_geom_bond_site_symmetry_1
_geom_bond_site_symmetry_2
Br1 C17 1_555 1_555
Br2 C2 1_555 1_555
S1 N1 1_555 1_555
N1 C1 1_555 1_555
N2 H1 1_555 1_555
O1 S1 1_555 1_555
O2 S1 1_555 1_555
C1 C2 1_555 1_555
C2 C3 1_555 1_555
C3 C4 1_555 1_555
C4 H2 1_555 1_555
C5 C4 1_555 1_555
H3 C5 1_555 1_555
C6 C5 1_555 1_555
H4 C6 1_555 1_555
C7 C6 1_555 1_555
H5 C7 1_555 1_555
C8 N1 1_555 1_555
C9 H6 1_555 1_555
C10 C9 1_555 1_555
H7 C10 1_555 1_555
C11 C10 1_555 1_555
H8 C11 1_555 1_555
C12 C11 1_555 1_555
H9 C12 1_555 1_555
C13 C12 1_555 1_555
H10 C13 1_555 1_555
C14 S1 1_555 1_555
C15 N2 1_555 1_555
H11 C15 1_555 1_555
H12 C15 1_555 1_555
C16 N2 1_555 1_555
C17 C16 1_555 1_555
C18 C17 1_555 1_555
H13 C18 1_555 1_555
C19 C18 1_555 1_555
H14 C19 1_555 1_555
C20 C19 1_555 1_555
H15 C20 1_555 1_555
C21 C16 1_555 1_555
H16 C21 1_555 1_555
C1 C15 1_555 1_555
C3 C8 1_555 1_555
C7 C8 1_555 1_555
C9 C14 1_555 1_555
C13 C14 1_555 1_555
C20 C21 1_555 1_555

#END
