
#######################################################################
#
#                 Cambridge Crystallographic Data Centre
#                                CCDC 
#
#######################################################################
#
# If this CIF has been generated from an entry in the Cambridge 
# Structural Database, then it will include bibliographic, chemical, 
# crystal, experimental, refinement or atomic coordinate data resulting 
# from the CCDC's data processing and validation procedures.
#
#######################################################################

data_AHEPIO
_chemical_formula_moiety         'C42 H28 N6'
_chemical_name_systematic        
5,6-bis(4-(diphenylamino)phenyl)pyrazine-2,3-dicarbonitrile
_symmetry_cell_setting           monoclinic
_symmetry_space_group_name_H-M   'P 21/n'
_symmetry_Int_Tables_number      14
_space_group_name_Hall           '-P 2yn'
loop_
_symmetry_equiv_pos_site_id
_symmetry_equiv_pos_as_xyz
1 x,y,z
2 1/2-x,1/2+y,1/2-z
3 -x,-y,-z
4 1/2+x,1/2-y,1/2+z
_cell_length_a                   12.6775(2)
_cell_length_b                   15.1101(2)
_cell_length_c                   17.6845(3)
_cell_angle_alpha                90
_cell_angle_beta                 106.229(2)
_cell_angle_gamma                90
_cell_volume                     3252.62
_exptl_crystal_colour            red
_exptl_crystal_description       prism
_cell_formula_units_Z            4
loop_
_atom_site_label
_atom_site_type_symbol
_atom_site_fract_x
_atom_site_fract_y
_atom_site_fract_z
C1 C 0.16346(13) -0.25019(9) -0.13716(10)
C2 C 0.08314(13) -0.23388(9) -0.20683(10)
C3 C 0.07107(12) -0.09037(9) -0.17013(9)
C4 C 0.16693(12) -0.10349(9) -0.10518(9)
C5 C 0.20326(17) -0.33930(11) -0.11754(13)
C6 C 0.04544(16) -0.30284(11) -0.26534(11)
C7 C 0.00451(11) -0.00888(9) -0.18453(9)
C8 C -0.05108(13) 0.01503(9) -0.26113(9)
H1 H -0.0433 -0.0197 -0.3027
C9 C -0.11741(13) 0.08872(10) -0.27721(9)
H2 H -0.1529 0.1033 -0.3292
C10 C -0.13199(12) 0.14168(9) -0.21658(9)
C11 C -0.07882(14) 0.11663(10) -0.13929(10)
H3 H -0.0891 0.1499 -0.0977
C12 C -0.01162(13) 0.04361(10) -0.12371(9)
H4 H 0.0237 0.0289 -0.0717
C13 C -0.16972(13) 0.29175(9) -0.17813(10)
C14 C -0.07017(16) 0.33377(13) -0.16493(13)
H5 H -0.0188 0.3134 -0.1894
C15 C -0.04625(19) 0.40598(14) -0.11553(15)
H6 H 0.0213 0.4341 -0.1069
C16 C -0.12094(18) 0.43649(12) -0.07922(12)
H7 H -0.1046 0.4852 -0.0458
C17 C -0.21902(18) 0.39516(16) -0.09231(15)
H8 H -0.2702 0.4161 -0.0679
C18 C -0.24462(16) 0.32229(15) -0.14137(13)
H9 H -0.3121 0.2942 -0.1494
C19 C -0.28066(13) 0.23026(10) -0.30306(9)
C20 C -0.29200(16) 0.31104(12) -0.34219(11)
H10 H -0.2451 0.3577 -0.3212
C21 C -0.3732(2) 0.32190(15) -0.41240(12)
H11 H -0.3808 0.3760 -0.4384
C22 C -0.44271(19) 0.25349(17) -0.44390(13)
H12 H -0.4965 0.2608 -0.4915
C23 C -0.43233(16) 0.17399(15) -0.40473(13)
H13 H -0.4798 0.1277 -0.4258
C24 C -0.35217(14) 0.16226(12) -0.33446(11)
H14 H -0.3463 0.1084 -0.3082
C25 C 0.23103(12) -0.03086(9) -0.05885(9)
C26 C 0.24740(13) 0.04725(9) -0.09645(9)
H15 H 0.2103 0.0555 -0.1493
C27 C 0.31722(13) 0.11210(9) -0.05688(9)
H16 H 0.3283 0.1623 -0.0840
C28 C 0.37193(11) 0.10434(9) 0.02326(9)
C29 C 0.35291(13) 0.02705(10) 0.06159(9)
H17 H 0.3859 0.0204 0.1153
C30 C 0.28586(12) -0.03922(9) 0.02050(10)
H18 H 0.2772 -0.0909 0.0468
C31 C 0.42838(12) 0.25738(9) 0.02105(9)
C32 C 0.33769(14) 0.30999(10) 0.01711(10)
H19 H 0.2834 0.2908 0.0394
C33 C 0.32821(16) 0.39146(11) -0.02026(11)
H20 H 0.2680 0.4275 -0.0223
C34 C 0.40746(17) 0.41913(11) -0.05425(12)
H21 H 0.4012 0.4739 -0.0792
C35 C 0.49605(17) 0.36561(14) -0.05129(14)
H22 H 0.5488 0.3839 -0.0754
C36 C 0.50797(14) 0.28489(12) -0.01306(12)
H23 H 0.5690 0.2496 -0.0104
C37 C 0.52400(12) 0.16797(10) 0.13294(9)
C38 C 0.57896(14) 0.09009(12) 0.16114(11)
H24 H 0.5603 0.0378 0.1328
C39 C 0.66220(16) 0.09030(15) 0.23195(13)
H25 H 0.6969 0.0375 0.2514
C40 C 0.69362(16) 0.16681(17) 0.27331(12)
H26 H 0.7501 0.1662 0.3201
C41 C 0.64110(17) 0.24453(15) 0.24525(12)
H27 H 0.6625 0.2969 0.2729
C42 C 0.55677(15) 0.24544(12) 0.17625(11)
H28 H 0.5212 0.2984 0.1583
N1 N 0.20725(11) -0.18504(8) -0.08718(8)
N2 N 0.03477(10) -0.15517(8) -0.22237(8)
N3 N 0.2298(2) -0.41017(11) -0.10518(14)
N4 N 0.0160(2) -0.35766(12) -0.30946(13)
N5 N -0.19720(12) 0.21818(9) -0.23126(9)
N6 N 0.43969(11) 0.17337(8) 0.06102(8)
loop_
_geom_bond_atom_site_label_1
_geom_bond_atom_site_label_2
_geom_bond_site_symmetry_1
_geom_bond_site_symmetry_2
C1 C2 1_555 1_555
C2 C6 1_555 1_555
C3 C4 1_555 1_555
C4 C25 1_555 1_555
C5 C1 1_555 1_555
C6 N4 1_555 1_555
C7 C3 1_555 1_555
C8 C7 1_555 1_555
H1 C8 1_555 1_555
C9 C8 1_555 1_555
H2 C9 1_555 1_555
C10 C9 1_555 1_555
C11 C10 1_555 1_555
H3 C11 1_555 1_555
C12 C7 1_555 1_555
H4 C12 1_555 1_555
C13 C14 1_555 1_555
C14 H5 1_555 1_555
C15 C14 1_555 1_555
H6 C15 1_555 1_555
C16 C15 1_555 1_555
H7 C16 1_555 1_555
C17 C16 1_555 1_555
H8 C17 1_555 1_555
C18 C13 1_555 1_555
H9 C18 1_555 1_555
C19 C20 1_555 1_555
C20 H10 1_555 1_555
C21 C20 1_555 1_555
H11 C21 1_555 1_555
C22 C21 1_555 1_555
H12 C22 1_555 1_555
C23 C22 1_555 1_555
H13 C23 1_555 1_555
C24 C19 1_555 1_555
H14 C24 1_555 1_555
C25 C26 1_555 1_555
C26 H15 1_555 1_555
C27 C26 1_555 1_555
H16 C27 1_555 1_555
C28 C27 1_555 1_555
C29 C28 1_555 1_555
H17 C29 1_555 1_555
C30 C25 1_555 1_555
H18 C30 1_555 1_555
C31 C32 1_555 1_555
C32 H19 1_555 1_555
C33 C32 1_555 1_555
H20 C33 1_555 1_555
C34 C33 1_555 1_555
H21 C34 1_555 1_555
C35 C34 1_555 1_555
H22 C35 1_555 1_555
C36 C31 1_555 1_555
H23 C36 1_555 1_555
C37 C38 1_555 1_555
C38 H24 1_555 1_555
C39 C38 1_555 1_555
H25 C39 1_555 1_555
C40 C39 1_555 1_555
H26 C40 1_555 1_555
C41 C40 1_555 1_555
H27 C41 1_555 1_555
C42 C37 1_555 1_555
H28 C42 1_555 1_555
N1 C1 1_555 1_555
N2 C2 1_555 1_555
N3 C5 1_555 1_555
N5 C10 1_555 1_555
N6 C28 1_555 1_555
C3 N2 1_555 1_555
C4 N1 1_555 1_555
C11 C12 1_555 1_555
C13 N5 1_555 1_555
C17 C18 1_555 1_555
C19 N5 1_555 1_555
C23 C24 1_555 1_555
C29 C30 1_555 1_555
C31 N6 1_555 1_555
C35 C36 1_555 1_555
C37 N6 1_555 1_555
C41 C42 1_555 1_555

#END
