
#######################################################################
#
#                 Cambridge Crystallographic Data Centre
#                                CCDC 
#
#######################################################################
#
# If this CIF has been generated from an entry in the Cambridge 
# Structural Database, then it will include bibliographic, chemical, 
# crystal, experimental, refinement or atomic coordinate data resulting 
# from the CCDC's data processing and validation procedures.
#
#######################################################################

data_AHERUA
_chemical_formula_moiety         'C33 H25 N1 O1'
_chemical_name_systematic        1,3,3,4,4-Pentaphenylazetidin-2-one
_symmetry_cell_setting           triclinic
_symmetry_space_group_name_H-M   'P -1'
_symmetry_Int_Tables_number      2
_space_group_name_Hall           '-P 1'
loop_
_symmetry_equiv_pos_site_id
_symmetry_equiv_pos_as_xyz
1 x,y,z
2 -x,-y,-z
_cell_length_a                   10.38270(10)
_cell_length_b                   14.5395(2)
_cell_length_c                   17.36750(10)
_cell_angle_alpha                105.1450(10)
_cell_angle_beta                 102.9430(10)
_cell_angle_gamma                98.9522(5)
_cell_volume                     2401.69
_exptl_crystal_colour            colorless
_exptl_crystal_description       block
_chemical_melting_point          465.0K
_cell_formula_units_Z            4
_exptl_crystal_recrystallization_method 'petroleum ether/ethyl acetate'
loop_
_atom_site_label
_atom_site_type_symbol
_atom_site_fract_x
_atom_site_fract_y
_atom_site_fract_z
O1 O 0.8219(3) 0.5719(2) 0.39538(18)
N1 N 0.7977(3) 0.5473(2) 0.2540(2)
C1 C 0.8611(4) 0.5799(3) 0.3365(2)
C2 C 0.9954(4) 0.6307(3) 0.3259(2)
C3 C 0.9180(4) 0.5818(3) 0.2261(2)
C4 C 1.1198(4) 0.5928(3) 0.3579(2)
C5 C 1.1302(4) 0.5540(3) 0.4225(2)
H1 H 1.0587 0.5482 0.4462
C6 C 1.2456(5) 0.5232(3) 0.4529(3)
H2 H 1.2491 0.4945 0.4951
C7 C 1.3553(5) 0.5350(3) 0.4210(3)
H3 H 1.4344 0.5173 0.4433
C8 C 1.3463(4) 0.5732(3) 0.3559(3)
H4 H 1.4186 0.5796 0.3329
C9 C 1.2300(4) 0.6021(3) 0.3244(2)
H5 H 1.2251 0.6279 0.2805
C10 C 1.0194(4) 0.7416(3) 0.3592(2)
C11 C 0.9075(4) 0.7846(3) 0.3584(2)
H6 H 0.8200 0.7454 0.3384
C12 C 0.9272(5) 0.8860(3) 0.3874(3)
H7 H 0.8523 0.9137 0.3873
C13 C 1.0552(6) 0.9457(3) 0.4162(3)
H8 H 1.0670 1.0133 0.4338
C14 C 1.1656(5) 0.9039(3) 0.4185(3)
H9 H 1.2529 0.9434 0.4391
C15 C 1.1468(5) 0.8021(3) 0.3900(3)
H10 H 1.2223 0.7748 0.3920
C16 C 0.8993(4) 0.6563(3) 0.1807(2)
C17 C 0.7731(4) 0.6786(3) 0.1558(3)
H11 H 0.6978 0.6457 0.1662
C18 C 0.7588(4) 0.7488(3) 0.1160(3)
H12 H 0.6742 0.7626 0.0998
C19 C 0.8700(5) 0.7986(3) 0.1002(3)
H13 H 0.8604 0.8455 0.0731
C20 C 0.9953(4) 0.7778(3) 0.1252(3)
H14 H 1.0700 0.8109 0.1143
C21 C 1.0114(4) 0.7092(3) 0.1657(2)
H15 H 1.0971 0.6977 0.1834
C22 C 0.9658(4) 0.4929(2) 0.1811(2)
C23 C 0.9590(4) 0.4116(3) 0.2101(2)
H16 H 0.9255 0.4126 0.2556
C24 C 1.0012(4) 0.3294(3) 0.1724(3)
H17 H 0.9960 0.2762 0.1928
C25 C 1.0506(4) 0.3272(3) 0.1049(3)
H18 H 1.0793 0.2724 0.0796
C26 C 1.0576(4) 0.4063(3) 0.0748(2)
H19 H 1.0911 0.4048 0.0293
C27 C 1.0149(4) 0.4875(3) 0.1121(2)
H20 H 1.0190 0.5399 0.0907
C28 C 0.6692(4) 0.4820(3) 0.2058(3)
C29 C 0.5769(4) 0.4538(3) 0.2478(3)
H21 H 0.5991 0.4744 0.3055
C30 C 0.4508(5) 0.3939(3) 0.2002(3)
H22 H 0.3887 0.3734 0.2269
C31 C 0.4159(5) 0.3642(3) 0.1149(3)
H23 H 0.3303 0.3256 0.0843
C32 C 0.5094(5) 0.3924(3) 0.0752(3)
H24 H 0.4874 0.3712 0.0175
C33 C 0.6359(4) 0.4522(3) 0.1208(3)
H25 H 0.6978 0.4719 0.0938
O2 O 0.5922(3) -0.0367(2) 0.39261(17)
N2 N 0.4973(3) -0.0500(2) 0.25346(19)
C34 C 0.5551(4) -0.0046(3) 0.3365(2)
C35 C 0.5544(4) 0.0997(3) 0.3298(2)
C36 C 0.4781(4) 0.0400(3) 0.2308(2)
C37 C 0.4684(4) 0.1535(3) 0.3784(2)
C38 C 0.4553(4) 0.1386(3) 0.4522(2)
H26 H 0.4992 0.0952 0.4726
C39 C 0.3763(4) 0.1885(3) 0.4958(3)
H27 H 0.3654 0.1763 0.5443
C40 C 0.3143(4) 0.2553(3) 0.4682(3)
H28 H 0.2642 0.2898 0.4985
C41 C 0.3275(4) 0.2708(3) 0.3943(3)
H29 H 0.2837 0.3142 0.3739
C42 C 0.4059(4) 0.2214(3) 0.3511(2)
H30 H 0.4170 0.2340 0.3029
C43 C 0.6963(4) 0.1603(3) 0.3462(2)
C44 C 0.8063(4) 0.1173(3) 0.3399(3)
H31 H 0.7928 0.0497 0.3269
C45 C 0.9340(5) 0.1719(3) 0.3524(3)
H32 H 1.0051 0.1411 0.3473
C46 C 0.9571(4) 0.2733(3) 0.3725(3)
H33 H 1.0432 0.3105 0.3806
C47 C 0.8513(4) 0.3180(3) 0.3803(2)
H34 H 0.8660 0.3857 0.3936
C48 C 0.7237(4) 0.2633(3) 0.3686(3)
H35 H 0.6540 0.2950 0.3757
C49 C 0.5594(4) 0.0625(3) 0.1727(2)
C50 C 0.5808(4) 0.1570(3) 0.1648(3)
H36 H 0.5437 0.2042 0.1940
C51 C 0.6570(4) 0.1802(3) 0.1137(3)
H37 H 0.6718 0.2433 0.1097
C52 C 0.7108(4) 0.1113(3) 0.0690(3)
H38 H 0.7612 0.1274 0.0345
C53 C 0.6900(4) 0.0181(3) 0.0756(3)
H39 H 0.7264 -0.0288 0.0454
C54 C 0.6147(4) -0.0063(3) 0.1272(2)
H40 H 0.6013 -0.0694 0.1313
C55 C 0.3266(4) 0.0401(3) 0.2035(2)
C56 C 0.2733(4) 0.0752(3) 0.1396(3)
H41 H 0.3282 0.0958 0.1090
C57 C 0.1359(5) 0.0797(3) 0.1209(3)
H42 H 0.1002 0.1031 0.0776
C58 C 0.0545(5) 0.0499(3) 0.1659(3)
H43 H -0.0352 0.0558 0.1550
C59 C 0.1051(4) 0.0115(3) 0.2267(3)
H44 H 0.0489 -0.0106 0.2561
C60 C 0.2396(4) 0.0051(3) 0.2451(2)
H45 H 0.2721 -0.0230 0.2858
C61 C 0.4456(4) -0.1509(3) 0.2072(2)
C62 C 0.4830(4) -0.2221(3) 0.2421(3)
H46 H 0.5399 -0.2043 0.2958
C63 C 0.4341(5) -0.3200(3) 0.1957(3)
H47 H 0.4568 -0.3680 0.2191
C64 C 0.3527(5) -0.3472(3) 0.1154(3)
H48 H 0.3227 -0.4131 0.0848
C65 C 0.3156(4) -0.2773(3) 0.0804(3)
H49 H 0.2590 -0.2954 0.0266
C66 C 0.3647(4) -0.1778(3) 0.1273(3)
H50 H 0.3419 -0.1299 0.1038
loop_
_geom_bond_atom_site_label_1
_geom_bond_atom_site_label_2
_geom_bond_site_symmetry_1
_geom_bond_site_symmetry_2
O1 C1 1_555 1_555
N1 C1 1_555 1_555
C1 C2 1_555 1_555
C2 C3 1_555 1_555
C3 N1 1_555 1_555
C4 C2 1_555 1_555
C5 C4 1_555 1_555
H1 C5 1_555 1_555
C6 C5 1_555 1_555
H2 C6 1_555 1_555
C7 C6 1_555 1_555
H3 C7 1_555 1_555
C8 C7 1_555 1_555
H4 C8 1_555 1_555
C9 C4 1_555 1_555
H5 C9 1_555 1_555
C10 C2 1_555 1_555
C11 C10 1_555 1_555
H6 C11 1_555 1_555
C12 C11 1_555 1_555
H7 C12 1_555 1_555
C13 C12 1_555 1_555
H8 C13 1_555 1_555
C14 C13 1_555 1_555
H9 C14 1_555 1_555
C15 C10 1_555 1_555
H10 C15 1_555 1_555
C16 C3 1_555 1_555
C17 C16 1_555 1_555
H11 C17 1_555 1_555
C18 C17 1_555 1_555
H12 C18 1_555 1_555
C19 C18 1_555 1_555
H13 C19 1_555 1_555
C20 C19 1_555 1_555
H14 C20 1_555 1_555
C21 C16 1_555 1_555
H15 C21 1_555 1_555
C22 C3 1_555 1_555
C23 C22 1_555 1_555
H16 C23 1_555 1_555
C24 C23 1_555 1_555
H17 C24 1_555 1_555
C25 C24 1_555 1_555
H18 C25 1_555 1_555
C26 C25 1_555 1_555
H19 C26 1_555 1_555
C27 C22 1_555 1_555
H20 C27 1_555 1_555
C28 N1 1_555 1_555
C29 C28 1_555 1_555
H21 C29 1_555 1_555
C30 C29 1_555 1_555
H22 C30 1_555 1_555
C31 C30 1_555 1_555
H23 C31 1_555 1_555
C32 C31 1_555 1_555
H24 C32 1_555 1_555
C33 C28 1_555 1_555
H25 C33 1_555 1_555
O2 C34 1_555 1_555
N2 C34 1_555 1_555
C34 C35 1_555 1_555
C35 C36 1_555 1_555
C36 N2 1_555 1_555
C37 C35 1_555 1_555
C38 C37 1_555 1_555
H26 C38 1_555 1_555
C39 C38 1_555 1_555
H27 C39 1_555 1_555
C40 C39 1_555 1_555
H28 C40 1_555 1_555
C41 C40 1_555 1_555
H29 C41 1_555 1_555
C42 C37 1_555 1_555
H30 C42 1_555 1_555
C43 C35 1_555 1_555
C44 C43 1_555 1_555
H31 C44 1_555 1_555
C45 C44 1_555 1_555
H32 C45 1_555 1_555
C46 C45 1_555 1_555
H33 C46 1_555 1_555
C47 C46 1_555 1_555
H34 C47 1_555 1_555
C48 C43 1_555 1_555
H35 C48 1_555 1_555
C49 C36 1_555 1_555
C50 C49 1_555 1_555
H36 C50 1_555 1_555
C51 C50 1_555 1_555
H37 C51 1_555 1_555
C52 C51 1_555 1_555
H38 C52 1_555 1_555
C53 C52 1_555 1_555
H39 C53 1_555 1_555
C54 C49 1_555 1_555
H40 C54 1_555 1_555
C55 C36 1_555 1_555
C56 C55 1_555 1_555
H41 C56 1_555 1_555
C57 C56 1_555 1_555
H42 C57 1_555 1_555
C58 C57 1_555 1_555
H43 C58 1_555 1_555
C59 C58 1_555 1_555
H44 C59 1_555 1_555
C60 C55 1_555 1_555
H45 C60 1_555 1_555
C61 N2 1_555 1_555
C62 C61 1_555 1_555
H46 C62 1_555 1_555
C63 C62 1_555 1_555
H47 C63 1_555 1_555
C64 C63 1_555 1_555
H48 C64 1_555 1_555
C65 C64 1_555 1_555
H49 C65 1_555 1_555
C66 C61 1_555 1_555
H50 C66 1_555 1_555
C8 C9 1_555 1_555
C14 C15 1_555 1_555
C20 C21 1_555 1_555
C26 C27 1_555 1_555
C32 C33 1_555 1_555
C41 C42 1_555 1_555
C47 C48 1_555 1_555
C53 C54 1_555 1_555
C59 C60 1_555 1_555
C65 C66 1_555 1_555

#END
