
#######################################################################
#
#                 Cambridge Crystallographic Data Centre
#                                CCDC 
#
#######################################################################
#
# If this CIF has been generated from an entry in the Cambridge 
# Structural Database, then it will include bibliographic, chemical, 
# crystal, experimental, refinement or atomic coordinate data resulting 
# from the CCDC's data processing and validation procedures.
#
#######################################################################

data_AHEWIT
_chemical_formula_moiety         'C5 H7 N5 2+,Cl1 1-,I5 1-,H2 O1'
_chemical_name_systematic        
'Adenine-1,7-di-ium chloride pentaiodide monohydrate'
_symmetry_cell_setting           triclinic
_symmetry_space_group_name_H-M   'P -1'
_symmetry_Int_Tables_number      2
_space_group_name_Hall           '-P 1'
loop_
_symmetry_equiv_pos_site_id
_symmetry_equiv_pos_as_xyz
1 x,y,z
2 -x,-y,-z
_cell_length_a                   8.2477(2)
_cell_length_b                   10.7053(3)
_cell_length_c                   10.4233(3)
_cell_angle_alpha                103.0848(11)
_cell_angle_beta                 91.7871(15)
_cell_angle_gamma                100.8063(11)
_cell_volume                     877.913
_exptl_crystal_colour            orange-red
_exptl_crystal_description       plate
_cell_formula_units_Z            2
loop_
_atom_site_label
_atom_site_type_symbol
_atom_site_fract_x
_atom_site_fract_y
_atom_site_fract_z
I1 I 0.27064(5) 0.46929(3) 0.64073(4)
I2 I 0.37684(4) 0.23892(3) 0.47030(3)
I3 I 0.49500(4) 0.02651(4) 0.30516(4)
I4 I 0.42381(5) 0.18037(4) 1.06073(4)
I5 I 0.35580(4) 0.31816(4) 0.87888(4)
Cl1 Cl 0.05423(18) 0.75994(14) 0.81788(13)
N1 N 0.0812(5) 0.8310(4) 0.1141(4)
H1 H 0.0828 0.8296 0.0313
C1 C 0.0280(6) 0.9304(5) 0.1934(5)
H2 H -0.0060 0.9919 0.1539
N2 N 0.0197(5) 0.9482(4) 0.3209(4)
C2 C 0.0736(5) 0.8528(4) 0.3669(5)
C3 C 0.1300(5) 0.7484(4) 0.2940(4)
C4 C 0.1329(5) 0.7322(4) 0.1562(5)
N3 N 0.1769(5) 0.6369(4) 0.0718(4)
H3 H 0.1735 0.6360 -0.0109
H4 H 0.2094 0.5748 0.0989
N4 N 0.1747(4) 0.6797(4) 0.3801(4)
H5 H 0.2141 0.6094 0.3597
C5 C 0.1469(6) 0.7403(5) 0.5008(5)
H6 H 0.1673 0.7134 0.5776
N5 N 0.0849(5) 0.8460(4) 0.4954(4)
H7 H 0.0571 0.9000 0.5613
O1 O 0.2607(5) 0.4643(4) 0.2429(4)
H8 H 0.168(4) 0.396(4) 0.229(6)
H9 H 0.351(4) 0.433(5) 0.270(6)
loop_
_geom_bond_atom_site_label_1
_geom_bond_atom_site_label_2
_geom_bond_site_symmetry_1
_geom_bond_site_symmetry_2
I1 I2 1_555 1_555
I2 I3 1_555 1_555
I4 I5 1_555 1_555
I5 I1 1_555 1_555
N1 H1 1_555 1_555
C1 N1 1_555 1_555
H2 C1 1_555 1_555
N2 C1 1_555 1_555
C2 N2 1_555 1_555
C3 C2 1_555 1_555
C4 N1 1_555 1_555
N3 C4 1_555 1_555
H3 N3 1_555 1_555
H4 N3 1_555 1_555
N4 C3 1_555 1_555
H5 N4 1_555 1_555
C5 N4 1_555 1_555
H6 C5 1_555 1_555
N5 C2 1_555 1_555
H7 N5 1_555 1_555
O1 H8 1_555 1_555
H9 O1 1_555 1_555
C3 C4 1_555 1_555
C5 N5 1_555 1_555

#END
