
#######################################################################
#
#                 Cambridge Crystallographic Data Centre
#                                CCDC 
#
#######################################################################
#
# If this CIF has been generated from an entry in the Cambridge 
# Structural Database, then it will include bibliographic, chemical, 
# crystal, experimental, refinement or atomic coordinate data resulting 
# from the CCDC's data processing and validation procedures.
#
#######################################################################

data_AHEZEU
_chemical_formula_moiety         'C20 H26 N4 S2'
_chemical_name_systematic        
1,1'-(1,3-phenylene)bis(3-butyl-1,3-dihydro-2H-imidazole-2-thione)
_symmetry_cell_setting           monoclinic
_symmetry_space_group_name_H-M   'P 21/c'
_symmetry_Int_Tables_number      14
_space_group_name_Hall           '-P 2ybc'
loop_
_symmetry_equiv_pos_site_id
_symmetry_equiv_pos_as_xyz
1 x,y,z
2 -x,1/2+y,1/2-z
3 -x,-y,-z
4 x,1/2-y,1/2+z
_cell_length_a                   22.212(2)
_cell_length_b                   6.9974(6)
_cell_length_c                   26.698(2)
_cell_angle_alpha                90
_cell_angle_beta                 92.585(2)
_cell_angle_gamma                90
_cell_volume                     4145.35
_exptl_crystal_colour            'light yellow'
_cell_formula_units_Z            8
loop_
_atom_site_label
_atom_site_type_symbol
_atom_site_fract_x
_atom_site_fract_y
_atom_site_fract_z
S1 S 0.38950(2) 0.16630(7) 0.67270(2)
S2 S 0.18149(2) 0.73009(7) 0.55712(2)
N1 N 0.16067(7) 0.5060(2) 0.47476(5)
N2 N 0.18340(6) 0.3410(2) 0.54183(5)
N3 N 0.29076(7) -0.0672(2) 0.66347(5)
N4 N 0.37272(7) -0.2186(2) 0.68521(5)
C1 C 0.14742(8) 0.6656(3) 0.44056(7)
H1 H 0.1692 0.6466 0.4094
H2 H 0.1621 0.7859 0.4563
C2 C 0.07956(15) 0.6827(6) 0.42750(14)
H3 H 0.0733 0.7774 0.4002
H4 H 0.0645 0.5579 0.4148
C3 C 0.04275(18) 0.7423(6) 0.47148(16)
H5 H 0.0584 0.8662 0.4844
H6 H 0.0489 0.6468 0.4986
C4 C -0.0246(2) 0.7624(8) 0.45955(19)
H7 H -0.0323 0.8789 0.4399
H8 H -0.0459 0.7700 0.4909
H9 H -0.0391 0.6512 0.4402
C5 C 0.21668(9) 0.1616(3) 0.69076(7)
H10 H 0.2241 0.1193 0.7243
C6 C 0.35104(8) -0.0413(3) 0.67407(6)
C7 C 0.32661(9) -0.3525(3) 0.68170(7)
H11 H 0.3304 -0.4859 0.6877
C8 C 0.17420(9) 0.3031(3) 0.67991(7)
H12 H 0.1526 0.3581 0.7062
C9 C 0.16241(9) 0.3152(3) 0.46076(7)
H13 H 0.1550 0.2662 0.4279
C10 C 0.19539(8) 0.2847(3) 0.59285(6)
C11 C 0.27580(9) -0.2588(3) 0.66828(7)
H14 H 0.2368 -0.3132 0.6630
C12 C 0.16309(8) 0.3645(3) 0.63115(7)
H15 H 0.1337 0.4602 0.6239
C13 C 0.24799(8) 0.0831(2) 0.65214(7)
C14 C 0.23815(8) 0.1433(2) 0.60299(7)
H16 H 0.2602 0.0891 0.5768
C15 C 0.43561(8) -0.2622(3) 0.69984(7)
H17 H 0.4599 -0.1439 0.6981
H18 H 0.4515 -0.3550 0.6758
C16 C 0.17638(8) 0.2127(3) 0.50204(7)
H19 H 0.1807 0.0778 0.5039
C17 C 0.17428(8) 0.5247(3) 0.52461(6)
C18 C 0.44268(9) -0.3446(3) 0.75270(7)
H20 H 0.4213 -0.4687 0.7534
H21 H 0.4860 -0.3697 0.7605
C19 C 0.41896(9) -0.2176(3) 0.79346(7)
H22 H 0.3752 -0.1969 0.7870
H23 H 0.4392 -0.0916 0.7925
C20 C 0.42970(10) -0.3053(3) 0.84540(7)
H24 H 0.4103 -0.4310 0.8463
H25 H 0.4126 -0.2218 0.8706
H26 H 0.4731 -0.3196 0.8527
S3 S 0.30837(2) 0.61627(6) 0.43872(2)
S4 S 0.11396(2) 0.07726(7) 0.31591(2)
N5 N 0.13069(7) -0.3090(2) 0.30585(6)
N6 N 0.21306(6) -0.1543(2) 0.32419(5)
N7 N 0.33010(6) 0.2307(2) 0.44476(5)
N8 N 0.34522(6) 0.3798(2) 0.51535(5)
C24 C 0.27069(8) 0.0438(2) 0.38419(6)
H36 H 0.2527 -0.0209 0.4110
C25 C 0.31291(7) 0.1878(2) 0.39375(6)
C26 C 0.32296(8) 0.2346(3) 0.30547(7)
H37 H 0.3406 0.2999 0.2786
C27 C 0.34640(8) 0.5301(3) 0.55393(7)
H38 H 0.3430 0.4701 0.5873
H39 H 0.3111 0.6147 0.5480
C28 C 0.17707(8) -0.4423(3) 0.30947(7)
H40 H 0.1733 -0.5764 0.3048
C29 C 0.35783(8) 0.1889(3) 0.52389(7)
H41 H 0.3711 0.1338 0.5550
C30 C 0.33924(8) 0.2833(3) 0.35462(6)
H42 H 0.3681 0.3810 0.3615
C31 C 0.22814(8) -0.3463(3) 0.32078(7)
H43 H 0.2673 -0.3996 0.3256
C32 C 0.25548(8) -0.0031(2) 0.33476(6)
C33 C 0.15244(8) -0.1300(3) 0.31503(6)
C34 C 0.32816(7) 0.4091(3) 0.46632(6)
C35 C 0.28095(8) 0.0907(3) 0.29537(7)
H44 H 0.2699 0.0572 0.2617
C36 C 0.40360(8) 0.6500(3) 0.55428(7)
H45 H 0.4005 0.7530 0.5795
H46 H 0.4065 0.7113 0.5211
C37 C 0.06747(8) -0.3561(3) 0.29356(7)
H47 H 0.0424 -0.2413 0.2985
H48 H 0.0542 -0.4564 0.3168
C38 C 0.34812(8) 0.0951(3) 0.48049(7)
H49 H 0.3527 -0.0382 0.4752
C39 C 0.46107(9) 0.5370(3) 0.56605(7)
H50 H 0.4573 0.4687 0.5982
H51 H 0.4660 0.4401 0.5395
C40 C 0.07512(10) -0.2853(3) 0.20013(8)
H52 H 0.1190 -0.2604 0.2037
H53 H 0.0538 -0.1629 0.2051
C41 C 0.05757(9) -0.4264(3) 0.23980(8)
H54 H 0.0811 -0.5452 0.2358
H55 H 0.0144 -0.4589 0.2340
C42 C 0.05957(11) -0.3597(4) 0.14744(8)
H56 H 0.0711 -0.2645 0.1227
H57 H 0.0161 -0.3835 0.1437
H58 H 0.0815 -0.4790 0.1420
C43 C 0.51688(10) 0.6633(4) 0.56962(9)
H59 H 0.5193 0.7380 0.5387
H60 H 0.5529 0.5831 0.5741
H61 H 0.5144 0.7500 0.5983
H27? H 0.1495 0.6195 0.4056
H28? H 0.1788 0.7647 0.4460
C21? C 0.0861(2) 0.7556(8) 0.4471(2)
H29? H 0.0848 0.8081 0.4814
H30? H 0.0808 0.8633 0.4232
C22? C 0.0350(3) 0.6180(9) 0.4386(2)
H31? H 0.0362 0.5686 0.4039
H32? H 0.0418 0.5081 0.4615
C23? C -0.0258(3) 0.6943(11) 0.4459(3)
H33? H -0.0265 0.7576 0.4786
H34? H -0.0550 0.5894 0.4445
H35? H -0.0363 0.7868 0.4193
loop_
_geom_bond_atom_site_label_1
_geom_bond_atom_site_label_2
_geom_bond_site_symmetry_1
_geom_bond_site_symmetry_2
S1 C6 1_555 1_555
S2 C17 1_555 1_555
N1 C1 1_555 1_555
N2 C10 1_555 1_555
N3 C6 1_555 1_555
N4 C6 1_555 1_555
C1 H1 1_555 1_555
H2 C1 1_555 1_555
C2 C1 1_555 1_555
H3 C2 1_555 1_555
H4 C2 1_555 1_555
C3 C2 1_555 1_555
H5 C3 1_555 1_555
H6 C3 1_555 1_555
C4 C3 1_555 1_555
H7 C4 1_555 1_555
H8 C4 1_555 1_555
H9 C4 1_555 1_555
C5 H10 1_555 1_555
C7 N4 1_555 1_555
H11 C7 1_555 1_555
C8 C5 1_555 1_555
H12 C8 1_555 1_555
C9 N1 1_555 1_555
H13 C9 1_555 1_555
C10 C12 1_555 1_555
C11 N3 1_555 1_555
H14 C11 1_555 1_555
C12 C8 1_555 1_555
H15 C12 1_555 1_555
C13 N3 1_555 1_555
C14 C10 1_555 1_555
H16 C14 1_555 1_555
C15 N4 1_555 1_555
H17 C15 1_555 1_555
H18 C15 1_555 1_555
C16 N2 1_555 1_555
H19 C16 1_555 1_555
C17 N1 1_555 1_555
C18 C15 1_555 1_555
H20 C18 1_555 1_555
H21 C18 1_555 1_555
C19 C18 1_555 1_555
H22 C19 1_555 1_555
H23 C19 1_555 1_555
C20 C19 1_555 1_555
H24 C20 1_555 1_555
H25 C20 1_555 1_555
H26 C20 1_555 1_555
S3 C34 1_555 1_555
S4 C33 1_555 1_555
N5 C28 1_555 1_555
N6 C31 1_555 1_555
N7 C25 1_555 1_555
N8 C27 1_555 1_555
C24 H36 1_555 1_555
C25 C24 1_555 1_555
C26 H37 1_555 1_555
C27 H38 1_555 1_555
H39 C27 1_555 1_555
C28 H40 1_555 1_555
C29 N8 1_555 1_555
H41 C29 1_555 1_555
C30 C25 1_555 1_555
H42 C30 1_555 1_555
C31 C28 1_555 1_555
H43 C31 1_555 1_555
C32 N6 1_555 1_555
C33 N5 1_555 1_555
C34 N7 1_555 1_555
C35 C26 1_555 1_555
H44 C35 1_555 1_555
C36 C27 1_555 1_555
H45 C36 1_555 1_555
H46 C36 1_555 1_555
C37 N5 1_555 1_555
H47 C37 1_555 1_555
H48 C37 1_555 1_555
C38 N7 1_555 1_555
H49 C38 1_555 1_555
C39 C36 1_555 1_555
H50 C39 1_555 1_555
H51 C39 1_555 1_555
C40 H52 1_555 1_555
H53 C40 1_555 1_555
C41 C37 1_555 1_555
H54 C41 1_555 1_555
H55 C41 1_555 1_555
C42 C40 1_555 1_555
H56 C42 1_555 1_555
H57 C42 1_555 1_555
H58 C42 1_555 1_555
C43 C39 1_555 1_555
H59 C43 1_555 1_555
H60 C43 1_555 1_555
H61 C43 1_555 1_555
N2 C17 1_555 1_555
C5 C13 1_555 1_555
C7 C11 1_555 1_555
C9 C16 1_555 1_555
C13 C14 1_555 1_555
N6 C33 1_555 1_555
N8 C34 1_555 1_555
C24 C32 1_555 1_555
C26 C30 1_555 1_555
C29 C38 1_555 1_555
C32 C35 1_555 1_555
C40 C41 1_555 1_555

#END
