
#######################################################################
#
#                 Cambridge Crystallographic Data Centre
#                                CCDC 
#
#######################################################################
#
# If this CIF has been generated from an entry in the Cambridge 
# Structural Database, then it will include bibliographic, chemical, 
# crystal, experimental, refinement or atomic coordinate data resulting 
# from the CCDC's data processing and validation procedures.
#
#######################################################################

data_AHGLPY10
_chemical_name_common            Levoglucosan
_chemical_formula_moiety         'C6 H10 O5'
_chemical_name_systematic        1,6-Anhydro-\b-D-glucopyranose
_symmetry_cell_setting           orthorhombic
_symmetry_space_group_name_H-M   'P 21 21 21'
_symmetry_Int_Tables_number      19
_space_group_name_Hall           'P 2ac 2ab'
loop_
_symmetry_equiv_pos_site_id
_symmetry_equiv_pos_as_xyz
1 x,y,z
2 1/2+x,1/2-y,-z
3 -x,1/2+y,1/2-z
4 1/2-x,-y,1/2+z
_cell_length_a                   6.684(2)
_cell_length_b                   13.266(7)
_cell_length_c                   7.547(2)
_cell_angle_alpha                90
_cell_angle_beta                 90
_cell_angle_gamma                90
_cell_volume                     669.192
_chemical_melting_point          184deg.C
_cell_formula_units_Z            4
loop_
_atom_site_label
_atom_site_type_symbol
_atom_site_fract_x
_atom_site_fract_y
_atom_site_fract_z
C1 C 0.19840 0.04820 0.30600
C2 C 0.25360 0.13110 0.17610
C3 C 0.07170 0.19640 0.12750
C4 C -0.07300 0.21050 0.28440
C5 C -0.08340 0.11700 0.39950
C6 C -0.14270 0.02310 0.29470
H1 H 0.33300 0.00300 0.33900
H2 H 0.30500 0.10900 0.06200
H3 H 0.12400 0.26600 0.08600
H4 H -0.20100 0.22000 0.22500
H5 H -0.17000 0.12600 0.50600
H6 H -0.19200 -0.02400 0.38400
H7 H -0.22700 0.04500 0.19200
H8 H 0.40700 0.20500 0.36900
H9 H -0.06100 0.20000 -0.09700
H10 H -0.03500 0.34900 0.35200
O1 O 0.04720 -0.01530 0.23300
O2 O 0.41330 0.19000 0.24690
O3 O -0.02780 0.14970 -0.01800
O4 O -0.00550 0.29030 0.39660
O5 O 0.11490 0.09030 0.45900
loop_
_geom_bond_atom_site_label_1
_geom_bond_atom_site_label_2
_geom_bond_site_symmetry_1
_geom_bond_site_symmetry_2
C1 C2 1_555 1_555
C2 C3 1_555 1_555
C3 C4 1_555 1_555
C4 C5 1_555 1_555
C5 C6 1_555 1_555
C6 H6 1_555 1_555
H1 C1 1_555 1_555
H2 C2 1_555 1_555
H3 C3 1_555 1_555
H4 C4 1_555 1_555
H5 C5 1_555 1_555
H7 C6 1_555 1_555
H8 O2 1_555 1_555
H9 O3 1_555 1_555
H10 O4 1_555 1_555
O1 C1 1_555 1_555
O2 C2 1_555 1_555
O3 C3 1_555 1_555
O4 C4 1_555 1_555
O5 C1 1_555 1_555
C5 O5 1_555 1_555
C6 O1 1_555 1_555

#END
