
#######################################################################
#
#                 Cambridge Crystallographic Data Centre
#                                CCDC 
#
#######################################################################
#
# If this CIF has been generated from an entry in the Cambridge 
# Structural Database, then it will include bibliographic, chemical, 
# crystal, experimental, refinement or atomic coordinate data resulting 
# from the CCDC's data processing and validation procedures.
#
#######################################################################

data_AHIMOU
_chemical_formula_moiety         'C18 H12 N6'
_chemical_name_systematic        3,8-bis(1H-Imidazol-1-yl)-1,10-phenanthroline
_symmetry_cell_setting           monoclinic
_symmetry_space_group_name_H-M   'P 21/c'
_symmetry_Int_Tables_number      14
_space_group_name_Hall           '-P 2ybc'
loop_
_symmetry_equiv_pos_site_id
_symmetry_equiv_pos_as_xyz
1 x,y,z
2 -x,1/2+y,1/2-z
3 -x,-y,-z
4 x,1/2-y,1/2+z
_cell_length_a                   11.1072(12)
_cell_length_b                   9.4637(10)
_cell_length_c                   13.3060(13)
_cell_angle_alpha                90
_cell_angle_beta                 91.210(3)
_cell_angle_gamma                90
_cell_volume                     1398.35
_exptl_crystal_colour            yellow
_exptl_crystal_description       block
_cell_formula_units_Z            4
_exptl_crystal_recrystallization_method methanol
loop_
_atom_site_label
_atom_site_type_symbol
_atom_site_fract_x
_atom_site_fract_y
_atom_site_fract_z
C1 C 0.1187(2) 0.1464(3) 0.20655(19)
H1 H 0.0964 0.0625 0.1749
C2 C 0.0781(2) 0.2737(3) 0.16464(18)
C3 C 0.1118(2) 0.3977(3) 0.20907(18)
H2 H 0.0867 0.4835 0.1817
C4 C 0.1847(2) 0.3947(3) 0.29645(18)
C5 C 0.2219(2) 0.5219(3) 0.34677(19)
H3 H 0.1983 0.6091 0.3208
C6 C 0.2908(2) 0.5164(3) 0.43135(19)
H4 H 0.3144 0.5998 0.4630
C7 C 0.3280(2) 0.3835(2) 0.47282(18)
C8 C 0.4027(2) 0.3758(3) 0.55903(18)
H5 H 0.4281 0.4578 0.5916
C9 C 0.4375(2) 0.2466(3) 0.59452(18)
C10 C 0.3944(2) 0.1251(3) 0.54573(18)
H6 H 0.4160 0.0375 0.5723
C11 C 0.2929(2) 0.2559(2) 0.42634(18)
C12 C 0.2195(2) 0.2613(2) 0.33467(17)
C13 C 0.0059(2) 0.1798(3) 0.0003(2)
H7 H 0.0634 0.1088 -0.0045
C14 C -0.1419(2) 0.3149(3) -0.0314(2)
H8 H -0.2086 0.3550 -0.0637
C15 C -0.0944(2) 0.3609(3) 0.0569(2)
H9 H -0.1205 0.4365 0.0955
C16 C 0.5109(2) 0.3115(3) 0.76547(19)
H10 H 0.4521 0.3789 0.7775
C17 C 0.6636(2) 0.1779(3) 0.7819(2)
H11 H 0.7323 0.1352 0.8092
C18 C 0.6152(2) 0.1475(3) 0.69082(19)
H12 H 0.6429 0.0818 0.6448
N1 N 0.18744(19) 0.1393(2) 0.28936(16)
N2 N 0.32487(19) 0.1281(2) 0.46399(15)
N3 N 0.00128(18) 0.2715(2) 0.07778(15)
N4 N -0.0792(2) 0.2017(3) -0.06733(17)
N5 N 0.51612(17) 0.2343(2) 0.68000(15)
N6 N 0.5982(2) 0.2801(3) 0.82910(17)
loop_
_geom_bond_atom_site_label_1
_geom_bond_atom_site_label_2
_geom_bond_site_symmetry_1
_geom_bond_site_symmetry_2
C1 H1 1_555 1_555
C2 C1 1_555 1_555
C3 C2 1_555 1_555
H2 C3 1_555 1_555
C4 C3 1_555 1_555
C5 C4 1_555 1_555
H3 C5 1_555 1_555
C6 C5 1_555 1_555
H4 C6 1_555 1_555
C7 C6 1_555 1_555
C8 C7 1_555 1_555
H5 C8 1_555 1_555
C9 C8 1_555 1_555
C10 C9 1_555 1_555
H6 C10 1_555 1_555
C11 C7 1_555 1_555
C12 C4 1_555 1_555
C13 H7 1_555 1_555
C14 H8 1_555 1_555
C15 C14 1_555 1_555
H9 C15 1_555 1_555
C16 H10 1_555 1_555
C17 H11 1_555 1_555
C18 C17 1_555 1_555
H12 C18 1_555 1_555
N1 C1 1_555 1_555
N2 C10 1_555 1_555
N3 C2 1_555 1_555
N4 C13 1_555 1_555
N5 C9 1_555 1_555
N6 C16 1_555 1_555
C11 C12 1_555 1_555
C11 N2 1_555 1_555
C12 N1 1_555 1_555
C13 N3 1_555 1_555
C14 N4 1_555 1_555
C15 N3 1_555 1_555
C16 N5 1_555 1_555
C17 N6 1_555 1_555
C18 N5 1_555 1_555

#END
