
#######################################################################
#
#                 Cambridge Crystallographic Data Centre
#                                CCDC 
#
#######################################################################
#
# If this CIF has been generated from an entry in the Cambridge 
# Structural Database, then it will include bibliographic, chemical, 
# crystal, experimental, refinement or atomic coordinate data resulting 
# from the CCDC's data processing and validation procedures.
#
#######################################################################

data_AHIMAF
_chemical_name_common            indole
_chemical_formula_moiety         'C20 H25 N2 O2 S1 1+,I1 1-'
_chemical_name_systematic        
'Trimethyl(3-methyl-1-(o-tolenesulfonyl)indol-2-ylmethyl)ammonium iodide'
_symmetry_cell_setting           triclinic
_symmetry_space_group_name_H-M   'P -1'
_symmetry_Int_Tables_number      2
_space_group_name_Hall           '-P 1'
loop_
_symmetry_equiv_pos_site_id
_symmetry_equiv_pos_as_xyz
1 x,y,z
2 -x,-y,-z
_cell_length_a                   7.02590(10)
_cell_length_b                   12.2874(2)
_cell_length_c                   13.0484(3)
_cell_angle_alpha                80.3160(10)
_cell_angle_beta                 79.5080(10)
_cell_angle_gamma                74.4620(10)
_cell_volume                     1058.64
_exptl_crystal_colour            yellow
_exptl_crystal_description       block
_cell_formula_units_Z            2
loop_
_atom_site_label
_atom_site_type_symbol
_atom_site_fract_x
_atom_site_fract_y
_atom_site_fract_z
I1 I -0.15238(2) 0.514750(14) 0.782778(12)
S1 S 0.19305(9) 0.06052(5) 0.85595(4)
N1 N 0.2278(3) 0.17371(15) 0.77157(14)
N2 N 0.3992(3) 0.30834(17) 0.93723(15)
O1 O -0.0154(3) 0.08328(18) 0.89554(16)
O2 O 0.3355(3) 0.03789(15) 0.92727(15)
C1 C 0.2534(4) -0.05538(18) 0.7812(2)
C2 C 0.4368(5) -0.0870(2) 0.7178(3)
C3 C 0.4711(6) -0.1877(3) 0.6745(4)
H1 H 0.5913 -0.2121 0.6316
C4 C 0.3332(8) -0.2525(3) 0.6932(4)
H2 H 0.3629 -0.3199 0.6636
C5 C 0.1542(6) -0.2194(3) 0.7541(4)
H3 H 0.0608 -0.2629 0.7648
C6 C 0.1125(5) -0.1202(3) 0.8000(4)
H4 H -0.0082 -0.0971 0.8429
C7 C 0.5923(5) -0.0201(3) 0.6968(4)
H5 H 0.7122 -0.0623 0.6589
H6 H 0.6202 -0.0065 0.7622
H7 H 0.5444 0.0514 0.6556
C8 C 0.1425(6) 0.3416(3) 0.5229(4)
H8 H 0.1902 0.4008 0.4817
C9 C 0.2110(2) 0.29310(10) 0.61880(10)
C10 C 0.1336(5) 0.2052(3) 0.6802(3)
C11 C -0.0100(4) 0.1631(2) 0.6496(2)
H9 H -0.0625 0.1060 0.6917
C12 C -0.0709(5) 0.2106(3) 0.5528(2)
H10 H -0.1628 0.1827 0.5285
C13 C 0.0024(5) 0.2991(3) 0.4912(2)
H11 H -0.0440 0.3301 0.4277
C14 C 0.3526(3) 0.31675(18) 0.67330(17)
C15 C 0.3631(3) 0.24486(17) 0.76521(16)
C16 C 0.4601(5) 0.4091(2) 0.6336(2)
H12 H 0.3674 0.4820 0.6382
H13 H 0.5188 0.4029 0.5617
H14 H 0.5631 0.4016 0.6755
C17 C 0.4935(3) 0.23823(19) 0.84584(18)
H15 H 0.6117 0.2629 0.8108
H16 H 0.5368 0.1591 0.8748
C18 C 0.5555(5) 0.2868(3) 1.0086(2)
H17 H 0.5050 0.3323 1.0652
H18 H 0.6736 0.3068 0.9694
H19 H 0.5874 0.2078 1.0366
C19 C 0.3450(4) 0.4333(2) 0.8993(2)
H20 H 0.2501 0.4481 0.8511
H21 H 0.4627 0.4568 0.8643
H22 H 0.2874 0.4749 0.9580
C20 C 0.2141(5) 0.2773(3) 0.9968(2)
H23 H 0.2456 0.1982 1.0251
H24 H 0.1164 0.2906 0.9505
H25 H 0.1617 0.3230 1.0532
loop_
_geom_bond_atom_site_label_1
_geom_bond_atom_site_label_2
_geom_bond_site_symmetry_1
_geom_bond_site_symmetry_2
S1 N1 1_555 1_555
N1 C10 1_555 1_555
N2 C17 1_555 1_555
O1 S1 1_555 1_555
O2 S1 1_555 1_555
C1 S1 1_555 1_555
C2 C1 1_555 1_555
C3 C2 1_555 1_555
H1 C3 1_555 1_555
C4 C3 1_555 1_555
H2 C4 1_555 1_555
C5 C4 1_555 1_555
H3 C5 1_555 1_555
C6 C1 1_555 1_555
H4 C6 1_555 1_555
C7 C2 1_555 1_555
H5 C7 1_555 1_555
H6 C7 1_555 1_555
H7 C7 1_555 1_555
C8 H8 1_555 1_555
C9 C8 1_555 1_555
C10 C9 1_555 1_555
C11 C10 1_555 1_555
H9 C11 1_555 1_555
C12 C11 1_555 1_555
H10 C12 1_555 1_555
C13 C8 1_555 1_555
H11 C13 1_555 1_555
C14 C9 1_555 1_555
C15 N1 1_555 1_555
C16 C14 1_555 1_555
H12 C16 1_555 1_555
H13 C16 1_555 1_555
H14 C16 1_555 1_555
C17 C15 1_555 1_555
H15 C17 1_555 1_555
H16 C17 1_555 1_555
C18 N2 1_555 1_555
H17 C18 1_555 1_555
H18 C18 1_555 1_555
H19 C18 1_555 1_555
C19 N2 1_555 1_555
H20 C19 1_555 1_555
H21 C19 1_555 1_555
H22 C19 1_555 1_555
C20 N2 1_555 1_555
H23 C20 1_555 1_555
H24 C20 1_555 1_555
H25 C20 1_555 1_555
C5 C6 1_555 1_555
C12 C13 1_555 1_555
C14 C15 1_555 1_555

#END
