
#######################################################################
#
#                 Cambridge Crystallographic Data Centre
#                                CCDC 
#
#######################################################################
#
# If this CIF has been generated from an entry in the Cambridge 
# Structural Database, then it will include bibliographic, chemical, 
# crystal, experimental, refinement or atomic coordinate data resulting 
# from the CCDC's data processing and validation procedures.
#
#######################################################################

data_AHIMEJ
_chemical_formula_moiety         'C29 H25 Br1 N2 O2 S1'
_chemical_name_systematic        
Benzyl(3-bromo-1-(phenylsulfonyl)indol-2-ylmethyl)(p-tolyl)amine
_symmetry_cell_setting           triclinic
_symmetry_space_group_name_H-M   'P -1'
_symmetry_Int_Tables_number      2
_space_group_name_Hall           '-P 1'
loop_
_symmetry_equiv_pos_site_id
_symmetry_equiv_pos_as_xyz
1 x,y,z
2 -x,-y,-z
_cell_length_a                   9.742(5)
_cell_length_b                   12.211(5)
_cell_length_c                   12.446(5)
_cell_angle_alpha                61.362(5)
_cell_angle_beta                 99.119(5)
_cell_angle_gamma                108.610(5)
_cell_volume                     1231.47
_exptl_crystal_colour            yellow
_exptl_crystal_description       block
_cell_formula_units_Z            2
_exptl_crystal_recrystallization_method 'ethyl acetate/hexane'
loop_
_atom_site_label
_atom_site_type_symbol
_atom_site_fract_x
_atom_site_fract_y
_atom_site_fract_z
Br1 Br 0.62726(6) 0.72945(5) 0.20377(5)
S1 S 0.24246(14) 0.64916(11) 0.54329(12)
O1 O 0.1236(4) 0.6136(3) 0.4735(4)
O2 O 0.2565(4) 0.5640(3) 0.6693(3)
N1 N 0.3940(4) 0.6731(3) 0.4776(3)
N2 N 0.2357(4) 0.8348(3) 0.2337(4)
C1 C 0.4108(5) 0.7055(4) 0.3537(4)
C2 C 0.5445(5) 0.6996(4) 0.3447(4)
C3 C 0.6186(5) 0.6654(4) 0.4591(4)
C4 C 0.7565(5) 0.6485(4) 0.4965(4)
H1 H 0.8188 0.6561 0.4423
C5 C 0.7969(6) 0.6205(5) 0.6146(5)
H2 H 0.8884 0.6092 0.6414
C6 C 0.7047(7) 0.6085(5) 0.6949(5)
H3 H 0.7366 0.5908 0.7745
C7 C 0.5661(6) 0.6218(4) 0.6620(5)
H4 H 0.5043 0.6119 0.7177
C8 C 0.5236(5) 0.6506(4) 0.5409(4)
C9 C 0.2488(5) 0.7989(4) 0.5319(4)
C10 C 0.1484(6) 0.8605(5) 0.4619(5)
H5 H 0.0803 0.8251 0.4173
C11 C 0.1481(7) 0.9755(6) 0.4574(5)
H6 H 0.0799 1.0180 0.4094
C12 C 0.2474(7) 1.0269(5) 0.5229(5)
H7 H 0.2464 1.1041 0.5201
C13 C 0.3472(7) 0.9665(5) 0.5920(5)
H8 H 0.4150 1.0027 0.6361
C14 C 0.3501(6) 0.8513(5) 0.5980(5)
H9 H 0.4192 0.8097 0.6457
C15 C 0.2963(5) 0.7299(4) 0.2567(4)
H10 H 0.3366 0.7498 0.1809
H11 H 0.2178 0.6502 0.2794
C16 C 0.0842(5) 0.8115(5) 0.1920(5)
H12 H 0.0479 0.8806 0.1833
H13 H 0.0274 0.7306 0.2547
C17 C 0.0610(5) 0.8043(5) 0.0731(5)
C18 C -0.0058(6) 0.6882(6) 0.0703(6)
H14 H -0.0419 0.6139 0.1421
C19 C -0.0198(8) 0.6808(7) -0.0396(7)
H15 H -0.0622 0.6012 -0.0401
C20 C 0.0281(7) 0.7894(7) -0.1457(7)
H16 H 0.0160 0.7843 -0.2190
C21 C 0.0934(6) 0.9049(7) -0.1453(6)
H17 H 0.1278 0.9789 -0.2179
C22 C 0.1090(5) 0.9126(5) -0.0362(5)
H18 H 0.1527 0.9926 -0.0368
C23 C 0.3265(5) 0.9644(4) 0.1802(4)
C24 C 0.2789(5) 1.0641(5) 0.1725(5)
H19 H 0.1857 1.0457 0.1974
C25 C 0.3678(6) 1.1891(5) 0.1285(5)
H20 H 0.3328 1.2534 0.1246
C26 C 0.5059(6) 1.2221(4) 0.0904(4)
C27 C 0.5511(5) 1.1243(5) 0.0954(4)
H21 H 0.6436 1.1439 0.0684
C28 C 0.4643(5) 0.9979(4) 0.1390(4)
H22 H 0.4991 0.9345 0.1407
C29 C 0.6054(7) 1.3593(5) 0.0429(5)
H23 H 0.5769 1.4115 -0.0389
H24 H 0.7033 1.3578 0.0426
H25 H 0.5993 1.3956 0.0948
loop_
_geom_bond_atom_site_label_1
_geom_bond_atom_site_label_2
_geom_bond_site_symmetry_1
_geom_bond_site_symmetry_2
Br1 C2 1_555 1_555
S1 O1 1_555 1_555
O2 S1 1_555 1_555
N1 S1 1_555 1_555
N2 C15 1_555 1_555
C1 N1 1_555 1_555
C2 C1 1_555 1_555
C3 C2 1_555 1_555
C4 C3 1_555 1_555
H1 C4 1_555 1_555
C5 C4 1_555 1_555
H2 C5 1_555 1_555
C6 C5 1_555 1_555
H3 C6 1_555 1_555
C7 C6 1_555 1_555
H4 C7 1_555 1_555
C8 N1 1_555 1_555
C9 S1 1_555 1_555
C10 C9 1_555 1_555
H5 C10 1_555 1_555
C11 C10 1_555 1_555
H6 C11 1_555 1_555
C12 C11 1_555 1_555
H7 C12 1_555 1_555
C13 C12 1_555 1_555
H8 C13 1_555 1_555
C14 C9 1_555 1_555
H9 C14 1_555 1_555
C15 C1 1_555 1_555
H10 C15 1_555 1_555
H11 C15 1_555 1_555
C16 N2 1_555 1_555
H12 C16 1_555 1_555
H13 C16 1_555 1_555
C17 C16 1_555 1_555
C18 C17 1_555 1_555
H14 C18 1_555 1_555
C19 C18 1_555 1_555
H15 C19 1_555 1_555
C20 C19 1_555 1_555
H16 C20 1_555 1_555
C21 C20 1_555 1_555
H17 C21 1_555 1_555
C22 C17 1_555 1_555
H18 C22 1_555 1_555
C23 N2 1_555 1_555
C24 C23 1_555 1_555
H19 C24 1_555 1_555
C25 C24 1_555 1_555
H20 C25 1_555 1_555
C26 C25 1_555 1_555
C27 C26 1_555 1_555
H21 C27 1_555 1_555
C28 C23 1_555 1_555
H22 C28 1_555 1_555
C29 C26 1_555 1_555
H23 C29 1_555 1_555
H24 C29 1_555 1_555
H25 C29 1_555 1_555
C3 C8 1_555 1_555
C7 C8 1_555 1_555
C13 C14 1_555 1_555
C21 C22 1_555 1_555
C27 C28 1_555 1_555

#END
