
#######################################################################
#
#                 Cambridge Crystallographic Data Centre
#                                CCDC 
#
#######################################################################
#
# If this CIF has been generated from an entry in the Cambridge 
# Structural Database, then it will include bibliographic, chemical, 
# crystal, experimental, refinement or atomic coordinate data resulting 
# from the CCDC's data processing and validation procedures.
#
#######################################################################

data_AHIPIR
_chemical_formula_moiety         'C18 H24 F5 K1 O7'
_chemical_name_systematic        
(18-Crown-6)-(pentafluorophenolato-F,O)-potassium
_symmetry_cell_setting           monoclinic
_symmetry_space_group_name_H-M   'P 21/n'
_symmetry_Int_Tables_number      14
_space_group_name_Hall           '-P 2yn'
loop_
_symmetry_equiv_pos_site_id
_symmetry_equiv_pos_as_xyz
1 x,y,z
2 1/2-x,1/2+y,1/2-z
3 -x,-y,-z
4 1/2+x,1/2-y,1/2+z
_cell_length_a                   11.0008(14)
_cell_length_b                   8.4354(10)
_cell_length_c                   23.144(3)
_cell_angle_alpha                90
_cell_angle_beta                 100.887(2)
_cell_angle_gamma                90
_cell_volume                     2109.02
_exptl_crystal_colour            colorless
_exptl_crystal_description       plate
_cell_formula_units_Z            4
loop_
_atom_site_label
_atom_site_type_symbol
_atom_site_fract_x
_atom_site_fract_y
_atom_site_fract_z
K1 K 0.01524(3) 0.42519(3) 0.176280(13)
F1 F -0.25828(9) 0.43820(11) 0.13677(4)
F2 F -0.49500(10) 0.45937(13) 0.08017(5)
F3 F -0.58269(8) 0.27167(13) -0.01542(5)
F4 F -0.42493(9) 0.05786(11) -0.05148(4)
F5 F -0.19160(8) 0.02752(10) 0.00603(4)
O1 O 0.02401(9) 0.38257(13) 0.30348(4)
O2 O -0.08087(10) 0.65605(13) 0.24560(5)
O3 O 0.00537(9) 0.76314(12) 0.14540(5)
O4 O 0.09551(9) 0.53403(12) 0.07758(4)
O5 O 0.21724(9) 0.26714(12) 0.13671(4)
O6 O 0.13120(10) 0.16166(12) 0.23921(4)
O7 O -0.10113(10) 0.21498(12) 0.10322(5)
C1 C -0.08486(15) 0.4532(2) 0.31644(7)
H1 H -0.0908 0.4320 0.3579
H2 H -0.1589 0.4078 0.2907
C2 C -0.07910(16) 0.6275(2) 0.30640(7)
H3 H -0.1507 0.6802 0.3185
H4 H -0.0024 0.6715 0.3303
C3 C -0.06655(15) 0.81968(19) 0.23332(7)
H5 H 0.0184 0.8548 0.2507
H6 H -0.1258 0.8836 0.2509
C4 C -0.08994(14) 0.84318(18) 0.16827(7)
H7 H -0.1719 0.7995 0.1504
H8 H -0.0892 0.9577 0.1589
C5 C -0.01659(14) 0.77316(18) 0.08287(7)
H9 H -0.0240 0.8856 0.0705
H10 H -0.0950 0.7187 0.0661
C6 C 0.08885(14) 0.69681(18) 0.06080(7)
H11 H 0.0759 0.7058 0.0174
H12 H 0.1673 0.7509 0.0777
C7 C 0.19484(14) 0.45570(18) 0.05819(6)
H13 H 0.2746 0.5036 0.0772
H14 H 0.1863 0.4673 0.0150
C8 C 0.19255(14) 0.28367(18) 0.07411(6)
H15 H 0.1104 0.2380 0.0576
H16 H 0.2558 0.2254 0.0572
C9 C 0.20799(14) 0.10417(17) 0.15239(7)
H17 H 0.2695 0.0405 0.1363
H18 H 0.1244 0.0634 0.1356
C10 C 0.23141(14) 0.09003(17) 0.21798(7)
H19 H 0.2384 -0.0231 0.2296
H20 H 0.3100 0.1437 0.2352
C11 C 0.14673(16) 0.15200(18) 0.30169(7)
H21 H 0.2208 0.2128 0.3203
H22 H 0.1581 0.0402 0.3145
C12 C 0.03386(17) 0.21902(19) 0.31948(7)
H23 H -0.0405 0.1610 0.2995
H24 H 0.0398 0.2077 0.3625
C13 C -0.21257(13) 0.22939(16) 0.07526(6)
C14 C -0.29837(14) 0.34109(17) 0.08990(6)
C15 C -0.41910(14) 0.35494(19) 0.06071(7)
C16 C -0.46389(13) 0.2606(2) 0.01308(7)
C17 C -0.38446(14) 0.15130(17) -0.00441(6)
C18 C -0.26474(13) 0.13590(16) 0.02591(6)
loop_
_geom_bond_atom_site_label_1
_geom_bond_atom_site_label_2
_geom_bond_site_symmetry_1
_geom_bond_site_symmetry_2
K1 F1 1_555 1_555
F1 C14 1_555 1_555
F2 C15 1_555 1_555
F3 C16 1_555 1_555
F4 C17 1_555 1_555
F5 C18 1_555 1_555
O1 K1 1_555 1_555
O2 K1 1_555 1_555
O3 K1 1_555 1_555
O4 K1 1_555 1_555
O5 K1 1_555 1_555
O6 K1 1_555 1_555
O7 K1 1_555 1_555
C1 O1 1_555 1_555
H1 C1 1_555 1_555
H2 C1 1_555 1_555
C2 O2 1_555 1_555
H3 C2 1_555 1_555
H4 C2 1_555 1_555
C3 O2 1_555 1_555
H5 C3 1_555 1_555
H6 C3 1_555 1_555
C4 O3 1_555 1_555
H7 C4 1_555 1_555
H8 C4 1_555 1_555
C5 O3 1_555 1_555
H9 C5 1_555 1_555
H10 C5 1_555 1_555
C6 O4 1_555 1_555
H11 C6 1_555 1_555
H12 C6 1_555 1_555
C7 O4 1_555 1_555
H13 C7 1_555 1_555
H14 C7 1_555 1_555
C8 O5 1_555 1_555
H15 C8 1_555 1_555
H16 C8 1_555 1_555
C9 O5 1_555 1_555
H17 C9 1_555 1_555
H18 C9 1_555 1_555
C10 O6 1_555 1_555
H19 C10 1_555 1_555
H20 C10 1_555 1_555
C11 O6 1_555 1_555
H21 C11 1_555 1_555
H22 C11 1_555 1_555
C12 O1 1_555 1_555
H23 C12 1_555 1_555
H24 C12 1_555 1_555
C13 O7 1_555 1_555
C14 C13 1_555 1_555
C15 C14 1_555 1_555
C16 C15 1_555 1_555
C17 C16 1_555 1_555
C18 C13 1_555 1_555
C1 C2 1_555 1_555
C3 C4 1_555 1_555
C5 C6 1_555 1_555
C7 C8 1_555 1_555
C9 C10 1_555 1_555
C11 C12 1_555 1_555
C17 C18 1_555 1_555

#END
