
#######################################################################
#
#                 Cambridge Crystallographic Data Centre
#                                CCDC 
#
#######################################################################
#
# If this CIF has been generated from an entry in the Cambridge 
# Structural Database, then it will include bibliographic, chemical, 
# crystal, experimental, refinement or atomic coordinate data resulting 
# from the CCDC's data processing and validation procedures.
#
#######################################################################

data_AHIWUL
_chemical_formula_moiety         'C30 H6 F10 S6'
_chemical_name_systematic        
2,6-bis(5-(pentafluorophenyl)-2-thienyl)thieno[3,2-b]thieno[2',3':4,5]thieno[2,3-d]thiophene
_symmetry_cell_setting           monoclinic
_symmetry_space_group_name_H-M   'P 21/c'
_symmetry_Int_Tables_number      14
_space_group_name_Hall           '-P 2ybc'
loop_
_symmetry_equiv_pos_site_id
_symmetry_equiv_pos_as_xyz
1 x,y,z
2 -x,1/2+y,1/2-z
3 -x,-y,-z
4 x,1/2-y,1/2+z
_cell_length_a                   28.5004(19)
_cell_length_b                   3.9449(3)
_cell_length_c                   11.3467(9)
_cell_angle_alpha                90
_cell_angle_beta                 97.894(6)
_cell_angle_gamma                90
_cell_volume                     1263.63
_exptl_crystal_colour            colorless
_exptl_crystal_description       plate
_cell_formula_units_Z            2
loop_
_atom_site_label
_atom_site_type_symbol
_atom_site_fract_x
_atom_site_fract_y
_atom_site_fract_z
S1 S 1.03448(4) 0.7120(3) 0.15925(12)
S2 S 0.89663(4) 0.6690(3) 0.11573(12)
S3 S 0.75837(4) 0.4250(3) -0.08342(12)
F1 F 0.67587(10) 0.1752(7) -0.2040(3)
F2 F 0.58341(10) 0.1349(8) -0.2788(3)
F3 F 0.51979(9) 0.4623(8) -0.1603(3)
F4 F 0.55180(10) 0.8310(8) 0.0371(3)
F5 F 0.64327(10) 0.8728(7) 0.1154(3)
C1 C 0.99087(17) 0.5658(13) 0.0481(4)
C2 C 0.94061(17) 0.5504(13) 0.0337(5)
C3 C 0.92182(17) 0.4062(13) -0.0739(5)
C4 C 0.87182(17) 0.3864(13) -0.0894(5)
H1 H 0.8535 0.2911 -0.1577
C5 C 0.85276(17) 0.5197(13) 0.0047(5)
C6 C 0.80375(17) 0.5499(13) 0.0244(5)
C7 C 0.78643(18) 0.6752(14) 0.1207(5)
H2 H 0.8061 0.7563 0.1892
C8 C 0.73704(18) 0.6748(13) 0.1102(5)
H3 H 0.7199 0.7549 0.1708
C9 C 0.71585(18) 0.5475(13) 0.0040(5)
C10 C 0.66505(16) 0.5235(12) -0.0392(5)
C11 C 0.64651(17) 0.3409(13) -0.1412(5)
C12 C 0.59878(17) 0.3181(13) -0.1814(5)
C13 C 0.56657(17) 0.4823(14) -0.1221(5)
C14 C 0.58272(17) 0.6632(13) -0.0211(5)
C15 C 0.63051(18) 0.6817(13) 0.0178(5)
S1B S 0.96552(4) 0.2880(3) -0.15925(12)
S2B S 1.10337(4) 0.3310(3) -0.11573(12)
S3B S 1.24163(4) 0.5750(3) 0.08342(12)
F1B F 1.32413(10) 0.8248(7) 0.2040(3)
F2B F 1.41659(10) 0.8651(8) 0.2788(3)
F3B F 1.48021(9) 0.5377(8) 0.1603(3)
F4B F 1.44820(10) 0.1690(8) -0.0371(3)
F5B F 1.35673(10) 0.1272(7) -0.1154(3)
C1B C 1.00913(17) 0.4342(13) -0.0481(4)
C2B C 1.05939(17) 0.4496(13) -0.0337(5)
C3B C 1.07818(17) 0.5938(13) 0.0739(5)
C4B C 1.12818(17) 0.6136(13) 0.0894(5)
H1B H 1.1465 0.7089 0.1577
C5B C 1.14724(17) 0.4803(13) -0.0047(5)
C6B C 1.19625(17) 0.4501(13) -0.0244(5)
C7B C 1.21357(18) 0.3248(14) -0.1207(5)
H2B H 1.1939 0.2437 -0.1892
C8B C 1.26296(18) 0.3252(13) -0.1102(5)
H3B H 1.2801 0.2451 -0.1708
C9B C 1.28415(18) 0.4525(13) -0.0040(5)
C10B C 1.33495(16) 0.4765(12) 0.0392(5)
C11B C 1.35349(17) 0.6591(13) 0.1412(5)
C12B C 1.40122(17) 0.6819(13) 0.1814(5)
C13B C 1.43343(17) 0.5177(14) 0.1221(5)
C14B C 1.41728(17) 0.3368(13) 0.0211(5)
C15B C 1.36949(18) 0.3183(13) -0.0178(5)
loop_
_geom_bond_atom_site_label_1
_geom_bond_atom_site_label_2
_geom_bond_site_symmetry_1
_geom_bond_site_symmetry_2
S1 C1 1_555 1_555
S2 C2 1_555 1_555
S3 C6 1_555 1_555
F1 C11 1_555 1_555
F2 C12 1_555 1_555
F3 C13 1_555 1_555
F4 C14 1_555 1_555
F5 C15 1_555 1_555
C1 C2 1_555 1_555
C2 C3 1_555 1_555
C3 C4 1_555 1_555
C4 H1 1_555 1_555
C5 S2 1_555 1_555
C6 C5 1_555 1_555
C7 C6 1_555 1_555
H2 C7 1_555 1_555
C8 C7 1_555 1_555
H3 C8 1_555 1_555
C9 S3 1_555 1_555
C10 C9 1_555 1_555
C11 C10 1_555 1_555
C12 C11 1_555 1_555
C13 C12 1_555 1_555
C14 C13 1_555 1_555
C15 C10 1_555 1_555
S1B C3 1_555 1_555
S2B C2B 1_555 1_555
S3B C6B 1_555 1_555
F1B C11B 1_555 1_555
F2B C12B 1_555 1_555
F3B C13B 1_555 1_555
F4B C14B 1_555 1_555
F5B C15B 1_555 1_555
C1B C1 1_555 1_555
C2B C1B 1_555 1_555
C3B S1 1_555 1_555
C4B C3B 1_555 1_555
H1B C4B 1_555 1_555
C5B S2B 1_555 1_555
C6B C5B 1_555 1_555
C7B C6B 1_555 1_555
H2B C7B 1_555 1_555
C8B C7B 1_555 1_555
H3B C8B 1_555 1_555
C9B S3B 1_555 1_555
C10B C9B 1_555 1_555
C11B C10B 1_555 1_555
C12B C11B 1_555 1_555
C13B C12B 1_555 1_555
C14B C13B 1_555 1_555
C15B C10B 1_555 1_555
C4 C5 1_555 1_555
C8 C9 1_555 1_555
C14 C15 1_555 1_555
S1B C1B 1_555 1_555
C2B C3B 1_555 1_555
C4B C5B 1_555 1_555
C8B C9B 1_555 1_555
C14B C15B 1_555 1_555

#END
