
#######################################################################
#
#                 Cambridge Crystallographic Data Centre
#                                CCDC 
#
#######################################################################
#
# If this CIF has been generated from an entry in the Cambridge 
# Structural Database, then it will include bibliographic, chemical, 
# crystal, experimental, refinement or atomic coordinate data resulting 
# from the CCDC's data processing and validation procedures.
#
#######################################################################

data_AHIWIY
_chemical_name_common            
6,6-Diphenyl-6H-pyrido[1,2-c][1,3,2]benzoxazaborinine
_chemical_formula_moiety         'C23 H18 B1 N1 O1'
_chemical_name_systematic        (2-(2-Pyridyl)phenolato-N,O)-diphenyl-boron
_symmetry_cell_setting           triclinic
_symmetry_space_group_name_H-M   'P -1'
_symmetry_Int_Tables_number      2
_space_group_name_Hall           '-P 1'
loop_
_symmetry_equiv_pos_site_id
_symmetry_equiv_pos_as_xyz
1 x,y,z
2 -x,-y,-z
_cell_length_a                   9.4401(14)
_cell_length_b                   12.9483(18)
_cell_length_c                   15.101(2)
_cell_angle_alpha                87.827(3)
_cell_angle_beta                 85.494(3)
_cell_angle_gamma                79.505(3)
_cell_volume                     1808.83
_exptl_crystal_colour            'pale yellow'
_cell_formula_units_Z            4
_exptl_crystal_recrystallization_method n-hexane/dichloromethane
_exptl_crystal_preparation       photoluminescent
loop_
_atom_site_label
_atom_site_type_symbol
_atom_site_fract_x
_atom_site_fract_y
_atom_site_fract_z
O1 O 0.66430(14) 0.28265(9) 0.18735(8)
N1 N 0.50850(16) 0.45612(11) 0.16646(10)
C1 C 0.4292(2) 0.41356(15) 0.11120(12)
C2 C 0.5662(2) 0.23780(15) 0.14945(12)
C3 C 0.4491(2) 0.29870(15) 0.11044(12)
C6 C 0.7508(2) 0.43693(14) 0.24399(14)
C9 C 0.5884(2) 0.12856(15) 0.14653(12)
H1 H 0.6661 0.0881 0.1733
C10 C 0.5155(2) 0.36533(14) 0.32434(13)
C12 C 0.3369(2) 0.48003(16) 0.05768(13)
H3 H 0.2850 0.4515 0.0180
C15 C 0.4018(2) 0.62912(16) 0.12025(14)
H5 H 0.3937 0.7014 0.1247
C16 C 0.4931(2) 0.56169(15) 0.17019(13)
H6 H 0.5475 0.5896 0.2088
C17 C 0.4947(3) 0.08073(17) 0.10379(14)
H7 H 0.5098 0.0079 0.1014
C18 C 0.3214(2) 0.58725(17) 0.06273(13)
H8 H 0.2576 0.6312 0.0279
C20 C 0.3561(2) 0.24752(16) 0.06848(13)
H10 H 0.2770 0.2871 0.0425
C25 C 0.3787(3) 0.14023(18) 0.06461(14)
H15 H 0.3160 0.1076 0.0357
B1 B 0.6128(3) 0.38275(17) 0.23413(15)
C27 C 0.8517(2) 0.43963(16) 0.17338(15)
H17 H 0.8399 0.4070 0.1213
C29 C 0.5782(3) 0.29626(16) 0.38979(15)
H19 H 0.6736 0.2626 0.3799
C31 C 0.3723(2) 0.41146(15) 0.34301(15)
H21 H 0.3265 0.4578 0.3012
C33 C 0.7749(2) 0.48578(15) 0.32074(15)
H23 H 0.7098 0.4859 0.3703
C39 C 0.3604(3) 0.32317(19) 0.48445(17)
H29 H 0.3089 0.3089 0.5372
C41 C 0.2945(3) 0.39121(17) 0.42168(17)
H31 H 0.1984 0.4234 0.4318
C42 C 0.9698(3) 0.48865(18) 0.17619(18)
H32 H 1.0349 0.4893 0.1268
C43 C 0.5014(3) 0.27663(19) 0.46918(17)
H33 H 0.5465 0.2316 0.5120
C44 C 0.9898(3) 0.53658(18) 0.2533(2)
H34 H 1.0683 0.5702 0.2562
C46 C 0.8936(3) 0.53425(18) 0.32496(18)
H36 H 0.9075 0.5654 0.3773
O2 O 0.36130(14) 0.85718(9) 0.22022(8)
N2 N 0.17241(18) 1.01172(12) 0.25430(10)
C4 C 0.2712(2) 1.05668(15) 0.29234(12)
C5 C 0.1239(2) 0.85541(14) 0.15998(13)
C7 C 0.4044(2) 0.98969(16) 0.31526(13)
C8 C 0.1559(2) 0.83406(15) 0.33757(13)
C11 C 0.2419(3) 1.16516(16) 0.30311(13)
H2 H 0.3099 1.1977 0.3269
C13 C 0.4489(2) 0.89306(16) 0.27374(13)
C14 C 0.5860(2) 0.83658(16) 0.28399(14)
H4 H 0.6169 0.7740 0.2542
C19 C 0.0475(2) 1.07008(16) 0.23057(13)
H9 H -0.0186 1.0373 0.2051
C21 C 0.1708(2) 0.87809(14) 0.07364(14)
H11 H 0.2494 0.9123 0.0643
C22 C 0.1150(3) 1.22427(17) 0.27923(14)
H12 H 0.0961 1.2964 0.2875
C23 C 0.0519(2) 0.88393(17) 0.39903(15)
H13 H 0.0094 0.9533 0.3877
C24 C 0.6773(2) 0.87204(19) 0.33791(16)
H14 H 0.7695 0.8337 0.3442
B2 B 0.2041(3) 0.88483(17) 0.24375(16)
C26 C 0.4976(3) 1.02298(17) 0.37069(14)
H16 H 0.4682 1.0859 0.4002
C28 C 0.0147(3) 1.17617(17) 0.24272(14)
H18 H -0.0729 1.2150 0.2268
C30 C 0.2173(2) 0.73120(16) 0.35965(14)
H20 H 0.2888 0.6948 0.3208
C32 C 0.1063(2) 0.85217(16) 0.00040(14)
H22 H 0.1418 0.8684 -0.0566
C34 C 0.0711(3) 0.7329(2) 0.49563(16)
H24 H 0.0425 0.6994 0.5478
C35 C -0.0101(2) 0.80253(17) 0.01232(15)
H25 H -0.0547 0.7854 -0.0365
C36 C 0.6314(3) 0.9651(2) 0.38267(16)
H26 H 0.6914 0.9881 0.4207
C37 C 0.0060(2) 0.80522(17) 0.16881(14)
H27 H -0.0304 0.7888 0.2256
C38 C 0.1754(3) 0.68115(17) 0.43745(16)
H28 H 0.2185 0.6122 0.4500
C40 C -0.0602(3) 0.77835(19) 0.09602(16)
H30 H -0.1387 0.7439 0.1046
C45 C 0.0088(3) 0.83448(19) 0.47681(16)
H35 H -0.0625 0.8702 0.5162
loop_
_geom_bond_atom_site_label_1
_geom_bond_atom_site_label_2
_geom_bond_site_symmetry_1
_geom_bond_site_symmetry_2
O1 C2 1_555 1_555
O2 C13 1_555 1_555
N1 C1 1_555 1_555
N2 C4 1_555 1_555
C1 C3 1_555 1_555
C2 C3 1_555 1_555
C3 C20 1_555 1_555
C4 C7 1_555 1_555
C5 C21 1_555 1_555
C6 B1 1_555 1_555
C7 C13 1_555 1_555
C8 C23 1_555 1_555
C9 C2 1_555 1_555
H1 C9 1_555 1_555
C10 B1 1_555 1_555
C11 C4 1_555 1_555
H2 C11 1_555 1_555
C12 C1 1_555 1_555
H3 C12 1_555 1_555
C13 C14 1_555 1_555
C14 H4 1_555 1_555
C15 H5 1_555 1_555
C16 N1 1_555 1_555
H6 C16 1_555 1_555
C17 C9 1_555 1_555
H7 C17 1_555 1_555
C18 C12 1_555 1_555
H8 C18 1_555 1_555
C19 N2 1_555 1_555
H9 C19 1_555 1_555
C20 H10 1_555 1_555
C21 H11 1_555 1_555
C22 C11 1_555 1_555
H12 C22 1_555 1_555
C23 H13 1_555 1_555
C24 C14 1_555 1_555
H14 C24 1_555 1_555
C25 C17 1_555 1_555
H15 C25 1_555 1_555
B1 O1 1_555 1_555
B2 O2 1_555 1_555
C26 C7 1_555 1_555
H16 C26 1_555 1_555
C27 C6 1_555 1_555
H17 C27 1_555 1_555
C28 C19 1_555 1_555
H18 C28 1_555 1_555
C29 C10 1_555 1_555
H19 C29 1_555 1_555
C30 C8 1_555 1_555
H20 C30 1_555 1_555
C31 C10 1_555 1_555
H21 C31 1_555 1_555
C32 C21 1_555 1_555
H22 C32 1_555 1_555
C33 C6 1_555 1_555
H23 C33 1_555 1_555
C34 H24 1_555 1_555
C35 C32 1_555 1_555
H25 C35 1_555 1_555
C36 C24 1_555 1_555
H26 C36 1_555 1_555
C37 C5 1_555 1_555
H27 C37 1_555 1_555
C38 C30 1_555 1_555
H28 C38 1_555 1_555
C39 H29 1_555 1_555
C40 C35 1_555 1_555
H30 C40 1_555 1_555
C41 C31 1_555 1_555
H31 C41 1_555 1_555
C42 C27 1_555 1_555
H32 C42 1_555 1_555
C43 C29 1_555 1_555
H33 C43 1_555 1_555
C44 C42 1_555 1_555
H34 C44 1_555 1_555
C45 C23 1_555 1_555
H35 C45 1_555 1_555
C46 C33 1_555 1_555
H36 C46 1_555 1_555
N1 B1 1_555 1_555
N2 B2 1_555 1_555
C5 B2 1_555 1_555
C8 B2 1_555 1_555
C15 C16 1_555 1_555
C15 C18 1_555 1_555
C20 C25 1_555 1_555
C22 C28 1_555 1_555
C26 C36 1_555 1_555
C34 C38 1_555 1_555
C34 C45 1_555 1_555
C37 C40 1_555 1_555
C39 C41 1_555 1_555
C39 C43 1_555 1_555
C44 C46 1_555 1_555

#END
