
#######################################################################
#
#                 Cambridge Crystallographic Data Centre
#                                CCDC 
#
#######################################################################
#
# If this CIF has been generated from an entry in the Cambridge 
# Structural Database, then it will include bibliographic, chemical, 
# crystal, experimental, refinement or atomic coordinate data resulting 
# from the CCDC's data processing and validation procedures.
#
#######################################################################

data_AHIXEW
_chemical_formula_moiety         'C26 H6 F10 S4'
_chemical_name_systematic        
2,5-bis(5-(pentafluorophenyl)-2-thienyl)thieno[3,2-b]thiophene
_symmetry_cell_setting           triclinic
_symmetry_space_group_name_H-M   'P -1'
_symmetry_Int_Tables_number      2
_space_group_name_Hall           '-P 1'
loop_
_symmetry_equiv_pos_site_id
_symmetry_equiv_pos_as_xyz
1 x,y,z
2 -x,-y,-z
_cell_length_a                   4.7772(2)
_cell_length_b                   6.3840(3)
_cell_length_c                   18.3339(7)
_cell_angle_alpha                97.385(2)
_cell_angle_beta                 91.813(2)
_cell_angle_gamma                99.474(2)
_cell_volume                     546.142
_exptl_crystal_colour            orange
_exptl_crystal_description       plate
_cell_formula_units_Z            1
loop_
_atom_site_label
_atom_site_type_symbol
_atom_site_fract_x
_atom_site_fract_y
_atom_site_fract_z
S1 S 0.7935(3) 0.6864(3) 0.47401(8)
S2 S 0.27788(9) 0.86358(6) 0.29896(2)
F1 F 0.0573(3) 0.99422(17) 0.17881(6)
F2 F -0.3157(2) 1.01040(17) 0.06995(6)
F3 F -0.7422(2) 0.67184(17) 0.02682(5)
F4 F -0.7721(2) 0.31452(17) 0.09276(6)
F5 F -0.4022(2) 0.29059(16) 0.20187(6)
C1 C 1.0169(4) 0.9073(3) 0.51382(10)
C2 C 0.769(2) 1.0445(11) 0.4264(5)
H1 H 0.7168 1.1491 0.3985
C3 C 0.6486(4) 0.8322(3) 0.41397(9)
C4 C 0.4270(4) 0.7229(3) 0.35971(9)
C5 C 0.3092(4) 0.5101(3) 0.34720(10)
H2 H 0.3655 0.4061 0.3746
C6 C 0.0970(4) 0.4605(3) 0.28980(10)
H3 H -0.0051 0.3198 0.2751
C7 C 0.0511(4) 0.6345(3) 0.25701(9)
C8 C -0.1530(4) 0.6431(3) 0.19634(9)
C9 C -0.1467(4) 0.8223(3) 0.15956(10)
C10 C -0.3382(4) 0.8346(3) 0.10313(10)
C11 C -0.5510(4) 0.6633(3) 0.08071(9)
C12 C -0.5661(4) 0.4812(3) 0.11467(9)
C13 C -0.3712(4) 0.4720(3) 0.17089(10)
S1A S 1.2065(3) 1.3136(3) 0.52599(8)
S2A S 1.72212(9) 1.13642(6) 0.70104(2)
F1A F 1.9427(3) 1.00578(17) 0.82119(6)
F2A F 2.3157(2) 0.98960(17) 0.93005(6)
F3A F 2.7422(2) 1.32816(17) 0.97318(5)
F4A F 2.7721(2) 1.68548(17) 0.90724(6)
F5A F 2.4022(2) 1.70941(16) 0.79813(6)
C1A C 0.9831(4) 1.0927(3) 0.48618(10)
C2A C 1.231(2) 0.9555(11) 0.5736(5)
H1A H 1.2832 0.8509 0.6015
C3A C 1.3514(4) 1.1678(3) 0.58603(9)
C4A C 1.5730(4) 1.2771(3) 0.64029(9)
C5A C 1.6908(4) 1.4899(3) 0.65280(10)
H2A H 1.6345 1.5939 0.6254
C6A C 1.9030(4) 1.5395(3) 0.71020(10)
H3A H 2.0051 1.6802 0.7249
C7A C 1.9489(4) 1.3655(3) 0.74299(9)
C8A C 2.1530(4) 1.3569(3) 0.80366(9)
C9A C 2.1467(4) 1.1777(3) 0.84044(10)
C10A C 2.3382(4) 1.1654(3) 0.89687(10)
C11A C 2.5510(4) 1.3367(3) 0.91929(9)
C12A C 2.5661(4) 1.5188(3) 0.88533(9)
C13A C 2.3712(4) 1.5280(3) 0.82911(10)
S3? S 0.7451(14) 1.1030(9) 0.4233(4)
C14? C 0.809(5) 0.743(3) 0.4630(13)
H4? H 0.7901 0.5926 0.4643
loop_
_geom_bond_atom_site_label_1
_geom_bond_atom_site_label_2
_geom_bond_site_symmetry_1
_geom_bond_site_symmetry_2
S1 C1 1_555 1_555
S2 C4 1_555 1_555
F1 C9 1_555 1_555
F2 C10 1_555 1_555
F3 C11 1_555 1_555
F4 C12 1_555 1_555
F5 C13 1_555 1_555
C1 C1A 1_555 1_555
C2 H1 1_555 1_555
C3 S1 1_555 1_555
C4 C3 1_555 1_555
C5 C4 1_555 1_555
H2 C5 1_555 1_555
C6 C5 1_555 1_555
H3 C6 1_555 1_555
C7 S2 1_555 1_555
C8 C7 1_555 1_555
C9 C8 1_555 1_555
C10 C9 1_555 1_555
C11 C10 1_555 1_555
C12 C11 1_555 1_555
C13 C8 1_555 1_555
S1A C1A 1_555 1_555
S2A C4A 1_555 1_555
F1A C9A 1_555 1_555
F2A C10A 1_555 1_555
F3A C11A 1_555 1_555
F4A C12A 1_555 1_555
F5A C13A 1_555 1_555
C1A C2 1_555 1_555
C2A C1 1_555 1_555
H1A C2A 1_555 1_555
C3A S1A 1_555 1_555
C4A C3A 1_555 1_555
C5A C4A 1_555 1_555
H2A C5A 1_555 1_555
C6A C5A 1_555 1_555
H3A C6A 1_555 1_555
C7A S2A 1_555 1_555
C8A C7A 1_555 1_555
C9A C8A 1_555 1_555
C10A C9A 1_555 1_555
C11A C10A 1_555 1_555
C12A C11A 1_555 1_555
C13A C8A 1_555 1_555
C2 C3 1_555 1_555
C6 C7 1_555 1_555
C12 C13 1_555 1_555
C2A C3A 1_555 1_555
C6A C7A 1_555 1_555
C12A C13A 1_555 1_555

#END
