
#######################################################################
#
#                 Cambridge Crystallographic Data Centre
#                                CCDC 
#
#######################################################################
#
# If this CIF has been generated from an entry in the Cambridge 
# Structural Database, then it will include bibliographic, chemical, 
# crystal, experimental, refinement or atomic coordinate data resulting 
# from the CCDC's data processing and validation procedures.
#
#######################################################################

data_AHOCUV
_chemical_formula_moiety         'C15 H24 N4 O4'
_chemical_name_systematic        
3,3'-(Pentane-1,5-diyl)-bis(5,5-dimethylhydantoin)
_chemical_properties_biological  'cancer cell inducer of differentiation'
_symmetry_cell_setting           triclinic
_symmetry_space_group_name_H-M   'P -1'
_symmetry_Int_Tables_number      2
_space_group_name_Hall           '-P 1'
loop_
_symmetry_equiv_pos_site_id
_symmetry_equiv_pos_as_xyz
1 x,y,z
2 -x,-y,-z
_cell_length_a                   8.741(4)
_cell_length_b                   11.146(2)
_cell_length_c                   17.210(3)
_cell_angle_alpha                87.20(3)
_cell_angle_beta                 89.77(3)
_cell_angle_gamma                85.12(3)
_cell_volume                     1668.65
_chemical_melting_point          '128-130 deg.C'
_cell_formula_units_Z            4
loop_
_atom_site_label
_atom_site_type_symbol
_atom_site_fract_x
_atom_site_fract_y
_atom_site_fract_z
O1 O -0.0342(6) 0.9132(2) 0.3908(1)
O2 O 0.1301(3) 1.2980(2) 0.3826(1)
O3 O -0.0534(3) 1.6055(2) 0.1125(2)
O4 O 0.1292(3) 1.2162(2) 0.0806(1)
N1 N 0.1983(3) 0.9885(2) 0.4161(2)
N2 N -0.0003(3) 1.1178(2) 0.3833(1)
N3 N 0.0004(3) 1.3994(2) 0.1003(1)
N4 N 0.1927(3) 1.5131(2) 0.1153(2)
C1 C 0.0483(4) 0.9950(3) 0.3960(2)
C2 C 0.1180(3) 1.1879(3) 0.3899(2)
C3 C 0.2616(4) 1.1055(3) 0.4095(2)
C4 C 0.3299(4) 1.1404(3) 0.4859(2)
C5 C 0.3794(4) 1.1109(3) 0.3436(2)
C6 C -0.1609(4) 1.1609(3) 0.3675(2)
C7 C -0.2041(4) 1.1609(3) 0.2822(2)
C8 C -0.1473(4) 1.2658(3) 0.2324(2)
C9 C -0.1916(4) 1.2586(3) 0.1475(2)
C10 C -0.1592(4) 1.3683(3) 0.0955(2)
C11 C 0.0390(4) 1.5190(3) 0.1101(2)
C12 C 0.1271(3) 1.3229(3) 0.0946(2)
C13 C 0.2653(3) 1.3913(3) 0.1111(2)
C14 C 0.3843(4) 1.3817(3) 0.0460(2)
C15 C 0.3360(4) 1.3455(4) 0.1890(2)
O5 O 0.5707(3) 1.0653(2) 0.0791(1)
O6 O 0.3900(3) 0.6981(2) 0.1342(1)
O7 O 0.5602(3) 0.3805(2) 0.3631(1)
O8 O 0.4001(3) 0.7777(2) 0.3854(1)
N5 N 0.3276(3) 1.0112(2) 0.1088(2)
N6 N 0.5180(3) 0.8674(2) 0.1084(1)
N7 N 0.5162(3) 0.5882(2) 0.3687(1)
N8 N 0.3252(3) 0.4747(3) 0.3946(2)
C16 C 0.4785(4) 0.9926(3) 0.0966(2)
C17 C 0.3914(4) 0.8073(3) 0.1222(2)
C18 C 0.2540(4) 0.8996(3) 0.1227(2)
C19 C 0.1411(4) 0.8800(3) 0.0581(2)
C20 C 0.1767(4) 0.8951(4) 0.2021(2)
C21 C 0.6757(6) 0.8142(3) 0.1109(2)
C22 C 0.7584(4) 0.8463(3) 0.1840(2)
C23 C 0.6891(4) 0.7992(3) 0.2601(2)
C24 C 0.7086(4) 0.6624(3) 0.2715(2)
C25 C 0.6762(4) 0.6145(3) 0.3547(2)
C26 C 0.4730(4) 0.4696(3) 0.3742(2)
C27 C 0.3964(3) 0.6684(3) 0.3829(2)
C28 C 0.2551(4) 0.5982(3) 0.3958(2)
C29 C 0.1399(4) 0.6246(3) 0.3299(2)
C30 C 0.1813(4) 0.6253(3) 0.4742(2)
loop_
_geom_bond_atom_site_label_1
_geom_bond_atom_site_label_2
_geom_bond_site_symmetry_1
_geom_bond_site_symmetry_2
O1 C1 1_555 1_555
O2 C2 1_555 1_555
O3 C11 1_555 1_555
O4 C12 1_555 1_555
O5 C16 1_555 1_555
O6 C17 1_555 1_555
O7 C26 1_555 1_555
O8 C27 1_555 1_555
N1 C1 1_555 1_555
N2 C1 1_555 1_555
N3 C10 1_555 1_555
N4 C11 1_555 1_555
N5 C16 1_555 1_555
N6 C16 1_555 1_555
N7 C25 1_555 1_555
N8 C26 1_555 1_555
C2 N2 1_555 1_555
C3 N1 1_555 1_555
C4 C3 1_555 1_555
C5 C3 1_555 1_555
C6 N2 1_555 1_555
C7 C6 1_555 1_555
C8 C7 1_555 1_555
C9 C8 1_555 1_555
C10 C9 1_555 1_555
C11 N3 1_555 1_555
C12 N3 1_555 1_555
C13 N4 1_555 1_555
C14 C13 1_555 1_555
C15 C13 1_555 1_555
C17 N6 1_555 1_555
C18 N5 1_555 1_555
C19 C18 1_555 1_555
C20 C18 1_555 1_555
C21 N6 1_555 1_555
C22 C21 1_555 1_555
C23 C22 1_555 1_555
C24 C23 1_555 1_555
C25 C24 1_555 1_555
C26 N7 1_555 1_555
C27 N7 1_555 1_555
C28 N8 1_555 1_555
C29 C28 1_555 1_555
C30 C28 1_555 1_555
C2 C3 1_555 1_555
C12 C13 1_555 1_555
C17 C18 1_555 1_555
C27 C28 1_555 1_555

#END
