
#######################################################################
#
#                 Cambridge Crystallographic Data Centre
#                                CCDC 
#
#######################################################################
#
# If this CIF has been generated from an entry in the Cambridge 
# Structural Database, then it will include bibliographic, chemical, 
# crystal, experimental, refinement or atomic coordinate data resulting 
# from the CCDC's data processing and validation procedures.
#
#######################################################################

data_AHORIA
_chemical_formula_moiety         'C20 H15 N5 O2 2+,2(Cl1 O4 1-),H2 O1'
_chemical_name_systematic        
'bis(2-oxidoimidazo[1,2-a]pyridin-1-ium-3-yl)(pyridin-1-ium-3-yl)methyl radical cation bis(perchlorate) monohydrate'
_symmetry_cell_setting           monoclinic
_symmetry_space_group_name_H-M   'C 2/c'
_symmetry_Int_Tables_number      15
_space_group_name_Hall           '-C 2yn'
loop_
_symmetry_equiv_pos_site_id
_symmetry_equiv_pos_as_xyz
1 x,y,z
2 -x,y,1/2-z
3 1/2+x,1/2+y,z
4 1/2-x,1/2+y,1/2-z
5 -x,-y,-z
6 x,-y,1/2+z
7 1/2-x,1/2-y,-z
8 1/2+x,1/2-y,1/2+z
_cell_length_a                   32.842(7)
_cell_length_b                   8.4292(17)
_cell_length_c                   17.392(4)
_cell_angle_alpha                90
_cell_angle_beta                 103.11(3)
_cell_angle_gamma                90
_cell_volume                     4689.17
_exptl_crystal_colour            green
_exptl_crystal_description       block
_cell_formula_units_Z            8
loop_
_atom_site_label
_atom_site_type_symbol
_atom_site_fract_x
_atom_site_fract_y
_atom_site_fract_z
C1 C 0.34179(11) 0.2940(5) 0.2537(2)
H1 H 0.3350 0.3259 0.3004
C2 C 0.31474(12) 0.3174(6) 0.1839(2)
H2 H 0.2886 0.3616 0.1825
C3 C 0.32572(13) 0.2755(6) 0.1131(2)
H3 H 0.3068 0.2917 0.0653
C4 C 0.36382(12) 0.2114(5) 0.1140(2)
H4 H 0.3715 0.1848 0.0673
C5 C 0.39095(11) 0.1867(4) 0.18688(18)
C6 C 0.44687(10) 0.1364(4) 0.28584(18)
C7 C 0.41302(9) 0.1920(4) 0.31966(18)
C8 C 0.41188(9) 0.1799(4) 0.39923(18)
C9 C 0.44751(9) 0.1915(4) 0.45975(18)
C10 C 0.49472(11) 0.3726(4) 0.4033(2)
H5 H 0.4747 0.3963 0.3578
C11 C 0.53381(12) 0.4378(5) 0.4157(2)
H6 H 0.5403 0.5069 0.3786
C12 C 0.56374(12) 0.4013(5) 0.4835(3)
H7 H 0.5905 0.4430 0.4905
C13 C 0.55432(11) 0.3045(5) 0.5402(2)
H8 H 0.5741 0.2813 0.5862
C14 C 0.51411(10) 0.2420(4) 0.52664(19)
C15 C 0.45569(10) 0.1089(4) 0.53535(18)
C16 C 0.37219(10) 0.1351(4) 0.42143(19)
C17 C 0.34658(12) 0.0174(5) 0.3802(2)
H9 H 0.3537 -0.0335 0.3376
C18 C 0.31037(14) -0.0230(6) 0.4035(3)
H10 H 0.2925 -0.0989 0.3752
C19 C 0.30076(13) 0.0470(6) 0.4669(3)
H11 H 0.2765 0.0186 0.4826
C20 C 0.36117(11) 0.2033(5) 0.4863(2)
H12 H 0.3781 0.2810 0.5154
N1 N 0.37918(8) 0.2232(3) 0.25511(15)
N2 N 0.43096(8) 0.1352(3) 0.20492(15)
H13 H 0.4447 0.1057 0.1708
N3 N 0.48550(8) 0.2728(3) 0.45826(15)
N4 N 0.49625(9) 0.1472(4) 0.57233(16)
H14 H 0.5086 0.1148 0.6186
N5 N 0.32625(11) 0.1573(5) 0.5070(2)
H15 H 0.3199 0.2002 0.5476
O1 O 0.48168(7) 0.0927(3) 0.32005(13)
O2 O 0.43339(8) 0.0166(3) 0.56139(14)
Cl1 Cl 0.21089(4) 0.04104(14) 0.11519(8)
O3 O 0.22247(15) -0.1184(6) 0.1347(4)
O4 O 0.21795(19) 0.1254(8) 0.1881(3)
O5 O 0.16834(11) 0.0431(6) 0.0799(3)
O6 O 0.23473(12) 0.1159(5) 0.0678(2)
Cl2 Cl 0.08964(4) 0.18098(12) 0.26777(6)
O7 O 0.1149(4) 0.2693(14) 0.2380(4)
O8 O 0.0784(3) 0.0418(6) 0.2322(3)
O9 O 0.0558(3) 0.2692(11) 0.2495(8)
O10 O 0.1036(2) 0.1651(8) 0.3468(2)
O11 O 0.29822(15) 0.2764(7) 0.6297(3)
H16 H 0.2738 0.2595 0.6365
H17 H 0.3162 0.2463 0.6703
loop_
_geom_bond_atom_site_label_1
_geom_bond_atom_site_label_2
_geom_bond_site_symmetry_1
_geom_bond_site_symmetry_2
C1 H1 1_555 1_555
C2 C1 1_555 1_555
H2 C2 1_555 1_555
C3 C2 1_555 1_555
H3 C3 1_555 1_555
C4 C3 1_555 1_555
H4 C4 1_555 1_555
C5 C4 1_555 1_555
C6 C7 1_555 1_555
C7 C8 1_555 1_555
C8 C9 1_555 1_555
C9 C15 1_555 1_555
C10 H5 1_555 1_555
C11 C10 1_555 1_555
H6 C11 1_555 1_555
C12 C11 1_555 1_555
H7 C12 1_555 1_555
C13 C12 1_555 1_555
H8 C13 1_555 1_555
C14 C13 1_555 1_555
C15 N4 1_555 1_555
C16 C8 1_555 1_555
C17 C16 1_555 1_555
H9 C17 1_555 1_555
C18 C17 1_555 1_555
H10 C18 1_555 1_555
C19 C18 1_555 1_555
H11 C19 1_555 1_555
C20 C16 1_555 1_555
H12 C20 1_555 1_555
N1 C1 1_555 1_555
N2 C5 1_555 1_555
H13 N2 1_555 1_555
N3 C9 1_555 1_555
N4 C14 1_555 1_555
H14 N4 1_555 1_555
N5 C19 1_555 1_555
H15 N5 1_555 1_555
O1 C6 1_555 1_555
O2 C15 1_555 1_555
Cl1 O3 1_555 1_555
O4 Cl1 1_555 1_555
O5 Cl1 1_555 1_555
O6 Cl1 1_555 1_555
Cl2 O7 1_555 1_555
O8 Cl2 1_555 1_555
O9 Cl2 1_555 1_555
O10 Cl2 1_555 1_555
O11 H16 1_555 1_555
H17 O11 1_555 1_555
C5 N1 1_555 1_555
C6 N2 1_555 1_555
C7 N1 1_555 1_555
C10 N3 1_555 1_555
C14 N3 1_555 1_555
C20 N5 1_555 1_555

#END
