
#######################################################################
#
#                 Cambridge Crystallographic Data Centre
#                                CCDC 
#
#######################################################################
#
# If this CIF has been generated from an entry in the Cambridge 
# Structural Database, then it will include bibliographic, chemical, 
# crystal, experimental, refinement or atomic coordinate data resulting 
# from the CCDC's data processing and validation procedures.
#
#######################################################################

data_AHOVEA
_chemical_formula_moiety         'C18 H13 F6 N3 S1'
_chemical_name_systematic        
2-(trifluoromethyl)-N-(4-(trifluoromethyl)benzyl)-6,7-dihydro-5H-cyclopenta[4,5]thieno[2,3-d]pyrimidin-4-amine
_symmetry_cell_setting           monoclinic
_symmetry_space_group_name_H-M   'P 21/c'
_symmetry_Int_Tables_number      14
_space_group_name_Hall           '-P 2ybc'
loop_
_symmetry_equiv_pos_site_id
_symmetry_equiv_pos_as_xyz
1 x,y,z
2 -x,1/2+y,1/2-z
3 -x,-y,-z
4 x,1/2-y,1/2+z
_cell_length_a                   12.142(4)
_cell_length_b                   11.196(4)
_cell_length_c                   13.533(4)
_cell_angle_alpha                90
_cell_angle_beta                 97.493(4)
_cell_angle_gamma                90
_cell_volume                     1823.99
_exptl_crystal_colour            colorless
_exptl_crystal_description       block
_cell_formula_units_Z            4
loop_
_atom_site_label
_atom_site_type_symbol
_atom_site_fract_x
_atom_site_fract_y
_atom_site_fract_z
S1 S 0.56422(14) 0.85512(16) 0.07425(11)
C1 C 0.6802(4) 0.7700(5) 0.2340(4)
C2 C 0.7665(4) 0.6975(5) 0.2841(4)
C3 C 0.6043(5) 0.8537(5) 0.2668(4)
C4 C 0.5396(5) 0.9051(6) 0.1899(5)
C5 C 0.8615(5) 0.5523(6) 0.5133(4)
C6 C 0.8921(6) 0.6419(7) 0.4375(5)
H1 H 0.9407 0.7022 0.4711
H2 H 0.9322 0.6015 0.3898
C7 C 0.5748(6) 0.9004(7) 0.3647(5)
H3 H 0.6396 0.9332 0.4052
H4 H 0.5432 0.8379 0.4018
C8 C 0.8909(6) 0.5719(6) 0.6136(5)
H5 H 0.9314 0.6400 0.6341
C9 C 0.4594(6) 0.9952(7) 0.2206(5)
H6 H 0.3832 0.9700 0.2018
H7 H 0.4702 1.0728 0.1914
C10 C 0.8618(6) 0.4926(8) 0.6857(5)
H8 H 0.8817 0.5084 0.7531
C11 C 0.4891(7) 0.9980(8) 0.3331(5)
H9 H 0.4230 0.9849 0.3649
H10 H 0.5195 1.0755 0.3538
C12 C 0.8043(7) 0.3926(8) 0.6559(7)
C13 C 0.8057(7) 0.4483(8) 0.4848(6)
H11 H 0.7869 0.4326 0.4172
C14 C 0.8667(9) 0.5423(9) 0.0799(6)
C15 C 0.7771(8) 0.3670(8) 0.5529(8)
H12 H 0.7406 0.2966 0.5320
C16 C 0.7708(14) 0.3075(12) 0.7298(10)
C17 C 0.6668(4) 0.7609(5) 0.1309(4)
C18 C 0.8018(5) 0.6247(5) 0.1339(5)
N1 N 0.7277(4) 0.6893(5) 0.0769(3)
N2 N 0.8249(4) 0.6248(4) 0.2323(3)
N3 N 0.7926(4) 0.7002(5) 0.3842(3)
H13 H 0.7489 0.7377 0.4187
F1 F 0.9168(7) 0.4566(6) 0.1285(5)
F2 F 0.8524(6) 0.5454(8) -0.0111(4)
F3 F 0.7558(10) 0.3604(8) 0.8153(7)
F4 F 0.8494(9) 0.2343(7) 0.7620(7)
F5 F 0.9752(7) 0.5935(9) 0.0823(7)
F6 F 0.6893(12) 0.2486(15) 0.7032(10)
loop_
_geom_bond_atom_site_label_1
_geom_bond_atom_site_label_2
_geom_bond_site_symmetry_1
_geom_bond_site_symmetry_2
S1 C4 1_555 1_555
C1 C2 1_555 1_555
C2 N2 1_555 1_555
C3 C1 1_555 1_555
C4 C3 1_555 1_555
C5 C6 1_555 1_555
C6 H1 1_555 1_555
H2 C6 1_555 1_555
C7 C3 1_555 1_555
H3 C7 1_555 1_555
H4 C7 1_555 1_555
C8 C5 1_555 1_555
H5 C8 1_555 1_555
C9 C4 1_555 1_555
H6 C9 1_555 1_555
H7 C9 1_555 1_555
C10 C8 1_555 1_555
H8 C10 1_555 1_555
C11 C7 1_555 1_555
H9 C11 1_555 1_555
H10 C11 1_555 1_555
C12 C10 1_555 1_555
C13 C5 1_555 1_555
H11 C13 1_555 1_555
C14 C18 1_555 1_555
C15 C12 1_555 1_555
H12 C15 1_555 1_555
C16 C12 1_555 1_555
C17 S1 1_555 1_555
C18 N1 1_555 1_555
N1 C17 1_555 1_555
N2 C18 1_555 1_555
N3 C2 1_555 1_555
H13 N3 1_555 1_555
F1 C14 1_555 1_555
F2 C14 1_555 1_555
F3 C16 1_555 1_555
F4 C16 1_555 1_555
F5 C14 1_555 1_555
F6 C16 1_555 1_555
C1 C17 1_555 1_555
C6 N3 1_555 1_555
C9 C11 1_555 1_555
C13 C15 1_555 1_555

#END
