
#######################################################################
#
#                 Cambridge Crystallographic Data Centre
#                                CCDC 
#
#######################################################################
#
# If this CIF has been generated from an entry in the Cambridge 
# Structural Database, then it will include bibliographic, chemical, 
# crystal, experimental, refinement or atomic coordinate data resulting 
# from the CCDC's data processing and validation procedures.
#
#######################################################################

data_AHOWUQ
_chemical_formula_moiety         'C26 H33 Si1 1+,C6 H16 B11 Br6 1-'
_chemical_name_systematic        
'6-Mesityl-8,8,10,12,13-pentamethyl-8-silatricyclo[7.3.1.0^2,7^]trideca-2,4,6,10-tetraen-12-ylium 7,8,9,10,11,12-hexabromo-2,3,4,5,6-pentamethyl-1-carba-closo-dodecaborate'
_symmetry_cell_setting           monoclinic
_symmetry_space_group_name_H-M   'P 21/c'
_symmetry_Int_Tables_number      14
_space_group_name_Hall           '-P 2ybc'
loop_
_symmetry_equiv_pos_site_id
_symmetry_equiv_pos_as_xyz
1 x,y,z
2 -x,1/2+y,1/2-z
3 -x,-y,-z
4 x,1/2-y,1/2+z
_cell_length_a                   9.6689(4)
_cell_length_b                   14.1286(5)
_cell_length_c                   31.9840(12)
_cell_angle_alpha                90
_cell_angle_beta                 92.4314(10)
_cell_angle_gamma                90
_cell_volume                     4365.34
_exptl_crystal_colour            yellow
_exptl_crystal_description       prism
_chemical_melting_point          '140-145 deg.C'
_cell_formula_units_Z            4
_exptl_crystal_recrystallization_method 1,2-dichlorobenzene/hexane
loop_
_atom_site_label
_atom_site_type_symbol
_atom_site_fract_x
_atom_site_fract_y
_atom_site_fract_z
Si1 Si 0.09490(12) 0.24725(8) 0.34435(3)
C1 C -0.0168(4) 0.2146(3) 0.38935(12)
C2 C -0.1520(4) 0.1779(3) 0.38160(12)
C3 C -0.2282(4) 0.1449(3) 0.41464(13)
H1 H -0.3183 0.1200 0.4090
C4 C -0.1756(5) 0.1476(3) 0.45535(13)
H2 H -0.2282 0.1244 0.4776
C5 C -0.0450(4) 0.1846(3) 0.46317(12)
H3 H -0.0089 0.1882 0.4912
C6 C 0.0350(4) 0.2169(3) 0.43099(12)
C7 C 0.1775(4) 0.2524(3) 0.44260(11)
C8 C 0.2884(4) 0.1893(3) 0.44534(12)
C9 C 0.4197(4) 0.2238(3) 0.45615(12)
H4 H 0.4955 0.1810 0.4572
C10 C 0.4441(5) 0.3182(3) 0.46543(12)
C11 C 0.3318(5) 0.3784(3) 0.46433(13)
H5 H 0.3460 0.4431 0.4714
C12 C 0.1980(5) 0.3477(3) 0.45326(12)
C13 C 0.2683(5) 0.0842(3) 0.43869(13)
H6 H 0.2321 0.0559 0.4640
H7 H 0.3572 0.0549 0.4328
H8 H 0.2024 0.0737 0.4150
C14 C 0.5878(5) 0.3547(4) 0.47709(15)
H9 H 0.5884 0.4240 0.4753
H10 H 0.6540 0.3286 0.4578
H11 H 0.6141 0.3353 0.5058
C15 C 0.0802(5) 0.4176(3) 0.45318(15)
H12 H 0.0341 0.4194 0.4253
H13 H 0.1162 0.4806 0.4604
H14 H 0.0136 0.3981 0.4738
C16 C -0.2179(4) 0.1711(3) 0.33756(12)
H15 H -0.2905 0.1208 0.3380
C17 C -0.1156(4) 0.1428(3) 0.30472(12)
H16 H -0.0526 0.0933 0.3172
C18 C -0.0271(4) 0.2300(3) 0.29419(11)
H17 H 0.0299 0.2152 0.2697
C19 C -0.0998(4) 0.3156(3) 0.28681(12)
C20 C -0.2313(4) 0.3313(3) 0.30414(13)
H18 H -0.2780 0.3897 0.2993
C21 C -0.2902(4) 0.2633(3) 0.32759(12)
C22 C -0.1899(5) 0.1011(3) 0.26589(12)
H19 H -0.2386 0.0432 0.2736
H20 H -0.1220 0.0861 0.2450
H21 H -0.2568 0.1471 0.2542
C23 C -0.0440(5) 0.3920(3) 0.26040(13)
H22 H 0.0532 0.3788 0.2551
H23 H -0.0508 0.4528 0.2749
H24 H -0.0976 0.3948 0.2337
C24 C -0.4294(4) 0.2783(4) 0.34474(15)
H25 H -0.4591 0.3436 0.3394
H26 H -0.4246 0.2663 0.3749
H27 H -0.4959 0.2346 0.3311
C25 C 0.2318(4) 0.1571(3) 0.33523(13)
H28 H 0.2716 0.1686 0.3080
H29 H 0.1909 0.0936 0.3355
H30 H 0.3047 0.1618 0.3574
C26 C 0.1703(5) 0.3690(3) 0.34650(13)
H31 H 0.2397 0.3729 0.3697
H32 H 0.0966 0.4151 0.3509
H33 H 0.2140 0.3828 0.3201
Br1 Br 0.28345(5) 0.77132(4) 0.318071(16)
Br2 Br 0.50640(4) 0.97969(3) 0.349379(13)
Br3 Br 0.52998(5) 0.56056(3) 0.291407(15)
Br4 Br 0.90589(5) 0.64594(3) 0.312188(14)
Br5 Br 0.89606(5) 0.90464(3) 0.349010(14)
Br6 Br 0.62952(5) 0.81763(3) 0.262298(12)
B1 B 0.5702(5) 0.8507(3) 0.36091(14)
B2 B 0.4650(5) 0.7525(4) 0.34490(15)
B3 B 0.5775(5) 0.6568(3) 0.33398(14)
B4 B 0.7513(5) 0.6962(3) 0.34308(14)
B5 B 0.7467(5) 0.8155(3) 0.35986(14)
B6 B 0.6254(5) 0.7745(3) 0.32025(13)
C27 C 0.3679(5) 0.8176(3) 0.42819(13)
H34 H 0.3125 0.7634 0.4368
H35 H 0.3084 0.8627 0.4127
H36 H 0.4098 0.8486 0.4530
C28 C 0.3762(5) 0.5861(3) 0.39539(16)
H37 H 0.3338 0.6093 0.4207
H38 H 0.4191 0.5243 0.4011
H39 H 0.3049 0.5797 0.3729
C29 C 0.7236(4) 0.5151(3) 0.39384(12)
H40 H 0.7562 0.5145 0.4233
H41 H 0.7992 0.4962 0.3762
H42 H 0.6463 0.4707 0.3898
C30 C 0.9163(5) 0.7073(3) 0.42417(13)
H43 H 0.8939 0.6927 0.4531
H44 H 0.9734 0.7645 0.4238
H45 H 0.9674 0.6542 0.4125
C31 C 0.7035(5) 0.8909(3) 0.44540(13)
H46 H 0.6292 0.9372 0.4486
H47 H 0.7892 0.9241 0.4392
H48 H 0.7174 0.8548 0.4714
C32 C 0.6146(5) 0.7053(3) 0.41581(13)
H49 H 0.624(4) 0.684(3) 0.4413(12)
B7 B 0.4872(5) 0.7817(3) 0.39893(15)
B8 B 0.4910(5) 0.6590(3) 0.38161(15)
B9 B 0.6707(5) 0.6241(3) 0.38065(15)
B10 B 0.7773(5) 0.7241(4) 0.39691(14)
B11 B 0.6621(5) 0.8205(4) 0.40796(14)
loop_
_geom_bond_atom_site_label_1
_geom_bond_atom_site_label_2
_geom_bond_site_symmetry_1
_geom_bond_site_symmetry_2
Si1 C1 1_555 1_555
C1 C2 1_555 1_555
C2 C3 1_555 1_555
C3 H1 1_555 1_555
C4 C3 1_555 1_555
H2 C4 1_555 1_555
C5 C4 1_555 1_555
H3 C5 1_555 1_555
C6 C1 1_555 1_555
C7 C6 1_555 1_555
C8 C7 1_555 1_555
C9 C8 1_555 1_555
H4 C9 1_555 1_555
C10 C9 1_555 1_555
C11 C10 1_555 1_555
H5 C11 1_555 1_555
C12 C7 1_555 1_555
C13 C8 1_555 1_555
H6 C13 1_555 1_555
H7 C13 1_555 1_555
H8 C13 1_555 1_555
C14 C10 1_555 1_555
H9 C14 1_555 1_555
H10 C14 1_555 1_555
H11 C14 1_555 1_555
C15 C12 1_555 1_555
H12 C15 1_555 1_555
H13 C15 1_555 1_555
H14 C15 1_555 1_555
C16 C2 1_555 1_555
H15 C16 1_555 1_555
C17 C16 1_555 1_555
H16 C17 1_555 1_555
C18 Si1 1_555 1_555
H17 C18 1_555 1_555
C19 C18 1_555 1_555
C20 C19 1_555 1_555
H18 C20 1_555 1_555
C21 C16 1_555 1_555
C22 C17 1_555 1_555
H19 C22 1_555 1_555
H20 C22 1_555 1_555
H21 C22 1_555 1_555
C23 C19 1_555 1_555
H22 C23 1_555 1_555
H23 C23 1_555 1_555
H24 C23 1_555 1_555
C24 C21 1_555 1_555
H25 C24 1_555 1_555
H26 C24 1_555 1_555
H27 C24 1_555 1_555
C25 Si1 1_555 1_555
H28 C25 1_555 1_555
H29 C25 1_555 1_555
H30 C25 1_555 1_555
C26 Si1 1_555 1_555
H31 C26 1_555 1_555
H32 C26 1_555 1_555
H33 C26 1_555 1_555
Br1 B2 1_555 1_555
Br2 B1 1_555 1_555
Br3 B3 1_555 1_555
Br4 B4 1_555 1_555
Br5 B5 1_555 1_555
Br6 B6 1_555 1_555
B1 B2 1_555 1_555
B2 B3 1_555 1_555
B3 B4 1_555 1_555
B4 B5 1_555 1_555
B5 B1 1_555 1_555
B6 B1 1_555 1_555
C27 H34 1_555 1_555
H35 C27 1_555 1_555
H36 C27 1_555 1_555
C28 H37 1_555 1_555
H38 C28 1_555 1_555
H39 C28 1_555 1_555
C29 H40 1_555 1_555
H41 C29 1_555 1_555
H42 C29 1_555 1_555
C30 H43 1_555 1_555
H44 C30 1_555 1_555
H45 C30 1_555 1_555
C31 H46 1_555 1_555
H47 C31 1_555 1_555
H48 C31 1_555 1_555
C32 H49 1_555 1_555
B7 B1 1_555 1_555
B8 B2 1_555 1_555
B9 B3 1_555 1_555
B10 B4 1_555 1_555
B11 B1 1_555 1_555
C5 C6 1_555 1_555
C11 C12 1_555 1_555
C17 C18 1_555 1_555
C20 C21 1_555 1_555
B2 B6 1_555 1_555
B2 B7 1_555 1_555
B3 B6 1_555 1_555
B3 B8 1_555 1_555
B4 B6 1_555 1_555
B4 B9 1_555 1_555
B5 B6 1_555 1_555
B5 B10 1_555 1_555
B5 B11 1_555 1_555
C27 B7 1_555 1_555
C28 B8 1_555 1_555
C29 B9 1_555 1_555
C30 B10 1_555 1_555
C31 B11 1_555 1_555
C32 B7 1_555 1_555
C32 B8 1_555 1_555
C32 B9 1_555 1_555
C32 B10 1_555 1_555
C32 B11 1_555 1_555
B7 B8 1_555 1_555
B7 B11 1_555 1_555
B8 B9 1_555 1_555
B9 B10 1_555 1_555
B10 B11 1_555 1_555

#END
