
#######################################################################
#
#                 Cambridge Crystallographic Data Centre
#                                CCDC 
#
#######################################################################
#
# If this CIF has been generated from an entry in the Cambridge 
# Structural Database, then it will include bibliographic, chemical, 
# crystal, experimental, refinement or atomic coordinate data resulting 
# from the CCDC's data processing and validation procedures.
#
#######################################################################

data_AHOXAY
_chemical_formula_moiety         'C18 H19 N1 O3'
_chemical_name_systematic        
3-(4-(dimethylamino)phenyl)-1-(2-hydroxy-5-methoxyphenyl)prop-2-en-1-one
_symmetry_cell_setting           triclinic
_symmetry_space_group_name_H-M   'P -1'
_symmetry_Int_Tables_number      2
_space_group_name_Hall           '-P 1'
loop_
_symmetry_equiv_pos_site_id
_symmetry_equiv_pos_as_xyz
1 x,y,z
2 -x,-y,-z
_cell_length_a                   9.4457(19)
_cell_length_b                   14.574(3)
_cell_length_c                   23.993(5)
_cell_angle_alpha                82.82(3)
_cell_angle_beta                 82.35(3)
_cell_angle_gamma                73.83(3)
_cell_volume                     3130.58
_exptl_crystal_colour            red
_exptl_crystal_description       block
_cell_formula_units_Z            8
loop_
_atom_site_label
_atom_site_type_symbol
_atom_site_fract_x
_atom_site_fract_y
_atom_site_fract_z
C1 C -0.1475(5) 0.1640(3) 0.78389(16)
H1 H -0.2131 0.1766 0.8163
C2 C 0.0037(5) 0.1332(3) 0.78822(16)
H2 H 0.0389 0.1248 0.8234
C3 C 0.1022(4) 0.1149(3) 0.74027(14)
C4 C 0.0478(4) 0.1247(3) 0.68902(14)
H3 H 0.1142 0.1106 0.6570
C5 C -0.1047(4) 0.1553(3) 0.68301(14)
C6 C -0.2018(4) 0.1762(3) 0.73182(15)
C7 C 0.3119(5) 0.0899(4) 0.79135(16)
H4 H 0.2683 0.1512 0.8057
H5 H 0.4173 0.0798 0.7842
H6 H 0.2903 0.0403 0.8186
C8 C -0.1621(4) 0.1685(3) 0.62705(14)
C9 C -0.0630(4) 0.1427(3) 0.57670(14)
H7 H 0.0366 0.1124 0.5797
C10 C -0.1127(4) 0.1619(3) 0.52626(14)
H8 H -0.2126 0.1942 0.5260
C11 C -0.0342(4) 0.1397(2) 0.47152(14)
C12 C 0.1163(4) 0.0952(3) 0.46232(15)
H9 H 0.1718 0.0787 0.4931
C13 C 0.1860(4) 0.0746(3) 0.40997(16)
H10 H 0.2873 0.0452 0.4059
C14 C 0.1069(4) 0.0972(3) 0.36216(14)
C15 C -0.0425(4) 0.1430(3) 0.37074(14)
H11 H -0.0988 0.1596 0.3402
C16 C -0.1083(4) 0.1642(3) 0.42329(14)
H12 H -0.2083 0.1968 0.4271
C17 C 0.3308(4) 0.0316(4) 0.29976(18)
H13 H 0.3826 0.0779 0.3042
H14 H 0.3548 0.0122 0.2621
H15 H 0.3598 -0.0234 0.3264
C18 C 0.0895(5) 0.0957(3) 0.26097(15)
H16 H 0.0082 0.0669 0.2683
H17 H 0.1527 0.0707 0.2285
H18 H 0.0521 0.1639 0.2540
N1 N 0.1737(3) 0.0737(3) 0.30966(13)
O1 O 0.2523(3) 0.0875(2) 0.74015(10)
O2 O -0.3510(3) 0.2086(3) 0.73050(14)
O3 O -0.2975(3) 0.2031(2) 0.62491(11)
H19 H -0.368(6) 0.222(4) 0.6955(10)
C19 C -0.2356(4) 0.6712(3) 0.30636(15)
H20 H -0.2314 0.6175 0.3343
H21 H -0.3311 0.6906 0.2924
H22 H -0.2198 0.7236 0.3231
C20 C 0.0209(4) 0.6155(3) 0.27374(13)
C21 C 0.0680(4) 0.6052(2) 0.32572(12)
H23 H -0.0018 0.6185 0.3569
C22 C 0.2188(3) 0.5751(2) 0.33375(12)
C23 C 0.3221(4) 0.5543(3) 0.28594(13)
C24 C 0.2723(4) 0.5653(3) 0.23287(14)
H24 H 0.3402 0.5517 0.2012
C25 C 0.1243(4) 0.5959(3) 0.22708(14)
H25 H 0.0923 0.6037 0.1913
C26 C 0.2739(4) 0.5630(2) 0.38953(13)
C27 C 0.1732(4) 0.5820(2) 0.44051(12)
H26 H 0.0715 0.6022 0.4382
C28 C 0.2254(4) 0.5707(2) 0.49120(12)
H27 H 0.3279 0.5487 0.4907
C29 C 0.1456(3) 0.5879(2) 0.54635(12)
C30 C 0.2259(3) 0.5704(2) 0.59311(12)
H28 H 0.3283 0.5459 0.5878
C31 C 0.1599(3) 0.5879(2) 0.64636(12)
H29 H 0.2175 0.5748 0.6764
C32 C 0.0057(3) 0.6256(2) 0.65613(12)
C33 C -0.0759(3) 0.6422(2) 0.60912(13)
H30 H -0.1783 0.6664 0.6141
C34 C -0.0075(3) 0.6234(2) 0.55631(12)
H31 H -0.0648 0.6347 0.5262
C35 C -0.2207(4) 0.6829(3) 0.71874(14)
H32 H -0.2529 0.7408 0.6946
H33 H -0.2475 0.6963 0.7575
H34 H -0.2674 0.6360 0.7108
C36 C 0.0222(4) 0.6228(3) 0.75754(13)
H35 H 0.0641 0.5547 0.7626
H36 H -0.0421 0.6438 0.7906
H37 H 0.1003 0.6545 0.7515
H38 H 0.477(5) 0.527(3) 0.3246(9)
N2 N -0.0623(3) 0.6465(2) 0.70877(10)
O4 O -0.1240(3) 0.6447(2) 0.26111(9)
O5 O 0.4108(3) 0.53628(18) 0.39288(9)
O6 O 0.4709(3) 0.5227(2) 0.28916(10)
C37 C 0.3331(5) 0.3956(3) 0.82933(13)
H39 H 0.2404 0.4373 0.8191
H40 H 0.3274 0.3303 0.8336
H41 H 0.4107 0.4027 0.8003
C38 C 0.3542(3) 0.5135(3) 0.88627(12)
C39 C 0.3468(4) 0.5359(3) 0.94175(13)
H42 H 0.3541 0.4872 0.9711
C40 C 0.3293(3) 0.6273(3) 0.95373(13)
H43 H 0.3251 0.6407 0.9909
C41 C 0.3179(3) 0.7002(3) 0.91065(13)
C42 C 0.3332(3) 0.6803(2) 0.85372(11)
C43 C 0.3512(3) 0.5845(3) 0.84274(12)
H44 H 0.3610 0.5693 0.8056
C44 C 0.3347(3) 0.7576(3) 0.80794(13)
C45 C 0.3790(3) 0.7370(3) 0.74968(12)
H45 H 0.4050 0.6738 0.7408
C46 C 0.3833(3) 0.8076(3) 0.70829(12)
H46 H 0.3506 0.8700 0.7188
C47 C 0.4333(3) 0.7973(2) 0.64900(12)
C48 C 0.4302(4) 0.8776(3) 0.61116(13)
H47 H 0.3963 0.9379 0.6246
C49 C 0.4755(4) 0.8716(3) 0.55429(13)
H48 H 0.4731 0.9274 0.5305
C50 C 0.5249(3) 0.7826(2) 0.53211(12)
C51 C 0.5278(3) 0.7009(2) 0.57045(12)
H49 H 0.5602 0.6403 0.5573
C52 C 0.4838(3) 0.7089(2) 0.62649(12)
H50 H 0.4877 0.6533 0.6506
C53 C 0.5990(5) 0.6838(3) 0.45230(15)
H51 H 0.6950 0.6457 0.4616
H52 H 0.5989 0.6943 0.4120
H53 H 0.5257 0.6509 0.4678
C54 C 0.5646(5) 0.8585(3) 0.43636(14)
H54 H 0.4663 0.9008 0.4376
H55 H 0.5956 0.8391 0.3989
H56 H 0.6314 0.8912 0.4465
H57 H 0.279(5) 0.829(3) 0.8938(13)
N3 N 0.5653(4) 0.7749(2) 0.47568(11)
O7 O 0.3638(3) 0.41963(19) 0.88067(9)
O8 O 0.2932(3) 0.7914(2) 0.92476(10)
O9 O 0.3004(3) 0.84239(19) 0.82062(10)
C55 C -0.4959(4) 0.7765(3) 0.03307(16)
H58 H -0.4300 0.7349 0.0072
H59 H -0.5959 0.7883 0.0242
H60 H -0.4879 0.7465 0.0709
C56 C -0.3169(3) 0.8620(2) 0.03950(12)
C57 C -0.2886(4) 0.9515(2) 0.03564(13)
H61 H -0.3623 1.0067 0.0264
C58 C -0.1534(4) 0.9587(2) 0.04537(13)
H62 H -0.1363 1.0188 0.0436
C59 C -0.0403(3) 0.8765(2) 0.05798(12)
C60 C -0.0665(3) 0.7859(2) 0.06112(11)
C61 C -0.2083(3) 0.7800(2) 0.05180(11)
H63 H -0.2279 0.7205 0.0540
C62 C 0.0553(3) 0.7003(2) 0.07327(11)
C63 C 0.0397(3) 0.6036(2) 0.07415(11)
H64 H -0.0489 0.5941 0.0664
C64 C 0.1542(3) 0.5282(2) 0.08620(11)
H65 H 0.2398 0.5436 0.0922
C65 C 0.1646(3) 0.4279(2) 0.09121(11)
C66 C 0.2926(3) 0.3626(2) 0.10860(13)
H66 H 0.3698 0.3860 0.1158
C67 C 0.3103(3) 0.2656(2) 0.11564(13)
H67 H 0.3981 0.2250 0.1273
C68 C 0.1966(3) 0.2270(2) 0.10534(12)
C69 C 0.0671(3) 0.2923(2) 0.08709(12)
H68 H -0.0103 0.2692 0.0798
C70 C 0.0525(3) 0.3890(2) 0.07990(12)
H69 H -0.0339 0.4299 0.0672
C71 C 0.0864(4) 0.0942(3) 0.10600(16)
H70 H 0.0019 0.1242 0.1306
H71 H 0.1120 0.0260 0.1156
H72 H 0.0631 0.1079 0.0676
C72 C 0.3526(4) 0.0632(3) 0.12124(17)
H73 H 0.4256 0.0747 0.0913
H74 H 0.3443 -0.0010 0.1215
H75 H 0.3819 0.0712 0.1568
H76 H 0.151(5) 0.831(2) 0.070(2)
N4 N 0.2104(3) 0.1310(2) 0.11233(12)
O10 O -0.4573(2) 0.86457(17) 0.02857(10)
O11 O 0.0916(3) 0.8883(2) 0.06651(10)
O12 O 0.1775(2) 0.71099(16) 0.08256(9)
loop_
_geom_bond_atom_site_label_1
_geom_bond_atom_site_label_2
_geom_bond_site_symmetry_1
_geom_bond_site_symmetry_2
C1 H1 1_555 1_555
C2 C1 1_555 1_555
H2 C2 1_555 1_555
C3 C2 1_555 1_555
C4 C3 1_555 1_555
H3 C4 1_555 1_555
C5 C4 1_555 1_555
C6 C1 1_555 1_555
C7 H4 1_555 1_555
H5 C7 1_555 1_555
H6 C7 1_555 1_555
C8 C5 1_555 1_555
C9 C8 1_555 1_555
H7 C9 1_555 1_555
C10 C9 1_555 1_555
H8 C10 1_555 1_555
C11 C10 1_555 1_555
C12 C11 1_555 1_555
H9 C12 1_555 1_555
C13 C12 1_555 1_555
H10 C13 1_555 1_555
C14 C13 1_555 1_555
C15 C14 1_555 1_555
H11 C15 1_555 1_555
C16 C11 1_555 1_555
H12 C16 1_555 1_555
C17 H13 1_555 1_555
H14 C17 1_555 1_555
H15 C17 1_555 1_555
C18 H16 1_555 1_555
H17 C18 1_555 1_555
H18 C18 1_555 1_555
N1 C14 1_555 1_555
O1 C3 1_555 1_555
O2 C6 1_555 1_555
O3 C8 1_555 1_555
H19 O2 1_555 1_555
C19 H20 1_555 1_555
H21 C19 1_555 1_555
H22 C19 1_555 1_555
C20 C21 1_555 1_555
C21 H23 1_555 1_555
C22 C21 1_555 1_555
C23 C22 1_555 1_555
C24 C23 1_555 1_555
H24 C24 1_555 1_555
C25 C20 1_555 1_555
H25 C25 1_555 1_555
C26 C22 1_555 1_555
C27 C26 1_555 1_555
H26 C27 1_555 1_555
C28 C27 1_555 1_555
H27 C28 1_555 1_555
C29 C28 1_555 1_555
C30 C29 1_555 1_555
H28 C30 1_555 1_555
C31 C30 1_555 1_555
H29 C31 1_555 1_555
C32 C31 1_555 1_555
C33 C32 1_555 1_555
H30 C33 1_555 1_555
C34 C29 1_555 1_555
H31 C34 1_555 1_555
C35 H32 1_555 1_555
H33 C35 1_555 1_555
H34 C35 1_555 1_555
C36 H35 1_555 1_555
H36 C36 1_555 1_555
H37 C36 1_555 1_555
H38 O6 1_555 1_555
N2 C32 1_555 1_555
O4 C19 1_555 1_555
O5 C26 1_555 1_555
O6 C23 1_555 1_555
C37 H39 1_555 1_555
H40 C37 1_555 1_555
H41 C37 1_555 1_555
C38 C39 1_555 1_555
C39 H42 1_555 1_555
C40 C39 1_555 1_555
H43 C40 1_555 1_555
C41 C40 1_555 1_555
C42 C41 1_555 1_555
C43 C38 1_555 1_555
H44 C43 1_555 1_555
C44 C42 1_555 1_555
C45 C44 1_555 1_555
H45 C45 1_555 1_555
C46 C45 1_555 1_555
H46 C46 1_555 1_555
C47 C46 1_555 1_555
C48 C47 1_555 1_555
H47 C48 1_555 1_555
C49 C48 1_555 1_555
H48 C49 1_555 1_555
C50 C49 1_555 1_555
C51 C50 1_555 1_555
H49 C51 1_555 1_555
C52 C47 1_555 1_555
H50 C52 1_555 1_555
C53 H51 1_555 1_555
H52 C53 1_555 1_555
H53 C53 1_555 1_555
C54 H54 1_555 1_555
H55 C54 1_555 1_555
H56 C54 1_555 1_555
H57 O8 1_555 1_555
N3 C50 1_555 1_555
O7 C37 1_555 1_555
O8 C41 1_555 1_555
O9 C44 1_555 1_555
C55 H58 1_555 1_555
H59 C55 1_555 1_555
H60 C55 1_555 1_555
C56 C57 1_555 1_555
C57 H61 1_555 1_555
C58 C57 1_555 1_555
H62 C58 1_555 1_555
C59 C58 1_555 1_555
C60 C59 1_555 1_555
C61 C56 1_555 1_555
H63 C61 1_555 1_555
C62 C60 1_555 1_555
C63 C62 1_555 1_555
H64 C63 1_555 1_555
C64 C63 1_555 1_555
H65 C64 1_555 1_555
C65 C64 1_555 1_555
C66 C65 1_555 1_555
H66 C66 1_555 1_555
C67 C66 1_555 1_555
H67 C67 1_555 1_555
C68 C67 1_555 1_555
C69 C68 1_555 1_555
H68 C69 1_555 1_555
C70 C65 1_555 1_555
H69 C70 1_555 1_555
C71 H70 1_555 1_555
H71 C71 1_555 1_555
H72 C71 1_555 1_555
C72 H73 1_555 1_555
H74 C72 1_555 1_555
H75 C72 1_555 1_555
H76 O11 1_555 1_555
N4 C68 1_555 1_555
O10 C55 1_555 1_555
O11 C59 1_555 1_555
O12 C62 1_555 1_555
C5 C6 1_555 1_555
C7 O1 1_555 1_555
C15 C16 1_555 1_555
C17 N1 1_555 1_555
C18 N1 1_555 1_555
C20 O4 1_555 1_555
C24 C25 1_555 1_555
C33 C34 1_555 1_555
C35 N2 1_555 1_555
C36 N2 1_555 1_555
C38 O7 1_555 1_555
C42 C43 1_555 1_555
C51 C52 1_555 1_555
C53 N3 1_555 1_555
C54 N3 1_555 1_555
C56 O10 1_555 1_555
C60 C61 1_555 1_555
C69 C70 1_555 1_555
C71 N4 1_555 1_555
C72 N4 1_555 1_555

#END
