
#######################################################################
#
#                 Cambridge Crystallographic Data Centre
#                                CCDC 
#
#######################################################################
#
# If this CIF has been generated from an entry in the Cambridge 
# Structural Database, then it will include bibliographic, chemical, 
# crystal, experimental, refinement or atomic coordinate data resulting 
# from the CCDC's data processing and validation procedures.
#
#######################################################################

data_AHOXEC
_chemical_formula_moiety         'C18 H19 N1 O2'
_chemical_name_systematic        
3-(4-(dimethylamino)phenyl)-1-(2-hydroxy-5-methylphenyl)prop-2-en-1-one
_symmetry_cell_setting           orthorhombic
_symmetry_space_group_name_H-M   'P b c a'
_symmetry_Int_Tables_number      61
_space_group_name_Hall           '-P 2ac 2ab'
loop_
_symmetry_equiv_pos_site_id
_symmetry_equiv_pos_as_xyz
1 x,y,z
2 1/2-x,-y,1/2+z
3 -x,1/2+y,1/2-z
4 1/2+x,1/2-y,-z
5 -x,-y,-z
6 1/2+x,y,1/2-z
7 x,1/2-y,1/2+z
8 1/2-x,1/2+y,z
_cell_length_a                   10.750(2)
_cell_length_b                   13.160(3)
_cell_length_c                   22.141(4)
_cell_angle_alpha                90
_cell_angle_beta                 90
_cell_angle_gamma                90
_cell_volume                     3132.29
_exptl_crystal_colour            red
_exptl_crystal_description       flaky
_cell_formula_units_Z            8
_chemical_properties_physical    Light-sensitive
_exptl_crystal_preparation       Luminescent
loop_
_atom_site_label
_atom_site_type_symbol
_atom_site_fract_x
_atom_site_fract_y
_atom_site_fract_z
O1 O 0.15582(15) 1.16054(9) 0.16730(6)
O2 O 0.06881(14) 1.02789(9) 0.09636(6)
C1 C 0.13577(18) 0.96002(12) 0.11913(8)
C2 C 0.09151(18) 0.74044(12) 0.00809(7)
C3 C 0.20617(17) 0.98238(12) 0.17480(7)
C4 C 0.14743(19) 0.86087(13) 0.09080(8)
C5 C 0.21567(18) 1.08312(12) 0.19561(8)
C6 C 0.1831(2) 0.57469(15) -0.00931(9)
N1 N 0.11967(18) 0.47145(12) -0.09407(7)
C7 C 0.10997(19) 0.55898(13) -0.06119(8)
C8 C 0.08206(19) 0.83454(13) 0.04133(8)
C9 C 0.26714(19) 0.90670(13) 0.20811(8)
C10 C 0.1728(2) 0.66206(14) 0.02401(9)
C11 C 0.3469(2) 1.02882(15) 0.27692(9)
C12 C 0.2893(2) 1.10507(14) 0.24558(9)
C13 C 0.3358(2) 0.92742(14) 0.25933(9)
C14 C 0.0195(2) 0.72447(15) -0.04329(9)
C15 C 0.0281(2) 0.63697(15) -0.07744(9)
C16 C 0.0392(3) 0.4526(2) -0.14494(12)
C17 C 0.2034(3) 0.39107(18) -0.07559(12)
C18 C 0.3985(3) 0.84333(17) 0.29436(13)
H1 H 0.3600 0.8369 0.3333
H2 H 0.4851 0.8591 0.2994
H3 H 0.3903 0.7805 0.2727
H4 H 0.2619(19) 0.8363(15) 0.1947(8)
H5 H -0.040(2) 0.7772(15) -0.0553(9)
H6 H 0.025(2) 0.8832(16) 0.0259(8)
H7 H 0.241(2) 0.5224(16) 0.0042(10)
H8 H 0.296(2) 1.1786(16) 0.2558(9)
H9 H 0.398(2) 1.0447(14) 0.3115(10)
H10 H 0.230(2) 0.6711(14) 0.0594(9)
H11 H 0.2063(19) 0.8147(14) 0.1071(8)
H12 H -0.044(3) 0.464(2) -0.1342(13)
H13 H -0.026(2) 0.6300(18) -0.1122(10)
H14 H 0.202(3) 0.337(2) -0.1062(13)
H15 H 0.183(2) 0.3634(18) -0.0350(12)
H16 H 0.054(3) 0.389(2) -0.1615(12)
H17 H 0.290(3) 0.415(2) -0.0706(12)
H18 H 0.103(3) 1.1229(19) 0.1360(11)
H19 H 0.053(3) 0.508(2) -0.1772(16)
loop_
_geom_bond_atom_site_label_1
_geom_bond_atom_site_label_2
_geom_bond_site_symmetry_1
_geom_bond_site_symmetry_2
O1 C5 1_555 1_555
O2 C1 1_555 1_555
C1 C3 1_555 1_555
C2 C8 1_555 1_555
C3 C5 1_555 1_555
C4 C1 1_555 1_555
C5 C12 1_555 1_555
C6 C7 1_555 1_555
N1 C7 1_555 1_555
C7 C15 1_555 1_555
C8 C4 1_555 1_555
C9 C3 1_555 1_555
C10 C2 1_555 1_555
C11 C12 1_555 1_555
C12 H8 1_555 1_555
C13 C9 1_555 1_555
C14 C2 1_555 1_555
C15 C14 1_555 1_555
C16 N1 1_555 1_555
C17 N1 1_555 1_555
C18 C13 1_555 1_555
H1 C18 1_555 1_555
H2 C18 1_555 1_555
H3 C18 1_555 1_555
H4 C9 1_555 1_555
H5 C14 1_555 1_555
H6 C8 1_555 1_555
H7 C6 1_555 1_555
H9 C11 1_555 1_555
H10 C10 1_555 1_555
H11 C4 1_555 1_555
H12 C16 1_555 1_555
H13 C15 1_555 1_555
H14 C17 1_555 1_555
H15 C17 1_555 1_555
H16 C16 1_555 1_555
H17 C17 1_555 1_555
H18 O1 1_555 1_555
H19 C16 1_555 1_555
C6 C10 1_555 1_555
C11 C13 1_555 1_555

#END
