
#######################################################################
#
#                 Cambridge Crystallographic Data Centre
#                                CCDC 
#
#######################################################################
#
# If this CIF has been generated from an entry in the Cambridge 
# Structural Database, then it will include bibliographic, chemical, 
# crystal, experimental, refinement or atomic coordinate data resulting 
# from the CCDC's data processing and validation procedures.
#
#######################################################################

data_AHTPAL02
_chemical_name_common            'ammonium hydrogen terephthalate'
_chemical_formula_moiety         'C8 H5 O4 1-,H4 N1 1+'
_chemical_name_systematic        'ammonium 4-carboxybenzoate'
_symmetry_cell_setting           monoclinic
_symmetry_space_group_name_H-M   'C 2/c'
_symmetry_Int_Tables_number      15
_space_group_name_Hall           '-C 2yn'
loop_
_symmetry_equiv_pos_site_id
_symmetry_equiv_pos_as_xyz
1 x,y,z
2 -x,y,1/2-z
3 1/2+x,1/2+y,z
4 1/2-x,1/2+y,1/2-z
5 -x,-y,-z
6 x,-y,1/2+z
7 1/2-x,1/2-y,-z
8 1/2+x,1/2-y,1/2+z
_cell_length_a                   18.938(4)
_cell_length_b                   3.8045(8)
_cell_length_c                   11.480(2)
_cell_angle_alpha                90
_cell_angle_beta                 97.96(3)
_cell_angle_gamma                90
_cell_volume                     819.16
_exptl_crystal_colour            colorless
_exptl_crystal_description       Plate
_cell_formula_units_Z            4
loop_
_atom_site_label
_atom_site_type_symbol
_atom_site_fract_x
_atom_site_fract_y
_atom_site_fract_z
C1 C 0.10724(9) 0.1192(4) 0.05233(15)
C2 C 0.19913(9) 0.1086(4) -0.08720(14)
H1 H 0.1643(12) 0.018(7) -0.150(2)
C3 C 0.23196(9) 0.3281(5) 0.11020(14)
H2 H 0.2185(12) 0.376(6) 0.192(2)
C4 C 0.18102(8) 0.1867(4) 0.02326(13)
O1 O 0.05944(7) 0.0328(5) -0.03423(11)
O2 O 0.09492(7) 0.1434(4) 0.15475(11)
C1F C 0.39276(9) 0.3808(4) -0.05233(15)
C2F C 0.30087(9) 0.3914(4) 0.08720(14)
H1F H 0.3357(12) 0.482(7) 0.150(2)
C3F C 0.26804(9) 0.1719(5) -0.11020(14)
H2F H 0.2815(12) 0.124(6) -0.192(2)
C4F C 0.31898(8) 0.3133(4) -0.02326(13)
O1F O 0.44056(7) 0.4672(5) 0.03423(11)
O2F O 0.40508(7) 0.3566(4) -0.15475(11)
N1 N 0.0000 0.5895(7) 0.2500
H3 H 0.0338(18) 0.479(12) 0.214(4)
H4 H -0.028(2) 0.701(12) 0.191(3)
H3A H -0.0338(18) 0.479(12) 0.286(4)
H4A H 0.028(2) 0.701(12) 0.309(3)
H5? H 0.0130(5) 0.04(2) -0.0207(17)
loop_
_geom_bond_atom_site_label_1
_geom_bond_atom_site_label_2
_geom_bond_site_symmetry_1
_geom_bond_site_symmetry_2
C1 C4 1_555 1_555
C2 H1 1_555 1_555
C3 H2 1_555 1_555
C4 C2 1_555 1_555
O1 C1 1_555 1_555
O2 C1 1_555 1_555
N1 H3 1_555 1_555
H4 N1 1_555 1_555
C1F C4F 1_555 1_555
C2F C3 1_555 1_555
H1F C2F 1_555 1_555
C3F C2 1_555 1_555
H2F C3F 1_555 1_555
C4F C2F 1_555 1_555
O1F C1F 1_555 1_555
O2F C1F 1_555 1_555
H3A N1 1_555 1_555
H4A N1 1_555 1_555
C3 C4 1_555 1_555
C3F C4F 1_555 1_555

#END
