
#######################################################################
#
#                 Cambridge Crystallographic Data Centre
#                                CCDC 
#
#######################################################################
#
# If this CIF has been generated from an entry in the Cambridge 
# Structural Database, then it will include bibliographic, chemical, 
# crystal, experimental, refinement or atomic coordinate data resulting 
# from the CCDC's data processing and validation procedures.
#
#######################################################################

data_AHUGIT
_chemical_formula_moiety         'C19 H19 N1 O2'
_chemical_name_systematic        
(4bR,7S,aS)-6,7-Dihydro-7-isopropyldibenzo(c,e)oxazolo(3,2-a)azepin-9(4bH)-one
_symmetry_cell_setting           monoclinic
_symmetry_space_group_name_H-M   'C 2'
_symmetry_Int_Tables_number      5
_space_group_name_Hall           'C 2y'
loop_
_symmetry_equiv_pos_site_id
_symmetry_equiv_pos_as_xyz
1 x,y,z
2 -x,y,-z
3 1/2+x,1/2+y,z
4 1/2-x,1/2+y,-z
_cell_length_a                   22.2220(6)
_cell_length_b                   6.9665(2)
_cell_length_c                   12.0229(4)
_cell_angle_alpha                90
_cell_angle_beta                 121.135(2)
_cell_angle_gamma                90
_cell_volume                     1593.15
_exptl_crystal_colour            colorless
_exptl_crystal_description       plate
_chemical_melting_point          121-123deg.C
_cell_formula_units_Z            4
_exptl_crystal_recrystallization_method 'ethyl acetate'
loop_
_atom_site_label
_atom_site_type_symbol
_atom_site_fract_x
_atom_site_fract_y
_atom_site_fract_z
C1 C 0.47743(9) 0.7368(3) 0.83095(16)
H1 H 0.5107 0.8209 0.8916
C2 C 0.49863(9) 0.5900(3) 0.78174(18)
H2 H 0.5461 0.5743 0.811
C3 C 0.44986(10) 0.4666(3) 0.68957(18)
H3 H 0.4643 0.369 0.6558
C4 C 0.37890(10) 0.4886(3) 0.64720(17)
H4 H 0.3459 0.406 0.5846
C5 C 0.35717(8) 0.6331(2) 0.69782(15)
C6 C 0.28047(8) 0.6617(3) 0.65453(15)
H5 H 0.2669 0.7948 0.626
C7 C 0.22193(12) 0.3744(3) 0.6142(2)
H6 H 0.2593 0.2805 0.6431
H7 H 0.1776 0.3132 0.5536
C8 C 0.21986(9) 0.4565(3) 0.72897(18)
H8 H 0.2403 0.3639 0.8007
C9 C 0.29836(8) 0.7104(3) 0.87673(15)
C10 C 0.33836(9) 0.8921(2) 0.89098(16)
C11 C 0.32766(9) 1.0400(3) 0.95746(16)
H9 H 0.2976 1.0208 0.9887
C12 C 0.36120(10) 1.2140(3) 0.97716(17)
H10 H 0.3538 1.3116 1.0216
C13 C 0.40596(10) 1.2434(3) 0.93066(18)
H11 H 0.4279 1.3616 0.9422
C14 C 0.41781(9) 1.0972(2) 0.86742(17)
H12 H 0.4483 1.1181 0.8372
C15 C 0.38537(8) 0.9181(2) 0.84726(15)
C16 C 0.40629(8) 0.7604(2) 0.79044(15)
C17 C 0.14740(10) 0.5205(4) 0.7023(2)
H13 H 0.155 0.5885 0.7799
C18 C 0.11008(11) 0.6578(5) 0.5889(2)
H14 H 0.1397 0.7665 0.6029
H15 H 0.0671 0.7003 0.5815
H16 H 0.0997 0.5936 0.5103
C19 C 0.10282(14) 0.3455(5) 0.6853(3)
H17 H 0.128 0.2621 0.7589
H18 H 0.0926 0.2783 0.6077
H19 H 0.0597 0.3853 0.6785
N1 N 0.26813(7) 0.6195(2) 0.76105(13)
O1 O 0.23464(6) 0.5362(2) 0.55398(11)
O2 O 0.28937(6) 0.65621(19) 0.96485(11)
loop_
_geom_bond_atom_site_label_1
_geom_bond_atom_site_label_2
_geom_bond_site_symmetry_1
_geom_bond_site_symmetry_2
C1 H1 1_555 1_555
C2 C1 1_555 1_555
H2 C2 1_555 1_555
C3 C2 1_555 1_555
H3 C3 1_555 1_555
C4 C3 1_555 1_555
H4 C4 1_555 1_555
C5 C4 1_555 1_555
C6 C5 1_555 1_555
H5 C6 1_555 1_555
C7 H6 1_555 1_555
H7 C7 1_555 1_555
C8 C7 1_555 1_555
H8 C8 1_555 1_555
C9 C10 1_555 1_555
C10 C11 1_555 1_555
C11 H9 1_555 1_555
C12 C11 1_555 1_555
H10 C12 1_555 1_555
C13 C12 1_555 1_555
H11 C13 1_555 1_555
C14 C13 1_555 1_555
H12 C14 1_555 1_555
C15 C10 1_555 1_555
C16 C1 1_555 1_555
C17 C8 1_555 1_555
H13 C17 1_555 1_555
C18 C17 1_555 1_555
H14 C18 1_555 1_555
H15 C18 1_555 1_555
H16 C18 1_555 1_555
C19 C17 1_555 1_555
H17 C19 1_555 1_555
H18 C19 1_555 1_555
H19 C19 1_555 1_555
N1 C6 1_555 1_555
O1 C6 1_555 1_555
O2 C9 1_555 1_555
C5 C16 1_555 1_555
C7 O1 1_555 1_555
C8 N1 1_555 1_555
C9 N1 1_555 1_555
C14 C15 1_555 1_555
C15 C16 1_555 1_555

#END
