
#######################################################################
#
#                 Cambridge Crystallographic Data Centre
#                                CCDC 
#
#######################################################################
#
# If this CIF has been generated from an entry in the Cambridge 
# Structural Database, then it will include bibliographic, chemical, 
# crystal, experimental, refinement or atomic coordinate data resulting 
# from the CCDC's data processing and validation procedures.
#
#######################################################################

data_AHUVII01
_chemical_formula_moiety         'C26 H38 N2 O4'
_chemical_name_systematic        
N,N'-bis(1-Carboxy-7,7-dimethylbicyclo(2.2.1)hept-2-ylidene)cyclohexane-1,2-diamine
_symmetry_cell_setting           tetragonal
_symmetry_space_group_name_H-M   'P 43 21 2'
_symmetry_Int_Tables_number      96
_space_group_name_Hall           'P 4nw 2abw'
loop_
_symmetry_equiv_pos_site_id
_symmetry_equiv_pos_as_xyz
1 x,y,z
2 1/2-y,1/2+x,3/4+z
3 1/2+x,1/2-y,1/4-z
4 -x,-y,1/2+z
5 y,x,-z
6 1/2+y,1/2-x,1/4+z
7 1/2-x,1/2+y,3/4-z
8 -y,-x,1/2-z
_cell_length_a                   7.8028(13)
_cell_length_b                   7.8028(13)
_cell_length_c                   40.282(4)
_cell_angle_alpha                90
_cell_angle_beta                 90
_cell_angle_gamma                90
_cell_volume                     2452.52
_cell_formula_units_Z            4
loop_
_atom_site_label
_atom_site_type_symbol
_atom_site_fract_x
_atom_site_fract_y
_atom_site_fract_z
O1 O 0.17276(64) 0.79310(49) 0.04980(10)
O2 O -0.02967(70) 0.65805(48) 0.07627(10)
N1 N 0.14067(50) 1.11051(45) 0.03580(8)
C1 C 0.02740(91) 0.78932(68) 0.06635(13)
C2 C -0.05576(68) 0.96168(58) 0.07321(10)
C3 C 0.00179(60) 1.11203(53) 0.05212(10)
C4 C -0.13163(62) 1.25040(57) 0.05584(11)
C5 C -0.25450(64) 1.16681(67) 0.08028(10)
C6 C -0.16528(77) 1.16328(73) 0.11401(11)
C7 C -0.02679(72) 1.02089(65) 0.10964(10)
C8 C -0.25462(71) 0.97584(72) 0.06960(10)
C9 C -0.36014(87) 0.86164(88) 0.09247(14)
C10 C -0.31538(71) 0.94219(71) 0.03408(12)
C11 C 0.19462(61) 1.26351(59) 0.01752(9)
C12 C 0.34284(72) 1.34884(70) 0.03639(11)
C13 C 0.42803(74) 1.49081(70) 0.01647(13)
H1 H 0.18808 0.89971 0.03673
H2 H -0.07477 1.37167 0.06587
H3 H -0.19342 1.28758 0.03236
H4 H -0.38296 1.22691 0.08099
H5 H -0.25585 1.13027 0.13454
H6 H -0.10753 1.28598 0.12107
H7 H 0.10163 1.07215 0.11431
H8 H -0.04593 0.91682 0.12825
H9 H -0.49529 0.88834 0.09493
H10 H -0.30342 0.88581 0.11784
H11 H -0.44814 0.98135 0.03109
H12 H -0.30512 0.80697 0.02819
H13 H -0.23127 1.01871 0.01760
H15 H 0.29589 1.38970 0.05985
H16 H 0.44022 1.24692 0.04061
H17 H 0.33055 1.59369 0.01248
H18 H 0.52980 1.54984 0.03132
C11D C 0.26351(59) 1.19462(61) -0.01752(9)
N1D N 0.11051(45) 1.14067(50) -0.03580(8)
C3D C 0.11203(53) 1.00179(60) -0.05212(10)
C2D C -0.03832(58) 0.94424(68) -0.07321(10)
C1D C -0.21068(68) 1.02740(91) -0.06635(13)
O1D O -0.20690(49) 1.17276(64) -0.04980(10)
H1D H -0.10029 1.18808 -0.03673
O2D O -0.34195(48) 0.97033(70) -0.07627(10)
C7D C 0.02089(65) 0.97321(72) -0.10964(10)
C6D C 0.16328(73) 0.83472(77) -0.11401(11)
C5D C 0.16681(67) 0.74550(64) -0.08028(10)
C4D C 0.25040(57) 0.86837(62) -0.05584(11)
H2D H 0.37167 0.92523 -0.06587
H3D H 0.28758 0.80658 -0.03236
C8D C -0.02416(72) 0.74538(71) -0.06960(10)
C9D C -0.13836(88) 0.63986(87) -0.09247(14)
H9D H -0.11166 0.50471 -0.09493
H10D H -0.11419 0.69658 -0.11784
C10D C -0.05781(71) 0.68462(71) -0.03408(12)
H11D H -0.01865 0.55186 -0.03109
H12D H -0.19303 0.69488 -0.02819
H13D H 0.01871 0.76873 -0.01760
H4D H 0.22691 0.61704 -0.08099
H5D H 0.13027 0.74415 -0.13454
H6D H 0.28598 0.89247 -0.12107
H7D H 0.07215 1.10163 -0.11431
H8D H -0.08318 0.95407 -0.12825
C12D C 0.34884(70) 1.34284(72) -0.03639(11)
C13D C 0.49081(70) 1.42803(74) -0.01647(13)
H17D H 0.59369 1.33055 -0.01248
H18D H 0.54984 1.52980 -0.03132
H15D H 0.38970 1.29589 -0.05985
H16D H 0.24692 1.44022 -0.04061
H14? H 0.28743 1.18760 0.00327
loop_
_geom_bond_atom_site_label_1
_geom_bond_atom_site_label_2
_geom_bond_site_symmetry_1
_geom_bond_site_symmetry_2
O1 C1 1_555 1_555
O2 C1 1_555 1_555
N1 C3 1_555 1_555
C1 C2 1_555 1_555
C2 C3 1_555 1_555
C3 C4 1_555 1_555
C4 C5 1_555 1_555
C5 C6 1_555 1_555
C6 C7 1_555 1_555
C7 C2 1_555 1_555
C8 C2 1_555 1_555
C9 C8 1_555 1_555
C10 C8 1_555 1_555
C11 N1 1_555 1_555
C12 C11 1_555 1_555
C13 C12 1_555 1_555
H1 O1 1_555 1_555
H2 C4 1_555 1_555
H3 C4 1_555 1_555
H4 C5 1_555 1_555
H5 C6 1_555 1_555
H6 C6 1_555 1_555
H7 C7 1_555 1_555
H8 C7 1_555 1_555
H9 C9 1_555 1_555
H10 C9 1_555 1_555
H11 C10 1_555 1_555
H12 C10 1_555 1_555
H13 C10 1_555 1_555
H15 C12 1_555 1_555
H16 C12 1_555 1_555
H17 C13 1_555 1_555
H18 C13 1_555 1_555
C11D C11 1_555 1_555
N1D C11D 1_555 1_555
C3D N1D 1_555 1_555
C2D C3D 1_555 1_555
C1D C2D 1_555 1_555
O1D C1D 1_555 1_555
H1D O1D 1_555 1_555
O2D C1D 1_555 1_555
C7D C2D 1_555 1_555
C6D C7D 1_555 1_555
C5D C6D 1_555 1_555
C4D C3D 1_555 1_555
H2D C4D 1_555 1_555
H3D C4D 1_555 1_555
C8D C2D 1_555 1_555
C9D C8D 1_555 1_555
H9D C9D 1_555 1_555
H10D C9D 1_555 1_555
C10D C8D 1_555 1_555
H11D C10D 1_555 1_555
H12D C10D 1_555 1_555
H13D C10D 1_555 1_555
H4D C5D 1_555 1_555
H5D C6D 1_555 1_555
H6D C6D 1_555 1_555
H7D C7D 1_555 1_555
H8D C7D 1_555 1_555
C12D C11D 1_555 1_555
C13D C13 1_555 1_555
H17D C13D 1_555 1_555
H18D C13D 1_555 1_555
H15D C12D 1_555 1_555
H16D C12D 1_555 1_555
C5 C8 1_555 1_555
C5D C4D 1_555 1_555
C5D C8D 1_555 1_555
C12D C13D 1_555 1_555

#END
