
#######################################################################
#
#                 Cambridge Crystallographic Data Centre
#                                CCDC 
#
#######################################################################
#
# If this CIF has been generated from an entry in the Cambridge 
# Structural Database, then it will include bibliographic, chemical, 
# crystal, experimental, refinement or atomic coordinate data resulting 
# from the CCDC's data processing and validation procedures.
#
#######################################################################

data_AHUXOR
_chemical_formula_moiety         'C15 H11 N3 O3 S1,2(H2 O1)'
_chemical_name_systematic        
"6-Methyl-6H,7H-pyrido[2',1':2,3]pyrimido[5,4-c][1,2]benzothiazin-7-one 5,5-dioxide dihydrate"
_chemical_properties_biological  
'The compound has been observed as a metabolite of the non-steroidal anti-inflammatory drug (NSAID) Piroxicam'
_symmetry_cell_setting           monoclinic
_symmetry_space_group_name_H-M   'P 21/c'
_symmetry_Int_Tables_number      14
_space_group_name_Hall           '-P 2ybc'
loop_
_symmetry_equiv_pos_site_id
_symmetry_equiv_pos_as_xyz
1 x,y,z
2 -x,1/2+y,1/2-z
3 -x,-y,-z
4 x,1/2-y,1/2+z
_cell_length_a                   8.3027(8)
_cell_length_b                   27.641(3)
_cell_length_c                   7.2861(7)
_cell_angle_alpha                90
_cell_angle_beta                 113.043(1)
_cell_angle_gamma                90
_cell_volume                     1538.71
_exptl_crystal_colour            colorless
_exptl_crystal_description       block
_chemical_melting_point          '282 deg.C'
_cell_formula_units_Z            4
_exptl_crystal_recrystallization_method methanol
loop_
_atom_site_label
_atom_site_type_symbol
_atom_site_fract_x
_atom_site_fract_y
_atom_site_fract_z
S1 S 0.31459(6) 0.180492(17) 0.36253(7)
N1 N 0.2611(2) 0.14507(6) 0.1676(2)
N2 N 0.3738(2) 0.01815(5) 0.1262(2)
N3 N 0.61527(18) 0.05673(5) 0.3814(2)
O1 O 0.2218(2) 0.22481(5) 0.3010(3)
O2 O 0.29449(19) 0.15330(5) 0.5195(2)
O3 O 0.11969(18) 0.05917(5) -0.0225(2)
C1 C 0.3607(2) 0.10237(6) 0.2012(3)
C2 C 0.2751(2) 0.05883(7) 0.0944(3)
C3 C 0.5327(2) 0.01666(6) 0.2707(3)
C4 C 0.6228(3) -0.02829(7) 0.3206(3)
H5 H 0.5739 -0.0554 0.2434
C5 C 0.7776(3) -0.03248(7) 0.4776(3)
H6 H 0.8355 -0.0621 0.5064
C6 C 0.8506(2) 0.00824(7) 0.5973(3)
H7 H 0.9546 0.0054 0.7091
C7 C 0.7695(2) 0.05113(7) 0.5494(3)
H8 H 0.8174 0.0778 0.6304
C8 C 0.5326(2) 0.10211(6) 0.3290(2)
C9 C 0.6301(2) 0.14736(6) 0.4033(3)
C10 C 0.8062(2) 0.15375(7) 0.4332(3)
H9 H 0.8706 0.1278 0.4170
C11 C 0.8841(3) 0.19868(8) 0.4866(3)
H10 H 1.0017 0.2024 0.5093
C12 C 0.7904(3) 0.23815(7) 0.5070(3)
H11 H 0.8457 0.2679 0.5458
C13 C 0.6151(3) 0.23357(7) 0.4698(3)
H12 H 0.5499 0.2602 0.4778
C14 C 0.5382(2) 0.18835(6) 0.4204(3)
C15 C 0.1716(4) 0.16469(9) -0.0349(4)
H13 H 0.2157 0.1491 -0.1235
H14 H 0.1927 0.1989 -0.0334
H15 H 0.0481 0.1589 -0.0798
O4 O 0.8163(2) 0.06884(6) 1.0679(3)
H1 H 0.922(3) 0.0674(11) 1.043(5)
H2 H 0.757(4) 0.0391(8) 1.008(5)
O5 O 0.5870(5) 0.14784(10) 0.9298(4)
H3 H 0.527(7) 0.155(3) 0.789(3)
H4 H 0.688(5) 0.1307(19) 0.924(8)
loop_
_geom_bond_atom_site_label_1
_geom_bond_atom_site_label_2
_geom_bond_site_symmetry_1
_geom_bond_site_symmetry_2
S1 N1 1_555 1_555
N1 C1 1_555 1_555
N2 C2 1_555 1_555
N3 C3 1_555 1_555
O1 S1 1_555 1_555
O2 S1 1_555 1_555
O3 C2 1_555 1_555
O4 H1 1_555 1_555
H2 O4 1_555 1_555
O5 H3 1_555 1_555
H4 O5 1_555 1_555
C1 C2 1_555 1_555
C3 N2 1_555 1_555
C4 C3 1_555 1_555
H5 C4 1_555 1_555
C5 C4 1_555 1_555
H6 C5 1_555 1_555
C6 C5 1_555 1_555
H7 C6 1_555 1_555
C7 N3 1_555 1_555
H8 C7 1_555 1_555
C8 N3 1_555 1_555
C9 C8 1_555 1_555
C10 C9 1_555 1_555
H9 C10 1_555 1_555
C11 C10 1_555 1_555
H10 C11 1_555 1_555
C12 C11 1_555 1_555
H11 C12 1_555 1_555
C13 C12 1_555 1_555
H12 C13 1_555 1_555
C14 S1 1_555 1_555
C15 N1 1_555 1_555
H13 C15 1_555 1_555
H14 C15 1_555 1_555
H15 C15 1_555 1_555
C1 C8 1_555 1_555
C6 C7 1_555 1_555
C9 C14 1_555 1_555
C13 C14 1_555 1_555

#END
