
#######################################################################
#
#                 Cambridge Crystallographic Data Centre
#                                CCDC 
#
#######################################################################
#
# If this CIF has been generated from an entry in the Cambridge 
# Structural Database, then it will include bibliographic, chemical, 
# crystal, experimental, refinement or atomic coordinate data resulting 
# from the CCDC's data processing and validation procedures.
#
#######################################################################

data_AIPTAL
_chemical_formula_moiety         'C9 H14 O5'
_chemical_name_systematic        
1,6-Anhydro-3,4-O-isopropylidene-\b-D-talopyranose
_symmetry_cell_setting           orthorhombic
_symmetry_space_group_name_H-M   'P 21 21 21'
_symmetry_Int_Tables_number      19
_space_group_name_Hall           'P 2ac 2ab'
loop_
_symmetry_equiv_pos_site_id
_symmetry_equiv_pos_as_xyz
1 x,y,z
2 1/2+x,1/2-y,-z
3 -x,1/2+y,1/2-z
4 1/2-x,-y,1/2+z
_cell_length_a                   20.191(5)
_cell_length_b                   8.220(2)
_cell_length_c                   5.717(2)
_cell_angle_alpha                90
_cell_angle_beta                 90
_cell_angle_gamma                90
_cell_volume                     948.851
_cell_formula_units_Z            4
loop_
_atom_site_label
_atom_site_type_symbol
_atom_site_fract_x
_atom_site_fract_y
_atom_site_fract_z
C1 C 0.39200 0.31580 0.32310
C2 C 0.32960 0.37880 0.43950
C3 C 0.32410 0.56440 0.43180
C4 C 0.36170 0.64590 0.23150
C5 C 0.42180 0.54600 0.15390
C6 C 0.47260 0.50900 0.34210
C7 C 0.36250 0.80540 0.56640
C8 C 0.41760 0.88140 0.70680
C9 C 0.29790 0.89910 0.59060
H1 H 0.39000 0.19900 0.31300
H2 H 0.34600 0.35600 0.73700
H3 H 0.28800 0.34400 0.34300
H4 H 0.27700 0.59200 0.41800
H5 H 0.33300 0.66500 0.09100
H6 H 0.44600 0.59000 0.00600
H7 H 0.47300 0.59600 0.45800
H8 H 0.51800 0.47100 0.25800
H9 H 0.42500 0.99600 0.65300
H10 H 0.45900 0.81700 0.67600
H11 H 0.40600 0.88100 0.87600
H12 H 0.30300 1.01500 0.53900
H13 H 0.26100 0.84700 0.48900
H14 H 0.28300 0.89500 0.75900
O1 O 0.44912 0.36060 0.44710
O2 O 0.32139 0.31540 0.66800
O3 O 0.35395 0.63860 0.63230
O4 O 0.38171 0.79930 0.32450
O5 O 0.39780 0.38550 0.09730
loop_
_geom_bond_atom_site_label_1
_geom_bond_atom_site_label_2
_geom_bond_site_symmetry_1
_geom_bond_site_symmetry_2
C1 C2 1_555 1_555
C2 C3 1_555 1_555
C3 C4 1_555 1_555
C4 C5 1_555 1_555
C5 C6 1_555 1_555
C6 H7 1_555 1_555
C7 C8 1_555 1_555
C8 H9 1_555 1_555
C9 C7 1_555 1_555
H1 C1 1_555 1_555
H2 O2 1_555 1_555
H3 C2 1_555 1_555
H4 C3 1_555 1_555
H5 C4 1_555 1_555
H6 C5 1_555 1_555
H8 C6 1_555 1_555
H10 C8 1_555 1_555
H11 C8 1_555 1_555
H12 C9 1_555 1_555
H13 C9 1_555 1_555
H14 C9 1_555 1_555
O1 C1 1_555 1_555
O2 C2 1_555 1_555
O3 C3 1_555 1_555
O4 C4 1_555 1_555
O5 C1 1_555 1_555
C5 O5 1_555 1_555
C6 O1 1_555 1_555
C7 O3 1_555 1_555
C7 O4 1_555 1_555

#END
