
#######################################################################
#
#                 Cambridge Crystallographic Data Centre
#                                CCDC 
#
#######################################################################
#
# If this CIF has been generated from an entry in the Cambridge 
# Structural Database, then it will include bibliographic, chemical, 
# crystal, experimental, refinement or atomic coordinate data resulting 
# from the CCDC's data processing and validation procedures.
#
#######################################################################

data_AJABAP
_chemical_name_common            
2-O-Benzyl-1,6:3,4-dianhydro-beta-D-altropyranose
_chemical_formula_moiety         'C13 H14 O4'
_chemical_name_systematic        
5-(Benzyloxy)-3,7,9-trioxatricyclo[4.2.1.0^2,4^]nonane
_symmetry_cell_setting           monoclinic
_symmetry_space_group_name_H-M   'P 21'
_symmetry_Int_Tables_number      4
_space_group_name_Hall           'P 2yb'
loop_
_symmetry_equiv_pos_site_id
_symmetry_equiv_pos_as_xyz
1 x,y,z
2 -x,1/2+y,-z
_cell_length_a                   10.9272(12)
_cell_length_b                   19.943(2)
_cell_length_c                   11.0323(11)
_cell_angle_alpha                90
_cell_angle_beta                 110.217(6)
_cell_angle_gamma                90
_cell_volume                     2256.05
_exptl_crystal_colour            colorless
_exptl_crystal_description       needle
_cell_formula_units_Z            8
loop_
_atom_site_label
_atom_site_type_symbol
_atom_site_fract_x
_atom_site_fract_y
_atom_site_fract_z
O1 O 0.9621(5) 0.3737(3) 0.3338(5)
O2 O 0.8912(6) 0.2525(3) 0.4078(5)
O3 O 1.1185(6) 0.3355(3) 0.6964(5)
O4 O 0.9604(5) 0.4232(3) 0.5152(5)
C1 C 0.9041(7) 0.3712(3) 0.4267(7)
H1 H 0.8079 0.3783 0.3862
C2 C 0.9318(8) 0.3050(3) 0.4999(7)
H2 H 0.8808 0.3028 0.5596
C3 C 1.0775(7) 0.2992(4) 0.5782(7)
H3 H 1.1194 0.2547 0.5782
C4 C 1.1603(7) 0.3584(4) 0.5941(7)
H4 H 1.2537 0.3510 0.6038
C5 C 1.0952(7) 0.4209(4) 0.5248(7)
H5 H 1.1438 0.4626 0.5636
C6 C 1.0824(8) 0.4120(4) 0.3862(8)
H6 H 1.0755 0.4558 0.3421
H7 H 1.1574 0.3869 0.3783
C7 C 0.8565(9) 0.1938(4) 0.4606(7)
H8 H 0.7830 0.2037 0.4908
H9 H 0.9314 0.1785 0.5357
C8 C 0.8178(8) 0.1399(3) 0.3604(8)
C9 C 0.6852(8) 0.1259(4) 0.2975(9)
H10 H 0.6205 0.1500 0.3191
C10 C 0.6497(9) 0.0765(5) 0.2035(9)
H11 H 0.5601 0.0667 0.1597
C11 C 0.7426(10) 0.0419(4) 0.1738(9)
H12 H 0.7171 0.0078 0.1098
C12 C 0.8736(9) 0.0554(4) 0.2351(9)
H13 H 0.9372 0.0310 0.2127
C13 C 0.9118(8) 0.1046(4) 0.3289(8)
H14 H 1.0018 0.1140 0.3714
O5 O 0.8171(5) 0.2587(3) 0.9595(6)
O6 O 0.9358(6) 0.3826(3) 0.9403(5)
O7 O 1.1901(6) 0.2746(3) 1.1493(6)
O8 O 1.0026(6) 0.2034(3) 0.9642(5)
C14 C 0.9255(7) 0.2607(4) 0.9138(8)
H15 H 0.8935 0.2598 0.8172
C15 C 1.0107(7) 0.3228(3) 0.9641(7)
H16 H 1.0779 0.3258 0.9216
C16 C 1.0769(8) 0.3177(4) 1.1065(7)
H17 H 1.0817 0.3599 1.1570
C17 C 1.0723(8) 0.2556(4) 1.1725(7)
H18 H 1.0731 0.2587 1.2632
C18 C 0.9943(8) 0.1991(4) 1.0895(8)
H19 H 1.0228 0.1542 1.1298
C19 C 0.8500(8) 0.2116(4) 1.0641(9)
H20 H 0.7985 0.1698 1.0388
H21 H 0.8359 0.2310 1.1409
C20 C 0.9038(8) 0.4060(3) 0.8138(8)
H22 H 0.8482 0.3727 0.7528
H23 H 0.9843 0.4123 0.7930
C21 C 0.8320(8) 0.4719(3) 0.7998(8)
C22 C 0.7732(8) 0.4985(4) 0.6784(8)
H24 H 0.7788 0.4756 0.6050
C23 C 0.7057(8) 0.5588(4) 0.6629(9)
H25 H 0.6640 0.5763 0.5785
C24 C 0.6986(8) 0.5930(4) 0.7661(9)
H26 H 0.6529 0.6344 0.7547
C25 C 0.7586(9) 0.5669(4) 0.8883(9)
H27 H 0.7538 0.5902 0.9617
C26 C 0.8255(8) 0.5069(4) 0.9039(8)
H28 H 0.8677 0.4897 0.9884
O9 O 0.4678(6) 0.3526(3) 0.8456(6)
O10 O 0.4317(6) 0.2384(3) 0.9746(6)
O11 O 0.6087(6) 0.3604(3) 1.2153(6)
O12 O 0.4505(5) 0.4204(2) 1.0000(6)
C27 C 0.4044(8) 0.3591(3) 0.9340(8)
H29 H 0.3078 0.3607 0.8890
C28 C 0.4414(8) 0.3024(3) 1.0314(8)
H30 H 0.3842 0.3040 1.0852
C29 C 0.5837(8) 0.3088(4) 1.1193(8)
H31 H 0.6342 0.2662 1.1455
C30 C 0.6573(8) 0.3686(4) 1.1117(8)
H32 H 0.7533 0.3637 1.1315
C31 C 0.5861(7) 0.4196(4) 1.0134(8)
H33 H 0.6267 0.4651 1.0337
C32 C 0.5789(8) 0.3961(4) 0.8840(8)
H34 H 0.5663 0.4342 0.8232
H35 H 0.6590 0.3716 0.8883
C33 C 0.3005(8) 0.2173(4) 0.9163(8)
H36 H 0.2501 0.2519 0.8548
H37 H 0.2601 0.2109 0.9832
C34 C 0.2987(8) 0.1522(4) 0.8460(8)
C35 C 0.1761(9) 0.1274(4) 0.7690(8)
H38 H 0.0994 0.1510 0.7653
C36 C 0.1659(10) 0.0696(4) 0.6992(9)
H39 H 0.0827 0.0530 0.6477
C37 C 0.2798(11) 0.0350(4) 0.7042(10)
H40 H 0.2736 -0.0043 0.6538
C38 C 0.4015(10) 0.0583(4) 0.7828(10)
H41 H 0.4781 0.0339 0.7892
C39 C 0.4102(8) 0.1172(4) 0.8517(8)
H42 H 0.4934 0.1338 0.9034
O13 O 0.3160(5) 0.2507(3) 0.4734(5)
O14 O 0.4054(5) 0.3719(2) 0.4237(6)
O15 O 0.6943(5) 0.2778(3) 0.6368(6)
O16 O 0.5007(6) 0.1989(3) 0.4728(5)
C40 C 0.4181(7) 0.2540(3) 0.4212(7)
H43 H 0.3805 0.2498 0.3251
C41 C 0.4969(7) 0.3186(4) 0.4571(7)
H44 H 0.5562 0.3223 0.4058
C42 C 0.5770(8) 0.3181(4) 0.5999(7)
H45 H 0.5823 0.3613 0.6473
C43 C 0.5861(7) 0.2576(4) 0.6737(7)
H46 H 0.5962 0.2631 0.7667
C44 C 0.5047(7) 0.1987(3) 0.6027(7)
H47 H 0.5375 0.1551 0.6467
C45 C 0.3637(8) 0.2109(4) 0.5876(8)
H48 H 0.3151 0.1681 0.5772
H49 H 0.3566 0.2353 0.6631
C46 C 0.4619(8) 0.4345(4) 0.4146(9)
H50 H 0.5282 0.4290 0.3729
H51 H 0.5048 0.4537 0.5018
C47 C 0.3535(8) 0.4804(3) 0.3345(8)
C48 C 0.3178(9) 0.5365(4) 0.3861(10)
H52 H 0.3608 0.5470 0.4747
C49 C 0.2188(10) 0.5784(4) 0.3095(11)
H53 H 0.1973 0.6182 0.3449
C50 C 0.1528(10) 0.5618(4) 0.1833(10)
H54 H 0.0834 0.5892 0.1314
C51 C 0.1879(9) 0.5046(5) 0.1318(10)
H55 H 0.1422 0.4929 0.0443
C52 C 0.2891(8) 0.4644(4) 0.2071(8)
H56 H 0.3139 0.4259 0.1706
loop_
_geom_bond_atom_site_label_1
_geom_bond_atom_site_label_2
_geom_bond_site_symmetry_1
_geom_bond_site_symmetry_2
O1 C1 1_555 1_555
O2 C2 1_555 1_555
O3 C3 1_555 1_555
O4 C1 1_555 1_555
C1 H1 1_555 1_555
C2 C1 1_555 1_555
H2 C2 1_555 1_555
C3 C2 1_555 1_555
H3 C3 1_555 1_555
C4 O3 1_555 1_555
H4 C4 1_555 1_555
C5 O4 1_555 1_555
H5 C5 1_555 1_555
C6 O1 1_555 1_555
H6 C6 1_555 1_555
H7 C6 1_555 1_555
C7 O2 1_555 1_555
H8 C7 1_555 1_555
H9 C7 1_555 1_555
C8 C7 1_555 1_555
C9 C8 1_555 1_555
H10 C9 1_555 1_555
C10 C9 1_555 1_555
H11 C10 1_555 1_555
C11 C10 1_555 1_555
H12 C11 1_555 1_555
C12 C11 1_555 1_555
H13 C12 1_555 1_555
C13 C8 1_555 1_555
H14 C13 1_555 1_555
O5 C14 1_555 1_555
O6 C15 1_555 1_555
O7 C16 1_555 1_555
O8 C14 1_555 1_555
C14 H15 1_555 1_555
C15 C14 1_555 1_555
H16 C15 1_555 1_555
C16 C15 1_555 1_555
H17 C16 1_555 1_555
C17 O7 1_555 1_555
H18 C17 1_555 1_555
C18 O8 1_555 1_555
H19 C18 1_555 1_555
C19 O5 1_555 1_555
H20 C19 1_555 1_555
H21 C19 1_555 1_555
C20 O6 1_555 1_555
H22 C20 1_555 1_555
H23 C20 1_555 1_555
C21 C20 1_555 1_555
C22 C21 1_555 1_555
H24 C22 1_555 1_555
C23 C22 1_555 1_555
H25 C23 1_555 1_555
C24 C23 1_555 1_555
H26 C24 1_555 1_555
C25 C24 1_555 1_555
H27 C25 1_555 1_555
C26 C21 1_555 1_555
H28 C26 1_555 1_555
O9 C27 1_555 1_555
O10 C28 1_555 1_555
O11 C29 1_555 1_555
O12 C27 1_555 1_555
C27 H29 1_555 1_555
C28 C27 1_555 1_555
H30 C28 1_555 1_555
C29 C28 1_555 1_555
H31 C29 1_555 1_555
C30 O11 1_555 1_555
H32 C30 1_555 1_555
C31 O12 1_555 1_555
H33 C31 1_555 1_555
C32 O9 1_555 1_555
H34 C32 1_555 1_555
H35 C32 1_555 1_555
C33 O10 1_555 1_555
H36 C33 1_555 1_555
H37 C33 1_555 1_555
C34 C33 1_555 1_555
C35 C34 1_555 1_555
H38 C35 1_555 1_555
C36 C35 1_555 1_555
H39 C36 1_555 1_555
C37 C36 1_555 1_555
H40 C37 1_555 1_555
C38 C37 1_555 1_555
H41 C38 1_555 1_555
C39 C34 1_555 1_555
H42 C39 1_555 1_555
O13 C40 1_555 1_555
O14 C41 1_555 1_555
O15 C42 1_555 1_555
O16 C40 1_555 1_555
C40 H43 1_555 1_555
C41 C40 1_555 1_555
H44 C41 1_555 1_555
C42 C41 1_555 1_555
H45 C42 1_555 1_555
C43 O15 1_555 1_555
H46 C43 1_555 1_555
C44 O16 1_555 1_555
H47 C44 1_555 1_555
C45 O13 1_555 1_555
H48 C45 1_555 1_555
H49 C45 1_555 1_555
C46 O14 1_555 1_555
H50 C46 1_555 1_555
H51 C46 1_555 1_555
C47 C46 1_555 1_555
C48 C47 1_555 1_555
H52 C48 1_555 1_555
C49 C48 1_555 1_555
H53 C49 1_555 1_555
C50 C49 1_555 1_555
H54 C50 1_555 1_555
C51 C50 1_555 1_555
H55 C51 1_555 1_555
C52 C47 1_555 1_555
H56 C52 1_555 1_555
C3 C4 1_555 1_555
C4 C5 1_555 1_555
C5 C6 1_555 1_555
C12 C13 1_555 1_555
C16 C17 1_555 1_555
C17 C18 1_555 1_555
C18 C19 1_555 1_555
C25 C26 1_555 1_555
C29 C30 1_555 1_555
C30 C31 1_555 1_555
C31 C32 1_555 1_555
C38 C39 1_555 1_555
C42 C43 1_555 1_555
C43 C44 1_555 1_555
C44 C45 1_555 1_555
C51 C52 1_555 1_555

#END
