
#######################################################################
#
#                 Cambridge Crystallographic Data Centre
#                                CCDC 
#
#######################################################################
#
# If this CIF has been generated from an entry in the Cambridge 
# Structural Database, then it will include bibliographic, chemical, 
# crystal, experimental, refinement or atomic coordinate data resulting 
# from the CCDC's data processing and validation procedures.
#
#######################################################################

data_AJAPUY
_chemical_formula_moiety         'C23 H16 N2 O2'
_chemical_name_systematic        11-benzyl-5-nitro-11H-benzo[a]carbazole
_symmetry_cell_setting           monoclinic
_symmetry_space_group_name_H-M   'P 21'
_symmetry_Int_Tables_number      4
_space_group_name_Hall           'P 2yb'
loop_
_symmetry_equiv_pos_site_id
_symmetry_equiv_pos_as_xyz
1 x,y,z
2 -x,1/2+y,-z
_cell_length_a                   5.7929(3)
_cell_length_b                   14.5941(5)
_cell_length_c                   10.6740(5)
_cell_angle_alpha                90
_cell_angle_beta                 105.323(5)
_cell_angle_gamma                90
_cell_volume                     870.324
_exptl_crystal_colour            yellow
_exptl_crystal_description       block
_cell_formula_units_Z            2
loop_
_atom_site_label
_atom_site_type_symbol
_atom_site_fract_x
_atom_site_fract_y
_atom_site_fract_z
O1 O 1.0128(15) 0.4339(8) 1.4438(6)
O2 O 0.6402(16) 0.4067(6) 1.4281(7)
N1 N 0.6863(11) 0.4055(4) 0.8446(6)
N2 N 0.8121(17) 0.4099(7) 1.3814(8)
C1 C 0.8802(13) 0.4635(5) 0.8393(7)
C2 C 0.9435(15) 0.4970(5) 0.7325(8)
H1 H 0.8582 0.4818 0.6484
C3 C 1.1414(16) 0.5547(6) 0.7568(9)
H2 H 1.1877 0.5793 0.6868
C4 C 1.2706(17) 0.5767(6) 0.8803(10)
H3 H 1.4014 0.6157 0.8917
C5 C 1.2100(14) 0.5416(5) 0.9904(8)
H4 H 1.2996 0.5553 1.0743
C6 C 1.0086(13) 0.4851(5) 0.9672(7)
C7 C 0.8862(13) 0.4387(5) 1.0512(7)
C8 C 0.9287(15) 0.4415(6) 1.1868(8)
H5 H 1.0602 0.4724 1.2383
C9 C 0.7698(16) 0.3971(6) 1.2412(7)
C10 C 0.5747(16) 0.3427(6) 1.1680(8)
C11 C 0.4190(18) 0.2906(7) 1.2239(10)
H6 H 0.4377 0.2927 1.3131
C12 C 0.2411(17) 0.2372(6) 1.1471(10)
H7 H 0.1376 0.2056 1.1852
C13 C 0.2127(16) 0.2293(6) 1.0160(10)
H8 H 0.0955 0.1908 0.9667
C14 C 0.3575(14) 0.2782(6) 0.9579(9)
H9 H 0.3362 0.2728 0.8688
C15 C 0.5368(13) 0.3362(5) 1.0294(8)
C16 C 0.6901(12) 0.3907(5) 0.9728(7)
C17 C 0.5052(14) 0.3786(6) 0.7265(8)
H10 H 0.5030 0.4238 0.6595
H11 H 0.3494 0.3797 0.7442
C18 C 0.5432(15) 0.2858(6) 0.6754(7)
C19 C 0.7655(16) 0.2451(6) 0.7011(9)
H12 H 0.8986 0.2747 0.7533
C20 C 0.790(2) 0.1583(8) 0.6480(13)
H13 H 0.9404 0.1308 0.6672
C21 C 0.601(2) 0.1143(8) 0.5697(11)
H14 H 0.6193 0.0571 0.5350
C22 C 0.377(2) 0.1567(9) 0.5424(11)
H15 H 0.2450 0.1276 0.4886
C23 C 0.3497(18) 0.2412(8) 0.5941(10)
H16 H 0.1994 0.2685 0.5743
loop_
_geom_bond_atom_site_label_1
_geom_bond_atom_site_label_2
_geom_bond_site_symmetry_1
_geom_bond_site_symmetry_2
O1 N2 1_555 1_555
O2 N2 1_555 1_555
N1 C1 1_555 1_555
N2 C9 1_555 1_555
C1 C2 1_555 1_555
C2 H1 1_555 1_555
C3 C2 1_555 1_555
H2 C3 1_555 1_555
C4 C3 1_555 1_555
H3 C4 1_555 1_555
C5 C4 1_555 1_555
H4 C5 1_555 1_555
C6 C1 1_555 1_555
C7 C6 1_555 1_555
C8 C7 1_555 1_555
H5 C8 1_555 1_555
C9 C8 1_555 1_555
C10 C9 1_555 1_555
C11 C10 1_555 1_555
H6 C11 1_555 1_555
C12 C11 1_555 1_555
H7 C12 1_555 1_555
C13 C12 1_555 1_555
H8 C13 1_555 1_555
C14 C13 1_555 1_555
H9 C14 1_555 1_555
C15 C10 1_555 1_555
C16 N1 1_555 1_555
C17 N1 1_555 1_555
H10 C17 1_555 1_555
H11 C17 1_555 1_555
C18 C17 1_555 1_555
C19 C18 1_555 1_555
H12 C19 1_555 1_555
C20 C19 1_555 1_555
H13 C20 1_555 1_555
C21 C20 1_555 1_555
H14 C21 1_555 1_555
C22 C21 1_555 1_555
H15 C22 1_555 1_555
C23 C18 1_555 1_555
H16 C23 1_555 1_555
C5 C6 1_555 1_555
C7 C16 1_555 1_555
C14 C15 1_555 1_555
C15 C16 1_555 1_555
C22 C23 1_555 1_555

#END
