
#######################################################################
#
#                 Cambridge Crystallographic Data Centre
#                                CCDC 
#
#######################################################################
#
# If this CIF has been generated from an entry in the Cambridge 
# Structural Database, then it will include bibliographic, chemical, 
# crystal, experimental, refinement or atomic coordinate data resulting 
# from the CCDC's data processing and validation procedures.
#
#######################################################################

data_AJAWAL
_chemical_formula_moiety         'C39 H26 O10'
_chemical_name_systematic        
'(5aS,10bS)-5a-acetyl-8-methoxy-6-oxo-5a,10b-dihydro-6H-indeno[2,1-b]benzofuran-1,3,9-triyl tribenzoate'
_symmetry_cell_setting           triclinic
_symmetry_space_group_name_H-M   'P -1'
_symmetry_Int_Tables_number      2
_space_group_name_Hall           '-P 1'
loop_
_symmetry_equiv_pos_site_id
_symmetry_equiv_pos_as_xyz
1 x,y,z
2 -x,-y,-z
_cell_length_a                   10.586(2)
_cell_length_b                   11.768(2)
_cell_length_c                   14.233(3)
_cell_angle_alpha                88.51(3)
_cell_angle_beta                 71.65(3)
_cell_angle_gamma                65.53(3)
_cell_volume                     1520.54
_exptl_crystal_colour            colorless
_chemical_melting_point          '338 K'
_cell_formula_units_Z            2
loop_
_atom_site_label
_atom_site_type_symbol
_atom_site_fract_x
_atom_site_fract_y
_atom_site_fract_z
O1 O 0.57602(14) 1.08389(12) 0.20016(9)
O2 O 0.78652(14) 1.01821(11) 0.06745(9)
O3 O 0.68734(14) 1.05509(11) -0.08704(9)
O4 O 0.60184(15) 0.63108(12) -0.11177(9)
O5 O 0.93318(15) 0.41786(13) -0.08386(10)
O6 O 0.56649(13) 0.53365(11) 0.08496(8)
O7 O 0.25017(14) 0.66952(11) 0.42709(9)
O8 O 0.33897(15) 0.46828(13) 0.46176(10)
O9 O 0.69803(13) 0.72583(11) 0.29964(8)
O10 O 0.51307(14) 0.91742(12) 0.37225(9)
C1 C 0.6897(2) 1.09098(16) 0.15688(13)
C2 C 0.7445(2) 1.17438(16) 0.18931(13)
C3 C 0.6497(2) 1.26397(16) 0.27231(13)
H1 H 0.5550 1.2677 0.3069
C4 C 0.6937(2) 1.34702(17) 0.30392(14)
H2 H 0.6297 1.4075 0.3606
C5 C 0.8314(2) 1.34207(18) 0.25286(14)
H3 H 0.8608 1.4003 0.2740
C6 C 0.9265(2) 1.25261(18) 0.17108(15)
H4 H 1.0207 1.2497 0.1363
C7 C 0.8839(2) 1.16740(18) 0.14010(14)
H5 H 0.9499 1.1045 0.0854
C8 C 0.75066(19) 0.92712(16) 0.03612(13)
C9 C 0.77345(19) 0.82025(16) 0.08211(13)
H6 H 0.8129 0.8079 0.1349
C10 C 0.73804(19) 0.73037(16) 0.05045(12)
C11 C 0.74513(19) 0.60946(16) 0.09396(12)
H7 H 0.8457 0.5535 0.0955
C12 C 0.62614(18) 0.62949(16) 0.19326(12)
C13 C 0.59764(19) 0.68359(16) 0.28748(13)
C14 C 0.4762(2) 0.69084(16) 0.36704(13)
H8 H 0.4582 0.7257 0.4320
C15 C 0.3828(2) 0.64648(16) 0.34975(13)
C16 C 0.40619(19) 0.59068(16) 0.25678(13)
H9 H 0.3417 0.5593 0.2462
C17 C 0.52948(19) 0.58428(16) 0.18127(12)
C18 C 0.69605(19) 0.54825(16) 0.02460(13)
C19 C 0.65194(19) 0.64542(17) -0.04950(13)
C20 C 0.68348(18) 0.75019(16) -0.02827(12)
C21 C 0.66366(19) 0.85741(16) -0.07767(13)
H10 H 0.6272 0.8683 -0.1319
C22 C 0.69859(19) 0.94728(16) -0.04553(13)
C23 C 0.6524(2) 1.06715(18) -0.17734(14)
H11 H 0.7272 0.9963 -0.2275
H12 H 0.6504 1.1461 -0.2022
H13 H 0.5557 1.0673 -0.1641
C24 C 0.8121(2) 0.42365(16) -0.03643(13)
C25 C 0.7676(2) 0.32141(17) -0.04390(15)
H14 H 0.6967 0.3466 -0.0798
H15 H 0.7219 0.3049 0.0232
H16 H 0.8545 0.2450 -0.0800
C26 C 0.2369(2) 0.57010(18) 0.47483(13)
C27 C 0.0836(2) 0.60679(17) 0.54226(12)
C28 C 0.0527(2) 0.51790(19) 0.59960(13)
H17 H 0.1283 0.4360 0.5944
C29 C -0.0888(2) 0.5495(2) 0.66422(14)
H18 H -0.1096 0.4894 0.7042
C30 C -0.2003(2) 0.6679(2) 0.67109(14)
H19 H -0.2970 0.6886 0.7157
C31 C -0.1716(2) 0.75648(19) 0.61317(14)
H20 H -0.2484 0.8372 0.6169
C32 C -0.0289(2) 0.72602(18) 0.54936(13)
H21 H -0.0080 0.7869 0.5104
C33 C 0.6423(2) 0.84833(17) 0.34358(12)
C34 C 0.7617(2) 0.88068(17) 0.34867(12)
C35 C 0.7195(2) 0.99444(18) 0.40415(13)
H22 H 0.6182 1.0464 0.4380
C36 C 0.8257(2) 1.03142(19) 0.40980(14)
H23 H 0.7971 1.1080 0.4485
C37 C 0.9728(2) 0.95740(19) 0.35945(14)
H24 H 1.0450 0.9837 0.3630
C38 C 1.0158(2) 0.84440(19) 0.30342(14)
H25 H 1.1172 0.7940 0.2685
C39 C 0.9110(2) 0.80516(17) 0.29841(13)
H26 H 0.9405 0.7274 0.2610
loop_
_geom_bond_atom_site_label_1
_geom_bond_atom_site_label_2
_geom_bond_site_symmetry_1
_geom_bond_site_symmetry_2
O1 C1 1_555 1_555
O2 C1 1_555 1_555
O3 C22 1_555 1_555
O4 C19 1_555 1_555
O5 C24 1_555 1_555
O6 C17 1_555 1_555
O7 C15 1_555 1_555
O8 C26 1_555 1_555
O9 C13 1_555 1_555
O10 C33 1_555 1_555
C1 C2 1_555 1_555
C2 C3 1_555 1_555
C3 H1 1_555 1_555
C4 C3 1_555 1_555
H2 C4 1_555 1_555
C5 C4 1_555 1_555
H3 C5 1_555 1_555
C6 C5 1_555 1_555
H4 C6 1_555 1_555
C7 C2 1_555 1_555
H5 C7 1_555 1_555
C8 O2 1_555 1_555
C9 C8 1_555 1_555
H6 C9 1_555 1_555
C10 C9 1_555 1_555
C11 C10 1_555 1_555
H7 C11 1_555 1_555
C12 C11 1_555 1_555
C13 C12 1_555 1_555
C14 C13 1_555 1_555
H8 C14 1_555 1_555
C15 C14 1_555 1_555
C16 C15 1_555 1_555
H9 C16 1_555 1_555
C17 C12 1_555 1_555
C18 O6 1_555 1_555
C19 C18 1_555 1_555
C20 C10 1_555 1_555
C21 C20 1_555 1_555
H10 C21 1_555 1_555
C22 C8 1_555 1_555
C23 O3 1_555 1_555
H11 C23 1_555 1_555
H12 C23 1_555 1_555
H13 C23 1_555 1_555
C24 C18 1_555 1_555
C25 C24 1_555 1_555
H14 C25 1_555 1_555
H15 C25 1_555 1_555
H16 C25 1_555 1_555
C26 O7 1_555 1_555
C27 C26 1_555 1_555
C28 C27 1_555 1_555
H17 C28 1_555 1_555
C29 C28 1_555 1_555
H18 C29 1_555 1_555
C30 C29 1_555 1_555
H19 C30 1_555 1_555
C31 C30 1_555 1_555
H20 C31 1_555 1_555
C32 C27 1_555 1_555
H21 C32 1_555 1_555
C33 O9 1_555 1_555
C34 C33 1_555 1_555
C35 C34 1_555 1_555
H22 C35 1_555 1_555
C36 C35 1_555 1_555
H23 C36 1_555 1_555
C37 C36 1_555 1_555
H24 C37 1_555 1_555
C38 C37 1_555 1_555
H25 C38 1_555 1_555
C39 C34 1_555 1_555
H26 C39 1_555 1_555
C6 C7 1_555 1_555
C11 C18 1_555 1_555
C16 C17 1_555 1_555
C19 C20 1_555 1_555
C21 C22 1_555 1_555
C31 C32 1_555 1_555
C38 C39 1_555 1_555

#END
