
#######################################################################
#
#                 Cambridge Crystallographic Data Centre
#                                CCDC 
#
#######################################################################
#
# If this CIF has been generated from an entry in the Cambridge 
# Structural Database, then it will include bibliographic, chemical, 
# crystal, experimental, refinement or atomic coordinate data resulting 
# from the CCDC's data processing and validation procedures.
#
#######################################################################

data_AJERUD
_chemical_formula_moiety         'C14 H11 N1 O2,0.33(H2 O1)'
_chemical_name_systematic        '3-Hydroxy-3-phenylisoindolin-1-one hydrate'
_symmetry_cell_setting           triclinic
_symmetry_space_group_name_H-M   'P -1'
_symmetry_Int_Tables_number      2
_space_group_name_Hall           '-P 1'
loop_
_symmetry_equiv_pos_site_id
_symmetry_equiv_pos_as_xyz
1 x,y,z
2 -x,-y,-z
_cell_length_a                   11.709(2)
_cell_length_b                   12.621(3)
_cell_length_c                   14.572(3)
_cell_angle_alpha                67.84(3)
_cell_angle_beta                 74.65(3)
_cell_angle_gamma                64.54(3)
_cell_volume                     1787.09
_exptl_crystal_colour            colorless
_exptl_crystal_description       block
_cell_formula_units_Z            6
_exptl_crystal_recrystallization_method methanol
loop_
_atom_site_label
_atom_site_type_symbol
_atom_site_fract_x
_atom_site_fract_y
_atom_site_fract_z
O1 O 0.1027(2) 0.2239(2) 0.95488(15)
H1 H 0.0724 0.2167 0.9139
O2 O 0.0699(2) 0.61190(19) 0.79620(16)
N1 N 0.1280(2) 0.4033(2) 0.83025(17)
H2 H 0.1048 0.4063 0.7778
C1 C 0.5483(4) 0.0646(4) 0.7840(4)
H3 H 0.6273 0.0152 0.7599
C2 C 0.5120(4) 0.1896(4) 0.7529(3)
H4 H 0.5661 0.2266 0.7065
C3 C 0.3948(3) 0.2610(3) 0.7906(3)
H5 H 0.3708 0.3462 0.7689
C4 C 0.3124(3) 0.2090(3) 0.8598(2)
C5 C 0.3507(4) 0.0836(3) 0.8886(4)
H6 H 0.2975 0.0453 0.9346
C6 C 0.4669(5) 0.0142(4) 0.8503(5)
H7 H 0.4907 -0.0708 0.8709
C7 C 0.1856(3) 0.2888(2) 0.9045(2)
C8 C 0.1136(2) 0.5052(3) 0.8493(2)
C9 C 0.1633(3) 0.4612(3) 0.9459(2)
C10 C 0.1674(3) 0.5279(3) 1.0002(2)
H8 H 0.1393 0.6134 0.9766
C11 C 0.2148(3) 0.4633(4) 1.0911(2)
H9 H 0.2205 0.5053 1.1291
C12 C 0.2535(3) 0.3369(4) 1.1254(2)
H10 H 0.2828 0.2952 1.1876
C13 C 0.2502(3) 0.2704(3) 1.0709(2)
H11 H 0.2779 0.1849 1.0945
C14 C 0.2041(3) 0.3352(3) 0.9794(2)
O3 O 0.0019(2) 0.8023(2) 0.18177(15)
H12 H -0.0407 0.7752 0.2325
O4 O 0.1616(2) 0.64274(19) 0.46174(15)
N2 N 0.1539(2) 0.6800(2) 0.29605(17)
H13 H 0.1755 0.6050 0.2980
C15 C 0.2730(5) 0.8050(4) -0.0626(3)
H14 H 0.2486 0.8449 -0.1265
C16 C 0.1838(3) 0.8231(3) 0.0205(2)
H15 H 0.0996 0.8748 0.0119
C17 C 0.2194(3) 0.7649(3) 0.1155(2)
C18 C 0.3464(3) 0.6891(4) 0.1264(3)
H16 H 0.3721 0.6499 0.1898
C19 C 0.4351(4) 0.6715(4) 0.0433(4)
H17 H 0.5199 0.6215 0.0515
C20 C 0.3984(5) 0.7271(5) -0.0495(3)
H18 H 0.4576 0.7130 -0.1046
C21 C 0.1212(3) 0.7829(3) 0.2061(2)
C22 C 0.1074(3) 0.8883(3) 0.2399(2)
C23 C 0.0788(3) 1.0112(3) 0.1874(3)
H19 H 0.0696 1.0406 0.1198
C24 C 0.0643(3) 1.0898(3) 0.2394(3)
H20 H 0.0430 1.1736 0.2062
C25 C 0.0807(4) 1.0460(3) 0.3391(3)
H21 H 0.0724 1.1003 0.3715
C26 C 0.1091(3) 0.9229(3) 0.3913(2)
H22 H 0.1199 0.8929 0.4586
C27 C 0.1211(3) 0.8455(2) 0.3396(2)
C28 C 0.1476(3) 0.7119(3) 0.3762(2)
O5 O 0.2249(2) 0.40894(18) 0.33786(14)
H23 H 0.1674 0.3854 0.3436
O6 O 0.1264(2) 0.3143(2) 0.66810(15)
N3 N 0.2147(2) 0.3849(2) 0.50830(16)
H24 H 0.1908 0.4597 0.5079
C29 C 0.5960(3) 0.3590(4) 0.4472(3)
H25 H 0.6342 0.3553 0.4973
C30 C 0.4778(3) 0.3506(3) 0.4691(3)
H26 H 0.4373 0.3408 0.5342
C31 C 0.4188(3) 0.3566(3) 0.3968(2)
C32 C 0.4800(3) 0.3715(3) 0.3006(2)
H27 H 0.4411 0.3771 0.2501
C33 C 0.6010(4) 0.3783(4) 0.2792(3)
H28 H 0.6431 0.3867 0.2145
C34 C 0.6572(4) 0.3728(4) 0.3520(3)
H29 H 0.7371 0.3784 0.3372
C35 C 0.2898(3) 0.3428(2) 0.42214(19)
C36 C 0.1860(3) 0.2991(3) 0.5875(2)
C37 C 0.2412(3) 0.1844(3) 0.5597(2)
C38 C 0.2368(3) 0.0686(3) 0.6142(3)
H30 H 0.1958 0.0532 0.6791
C39 C 0.2958(4) -0.0228(3) 0.5678(3)
H31 H 0.2949 -0.1014 0.6020
C40 C 0.3562(4) 0.0020(3) 0.4710(3)
H32 H 0.3943 -0.0606 0.4411
C41 C 0.3615(3) 0.1166(3) 0.4173(3)
H33 H 0.4035 0.1316 0.3527
C42 C 0.3023(3) 0.2079(2) 0.4630(2)
O7 O 0.0303(3) 0.3376(3) 0.3690(2)
H34 H -0.008(5) 0.354(4) 0.315(4)
H35 H -0.026(5) 0.345(4) 0.420(4)
loop_
_geom_bond_atom_site_label_1
_geom_bond_atom_site_label_2
_geom_bond_site_symmetry_1
_geom_bond_site_symmetry_2
O1 H1 1_555 1_555
O2 C8 1_555 1_555
N1 H2 1_555 1_555
C1 H3 1_555 1_555
C2 C1 1_555 1_555
H4 C2 1_555 1_555
C3 C2 1_555 1_555
H5 C3 1_555 1_555
C4 C3 1_555 1_555
C5 C4 1_555 1_555
H6 C5 1_555 1_555
C6 C1 1_555 1_555
H7 C6 1_555 1_555
C7 O1 1_555 1_555
C8 N1 1_555 1_555
C9 C8 1_555 1_555
C10 C9 1_555 1_555
H8 C10 1_555 1_555
C11 C10 1_555 1_555
H9 C11 1_555 1_555
C12 C11 1_555 1_555
H10 C12 1_555 1_555
C13 C12 1_555 1_555
H11 C13 1_555 1_555
C14 C7 1_555 1_555
O3 H12 1_555 1_555
O4 C28 1_555 1_555
N2 H13 1_555 1_555
C15 H14 1_555 1_555
C16 C15 1_555 1_555
H15 C16 1_555 1_555
C17 C16 1_555 1_555
C18 C17 1_555 1_555
H16 C18 1_555 1_555
C19 C18 1_555 1_555
H17 C19 1_555 1_555
C20 C15 1_555 1_555
H18 C20 1_555 1_555
C21 O3 1_555 1_555
C22 C21 1_555 1_555
C23 C22 1_555 1_555
H19 C23 1_555 1_555
C24 C23 1_555 1_555
H20 C24 1_555 1_555
C25 C24 1_555 1_555
H21 C25 1_555 1_555
C26 C25 1_555 1_555
H22 C26 1_555 1_555
C27 C22 1_555 1_555
C28 N2 1_555 1_555
O5 H23 1_555 1_555
O6 C36 1_555 1_555
N3 H24 1_555 1_555
C29 H25 1_555 1_555
C30 C29 1_555 1_555
H26 C30 1_555 1_555
C31 C30 1_555 1_555
C32 C31 1_555 1_555
H27 C32 1_555 1_555
C33 C32 1_555 1_555
H28 C33 1_555 1_555
C34 C29 1_555 1_555
H29 C34 1_555 1_555
C35 O5 1_555 1_555
C36 N3 1_555 1_555
C37 C36 1_555 1_555
C38 C37 1_555 1_555
H30 C38 1_555 1_555
C39 C38 1_555 1_555
H31 C39 1_555 1_555
C40 C39 1_555 1_555
H32 C40 1_555 1_555
C41 C40 1_555 1_555
H33 C41 1_555 1_555
C42 C35 1_555 1_555
O7 H34 1_555 1_555
H35 O7 1_555 1_555
N1 C7 1_555 1_555
C4 C7 1_555 1_555
C5 C6 1_555 1_555
C9 C14 1_555 1_555
C13 C14 1_555 1_555
N2 C21 1_555 1_555
C17 C21 1_555 1_555
C19 C20 1_555 1_555
C26 C27 1_555 1_555
C27 C28 1_555 1_555
N3 C35 1_555 1_555
C31 C35 1_555 1_555
C33 C34 1_555 1_555
C37 C42 1_555 1_555
C41 C42 1_555 1_555

#END
