
#######################################################################
#
#                 Cambridge Crystallographic Data Centre
#                                CCDC 
#
#######################################################################
#
# If this CIF has been generated from an entry in the Cambridge 
# Structural Database, then it will include bibliographic, chemical, 
# crystal, experimental, refinement or atomic coordinate data resulting 
# from the CCDC's data processing and validation procedures.
#
#######################################################################

data_AJESAK
_chemical_formula_moiety         'C11 H9 N1 O3'
_chemical_name_systematic        
4-(2-Hydroxybenzylidene)-3-methylisoxazol-5(4H)-one
_symmetry_cell_setting           monoclinic
_symmetry_space_group_name_H-M   'P 21/c'
_symmetry_Int_Tables_number      14
_space_group_name_Hall           '-P 2ybc'
loop_
_symmetry_equiv_pos_site_id
_symmetry_equiv_pos_as_xyz
1 x,y,z
2 -x,1/2+y,1/2-z
3 -x,-y,-z
4 x,1/2-y,1/2+z
_cell_length_a                   8.0172(12)
_cell_length_b                   6.8620(9)
_cell_length_c                   17.535(2)
_cell_angle_alpha                90
_cell_angle_beta                 99.962(2)
_cell_angle_gamma                90
_cell_volume                     950.126
_exptl_crystal_colour            yellow
_exptl_crystal_description       prism
_cell_formula_units_Z            4
_exptl_crystal_recrystallization_method ethanol
loop_
_atom_site_label
_atom_site_type_symbol
_atom_site_fract_x
_atom_site_fract_y
_atom_site_fract_z
N1 N 0.1424(3) 0.7335(3) 0.29966(10)
O1 O 0.2203(2) 0.5472(2) 0.29343(8)
O2 O 0.3282(3) 0.3078(3) 0.37132(10)
O3 O 0.1516(2) 0.6467(2) 0.64469(8)
H1 H 0.1416 0.6505 0.6904
C1 C 0.2599(3) 0.4642(4) 0.36509(12)
C2 C 0.2013(3) 0.5995(3) 0.41967(12)
C3 C 0.1320(3) 0.7584(3) 0.37120(12)
C4 C 0.0543(3) 0.9391(3) 0.39499(13)
H2 H 0.0185 1.0195 0.3504
H3 H 0.1358 1.0085 0.4316
H4 H -0.0418 0.9065 0.4184
C5 C 0.2050(3) 0.5923(3) 0.49738(12)
H5 H 0.1541 0.6992 0.5165
C6 C 0.2713(3) 0.4536(3) 0.55603(11)
C7 C 0.2432(3) 0.4893(3) 0.63213(12)
C8 C 0.3061(3) 0.3630(4) 0.69154(13)
H6 H 0.2866 0.3871 0.7414
C9 C 0.3967(3) 0.2032(4) 0.67709(14)
H7 H 0.4394 0.1194 0.7175
C10 C 0.4262(3) 0.1639(4) 0.60287(15)
H8 H 0.4876 0.0543 0.5934
C11 C 0.3640(3) 0.2882(3) 0.54405(13)
H9 H 0.3841 0.2615 0.4944
loop_
_geom_bond_atom_site_label_1
_geom_bond_atom_site_label_2
_geom_bond_site_symmetry_1
_geom_bond_site_symmetry_2
N1 O1 1_555 1_555
O1 C1 1_555 1_555
O2 C1 1_555 1_555
O3 H1 1_555 1_555
C1 C2 1_555 1_555
C2 C3 1_555 1_555
C3 N1 1_555 1_555
C4 C3 1_555 1_555
H2 C4 1_555 1_555
H3 C4 1_555 1_555
H4 C4 1_555 1_555
C5 C2 1_555 1_555
H5 C5 1_555 1_555
C6 C5 1_555 1_555
C7 O3 1_555 1_555
C8 C7 1_555 1_555
H6 C8 1_555 1_555
C9 C8 1_555 1_555
H7 C9 1_555 1_555
C10 C9 1_555 1_555
H8 C10 1_555 1_555
C11 C6 1_555 1_555
H9 C11 1_555 1_555
C6 C7 1_555 1_555
C10 C11 1_555 1_555

#END
