
#######################################################################
#
#                 Cambridge Crystallographic Data Centre
#                                CCDC 
#
#######################################################################
#
# If this CIF has been generated from an entry in the Cambridge 
# Structural Database, then it will include bibliographic, chemical, 
# crystal, experimental, refinement or atomic coordinate data resulting 
# from the CCDC's data processing and validation procedures.
#
#######################################################################

data_AJEWOD
_chemical_formula_moiety         'C35 H38 Cl1 N3 O2,C3 H8 O1'
_chemical_name_systematic        
"17-(5-amino-4'-chloro-4,6-dicyanobiphenyl-3-yl)androst-5-en-3-yl acetate propan-2-ol solvate"
_symmetry_cell_setting           orthorhombic
_symmetry_space_group_name_H-M   'P 21 21 21'
_symmetry_Int_Tables_number      19
_space_group_name_Hall           'P 2ac 2ab'
loop_
_symmetry_equiv_pos_site_id
_symmetry_equiv_pos_as_xyz
1 x,y,z
2 1/2-x,-y,1/2+z
3 1/2+x,1/2-y,-z
4 -x,1/2+y,1/2-z
_cell_length_a                   11.0545(2)
_cell_length_b                   11.9034(2)
_cell_length_c                   27.2526(5)
_cell_angle_alpha                90
_cell_angle_beta                 90
_cell_angle_gamma                90
_cell_volume                     3586.06
_cell_formula_units_Z            4
loop_
_atom_site_label
_atom_site_type_symbol
_atom_site_fract_x
_atom_site_fract_y
_atom_site_fract_z
Cl1 Cl 0.06795(10) -0.02004(12) 0.08431(4)
O1 O 0.5369(2) 1.20514(18) 0.41141(8)
O2 O 0.5161(3) 1.2086(2) 0.49294(9)
N1 N 0.2526(3) 0.3532(3) 0.45841(10)
N2 N 0.0273(3) 0.1732(3) 0.41305(11)
H1 H -0.037(4) 0.130(4) 0.4133(15)
H2 H 0.037(4) 0.212(4) 0.4382(17)
N3 N -0.1012(3) -0.0010(3) 0.32614(12)
C1 C 0.3576(3) 0.9332(2) 0.41391(12)
H3 H 0.2722 0.9181 0.4188
H4 H 0.4016 0.8958 0.4400
C2 C 0.3790(3) 1.0605(3) 0.41811(14)
H5 H 0.3313 1.0998 0.3936
H6 H 0.3541 1.0867 0.4503
C3 C 0.5108(3) 1.0846(2) 0.41047(12)
H7 H 0.5582 1.0468 0.4360
C4 C 0.5521(3) 1.0446(3) 0.36061(12)
H8 H 0.6382 1.0580 0.3571
H9 H 0.5106 1.0870 0.3353
C5 C 0.5264(3) 0.9207(2) 0.35390(10)
C6 C 0.6143(3) 0.8517(3) 0.34086(11)
H10 H 0.6909 0.8821 0.3360
C7 C 0.5990(2) 0.7279(2) 0.33336(12)
H11 H 0.6340 0.6883 0.3610
H12 H 0.6427 0.7054 0.3041
C8 C 0.4667(2) 0.6940(2) 0.32810(10)
H13 H 0.4369 0.7175 0.2958
C9 C 0.3920(2) 0.7519(2) 0.36814(10)
H14 H 0.4307 0.7325 0.3994
C10 C 0.3968(2) 0.8826(2) 0.36445(10)
C11 C 0.2617(2) 0.7059(2) 0.37122(12)
H15 H 0.2224 0.7373 0.3999
H16 H 0.2169 0.7304 0.3425
C12 C 0.2567(3) 0.5773(2) 0.37421(11)
H17 H 0.2929 0.5526 0.4048
H18 H 0.1731 0.5528 0.3739
C13 C 0.3238(2) 0.5241(2) 0.33130(10)
C14 C 0.4550(2) 0.5676(2) 0.33277(10)
H19 H 0.4861 0.5486 0.3654
C15 C 0.5228(3) 0.4917(3) 0.29651(12)
H20 H 0.6076 0.4857 0.3053
H21 H 0.5167 0.5207 0.2633
C16 C 0.4591(3) 0.3767(3) 0.30092(12)
H22 H 0.5139 0.3207 0.3141
H23 H 0.4305 0.3515 0.2691
C17 C 0.3510(2) 0.3963(2) 0.33643(10)
H24 H 0.3830 0.3857 0.3696
C18 C 0.2597(3) 0.5479(3) 0.28260(12)
H25 H 0.1796 0.5168 0.2835
H26 H 0.3044 0.5142 0.2562
H27 H 0.2549 0.6275 0.2775
C19 C 0.3140(3) 0.9257(3) 0.32324(14)
H28 H 0.3291 0.8837 0.2938
H29 H 0.3301 1.0038 0.3174
H30 H 0.2310 0.9165 0.3328
C20 C 0.2450(2) 0.3163(2) 0.33156(10)
C21 C 0.1823(3) 0.2827(2) 0.37370(10)
C22 C 0.0865(3) 0.2035(2) 0.37207(10)
C23 C 0.0610(2) 0.1544(2) 0.32592(10)
C24 C 0.1217(2) 0.1875(2) 0.28336(10)
C25 C 0.2106(3) 0.2699(2) 0.28697(10)
H31 H 0.2482 0.2949 0.2585
C26 C 0.2202(3) 0.3225(2) 0.42099(11)
C27 C -0.0307(3) 0.0687(3) 0.32491(11)
C28 C 0.0990(2) 0.1351(2) 0.23495(10)
C29 C 0.1025(3) 0.0190(3) 0.22857(12)
H32 H 0.1113 -0.0271 0.2559
C30 C 0.0932(3) -0.0289(3) 0.18266(13)
H33 H 0.0966 -0.1065 0.1789
C31 C 0.0788(3) 0.0399(3) 0.14259(12)
C32 C 0.0726(3) 0.1535(4) 0.14757(12)
H34 H 0.0617 0.1987 0.1201
C33 C 0.0824(3) 0.2016(3) 0.19375(11)
H35 H 0.0778 0.2793 0.1971
C34 C 0.5440(3) 1.2537(3) 0.45532(14)
C35 C 0.5926(5) 1.3708(4) 0.45100(18)
H36 H 0.6791 1.3693 0.4543
H37 H 0.5585 1.4168 0.4764
H38 H 0.5714 1.4012 0.4195
C36 C 0.2407(7) 0.6480(6) 0.5229(3)
H39 H 0.2530 0.7277 0.5209
H40 H 0.2353 0.6172 0.4905
H41 H 0.1671 0.6328 0.5404
C37 C 0.4665(9) 0.6335(8) 0.5322(4)
H42 H 0.5260 0.5947 0.5515
H43 H 0.4778 0.6154 0.4982
H44 H 0.4754 0.7130 0.5368
O3 O 0.3206(8) 0.4751(10) 0.5512(3)
H45 H 0.3027 0.4510 0.5239
C38 C 0.3405(9) 0.5974(7) 0.5483(3)
H46 H 0.3332 0.6240 0.5822
H47? H 0.2494 0.7210 0.5085
H48? H 0.1780 0.6074 0.5063
H49? H 0.2200 0.6557 0.5570
H50? H 0.4685 0.7076 0.5184
H51? H 0.4684 0.6385 0.5674
H52? H 0.5355 0.5917 0.5210
O4? O 0.3620(13) 0.4777(16) 0.5373(5)
H53? H 0.4130 0.4384 0.5239
C39? C 0.3649(13) 0.5811(10) 0.5181(5)
H54? H 0.3752 0.5691 0.4828
loop_
_geom_bond_atom_site_label_1
_geom_bond_atom_site_label_2
_geom_bond_site_symmetry_1
_geom_bond_site_symmetry_2
Cl1 C31 1_555 1_555
O1 C3 1_555 1_555
O2 C34 1_555 1_555
N1 C26 1_555 1_555
N2 H1 1_555 1_555
H2 N2 1_555 1_555
N3 C27 1_555 1_555
C1 H3 1_555 1_555
H4 C1 1_555 1_555
C2 C1 1_555 1_555
H5 C2 1_555 1_555
H6 C2 1_555 1_555
C3 C2 1_555 1_555
H7 C3 1_555 1_555
C4 C3 1_555 1_555
H8 C4 1_555 1_555
H9 C4 1_555 1_555
C5 C4 1_555 1_555
C6 C5 1_555 1_555
H10 C6 1_555 1_555
C7 C6 1_555 1_555
H11 C7 1_555 1_555
H12 C7 1_555 1_555
C8 C7 1_555 1_555
H13 C8 1_555 1_555
C9 C8 1_555 1_555
H14 C9 1_555 1_555
C10 C1 1_555 1_555
C11 C9 1_555 1_555
H15 C11 1_555 1_555
H16 C11 1_555 1_555
C12 C11 1_555 1_555
H17 C12 1_555 1_555
H18 C12 1_555 1_555
C13 C12 1_555 1_555
C14 C8 1_555 1_555
H19 C14 1_555 1_555
C15 C14 1_555 1_555
H20 C15 1_555 1_555
H21 C15 1_555 1_555
C16 C15 1_555 1_555
H22 C16 1_555 1_555
H23 C16 1_555 1_555
C17 C13 1_555 1_555
H24 C17 1_555 1_555
C18 C13 1_555 1_555
H25 C18 1_555 1_555
H26 C18 1_555 1_555
H27 C18 1_555 1_555
C19 C10 1_555 1_555
H28 C19 1_555 1_555
H29 C19 1_555 1_555
H30 C19 1_555 1_555
C20 C17 1_555 1_555
C21 C20 1_555 1_555
C22 N2 1_555 1_555
C23 C22 1_555 1_555
C24 C23 1_555 1_555
C25 C20 1_555 1_555
H31 C25 1_555 1_555
C26 C21 1_555 1_555
C27 C23 1_555 1_555
C28 C24 1_555 1_555
C29 C28 1_555 1_555
H32 C29 1_555 1_555
C30 C29 1_555 1_555
H33 C30 1_555 1_555
C31 C30 1_555 1_555
C32 C31 1_555 1_555
H34 C32 1_555 1_555
C33 C28 1_555 1_555
H35 C33 1_555 1_555
C34 O1 1_555 1_555
C35 C34 1_555 1_555
H36 C35 1_555 1_555
H37 C35 1_555 1_555
H38 C35 1_555 1_555
C36 H39 1_555 1_555
H40 C36 1_555 1_555
H41 C36 1_555 1_555
C37 H42 1_555 1_555
H43 C37 1_555 1_555
H44 C37 1_555 1_555
O3 H45 1_555 1_555
C38 C36 1_555 1_555
H46 C38 1_555 1_555
C5 C10 1_555 1_555
C9 C10 1_555 1_555
C13 C14 1_555 1_555
C16 C17 1_555 1_555
C21 C22 1_555 1_555
C24 C25 1_555 1_555
C32 C33 1_555 1_555
C37 C38 1_555 1_555
O3 C38 1_555 1_555

#END
