
#######################################################################
#
#                 Cambridge Crystallographic Data Centre
#                                CCDC 
#
#######################################################################
#
# If this CIF has been generated from an entry in the Cambridge 
# Structural Database, then it will include bibliographic, chemical, 
# crystal, experimental, refinement or atomic coordinate data resulting 
# from the CCDC's data processing and validation procedures.
#
#######################################################################

data_AJEXUK
_chemical_formula_moiety         'C34 H30 Br2 N2 O4 S2'
_chemical_name_systematic        
N-(2-(7-bromo-5-(4-bromophenyl)-1-((4-methylphenyl)sulfonyl)-2,3-dihydro-1H-benzo[g]indol-4-yl)ethyl)-4-methylbenzenesulfonamide
_symmetry_cell_setting           orthorhombic
_symmetry_space_group_name_H-M   'P b c a'
_symmetry_Int_Tables_number      61
_space_group_name_Hall           '-P 2ac 2ab'
loop_
_symmetry_equiv_pos_site_id
_symmetry_equiv_pos_as_xyz
1 x,y,z
2 1/2-x,-y,1/2+z
3 1/2+x,1/2-y,-z
4 -x,1/2+y,1/2-z
5 -x,-y,-z
6 1/2+x,y,1/2-z
7 1/2-x,1/2+y,z
8 x,1/2-y,1/2+z
_cell_length_a                   9.5442(15)
_cell_length_b                   15.093(3)
_cell_length_c                   45.323(6)
_cell_angle_alpha                90
_cell_angle_beta                 90
_cell_angle_gamma                90
_cell_volume                     6528.81
_exptl_crystal_colour            colorless
_exptl_crystal_description       block
_cell_formula_units_Z            8
loop_
_atom_site_label
_atom_site_type_symbol
_atom_site_fract_x
_atom_site_fract_y
_atom_site_fract_z
Br1 Br -0.02766(7) -0.11177(6) 0.048309(13)
Br2 Br 0.72377(9) 0.07358(8) 0.001431(15)
C1 C 0.2729(4) -0.0692(3) 0.11308(10)
C2 C 0.1988(5) -0.0710(4) 0.08630(10)
H1 H 0.2415 -0.0509 0.0691
C3 C 0.0646(5) -0.1022(4) 0.08534(11)
C4 C -0.0065(5) -0.1307(4) 0.11065(10)
H2 H -0.0972 -0.1529 0.1094
C5 C 0.0598(5) -0.1251(3) 0.13688(11)
H3 H 0.0121 -0.1413 0.1539
C6 C 0.1999(4) -0.0954(3) 0.13914(9)
C7 C 0.2795(5) -0.0946(3) 0.16558(10)
C8 C 0.4208(5) -0.0804(3) 0.16585(10)
C9 C 0.4787(5) -0.0963(4) 0.19611(10)
H4 H 0.5019 -0.0411 0.2059
H5 H 0.5611 -0.1338 0.1955
C10 C 0.3570(5) -0.1427(4) 0.21125(10)
H6 H 0.3691 -0.2065 0.2106
H7 H 0.3501 -0.1244 0.2317
C11 C 0.2432(5) 0.0534(4) 0.21478(11)
C12 C 0.3166(6) 0.0686(4) 0.24064(11)
H8 H 0.2957 0.0358 0.2575
C13 C 0.4209(7) 0.1322(4) 0.24161(14)
H9 H 0.4670 0.1431 0.2593
C14 C 0.4574(6) 0.1795(4) 0.21693(14)
C15 C 0.5822(8) 0.2421(5) 0.21729(15)
H10 H 0.5904 0.2707 0.1984
H11 H 0.6661 0.2091 0.2213
H12 H 0.5690 0.2860 0.2324
C16 C 0.3802(6) 0.1664(4) 0.19173(12)
H13 H 0.4002 0.2004 0.1751
C17 C 0.2735(6) 0.1046(4) 0.19021(11)
H14 H 0.2227 0.0974 0.1729
C18 C 0.5049(6) 0.0712(5) 0.08015(13)
H15 H 0.4702 0.1135 0.0931
C19 C 0.5726(7) 0.0980(5) 0.05439(16)
H16 H 0.5826 0.1579 0.0502
C20 C 0.6238(6) 0.0359(6) 0.03549(13)
C21 C 0.6078(6) -0.0523(6) 0.04109(12)
H17 H 0.6406 -0.0948 0.0279
C22 C 0.5421(6) -0.0765(4) 0.06663(12)
H18 H 0.5329 -0.1366 0.0708
C23 C 0.4890(4) -0.0165(4) 0.08646(10)
C24 C 0.4189(4) -0.0461(3) 0.11416(9)
C25 C 0.4934(4) -0.0543(3) 0.14005(10)
C26 C 0.6481(5) -0.0320(3) 0.14210(10)
H19 H 0.6900 -0.0350 0.1226
H20 H 0.6948 -0.0750 0.1546
C27 C 0.6677(5) 0.0606(4) 0.15478(13)
H21 H 0.6180 0.1030 0.1426
H22 H 0.6275 0.0629 0.1744
C28 C 0.9694(6) 0.1765(4) 0.11710(15)
C29 C 0.9094(9) 0.1426(6) 0.0923(2)
H23 H 0.8184 0.1207 0.0931
C30 C 0.9816(10) 0.1406(6) 0.0662(2)
H24 H 0.9388 0.1159 0.0497
C31 C 1.1147(9) 0.1737(5) 0.0635(2)
C32 C 1.1920(11) 0.1732(7) 0.0346(2)
H25 H 1.1278 0.1859 0.0189
H26 H 1.2333 0.1159 0.0315
H27 H 1.2643 0.2174 0.0350
C33 C 1.1751(8) 0.2077(5) 0.0894(2)
H28 H 1.2655 0.2306 0.0886
C34 C 1.1033(6) 0.2081(4) 0.11596(18)
H29 H 1.1461 0.2298 0.1329
N1 N 0.2275(4) -0.1155(3) 0.19432(8)
N2 N 0.8169(5) 0.0855(3) 0.15629(11)
H30 H 0.8768 0.0451 0.1608
O1 O 0.1012(4) -0.0711(3) 0.23987(7)
O2 O 0.0199(3) -0.0167(3) 0.19129(8)
O3 O 0.7544(4) 0.2386(3) 0.14462(11)
O4 O 0.9707(4) 0.2062(3) 0.17249(10)
S1 S 0.13232(13) -0.03796(9) 0.21122(3)
S2 S 0.87327(15) 0.18317(10) 0.14992(4)
loop_
_geom_bond_atom_site_label_1
_geom_bond_atom_site_label_2
_geom_bond_site_symmetry_1
_geom_bond_site_symmetry_2
Br1 C3 1_555 1_555
Br2 C20 1_555 1_555
C1 C2 1_555 1_555
C2 H1 1_555 1_555
C3 C2 1_555 1_555
C4 C3 1_555 1_555
H2 C4 1_555 1_555
C5 C4 1_555 1_555
H3 C5 1_555 1_555
C6 C1 1_555 1_555
C7 C6 1_555 1_555
C8 C7 1_555 1_555
C9 C8 1_555 1_555
H4 C9 1_555 1_555
H5 C9 1_555 1_555
C10 C9 1_555 1_555
H6 C10 1_555 1_555
H7 C10 1_555 1_555
C11 C12 1_555 1_555
C12 H8 1_555 1_555
C13 C12 1_555 1_555
H9 C13 1_555 1_555
C14 C13 1_555 1_555
C15 C14 1_555 1_555
H10 C15 1_555 1_555
H11 C15 1_555 1_555
H12 C15 1_555 1_555
C16 C14 1_555 1_555
H13 C16 1_555 1_555
C17 C11 1_555 1_555
H14 C17 1_555 1_555
C18 H15 1_555 1_555
C19 C18 1_555 1_555
H16 C19 1_555 1_555
C20 C19 1_555 1_555
C21 C20 1_555 1_555
H17 C21 1_555 1_555
C22 C21 1_555 1_555
H18 C22 1_555 1_555
C23 C18 1_555 1_555
C24 C1 1_555 1_555
C25 C8 1_555 1_555
C26 C25 1_555 1_555
H19 C26 1_555 1_555
H20 C26 1_555 1_555
C27 C26 1_555 1_555
H21 C27 1_555 1_555
H22 C27 1_555 1_555
C28 C29 1_555 1_555
C29 H23 1_555 1_555
C30 C29 1_555 1_555
H24 C30 1_555 1_555
C31 C30 1_555 1_555
C32 C31 1_555 1_555
H25 C32 1_555 1_555
H26 C32 1_555 1_555
H27 C32 1_555 1_555
C33 C31 1_555 1_555
H28 C33 1_555 1_555
C34 C28 1_555 1_555
H29 C34 1_555 1_555
N1 C7 1_555 1_555
N2 C27 1_555 1_555
H30 N2 1_555 1_555
O1 S1 1_555 1_555
O2 S1 1_555 1_555
O3 S2 1_555 1_555
O4 S2 1_555 1_555
S1 C11 1_555 1_555
S2 C28 1_555 1_555
C5 C6 1_555 1_555
C10 N1 1_555 1_555
C16 C17 1_555 1_555
C22 C23 1_555 1_555
C23 C24 1_555 1_555
C24 C25 1_555 1_555
C33 C34 1_555 1_555
N1 S1 1_555 1_555
N2 S2 1_555 1_555

#END
