
#######################################################################
#
#                 Cambridge Crystallographic Data Centre
#                                CCDC 
#
#######################################################################
#
# If this CIF has been generated from an entry in the Cambridge 
# Structural Database, then it will include bibliographic, chemical, 
# crystal, experimental, refinement or atomic coordinate data resulting 
# from the CCDC's data processing and validation procedures.
#
#######################################################################

data_AJEZUL
_chemical_formula_moiety         'C6 H9 N2 1+,C6 H9 N2 1+,O4 S1 2-,H2 O1'
_chemical_name_systematic        
'2-Amino-3-methylpyridinium 2-amino-5-methylpyridinium sulfate monohydrate'
_symmetry_cell_setting           monoclinic
_symmetry_space_group_name_H-M   'P 21/c'
_symmetry_Int_Tables_number      14
_space_group_name_Hall           '-P 2ybc'
loop_
_symmetry_equiv_pos_site_id
_symmetry_equiv_pos_as_xyz
1 x,y,z
2 -x,1/2+y,1/2-z
3 -x,-y,-z
4 x,1/2-y,1/2+z
_cell_length_a                   8.4071(7)
_cell_length_b                   20.7654(17)
_cell_length_c                   9.3369(8)
_cell_angle_alpha                90
_cell_angle_beta                 103.9830(10)
_cell_angle_gamma                90
_cell_volume                     1581.7
_exptl_crystal_colour            colorless
_exptl_crystal_description       prism
_cell_formula_units_Z            4
loop_
_atom_site_label
_atom_site_type_symbol
_atom_site_fract_x
_atom_site_fract_y
_atom_site_fract_z
H1 H 0.897(4) 0.5692(16) 0.975(4)
H2 H 0.873(4) 0.5243(17) 1.060(4)
O5 O 0.8248(2) 0.55071(10) 1.0044(2)
S1 S 0.13278(6) 0.60692(2) 0.79985(6)
O1 O 0.3104(2) 0.60658(8) 0.8712(2)
O2 O 0.0451(2) 0.63253(9) 0.9043(2)
O3 O 0.08256(19) 0.53962(8) 0.76110(18)
O4 O 0.1027(3) 0.64557(10) 0.6672(2)
N1 N 0.4680(2) 0.67850(8) 1.09636(19)
H3 H 0.4085 0.6519 1.0356
N2 N 0.2340(2) 0.73695(10) 1.0919(2)
H4 H 0.1785 0.7101 1.0292
H5 H 0.1856 0.7691 1.1213
C1 C 0.3949(3) 0.72881(11) 1.1434(2)
C2 C 0.4942(3) 0.77118(11) 1.2445(3)
H9 H 0.4480 0.8064 1.2807
C3 C 0.6580(3) 0.76018(12) 1.2886(3)
H10 H 0.7229 0.7884 1.3552
C4 C 0.7325(3) 0.70730(12) 1.2365(3)
C5 C 0.6321(3) 0.66757(11) 1.1403(2)
H11 H 0.6764 0.6320 1.1035
C6 C 0.9147(3) 0.69585(16) 1.2847(4)
H12 H 0.9644 0.7290 1.3526
H13 H 0.9607 0.6966 1.2001
H14 H 0.9350 0.6546 1.3322
N3 N 0.3036(2) 0.47027(10) 0.6431(2)
H6 H 0.2413 0.4940 0.6818
N4 N 0.5202(3) 0.50690(11) 0.8229(2)
H7 H 0.4523 0.5294 0.8577
H8 H 0.6232 0.5080 0.8647
C7 C 0.4663(3) 0.47068(11) 0.7055(2)
C8 C 0.5701(3) 0.43135(11) 0.6419(3)
C9 C 0.4968(4) 0.39642(13) 0.5209(3)
H15 H 0.5618 0.3708 0.4764
C10 C 0.3270(4) 0.39747(14) 0.4606(3)
H16 H 0.2803 0.3727 0.3783
C11 C 0.2333(3) 0.43492(13) 0.5239(3)
H17 H 0.1205 0.4364 0.4856
C12 C 0.7509(3) 0.42992(14) 0.7089(3)
H18 H 0.7763 0.4577 0.7935
H19 H 0.8083 0.4444 0.6376
H20 H 0.7840 0.3867 0.7385
loop_
_geom_bond_atom_site_label_1
_geom_bond_atom_site_label_2
_geom_bond_site_symmetry_1
_geom_bond_site_symmetry_2
H1 O5 1_555 1_555
H2 O5 1_555 1_555
S1 O1 1_555 1_555
O2 S1 1_555 1_555
O3 S1 1_555 1_555
O4 S1 1_555 1_555
N1 H3 1_555 1_555
N2 H4 1_555 1_555
H5 N2 1_555 1_555
N3 H6 1_555 1_555
N4 H7 1_555 1_555
H8 N4 1_555 1_555
C1 N1 1_555 1_555
C2 C1 1_555 1_555
H9 C2 1_555 1_555
C3 C2 1_555 1_555
H10 C3 1_555 1_555
C4 C3 1_555 1_555
C5 N1 1_555 1_555
H11 C5 1_555 1_555
C6 C4 1_555 1_555
H12 C6 1_555 1_555
H13 C6 1_555 1_555
H14 C6 1_555 1_555
C7 N3 1_555 1_555
C8 C7 1_555 1_555
C9 C8 1_555 1_555
H15 C9 1_555 1_555
C10 C9 1_555 1_555
H16 C10 1_555 1_555
C11 N3 1_555 1_555
H17 C11 1_555 1_555
C12 C8 1_555 1_555
H18 C12 1_555 1_555
H19 C12 1_555 1_555
H20 C12 1_555 1_555
N2 C1 1_555 1_555
N4 C7 1_555 1_555
C4 C5 1_555 1_555
C10 C11 1_555 1_555

#END
