
#######################################################################
#
#                 Cambridge Crystallographic Data Centre
#                                CCDC 
#
#######################################################################
#
# If this CIF has been generated from an entry in the Cambridge 
# Structural Database, then it will include bibliographic, chemical, 
# crystal, experimental, refinement or atomic coordinate data resulting 
# from the CCDC's data processing and validation procedures.
#
#######################################################################

data_AJICIH
_chemical_name_common            
8-hydroxy-2-(4-methoxyphenyl)-8a-methyl-3-phenyl-3,4,4a,8a-tetrahydroisoquinoline-1,6(2H,5H)-dione
_chemical_formula_moiety         'C23 H23 N1 O4'
_chemical_name_systematic        
(3S*,4aR*,8aS*)-8-hydroxy-2-(4-methoxyphenyl)-8a-methyl-3-phenyl-3,4,4a,5-tetrahydroisoquinoline-1,6(2H,8aH)-dione
_symmetry_cell_setting           orthorhombic
_symmetry_space_group_name_H-M   'P c a 21'
_symmetry_Int_Tables_number      29
_space_group_name_Hall           'P 2c -2ac'
loop_
_symmetry_equiv_pos_site_id
_symmetry_equiv_pos_as_xyz
1 x,y,z
2 -x,-y,1/2+z
3 1/2-x,y,1/2+z
4 1/2+x,-y,z
_cell_length_a                   13.1515(8)
_cell_length_b                   9.4791(4)
_cell_length_c                   14.8569(8)
_cell_angle_alpha                90
_cell_angle_beta                 90
_cell_angle_gamma                90
_cell_volume                     1852.13
_exptl_crystal_colour            colorless
_cell_formula_units_Z            4
_exptl_crystal_recrystallization_method methano
loop_
_atom_site_label
_atom_site_type_symbol
_atom_site_fract_x
_atom_site_fract_y
_atom_site_fract_z
O1 O -0.26144(13) -0.49282(17) 0.24287(11)
H1 H -0.2962 -0.4228 0.2530
O2 O -0.57041(12) 0.29027(17) 0.24846(12)
O3 O -0.08330(13) -0.69486(17) 0.00397(12)
O4 O -0.36384(13) -0.27351(18) 0.21576(12)
N1 N -0.33399(14) -0.1371(2) 0.09447(13)
C1 C -0.39132(16) -0.0243(2) 0.13636(15)
C2 C -0.27668(17) -0.1008(2) 0.01042(16)
H2 H -0.2136 -0.0533 0.0283
C3 C -0.4882(2) 0.0672(3) -0.12726(18)
H3 H -0.5549 0.0481 -0.1440
C4 C -0.55394(18) 0.0741(3) 0.17439(17)
H4 H -0.6245 0.0684 0.1744
C5 C -0.50617(17) 0.1909(2) 0.21286(17)
C6 C -0.22985(16) -0.4904(2) 0.15732(16)
C7 C -0.32616(17) -0.2595(2) 0.13902(16)
C8 C -0.33724(17) 0.0012(2) -0.04783(16)
C9 C -0.52447(19) 0.4030(2) 0.29753(16)
H5 H -0.4813 0.4563 0.2581
H6 H -0.4848 0.3650 0.3460
H7 H -0.5765 0.4633 0.3214
C10 C -0.13127(17) -0.5935(2) 0.03455(17)
C11 C -0.34377(18) 0.0899(2) 0.17489(17)
H8 H -0.2731 0.0946 0.1751
C12 C -0.40033(17) 0.1992(3) 0.21381(17)
H9 H -0.3678 0.2762 0.2399
C13 C -0.20210(17) -0.3430(2) 0.02211(16)
H10 H -0.1458 -0.2977 0.0541
C14 C -0.28976(19) 0.1247(3) -0.07678(16)
H11 H -0.2231 0.1438 -0.0598
C15 C -0.43611(18) -0.0267(3) -0.07478(17)
H12 H -0.4674 -0.1102 -0.0570
C16 C -0.3429(2) 0.2201(3) -0.13166(18)
H13 H -0.3116 0.3023 -0.1517
C17 C -0.16247(17) -0.5867(2) 0.12736(16)
H14 H -0.1352 -0.6510 0.1680
C18 C -0.49736(17) -0.0327(2) 0.13633(16)
H15 H -0.5297 -0.1102 0.1107
C19 C -0.4420(2) 0.1906(3) -0.15556(17)
H16 H -0.4780 0.2542 -0.1910
C20 C -0.28072(17) -0.3879(2) 0.09218(16)
C21 C -0.2478(2) -0.2344(2) -0.04144(17)
H17 H -0.3077 -0.2735 -0.0701
H18 H -0.1989 -0.2112 -0.0881
C22 C -0.37276(18) -0.4692(3) 0.05099(17)
H19 H -0.4076 -0.4093 0.0090
H20 H -0.4186 -0.4963 0.0982
H21 H -0.3487 -0.5520 0.0205
C23 C -0.15893(19) -0.4723(3) -0.02745(16)
H22 H -0.2088 -0.5050 -0.0708
H23 H -0.0988 -0.4438 -0.0606
loop_
_geom_bond_atom_site_label_1
_geom_bond_atom_site_label_2
_geom_bond_site_symmetry_1
_geom_bond_site_symmetry_2
O1 H1 1_555 1_555
O2 C5 1_555 1_555
O3 C10 1_555 1_555
O4 C7 1_555 1_555
N1 C1 1_555 1_555
C1 C11 1_555 1_555
C2 N1 1_555 1_555
H2 C2 1_555 1_555
C3 H3 1_555 1_555
C4 H4 1_555 1_555
C5 C4 1_555 1_555
C6 O1 1_555 1_555
C7 N1 1_555 1_555
C8 C2 1_555 1_555
C9 O2 1_555 1_555
H5 C9 1_555 1_555
H6 C9 1_555 1_555
H7 C9 1_555 1_555
C10 C17 1_555 1_555
C11 H8 1_555 1_555
C12 C5 1_555 1_555
H9 C12 1_555 1_555
C13 H10 1_555 1_555
C14 C8 1_555 1_555
H11 C14 1_555 1_555
C15 C3 1_555 1_555
H12 C15 1_555 1_555
C16 C14 1_555 1_555
H13 C16 1_555 1_555
C17 C6 1_555 1_555
H14 C17 1_555 1_555
C18 C1 1_555 1_555
H15 C18 1_555 1_555
C19 C3 1_555 1_555
H16 C19 1_555 1_555
C20 C6 1_555 1_555
C21 C2 1_555 1_555
H17 C21 1_555 1_555
H18 C21 1_555 1_555
C22 C20 1_555 1_555
H19 C22 1_555 1_555
H20 C22 1_555 1_555
H21 C22 1_555 1_555
C23 C10 1_555 1_555
H22 C23 1_555 1_555
H23 C23 1_555 1_555
C4 C18 1_555 1_555
C7 C20 1_555 1_555
C8 C15 1_555 1_555
C11 C12 1_555 1_555
C13 C20 1_555 1_555
C13 C21 1_555 1_555
C13 C23 1_555 1_555
C16 C19 1_555 1_555

#END
