
#######################################################################
#
#                 Cambridge Crystallographic Data Centre
#                                CCDC 
#
#######################################################################
#
# If this CIF has been generated from an entry in the Cambridge 
# Structural Database, then it will include bibliographic, chemical, 
# crystal, experimental, refinement or atomic coordinate data resulting 
# from the CCDC's data processing and validation procedures.
#
#######################################################################

data_AJIDAA
_chemical_formula_moiety         'C15 H21 N1 O1'
_chemical_name_systematic        3-butyl-2-isopropylisoindolin-1-one
_symmetry_cell_setting           monoclinic
_symmetry_space_group_name_H-M   'P 21/n'
_symmetry_Int_Tables_number      14
_space_group_name_Hall           '-P 2yn'
loop_
_symmetry_equiv_pos_site_id
_symmetry_equiv_pos_as_xyz
1 x,y,z
2 1/2-x,1/2+y,1/2-z
3 -x,-y,-z
4 1/2+x,1/2-y,1/2+z
_cell_length_a                   9.5272(19)
_cell_length_b                   9.804(2)
_cell_length_c                   14.277(3)
_cell_angle_alpha                90
_cell_angle_beta                 99.26(3)
_cell_angle_gamma                90
_cell_volume                     1316.16
_exptl_crystal_colour            yellow
_exptl_crystal_description       block
_cell_formula_units_Z            4
loop_
_atom_site_label
_atom_site_type_symbol
_atom_site_fract_x
_atom_site_fract_y
_atom_site_fract_z
O1 O -0.01957(9) 0.04321(9) 0.15143(6)
N1 N 0.17432(10) 0.18419(10) 0.14504(7)
C1 C 0.07855(13) 0.11628(12) 0.19001(8)
C2 C 0.11517(13) 0.14895(12) 0.29239(8)
C3 C 0.05211(14) 0.10472(13) 0.36846(9)
H1 H -0.0260 0.0433 0.3594
C4 C 0.10749(14) 0.15369(13) 0.45806(9)
H2 H 0.0676 0.1242 0.5114
C5 C 0.22061(15) 0.24540(13) 0.47089(9)
H3 H 0.2564 0.2779 0.5328
C6 C 0.28212(14) 0.29017(13) 0.39415(9)
H4 H 0.3590 0.3530 0.4028
C7 C 0.22756(13) 0.24013(12) 0.30475(8)
C8 C 0.27417(12) 0.26902(12) 0.21045(8)
H5 H 0.2565 0.3674 0.1940
C9 C 0.43252(12) 0.23694(12) 0.21166(9)
H6 H 0.4570 0.2587 0.1485
H7 H 0.4900 0.2972 0.2586
C10 C 0.47362(12) 0.08891(12) 0.23574(8)
H8 H 0.4490 0.0665 0.2987
H9 H 0.4174 0.0283 0.1884
C11 C 0.63159(13) 0.06111(13) 0.23710(9)
H10 H 0.6548 0.0775 0.1729
H11 H 0.6879 0.1259 0.2812
C12 C 0.67406(14) -0.08347(13) 0.26733(10)
H12 H 0.6561 -0.0988 0.3322
H13 H 0.7754 -0.0967 0.2650
H14 H 0.6180 -0.1482 0.2243
C13 C 0.15252(14) 0.19566(13) 0.04091(8)
H15 H 0.0651 0.1419 0.0165
C14 C 0.12118(18) 0.34306(15) 0.01029(10)
H16 H 0.0423 0.3777 0.0399
H17 H 0.0952 0.3471 -0.0589
H18 H 0.2059 0.3991 0.0303
C15 C 0.27292(15) 0.13481(15) -0.00447(9)
H19 H 0.3563 0.1946 0.0078
H20 H 0.2422 0.1263 -0.0731
H21 H 0.2976 0.0445 0.0227
loop_
_geom_bond_atom_site_label_1
_geom_bond_atom_site_label_2
_geom_bond_site_symmetry_1
_geom_bond_site_symmetry_2
O1 C1 1_555 1_555
N1 C1 1_555 1_555
C1 C2 1_555 1_555
C2 C3 1_555 1_555
C3 H1 1_555 1_555
C4 C3 1_555 1_555
H2 C4 1_555 1_555
C5 C4 1_555 1_555
H3 C5 1_555 1_555
C6 C5 1_555 1_555
H4 C6 1_555 1_555
C7 C2 1_555 1_555
C8 N1 1_555 1_555
H5 C8 1_555 1_555
C9 C8 1_555 1_555
H6 C9 1_555 1_555
H7 C9 1_555 1_555
C10 C9 1_555 1_555
H8 C10 1_555 1_555
H9 C10 1_555 1_555
C11 C10 1_555 1_555
H10 C11 1_555 1_555
H11 C11 1_555 1_555
C12 C11 1_555 1_555
H12 C12 1_555 1_555
H13 C12 1_555 1_555
H14 C12 1_555 1_555
C13 N1 1_555 1_555
H15 C13 1_555 1_555
C14 C13 1_555 1_555
H16 C14 1_555 1_555
H17 C14 1_555 1_555
H18 C14 1_555 1_555
C15 C13 1_555 1_555
H19 C15 1_555 1_555
H20 C15 1_555 1_555
H21 C15 1_555 1_555
C6 C7 1_555 1_555
C7 C8 1_555 1_555

#END
