
#######################################################################
#
#                 Cambridge Crystallographic Data Centre
#                                CCDC 
#
#######################################################################
#
# If this CIF has been generated from an entry in the Cambridge 
# Structural Database, then it will include bibliographic, chemical, 
# crystal, experimental, refinement or atomic coordinate data resulting 
# from the CCDC's data processing and validation procedures.
#
#######################################################################

data_AJIDUT
_chemical_formula_moiety         'H12 Mg1 O6 2+,2(C7 H8 N1 O3 S1 1-)'
_chemical_name_systematic        
'Hexa-aqua-magnesium(ii) bis(4-amino-3-methylbenzenesulfonate)'
_symmetry_cell_setting           monoclinic
_symmetry_space_group_name_H-M   'P 21/n'
_symmetry_Int_Tables_number      14
_space_group_name_Hall           '-P 2yn'
loop_
_symmetry_equiv_pos_site_id
_symmetry_equiv_pos_as_xyz
1 x,y,z
2 1/2-x,1/2+y,1/2-z
3 -x,-y,-z
4 1/2+x,1/2-y,1/2+z
_cell_length_a                   6.3048(13)
_cell_length_b                   7.0395(15)
_cell_length_c                   24.356(5)
_cell_angle_alpha                90
_cell_angle_beta                 93.921(3)
_cell_angle_gamma                90
_cell_volume                     1078.45
_exptl_crystal_colour            colorless
_exptl_crystal_description       block
_cell_formula_units_Z            2
_exptl_crystal_recrystallization_method ethanol
loop_
_atom_site_label
_atom_site_type_symbol
_atom_site_fract_x
_atom_site_fract_y
_atom_site_fract_z
Mg1 Mg 0.0000 0.0000 0.0000
O1 O 0.2913(5) 0.0074(4) 0.04083(13)
H1 H 0.3575 0.1051 0.0533
H2 H 0.3647 -0.0883 0.0519
O2 O -0.0976(5) -0.1937(4) 0.05737(13)
H3 H -0.0146 -0.2881 0.0624
H4 H -0.2222 -0.2401 0.0564
O3 O -0.1022(5) 0.2297(4) 0.04427(13)
H5 H -0.2251 0.2721 0.0498
H6 H -0.0147 0.3033 0.0618
O1B O -0.2913(5) -0.0074(4) -0.04083(13)
H1B H -0.3575 -0.1051 -0.0533
H2B H -0.3647 0.0883 -0.0519
O2B O 0.0976(5) 0.1937(4) -0.05737(13)
H3B H 0.0146 0.2881 -0.0624
H4B H 0.2222 0.2401 -0.0564
O3B O 0.1022(5) -0.2297(4) -0.04427(13)
H5B H 0.2251 -0.2721 -0.0498
H6B H 0.0147 -0.3033 -0.0618
S1 S 0.40358(14) 0.50773(14) 0.09733(4)
O4 O 0.4934(5) 0.6661(4) 0.06800(11)
O5 O 0.1712(4) 0.5034(4) 0.09088(12)
O6 O 0.4968(4) 0.3258(4) 0.08251(12)
N1 N 0.6584(7) 0.6327(6) 0.33201(15)
H7 H 0.7828 0.6779 0.3408
H8 H 0.5739 0.6070 0.3573
C1 C 0.4753(6) 0.5435(5) 0.16775(16)
C2 C 0.3351(6) 0.5006(6) 0.20762(16)
H9 H 0.2013 0.4519 0.1971
C3 C 0.3929(6) 0.5297(5) 0.26277(16)
C4 C 0.5949(7) 0.6021(6) 0.27807(16)
C5 C 0.7335(7) 0.6445(6) 0.23738(17)
H10 H 0.8675 0.6936 0.2474
C6 C 0.6748(6) 0.6147(6) 0.18287(17)
H11 H 0.7689 0.6424 0.1562
C7 C 0.2434(7) 0.4831(7) 0.30672(18)
H12 H 0.1193 0.4209 0.2903
H13 H 0.2022 0.5982 0.3243
H14 H 0.3136 0.4006 0.3336
loop_
_geom_bond_atom_site_label_1
_geom_bond_atom_site_label_2
_geom_bond_site_symmetry_1
_geom_bond_site_symmetry_2
Mg1 O1 1_555 1_555
O1 H1 1_555 1_555
H2 O1 1_555 1_555
O2 Mg1 1_555 1_555
H3 O2 1_555 1_555
H4 O2 1_555 1_555
O3 Mg1 1_555 1_555
H5 O3 1_555 1_555
H6 O3 1_555 1_555
S1 O4 1_555 1_555
O5 S1 1_555 1_555
O6 S1 1_555 1_555
N1 H7 1_555 1_555
H8 N1 1_555 1_555
C1 S1 1_555 1_555
C2 C1 1_555 1_555
H9 C2 1_555 1_555
C3 C2 1_555 1_555
C4 N1 1_555 1_555
C5 C4 1_555 1_555
H10 C5 1_555 1_555
C6 C1 1_555 1_555
H11 C6 1_555 1_555
C7 C3 1_555 1_555
H12 C7 1_555 1_555
H13 C7 1_555 1_555
H14 C7 1_555 1_555
O1B Mg1 1_555 1_555
H1B O1B 1_555 1_555
H2B O1B 1_555 1_555
O2B Mg1 1_555 1_555
H3B O2B 1_555 1_555
H4B O2B 1_555 1_555
O3B Mg1 1_555 1_555
H5B O3B 1_555 1_555
H6B O3B 1_555 1_555
C3 C4 1_555 1_555
C5 C6 1_555 1_555

#END
