
#######################################################################
#
#                 Cambridge Crystallographic Data Centre
#                                CCDC 
#
#######################################################################
#
# If this CIF has been generated from an entry in the Cambridge 
# Structural Database, then it will include bibliographic, chemical, 
# crystal, experimental, refinement or atomic coordinate data resulting 
# from the CCDC's data processing and validation procedures.
#
#######################################################################

data_AJIWOF
_chemical_formula_moiety         'C21 H18 N2 O2'
_chemical_name_systematic        
2-Amino-3-cyano-4-(4-methoxyphenyl)-1,4,5,6-tetrahydrobenzo(h)chromene
_symmetry_cell_setting           monoclinic
_symmetry_space_group_name_H-M   'P 21/c'
_symmetry_Int_Tables_number      14
_space_group_name_Hall           '-P 2ybc'
loop_
_symmetry_equiv_pos_site_id
_symmetry_equiv_pos_as_xyz
1 x,y,z
2 x,1/2-y,1/2+z
3 -x,-y,-z
4 -x,1/2+y,1/2-z
_cell_length_a                   6.4780(10)
_cell_length_b                   25.557(5)
_cell_length_c                   10.549(2)
_cell_angle_alpha                90
_cell_angle_beta                 96.75(2)
_cell_angle_gamma                90
_cell_volume                     1734.37
_exptl_crystal_colour            yellow
_exptl_crystal_description       block
_chemical_melting_point          456-457K
_cell_formula_units_Z            4
_exptl_crystal_recrystallization_method ethanol
loop_
_atom_site_label
_atom_site_type_symbol
_atom_site_fract_x
_atom_site_fract_y
_atom_site_fract_z
O1 O 0.53209(16) 0.38383(4) 0.43403(9)
O2 O 0.5886(2) 0.44223(5) 1.15235(11)
N1 N 0.3269(3) 0.45074(6) 0.37327(15)
N2 N -0.0659(2) 0.45347(6) 0.59537(15)
C1 C 0.3689(2) 0.41324(6) 0.46159(14)
C2 C 0.2654(2) 0.40316(6) 0.56271(14)
C3 C 0.3274(2) 0.36007(6) 0.65814(14)
H1 H 0.2046 0.3383 0.6650
C4 C 0.4898(2) 0.32627(6) 0.60879(14)
C5 C 0.5833(2) 0.33933(6) 0.50829(14)
C6 C 0.7584(2) 0.31036(7) 0.46603(14)
C7 C 0.8892(2) 0.33196(7) 0.38436(15)
H2 H 0.8625 0.3652 0.3507
C8 C 1.0586(3) 0.30397(8) 0.35322(18)
H3 H 1.1460 0.3184 0.2985
C9 C 1.0979(3) 0.25496(9) 0.40303(19)
H4 H 1.2126 0.2363 0.3825
C10 C 0.9683(3) 0.23324(8) 0.48334(17)
H5 H 0.9968 0.1999 0.5164
C11 C 0.7974(3) 0.25994(7) 0.51564(14)
C12 C 0.6442(3) 0.23654(7) 0.59563(16)
H6 H 0.7118 0.2090 0.6485
H7 H 0.5309 0.2209 0.5401
C13 C 0.5568(3) 0.27682(7) 0.68051(17)
H8 H 0.4385 0.2619 0.7161
H9 H 0.6616 0.2854 0.7508
C14 C 0.4007(2) 0.38195(6) 0.79057(14)
C15 C 0.5937(3) 0.40478(7) 0.81665(16)
H10 H 0.6807 0.4061 0.7526
C16 C 0.6623(3) 0.42584(8) 0.93477(16)
H11 H 0.7928 0.4414 0.9492
C17 C 0.5360(3) 0.42367(6) 1.03112(15)
C18 C 0.3414(3) 0.40146(7) 1.00649(15)
H12 H 0.2542 0.4002 1.0704
C19 C 0.2754(3) 0.38108(6) 0.88748(15)
H13 H 0.1434 0.3664 0.8723
C20 C 0.0839(3) 0.43192(6) 0.57882(15)
C21 C 0.7853(4) 0.46594(9) 1.18235(19)
H14 H 0.8924 0.4412 1.1693
H15 H 0.8012 0.4769 1.2700
H16 H 0.7960 0.4958 1.1282
H17 H 0.405(2) 0.4533(6) 0.3118(13)
H18 H 0.254(2) 0.4779(5) 0.3894(16)
loop_
_geom_bond_atom_site_label_1
_geom_bond_atom_site_label_2
_geom_bond_site_symmetry_1
_geom_bond_site_symmetry_2
O1 C1 1_555 1_555
O2 C17 1_555 1_555
N1 C1 1_555 1_555
N2 C20 1_555 1_555
C1 C2 1_555 1_555
C2 C3 1_555 1_555
C3 H1 1_555 1_555
C4 C3 1_555 1_555
C5 O1 1_555 1_555
C6 C5 1_555 1_555
C7 C6 1_555 1_555
H2 C7 1_555 1_555
C8 C7 1_555 1_555
H3 C8 1_555 1_555
C9 C8 1_555 1_555
H4 C9 1_555 1_555
C10 C9 1_555 1_555
H5 C10 1_555 1_555
C11 C6 1_555 1_555
C12 C11 1_555 1_555
H6 C12 1_555 1_555
H7 C12 1_555 1_555
C13 C4 1_555 1_555
H8 C13 1_555 1_555
H9 C13 1_555 1_555
C14 C3 1_555 1_555
C15 C14 1_555 1_555
H10 C15 1_555 1_555
C16 C15 1_555 1_555
H11 C16 1_555 1_555
C17 C16 1_555 1_555
C18 C17 1_555 1_555
H12 C18 1_555 1_555
C19 C14 1_555 1_555
H13 C19 1_555 1_555
C20 C2 1_555 1_555
C21 O2 1_555 1_555
H14 C21 1_555 1_555
H15 C21 1_555 1_555
H16 C21 1_555 1_555
H17 N1 1_555 1_555
H18 N1 1_555 1_555
C4 C5 1_555 1_555
C10 C11 1_555 1_555
C12 C13 1_555 1_555
C18 C19 1_555 1_555

#END
