
#######################################################################
#
#                 Cambridge Crystallographic Data Centre
#                                CCDC 
#
#######################################################################
#
# If this CIF has been generated from an entry in the Cambridge 
# Structural Database, then it will include bibliographic, chemical, 
# crystal, experimental, refinement or atomic coordinate data resulting 
# from the CCDC's data processing and validation procedures.
#
#######################################################################

data_AJIYIB
_chemical_compound_source        
'unidentified marine fungus isolated from leaves of sea lotus'
_chemical_formula_moiety         'C11 H12 O3'
_chemical_name_systematic        7-Methoxy-4,6-dimethyl-3H-isobenzofuran-1-one
_chemical_properties_biological  
'exhibits moderate cytotoxicity towards the KB cell line'
_symmetry_cell_setting           orthorhombic
_symmetry_space_group_name_H-M   'P n a 21'
_symmetry_Int_Tables_number      33
_space_group_name_Hall           'P 2c -2n'
loop_
_symmetry_equiv_pos_site_id
_symmetry_equiv_pos_as_xyz
1 x,y,z
2 -x,-y,1/2+z
3 1/2+x,1/2-y,z
4 1/2-x,1/2+y,1/2+z
_cell_length_a                   7.5508(7)
_cell_length_b                   12.6160(10)
_cell_length_c                   10.1223(9)
_cell_angle_alpha                90
_cell_angle_beta                 90
_cell_angle_gamma                90
_cell_volume                     964.259
_exptl_crystal_colour            colorless
_exptl_crystal_description       needle
_cell_formula_units_Z            4
_exptl_crystal_recrystallization_method 'ethyl acetate'
loop_
_atom_site_label
_atom_site_type_symbol
_atom_site_fract_x
_atom_site_fract_y
_atom_site_fract_z
O1 O 0.3423(5) 0.9901(2) 0.4999(4)
O2 O 0.2527(5) 0.9312(3) 0.3053(4)
O3 O 0.2614(4) 0.6788(2) 0.3127(4)
C1 C 0.3061(6) 0.9115(4) 0.4148(5)
C2 C 0.3997(8) 0.9475(4) 0.6241(5)
C3 C 0.3990(5) 0.8311(3) 0.6058(4)
C4 C 0.4399(5) 0.7506(4) 0.6960(5)
C5 C 0.4198(6) 0.6486(4) 0.6492(4)
C6 C 0.3643(5) 0.6247(3) 0.5223(4)
C7 C 0.3257(6) 0.7049(4) 0.4340(5)
C8 C 0.3440(6) 0.8101(3) 0.4787(5)
C9 C 0.4964(7) 0.7760(4) 0.8333(5)
C10 C 0.3463(7) 0.5103(3) 0.4784(6)
C11 C 0.3633(8) 0.7076(5) 0.2007(6)
H1 H 0.3194 0.9679 0.6944
H2 H 0.5177 0.9724 0.6457
H3 H 0.4450 0.5927 0.7061
H4 H 0.3940 0.7906 0.8865
H5 H 0.5723 0.8371 0.8323
H6 H 0.5595 0.7168 0.8698
H7 H 0.2270 0.4975 0.4498
H8 H 0.3742 0.4642 0.5509
H9 H 0.4264 0.4969 0.4067
H10 H 0.3037 0.6848 0.1219
H11 H 0.4775 0.6743 0.2057
H12 H 0.3778 0.7832 0.1987
loop_
_geom_bond_atom_site_label_1
_geom_bond_atom_site_label_2
_geom_bond_site_symmetry_1
_geom_bond_site_symmetry_2
O1 C1 1_555 1_555
O2 C1 1_555 1_555
O3 C7 1_555 1_555
C1 C8 1_555 1_555
C2 O1 1_555 1_555
C3 C2 1_555 1_555
C4 C3 1_555 1_555
C5 C4 1_555 1_555
C6 C5 1_555 1_555
C7 C6 1_555 1_555
C8 C3 1_555 1_555
C9 C4 1_555 1_555
C10 C6 1_555 1_555
C11 O3 1_555 1_555
H1 C2 1_555 1_555
H2 C2 1_555 1_555
H3 C5 1_555 1_555
H4 C9 1_555 1_555
H5 C9 1_555 1_555
H6 C9 1_555 1_555
H7 C10 1_555 1_555
H8 C10 1_555 1_555
H9 C10 1_555 1_555
H10 C11 1_555 1_555
H11 C11 1_555 1_555
H12 C11 1_555 1_555
C7 C8 1_555 1_555

#END
