
#######################################################################
#
#                 Cambridge Crystallographic Data Centre
#                                CCDC 
#
#######################################################################
#
# If this CIF has been generated from an entry in the Cambridge 
# Structural Database, then it will include bibliographic, chemical, 
# crystal, experimental, refinement or atomic coordinate data resulting 
# from the CCDC's data processing and validation procedures.
#
#######################################################################

data_AJIYUO
_chemical_formula_moiety         'C54 H72 As2 N4'
_chemical_name_systematic        
1,2-bis(N,N'-bis(2,6-Diisopropylphenyl)imidazol-2-ylidene)diarsane
_symmetry_cell_setting           triclinic
_symmetry_space_group_name_H-M   'P -1'
_symmetry_Int_Tables_number      2
_space_group_name_Hall           '-P 1'
loop_
_symmetry_equiv_pos_site_id
_symmetry_equiv_pos_as_xyz
1 x,y,z
2 -x,-y,-z
_cell_length_a                   10.842(4)
_cell_length_b                   11.160(4)
_cell_length_c                   12.592(5)
_cell_angle_alpha                95.640(5)
_cell_angle_beta                 112.601(5)
_cell_angle_gamma                108.741(5)
_cell_volume                     1288.45
_exptl_crystal_colour            red
_exptl_crystal_description       plate
_chemical_melting_point          '216.5 deg.C'
_cell_formula_units_Z            1
loop_
_atom_site_label
_atom_site_type_symbol
_atom_site_fract_x
_atom_site_fract_y
_atom_site_fract_z
As1 As 0.56964(2) 0.041641(18) 0.107781(16)
N1 N 0.67976(16) 0.30300(14) 0.23903(12)
N2 N 0.56175(17) 0.30037(14) 0.05489(13)
C1 C 0.59963(18) 0.21955(16) 0.12638(14)
C2 C 0.6892(3) 0.42902(19) 0.23597(18)
H1 H 0.7372 0.5014 0.3009
C3 C 0.6174(3) 0.42768(19) 0.12339(19)
H2 H 0.6061 0.4993 0.0952
C4 C 0.4756(2) 0.26242(18) -0.07125(16)
C5 C 0.5455(3) 0.2794(3) -0.1439(2)
C6 C 0.4572(5) 0.2385(4) -0.2657(3)
H3 H 0.5003 0.2469 -0.3172
C7 C 0.3122(5) 0.1874(4) -0.3113(3)
H4 H 0.2569 0.1587 -0.3934
C8 C 0.2449(3) 0.1768(3) -0.2398(3)
H5 H 0.1441 0.1442 -0.2734
C9 C 0.3250(3) 0.2142(2) -0.1154(2)
C10 C 0.2511(10) 0.2234(9) -0.0404(9)
H6 H 0.3210 0.2941 0.0311
C11 C 0.2113(10) 0.1004(10) -0.0010(7)
H7 H 0.2952 0.0796 0.0334
H8 H 0.1367 0.0301 -0.0682
H9 H 0.1764 0.1124 0.0570
C12 C 0.1162(8) 0.2557(9) -0.0971(9)
H10 H 0.1418 0.3349 -0.1220
H11 H 0.0799 0.2670 -0.0398
H12 H 0.0426 0.1854 -0.1647
C13 C 0.7129(12) 0.3422(10) -0.0910(12)
H13 H 0.7488 0.4028 -0.0140
C14 C 0.7711(17) 0.4210(12) -0.1682(9)
H14 H 0.7355 0.4895 -0.1794
H15 H 0.7386 0.3639 -0.2441
H16 H 0.8753 0.4586 -0.1289
C15 C 0.7761(9) 0.2392(8) -0.0687(15)
H17 H 0.7391 0.1887 -0.0221
H18 H 0.8799 0.2809 -0.0264
H19 H 0.7493 0.1826 -0.1433
C16 C 0.7329(2) 0.26118(18) 0.34598(15)
C17 C 0.8718(2) 0.2606(2) 0.38947(18)
C18 C 0.9199(3) 0.2218(3) 0.4950(2)
H20 H 1.0118 0.2196 0.5269
C19 C 0.8339(3) 0.1870(3) 0.5527(2)
H21 H 0.8684 0.1622 0.6232
C20 C 0.6988(3) 0.1885(3) 0.5072(2)
H22 H 0.6421 0.1646 0.5473
C21 C 0.6435(2) 0.2247(2) 0.40223(17)
C22 C 0.4936(2) 0.2266(2) 0.3531(2)
H23 H 0.4661 0.2312 0.2703
C23 C 0.3801(3) 0.1031(3) 0.3530(3)
H24 H 0.3808 0.0278 0.3095
H25 H 0.2859 0.1062 0.3160
H26 H 0.4022 0.0975 0.4333
C24 C 0.4920(4) 0.3469(3) 0.4195(3)
H27 H 0.5629 0.4242 0.4181
H28 H 0.5146 0.3435 0.5004
H29 H 0.3974 0.3492 0.3820
C25 C 0.9681(13) 0.2965(11) 0.3347(14)
H30 H 0.9109 0.3138 0.2606
C26 C 1.1033(18) 0.4238(12) 0.3997(12)
H31 H 1.0755 0.4931 0.4196
H32 H 1.1501 0.4457 0.3491
H33 H 1.1692 0.4125 0.4711
C27 C 1.0186(19) 0.1917(14) 0.2940(18)
H34 H 0.9369 0.1098 0.2537
H35 H 1.0903 0.1812 0.3623
H36 H 1.0598 0.2198 0.2411
As1A As 0.43036(2) -0.041641(18) -0.107781(16)
N1A N 0.32024(16) -0.30300(14) -0.23903(12)
N2A N 0.43825(17) -0.30037(14) -0.05489(13)
C1A C 0.40037(18) -0.21955(16) -0.12638(14)
C2A C 0.3108(3) -0.42902(19) -0.23597(18)
H1A H 0.2628 -0.5014 -0.3009
C3A C 0.3826(3) -0.42768(19) -0.12339(19)
H2A H 0.3939 -0.4993 -0.0952
C4A C 0.5244(2) -0.26242(18) 0.07125(16)
C5A C 0.4545(3) -0.2794(3) 0.1439(2)
C6A C 0.5428(5) -0.2385(4) 0.2657(3)
H3A H 0.4997 -0.2469 0.3172
C7A C 0.6878(5) -0.1874(4) 0.3113(3)
H4A H 0.7431 -0.1587 0.3934
C8A C 0.7551(3) -0.1768(3) 0.2398(3)
H5A H 0.8559 -0.1442 0.2734
C9A C 0.6750(3) -0.2142(2) 0.1154(2)
C10A C 0.7489(10) -0.2234(9) 0.0404(9)
H6A H 0.6790 -0.2941 -0.0311
C11A C 0.7887(10) -0.1004(10) 0.0010(7)
H7A H 0.7048 -0.0796 -0.0334
H8A H 0.8633 -0.0301 0.0682
H9A H 0.8236 -0.1124 -0.0570
C12A C 0.8838(8) -0.2557(9) 0.0971(9)
H10A H 0.8582 -0.3349 0.1220
H11A H 0.9201 -0.2670 0.0398
H12A H 0.9574 -0.1854 0.1647
C13A C 0.2871(12) -0.3422(10) 0.0910(12)
H13A H 0.2512 -0.4028 0.0140
C14A C 0.2289(17) -0.4210(12) 0.1682(9)
H14A H 0.2645 -0.4895 0.1794
H15A H 0.2614 -0.3639 0.2441
H16A H 0.1247 -0.4586 0.1289
C15A C 0.2239(9) -0.2392(8) 0.0687(15)
H17A H 0.2609 -0.1887 0.0221
H18A H 0.1201 -0.2809 0.0264
H19A H 0.2507 -0.1826 0.1433
C16A C 0.2671(2) -0.26118(18) -0.34598(15)
C17A C 0.1282(2) -0.2606(2) -0.38947(18)
C18A C 0.0801(3) -0.2218(3) -0.4950(2)
H20A H -0.0118 -0.2196 -0.5269
C19A C 0.1661(3) -0.1870(3) -0.5527(2)
H21A H 0.1316 -0.1622 -0.6232
C20A C 0.3012(3) -0.1885(3) -0.5072(2)
H22A H 0.3579 -0.1646 -0.5473
C21A C 0.3565(2) -0.2247(2) -0.40223(17)
C22A C 0.5064(2) -0.2266(2) -0.3531(2)
H23A H 0.5339 -0.2312 -0.2703
C23A C 0.6199(3) -0.1031(3) -0.3530(3)
H24A H 0.6192 -0.0278 -0.3095
H25A H 0.7141 -0.1062 -0.3160
H26A H 0.5978 -0.0975 -0.4333
C24A C 0.5080(4) -0.3469(3) -0.4195(3)
H27A H 0.4371 -0.4242 -0.4181
H28A H 0.4854 -0.3435 -0.5004
H29A H 0.6026 -0.3492 -0.3820
C25A C 0.0319(13) -0.2965(11) -0.3347(14)
H30A H 0.0891 -0.3138 -0.2606
C26A C -0.1033(18) -0.4238(12) -0.3997(12)
H31A H -0.0755 -0.4931 -0.4196
H32A H -0.1501 -0.4457 -0.3491
H33A H -0.1692 -0.4125 -0.4711
C27A C -0.0186(19) -0.1917(14) -0.2940(18)
H34A H 0.0631 -0.1098 -0.2537
H35A H -0.0903 -0.1812 -0.3623
H36A H -0.0598 -0.2198 -0.2411
C28? C 0.2549(12) 0.1803(10) -0.0261(13)
C29? C 0.1169(10) 0.0594(9) -0.0734(12)
C30? C 0.2324(13) 0.2997(8) 0.0177(11)
C31? C 0.691(4) 0.328(3) -0.103(4)
C32? C 0.738(4) 0.453(2) -0.147(3)
C33? C 0.750(3) 0.231(2) -0.136(4)
C34? C 0.9619(11) 0.3032(12) 0.3166(14)
C35? C 1.0414(17) 0.4501(12) 0.3585(15)
C36? C 1.0633(18) 0.228(2) 0.3438(16)
H37? H 0.3269 0.1674 0.0428
H38? H 0.0842 0.0482 -0.0128
H39? H 0.1350 -0.0156 -0.0960
H40? H 0.0437 0.0686 -0.1415
H41? H 0.1907 0.2821 0.0722
H42? H 0.1683 0.3197 -0.0487
H43? H 0.3242 0.3729 0.0574
H44? H 0.7337 0.3549 -0.0165
H45? H 0.6909 0.5086 -0.1323
H46? H 0.7105 0.4293 -0.2303
H47? H 0.8412 0.4998 -0.1042
H48? H 0.7346 0.1620 -0.0963
H49? H 0.8526 0.2747 -0.1115
H50? H 0.7016 0.1939 -0.2204
H51? H 0.8967 0.2772 0.2314
H52? H 0.9726 0.4906 0.3354
H53? H 1.1066 0.4778 0.3232
H54? H 1.0955 0.4753 0.4436
H55? H 1.1210 0.2484 0.3012
H56? H 1.0061 0.1357 0.3195
H57? H 1.1258 0.2534 0.4276
loop_
_geom_bond_atom_site_label_1
_geom_bond_atom_site_label_2
_geom_bond_site_symmetry_1
_geom_bond_site_symmetry_2
As1 C1 1_555 1_555
N1 C1 1_555 1_555
N2 C1 1_555 1_555
C2 N1 1_555 1_555
H1 C2 1_555 1_555
C3 N2 1_555 1_555
H2 C3 1_555 1_555
C4 N2 1_555 1_555
C5 C4 1_555 1_555
C6 C5 1_555 1_555
H3 C6 1_555 1_555
C7 C6 1_555 1_555
H4 C7 1_555 1_555
C8 C7 1_555 1_555
H5 C8 1_555 1_555
C9 C4 1_555 1_555
C10 C9 1_555 1_555
H6 C10 1_555 1_555
C11 C10 1_555 1_555
H7 C11 1_555 1_555
H8 C11 1_555 1_555
H9 C11 1_555 1_555
C12 C10 1_555 1_555
H10 C12 1_555 1_555
H11 C12 1_555 1_555
H12 C12 1_555 1_555
C13 C5 1_555 1_555
H13 C13 1_555 1_555
C14 C13 1_555 1_555
H14 C14 1_555 1_555
H15 C14 1_555 1_555
H16 C14 1_555 1_555
C15 C13 1_555 1_555
H17 C15 1_555 1_555
H18 C15 1_555 1_555
H19 C15 1_555 1_555
C16 N1 1_555 1_555
C17 C16 1_555 1_555
C18 C17 1_555 1_555
H20 C18 1_555 1_555
C19 C18 1_555 1_555
H21 C19 1_555 1_555
C20 C19 1_555 1_555
H22 C20 1_555 1_555
C21 C16 1_555 1_555
C22 C21 1_555 1_555
H23 C22 1_555 1_555
C23 C22 1_555 1_555
H24 C23 1_555 1_555
H25 C23 1_555 1_555
H26 C23 1_555 1_555
C24 C22 1_555 1_555
H27 C24 1_555 1_555
H28 C24 1_555 1_555
H29 C24 1_555 1_555
C25 C17 1_555 1_555
H30 C25 1_555 1_555
C26 C25 1_555 1_555
H31 C26 1_555 1_555
H32 C26 1_555 1_555
H33 C26 1_555 1_555
C27 C25 1_555 1_555
H34 C27 1_555 1_555
H35 C27 1_555 1_555
H36 C27 1_555 1_555
As1A As1 1_555 1_555
N1A C1A 1_555 1_555
N2A C1A 1_555 1_555
C1A As1A 1_555 1_555
C2A N1A 1_555 1_555
H1A C2A 1_555 1_555
C3A N2A 1_555 1_555
H2A C3A 1_555 1_555
C4A N2A 1_555 1_555
C5A C4A 1_555 1_555
C6A C5A 1_555 1_555
H3A C6A 1_555 1_555
C7A C6A 1_555 1_555
H4A C7A 1_555 1_555
C8A C7A 1_555 1_555
H5A C8A 1_555 1_555
C9A C4A 1_555 1_555
C10A C9A 1_555 1_555
H6A C10A 1_555 1_555
C11A C10A 1_555 1_555
H7A C11A 1_555 1_555
H8A C11A 1_555 1_555
H9A C11A 1_555 1_555
C12A C10A 1_555 1_555
H10A C12A 1_555 1_555
H11A C12A 1_555 1_555
H12A C12A 1_555 1_555
C13A C5A 1_555 1_555
H13A C13A 1_555 1_555
C14A C13A 1_555 1_555
H14A C14A 1_555 1_555
H15A C14A 1_555 1_555
H16A C14A 1_555 1_555
C15A C13A 1_555 1_555
H17A C15A 1_555 1_555
H18A C15A 1_555 1_555
H19A C15A 1_555 1_555
C16A N1A 1_555 1_555
C17A C16A 1_555 1_555
C18A C17A 1_555 1_555
H20A C18A 1_555 1_555
C19A C18A 1_555 1_555
H21A C19A 1_555 1_555
C20A C19A 1_555 1_555
H22A C20A 1_555 1_555
C21A C16A 1_555 1_555
C22A C21A 1_555 1_555
H23A C22A 1_555 1_555
C23A C22A 1_555 1_555
H24A C23A 1_555 1_555
H25A C23A 1_555 1_555
H26A C23A 1_555 1_555
C24A C22A 1_555 1_555
H27A C24A 1_555 1_555
H28A C24A 1_555 1_555
H29A C24A 1_555 1_555
C25A C17A 1_555 1_555
H30A C25A 1_555 1_555
C26A C25A 1_555 1_555
H31A C26A 1_555 1_555
H32A C26A 1_555 1_555
H33A C26A 1_555 1_555
C27A C25A 1_555 1_555
H34A C27A 1_555 1_555
H35A C27A 1_555 1_555
H36A C27A 1_555 1_555
C2 C3 1_555 1_555
C8 C9 1_555 1_555
C20 C21 1_555 1_555
C2A C3A 1_555 1_555
C8A C9A 1_555 1_555
C20A C21A 1_555 1_555

#END
