
#######################################################################
#
#                 Cambridge Crystallographic Data Centre
#                                CCDC 
#
#######################################################################
#
# If this CIF has been generated from an entry in the Cambridge 
# Structural Database, then it will include bibliographic, chemical, 
# crystal, experimental, refinement or atomic coordinate data resulting 
# from the CCDC's data processing and validation procedures.
#
#######################################################################

data_AJIZAU
_chemical_compound_source        
'endophytic fungus, Tubercularia sp., found in inner bark of Taxus mairei'
_chemical_name_common            5-Carboxymellein
_chemical_formula_moiety         'C11 H10 O5'
_chemical_name_systematic        
'8-Hydroxy-(S)-3-methyl-1-oxoisochromane-5-carboxylic acid'
_symmetry_cell_setting           monoclinic
_symmetry_space_group_name_H-M   'P 21'
_symmetry_Int_Tables_number      4
_space_group_name_Hall           'P 2yb'
loop_
_symmetry_equiv_pos_site_id
_symmetry_equiv_pos_as_xyz
1 x,y,z
2 -x,1/2+y,-z
_cell_length_a                   7.3351(4)
_cell_length_b                   9.0510(5)
_cell_length_c                   7.4211(5)
_cell_angle_alpha                90
_cell_angle_beta                 101.723(3)
_cell_angle_gamma                90
_cell_volume                     482.41
_exptl_crystal_colour            colorless
_exptl_crystal_description       plate
_cell_formula_units_Z            2
loop_
_atom_site_label
_atom_site_type_symbol
_atom_site_fract_x
_atom_site_fract_y
_atom_site_fract_z
O1 O 0.1754(6) 0.4999(4) 0.4401(6)
O2 O 0.3626(6) 0.5466(5) 0.7055(6)
O3 O 0.4325(6) -0.1346(5) 0.7679(5)
O4 O 0.1985(6) -0.2027(5) 0.4657(6)
O5 O 0.1254(5) -0.0469(4) 0.2428(5)
C1 C 0.2898(7) 0.4602(6) 0.5942(7)
C2 C 0.3238(7) 0.2995(6) 0.6155(7)
C3 C 0.4332(9) 0.2578(7) 0.7855(7)
C4 C 0.4724(7) 0.1131(6) 0.8296(7)
C5 C 0.3946(8) 0.0033(6) 0.7103(8)
C6 C 0.2898(7) 0.0413(7) 0.5374(7)
C7 C 0.2549(7) 0.1905(6) 0.4880(6)
C8 C 0.2028(7) -0.0758(7) 0.4124(7)
C9 C 0.1390(8) 0.2185(6) 0.2988(7)
C10 C 0.1635(8) 0.0972(6) 0.1676(6)
C11 C 0.0335(9) 0.1096(9) -0.0148(8)
H1 H 0.195(8) 0.592(2) 0.439(9)
H2 H 0.373(8) -0.200(6) 0.697(8)
H3 H 0.4804 0.3306 0.8706
H4 H 0.5516 0.0888 0.9401
H5 H 0.0088 0.2251 0.3064
H6 H 0.1751 0.3120 0.2527
H7 H 0.2920 0.0985 0.1491
H8 H 0.0566 0.0304 -0.0931
H9 H 0.0529 0.2025 -0.0705
H10 H -0.0927 0.1041 0.0020
loop_
_geom_bond_atom_site_label_1
_geom_bond_atom_site_label_2
_geom_bond_site_symmetry_1
_geom_bond_site_symmetry_2
O1 C1 1_555 1_555
O2 C1 1_555 1_555
O3 C5 1_555 1_555
O4 C8 1_555 1_555
O5 C8 1_555 1_555
C1 C2 1_555 1_555
C2 C3 1_555 1_555
C3 C4 1_555 1_555
C4 C5 1_555 1_555
C5 C6 1_555 1_555
C6 C7 1_555 1_555
C7 C2 1_555 1_555
C8 C6 1_555 1_555
C9 C7 1_555 1_555
C10 O5 1_555 1_555
C11 C10 1_555 1_555
H1 O1 1_555 1_555
H2 O3 1_555 1_555
H3 C3 1_555 1_555
H4 C4 1_555 1_555
H5 C9 1_555 1_555
H6 C9 1_555 1_555
H7 C10 1_555 1_555
H8 C11 1_555 1_555
H9 C11 1_555 1_555
H10 C11 1_555 1_555
C9 C10 1_555 1_555

#END
