
#######################################################################
#
#                 Cambridge Crystallographic Data Centre
#                                CCDC 
#
#######################################################################
#
# If this CIF has been generated from an entry in the Cambridge 
# Structural Database, then it will include bibliographic, chemical, 
# crystal, experimental, refinement or atomic coordinate data resulting 
# from the CCDC's data processing and validation procedures.
#
#######################################################################

data_AJOBOS
_chemical_formula_moiety         'C17 H12 O2'
_chemical_name_systematic        
6,11-dihydro-12H-benzo[e]indeno[1,2-b]oxepin-12-one
_symmetry_cell_setting           monoclinic
_symmetry_space_group_name_H-M   'P 21/n'
_symmetry_Int_Tables_number      14
_space_group_name_Hall           '-P 2yn'
loop_
_symmetry_equiv_pos_site_id
_symmetry_equiv_pos_as_xyz
1 x,y,z
2 1/2-x,1/2+y,1/2-z
3 -x,-y,-z
4 1/2+x,1/2-y,1/2+z
_cell_length_a                   8.7147(13)
_cell_length_b                   11.8628(18)
_cell_length_c                   12.0560(18)
_cell_angle_alpha                90
_cell_angle_beta                 101.391(3)
_cell_angle_gamma                90
_cell_volume                     1221.81
_exptl_crystal_colour            yellow
_exptl_crystal_description       block
_cell_formula_units_Z            4
loop_
_atom_site_label
_atom_site_type_symbol
_atom_site_fract_x
_atom_site_fract_y
_atom_site_fract_z
O1 O 0.3706(2) 1.00147(16) 0.18729(16)
C1 C 0.6168(2) 0.69304(17) 0.26964(18)
O2 O 0.83939(16) 0.87081(12) 0.42007(13)
C2 C 0.6740(2) 1.03267(16) 0.42275(18)
C3 C 0.6649(3) 0.50613(19) 0.4130(2)
H1 H 0.6804 0.4447 0.4620
C4 C 0.5288(3) 0.5157(2) 0.3334(2)
H2 H 0.4526 0.4599 0.3274
C5 C 0.5053(3) 0.60853(19) 0.2621(2)
H3 H 0.4131 0.6142 0.2083
C6 C 0.5871(3) 0.79895(19) 0.20057(19)
H4 H 0.4823 0.7967 0.1547
H5 H 0.6607 0.8035 0.1500
C7 C 0.6038(2) 0.90175(17) 0.27528(17)
C8 C 0.4874(3) 0.99334(18) 0.2615(2)
C9 C 0.5358(2) 1.07352(18) 0.35673(19)
C10 C 0.4674(3) 1.17104(19) 0.3872(2)
H6 H 0.3752 1.1988 0.3434
C11 C 0.5407(3) 1.22644(19) 0.4853(2)
H7 H 0.4966 1.2917 0.5080
C12 C 0.7115(2) 0.92639(16) 0.36847(18)
C13 C 0.8791(2) 0.77113(17) 0.3611(2)
H8 H 0.9775 0.7407 0.4019
H9 H 0.8936 0.7928 0.2862
C14 C 0.7559(2) 0.68101(17) 0.34965(18)
C15 C 0.7781(3) 0.58853(17) 0.41963(19)
H10 H 0.8712 0.5813 0.4724
C16 C 0.7471(3) 1.08778(18) 0.5177(2)
H11 H 0.8405 1.0610 0.5607
C17 C 0.6773(3) 1.1854(2) 0.5484(2)
H12 H 0.7247 1.2238 0.6134
loop_
_geom_bond_atom_site_label_1
_geom_bond_atom_site_label_2
_geom_bond_site_symmetry_1
_geom_bond_site_symmetry_2
O1 C8 1_555 1_555
C1 C5 1_555 1_555
O2 C12 1_555 1_555
C2 C9 1_555 1_555
C3 H1 1_555 1_555
C4 C3 1_555 1_555
H2 C4 1_555 1_555
C5 C4 1_555 1_555
H3 C5 1_555 1_555
C6 C1 1_555 1_555
H4 C6 1_555 1_555
H5 C6 1_555 1_555
C7 C6 1_555 1_555
C8 C7 1_555 1_555
C9 C8 1_555 1_555
C10 C9 1_555 1_555
H6 C10 1_555 1_555
C11 C10 1_555 1_555
H7 C11 1_555 1_555
C12 C2 1_555 1_555
C13 O2 1_555 1_555
H8 C13 1_555 1_555
H9 C13 1_555 1_555
C14 C1 1_555 1_555
C15 C3 1_555 1_555
H10 C15 1_555 1_555
C16 C2 1_555 1_555
H11 C16 1_555 1_555
C17 C11 1_555 1_555
H12 C17 1_555 1_555
C7 C12 1_555 1_555
C13 C14 1_555 1_555
C14 C15 1_555 1_555
C16 C17 1_555 1_555

#END
