
#######################################################################
#
#                 Cambridge Crystallographic Data Centre
#                                CCDC 
#
#######################################################################
#
# If this CIF has been generated from an entry in the Cambridge 
# Structural Database, then it will include bibliographic, chemical, 
# crystal, experimental, refinement or atomic coordinate data resulting 
# from the CCDC's data processing and validation procedures.
#
#######################################################################

data_AJOGOX
_chemical_name_common            
"N,N'-(4-ethylpyridine-2,6-diyl)bis(2-methylpropanamide) 1,5,7-trimethyl-7-(phenylethynyl)-3-azabicyclo[3.3.1]nonane-2,4-dione"
_chemical_formula_moiety         'C19 H21 N1 O2,C15 H23 N3 O2'
_chemical_name_systematic        
"(1R,5S,7r)-1,5,7-Trimethyl-7-(phenylethynyl)-3-azabicyclo[3.3.1]nonane-2,4-dione N,N'-(4-ethylpyridine-2,6-diyl)bis(2-methylpropanamide)"
_symmetry_cell_setting           triclinic
_symmetry_space_group_name_H-M   'P -1'
_symmetry_Int_Tables_number      2
_space_group_name_Hall           '-P 1'
loop_
_symmetry_equiv_pos_site_id
_symmetry_equiv_pos_as_xyz
1 x,y,z
2 -x,-y,-z
_cell_length_a                   12.2222(4)
_cell_length_b                   12.5584(4)
_cell_length_c                   13.3069(5)
_cell_angle_alpha                107.2150(10)
_cell_angle_beta                 100.5380(10)
_cell_angle_gamma                117.9690(10)
_cell_volume                     1592.93
_exptl_crystal_colour            colorless
_exptl_crystal_description       block
_cell_formula_units_Z            2
loop_
_atom_site_label
_atom_site_type_symbol
_atom_site_fract_x
_atom_site_fract_y
_atom_site_fract_z
O1 O 0.25327(9) 0.34061(9) 0.49742(7)
O2 O 0.36077(9) 0.31618(10) 0.19126(7)
N1 N 0.31022(9) 0.34184(10) 0.34687(8)
H1 H 0.3730(13) 0.3291(13) 0.3757(11)
C1 C -0.01135(11) 0.22111(11) 0.28349(9)
H2 H -0.0284 0.1718 0.3308
H3 H -0.0857 0.2332 0.2646
C2 C 0.23105(11) 0.34745(11) 0.40734(9)
C3 C 0.11988(11) 0.36158(11) 0.35657(9)
C4 C -0.01691(11) 0.13203(11) 0.17160(9)
C5 C 0.04671(11) 0.06049(11) 0.18928(9)
C6 C 0.08975(12) -0.00751(11) 0.19103(9)
C7 C 0.14233(11) -0.08926(11) 0.18442(9)
C8 C 0.27422(12) -0.03749(12) 0.19214(10)
H4 H 0.3303 0.0532 0.2054
C9 C 0.32376(13) -0.11754(13) 0.18063(10)
H5 H 0.4141 -0.0813 0.1872
C10 C 0.24204(13) -0.25036(13) 0.15949(10)
H6 H 0.2759 -0.3054 0.1507
C11 C 0.11121(13) -0.30280(12) 0.15115(10)
H7 H 0.0552 -0.3941 0.1363
C12 C 0.06134(12) -0.22284(12) 0.16431(10)
H8 H -0.0283 -0.2591 0.1596
C13 C -0.16527(12) 0.02434(12) 0.09364(10)
H9 H -0.2084 -0.0305 0.1311
H10 H -0.1711 -0.0331 0.0217
H11 H -0.2107 0.0681 0.0785
C14 C 0.04958(11) 0.21646(11) 0.11059(9)
H12 H 0.0653 0.1628 0.0510
H13 H -0.0145 0.2324 0.0717
C15 C 0.18303(11) 0.35308(11) 0.18649(9)
C16 C 0.29064(11) 0.33469(11) 0.23899(9)
C17 C 0.22983(12) 0.42568(13) 0.11359(10)
H14 H 0.2444 0.3722 0.0539
H15 H 0.3138 0.5136 0.1616
H16 H 0.1613 0.4378 0.0785
C18 C 0.16015(11) 0.43309(11) 0.28169(9)
H17 H 0.0886 0.4436 0.2483
H18 H 0.2433 0.5237 0.3287
C19 C 0.09668(12) 0.44080(12) 0.45190(10)
H19 H 0.0192 0.4425 0.4191
H20 H 0.1763 0.5329 0.4947
H21 H 0.0796 0.3979 0.5031
N2 N 0.43141(10) 0.26995(10) 0.58618(8)
H22 H 0.3853(13) 0.2979(13) 0.5552(11)
O3 O 0.75816(9) 0.29869(10) 0.26192(8)
O4 O 0.47708(9) 0.22335(9) 0.73629(7)
N3 N 0.57696(10) 0.28949(10) 0.29277(8)
H23 H 0.5137(13) 0.3036(13) 0.2719(11)
N4 N 0.50801(9) 0.27505(9) 0.44109(8)
C20 C 0.50728(10) 0.24245(11) 0.52861(9)
C21 C 0.57601(11) 0.18754(11) 0.56010(9)
H24 H 0.5750 0.1684 0.6240
C22 C 0.76252(14) 0.43444(15) 0.12906(13)
H25 H 0.8210 0.5182 0.1994
H26 H 0.7415 0.4547 0.0653
H27 H 0.8082 0.3883 0.1148
C23 C 0.63335(12) 0.34442(13) 0.14099(10)
H28 H 0.5880 0.3926 0.1573
C24 C 0.66473(11) 0.31014(12) 0.23816(9)
C25 C 0.57813(11) 0.25081(11) 0.38144(9)
C26 C 0.41741(11) 0.25632(12) 0.68237(9)
C27 C 0.31589(13) 0.28097(13) 0.71554(10)
H29 H 0.3128 0.3474 0.6904
C28 C 0.17866(14) 0.14774(17) 0.65358(13)
H30 H 0.1526 0.1182 0.5712
H31 H 0.1122 0.1597 0.6771
H32 H 0.1833 0.0799 0.6727
C29 C 0.35643(16) 0.33673(16) 0.84410(11)
H33 H 0.3601 0.2722 0.8692
H34 H 0.2905 0.3523 0.8647
H35 H 0.4448 0.4216 0.8811
C30 C 0.53840(14) 0.21296(16) 0.03310(11)
H36 H 0.5207 0.2322 -0.0320
H37 H 0.4540 0.1602 0.0414
H38 H 0.5795 0.1619 0.0205
C31 C 0.64559(11) 0.19206(11) 0.40410(9)
H39 H 0.6906 0.1732 0.3576
C32 C 0.64582(11) 0.16155(11) 0.49613(9)
C33 C 0.72377(12) 0.10392(12) 0.52670(10)
H40 H 0.6883 0.0173 0.4619
H41 H 0.7110 0.0861 0.5927
C34 C 0.87243(13) 0.19790(15) 0.55568(12)
H42 H 0.8859 0.2124 0.4893
H43 H 0.9196 0.1579 0.5770
H44 H 0.9078 0.2840 0.6194
loop_
_geom_bond_atom_site_label_1
_geom_bond_atom_site_label_2
_geom_bond_site_symmetry_1
_geom_bond_site_symmetry_2
O1 C2 1_555 1_555
O2 C16 1_555 1_555
N1 H1 1_555 1_555
C1 H2 1_555 1_555
H3 C1 1_555 1_555
C2 N1 1_555 1_555
C3 C1 1_555 1_555
C4 C1 1_555 1_555
C5 C4 1_555 1_555
C6 C5 1_555 1_555
C7 C6 1_555 1_555
C8 C7 1_555 1_555
H4 C8 1_555 1_555
C9 C8 1_555 1_555
H5 C9 1_555 1_555
C10 C9 1_555 1_555
H6 C10 1_555 1_555
C11 C10 1_555 1_555
H7 C11 1_555 1_555
C12 C7 1_555 1_555
H8 C12 1_555 1_555
C13 C4 1_555 1_555
H9 C13 1_555 1_555
H10 C13 1_555 1_555
H11 C13 1_555 1_555
C14 C4 1_555 1_555
H12 C14 1_555 1_555
H13 C14 1_555 1_555
C15 C14 1_555 1_555
C16 N1 1_555 1_555
C17 C15 1_555 1_555
H14 C17 1_555 1_555
H15 C17 1_555 1_555
H16 C17 1_555 1_555
C18 C3 1_555 1_555
H17 C18 1_555 1_555
H18 C18 1_555 1_555
C19 C3 1_555 1_555
H19 C19 1_555 1_555
H20 C19 1_555 1_555
H21 C19 1_555 1_555
N2 H22 1_555 1_555
O3 C24 1_555 1_555
O4 C26 1_555 1_555
N3 H23 1_555 1_555
N4 C20 1_555 1_555
C20 N2 1_555 1_555
C21 C20 1_555 1_555
H24 C21 1_555 1_555
C22 H25 1_555 1_555
H26 C22 1_555 1_555
H27 C22 1_555 1_555
C23 C22 1_555 1_555
H28 C23 1_555 1_555
C24 N3 1_555 1_555
C25 N3 1_555 1_555
C26 N2 1_555 1_555
C27 C26 1_555 1_555
H29 C27 1_555 1_555
C28 C27 1_555 1_555
H30 C28 1_555 1_555
H31 C28 1_555 1_555
H32 C28 1_555 1_555
C29 C27 1_555 1_555
H33 C29 1_555 1_555
H34 C29 1_555 1_555
H35 C29 1_555 1_555
C30 C23 1_555 1_555
H36 C30 1_555 1_555
H37 C30 1_555 1_555
H38 C30 1_555 1_555
C31 C25 1_555 1_555
H39 C31 1_555 1_555
C32 C21 1_555 1_555
C33 C32 1_555 1_555
H40 C33 1_555 1_555
H41 C33 1_555 1_555
C34 C33 1_555 1_555
H42 C34 1_555 1_555
H43 C34 1_555 1_555
H44 C34 1_555 1_555
C2 C3 1_555 1_555
C11 C12 1_555 1_555
C15 C16 1_555 1_555
C15 C18 1_555 1_555
N4 C25 1_555 1_555
C23 C24 1_555 1_555
C31 C32 1_555 1_555

#END
