
#######################################################################
#
#                 Cambridge Crystallographic Data Centre
#                                CCDC 
#
#######################################################################
#
# If this CIF has been generated from an entry in the Cambridge 
# Structural Database, then it will include bibliographic, chemical, 
# crystal, experimental, refinement or atomic coordinate data resulting 
# from the CCDC's data processing and validation procedures.
#
#######################################################################

data_AJOGAJ
_chemical_name_common            
"N,N'-pyridine-2,6-diylbis(2-methylpropanamide) 1,5,7-trimethyl-7-((4-(pyrazin-2-yl)phenyl)ethynyl)-3-azabicyclo[3.3.1]nonane-2,4-dione"
_chemical_formula_moiety         'C23 H23 N3 O2,C13 H19 N3 O2'
_chemical_name_systematic        
"(1R,5S,7r)-1,5,7-Trimethyl-7-([4-(pyrazin-2-yl)phenyl]ethynyl)-3-azabicyclo[3.3.1]nonane-2,4-dione N,N'-(pyridine-2,6-diyl)bis(2-methylpropanamide)"
_symmetry_cell_setting           monoclinic
_symmetry_space_group_name_H-M   'P 21/c'
_symmetry_Int_Tables_number      14
_space_group_name_Hall           '-P 2ybc'
loop_
_symmetry_equiv_pos_site_id
_symmetry_equiv_pos_as_xyz
1 x,y,z
2 -x,1/2+y,1/2-z
3 -x,-y,-z
4 x,1/2-y,1/2+z
_cell_length_a                   20.8422(11)
_cell_length_b                   7.5611(3)
_cell_length_c                   22.9226(11)
_cell_angle_alpha                90
_cell_angle_beta                 113.060(2)
_cell_angle_gamma                90
_cell_volume                     3323.73
_exptl_crystal_colour            colorless
_exptl_crystal_description       plate
_cell_formula_units_Z            4
loop_
_atom_site_label
_atom_site_type_symbol
_atom_site_fract_x
_atom_site_fract_y
_atom_site_fract_z
N1 N 0.14878(8) 0.65038(18) 0.33515(6)
H1 H 0.1369(9) 0.674(2) 0.2928(6)
O1 O 0.11650(8) 0.69553(19) 0.41815(6)
O2 O 0.47343(7) 0.48661(16) 0.40807(6)
N2 N 0.25999(7) 0.60726(16) 0.33995(6)
N3 N 0.36963(7) 0.59566(17) 0.33937(6)
H2 H 0.3499(9) 0.661(2) 0.3025(7)
C1 C 0.05949(10) 1.0160(2) 0.33445(9)
H3 H 0.0197 1.0873 0.3073
H4 H 0.1013 1.0510 0.3276
H5 H 0.0672 1.0352 0.3790
C2 C 0.04430(10) 0.8210(2) 0.31808(8)
H6 H 0.0391 0.8009 0.2733
C3 C 0.10564(10) 0.7140(2) 0.36224(8)
C4 C 0.21507(9) 0.5756(2) 0.36740(7)
C5 C 0.32550(9) 0.54767(19) 0.36939(7)
C6 C 0.44026(9) 0.5759(2) 0.36180(8)
C7 C 0.47586(9) 0.6700(2) 0.32385(8)
H7 H 0.4464 0.7728 0.3013
C8 C 0.48197(12) 0.5426(3) 0.27457(9)
H8 H 0.5064 0.6011 0.2511
H9 H 0.4353 0.5075 0.2450
H10 H 0.5081 0.4374 0.2959
C9 C -0.02248(10) 0.7658(3) 0.32490(10)
H11 H -0.0326 0.6417 0.3123
H12 H -0.0611 0.8402 0.2976
H13 H -0.0168 0.7799 0.3691
C10 C 0.54661(10) 0.7386(3) 0.36843(9)
H14 H 0.5404 0.8220 0.3986
H15 H 0.5694 0.7988 0.3438
H16 H 0.5756 0.6393 0.3917
C11 C 0.34767(10) 0.4527(2) 0.42607(7)
H17 H 0.3944 0.4124 0.4462
C12 C 0.29906(10) 0.4198(2) 0.45162(8)
H18 H 0.3124 0.3542 0.4899
C13 C 0.23159(9) 0.4799(2) 0.42283(7)
H19 H 0.1979 0.4567 0.4402
O3 O 0.32021(6) 0.75607(15) 0.21569(5)
N4 N 0.20862(7) 0.74600(17) 0.20473(6)
H20 H 0.2257(9) 0.715(2) 0.2466(6)
O4 O 0.10008(6) 0.70155(16) 0.19837(5)
N5 N 0.35898(8) -0.12254(19) 0.52269(7)
C14 C 0.17888(9) 0.4978(2) 0.07596(7)
N6 N 0.42418(7) -0.10598(17) 0.43700(6)
C15 C 0.42147(10) -0.1919(2) 0.53572(8)
H21 H 0.4448 -0.2492 0.5753
C16 C 0.32874(10) -0.0483(2) 0.46561(7)
H22 H 0.2835 0.0009 0.4540
C17 C 0.36001(9) -0.0392(2) 0.42224(7)
C18 C 0.32591(9) 0.04524(19) 0.35940(7)
C19 C 0.25439(9) 0.0730(2) 0.33264(7)
H23 H 0.2265 0.0313 0.3540
C20 C 0.22310(9) 0.1603(2) 0.27547(8)
H24 H 0.1741 0.1783 0.2581
C21 C 0.26294(9) 0.22182(19) 0.24328(7)
C22 C 0.23148(9) 0.3174(2) 0.18467(8)
C23 C 0.20650(9) 0.4011(2) 0.13689(7)
C24 C 0.23174(10) 0.6360(2) 0.07351(7)
H25 H 0.2206 0.6663 0.0286
H26 H 0.2787 0.5818 0.0906
C25 C 0.23447(9) 0.8089(2) 0.11029(7)
C26 C 0.16187(9) 0.8883(2) 0.08675(7)
H27 H 0.1452 0.9115 0.0407
H28 H 0.1634 1.0024 0.1084
C27 C 0.25909(9) 0.76801(19) 0.18060(7)
C28 C 0.13835(9) 0.7334(2) 0.17073(7)
C29 C 0.11156(9) 0.7635(2) 0.09944(7)
C30 C 0.28720(10) 0.9341(2) 0.10085(8)
H29 H 0.2736 0.9569 0.0555
H30 H 0.3336 0.8799 0.1182
H31 H 0.2882 1.0459 0.1228
C31 C 0.45365(10) -0.1832(2) 0.49339(8)
H32 H 0.4986 -0.2345 0.5050
C32 C 0.36543(9) 0.1037(2) 0.32651(7)
H33 H 0.4143 0.0838 0.3436
C33 C 0.33445(9) 0.1903(2) 0.26924(7)
H34 H 0.3623 0.2288 0.2473
C34 C 0.16800(11) 0.3612(2) 0.02299(8)
H35 H 0.2122 0.3014 0.0305
H36 H 0.1516 0.4216 -0.0181
H37 H 0.1333 0.2738 0.0229
C35 C 0.10865(9) 0.5865(2) 0.06447(7)
H38 H 0.0800 0.5023 0.0770
H39 H 0.0842 0.6078 0.0184
C36 C 0.03816(10) 0.8400(2) 0.07628(8)
H40 H 0.0394 0.9540 0.0970
H41 H 0.0077 0.7582 0.0867
H42 H 0.0202 0.8568 0.0302
loop_
_geom_bond_atom_site_label_1
_geom_bond_atom_site_label_2
_geom_bond_site_symmetry_1
_geom_bond_site_symmetry_2
N1 H1 1_555 1_555
O1 C3 1_555 1_555
O2 C6 1_555 1_555
N2 C4 1_555 1_555
N3 H2 1_555 1_555
C1 H3 1_555 1_555
H4 C1 1_555 1_555
H5 C1 1_555 1_555
C2 C1 1_555 1_555
H6 C2 1_555 1_555
C3 N1 1_555 1_555
C4 N1 1_555 1_555
C5 N2 1_555 1_555
C6 N3 1_555 1_555
C7 C6 1_555 1_555
H7 C7 1_555 1_555
C8 C7 1_555 1_555
H8 C8 1_555 1_555
H9 C8 1_555 1_555
H10 C8 1_555 1_555
C9 C2 1_555 1_555
H11 C9 1_555 1_555
H12 C9 1_555 1_555
H13 C9 1_555 1_555
C10 C7 1_555 1_555
H14 C10 1_555 1_555
H15 C10 1_555 1_555
H16 C10 1_555 1_555
C11 C5 1_555 1_555
H17 C11 1_555 1_555
C12 C11 1_555 1_555
H18 C12 1_555 1_555
C13 C4 1_555 1_555
H19 C13 1_555 1_555
O3 C27 1_555 1_555
N4 H20 1_555 1_555
O4 C28 1_555 1_555
N5 C15 1_555 1_555
C14 C23 1_555 1_555
N6 C17 1_555 1_555
C15 H21 1_555 1_555
C16 N5 1_555 1_555
H22 C16 1_555 1_555
C17 C16 1_555 1_555
C18 C17 1_555 1_555
C19 C18 1_555 1_555
H23 C19 1_555 1_555
C20 C19 1_555 1_555
H24 C20 1_555 1_555
C21 C20 1_555 1_555
C22 C21 1_555 1_555
C23 C22 1_555 1_555
C24 C14 1_555 1_555
H25 C24 1_555 1_555
H26 C24 1_555 1_555
C25 C24 1_555 1_555
C26 C25 1_555 1_555
H27 C26 1_555 1_555
H28 C26 1_555 1_555
C27 N4 1_555 1_555
C28 N4 1_555 1_555
C29 C26 1_555 1_555
C30 C25 1_555 1_555
H29 C30 1_555 1_555
H30 C30 1_555 1_555
H31 C30 1_555 1_555
C31 N6 1_555 1_555
H32 C31 1_555 1_555
C32 C18 1_555 1_555
H33 C32 1_555 1_555
C33 C21 1_555 1_555
H34 C33 1_555 1_555
C34 C14 1_555 1_555
H35 C34 1_555 1_555
H36 C34 1_555 1_555
H37 C34 1_555 1_555
C35 C14 1_555 1_555
H38 C35 1_555 1_555
H39 C35 1_555 1_555
C36 C29 1_555 1_555
H40 C36 1_555 1_555
H41 C36 1_555 1_555
H42 C36 1_555 1_555
N3 C5 1_555 1_555
C2 C3 1_555 1_555
C12 C13 1_555 1_555
C15 C31 1_555 1_555
C25 C27 1_555 1_555
C28 C29 1_555 1_555
C29 C35 1_555 1_555
C32 C33 1_555 1_555

#END
