
#######################################################################
#
#                 Cambridge Crystallographic Data Centre
#                                CCDC 
#
#######################################################################
#
# If this CIF has been generated from an entry in the Cambridge 
# Structural Database, then it will include bibliographic, chemical, 
# crystal, experimental, refinement or atomic coordinate data resulting 
# from the CCDC's data processing and validation procedures.
#
#######################################################################

data_AJOHEO
_chemical_name_common            
N,N'-(4-(Methylthio)pyridine-2,6-diyl)bis(2-methylpropanamide)
_chemical_formula_moiety         'C14 H21 N3 O2 S1'
_chemical_name_systematic        
N,N'-(4-(methylsulfanyl)pyridine-2,6-diyl)bis(2-methylpropanamide)
_symmetry_cell_setting           monoclinic
_symmetry_space_group_name_H-M   'P 21/c'
_symmetry_Int_Tables_number      14
_space_group_name_Hall           '-P 2ybc'
loop_
_symmetry_equiv_pos_site_id
_symmetry_equiv_pos_as_xyz
1 x,y,z
2 -x,1/2+y,1/2-z
3 -x,-y,-z
4 x,1/2-y,1/2+z
_cell_length_a                   14.827(3)
_cell_length_b                   16.789(3)
_cell_length_c                   13.356(2)
_cell_angle_alpha                90
_cell_angle_beta                 106.902(4)
_cell_angle_gamma                90
_cell_volume                     3181.1
_exptl_crystal_colour            colorless
_exptl_crystal_description       plate
_cell_formula_units_Z            8
loop_
_atom_site_label
_atom_site_type_symbol
_atom_site_fract_x
_atom_site_fract_y
_atom_site_fract_z
S1 S 0.18754(4) -0.07867(3) 0.45028(5)
O1 O -0.10924(10) 0.09696(8) 0.30495(11)
O2 O 0.44532(11) 0.11594(9) 0.45935(14)
N1 N 0.32334(13) 0.20240(10) 0.44373(14)
H1 H 0.3089(14) 0.2520(9) 0.4372(16)
C1 C 0.52337(17) 0.26421(14) 0.59576(19)
H2 H 0.4724 0.2719 0.6279
H3 H 0.5656 0.3104 0.6109
H4 H 0.5589 0.2161 0.6244
C2 C 0.48160(15) 0.25530(13) 0.47758(18)
H5 H 0.4442 0.3041 0.4490
C3 C 0.41659(16) 0.18395(14) 0.45802(17)
C4 C 0.24736(15) 0.15067(12) 0.43211(15)
N2 N 0.16414(12) 0.18891(9) 0.40655(12)
C5 C 0.08682(14) 0.14463(12) 0.39279(15)
N3 N 0.00435(12) 0.19138(10) 0.36313(13)
H6 H 0.0152(14) 0.2410(9) 0.3605(16)
C6 C -0.08601(15) 0.16747(12) 0.31429(15)
C7 C -0.15632(14) 0.23340(11) 0.27231(16)
H7 H -0.1219 0.2854 0.2808
C8 C -0.22865(16) 0.23655(13) 0.33381(19)
H8 H -0.2595 0.1846 0.3303
H9 H -0.2761 0.2773 0.3035
H10 H -0.1968 0.2498 0.4070
C9 C 0.55937(17) 0.24465(16) 0.4244(2)
H11 H 0.5962 0.1969 0.4521
H12 H 0.6008 0.2913 0.4384
H13 H 0.5309 0.2389 0.3488
C10 C 0.25586(15) 0.06871(12) 0.44580(15)
H14 H 0.3158 0.0436 0.4637
C11 C 0.17384(15) 0.02459(11) 0.43251(15)
C12 C 0.08619(15) 0.06252(11) 0.40448(15)
H15 H 0.0291 0.0336 0.3940
C13 C -0.20402(16) 0.21916(13) 0.15628(16)
H16 H -0.1561 0.2168 0.1189
H17 H -0.2479 0.2628 0.1281
H18 H -0.2387 0.1687 0.1472
C14 C 0.06808(16) -0.11351(12) 0.42284(18)
H19 H 0.0383 -0.0886 0.4715
H20 H 0.0680 -0.1715 0.4312
H21 H 0.0329 -0.0994 0.3509
S2 S 0.06169(4) 0.31480(3) 0.63769(4)
O3 O -0.24437(10) 0.43949(9) 0.44199(12)
O4 O 0.27189(10) 0.36803(8) 0.39688(12)
N4 N -0.00265(12) 0.45741(9) 0.33659(12)
C15 C 0.34162(17) 0.41191(15) 0.22282(19)
H22 H 0.3814 0.3743 0.2726
H23 H 0.3805 0.4420 0.1879
H24 H 0.2929 0.3825 0.1705
C16 C 0.29517(16) 0.46926(13) 0.28102(19)
H25 H 0.2529 0.5064 0.2298
C17 C 0.23803(15) 0.42430(12) 0.33954(17)
N5 N 0.14854(12) 0.45148(10) 0.32585(14)
H26 H 0.1296(14) 0.4923(10) 0.2847(14)
C18 C 0.08378(14) 0.42807(11) 0.37959(16)
C19 C -0.06771(14) 0.44152(11) 0.38612(16)
N6 N -0.15588(12) 0.47453(10) 0.33438(13)
H27 H -0.1594(14) 0.5026(11) 0.2787(13)
C20 C -0.23831(15) 0.47237(12) 0.36223(17)
C21 C -0.32166(15) 0.51132(12) 0.28377(17)
H28 H -0.2975 0.5504 0.2413
C22 C -0.38374(16) 0.55547(14) 0.33878(19)
H29 H -0.4094 0.5175 0.3791
H30 H -0.4357 0.5816 0.2865
H31 H -0.3460 0.5956 0.3860
C23 C -0.37810(16) 0.44685(13) 0.21061(18)
H32 H -0.4031 0.4086 0.2513
H33 H -0.3369 0.4191 0.1765
H34 H -0.4304 0.4716 0.1573
C24 C -0.05014(15) 0.39801(11) 0.47768(16)
H35 H -0.0980 0.3892 0.5108
C25 C 0.04026(15) 0.36760(11) 0.51936(15)
C26 C 0.17799(16) 0.27492(13) 0.65990(17)
H36 H 0.1808 0.2436 0.5989
H37 H 0.1932 0.2406 0.7220
H38 H 0.2236 0.3187 0.6710
C27 C 0.10950(15) 0.38146(11) 0.46978(15)
H39 H 0.1712 0.3602 0.4962
C28 C 0.36963(18) 0.51745(14) 0.3613(2)
H40 H 0.3389 0.5503 0.4025
H41 H 0.4034 0.5518 0.3250
H42 H 0.4144 0.4811 0.4079
loop_
_geom_bond_atom_site_label_1
_geom_bond_atom_site_label_2
_geom_bond_site_symmetry_1
_geom_bond_site_symmetry_2
S1 C11 1_555 1_555
O1 C6 1_555 1_555
O2 C3 1_555 1_555
N1 H1 1_555 1_555
C1 H2 1_555 1_555
H3 C1 1_555 1_555
H4 C1 1_555 1_555
C2 C1 1_555 1_555
H5 C2 1_555 1_555
C3 N1 1_555 1_555
C4 N1 1_555 1_555
N2 C4 1_555 1_555
C5 N2 1_555 1_555
N3 C5 1_555 1_555
H6 N3 1_555 1_555
C6 N3 1_555 1_555
C7 C6 1_555 1_555
H7 C7 1_555 1_555
C8 C7 1_555 1_555
H8 C8 1_555 1_555
H9 C8 1_555 1_555
H10 C8 1_555 1_555
C9 C2 1_555 1_555
H11 C9 1_555 1_555
H12 C9 1_555 1_555
H13 C9 1_555 1_555
C10 C4 1_555 1_555
H14 C10 1_555 1_555
C11 C10 1_555 1_555
C12 C5 1_555 1_555
H15 C12 1_555 1_555
C13 C7 1_555 1_555
H16 C13 1_555 1_555
H17 C13 1_555 1_555
H18 C13 1_555 1_555
C14 S1 1_555 1_555
H19 C14 1_555 1_555
H20 C14 1_555 1_555
H21 C14 1_555 1_555
S2 C25 1_555 1_555
O3 C20 1_555 1_555
O4 C17 1_555 1_555
N4 C18 1_555 1_555
C15 H22 1_555 1_555
H23 C15 1_555 1_555
H24 C15 1_555 1_555
C16 C15 1_555 1_555
H25 C16 1_555 1_555
C17 C16 1_555 1_555
N5 C17 1_555 1_555
H26 N5 1_555 1_555
C18 N5 1_555 1_555
C19 N4 1_555 1_555
N6 C19 1_555 1_555
H27 N6 1_555 1_555
C20 N6 1_555 1_555
C21 C20 1_555 1_555
H28 C21 1_555 1_555
C22 C21 1_555 1_555
H29 C22 1_555 1_555
H30 C22 1_555 1_555
H31 C22 1_555 1_555
C23 C21 1_555 1_555
H32 C23 1_555 1_555
H33 C23 1_555 1_555
H34 C23 1_555 1_555
C24 C19 1_555 1_555
H35 C24 1_555 1_555
C25 C24 1_555 1_555
C26 S2 1_555 1_555
H36 C26 1_555 1_555
H37 C26 1_555 1_555
H38 C26 1_555 1_555
C27 C18 1_555 1_555
H39 C27 1_555 1_555
C28 C16 1_555 1_555
H40 C28 1_555 1_555
H41 C28 1_555 1_555
H42 C28 1_555 1_555
C2 C3 1_555 1_555
C11 C12 1_555 1_555
C25 C27 1_555 1_555

#END
