
#######################################################################
#
#                 Cambridge Crystallographic Data Centre
#                                CCDC 
#
#######################################################################
#
# If this CIF has been generated from an entry in the Cambridge 
# Structural Database, then it will include bibliographic, chemical, 
# crystal, experimental, refinement or atomic coordinate data resulting 
# from the CCDC's data processing and validation procedures.
#
#######################################################################

data_AJOKUG
_chemical_formula_moiety         'C56 H62 O18 S2'
_chemical_name_systematic        
"Dimethyl 4,4'-((2,5-bis(2-(2-(2-(2-(((4-methylphenyl)sulfonyl)oxy)ethoxy)ethoxy)ethoxy)ethoxy)-1,4-phenylene)diethyne-2,1-diyl)dibenzoate"
_symmetry_cell_setting           monoclinic
_symmetry_space_group_name_H-M   'P 21/c'
_symmetry_Int_Tables_number      14
_space_group_name_Hall           '-P 2ybc'
loop_
_symmetry_equiv_pos_site_id
_symmetry_equiv_pos_as_xyz
1 x,y,z
2 -x,1/2+y,1/2-z
3 -x,-y,-z
4 x,1/2-y,1/2+z
_cell_length_a                   8.1408(3)
_cell_length_b                   10.1129(4)
_cell_length_c                   32.1022(14)
_cell_angle_alpha                90
_cell_angle_beta                 96.582(3)
_cell_angle_gamma                90
_cell_volume                     2625.46
_exptl_crystal_colour            colorless
_exptl_crystal_description       plate
_cell_formula_units_Z            2
loop_
_atom_site_label
_atom_site_type_symbol
_atom_site_fract_x
_atom_site_fract_y
_atom_site_fract_z
S1 S 0.44635(14) 1.02419(12) 0.20544(4)
O1 O 0.5203(3) 1.0974(3) 0.16843(9)
O2 O 0.7252(3) 0.9586(3) 0.11898(9)
O3 O 0.9244(3) 0.7304(3) 0.14247(9)
O4 O 1.2133(3) 0.5478(3) 0.14442(9)
O5 O 1.4181(3) 0.5598(2) 0.07904(9)
O6 O 0.8775(3) 1.3347(3) 0.09162(9)
O7 O 1.0388(3) 1.4302(3) 0.04804(9)
O8 O 0.4112(3) 0.8895(3) 0.19328(10)
O9 O 0.5580(3) 1.0529(3) 0.24058(9)
C1 C -0.1906(5) 1.3191(4) 0.21493(15)
H1 H -0.1651 1.4081 0.2259
H2 H -0.2591 1.2727 0.2334
H3 H -0.2507 1.3258 0.1868
C2 C -0.0337(5) 1.2445(4) 0.21288(14)
C3 C -0.0336(5) 1.1238(4) 0.19408(13)
H4 H -0.1360 1.0865 0.1826
C4 C 0.1094(5) 1.0542(4) 0.19108(13)
H5 H 0.1065 0.9713 0.1771
C5 C 0.2594(5) 1.1077(4) 0.20905(13)
C6 C 0.2623(5) 1.2288(5) 0.22831(13)
H6 H 0.3642 1.2656 0.2404
C7 C 0.1153(5) 1.2973(4) 0.23012(14)
H7 H 0.1173 1.3814 0.2434
C8 C 0.4633(5) 1.0602(4) 0.12529(13)
H8 H 0.3824 1.1256 0.1124
H9 H 0.4095 0.9723 0.1245
C9 C 0.6110(5) 1.0566(4) 0.10226(14)
H10 H 0.5763 1.0374 0.0723
H11 H 0.6655 1.1442 0.1041
C10 C 0.6910(5) 0.8290(4) 0.10343(15)
H12 H 0.7458 0.8152 0.0778
H13 H 0.5704 0.8185 0.0959
C11 C 0.7503(5) 0.7299(4) 0.13498(15)
H14 H 0.7033 0.7488 0.1615
H15 H 0.7118 0.6412 0.1252
C12 C 0.9763(5) 0.6286(5) 0.17249(14)
H16 H 0.9289 0.5427 0.1624
H17 H 0.9351 0.6491 0.1996
C13 C 1.1577(5) 0.6197(5) 0.17839(14)
H18 H 1.2062 0.7096 0.1796
H19 H 1.1943 0.5744 0.2052
C14 C 1.3835(5) 0.5221(4) 0.15012(13)
H20 H 1.4099 0.4618 0.1743
H21 H 1.4451 0.6056 0.1561
C15 C 1.4335(5) 0.4601(4) 0.11128(12)
H22 H 1.5491 0.4284 0.1163
H23 H 1.3610 0.3839 0.1028
C16 C 1.4588(4) 0.5234(4) 0.04058(13)
C17 C 1.4259(4) 0.6200(4) 0.00915(13)
C18 C 1.4682(4) 0.5947(4) -0.03129(13)
H24 H 1.4464 0.6597 -0.0526
C19 C 1.3457(4) 0.7477(4) 0.01750(12)
C20 C 1.2880(5) 0.8383(5) 0.02495(13)
C21 C 1.2093(5) 0.9649(4) 0.03628(13)
C22 C 1.0971(5) 0.9685(4) 0.06663(13)
H25 H 1.0704 0.8893 0.0803
C23 C 1.0264(5) 1.0854(4) 0.07656(13)
H26 H 0.9503 1.0865 0.0969
C24 C 1.0649(5) 1.2025(4) 0.05717(13)
C25 C 1.1775(5) 1.1989(4) 0.02734(13)
H27 H 1.2056 1.2783 0.0140
C26 C 1.2475(5) 1.0817(4) 0.01723(13)
H28 H 1.3234 1.0807 -0.0031
C27 C 0.9822(5) 1.3258(4) 0.06819(14)
C28 C 0.9691(5) 1.5579(4) 0.05633(13)
H29 H 0.8494 1.5562 0.0481
H30 H 1.0194 1.6261 0.0402
H31 H 0.9913 1.5780 0.0863
S1B S 2.55365(14) -0.02419(12) -0.20544(4)
O1B O 2.4797(3) -0.0974(3) -0.16843(9)
O2B O 2.2748(3) 0.0414(3) -0.11898(9)
O3B O 2.0756(3) 0.2696(3) -0.14247(9)
O4B O 1.7867(3) 0.4522(3) -0.14442(9)
O5B O 1.5819(3) 0.4402(2) -0.07904(9)
O6B O 2.1225(3) -0.3347(3) -0.09162(9)
O7B O 1.9612(3) -0.4302(3) -0.04804(9)
O8B O 2.5888(3) 0.1105(3) -0.19328(10)
O9B O 2.4420(3) -0.0529(3) -0.24058(9)
C1B C 3.1906(5) -0.3191(4) -0.21493(15)
H1B H 3.1651 -0.4081 -0.2259
H2B H 3.2591 -0.2727 -0.2334
H3B H 3.2507 -0.3258 -0.1868
C2B C 3.0337(5) -0.2445(4) -0.21288(14)
C3B C 3.0336(5) -0.1238(4) -0.19408(13)
H4B H 3.1360 -0.0865 -0.1826
C4B C 2.8906(5) -0.0542(4) -0.19108(13)
H5B H 2.8935 0.0287 -0.1771
C5B C 2.7406(5) -0.1077(4) -0.20905(13)
C6B C 2.7377(5) -0.2288(5) -0.22831(13)
H6B H 2.6358 -0.2656 -0.2404
C7B C 2.8847(5) -0.2973(4) -0.23012(14)
H7B H 2.8827 -0.3814 -0.2434
C8B C 2.5367(5) -0.0602(4) -0.12529(13)
H8B H 2.6176 -0.1256 -0.1124
H9B H 2.5905 0.0277 -0.1245
C9B C 2.3890(5) -0.0566(4) -0.10226(14)
H10B H 2.4237 -0.0374 -0.0723
H11B H 2.3345 -0.1442 -0.1041
C10B C 2.3090(5) 0.1710(4) -0.10343(15)
H12B H 2.2542 0.1848 -0.0778
H13B H 2.4296 0.1815 -0.0959
C11B C 2.2497(5) 0.2701(4) -0.13498(15)
H14B H 2.2967 0.2512 -0.1615
H15B H 2.2882 0.3588 -0.1252
C12B C 2.0237(5) 0.3714(5) -0.17249(14)
H16B H 2.0711 0.4573 -0.1624
H17B H 2.0649 0.3509 -0.1996
C13B C 1.8423(5) 0.3803(5) -0.17839(14)
H18B H 1.7938 0.2904 -0.1796
H19B H 1.8057 0.4256 -0.2052
C14B C 1.6165(5) 0.4779(4) -0.15012(13)
H20B H 1.5901 0.5382 -0.1743
H21B H 1.5549 0.3944 -0.1561
C15B C 1.5665(5) 0.5399(4) -0.11128(12)
H22B H 1.4509 0.5716 -0.1163
H23B H 1.6390 0.6161 -0.1028
C16B C 1.5412(4) 0.4766(4) -0.04058(13)
C17B C 1.5741(4) 0.3800(4) -0.00915(13)
C18B C 1.5318(4) 0.4053(4) 0.03129(13)
H24B H 1.5536 0.3403 0.0526
C19B C 1.6543(4) 0.2523(4) -0.01750(12)
C20B C 1.7120(5) 0.1617(5) -0.02495(13)
C21B C 1.7907(5) 0.0351(4) -0.03628(13)
C22B C 1.9029(5) 0.0315(4) -0.06663(13)
H25B H 1.9296 0.1107 -0.0803
C23B C 1.9736(5) -0.0854(4) -0.07656(13)
H26B H 2.0497 -0.0865 -0.0969
C24B C 1.9351(5) -0.2025(4) -0.05717(13)
C25B C 1.8225(5) -0.1989(4) -0.02734(13)
H27B H 1.7944 -0.2783 -0.0140
C26B C 1.7525(5) -0.0817(4) -0.01723(13)
H28B H 1.6766 -0.0807 0.0031
C27B C 2.0178(5) -0.3258(4) -0.06819(14)
C28B C 2.0309(5) -0.5579(4) -0.05633(13)
H29B H 2.1506 -0.5562 -0.0481
H30B H 1.9806 -0.6261 -0.0402
H31B H 2.0087 -0.5780 -0.0863
loop_
_geom_bond_atom_site_label_1
_geom_bond_atom_site_label_2
_geom_bond_site_symmetry_1
_geom_bond_site_symmetry_2
S1 O1 1_555 1_555
O1 C8 1_555 1_555
O2 C9 1_555 1_555
O3 C11 1_555 1_555
O4 C13 1_555 1_555
O5 C15 1_555 1_555
O6 C27 1_555 1_555
O7 C27 1_555 1_555
O8 S1 1_555 1_555
O9 S1 1_555 1_555
C1 H1 1_555 1_555
H2 C1 1_555 1_555
H3 C1 1_555 1_555
C2 C1 1_555 1_555
C3 C2 1_555 1_555
H4 C3 1_555 1_555
C4 C3 1_555 1_555
H5 C4 1_555 1_555
C5 S1 1_555 1_555
C6 C5 1_555 1_555
H6 C6 1_555 1_555
C7 C2 1_555 1_555
H7 C7 1_555 1_555
C8 H8 1_555 1_555
H9 C8 1_555 1_555
C9 C8 1_555 1_555
H10 C9 1_555 1_555
H11 C9 1_555 1_555
C10 O2 1_555 1_555
H12 C10 1_555 1_555
H13 C10 1_555 1_555
C11 C10 1_555 1_555
H14 C11 1_555 1_555
H15 C11 1_555 1_555
C12 O3 1_555 1_555
H16 C12 1_555 1_555
H17 C12 1_555 1_555
C13 C12 1_555 1_555
H18 C13 1_555 1_555
H19 C13 1_555 1_555
C14 O4 1_555 1_555
H20 C14 1_555 1_555
H21 C14 1_555 1_555
C15 C14 1_555 1_555
H22 C15 1_555 1_555
H23 C15 1_555 1_555
C16 O5 1_555 1_555
C17 C16 1_555 1_555
C18 C17 1_555 1_555
H24 C18 1_555 1_555
C19 C17 1_555 1_555
C20 C19 1_555 1_555
C21 C20 1_555 1_555
C22 C21 1_555 1_555
H25 C22 1_555 1_555
C23 C22 1_555 1_555
H26 C23 1_555 1_555
C24 C23 1_555 1_555
C25 C24 1_555 1_555
H27 C25 1_555 1_555
C26 C21 1_555 1_555
H28 C26 1_555 1_555
C27 C24 1_555 1_555
C28 O7 1_555 1_555
H29 C28 1_555 1_555
H30 C28 1_555 1_555
H31 C28 1_555 1_555
S1B O1B 1_555 1_555
O1B C8B 1_555 1_555
O2B C9B 1_555 1_555
O3B C11B 1_555 1_555
O4B C13B 1_555 1_555
O5B C15B 1_555 1_555
O6B C27B 1_555 1_555
O7B C27B 1_555 1_555
O8B S1B 1_555 1_555
O9B S1B 1_555 1_555
C1B H1B 1_555 1_555
H2B C1B 1_555 1_555
H3B C1B 1_555 1_555
C2B C1B 1_555 1_555
C3B C2B 1_555 1_555
H4B C3B 1_555 1_555
C4B C3B 1_555 1_555
H5B C4B 1_555 1_555
C5B S1B 1_555 1_555
C6B C5B 1_555 1_555
H6B C6B 1_555 1_555
C7B C2B 1_555 1_555
H7B C7B 1_555 1_555
C8B H8B 1_555 1_555
H9B C8B 1_555 1_555
C9B C8B 1_555 1_555
H10B C9B 1_555 1_555
H11B C9B 1_555 1_555
C10B O2B 1_555 1_555
H12B C10B 1_555 1_555
H13B C10B 1_555 1_555
C11B C10B 1_555 1_555
H14B C11B 1_555 1_555
H15B C11B 1_555 1_555
C12B O3B 1_555 1_555
H16B C12B 1_555 1_555
H17B C12B 1_555 1_555
C13B C12B 1_555 1_555
H18B C13B 1_555 1_555
H19B C13B 1_555 1_555
C14B O4B 1_555 1_555
H20B C14B 1_555 1_555
H21B C14B 1_555 1_555
C15B C14B 1_555 1_555
H22B C15B 1_555 1_555
H23B C15B 1_555 1_555
C16B C18 1_555 1_555
C17B C16B 1_555 1_555
C18B C16 1_555 1_555
H24B C18B 1_555 1_555
C19B C17B 1_555 1_555
C20B C19B 1_555 1_555
C21B C20B 1_555 1_555
C22B C21B 1_555 1_555
H25B C22B 1_555 1_555
C23B C22B 1_555 1_555
H26B C23B 1_555 1_555
C24B C23B 1_555 1_555
C25B C24B 1_555 1_555
H27B C25B 1_555 1_555
C26B C21B 1_555 1_555
H28B C26B 1_555 1_555
C27B C24B 1_555 1_555
C28B O7B 1_555 1_555
H29B C28B 1_555 1_555
H30B C28B 1_555 1_555
H31B C28B 1_555 1_555
C4 C5 1_555 1_555
C6 C7 1_555 1_555
C25 C26 1_555 1_555
O5B C16B 1_555 1_555
C4B C5B 1_555 1_555
C6B C7B 1_555 1_555
C17B C18B 1_555 1_555
C25B C26B 1_555 1_555

#END
