
#######################################################################
#
#                 Cambridge Crystallographic Data Centre
#                                CCDC 
#
#######################################################################
#
# If this CIF has been generated from an entry in the Cambridge 
# Structural Database, then it will include bibliographic, chemical, 
# crystal, experimental, refinement or atomic coordinate data resulting 
# from the CCDC's data processing and validation procedures.
#
#######################################################################

data_AJOKOA
_chemical_name_common            
15$2!,15$5!-bis((4-carboxyphenyl)ethynyl)-2,5,8,11,14,16,19,22,25,28-decaoxa-1(1,5)naphthalena-15(1,4)-benzenacyclooctacosaphane
_chemical_formula_moiety         'C50 H50 O14,C6 H14 O1'
_chemical_name_systematic        
"4,4'-(2,5,8,11,14,25,28,31,34,37-Decaoxatetracyclo[36.2.2.0^15,20^.0^19,24^]dotetraconta-1(40),15,17,19,21,23,38,41-octaene-39,41-diyldiethyne-2,1-diyl)dibenzoic acid diisopropyl ether solvate"
_symmetry_cell_setting           triclinic
_symmetry_space_group_name_H-M   'P -1'
_symmetry_Int_Tables_number      2
_space_group_name_Hall           '-P 1'
loop_
_symmetry_equiv_pos_site_id
_symmetry_equiv_pos_as_xyz
1 x,y,z
2 -x,-y,-z
_cell_length_a                   9.52(8)
_cell_length_b                   13.34(11)
_cell_length_c                   21.27(18)
_cell_angle_alpha                101.73(7)
_cell_angle_beta                 98.67(7)
_cell_angle_gamma                97.67(7)
_cell_volume                     2576.73
_cell_formula_units_Z            2
loop_
_atom_site_label
_atom_site_type_symbol
_atom_site_fract_x
_atom_site_fract_y
_atom_site_fract_z
O1 O 0.4449(7) 0.4507(5) 0.1668(3)
O2 O 0.3896(6) 0.2659(4) 0.0618(3)
O3 O 0.3077(7) 0.3379(4) -0.0580(3)
O4 O 0.1633(7) 0.5205(4) -0.0695(3)
O5 O 0.0912(6) 0.7317(4) -0.0364(3)
O6 O 0.0655(6) 1.0805(4) 0.1479(3)
O7 O 0.1705(6) 1.2407(4) 0.2648(3)
O8 O 0.1294(7) 1.1940(5) 0.3893(3)
O9 O 0.1476(7) 0.9901(6) 0.3973(3)
O10 O 0.1894(7) 0.7736(5) 0.3254(3)
O11 O -0.3688(7) 1.0539(5) 0.4678(3)
O12 O -0.5215(8) 0.9037(5) 0.4275(4)
H1 H -0.5030 0.8438 0.4152
O13 O 0.7124(8) 0.9838(5) -0.2958(4)
H2 H 0.7880 0.9595 -0.2867
O14 O 0.5513(8) 0.8476(6) -0.3559(4)
C1 C 0.5114(10) 0.3608(7) 0.1676(4)
H3 H 0.4503 0.3091 0.1837
H4 H 0.6064 0.3803 0.1971
C2 C 0.5295(10) 0.3157(6) 0.1001(4)
H5 H 0.5718 0.3712 0.0804
H6 H 0.5954 0.2643 0.1008
C3 C 0.3995(10) 0.2153(6) -0.0032(5)
H7 H 0.3083 0.1666 -0.0228
H8 H 0.4778 0.1736 -0.0006
C4 C 0.4270(10) 0.2854(7) -0.0473(5)
H9 H 0.5157 0.3368 -0.0276
H10 H 0.4416 0.2446 -0.0895
C5 C 0.3308(11) 0.4052(7) -0.0998(5)
H11 H 0.3633 0.3681 -0.1388
H12 H 0.4072 0.4649 -0.0769
C6 C 0.1946(11) 0.4434(7) -0.1202(4)
H13 H 0.2028 0.4730 -0.1589
H14 H 0.1137 0.3840 -0.1331
C7 C 0.0300(11) 0.5534(6) -0.0916(5)
H15 H -0.0498 0.4934 -0.1034
H16 H 0.0373 0.5815 -0.1309
C8 C 0.0000(10) 0.6346(6) -0.0389(5)
H17 H -0.1027 0.6423 -0.0476
H18 H 0.0200 0.6147 0.0036
C9 C 0.1558(10) 1.1790(6) 0.1507(4)
H19 H 0.1373 1.1992 0.1083
H20 H 0.2591 1.1736 0.1611
C10 C 0.1164(10) 1.2584(7) 0.2042(4)
H21 H 0.1576 1.3293 0.2016
H22 H 0.0103 1.2527 0.1984
C11 C 0.1224(11) 1.3092(7) 0.3161(5)
H23 H 0.0160 1.2941 0.3109
H24 H 0.1510 1.3825 0.3142
C12 C 0.1912(11) 1.2913(7) 0.3802(5)
H25 H 0.2959 1.2936 0.3814
H26 H 0.1782 1.3473 0.4162
C13 C 0.1965(11) 1.1713(7) 0.4479(5)
H27 H 0.1857 1.2240 0.4862
H28 H 0.3006 1.1719 0.4480
C14 C 0.1262(12) 1.0677(7) 0.4512(5)
H29 H 0.1672 1.0515 0.4929
H30 H 0.0217 1.0672 0.4498
C15 C 0.0665(11) 0.8896(8) 0.3899(5)
H31 H -0.0329 0.8956 0.3967
H32 H 0.1112 0.8551 0.4230
C16 C 0.0626(13) 0.8243(8) 0.3207(5)
H33 H -0.0266 0.7719 0.3063
H34 H 0.0663 0.8693 0.2891
C17 C 0.2239(10) 0.7268(7) 0.2689(5)
C18 C 0.1946(10) 0.7529(7) 0.2095(6)
H35 H 0.1414 0.8073 0.2054
C19 C 0.2415(10) 0.7011(7) 0.1564(5)
H36 H 0.2243 0.7222 0.1163
C20 C 0.3139(10) 0.6178(7) 0.1601(5)
H37 H 0.3440 0.5814 0.1226
C21 C 0.3418(10) 0.5887(8) 0.2192(5)
C22 C 0.4145(11) 0.5011(9) 0.2246(6)
C23 C 0.4472(11) 0.4782(7) 0.2835(6)
H38 H 0.4986 0.4228 0.2875
C24 C 0.4062(13) 0.5354(9) 0.3394(5)
H39 H 0.4300 0.5178 0.3803
C25 C 0.3323(11) 0.6164(8) 0.3352(5)
H40 H 0.3037 0.6538 0.3728
C26 C 0.2999(10) 0.6427(8) 0.2757(5)
C27 C -0.4141(12) 0.9724(9) 0.4234(5)
C28 C -0.3505(10) 0.9545(8) 0.3628(5)
C29 C -0.2404(9) 1.0290(7) 0.3573(4)
H41 H -0.2077 1.0905 0.3907
C30 C -0.1781(10) 1.0118(7) 0.3015(4)
H42 H -0.1027 1.0623 0.2964
C31 C -0.2263(10) 0.9206(7) 0.2530(5)
C32 C -0.3409(10) 0.8464(7) 0.2611(5)
H43 H -0.3771 0.7851 0.2279
C33 C -0.3993(10) 0.8637(8) 0.3175(5)
H44 H -0.4720 0.8131 0.3244
C34 C -0.1589(9) 0.9047(6) 0.1952(4)
C35 C -0.0952(10) 0.9021(7) 0.1550(5)
C36 C -0.0077(10) 0.9072(7) 0.1034(5)
C37 C 0.0761(9) 0.9965(7) 0.1010(5)
C38 C 0.1609(9) 1.0011(7) 0.0539(4)
H45 H 0.2166 1.0652 0.0529
C39 C 0.1637(9) 0.9126(7) 0.0087(4)
C40 C 0.0840(9) 0.8197(7) 0.0109(4)
C41 C -0.0059(9) 0.8135(7) 0.0573(4)
H46 H -0.0630 0.7497 0.0578
C42 C 0.2466(10) 0.9182(6) -0.0436(5)
C43 C 0.3050(9) 0.9231(6) -0.0858(5)
C44 C 0.3804(10) 0.9239(7) -0.1422(5)
C45 C 0.5007(10) 0.9976(7) -0.1396(5)
H47 H 0.5346 1.0517 -0.1014
C46 C 0.5700(10) 0.9926(8) -0.1914(5)
H48 H 0.6513 1.0438 -0.1892
C47 C 0.5238(11) 0.9139(8) -0.2473(5)
C48 C 0.4061(11) 0.8395(7) -0.2489(5)
H49 H 0.3738 0.7834 -0.2860
C49 C 0.3388(10) 0.8472(7) -0.1983(5)
H50 H 0.2567 0.7963 -0.2012
C50 C 0.5966(13) 0.9082(10) -0.3060(6)
O15 O 0.7727(9) 0.4375(7) 0.3849(5)
C51 C 0.8057(14) 0.3041(8) 0.4411(7)
H51 H 0.7439 0.2618 0.4009
H52 H 0.7815 0.2776 0.4786
H53 H 0.9069 0.3007 0.4385
C52 C 0.7842(16) 0.4068(11) 0.4488(6)
H54 H 0.8691 0.4525 0.4796
C53 C 0.6488(14) 0.4267(10) 0.4752(7)
H55 H 0.5639 0.3929 0.4418
H56 H 0.6489 0.5017 0.4867
H57 H 0.6462 0.3984 0.5141
C54 C 0.8972(13) 0.5104(9) 0.3716(7)
H58 H 0.9915 0.4891 0.3859
C55 C 0.8986(16) 0.6253(8) 0.4045(6)
H59 H 0.8189 0.6508 0.3812
H60 H 0.9903 0.6672 0.4030
H61 H 0.8876 0.6308 0.4501
C56 C 0.8756(14) 0.5103(10) 0.2999(5)
H62 H 0.8376 0.4396 0.2741
H63 H 0.9681 0.5350 0.2886
H64 H 0.8071 0.5563 0.2904
loop_
_geom_bond_atom_site_label_1
_geom_bond_atom_site_label_2
_geom_bond_site_symmetry_1
_geom_bond_site_symmetry_2
O1 C1 1_555 1_555
O2 C2 1_555 1_555
O3 C4 1_555 1_555
O4 C6 1_555 1_555
O5 C8 1_555 1_555
O6 C9 1_555 1_555
O7 C10 1_555 1_555
O8 C12 1_555 1_555
O9 C14 1_555 1_555
O10 C16 1_555 1_555
O11 C27 1_555 1_555
O12 H1 1_555 1_555
O13 H2 1_555 1_555
O14 C50 1_555 1_555
C1 H3 1_555 1_555
H4 C1 1_555 1_555
C2 C1 1_555 1_555
H5 C2 1_555 1_555
H6 C2 1_555 1_555
C3 O2 1_555 1_555
H7 C3 1_555 1_555
H8 C3 1_555 1_555
C4 C3 1_555 1_555
H9 C4 1_555 1_555
H10 C4 1_555 1_555
C5 O3 1_555 1_555
H11 C5 1_555 1_555
H12 C5 1_555 1_555
C6 C5 1_555 1_555
H13 C6 1_555 1_555
H14 C6 1_555 1_555
C7 O4 1_555 1_555
H15 C7 1_555 1_555
H16 C7 1_555 1_555
C8 C7 1_555 1_555
H17 C8 1_555 1_555
H18 C8 1_555 1_555
C9 H19 1_555 1_555
H20 C9 1_555 1_555
C10 C9 1_555 1_555
H21 C10 1_555 1_555
H22 C10 1_555 1_555
C11 O7 1_555 1_555
H23 C11 1_555 1_555
H24 C11 1_555 1_555
C12 C11 1_555 1_555
H25 C12 1_555 1_555
H26 C12 1_555 1_555
C13 O8 1_555 1_555
H27 C13 1_555 1_555
H28 C13 1_555 1_555
C14 C13 1_555 1_555
H29 C14 1_555 1_555
H30 C14 1_555 1_555
C15 O9 1_555 1_555
H31 C15 1_555 1_555
H32 C15 1_555 1_555
C16 C15 1_555 1_555
H33 C16 1_555 1_555
H34 C16 1_555 1_555
C17 O10 1_555 1_555
C18 C17 1_555 1_555
H35 C18 1_555 1_555
C19 C18 1_555 1_555
H36 C19 1_555 1_555
C20 C19 1_555 1_555
H37 C20 1_555 1_555
C21 C20 1_555 1_555
C22 O1 1_555 1_555
C23 C22 1_555 1_555
H38 C23 1_555 1_555
C24 C23 1_555 1_555
H39 C24 1_555 1_555
C25 C24 1_555 1_555
H40 C25 1_555 1_555
C26 C17 1_555 1_555
C27 O12 1_555 1_555
C28 C27 1_555 1_555
C29 C28 1_555 1_555
H41 C29 1_555 1_555
C30 C29 1_555 1_555
H42 C30 1_555 1_555
C31 C30 1_555 1_555
C32 C31 1_555 1_555
H43 C32 1_555 1_555
C33 C28 1_555 1_555
H44 C33 1_555 1_555
C34 C31 1_555 1_555
C35 C34 1_555 1_555
C36 C35 1_555 1_555
C37 O6 1_555 1_555
C38 C37 1_555 1_555
H45 C38 1_555 1_555
C39 C38 1_555 1_555
C40 O5 1_555 1_555
C41 C36 1_555 1_555
H46 C41 1_555 1_555
C42 C39 1_555 1_555
C43 C42 1_555 1_555
C44 C43 1_555 1_555
C45 C44 1_555 1_555
H47 C45 1_555 1_555
C46 C45 1_555 1_555
H48 C46 1_555 1_555
C47 C46 1_555 1_555
C48 C47 1_555 1_555
H49 C48 1_555 1_555
C49 C44 1_555 1_555
H50 C49 1_555 1_555
C50 O13 1_555 1_555
O15 C52 1_555 1_555
C51 H51 1_555 1_555
H52 C51 1_555 1_555
H53 C51 1_555 1_555
C52 C51 1_555 1_555
H54 C52 1_555 1_555
C53 C52 1_555 1_555
H55 C53 1_555 1_555
H56 C53 1_555 1_555
H57 C53 1_555 1_555
C54 O15 1_555 1_555
H58 C54 1_555 1_555
C55 C54 1_555 1_555
H59 C55 1_555 1_555
H60 C55 1_555 1_555
H61 C55 1_555 1_555
C56 C54 1_555 1_555
H62 C56 1_555 1_555
H63 C56 1_555 1_555
H64 C56 1_555 1_555
C21 C22 1_555 1_555
C21 C26 1_555 1_555
C25 C26 1_555 1_555
C32 C33 1_555 1_555
C36 C37 1_555 1_555
C39 C40 1_555 1_555
C40 C41 1_555 1_555
C47 C50 1_555 1_555
C48 C49 1_555 1_555

#END
