
#######################################################################
#
#                 Cambridge Crystallographic Data Centre
#                                CCDC 
#
#######################################################################
#
# If this CIF has been generated from an entry in the Cambridge 
# Structural Database, then it will include bibliographic, chemical, 
# crystal, experimental, refinement or atomic coordinate data resulting 
# from the CCDC's data processing and validation procedures.
#
#######################################################################

data_AJOLAN
_chemical_name_common            
1$2!,1$5!-bis((4-methoxycarbonylcarbonylphenyl)ethynyl)-2,5,8,11,14,16,19,22,25,28-decaoxa-1,15(1,4)-dibenzenacyclooctacosaphane
_chemical_formula_moiety         'C48 H52 O14'
_chemical_name_systematic        
"Dimethyl 4,4'-(2,5,8,11,14,19,22,25,28,31-decaoxatricyclo[30.2.2.2^15,18^]octatriaconta-1(34),15,17,32,35,37-hexaene-16,37-diyldiethyne-2,1-diyl)dibenzoate"
_symmetry_cell_setting           triclinic
_symmetry_space_group_name_H-M   'P -1'
_symmetry_Int_Tables_number      2
_space_group_name_Hall           '-P 1'
loop_
_symmetry_equiv_pos_site_id
_symmetry_equiv_pos_as_xyz
1 x,y,z
2 -x,-y,-z
_cell_length_a                   9.0342(3)
_cell_length_b                   13.5428(5)
_cell_length_c                   18.2351(6)
_cell_angle_alpha                81.512(2)
_cell_angle_beta                 77.525(2)
_cell_angle_gamma                83.614(2)
_cell_volume                     2147.22
_exptl_crystal_colour            colorless
_exptl_crystal_description       block
_cell_formula_units_Z            2
loop_
_atom_site_label
_atom_site_type_symbol
_atom_site_fract_x
_atom_site_fract_y
_atom_site_fract_z
C1 C 0.0588(3) 1.7522(2) 0.02519(16)
H1 H 0.1476 1.7815 0.0331
H2 H -0.0334 1.7804 0.0568
H3 H 0.0516 1.7674 -0.0282
O1 O 0.0746(2) 1.64562(14) 0.04544(10)
C2 C 0.1985(3) 1.5963(2) 0.00857(17)
O2 O 0.2910(2) 1.63592(15) -0.04190(12)
C3 C 0.2053(3) 1.4882(2) 0.03781(15)
C4 C 0.0897(3) 1.4465(2) 0.09288(15)
H4 H 0.0030 1.4882 0.1126
C5 C 0.0982(3) 1.3464(2) 0.11934(16)
H5 H 0.0174 1.3194 0.1568
C6 C 0.2256(3) 1.2835(2) 0.09137(15)
C7 C 0.3433(3) 1.3255(2) 0.03728(15)
H6 H 0.4315 1.2843 0.0187
C8 C 0.3332(3) 1.4260(2) 0.01052(15)
H7 H 0.4138 1.4533 -0.0268
C9 C 0.2337(3) 1.1756(3) 0.11864(16)
C10 C 0.2402(3) 1.0921(3) 0.13558(15)
C11 C 0.2503(3) 0.9819(2) 0.15201(15)
C12 C 0.1213(3) 0.9324(2) 0.18854(14)
H8 H 0.0273 0.9702 0.2035
C13 C 0.1295(3) 0.8292(2) 0.20313(15)
C14 C 0.2682(3) 0.7734(2) 0.17953(15)
C15 C 0.3966(3) 0.8231(2) 0.14227(15)
H9 H 0.4901 0.7854 0.1260
C16 C 0.3889(3) 0.9262(2) 0.12891(14)
C17 C 0.2771(3) 0.6629(3) 0.19442(15)
C18 C 0.2850(3) 0.5800(2) 0.20785(15)
C19 C 0.2851(3) 0.4716(2) 0.23284(16)
C20 C 0.1681(3) 0.4323(2) 0.28955(16)
H10 H 0.0844 0.4759 0.3100
C21 C 0.1722(3) 0.3321(2) 0.31609(16)
H11 H 0.0922 0.3071 0.3550
C22 C 0.2933(3) 0.2666(2) 0.28612(15)
C23 C 0.4080(3) 0.3046(2) 0.22825(15)
H12 H 0.4896 0.2604 0.2067
C24 C 0.4048(3) 0.4053(2) 0.20188(15)
H13 H 0.4842 0.4300 0.1625
O3 O 0.1878(2) 0.12217(14) 0.36100(11)
C25 C 0.2932(4) 0.1589(2) 0.31718(17)
O4 O 0.4256(2) 0.10746(14) 0.29219(10)
C26 C 0.4354(3) 0.0015(2) 0.32043(17)
H14 H 0.4012 -0.0074 0.3756
H15 H 0.5410 -0.0266 0.3072
H16 H 0.3706 -0.0331 0.2975
O5 O 0.0102(2) 0.77477(13) 0.23964(10)
C27 C -0.1420(3) 0.8211(2) 0.24260(16)
H17 H -0.1457 0.8707 0.1972
H18 H -0.1751 0.8562 0.2881
C28 C -0.2444(3) 0.7396(2) 0.24560(15)
H19 H -0.2323 0.6863 0.2877
H20 H -0.3521 0.7672 0.2537
O6 O -0.2023(2) 0.70038(14) 0.17542(10)
C29 C -0.2801(3) 0.6179(2) 0.16921(16)
H21 H -0.2458 0.6000 0.1171
H22 H -0.3900 0.6395 0.1760
C30 C -0.2602(3) 0.5250(2) 0.22403(16)
H23 H -0.2560 0.4646 0.1988
H24 H -0.1639 0.5242 0.2417
O7 O -0.3852(2) 0.52489(14) 0.28654(10)
C31 C -0.3766(4) 0.4411(2) 0.34361(16)
H25 H -0.2915 0.3924 0.3252
H26 H -0.4721 0.4072 0.3549
C32 C -0.3523(3) 0.4761(2) 0.41396(16)
H27 H -0.4331 0.5285 0.4304
H28 H -0.3562 0.4194 0.4553
O8 O -0.2078(2) 0.51518(14) 0.39779(10)
C33 C -0.1923(3) 0.5789(2) 0.44996(16)
H29 H -0.2081 0.5431 0.5021
H30 H -0.2667 0.6383 0.4486
C34 C -0.0319(3) 0.6093(2) 0.42456(16)
H31 H 0.0413 0.5493 0.4257
H32 H -0.0170 0.6441 0.3721
O9 O -0.0076(2) 0.67458(14) 0.47467(10)
C35 C 0.1365(3) 0.7076(2) 0.46058(16)
C36 C 0.2538(3) 0.6813(2) 0.40263(15)
H33 H 0.2372 0.6394 0.3682
C37 C 0.3950(3) 0.7159(2) 0.39476(15)
H34 H 0.4755 0.6969 0.3552
C38 C 0.4208(3) 0.7780(2) 0.44377(15)
C39 C 0.3024(3) 0.8058(2) 0.50113(15)
H35 H 0.3184 0.8488 0.5349
C40 C 0.1610(3) 0.7707(2) 0.50894(16)
H36 H 0.0798 0.7903 0.5480
O10 O 0.5657(2) 0.80923(13) 0.43049(10)
C41 C 0.6058(3) 0.8559(2) 0.48801(16)
H37 H 0.6078 0.8070 0.5339
H38 H 0.5300 0.9122 0.5018
C42 C 0.7595(3) 0.8936(2) 0.45806(15)
H39 H 0.7998 0.9129 0.4998
H40 H 0.8308 0.8404 0.4349
O11 O 0.7452(2) 0.97816(13) 0.40280(10)
C43 C 0.8880(3) 1.0159(2) 0.36972(15)
H41 H 0.9589 0.9626 0.3465
H42 H 0.9322 1.0380 0.4091
C44 C 0.8664(3) 1.1025(2) 0.31040(15)
H43 H 0.7932 1.1550 0.3333
H44 H 0.9645 1.1319 0.2888
O12 O 0.81058(19) 1.06815(13) 0.25232(9)
C45 C 0.7982(3) 1.1455(2) 0.19135(15)
H45 H 0.9008 1.1644 0.1649
H46 H 0.7392 1.2054 0.2111
C46 C 0.7200(3) 1.1088(2) 0.13716(15)
H47 H 0.6274 1.0768 0.1652
H48 H 0.6896 1.1657 0.1012
O13 O 0.82392(19) 1.03777(13) 0.09695(9)
C47 C 0.7678(3) 1.0036(2) 0.03874(15)
H49 H 0.8545 0.9731 0.0038
H50 H 0.7222 1.0621 0.0094
C48 C 0.6511(3) 0.9284(2) 0.06677(15)
H51 H 0.6433 0.8910 0.0252
H52 H 0.6811 0.8799 0.1083
O14 O 0.5073(2) 0.98128(13) 0.09363(10)
loop_
_geom_bond_atom_site_label_1
_geom_bond_atom_site_label_2
_geom_bond_site_symmetry_1
_geom_bond_site_symmetry_2
C1 H1 1_555 1_555
H2 C1 1_555 1_555
H3 C1 1_555 1_555
O1 C1 1_555 1_555
C2 O1 1_555 1_555
O2 C2 1_555 1_555
C3 C2 1_555 1_555
C4 C3 1_555 1_555
H4 C4 1_555 1_555
C5 C4 1_555 1_555
H5 C5 1_555 1_555
C6 C5 1_555 1_555
C7 C6 1_555 1_555
H6 C7 1_555 1_555
C8 C3 1_555 1_555
H7 C8 1_555 1_555
C9 C6 1_555 1_555
C10 C9 1_555 1_555
C11 C10 1_555 1_555
C12 C11 1_555 1_555
H8 C12 1_555 1_555
C13 C12 1_555 1_555
C14 C13 1_555 1_555
C15 C14 1_555 1_555
H9 C15 1_555 1_555
C16 C11 1_555 1_555
C17 C14 1_555 1_555
C18 C17 1_555 1_555
C19 C18 1_555 1_555
C20 C19 1_555 1_555
H10 C20 1_555 1_555
C21 C20 1_555 1_555
H11 C21 1_555 1_555
C22 C21 1_555 1_555
C23 C22 1_555 1_555
H12 C23 1_555 1_555
C24 C19 1_555 1_555
H13 C24 1_555 1_555
O3 C25 1_555 1_555
C25 C22 1_555 1_555
O4 C25 1_555 1_555
C26 O4 1_555 1_555
H14 C26 1_555 1_555
H15 C26 1_555 1_555
H16 C26 1_555 1_555
O5 C13 1_555 1_555
C27 O5 1_555 1_555
H17 C27 1_555 1_555
H18 C27 1_555 1_555
C28 C27 1_555 1_555
H19 C28 1_555 1_555
H20 C28 1_555 1_555
O6 C28 1_555 1_555
C29 O6 1_555 1_555
H21 C29 1_555 1_555
H22 C29 1_555 1_555
C30 C29 1_555 1_555
H23 C30 1_555 1_555
H24 C30 1_555 1_555
O7 C30 1_555 1_555
C31 O7 1_555 1_555
H25 C31 1_555 1_555
H26 C31 1_555 1_555
C32 C31 1_555 1_555
H27 C32 1_555 1_555
H28 C32 1_555 1_555
O8 C32 1_555 1_555
C33 O8 1_555 1_555
H29 C33 1_555 1_555
H30 C33 1_555 1_555
C34 C33 1_555 1_555
H31 C34 1_555 1_555
H32 C34 1_555 1_555
O9 C34 1_555 1_555
C35 O9 1_555 1_555
C36 C35 1_555 1_555
H33 C36 1_555 1_555
C37 C36 1_555 1_555
H34 C37 1_555 1_555
C38 C37 1_555 1_555
C39 C38 1_555 1_555
H35 C39 1_555 1_555
C40 C35 1_555 1_555
H36 C40 1_555 1_555
O10 C38 1_555 1_555
C41 O10 1_555 1_555
H37 C41 1_555 1_555
H38 C41 1_555 1_555
C42 C41 1_555 1_555
H39 C42 1_555 1_555
H40 C42 1_555 1_555
O11 C42 1_555 1_555
C43 O11 1_555 1_555
H41 C43 1_555 1_555
H42 C43 1_555 1_555
C44 C43 1_555 1_555
H43 C44 1_555 1_555
H44 C44 1_555 1_555
O12 C44 1_555 1_555
C45 O12 1_555 1_555
H45 C45 1_555 1_555
H46 C45 1_555 1_555
C46 C45 1_555 1_555
H47 C46 1_555 1_555
H48 C46 1_555 1_555
O13 C46 1_555 1_555
C47 O13 1_555 1_555
H49 C47 1_555 1_555
H50 C47 1_555 1_555
C48 C47 1_555 1_555
H51 C48 1_555 1_555
H52 C48 1_555 1_555
O14 C16 1_555 1_555
C7 C8 1_555 1_555
C15 C16 1_555 1_555
C23 C24 1_555 1_555
C39 C40 1_555 1_555
C48 O14 1_555 1_555

#END
