
#######################################################################
#
#                 Cambridge Crystallographic Data Centre
#                                CCDC 
#
#######################################################################
#
# If this CIF has been generated from an entry in the Cambridge 
# Structural Database, then it will include bibliographic, chemical, 
# crystal, experimental, refinement or atomic coordinate data resulting 
# from the CCDC's data processing and validation procedures.
#
#######################################################################

data_AJORIA
_chemical_formula_moiety         'C17 H20 N2 O2'
_chemical_name_systematic        
N-(2-Hydroxybenzylidene)-4-diethylamino-2-hydroxyaniline
_symmetry_cell_setting           triclinic
_symmetry_space_group_name_H-M   'P 1'
_symmetry_Int_Tables_number      1
_space_group_name_Hall           'P 1'
loop_
_symmetry_equiv_pos_site_id
_symmetry_equiv_pos_as_xyz
1 x,y,z
_cell_length_a                   9.212(2)
_cell_length_b                   13.454(2)
_cell_length_c                   6.690(2)
_cell_angle_alpha                82.19(2)
_cell_angle_beta                 111.22(2)
_cell_angle_gamma                109.42(1)
_cell_volume                     728.84
_cell_formula_units_Z            2
loop_
_atom_site_label
_atom_site_type_symbol
_atom_site_fract_x
_atom_site_fract_y
_atom_site_fract_z
O1 O 0.4831(4) 1.0221(2) -0.2901(5)
O2 O 0.1837(4) 0.8342(3) -0.1524(5)
N1 N 1.0091(4) 1.2746(3) 0.0166(6)
N2 N 0.4564(5) 0.9457(3) 0.0721(8)
C1 C 0.8823(6) 1.1984(4) 0.0385(8)
C2 C 0.8726(6) 1.1519(4) 0.2526(7)
C3 C 0.7381(6) 1.0731(4) 0.2568(7)
C4 C 0.6006(6) 1.0275(4) 0.0814(6)
C5 C 0.6097(7) 1.0693(4) -0.1237(8)
C6 C 0.7420(6) 1.1484(4) -0.1415(7)
C7 C 0.4273(5) 0.9013(3) 0.2568(7)
C8 C 0.2723(5) 0.8182(3) 0.2193(7)
C9 C 0.2463(6) 0.7666(4) 0.4107(8)
C10 C 0.1030(7) 0.6809(4) 0.3965(8)
C11 C -0.0026(6) 0.6500(4) 0.1970(1)
C12 C 0.0179(6) 0.6979(4) 0.0191(8)
C13 C 0.1550(5) 0.7840(3) 0.0215(7)
C14 C 1.1515(7) 1.3222(5) 0.2127(9)
C15 C 1.1301(8) 1.4004(4) 0.3206(9)
C16 C 1.0116(6) 1.3257(4) -0.1904(8)
C17 C 0.9307(7) 1.4056(4) -0.2673(9)
O3 O 0.0831(4) 0.9395(3) -0.4883(6)
O4 O 0.3741(4) 1.1305(3) -0.6372(6)
N3 N -0.4585(5) 0.6917(3) -0.8096(6)
N4 N 0.0987(4) 1.0144(3) -0.8782(5)
C18 C -0.3174(5) 0.7723(3) -0.8291(7)
C19 C -0.3123(5) 0.8102(4) -1.0185(8)
C20 C -0.1773(5) 0.8937(4) -1.0576(8)
C21 C -0.0491(5) 0.9332(3) -0.8704(8)
C22 C -0.0504(5) 0.8943(3) -0.6716(7)
C23 C -0.1863(6) 0.8109(4) -0.6467(8)
C24 C 0.1378(6) 1.0644(4) -1.0330(7)
C25 C 0.2809(6) 1.1459(4) -1.0253(8)
C26 C 0.3184(6) 1.1976(4) -1.2045(8)
C27 C 0.4506(6) 1.2761(4) -1.1900(1)
C28 C 0.5683(6) 1.3137(4) -0.9830(9)
C29 C 0.5404(6) 1.2639(4) -0.7920(9)
C30 C 0.3950(6) 1.1761(4) -0.8057(8)
C31 C -0.5936(5) 0.6467(4) -0.9920(8)
C32 C -0.5664(9) 0.5623(5) -1.1020(1)
C33 C -0.4546(7) 0.6444(4) -0.5993(9)
C34 C -0.3548(8) 0.5582(5) -0.533(1)
loop_
_geom_bond_atom_site_label_1
_geom_bond_atom_site_label_2
_geom_bond_site_symmetry_1
_geom_bond_site_symmetry_2
O1 C5 1_555 1_555
O2 C13 1_555 1_555
O3 C22 1_555 1_555
O4 C30 1_555 1_555
N1 C1 1_555 1_555
N2 C4 1_555 1_555
N3 C18 1_555 1_555
N4 C21 1_555 1_555
C1 C2 1_555 1_555
C2 C3 1_555 1_555
C3 C4 1_555 1_555
C4 C5 1_555 1_555
C5 C6 1_555 1_555
C6 C1 1_555 1_555
C7 N2 1_555 1_555
C8 C7 1_555 1_555
C9 C8 1_555 1_555
C10 C9 1_555 1_555
C11 C10 1_555 1_555
C12 C11 1_555 1_555
C13 C8 1_555 1_555
C14 N1 1_555 1_555
C15 C14 1_555 1_555
C16 N1 1_555 1_555
C17 C16 1_555 1_555
C18 C19 1_555 1_555
C19 C20 1_555 1_555
C20 C21 1_555 1_555
C21 C22 1_555 1_555
C22 C23 1_555 1_555
C23 C18 1_555 1_555
C24 N4 1_555 1_555
C25 C24 1_555 1_555
C26 C25 1_555 1_555
C27 C26 1_555 1_555
C28 C27 1_555 1_555
C29 C28 1_555 1_555
C30 C25 1_555 1_555
C31 N3 1_555 1_555
C32 C31 1_555 1_555
C33 N3 1_555 1_555
C34 C33 1_555 1_555
C12 C13 1_555 1_555
C29 C30 1_555 1_555

#END
