
#######################################################################
#
#                 Cambridge Crystallographic Data Centre
#                                CCDC 
#
#######################################################################
#
# If this CIF has been generated from an entry in the Cambridge 
# Structural Database, then it will include bibliographic, chemical, 
# crystal, experimental, refinement or atomic coordinate data resulting 
# from the CCDC's data processing and validation procedures.
#
#######################################################################

data_AJUGIW
_chemical_formula_moiety         'C14 H13 N1 O3'
_chemical_name_systematic        
1,4,5,6-Tetrahydrocyclopenta[a][1,3]dioxolo[4,5-h][3]benzazepin-3(2H)-one
_symmetry_cell_setting           orthorhombic
_symmetry_space_group_name_H-M   'P b c a'
_symmetry_Int_Tables_number      61
_space_group_name_Hall           '-P 2ac 2ab'
loop_
_symmetry_equiv_pos_site_id
_symmetry_equiv_pos_as_xyz
1 x,y,z
2 1/2-x,-y,1/2+z
3 -x,1/2+y,1/2-z
4 1/2+x,1/2-y,-z
5 -x,-y,-z
6 1/2+x,y,1/2-z
7 x,1/2-y,1/2+z
8 1/2-x,1/2+y,z
_cell_length_a                   12.787(5)
_cell_length_b                   7.464(3)
_cell_length_c                   23.799(10)
_cell_angle_alpha                90
_cell_angle_beta                 90
_cell_angle_gamma                90
_cell_volume                     2271.43
_exptl_crystal_colour            yellow
_exptl_crystal_description       block
_chemical_melting_point          '153-154 deg.C'
_cell_formula_units_Z            8
loop_
_atom_site_label
_atom_site_type_symbol
_atom_site_fract_x
_atom_site_fract_y
_atom_site_fract_z
C1 C 0.73420(18) 0.1285(3) 0.97875(9)
C2 C 0.84043(17) 0.1174(3) 0.95340(8)
H1 H 0.8765 0.0104 0.9660
H2 H 0.8819 0.2214 0.9635
C3 C 0.82180(15) 0.1110(3) 0.89004(8)
H3 H 0.8523 0.2149 0.8719
H4 H 0.8524 0.0037 0.8740
C4 C 0.70409(14) 0.1101(2) 0.88287(8)
C5 C 0.65674(16) 0.1213(3) 0.93390(8)
C6 C 0.47155(16) 0.1405(3) 0.90808(9)
H5 H 0.4736 0.2579 0.8906
H6 H 0.4047 0.1282 0.9269
C7 C 0.48045(14) -0.0022(3) 0.86284(8)
H7 H 0.5017 -0.1136 0.8804
H8 H 0.4118 -0.0211 0.8466
C8 C 0.55608(13) 0.0399(2) 0.81602(8)
C9 C 0.52061(14) 0.0201(3) 0.76091(8)
H9 H 0.4526 -0.0178 0.7537
C10 C 0.58747(15) 0.0573(2) 0.71773(8)
C11 C 0.66862(17) 0.0772(3) 0.63535(9)
H10 H 0.6626 0.1576 0.6035
H11 H 0.6965 -0.0362 0.6222
C12 C 0.68754(14) 0.1165(2) 0.72737(7)
C13 C 0.72532(14) 0.1374(2) 0.78031(8)
H12 H 0.7932 0.1778 0.7862
C14 C 0.65922(13) 0.0966(2) 0.82639(7)
N1 N 0.55400(14) 0.1280(3) 0.94894(8)
H13 H 0.5380 0.1247 0.9840
O1 O 0.71266(15) 0.1430(2) 1.02883(6)
O2 O 0.56875(10) 0.05078(19) 0.66075(5)
O3 O 0.73624(11) 0.1529(2) 0.67704(5)
loop_
_geom_bond_atom_site_label_1
_geom_bond_atom_site_label_2
_geom_bond_site_symmetry_1
_geom_bond_site_symmetry_2
C1 C2 1_555 1_555
C2 H1 1_555 1_555
H2 C2 1_555 1_555
C3 C2 1_555 1_555
H3 C3 1_555 1_555
H4 C3 1_555 1_555
C4 C3 1_555 1_555
C5 C1 1_555 1_555
C6 H5 1_555 1_555
H6 C6 1_555 1_555
C7 C6 1_555 1_555
H7 C7 1_555 1_555
H8 C7 1_555 1_555
C8 C7 1_555 1_555
C9 C8 1_555 1_555
H9 C9 1_555 1_555
C10 C9 1_555 1_555
C11 H10 1_555 1_555
H11 C11 1_555 1_555
C12 C10 1_555 1_555
C13 C12 1_555 1_555
H12 C13 1_555 1_555
C14 C4 1_555 1_555
N1 C5 1_555 1_555
H13 N1 1_555 1_555
O1 C1 1_555 1_555
O2 C10 1_555 1_555
O3 C11 1_555 1_555
C4 C5 1_555 1_555
C6 N1 1_555 1_555
C8 C14 1_555 1_555
C11 O2 1_555 1_555
C12 O3 1_555 1_555
C13 C14 1_555 1_555

#END
