
#######################################################################
#
#                 Cambridge Crystallographic Data Centre
#                                CCDC 
#
#######################################################################
#
# If this CIF has been generated from an entry in the Cambridge 
# Structural Database, then it will include bibliographic, chemical, 
# crystal, experimental, refinement or atomic coordinate data resulting 
# from the CCDC's data processing and validation procedures.
#
#######################################################################

data_AJUPAX
_chemical_name_common            
'(7,12,22,27-tetrakis(pentafluorophenyl)-31,32,33,34,35,36-hexaazaheptacyclo[26.2.1.1$3,6!.1$8,11!.1$13,16!.1$18,21!.1$23,26!]hexatriaconta-1,3,5,7,9,11(35),12,14,16,18,20,22,24,26(32),27,29-hexadecaene-2,17-diol biradical) 1,2-dichloroethane solvate'
_chemical_formula_moiety         'C54 H16 F20 N6 O2,4(C2 H4 Cl2)'
_chemical_name_systematic        
'(meso,meso-5,15,20,30-tetrakis(Pentafluorophenyl)-hexaphyrin-(1.1.1.1.1.1)-10,25-dione biradical) 1,2-dichloroethane solvate'
_symmetry_cell_setting           monoclinic
_symmetry_space_group_name_H-M   'P 21/a'
_symmetry_Int_Tables_number      14
_space_group_name_Hall           '-P 2yab'
loop_
_symmetry_equiv_pos_site_id
_symmetry_equiv_pos_as_xyz
1 x,y,z
2 1/2-x,1/2+y,-z
3 -x,-y,-z
4 1/2+x,1/2-y,z
_cell_length_a                   10.068(4)
_cell_length_b                   27.269(7)
_cell_length_c                   11.909(4)
_cell_angle_alpha                90
_cell_angle_beta                 113.082(13)
_cell_angle_gamma                90
_cell_volume                     3007.8
_exptl_crystal_colour            violet
_exptl_crystal_description       prism
_cell_formula_units_Z            2
_exptl_crystal_recrystallization_method dichloromethane/hexane
loop_
_atom_site_label
_atom_site_type_symbol
_atom_site_fract_x
_atom_site_fract_y
_atom_site_fract_z
C1 C 0.6523(5) -0.13284(15) 1.0710(4)
C2 C 0.5129(5) -0.15447(17) 1.0536(4)
H1 H 0.4966 -0.1818 1.0961
C3 C 0.4122(5) -0.12817(16) 0.9656(4)
H2 H 0.3109 -0.1336 0.9325
C4 C 0.4901(5) -0.08940(16) 0.9311(4)
C5 C 0.4253(5) -0.05119(16) 0.8481(4)
C6 C 0.5018(5) -0.00925(16) 0.8360(4)
C7 C 0.4557(5) 0.03039(17) 0.7539(4)
H3 H 0.3607 0.0352 0.6946
C8 C 0.5716(5) 0.06087(17) 0.7743(4)
H4 H 0.5706 0.0904 0.7317
C9 C 0.6917(5) 0.04076(16) 0.8693(4)
C10 C 0.8428(5) 0.05579(15) 0.9318(4)
C11 C 0.9026(5) 0.08832(16) 0.8642(4)
C12 C 0.8387(5) 0.11189(17) 0.7514(4)
H5 H 0.7399 0.1100 0.6976
C13 C 0.9448(5) 0.13843(17) 0.7320(4)
H6 H 0.9314 0.1586 0.6634
C14 C 1.0764(5) 0.13018(15) 0.8319(4)
C15 C 1.2137(5) 0.14863(15) 0.8456(4)
C16 C 0.2708(5) -0.05536(16) 0.7645(4)
C17 C 0.2195(5) -0.09639(17) 0.6901(4)
C18 C 0.0815(5) -0.10004(18) 0.6044(4)
C19 C -0.0135(5) -0.06118(19) 0.5876(4)
C20 C 0.0296(5) -0.02067(17) 0.6618(4)
C21 C 0.1692(5) -0.01808(16) 0.7487(4)
C22 C 1.2089(5) 0.18808(16) 0.7572(4)
C23 C 1.2601(5) 0.18171(15) 0.6661(4)
C24 C 1.2510(5) 0.21809(18) 0.5816(4)
C25 C 1.1900(5) 0.26289(18) 0.5886(5)
C26 C 1.1382(5) 0.27037(16) 0.6782(5)
C27 C 1.1468(5) 0.23369(16) 0.7606(4)
N1 N 0.6345(4) -0.09358(13) 0.9943(3)
N2 N 0.6459(4) -0.00076(13) 0.9063(4)
H7 H 0.7006 -0.0196 0.9668
N3 N 1.0462(4) 0.09969(13) 0.9111(3)
H8 H 1.1099 0.0891 0.9814
F1 F 0.3095(3) -0.13405(10) 0.6965(3)
F2 F 0.0379(3) -0.13988(11) 0.5329(3)
F3 F -0.1470(3) -0.06351(12) 0.5017(3)
F4 F -0.0626(3) 0.01635(11) 0.6492(3)
F5 F 0.2051(3) 0.02235(10) 0.8175(3)
F6 F 1.3165(3) 0.13818(10) 0.6536(3)
F7 F 1.2979(4) 0.20995(12) 0.4924(3)
F8 F 1.1823(4) 0.29846(11) 0.5092(3)
F9 F 1.0783(3) 0.31384(10) 0.6859(3)
F10 F 1.0929(3) 0.24240(10) 0.8448(3)
O1 O 0.9181(4) 0.04046(13) 1.0335(3)
C1B C 1.3477(5) 0.13284(15) 0.9290(4)
C2B C 1.4871(5) 0.15447(17) 0.9464(4)
H1B H 1.5034 0.1818 0.9039
C3B C 1.5878(5) 0.12817(16) 1.0344(4)
H2B H 1.6891 0.1336 1.0675
C4B C 1.5099(5) 0.08940(16) 1.0689(4)
C5B C 1.5747(5) 0.05119(16) 1.1519(4)
C6B C 1.4982(5) 0.00925(16) 1.1640(4)
C7B C 1.5443(5) -0.03039(17) 1.2461(4)
H3B H 1.6393 -0.0352 1.3054
C8B C 1.4284(5) -0.06087(17) 1.2257(4)
H4B H 1.4294 -0.0904 1.2683
C9B C 1.3083(5) -0.04076(16) 1.1307(4)
C10B C 1.1572(5) -0.05579(15) 1.0682(4)
C11B C 1.0974(5) -0.08832(16) 1.1358(4)
C12B C 1.1613(5) -0.11189(17) 1.2486(4)
H5B H 1.2601 -0.1100 1.3024
C13B C 1.0552(5) -0.13843(17) 1.2680(4)
H6B H 1.0686 -0.1586 1.3366
C14B C 0.9236(5) -0.13018(15) 1.1681(4)
C15B C 0.7863(5) -0.14863(15) 1.1544(4)
C16B C 1.7292(5) 0.05536(16) 1.2355(4)
C17B C 1.7805(5) 0.09639(17) 1.3099(4)
C18B C 1.9185(5) 0.10004(18) 1.3956(4)
C19B C 2.0135(5) 0.06118(19) 1.4124(4)
C20B C 1.9704(5) 0.02067(17) 1.3382(4)
C21B C 1.8308(5) 0.01808(16) 1.2513(4)
C22B C 0.7911(5) -0.18808(16) 1.2428(4)
C23B C 0.7399(5) -0.18171(15) 1.3339(4)
C24B C 0.7490(5) -0.21809(18) 1.4184(4)
C25B C 0.8100(5) -0.26289(18) 1.4114(5)
C26B C 0.8618(5) -0.27037(16) 1.3218(5)
C27B C 0.8532(5) -0.23369(16) 1.2394(4)
N1B N 1.3655(4) 0.09358(13) 1.0057(3)
N2B N 1.3541(4) 0.00076(13) 1.0937(4)
H7B H 1.2994 0.0196 1.0332
N3B N 0.9538(4) -0.09969(13) 1.0889(3)
H8B H 0.8901 -0.0891 1.0186
F1B F 1.6905(3) 0.13405(10) 1.3035(3)
F2B F 1.9621(3) 0.13988(11) 1.4671(3)
F3B F 2.1470(3) 0.06351(12) 1.4983(3)
F4B F 2.0626(3) -0.01635(11) 1.3508(3)
F5B F 1.7949(3) -0.02235(10) 1.1825(3)
F6B F 0.6835(3) -0.13818(10) 1.3464(3)
F7B F 0.7021(4) -0.20995(12) 1.5076(3)
F8B F 0.8177(4) -0.29846(11) 1.4908(3)
F9B F 0.9217(3) -0.31384(10) 1.3141(3)
F10B F 0.9071(3) -0.24240(10) 1.1552(3)
O1B O 1.0819(4) -0.04046(13) 0.9665(3)
C28 C 0.4087(5) 0.0608(2) 0.3952(5)
H9 H 0.3772 0.0326 0.3385
H10 H 0.3585 0.0590 0.4518
C29 C 0.3711(6) 0.1078(2) 0.3248(5)
H11 H 0.4255 0.1106 0.2715
H12 H 0.3965 0.1360 0.3814
Cl1 Cl 0.59990(14) 0.05821(5) 0.47964(12)
Cl2 Cl 0.18124(15) 0.10749(7) 0.23425(14)
C30 C 0.9860(8) 0.2670(2) 0.1942(6)
H13 H 0.9114 0.2889 0.1372
H14 H 1.0671 0.2878 0.2471
C31 C 1.0390(6) 0.2327(2) 0.1226(6)
H15 H 1.1063 0.2087 0.1788
H16 H 1.0929 0.2516 0.0831
Cl3 Cl 0.91137(18) 0.23469(7) 0.28659(15)
Cl4 Cl 0.89396(18) 0.20076(6) 0.00858(15)
loop_
_geom_bond_atom_site_label_1
_geom_bond_atom_site_label_2
_geom_bond_site_symmetry_1
_geom_bond_site_symmetry_2
C1 C2 1_555 1_555
C2 H1 1_555 1_555
C3 C2 1_555 1_555
H2 C3 1_555 1_555
C4 C3 1_555 1_555
C5 C4 1_555 1_555
C6 C5 1_555 1_555
C7 C6 1_555 1_555
H3 C7 1_555 1_555
C8 C7 1_555 1_555
H4 C8 1_555 1_555
C9 C8 1_555 1_555
C10 C9 1_555 1_555
C11 C10 1_555 1_555
C12 C11 1_555 1_555
H5 C12 1_555 1_555
C13 C12 1_555 1_555
H6 C13 1_555 1_555
C14 C13 1_555 1_555
C15 C14 1_555 1_555
C16 C5 1_555 1_555
C17 C16 1_555 1_555
C18 C17 1_555 1_555
C19 C18 1_555 1_555
C20 C19 1_555 1_555
C21 C16 1_555 1_555
C22 C15 1_555 1_555
C23 C22 1_555 1_555
C24 C23 1_555 1_555
C25 C24 1_555 1_555
C26 C25 1_555 1_555
C27 C22 1_555 1_555
N1 C1 1_555 1_555
N2 C6 1_555 1_555
H7 N2 1_555 1_555
N3 C11 1_555 1_555
H8 N3 1_555 1_555
F1 C17 1_555 1_555
F2 C18 1_555 1_555
F3 C19 1_555 1_555
F4 C20 1_555 1_555
F5 C21 1_555 1_555
F6 C23 1_555 1_555
F7 C24 1_555 1_555
F8 C25 1_555 1_555
F9 C26 1_555 1_555
F10 C27 1_555 1_555
O1 C10 1_555 1_555
C28 H9 1_555 1_555
H10 C28 1_555 1_555
C29 C28 1_555 1_555
H11 C29 1_555 1_555
H12 C29 1_555 1_555
C30 H13 1_555 1_555
H14 C30 1_555 1_555
C31 C30 1_555 1_555
H15 C31 1_555 1_555
H16 C31 1_555 1_555
Cl1 C28 1_555 1_555
Cl2 C29 1_555 1_555
Cl3 C30 1_555 1_555
Cl4 C31 1_555 1_555
C1B C15 1_555 1_555
C2B C1B 1_555 1_555
H1B C2B 1_555 1_555
C3B C2B 1_555 1_555
H2B C3B 1_555 1_555
C4B C3B 1_555 1_555
C5B C4B 1_555 1_555
C6B C5B 1_555 1_555
C7B C6B 1_555 1_555
H3B C7B 1_555 1_555
C8B C7B 1_555 1_555
H4B C8B 1_555 1_555
C9B C8B 1_555 1_555
C10B C9B 1_555 1_555
C11B C10B 1_555 1_555
C12B C11B 1_555 1_555
H5B C12B 1_555 1_555
C13B C12B 1_555 1_555
H6B C13B 1_555 1_555
C14B C13B 1_555 1_555
C15B C1 1_555 1_555
C16B C5B 1_555 1_555
C17B C16B 1_555 1_555
C18B C17B 1_555 1_555
C19B C18B 1_555 1_555
C20B C19B 1_555 1_555
C21B C16B 1_555 1_555
C22B C15B 1_555 1_555
C23B C22B 1_555 1_555
C24B C23B 1_555 1_555
C25B C24B 1_555 1_555
C26B C25B 1_555 1_555
C27B C22B 1_555 1_555
N1B C1B 1_555 1_555
N2B C6B 1_555 1_555
H7B N2B 1_555 1_555
N3B C11B 1_555 1_555
H8B N3B 1_555 1_555
F1B C17B 1_555 1_555
F2B C18B 1_555 1_555
F3B C19B 1_555 1_555
F4B C20B 1_555 1_555
F5B C21B 1_555 1_555
F6B C23B 1_555 1_555
F7B C24B 1_555 1_555
F8B C25B 1_555 1_555
F9B C26B 1_555 1_555
F10B C27B 1_555 1_555
O1B C10B 1_555 1_555
C4 N1 1_555 1_555
C9 N2 1_555 1_555
C14 N3 1_555 1_555
C20 C21 1_555 1_555
C26 C27 1_555 1_555
C4B N1B 1_555 1_555
C9B N2B 1_555 1_555
C14B C15B 1_555 1_555
C14B N3B 1_555 1_555
C20B C21B 1_555 1_555
C26B C27B 1_555 1_555

#END
