
#######################################################################
#
#                 Cambridge Crystallographic Data Centre
#                                CCDC 
#
#######################################################################
#
# If this CIF has been generated from an entry in the Cambridge 
# Structural Database, then it will include bibliographic, chemical, 
# crystal, experimental, refinement or atomic coordinate data resulting 
# from the CCDC's data processing and validation procedures.
#
#######################################################################

data_AJUQOM
_chemical_formula_moiety         'C21 H20 O2'
_chemical_name_systematic        
2-(Cyclohex-2-en-1-yl)-1,3-diphenylpropane-1,3-dione
_symmetry_cell_setting           monoclinic
_symmetry_space_group_name_H-M   'P 21/n'
_symmetry_Int_Tables_number      14
_space_group_name_Hall           '-P 2yn'
loop_
_symmetry_equiv_pos_site_id
_symmetry_equiv_pos_as_xyz
1 x,y,z
2 1/2-x,1/2+y,1/2-z
3 -x,-y,-z
4 1/2+x,1/2-y,1/2+z
_cell_length_a                   9.2978(18)
_cell_length_b                   19.381(4)
_cell_length_c                   10.0507(19)
_cell_angle_alpha                90
_cell_angle_beta                 110.099(4)
_cell_angle_gamma                90
_cell_volume                     1700.84
_exptl_crystal_colour            colorless
_exptl_crystal_description       prism
_chemical_melting_point          '96-98 deg.C'
_cell_formula_units_Z            4
_exptl_crystal_recrystallization_method 'ethyl acetate/hexane'
loop_
_atom_site_label
_atom_site_type_symbol
_atom_site_fract_x
_atom_site_fract_y
_atom_site_fract_z
O1 O 0.7656(4) 0.24224(16) 0.4797(3)
O2 O 0.6420(3) 0.33823(19) 0.6532(3)
C1 C 0.8941(4) 0.29673(19) 0.6990(4)
H1 H 0.9811 0.2833 0.7826
C2 C 0.9432(5) 0.3545(2) 0.6196(4)
H2 H 0.8584 0.3627 0.5307
C3 C 1.0820(6) 0.3317(3) 0.5818(6)
H3 H 1.1483 0.3042 0.6594
H4 H 1.0464 0.3020 0.4991
C4 C 1.1681(12) 0.3845(6) 0.5539(14)
H5 H 1.1105 0.4037 0.4619
H6 H 1.2607 0.3644 0.5466
C5 C 1.2151(8) 0.4441(4) 0.6606(11)
H7 H 1.3069 0.4315 0.7383
H8 H 1.2379 0.4846 0.6147
C6 C 1.0908(8) 0.4602(3) 0.7161(7)
H9 H 1.0968 0.5013 0.7656
C7 C 0.9753(6) 0.4208(2) 0.6996(5)
H10 H 0.9052 0.4348 0.7415
C8 C 0.8340(4) 0.2340(2) 0.6062(4)
C9 C 0.8497(4) 0.1638(2) 0.6679(4)
C10 C 0.7662(5) 0.1104(2) 0.5848(5)
H11 H 0.7003 0.1196 0.4933
C11 C 0.7796(6) 0.0440(3) 0.6358(6)
H12 H 0.7210 0.0090 0.5797
C12 C 0.8792(6) 0.0293(3) 0.7694(5)
H13 H 0.8903 -0.0158 0.8029
C13 C 0.9612(6) 0.0810(2) 0.8521(5)
H14 H 1.0270 0.0712 0.9433
C14 C 0.9481(5) 0.1474(2) 0.8028(4)
H15 H 1.0060 0.1821 0.8607
C15 C 0.7600(4) 0.3217(2) 0.7457(4)
C16 C 0.7768(4) 0.3284(2) 0.8965(4)
C17 C 0.8980(5) 0.3037(3) 1.0066(4)
H16 H 0.9780 0.2816 0.9882
C18 C 0.9034(6) 0.3112(3) 1.1458(5)
H17 H 0.9845 0.2925 1.2194
C19 C 0.7901(7) 0.3459(3) 1.1745(6)
H18 H 0.7960 0.3528 1.2678
C20 C 0.6688(6) 0.3704(3) 1.0664(6)
H19 H 0.5906 0.3935 1.0860
C21 C 0.6601(5) 0.3617(2) 0.9287(5)
H20 H 0.5752 0.3782 0.8558
loop_
_geom_bond_atom_site_label_1
_geom_bond_atom_site_label_2
_geom_bond_site_symmetry_1
_geom_bond_site_symmetry_2
O1 C8 1_555 1_555
O2 C15 1_555 1_555
C1 H1 1_555 1_555
C2 C1 1_555 1_555
H2 C2 1_555 1_555
C3 C2 1_555 1_555
H3 C3 1_555 1_555
H4 C3 1_555 1_555
C4 C3 1_555 1_555
H5 C4 1_555 1_555
H6 C4 1_555 1_555
C5 C4 1_555 1_555
H7 C5 1_555 1_555
H8 C5 1_555 1_555
C6 C5 1_555 1_555
H9 C6 1_555 1_555
C7 C2 1_555 1_555
H10 C7 1_555 1_555
C8 C1 1_555 1_555
C9 C8 1_555 1_555
C10 C9 1_555 1_555
H11 C10 1_555 1_555
C11 C10 1_555 1_555
H12 C11 1_555 1_555
C12 C11 1_555 1_555
H13 C12 1_555 1_555
C13 C12 1_555 1_555
H14 C13 1_555 1_555
C14 C9 1_555 1_555
H15 C14 1_555 1_555
C15 C1 1_555 1_555
C16 C15 1_555 1_555
C17 C16 1_555 1_555
H16 C17 1_555 1_555
C18 C17 1_555 1_555
H17 C18 1_555 1_555
C19 C18 1_555 1_555
H18 C19 1_555 1_555
C20 C19 1_555 1_555
H19 C20 1_555 1_555
C21 C16 1_555 1_555
H20 C21 1_555 1_555
C6 C7 1_555 1_555
C13 C14 1_555 1_555
C20 C21 1_555 1_555

#END
