
#######################################################################
#
#                 Cambridge Crystallographic Data Centre
#                                CCDC 
#
#######################################################################
#
# If this CIF has been generated from an entry in the Cambridge 
# Structural Database, then it will include bibliographic, chemical, 
# crystal, experimental, refinement or atomic coordinate data resulting 
# from the CCDC's data processing and validation procedures.
#
#######################################################################

data_AJUSUU
_chemical_name_common            
3-((E)-3-(Phenylamino)prop-1-enyl)oxazolidin-2-one
_chemical_formula_moiety         'C12 H14 N2 O2'
_chemical_name_systematic        
3-((E)-3-Anilinoprop-1-en-1-yl)-1,3-oxazolidin-2-one
_symmetry_cell_setting           monoclinic
_symmetry_space_group_name_H-M   'I 2/a'
_symmetry_Int_Tables_number      15
_space_group_name_Hall           '-I 2ya'
loop_
_symmetry_equiv_pos_site_id
_symmetry_equiv_pos_as_xyz
1 x,y,z
2 1/2-x,y,-z
3 1/2+x,1/2+y,1/2+z
4 -x,1/2+y,1/2-z
5 -x,-y,-z
6 1/2+x,-y,z
7 1/2-x,1/2-y,1/2-z
8 x,1/2-y,1/2+z
_cell_length_a                   16.015(3)
_cell_length_b                   5.4583(9)
_cell_length_c                   25.143(5)
_cell_angle_alpha                90
_cell_angle_beta                 99.848(2)
_cell_angle_gamma                90
_cell_volume                     2165.48
_exptl_crystal_colour            'pale yellow'
_exptl_crystal_description       plate
_chemical_melting_point          '89-91 deg.C'
_cell_formula_units_Z            8
loop_
_atom_site_label
_atom_site_type_symbol
_atom_site_fract_x
_atom_site_fract_y
_atom_site_fract_z
N1 N 0.27363(6) 0.15576(17) 0.41686(4)
C1 C 0.20898(7) -0.0002(2) 0.39847(4)
O1 O 0.18775(5) -0.18151(16) 0.42059(4)
O2 O 0.16911(5) 0.07426(17) 0.34944(3)
C2 C 0.20550(8) 0.3018(2) 0.33488(5)
H1 H 0.1640 0.4369 0.3335
H2 H 0.2230 0.2874 0.2991
C3 C 0.28232(7) 0.3496(2) 0.37873(4)
H3 H 0.3360 0.3347 0.3645
H4 H 0.2795 0.5135 0.3952
C4 C 0.32897(6) 0.1216(2) 0.46548(4)
H5 H 0.3221 -0.0210 0.4860
C5 C 0.39069(7) 0.2766(2) 0.48493(4)
H6 H 0.3959 0.4259 0.4664
C6 C 0.45212(7) 0.2215(2) 0.53535(4)
H7 H 0.4372 0.0622 0.5501
H8 H 0.5098 0.2068 0.5264
N2 N 0.45232(6) 0.4093(2) 0.57611(4)
H9 H 0.4104(9) 0.510(3) 0.5731(6)
C7 C 0.50571(7) 0.3922(2) 0.62537(4)
C8 C 0.56430(7) 0.2002(2) 0.63670(4)
H10 H 0.5669 0.0762 0.6105
C9 C 0.61867(7) 0.1909(2) 0.68620(5)
H11 H 0.6585 0.0610 0.6932
C10 C 0.61577(7) 0.3672(2) 0.72534(5)
H12 H 0.6532 0.3593 0.7590
C11 C 0.55702(7) 0.5564(2) 0.71459(5)
H13 H 0.5538 0.6771 0.7414
C12 C 0.50318(7) 0.5709(2) 0.66535(4)
H14 H 0.4641 0.7029 0.6585
loop_
_geom_bond_atom_site_label_1
_geom_bond_atom_site_label_2
_geom_bond_site_symmetry_1
_geom_bond_site_symmetry_2
N1 C1 1_555 1_555
C1 O1 1_555 1_555
O2 C1 1_555 1_555
C2 O2 1_555 1_555
H1 C2 1_555 1_555
H2 C2 1_555 1_555
C3 N1 1_555 1_555
H3 C3 1_555 1_555
H4 C3 1_555 1_555
C4 N1 1_555 1_555
H5 C4 1_555 1_555
C5 C4 1_555 1_555
H6 C5 1_555 1_555
C6 C5 1_555 1_555
H7 C6 1_555 1_555
H8 C6 1_555 1_555
N2 C6 1_555 1_555
H9 N2 1_555 1_555
C7 N2 1_555 1_555
C8 C7 1_555 1_555
H10 C8 1_555 1_555
C9 C8 1_555 1_555
H11 C9 1_555 1_555
C10 C9 1_555 1_555
H12 C10 1_555 1_555
C11 C10 1_555 1_555
H13 C11 1_555 1_555
C12 C7 1_555 1_555
H14 C12 1_555 1_555
C2 C3 1_555 1_555
C11 C12 1_555 1_555

#END
