
#######################################################################
#
#                 Cambridge Crystallographic Data Centre
#                                CCDC 
#
#######################################################################
#
# If this CIF has been generated from an entry in the Cambridge 
# Structural Database, then it will include bibliographic, chemical, 
# crystal, experimental, refinement or atomic coordinate data resulting 
# from the CCDC's data processing and validation procedures.
#
#######################################################################

data_AJUTII
_chemical_formula_moiety         'C15 H18 O3 S1'
_chemical_name_systematic        
5-((Ethylthio)carbonyl)-4-methyl-6-phenyltetrahydropyran-2-one
_symmetry_cell_setting           monoclinic
_symmetry_space_group_name_H-M   'P 21/c'
_symmetry_Int_Tables_number      14
_space_group_name_Hall           '-P 2ybc'
loop_
_symmetry_equiv_pos_site_id
_symmetry_equiv_pos_as_xyz
1 x,y,z
2 x,1/2-y,1/2+z
3 -x,-y,-z
4 -x,1/2+y,1/2-z
_cell_length_a                   10.2348(18)
_cell_length_b                   23.217(3)
_cell_length_c                   6.268(2)
_cell_angle_alpha                90
_cell_angle_beta                 99.96(2)
_cell_angle_gamma                90
_cell_volume                     1466.96
_exptl_crystal_colour            colorless
_exptl_crystal_description       needle
_cell_formula_units_Z            4
loop_
_atom_site_label
_atom_site_type_symbol
_atom_site_fract_x
_atom_site_fract_y
_atom_site_fract_z
S1 S 0.21320(15) 0.47231(6) 0.1627(3)
O1 O 0.5825(4) 0.29033(17) -0.1041(7)
O2 O 0.3847(3) 0.30002(13) -0.0321(5)
O3 O 0.4035(3) 0.43125(14) -0.0202(6)
C1 C 0.5171(5) 0.3084(2) 0.0234(10)
C2 C 0.5740(6) 0.3401(3) 0.2239(10)
C3 C 0.4794(5) 0.3577(2) 0.3743(9)
C4 C 0.3412(5) 0.3688(2) 0.2486(8)
C5 C 0.2935(5) 0.3155(2) 0.1119(9)
C6 C 0.5349(8) 0.4086(3) 0.5158(13)
C7 C 0.3323(5) 0.42309(19) 0.1095(8)
C8 C 0.2340(8) 0.5283(3) -0.0280(13)
C9 C 0.1618(10) 0.5180(5) -0.2535(17)
C10 C 0.1577(3) 0.32079(14) -0.0220(6)
C11 C 0.1402(4) 0.34409(15) -0.2270(7)
H1 H 0.2135 0.3556 -0.2860
C12 C 0.0144(5) 0.35041(16) -0.3447(6)
H2 H 0.0026 0.3661 -0.4832
C13 C -0.0940(4) 0.33343(18) -0.2574(9)
H3 H -0.1790 0.3377 -0.3369
C14 C -0.0766(4) 0.31013(17) -0.0524(9)
H4 H -0.1498 0.2987 0.0066
C15 C 0.0493(4) 0.30381(15) 0.0653(7)
H5 H 0.0611 0.2881 0.2037
H6 H 0.643(5) 0.3142(19) 0.300(8)
H7 H 0.610(5) 0.373(2) 0.160(8)
H8 H 0.473(4) 0.3267(18) 0.469(7)
H9 H 0.279(3) 0.3747(15) 0.336(6)
H10 H 0.302(3) 0.2858(16) 0.222(6)
H11 H 0.470(5) 0.4210(19) 0.613(8)
H12 H 0.549(6) 0.440(3) 0.413(10)
H13 H 0.620(7) 0.399(3) 0.595(11)
H14 H 0.203(5) 0.559(3) 0.036(9)
H15 H 0.348(9) 0.528(4) -0.045(14)
H16 H 0.214(8) 0.482(3) -0.256(13)
H17 H 0.170(7) 0.553(4) -0.340(13)
H18 H 0.083(7) 0.508(3) -0.251(12)
loop_
_geom_bond_atom_site_label_1
_geom_bond_atom_site_label_2
_geom_bond_site_symmetry_1
_geom_bond_site_symmetry_2
S1 C7 1_555 1_555
O1 C1 1_555 1_555
O2 C1 1_555 1_555
O3 C7 1_555 1_555
C1 C2 1_555 1_555
C2 C3 1_555 1_555
C3 C4 1_555 1_555
C4 C5 1_555 1_555
C5 O2 1_555 1_555
C6 C3 1_555 1_555
C7 C4 1_555 1_555
C8 S1 1_555 1_555
C9 C8 1_555 1_555
C10 C5 1_555 1_555
C11 C10 1_555 1_555
H1 C11 1_555 1_555
C12 C11 1_555 1_555
H2 C12 1_555 1_555
C13 C12 1_555 1_555
H3 C13 1_555 1_555
C14 C13 1_555 1_555
H4 C14 1_555 1_555
C15 C10 1_555 1_555
H5 C15 1_555 1_555
H6 C2 1_555 1_555
H7 C2 1_555 1_555
H8 C3 1_555 1_555
H9 C4 1_555 1_555
H10 C5 1_555 1_555
H11 C6 1_555 1_555
H12 C6 1_555 1_555
H13 C6 1_555 1_555
H14 C8 1_555 1_555
H15 C8 1_555 1_555
H16 C9 1_555 1_555
H17 C9 1_555 1_555
H18 C9 1_555 1_555
C14 C15 1_555 1_555

#END
