
#######################################################################
#
#                 Cambridge Crystallographic Data Centre
#                                CCDC 
#
#######################################################################
#
# If this CIF has been generated from an entry in the Cambridge 
# Structural Database, then it will include bibliographic, chemical, 
# crystal, experimental, refinement or atomic coordinate data resulting 
# from the CCDC's data processing and validation procedures.
#
#######################################################################

data_AKADOF
_chemical_formula_moiety         'C7 H4 Se6 1+,C7 H4 Se6,Cl1 1-'
_chemical_name_systematic        
'bis(Methylenediselenotetraselenafulvalene) chloride'
_symmetry_cell_setting           monoclinic
_symmetry_space_group_name_H-M   'C 2/c'
_symmetry_Int_Tables_number      15
_space_group_name_Hall           '-C 2yn'
loop_
_symmetry_equiv_pos_site_id
_symmetry_equiv_pos_as_xyz
1 x,y,z
2 x,-y,1/2+z
3 1/2+x,1/2+y,z
4 1/2+x,1/2-y,1/2+z
5 -x,-y,-z
6 -x,y,1/2-z
7 1/2-x,1/2-y,-z
8 1/2-x,1/2+y,1/2-z
_cell_length_a                   23.494(2)
_cell_length_b                   11.220(2)
_cell_length_c                   8.918(2)
_cell_angle_alpha                90
_cell_angle_beta                 99.68(1)
_cell_angle_gamma                90
_cell_volume                     2317.34
_exptl_crystal_colour            black
_exptl_crystal_description       plate
_cell_formula_units_Z            4
loop_
_atom_site_label
_atom_site_type_symbol
_atom_site_fract_x
_atom_site_fract_y
_atom_site_fract_z
Cl1 Cl 0.5000 0.2421(3) 0.2500
Se1 Se 0.75614(3) 0.23536(7) 0.27769(8)
Se2 Se 0.79364(3) 0.04476(7) 0.04497(8)
Se3 Se 0.88572(3) 0.21706(8) 0.48723(8)
Se4 Se 0.92191(3) 0.02346(8) 0.25703(9)
Se5 Se 0.65732(3) 0.02209(7) -0.13225(8)
Se6 Se 0.61520(3) 0.20268(7) 0.10358(8)
C1 C 0.7339(3) 0.1348(7) 0.1082(8)
C2 C 0.8472(3) 0.0932(7) 0.2149(7)
C3 C 0.8322(3) 0.1731(6) 0.3116(7)
C4 C 0.9482(3) 0.1549(9) 0.3946(10)
C5 C 0.6780(3) 0.1250(6) 0.0358(7)
C6 C 0.5613(3) 0.1122(8) -0.0282(10)
C7 C 0.5788(4) 0.0369(8) -0.126(1)
H1 H 0.9639 0.2171 0.3401
H2 H 0.9788 0.1274 0.4732
H3 H 0.5209 0.1195 -0.0245
H4 H 0.5499 -0.0089 -0.1917
loop_
_geom_bond_atom_site_label_1
_geom_bond_atom_site_label_2
_geom_bond_site_symmetry_1
_geom_bond_site_symmetry_2
Se1 C1 1_555 1_555
Se2 C1 1_555 1_555
Se3 C3 1_555 1_555
Se4 C2 1_555 1_555
Se5 C5 1_555 1_555
Se6 C5 1_555 1_555
C1 C5 1_555 1_555
C2 Se2 1_555 1_555
C3 Se1 1_555 1_555
C4 Se3 1_555 1_555
C6 Se6 1_555 1_555
C7 Se5 1_555 1_555
H1 C4 1_555 1_555
H2 C4 1_555 1_555
H3 C6 1_555 1_555
H4 C7 1_555 1_555
Se4 C4 1_555 1_555
C2 C3 1_555 1_555
C6 C7 1_555 1_555

#END
