
#######################################################################
#
#                 Cambridge Crystallographic Data Centre
#                                CCDC 
#
#######################################################################
#
# If this CIF has been generated from an entry in the Cambridge 
# Structural Database, then it will include bibliographic, chemical, 
# crystal, experimental, refinement or atomic coordinate data resulting 
# from the CCDC's data processing and validation procedures.
#
#######################################################################

data_AKADUL
_chemical_formula_moiety         'C7 H4 Se6 1+,C7 H4 Se6,Cl1 O4 1-'
_chemical_name_systematic        
'bis(Methylenediselenotetraselenafulvalene) perchlorate'
_symmetry_cell_setting           orthorhombic
_symmetry_space_group_name_H-M   'C 2 2 21'
_symmetry_Int_Tables_number      20
_space_group_name_Hall           'C 2n 2'
loop_
_symmetry_equiv_pos_site_id
_symmetry_equiv_pos_as_xyz
1 x,y,z
2 -x,-y,1/2+z
3 x,-y,-z
4 -x,y,1/2-z
5 1/2+x,1/2+y,z
6 1/2-x,1/2-y,1/2+z
7 1/2+x,1/2-y,-z
8 1/2-x,1/2+y,1/2-z
_cell_length_a                   4.178(3)
_cell_length_b                   31.385(4)
_cell_length_c                   10.650(3)
_cell_angle_alpha                90
_cell_angle_beta                 90
_cell_angle_gamma                90
_cell_volume                     1396.5
_exptl_crystal_colour            brown
_exptl_crystal_description       plate
_cell_formula_units_Z            2
loop_
_atom_site_label
_atom_site_type_symbol
_atom_site_fract_x
_atom_site_fract_y
_atom_site_fract_z
Cl1 Cl 0.781(6) 0.0000 0.5000
O1 O 0.50(9) 0.0000 0.5000
O2 O 0.95(3) -0.010(2) 0.577(5)
O2B O 0.95(3) 0.010(2) 0.423(5)
Se1 Se 0.1735(4) 0.38256(4) 0.3863(1)
Se2 Se 0.1821(4) 0.27814(4) 0.3824(1)
Se3 Se 0.1758(4) 0.16980(4) 0.3832(1)
C1 C 0.0000 0.4168(6) 0.2500
C2 C 0.073(3) 0.3308(4) 0.306(1)
C3 C 0.0000 0.2444(8) 0.2500
C4 C 0.0000 0.2032(4) 0.2500
C5 C 0.075(4) 0.1178(5) 0.305(1)
H1 H -0.1660 0.4354 0.2826
H2 H 0.1660 0.4354 0.2174
H3 H 0.1181 0.0913 0.3466
Se1C Se -0.1735(4) 0.38256(4) 0.1137(1)
C2C C -0.073(3) 0.3308(4) 0.194(1)
Se2C Se -0.1821(4) 0.27814(4) 0.1176(1)
C5C C -0.075(4) 0.1178(5) 0.195(1)
Se3C Se -0.1758(4) 0.16980(4) 0.1168(1)
H3C H -0.1181 0.0913 0.1534
loop_
_geom_bond_atom_site_label_1
_geom_bond_atom_site_label_2
_geom_bond_site_symmetry_1
_geom_bond_site_symmetry_2
Se1 C1 1_555 1_555
Se2 C2 1_555 1_555
Se3 C4 1_555 1_555
Cl1 O1 1_555 1_555
O2 Cl1 1_555 1_555
C1 H1 1_555 1_555
C2 Se1 1_555 1_555
C3 Se2 1_555 1_555
C4 C3 1_555 1_555
C5 Se3 1_555 1_555
H2 C1 1_555 1_555
H3 C5 1_555 1_555
Se1C C1 1_555 1_555
C2C C2 1_555 1_555
Se2C C3 1_555 1_555
C5C C5 1_555 1_555
Se3C C4 1_555 1_555
H3C C5C 1_555 1_555
O2B Cl1 1_555 1_555
Se1C C2C 1_555 1_555
C2C Se2C 1_555 1_555
C5C Se3C 1_555 1_555

#END
