
#######################################################################
#
#                 Cambridge Crystallographic Data Centre
#                                CCDC 
#
#######################################################################
#
# If this CIF has been generated from an entry in the Cambridge 
# Structural Database, then it will include bibliographic, chemical, 
# crystal, experimental, refinement or atomic coordinate data resulting 
# from the CCDC's data processing and validation procedures.
#
#######################################################################

data_AKAFUN
_chemical_formula_moiety         'C10 H8 S8 1+,C10 H8 S8,C4 F9 O6 S3 1-'
_chemical_name_systematic        
'bis(Ethylenedithio)tetrathiafulvalenium tris(trifluoromethylsulfanyl)methanide'
_symmetry_cell_setting           triclinic
_symmetry_space_group_name_H-M   'P -1'
_symmetry_Int_Tables_number      2
_space_group_name_Hall           '-P 1'
loop_
_symmetry_equiv_pos_site_id
_symmetry_equiv_pos_as_xyz
1 x,y,z
2 -x,-y,-z
_cell_length_a                   6.2692(4)
_cell_length_b                   8.4218(6)
_cell_length_c                   40.249(3)
_cell_angle_alpha                94.566(1)
_cell_angle_beta                 90.949(1)
_cell_angle_gamma                106.734(1)
_cell_volume                     2026.88
_exptl_crystal_colour            black
_exptl_crystal_description       rod
_cell_formula_units_Z            2
loop_
_atom_site_label
_atom_site_type_symbol
_atom_site_fract_x
_atom_site_fract_y
_atom_site_fract_z
S1 S 0.8366(4) 0.2192(4) 0.44072(6)
S2 S 0.3588(4) 0.0660(3) 0.42836(6)
S3 S 0.7512(4) 0.3363(5) 0.51615(6)
S4 S 0.2726(4) 0.1813(4) 0.50452(6)
S5 S 0.9651(4) 0.1487(4) 0.37298(6)
S6 S 0.3951(4) -0.0368(4) 0.35710(6)
S7 S 0.7231(4) 0.4523(5) 0.58654(6)
S8 S 0.1522(4) 0.2674(4) 0.57222(7)
C1 C 0.5730(14) 0.1725(12) 0.4567(2)
C2 C 0.5363(14) 0.2227(12) 0.4883(2)
C3 C 0.7449(15) 0.1316(11) 0.4005(2)
C4 C 0.5286(14) 0.0608(11) 0.3948(2)
C5 C 0.584(2) 0.3494(13) 0.5501(2)
C6 C 0.3680(14) 0.2771(11) 0.5441(2)
C7 C 0.829(2) 0.0373(13) 0.3347(2)
C8 C 0.599(2) 0.0575(14) 0.3278(2)
C9 C 0.496(2) 0.497(2) 0.6083(3)
C10 C 0.301(2) 0.359(2) 0.6097(3)
H1 H 0.8117 -0.0798 0.3361
H2 H 0.9228 0.0728 0.3167
H3 H 0.6149 0.1758 0.3289
H4 H 0.5478 0.0118 0.3057
H5 H 0.4507 0.5804 0.5975
H6 H 0.5466 0.5416 0.6307
H7 H 0.3488 0.2718 0.6197
H8 H 0.2000 0.3899 0.6246
C11 C 0.3248(12) 0.4947(9) 0.2509(2)
S9 S 0.2164(4) 0.3064(3) 0.22765(6)
O1 O 0.0578(12) 0.1975(9) 0.2459(2)
O2 O 0.1696(15) 0.3315(9) 0.1940(2)
C12 C 0.442(2) 0.2092(12) 0.2224(2)
F1 F 0.6063(13) 0.3009(9) 0.2063(2)
F2 F 0.5238(10) 0.1823(8) 0.25112(14)
F3 F 0.3625(14) 0.0657(8) 0.2043(2)
S10 S 0.4073(4) 0.6783(3) 0.23260(5)
O3 O 0.357(2) 0.6548(10) 0.1976(2)
O4 O 0.3467(13) 0.8039(9) 0.2529(2)
C13 C 0.717(2) 0.7501(14) 0.2350(3)
F4 F 0.8026(13) 0.6207(12) 0.2308(3)
F5 F 0.788(2) 0.8439(14) 0.2111(2)
F6 F 0.8016(11) 0.8277(9) 0.2628(2)
S11 S 0.3321(3) 0.5012(3) 0.29324(5)
O5 O 0.4985(10) 0.6451(8) 0.30733(14)
O6 O 0.3233(12) 0.3457(9) 0.3047(2)
C14 C 0.067(2) 0.5333(14) 0.3066(2)
F7 F 0.0588(11) 0.6865(9) 0.3035(2)
F8 F -0.1039(10) 0.4314(10) 0.2913(2)
F9 F 0.0548(15) 0.5165(13) 0.3390(2)
S12 S -0.2843(7) 0.3778(8) 0.02896(10)
S13 S 0.1513(7) 0.6237(7) 0.04814(9)
S14 S -0.4414(7) 0.3440(6) 0.09694(10)
S15 S 0.0870(7) 0.6239(7) 0.12067(10)
C15 C -0.226(3) 0.435(2) 0.0718(4)
C16 C -0.026(3) 0.550(2) 0.0803(4)
C17 C -0.358(3) 0.481(3) 0.1356(5)
C18 C -0.120(4) 0.488(3) 0.1470(5)
C19 C -0.0276(14) 0.4989(10) 0.0166(2)
C19A C 0.0276(14) 0.5011(10) -0.0166(2)
S12A S 0.2843(7) 0.6222(8) -0.02896(10)
C15A C 0.226(3) 0.565(2) -0.0718(4)
S14A S 0.4414(7) 0.6560(6) -0.09694(10)
C17A C 0.358(3) 0.519(3) -0.1356(5)
C18A C 0.120(4) 0.512(3) -0.1470(5)
S15A S -0.0870(7) 0.3761(7) -0.12067(10)
C16A C 0.026(3) 0.450(2) -0.0803(4)
S13A S -0.1513(7) 0.3763(7) -0.04814(9)
S20 S -0.2827(8) -0.1251(8) 0.02858(10)
S21 S 0.1477(7) 0.1215(7) 0.04830(10)
S22 S -0.4468(7) -0.1575(6) 0.09626(10)
S23 S 0.0735(7) 0.1348(6) 0.12054(9)
C24 C -0.229(3) -0.066(2) 0.0715(4)
C25 C -0.031(3) 0.052(2) 0.0805(4)
C26 C -0.369(3) -0.024(3) 0.1356(5)
C27 C -0.108(3) -0.014(3) 0.1459(5)
C28 C -0.0277(13) -0.0023(10) 0.0160(2)
C28A C 0.0277(13) 0.0023(10) -0.0160(2)
S20A S 0.2827(8) 0.1251(8) -0.02858(10)
C24A C 0.229(3) 0.066(2) -0.0715(4)
S22A S 0.4468(7) 0.1575(6) -0.09626(10)
C26A C 0.369(3) 0.024(3) -0.1356(5)
C27A C 0.108(3) 0.014(3) -0.1459(5)
S23A S -0.0735(7) -0.1348(6) -0.12054(9)
C25A C 0.031(3) -0.052(2) -0.0805(4)
S21A S -0.1477(7) -0.1215(7) -0.04830(10)
S16? S -0.2880(8) 0.5010(9) 0.02945(10)
S17? S 0.1553(7) 0.4807(7) 0.04784(10)
S18? S -0.4533(7) 0.4923(7) 0.09667(10)
S19? S 0.0852(7) 0.4759(7) 0.12001(10)
C20? C -0.229(3) 0.495(3) 0.0716(4)
C21? C -0.022(3) 0.483(2) 0.0804(4)
C22? C -0.358(3) 0.435(3) 0.1352(5)
C23? C -0.116(3) 0.538(3) 0.1464(4)
S24? S -0.2945(8) -0.0070(10) 0.02870(11)
S25? S 0.1564(8) -0.0202(9) 0.04810(10)
S26? S -0.4623(7) -0.0142(7) 0.09607(11)
S27? S 0.0786(7) -0.0224(7) 0.12014(10)
C29? C -0.237(3) -0.011(3) 0.0716(5)
C30? C -0.030(3) -0.018(2) 0.0798(4)
C31? C -0.359(3) -0.070(2) 0.1359(4)
C32? C -0.132(3) 0.035(2) 0.1457(4)
loop_
_geom_bond_atom_site_label_1
_geom_bond_atom_site_label_2
_geom_bond_site_symmetry_1
_geom_bond_site_symmetry_2
S1 C1 1_555 1_555
S2 C1 1_555 1_555
S3 C2 1_555 1_555
S4 C2 1_555 1_555
S5 C3 1_555 1_555
S6 C4 1_555 1_555
S7 C5 1_555 1_555
S8 C6 1_555 1_555
C1 C2 1_555 1_555
C3 S1 1_555 1_555
C4 S2 1_555 1_555
C5 S3 1_555 1_555
C6 S4 1_555 1_555
C7 S5 1_555 1_555
C8 S6 1_555 1_555
C9 S7 1_555 1_555
C10 S8 1_555 1_555
C11 S9 1_555 1_555
S9 O1 1_555 1_555
O2 S9 1_555 1_555
C12 S9 1_555 1_555
F1 C12 1_555 1_555
F2 C12 1_555 1_555
F3 C12 1_555 1_555
S10 C11 1_555 1_555
O3 S10 1_555 1_555
O4 S10 1_555 1_555
C13 S10 1_555 1_555
F4 C13 1_555 1_555
F5 C13 1_555 1_555
F6 C13 1_555 1_555
S11 C11 1_555 1_555
O5 S11 1_555 1_555
O6 S11 1_555 1_555
C14 S11 1_555 1_555
F7 C14 1_555 1_555
F8 C14 1_555 1_555
F9 C14 1_555 1_555
S12 C15 1_555 1_555
S13 C16 1_555 1_555
S14 C15 1_555 1_555
S15 C16 1_555 1_555
C15 C16 1_555 1_555
C17 S14 1_555 1_555
C18 S15 1_555 1_555
C19 S12 1_555 1_555
S20 C24 1_555 1_555
S21 C25 1_555 1_555
S22 C24 1_555 1_555
S23 C25 1_555 1_555
C24 C25 1_555 1_555
C26 S22 1_555 1_555
C27 S23 1_555 1_555
C28 S20 1_555 1_555
H1 C7 1_555 1_555
H2 C7 1_555 1_555
H3 C8 1_555 1_555
H4 C8 1_555 1_555
H5 C9 1_555 1_555
H6 C9 1_555 1_555
H7 C10 1_555 1_555
H8 C10 1_555 1_555
C19A C19 1_555 1_555
S12A C19A 1_555 1_555
C15A S12A 1_555 1_555
S14A C15A 1_555 1_555
C17A S14A 1_555 1_555
C18A C17A 1_555 1_555
S15A C18A 1_555 1_555
C16A C15A 1_555 1_555
S13A C19A 1_555 1_555
C28A C28 1_555 1_555
S20A C28A 1_555 1_555
C24A S20A 1_555 1_555
S22A C24A 1_555 1_555
C26A S22A 1_555 1_555
C27A C26A 1_555 1_555
S23A C27A 1_555 1_555
C25A C24A 1_555 1_555
S21A C28A 1_555 1_555
C3 C4 1_555 1_555
C5 C6 1_555 1_555
C7 C8 1_555 1_555
C9 C10 1_555 1_555
S13 C19 1_555 1_555
C17 C18 1_555 1_555
S21 C28 1_555 1_555
C26 C27 1_555 1_555
S15A C16A 1_555 1_555
C16A S13A 1_555 1_555
S23A C25A 1_555 1_555
C25A S21A 1_555 1_555

#END
