
#######################################################################
#
#                 Cambridge Crystallographic Data Centre
#                                CCDC 
#
#######################################################################
#
# If this CIF has been generated from an entry in the Cambridge 
# Structural Database, then it will include bibliographic, chemical, 
# crystal, experimental, refinement or atomic coordinate data resulting 
# from the CCDC's data processing and validation procedures.
#
#######################################################################

data_AKAFEX
_chemical_formula_moiety         'C7 H4 Se6 1+,C7 H4 Se6,F6 P1 1-'
_chemical_name_systematic        
'bis(Methylenediselenotetraselenafulvalene) hexafluorophosphate'
_symmetry_cell_setting           orthorhombic
_symmetry_space_group_name_H-M   'P c c n'
_symmetry_Int_Tables_number      56
_space_group_name_Hall           '-P 2ab 2ac'
loop_
_symmetry_equiv_pos_site_id
_symmetry_equiv_pos_as_xyz
1 x,y,z
2 1/2+x,1/2+y,-z
3 1/2-x,y,1/2+z
4 x,1/2-y,1/2+z
5 -x,-y,-z
6 1/2-x,1/2-y,z
7 1/2+x,-y,1/2-z
8 -x,1/2+y,1/2-z
_cell_length_a                   4.189(4)
_cell_length_b                   10.719(4)
_cell_length_c                   31.915(4)
_cell_angle_alpha                90
_cell_angle_beta                 90
_cell_angle_gamma                90
_cell_volume                     1433.04
_exptl_crystal_colour            brown
_exptl_crystal_description       plate
_cell_formula_units_Z            2
loop_
_atom_site_label
_atom_site_type_symbol
_atom_site_fract_x
_atom_site_fract_y
_atom_site_fract_z
P1 P 0.5000 0.0000 0.5000
F1 F 0.69(2) 0.057(7) 0.523(2)
F2 F 0.28(2) -0.051(6) 0.526(2)
F3 F 0.812(9) -0.096(3) 0.509(1)
F1D F 0.31(2) -0.057(7) 0.477(2)
F2D F 0.72(2) 0.051(6) 0.474(2)
F3D F 0.188(9) 0.096(3) 0.491(1)
Se1 Se 0.0804(5) 0.1143(2) 0.11984(5)
Se2 Se 0.0701(5) 0.1184(2) 0.22256(5)
Se3 Se 0.4237(5) 0.3826(2) 0.32903(5)
C1 C 0.2500 0.2500 0.0863(7)
C2 C 0.185(4) 0.194(1) 0.1704(4)
C3 C 0.2500 0.2500 0.2548(8)
C4 C 0.2500 0.2500 0.2959(7)
C5 C 0.332(5) 0.306(1) 0.3808(5)
H1 H 0.4163 0.2182 0.0681
H2 H 0.0837 0.2818 0.0681
H3 H 0.3990 0.3448 0.4068
Se1E Se 0.4196(5) 0.3857(2) 0.11984(5)
C2E C 0.315(4) 0.306(1) 0.1704(4)
Se2E Se 0.4299(5) 0.3816(2) 0.22256(5)
C5E C 0.168(5) 0.194(1) 0.3808(5)
Se3E Se 0.0763(5) 0.1174(2) 0.32903(5)
H3E H 0.1010 0.1552 0.4068
loop_
_geom_bond_atom_site_label_1
_geom_bond_atom_site_label_2
_geom_bond_site_symmetry_1
_geom_bond_site_symmetry_2
Se1 C1 1_555 1_555
Se2 C2 1_555 1_555
Se3 C4 1_555 1_555
P1 F1 1_555 1_555
F2 P1 1_555 1_555
F3 P1 1_555 1_555
C1 H1 1_555 1_555
C2 Se1 1_555 1_555
C3 Se2 1_555 1_555
C4 C3 1_555 1_555
C5 Se3 1_555 1_555
H2 C1 1_555 1_555
H3 C5 1_555 1_555
Se1E C1 1_555 1_555
C2E C2 1_555 1_555
Se2E C3 1_555 1_555
C5E C5 1_555 1_555
Se3E C4 1_555 1_555
H3E C5E 1_555 1_555
F1D P1 1_555 1_555
F2D P1 1_555 1_555
F3D P1 1_555 1_555
Se1E C2E 1_555 1_555
C2E Se2E 1_555 1_555
C5E Se3E 1_555 1_555

#END
