
#######################################################################
#
#                 Cambridge Crystallographic Data Centre
#                                CCDC 
#
#######################################################################
#
# If this CIF has been generated from an entry in the Cambridge 
# Structural Database, then it will include bibliographic, chemical, 
# crystal, experimental, refinement or atomic coordinate data resulting 
# from the CCDC's data processing and validation procedures.
#
#######################################################################

data_AKAFOH
_chemical_formula_moiety         'C10 H8 S8 1+,C10 H8 S8,C3 H1 F6 O4 S2 1-'
_chemical_name_systematic        
'bis(Ethylenedithio)tetrathiafulvalenium bis(trifluoromethylsulfonato)methanide'
_symmetry_cell_setting           triclinic
_symmetry_space_group_name_H-M   'P -1'
_symmetry_Int_Tables_number      2
_space_group_name_Hall           '-P 1'
loop_
_symmetry_equiv_pos_site_id
_symmetry_equiv_pos_as_xyz
1 x,y,z
2 -x,-y,-z
_cell_length_a                   6.5955(4)
_cell_length_b                   9.1370(5)
_cell_length_c                   33.038(2)
_cell_angle_alpha                83.718(1)
_cell_angle_beta                 89.005(1)
_cell_angle_gamma                69.734(1)
_cell_volume                     1856.05
_exptl_crystal_colour            black
_exptl_crystal_description       'irregular block'
_cell_formula_units_Z            2
loop_
_atom_site_label
_atom_site_type_symbol
_atom_site_fract_x
_atom_site_fract_y
_atom_site_fract_z
S1 S 0.7313(2) 0.25970(13) 0.47702(3)
S2 S 0.2582(2) 0.37903(14) 0.47005(3)
S3 S 0.7014(2) 0.02004(13) 0.55636(3)
S4 S 0.2290(2) 0.14155(14) 0.54576(3)
S5 S 0.7973(2) 0.4549(2) 0.40485(4)
S6 S 0.2292(2) 0.6038(2) 0.39792(4)
S7 S 0.7034(2) -0.1679(2) 0.63568(3)
S8 S 0.1384(2) -0.0171(2) 0.62179(3)
C1 C 0.4899(6) 0.2486(5) 0.49574(11)
C2 C 0.4771(6) 0.1470(5) 0.52848(11)
C3 C 0.6146(6) 0.4017(5) 0.43657(12)
C4 C 0.3965(6) 0.4581(5) 0.43308(12)
C5 C 0.5523(6) -0.0423(5) 0.59487(11)
C6 C 0.3363(6) 0.0148(5) 0.58999(11)
C7 C 0.6240(8) 0.6352(6) 0.37826(14)
C8 C 0.4192(8) 0.6288(6) 0.36110(14)
C9 C 0.4977(8) -0.1351(6) 0.67371(13)
C10 C 0.2974(8) -0.1601(6) 0.66140(14)
H1 H 0.7042 0.6661 0.3567
H2 H 0.5865 0.7131 0.3969
H3 H 0.3528 0.7221 0.3435
H4 H 0.4589 0.5411 0.3451
H5 H 0.4577 -0.0285 0.6800
H6 H 0.5561 -0.2030 0.6980
H7 H 0.3388 -0.2616 0.6519
H8 H 0.2092 -0.1593 0.6846
S9 S 0.2584(2) 0.87902(14) -0.02708(3)
S10 S 0.7319(2) 0.75170(14) -0.02221(3)
S11 S 0.2267(2) 0.64181(14) 0.04795(3)
S12 S 0.6993(2) 0.51099(13) 0.05755(3)
S13 S 0.2295(2) 1.11592(14) -0.09673(4)
S14 S 0.7988(2) 0.9539(2) -0.09227(4)
S15 S 0.1342(2) 0.4925(2) 0.12557(4)
S16 S 0.7022(2) 0.3204(2) 0.13584(4)
C11 C 0.4888(6) 0.7453(5) -0.00191(12)
C12 C 0.4753(6) 0.6444(5) 0.03003(12)
C13 C 0.3945(6) 0.9631(5) -0.06259(11)
C14 C 0.6116(6) 0.9039(5) -0.06083(12)
C15 C 0.3313(6) 0.5181(5) 0.09227(12)
C16 C 0.5487(7) 0.4552(5) 0.09647(12)
C17 C 0.4156(7) 1.1183(6) -0.13688(13)
C18 C 0.6271(7) 1.1285(5) -0.12244(15)
C19 C 0.2936(8) 0.3312(6) 0.16138(14)
C20 C 0.5027(8) 0.3462(6) 0.17502(13)
H9 H 0.3465 1.2049 -0.1567
H10 H 0.4467 1.0232 -0.1496
H11 H 0.7040 1.1504 -0.1455
H12 H 0.5924 1.2147 -0.1062
H13 H 0.3297 0.2361 0.1486
H14 H 0.2100 0.3230 0.1845
H15 H 0.4710 0.4481 0.1836
H16 H 0.5629 0.2694 0.1977
C21 C 0.0604(8) 0.7391(6) 0.22706(13)
S17 S 0.0529(2) 0.6087(2) 0.26614(4)
O1 O 0.2257(7) 0.4637(5) 0.26288(15)
O2 O 0.0094(8) 0.6733(6) 0.30384(11)
C22 C -0.1848(10) 0.5554(7) 0.2574(2)
F1 F -0.1940(7) 0.4441(5) 0.28512(12)
F2 F -0.1806(7) 0.5071(6) 0.22149(12)
F3 F -0.3637(6) 0.6747(5) 0.2596(2)
S18 S -0.0459(2) 0.92997(14) 0.22633(3)
O3 O -0.2201(6) 0.9845(5) 0.25245(13)
O4 O -0.0631(7) 0.9983(5) 0.18430(11)
C23 C 0.1587(9) 0.9992(6) 0.2465(2)
F4 F 0.3313(6) 0.9655(5) 0.22377(11)
F5 F 0.2207(6) 0.9359(5) 0.28400(9)
F6 F 0.0781(7) 1.1528(4) 0.24704(13)
H17 H 0.1336 0.6979 0.2029
loop_
_geom_bond_atom_site_label_1
_geom_bond_atom_site_label_2
_geom_bond_site_symmetry_1
_geom_bond_site_symmetry_2
S1 C1 1_555 1_555
S2 C1 1_555 1_555
S3 C2 1_555 1_555
S4 C2 1_555 1_555
S5 C3 1_555 1_555
S6 C4 1_555 1_555
S7 C5 1_555 1_555
S8 C6 1_555 1_555
C1 C2 1_555 1_555
C3 S1 1_555 1_555
C4 S2 1_555 1_555
C5 S3 1_555 1_555
C6 S4 1_555 1_555
C7 S5 1_555 1_555
C8 S6 1_555 1_555
C9 S7 1_555 1_555
C10 S8 1_555 1_555
S9 C11 1_555 1_555
S10 C11 1_555 1_555
S11 C12 1_555 1_555
S12 C12 1_555 1_555
S13 C13 1_555 1_555
S14 C14 1_555 1_555
S15 C15 1_555 1_555
S16 C16 1_555 1_555
C11 C12 1_555 1_555
C13 S9 1_555 1_555
C14 S10 1_555 1_555
C15 S11 1_555 1_555
C16 S12 1_555 1_555
C17 S13 1_555 1_555
C18 S14 1_555 1_555
C19 S15 1_555 1_555
C20 S16 1_555 1_555
C21 S17 1_555 1_555
S17 O1 1_555 1_555
O2 S17 1_555 1_555
C22 S17 1_555 1_555
F1 C22 1_555 1_555
F2 C22 1_555 1_555
F3 C22 1_555 1_555
S18 C21 1_555 1_555
O3 S18 1_555 1_555
O4 S18 1_555 1_555
C23 S18 1_555 1_555
F4 C23 1_555 1_555
F5 C23 1_555 1_555
F6 C23 1_555 1_555
H1 C7 1_555 1_555
H2 C7 1_555 1_555
H3 C8 1_555 1_555
H4 C8 1_555 1_555
H5 C9 1_555 1_555
H6 C9 1_555 1_555
H7 C10 1_555 1_555
H8 C10 1_555 1_555
H9 C17 1_555 1_555
H10 C17 1_555 1_555
H11 C18 1_555 1_555
H12 C18 1_555 1_555
H13 C19 1_555 1_555
H14 C19 1_555 1_555
H15 C20 1_555 1_555
H16 C20 1_555 1_555
H17 C21 1_555 1_555
C3 C4 1_555 1_555
C5 C6 1_555 1_555
C7 C8 1_555 1_555
C9 C10 1_555 1_555
C13 C14 1_555 1_555
C15 C16 1_555 1_555
C17 C18 1_555 1_555
C19 C20 1_555 1_555

#END
