
#######################################################################
#
#                 Cambridge Crystallographic Data Centre
#                                CCDC 
#
#######################################################################
#
# If this CIF has been generated from an entry in the Cambridge 
# Structural Database, then it will include bibliographic, chemical, 
# crystal, experimental, refinement or atomic coordinate data resulting 
# from the CCDC's data processing and validation procedures.
#
#######################################################################

data_AKAPUZ
_chemical_formula_moiety         'C23 H31 N3'
_chemical_name_systematic        
4-((2,6-diisopropylphenyl)imino)-N-(pyridin-2-ylmethyl)pent-2-en-2-amine
_symmetry_cell_setting           triclinic
_symmetry_space_group_name_H-M   'P -1'
_symmetry_Int_Tables_number      2
_space_group_name_Hall           '-P 1'
loop_
_symmetry_equiv_pos_site_id
_symmetry_equiv_pos_as_xyz
1 x,y,z
2 -x,-y,-z
_cell_length_a                   9.3914(8)
_cell_length_b                   10.7363(10)
_cell_length_c                   11.2888(9)
_cell_angle_alpha                99.922(4)
_cell_angle_beta                 100.271(4)
_cell_angle_gamma                101.376(5)
_cell_volume                     1072.3
_exptl_crystal_colour            colorless
_exptl_crystal_description       prism
_cell_formula_units_Z            2
loop_
_atom_site_label
_atom_site_type_symbol
_atom_site_fract_x
_atom_site_fract_y
_atom_site_fract_z
C1 C 0.2330(4) 0.1825(4) 0.8837(4)
H1 H 0.2683 0.2007 0.9705
C2 C 0.2219(5) 0.0599(4) 0.8185(4)
H2 H 0.2475 -0.0056 0.8593
C3 C 0.1726(6) 0.0334(4) 0.6920(4)
H3 H 0.1649 -0.0503 0.6437
C4 C 0.1348(5) 0.1312(4) 0.6373(4)
H4 H 0.0994 0.1153 0.5505
C5 C 0.1489(4) 0.2516(3) 0.7092(3)
C6 C 0.1143(5) 0.3662(4) 0.6587(3)
H5 H 0.0253 0.3869 0.6856
H6 H 0.1986 0.4426 0.6946
C7 C -0.1816(4) 0.3323(4) 0.4975(4)
H7 H -0.1554 0.3441 0.5874
H8 H -0.2550 0.2496 0.4622
H9 H -0.2238 0.4040 0.4760
C8 C -0.0442(4) 0.3308(3) 0.4466(3)
C9 C -0.0544(4) 0.3152(3) 0.3224(3)
H10 H -0.1497 0.3092 0.2730
C10 C 0.0637(4) 0.3069(3) 0.2591(3)
C11 C 0.0224(4) 0.2840(5) 0.1198(3)
H11 H 0.1114 0.2804 0.0865
H12 H -0.0189 0.3553 0.0959
H13 H -0.0520 0.2015 0.0868
C12 C 0.3139(3) 0.3027(3) 0.2555(3)
C13 C 0.3542(4) 0.1826(3) 0.2368(3)
C14 C 0.2672(5) 0.0660(4) 0.2754(4)
H14 H 0.1858 0.0942 0.3114
C15 C 0.1954(6) -0.0471(5) 0.1664(5)
H15 H 0.1402 -0.1194 0.1949
H16 H 0.2728 -0.0756 0.1283
H17 H 0.1269 -0.0194 0.1057
C16 C 0.3662(7) 0.0230(6) 0.3741(5)
H18 H 0.3078 -0.0508 0.3984
H19 H 0.4063 0.0951 0.4460
H20 H 0.4484 -0.0033 0.3417
C17 C 0.4720(4) 0.1704(4) 0.1800(3)
H21 H 0.4993 0.0894 0.1665
C18 C 0.5501(4) 0.2751(4) 0.1427(3)
H22 H 0.6301 0.2656 0.1036
C19 C 0.5114(4) 0.3924(4) 0.1626(3)
H23 H 0.5660 0.4636 0.1372
C20 C 0.3945(4) 0.4101(3) 0.2187(3)
C21 C 0.3563(5) 0.5417(4) 0.2418(4)
H24 H 0.2563 0.5286 0.2631
C22 C 0.4690(6) 0.6338(5) 0.3529(5)
H25 H 0.4431 0.7183 0.3673
H26 H 0.5691 0.6452 0.3362
H27 H 0.4667 0.5965 0.4261
C23 C 0.3462(8) 0.6011(6) 0.1282(6)
H28 H 0.3209 0.6855 0.1472
H29 H 0.2690 0.5428 0.0604
H30 H 0.4423 0.6131 0.1039
N1 N 0.1970(3) 0.2782(3) 0.8321(3)
N2 N 0.0871(3) 0.3452(3) 0.5254(3)
H31 H 0.1646 0.3414 0.4923
N3 N 0.1991(3) 0.3173(3) 0.3194(2)
loop_
_geom_bond_atom_site_label_1
_geom_bond_atom_site_label_2
_geom_bond_site_symmetry_1
_geom_bond_site_symmetry_2
C1 H1 1_555 1_555
C2 C1 1_555 1_555
H2 C2 1_555 1_555
C3 C2 1_555 1_555
H3 C3 1_555 1_555
C4 C3 1_555 1_555
H4 C4 1_555 1_555
C5 C4 1_555 1_555
C6 C5 1_555 1_555
H5 C6 1_555 1_555
H6 C6 1_555 1_555
C7 H7 1_555 1_555
H8 C7 1_555 1_555
H9 C7 1_555 1_555
C8 C7 1_555 1_555
C9 C8 1_555 1_555
H10 C9 1_555 1_555
C10 C9 1_555 1_555
C11 C10 1_555 1_555
H11 C11 1_555 1_555
H12 C11 1_555 1_555
H13 C11 1_555 1_555
C12 C13 1_555 1_555
C13 C14 1_555 1_555
C14 H14 1_555 1_555
C15 C14 1_555 1_555
H15 C15 1_555 1_555
H16 C15 1_555 1_555
H17 C15 1_555 1_555
C16 C14 1_555 1_555
H18 C16 1_555 1_555
H19 C16 1_555 1_555
H20 C16 1_555 1_555
C17 C13 1_555 1_555
H21 C17 1_555 1_555
C18 C17 1_555 1_555
H22 C18 1_555 1_555
C19 C18 1_555 1_555
H23 C19 1_555 1_555
C20 C12 1_555 1_555
C21 C20 1_555 1_555
H24 C21 1_555 1_555
C22 C21 1_555 1_555
H25 C22 1_555 1_555
H26 C22 1_555 1_555
H27 C22 1_555 1_555
C23 C21 1_555 1_555
H28 C23 1_555 1_555
H29 C23 1_555 1_555
H30 C23 1_555 1_555
N1 C1 1_555 1_555
N2 C6 1_555 1_555
H31 N2 1_555 1_555
N3 C10 1_555 1_555
C5 N1 1_555 1_555
C8 N2 1_555 1_555
C12 N3 1_555 1_555
C19 C20 1_555 1_555

#END
