
#######################################################################
#
#                 Cambridge Crystallographic Data Centre
#                                CCDC 
#
#######################################################################
#
# If this CIF has been generated from an entry in the Cambridge 
# Structural Database, then it will include bibliographic, chemical, 
# crystal, experimental, refinement or atomic coordinate data resulting 
# from the CCDC's data processing and validation procedures.
#
#######################################################################

data_AKATEL
_chemical_formula_moiety         'C19 H22 O5'
_chemical_name_systematic        
(4bR*,8aS*)-3-methoxy-9,9-bis(methoxycarbonyl)-4b,7,8,8a,9,10-hexahydrophenanthrene
_symmetry_cell_setting           triclinic
_symmetry_space_group_name_H-M   'P -1'
_symmetry_Int_Tables_number      2
_space_group_name_Hall           '-P 1'
loop_
_symmetry_equiv_pos_site_id
_symmetry_equiv_pos_as_xyz
1 x,y,z
2 -x,-y,-z
_cell_length_a                   9.721(5)
_cell_length_b                   13.201(7)
_cell_length_c                   13.494(7)
_cell_angle_alpha                90.000(8)
_cell_angle_beta                 80.202(10)
_cell_angle_gamma                90.000(9)
_cell_volume                     1706.39
_exptl_crystal_colour            colorless
_chemical_melting_point          88-89deg.C
_cell_formula_units_Z            4
loop_
_atom_site_label
_atom_site_type_symbol
_atom_site_fract_x
_atom_site_fract_y
_atom_site_fract_z
O1 O 0.4640(3) 0.06586(19) 0.2797(2)
O2 O 0.6347(3) 0.1352(2) 0.1702(2)
O3 O 0.5725(3) -0.0843(2) 0.0914(2)
O4 O 0.5426(4) -0.1912(2) 0.2194(3)
O5 O 0.9706(3) 0.1812(2) 0.5651(2)
C1 C 0.5899(4) 0.0659(3) 0.2232(3)
C2 C 0.6666(4) -0.0345(2) 0.2331(3)
C3 C 0.6607(4) -0.0654(3) 0.3432(3)
C4 C 0.7490(4) 0.0007(2) 0.3963(3)
C5 C 0.7192(4) 0.0059(3) 0.5008(3)
C6 C 0.7931(5) 0.0653(3) 0.5549(3)
C7 C 0.9029(4) 0.1225(3) 0.5056(3)
C8 C 0.9365(4) 0.1192(3) 0.4011(3)
C9 C 0.8610(4) 0.0579(2) 0.3456(3)
C10 C 0.8973(4) 0.0576(3) 0.2307(3)
C11 C 1.0522(4) 0.0544(3) 0.1930(3)
C12 C 1.1145(6) -0.0211(4) 0.1367(4)
C13 C 1.0424(5) -0.1114(4) 0.1096(4)
C14 C 0.9000(5) -0.1245(3) 0.1771(4)
C15 C 0.8209(4) -0.0241(3) 0.1801(3)
C16 C 0.5883(4) -0.1133(3) 0.1825(3)
C17 C 0.3826(6) 0.1571(4) 0.2743(5)
C18 C 0.4928(6) -0.1525(4) 0.0381(4)
H1 H 0.5422 -0.2154 0.0251
H2 H 0.4804 -0.1222 -0.0245
H3 H 0.4031 -0.1650 0.0785
C19 C 1.0855(6) 0.2409(4) 0.5191(4)
H10 H 0.700(3) -0.133(2) 0.339(2)
H11 H 0.560(4) -0.066(3) 0.373(3)
H12 H 0.641(4) -0.032(2) 0.533(2)
H13 H 0.779(4) 0.057(3) 0.631(3)
H14 H 1.008(4) 0.161(3) 0.368(3)
H15 H 0.859(4) 0.133(3) 0.215(3)
H16 H 1.127(4) 0.113(3) 0.197(3)
H17 H 1.207(6) -0.017(4) 0.107(4)
H18 H 1.098(6) -0.163(4) 0.106(4)
H19 H 1.026(4) -0.113(3) 0.035(4)
H20 H 0.918(4) -0.145(3) 0.244(3)
H21 H 0.841(4) -0.180(3) 0.159(3)
H22 H 0.819(3) 0.000(2) 0.107(3)
H23 H 0.430(6) 0.224(5) 0.300(4)
H24 H 0.302(6) 0.147(4) 0.306(4)
H25 H 0.376(5) 0.170(3) 0.202(4)
H26 H 1.045(5) 0.296(3) 0.463(4)
H27 H 1.148(5) 0.198(4) 0.492(3)
H28 H 1.115(5) 0.278(4) 0.564(4)
O6 O 1.0988(4) 0.3998(2) 0.0849(2)
O7 O 1.0983(4) 0.3109(2) 0.2238(2)
O8 O 1.1390(3) 0.5658(2) 0.2753(2)
O9 O 1.0259(3) 0.6288(2) 0.1598(3)
O10 O 0.4987(3) 0.6789(2) 0.5655(2)
C20 C 1.0578(4) 0.3820(3) 0.1814(3)
C21 C 0.9590(4) 0.4630(2) 0.2310(3)
C22 C 0.9151(5) 0.4344(3) 0.3427(3)
C23 C 0.8009(4) 0.5003(3) 0.3960(3)
C24 C 0.7826(5) 0.5046(3) 0.5008(3)
C25 C 0.6809(4) 0.5633(3) 0.5555(3)
C26 C 0.5950(4) 0.6210(3) 0.5049(3)
C27 C 0.6114(4) 0.6170(3) 0.4015(3)
C28 C 0.7133(4) 0.5561(2) 0.3461(3)
C29 C 0.7293(4) 0.5556(3) 0.2311(3)
C30 C 0.5905(4) 0.5513(4) 0.1948(3)
C31 C 0.5536(5) 0.4767(4) 0.1403(4)
C32 C 0.6367(6) 0.3860(4) 0.1124(5)
C33 C 0.7496(5) 0.3729(3) 0.1788(4)
C34 C 0.8290(4) 0.4728(3) 0.1800(3)
C35 C 1.0427(4) 0.5622(3) 0.2174(3)
C36 C 1.1902(7) 0.3253(4) 0.0303(4)
H4 H 1.2786 0.3265 0.0528
H5 H 1.2036 0.3404 -0.0403
H6 H 1.1492 0.2593 0.0418
C37 C 1.2243(5) 0.6561(4) 0.2656(4)
H7 H 1.2702 0.6632 0.1971
H8 H 1.2929 0.6509 0.3087
H9 H 1.1663 0.7142 0.2844
C38 C 0.4065(6) 0.7384(5) 0.5194(5)
H29 H 0.877(4) 0.373(3) 0.342(3)
H30 H 1.000(4) 0.427(2) 0.375(3)
H31 H 0.845(3) 0.462(2) 0.529(2)
H32 H 0.666(4) 0.567(3) 0.631(3)
H33 H 0.549(3) 0.661(2) 0.370(2)
H34 H 0.767(4) 0.620(3) 0.215(3)
H35 H 0.537(3) 0.623(2) 0.197(2)
H36 H 0.462(5) 0.489(3) 0.118(3)
H37 H 0.566(6) 0.325(5) 0.132(4)
H38 H 0.686(4) 0.385(3) 0.051(3)
H39 H 0.821(5) 0.313(3) 0.146(3)
H40 H 0.703(5) 0.343(4) 0.247(4)
H41 H 0.863(4) 0.500(3) 0.104(3)
H42 H 0.457(4) 0.786(3) 0.470(3)
H43 H 0.361(6) 0.782(4) 0.567(4)
H44 H 0.360(6) 0.706(4) 0.491(4)
loop_
_geom_bond_atom_site_label_1
_geom_bond_atom_site_label_2
_geom_bond_site_symmetry_1
_geom_bond_site_symmetry_2
O1 C1 1_555 1_555
O2 C1 1_555 1_555
O3 C16 1_555 1_555
O4 C16 1_555 1_555
O5 C7 1_555 1_555
O6 C20 1_555 1_555
O7 C20 1_555 1_555
O8 C35 1_555 1_555
O9 C35 1_555 1_555
O10 C26 1_555 1_555
C1 C2 1_555 1_555
C2 C3 1_555 1_555
C3 C4 1_555 1_555
C4 C5 1_555 1_555
C5 C6 1_555 1_555
C6 C7 1_555 1_555
C7 C8 1_555 1_555
C8 C9 1_555 1_555
C9 C4 1_555 1_555
C10 C9 1_555 1_555
C11 C10 1_555 1_555
C12 C11 1_555 1_555
C13 C12 1_555 1_555
C14 C13 1_555 1_555
C15 C2 1_555 1_555
C16 C2 1_555 1_555
C17 O1 1_555 1_555
C18 O3 1_555 1_555
H1 C18 1_555 1_555
H2 C18 1_555 1_555
H3 C18 1_555 1_555
C19 O5 1_555 1_555
C20 C21 1_555 1_555
C21 C22 1_555 1_555
C22 C23 1_555 1_555
C23 C24 1_555 1_555
C24 C25 1_555 1_555
C25 C26 1_555 1_555
C26 C27 1_555 1_555
C27 C28 1_555 1_555
C28 C23 1_555 1_555
C29 C28 1_555 1_555
C30 C29 1_555 1_555
C31 C30 1_555 1_555
C32 C31 1_555 1_555
C33 C32 1_555 1_555
C34 C21 1_555 1_555
C35 C21 1_555 1_555
C36 O6 1_555 1_555
H4 C36 1_555 1_555
H5 C36 1_555 1_555
H6 C36 1_555 1_555
C37 O8 1_555 1_555
H7 C37 1_555 1_555
H8 C37 1_555 1_555
H9 C37 1_555 1_555
C38 O10 1_555 1_555
H10 C3 1_555 1_555
H11 C3 1_555 1_555
H12 C5 1_555 1_555
H13 C6 1_555 1_555
H14 C8 1_555 1_555
H15 C10 1_555 1_555
H16 C11 1_555 1_555
H17 C12 1_555 1_555
H18 C13 1_555 1_555
H19 C13 1_555 1_555
H20 C14 1_555 1_555
H21 C14 1_555 1_555
H22 C15 1_555 1_555
H23 C17 1_555 1_555
H24 C17 1_555 1_555
H25 C17 1_555 1_555
H26 C19 1_555 1_555
H27 C19 1_555 1_555
H28 C19 1_555 1_555
H29 C22 1_555 1_555
H30 C22 1_555 1_555
H31 C24 1_555 1_555
H32 C25 1_555 1_555
H33 C27 1_555 1_555
H34 C29 1_555 1_555
H35 C30 1_555 1_555
H36 C31 1_555 1_555
H37 C32 1_555 1_555
H38 C32 1_555 1_555
H39 C33 1_555 1_555
H40 C33 1_555 1_555
H41 C34 1_555 1_555
H42 C38 1_555 1_555
H43 C38 1_555 1_555
H44 C38 1_555 1_555
C10 C15 1_555 1_555
C14 C15 1_555 1_555
C29 C34 1_555 1_555
C33 C34 1_555 1_555

#END
