
#######################################################################
#
#                 Cambridge Crystallographic Data Centre
#                                CCDC 
#
#######################################################################
#
# If this CIF has been generated from an entry in the Cambridge 
# Structural Database, then it will include bibliographic, chemical, 
# crystal, experimental, refinement or atomic coordinate data resulting 
# from the CCDC's data processing and validation procedures.
#
#######################################################################

data_AKAVOY
_chemical_formula_moiety         'C17 H16 N2 S1'
_chemical_name_systematic        
4-Benzylidene-N,N-dimethyl-4H-3,1-benzothiazin-2-amine
_symmetry_cell_setting           triclinic
_symmetry_space_group_name_H-M   'P -1'
_symmetry_Int_Tables_number      2
_space_group_name_Hall           '-P 1'
loop_
_symmetry_equiv_pos_site_id
_symmetry_equiv_pos_as_xyz
1 x,y,z
2 -x,-y,-z
_cell_length_a                   7.0940(8)
_cell_length_b                   10.1910(11)
_cell_length_c                   10.3049(11)
_cell_angle_alpha                82.091(2)
_cell_angle_beta                 80.307(2)
_cell_angle_gamma                76.481(2)
_cell_volume                     710.249
_exptl_crystal_colour            colorless
_exptl_crystal_description       block
_chemical_melting_point          68.9-72.6deg.C
_cell_formula_units_Z            2
loop_
_atom_site_label
_atom_site_type_symbol
_atom_site_fract_x
_atom_site_fract_y
_atom_site_fract_z
S1 S 0.48401(6) 0.36819(4) 0.25886(4)
N1 N 0.7240(2) 0.20690(15) 0.07956(14)
N2 N 0.4325(2) 0.32941(16) 0.02047(14)
C1 C 0.5601(2) 0.29067(16) 0.10833(16)
C2 C 0.8696(2) 0.17703(16) 0.16072(17)
C3 C 1.0583(2) 0.11857(18) 0.10387(18)
H1 H 1.0806 0.1013 0.0157
C4 C 1.2121(3) 0.08615(18) 0.1767(2)
H2 H 1.3366 0.0464 0.1375
C5 C 1.1825(3) 0.11230(19) 0.3072(2)
H3 H 1.2872 0.0927 0.3553
C6 C 0.9963(3) 0.16783(19) 0.36603(19)
H4 H 0.9762 0.1844 0.4544
C7 C 0.8381(2) 0.19938(17) 0.29507(16)
C8 C 0.6385(2) 0.25164(16) 0.35947(16)
C9 C 0.5751(3) 0.21537(18) 0.48600(16)
H5 H 0.6670 0.1554 0.5324
C10 C 0.3803(2) 0.25725(18) 0.56178(15)
C11 C 0.2801(3) 0.39208(18) 0.56331(18)
H6 H 0.3365 0.4601 0.5138
C12 C 0.0978(3) 0.4258(2) 0.6377(2)
H7 H 0.0332 0.5163 0.6392
C13 C 0.0118(3) 0.3258(2) 0.7093(2)
H8 H -0.1121 0.3487 0.7578
C14 C 0.1079(3) 0.1923(2) 0.70945(19)
H9 H 0.0491 0.1248 0.7577
C15 C 0.2916(3) 0.15847(19) 0.63806(17)
H10 H 0.3577 0.0681 0.6408
C16 C 0.4768(3) 0.2717(2) -0.10514(18)
H11 H 0.6159 0.2404 -0.1260
H12 H 0.4301 0.3396 -0.1734
H13 H 0.4138 0.1969 -0.0991
C17 C 0.2409(3) 0.4185(2) 0.0474(2)
H14 H 0.1761 0.3885 0.1320
H15 H 0.1639 0.4162 -0.0201
H16 H 0.2561 0.5095 0.0482
loop_
_geom_bond_atom_site_label_1
_geom_bond_atom_site_label_2
_geom_bond_site_symmetry_1
_geom_bond_site_symmetry_2
S1 C1 1_555 1_555
N1 C1 1_555 1_555
N2 C1 1_555 1_555
C2 N1 1_555 1_555
C3 C2 1_555 1_555
H1 C3 1_555 1_555
C4 C3 1_555 1_555
H2 C4 1_555 1_555
C5 C4 1_555 1_555
H3 C5 1_555 1_555
C6 C5 1_555 1_555
H4 C6 1_555 1_555
C7 C2 1_555 1_555
C8 S1 1_555 1_555
C9 C8 1_555 1_555
H5 C9 1_555 1_555
C10 C9 1_555 1_555
C11 C10 1_555 1_555
H6 C11 1_555 1_555
C12 C11 1_555 1_555
H7 C12 1_555 1_555
C13 C12 1_555 1_555
H8 C13 1_555 1_555
C14 C13 1_555 1_555
H9 C14 1_555 1_555
C15 C10 1_555 1_555
H10 C15 1_555 1_555
C16 N2 1_555 1_555
H11 C16 1_555 1_555
H12 C16 1_555 1_555
H13 C16 1_555 1_555
C17 N2 1_555 1_555
H14 C17 1_555 1_555
H15 C17 1_555 1_555
H16 C17 1_555 1_555
C6 C7 1_555 1_555
C7 C8 1_555 1_555
C14 C15 1_555 1_555

#END
