
#######################################################################
#
#                 Cambridge Crystallographic Data Centre
#                                CCDC 
#
#######################################################################
#
# If this CIF has been generated from an entry in the Cambridge 
# Structural Database, then it will include bibliographic, chemical, 
# crystal, experimental, refinement or atomic coordinate data resulting 
# from the CCDC's data processing and validation procedures.
#
#######################################################################

data_AKEDOL
_chemical_formula_moiety         'C30 H19 N3 O1'
_chemical_name_systematic        
5-Benzoyl-2-(1H-indol-3-yl)-4-(2-naphthyl)-1H-pyrrole-3-carbonitrile
_symmetry_cell_setting           triclinic
_symmetry_space_group_name_H-M   'P -1'
_symmetry_Int_Tables_number      2
_space_group_name_Hall           '-P 1'
loop_
_symmetry_equiv_pos_site_id
_symmetry_equiv_pos_as_xyz
1 x,y,z
2 -x,-y,-z
_cell_length_a                   10.2688(4)
_cell_length_b                   10.5322(4)
_cell_length_c                   11.2934(4)
_cell_angle_alpha                111.720(2)
_cell_angle_beta                 93.883(2)
_cell_angle_gamma                91.653(3)
_cell_volume                     1130.18
_exptl_crystal_colour            yellow
_exptl_crystal_description       block
_cell_formula_units_Z            2
_exptl_crystal_recrystallization_method ethanol
loop_
_atom_site_label
_atom_site_type_symbol
_atom_site_fract_x
_atom_site_fract_y
_atom_site_fract_z
N1 N 0.06088(15) -0.00372(16) 0.19168(15)
H1 H 0.0550 0.0483 0.1484
C1 C -0.04251(18) -0.29361(19) 0.27603(18)
C2 C -0.14783(18) -0.12464(19) 0.09442(17)
O1 O -0.14205(14) -0.08637(15) 0.00453(13)
C3 C -0.08017(18) -0.40765(19) 0.17018(18)
H2 H -0.0728 -0.4049 0.0895
C4 C 0.16176(18) 0.00371(19) 0.27732(17)
C5 C -0.03160(18) -0.10523(19) 0.18232(17)
C6 C -0.27269(18) -0.18422(19) 0.11539(18)
C7 C -0.12994(18) -0.52944(19) 0.1799(2)
C8 C 0.01315(18) -0.16945(19) 0.26318(17)
C9 C 0.27135(18) 0.10241(19) 0.30757(18)
C10 C -0.0546(2) -0.2977(2) 0.39845(19)
H3 H -0.0293 -0.2208 0.4712
C11 C 0.13406(18) -0.09886(19) 0.32411(18)
C12 C 0.27433(18) 0.23655(19) 0.30202(17)
N2 N 0.47408(17) 0.19722(19) 0.36922(18)
H4 H 0.5558 0.2072 0.3951
C13 C 0.2157(2) -0.1277(2) 0.4167(2)
C14 C 0.18131(19) 0.3171(2) 0.27229(19)
H5 H 0.0953 0.2831 0.2456
C15 C -0.1415(2) -0.5319(2) 0.3034(2)
C16 C -0.3052(2) -0.1726(2) 0.2361(2)
H6 H -0.2481 -0.1261 0.3077
N3 N 0.2814(2) -0.1508(2) 0.4910(2)
C17 C 0.2193(2) 0.4470(2) 0.2832(2)
H7 H 0.1575 0.5017 0.2654
C18 C -0.1029(2) -0.4134(2) 0.4105(2)
H8 H -0.1106 -0.4141 0.4919
C19 C 0.4423(2) 0.4229(2) 0.3486(2)
H9 H 0.5287 0.4571 0.3718
C20 C -0.1894(2) -0.6545(2) 0.3141(3)
H10 H -0.1973 -0.6572 0.3947
C21 C 0.3479(2) 0.4990(2) 0.3203(2)
H11 H 0.3703 0.5874 0.3260
C22 C 0.40339(19) 0.2926(2) 0.34107(18)
C23 C -0.1667(2) -0.6492(2) 0.0723(2)
H12 H -0.1600 -0.6491 -0.0094
C24 C 0.3952(2) 0.0853(2) 0.3500(2)
H13 H 0.4213 0.0076 0.3636
C25 C -0.3603(2) -0.2515(2) 0.0105(2)
H14 H -0.3404 -0.2572 -0.0704
C26 C -0.2121(2) -0.7655(2) 0.0868(3)
H15 H -0.2356 -0.8440 0.0150
C27 C -0.2235(3) -0.7672(3) 0.2089(3)
H16 H -0.2549 -0.8468 0.2176
C28 C -0.5076(3) -0.2994(3) 0.1439(3)
H17 H -0.5864 -0.3391 0.1534
C29 C -0.4763(2) -0.3098(3) 0.0249(3)
H18 H -0.5339 -0.3565 -0.0463
C30 C -0.4231(2) -0.2306(3) 0.2493(2)
H19 H -0.4451 -0.2230 0.3300
loop_
_geom_bond_atom_site_label_1
_geom_bond_atom_site_label_2
_geom_bond_site_symmetry_1
_geom_bond_site_symmetry_2
N1 H1 1_555 1_555
C1 C3 1_555 1_555
C2 O1 1_555 1_555
C3 H2 1_555 1_555
C4 N1 1_555 1_555
C5 N1 1_555 1_555
C6 C2 1_555 1_555
C7 C3 1_555 1_555
C8 C1 1_555 1_555
C9 C4 1_555 1_555
C10 C1 1_555 1_555
H3 C10 1_555 1_555
C11 C4 1_555 1_555
C12 C9 1_555 1_555
N2 H4 1_555 1_555
C13 C11 1_555 1_555
C14 C12 1_555 1_555
H5 C14 1_555 1_555
C15 C7 1_555 1_555
C16 C6 1_555 1_555
H6 C16 1_555 1_555
N3 C13 1_555 1_555
C17 C14 1_555 1_555
H7 C17 1_555 1_555
C18 C10 1_555 1_555
H8 C18 1_555 1_555
C19 H9 1_555 1_555
C20 C15 1_555 1_555
H10 C20 1_555 1_555
C21 C17 1_555 1_555
H11 C21 1_555 1_555
C22 C12 1_555 1_555
C23 C7 1_555 1_555
H12 C23 1_555 1_555
C24 C9 1_555 1_555
H13 C24 1_555 1_555
C25 C6 1_555 1_555
H14 C25 1_555 1_555
C26 C23 1_555 1_555
H15 C26 1_555 1_555
C27 C20 1_555 1_555
H16 C27 1_555 1_555
C28 H17 1_555 1_555
C29 C25 1_555 1_555
H18 C29 1_555 1_555
C30 C16 1_555 1_555
H19 C30 1_555 1_555
C2 C5 1_555 1_555
C5 C8 1_555 1_555
C8 C11 1_555 1_555
N2 C22 1_555 1_555
N2 C24 1_555 1_555
C15 C18 1_555 1_555
C19 C21 1_555 1_555
C19 C22 1_555 1_555
C26 C27 1_555 1_555
C28 C29 1_555 1_555
C28 C30 1_555 1_555

#END
