
#######################################################################
#
#                 Cambridge Crystallographic Data Centre
#                                CCDC 
#
#######################################################################
#
# If this CIF has been generated from an entry in the Cambridge 
# Structural Database, then it will include bibliographic, chemical, 
# crystal, experimental, refinement or atomic coordinate data resulting 
# from the CCDC's data processing and validation procedures.
#
#######################################################################

data_AKEYIA
_chemical_formula_moiety         'C30 H26 N4 O4'
_chemical_name_systematic        
"4'-(2,6-Dimethoxyquinolin-3-yl)-1'-methyldispiro[indole-3,2'-pyrrolidine-3',3''-indole]-2,2''(1H,1''H)-dione unknown solvate"
_symmetry_cell_setting           monoclinic
_symmetry_space_group_name_H-M   'P 21/c'
_symmetry_Int_Tables_number      14
_space_group_name_Hall           '-P 2ybc'
loop_
_symmetry_equiv_pos_site_id
_symmetry_equiv_pos_as_xyz
1 x,y,z
2 -x,1/2+y,1/2-z
3 -x,-y,-z
4 x,1/2-y,1/2+z
_cell_length_a                   12.0551(3)
_cell_length_b                   18.3685(4)
_cell_length_c                   12.3323(3)
_cell_angle_alpha                90
_cell_angle_beta                 90.8980(10)
_cell_angle_gamma                90
_cell_volume                     2730.46
_exptl_crystal_colour            colorless
_exptl_crystal_description       lamellar
_cell_formula_units_Z            4
loop_
_atom_site_label
_atom_site_type_symbol
_atom_site_fract_x
_atom_site_fract_y
_atom_site_fract_z
O1 O -0.36075(12) 0.95205(7) 0.67168(10)
O2 O 0.20084(11) 1.03832(6) 0.93716(9)
O3 O 0.41005(12) 0.91921(6) 1.04636(9)
O4 O 0.15540(12) 0.77274(6) 0.75642(9)
N1 N 0.03530(14) 1.05855(7) 0.84363(11)
N2 N 0.25799(13) 0.77767(7) 0.98598(10)
N3 N 0.44029(14) 0.96775(7) 0.87699(11)
H1 H 0.5023 0.9893 0.8904
N4 N 0.33375(14) 0.73449(7) 0.72423(11)
H2 H 0.3224 0.7139 0.6624
C1 C -0.38918(18) 0.87690(10) 0.67690(16)
H3 H -0.3340 0.8487 0.6406
H4 H -0.4601 0.8693 0.6423
H5 H -0.3926 0.8620 0.7514
C2 C -0.26157(17) 0.97215(10) 0.71835(14)
C3 C -0.18813(17) 0.92654(9) 0.77060(14)
H6 H -0.2046 0.8773 0.7777
C4 C -0.08790(17) 0.95426(9) 0.81334(13)
C5 C -0.00852(16) 0.90926(9) 0.86667(13)
H7 H -0.0228 0.8598 0.8742
C6 C 0.08794(16) 0.93716(9) 0.90689(12)
C7 C 0.17997(16) 0.89434(9) 0.96065(13)
H8 H 0.2012 0.9203 1.0272
C8 C 0.28757(16) 0.88792(8) 0.88947(12)
C9 C 0.30953(16) 0.80308(8) 0.88494(13)
C10 C 0.42776(16) 0.77648(8) 0.87458(13)
C11 C 0.43685(17) 0.73592(8) 0.77890(13)
C12 C 0.53327(18) 0.70033(9) 0.75205(14)
H9 H 0.5376 0.6732 0.6886
C13 C 0.62411(18) 0.70623(9) 0.82299(14)
H10 H 0.6907 0.6837 0.8061
C14 C -0.06209(17) 1.02923(9) 0.80275(13)
C15 C 0.10381(17) 1.01435(9) 0.89343(13)
C16 C 0.22735(19) 1.11372(10) 0.92499(17)
H11 H 0.2362 1.1247 0.8495
H12 H 0.2952 1.1243 0.9637
H13 H 0.1685 1.1428 0.9536
C17 C 0.15181(16) 0.81613(9) 0.99291(14)
H14 H 0.1234 0.8142 1.0660
H15 H 0.0972 0.7953 0.9434
C18 C 0.38555(16) 0.92552(8) 0.94930(14)
C19 C 0.38242(17) 0.97156(9) 0.77798(13)
C20 C 0.40585(19) 1.01591(9) 0.68995(15)
H16 H 0.4685 1.0454 0.6899
C21 C 0.3324(2) 1.01457(10) 0.60222(15)
H17 H 0.3468 1.0428 0.5414
C22 C 0.2388(2) 0.97204(9) 0.60416(14)
H18 H 0.1896 0.9729 0.5454
C23 C 0.21632(18) 0.92758(9) 0.69255(13)
H19 H 0.1526 0.8991 0.6929
C24 C 0.28980(17) 0.92632(8) 0.77975(13)
C25 C 0.25379(18) 0.76970(8) 0.78115(13)
C26 C 0.61580(18) 0.74559(9) 0.91881(14)
H20 H 0.6767 0.7487 0.9658
C27 C 0.51783(17) 0.78010(9) 0.94491(14)
H21 H 0.5126 0.8057 1.0097
C28 C 0.24442(17) 0.69820(9) 0.99186(14)
H22 H 0.2101 0.6855 1.0590
H23 H 0.3158 0.6752 0.9882
H24 H 0.1986 0.6820 0.9323
C29 C -0.13939(18) 1.07446(9) 0.74938(14)
H25 H -0.1241 1.1238 0.7415
C30 C -0.23638(18) 1.04705(10) 0.70905(14)
H26 H -0.2869 1.0780 0.6748
loop_
_geom_bond_atom_site_label_1
_geom_bond_atom_site_label_2
_geom_bond_site_symmetry_1
_geom_bond_site_symmetry_2
O1 C1 1_555 1_555
O2 C15 1_555 1_555
O3 C18 1_555 1_555
O4 C25 1_555 1_555
N1 C14 1_555 1_555
N2 C9 1_555 1_555
N3 H1 1_555 1_555
N4 H2 1_555 1_555
C1 H3 1_555 1_555
H4 C1 1_555 1_555
H5 C1 1_555 1_555
C2 O1 1_555 1_555
C3 C2 1_555 1_555
H6 C3 1_555 1_555
C4 C3 1_555 1_555
C5 C4 1_555 1_555
H7 C5 1_555 1_555
C6 C5 1_555 1_555
C7 C6 1_555 1_555
H8 C7 1_555 1_555
C8 C7 1_555 1_555
C9 C8 1_555 1_555
C10 C9 1_555 1_555
C11 N4 1_555 1_555
C12 C11 1_555 1_555
H9 C12 1_555 1_555
C13 C12 1_555 1_555
H10 C13 1_555 1_555
C14 C4 1_555 1_555
C15 N1 1_555 1_555
C16 O2 1_555 1_555
H11 C16 1_555 1_555
H12 C16 1_555 1_555
H13 C16 1_555 1_555
C17 N2 1_555 1_555
H14 C17 1_555 1_555
H15 C17 1_555 1_555
C18 N3 1_555 1_555
C19 N3 1_555 1_555
C20 C19 1_555 1_555
H16 C20 1_555 1_555
C21 C20 1_555 1_555
H17 C21 1_555 1_555
C22 C21 1_555 1_555
H18 C22 1_555 1_555
C23 C22 1_555 1_555
H19 C23 1_555 1_555
C24 C8 1_555 1_555
C25 N4 1_555 1_555
C26 C13 1_555 1_555
H20 C26 1_555 1_555
C27 C10 1_555 1_555
H21 C27 1_555 1_555
C28 N2 1_555 1_555
H22 C28 1_555 1_555
H23 C28 1_555 1_555
H24 C28 1_555 1_555
C29 C14 1_555 1_555
H25 C29 1_555 1_555
C30 C2 1_555 1_555
H26 C30 1_555 1_555
C6 C15 1_555 1_555
C7 C17 1_555 1_555
C8 C18 1_555 1_555
C9 C25 1_555 1_555
C10 C11 1_555 1_555
C19 C24 1_555 1_555
C23 C24 1_555 1_555
C26 C27 1_555 1_555
C29 C30 1_555 1_555

#END
