
#######################################################################
#
#                 Cambridge Crystallographic Data Centre
#                                CCDC 
#
#######################################################################
#
# If this CIF has been generated from an entry in the Cambridge 
# Structural Database, then it will include bibliographic, chemical, 
# crystal, experimental, refinement or atomic coordinate data resulting 
# from the CCDC's data processing and validation procedures.
#
#######################################################################

data_AKIBON
_chemical_formula_moiety         'C31 H25 N3 O4'
_chemical_name_systematic        
4'-(2-Methoxy-8-methylquinolin-3-yl)-1'-methyldispiro[indene-2,2'-pyrrolidine-3',3''-indole]-1,2'',3(1''H)-trione
_symmetry_cell_setting           triclinic
_symmetry_space_group_name_H-M   'P -1'
_symmetry_Int_Tables_number      2
_space_group_name_Hall           '-P 1'
loop_
_symmetry_equiv_pos_site_id
_symmetry_equiv_pos_as_xyz
1 x,y,z
2 -x,-y,-z
_cell_length_a                   9.94810(10)
_cell_length_b                   10.86510(10)
_cell_length_c                   13.2427(2)
_cell_angle_alpha                70.6430(10)
_cell_angle_beta                 68.0390(10)
_cell_angle_gamma                87.7640(10)
_cell_volume                     1246.55
_exptl_crystal_colour            colorless
_exptl_crystal_description       lamellar
_cell_formula_units_Z            2
loop_
_atom_site_label
_atom_site_type_symbol
_atom_site_fract_x
_atom_site_fract_y
_atom_site_fract_z
O1 O 0.58846(13) 0.36370(12) 0.46031(11)
O2 O 1.05564(13) 0.22675(11) 0.36637(11)
O3 O 1.03350(12) 0.38367(11) 0.12856(9)
O4 O 0.95507(14) 0.19324(11) 0.03723(9)
N1 N 0.74482(14) 0.12903(11) 0.46069(10)
N2 N 0.82102(14) 0.42806(12) 0.09927(10)
H1 H 0.8544 0.4954 0.0370
N3 N 0.80822(16) 0.05131(13) 0.01909(11)
C1 C 0.5631(3) -0.2122(2) 0.0524(2)
H2 H 0.5311 -0.2435 0.0070
C2 C 0.5102(2) -0.2785(2) 0.1717(2)
H3 H 0.4462 -0.3539 0.2041
C3 C 0.5518(2) -0.23321(19) 0.24128(17)
H4 H 0.5160 -0.2775 0.3208
C4 C 0.64911(18) -0.11911(16) 0.19199(14)
C5 C 0.69485(17) -0.06499(15) 0.25952(13)
H5 H 0.6555 -0.1032 0.3398
C6 C 0.79468(17) 0.04118(14) 0.20953(12)
C7 C 0.85086(17) 0.10762(13) 0.27247(12)
H6 H 0.9575 0.1166 0.2365
C8 C 0.80143(15) 0.24952(13) 0.26483(12)
C9 C 0.80600(15) 0.25894(13) 0.37877(12)
C10 C 0.96147(17) 0.29993(15) 0.36423(13)
C11 C 0.96567(18) 0.43656(15) 0.36280(13)
C12 C 1.0840(2) 0.51916(18) 0.34076(15)
H7 H 1.1779 0.4935 0.3199
C13 C 1.0568(3) 0.64080(19) 0.35101(18)
H8 H 1.1342 0.6988 0.3353
C14 C 0.7183(3) -0.0337(2) -0.12938(18)
H9 H 0.7048 -0.0923 -0.1662
H10 H 0.8202 -0.0067 -0.1571
H11 H 0.6668 0.0419 -0.1473
C15 C 0.6606(2) -0.1026(2) -0.00045(17)
C16 C 0.7501(2) 0.09897(16) 0.57481(13)
H12 H 0.8487 0.0893 0.5690
H13 H 0.6904 0.0188 0.6268
H14 H 0.7145 0.1689 0.6038
C17 C 0.80743(19) 0.03440(15) 0.40340(13)
H15 H 0.7366 -0.0398 0.4301
H16 H 0.8921 0.0027 0.4198
C18 C 0.71927(18) 0.36849(15) 0.41645(13)
C19 C 0.82536(19) 0.47517(15) 0.39407(13)
C20 C 0.7990(2) 0.59739(18) 0.40713(17)
H17 H 0.7051 0.6229 0.4305
C21 C 0.9175(3) 0.67850(19) 0.38403(19)
H18 H 0.9032 0.7609 0.3909
C22 C 0.65569(16) 0.27073(13) 0.25469(12)
C23 C 0.51858(17) 0.20748(15) 0.32450(14)
H19 H 0.5041 0.1373 0.3922
C24 C 0.40212(18) 0.24991(16) 0.29248(15)
H20 H 0.3088 0.2088 0.3396
C25 C 0.42414(19) 0.35259(17) 0.19131(16)
H21 H 0.3453 0.3785 0.1704
C26 C 0.56100(18) 0.41823(16) 0.11994(14)
H22 H 0.5755 0.4879 0.0519
C27 C 0.67462(16) 0.37591(14) 0.15406(12)
C28 C 0.90310(17) 0.35985(14) 0.15589(12)
C29 C 0.84952(18) 0.09258(15) 0.08536(13)
C30 C 1.0094(3) 0.25546(19) -0.08600(15)
H23 H 1.0384 0.1904 -0.1224
H24 H 1.0917 0.3168 -0.1104
H25 H 0.9344 0.3009 -0.1078
C31 C 0.70623(19) -0.05494(17) 0.07069(14)
loop_
_geom_bond_atom_site_label_1
_geom_bond_atom_site_label_2
_geom_bond_site_symmetry_1
_geom_bond_site_symmetry_2
O1 C18 1_555 1_555
O2 C10 1_555 1_555
O3 C28 1_555 1_555
O4 C29 1_555 1_555
N1 C9 1_555 1_555
N2 H1 1_555 1_555
N3 C29 1_555 1_555
C1 H2 1_555 1_555
C2 C1 1_555 1_555
H3 C2 1_555 1_555
C3 C2 1_555 1_555
H4 C3 1_555 1_555
C4 C3 1_555 1_555
C5 C4 1_555 1_555
H5 C5 1_555 1_555
C6 C5 1_555 1_555
C7 C6 1_555 1_555
H6 C7 1_555 1_555
C8 C7 1_555 1_555
C9 C8 1_555 1_555
C10 C9 1_555 1_555
C11 C10 1_555 1_555
C12 C11 1_555 1_555
H7 C12 1_555 1_555
C13 C12 1_555 1_555
H8 C13 1_555 1_555
C14 H9 1_555 1_555
H10 C14 1_555 1_555
H11 C14 1_555 1_555
C15 C1 1_555 1_555
C16 N1 1_555 1_555
H12 C16 1_555 1_555
H13 C16 1_555 1_555
H14 C16 1_555 1_555
C17 N1 1_555 1_555
H15 C17 1_555 1_555
H16 C17 1_555 1_555
C18 C9 1_555 1_555
C19 C11 1_555 1_555
C20 C19 1_555 1_555
H17 C20 1_555 1_555
C21 C13 1_555 1_555
H18 C21 1_555 1_555
C22 C8 1_555 1_555
C23 C22 1_555 1_555
H19 C23 1_555 1_555
C24 C23 1_555 1_555
H20 C24 1_555 1_555
C25 C24 1_555 1_555
H21 C25 1_555 1_555
C26 C25 1_555 1_555
H22 C26 1_555 1_555
C27 N2 1_555 1_555
C28 N2 1_555 1_555
C29 C6 1_555 1_555
C30 O4 1_555 1_555
H23 C30 1_555 1_555
H24 C30 1_555 1_555
H25 C30 1_555 1_555
C31 N3 1_555 1_555
C4 C31 1_555 1_555
C7 C17 1_555 1_555
C8 C28 1_555 1_555
C14 C15 1_555 1_555
C15 C31 1_555 1_555
C18 C19 1_555 1_555
C20 C21 1_555 1_555
C22 C27 1_555 1_555
C26 C27 1_555 1_555

#END
