
#######################################################################
#
#                 Cambridge Crystallographic Data Centre
#                                CCDC 
#
#######################################################################
#
# If this CIF has been generated from an entry in the Cambridge 
# Structural Database, then it will include bibliographic, chemical, 
# crystal, experimental, refinement or atomic coordinate data resulting 
# from the CCDC's data processing and validation procedures.
#
#######################################################################

data_AKIDOP
_chemical_formula_moiety         'C21 H20 Br1 Cl1 F3 N1 O3'
_chemical_name_systematic        
'Methyl 5-(4-bromophenyl)-4-((4-chlorophenyl)(hydroxy)methyl)-3-methyl-3-(trifluoromethyl)prolinate'
_symmetry_cell_setting           orthorhombic
_symmetry_space_group_name_H-M   'P 21 21 21'
_symmetry_Int_Tables_number      19
_space_group_name_Hall           'P 2ac 2ab'
loop_
_symmetry_equiv_pos_site_id
_symmetry_equiv_pos_as_xyz
1 x,y,z
2 1/2-x,-y,1/2+z
3 -x,1/2+y,1/2-z
4 1/2+x,1/2-y,-z
_cell_length_a                   8.5874(3)
_cell_length_b                   11.2885(4)
_cell_length_c                   23.0111(7)
_cell_angle_alpha                90
_cell_angle_beta                 90
_cell_angle_gamma                90
_cell_volume                     2230.67
_exptl_crystal_colour            colorless
_exptl_crystal_description       block
_cell_formula_units_Z            4
loop_
_atom_site_label
_atom_site_type_symbol
_atom_site_fract_x
_atom_site_fract_y
_atom_site_fract_z
Br1 Br 0.31912(8) 0.23578(6) 0.99269(2)
Cl1 Cl 0.75918(17) -0.01541(12) 0.90631(6)
F1 F 0.1372(3) 0.1090(2) 0.54243(9)
F2 F 0.2977(3) 0.1999(2) 0.59788(9)
F3 F 0.3269(3) 0.0144(2) 0.58177(9)
O1 O -0.2638(3) 0.1092(3) 0.66750(12)
O2 O -0.1851(3) 0.1673(2) 0.57974(10)
O3 O 0.0769(3) -0.0568(3) 0.76281(12)
H1 H 0.064(5) -0.120(4) 0.7658(18)
N1 N 0.0039(4) 0.2009(3) 0.71659(13)
H2 H -0.050(4) 0.156(3) 0.7298(14)
C1 C 0.2000(4) 0.1969(3) 0.79615(14)
C2 C 0.0928(5) 0.1670(3) 0.83848(16)
H3 H -0.0046 0.1387 0.8275
C3 C 0.1279(5) 0.1786(3) 0.89691(17)
H4 H 0.0548 0.1583 0.9250
C4 C 0.2714(6) 0.2202(3) 0.91274(16)
C5 C 0.3814(5) 0.2497(3) 0.87226(18)
H5 H 0.4789 0.2771 0.8836
C6 C 0.3439(5) 0.2378(3) 0.81370(15)
H6 H 0.4175 0.2580 0.7858
C7 C 0.3596(5) -0.0427(3) 0.78010(14)
C8 C 0.3362(5) -0.0616(3) 0.83868(16)
H7 H 0.2366 -0.0788 0.8522
C9 C 0.4581(6) -0.0555(3) 0.87755(18)
H8 H 0.4411 -0.0679 0.9170
C10 C 0.6056(5) -0.0307(3) 0.85712(19)
C11 C 0.6337(5) -0.0155(3) 0.79942(18)
H9 H 0.7342 -0.0008 0.7862
C12 C 0.5111(5) -0.0221(3) 0.76081(16)
H10 H 0.5298 -0.0127 0.7213
C13 C 0.2257(4) -0.0429(3) 0.73657(15)
H11 H 0.2416 -0.1098 0.7101
C14 C 0.2230(4) 0.0715(2) 0.69953(14)
H12 H 0.3301 0.0860 0.6866
C15 C 0.1183(4) 0.0699(3) 0.64385(14)
C16 C -0.0015(4) 0.1738(3) 0.65465(14)
H13 H 0.0342 0.2436 0.6331
C17 C 0.1679(4) 0.1850(3) 0.73215(14)
H14 H 0.2233 0.2509 0.7137
C18 C -0.1651(5) 0.1465(3) 0.63610(17)
C19 C -0.3353(5) 0.1365(5) 0.55622(19)
H15 H -0.3362 0.1517 0.5152
H16 H -0.4144 0.1832 0.5748
H17 H -0.3553 0.0540 0.5630
C20 C 0.2190(5) 0.0975(4) 0.59189(17)
C21 C 0.0360(5) -0.0491(3) 0.63082(17)
H18 H 0.1125 -0.1105 0.6267
H19 H -0.0226 -0.0422 0.5954
H20 H -0.0331 -0.0684 0.6622
loop_
_geom_bond_atom_site_label_1
_geom_bond_atom_site_label_2
_geom_bond_site_symmetry_1
_geom_bond_site_symmetry_2
Br1 C4 1_555 1_555
Cl1 C10 1_555 1_555
F1 C20 1_555 1_555
F2 C20 1_555 1_555
F3 C20 1_555 1_555
O1 C18 1_555 1_555
O2 C18 1_555 1_555
O3 H1 1_555 1_555
N1 H2 1_555 1_555
C1 C2 1_555 1_555
C2 H3 1_555 1_555
C3 C2 1_555 1_555
H4 C3 1_555 1_555
C4 C3 1_555 1_555
C5 C4 1_555 1_555
H5 C5 1_555 1_555
C6 C1 1_555 1_555
H6 C6 1_555 1_555
C7 C8 1_555 1_555
C8 H7 1_555 1_555
C9 C8 1_555 1_555
H8 C9 1_555 1_555
C10 C9 1_555 1_555
C11 C10 1_555 1_555
H9 C11 1_555 1_555
C12 C7 1_555 1_555
H10 C12 1_555 1_555
C13 O3 1_555 1_555
H11 C13 1_555 1_555
C14 C13 1_555 1_555
H12 C14 1_555 1_555
C15 C14 1_555 1_555
C16 N1 1_555 1_555
H13 C16 1_555 1_555
C17 N1 1_555 1_555
H14 C17 1_555 1_555
C18 C16 1_555 1_555
C19 O2 1_555 1_555
H15 C19 1_555 1_555
H16 C19 1_555 1_555
H17 C19 1_555 1_555
C20 C15 1_555 1_555
C21 C15 1_555 1_555
H18 C21 1_555 1_555
H19 C21 1_555 1_555
H20 C21 1_555 1_555
C1 C17 1_555 1_555
C5 C6 1_555 1_555
C7 C13 1_555 1_555
C11 C12 1_555 1_555
C14 C17 1_555 1_555
C15 C16 1_555 1_555

#END
