
#######################################################################
#
#                 Cambridge Crystallographic Data Centre
#                                CCDC 
#
#######################################################################
#
# If this CIF has been generated from an entry in the Cambridge 
# Structural Database, then it will include bibliographic, chemical, 
# crystal, experimental, refinement or atomic coordinate data resulting 
# from the CCDC's data processing and validation procedures.
#
#######################################################################

data_AKIHIN
_chemical_formula_moiety         'C6 H5 N1 O3,H2 O1'
_chemical_name_systematic        
'4-hydroxypyridin-1-ium-3-carboxylate monohydrate'
_symmetry_cell_setting           monoclinic
_symmetry_space_group_name_H-M   'P 21/c'
_symmetry_Int_Tables_number      14
_space_group_name_Hall           '-P 2ybc'
loop_
_symmetry_equiv_pos_site_id
_symmetry_equiv_pos_as_xyz
1 x,y,z
2 -x,1/2+y,1/2-z
3 -x,-y,-z
4 x,1/2-y,1/2+z
_cell_length_a                   7.8418(3)
_cell_length_b                   12.6104(6)
_cell_length_c                   7.2017(3)
_cell_angle_alpha                90
_cell_angle_beta                 113.9211(19)
_cell_angle_gamma                90
_cell_volume                     650.992
_exptl_crystal_colour            colorless
_exptl_crystal_description       plate
_cell_formula_units_Z            4
loop_
_atom_site_label
_atom_site_type_symbol
_atom_site_fract_x
_atom_site_fract_y
_atom_site_fract_z
O1 O 0.34996(15) 0.42967(8) 0.69964(16)
H1 H 0.2541 0.4022 0.6106
C1 C 0.4157(2) 0.24658(12) 0.7684(2)
O2 O 0.12521(15) 0.28953(8) 0.50840(15)
C2 C 0.4646(2) 0.35398(12) 0.8067(2)
O3 O 0.19482(15) 0.11738(9) 0.57746(15)
C3 C 0.6385(2) 0.38048(13) 0.9600(2)
H2 H 0.6732 0.4527 0.9906
C4 C 0.7571(2) 0.30137(12) 1.0644(2)
H3 H 0.8748 0.3188 1.1687
N1 N 0.70943(18) 0.19854(10) 1.02178(19)
H4 H 0.7891 0.1488 1.0896
C5 C 0.5432(2) 0.17058(13) 0.8783(2)
H5 H 0.5130 0.0976 0.8520
C6 C 0.2309(2) 0.21417(12) 0.6062(2)
O4 O 0.93039(16) 0.46184(10) 0.72458(17)
H6 H 1.014(2) 0.4384(14) 0.831(2)
H7 H 0.882(3) 0.5080(15) 0.762(3)
loop_
_geom_bond_atom_site_label_1
_geom_bond_atom_site_label_2
_geom_bond_site_symmetry_1
_geom_bond_site_symmetry_2
O1 H1 1_555 1_555
C1 C2 1_555 1_555
O2 C6 1_555 1_555
C2 O1 1_555 1_555
O3 C6 1_555 1_555
C3 C2 1_555 1_555
H2 C3 1_555 1_555
C4 C3 1_555 1_555
H3 C4 1_555 1_555
N1 C4 1_555 1_555
H4 N1 1_555 1_555
C5 C1 1_555 1_555
H5 C5 1_555 1_555
C6 C1 1_555 1_555
O4 H6 1_555 1_555
H7 O4 1_555 1_555
N1 C5 1_555 1_555

#END
