
#######################################################################
#
#                 Cambridge Crystallographic Data Centre
#                                CCDC 
#
#######################################################################
#
# If this CIF has been generated from an entry in the Cambridge 
# Structural Database, then it will include bibliographic, chemical, 
# crystal, experimental, refinement or atomic coordinate data resulting 
# from the CCDC's data processing and validation procedures.
#
#######################################################################

data_AKIKEM
_chemical_formula_moiety         'C8 H10 N2 O4'
_chemical_name_systematic        
'1-(carboxymethyl)-3,5-dimethyl-1H-pyrazole-4-carboxylic acid'
_symmetry_cell_setting           monoclinic
_symmetry_space_group_name_H-M   'P 21/n'
_symmetry_Int_Tables_number      14
_space_group_name_Hall           '-P 2yn'
loop_
_symmetry_equiv_pos_site_id
_symmetry_equiv_pos_as_xyz
1 x,y,z
2 1/2-x,1/2+y,1/2-z
3 -x,-y,-z
4 1/2+x,1/2-y,1/2+z
_cell_length_a                   4.666(2)
_cell_length_b                   7.297(3)
_cell_length_c                   28.483(13)
_cell_angle_alpha                90
_cell_angle_beta                 90.154(11)
_cell_angle_gamma                90
_cell_volume                     969.78
_cell_formula_units_Z            4
loop_
_atom_site_label
_atom_site_type_symbol
_atom_site_fract_x
_atom_site_fract_y
_atom_site_fract_z
C1 C 0.4407(6) 0.5387(3) 0.41076(9)
H1 H 0.3992 0.6355 0.3890
H2 H 0.5318 0.5887 0.4382
H3 H 0.2656 0.4791 0.4196
C2 C 0.6349(5) 0.4034(3) 0.38831(7)
C3 C 0.7264(5) 0.2281(3) 0.40435(7)
C4 C 0.6357(5) 0.1317(3) 0.44621(8)
C5 C 0.9089(5) 0.1625(3) 0.36959(7)
C6 C 1.0647(6) -0.0154(4) 0.36495(10)
H4 H 0.9435 -0.1030 0.3494
H5 H 1.1149 -0.0602 0.3956
H6 H 1.2356 0.0026 0.3469
C7 C 1.0667(5) 0.2862(3) 0.29198(8)
H7 H 1.2513 0.2266 0.2956
H8 H 1.0998 0.4097 0.2806
C8 C 0.8888(5) 0.1824(3) 0.25681(8)
N1 N 0.7555(4) 0.4421(2) 0.34755(6)
N2 N 0.9243(4) 0.2940(2) 0.33702(6)
O1 O 0.6670(4) 0.1116(3) 0.26664(7)
O2 O 1.0076(4) 0.1755(3) 0.21507(6)
H9 H 0.9036 0.1178 0.1971
O3 O 0.7331(5) -0.0264(3) 0.45468(6)
O4 O 0.4556(5) 0.2102(3) 0.47289(6)
H10 H 0.3881 0.1640 0.4990
loop_
_geom_bond_atom_site_label_1
_geom_bond_atom_site_label_2
_geom_bond_site_symmetry_1
_geom_bond_site_symmetry_2
C1 H1 1_555 1_555
H2 C1 1_555 1_555
H3 C1 1_555 1_555
C2 C1 1_555 1_555
C3 C2 1_555 1_555
C4 C3 1_555 1_555
C5 C3 1_555 1_555
C6 C5 1_555 1_555
H4 C6 1_555 1_555
H5 C6 1_555 1_555
H6 C6 1_555 1_555
C7 H7 1_555 1_555
H8 C7 1_555 1_555
C8 C7 1_555 1_555
N1 C2 1_555 1_555
N2 C5 1_555 1_555
O1 C8 1_555 1_555
O2 C8 1_555 1_555
H9 O2 1_555 1_555
O3 C4 1_555 1_555
O4 C4 1_555 1_555
H10 O4 1_555 1_555
C7 N2 1_555 1_555
N1 N2 1_555 1_555

#END
