
#######################################################################
#
#                 Cambridge Crystallographic Data Centre
#                                CCDC 
#
#######################################################################
#
# If this CIF has been generated from an entry in the Cambridge 
# Structural Database, then it will include bibliographic, chemical, 
# crystal, experimental, refinement or atomic coordinate data resulting 
# from the CCDC's data processing and validation procedures.
#
#######################################################################

data_AKINOZ
_chemical_formula_moiety         
'C38 H34 N10 4+,C10 H8 N2,C6 H6 O2,4(F6 P1 1-),2(C2 H3 N1)'
_chemical_name_systematic        
"6,12,25,31,42,47-hexaaza-3,15,22,34-tetraazonianonacyclo[34.2.2.2^17,20^.1^3,6^.1^7,11^.1^12,15^.1^22,25^.1^26,30^.1^31,34^]octatetraconta-1(38),3(48),4,7(47),8,10,13,15(46),17,19,22(43),23,26(42),27,29,32,34(41),36,39,44-icosaene 4,4'-bipyridine hydroquinone tetrakis(hexafluorophosphate) acetonitrile solvate"
_symmetry_cell_setting           monoclinic
_symmetry_space_group_name_H-M   'C c'
_symmetry_Int_Tables_number      9
_space_group_name_Hall           'C -2yc'
loop_
_symmetry_equiv_pos_site_id
_symmetry_equiv_pos_as_xyz
1 x,y,z
2 x,-y,1/2+z
3 1/2+x,1/2+y,z
4 1/2+x,1/2-y,1/2+z
_cell_length_a                   31.643(6)
_cell_length_b                   10.393(2)
_cell_length_c                   22.902(5)
_cell_angle_alpha                90
_cell_angle_beta                 120.20(3)
_cell_angle_gamma                90
_cell_volume                     6509.44
_exptl_crystal_colour            colorless
_exptl_crystal_description       prism
_cell_formula_units_Z            4
loop_
_atom_site_label
_atom_site_type_symbol
_atom_site_fract_x
_atom_site_fract_y
_atom_site_fract_z
P1 P 0.4752(3) 0.1621(3) 0.3978(3)
F1 F 0.5010(4) 0.1953(9) 0.4767(5)
F2 F 0.4767(4) 0.3117(7) 0.3811(5)
F3 F 0.4729(4) 0.0178(8) 0.4156(5)
F4 F 0.4226(4) 0.1885(9) 0.3891(5)
F5 F 0.5266(4) 0.1319(9) 0.4042(6)
F6 F 0.4494(4) 0.1314(7) 0.3182(5)
P2 P 0.1736(3) 1.3556(3) -0.0537(4)
F7 F 0.2154(4) 1.2854(10) 0.0099(6)
F8 F 0.2097(5) 1.4407(13) -0.0635(7)
F9 F 0.1339(4) 1.2650(13) -0.0463(7)
F10 F 0.1274(5) 1.4201(11) -0.1182(6)
F11 F 0.1681(6) 1.4603(11) -0.0069(7)
F12 F 0.1749(5) 1.2473(10) -0.1027(6)
P3 P 0.2015(3) -0.1436(3) 0.1266(4)
F13 F 0.2239(7) -0.2503(12) 0.0982(9)
F14 F 0.1984(6) -0.0436(11) 0.0721(6)
F15 F 0.1825(6) -0.0403(11) 0.1576(8)
F16 F 0.1489(5) -0.1949(14) 0.0773(8)
F17 F 0.2076(6) -0.2458(11) 0.1833(7)
F18 F 0.2570(4) -0.0978(13) 0.1773(7)
P4 P -0.0996(3) 1.3376(3) 0.1749(3)
F19 F -0.1027(4) 1.1910(7) 0.1933(5)
F20 F -0.0479(4) 1.3162(10) 0.1822(5)
F21 F -0.0958(4) 1.4866(6) 0.1587(5)
F22 F -0.1265(4) 1.3061(9) 0.0963(5)
F23 F -0.0728(4) 1.3678(8) 0.2526(5)
F24 F -0.1515(4) 1.3564(9) 0.1661(6)
N1 N 0.0110(4) 0.7580(9) 0.2623(6)
N2 N 0.0238(4) 0.9562(9) 0.2964(6)
N3 N 0.0990(4) 1.0587(8) 0.3671(6)
N4 N 0.1767(4) 1.1477(8) 0.4319(6)
N5 N 0.2473(4) 1.0539(9) 0.4805(6)
N6 N 0.3640(4) 0.7403(10) 0.3112(6)
N7 N 0.3500(4) 0.5416(9) 0.2789(6)
N8 N 0.2765(4) 0.4427(8) 0.2087(5)
N9 N 0.1993(4) 0.3561(8) 0.1408(6)
N10 N 0.1289(4) 0.4510(8) 0.0918(6)
C1 C 0.0443(5) 0.8392(10) 0.3074(6)
H1 H 0.0760 0.8182 0.3406
C2 C -0.0315(5) 0.8305(15) 0.2219(7)
H2 H -0.0604 0.7997 0.1857
C3 C -0.0228(5) 0.9525(13) 0.2452(7)
H3 H -0.0447 1.0208 0.2290
C4 C 0.0495(5) 1.0709(11) 0.3315(6)
C5 C 0.0244(5) 1.1830(12) 0.3279(7)
H4 H -0.0095 1.1879 0.3019
C6 C 0.0532(5) 1.2900(11) 0.3659(7)
H5 H 0.0381 1.3654 0.3677
C7 C 0.1032(5) 1.2822(11) 0.3997(8)
H6 H 0.1228 1.3526 0.4221
C8 C 0.1236(5) 1.1590(11) 0.3986(7)
C9 C 0.1989(4) 1.0314(10) 0.4493(6)
H7 H 0.1837 0.9516 0.4413
C10 C 0.2094(5) 1.2423(12) 0.4480(7)
H8 H 0.2030 1.3296 0.4388
C11 C 0.2566(6) 1.1806(12) 0.4827(8)
H9 H 0.2871 1.2202 0.5025
C12 C 0.2849(4) 0.9555(10) 0.5061(6)
H10 H 0.2717 0.8762 0.5127
H11 H 0.3118 0.9823 0.5496
C13 C 0.3036(4) 0.9315(10) 0.4586(7)
C14 C 0.3525(5) 0.9535(12) 0.4795(7)
H12 H 0.3746 0.9760 0.5241
C15 C 0.3686(5) 0.9407(14) 0.4307(8)
H13 H 0.4004 0.9641 0.4430
C16 C 0.3389(5) 0.8959(11) 0.3682(6)
C17 C 0.2901(6) 0.8655(16) 0.3495(8)
H14 H 0.2688 0.8263 0.3085
C18 C 0.2760(5) 0.8975(17) 0.3958(9)
H15 H 0.2426 0.8943 0.3801
C19 C 0.3570(5) 0.8792(12) 0.3196(7)
H16 H 0.3336 0.9159 0.2762
H17 H 0.3878 0.9244 0.3362
C20 C 0.3312(5) 0.6593(11) 0.2699(7)
H18 H 0.2991 0.6807 0.2384
C21 C 0.4058(5) 0.6773(11) 0.3507(6)
H19 H 0.4347 0.7139 0.3844
C22 C 0.3991(5) 0.5519(13) 0.3333(7)
H20 H 0.4218 0.4858 0.3527
C23 C 0.3240(5) 0.4287(11) 0.2418(6)
C24 C 0.3488(5) 0.3212(13) 0.2434(7)
H21 H 0.3828 0.3191 0.2673
C25 C 0.3226(5) 0.2178(14) 0.2094(8)
H22 H 0.3383 0.1417 0.2100
C26 C 0.2704(6) 0.2249(12) 0.1722(7)
H23 H 0.2512 0.1555 0.1473
C27 C 0.2510(5) 0.3350(10) 0.1750(6)
C28 C 0.1757(5) 0.4661(11) 0.1212(7)
H24 H 0.1909 0.5456 0.1278
C29 C 0.1625(5) 0.2614(11) 0.1178(8)
H25 H 0.1676 0.1729 0.1208
C30 C 0.1217(5) 0.3167(12) 0.0924(8)
H26 H 0.0917 0.2761 0.0767
C31 C 0.0900(5) 0.5527(11) 0.0656(6)
H27 H 0.0637 0.5288 0.0211
H28 H 0.1036 0.6338 0.0617
C32 C 0.0699(5) 0.5685(11) 0.1138(7)
C33 C 0.0233(5) 0.5404(13) 0.0968(7)
H29 H 0.0026 0.5037 0.0548
C34 C 0.0059(5) 0.5635(13) 0.1381(7)
H30 H -0.0274 0.5551 0.1222
C35 C 0.0378(5) 0.6007(12) 0.2059(7)
C36 C 0.0846(5) 0.6239(16) 0.2232(7)
H31 H 0.1065 0.6430 0.2682
C37 C 0.1029(5) 0.6218(14) 0.1792(7)
H32 H 0.1339 0.6523 0.1911
C38 C 0.0205(5) 0.6218(13) 0.2570(7)
H33 H -0.0092 0.5727 0.2431
H34 H 0.0453 0.5904 0.3010
N11 N 0.2860(5) 0.3932(17) 0.3595(7)
N12 N 0.0750(5) 0.021(2) 0.2018(8)
C39 C 0.2395(6) 0.4536(14) 0.3263(8)
H35 H 0.2370 0.5428 0.3254
C40 C 0.1979(5) 0.3773(14) 0.2952(8)
H36 H 0.1669 0.4144 0.2733
C41 C 0.2035(5) 0.2434(14) 0.2975(6)
C42 C 0.2481(4) 0.1849(15) 0.3292(8)
H37 H 0.2505 0.0956 0.3299
C43 C 0.2914(5) 0.2627(17) 0.3614(8)
H38 H 0.3223 0.2253 0.3829
C44 C 0.0712(5) 0.155(2) 0.2005(10)
H39 H 0.0407 0.1952 0.1782
C45 C 0.1141(5) 0.2285(17) 0.2334(8)
H40 H 0.1125 0.3178 0.2341
C46 C 0.1589(5) 0.1671(15) 0.2649(7)
C47 C 0.1631(5) 0.0354(14) 0.2657(8)
H41 H 0.1938 -0.0030 0.2872
C48 C 0.1211(6) -0.0401(16) 0.2344(9)
H42 H 0.1234 -0.1293 0.2349
C49 C 0.3692(5) 0.5146(15) 0.4586(7)
C50 C 0.3994(5) 0.6145(13) 0.4977(8)
H43 H 0.3887 0.6993 0.4886
C51 C 0.4454(5) 0.5857(11) 0.5501(7)
H44 H 0.4661 0.6521 0.5760
C52 C 0.4613(5) 0.4611(13) 0.5649(6)
C53 C 0.4313(5) 0.3582(12) 0.5252(8)
H45 H 0.4421 0.2734 0.5342
C54 C 0.3846(5) 0.3895(14) 0.4718(8)
H46 H 0.3638 0.3241 0.4450
O1 O 0.3246(5) 0.5481(16) 0.4076(8)
O2 O 0.5059(5) 0.4382(10) 0.6159(6)
H47 H 0.5200 0.5067 0.6314
N13 N 0.3550(5) 1.3100(16) 0.0965(7)
C55 C 0.3129(7) 1.5173(17) 0.0682(10)
H48 H 0.3334 1.5839 0.0668
H49 H 0.3056 1.5357 0.1033
H50 H 0.2830 1.5134 0.0255
C56 C 0.3365(7) 1.402(2) 0.0808(8)
N14 N 0.5193(6) 0.7051(14) 0.4818(8)
C57 C 0.5665(7) 0.4787(15) 0.5159(13)
H51 H 0.5709 0.4445 0.4803
H52 H 0.5477 0.4194 0.5257
H53 H 0.5979 0.4914 0.5556
C58 C 0.5398(6) 0.6064(15) 0.4937(9)
F25? F 0.1835(6) 1.2478(10) 0.0002(7)
F26? F 0.2305(4) 1.3390(10) -0.0359(6)
F27? F 0.1199(4) 1.3746(13) -0.0726(8)
F28? F 0.1691(5) 1.4664(9) -0.1060(6)
F29? F 0.1922(5) 1.4636(10) 0.0041(6)
F30? F 0.1586(5) 1.2504(10) -0.1115(6)
F31? F 0.1779(5) -0.2480(10) 0.0673(6)
F32? F 0.1806(6) -0.0306(11) 0.0708(7)
F33? F 0.2219(7) -0.0372(10) 0.1847(6)
F34? F 0.1496(5) -0.1388(15) 0.1250(8)
F35? F 0.2195(6) -0.2542(10) 0.1819(7)
F36? F 0.2503(4) -0.1464(15) 0.1263(8)
C59? C 0.3351(5) 0.4691(18) 0.4248(7)
C60? C 0.3701(6) 0.5605(16) 0.4661(9)
H54? H 0.3625 0.6477 0.4608
C61? C 0.4167(5) 0.5190(15) 0.5154(8)
H55? H 0.4407 0.5782 0.5424
C62? C 0.4265(5) 0.3883(16) 0.5232(9)
C63? C 0.3921(7) 0.2978(15) 0.4826(11)
H56? H 0.3999 0.2107 0.4884
C64? C 0.3454(6) 0.3382(16) 0.4325(10)
H57? H 0.3218 0.2785 0.4051
O3? O 0.2909(5) 0.5093(18) 0.3771(8)
H58? H 0.2752 0.4481 0.3536
O4? O 0.4712(6) 0.3478(18) 0.5724(10)
H59? H 0.4868 0.4092 0.5960
N15? N 0.2515(6) 0.336(2) 0.3188(7)
N16? N 0.0330(6) 0.000(2) 0.1699(9)
C65? C 0.2087(7) 0.4053(18) 0.2971(11)
H60? H 0.2095 0.4942 0.3022
C66? C 0.1638(6) 0.3372(17) 0.2668(10)
H61? H 0.1344 0.3806 0.2518
C67? C 0.1644(5) 0.2053(17) 0.2600(6)
C68? C 0.2077(5) 0.1363(18) 0.2819(9)
H62? H 0.2072 0.0474 0.2769
C69? C 0.2518(5) 0.205(2) 0.3118(10)
H63? H 0.2812 0.1620 0.3269
C70? C 0.0323(5) 0.134(2) 0.1766(11)
H64? H 0.0027 0.1766 0.1610
C71? C 0.0759(5) 0.2018(19) 0.2066(10)
H65? H 0.0760 0.2907 0.2115
C72? C 0.1196(5) 0.1343(18) 0.2294(7)
C73? C 0.1209(5) 0.0020(17) 0.2226(9)
H66? H 0.1504 -0.0408 0.2377
C74? C 0.0764(7) -0.066(2) 0.1923(11)
H67? H 0.0762 -0.1544 0.1873
H68? H 0.3085 0.4830 0.3901
loop_
_geom_bond_atom_site_label_1
_geom_bond_atom_site_label_2
_geom_bond_site_symmetry_1
_geom_bond_site_symmetry_2
P1 F1 1_555 1_555
F2 P1 1_555 1_555
F3 P1 1_555 1_555
F4 P1 1_555 1_555
F5 P1 1_555 1_555
F6 P1 1_555 1_555
P2 F7 1_555 1_555
F8 P2 1_555 1_555
F9 P2 1_555 1_555
F10 P2 1_555 1_555
F11 P2 1_555 1_555
F12 P2 1_555 1_555
P3 F13 1_555 1_555
F14 P3 1_555 1_555
F15 P3 1_555 1_555
F16 P3 1_555 1_555
F17 P3 1_555 1_555
F18 P3 1_555 1_555
P4 F19 1_555 1_555
F20 P4 1_555 1_555
F21 P4 1_555 1_555
F22 P4 1_555 1_555
F23 P4 1_555 1_555
F24 P4 1_555 1_555
N1 C1 1_555 1_555
N2 C1 1_555 1_555
N3 C4 1_555 1_555
N4 C8 1_555 1_555
N5 C9 1_555 1_555
N6 C19 1_555 1_555
N7 C20 1_555 1_555
N8 C23 1_555 1_555
N9 C27 1_555 1_555
N10 C28 1_555 1_555
C1 H1 1_555 1_555
C2 N1 1_555 1_555
H2 C2 1_555 1_555
C3 N2 1_555 1_555
H3 C3 1_555 1_555
C4 N2 1_555 1_555
C5 C4 1_555 1_555
H4 C5 1_555 1_555
C6 C5 1_555 1_555
H5 C6 1_555 1_555
C7 C6 1_555 1_555
H6 C7 1_555 1_555
C8 N3 1_555 1_555
C9 N4 1_555 1_555
H7 C9 1_555 1_555
C10 N4 1_555 1_555
H8 C10 1_555 1_555
C11 N5 1_555 1_555
H9 C11 1_555 1_555
C12 N5 1_555 1_555
H10 C12 1_555 1_555
H11 C12 1_555 1_555
C13 C12 1_555 1_555
C14 C13 1_555 1_555
H12 C14 1_555 1_555
C15 C14 1_555 1_555
H13 C15 1_555 1_555
C16 C15 1_555 1_555
C17 C16 1_555 1_555
H14 C17 1_555 1_555
C18 C13 1_555 1_555
H15 C18 1_555 1_555
C19 C16 1_555 1_555
H16 C19 1_555 1_555
H17 C19 1_555 1_555
C20 N6 1_555 1_555
H18 C20 1_555 1_555
C21 N6 1_555 1_555
H19 C21 1_555 1_555
C22 N7 1_555 1_555
H20 C22 1_555 1_555
C23 N7 1_555 1_555
C24 C23 1_555 1_555
H21 C24 1_555 1_555
C25 C24 1_555 1_555
H22 C25 1_555 1_555
C26 C25 1_555 1_555
H23 C26 1_555 1_555
C27 N8 1_555 1_555
C28 N9 1_555 1_555
H24 C28 1_555 1_555
C29 N9 1_555 1_555
H25 C29 1_555 1_555
C30 N10 1_555 1_555
H26 C30 1_555 1_555
C31 N10 1_555 1_555
H27 C31 1_555 1_555
H28 C31 1_555 1_555
C32 C31 1_555 1_555
C33 C32 1_555 1_555
H29 C33 1_555 1_555
C34 C33 1_555 1_555
H30 C34 1_555 1_555
C35 C34 1_555 1_555
C36 C35 1_555 1_555
H31 C36 1_555 1_555
C37 C32 1_555 1_555
H32 C37 1_555 1_555
C38 N1 1_555 1_555
H33 C38 1_555 1_555
H34 C38 1_555 1_555
N11 C39 1_555 1_555
N12 C44 1_555 1_555
C39 H35 1_555 1_555
C40 C39 1_555 1_555
H36 C40 1_555 1_555
C41 C40 1_555 1_555
C42 C41 1_555 1_555
H37 C42 1_555 1_555
C43 N11 1_555 1_555
H38 C43 1_555 1_555
C44 H39 1_555 1_555
C45 C44 1_555 1_555
H40 C45 1_555 1_555
C46 C41 1_555 1_555
C47 C46 1_555 1_555
H41 C47 1_555 1_555
C48 N12 1_555 1_555
H42 C48 1_555 1_555
C49 C50 1_555 1_555
C50 H43 1_555 1_555
C51 C50 1_555 1_555
H44 C51 1_555 1_555
C52 C51 1_555 1_555
C53 C52 1_555 1_555
H45 C53 1_555 1_555
C54 C49 1_555 1_555
H46 C54 1_555 1_555
O1 C49 1_555 1_555
O2 C52 1_555 1_555
H47 O2 1_555 1_555
N13 C56 1_555 1_555
C55 H48 1_555 1_555
H49 C55 1_555 1_555
H50 C55 1_555 1_555
C56 C55 1_555 1_555
N14 C58 1_555 1_555
C57 H51 1_555 1_555
H52 C57 1_555 1_555
H53 C57 1_555 1_555
C58 C57 1_555 1_555
C2 C3 1_555 1_555
C7 C8 1_555 1_555
C10 C11 1_555 1_555
C17 C18 1_555 1_555
C21 C22 1_555 1_555
C26 C27 1_555 1_555
C29 C30 1_555 1_555
C35 C38 1_555 1_555
C36 C37 1_555 1_555
C42 C43 1_555 1_555
C45 C46 1_555 1_555
C47 C48 1_555 1_555
C53 C54 1_555 1_555

#END
