
#######################################################################
#
#                 Cambridge Crystallographic Data Centre
#                                CCDC 
#
#######################################################################
#
# If this CIF has been generated from an entry in the Cambridge 
# Structural Database, then it will include bibliographic, chemical, 
# crystal, experimental, refinement or atomic coordinate data resulting 
# from the CCDC's data processing and validation procedures.
#
#######################################################################

data_AKINEP
_chemical_formula_moiety         'C38 H34 N10 4+,C6 H8 N2,4(F6 P1 1-)'
_chemical_name_systematic        
'6,12,25,31,42,47-hexaaza-3,15,22,34-tetraazonianonacyclo[34.2.2.2^17,20^.1^3,6^.1^7,11^.1^12,15^.1^22,25^.1^26,30^.1^31,34^]octatetraconta-1(38),3(48),4,7(47),8,10,13,15(46),17,19,22(43),23,26(42),27,29,32,34(41),36,39,44-icosaene tetrakis(hexafluorophosphate) benzene-1,4-diamine'
_symmetry_cell_setting           triclinic
_symmetry_space_group_name_H-M   'P -1'
_symmetry_Int_Tables_number      2
_space_group_name_Hall           '-P 1'
loop_
_symmetry_equiv_pos_site_id
_symmetry_equiv_pos_as_xyz
1 x,y,z
2 -x,-y,-z
_cell_length_a                   10.5830(7)
_cell_length_b                   10.9886(9)
_cell_length_c                   12.0115(15)
_cell_angle_alpha                69.117(4)
_cell_angle_beta                 85.758(5)
_cell_angle_gamma                82.818(3)
_cell_volume                     1294.2
_exptl_crystal_colour            colorless
_exptl_crystal_description       prism
_cell_formula_units_Z            1
loop_
_atom_site_label
_atom_site_type_symbol
_atom_site_fract_x
_atom_site_fract_y
_atom_site_fract_z
P1 P 0.62560(12) -0.18908(13) 0.78292(11)
F1 F 0.7540(3) -0.2548(3) 0.7397(3)
F2 F 0.6990(3) -0.0692(3) 0.7815(3)
F3 F 0.4977(3) -0.1209(3) 0.8259(3)
F4 F 0.5516(3) -0.3067(3) 0.7858(3)
F5 F 0.5885(3) -0.1109(3) 0.6471(3)
F6 F 0.6645(3) -0.2640(3) 0.9179(2)
P2 P 0.17671(12) 0.51086(14) 0.70310(11)
F7 F 0.3143(3) 0.5111(3) 0.6395(3)
F8 F 0.1735(3) 0.6646(3) 0.6758(3)
F9 F 0.0389(3) 0.5133(4) 0.7637(3)
F10 F 0.1805(4) 0.3587(3) 0.7267(3)
F11 F 0.1146(3) 0.5413(3) 0.5783(3)
F12 F 0.2379(4) 0.4809(4) 0.8270(3)
N1 N 0.8941(3) 0.1607(4) 1.1837(3)
N2 N 0.7993(4) 0.3235(4) 1.0455(3)
N3 N 0.4836(4) 0.2367(4) 0.5548(3)
N4 N 0.2871(4) 0.2004(4) 0.5576(3)
N5 N 0.1897(4) 0.0203(4) 0.6798(3)
C1 C 0.7811(4) 0.2152(5) 1.1376(4)
H1 H 0.7014 0.1824 1.1658
C2 C 0.9877(5) 0.2378(5) 1.1172(4)
H2 H 1.0768 0.2226 1.1296
C3 C 0.9262(5) 0.3374(5) 1.0324(5)
H3 H 0.9646 0.4066 0.9727
C4 C 0.6970(5) 0.4110(5) 0.9690(5)
H4 H 0.7214 0.5014 0.9364
H5 H 0.6174 0.4116 1.0178
C5 C 0.6736(5) 0.3669(5) 0.8678(4)
C6 C 0.5674(5) 0.3035(6) 0.8718(5)
H6 H 0.5082 0.2903 0.9373
C7 C 0.5471(5) 0.2593(6) 0.7808(5)
H7 H 0.4731 0.2173 0.7840
C8 C 0.6325(4) 0.2754(5) 0.6857(4)
C9 C 0.7393(5) 0.3396(5) 0.6809(4)
H8 H 0.7985 0.3535 0.6152
C10 C 0.7581(5) 0.3828(5) 0.7726(5)
H9 H 0.8321 0.4249 0.7697
C11 C 0.6168(4) 0.2218(5) 0.5881(4)
H10 H 0.6686 0.2681 0.5169
H11 H 0.6494 0.1278 0.6154
C12 C 0.4009(4) 0.1503(5) 0.6046(4)
H12 H 0.4194 0.0665 0.6639
C13 C 0.2991(5) 0.3248(5) 0.4746(5)
H13 H 0.2334 0.3829 0.4273
C14 C 0.4201(5) 0.3472(5) 0.4736(4)
H14 H 0.4563 0.4248 0.4260
C15 C 0.1757(4) 0.1346(5) 0.5890(4)
C16 C 0.0647(5) 0.1867(5) 0.5289(4)
H15 H 0.0596 0.2678 0.4641
C17 C -0.0387(5) 0.1158(5) 0.5670(4)
H16 H -0.1174 0.1484 0.5283
C18 C -0.0288(5) -0.0029(5) 0.6618(4)
H17 H -0.0988 -0.0535 0.6890
C19 C 0.0874(4) -0.0429(5) 0.7138(4)
N1A N 0.1059(3) -0.1607(4) 0.8163(3)
N2A N 0.2007(4) -0.3235(4) 0.9545(3)
N3A N 0.5164(4) -0.2367(4) 1.4452(3)
N4A N 0.7129(4) -0.2004(4) 1.4424(3)
N5A N 0.8103(4) -0.0203(4) 1.3202(3)
C1A C 0.2189(4) -0.2152(5) 0.8624(4)
H1A H 0.2986 -0.1824 0.8342
C2A C 0.0123(5) -0.2378(5) 0.8828(4)
H2A H -0.0768 -0.2226 0.8704
C3A C 0.0738(5) -0.3374(5) 0.9676(5)
H3A H 0.0354 -0.4066 1.0273
C4A C 0.3030(5) -0.4110(5) 1.0310(5)
H4A H 0.2786 -0.5014 1.0636
H5A H 0.3826 -0.4116 0.9822
C5A C 0.3264(5) -0.3669(5) 1.1322(4)
C6A C 0.4326(5) -0.3035(6) 1.1282(5)
H6A H 0.4918 -0.2903 1.0627
C7A C 0.4529(5) -0.2593(6) 1.2192(5)
H7A H 0.5269 -0.2173 1.2160
C8A C 0.3675(4) -0.2754(5) 1.3143(4)
C9A C 0.2607(5) -0.3396(5) 1.3191(4)
H8A H 0.2015 -0.3535 1.3848
C10A C 0.2419(5) -0.3828(5) 1.2274(5)
H9A H 0.1679 -0.4249 1.2303
C11A C 0.3832(4) -0.2218(5) 1.4119(4)
H10A H 0.3314 -0.2681 1.4831
H11A H 0.3506 -0.1278 1.3846
C12A C 0.5991(4) -0.1503(5) 1.3954(4)
H12A H 0.5806 -0.0665 1.3361
C13A C 0.7009(5) -0.3248(5) 1.5254(5)
H13A H 0.7666 -0.3829 1.5727
C14A C 0.5799(5) -0.3472(5) 1.5264(4)
H14A H 0.5437 -0.4248 1.5740
C15A C 0.8243(4) -0.1346(5) 1.4110(4)
C16A C 0.9353(5) -0.1867(5) 1.4711(4)
H15A H 0.9404 -0.2678 1.5359
C17A C 1.0387(5) -0.1158(5) 1.4330(4)
H16A H 1.1174 -0.1484 1.4717
C18A C 1.0288(5) 0.0029(5) 1.3382(4)
H17A H 1.0988 0.0535 1.3110
C19A C 0.9126(4) 0.0429(5) 1.2862(4)
N6 N 0.2379(5) 0.0966(6) 0.9274(5)
C20 C 0.1181(5) 0.0497(5) 0.9649(4)
C21 C 0.0103(5) 0.1077(5) 0.8989(4)
H18 H 0.0167 0.1824 0.8286
C22 C -0.1057(5) 0.0588(5) 0.9332(4)
H19 H -0.1780 0.1002 0.8864
H20 H 0.294(6) 0.081(6) 0.979(6)
H21 H 0.245(7) 0.191(8) 0.880(7)
N6A N -0.2379(5) -0.0966(6) 1.0726(5)
C20A C -0.1181(5) -0.0497(5) 1.0351(4)
C21A C -0.0103(5) -0.1077(5) 1.1011(4)
H18A H -0.0167 -0.1824 1.1714
C22A C 0.1057(5) -0.0588(5) 1.0668(4)
H19A H 0.1780 -0.1002 1.1136
H20A H -0.294(6) -0.081(6) 1.021(6)
H21A H -0.245(7) -0.191(8) 1.120(7)
loop_
_geom_bond_atom_site_label_1
_geom_bond_atom_site_label_2
_geom_bond_site_symmetry_1
_geom_bond_site_symmetry_2
P1 F1 1_555 1_555
F2 P1 1_555 1_555
F3 P1 1_555 1_555
F4 P1 1_555 1_555
F5 P1 1_555 1_555
F6 P1 1_555 1_555
P2 F7 1_555 1_555
F8 P2 1_555 1_555
F9 P2 1_555 1_555
F10 P2 1_555 1_555
F11 P2 1_555 1_555
F12 P2 1_555 1_555
N1 C1 1_555 1_555
N2 C1 1_555 1_555
N3 C11 1_555 1_555
N4 C12 1_555 1_555
N5 C15 1_555 1_555
C1 H1 1_555 1_555
C2 N1 1_555 1_555
H2 C2 1_555 1_555
C3 N2 1_555 1_555
H3 C3 1_555 1_555
C4 N2 1_555 1_555
H4 C4 1_555 1_555
H5 C4 1_555 1_555
C5 C4 1_555 1_555
C6 C5 1_555 1_555
H6 C6 1_555 1_555
C7 C6 1_555 1_555
H7 C7 1_555 1_555
C8 C7 1_555 1_555
C9 C8 1_555 1_555
H8 C9 1_555 1_555
C10 C5 1_555 1_555
H9 C10 1_555 1_555
C11 C8 1_555 1_555
H10 C11 1_555 1_555
H11 C11 1_555 1_555
C12 N3 1_555 1_555
H12 C12 1_555 1_555
C13 N4 1_555 1_555
H13 C13 1_555 1_555
C14 N3 1_555 1_555
H14 C14 1_555 1_555
C15 N4 1_555 1_555
C16 C15 1_555 1_555
H15 C16 1_555 1_555
C17 C16 1_555 1_555
H16 C17 1_555 1_555
C18 C17 1_555 1_555
H17 C18 1_555 1_555
C19 N5 1_555 1_555
N6 C20 1_555 1_555
C20 C21 1_555 1_555
C21 H18 1_555 1_555
C22 C21 1_555 1_555
H19 C22 1_555 1_555
H20 N6 1_555 1_555
H21 N6 1_555 1_555
N1A C19 1_555 1_555
N2A C1A 1_555 1_555
N3A C11A 1_555 1_555
N4A C12A 1_555 1_555
N5A C15A 1_555 1_555
C1A N1A 1_555 1_555
H1A C1A 1_555 1_555
C2A N1A 1_555 1_555
H2A C2A 1_555 1_555
C3A N2A 1_555 1_555
H3A C3A 1_555 1_555
C4A N2A 1_555 1_555
H4A C4A 1_555 1_555
H5A C4A 1_555 1_555
C5A C4A 1_555 1_555
C6A C5A 1_555 1_555
H6A C6A 1_555 1_555
C7A C6A 1_555 1_555
H7A C7A 1_555 1_555
C8A C7A 1_555 1_555
C9A C8A 1_555 1_555
H8A C9A 1_555 1_555
C10A C5A 1_555 1_555
H9A C10A 1_555 1_555
C11A C8A 1_555 1_555
H10A C11A 1_555 1_555
H11A C11A 1_555 1_555
C12A N3A 1_555 1_555
H12A C12A 1_555 1_555
C13A N4A 1_555 1_555
H13A C13A 1_555 1_555
C14A N3A 1_555 1_555
H14A C14A 1_555 1_555
C15A N4A 1_555 1_555
C16A C15A 1_555 1_555
H15A C16A 1_555 1_555
C17A C16A 1_555 1_555
H16A C17A 1_555 1_555
C18A C17A 1_555 1_555
H17A C18A 1_555 1_555
C19A N1 1_555 1_555
N6A C20A 1_555 1_555
C20A C22 1_555 1_555
C21A C20A 1_555 1_555
H18A C21A 1_555 1_555
C22A C20 1_555 1_555
H19A C22A 1_555 1_555
H20A N6A 1_555 1_555
H21A N6A 1_555 1_555
C2 C3 1_555 1_555
C9 C10 1_555 1_555
C13 C14 1_555 1_555
C18 C19 1_555 1_555
N5A C19A 1_555 1_555
C2A C3A 1_555 1_555
C9A C10A 1_555 1_555
C13A C14A 1_555 1_555
C18A C19A 1_555 1_555
C21A C22A 1_555 1_555

#END
