
#######################################################################
#
#                 Cambridge Crystallographic Data Centre
#                                CCDC 
#
#######################################################################
#
# If this CIF has been generated from an entry in the Cambridge 
# Structural Database, then it will include bibliographic, chemical, 
# crystal, experimental, refinement or atomic coordinate data resulting 
# from the CCDC's data processing and validation procedures.
#
#######################################################################

data_AKIPUH
_chemical_formula_moiety         'C16 H10 N4 O2'
_chemical_name_systematic        5,5'-diphenyl-2,2'-bi-1,3,4-oxadiazole
_symmetry_cell_setting           monoclinic
_symmetry_space_group_name_H-M   'P 21/c'
_symmetry_Int_Tables_number      14
_space_group_name_Hall           '-P 2ybc'
loop_
_symmetry_equiv_pos_site_id
_symmetry_equiv_pos_as_xyz
1 x,y,z
2 -x,1/2+y,1/2-z
3 -x,-y,-z
4 x,1/2-y,1/2+z
_cell_length_a                   8.632(2)
_cell_length_b                   5.2017(17)
_cell_length_c                   14.695(4)
_cell_angle_alpha                90
_cell_angle_beta                 91.00(3)
_cell_angle_gamma                90
_cell_volume                     659.721
_exptl_crystal_description       needle
_cell_formula_units_Z            2
loop_
_atom_site_label
_atom_site_type_symbol
_atom_site_fract_x
_atom_site_fract_y
_atom_site_fract_z
O1 O 0.42438(14) 0.7562(2) 0.07563(7)
N1 N 0.25777(19) 0.6350(3) -0.03253(9)
N2 N 0.34751(19) 0.8389(3) -0.06627(9)
C1 C 0.2654(2) 0.1962(4) 0.26081(11)
H1 H 0.3080 0.1849 0.3192
C2 C 0.1522(2) 0.0247(4) 0.23348(12)
H2 H 0.1190 -0.1020 0.2733
C3 C 0.0880(2) 0.0413(4) 0.14672(11)
H3 H 0.0112 -0.0738 0.1284
C4 C 0.1376(2) 0.2283(3) 0.08732(11)
H4 H 0.0940 0.2396 0.0292
C5 C 0.25359(19) 0.4005(3) 0.11471(10)
C6 C 0.3163(2) 0.3848(4) 0.20231(11)
H5 H 0.3922 0.5008 0.2214
C7 C 0.3061(2) 0.5937(3) 0.05045(11)
C8 C 0.4411(2) 0.9011(3) -0.00057(10)
O1B O 0.57562(14) 1.2438(2) -0.07563(7)
N1B N 0.74223(19) 1.3650(3) 0.03253(9)
N2B N 0.65249(19) 1.1611(3) 0.06627(9)
C1B C 0.7346(2) 1.8038(4) -0.26081(11)
H1B H 0.6920 1.8151 -0.3192
C2B C 0.8478(2) 1.9753(4) -0.23348(12)
H2B H 0.8810 2.1020 -0.2733
C3B C 0.9120(2) 1.9587(4) -0.14672(11)
H3B H 0.9888 2.0738 -0.1284
C4B C 0.8624(2) 1.7717(3) -0.08732(11)
H4B H 0.9060 1.7604 -0.0292
C5B C 0.74641(19) 1.5995(3) -0.11471(10)
C6B C 0.6837(2) 1.6152(4) -0.20231(11)
H5B H 0.6078 1.4992 -0.2214
C7B C 0.6939(2) 1.4063(3) -0.05045(11)
C8B C 0.5589(2) 1.0989(3) 0.00057(10)
loop_
_geom_bond_atom_site_label_1
_geom_bond_atom_site_label_2
_geom_bond_site_symmetry_1
_geom_bond_site_symmetry_2
O1 C7 1_555 1_555
N1 N2 1_555 1_555
N2 C8 1_555 1_555
C1 H1 1_555 1_555
C2 C1 1_555 1_555
H2 C2 1_555 1_555
C3 C2 1_555 1_555
H3 C3 1_555 1_555
C4 C3 1_555 1_555
H4 C4 1_555 1_555
C5 C4 1_555 1_555
C6 C1 1_555 1_555
H5 C6 1_555 1_555
C7 N1 1_555 1_555
C8 O1 1_555 1_555
O1B C7B 1_555 1_555
N1B N2B 1_555 1_555
N2B C8B 1_555 1_555
C1B H1B 1_555 1_555
C2B C1B 1_555 1_555
H2B C2B 1_555 1_555
C3B C2B 1_555 1_555
H3B C3B 1_555 1_555
C4B C3B 1_555 1_555
H4B C4B 1_555 1_555
C5B C4B 1_555 1_555
C6B C1B 1_555 1_555
H5B C6B 1_555 1_555
C7B N1B 1_555 1_555
C8B C8 1_555 1_555
C5 C6 1_555 1_555
C5 C7 1_555 1_555
O1B C8B 1_555 1_555
C5B C6B 1_555 1_555
C5B C7B 1_555 1_555

#END
