
#######################################################################
#
#                 Cambridge Crystallographic Data Centre
#                                CCDC 
#
#######################################################################
#
# If this CIF has been generated from an entry in the Cambridge 
# Structural Database, then it will include bibliographic, chemical, 
# crystal, experimental, refinement or atomic coordinate data resulting 
# from the CCDC's data processing and validation procedures.
#
#######################################################################

data_AKIQES
_chemical_formula_moiety         'C16 H8 F2 N4 O2'
_chemical_name_systematic        
5,5'-bis(2-fluorophenyl)-2,2'-bi-1,3,4-oxadiazole
_symmetry_cell_setting           monoclinic
_symmetry_space_group_name_H-M   'P 21/c'
_symmetry_Int_Tables_number      14
_space_group_name_Hall           '-P 2ybc'
loop_
_symmetry_equiv_pos_site_id
_symmetry_equiv_pos_as_xyz
1 x,y,z
2 -x,1/2+y,1/2-z
3 -x,-y,-z
4 x,1/2-y,1/2+z
_cell_length_a                   8.0707(16)
_cell_length_b                   6.1870(12)
_cell_length_c                   13.704(3)
_cell_angle_alpha                90
_cell_angle_beta                 95.88(3)
_cell_angle_gamma                90
_cell_volume                     680.687
_exptl_crystal_description       needle
_cell_formula_units_Z            2
loop_
_atom_site_label
_atom_site_type_symbol
_atom_site_fract_x
_atom_site_fract_y
_atom_site_fract_z
F1 F 0.10002(18) 0.2061(2) 1.01864(10)
O1 O 0.42018(18) -0.2690(2) 0.92934(11)
C1 C 0.3127(3) -0.1228(4) 0.96378(16)
C2 C 0.2559(3) 0.0551(4) 0.89871(16)
N1 N 0.2789(2) -0.1698(3) 1.05138(14)
C3 C 0.3078(3) 0.0720(4) 0.80537(16)
H1 H 0.3779 -0.0330 0.7836
C4 C 0.1503(3) 0.2153(4) 0.92839(17)
C5 C 0.4442(3) -0.4081(3) 1.00518(16)
C6 C 0.1513(3) 0.3984(4) 0.77605(18)
H2 H 0.1166 0.5130 0.7350
C7 C 0.2567(3) 0.2425(4) 0.74444(18)
H3 H 0.2931 0.2525 0.6824
N2 N 0.3660(3) -0.3601(3) 1.07840(15)
C8 C 0.0972(3) 0.3846(4) 0.86831(18)
H4 H 0.0258 0.4887 0.8895
F1B F 0.89998(18) -1.2061(2) 0.98136(10)
O1B O 0.57982(18) -0.7310(2) 1.07066(11)
C1B C 0.6873(3) -0.8772(4) 1.03622(16)
C2B C 0.7441(3) -1.0551(4) 1.10129(16)
N1B N 0.7211(2) -0.8302(3) 0.94862(14)
C3B C 0.6922(3) -1.0720(4) 1.19463(16)
H1B H 0.6221 -0.9670 1.2164
C4B C 0.8497(3) -1.2153(4) 1.07161(17)
C5B C 0.5558(3) -0.5919(3) 0.99482(16)
C6B C 0.8487(3) -1.3984(4) 1.22395(18)
H2B H 0.8834 -1.5130 1.2650
C7B C 0.7433(3) -1.2425(4) 1.25556(18)
H3B H 0.7069 -1.2525 1.3176
N2B N 0.6340(3) -0.6399(3) 0.92160(15)
C8B C 0.9028(3) -1.3846(4) 1.13169(18)
H4B H 0.9742 -1.4887 1.1105
loop_
_geom_bond_atom_site_label_1
_geom_bond_atom_site_label_2
_geom_bond_site_symmetry_1
_geom_bond_site_symmetry_2
F1 C4 1_555 1_555
O1 C1 1_555 1_555
C1 C2 1_555 1_555
C2 C3 1_555 1_555
N1 C1 1_555 1_555
C3 H1 1_555 1_555
C4 C2 1_555 1_555
C5 O1 1_555 1_555
C6 H2 1_555 1_555
C7 C3 1_555 1_555
H3 C7 1_555 1_555
N2 N1 1_555 1_555
C8 C4 1_555 1_555
H4 C8 1_555 1_555
F1B C4B 1_555 1_555
O1B C1B 1_555 1_555
C1B C2B 1_555 1_555
C2B C3B 1_555 1_555
N1B C1B 1_555 1_555
C3B H1B 1_555 1_555
C4B C2B 1_555 1_555
C5B C5 1_555 1_555
C6B H2B 1_555 1_555
C7B C3B 1_555 1_555
H3B C7B 1_555 1_555
N2B N1B 1_555 1_555
C8B C4B 1_555 1_555
H4B C8B 1_555 1_555
C5 N2 1_555 1_555
C6 C7 1_555 1_555
C6 C8 1_555 1_555
O1B C5B 1_555 1_555
C5B N2B 1_555 1_555
C6B C7B 1_555 1_555
C6B C8B 1_555 1_555

#END
