
#######################################################################
#
#                 Cambridge Crystallographic Data Centre
#                                CCDC 
#
#######################################################################
#
# If this CIF has been generated from an entry in the Cambridge 
# Structural Database, then it will include bibliographic, chemical, 
# crystal, experimental, refinement or atomic coordinate data resulting 
# from the CCDC's data processing and validation procedures.
#
#######################################################################

data_AKIQOC
_chemical_formula_moiety         'C16 H8 F2 N4 O2'
_chemical_name_systematic        
5,5'-bis(4-fluorophenyl)-2,2'-bi-1,3,4-oxadiazole
_symmetry_cell_setting           monoclinic
_symmetry_space_group_name_H-M   'P 21/c'
_symmetry_Int_Tables_number      14
_space_group_name_Hall           '-P 2ybc'
loop_
_symmetry_equiv_pos_site_id
_symmetry_equiv_pos_as_xyz
1 x,y,z
2 -x,1/2+y,1/2-z
3 -x,-y,-z
4 x,1/2-y,1/2+z
_cell_length_a                   13.425(3)
_cell_length_b                   3.8641(8)
_cell_length_c                   27.628(6)
_cell_angle_alpha                90
_cell_angle_beta                 99.63(3)
_cell_angle_gamma                90
_cell_volume                     1413.02
_exptl_crystal_description       needle
_cell_formula_units_Z            4
loop_
_atom_site_label
_atom_site_type_symbol
_atom_site_fract_x
_atom_site_fract_y
_atom_site_fract_z
O1 O 0.38372(8) 0.1121(3) 0.45959(4)
C1 C 0.36259(13) 0.0043(4) 0.41192(6)
C2 C 0.26673(12) 0.1053(4) 0.38276(6)
F1 F -0.00536(8) 0.3593(4) 0.30032(5)
N1 N 0.43356(11) -0.1860(4) 0.39981(5)
N2 N 0.50912(11) -0.2082(4) 0.44183(6)
C3 C 0.47599(12) -0.0304(4) 0.47493(6)
C4 C 0.10185(14) 0.3596(5) 0.37629(7)
H1 H 0.0527 0.4739 0.3903
C5 C 0.24692(14) 0.0233(5) 0.33296(6)
H2 H 0.2958 -0.0883 0.3184
C6 C 0.19396(13) 0.2734(5) 0.40415(7)
H3 H 0.2071 0.3286 0.4374
C7 C 0.08502(14) 0.2727(5) 0.32784(7)
C8 C 0.15472(15) 0.1077(5) 0.30512(7)
H4 H 0.1405 0.0538 0.2719
O1B O 0.61628(8) -0.1121(3) 0.54041(4)
C1B C 0.63741(13) -0.0043(4) 0.58808(6)
C2B C 0.73327(12) -0.1053(4) 0.61724(6)
F1B F 1.00536(8) -0.3593(4) 0.69968(5)
N1B N 0.56644(11) 0.1860(4) 0.60019(5)
N2B N 0.49088(11) 0.2082(4) 0.55817(6)
C3B C 0.52401(12) 0.0304(4) 0.52507(6)
C4B C 0.89815(14) -0.3596(5) 0.62371(7)
H1B H 0.9473 -0.4739 0.6097
C5B C 0.75308(14) -0.0233(5) 0.66704(6)
H2B H 0.7042 0.0883 0.6816
C6B C 0.80604(13) -0.2734(5) 0.59585(7)
H3B H 0.7929 -0.3286 0.5626
C7B C 0.91498(14) -0.2727(5) 0.67216(7)
C8B C 0.84528(15) -0.1077(5) 0.69488(7)
H4B H 0.8595 -0.0538 0.7281
O2 O 0.91537(11) 0.0122(3) 0.44155(5)
C9 C 0.95164(16) 0.0714(5) 0.48984(8)
C10 C 0.76270(16) 0.1866(5) 0.38685(8)
C11 C 0.82410(16) 0.1830(5) 0.43506(8)
N3 N 0.89252(15) 0.2556(5) 0.51127(7)
N4 N 0.80821(15) 0.3307(5) 0.47521(7)
C12 C 0.66499(17) 0.3255(5) 0.38080(9)
H5 H 0.6396 0.4073 0.4080
F2 F 0.59001(11) 0.2404(4) 0.25022(6)
C13 C 0.79948(17) 0.0623(5) 0.34626(8)
H6 H 0.8638 -0.0340 0.3500
C14 C 0.74075(19) 0.0811(6) 0.30012(9)
H7 H 0.7653 0.0015 0.2726
C15 C 0.64593(19) 0.2192(6) 0.29586(9)
C16 C 0.60636(18) 0.3421(6) 0.33506(10)
H8 H 0.5415 0.4343 0.3309
O2B O 1.08463(11) -0.0122(3) 0.55845(5)
C9B C 1.04836(16) -0.0714(5) 0.51016(8)
C10B C 1.23730(16) -0.1866(5) 0.61315(8)
C11B C 1.17590(16) -0.1830(5) 0.56494(8)
N3B N 1.10748(15) -0.2556(5) 0.48873(7)
N4B N 1.19179(15) -0.3307(5) 0.52479(7)
C12B C 1.33501(17) -0.3255(5) 0.61920(9)
H5B H 1.3604 -0.4073 0.5920
F2B F 1.40999(11) -0.2404(4) 0.74978(6)
C13B C 1.20052(17) -0.0623(5) 0.65374(8)
H6B H 1.1362 0.0340 0.6500
C14B C 1.25925(19) -0.0811(6) 0.69988(9)
H7B H 1.2347 -0.0015 0.7274
C15B C 1.35407(19) -0.2192(6) 0.70414(9)
C16B C 1.39364(18) -0.3421(6) 0.66494(10)
H8B H 1.4585 -0.4343 0.6691
loop_
_geom_bond_atom_site_label_1
_geom_bond_atom_site_label_2
_geom_bond_site_symmetry_1
_geom_bond_site_symmetry_2
O1 C1 1_555 1_555
C1 C2 1_555 1_555
C2 C5 1_555 1_555
F1 C7 1_555 1_555
N1 C1 1_555 1_555
N2 N1 1_555 1_555
C3 O1 1_555 1_555
C4 H1 1_555 1_555
C5 H2 1_555 1_555
C6 C2 1_555 1_555
H3 C6 1_555 1_555
C7 C4 1_555 1_555
C8 C5 1_555 1_555
H4 C8 1_555 1_555
O2 C9 1_555 1_555
C9 N3 1_555 1_555
C10 C11 1_555 1_555
C11 O2 1_555 1_555
N3 N4 1_555 1_555
N4 C11 1_555 1_555
C12 C10 1_555 1_555
H5 C12 1_555 1_555
F2 C15 1_555 1_555
C13 C10 1_555 1_555
H6 C13 1_555 1_555
C14 C13 1_555 1_555
H7 C14 1_555 1_555
C15 C14 1_555 1_555
C16 C12 1_555 1_555
H8 C16 1_555 1_555
O1B C1B 1_555 1_555
C1B C2B 1_555 1_555
C2B C5B 1_555 1_555
F1B C7B 1_555 1_555
N1B C1B 1_555 1_555
N2B N1B 1_555 1_555
C3B C3 1_555 1_555
C4B H1B 1_555 1_555
C5B H2B 1_555 1_555
C6B C2B 1_555 1_555
H3B C6B 1_555 1_555
C7B C4B 1_555 1_555
C8B C5B 1_555 1_555
H4B C8B 1_555 1_555
O2B C9B 1_555 1_555
C9B C9 1_555 1_555
C10B C11B 1_555 1_555
C11B O2B 1_555 1_555
N3B C9B 1_555 1_555
N4B C11B 1_555 1_555
C12B C10B 1_555 1_555
H5B C12B 1_555 1_555
F2B C15B 1_555 1_555
C13B C10B 1_555 1_555
H6B C13B 1_555 1_555
C14B C13B 1_555 1_555
H7B C14B 1_555 1_555
C15B C14B 1_555 1_555
C16B C12B 1_555 1_555
H8B C16B 1_555 1_555
N2 C3 1_555 1_555
C4 C6 1_555 1_555
C7 C8 1_555 1_555
C15 C16 1_555 1_555
O1B C3B 1_555 1_555
N2B C3B 1_555 1_555
C4B C6B 1_555 1_555
C7B C8B 1_555 1_555
N3B N4B 1_555 1_555
C15B C16B 1_555 1_555

#END
