
#######################################################################
#
#                 Cambridge Crystallographic Data Centre
#                                CCDC 
#
#######################################################################
#
# If this CIF has been generated from an entry in the Cambridge 
# Structural Database, then it will include bibliographic, chemical, 
# crystal, experimental, refinement or atomic coordinate data resulting 
# from the CCDC's data processing and validation procedures.
#
#######################################################################

data_AKIWAU
_chemical_formula_moiety         'C15 H11 F1 O1'
_chemical_name_systematic        
1-(4-fluorobenzylidene)-1,3-dihydro-2-benzofuran
_symmetry_cell_setting           monoclinic
_symmetry_space_group_name_H-M   'P 21/c'
_symmetry_Int_Tables_number      14
_space_group_name_Hall           '-P 2ybc'
loop_
_symmetry_equiv_pos_site_id
_symmetry_equiv_pos_as_xyz
1 x,y,z
2 -x,1/2+y,1/2-z
3 -x,-y,-z
4 x,1/2-y,1/2+z
_cell_length_a                   12.7150(11)
_cell_length_b                   5.4599(5)
_cell_length_c                   16.7921(15)
_cell_angle_alpha                90
_cell_angle_beta                 105.511(2)
_cell_angle_gamma                90
_cell_volume                     1123.29
_exptl_crystal_colour            colorless
_exptl_crystal_description       prismatic
_cell_formula_units_Z            4
loop_
_atom_site_label
_atom_site_type_symbol
_atom_site_fract_x
_atom_site_fract_y
_atom_site_fract_z
F1 F 0.18540(8) 0.0943(2) 0.43234(6)
O1 O 0.68229(8) 0.2899(2) 0.65878(6)
C1 C 0.45469(12) 0.2091(3) 0.56403(10)
H1 H 0.5098 0.3253 0.5701
C2 C 0.35983(13) 0.2373(3) 0.50196(10)
H2 H 0.3506 0.3703 0.4662
C3 C 0.27983(12) 0.0666(3) 0.49402(9)
C4 C 0.28952(13) -0.1306(3) 0.54527(10)
H3 H 0.2333 -0.2441 0.5387
C5 C 0.38519(12) -0.1568(3) 0.60716(9)
H4 H 0.3930 -0.2904 0.6426
C6 C 0.47018(11) 0.0105(3) 0.61807(8)
C7 C 0.56947(12) -0.0334(3) 0.68388(9)
H5 H 0.5664 -0.1653 0.7182
C8 C 0.66419(12) 0.0878(3) 0.70221(8)
C9 C 0.79323(13) 0.3719(3) 0.68975(10)
H6 H 0.7956 0.5424 0.7064
H7 H 0.8327 0.3539 0.6480
C10 C 0.84087(12) 0.2115(3) 0.76220(9)
C11 C 0.76286(12) 0.0405(3) 0.76793(8)
C12 C 0.78553(13) -0.1358(3) 0.82968(9)
H8 H 0.7335 -0.2517 0.8335
C13 C 0.88736(14) -0.1343(4) 0.88524(10)
H9 H 0.9042 -0.2511 0.9270
C14 C 0.96487(14) 0.0383(4) 0.87984(10)
H10 H 1.0328 0.0367 0.9183
C15 C 0.94249(13) 0.2123(4) 0.81818(10)
H11 H 0.9947 0.3277 0.8144
loop_
_geom_bond_atom_site_label_1
_geom_bond_atom_site_label_2
_geom_bond_site_symmetry_1
_geom_bond_site_symmetry_2
F1 C3 1_555 1_555
O1 C8 1_555 1_555
C1 H1 1_555 1_555
C2 C1 1_555 1_555
H2 C2 1_555 1_555
C3 C2 1_555 1_555
C4 C3 1_555 1_555
H3 C4 1_555 1_555
C5 C4 1_555 1_555
H4 C5 1_555 1_555
C6 C1 1_555 1_555
C7 C6 1_555 1_555
H5 C7 1_555 1_555
C8 C7 1_555 1_555
C9 O1 1_555 1_555
H6 C9 1_555 1_555
H7 C9 1_555 1_555
C10 C9 1_555 1_555
C11 C8 1_555 1_555
C12 C11 1_555 1_555
H8 C12 1_555 1_555
C13 C12 1_555 1_555
H9 C13 1_555 1_555
C14 C13 1_555 1_555
H10 C14 1_555 1_555
C15 C10 1_555 1_555
H11 C15 1_555 1_555
C5 C6 1_555 1_555
C10 C11 1_555 1_555
C14 C15 1_555 1_555

#END
