
#######################################################################
#
#                 Cambridge Crystallographic Data Centre
#                                CCDC 
#
#######################################################################
#
# If this CIF has been generated from an entry in the Cambridge 
# Structural Database, then it will include bibliographic, chemical, 
# crystal, experimental, refinement or atomic coordinate data resulting 
# from the CCDC's data processing and validation procedures.
#
#######################################################################

data_AKOBUX
_chemical_formula_moiety         'C11 H12 O1 S5'
_chemical_name_systematic        
'(5S)-4,8-diethyl(1,3)dithiolo(4,5-f)benzo(1,2,3)trithiole 5-oxide'
_symmetry_cell_setting           monoclinic
_symmetry_space_group_name_H-M   'P 21'
_symmetry_Int_Tables_number      4
_space_group_name_Hall           'P 2yb'
loop_
_symmetry_equiv_pos_site_id
_symmetry_equiv_pos_as_xyz
1 x,y,z
2 -x,1/2+y,-z
_cell_length_a                   4.811(5)
_cell_length_b                   8.521(3)
_cell_length_c                   16.490(2)
_cell_angle_alpha                90
_cell_angle_beta                 90.37(3)
_cell_angle_gamma                90
_cell_volume                     675.986
_exptl_crystal_colour            orange
_exptl_crystal_description       prismatic
_cell_formula_units_Z            2
_exptl_crystal_recrystallization_method hexane/dichloromethane
loop_
_atom_site_label
_atom_site_type_symbol
_atom_site_fract_x
_atom_site_fract_y
_atom_site_fract_z
S1 S 0.6044(4) 0.6709 0.93480(9)
S2 S 0.9940(4) 0.4328(3) 0.86655(10)
S3 S 0.8068(7) 0.6540(4) 0.5573(1)
S4 S 0.6948(8) 0.8840(5) 0.5397(2)
S5 S 0.4077(6) 0.8963(4) 0.6257(1)
O1 O 0.807(1) 0.7896(8) 0.9652(4)
C1 C 0.746(2) 0.476(1) 0.9446(4)
C2 C 0.840(2) 0.5582(9) 0.7960(4)
C3 C 0.911(2) 0.5552(10) 0.7129(4)
C4 C 0.767(2) 0.6599(10) 0.6640(4)
C5 C 0.580(2) 0.7716(10) 0.6968(4)
C6 C 0.511(2) 0.7747(10) 0.7765(4)
C7 C 0.646(2) 0.6662(9) 0.8279(4)
C8 C 1.103(2) 0.433(1) 0.6809(4)
C9 C 0.969(3) 0.285(1) 0.6576(7)
C10 C 0.311(2) 0.895(1) 0.8123(5)
C11 C 0.450(3) 1.048(1) 0.8329(7)
H1 H 0.8358 0.4669 0.9959
H2 H 0.5987 0.4020 0.9412
H3 H 1.1931 0.4741 0.6344
H4 H 1.2378 0.4103 0.7217
H5 H 0.8363 0.3042 0.6159
H6 H 1.1056 0.2135 0.6384
H7 H 0.8788 0.2410 0.7033
H8 H 0.1673 0.9148 0.7739
H9 H 0.2332 0.8525 0.8603
H10 H 0.5268 1.0920 0.7852
H11 H 0.5939 1.0295 0.8715
H12 H 0.3172 1.1178 0.8550
S6? S 0.492(2) 0.753(1) 0.5237(4)
loop_
_geom_bond_atom_site_label_1
_geom_bond_atom_site_label_2
_geom_bond_site_symmetry_1
_geom_bond_site_symmetry_2
S1 O1 1_555 1_555
S2 C1 1_555 1_555
S3 S4 1_555 1_555
S4 S5 1_555 1_555
S5 C5 1_555 1_555
C1 S1 1_555 1_555
C2 S2 1_555 1_555
C3 C2 1_555 1_555
C4 S3 1_555 1_555
C5 C4 1_555 1_555
C6 C5 1_555 1_555
C7 S1 1_555 1_555
C8 C3 1_555 1_555
C9 C8 1_555 1_555
C10 C6 1_555 1_555
C11 C10 1_555 1_555
H1 C1 1_555 1_555
H2 C1 1_555 1_555
H3 C8 1_555 1_555
H4 C8 1_555 1_555
H5 C9 1_555 1_555
H6 C9 1_555 1_555
H7 C9 1_555 1_555
H8 C10 1_555 1_555
H9 C10 1_555 1_555
H10 C11 1_555 1_555
H11 C11 1_555 1_555
H12 C11 1_555 1_555
C2 C7 1_555 1_555
C3 C4 1_555 1_555
C6 C7 1_555 1_555

#END
