
#######################################################################
#
#                 Cambridge Crystallographic Data Centre
#                                CCDC 
#
#######################################################################
#
# If this CIF has been generated from an entry in the Cambridge 
# Structural Database, then it will include bibliographic, chemical, 
# crystal, experimental, refinement or atomic coordinate data resulting 
# from the CCDC's data processing and validation procedures.
#
#######################################################################

data_AKOGEN
_chemical_formula_moiety         'C32 H26 N2 O2'
_chemical_name_systematic        
(3R,4R)-2,5-Dibenzyl-3,4-diphenyl-2,5-diazabicyclo[4.2.0]oct-1(6)-ene-7,8-dione
_symmetry_cell_setting           orthorhombic
_symmetry_space_group_name_H-M   'C 2 2 21'
_symmetry_Int_Tables_number      20
_space_group_name_Hall           'C 2n 2'
loop_
_symmetry_equiv_pos_site_id
_symmetry_equiv_pos_as_xyz
1 x,y,z
2 -x,-y,1/2+z
3 -x,y,1/2-z
4 x,-y,-z
5 1/2+x,1/2+y,z
6 1/2-x,1/2-y,1/2+z
7 1/2-x,1/2+y,1/2-z
8 1/2+x,1/2-y,-z
_cell_length_a                   11.9819(8)
_cell_length_b                   16.2372(11)
_cell_length_c                   25.7415(18)
_cell_angle_alpha                90
_cell_angle_beta                 90
_cell_angle_gamma                90
_cell_volume                     5008.07
_exptl_crystal_description       block
_chemical_melting_point          146-148deg.C
_cell_formula_units_Z            8
loop_
_atom_site_label
_atom_site_type_symbol
_atom_site_fract_x
_atom_site_fract_y
_atom_site_fract_z
C1 C 0.33032(12) 0.91887(9) 0.47534(5)
C2 C 0.33784(16) 0.85538(10) 0.51071(6)
H1 H 0.2764 0.8418 0.5311
C3 C 0.43615(19) 0.81183(12) 0.51603(8)
H2 H 0.4408 0.7696 0.5403
C4 C 0.52665(18) 0.83036(13) 0.48590(8)
H3 H 0.5930 0.8013 0.4900
C5 C 0.51922(17) 0.89149(13) 0.44987(8)
H4 H 0.5803 0.9036 0.4289
C6 C 0.42125(14) 0.93579(10) 0.44419(6)
H5 H 0.4167 0.9771 0.4193
C7 C 0.22855(12) 0.97324(8) 0.47457(5)
H6 H 0.2342 1.0104 0.4447
C8 C 0.03258(13) 0.96452(9) 0.48512(5)
C9 C -0.09024(14) 0.96106(11) 0.48364(6)
C10 C 0.11663(14) 0.86139(9) 0.42899(6)
H7 H 0.0435 0.8360 0.4309
H8 H 0.1716 0.8190 0.4362
C11 C 0.13463(12) 0.89263(8) 0.37455(5)
C12 C 0.20709(13) 0.85174(10) 0.34194(6)
H9 H 0.2482 0.8074 0.3545
C13 C 0.21934(16) 0.87585(12) 0.29081(7)
H10 H 0.2670 0.8469 0.2689
C14 C 0.16180(18) 0.94193(12) 0.27249(7)
H11 H 0.1705 0.9584 0.2381
C15 C 0.09132(18) 0.98406(11) 0.30445(7)
H12 H 0.0531 1.0298 0.2920
C16 C 0.07635(14) 0.95916(9) 0.35525(6)
H13 H 0.0267 0.9874 0.3766
N1 N 0.12436(10) 0.92498(7) 0.46946(4)
O1 O -0.15954(11) 0.91540(9) 0.46484(5)
C1C C 0.33032(12) 1.08113(9) 0.52466(5)
C2C C 0.33784(16) 1.14462(10) 0.48929(6)
H1C H 0.2764 1.1582 0.4689
C3C C 0.43615(19) 1.18817(12) 0.48397(8)
H2C H 0.4408 1.2304 0.4597
C4C C 0.52665(18) 1.16964(13) 0.51410(8)
H3C H 0.5930 1.1987 0.5100
C5C C 0.51922(17) 1.10851(13) 0.55013(8)
H4C H 0.5803 1.0964 0.5711
C6C C 0.42125(14) 1.06421(10) 0.55581(6)
H5C H 0.4167 1.0229 0.5807
C7C C 0.22855(12) 1.02676(8) 0.52543(5)
H6C H 0.2342 0.9896 0.5553
C8C C 0.03258(13) 1.03548(9) 0.51488(5)
C9C C -0.09024(14) 1.03894(11) 0.51636(6)
C10C C 0.11663(14) 1.13861(9) 0.57101(6)
H7C H 0.0435 1.1640 0.5691
H8C H 0.1716 1.1810 0.5638
C11C C 0.13463(12) 1.10737(8) 0.62545(5)
C12C C 0.20709(13) 1.14826(10) 0.65806(6)
H9C H 0.2482 1.1926 0.6455
C13C C 0.21934(16) 1.12415(12) 0.70919(7)
H10C H 0.2670 1.1531 0.7311
C14C C 0.16180(18) 1.05807(12) 0.72751(7)
H11C H 0.1705 1.0416 0.7619
C15C C 0.09132(18) 1.01594(11) 0.69555(7)
H12C H 0.0531 0.9702 0.7080
C16C C 0.07635(14) 1.04084(9) 0.64475(6)
H13C H 0.0267 1.0126 0.6234
N1C N 0.12436(10) 1.07502(7) 0.53054(4)
O1C O -0.15954(11) 1.08460(9) 0.53516(5)
C17 C 0.73087(12) 0.88771(9) 0.65018(6)
C18 C 0.78760(13) 0.86247(11) 0.69410(7)
H14 H 0.7585 0.8743 0.7267
C19 C 0.88650(15) 0.82009(12) 0.69020(11)
H15 H 0.9231 0.8025 0.7201
C20 C 0.93070(17) 0.80389(13) 0.64281(14)
H16 H 0.9975 0.7750 0.6402
C21 C 0.8774(2) 0.82993(14) 0.59885(11)
H17 H 0.9089 0.8197 0.5665
C22 C 0.77704(16) 0.87131(11) 0.60224(7)
H18 H 0.7406 0.8881 0.5722
C23 C 0.62085(13) 0.93236(11) 0.65252(6)
H19 H 0.6332 0.9899 0.6441
H20 H 0.5717 0.9097 0.6262
C24 C 0.53048(11) 0.99504(9) 0.72720(6)
C25 C 0.53297(12) 1.08529(9) 0.72459(7)
C26 C 0.51564(12) 0.84907(8) 0.72029(5)
H21 H 0.5742 0.8075 0.7162
C27 C 0.41940(12) 0.82071(9) 0.68679(5)
C28 C 0.41301(14) 0.73833(10) 0.67392(6)
H22 H 0.4694 0.7027 0.6844
C29 C 0.32425(15) 0.70832(12) 0.64579(7)
H23 H 0.3212 0.6527 0.6372
C30 C 0.24047(15) 0.76007(12) 0.63049(6)
H24 H 0.1803 0.7396 0.6117
C31 C 0.24510(14) 0.84222(12) 0.64284(6)
H25 H 0.1879 0.8773 0.6325
C32 C 0.33446(13) 0.87291(10) 0.67055(6)
H26 H 0.3378 0.9288 0.6784
N2 N 0.56500(10) 0.92748(7) 0.70280(5)
O2 O 0.57116(11) 1.13653(7) 0.69541(6)
C17B C 0.26913(12) 0.88771(9) 0.84982(6)
C18B C 0.21240(13) 0.86247(11) 0.80590(7)
H14B H 0.2415 0.8743 0.7733
C19B C 0.11350(15) 0.82009(12) 0.80980(11)
H15B H 0.0769 0.8025 0.7799
C20B C 0.06930(17) 0.80389(13) 0.85719(14)
H16B H 0.0025 0.7750 0.8598
C21B C 0.1226(2) 0.82993(14) 0.90115(11)
H17B H 0.0911 0.8197 0.9335
C22B C 0.22296(16) 0.87131(11) 0.89776(7)
H18B H 0.2594 0.8881 0.9278
C23B C 0.37915(13) 0.93236(11) 0.84748(6)
H19B H 0.3668 0.9899 0.8559
H20B H 0.4283 0.9097 0.8738
C24B C 0.46952(11) 0.99504(9) 0.77280(6)
C25B C 0.46703(12) 1.08529(9) 0.77541(7)
C26B C 0.48436(12) 0.84907(8) 0.77971(5)
H21B H 0.4258 0.8075 0.7838
C27B C 0.58060(12) 0.82071(9) 0.81321(5)
C28B C 0.58699(14) 0.73833(10) 0.82608(6)
H22B H 0.5306 0.7027 0.8156
C29B C 0.67575(15) 0.70832(12) 0.85421(7)
H23B H 0.6788 0.6527 0.8628
C30B C 0.75953(15) 0.76007(12) 0.86951(6)
H24B H 0.8197 0.7396 0.8883
C31B C 0.75490(14) 0.84222(12) 0.85716(6)
H25B H 0.8121 0.8773 0.8675
C32B C 0.66554(13) 0.87291(10) 0.82945(6)
H26B H 0.6622 0.9288 0.8216
N2B N 0.43500(10) 0.92748(7) 0.79720(5)
O2B O 0.42884(11) 1.13653(7) 0.80459(6)
loop_
_geom_bond_atom_site_label_1
_geom_bond_atom_site_label_2
_geom_bond_site_symmetry_1
_geom_bond_site_symmetry_2
C1 C2 1_555 1_555
C2 H1 1_555 1_555
C3 C2 1_555 1_555
H2 C3 1_555 1_555
C4 C3 1_555 1_555
H3 C4 1_555 1_555
C5 C4 1_555 1_555
H4 C5 1_555 1_555
C6 C1 1_555 1_555
H5 C6 1_555 1_555
C7 C1 1_555 1_555
H6 C7 1_555 1_555
C8 C9 1_555 1_555
C9 O1 1_555 1_555
C10 H7 1_555 1_555
H8 C10 1_555 1_555
C11 C10 1_555 1_555
C12 C11 1_555 1_555
H9 C12 1_555 1_555
C13 C12 1_555 1_555
H10 C13 1_555 1_555
C14 C13 1_555 1_555
H11 C14 1_555 1_555
C15 C14 1_555 1_555
H12 C15 1_555 1_555
C16 C11 1_555 1_555
H13 C16 1_555 1_555
N1 C7 1_555 1_555
C17 C18 1_555 1_555
C18 H14 1_555 1_555
C19 C18 1_555 1_555
H15 C19 1_555 1_555
C20 C19 1_555 1_555
H16 C20 1_555 1_555
C21 C20 1_555 1_555
H17 C21 1_555 1_555
C22 C17 1_555 1_555
H18 C22 1_555 1_555
C23 C17 1_555 1_555
H19 C23 1_555 1_555
H20 C23 1_555 1_555
C24 C25 1_555 1_555
C25 O2 1_555 1_555
C26 H21 1_555 1_555
C27 C26 1_555 1_555
C28 C27 1_555 1_555
H22 C28 1_555 1_555
C29 C28 1_555 1_555
H23 C29 1_555 1_555
C30 C29 1_555 1_555
H24 C30 1_555 1_555
C31 C30 1_555 1_555
H25 C31 1_555 1_555
C32 C27 1_555 1_555
H26 C32 1_555 1_555
N2 C23 1_555 1_555
C1C C2C 1_555 1_555
C2C H1C 1_555 1_555
C3C C2C 1_555 1_555
H2C C3C 1_555 1_555
C4C C3C 1_555 1_555
H3C C4C 1_555 1_555
C5C C4C 1_555 1_555
H4C C5C 1_555 1_555
C6C C1C 1_555 1_555
H5C C6C 1_555 1_555
C7C C7 1_555 1_555
H6C C7C 1_555 1_555
C8C C8 1_555 1_555
C9C C9 1_555 1_555
C10C H7C 1_555 1_555
H8C C10C 1_555 1_555
C11C C10C 1_555 1_555
C12C C11C 1_555 1_555
H9C C12C 1_555 1_555
C13C C12C 1_555 1_555
H10C C13C 1_555 1_555
C14C C13C 1_555 1_555
H11C C14C 1_555 1_555
C15C C14C 1_555 1_555
H12C C15C 1_555 1_555
C16C C11C 1_555 1_555
H13C C16C 1_555 1_555
N1C C7C 1_555 1_555
O1C C9C 1_555 1_555
C17B C18B 1_555 1_555
C18B H14B 1_555 1_555
C19B C18B 1_555 1_555
H15B C19B 1_555 1_555
C20B C19B 1_555 1_555
H16B C20B 1_555 1_555
C21B C20B 1_555 1_555
H17B C21B 1_555 1_555
C22B C17B 1_555 1_555
H18B C22B 1_555 1_555
C23B C17B 1_555 1_555
H19B C23B 1_555 1_555
H20B C23B 1_555 1_555
C24B C24 1_555 1_555
C25B C25 1_555 1_555
C26B C26 1_555 1_555
H21B C26B 1_555 1_555
C27B C26B 1_555 1_555
C28B C27B 1_555 1_555
H22B C28B 1_555 1_555
C29B C28B 1_555 1_555
H23B C29B 1_555 1_555
C30B C29B 1_555 1_555
H24B C30B 1_555 1_555
C31B C30B 1_555 1_555
H25B C31B 1_555 1_555
C32B C27B 1_555 1_555
H26B C32B 1_555 1_555
N2B C23B 1_555 1_555
O2B C25B 1_555 1_555
C5 C6 1_555 1_555
C8 N1 1_555 1_555
C10 N1 1_555 1_555
C15 C16 1_555 1_555
C21 C22 1_555 1_555
C24 N2 1_555 1_555
C26 N2 1_555 1_555
C31 C32 1_555 1_555
C1C C7C 1_555 1_555
C5C C6C 1_555 1_555
C8C C9C 1_555 1_555
C8C N1C 1_555 1_555
C10C N1C 1_555 1_555
C15C C16C 1_555 1_555
C21B C22B 1_555 1_555
C24B C25B 1_555 1_555
C24B N2B 1_555 1_555
C26B N2B 1_555 1_555
C31B C32B 1_555 1_555

#END
