
#######################################################################
#
#                 Cambridge Crystallographic Data Centre
#                                CCDC 
#
#######################################################################
#
# If this CIF has been generated from an entry in the Cambridge 
# Structural Database, then it will include bibliographic, chemical, 
# crystal, experimental, refinement or atomic coordinate data resulting 
# from the CCDC's data processing and validation procedures.
#
#######################################################################

data_AKOGEO
_chemical_formula_moiety         'C23 H20 N2 O3'
_chemical_name_systematic        
2-(4-Methoxyphenyl)-3-(2-nitro-1-phenylethyl)-1H-indole
_symmetry_cell_setting           triclinic
_symmetry_space_group_name_H-M   'P -1'
_symmetry_Int_Tables_number      2
_space_group_name_Hall           '-P 1'
loop_
_symmetry_equiv_pos_site_id
_symmetry_equiv_pos_as_xyz
1 x,y,z
2 -x,-y,-z
_cell_length_a                   9.2014(5)
_cell_length_b                   9.4543(7)
_cell_length_c                   21.6201(14)
_cell_angle_alpha                98.563(4)
_cell_angle_beta                 93.416(4)
_cell_angle_gamma                98.354(4)
_cell_volume                     1833.74
_exptl_crystal_colour            colorless
_exptl_crystal_description       plate
_cell_formula_units_Z            4
loop_
_atom_site_label
_atom_site_type_symbol
_atom_site_fract_x
_atom_site_fract_y
_atom_site_fract_z
C1 C 0.49618(16) 0.34164(15) 0.06414(6)
C2 C 0.38705(17) 0.42054(15) 0.08413(7)
H1 H 0.3201 0.4495 0.0551
C3 C 0.38042(17) 0.45411(16) 0.14638(7)
H2 H 0.3087 0.5094 0.1624
C4 C 0.47956(18) 0.40736(16) 0.18735(7)
H3 H 0.4737 0.4329 0.2312
C5 C 0.58536(17) 0.32607(16) 0.16733(7)
H4 H 0.6497 0.2950 0.1968
C6 C 0.59606(16) 0.29082(15) 0.10432(7)
C7 C 0.68766(16) 0.21018(15) 0.06651(7)
C8 C 0.64249(16) 0.21756(15) 0.00713(7)
C9 C 0.81582(17) 0.13561(16) 0.08290(7)
H5 H 0.8720 0.1249 0.0447
C10 C 0.92103(18) 0.22377(17) 0.13441(8)
H6 H 1.0027 0.1698 0.1428
H7 H 0.8695 0.2389 0.1732
C11 C 0.77242(16) -0.01722(16) 0.09801(7)
C12 C 0.84562(17) -0.12686(16) 0.07252(7)
H8 H 0.9215 -0.1060 0.0458
C13 C 0.81037(18) -0.26753(17) 0.08526(8)
H9 H 0.8620 -0.3414 0.0672
C14 C 0.70126(18) -0.29942(17) 0.12382(7)
H10 H 0.6775 -0.3949 0.1329
C15 C 0.62638(18) -0.19130(17) 0.14925(7)
H11 H 0.5502 -0.2127 0.1758
C16 C 0.66181(17) -0.05090(16) 0.13627(7)
H12 H 0.6092 0.0225 0.1540
C17 C 0.70037(16) 0.15610(15) -0.04944(7)
C18 C 0.77075(17) 0.24493(16) -0.08755(7)
H13 H 0.7800 0.3471 -0.0764
C19 C 0.82656(17) 0.18773(16) -0.14060(7)
H14 H 0.8735 0.2487 -0.1671
C20 C 0.81369(16) 0.03855(16) -0.15535(7)
C21 C 0.74181(17) -0.05225(16) -0.11828(7)
H15 H 0.7316 -0.1544 -0.1297
C22 C 0.68649(17) 0.00643(16) -0.06567(7)
H16 H 0.6379 -0.0547 -0.0396
C23 C 0.9661(2) 0.06002(19) -0.23777(7)
H17 H 1.0146 -0.0009 -0.2682
H18 H 1.0409 0.1233 -0.2079
H19 H 0.9083 0.1192 -0.2599
N1 N 0.52777(14) 0.29681(13) 0.00553(6)
H20 H 0.471(2) 0.3091(19) -0.0271(9)
N2 N 0.98391(15) 0.36924(15) 0.11821(7)
O1 O 1.01892(15) 0.37644(15) 0.06681(6)
O2 O 1.00019(16) 0.47097(14) 0.15869(7)
O3 O 0.87109(12) -0.02940(12) -0.20477(5)
C24 C 1.07078(17) 0.27498(15) 0.60018(7)
C25 C 1.19481(18) 0.23268(16) 0.62786(7)
H21 H 1.2510 0.1700 0.6046
C26 C 1.23137(18) 0.28475(17) 0.68904(7)
H22 H 1.3142 0.2580 0.7102
C27 C 1.14771(19) 0.37763(17) 0.72123(7)
H23 H 1.1756 0.4136 0.7643
C28 C 1.02574(18) 0.42001(17) 0.69332(7)
H24 H 0.9715 0.4842 0.7169
C29 C 0.98380(16) 0.36824(15) 0.63114(7)
C30 C 0.86833(17) 0.38853(16) 0.58743(7)
C31 C 0.88891(16) 0.30774(15) 0.53304(6)
C32 C 0.73865(18) 0.46891(17) 0.59473(7)
H25 H 0.6627 0.4216 0.5600
C33 C 0.6680(2) 0.45620(18) 0.65431(8)
H26 H 0.5817 0.5077 0.6551
H27 H 0.7389 0.5043 0.6901
C34 C 0.76883(17) 0.62946(16) 0.58830(7)
C35 C 0.89706(19) 0.72001(17) 0.61460(7)
H28 H 0.9719 0.6818 0.6360
C36 C 0.9164(2) 0.86699(18) 0.60972(7)
H29 H 1.0045 0.9280 0.6278
C37 C 0.8086(2) 0.92481(18) 0.57886(8)
H30 H 0.8214 1.0254 0.5767
C38 C 0.6826(2) 0.83509(19) 0.55131(8)
H31 H 0.6091 0.8733 0.5291
C39 C 0.66297(18) 0.68832(18) 0.55610(7)
H32 H 0.5757 0.6273 0.5370
C40 C 0.80143(17) 0.28679(16) 0.47391(7)
C41 C 0.78144(17) 0.40508(16) 0.44448(7)
H33 H 0.8257 0.4998 0.4637
C42 C 0.69952(17) 0.38631(17) 0.38876(7)
H34 H 0.6880 0.4669 0.3684
C43 C 0.63290(17) 0.24818(17) 0.36192(7)
C44 C 0.65272(18) 0.12873(17) 0.39006(7)
H35 H 0.6082 0.0341 0.3709
C45 C 0.73698(18) 0.14931(16) 0.44560(7)
H36 H 0.7516 0.0683 0.4651
C46 C 0.4670(2) 0.1044(2) 0.28258(8)
H37 H 0.4059 0.1135 0.2451
H38 H 0.4035 0.0696 0.3138
H39 H 0.5345 0.0355 0.2712
N3 N 1.01008(14) 0.23898(13) 0.54058(6)
H40 H 1.050(2) 0.193(2) 0.5094(9)
N4 N 0.61859(17) 0.30122(17) 0.66247(8)
O4 O 0.55989(17) 0.21888(16) 0.61780(8)
O5 O 0.6370(2) 0.26938(18) 0.71306(8)
O6 O 0.54974(13) 0.24217(13) 0.30834(5)
loop_
_geom_bond_atom_site_label_1
_geom_bond_atom_site_label_2
_geom_bond_site_symmetry_1
_geom_bond_site_symmetry_2
C1 C2 1_555 1_555
C2 H1 1_555 1_555
C3 C2 1_555 1_555
H2 C3 1_555 1_555
C4 C3 1_555 1_555
H3 C4 1_555 1_555
C5 C4 1_555 1_555
H4 C5 1_555 1_555
C6 C1 1_555 1_555
C7 C6 1_555 1_555
C8 C7 1_555 1_555
C9 C7 1_555 1_555
H5 C9 1_555 1_555
C10 C9 1_555 1_555
H6 C10 1_555 1_555
H7 C10 1_555 1_555
C11 C9 1_555 1_555
C12 C11 1_555 1_555
H8 C12 1_555 1_555
C13 C12 1_555 1_555
H9 C13 1_555 1_555
C14 C13 1_555 1_555
H10 C14 1_555 1_555
C15 C14 1_555 1_555
H11 C15 1_555 1_555
C16 C11 1_555 1_555
H12 C16 1_555 1_555
C17 C8 1_555 1_555
C18 C17 1_555 1_555
H13 C18 1_555 1_555
C19 C18 1_555 1_555
H14 C19 1_555 1_555
C20 C19 1_555 1_555
C21 C20 1_555 1_555
H15 C21 1_555 1_555
C22 C17 1_555 1_555
H16 C22 1_555 1_555
C23 H17 1_555 1_555
H18 C23 1_555 1_555
H19 C23 1_555 1_555
N1 C1 1_555 1_555
H20 N1 1_555 1_555
N2 C10 1_555 1_555
O1 N2 1_555 1_555
O2 N2 1_555 1_555
O3 C20 1_555 1_555
C24 C25 1_555 1_555
C25 H21 1_555 1_555
C26 C25 1_555 1_555
H22 C26 1_555 1_555
C27 C26 1_555 1_555
H23 C27 1_555 1_555
C28 C27 1_555 1_555
H24 C28 1_555 1_555
C29 C24 1_555 1_555
C30 C29 1_555 1_555
C31 C30 1_555 1_555
C32 C30 1_555 1_555
H25 C32 1_555 1_555
C33 C32 1_555 1_555
H26 C33 1_555 1_555
H27 C33 1_555 1_555
C34 C32 1_555 1_555
C35 C34 1_555 1_555
H28 C35 1_555 1_555
C36 C35 1_555 1_555
H29 C36 1_555 1_555
C37 C36 1_555 1_555
H30 C37 1_555 1_555
C38 C37 1_555 1_555
H31 C38 1_555 1_555
C39 C34 1_555 1_555
H32 C39 1_555 1_555
C40 C31 1_555 1_555
C41 C40 1_555 1_555
H33 C41 1_555 1_555
C42 C41 1_555 1_555
H34 C42 1_555 1_555
C43 C42 1_555 1_555
C44 C43 1_555 1_555
H35 C44 1_555 1_555
C45 C40 1_555 1_555
H36 C45 1_555 1_555
C46 H37 1_555 1_555
H38 C46 1_555 1_555
H39 C46 1_555 1_555
N3 C24 1_555 1_555
H40 N3 1_555 1_555
N4 C33 1_555 1_555
O4 N4 1_555 1_555
O5 N4 1_555 1_555
O6 C43 1_555 1_555
C5 C6 1_555 1_555
C8 N1 1_555 1_555
C15 C16 1_555 1_555
C21 C22 1_555 1_555
C23 O3 1_555 1_555
C28 C29 1_555 1_555
C31 N3 1_555 1_555
C38 C39 1_555 1_555
C44 C45 1_555 1_555
C46 O6 1_555 1_555

#END
