
#######################################################################
#
#                 Cambridge Crystallographic Data Centre
#                                CCDC 
#
#######################################################################
#
# If this CIF has been generated from an entry in the Cambridge 
# Structural Database, then it will include bibliographic, chemical, 
# crystal, experimental, refinement or atomic coordinate data resulting 
# from the CCDC's data processing and validation procedures.
#
#######################################################################

data_AKOGOY02
_chemical_formula_moiety         'C14 H16 N1 1+,C2 Cl3 O2 1-'
_chemical_name_systematic        'Dibenzylammonium trichloroacetate'
_symmetry_cell_setting           orthorhombic
_symmetry_space_group_name_H-M   'P n m a'
_symmetry_Int_Tables_number      62
_space_group_name_Hall           '-P 2ac 2n'
loop_
_symmetry_equiv_pos_site_id
_symmetry_equiv_pos_as_xyz
1 x,y,z
2 1/2-x,-y,1/2+z
3 1/2+x,1/2-y,1/2-z
4 -x,1/2+y,-z
5 -x,-y,-z
6 1/2+x,y,1/2-z
7 1/2-x,1/2+y,1/2+z
8 x,1/2-y,z
_cell_length_a                   28.2869(4)
_cell_length_b                   17.9428(3)
_cell_length_c                   10.25130(10)
_cell_angle_alpha                90
_cell_angle_beta                 90
_cell_angle_gamma                90
_cell_volume                     5203.01
_exptl_crystal_colour            colorless
_exptl_crystal_description       prism
_cell_formula_units_Z            12
loop_
_atom_site_label
_atom_site_type_symbol
_atom_site_fract_x
_atom_site_fract_y
_atom_site_fract_z
Cl1 Cl 0.27928(6) 0.2500 0.31134(16)
Cl2 Cl 0.36479(7) 0.32915(11) 0.35045(17)
O1 O 0.28714(14) 0.2500 0.5924(4)
O2 O 0.36501(14) 0.2500 0.6078(4)
C1 C 0.32776(18) 0.2500 0.5482(5)
C2 C 0.33336(19) 0.2500 0.3977(5)
Cl2G Cl 0.36479(7) 0.17085(11) 0.35045(17)
Cl3 Cl 0.68596(6) 0.32933(8) 0.39793(16)
Cl4 Cl 0.60026(7) 0.2500 0.35153(18)
O3 O 0.60568(17) 0.2500 0.6352(5)
O4 O 0.68230(17) 0.2500 0.6551(4)
C3 C 0.6451(2) 0.2500 0.5930(6)
C4 C 0.65339(18) 0.2500 0.4426(5)
Cl3G Cl 0.68596(6) 0.17067(8) 0.39793(16)
Cl5 Cl 0.5092(2) 0.32891(17) 1.1322(5)
Cl6 Cl 0.54910(9) 0.2500 0.9197(4)
O5 O 0.45459(14) 0.2500 0.8487(4)
O6 O 0.41932(16) 0.2500 1.0367(4)
C5 C 0.45397(18) 0.2500 0.9643(5)
C6 C 0.5018(2) 0.2500 1.0403(7)
Cl5G Cl 0.5092(2) 0.17109(17) 1.1322(5)
N1 N 0.30975(15) 0.7500 0.0830(4)
H1 H 0.3164 0.7500 0.1689
H2 H 0.2781 0.7500 0.0739
C7 C 0.31140(14) 0.6104(2) 0.0802(4)
C8 C 0.27845(16) 0.5689(3) 0.0121(5)
H3 H 0.2665 0.5867 -0.0665
C9 C 0.27930(19) 0.4752(3) 0.1750(5)
H4 H 0.2686 0.4297 0.2069
C10 C 0.26314(18) 0.5014(3) 0.0597(6)
H5 H 0.2414 0.4735 0.0121
C11 C 0.32983(16) 0.6811(2) 0.0214(5)
H6 H 0.3224 0.6815 -0.0710
H7 H 0.3640 0.6821 0.0300
C12 C 0.32804(19) 0.5833(3) 0.1976(5)
H8 H 0.3503 0.6101 0.2450
C13 C 0.3112(2) 0.5156(3) 0.2440(5)
H9 H 0.3220 0.4976 0.3237
C7G C 0.31140(14) 0.8896(2) 0.0802(4)
C8G C 0.27845(16) 0.9311(3) 0.0121(5)
H3G H 0.2665 0.9133 -0.0665
C9G C 0.27930(19) 1.0248(3) 0.1750(5)
H4G H 0.2686 1.0703 0.2069
C10G C 0.26314(18) 0.9986(3) 0.0597(6)
H5G H 0.2414 1.0265 0.0121
C11G C 0.32983(16) 0.8189(2) 0.0214(5)
H6G H 0.3224 0.8185 -0.0710
H7G H 0.3640 0.8179 0.0300
C12G C 0.32804(19) 0.9167(3) 0.1976(5)
H8G H 0.3503 0.8899 0.2450
C13G C 0.3112(2) 0.9844(3) 0.2440(5)
H9G H 0.3220 1.0024 0.3237
N2 N 0.34215(16) 0.2500 0.8744(4)
H10 H 0.3481 0.2500 0.7882
H11 H 0.3700 0.2500 0.9168
C14 C 0.34188(15) 0.3888(3) 0.8734(4)
C15 C 0.37228(17) 0.4228(3) 0.9593(4)
H12 H 0.3782 0.4013 1.0402
C16 C 0.39404(19) 0.4890(3) 0.9254(6)
H13 H 0.4147 0.5116 0.9839
C17 C 0.33376(19) 0.4214(3) 0.7548(5)
H14 H 0.3131 0.3990 0.6960
C18 C 0.38574(19) 0.5217(3) 0.8077(6)
H15 H 0.4001 0.5666 0.7859
C19 C 0.3559(2) 0.4869(3) 0.7221(5)
H16 H 0.3505 0.5080 0.6406
C20 C 0.31504(17) 0.3187(3) 0.9095(5)
H17 H 0.3088 0.3188 1.0026
H18 H 0.2849 0.3183 0.8645
C14G C 0.34188(15) 0.1112(3) 0.8734(4)
C15G C 0.37228(17) 0.0772(3) 0.9593(4)
H12G H 0.3782 0.0987 1.0402
C16G C 0.39404(19) 0.0110(3) 0.9254(6)
H13G H 0.4147 -0.0116 0.9839
C17G C 0.33376(19) 0.0786(3) 0.7548(5)
H14G H 0.3131 0.1010 0.6960
C18G C 0.38574(19) -0.0217(3) 0.8077(6)
H15G H 0.4001 -0.0666 0.7859
C19G C 0.3559(2) 0.0131(3) 0.7221(5)
H16G H 0.3505 -0.0080 0.6406
C20G C 0.31504(17) 0.1813(3) 0.9095(5)
H17G H 0.3088 0.1812 1.0026
H18G H 0.2849 0.1817 0.8645
N3 N 0.50463(16) 0.2500 0.6143(4)
H19 H 0.5363 0.2500 0.6049
H20 H 0.4982 0.2500 0.7003
C21 C 0.50777(14) 0.3880(2) 0.6088(4)
C22 C 0.54343(18) 0.4239(3) 0.5413(5)
H21 H 0.5536 0.4051 0.4615
C23 C 0.56396(19) 0.4876(3) 0.5915(6)
H22 H 0.5877 0.5116 0.5449
C24 C 0.49313(17) 0.4176(2) 0.7255(5)
H23 H 0.4687 0.3949 0.7713
C25 C 0.48494(16) 0.3197(2) 0.5546(4)
H24 H 0.4898 0.3182 0.4609
H25 H 0.4512 0.3218 0.5706
C26 C 0.54984(19) 0.5153(3) 0.7083(6)
H26 H 0.5642 0.5577 0.7424
C27 C 0.5144(2) 0.4805(3) 0.7752(5)
H27 H 0.5046 0.4994 0.8552
C21G C 0.50777(14) 0.1120(2) 0.6088(4)
C22G C 0.54343(18) 0.0761(3) 0.5413(5)
H21G H 0.5536 0.0949 0.4615
C23G C 0.56396(19) 0.0124(3) 0.5915(6)
H22G H 0.5877 -0.0116 0.5449
C24G C 0.49313(17) 0.0824(2) 0.7255(5)
H23G H 0.4687 0.1051 0.7713
C25G C 0.48494(16) 0.1803(2) 0.5546(4)
H24G H 0.4898 0.1818 0.4609
H25G H 0.4512 0.1782 0.5706
C26G C 0.54984(19) -0.0153(3) 0.7083(6)
H26G H 0.5642 -0.0577 0.7424
C27G C 0.5144(2) 0.0195(3) 0.7752(5)
H27G H 0.5046 0.0006 0.8552
Cl7? Cl 0.5355(5) 0.3234(7) 1.013(3)
Cl8? Cl 0.4898(5) 0.2500 1.2093(13)
loop_
_geom_bond_atom_site_label_1
_geom_bond_atom_site_label_2
_geom_bond_site_symmetry_1
_geom_bond_site_symmetry_2
Cl1 C2 1_555 1_555
Cl2 C2 1_555 1_555
O1 C1 1_555 1_555
O2 C1 1_555 1_555
C1 C2 1_555 1_555
C2 Cl2G 1_555 1_555
Cl3 C4 1_555 1_555
Cl4 C4 1_555 1_555
O3 C3 1_555 1_555
O4 C3 1_555 1_555
C3 C4 1_555 1_555
C4 Cl3G 1_555 1_555
Cl5 C6 1_555 1_555
Cl6 C6 1_555 1_555
O5 C5 1_555 1_555
O6 C5 1_555 1_555
C5 C6 1_555 1_555
C6 Cl5G 1_555 1_555
N1 H1 1_555 1_555
H2 N1 1_555 1_555
C7 C8 1_555 1_555
C8 H3 1_555 1_555
C9 H4 1_555 1_555
C10 C8 1_555 1_555
H5 C10 1_555 1_555
C11 N1 1_555 1_555
H6 C11 1_555 1_555
H7 C11 1_555 1_555
C12 C7 1_555 1_555
H8 C12 1_555 1_555
C13 C9 1_555 1_555
H9 C13 1_555 1_555
N2 H10 1_555 1_555
H11 N2 1_555 1_555
C14 C15 1_555 1_555
C15 H12 1_555 1_555
C16 C15 1_555 1_555
H13 C16 1_555 1_555
C17 C14 1_555 1_555
H14 C17 1_555 1_555
C18 C16 1_555 1_555
H15 C18 1_555 1_555
C19 C17 1_555 1_555
H16 C19 1_555 1_555
C20 N2 1_555 1_555
H17 C20 1_555 1_555
H18 C20 1_555 1_555
N3 H19 1_555 1_555
H20 N3 1_555 1_555
C21 C22 1_555 1_555
C22 H21 1_555 1_555
C23 C22 1_555 1_555
H22 C23 1_555 1_555
C24 C21 1_555 1_555
H23 C24 1_555 1_555
C25 N3 1_555 1_555
H24 C25 1_555 1_555
H25 C25 1_555 1_555
C26 C23 1_555 1_555
H26 C26 1_555 1_555
C27 C24 1_555 1_555
H27 C27 1_555 1_555
C7G C8G 1_555 1_555
C8G H3G 1_555 1_555
C9G H4G 1_555 1_555
C10G C8G 1_555 1_555
H5G C10G 1_555 1_555
C11G N1 1_555 1_555
H6G C11G 1_555 1_555
H7G C11G 1_555 1_555
C12G C7G 1_555 1_555
H8G C12G 1_555 1_555
C13G C9G 1_555 1_555
H9G C13G 1_555 1_555
C14G C15G 1_555 1_555
C15G H12G 1_555 1_555
C16G C15G 1_555 1_555
H13G C16G 1_555 1_555
C17G C14G 1_555 1_555
H14G C17G 1_555 1_555
C18G C16G 1_555 1_555
H15G C18G 1_555 1_555
C19G C17G 1_555 1_555
H16G C19G 1_555 1_555
C20G N2 1_555 1_555
H17G C20G 1_555 1_555
H18G C20G 1_555 1_555
C21G C22G 1_555 1_555
C22G H21G 1_555 1_555
C23G C22G 1_555 1_555
H22G C23G 1_555 1_555
C24G C21G 1_555 1_555
H23G C24G 1_555 1_555
C25G N3 1_555 1_555
H24G C25G 1_555 1_555
H25G C25G 1_555 1_555
C26G C23G 1_555 1_555
H26G C26G 1_555 1_555
C27G C24G 1_555 1_555
H27G C27G 1_555 1_555
C7 C11 1_555 1_555
C9 C10 1_555 1_555
C12 C13 1_555 1_555
C14 C20 1_555 1_555
C18 C19 1_555 1_555
C21 C25 1_555 1_555
C26 C27 1_555 1_555
C7G C11G 1_555 1_555
C9G C10G 1_555 1_555
C12G C13G 1_555 1_555
C14G C20G 1_555 1_555
C18G C19G 1_555 1_555
C21G C25G 1_555 1_555
C26G C27G 1_555 1_555

#END
