
#######################################################################
#
#                 Cambridge Crystallographic Data Centre
#                                CCDC 
#
#######################################################################
#
# If this CIF has been generated from an entry in the Cambridge 
# Structural Database, then it will include bibliographic, chemical, 
# crystal, experimental, refinement or atomic coordinate data resulting 
# from the CCDC's data processing and validation procedures.
#
#######################################################################

data_AKOGOY
_chemical_formula_moiety         'C14 H16 N1 1+,C2 Cl3 O2 1-'
_chemical_name_systematic        'Dibenzylammonium trichloroacetate'
_symmetry_cell_setting           orthorhombic
_symmetry_space_group_name_H-M   'P n m a'
_symmetry_Int_Tables_number      62
_space_group_name_Hall           '-P 2ac 2n'
loop_
_symmetry_equiv_pos_site_id
_symmetry_equiv_pos_as_xyz
1 x,y,z
2 1/2-x,-y,1/2+z
3 1/2+x,1/2-y,1/2-z
4 -x,1/2+y,-z
5 -x,-y,-z
6 1/2+x,y,1/2-z
7 1/2-x,1/2+y,1/2+z
8 x,1/2-y,z
_cell_length_a                   28.2608(3)
_cell_length_b                   17.9257(3)
_cell_length_c                   10.23480(10)
_cell_angle_alpha                90
_cell_angle_beta                 90
_cell_angle_gamma                90
_cell_volume                     5184.89
_exptl_crystal_colour            colorless
_exptl_crystal_description       prism
_cell_formula_units_Z            12
loop_
_atom_site_label
_atom_site_type_symbol
_atom_site_fract_x
_atom_site_fract_y
_atom_site_fract_z
Cl1 Cl 0.72049(6) 0.7500 0.19069(15)
Cl2 Cl 0.63431(7) 0.67104(11) 0.15236(17)
O1 O 0.63457(13) 0.7500 -0.1066(3)
O2 O 0.71230(13) 0.7500 -0.0906(4)
C1 C 0.66628(17) 0.7500 0.1050(5)
C2 C 0.67235(16) 0.7500 -0.0465(4)
Cl2G Cl 0.63431(7) 0.82896(11) 0.15236(17)
Cl3 Cl 0.59999(6) 0.2500 0.85293(17)
Cl4 Cl 0.68599(6) 0.32927(7) 0.89984(14)
C3 C 0.65312(17) 0.2500 0.9450(5)
O3 O 0.68220(15) 0.2500 1.1572(4)
O4 O 0.60516(16) 0.2500 1.1372(4)
C4 C 0.64426(18) 0.2500 1.0959(5)
Cl4G Cl 0.68599(6) 0.17073(7) 0.89984(14)
Cl5 Cl 0.50936(10) 0.17142(11) 0.6314(3)
Cl6 Cl 0.54953(7) 0.2500 0.4182(3)
O5 O 0.41938(15) 0.2500 0.5366(4)
O6 O 0.45462(13) 0.2500 0.3468(3)
C5 C 0.50284(19) 0.2500 0.5380(6)
C6 C 0.45374(16) 0.2500 0.4636(5)
Cl5G Cl 0.50936(10) 0.32858(11) 0.6314(3)
N1 N 0.49584(15) 0.7500 0.8868(4)
H1 H 0.4641 0.7500 0.8949
H2 H 0.5027 0.7500 0.8009
C7 C 0.49250(13) 0.6121(2) 0.8922(4)
C8 C 0.51519(15) 0.6805(2) 0.9473(4)
H3 H 0.5491 0.6782 0.9324
H4 H 0.5099 0.6820 1.0409
C9 C 0.50744(16) 0.5830(2) 0.7756(4)
H5 H 0.5322 0.6055 0.7307
C10 C 0.45629(17) 0.5751(3) 0.9586(5)
H6 H 0.4461 0.5932 1.0390
C11 C 0.45032(18) 0.4851(3) 0.7905(5)
H7 H 0.4362 0.4425 0.7562
C12 C 0.43575(18) 0.5130(3) 0.9075(6)
H8 H 0.4115 0.4894 0.9529
C13 C 0.4858(2) 0.5199(3) 0.7238(5)
H9 H 0.4956 0.5014 0.6433
C7G C 0.49250(13) 0.8879(2) 0.8922(4)
C8G C 0.51519(15) 0.8195(2) 0.9473(4)
H3G H 0.5491 0.8218 0.9324
H4G H 0.5099 0.8180 1.0409
C9G C 0.50744(16) 0.9170(2) 0.7756(4)
H5G H 0.5322 0.8945 0.7307
C10G C 0.45629(17) 0.9249(3) 0.9586(5)
H6G H 0.4461 0.9068 1.0390
C11G C 0.45032(18) 1.0149(3) 0.7905(5)
H7G H 0.4362 1.0575 0.7562
C12G C 0.43575(18) 0.9870(3) 0.9075(6)
H8G H 0.4115 1.0106 0.9529
C13G C 0.4858(2) 0.9801(3) 0.7238(5)
H9G H 0.4956 0.9986 0.6433
N2 N 0.69079(14) 0.2500 0.4210(4)
H10 H 0.6843 0.2500 0.3349
H11 H 0.7225 0.2500 0.4304
C14 C 0.68913(13) 0.3893(2) 0.4227(4)
C15 C 0.67088(15) 0.3189(2) 0.4816(5)
H12 H 0.6367 0.3179 0.4730
H13 H 0.6783 0.3187 0.5742
C16 C 0.72204(15) 0.4315(3) 0.4905(4)
H14 H 0.7339 0.4138 0.5694
C17 C 0.67203(17) 0.4166(3) 0.3052(5)
H15 H 0.6496 0.3897 0.2582
C18 C 0.72087(19) 0.5256(3) 0.3279(5)
H16 H 0.7311 0.5714 0.2959
C19 C 0.73752(17) 0.4992(3) 0.4429(5)
H17 H 0.7595 0.5269 0.4902
C20 C 0.6884(2) 0.4837(3) 0.2585(5)
H18 H 0.6775 0.5013 0.1786
C14G C 0.68913(13) 0.1107(2) 0.4227(4)
C15G C 0.67088(15) 0.1811(2) 0.4816(5)
H12G H 0.6367 0.1821 0.4730
H13G H 0.6783 0.1813 0.5742
C16G C 0.72204(15) 0.0685(3) 0.4905(4)
H14G H 0.7339 0.0862 0.5694
C17G C 0.67203(17) 0.0834(3) 0.3052(5)
H15G H 0.6496 0.1103 0.2582
C18G C 0.72087(19) -0.0256(3) 0.3279(5)
H16G H 0.7311 -0.0714 0.2959
C19G C 0.73752(17) 0.0008(3) 0.4429(5)
H17G H 0.7595 -0.0269 0.4902
C20G C 0.6884(2) 0.0163(3) 0.2585(5)
H18G H 0.6775 -0.0013 0.1786
N3 N 0.34191(15) 0.2500 0.3738(4)
H19 H 0.3485 0.2500 0.2878
H20 H 0.3695 0.2500 0.4175
C21 C 0.34117(14) 0.3885(3) 0.3713(4)
C22 C 0.37219(15) 0.4227(3) 0.4583(4)
H21 H 0.3782 0.4008 0.5390
C23 C 0.31501(16) 0.3186(3) 0.4071(5)
H22 H 0.3086 0.3190 0.5002
H23 H 0.2849 0.3179 0.3617
C24 C 0.33303(18) 0.4218(3) 0.2527(4)
H24 H 0.3120 0.4002 0.1939
C25 C 0.39390(17) 0.4886(3) 0.4260(6)
H25 H 0.4143 0.5111 0.4854
C26 C 0.38596(19) 0.5218(3) 0.3076(6)
H26 H 0.4005 0.5667 0.2862
C27 C 0.3557(2) 0.4869(3) 0.2203(5)
H27 H 0.3506 0.5079 0.1384
C21G C 0.34117(14) 0.1115(3) 0.3713(4)
C22G C 0.37219(15) 0.0773(3) 0.4583(4)
H21G H 0.3782 0.0992 0.5390
C23G C 0.31501(16) 0.1814(3) 0.4071(5)
H22G H 0.3086 0.1810 0.5002
H23G H 0.2849 0.1821 0.3617
C24G C 0.33303(18) 0.0782(3) 0.2527(4)
H24G H 0.3120 0.0998 0.1939
C25G C 0.39390(17) 0.0114(3) 0.4260(6)
H25G H 0.4143 -0.0111 0.4854
C26G C 0.38596(19) -0.0218(3) 0.3076(6)
H26G H 0.4005 -0.0667 0.2862
C27G C 0.3557(2) 0.0131(3) 0.2203(5)
H27G H 0.3506 -0.0079 0.1384
Cl7? Cl 0.4882(7) 0.2500 0.7122(16)
Cl8? Cl 0.5385(4) 0.3194(7) 0.4908(17)
loop_
_geom_bond_atom_site_label_1
_geom_bond_atom_site_label_2
_geom_bond_site_symmetry_1
_geom_bond_site_symmetry_2
Cl1 C1 1_555 1_555
Cl2 C1 1_555 1_555
O1 C2 1_555 1_555
O2 C2 1_555 1_555
C1 C2 1_555 1_555
Cl3 C3 1_555 1_555
Cl4 C3 1_555 1_555
C3 C4 1_555 1_555
O3 C4 1_555 1_555
O4 C4 1_555 1_555
Cl5 C5 1_555 1_555
Cl6 C5 1_555 1_555
O5 C6 1_555 1_555
O6 C6 1_555 1_555
C5 C6 1_555 1_555
N1 H1 1_555 1_555
H2 N1 1_555 1_555
C7 C8 1_555 1_555
C8 N1 1_555 1_555
H3 C8 1_555 1_555
H4 C8 1_555 1_555
C9 C7 1_555 1_555
H5 C9 1_555 1_555
C10 C7 1_555 1_555
H6 C10 1_555 1_555
C11 H7 1_555 1_555
C12 C10 1_555 1_555
H8 C12 1_555 1_555
C13 C9 1_555 1_555
H9 C13 1_555 1_555
N2 H10 1_555 1_555
H11 N2 1_555 1_555
C14 C15 1_555 1_555
C15 N2 1_555 1_555
H12 C15 1_555 1_555
H13 C15 1_555 1_555
C16 C14 1_555 1_555
H14 C16 1_555 1_555
C17 C14 1_555 1_555
H15 C17 1_555 1_555
C18 H16 1_555 1_555
C19 C16 1_555 1_555
H17 C19 1_555 1_555
C20 C17 1_555 1_555
H18 C20 1_555 1_555
N3 H19 1_555 1_555
H20 N3 1_555 1_555
C21 C22 1_555 1_555
C22 H21 1_555 1_555
C23 N3 1_555 1_555
H22 C23 1_555 1_555
H23 C23 1_555 1_555
C24 C21 1_555 1_555
H24 C24 1_555 1_555
C25 C22 1_555 1_555
H25 C25 1_555 1_555
C26 C25 1_555 1_555
H26 C26 1_555 1_555
C27 C24 1_555 1_555
H27 C27 1_555 1_555
Cl2G C1 1_555 1_555
Cl4G C3 1_555 1_555
Cl5G C5 1_555 1_555
C7G C8G 1_555 1_555
C8G N1 1_555 1_555
H3G C8G 1_555 1_555
H4G C8G 1_555 1_555
C9G C7G 1_555 1_555
H5G C9G 1_555 1_555
C10G C7G 1_555 1_555
H6G C10G 1_555 1_555
C11G H7G 1_555 1_555
C12G C10G 1_555 1_555
H8G C12G 1_555 1_555
C13G C9G 1_555 1_555
H9G C13G 1_555 1_555
C14G C15G 1_555 1_555
C15G N2 1_555 1_555
H12G C15G 1_555 1_555
H13G C15G 1_555 1_555
C16G C14G 1_555 1_555
H14G C16G 1_555 1_555
C17G C14G 1_555 1_555
H15G C17G 1_555 1_555
C18G H16G 1_555 1_555
C19G C16G 1_555 1_555
H17G C19G 1_555 1_555
C20G C17G 1_555 1_555
H18G C20G 1_555 1_555
C21G C22G 1_555 1_555
C22G H21G 1_555 1_555
C23G N3 1_555 1_555
H22G C23G 1_555 1_555
H23G C23G 1_555 1_555
C24G C21G 1_555 1_555
H24G C24G 1_555 1_555
C25G C22G 1_555 1_555
H25G C25G 1_555 1_555
C26G C25G 1_555 1_555
H26G C26G 1_555 1_555
C27G C24G 1_555 1_555
H27G C27G 1_555 1_555
C11 C12 1_555 1_555
C11 C13 1_555 1_555
C18 C19 1_555 1_555
C18 C20 1_555 1_555
C21 C23 1_555 1_555
C26 C27 1_555 1_555
C11G C12G 1_555 1_555
C11G C13G 1_555 1_555
C18G C19G 1_555 1_555
C18G C20G 1_555 1_555
C21G C23G 1_555 1_555
C26G C27G 1_555 1_555

#END
