
#######################################################################
#
#                 Cambridge Crystallographic Data Centre
#                                CCDC 
#
#######################################################################
#
# If this CIF has been generated from an entry in the Cambridge 
# Structural Database, then it will include bibliographic, chemical, 
# crystal, experimental, refinement or atomic coordinate data resulting 
# from the CCDC's data processing and validation procedures.
#
#######################################################################

data_AKOJIV
_chemical_formula_moiety         'C22 H18 N2 O3 S1'
_chemical_name_systematic        
N-(2,5-Diphenyl-1,3-oxazol-4-yl)-N-phenylmethanesulfonamide
_symmetry_cell_setting           monoclinic
_symmetry_space_group_name_H-M   'P 21/n'
_symmetry_Int_Tables_number      14
_space_group_name_Hall           '-P 2yn'
loop_
_symmetry_equiv_pos_site_id
_symmetry_equiv_pos_as_xyz
1 x,y,z
2 1/2-x,1/2+y,1/2-z
3 -x,-y,-z
4 1/2+x,1/2-y,1/2+z
_cell_length_a                   9.4353(13)
_cell_length_b                   17.316(2)
_cell_length_c                   11.6428(17)
_cell_angle_alpha                90
_cell_angle_beta                 92.321(3)
_cell_angle_gamma                90
_cell_volume                     1900.66
_exptl_crystal_colour            colorless
_exptl_crystal_description       prismatic
_cell_formula_units_Z            4
loop_
_atom_site_label
_atom_site_type_symbol
_atom_site_fract_x
_atom_site_fract_y
_atom_site_fract_z
S1 S 0.86566(5) 0.16819(3) 1.14682(4)
N1 N 0.71579(16) 0.18346(9) 0.89104(12)
N2 N 0.71285(16) 0.20797(9) 1.09901(12)
O1 O 0.51680(13) 0.11521(7) 0.86848(10)
O2 O 0.84485(18) 0.08730(9) 1.13789(15)
O3 O 0.90120(17) 0.20210(10) 1.25570(12)
C1 C 0.6524(2) 0.17514(10) 0.99568(15)
C2 C 0.53155(19) 0.13342(10) 0.98394(15)
C3 C 0.6311(2) 0.14670(11) 0.81871(15)
C4 C 0.6454(2) 0.13696(10) 0.69589(15)
C5 C 0.7638(2) 0.16627(13) 0.64372(17)
H1 H 0.8346 0.1907 0.6882
C6 C 0.7774(2) 0.15948(15) 0.52655(18)
H2 H 0.8567 0.1796 0.4922
C7 C 0.6731(3) 0.12272(13) 0.46052(18)
H3 H 0.6822 0.1178 0.3816
C8 C 0.5559(3) 0.09339(12) 0.51130(18)
H4 H 0.4859 0.0687 0.4664
C9 C 0.5409(2) 0.10016(11) 0.62861(16)
H5 H 0.4611 0.0801 0.6623
C10 C 0.42439(19) 0.10463(11) 1.05886(15)
C11 C 0.3271(2) 0.04898(11) 1.02158(18)
H6 H 0.3302 0.0297 0.9472
C12 C 0.2259(2) 0.02205(13) 1.0940(2)
H7 H 0.1606 -0.0148 1.0676
C13 C 0.2207(2) 0.04896(15) 1.2041(2)
H8 H 0.1524 0.0305 1.2525
C14 C 0.3170(3) 0.10359(17) 1.2427(2)
H9 H 0.3141 0.1218 1.3177
C15 C 0.4177(2) 0.13157(14) 1.17133(18)
H10 H 0.4819 0.1688 1.1983
C16 C 0.68601(19) 0.28957(12) 1.11998(16)
C17 C 0.6703(2) 0.31549(14) 1.23096(18)
H11 H 0.6780 0.2813 1.2925
C18 C 0.6429(2) 0.39287(15) 1.2495(2)
H12 H 0.6325 0.4106 1.3241
C19 C 0.6307(2) 0.44388(15) 1.1596(2)
H13 H 0.6145 0.4960 1.1731
C20 C 0.6428(3) 0.41730(14) 1.0494(2)
H14 H 0.6323 0.4514 0.9879
C21 C 0.6704(2) 0.34025(12) 1.02900(18)
H15 H 0.6784 0.3226 0.9541
C22 C 0.9939(2) 0.19593(13) 1.05049(18)
H16 H 1.0854 0.1780 1.0780
H17 H 0.9952 0.2512 1.0443
H18 H 0.9715 0.1738 0.9764
loop_
_geom_bond_atom_site_label_1
_geom_bond_atom_site_label_2
_geom_bond_site_symmetry_1
_geom_bond_site_symmetry_2
S1 N2 1_555 1_555
N1 C1 1_555 1_555
N2 C1 1_555 1_555
O1 C2 1_555 1_555
O2 S1 1_555 1_555
O3 S1 1_555 1_555
C1 C2 1_555 1_555
C2 C10 1_555 1_555
C3 N1 1_555 1_555
C4 C3 1_555 1_555
C5 C4 1_555 1_555
H1 C5 1_555 1_555
C6 C5 1_555 1_555
H2 C6 1_555 1_555
C7 C6 1_555 1_555
H3 C7 1_555 1_555
C8 C7 1_555 1_555
H4 C8 1_555 1_555
C9 C4 1_555 1_555
H5 C9 1_555 1_555
C10 C11 1_555 1_555
C11 H6 1_555 1_555
C12 C11 1_555 1_555
H7 C12 1_555 1_555
C13 C12 1_555 1_555
H8 C13 1_555 1_555
C14 C13 1_555 1_555
H9 C14 1_555 1_555
C15 C10 1_555 1_555
H10 C15 1_555 1_555
C16 N2 1_555 1_555
C17 C16 1_555 1_555
H11 C17 1_555 1_555
C18 C17 1_555 1_555
H12 C18 1_555 1_555
C19 C18 1_555 1_555
H13 C19 1_555 1_555
C20 C19 1_555 1_555
H14 C20 1_555 1_555
C21 C16 1_555 1_555
H15 C21 1_555 1_555
C22 S1 1_555 1_555
H16 C22 1_555 1_555
H17 C22 1_555 1_555
H18 C22 1_555 1_555
O1 C3 1_555 1_555
C8 C9 1_555 1_555
C14 C15 1_555 1_555
C20 C21 1_555 1_555

#END
