
#######################################################################
#
#                 Cambridge Crystallographic Data Centre
#                                CCDC 
#
#######################################################################
#
# If this CIF has been generated from an entry in the Cambridge 
# Structural Database, then it will include bibliographic, chemical, 
# crystal, experimental, refinement or atomic coordinate data resulting 
# from the CCDC's data processing and validation procedures.
#
#######################################################################

data_AKOREZ
_chemical_formula_moiety         'C56 H38 B2 N6 O2 S1'
_chemical_name_systematic        
3,3'-Sulfanediylbis(9c-methoxy-6,9-diphenyl-9cH-8b,9b,9d-triaza-9c-boratricyclopenta[cd,gh,kl]phenalene-8b-ium-9c-ide)
_symmetry_cell_setting           triclinic
_symmetry_space_group_name_H-M   'P -1'
_symmetry_Int_Tables_number      2
_space_group_name_Hall           '-P 1'
loop_
_symmetry_equiv_pos_site_id
_symmetry_equiv_pos_as_xyz
1 x,y,z
2 -x,-y,-z
_cell_length_a                   10.721(3)
_cell_length_b                   25.891(8)
_cell_length_c                   46.903(16)
_cell_angle_alpha                84.49(2)
_cell_angle_beta                 83.65(3)
_cell_angle_gamma                84.159(15)
_cell_volume                     12824.8
_exptl_crystal_colour            orange
_exptl_crystal_description       Prism
_cell_formula_units_Z            12
_exptl_crystal_recrystallization_method toluene/methanol
loop_
_atom_site_label
_atom_site_type_symbol
_atom_site_fract_x
_atom_site_fract_y
_atom_site_fract_z
S1 S 0.22390(19) 0.85337(9) 0.12624(5)
O1 O 0.1583(4) 1.0603(2) 0.10927(12)
O2 O 0.3171(4) 0.8689(2) 0.01309(11)
N1 N 0.1911(5) 0.9989(3) 0.15068(13)
N2 N 0.3273(5) 1.0650(3) 0.14145(14)
N3 N 0.3486(5) 0.9960(3) 0.11125(13)
N4 N 0.2569(5) 0.7993(2) 0.04863(14)
N5 N 0.1351(5) 0.8173(3) 0.00904(14)
N6 N 0.1174(5) 0.8754(2) 0.04582(15)
C1 C 0.1638(6) 0.7679(3) 0.00081(17)
C2 C 0.1927(6) 1.0601(3) 0.18595(16)
C3 C 0.7458(6) 1.0387(3) 0.09549(17)
H1 H 0.7417 1.0041 0.1027
C4 C -0.1511(7) 0.9139(3) 0.00018(17)
C5 C 0.8597(7) 1.0562(3) 0.08500(18)
H2 H 0.9319 1.0330 0.0841
C6 C 0.0143(7) 1.0822(3) 0.22357(17)
H3 H -0.0411 1.0734 0.2113
C7 C 0.2407(6) 0.9200(3) 0.12640(18)
C8 C 0.1245(6) 0.8821(3) 0.07428(18)
C9 C 0.2261(7) 1.0912(3) 0.23427(18)
H4 H 0.3127 1.0892 0.2293
C10 C 0.3337(6) 0.7193(3) 0.06688(18)
H5 H 0.3644 0.6844 0.0684
C11 C 0.4416(6) 1.0818(3) 0.12984(18)
C12 C -0.0076(6) 0.8064(3) -0.02026(16)
H6 H -0.0753 0.8127 -0.0313
C13 C 0.2943(6) 0.6796(3) 0.00685(16)
C14 C 0.4219(7) 0.6623(3) 0.00615(17)
H7 H 0.4775 0.6837 0.0118
C15 C 0.0952(7) 0.9708(3) 0.19403(18)
H8 H 0.0567 0.9702 0.2128
C16 C 0.0282(6) 0.8417(3) -0.00177(17)
C17 C 0.0733(6) 0.7618(3) -0.01918(16)
H9 H 0.0707 0.7330 -0.0294
C18 C 0.2499(6) 0.7325(3) 0.01595(16)
C19 C 0.5110(7) 1.0563(3) 0.10713(17)
C20 C 0.2887(7) 1.0834(3) 0.16785(18)
C21 C 0.2099(7) 0.8470(3) 0.08941(18)
C22 C -0.0340(6) 0.8871(3) 0.01048(18)
C23 C 0.3356(6) 0.9455(4) 0.10805(18)
C24 C 0.2887(6) 0.7487(3) 0.04130(16)
C25 C 0.2121(8) 0.6457(3) -0.00061(17)
H10 H 0.1260 0.6556 0.0008
C26 C 0.1448(6) 1.0782(3) 0.21462(17)
C27 C 0.4651(6) 1.0096(3) 0.09891(17)
C28 C 0.1517(6) 1.0143(3) 0.17774(17)
C29 C -0.0529(7) 0.9297(3) 0.05895(18)
H11 H -0.1256 0.9525 0.0582
C30 C 0.1744(7) 0.9468(3) 0.14930(16)
C31 C 0.3848(10) 0.5816(3) -0.01089(18)
H12 H 0.4147 0.5490 -0.0169
C32 C 0.2700(6) 0.8028(3) 0.07711(17)
C33 C 0.4698(7) 1.1185(3) 0.14877(19)
H13 H 0.5389 1.1381 0.1458
C34 C 0.1092(7) 0.9302(3) 0.17642(18)
H14 H 0.0808 0.8975 0.1814
C35 C -0.0339(7) 1.0989(3) 0.25048(17)
H15 H -0.1202 1.1008 0.2559
C36 C 0.3225(7) 0.7524(3) 0.08823(18)
H16 H 0.3450 0.7439 0.1068
C37 C 0.3808(7) 1.1203(3) 0.17147(19)
H17 H 0.3781 1.1411 0.1867
C38 C 0.6356(7) 1.0726(3) 0.09534(18)
C39 C 0.0175(7) 0.9183(3) 0.08216(19)
H18 H -0.0012 0.9318 0.1000
C40 C 0.0471(8) 1.1124(3) 0.2689(2)
H19 H 0.0153 1.1250 0.2864
C41 C 0.5238(7) 0.9658(3) 0.08435(16)
H20 H 0.6017 0.9641 0.0734
C42 C 0.4680(8) 0.6138(3) -0.00279(18)
H21 H 0.5537 0.6030 -0.0034
C43 C 0.4454(7) 0.9272(3) 0.08933(18)
H22 H 0.4594 0.8947 0.0821
C44 C 0.1749(9) 1.1072(4) 0.2611(2)
H23 H 0.2290 1.1145 0.2741
C45 C 0.2569(9) 0.5978(3) -0.01001(18)
H24 H 0.2016 0.5763 -0.0158
C46 C 0.0070(7) 0.9001(3) 0.03642(18)
C47 C 0.8682(8) 1.1084(4) 0.0757(2)
H25 H 0.9455 1.1197 0.0680
C48 C -0.2649(7) 0.9022(4) 0.0119(2)
H26 H -0.2708 0.8764 0.0270
C49 C -0.3677(8) 0.9644(4) -0.0208(2)
H27 H -0.4410 0.9821 -0.0270
C50 C -0.3758(8) 0.9276(4) 0.0021(2)
H28 H -0.4540 0.9195 0.0110
C51 C 0.6459(8) 1.1264(4) 0.08686(19)
H29 H 0.5735 1.1495 0.0875
C52 C 0.7597(8) 1.1448(4) 0.0778(2)
H30 H 0.7661 1.1802 0.0731
C53 C -0.1439(8) 0.9516(4) -0.0239(2)
H31 H -0.0659 0.9605 -0.0327
C54 C -0.2557(9) 0.9754(4) -0.0344(2)
H32 H -0.2519 0.9988 -0.0508
C55 C 0.2040(8) 1.1045(4) 0.0910(2)
H33 H 0.2401 1.1267 0.1025
H34 H 0.1352 1.1237 0.0821
H35 H 0.2670 1.0922 0.0764
B1 B 0.2128(8) 0.8423(4) 0.0279(2)
B2 B 0.2523(8) 1.0330(4) 0.1269(2)
C56 C 0.2906(8) 0.9106(3) -0.00863(19)
H36 H 0.2509 0.8975 -0.0235
H37 H 0.3678 0.9243 -0.0168
H38 H 0.2353 0.9377 -0.0001
S2 S 0.88149(18) 0.50780(8) 0.46807(4)
O3 O 0.9715(4) 0.5258(2) 0.35190(11)
O4 O 0.8196(4) 0.7106(2) 0.44352(11)
N7 N 0.7787(5) 0.5302(3) 0.38688(14)
N8 N 0.7999(5) 0.4725(3) 0.34952(13)
N9 N 0.9219(5) 0.4535(3) 0.38932(14)
N10 N 0.8640(5) 0.6574(2) 0.48672(13)
N11 N 1.0130(5) 0.6479(2) 0.44572(13)
N12 N 0.9973(5) 0.7240(2) 0.47083(14)
C58 C 0.8277(6) 0.6785(3) 0.51233(16)
C59 C 0.7723(6) 0.6383(3) 0.53087(15)
H39 H 0.7357 0.6414 0.5496
C60 C 1.1104(6) 0.7385(3) 0.45717(17)
C61 C 0.8258(6) 0.7525(3) 0.54297(16)
C62 C 0.9065(7) 0.5740(3) 0.46682(18)
C63 C 0.8713(6) 0.7270(3) 0.51681(16)
C64 C 1.4118(6) 0.7003(3) 0.43114(17)
H40 H 1.4090 0.6807 0.4489
C65 C 1.0012(6) 0.5956(3) 0.44717(17)
C66 C 0.9638(6) 0.7480(3) 0.49602(17)
C67 C 0.8461(6) 0.6051(3) 0.48807(16)
C68 C 1.0009(6) 0.3753(3) 0.40704(16)
H41 H 1.0352 0.3407 0.4080
C69 C 0.7829(7) 0.5355(3) 0.41589(18)
C70 C 0.7821(6) 0.5940(3) 0.51636(16)
H42 H 0.7525 0.5623 0.5236
C71 C 1.5292(7) 0.7106(3) 0.41663(16)
H43 H 1.6030 0.7014 0.4253
C72 C 0.6960(7) 0.4970(3) 0.33803(17)
C73 C 1.1749(6) 0.7074(3) 0.43576(17)
C74 C 0.8343(7) 0.4239(3) 0.34053(17)
C75 C 0.5246(7) 0.5725(3) 0.33816(17)
C76 C 0.9865(6) 0.4069(3) 0.42944(18)
H44 H 1.0085 0.3977 0.4480
C77 C 0.6964(7) 0.7598(3) 0.55158(17)
H45 H 0.6396 0.7484 0.5405
C78 C 0.6776(6) 0.5725(3) 0.42373(18)
H46 H 0.6581 0.5859 0.4416
C79 C 0.6345(7) 0.5414(3) 0.35027(18)
C80 C 1.0561(7) 0.7857(3) 0.49604(19)
H47 H 1.0559 0.8099 0.5095
C81 C 0.9302(6) 0.4573(3) 0.41843(16)
C82 C 0.6103(7) 0.5847(3) 0.39971(18)
H48 H 0.5388 0.6081 0.3986
C83 C 0.7520(7) 0.4195(4) 0.31841(18)
H49 H 0.7539 0.3917 0.3071
C84 C 0.6705(7) 0.4642(3) 0.31730(18)
H50 H 0.6082 0.4717 0.3048
C85 C 0.8677(7) 0.5017(3) 0.43106(18)
C86 C 0.9668(7) 0.3361(3) 0.34679(17)
C87 C 0.9098(8) 0.7699(3) 0.56037(18)
H51 H 0.9963 0.7655 0.5553
C88 C 0.9551(6) 0.4039(3) 0.38202(18)
C89 C 1.1307(7) 0.6593(3) 0.43216(17)
C90 C 0.8630(8) 0.7934(4) 0.5850(2)
H52 H 0.9190 0.8041 0.5965
C91 C 1.1135(7) 0.5739(4) 0.43116(17)
H53 H 1.1309 0.5389 0.4277
C92 C 0.8853(8) 0.3028(3) 0.33720(18)
C93 C 1.0965(7) 0.3201(3) 0.34790(19)
C94 C 0.6722(7) 0.5541(3) 0.37660(19)
C95 C 1.1428(6) 0.7790(3) 0.47274(19)
H54 H 1.2122 0.7980 0.4678
C96 C 0.9200(7) 0.3886(3) 0.35614(17)
C97 C 1.2994(7) 0.7184(3) 0.41980(18)
C98 C 0.3208(7) 0.6317(4) 0.3146(2)
H55 H 0.2533 0.6512 0.3068
C99 C 0.4305(7) 0.5487(4) 0.32814(19)
H56 H 0.4339 0.5125 0.3293
C100 C 0.7358(8) 0.8016(4) 0.59295(19)
H57 H 0.7063 0.8187 0.6092
C101 C 0.6513(8) 0.7838(4) 0.57637(19)
H58 H 0.5651 0.7880 0.5819
C102 C 1.1895(7) 0.6118(3) 0.42187(18)
H59 H 1.2666 0.6076 0.4107
C103 C 0.9339(9) 0.2530(4) 0.32971(19)
C104 C 0.3312(8) 0.5786(4) 0.3164(2)
H60 H 0.2692 0.5619 0.3096
C105 C 0.8537(9) 0.7381(4) 0.4168(2)
H61 H 0.9035 0.7656 0.4197
H62 H 0.7789 0.7528 0.4084
H63 H 0.9017 0.7147 0.4041
C106 C 1.0630(10) 0.2364(4) 0.33025(19)
C107 C 1.4229(8) 0.7510(4) 0.3765(2)
H64 H 1.4272 0.7673 0.3579
C108 C 1.5321(7) 0.7348(4) 0.3891(2)
H65 H 1.6095 0.7404 0.3788
C109 C 1.3085(8) 0.7430(4) 0.3913(2)
H66 H 1.2353 0.7539 0.3826
C110 C 0.5163(8) 0.6268(4) 0.3365(2)
H67 H 0.5785 0.6437 0.3432
C111 C 0.4147(9) 0.6553(4) 0.3249(2)
H68 H 0.4095 0.6914 0.3241
B3 B 0.8759(8) 0.4975(4) 0.3687(2)
B4 B 0.9173(7) 0.6864(4) 0.4604(2)
C112 C 1.1437(8) 0.2698(4) 0.3393(2)
C113 C 1.0440(8) 0.5528(4) 0.3668(2)
H69 H 0.9903 0.5774 0.3777
H70 H 1.1022 0.5710 0.3534
H71 H 1.0900 0.5288 0.3796
S3 S 0.4311(2) 0.83033(9) 0.19641(5)
O5 O 0.3601(4) 0.8001(2) 0.31162(12)
O6 O 0.5092(5) 0.6272(2) 0.21951(12)
N13 N 0.5262(5) 0.8533(3) 0.31556(14)
N14 N 0.5479(6) 0.8010(3) 0.27571(15)
N15 N 0.4014(5) 0.8775(3) 0.27650(15)
N16 N 0.3363(5) 0.6110(3) 0.19150(14)
N17 N 0.4632(5) 0.6809(3) 0.17699(14)
N18 N 0.3109(5) 0.6865(3) 0.21762(14)
C115 C 0.4651(6) 0.6109(3) 0.14554(16)
C116 C -0.0794(7) 0.6334(3) 0.23512(19)
H72 H -0.0802 0.6615 0.2211
C117 C 0.4293(8) 0.5751(3) 0.09916(18)
H73 H 0.3425 0.5792 0.1039
C118 C 0.3714(6) 0.5895(3) 0.16565(16)
C119 C 0.5040(6) 0.6605(3) 0.15104(17)
C120 C 0.5113(6) 0.5898(3) 0.11813(16)
C121 C 0.6405(7) 0.5838(3) 0.11014(17)
H74 H 0.6959 0.5941 0.1220
C122 C 0.2248(6) 0.5941(3) 0.20481(18)
C123 C 0.1568(6) 0.6239(3) 0.22621(17)
C124 C 0.6057(8) 0.5473(3) 0.0661(2)
H75 H 0.6370 0.5327 0.0491
C125 C 0.2832(7) 0.5521(3) 0.16450(17)
H76 H 0.2858 0.5293 0.1502
C126 C 0.5586(6) 0.7025(3) 0.13294(18)
H77 H 0.5972 0.7002 0.1143
C127 C 0.1935(6) 0.5552(3) 0.18791(18)
H78 H 0.1249 0.5355 0.1919
C128 C 0.6950(6) 0.7846(3) 0.31139(18)
C129 C -0.1948(7) 0.6185(4) 0.24949(18)
H79 H -0.2711 0.6339 0.2437
C130 C 0.3173(7) 0.7395(4) 0.21647(18)
C131 C 0.4911(7) 0.9006(3) 0.32726(17)
C132 C 0.3171(7) 0.9561(3) 0.26243(19)
H80 H 0.2828 0.9906 0.2625
C133 C 0.5421(7) 0.7996(3) 0.24655(19)
C134 C 0.5441(7) 0.7465(3) 0.14782(18)
H81 H 0.5715 0.7789 0.1411
C135 C 0.4787(8) 0.5546(4) 0.07372(18)
H82 H 0.4238 0.5455 0.0614
C136 C 0.4793(7) 0.7334(3) 0.17552(19)
C137 C 0.3550(7) 0.9865(3) 0.32481(18)
C138 C 0.3294(6) 0.9261(3) 0.23920(18)
H83 H 0.3025 0.9367 0.2212
C139 C 0.6571(7) 0.8577(3) 0.34927(18)
H84 H 0.7188 0.8485 0.3618
C140 C 0.3899(6) 0.8763(3) 0.24751(18)
C141 C 0.6320(7) 0.8281(3) 0.32649(18)
C142 C 0.6504(7) 0.7649(3) 0.2371(2)
H85 H 0.6707 0.7545 0.2186
C143 C 0.6878(7) 0.5622(3) 0.08440(17)
H86 H 0.7744 0.5578 0.0794
C144 C 0.4125(7) 0.7630(3) 0.19721(19)
C145 C 0.7185(7) 0.7501(3) 0.2605(2)
H87 H 0.7911 0.7271 0.2606
C146 C 0.1958(7) 0.6731(4) 0.23051(19)
C147 C 0.5731(7) 0.9025(3) 0.34941(17)
H88 H 0.5705 0.9290 0.3616
C148 C 0.4025(6) 0.9371(3) 0.31302(16)
C149 C 0.1312(7) 0.7192(4) 0.24167(19)
H89 H 0.0543 0.7212 0.2530
C150 C 0.2280(7) 1.0037(3) 0.32482(18)
H90 H 0.1758 0.9839 0.3167
C151 C 0.6567(7) 0.7766(3) 0.28468(18)
C152 C 1.0036(8) 0.7463(4) 0.3443(2)
H91 H 1.0657 0.7626 0.3514
C153 C 0.1759(8) 1.0494(3) 0.33654(19)
H92 H 0.0902 1.0593 0.3364
C154 C 0.4529(7) 0.8343(3) 0.23257(19)
C155 C 0.0347(7) 0.6073(4) 0.24135(18)
C156 C 0.2514(9) 1.0799(4) 0.3484(2)
H93 H 0.2178 1.1106 0.3562
C157 C 0.2843(8) 0.7752(4) 0.2948(2)
H94 H 0.2392 0.8011 0.2828
H95 H 0.2253 0.7559 0.3073
H96 H 0.3374 0.7520 0.2829
C158 C 0.4299(8) 1.0178(3) 0.33691(18)
H97 H 0.5156 1.0078 0.3373
C159 C 0.9007(7) 0.7763(4) 0.3332(2)
H98 H 0.8970 0.8123 0.3332
C160 C 0.2034(7) 0.7603(4) 0.23264(19)
H99 H 0.1824 0.7950 0.2363
C161 C 0.8069(7) 0.7557(3) 0.32263(19)
C162 C 0.3659(6) 0.9255(3) 0.28618(19)
C163 C 1.0130(8) 0.6941(4) 0.3447(2)
H100 H 1.0774 0.6738 0.3534
C164 C 0.9203(9) 0.6698(4) 0.3313(2)
H101 H 0.9288 0.6340 0.3298
C165 C 0.8187(7) 0.7007(4) 0.3206(2)
H102 H 0.7586 0.6855 0.3121
C166 C 0.4781(9) 0.5937(5) 0.2431(3)
H103 H 0.4386 0.6133 0.2585
H104 H 0.5530 0.5739 0.2490
H105 H 0.4208 0.5705 0.2383
C167 C 0.3786(10) 1.0637(4) 0.3483(2)
H106 H 0.4307 1.0840 0.3561
C168 C 0.0315(9) 0.5698(5) 0.2639(3)
H107 H 0.1067 0.5526 0.2694
C169 C -0.1922(9) 0.5817(5) 0.2719(2)
H108 H -0.2669 0.5732 0.2825
C170 C -0.0804(10) 0.5570(6) 0.2788(3)
H109 H -0.0796 0.5309 0.2939
B5 B 0.4123(7) 0.6487(4) 0.2033(2)
B6 B 0.4508(8) 0.8316(4) 0.2956(2)
S4 S 0.79286(18) 0.14423(9) 0.37477(5)
O7 O 0.7645(4) 0.1353(2) 0.48735(12)
O8 O 0.7985(4) -0.0624(2) 0.39333(12)
N19 N 0.8448(5) -0.0019(2) 0.35168(14)
N20 N 0.9628(5) 0.0000(3) 0.39118(13)
N21 N 1.0011(5) -0.0702(2) 0.36185(13)
N22 N 0.5516(5) 0.1855(2) 0.48958(14)
N23 N 0.7081(5) 0.2031(2) 0.45083(13)
N24 N 0.6052(5) 0.1253(2) 0.45420(15)
C171 C 0.6342(7) 0.3250(3) 0.49030(16)
C172 C 0.3717(6) 0.1966(3) 0.51821(16)
H110 H 0.2972 0.1899 0.5295
C173 C 0.4451(6) 0.1621(3) 0.49971(17)
C174 C 0.6302(6) 0.2705(3) 0.48193(16)
C175 C 0.5263(6) 0.3581(3) 0.49637(15)
H111 H 0.4475 0.3470 0.4950
C176 C 0.7503(7) 0.3431(3) 0.49216(15)
H112 H 0.8234 0.3219 0.4874
C177 C 0.7602(7) 0.3913(3) 0.50080(17)
H113 H 0.8392 0.4022 0.5022
C178 C 0.8058(6) 0.0501(3) 0.35224(17)
C179 C 1.3605(6) -0.0455(3) 0.40861(17)
H114 H 1.3458 -0.0106 0.4021
C180 C 0.4316(6) 0.2421(3) 0.51635(16)
H115 H 0.4034 0.2716 0.5260
C181 C 0.7539(6) 0.1971(3) 0.42332(17)
C182 C 0.7589(7) 0.2823(3) 0.43167(17)
H116 H 0.7707 0.3176 0.4294
C183 C 0.5448(6) 0.2358(3) 0.49702(17)
C184 C 0.4216(6) 0.1155(3) 0.48809(17)
C185 C 0.7019(6) 0.2548(3) 0.45725(16)
C186 C 0.5354(7) 0.4079(3) 0.50455(18)
H117 H 0.4626 0.4301 0.5079
C187 C 0.3065(7) 0.0882(3) 0.49819(18)
C188 C 0.6505(8) 0.4247(3) 0.50765(18)
H118 H 0.6559 0.4571 0.5141
C189 C 0.4788(7) 0.0700(4) 0.4406(2)
H119 H 0.4171 0.0470 0.4412
C190 C 0.8365(6) 0.0766(3) 0.37514(16)
C191 C 0.6455(6) 0.1181(3) 0.42624(18)
C192 C 0.7306(7) 0.1507(3) 0.41082(18)
C193 C 0.4982(7) 0.1010(3) 0.46335(17)
C194 C 0.8388(6) -0.0178(3) 0.32498(18)
C195 C 1.0976(6) 0.0285(3) 0.41874(17)
H120 H 1.1613 0.0291 0.4306
C196 C 0.7928(6) 0.2474(3) 0.41111(16)
H121 H 0.8332 0.2547 0.3928
C197 C 0.7717(7) -0.0830(3) 0.27970(19)
H122 H 0.7036 -0.0700 0.2918
C198 C 0.9968(7) -0.0889(3) 0.33563(18)
C199 C 0.7621(7) 0.0671(4) 0.32459(19)
H123 H 0.7262 0.1002 0.3189
C200 C 0.9084(6) -0.0654(3) 0.31708(16)
C201 C 1.1100(6) -0.0873(3) 0.37373(19)
C202 C 1.4751(7) -0.0627(4) 0.41906(18)
H124 H 1.5337 -0.0394 0.4210
C203 C 0.5677(7) 0.0803(3) 0.4180(2)
H125 H 0.5766 0.0658 0.4004
C204 C 1.0749(6) -0.0144(3) 0.40366(17)
C205 C 0.8495(9) -0.1188(4) 0.2361(2)
H126 H 0.8369 -0.1298 0.2184
C206 C 1.2672(7) -0.0784(4) 0.40748(18)
C207 C 0.9235(7) 0.0521(3) 0.39415(18)
C208 C 0.7831(7) 0.0258(3) 0.3083(2)
H127 H 0.7644 0.0260 0.2894
C209 C 0.8913(7) -0.0834(3) 0.28889(18)
C210 C 1.1476(7) -0.0612(3) 0.39556(17)
C211 C 0.9697(9) -0.1210(4) 0.24423(19)
H128 H 1.0371 -0.1348 0.2322
C212 C 1.1763(6) -0.1236(3) 0.35517(18)
H129 H 1.2536 -0.1422 0.3579
C213 C 1.0066(7) 0.0692(3) 0.41244(17)
H130 H 1.0010 0.1022 0.4190
C214 C 0.9933(7) -0.1030(4) 0.27025(19)
H131 H 1.0754 -0.1040 0.2751
C215 C 0.7457(8) -0.0999(4) 0.25450(18)
H132 H 0.6635 -0.0989 0.2497
C216 C 1.1061(7) -0.1264(3) 0.3325(2)
H133 H 1.1255 -0.1485 0.3178
C217 C 1.2949(8) -0.1327(4) 0.41571(18)
H134 H 1.2355 -0.1559 0.4144
C218 C 1.5000(8) -0.1168(4) 0.4268(2)
H135 H 1.5781 -0.1296 0.4327
C219 C 0.0951(8) 0.0375(4) 0.5190(2)
H136 H 0.0239 0.0203 0.5255
C220 C 1.4097(7) -0.1506(4) 0.4256(2)
H137 H 1.4261 -0.1858 0.4314
C221 C 0.1947(7) 0.1023(4) 0.4874(2)
H138 H 0.1894 0.1294 0.4730
C222 C 0.0890(8) 0.0775(4) 0.4973(2)
H139 H 0.0134 0.0877 0.4895
C223 C 0.8446(9) -0.1062(4) 0.4126(2)
H140 H 0.8800 -0.1343 0.4014
H141 H 0.7760 -0.1174 0.4258
H142 H 0.9081 -0.0955 0.4231
C224 C 0.3104(9) 0.0487(4) 0.5200(2)
H143 H 0.3857 0.0384 0.5279
C225 C 0.2016(9) 0.0237(4) 0.5304(2)
H144 H 0.2050 -0.0025 0.5454
B7 B 0.8974(7) -0.0359(4) 0.3756(2)
B8 B 0.6610(7) 0.1598(3) 0.4716(2)
C226 C 0.7368(8) 0.0933(4) 0.5091(2)
H145 H 0.6700 0.1055 0.5229
H146 H 0.8107 0.0819 0.5187
H147 H 0.7113 0.0648 0.5002
S5 S 0.5222(2) 0.16683(9) 0.30449(5)
O9 O 0.5411(5) 0.3689(3) 0.27997(13)
O10 O 0.5730(4) 0.1944(2) 0.19039(12)
N25 N 0.3336(5) 0.3882(3) 0.30762(15)
N26 N 0.4759(5) 0.3171(3) 0.32287(14)
N27 N 0.3645(6) 0.3113(3) 0.28211(16)
N28 N 0.7708(5) 0.1408(3) 0.18745(14)
N29 N 0.6156(5) 0.1174(3) 0.22542(14)
N30 N 0.7206(5) 0.1935(3) 0.22724(15)
C228 C 0.6898(6) 0.0574(3) 0.18950(17)
C229 C 0.3344(7) 0.4110(3) 0.33344(18)
C230 C 0.5603(7) 0.0382(3) 0.23992(18)
H148 H 0.5458 0.0033 0.2401
C231 C -0.0279(7) 0.3676(4) 0.26218(18)
H149 H -0.0271 0.3376 0.2748
C232 C 0.1907(6) 0.3761(3) 0.27256(17)
C233 C 0.9408(7) 0.1368(3) 0.15480(18)
H150 H 1.0124 0.1457 0.1430
C234 C 0.5620(6) -0.0104(3) 0.17632(17)
H151 H 0.4900 0.0095 0.1833
C235 C 0.6190(7) 0.0686(3) 0.21591(18)
C236 C -0.1373(7) 0.3831(4) 0.24804(18)
H152 H -0.2081 0.3646 0.2517
C237 C 0.6823(7) 0.0070(3) 0.17765(17)
C238 C 0.5287(6) 0.0688(3) 0.26257(19)
H153 H 0.4875 0.0589 0.2805
C239 C 0.4389(7) 0.4123(3) 0.37971(17)
C240 C 0.7880(8) -0.0247(3) 0.16792(17)
H154 H 0.8679 -0.0144 0.1689
C241 C 0.5347(7) 0.2943(3) 0.3674(2)
H155 H 0.5531 0.2964 0.3861
C242 C 0.2568(7) 0.3258(4) 0.26869(18)
C243 C 0.8988(7) 0.2098(3) 0.19184(19)
C244 C 0.0766(7) 0.3946(4) 0.25816(19)
C245 C 0.5916(7) 0.1616(3) 0.26856(19)
C246 C 0.7728(7) 0.0932(3) 0.17600(19)
C247 C 0.8741(7) 0.1673(3) 0.17687(19)
C248 C 0.4936(10) 0.4576(4) 0.4279(2)
H156 H 0.5097 0.4726 0.4442
C249 C 0.2238(7) 0.2797(3) 0.25798(18)
H157 H 0.1589 0.2784 0.2465
C250 C 0.1633(7) 0.4459(3) 0.31059(17)
H158 H 0.0905 0.4665 0.3061
C251 C 0.4186(7) 0.3874(3) 0.35291(17)
C252 C 0.2255(6) 0.4059(3) 0.29459(18)
C253 C 0.6788(7) 0.1950(3) 0.25570(19)
C254 C 0.5514(7) 0.2509(4) 0.35262(19)
H159 H 0.5832 0.2180 0.3597
C255 C 0.2289(7) 0.4497(3) 0.33421(19)
H160 H 0.2078 0.4733 0.3481
C256 C 0.3441(8) 0.4388(4) 0.39539(18)
H161 H 0.2619 0.4415 0.3905
C257 C 0.4735(7) 0.2229(4) 0.2065(2)
H162 H 0.4151 0.1994 0.2159
H163 H 0.4306 0.2482 0.1938
H164 H 0.5076 0.2403 0.2206
C258 C 0.5705(7) 0.1175(3) 0.25355(18)
C259 C 1.0045(7) 0.2418(3) 0.1815(2)
C260 C 0.4822(7) 0.3373(3) 0.34813(17)
C261 C 0.3930(8) 0.2585(4) 0.2838(2)
C262 C 0.6599(9) -0.0869(4) 0.15462(19)
H165 H 0.6532 -0.1177 0.1464
C263 C 0.5509(7) -0.0562(3) 0.16482(18)
H166 H 0.4716 -0.0670 0.1637
C264 C 0.5890(9) 0.4306(4) 0.41215(19)
H167 H 0.6711 0.4275 0.4172
C265 C 0.5597(7) 0.4082(4) 0.38853(19)
H168 H 0.6240 0.3893 0.3779
C266 C 0.8263(7) 0.2197(3) 0.2186(2)
C267 C 0.8811(7) 0.0924(3) 0.15408(17)
H169 H 0.9054 0.0663 0.1418
C268 C 0.4780(7) 0.2346(3) 0.3034(2)
C269 C 0.7585(8) 0.2325(4) 0.2657(2)
H170 H 0.7496 0.2453 0.2837
C270 C 0.3023(8) 0.2378(4) 0.2671(2)
H171 H 0.2993 0.2033 0.2636
C271 C 0.3742(10) 0.4624(4) 0.4197(2)
H172 H 0.3107 0.4817 0.4303
C272 C 0.5128(7) 0.2636(4) 0.32491(19)
C273 C 0.7763(8) -0.0708(3) 0.15695(19)
H173 H 0.8484 -0.0916 0.1509
C274 C 0.8459(8) 0.2442(4) 0.2436(2)
H174 H 0.9102 0.2653 0.2445
C275 C 1.1208(7) 0.2206(4) 0.17119(19)
H175 H 1.1350 0.1845 0.1715
C276 C 1.2180(8) 0.2502(4) 0.1604(2)
H176 H 1.2962 0.2341 0.1538
C277 C 1.1984(9) 0.3037(4) 0.1593(3)
H177 H 1.2598 0.3243 0.1502
C278 C 0.5185(10) 0.4044(6) 0.2568(3)
H178 H 0.5080 0.3861 0.2405
H179 H 0.5886 0.4251 0.2522
H180 H 0.4433 0.4266 0.2615
C279 C 0.9849(9) 0.2961(4) 0.1831(2)
H181 H 0.9082 0.3111 0.1912
C280 C 1.0817(9) 0.3273(4) 0.1725(2)
H182 H 1.0706 0.3631 0.1739
C281 C -0.1354(9) 0.4248(5) 0.2295(2)
H183 H -0.2068 0.4362 0.2203
C282 C -0.0332(10) 0.4509(7) 0.2238(4)
H184 H -0.0319 0.4787 0.2097
C283 C 0.0721(10) 0.4366(6) 0.2391(3)
H185 H 0.1402 0.4567 0.2359
B9 B 0.4346(8) 0.3477(4) 0.2969(2)
B10 B 0.6625(7) 0.1632(4) 0.2065(2)
S6 S 0.11974(18) 0.48827(8) 0.03430(4)
O11 O 0.0837(4) 0.4747(2) 0.14945(11)
O12 O 0.1190(4) 0.2858(2) 0.05956(11)
N31 N -0.1166(5) 0.5287(2) 0.15026(13)
N32 N 0.0390(5) 0.5458(2) 0.11148(13)
N33 N -0.0673(5) 0.4698(2) 0.11390(14)
N34 N 0.1827(5) 0.3386(2) 0.01650(13)
N35 N 0.2872(5) 0.3468(2) 0.05813(13)
N36 N 0.3308(5) 0.2704(2) 0.03298(13)
C284 C 0.1250(6) 0.5903(3) 0.07203(16)
H186 H 0.1650 0.5982 0.0537
C285 C 0.1319(6) 0.3585(3) -0.02864(17)
H187 H 0.1176 0.3558 -0.0476
C286 C 0.0965(6) 0.6249(3) 0.09311(16)
H188 H 0.1128 0.6597 0.0914
C287 C 0.0832(6) 0.5404(3) 0.08287(15)
C288 C 0.1439(6) 0.3908(3) 0.01439(16)
C289 C -0.0261(7) 0.6660(3) 0.15194(16)
C290 C -0.2467(6) 0.4587(3) 0.14962(16)
C291 C 0.6935(6) 0.2940(3) 0.07297(17)
H189 H 0.6966 0.3139 0.0553
C292 C -0.2207(6) 0.5032(3) 0.16145(17)
C293 C -0.0343(6) 0.6131(3) 0.14348(16)
C294 C -0.0277(6) 0.4626(3) 0.08539(18)
C295 C -0.2882(6) 0.5384(3) 0.18156(16)
H190 H -0.3605 0.5318 0.1937
C296 C 0.2425(7) 0.2433(3) -0.03989(17)
C297 C 0.1701(6) 0.4214(3) 0.03650(16)
C298 C 0.0363(6) 0.5966(3) 0.11824(17)
C299 C -0.1184(6) 0.5780(3) 0.15897(17)
C300 C 0.1027(7) 0.7319(3) 0.16210(18)
H191 H 0.1816 0.7426 0.1637
C301 C 0.0923(6) 0.6826(3) 0.15375(16)
H192 H 0.1645 0.6606 0.1494
C302 C 0.8015(7) 0.2847(3) 0.08689(17)
H193 H 0.8780 0.2951 0.0781
C303 C -0.1722(7) 0.4445(3) 0.12372(17)
C304 C 0.2545(6) 0.3992(3) 0.05626(16)
C305 C -0.3536(7) 0.4282(3) 0.16136(18)
C306 C 0.4377(6) 0.2553(3) 0.04705(17)
C307 C 0.0571(6) 0.4954(3) 0.07070(17)
C308 C -0.1061(7) 0.4254(3) 0.07756(19)
H194 H -0.0993 0.4113 0.0599
C309 C 0.1839(6) 0.3171(3) -0.00901(16)
C310 C 0.1077(6) 0.4026(3) -0.01400(17)
H195 H 0.0733 0.4349 -0.0214
C311 C 0.3337(6) 0.2470(3) 0.00791(18)
C312 C -0.1946(7) 0.4141(3) 0.10105(18)
H196 H -0.2564 0.3911 0.1018
C313 C 0.4674(6) 0.2864(3) 0.06842(17)
C314 C 0.4432(7) 0.2077(3) 0.0078(2)
H197 H 0.4657 0.1830 -0.0054
C315 C 0.3397(6) 0.4209(4) 0.07257(17)
H198 H 0.3380 0.4557 0.0761
C316 C -0.1351(7) 0.7000(3) 0.15909(17)
H199 H -0.2147 0.6887 0.1590
C317 C 0.3508(8) 0.2224(3) -0.05610(17)
H200 H 0.4302 0.2246 -0.0503
C318 C 0.4236(7) 0.3812(3) 0.08188(17)
H201 H 0.4885 0.3845 0.0930
C319 C 0.2523(6) 0.2678(3) -0.01345(16)
C320 C -0.1235(8) 0.7498(3) 0.16613(19)
H202 H -0.1948 0.7728 0.1696
C321 C 0.3958(6) 0.3338(3) 0.07182(17)
C322 C -0.0055(8) 0.7650(3) 0.16799(19)
H203 H 0.0019 0.7981 0.1733
C323 C 0.5065(7) 0.2148(3) 0.0312(2)
H204 H 0.5815 0.1963 0.0359
C324 C 0.1263(7) 0.2407(3) -0.04934(17)
H205 H 0.0551 0.2555 -0.0388
C325 C -0.2274(7) 0.5827(3) 0.17968(17)
H206 H -0.2527 0.6114 0.1901
C326 C 0.5805(6) 0.2749(3) 0.08428(19)
C327 C 0.2221(10) 0.1941(4) -0.0896(2)
H207 H 0.2157 0.1763 -0.1056
C328 C 0.5755(8) 0.2516(4) 0.11228(19)
H208 H 0.4991 0.2413 0.1212
C329 C 0.3386(9) 0.1989(4) -0.08063(19)
H209 H 0.4108 0.1858 -0.0915
C330 C -0.4293(9) 0.3434(4) 0.1756(2)
H210 H -0.4141 0.3073 0.1772
C331 C -0.5642(8) 0.4207(4) 0.1834(2)
H211 H -0.6413 0.4366 0.1907
C332 C 0.6798(7) 0.2432(4) 0.1271(2)
H212 H 0.6745 0.2266 0.1456
C333 C -0.5452(9) 0.3666(4) 0.1845(2)
H213 H -0.6109 0.3464 0.1913
C334 C -0.4689(7) 0.4513(4) 0.1715(2)
H214 H -0.4834 0.4874 0.1704
C335 C 0.7929(7) 0.2595(4) 0.1143(2)
H215 H 0.8641 0.2535 0.1243
C336 C -0.3341(8) 0.3744(4) 0.1642(2)
H216 H -0.2549 0.3584 0.1583
C337 C 0.1111(9) 0.2171(4) -0.0738(2)
H217 H 0.0316 0.2160 -0.0798
C338 C 0.1408(9) 0.2577(4) 0.0863(2)
H218 H 0.2038 0.2292 0.0832
H219 H 0.0639 0.2446 0.0952
H220 H 0.1693 0.2805 0.0988
B11 B 0.2264(7) 0.3082(3) 0.04361(18)
B12 B -0.0095(7) 0.5028(4) 0.13204(19)
C339 C 0.1806(9) 0.4450(4) 0.1355(2)
H221 H 0.1468 0.4222 0.1239
H222 H 0.2287 0.4247 0.1494
H223 H 0.2341 0.4674 0.1233
C57? C 0.386(4) 0.8887(17) 0.0407(11)
C114? C 0.964(7) 0.571(3) 0.3325(18)
C227? C 0.859(5) 0.109(2) 0.4624(13)
C340? C 0.075(6) 0.427(3) 0.1690(14)
loop_
_geom_bond_atom_site_label_1
_geom_bond_atom_site_label_2
_geom_bond_site_symmetry_1
_geom_bond_site_symmetry_2
S1 C7 1_555 1_555
O1 C55 1_555 1_555
O2 B1 1_555 1_555
N1 C28 1_555 1_555
N2 C11 1_555 1_555
N3 C23 1_555 1_555
N4 C24 1_555 1_555
N5 C1 1_555 1_555
N6 C8 1_555 1_555
C1 C17 1_555 1_555
C2 C20 1_555 1_555
C3 H1 1_555 1_555
C4 C22 1_555 1_555
C5 C3 1_555 1_555
H2 C5 1_555 1_555
C6 H3 1_555 1_555
C7 C23 1_555 1_555
C8 C21 1_555 1_555
C9 H4 1_555 1_555
C10 H5 1_555 1_555
C11 C19 1_555 1_555
C12 H6 1_555 1_555
C13 C14 1_555 1_555
C14 H7 1_555 1_555
C15 H8 1_555 1_555
C16 N5 1_555 1_555
C17 C12 1_555 1_555
H9 C17 1_555 1_555
C18 C1 1_555 1_555
C19 C27 1_555 1_555
C20 N2 1_555 1_555
C21 S1 1_555 1_555
C22 C16 1_555 1_555
C23 C43 1_555 1_555
C24 C10 1_555 1_555
C25 C13 1_555 1_555
H10 C25 1_555 1_555
C26 C2 1_555 1_555
C27 N3 1_555 1_555
C28 C2 1_555 1_555
C29 H11 1_555 1_555
C30 N1 1_555 1_555
C31 H12 1_555 1_555
C32 N4 1_555 1_555
C33 C11 1_555 1_555
H13 C33 1_555 1_555
C34 C15 1_555 1_555
H14 C34 1_555 1_555
C35 C6 1_555 1_555
H15 C35 1_555 1_555
C36 C10 1_555 1_555
H16 C36 1_555 1_555
C37 C20 1_555 1_555
H17 C37 1_555 1_555
C38 C3 1_555 1_555
C39 C8 1_555 1_555
H18 C39 1_555 1_555
C40 C35 1_555 1_555
H19 C40 1_555 1_555
C41 C27 1_555 1_555
H20 C41 1_555 1_555
C42 C14 1_555 1_555
H21 C42 1_555 1_555
C43 C41 1_555 1_555
H22 C43 1_555 1_555
C44 C9 1_555 1_555
H23 C44 1_555 1_555
C45 C25 1_555 1_555
H24 C45 1_555 1_555
C46 N6 1_555 1_555
C47 C5 1_555 1_555
H25 C47 1_555 1_555
C48 C4 1_555 1_555
H26 C48 1_555 1_555
C49 H27 1_555 1_555
C50 C48 1_555 1_555
H28 C50 1_555 1_555
C51 C38 1_555 1_555
H29 C51 1_555 1_555
C52 C47 1_555 1_555
H30 C52 1_555 1_555
C53 C4 1_555 1_555
H31 C53 1_555 1_555
C54 C49 1_555 1_555
H32 C54 1_555 1_555
C55 H33 1_555 1_555
H34 C55 1_555 1_555
H35 C55 1_555 1_555
B1 N4 1_555 1_555
B2 O1 1_555 1_555
C56 O2 1_555 1_555
H36 C56 1_555 1_555
H37 C56 1_555 1_555
H38 C56 1_555 1_555
S2 C62 1_555 1_555
O3 B3 1_555 1_555
O4 C105 1_555 1_555
N7 C69 1_555 1_555
N8 C72 1_555 1_555
N9 C81 1_555 1_555
N10 C58 1_555 1_555
N11 C65 1_555 1_555
N12 C60 1_555 1_555
C58 C59 1_555 1_555
C59 H39 1_555 1_555
C60 C73 1_555 1_555
C61 C63 1_555 1_555
C62 C65 1_555 1_555
C63 C58 1_555 1_555
C64 H40 1_555 1_555
C65 C91 1_555 1_555
C66 N12 1_555 1_555
C67 N10 1_555 1_555
C68 H41 1_555 1_555
C69 C78 1_555 1_555
C70 C59 1_555 1_555
H42 C70 1_555 1_555
C71 C64 1_555 1_555
H43 C71 1_555 1_555
C72 C79 1_555 1_555
C73 C89 1_555 1_555
C74 N8 1_555 1_555
C75 C79 1_555 1_555
C76 C68 1_555 1_555
H44 C76 1_555 1_555
C77 C61 1_555 1_555
H45 C77 1_555 1_555
C78 H46 1_555 1_555
C79 C94 1_555 1_555
C80 C66 1_555 1_555
H47 C80 1_555 1_555
C81 C76 1_555 1_555
C82 C78 1_555 1_555
H48 C82 1_555 1_555
C83 C74 1_555 1_555
H49 C83 1_555 1_555
C84 C72 1_555 1_555
H50 C84 1_555 1_555
C85 S2 1_555 1_555
C86 C92 1_555 1_555
C87 C61 1_555 1_555
H51 C87 1_555 1_555
C88 N9 1_555 1_555
C89 N11 1_555 1_555
C90 C87 1_555 1_555
H52 C90 1_555 1_555
C91 H53 1_555 1_555
C92 C103 1_555 1_555
C93 C86 1_555 1_555
C94 N7 1_555 1_555
C95 C60 1_555 1_555
H54 C95 1_555 1_555
C96 C74 1_555 1_555
C97 C64 1_555 1_555
C98 H55 1_555 1_555
C99 C75 1_555 1_555
H56 C99 1_555 1_555
C100 C90 1_555 1_555
H57 C100 1_555 1_555
C101 C77 1_555 1_555
H58 C101 1_555 1_555
C102 C89 1_555 1_555
H59 C102 1_555 1_555
C103 C106 1_555 1_555
C104 C98 1_555 1_555
H60 C104 1_555 1_555
C105 H61 1_555 1_555
H62 C105 1_555 1_555
H63 C105 1_555 1_555
C106 C112 1_555 1_555
C107 H64 1_555 1_555
C108 C71 1_555 1_555
H65 C108 1_555 1_555
C109 C97 1_555 1_555
H66 C109 1_555 1_555
C110 C75 1_555 1_555
H67 C110 1_555 1_555
C111 C98 1_555 1_555
H68 C111 1_555 1_555
B3 N7 1_555 1_555
B4 O4 1_555 1_555
C112 C93 1_555 1_555
C113 O3 1_555 1_555
H69 C113 1_555 1_555
H70 C113 1_555 1_555
H71 C113 1_555 1_555
S3 C144 1_555 1_555
O5 C157 1_555 1_555
O6 C166 1_555 1_555
N13 C131 1_555 1_555
N14 C133 1_555 1_555
N15 C140 1_555 1_555
N16 C118 1_555 1_555
N17 C119 1_555 1_555
N18 C130 1_555 1_555
C115 C118 1_555 1_555
C116 H72 1_555 1_555
C117 H73 1_555 1_555
C118 C125 1_555 1_555
C119 C115 1_555 1_555
C120 C115 1_555 1_555
C121 C120 1_555 1_555
H74 C121 1_555 1_555
C122 N16 1_555 1_555
C123 C122 1_555 1_555
C124 H75 1_555 1_555
C125 H76 1_555 1_555
C126 C119 1_555 1_555
H77 C126 1_555 1_555
C127 C122 1_555 1_555
H78 C127 1_555 1_555
C128 C141 1_555 1_555
C129 C116 1_555 1_555
H79 C129 1_555 1_555
C130 C144 1_555 1_555
C131 C147 1_555 1_555
C132 H80 1_555 1_555
C133 C142 1_555 1_555
C134 C126 1_555 1_555
H81 C134 1_555 1_555
C135 C117 1_555 1_555
H82 C135 1_555 1_555
C136 N17 1_555 1_555
C137 C148 1_555 1_555
C138 C132 1_555 1_555
H83 C138 1_555 1_555
C139 H84 1_555 1_555
C140 C138 1_555 1_555
C141 N13 1_555 1_555
C142 H85 1_555 1_555
C143 C121 1_555 1_555
H86 C143 1_555 1_555
C144 C136 1_555 1_555
C145 C142 1_555 1_555
H87 C145 1_555 1_555
C146 N18 1_555 1_555
C147 C139 1_555 1_555
H88 C147 1_555 1_555
C148 C131 1_555 1_555
C149 C146 1_555 1_555
H89 C149 1_555 1_555
C150 C137 1_555 1_555
H90 C150 1_555 1_555
C151 N14 1_555 1_555
C152 H91 1_555 1_555
C153 C150 1_555 1_555
H92 C153 1_555 1_555
C154 S3 1_555 1_555
C155 C116 1_555 1_555
C156 C153 1_555 1_555
H93 C156 1_555 1_555
C157 H94 1_555 1_555
H95 C157 1_555 1_555
H96 C157 1_555 1_555
C158 C137 1_555 1_555
H97 C158 1_555 1_555
C159 C152 1_555 1_555
H98 C159 1_555 1_555
C160 C130 1_555 1_555
H99 C160 1_555 1_555
C161 C128 1_555 1_555
C162 N15 1_555 1_555
C163 C152 1_555 1_555
H100 C163 1_555 1_555
C164 C163 1_555 1_555
H101 C164 1_555 1_555
C165 C161 1_555 1_555
H102 C165 1_555 1_555
C166 H103 1_555 1_555
H104 C166 1_555 1_555
H105 C166 1_555 1_555
C167 C156 1_555 1_555
H106 C167 1_555 1_555
C168 C155 1_555 1_555
H107 C168 1_555 1_555
C169 C129 1_555 1_555
H108 C169 1_555 1_555
C170 C168 1_555 1_555
H109 C170 1_555 1_555
B5 O6 1_555 1_555
B6 O5 1_555 1_555
S4 C190 1_555 1_555
O7 B8 1_555 1_555
O8 C223 1_555 1_555
N19 C178 1_555 1_555
N20 C204 1_555 1_555
N21 C198 1_555 1_555
N22 C173 1_555 1_555
N23 C181 1_555 1_555
N24 C191 1_555 1_555
C171 C174 1_555 1_555
C172 H110 1_555 1_555
C173 C172 1_555 1_555
C174 C183 1_555 1_555
C175 C171 1_555 1_555
H111 C175 1_555 1_555
C176 C171 1_555 1_555
H112 C176 1_555 1_555
C177 C176 1_555 1_555
H113 C177 1_555 1_555
C178 C190 1_555 1_555
C179 H114 1_555 1_555
C180 C172 1_555 1_555
H115 C180 1_555 1_555
C181 C192 1_555 1_555
C182 H116 1_555 1_555
C183 N22 1_555 1_555
C184 C173 1_555 1_555
C185 N23 1_555 1_555
C186 C175 1_555 1_555
H117 C186 1_555 1_555
C187 C184 1_555 1_555
C188 C177 1_555 1_555
H118 C188 1_555 1_555
C189 H119 1_555 1_555
C190 C207 1_555 1_555
C191 C192 1_555 1_555
C192 S4 1_555 1_555
C193 N24 1_555 1_555
C194 N19 1_555 1_555
C195 H120 1_555 1_555
C196 C181 1_555 1_555
H121 C196 1_555 1_555
C197 H122 1_555 1_555
C198 C200 1_555 1_555
C199 C178 1_555 1_555
H123 C199 1_555 1_555
C200 C194 1_555 1_555
C201 N21 1_555 1_555
C202 C179 1_555 1_555
H124 C202 1_555 1_555
C203 C189 1_555 1_555
H125 C203 1_555 1_555
C204 C195 1_555 1_555
C205 H126 1_555 1_555
C206 C179 1_555 1_555
C207 N20 1_555 1_555
C208 C194 1_555 1_555
H127 C208 1_555 1_555
C209 C197 1_555 1_555
C210 C201 1_555 1_555
C211 C205 1_555 1_555
H128 C211 1_555 1_555
C212 C201 1_555 1_555
H129 C212 1_555 1_555
C213 C195 1_555 1_555
H130 C213 1_555 1_555
C214 C209 1_555 1_555
H131 C214 1_555 1_555
C215 C197 1_555 1_555
H132 C215 1_555 1_555
C216 C198 1_555 1_555
H133 C216 1_555 1_555
C217 C206 1_555 1_555
H134 C217 1_555 1_555
C218 C202 1_555 1_555
H135 C218 1_555 1_555
C219 H136 1_555 1_555
C220 C217 1_555 1_555
H137 C220 1_555 1_555
C221 C187 1_555 1_555
H138 C221 1_555 1_555
C222 C219 1_555 1_555
H139 C222 1_555 1_555
C223 H140 1_555 1_555
H141 C223 1_555 1_555
H142 C223 1_555 1_555
C224 C187 1_555 1_555
H143 C224 1_555 1_555
C225 C219 1_555 1_555
H144 C225 1_555 1_555
B7 O8 1_555 1_555
B8 N22 1_555 1_555
C226 O7 1_555 1_555
H145 C226 1_555 1_555
H146 C226 1_555 1_555
H147 C226 1_555 1_555
S5 C245 1_555 1_555
O9 C278 1_555 1_555
O10 C257 1_555 1_555
N25 C229 1_555 1_555
N26 C260 1_555 1_555
N27 C242 1_555 1_555
N28 C246 1_555 1_555
N29 C235 1_555 1_555
N30 C253 1_555 1_555
C228 C235 1_555 1_555
C229 C251 1_555 1_555
C230 H148 1_555 1_555
C231 H149 1_555 1_555
C232 C242 1_555 1_555
C233 H150 1_555 1_555
C234 H151 1_555 1_555
C235 C230 1_555 1_555
C236 C231 1_555 1_555
H152 C236 1_555 1_555
C237 C228 1_555 1_555
C238 C230 1_555 1_555
H153 C238 1_555 1_555
C239 C251 1_555 1_555
C240 C237 1_555 1_555
H154 C240 1_555 1_555
C241 H155 1_555 1_555
C242 C249 1_555 1_555
C243 C247 1_555 1_555
C244 C231 1_555 1_555
C245 C253 1_555 1_555
C246 C228 1_555 1_555
C247 N28 1_555 1_555
C248 H156 1_555 1_555
C249 H157 1_555 1_555
C250 H158 1_555 1_555
C251 C260 1_555 1_555
C252 N25 1_555 1_555
C253 C269 1_555 1_555
C254 C241 1_555 1_555
H159 C254 1_555 1_555
C255 C229 1_555 1_555
H160 C255 1_555 1_555
C256 C239 1_555 1_555
H161 C256 1_555 1_555
C257 H162 1_555 1_555
H163 C257 1_555 1_555
H164 C257 1_555 1_555
C258 N29 1_555 1_555
C259 C243 1_555 1_555
C260 C241 1_555 1_555
C261 N27 1_555 1_555
C262 H165 1_555 1_555
C263 C234 1_555 1_555
H166 C263 1_555 1_555
C264 C248 1_555 1_555
H167 C264 1_555 1_555
C265 C239 1_555 1_555
H168 C265 1_555 1_555
C266 N30 1_555 1_555
C267 C233 1_555 1_555
H169 C267 1_555 1_555
C268 S5 1_555 1_555
C269 H170 1_555 1_555
C270 C249 1_555 1_555
H171 C270 1_555 1_555
C271 C248 1_555 1_555
H172 C271 1_555 1_555
C272 N26 1_555 1_555
C273 C240 1_555 1_555
H173 C273 1_555 1_555
C274 C266 1_555 1_555
H174 C274 1_555 1_555
C275 C259 1_555 1_555
H175 C275 1_555 1_555
C276 C275 1_555 1_555
H176 C276 1_555 1_555
C277 C276 1_555 1_555
H177 C277 1_555 1_555
C278 H178 1_555 1_555
H179 C278 1_555 1_555
H180 C278 1_555 1_555
C279 C259 1_555 1_555
H181 C279 1_555 1_555
C280 C277 1_555 1_555
H182 C280 1_555 1_555
C281 C236 1_555 1_555
H183 C281 1_555 1_555
C282 C281 1_555 1_555
H184 C282 1_555 1_555
C283 C244 1_555 1_555
H185 C283 1_555 1_555
B9 O9 1_555 1_555
B10 O10 1_555 1_555
S6 C297 1_555 1_555
O11 B12 1_555 1_555
O12 C338 1_555 1_555
N31 C292 1_555 1_555
N32 C287 1_555 1_555
N33 C294 1_555 1_555
N34 C288 1_555 1_555
N35 C304 1_555 1_555
N36 C306 1_555 1_555
C284 H186 1_555 1_555
C285 H187 1_555 1_555
C286 C284 1_555 1_555
H188 C286 1_555 1_555
C287 C284 1_555 1_555
C288 C297 1_555 1_555
C289 C293 1_555 1_555
C290 C292 1_555 1_555
C291 H189 1_555 1_555
C292 C295 1_555 1_555
C293 C298 1_555 1_555
C294 C307 1_555 1_555
C295 H190 1_555 1_555
C296 C317 1_555 1_555
C297 C304 1_555 1_555
C298 N32 1_555 1_555
C299 N31 1_555 1_555
C300 H191 1_555 1_555
C301 C289 1_555 1_555
H192 C301 1_555 1_555
C302 C291 1_555 1_555
H193 C302 1_555 1_555
C303 N33 1_555 1_555
C304 C315 1_555 1_555
C305 C290 1_555 1_555
C306 C313 1_555 1_555
C307 S6 1_555 1_555
C308 C294 1_555 1_555
H194 C308 1_555 1_555
C309 N34 1_555 1_555
C310 C285 1_555 1_555
H195 C310 1_555 1_555
C311 N36 1_555 1_555
C312 C303 1_555 1_555
H196 C312 1_555 1_555
C313 C321 1_555 1_555
C314 C311 1_555 1_555
H197 C314 1_555 1_555
C315 H198 1_555 1_555
C316 C289 1_555 1_555
H199 C316 1_555 1_555
C317 H200 1_555 1_555
C318 C315 1_555 1_555
H201 C318 1_555 1_555
C319 C296 1_555 1_555
C320 C316 1_555 1_555
H202 C320 1_555 1_555
C321 N35 1_555 1_555
C322 C300 1_555 1_555
H203 C322 1_555 1_555
C323 C306 1_555 1_555
H204 C323 1_555 1_555
C324 C296 1_555 1_555
H205 C324 1_555 1_555
C325 C295 1_555 1_555
H206 C325 1_555 1_555
C326 C291 1_555 1_555
C327 H207 1_555 1_555
C328 C326 1_555 1_555
H208 C328 1_555 1_555
C329 C317 1_555 1_555
H209 C329 1_555 1_555
C330 H210 1_555 1_555
C331 H211 1_555 1_555
C332 C328 1_555 1_555
H212 C332 1_555 1_555
C333 C330 1_555 1_555
H213 C333 1_555 1_555
C334 C305 1_555 1_555
H214 C334 1_555 1_555
C335 C302 1_555 1_555
H215 C335 1_555 1_555
C336 C305 1_555 1_555
H216 C336 1_555 1_555
C337 C324 1_555 1_555
H217 C337 1_555 1_555
C338 H218 1_555 1_555
H219 C338 1_555 1_555
H220 C338 1_555 1_555
B11 O12 1_555 1_555
B12 N31 1_555 1_555
C339 O11 1_555 1_555
H221 C339 1_555 1_555
H222 C339 1_555 1_555
H223 C339 1_555 1_555
N1 B2 1_555 1_555
N2 B2 1_555 1_555
N3 B2 1_555 1_555
N5 B1 1_555 1_555
N6 B1 1_555 1_555
C6 C26 1_555 1_555
C7 C30 1_555 1_555
C9 C26 1_555 1_555
C12 C16 1_555 1_555
C13 C18 1_555 1_555
C15 C28 1_555 1_555
C18 C24 1_555 1_555
C19 C38 1_555 1_555
C21 C32 1_555 1_555
C22 C46 1_555 1_555
C29 C39 1_555 1_555
C29 C46 1_555 1_555
C30 C34 1_555 1_555
C31 C42 1_555 1_555
C31 C45 1_555 1_555
C32 C36 1_555 1_555
C33 C37 1_555 1_555
C40 C44 1_555 1_555
C49 C50 1_555 1_555
C51 C52 1_555 1_555
C53 C54 1_555 1_555
N8 B3 1_555 1_555
N9 B3 1_555 1_555
N10 B4 1_555 1_555
N11 B4 1_555 1_555
N12 B4 1_555 1_555
C62 C67 1_555 1_555
C63 C66 1_555 1_555
C67 C70 1_555 1_555
C68 C88 1_555 1_555
C69 C85 1_555 1_555
C73 C97 1_555 1_555
C80 C95 1_555 1_555
C81 C85 1_555 1_555
C82 C94 1_555 1_555
C83 C84 1_555 1_555
C86 C96 1_555 1_555
C88 C96 1_555 1_555
C91 C102 1_555 1_555
C99 C104 1_555 1_555
C100 C101 1_555 1_555
C107 C108 1_555 1_555
C107 C109 1_555 1_555
C110 C111 1_555 1_555
N13 B6 1_555 1_555
N14 B6 1_555 1_555
N15 B6 1_555 1_555
N16 B5 1_555 1_555
N17 B5 1_555 1_555
N18 B5 1_555 1_555
C117 C120 1_555 1_555
C123 C146 1_555 1_555
C123 C155 1_555 1_555
C124 C135 1_555 1_555
C124 C143 1_555 1_555
C125 C127 1_555 1_555
C128 C151 1_555 1_555
C132 C162 1_555 1_555
C133 C154 1_555 1_555
C134 C136 1_555 1_555
C139 C141 1_555 1_555
C140 C154 1_555 1_555
C145 C151 1_555 1_555
C148 C162 1_555 1_555
C149 C160 1_555 1_555
C158 C167 1_555 1_555
C159 C161 1_555 1_555
C164 C165 1_555 1_555
C169 C170 1_555 1_555
N19 B7 1_555 1_555
N20 B7 1_555 1_555
N21 B7 1_555 1_555
N23 B8 1_555 1_555
N24 B8 1_555 1_555
C174 C185 1_555 1_555
C180 C183 1_555 1_555
C182 C185 1_555 1_555
C182 C196 1_555 1_555
C184 C193 1_555 1_555
C186 C188 1_555 1_555
C189 C193 1_555 1_555
C191 C203 1_555 1_555
C199 C208 1_555 1_555
C200 C209 1_555 1_555
C204 C210 1_555 1_555
C205 C215 1_555 1_555
C206 C210 1_555 1_555
C207 C213 1_555 1_555
C211 C214 1_555 1_555
C212 C216 1_555 1_555
C218 C220 1_555 1_555
C221 C222 1_555 1_555
C224 C225 1_555 1_555
N25 B9 1_555 1_555
N26 B9 1_555 1_555
N27 B9 1_555 1_555
N28 B10 1_555 1_555
N29 B10 1_555 1_555
N30 B10 1_555 1_555
C232 C244 1_555 1_555
C232 C252 1_555 1_555
C233 C247 1_555 1_555
C234 C237 1_555 1_555
C238 C258 1_555 1_555
C243 C266 1_555 1_555
C245 C258 1_555 1_555
C246 C267 1_555 1_555
C250 C252 1_555 1_555
C250 C255 1_555 1_555
C254 C272 1_555 1_555
C256 C271 1_555 1_555
C261 C268 1_555 1_555
C261 C270 1_555 1_555
C262 C263 1_555 1_555
C262 C273 1_555 1_555
C264 C265 1_555 1_555
C268 C272 1_555 1_555
C269 C274 1_555 1_555
C279 C280 1_555 1_555
C282 C283 1_555 1_555
N32 B12 1_555 1_555
N33 B12 1_555 1_555
N34 B11 1_555 1_555
N35 B11 1_555 1_555
N36 B11 1_555 1_555
C285 C309 1_555 1_555
C286 C298 1_555 1_555
C287 C307 1_555 1_555
C288 C310 1_555 1_555
C290 C303 1_555 1_555
C293 C299 1_555 1_555
C299 C325 1_555 1_555
C300 C301 1_555 1_555
C308 C312 1_555 1_555
C309 C319 1_555 1_555
C311 C319 1_555 1_555
C313 C326 1_555 1_555
C314 C323 1_555 1_555
C318 C321 1_555 1_555
C320 C322 1_555 1_555
C327 C329 1_555 1_555
C327 C337 1_555 1_555
C330 C336 1_555 1_555
C331 C333 1_555 1_555
C331 C334 1_555 1_555
C332 C335 1_555 1_555

#END
