
#######################################################################
#
#                 Cambridge Crystallographic Data Centre
#                                CCDC 
#
#######################################################################
#
# If this CIF has been generated from an entry in the Cambridge 
# Structural Database, then it will include bibliographic, chemical, 
# crystal, experimental, refinement or atomic coordinate data resulting 
# from the CCDC's data processing and validation procedures.
#
#######################################################################

data_AKOSAW
_chemical_formula_moiety         'C10 H9 Br1 Cl1 N3 O2'
_chemical_name_systematic        
'Ethyl (6aS,7R,7aS)-3-bromo-6-chloro-7,7a-dihydro-6aH-cyclopropa[d]imidazo[1,2-b]pyridazine-7-carboxylate'
_symmetry_cell_setting           orthorhombic
_symmetry_space_group_name_H-M   'P 21 21 21'
_symmetry_Int_Tables_number      19
_space_group_name_Hall           'P 2ac 2ab'
loop_
_symmetry_equiv_pos_site_id
_symmetry_equiv_pos_as_xyz
1 x,y,z
2 1/2-x,-y,1/2+z
3 -x,1/2+y,1/2-z
4 1/2+x,1/2-y,-z
_cell_length_a                   8.4770(3)
_cell_length_b                   10.9753(4)
_cell_length_c                   25.6472(9)
_cell_angle_alpha                90
_cell_angle_beta                 90
_cell_angle_gamma                90
_cell_volume                     2386.15
_exptl_crystal_colour            colorless
_exptl_crystal_description       'elongated needle'
_cell_formula_units_Z            8
_exptl_crystal_recrystallization_method chlorobenzene
loop_
_atom_site_label
_atom_site_type_symbol
_atom_site_fract_x
_atom_site_fract_y
_atom_site_fract_z
Br1 Br 0.63663(3) 0.97976(2) 0.47395(2)
Cl1 Cl 0.02182(7) 0.83432(6) 0.43787(2)
O1 O 0.1063(2) 1.11573(17) 0.53168(7)
O2 O -0.1202(2) 1.13641(16) 0.57658(7)
N1 N 0.4117(2) 0.95423(19) 0.61373(8)
C1 C 0.5421(3) 0.9838(2) 0.58386(9)
H1 H 0.6406 1.0108 0.5972
C2 C 0.5081(3) 0.9684(2) 0.53256(9)
N2 N 0.3535(2) 0.92820(18) 0.53024(8)
N3 N 0.2717(2) 0.90140(19) 0.48557(8)
C3 C 0.1301(3) 0.8653(2) 0.49355(9)
C4 C 0.0495(3) 0.8421(2) 0.54346(9)
H2 H -0.0145 0.7657 0.5455
C5 C -0.0042(3) 0.9471(2) 0.57844(9)
H3 H -0.0980 0.9287 0.6007
C6 C 0.1435(3) 0.8745(2) 0.59174(9)
H4 H 0.1344 0.8168 0.6218
C7 C 0.3022(3) 0.9219(2) 0.58095(9)
C8 C 0.0044(3) 1.0748(2) 0.55887(10)
C9 C -0.1367(3) 1.2623(2) 0.55904(11)
H5 H -0.1714 1.2648 0.5222
H6 H -0.0348 1.3058 0.5620
C10 C -0.2573(4) 1.3202(3) 0.59333(14)
H7 H -0.2664 1.4069 0.5846
H8 H -0.2253 1.3116 0.6299
H9 H -0.3594 1.2802 0.5880
Br2 Br 0.92432(3) 0.72992(2) 0.29149(2)
Cl2 Cl 0.32607(7) 0.84146(7) 0.35323(2)
O3 O 0.4404(2) 0.73831(16) 0.20498(7)
O4 O 0.2331(2) 0.79054(17) 0.15462(7)
N4 N 0.7496(2) 0.9817(2) 0.18909(8)
C11 C 0.8710(3) 0.9070(2) 0.20632(10)
H10 H 0.9720 0.9011 0.1905
C12 C 0.8248(3) 0.8437(2) 0.24892(10)
N5 N 0.6713(2) 0.88009(19) 0.25895(7)
N6 N 0.5810(2) 0.8405(2) 0.30034(8)
C13 C 0.4428(3) 0.8861(2) 0.30141(9)
C14 C 0.3709(3) 0.9750(2) 0.26557(9)
H11 H 0.3029 1.0389 0.2820
C15 C 0.3293(3) 0.9396(2) 0.20928(10)
H12 H 0.2387 0.9858 0.1940
C16 C 0.4747(3) 1.0168(2) 0.22105(9)
H13 H 0.4683 1.1050 0.2116
C17 C 0.6324(3) 0.9623(2) 0.22111(9)
C18 C 0.3443(3) 0.8117(2) 0.19066(9)
C19 C 0.2271(3) 0.6685(3) 0.13299(11)
H14 H 0.3348 0.6338 0.1317
H15 H 0.1856 0.6718 0.0969
C20 C 0.1225(4) 0.5882(3) 0.16597(12)
H16 H 0.1169 0.5067 0.1504
H17 H 0.0164 0.6234 0.1676
H18 H 0.1663 0.5824 0.2012
loop_
_geom_bond_atom_site_label_1
_geom_bond_atom_site_label_2
_geom_bond_site_symmetry_1
_geom_bond_site_symmetry_2
Br1 C2 1_555 1_555
Cl1 C3 1_555 1_555
O1 C8 1_555 1_555
O2 C8 1_555 1_555
N1 C1 1_555 1_555
C1 H1 1_555 1_555
C2 C1 1_555 1_555
N2 C2 1_555 1_555
N3 N2 1_555 1_555
C3 N3 1_555 1_555
C4 C3 1_555 1_555
H2 C4 1_555 1_555
C5 C4 1_555 1_555
H3 C5 1_555 1_555
C6 C4 1_555 1_555
H4 C6 1_555 1_555
C7 N1 1_555 1_555
C8 C5 1_555 1_555
C9 O2 1_555 1_555
H5 C9 1_555 1_555
H6 C9 1_555 1_555
C10 C9 1_555 1_555
H7 C10 1_555 1_555
H8 C10 1_555 1_555
H9 C10 1_555 1_555
Br2 C12 1_555 1_555
Cl2 C13 1_555 1_555
O3 C18 1_555 1_555
O4 C18 1_555 1_555
N4 C11 1_555 1_555
C11 H10 1_555 1_555
C12 C11 1_555 1_555
N5 C12 1_555 1_555
N6 N5 1_555 1_555
C13 N6 1_555 1_555
C14 C13 1_555 1_555
H11 C14 1_555 1_555
C15 C14 1_555 1_555
H12 C15 1_555 1_555
C16 C14 1_555 1_555
H13 C16 1_555 1_555
C17 N4 1_555 1_555
C18 C15 1_555 1_555
C19 O4 1_555 1_555
H14 C19 1_555 1_555
H15 C19 1_555 1_555
C20 C19 1_555 1_555
H16 C20 1_555 1_555
H17 C20 1_555 1_555
H18 C20 1_555 1_555
N2 C7 1_555 1_555
C5 C6 1_555 1_555
C6 C7 1_555 1_555
N5 C17 1_555 1_555
C15 C16 1_555 1_555
C16 C17 1_555 1_555

#END
