
#######################################################################
#
#                 Cambridge Crystallographic Data Centre
#                                CCDC 
#
#######################################################################
#
# If this CIF has been generated from an entry in the Cambridge 
# Structural Database, then it will include bibliographic, chemical, 
# crystal, experimental, refinement or atomic coordinate data resulting 
# from the CCDC's data processing and validation procedures.
#
#######################################################################

data_AKOWII
_chemical_formula_moiety         'C21 H16 Cl1 F7 N4 O6'
_chemical_name_systematic        
1-(1-(4-chlorophenyl)-4,4,5,5,6,6,6-heptafluoro-3-(2-methoxyethoxy)hex-2-en-1-ylidene)-2-(2,4-dinitrophenyl)hydrazine
_symmetry_cell_setting           monoclinic
_symmetry_space_group_name_H-M   'P 21/c'
_symmetry_Int_Tables_number      14
_space_group_name_Hall           '-P 2ybc'
loop_
_symmetry_equiv_pos_site_id
_symmetry_equiv_pos_as_xyz
1 x,y,z
2 -x,1/2+y,1/2-z
3 -x,-y,-z
4 x,1/2-y,1/2+z
_cell_length_a                   13.1005(6)
_cell_length_b                   15.4782(8)
_cell_length_c                   11.8098(6)
_cell_angle_alpha                90
_cell_angle_beta                 96.7040(14)
_cell_angle_gamma                90
_cell_volume                     2378.32
_exptl_crystal_colour            yellow
_exptl_crystal_description       block
_cell_formula_units_Z            4
loop_
_atom_site_label
_atom_site_type_symbol
_atom_site_fract_x
_atom_site_fract_y
_atom_site_fract_z
Cl1 Cl 0.75780(4) 0.80088(3) 0.22213(4)
O1 O 0.29331(10) 0.57430(8) 1.02780(11)
O2 O 0.29402(10) 0.43680(9) 1.05711(11)
O3 O 0.50961(10) 0.25491(8) 0.87436(12)
O4 O 0.58851(9) 0.29541(8) 0.73381(11)
O5 O 0.82609(9) 0.39659(7) 0.67662(9)
O6 O 1.01306(9) 0.48869(9) 0.76766(10)
N1 N 0.60016(10) 0.52448(9) 0.59919(11)
H1 H 0.6017(14) 0.4055(12) 0.6554(15)
N2 N 0.57863(10) 0.45585(9) 0.66567(12)
N3 N 0.31931(10) 0.50066(10) 1.00600(12)
N4 N 0.53208(10) 0.31051(9) 0.80801(12)
F1 F 0.74516(8) 0.26002(6) 0.44784(9)
F2 F 0.78703(8) 0.23034(6) 0.62716(9)
F3 F 0.92599(10) 0.19365(7) 0.47736(12)
F4 F 0.97788(8) 0.27614(8) 0.62206(11)
F5 F 0.96609(9) 0.41537(7) 0.48670(11)
F6 F 0.89638(12) 0.34250(10) 0.34465(11)
F7 F 1.05102(11) 0.31381(10) 0.41930(16)
C1 C 0.73298(13) 0.71779(11) 0.31339(14)
C2 C 0.65365(13) 0.72645(11) 0.37998(14)
H2 H 0.6151 0.7785 0.3784
C3 C 0.63097(12) 0.65870(10) 0.44887(13)
H3 H 0.5765 0.6643 0.4949
C4 C 0.68716(12) 0.58211(10) 0.45163(13)
C5 C 0.76796(13) 0.57577(11) 0.38490(14)
H4 H 0.8075 0.5242 0.3867
C6 C 0.79122(13) 0.64359(11) 0.31623(14)
H5 H 0.8467 0.6391 0.2715
C7 C 0.66335(11) 0.50933(10) 0.52522(13)
C8 C 0.51597(11) 0.46640(10) 0.74789(13)
C9 C 0.47315(12) 0.54814(11) 0.76780(14)
H6 H 0.4891 0.5961 0.7229
C10 C 0.40927(12) 0.55967(11) 0.85032(14)
H7 H 0.3818 0.6152 0.8631
C11 C 0.38481(12) 0.48896(11) 0.91554(13)
C12 C 0.42396(11) 0.40840(11) 0.89964(13)
H8 H 0.4058 0.3609 0.9442
C13 C 0.49040(11) 0.39691(10) 0.81766(13)
C14 C 0.70748(12) 0.42293(10) 0.50616(13)
H9 H 0.6849 0.3968 0.4348
C15 C 0.77433(12) 0.37697(10) 0.57526(13)
C16 C 0.83282(13) 0.48602(10) 0.71142(14)
H10 H 0.7665 0.5052 0.7353
H11 H 0.8484 0.5227 0.6469
C17 C 0.91620(12) 0.49456(11) 0.80853(14)
H12 H 0.9100 0.5509 0.8469
H13 H 0.9095 0.4482 0.8649
C18 C 1.09294(15) 0.50648(17) 0.85559(18)
H14 H 1.0811 0.5630 0.8892
H15 H 1.1589 0.5071 0.8241
H16 H 1.0942 0.4617 0.9144
C19 C 0.80363(13) 0.28612(10) 0.54281(14)
C20 C 0.91710(15) 0.27315(12) 0.52223(17)
C21 C 0.95865(16) 0.33746(14) 0.44153(19)
loop_
_geom_bond_atom_site_label_1
_geom_bond_atom_site_label_2
_geom_bond_site_symmetry_1
_geom_bond_site_symmetry_2
Cl1 C1 1_555 1_555
O1 N3 1_555 1_555
O2 N3 1_555 1_555
O3 N4 1_555 1_555
O4 N4 1_555 1_555
O5 C15 1_555 1_555
O6 C17 1_555 1_555
N1 N2 1_555 1_555
H1 N2 1_555 1_555
N2 C8 1_555 1_555
N3 C11 1_555 1_555
N4 C13 1_555 1_555
F1 C19 1_555 1_555
F2 C19 1_555 1_555
F3 C20 1_555 1_555
F4 C20 1_555 1_555
F5 C21 1_555 1_555
F6 C21 1_555 1_555
F7 C21 1_555 1_555
C1 C2 1_555 1_555
C2 H2 1_555 1_555
C3 C2 1_555 1_555
H3 C3 1_555 1_555
C4 C3 1_555 1_555
C5 C4 1_555 1_555
H4 C5 1_555 1_555
C6 C1 1_555 1_555
H5 C6 1_555 1_555
C7 N1 1_555 1_555
C8 C9 1_555 1_555
C9 H6 1_555 1_555
C10 C9 1_555 1_555
H7 C10 1_555 1_555
C11 C10 1_555 1_555
C12 C11 1_555 1_555
H8 C12 1_555 1_555
C13 C8 1_555 1_555
C14 C7 1_555 1_555
H9 C14 1_555 1_555
C15 C14 1_555 1_555
C16 O5 1_555 1_555
H10 C16 1_555 1_555
H11 C16 1_555 1_555
C17 C16 1_555 1_555
H12 C17 1_555 1_555
H13 C17 1_555 1_555
C18 O6 1_555 1_555
H14 C18 1_555 1_555
H15 C18 1_555 1_555
H16 C18 1_555 1_555
C19 C15 1_555 1_555
C20 C19 1_555 1_555
C21 C20 1_555 1_555
C4 C7 1_555 1_555
C5 C6 1_555 1_555
C12 C13 1_555 1_555

#END
