
#######################################################################
#
#                 Cambridge Crystallographic Data Centre
#                                CCDC 
#
#######################################################################
#
# If this CIF has been generated from an entry in the Cambridge 
# Structural Database, then it will include bibliographic, chemical, 
# crystal, experimental, refinement or atomic coordinate data resulting 
# from the CCDC's data processing and validation procedures.
#
#######################################################################

data_AKOZAB
_chemical_formula_moiety         'C13 H14 Cl2 O3'
_chemical_name_systematic        
"(2S,2'S)-(3,4-Dichlorophenyl)(tetrahydropyran-2-yl)acetic acid"
_symmetry_cell_setting           monoclinic
_symmetry_space_group_name_H-M   'P 21'
_symmetry_Int_Tables_number      4
_space_group_name_Hall           'P 2yb'
loop_
_symmetry_equiv_pos_site_id
_symmetry_equiv_pos_as_xyz
1 x,y,z
2 -x,1/2+y,-z
_cell_length_a                   11.988(1)
_cell_length_b                   8.222(1)
_cell_length_c                   14.539(1)
_cell_angle_alpha                90
_cell_angle_beta                 104.35(1)
_cell_angle_gamma                90
_cell_volume                     1388.33
_chemical_melting_point          '139.1-140 deg.C'
_cell_formula_units_Z            4
_exptl_crystal_recrystallization_method pentane
loop_
_atom_site_label
_atom_site_type_symbol
_atom_site_fract_x
_atom_site_fract_y
_atom_site_fract_z
Cl1 Cl -0.0598(2) -0.1857(3) 1.3165(2)
C1 C 0.2684(4) -0.1966(8) 1.1426(4)
Cl2 Cl 0.0845(2) 0.0691(3) 1.4626(1)
C2 C 0.2243(4) -0.1297(7) 1.2242(4)
C3 C 0.1162(5) -0.1760(8) 1.2338(4)
C4 C 0.0737(5) -0.1184(8) 1.3067(4)
C5 C 0.1365(5) -0.0099(9) 1.3719(4)
C6 C 0.2453(5) 0.0355(9) 1.3638(4)
C7 C 0.2877(5) -0.0234(8) 1.2907(4)
C8 C 0.3198(5) -0.0664(8) 1.0897(4)
O1 O 0.3723(4) -0.1537(6) 1.0278(3)
C9 C 0.4303(6) -0.0453(12) 0.9780(5)
C10 C 0.3485(7) 0.0726(11) 0.9163(5)
C11 C 0.2833(7) 0.1667(10) 0.9761(5)
C12 C 0.2308(6) 0.0498(10) 1.0352(5)
C13 C 0.3535(5) -0.3313(8) 1.1800(4)
O2 O 0.4497(4) -0.2933(6) 1.2347(3)
O3 O 0.3243(4) -0.4750(5) 1.1554(3)
H1 H 0.2028 -0.2454 1.0970
H2 H 0.0720 -0.2473 1.1898
H3 H 0.2896 0.1062 1.4080
H4 H 0.3604 0.0089 1.2859
H5 H 0.3788 -0.0053 1.1353
H6 H 0.4691 -0.1081 0.9387
H7 H 0.4883 0.0151 1.0236
H8 H 0.2945 0.0137 0.8667
H9 H 0.3911 0.1475 0.8863
H10 H 0.2228 0.2303 0.9351
H11 H 0.3354 0.2408 1.0177
H12 H 0.1983 0.1114 1.0791
H13 H 0.1691 -0.0110 0.9937
H14 H 0.4820(70) -0.362(13) 1.2590(60)
Cl3 Cl 0.9022(2) -0.9366(2) 1.0702(1)
C14 C 0.6458(4) -0.8171(7) 1.3043(4)
Cl4 Cl 1.0710(2) -0.6550(3) 1.1694(2)
C15 C 0.7546(5) -0.7776(8) 1.2708(4)
C16 C 0.7769(5) -0.8623(8) 1.1948(4)
C17 C 0.8756(5) -0.8274(8) 1.1624(4)
C18 C 0.9501(5) -0.7067(8) 1.2086(4)
C19 C 0.9276(5) -0.6219(9) 1.2816(5)
C20 C 0.8303(5) -0.6576(8) 1.3136(4)
C21 C 0.6708(4) -0.8404(8) 1.4122(6)
O4 O 0.5605(3) -0.8673(6) 1.4309(2)
C22 C 0.5690(5) -0.8815(11) 1.5302(4)
C23 C 0.6450(5) -1.0197(10) 1.5733(4)
C24 C 0.7624(5) -1.0050(10) 1.5537(4)
C25 C 0.7496(5) -0.9817(9) 1.4485(4)
C26 C 0.5594(4) -0.6783(8) 1.2747(3)
O5 O 0.4666(4) -0.7147(6) 1.2160(3)
O6 O 0.5846(3) -0.5414(5) 1.3082(3)
H15 H 0.6117 -0.9173 1.2731
H16 H 0.7263 -0.9429 1.1651
H17 H 0.9772 -0.5395 1.3105
H18 H 0.8161 -0.6000 1.3645
H19 H 0.7045 -0.7405 1.4440
H20 H 0.4928 -0.8980 1.5403
H21 H 0.5996 -0.7811 1.5616
H22 H 0.6098 -1.1214 1.5474
H23 H 0.6531 -1.0211 1.6413
H24 H 0.8068 -1.1025 1.5750
H25 H 0.8031 -0.9131 1.5883
H26 H 0.8246 -0.9616 1.4368
H27 H 0.7185 -1.0799 1.4149
H28 H 0.4290(70) -0.647(12) 1.1880(60)
loop_
_geom_bond_atom_site_label_1
_geom_bond_atom_site_label_2
_geom_bond_site_symmetry_1
_geom_bond_site_symmetry_2
Cl1 C4 1_555 1_555
C1 C2 1_555 1_555
Cl2 C5 1_555 1_555
C2 C3 1_555 1_555
C3 C4 1_555 1_555
C4 C5 1_555 1_555
C5 C6 1_555 1_555
C6 C7 1_555 1_555
C7 C2 1_555 1_555
C8 C1 1_555 1_555
O1 C8 1_555 1_555
C9 O1 1_555 1_555
C10 C9 1_555 1_555
C11 C10 1_555 1_555
C12 C8 1_555 1_555
C13 C1 1_555 1_555
O2 C13 1_555 1_555
O3 C13 1_555 1_555
Cl3 C17 1_555 1_555
C14 C15 1_555 1_555
Cl4 C18 1_555 1_555
C15 C16 1_555 1_555
C16 C17 1_555 1_555
C17 C18 1_555 1_555
C18 C19 1_555 1_555
C19 C20 1_555 1_555
C20 C15 1_555 1_555
C21 C14 1_555 1_555
O4 C21 1_555 1_555
C22 O4 1_555 1_555
C23 C22 1_555 1_555
C24 C23 1_555 1_555
C25 C21 1_555 1_555
C26 C14 1_555 1_555
O5 C26 1_555 1_555
O6 C26 1_555 1_555
H1 C1 1_555 1_555
H2 C3 1_555 1_555
H3 C6 1_555 1_555
H4 C7 1_555 1_555
H5 C8 1_555 1_555
H6 C9 1_555 1_555
H7 C9 1_555 1_555
H8 C10 1_555 1_555
H9 C10 1_555 1_555
H10 C11 1_555 1_555
H11 C11 1_555 1_555
H12 C12 1_555 1_555
H13 C12 1_555 1_555
H14 O2 1_555 1_555
H15 C14 1_555 1_555
H16 C16 1_555 1_555
H17 C19 1_555 1_555
H18 C20 1_555 1_555
H19 C21 1_555 1_555
H20 C22 1_555 1_555
H21 C22 1_555 1_555
H22 C23 1_555 1_555
H23 C23 1_555 1_555
H24 C24 1_555 1_555
H25 C24 1_555 1_555
H26 C25 1_555 1_555
H27 C25 1_555 1_555
H28 O5 1_555 1_555
C11 C12 1_555 1_555
C24 C25 1_555 1_555

#END
