
#######################################################################
#
#                 Cambridge Crystallographic Data Centre
#                                CCDC 
#
#######################################################################
#
# If this CIF has been generated from an entry in the Cambridge 
# Structural Database, then it will include bibliographic, chemical, 
# crystal, experimental, refinement or atomic coordinate data resulting 
# from the CCDC's data processing and validation procedures.
#
#######################################################################

data_AKUDIV
_chemical_formula_moiety         'C22 H14 F5 N1 O4'
_chemical_name_systematic        
"methyl 5'-methoxy-2'-((pentafluorophenyl)carbamoyl)biphenyl-4-carboxylate"
_symmetry_cell_setting           monoclinic
_symmetry_space_group_name_H-M   'P 21/c'
_symmetry_Int_Tables_number      14
_space_group_name_Hall           '-P 2ybc'
loop_
_symmetry_equiv_pos_site_id
_symmetry_equiv_pos_as_xyz
1 x,y,z
2 -x,1/2+y,1/2-z
3 -x,-y,-z
4 x,1/2-y,1/2+z
_cell_length_a                   9.0667(19)
_cell_length_b                   11.320(2)
_cell_length_c                   19.536(4)
_cell_angle_alpha                90
_cell_angle_beta                 100.124(3)
_cell_angle_gamma                90
_cell_volume                     1973.86
_exptl_crystal_colour            colorless
_exptl_crystal_description       block
_cell_formula_units_Z            4
loop_
_atom_site_label
_atom_site_type_symbol
_atom_site_fract_x
_atom_site_fract_y
_atom_site_fract_z
N1 N 0.83138(18) 0.73404(14) 0.32031(7)
H1 H 0.7942 0.6816 0.3442
O1 O 0.6018(2) 0.27605(12) 0.14356(8)
O2 O 0.87103(15) 0.78953(13) 0.21375(7)
O3 O 0.2580(2) 1.07095(14) 0.07862(8)
O4 O 0.26526(17) 0.98927(12) -0.02387(7)
C1 C 0.5919(2) 0.48162(17) 0.14381(9)
H2 H 0.5112 0.4757 0.1073
C2 C 0.6614(2) 0.37881(17) 0.17244(10)
C3 C 0.7818(2) 0.38648(18) 0.22649(10)
H3 H 0.8299 0.3185 0.2457
C4 C 0.8295(2) 0.49662(18) 0.25162(10)
H4 H 0.9103 0.5018 0.2881
C5 C 0.7604(2) 0.59985(16) 0.22404(9)
C6 C 0.63996(19) 0.59262(16) 0.16823(9)
C7 C 0.55768(19) 0.69848(16) 0.13586(9)
C8 C 0.5163(2) 0.70690(16) 0.06403(9)
H5 H 0.5442 0.6475 0.0360
C9 C 0.4343(2) 0.80199(16) 0.03362(9)
H6 H 0.4074 0.8060 -0.0145
C10 C 0.3923(2) 0.89122(16) 0.07448(9)
C11 C 0.4351(2) 0.88460(16) 0.14634(9)
H7 H 0.4089 0.9449 0.1743
C12 C 0.5161(2) 0.78917(16) 0.17630(9)
H8 H 0.5433 0.7855 0.2244
C13 C 0.2989(2) 0.99311(17) 0.04468(10)
C14 C 0.1696(3) 1.0817(2) -0.05811(12)
H9 H 0.0701 1.0719 -0.0484
H10 H 0.1670 1.0774 -0.1074
H11 H 0.2081 1.1573 -0.0412
C15 C 0.6601(3) 0.16743(19) 0.17378(12)
H12 H 0.7655 0.1632 0.1729
H13 H 0.6099 0.1026 0.1478
H14 H 0.6441 0.1632 0.2210
C16 C 0.8255(2) 0.71614(16) 0.25045(9)
C17 C 0.8971(2) 0.83644(17) 0.35380(9)
C18 C 0.8426(2) 0.94820(18) 0.33535(10)
C19 C 0.9110(3) 1.04817(18) 0.36539(11)
C20 C 1.0356(3) 1.03786(19) 0.41602(10)
C21 C 1.0905(2) 0.9286(2) 0.43652(10)
C22 C 1.0213(2) 0.82940(18) 0.40599(9)
F1 F 0.71945(15) 0.96096(11) 0.28689(7)
F2 F 0.85409(19) 1.15489(11) 0.34711(8)
F3 F 1.10316(17) 1.13464(12) 0.44629(7)
F4 F 1.21196(15) 0.91908(14) 0.48658(7)
F5 F 1.07683(16) 0.72301(11) 0.42614(6)
loop_
_geom_bond_atom_site_label_1
_geom_bond_atom_site_label_2
_geom_bond_site_symmetry_1
_geom_bond_site_symmetry_2
N1 H1 1_555 1_555
O1 C2 1_555 1_555
O2 C16 1_555 1_555
O3 C13 1_555 1_555
O4 C13 1_555 1_555
C1 H2 1_555 1_555
C2 C1 1_555 1_555
C3 C2 1_555 1_555
H3 C3 1_555 1_555
C4 C3 1_555 1_555
H4 C4 1_555 1_555
C5 C4 1_555 1_555
C6 C1 1_555 1_555
C7 C6 1_555 1_555
C8 C7 1_555 1_555
H5 C8 1_555 1_555
C9 C8 1_555 1_555
H6 C9 1_555 1_555
C10 C9 1_555 1_555
C11 C10 1_555 1_555
H7 C11 1_555 1_555
C12 C7 1_555 1_555
H8 C12 1_555 1_555
C13 C10 1_555 1_555
C14 O4 1_555 1_555
H9 C14 1_555 1_555
H10 C14 1_555 1_555
H11 C14 1_555 1_555
C15 O1 1_555 1_555
H12 C15 1_555 1_555
H13 C15 1_555 1_555
H14 C15 1_555 1_555
C16 N1 1_555 1_555
C17 N1 1_555 1_555
C18 C17 1_555 1_555
C19 C18 1_555 1_555
C20 C19 1_555 1_555
C21 C20 1_555 1_555
C22 C17 1_555 1_555
F1 C18 1_555 1_555
F2 C19 1_555 1_555
F3 C20 1_555 1_555
F4 C21 1_555 1_555
F5 C22 1_555 1_555
C5 C6 1_555 1_555
C5 C16 1_555 1_555
C11 C12 1_555 1_555
C21 C22 1_555 1_555

#END
