
#######################################################################
#
#                 Cambridge Crystallographic Data Centre
#                                CCDC 
#
#######################################################################
#
# If this CIF has been generated from an entry in the Cambridge 
# Structural Database, then it will include bibliographic, chemical, 
# crystal, experimental, refinement or atomic coordinate data resulting 
# from the CCDC's data processing and validation procedures.
#
#######################################################################

data_AKUHAR
_chemical_formula_moiety         'C26 H22 N3 O2 P1'
_chemical_name_systematic        
4-((diphenylphosphoryl)methyl)-5-methyl-1-oxo-1,3,4,5-tetrahydro-2H-pyrido[4,3-b]indole-2-carbonitrile
_symmetry_cell_setting           monoclinic
_symmetry_space_group_name_H-M   'P 21/c'
_symmetry_Int_Tables_number      14
_space_group_name_Hall           '-P 2ybc'
loop_
_symmetry_equiv_pos_site_id
_symmetry_equiv_pos_as_xyz
1 x,y,z
2 -x,1/2+y,1/2-z
3 -x,-y,-z
4 x,1/2-y,1/2+z
_cell_length_a                   10.7040(7)
_cell_length_b                   21.3272(11)
_cell_length_c                   11.2625(6)
_cell_angle_alpha                90
_cell_angle_beta                 120.672(4)
_cell_angle_gamma                90
_cell_volume                     2211.39
_exptl_crystal_colour            white
_exptl_crystal_description       Prism
_cell_formula_units_Z            4
loop_
_atom_site_label
_atom_site_type_symbol
_atom_site_fract_x
_atom_site_fract_y
_atom_site_fract_z
P1 P -0.14603(4) -0.154032(17) -0.55970(4)
O1 O -0.43788(12) 0.08260(5) -0.45762(12)
O2 O -0.07375(12) -0.10960(5) -0.60751(12)
N1 N -0.12762(14) -0.06717(6) -0.15662(13)
N2 N -0.29296(15) 0.03024(6) -0.51872(14)
N3 N -0.3955(2) 0.08911(9) -0.73932(19)
C1 C -0.28076(17) 0.01169(7) -0.17915(16)
C2 C -0.35688(19) 0.04994(8) -0.13653(18)
H1 H -0.4181 0.0815 -0.1936
C3 C -0.3387(2) 0.03966(9) -0.0076(2)
H2 H -0.3897 0.0643 0.0216
C4 C -0.2456(2) -0.00686(10) 0.0798(2)
H3 H -0.2343 -0.0120 0.1667
C5 C -0.1697(2) -0.04543(9) 0.04040(19)
H4 H -0.1080 -0.0766 0.0986
C6 C -0.18964(18) -0.03575(7) -0.09033(16)
C7 C -0.0200(2) -0.11720(8) -0.0948(2)
H5 H 0.0034 -0.1326 -0.1613
H6 H -0.0588 -0.1508 -0.0665
H7 H 0.0662 -0.1012 -0.0159
C8 C -0.17523(16) -0.04012(7) -0.28150(15)
C9 C -0.26919(16) 0.00834(7) -0.30106(15)
C10 C -0.34205(16) 0.04396(7) -0.42617(15)
C11 C -0.3506(2) 0.06253(8) -0.63746(19)
C12 C -0.15149(17) -0.00140(7) -0.47082(18)
H8 H -0.0731 0.0275 -0.4151
H9 H -0.1439 -0.0132 -0.5501
C13 C -0.13623(16) -0.05954(7) -0.38619(16)
H10 H -0.0344 -0.0730 -0.3378
C14 C -0.23179(16) -0.11426(7) -0.47750(16)
H11 H -0.3256 -0.0982 -0.5477
H12 H -0.2476 -0.1439 -0.4211
C15 C -0.02027(16) -0.20965(7) -0.43601(15)
C16 C -0.05714(19) -0.25059(8) -0.36162(17)
H13 H -0.1475 -0.2472 -0.3690
C17 C 0.0392(2) -0.29599(9) -0.27742(17)
H14 H 0.0136 -0.3232 -0.2288
C18 C 0.1738(2) -0.30102(10) -0.26547(19)
H15 H 0.2380 -0.3322 -0.2102
C19 C 0.2134(2) -0.26006(10) -0.3350(2)
H16 H 0.3051 -0.2630 -0.3248
C20 C 0.11706(17) -0.21454(9) -0.42009(18)
H17 H 0.1443 -0.1870 -0.4670
C21 C -0.28458(16) -0.19835(7) -0.70369(16)
C22 C -0.3551(2) -0.16846(9) -0.83140(18)
H18 H -0.3348 -0.1266 -0.8379
C23 C -0.4551(2) -0.20049(11) -0.9489(2)
H19 H -0.5028 -0.1801 -1.0338
C24 C -0.4835(2) -0.26243(11) -0.9393(2)
H20 H -0.5495 -0.2841 -1.0184
C25 C -0.4159(2) -0.29260(10) -0.8151(2)
H21 H -0.4362 -0.3346 -0.8100
C26 C -0.31710(19) -0.26080(8) -0.69648(19)
H22 H -0.2724 -0.2813 -0.6118
loop_
_geom_bond_atom_site_label_1
_geom_bond_atom_site_label_2
_geom_bond_site_symmetry_1
_geom_bond_site_symmetry_2
P1 O2 1_555 1_555
O1 C10 1_555 1_555
N1 C6 1_555 1_555
N2 C10 1_555 1_555
N3 C11 1_555 1_555
C1 C2 1_555 1_555
C2 H1 1_555 1_555
C3 C2 1_555 1_555
H2 C3 1_555 1_555
C4 C3 1_555 1_555
H3 C4 1_555 1_555
C5 C4 1_555 1_555
H4 C5 1_555 1_555
C6 C1 1_555 1_555
C7 N1 1_555 1_555
H5 C7 1_555 1_555
H6 C7 1_555 1_555
H7 C7 1_555 1_555
C8 N1 1_555 1_555
C9 C1 1_555 1_555
C10 C9 1_555 1_555
C11 N2 1_555 1_555
C12 N2 1_555 1_555
H8 C12 1_555 1_555
H9 C12 1_555 1_555
C13 C8 1_555 1_555
H10 C13 1_555 1_555
C14 P1 1_555 1_555
H11 C14 1_555 1_555
H12 C14 1_555 1_555
C15 P1 1_555 1_555
C16 C15 1_555 1_555
H13 C16 1_555 1_555
C17 C16 1_555 1_555
H14 C17 1_555 1_555
C18 C17 1_555 1_555
H15 C18 1_555 1_555
C19 C18 1_555 1_555
H16 C19 1_555 1_555
C20 C15 1_555 1_555
H17 C20 1_555 1_555
C21 P1 1_555 1_555
C22 C21 1_555 1_555
H18 C22 1_555 1_555
C23 C22 1_555 1_555
H19 C23 1_555 1_555
C24 C23 1_555 1_555
H20 C24 1_555 1_555
C25 C24 1_555 1_555
H21 C25 1_555 1_555
C26 C21 1_555 1_555
H22 C26 1_555 1_555
C5 C6 1_555 1_555
C8 C9 1_555 1_555
C12 C13 1_555 1_555
C13 C14 1_555 1_555
C19 C20 1_555 1_555
C25 C26 1_555 1_555

#END
