
#######################################################################
#
#                 Cambridge Crystallographic Data Centre
#                                CCDC 
#
#######################################################################
#
# If this CIF has been generated from an entry in the Cambridge 
# Structural Database, then it will include bibliographic, chemical, 
# crystal, experimental, refinement or atomic coordinate data resulting 
# from the CCDC's data processing and validation procedures.
#
#######################################################################

data_AKUJUM
_chemical_formula_moiety         'C21 H33 N3 Si1'
_chemical_name_systematic        
N-(1,3-Dicyclohexyl-2,2-dimethyl-1,3,2-diazasiletidin-4-ylidene)aniline
_symmetry_cell_setting           monoclinic
_symmetry_space_group_name_H-M   'P 21/n'
_symmetry_Int_Tables_number      14
_space_group_name_Hall           '-P 2yn'
loop_
_symmetry_equiv_pos_site_id
_symmetry_equiv_pos_as_xyz
1 x,y,z
2 1/2-x,1/2+y,1/2-z
3 -x,-y,-z
4 1/2+x,1/2-y,1/2+z
_cell_length_a                   6.438(2)
_cell_length_b                   26.097(9)
_cell_length_c                   12.577(4)
_cell_angle_alpha                90
_cell_angle_beta                 96.660(6)
_cell_angle_gamma                90
_cell_volume                     2098.83
_cell_formula_units_Z            4
loop_
_atom_site_label
_atom_site_type_symbol
_atom_site_fract_x
_atom_site_fract_y
_atom_site_fract_z
Si1 Si 0.1456(2) 0.22186(4) 0.18662(10)
N1 N 0.0685(6) 0.17196(12) 0.2662(2)
N2 N 0.0524(6) 0.25294(12) 0.2921(2)
N3 N -0.1050(6) 0.20366(13) 0.4198(3)
C1 C -0.0099(7) 0.20702(15) 0.3382(4)
C2 C 0.4280(6) 0.22628(14) 0.1757(3)
H1 H 0.4491 0.2329 0.1026
H2 H 0.4944 0.1946 0.1985
H3 H 0.4875 0.2537 0.2202
C3 C -0.0097(7) 0.23068(15) 0.0554(3)
H4 H 0.0825 0.2365 0.0018
H5 H -0.1009 0.2596 0.0584
H6 H -0.0915 0.2005 0.0375
C4 C 0.0174(8) 0.11817(15) 0.2529(3)
H7 H 0.0205 0.1029 0.3243
C5 C 0.1802(7) 0.09195(15) 0.1964(4)
H8 H 0.3158 0.0960 0.2380
H9 H 0.1864 0.1082 0.1274
C6 C 0.1346(9) 0.03505(16) 0.1797(4)
H10 H 0.2363 0.0204 0.1372
H11 H 0.1491 0.0179 0.2485
C7 C -0.0818(9) 0.02591(16) 0.1241(4)
H12 H -0.0900 0.0389 0.0515
H13 H -0.1086 -0.0107 0.1204
C8 C -0.2448(9) 0.05129(17) 0.1805(4)
H14 H -0.2475 0.0359 0.2505
H15 H -0.3810 0.0464 0.1400
C9 C -0.1981(7) 0.10847(16) 0.1929(4)
H16 H -0.2059 0.1241 0.1226
H17 H -0.3033 0.1244 0.2313
C10 C 0.0365(7) 0.30340(14) 0.3417(3)
H18 H 0.0751 0.3000 0.4190
C11 C 0.1918(7) 0.33894(14) 0.2970(3)
H19 H 0.1606 0.3408 0.2198
H20 H 0.3319 0.3252 0.3133
C12 C 0.1833(7) 0.39248(15) 0.3442(4)
H21 H 0.2328 0.3913 0.4200
H22 H 0.2754 0.4150 0.3099
C13 C -0.0351(8) 0.41389(17) 0.3292(4)
H23 H -0.0762 0.4201 0.2537
H24 H -0.0370 0.4465 0.3662
C14 C -0.1905(8) 0.37809(17) 0.3712(4)
H25 H -0.3302 0.3920 0.3551
H26 H -0.1604 0.3754 0.4484
C15 C -0.1823(7) 0.32527(16) 0.3220(4)
H27 H -0.2790 0.3027 0.3530
H28 H -0.2250 0.3274 0.2456
C16 C -0.1496(10) 0.15517(18) 0.4639(3)
C17 C 0.0081(8) 0.1287(2) 0.5263(4)
H29 H 0.1428 0.1420 0.5384
C18 C -0.0400(12) 0.0823(2) 0.5697(4)
H30 H 0.0640 0.0640 0.6109
C19 C -0.2372(13) 0.0628(2) 0.5532(5)
H31 H -0.2649 0.0309 0.5814
C20 C -0.3953(10) 0.0895(2) 0.4959(4)
H32 H -0.5306 0.0765 0.4868
C21 C -0.3505(9) 0.13661(18) 0.4512(3)
H33 H -0.4567 0.1554 0.4128
loop_
_geom_bond_atom_site_label_1
_geom_bond_atom_site_label_2
_geom_bond_site_symmetry_1
_geom_bond_site_symmetry_2
Si1 N1 1_555 1_555
N1 C1 1_555 1_555
N2 Si1 1_555 1_555
N3 C1 1_555 1_555
C1 N2 1_555 1_555
C2 Si1 1_555 1_555
H1 C2 1_555 1_555
H2 C2 1_555 1_555
H3 C2 1_555 1_555
C3 Si1 1_555 1_555
H4 C3 1_555 1_555
H5 C3 1_555 1_555
H6 C3 1_555 1_555
C4 N1 1_555 1_555
H7 C4 1_555 1_555
C5 C4 1_555 1_555
H8 C5 1_555 1_555
H9 C5 1_555 1_555
C6 C5 1_555 1_555
H10 C6 1_555 1_555
H11 C6 1_555 1_555
C7 C6 1_555 1_555
H12 C7 1_555 1_555
H13 C7 1_555 1_555
C8 C7 1_555 1_555
H14 C8 1_555 1_555
H15 C8 1_555 1_555
C9 C4 1_555 1_555
H16 C9 1_555 1_555
H17 C9 1_555 1_555
C10 N2 1_555 1_555
H18 C10 1_555 1_555
C11 C10 1_555 1_555
H19 C11 1_555 1_555
H20 C11 1_555 1_555
C12 C11 1_555 1_555
H21 C12 1_555 1_555
H22 C12 1_555 1_555
C13 C12 1_555 1_555
H23 C13 1_555 1_555
H24 C13 1_555 1_555
C14 C13 1_555 1_555
H25 C14 1_555 1_555
H26 C14 1_555 1_555
C15 C10 1_555 1_555
H27 C15 1_555 1_555
H28 C15 1_555 1_555
C16 N3 1_555 1_555
C17 C16 1_555 1_555
H29 C17 1_555 1_555
C18 C17 1_555 1_555
H30 C18 1_555 1_555
C19 C18 1_555 1_555
H31 C19 1_555 1_555
C20 C19 1_555 1_555
H32 C20 1_555 1_555
C21 C16 1_555 1_555
H33 C21 1_555 1_555
C8 C9 1_555 1_555
C14 C15 1_555 1_555
C20 C21 1_555 1_555

#END
