
#######################################################################
#
#                 Cambridge Crystallographic Data Centre
#                                CCDC 
#
#######################################################################
#
# If this CIF has been generated from an entry in the Cambridge 
# Structural Database, then it will include bibliographic, chemical, 
# crystal, experimental, refinement or atomic coordinate data resulting 
# from the CCDC's data processing and validation procedures.
#
#######################################################################

data_AKUMID
_chemical_formula_moiety         'C31 H25 Cl1 O3'
_chemical_name_systematic        
1-(4-Chlorophenyl)-6-phenoxy-2-(phenoxymethyl)-5-phenylhexa-2,3,4-trien-1-ol
_symmetry_cell_setting           monoclinic
_symmetry_space_group_name_H-M   'C 2'
_symmetry_Int_Tables_number      5
_space_group_name_Hall           'C 2y'
loop_
_symmetry_equiv_pos_site_id
_symmetry_equiv_pos_as_xyz
1 x,y,z
2 -x,y,-z
3 1/2+x,1/2+y,z
4 1/2-x,1/2+y,-z
_cell_length_a                   28.022(8)
_cell_length_b                   11.313(3)
_cell_length_c                   8.017(2)
_cell_angle_alpha                90
_cell_angle_beta                 97.069(11)
_cell_angle_gamma                90
_cell_volume                     2522.17
_exptl_crystal_colour            colorless
_exptl_crystal_description       prismatic
_cell_formula_units_Z            4
loop_
_atom_site_label
_atom_site_type_symbol
_atom_site_fract_x
_atom_site_fract_y
_atom_site_fract_z
Cl1 Cl 0.52132(6) 0.82863(19) 0.7547(3)
O1 O 0.73319(16) 0.6978(4) 1.2011(5)
O2 O 0.82963(13) 0.7605(3) 1.0040(6)
O3 O 0.77808(13) 0.3807(3) 0.5477(5)
C1 C 0.7289(2) 0.7441(5) 1.0347(7)
H1 H 0.7447 0.8215 1.0388
C2 C 0.75573(19) 0.6632(5) 0.9331(7)
C3 C 0.73558(19) 0.6046(5) 0.8012(7)
C4 C 0.7185(2) 0.5490(5) 0.6695(7)
C5 C 0.7020(2) 0.4924(5) 0.5259(7)
C6 C 0.73424(18) 0.4108(5) 0.4433(7)
H2 H 0.7167 0.3387 0.4113
H3 H 0.7423 0.4479 0.3413
C7 C 0.8088(2) 0.6465(5) 0.9901(8)
H4 H 0.8135 0.6064 1.0978
H5 H 0.8235 0.5995 0.9090
C8 C 0.67603(19) 0.7612(5) 0.9639(7)
C9 C 0.66361(19) 0.8519(5) 0.8512(7)
H6 H 0.6877 0.9007 0.8197
C10 C 0.6168(2) 0.8720(5) 0.7841(7)
H7 H 0.6092 0.9322 0.7064
C11 C 0.5812(2) 0.8008(5) 0.8349(8)
C12 C 0.5922(2) 0.7115(6) 0.9445(9)
H8 H 0.5679 0.6639 0.9773
C13 C 0.6397(2) 0.6909(5) 1.0081(7)
H9 H 0.6471 0.6284 1.0821
C14 C 0.6520(2) 0.5103(5) 0.4462(7)
C15 C 0.63016(19) 0.4353(5) 0.3197(7)
H10 H 0.6475 0.3725 0.2826
C16 C 0.5834(2) 0.4535(6) 0.2501(7)
H11 H 0.5691 0.4028 0.1672
C17 C 0.5579(2) 0.5464(6) 0.3030(8)
H12 H 0.5263 0.5583 0.2553
C18 C 0.5781(2) 0.6227(6) 0.4252(8)
H13 H 0.5603 0.6853 0.4602
C19 C 0.6248(2) 0.6058(5) 0.4953(8)
H14 H 0.6387 0.6583 0.5765
C20 C 0.8767(2) 0.7661(5) 1.0886(8)
C21 C 0.8886(2) 0.8713(6) 1.1717(8)
H15 H 0.8665 0.9325 1.1711
C22 C 0.9344(2) 0.8821(7) 1.2555(9)
H16 H 0.9433 0.9515 1.3132
C23 C 0.9668(2) 0.7921(7) 1.2548(11)
H17 H 0.9976 0.8020 1.3106
C24 C 0.9550(3) 0.6877(6) 1.1742(10)
H18 H 0.9772 0.6265 1.1761
C25 C 0.9084(2) 0.6758(6) 1.0881(8)
H19 H 0.8993 0.6061 1.0312
C26 C 0.8164(2) 0.4585(5) 0.5602(7)
C27 C 0.8573(2) 0.4186(6) 0.6558(8)
H20 H 0.8575 0.3447 0.7069
C28 C 0.8979(3) 0.4885(7) 0.6757(9)
H21 H 0.9253 0.4612 0.7422
C29 C 0.8993(2) 0.5989(8) 0.5988(10)
H22 H 0.9267 0.6459 0.6124
C30 C 0.8574(2) 0.6349(5) 0.5011(8)
H23 H 0.8572 0.7072 0.4457
C31 C 0.8163(2) 0.5677(5) 0.4831(7)
H24 H 0.7886 0.5955 0.4194
H25 H 0.7298(17) 0.737(4) 1.291(7)
loop_
_geom_bond_atom_site_label_1
_geom_bond_atom_site_label_2
_geom_bond_site_symmetry_1
_geom_bond_site_symmetry_2
Cl1 C11 1_555 1_555
O1 C1 1_555 1_555
O2 C7 1_555 1_555
O3 C6 1_555 1_555
C1 H1 1_555 1_555
C2 C1 1_555 1_555
C3 C2 1_555 1_555
C4 C3 1_555 1_555
C5 C4 1_555 1_555
C6 C5 1_555 1_555
H2 C6 1_555 1_555
H3 C6 1_555 1_555
C7 C2 1_555 1_555
H4 C7 1_555 1_555
H5 C7 1_555 1_555
C8 C1 1_555 1_555
C9 C8 1_555 1_555
H6 C9 1_555 1_555
C10 C9 1_555 1_555
H7 C10 1_555 1_555
C11 C10 1_555 1_555
C12 C11 1_555 1_555
H8 C12 1_555 1_555
C13 C8 1_555 1_555
H9 C13 1_555 1_555
C14 C5 1_555 1_555
C15 C14 1_555 1_555
H10 C15 1_555 1_555
C16 C15 1_555 1_555
H11 C16 1_555 1_555
C17 C16 1_555 1_555
H12 C17 1_555 1_555
C18 C17 1_555 1_555
H13 C18 1_555 1_555
C19 C14 1_555 1_555
H14 C19 1_555 1_555
C20 O2 1_555 1_555
C21 C20 1_555 1_555
H15 C21 1_555 1_555
C22 C21 1_555 1_555
H16 C22 1_555 1_555
C23 C22 1_555 1_555
H17 C23 1_555 1_555
C24 C23 1_555 1_555
H18 C24 1_555 1_555
C25 C20 1_555 1_555
H19 C25 1_555 1_555
C26 O3 1_555 1_555
C27 C26 1_555 1_555
H20 C27 1_555 1_555
C28 C27 1_555 1_555
H21 C28 1_555 1_555
C29 C28 1_555 1_555
H22 C29 1_555 1_555
C30 C29 1_555 1_555
H23 C30 1_555 1_555
C31 C26 1_555 1_555
H24 C31 1_555 1_555
H25 O1 1_555 1_555
C12 C13 1_555 1_555
C18 C19 1_555 1_555
C24 C25 1_555 1_555
C30 C31 1_555 1_555

#END
