
#######################################################################
#
#                 Cambridge Crystallographic Data Centre
#                                CCDC 
#
#######################################################################
#
# If this CIF has been generated from an entry in the Cambridge 
# Structural Database, then it will include bibliographic, chemical, 
# crystal, experimental, refinement or atomic coordinate data resulting 
# from the CCDC's data processing and validation procedures.
#
#######################################################################

data_AKUNOK
_chemical_formula_moiety         'C18 H9 F4 N1 O2'
_chemical_name_systematic        
2,3,4,5-Tetrafluoro-6-nitro-1,1':4',1''-terphenyl
_symmetry_cell_setting           triclinic
_symmetry_space_group_name_H-M   'P -1'
_symmetry_Int_Tables_number      2
_space_group_name_Hall           '-P 1'
loop_
_symmetry_equiv_pos_site_id
_symmetry_equiv_pos_as_xyz
1 x,y,z
2 -x,-y,-z
_cell_length_a                   6.2677(3)
_cell_length_b                   9.9095(5)
_cell_length_c                   12.4290(6)
_cell_angle_alpha                82.398(10)
_cell_angle_beta                 85.577(10)
_cell_angle_gamma                72.896(10)
_cell_volume                     730.741
_exptl_crystal_colour            colorless
_exptl_crystal_description       prism
_chemical_melting_point          '422-423 K'
_cell_formula_units_Z            2
loop_
_atom_site_label
_atom_site_type_symbol
_atom_site_fract_x
_atom_site_fract_y
_atom_site_fract_z
O1 O 0.7849(2) 0.35116(13) 0.12592(11)
O2 O 0.9450(2) 0.51893(15) 0.12220(11)
N1 N 0.7803(2) 0.47533(15) 0.12919(11)
F1 F 0.64112(18) 0.70841(12) -0.02343(9)
F2 F 0.22429(19) 0.89051(11) -0.01794(9)
F3 F -0.07403(16) 0.84585(11) 0.14384(8)
F4 F 0.04923(15) 0.63948(10) 0.30666(8)
C1 C 0.4141(3) 0.55539(16) 0.22825(12)
C2 C 0.5598(3) 0.57870(17) 0.14057(13)
C3 C 0.5002(3) 0.69063(18) 0.05926(13)
C4 C 0.2860(3) 0.78342(18) 0.06112(13)
C5 C 0.1357(3) 0.76166(17) 0.14402(13)
C6 C 0.2015(3) 0.65155(17) 0.22640(13)
C7 C 0.4831(3) 0.44300(16) 0.32060(12)
C8 C 0.3586(3) 0.34748(17) 0.35470(14)
C9 C 0.4229(3) 0.24629(18) 0.44372(14)
C10 C 0.6097(3) 0.23728(16) 0.50171(12)
C11 C 0.7351(3) 0.33173(17) 0.46566(13)
C12 C 0.6730(3) 0.43355(17) 0.37664(13)
C13 C 0.6733(3) 0.13137(17) 0.59848(13)
C14 C 0.5102(3) 0.09841(18) 0.67258(14)
C15 C 0.5712(3) -0.00325(19) 0.76211(15)
C16 C 0.7947(3) -0.07395(18) 0.77929(14)
C17 C 0.9589(3) -0.04178(18) 0.70737(14)
C18 C 0.8986(3) 0.06036(17) 0.61868(13)
H1 H 0.234(4) 0.345(2) 0.3099(18)
H2 H 0.342(3) 0.177(2) 0.4611(17)
H3 H 0.859(4) 0.334(2) 0.5037(17)
H4 H 0.760(3) 0.504(2) 0.3523(16)
H5 H 0.354(3) 0.150(2) 0.6629(17)
H6 H 0.456(4) -0.025(3) 0.810(2)
H7 H 0.832(4) -0.143(3) 0.8464(19)
H8 H 1.110(4) -0.091(2) 0.7211(18)
H9 H 1.015(3) 0.080(2) 0.5687(16)
loop_
_geom_bond_atom_site_label_1
_geom_bond_atom_site_label_2
_geom_bond_site_symmetry_1
_geom_bond_site_symmetry_2
O1 N1 1_555 1_555
O2 N1 1_555 1_555
N1 C2 1_555 1_555
F1 C3 1_555 1_555
F2 C4 1_555 1_555
F3 C5 1_555 1_555
F4 C6 1_555 1_555
C1 C2 1_555 1_555
C2 C3 1_555 1_555
C3 C4 1_555 1_555
C4 C5 1_555 1_555
C5 C6 1_555 1_555
C6 C1 1_555 1_555
C7 C1 1_555 1_555
C8 C7 1_555 1_555
C9 C8 1_555 1_555
C10 C9 1_555 1_555
C11 C10 1_555 1_555
C12 C7 1_555 1_555
C13 C10 1_555 1_555
C14 C13 1_555 1_555
C15 C14 1_555 1_555
C16 C15 1_555 1_555
C17 C16 1_555 1_555
C18 C13 1_555 1_555
H1 C8 1_555 1_555
H2 C9 1_555 1_555
H3 C11 1_555 1_555
H4 C12 1_555 1_555
H5 C14 1_555 1_555
H6 C15 1_555 1_555
H7 C16 1_555 1_555
H8 C17 1_555 1_555
H9 C18 1_555 1_555
C11 C12 1_555 1_555
C17 C18 1_555 1_555

#END
