
#######################################################################
#
#                 Cambridge Crystallographic Data Centre
#                                CCDC 
#
#######################################################################
#
# If this CIF has been generated from an entry in the Cambridge 
# Structural Database, then it will include bibliographic, chemical, 
# crystal, experimental, refinement or atomic coordinate data resulting 
# from the CCDC's data processing and validation procedures.
#
#######################################################################

data_AKUNAX
_chemical_formula_moiety         'C26 H22 N3 O2 P1'
_chemical_name_systematic        
3-((diphenylphosphoryl)methyl)-3-methyl-9-oxo-3,9-dihydropyrrolo[2,1-b]quinazoline-6-carbonitrile
_symmetry_cell_setting           monoclinic
_symmetry_space_group_name_H-M   'P 21/c'
_symmetry_Int_Tables_number      14
_space_group_name_Hall           '-P 2ybc'
loop_
_symmetry_equiv_pos_site_id
_symmetry_equiv_pos_as_xyz
1 x,y,z
2 -x,1/2+y,1/2-z
3 -x,-y,-z
4 x,1/2-y,1/2+z
_cell_length_a                   11.3945(8)
_cell_length_b                   16.4350(11)
_cell_length_c                   12.4553(8)
_cell_angle_alpha                90
_cell_angle_beta                 107.2360(13)
_cell_angle_gamma                90
_cell_volume                     2227.74
_exptl_crystal_colour            colorless
_exptl_crystal_description       block
_cell_formula_units_Z            4
loop_
_atom_site_label
_atom_site_type_symbol
_atom_site_fract_x
_atom_site_fract_y
_atom_site_fract_z
P1 P 0.63254(6) 0.72967(4) 0.48827(5)
O1 O 0.60766(18) 0.75839(11) 0.37081(14)
N1 N 0.90544(19) 0.82929(13) 0.69530(17)
N2 N 0.8723(2) 0.89652(14) 0.52181(18)
C1 C 0.8367(2) 0.86824(14) 0.6102(2)
C2 C 0.7783(2) 0.67664(14) 0.5339(2)
C3 C 0.6306(2) 0.80763(14) 0.5904(2)
H1 H 0.5455 0.8223 0.5797
H2 H 0.6607 0.7831 0.6644
C4 C 1.0249(2) 0.81255(15) 0.6928(2)
C5 C 0.7031(2) 0.88742(14) 0.5926(2)
N3 N 1.3490(2) 0.64345(17) 0.9194(3)
C6 C 0.5182(2) 0.65809(15) 0.5056(2)
C7 C 1.0993(2) 0.76289(16) 0.7758(2)
H3 H 1.0701 0.7426 0.8327
O2 O 1.0200(2) 0.9146(2) 0.4350(2)
C8 C 0.8506(2) 0.67415(16) 0.4621(2)
H4 H 0.8258 0.7017 0.3938
C9 C 1.2168(2) 0.74362(16) 0.7736(2)
C10 C 0.8181(3) 0.63616(16) 0.6356(2)
H5 H 0.7713 0.6380 0.6853
C11 C 1.0702(3) 0.84177(17) 0.6076(2)
C12 C 0.6662(3) 0.93470(17) 0.4798(2)
C13 C 1.2909(3) 0.68880(18) 0.8557(3)
C14 C 0.4512(3) 0.61575(17) 0.4110(3)
H6 H 0.4677 0.6233 0.3429
C15 C 0.6893(3) 0.93994(17) 0.6902(2)
H7 H 0.6040 0.9521 0.6785
H8 H 0.7343 0.9897 0.6935
H9 H 0.7209 0.9108 0.7596
C16 C 0.4933(3) 0.64433(17) 0.6066(3)
H10 H 0.5378 0.6718 0.6710
C17 C 0.9595(3) 0.63079(19) 0.4915(3)
H11 H 1.0076 0.6293 0.4428
C18 C 0.9272(3) 0.59287(18) 0.6639(3)
H12 H 0.9531 0.5656 0.7323
C19 C 0.9970(3) 0.59015(19) 0.5914(3)
H13 H 1.0698 0.5606 0.6102
C20 C 1.2634(3) 0.77490(19) 0.6909(3)
H14 H 1.3433 0.7630 0.6915
C21 C 0.9901(3) 0.8877(2) 0.5145(2)
C22 C 1.1909(3) 0.8232(2) 0.6092(3)
H15 H 1.2218 0.8441 0.5537
C23 C 0.3596(3) 0.56204(19) 0.4176(3)
H16 H 0.3141 0.5344 0.3537
C24 C 0.3357(3) 0.5495(2) 0.5181(4)
H17 H 0.2742 0.5136 0.5223
C25 C 0.4030(3) 0.59020(19) 0.6119(3)
H18 H 0.3875 0.5812 0.6802
C26 C 0.7727(3) 0.9348(3) 0.4349(3)
H19? H 0.5903 0.9588 0.4462
H20? H 0.7756 0.9550 0.3660
loop_
_geom_bond_atom_site_label_1
_geom_bond_atom_site_label_2
_geom_bond_site_symmetry_1
_geom_bond_site_symmetry_2
P1 O1 1_555 1_555
N1 C1 1_555 1_555
N2 C1 1_555 1_555
C1 C5 1_555 1_555
C2 P1 1_555 1_555
C3 P1 1_555 1_555
H1 C3 1_555 1_555
H2 C3 1_555 1_555
C4 N1 1_555 1_555
C5 C3 1_555 1_555
N3 C13 1_555 1_555
C6 P1 1_555 1_555
C7 C4 1_555 1_555
H3 C7 1_555 1_555
O2 C21 1_555 1_555
C8 C2 1_555 1_555
H4 C8 1_555 1_555
C9 C7 1_555 1_555
C10 C2 1_555 1_555
H5 C10 1_555 1_555
C11 C4 1_555 1_555
C12 C5 1_555 1_555
C13 C9 1_555 1_555
C14 C6 1_555 1_555
H6 C14 1_555 1_555
C15 C5 1_555 1_555
H7 C15 1_555 1_555
H8 C15 1_555 1_555
H9 C15 1_555 1_555
C16 C6 1_555 1_555
H10 C16 1_555 1_555
C17 C8 1_555 1_555
H11 C17 1_555 1_555
C18 C10 1_555 1_555
H12 C18 1_555 1_555
C19 C17 1_555 1_555
H13 C19 1_555 1_555
C20 C9 1_555 1_555
H14 C20 1_555 1_555
C21 N2 1_555 1_555
C22 C11 1_555 1_555
H15 C22 1_555 1_555
C23 C14 1_555 1_555
H16 C23 1_555 1_555
C24 C23 1_555 1_555
H17 C24 1_555 1_555
C25 C16 1_555 1_555
H18 C25 1_555 1_555
C26 N2 1_555 1_555
C11 C21 1_555 1_555
C12 C26 1_555 1_555
C18 C19 1_555 1_555
C20 C22 1_555 1_555
C24 C25 1_555 1_555

#END
