
#######################################################################
#
#                 Cambridge Crystallographic Data Centre
#                                CCDC 
#
#######################################################################
#
# If this CIF has been generated from an entry in the Cambridge 
# Structural Database, then it will include bibliographic, chemical, 
# crystal, experimental, refinement or atomic coordinate data resulting 
# from the CCDC's data processing and validation procedures.
#
#######################################################################

data_AKUSII01
_chemical_name_common            2,6-bis(2,6-di-isopropylphenyl)phenol
_chemical_formula_moiety         'C30 H38 O1'
_chemical_name_systematic        
2,2'',6,6''-tetra-isopropyl-1,1':3',1''-terphenyl-2'-ol
_symmetry_cell_setting           monoclinic
_symmetry_space_group_name_H-M   'P 21/n'
_symmetry_Int_Tables_number      14
_space_group_name_Hall           '-P 2yn'
loop_
_symmetry_equiv_pos_site_id
_symmetry_equiv_pos_as_xyz
1 x,y,z
2 1/2-x,1/2+y,1/2-z
3 -x,-y,-z
4 1/2+x,1/2-y,1/2+z
_cell_length_a                   10.8813(7)
_cell_length_b                   20.8576(11)
_cell_length_c                   11.2324(6)
_cell_angle_alpha                90
_cell_angle_beta                 94.278(5)
_cell_angle_gamma                90
_cell_volume                     2542.18
_exptl_crystal_colour            colorless
_exptl_crystal_description       block
_cell_formula_units_Z            4
loop_
_atom_site_label
_atom_site_type_symbol
_atom_site_fract_x
_atom_site_fract_y
_atom_site_fract_z
O1 O 0.42725(13) 0.42441(6) 0.57919(11)
H1 H 0.409962 0.396556 0.526563
C1 C 0.42043(15) 0.39769(8) 0.69000(15)
C2 C 0.38440(15) 0.33378(8) 0.70157(15)
C3 C 0.44936(16) 0.43641(8) 0.78958(16)
C4 C 0.35280(16) 0.29325(8) 0.59312(15)
C5 C 0.37781(17) 0.30944(9) 0.81622(16)
H2 H 0.353358 0.266156 0.826093
C6 C 0.44257(16) 0.25333(8) 0.54847(16)
C7 C 0.48695(17) 0.50471(9) 0.77247(16)
C8 C 0.44185(17) 0.40995(9) 0.90268(16)
H3 H 0.461565 0.435542 0.971419
C9 C 0.23228(16) 0.29490(9) 0.53782(17)
C10 C 0.40608(18) 0.34690(9) 0.91620(17)
H4 H 0.400950 0.329395 0.993754
C11 C 0.39851(19) 0.55402(9) 0.77465(17)
C12 C 0.40889(18) 0.21473(9) 0.44995(17)
H5 H 0.468768 0.187510 0.418885
C13 C 0.57421(17) 0.25225(10) 0.60272(17)
H6 H 0.577251 0.278100 0.677860
C14 C 0.20337(18) 0.25513(10) 0.44002(18)
H7 H 0.122156 0.255528 0.402555
C15 C 0.29066(19) 0.21525(9) 0.39675(18)
H8 H 0.269345 0.188180 0.330391
C16 C 0.60915(19) 0.51931(9) 0.75066(18)
C17 C 0.13385(17) 0.33772(10) 0.58457(18)
H9 H 0.176215 0.370301 0.638522
C18 C 0.6397(2) 0.58246(10) 0.72652(19)
H10 H 0.721937 0.592535 0.710170
C19 C 0.2659(2) 0.53984(10) 0.7991(2)
H11 H 0.266437 0.499723 0.847926
C20 C 0.4345(2) 0.61652(10) 0.75127(19)
H12 H 0.375928 0.650205 0.752845
C21 C 0.5537(2) 0.63050(10) 0.7258(2)
H13 H 0.576032 0.673267 0.707919
C22 C 0.7083(2) 0.46821(11) 0.7522(2)
H14 H 0.673137 0.427953 0.784113
C23 C 0.6607(2) 0.28373(13) 0.5195(2)
H15 H 0.658490 0.259836 0.444276
H16 H 0.744857 0.283575 0.557264
H17 H 0.634373 0.328030 0.503534
C24 C 0.6185(2) 0.18519(12) 0.6355(3)
H18 H 0.562458 0.165593 0.689392
H19 H 0.701648 0.187424 0.675463
H20 H 0.620190 0.159196 0.562998
C25 C 0.0483(3) 0.29930(14) 0.6578(3)
H21 H 0.007854 0.265802 0.607836
H22 H -0.014213 0.327795 0.687439
H23 H 0.096004 0.279471 0.725575
C26 C 0.0590(2) 0.37361(14) 0.4860(2)
H24 H 0.114778 0.397164 0.437160
H25 H 0.003303 0.403842 0.521561
H26 H 0.010621 0.342942 0.435716
C27 C 0.8209(3) 0.48648(16) 0.8345(3)
H27 H 0.861422 0.523769 0.801584
H28 H 0.878615 0.450367 0.840839
H29 H 0.794879 0.497030 0.913827
C28 C 0.1875(3) 0.52673(17) 0.6843(3)
H30 H 0.180441 0.565973 0.636347
H31 H 0.105308 0.512691 0.703316
H32 H 0.226271 0.493045 0.639167
C29 C 0.2074(3) 0.59243(14) 0.8713(3)
H33 H 0.261689 0.602233 0.942531
H34 H 0.127474 0.577649 0.895362
H35 H 0.195719 0.631085 0.822147
C30 C 0.7450(3) 0.45415(16) 0.6271(3)
H36 H 0.671684 0.442465 0.575800
H37 H 0.804005 0.418568 0.629972
H38 H 0.783175 0.492340 0.594877
loop_
_geom_bond_atom_site_label_1
_geom_bond_atom_site_label_2
_geom_bond_site_symmetry_1
_geom_bond_site_symmetry_2
O1 H1 1_555 1_555
C1 O1 1_555 1_555
C2 C1 1_555 1_555
C3 C1 1_555 1_555
C4 C2 1_555 1_555
C5 C2 1_555 1_555
H2 C5 1_555 1_555
C6 C4 1_555 1_555
C7 C3 1_555 1_555
C8 C3 1_555 1_555
H3 C8 1_555 1_555
C9 C4 1_555 1_555
C10 C5 1_555 1_555
H4 C10 1_555 1_555
C11 C7 1_555 1_555
C12 C6 1_555 1_555
H5 C12 1_555 1_555
C13 C6 1_555 1_555
H6 C13 1_555 1_555
C14 C9 1_555 1_555
H7 C14 1_555 1_555
C15 C12 1_555 1_555
H8 C15 1_555 1_555
C16 C7 1_555 1_555
C17 C9 1_555 1_555
H9 C17 1_555 1_555
C18 C16 1_555 1_555
H10 C18 1_555 1_555
C19 C11 1_555 1_555
H11 C19 1_555 1_555
C20 C11 1_555 1_555
H12 C20 1_555 1_555
C21 C18 1_555 1_555
H13 C21 1_555 1_555
C22 C16 1_555 1_555
H14 C22 1_555 1_555
C23 C13 1_555 1_555
H15 C23 1_555 1_555
H16 C23 1_555 1_555
H17 C23 1_555 1_555
C24 C13 1_555 1_555
H18 C24 1_555 1_555
H19 C24 1_555 1_555
H20 C24 1_555 1_555
C25 C17 1_555 1_555
H21 C25 1_555 1_555
H22 C25 1_555 1_555
H23 C25 1_555 1_555
C26 C17 1_555 1_555
H24 C26 1_555 1_555
H25 C26 1_555 1_555
H26 C26 1_555 1_555
C27 C22 1_555 1_555
H27 C27 1_555 1_555
H28 C27 1_555 1_555
H29 C27 1_555 1_555
C28 C19 1_555 1_555
H30 C28 1_555 1_555
H31 C28 1_555 1_555
H32 C28 1_555 1_555
C29 C19 1_555 1_555
H33 C29 1_555 1_555
H34 C29 1_555 1_555
H35 C29 1_555 1_555
C30 C22 1_555 1_555
H36 C30 1_555 1_555
H37 C30 1_555 1_555
H38 C30 1_555 1_555
C8 C10 1_555 1_555
C14 C15 1_555 1_555
C20 C21 1_555 1_555

#END
