
#######################################################################
#
#                 Cambridge Crystallographic Data Centre
#                                CCDC 
#
#######################################################################
#
# If this CIF has been generated from an entry in the Cambridge 
# Structural Database, then it will include bibliographic, chemical, 
# crystal, experimental, refinement or atomic coordinate data resulting 
# from the CCDC's data processing and validation procedures.
#
#######################################################################

data_AKUVEH
_chemical_name_common            
"25,27:25',27'-bis(Crown-5)-26,26':28,28'-bis(3-oxapentane-1,5-dioxy)-bis(calix(4)arene) chloroform solvate"
_chemical_formula_moiety         'C80 H88 O16,2(C1 H1 Cl3)'
_chemical_name_systematic        
"25,27:25',27'-bis(3,6,9-Trioxaundecane-1,11-dioxy)-26,26':28,28'-bis(3-oxapentane-1,5-dioxy)-bis(calix(4)arene) chloroform solvate"
_symmetry_cell_setting           monoclinic
_symmetry_space_group_name_H-M   'P 21/c'
_symmetry_Int_Tables_number      14
_space_group_name_Hall           '-P 2ybc'
loop_
_symmetry_equiv_pos_site_id
_symmetry_equiv_pos_as_xyz
1 x,y,z
2 x,1/2-y,1/2+z
3 -x,-y,-z
4 -x,1/2+y,1/2-z
_cell_length_a                   15.953(2)
_cell_length_b                   11.2674(15)
_cell_length_c                   22.062(3)
_cell_angle_alpha                90
_cell_angle_beta                 98.709(3)
_cell_angle_gamma                90
_cell_volume                     3919.9
_exptl_crystal_colour            colorless
_exptl_crystal_description       block
_cell_formula_units_Z            2
_exptl_crystal_recrystallization_method methanol/chloroform
loop_
_atom_site_label
_atom_site_type_symbol
_atom_site_fract_x
_atom_site_fract_y
_atom_site_fract_z
O1 O -0.2389(2) 0.1093(3) 0.06379(15)
O2 O -0.3879(3) -0.1059(4) 0.0942(2)
O3 O -0.4234(3) 0.0076(5) 0.2128(3)
O4 O -0.3878(4) 0.2446(5) 0.2772(3)
O5 O -0.2687(2) 0.3767(3) 0.17069(17)
O6 O -0.0550(2) 0.3070(3) 0.12820(15)
O7 O 0.1368(2) 0.4203(4) 0.08345(18)
O8 O -0.2545(2) 0.4158(3) 0.01391(16)
C1 C -0.1861(4) 0.1350(5) 0.0213(2)
C2 C -0.0986(4) 0.1152(5) 0.0382(3)
C3 C -0.0470(4) 0.1461(5) -0.0045(3)
H1 H 0.0131 0.1339 0.0051
C4 C -0.0796(6) 0.1935(7) -0.0598(3)
H2 H -0.0427 0.2148 -0.0886
C5 C -0.1657(6) 0.2108(7) -0.0743(3)
H3 H -0.1880 0.2432 -0.1137
C6 C -0.2203(4) 0.1834(6) -0.0345(3)
C7 C -0.0814(3) 0.2305(5) 0.1700(2)
C8 C -0.1057(3) 0.2751(5) 0.2230(2)
C9 C -0.1347(4) 0.1950(8) 0.2637(3)
H4 H -0.1500 0.2241 0.3014
C10 C -0.1418(4) 0.0767(8) 0.2511(3)
H5 H -0.1619 0.0233 0.2796
C11 C -0.1201(3) 0.0351(5) 0.1979(3)
H6 H -0.1266 -0.0480 0.1888
C12 C -0.0889(3) 0.1088(5) 0.1563(2)
C13 C -0.2248(3) 0.4790(5) 0.1615(3)
C14 C -0.2638(4) 0.5621(5) 0.1205(3)
C15 C -0.2177(6) 0.6630(6) 0.1104(4)
H7 H -0.2436 0.7229 0.0827
C16 C -0.1353(6) 0.6792(7) 0.1395(5)
H8 H -0.1041 0.7491 0.1319
C17 C -0.0997(5) 0.5953(8) 0.1786(4)
H9 H -0.0423 0.6071 0.1981
C18 C -0.1409(4) 0.4933(5) 0.1923(3)
C19 C -0.3361(3) 0.3739(6) 0.0187(3)
C20 C -0.3643(4) 0.2683(7) -0.0109(3)
C21 C -0.4425(5) 0.2243(7) -0.0024(3)
H10 H -0.4631 0.1520 -0.0222
C22 C -0.4907(5) 0.2828(10) 0.0341(4)
H11 H -0.5452 0.2519 0.0394
C23 C -0.4616(4) 0.3858(8) 0.0633(4)
H12 H -0.4964 0.4257 0.0887
C24 C -0.3827(4) 0.4341(6) 0.0569(3)
C25 C -0.0637(4) 0.0589(5) 0.0987(3)
H13 H -0.0795 -0.0234 0.0965
H14 H -0.0029 0.0619 0.1028
C26 C -0.0983(4) 0.4065(6) 0.2382(3)
H15 H -0.1203 0.4188 0.2758
H16 H -0.0391 0.4260 0.2458
C27 C -0.3551(4) 0.5482(6) 0.0889(3)
H17 H -0.3913 0.5617 0.1193
H18 H -0.3662 0.6109 0.0593
C28 C -0.3154(5) 0.2049(7) -0.0538(3)
H19 H -0.3223 0.2489 -0.0915
H20 H -0.3418 0.1291 -0.0628
C29 C -0.2828(4) -0.0002(6) 0.0561(3)
H21 H -0.2433 -0.0646 0.0570
H22 H -0.3196 -0.0016 0.0174
C30 C -0.3329(4) -0.0119(7) 0.1069(3)
H23 H -0.2958 -0.0258 0.1448
H24 H -0.3641 0.0598 0.1110
C31 C -0.4254(5) -0.1462(7) 0.1433(4)
H25 H -0.4607 -0.2124 0.1287
H26 H -0.3807 -0.1768 0.1733
C32 C -0.4735(7) -0.0722(9) 0.1737(5)
H27 H -0.5068 -0.1192 0.1974
H28 H -0.5117 -0.0281 0.1442
C33 C -0.4603(7) 0.0560(9) 0.2586(4)
H29 H -0.4760 -0.0068 0.2841
H30 H -0.5113 0.0959 0.2409
C34 C -0.4099(6) 0.1350(8) 0.2948(3)
H31 H -0.4366 0.1469 0.3306
H32 H -0.3577 0.0941 0.3085
C35 C -0.3539(4) 0.2559(5) 0.2226(3)
H33 H -0.3980 0.2484 0.1881
H34 H -0.3126 0.1949 0.2200
C36 C -0.3127(4) 0.3772(5) 0.2225(3)
H35 H -0.3548 0.4387 0.2186
H36 H -0.2739 0.3897 0.2596
C37 C 0.0338(3) 0.3233(5) 0.1332(3)
H37 H 0.0613 0.2488 0.1285
H38 H 0.0559 0.3555 0.1727
C38 C 0.0486(4) 0.4066(5) 0.0840(3)
H39 H 0.0220 0.3768 0.0451
H40 H 0.0239 0.4823 0.0907
C39 C 0.1529(4) 0.4839(6) 0.0315(3)
H41 H 0.1223 0.5576 0.0288
H42 H 0.1337 0.4388 -0.0049
C40 C -0.2467(3) 0.4917(6) -0.0359(3)
H43 H -0.2681 0.4539 -0.0741
H44 H -0.2775 0.5641 -0.0328
C39B C -0.1529(4) 0.5161(6) -0.0315(3)
O7B O -0.1368(2) 0.5797(4) -0.08345(18)
C38B C -0.0486(4) 0.5934(5) -0.0840(3)
C37B C -0.0338(3) 0.6767(5) -0.1332(3)
O6B O 0.0550(2) 0.6930(3) -0.12820(15)
C7B C 0.0814(3) 0.7695(5) -0.1700(2)
C8B C 0.1057(3) 0.7249(5) -0.2230(2)
C9B C 0.1347(4) 0.8050(8) -0.2637(3)
H4B H 0.1500 0.7759 -0.3014
C10B C 0.1418(4) 0.9233(8) -0.2511(3)
H5B H 0.1619 0.9767 -0.2796
C11B C 0.1201(3) 0.9649(5) -0.1979(3)
H6B H 0.1266 1.0480 -0.1888
C12B C 0.0889(3) 0.8912(5) -0.1563(2)
C25B C 0.0637(4) 0.9411(5) -0.0987(3)
C2B C 0.0986(4) 0.8848(5) -0.0382(3)
C1B C 0.1861(4) 0.8650(5) -0.0213(2)
O1B O 0.2389(2) 0.8907(3) -0.06379(15)
C29B C 0.2828(4) 1.0002(6) -0.0561(3)
H21B H 0.2433 1.0646 -0.0570
H22B H 0.3196 1.0016 -0.0174
C30B C 0.3329(4) 1.0119(7) -0.1069(3)
O2B O 0.3879(3) 1.1059(4) -0.0942(2)
C31B C 0.4254(5) 1.1462(7) -0.1433(4)
H25B H 0.4607 1.2124 -0.1287
H26B H 0.3807 1.1768 -0.1733
C32B C 0.4735(7) 1.0722(9) -0.1737(5)
O3B O 0.4234(3) 0.9924(5) -0.2128(3)
C33B C 0.4603(7) 0.9440(9) -0.2586(4)
H29B H 0.4760 1.0068 -0.2841
H30B H 0.5113 0.9041 -0.2409
C34B C 0.4099(6) 0.8650(8) -0.2948(3)
O4B O 0.3878(4) 0.7554(5) -0.2772(3)
C35B C 0.3539(4) 0.7441(5) -0.2226(3)
H33B H 0.3980 0.7516 -0.1881
H34B H 0.3126 0.8051 -0.2200
C36B C 0.3127(4) 0.6228(5) -0.2225(3)
O5B O 0.2687(2) 0.6233(3) -0.17069(17)
C13B C 0.2248(3) 0.5210(5) -0.1615(3)
C14B C 0.2638(4) 0.4379(5) -0.1205(3)
C15B C 0.2177(6) 0.3370(6) -0.1104(4)
H7B H 0.2436 0.2771 -0.0827
C16B C 0.1353(6) 0.3208(7) -0.1395(5)
H8B H 0.1041 0.2509 -0.1319
C17B C 0.0997(5) 0.4047(8) -0.1786(4)
H9B H 0.0423 0.3929 -0.1981
C18B C 0.1409(4) 0.5067(5) -0.1923(3)
C26B C 0.0983(4) 0.5935(6) -0.2382(3)
H15B H 0.1203 0.5812 -0.2758
H16B H 0.0391 0.5740 -0.2458
C27B C 0.3551(4) 0.4518(6) -0.0889(3)
C24B C 0.3827(4) 0.5659(6) -0.0569(3)
C19B C 0.3361(3) 0.6261(6) -0.0187(3)
O8B O 0.2545(2) 0.5842(3) -0.01391(16)
C40B C 0.2467(3) 0.5083(6) 0.0359(3)
H43B H 0.2681 0.5461 0.0741
H44B H 0.2775 0.4359 0.0328
C20B C 0.3643(4) 0.7317(7) 0.0109(3)
C21B C 0.4425(5) 0.7757(7) 0.0024(3)
H10B H 0.4631 0.8480 0.0222
C22B C 0.4907(5) 0.7172(10) -0.0341(4)
H11B H 0.5452 0.7481 -0.0394
C23B C 0.4616(4) 0.6142(8) -0.0633(4)
H12B H 0.4964 0.5743 -0.0887
C28B C 0.3154(5) 0.7951(7) 0.0538(3)
C6B C 0.2203(4) 0.8166(6) 0.0345(3)
C5B C 0.1657(6) 0.7892(7) 0.0743(3)
C4B C 0.0796(6) 0.8065(7) 0.0598(3)
C3B C 0.0470(4) 0.8539(5) 0.0045(3)
H1B H -0.0131 0.8661 -0.0051
H2B H 0.0427 0.7852 0.0886
H3B H 0.1880 0.7568 0.1137
H19B H 0.3223 0.7511 0.0915
H20B H 0.3418 0.8709 0.0628
H17B H 0.3913 0.4383 -0.1193
H18B H 0.3662 0.3891 -0.0593
H35B H 0.3548 0.5613 -0.2186
H36B H 0.2739 0.6103 -0.2596
H31B H 0.4366 0.8531 -0.3306
H32B H 0.3577 0.9059 -0.3085
H27B H 0.5068 1.1192 -0.1974
H28B H 0.5117 1.0281 -0.1442
H23B H 0.2958 1.0258 -0.1448
H24B H 0.3641 0.9402 -0.1110
H13B H 0.0795 1.0234 -0.0965
H14B H 0.0029 0.9381 -0.1028
H37B H -0.0613 0.7512 -0.1285
H38B H -0.0559 0.6445 -0.1727
H39B H -0.0220 0.6232 -0.0451
H40B H -0.0239 0.5177 -0.0907
H41B H -0.1223 0.4424 -0.0288
H42B H -0.1337 0.5612 0.0049
C41 C 0.2593(4) 0.2197(7) 0.1483(3)
H45 H 0.2273 0.2866 0.1305
Cl1 Cl 0.2213(3) 0.0920(4) 0.1085(2)
Cl2 Cl 0.36336(18) 0.2437(4) 0.1450(2)
Cl3 Cl 0.24037(17) 0.2023(3) 0.22103(12)
loop_
_geom_bond_atom_site_label_1
_geom_bond_atom_site_label_2
_geom_bond_site_symmetry_1
_geom_bond_site_symmetry_2
O1 C1 1_555 1_555
O2 C30 1_555 1_555
O3 C32 1_555 1_555
O4 C34 1_555 1_555
O5 C13 1_555 1_555
O6 C7 1_555 1_555
O7 C38 1_555 1_555
O8 C19 1_555 1_555
C1 C2 1_555 1_555
C2 C3 1_555 1_555
C3 H1 1_555 1_555
C4 C3 1_555 1_555
H2 C4 1_555 1_555
C5 C4 1_555 1_555
H3 C5 1_555 1_555
C6 C1 1_555 1_555
C7 C8 1_555 1_555
C8 C9 1_555 1_555
C9 H4 1_555 1_555
C10 C9 1_555 1_555
H5 C10 1_555 1_555
C11 C10 1_555 1_555
H6 C11 1_555 1_555
C12 C7 1_555 1_555
C13 C14 1_555 1_555
C14 C15 1_555 1_555
C15 H7 1_555 1_555
C16 C15 1_555 1_555
H8 C16 1_555 1_555
C17 C16 1_555 1_555
H9 C17 1_555 1_555
C18 C13 1_555 1_555
C19 C20 1_555 1_555
C20 C21 1_555 1_555
C21 H10 1_555 1_555
C22 C21 1_555 1_555
H11 C22 1_555 1_555
C23 C22 1_555 1_555
H12 C23 1_555 1_555
C24 C19 1_555 1_555
C25 C2 1_555 1_555
H13 C25 1_555 1_555
H14 C25 1_555 1_555
C26 C8 1_555 1_555
H15 C26 1_555 1_555
H16 C26 1_555 1_555
C27 C14 1_555 1_555
H17 C27 1_555 1_555
H18 C27 1_555 1_555
C28 C6 1_555 1_555
H19 C28 1_555 1_555
H20 C28 1_555 1_555
C29 O1 1_555 1_555
H21 C29 1_555 1_555
H22 C29 1_555 1_555
C30 C29 1_555 1_555
H23 C30 1_555 1_555
H24 C30 1_555 1_555
C31 O2 1_555 1_555
H25 C31 1_555 1_555
H26 C31 1_555 1_555
C32 C31 1_555 1_555
H27 C32 1_555 1_555
H28 C32 1_555 1_555
C33 O3 1_555 1_555
H29 C33 1_555 1_555
H30 C33 1_555 1_555
C34 C33 1_555 1_555
H31 C34 1_555 1_555
H32 C34 1_555 1_555
C35 O4 1_555 1_555
H33 C35 1_555 1_555
H34 C35 1_555 1_555
C36 O5 1_555 1_555
H35 C36 1_555 1_555
H36 C36 1_555 1_555
C37 O6 1_555 1_555
H37 C37 1_555 1_555
H38 C37 1_555 1_555
C38 C37 1_555 1_555
H39 C38 1_555 1_555
H40 C38 1_555 1_555
C39 O7 1_555 1_555
H41 C39 1_555 1_555
H42 C39 1_555 1_555
C40 O8 1_555 1_555
H43 C40 1_555 1_555
H44 C40 1_555 1_555
C41 H45 1_555 1_555
Cl1 C41 1_555 1_555
Cl2 C41 1_555 1_555
Cl3 C41 1_555 1_555
C39B C40 1_555 1_555
O7B C39B 1_555 1_555
C38B O7B 1_555 1_555
C37B C38B 1_555 1_555
O6B C37B 1_555 1_555
C7B O6B 1_555 1_555
C8B C7B 1_555 1_555
C9B C8B 1_555 1_555
H4B C9B 1_555 1_555
C10B C9B 1_555 1_555
H5B C10B 1_555 1_555
C11B C10B 1_555 1_555
H6B C11B 1_555 1_555
C12B C7B 1_555 1_555
C25B C12B 1_555 1_555
C2B C25B 1_555 1_555
C1B C2B 1_555 1_555
O1B C1B 1_555 1_555
C29B O1B 1_555 1_555
H21B C29B 1_555 1_555
H22B C29B 1_555 1_555
C30B C29B 1_555 1_555
O2B C30B 1_555 1_555
C31B O2B 1_555 1_555
H25B C31B 1_555 1_555
H26B C31B 1_555 1_555
C32B C31B 1_555 1_555
O3B C32B 1_555 1_555
C33B O3B 1_555 1_555
H29B C33B 1_555 1_555
H30B C33B 1_555 1_555
C34B C33B 1_555 1_555
O4B C34B 1_555 1_555
C35B O4B 1_555 1_555
H33B C35B 1_555 1_555
H34B C35B 1_555 1_555
C36B C35B 1_555 1_555
O5B C36B 1_555 1_555
C13B O5B 1_555 1_555
C14B C13B 1_555 1_555
C15B C14B 1_555 1_555
H7B C15B 1_555 1_555
C16B C15B 1_555 1_555
H8B C16B 1_555 1_555
C17B C16B 1_555 1_555
H9B C17B 1_555 1_555
C18B C13B 1_555 1_555
C26B C8B 1_555 1_555
H15B C26B 1_555 1_555
H16B C26B 1_555 1_555
C27B C14B 1_555 1_555
C24B C27B 1_555 1_555
C19B C24B 1_555 1_555
O8B C19B 1_555 1_555
C40B C39 1_555 1_555
H43B C40B 1_555 1_555
H44B C40B 1_555 1_555
C20B C19B 1_555 1_555
C21B C20B 1_555 1_555
H10B C21B 1_555 1_555
C22B C21B 1_555 1_555
H11B C22B 1_555 1_555
C23B C24B 1_555 1_555
H12B C23B 1_555 1_555
C28B C20B 1_555 1_555
C6B C1B 1_555 1_555
C5B C6B 1_555 1_555
C4B C5B 1_555 1_555
C3B C2B 1_555 1_555
H1B C3B 1_555 1_555
H2B C4B 1_555 1_555
H3B C5B 1_555 1_555
H19B C28B 1_555 1_555
H20B C28B 1_555 1_555
H17B C27B 1_555 1_555
H18B C27B 1_555 1_555
H35B C36B 1_555 1_555
H36B C36B 1_555 1_555
H31B C34B 1_555 1_555
H32B C34B 1_555 1_555
H27B C32B 1_555 1_555
H28B C32B 1_555 1_555
H23B C30B 1_555 1_555
H24B C30B 1_555 1_555
H13B C25B 1_555 1_555
H14B C25B 1_555 1_555
H37B C37B 1_555 1_555
H38B C37B 1_555 1_555
H39B C38B 1_555 1_555
H40B C38B 1_555 1_555
H41B C39B 1_555 1_555
H42B C39B 1_555 1_555
C5 C6 1_555 1_555
C11 C12 1_555 1_555
C12 C25 1_555 1_555
C17 C18 1_555 1_555
C18 C26 1_555 1_555
C20 C28 1_555 1_555
C23 C24 1_555 1_555
C24 C27 1_555 1_555
C35 C36 1_555 1_555
C11B C12B 1_555 1_555
C17B C18B 1_555 1_555
C18B C26B 1_555 1_555
O8B C40B 1_555 1_555
C22B C23B 1_555 1_555
C28B C6B 1_555 1_555
C4B C3B 1_555 1_555

#END
