
#######################################################################
#
#                 Cambridge Crystallographic Data Centre
#                                CCDC 
#
#######################################################################
#
# If this CIF has been generated from an entry in the Cambridge 
# Structural Database, then it will include bibliographic, chemical, 
# crystal, experimental, refinement or atomic coordinate data resulting 
# from the CCDC's data processing and validation procedures.
#
#######################################################################

data_AKUXOU
_chemical_formula_moiety         'C21 H23 N1 O3 S1'
_chemical_name_systematic        
(4-Methylphenyl)(1-((4-methylphenyl)sulfonyl)-4-vinylpyrrolidin-3-yl)methanone
_symmetry_cell_setting           orthorhombic
_symmetry_space_group_name_H-M   'P n a 21'
_symmetry_Int_Tables_number      33
_space_group_name_Hall           'P 2c -2n'
loop_
_symmetry_equiv_pos_site_id
_symmetry_equiv_pos_as_xyz
1 x,y,z
2 -x,-y,1/2+z
3 1/2+x,1/2-y,z
4 1/2-x,1/2+y,1/2+z
_cell_length_a                   28.657(2)
_cell_length_b                   11.1553(7)
_cell_length_c                   6.0182(5)
_cell_angle_alpha                90
_cell_angle_beta                 90
_cell_angle_gamma                90
_cell_volume                     1923.88
_exptl_crystal_colour            colorless
_exptl_crystal_description       prism
_cell_formula_units_Z            4
loop_
_atom_site_label
_atom_site_type_symbol
_atom_site_fract_x
_atom_site_fract_y
_atom_site_fract_z
C1 C 0.31079(13) 0.2856(3) 0.1406(7)
C2 C 0.32986(14) 0.3010(4) 0.3498(7)
H1 H 0.3189 0.3638 0.4430
C3 C 0.36450(15) 0.2260(4) 0.4228(8)
H2 H 0.3775 0.2381 0.5662
C4 C 0.38103(16) 0.1322(4) 0.2909(8)
C5 C 0.42089(17) 0.0548(4) 0.3698(9)
H3 H 0.4278 -0.0062 0.2573
H4 H 0.4122 0.0155 0.5094
H5 H 0.4486 0.1048 0.3938
C6 C 0.36047(16) 0.1172(3) 0.0823(8)
H6 H 0.3708 0.0534 -0.0098
C7 C 0.32587(14) 0.1914(3) 0.0061(7)
H7 H 0.3124 0.1789 -0.1362
C8 C 0.20525(13) 0.3009(3) 0.3444(6)
H8 H 0.2020 0.3778 0.4252
H9 H 0.2289 0.2506 0.4195
C9 C 0.15825(12) 0.2355(3) 0.3247(6)
H10 H 0.1516 0.1891 0.4631
C10 C 0.11921(14) 0.3197(3) 0.2749(7)
H11 H 0.1230 0.3741 0.1549
C11 C 0.08010(14) 0.3234(4) 0.3859(8)
H12 H 0.0752 0.2702 0.5068
H13 H 0.0566 0.3793 0.3456
C12 C 0.16817(13) 0.1489(3) 0.1267(7)
H14 H 0.1853 0.0773 0.1848
C13 C 0.20086(14) 0.2188(3) -0.0259(6)
H15 H 0.2275 0.1683 -0.0730
H16 H 0.1841 0.2471 -0.1598
C14 C 0.12437(13) 0.1065(3) 0.0129(7)
C15 C 0.09470(12) 0.0142(3) 0.1247(6)
C16 C 0.10403(13) -0.0320(3) 0.3333(6)
H17 H 0.1304 -0.0038 0.4137
C17 C 0.07555(13) -0.1190(3) 0.4269(7)
H18 H 0.0827 -0.1500 0.5699
C18 C 0.03676(14) -0.1612(3) 0.3134(8)
C19 C 0.00607(14) -0.2571(3) 0.4157(9)
H19 H 0.0185 -0.2794 0.5617
H20 H 0.0056 -0.3277 0.3189
H21 H -0.0257 -0.2261 0.4326
C20 C 0.02655(13) -0.1137(3) 0.1041(7)
H22 H 0.0000 -0.1413 0.0248
C21 C 0.05494(12) -0.0267(3) 0.0119(6)
H23 H 0.0474 0.0057 -0.1296
N1 N 0.21699(10) 0.3205(2) 0.1083(5)
O1 O 0.26885(10) 0.3869(2) -0.1913(5)
O2 O 0.27021(10) 0.4914(2) 0.1723(5)
O3 O 0.11309(10) 0.1460(2) -0.1666(5)
S1 S 0.26659(4) 0.38298(9) 0.04732(17)
loop_
_geom_bond_atom_site_label_1
_geom_bond_atom_site_label_2
_geom_bond_site_symmetry_1
_geom_bond_site_symmetry_2
C1 C2 1_555 1_555
C2 H1 1_555 1_555
C3 C2 1_555 1_555
H2 C3 1_555 1_555
C4 C3 1_555 1_555
C5 C4 1_555 1_555
H3 C5 1_555 1_555
H4 C5 1_555 1_555
H5 C5 1_555 1_555
C6 C4 1_555 1_555
H6 C6 1_555 1_555
C7 C1 1_555 1_555
H7 C7 1_555 1_555
C8 H8 1_555 1_555
H9 C8 1_555 1_555
C9 C8 1_555 1_555
H10 C9 1_555 1_555
C10 C9 1_555 1_555
H11 C10 1_555 1_555
C11 C10 1_555 1_555
H12 C11 1_555 1_555
H13 C11 1_555 1_555
C12 C9 1_555 1_555
H14 C12 1_555 1_555
C13 C12 1_555 1_555
H15 C13 1_555 1_555
H16 C13 1_555 1_555
C14 C12 1_555 1_555
C15 C14 1_555 1_555
C16 C15 1_555 1_555
H17 C16 1_555 1_555
C17 C16 1_555 1_555
H18 C17 1_555 1_555
C18 C17 1_555 1_555
C19 C18 1_555 1_555
H19 C19 1_555 1_555
H20 C19 1_555 1_555
H21 C19 1_555 1_555
C20 C18 1_555 1_555
H22 C20 1_555 1_555
C21 C15 1_555 1_555
H23 C21 1_555 1_555
N1 C8 1_555 1_555
O1 S1 1_555 1_555
O2 S1 1_555 1_555
O3 C14 1_555 1_555
S1 C1 1_555 1_555
C6 C7 1_555 1_555
C13 N1 1_555 1_555
C20 C21 1_555 1_555
N1 S1 1_555 1_555

#END
