
#######################################################################
#
#                 Cambridge Crystallographic Data Centre
#                                CCDC 
#
#######################################################################
#
# If this CIF has been generated from an entry in the Cambridge 
# Structural Database, then it will include bibliographic, chemical, 
# crystal, experimental, refinement or atomic coordinate data resulting 
# from the CCDC's data processing and validation procedures.
#
#######################################################################

data_AKUYEM
_chemical_formula_moiety         
'C24 H22 N2 S2 2+,0.75(C1 H4 O1),2(H2 O1),2(Cl1 1-)'
_chemical_name_systematic        
"1,1'-bis(4-(methylsulfanyl)phenyl)-4,4'-bipyridinium dichloride methanol solvate dihydrate"
_symmetry_cell_setting           monoclinic
_symmetry_space_group_name_H-M   'P m'
_symmetry_Int_Tables_number      6
_space_group_name_Hall           'P -2y'
loop_
_symmetry_equiv_pos_site_id
_symmetry_equiv_pos_as_xyz
1 x,y,z
2 x,-y,z
_cell_length_a                   7.7704(5)
_cell_length_b                   16.1957(10)
_cell_length_c                   10.2976(6)
_cell_angle_alpha                90
_cell_angle_beta                 90.612(2)
_cell_angle_gamma                90
_cell_volume                     1295.85
_exptl_crystal_colour            'dark red'
_exptl_crystal_description       prism
_cell_formula_units_Z            2
loop_
_atom_site_label
_atom_site_type_symbol
_atom_site_fract_x
_atom_site_fract_y
_atom_site_fract_z
Cl1 Cl 0.64270(16) 1.0000 0.38420(11)
Cl2 Cl 0.65292(14) 1.0000 0.87454(12)
Cl3 Cl 0.14052(14) 0.5000 0.60957(10)
Cl4 Cl 0.1814(2) 0.5000 1.07300(11)
S1 S 0.79466(8) 0.71747(5) -0.13822(6)
S2 S -0.04638(9) 0.78033(4) 1.57918(6)
N1 N 0.5392(3) 0.73002(14) 0.4062(2)
N2 N 0.2358(3) 0.76285(14) 1.0425(2)
C1 C 0.6003(3) 0.72498(17) 0.2750(3)
C2 C 0.6824(3) 0.79336(17) 0.2201(3)
H1 H 0.6981 0.8426 0.2689
C3 C 0.7400(3) 0.78829(17) 0.0944(3)
H2 H 0.7954 0.8345 0.0564
C4 C 0.7180(4) 0.71548(18) 0.0215(3)
C5 C 0.6345(3) 0.64865(17) 0.0775(3)
H3 H 0.6178 0.5995 0.0287
C6 C 0.5754(3) 0.65315(17) 0.2038(3)
H4 H 0.5183 0.6073 0.2415
C7 C 0.8152(4) 0.6098(2) -0.1785(3)
H5 H 0.8674 0.6043 -0.2643
H6 H 0.7011 0.5840 -0.1797
H7 H 0.8883 0.5824 -0.1134
C8 C 0.4826(3) 0.80300(16) 0.4532(3)
H8 H 0.4834 0.8503 0.3987
C9 C 0.4243(3) 0.81010(16) 0.5775(3)
H9 H 0.3886 0.8623 0.6094
C10 C 0.4175(3) 0.74121(18) 0.6569(3)
C11 C 0.4728(3) 0.66559(16) 0.6062(2)
H10 H 0.4662 0.6169 0.6574
C12 C 0.5362(3) 0.66189(16) 0.4830(2)
H11 H 0.5786 0.6110 0.4507
C13 C 0.3339(4) 0.82347(16) 0.9913(3)
H12 H 0.3632 0.8704 1.0422
C14 C 0.3910(4) 0.81743(16) 0.8663(2)
H13 H 0.4571 0.8610 0.8305
C15 C 0.3532(3) 0.74826(17) 0.7915(3)
C16 C 0.2535(3) 0.68608(16) 0.8461(3)
H14 H 0.2260 0.6379 0.7976
C17 C 0.1950(3) 0.69525(16) 0.9712(3)
H15 H 0.1250 0.6534 1.0079
C18 C 0.1729(3) 0.76998(17) 1.1750(3)
C19 C 0.1302(3) 0.84714(17) 1.2234(3)
H16 H 0.1451 0.8953 1.1721
C20 C 0.0648(4) 0.85281(17) 1.3489(3)
H17 H 0.0355 0.9052 1.3838
C21 C 0.0423(3) 0.78158(17) 1.4232(3)
C22 C 0.0900(4) 0.70468(17) 1.3730(3)
H18 H 0.0782 0.6564 1.4247
C23 C 0.1544(3) 0.69854(17) 1.2486(3)
H19 H 0.1855 0.6463 1.2140
C24 C -0.0731(4) 0.88774(19) 1.6175(3)
H20 H -0.1504 0.9134 1.5533
H21 H 0.0391 0.9154 1.6157
H22 H -0.1225 0.8931 1.7042
O1 O 0.7899(5) 0.5000 0.4528(4)
C25 C 0.8578(6) 0.5000 0.3290(5)
O2 O 0.3594(4) 0.5000 0.3509(3)
H23 H 0.277(4) 0.5000 0.410(3)
H24 H 0.321(7) 0.5000 0.269(2)
H25 H 0.371(6) 0.5000 0.905(3)
O3 O 0.4257(4) 0.5000 0.8288(4)
H26 H 0.341(6) 0.5000 0.770(4)
H27 H 0.480(5) 1.0000 0.690(3)
H28 H 0.454(6) 1.0000 0.554(3)
O4 O 0.3981(6) 1.0000 0.6314(4)
O5 O 0.1137(7) 1.0000 0.9024(6)
C26 C 0.0100(13) 1.0000 1.0089(9)
O6 O 0.4314(4) 1.0000 1.1264(3)
H29 H 0.522(6) 1.0000 1.071(5)
H30 H 0.504(7) 1.0000 1.199(4)
H31? H 0.8914 0.4437 0.3054
H32? H 0.9590 0.5361 0.3270
H33? H 0.7710 0.5203 0.2670
H34? H 0.7895 0.4516 0.4821
H35? H 0.1044 0.9546 0.8636
H36? H 0.0757 0.9795 1.0840
H37? H -0.0897 0.9642 0.9932
H38? H -0.0295 1.0564 1.0262
loop_
_geom_bond_atom_site_label_1
_geom_bond_atom_site_label_2
_geom_bond_site_symmetry_1
_geom_bond_site_symmetry_2
S1 C4 1_555 1_555
S2 C21 1_555 1_555
N1 C1 1_555 1_555
N2 C13 1_555 1_555
C1 C2 1_555 1_555
C2 H1 1_555 1_555
C3 C2 1_555 1_555
H2 C3 1_555 1_555
C4 C3 1_555 1_555
C5 C4 1_555 1_555
H3 C5 1_555 1_555
C6 C1 1_555 1_555
H4 C6 1_555 1_555
C7 S1 1_555 1_555
H5 C7 1_555 1_555
H6 C7 1_555 1_555
H7 C7 1_555 1_555
C8 N1 1_555 1_555
H8 C8 1_555 1_555
C9 C8 1_555 1_555
H9 C9 1_555 1_555
C10 C9 1_555 1_555
C11 C10 1_555 1_555
H10 C11 1_555 1_555
C12 N1 1_555 1_555
H11 C12 1_555 1_555
C13 H12 1_555 1_555
C14 C13 1_555 1_555
H13 C14 1_555 1_555
C15 C10 1_555 1_555
C16 C15 1_555 1_555
H14 C16 1_555 1_555
C17 N2 1_555 1_555
H15 C17 1_555 1_555
C18 N2 1_555 1_555
C19 C18 1_555 1_555
H16 C19 1_555 1_555
C20 C19 1_555 1_555
H17 C20 1_555 1_555
C21 C20 1_555 1_555
C22 C21 1_555 1_555
H18 C22 1_555 1_555
C23 C18 1_555 1_555
H19 C23 1_555 1_555
C24 S2 1_555 1_555
H20 C24 1_555 1_555
H21 C24 1_555 1_555
H22 C24 1_555 1_555
O1 C25 1_555 1_555
O2 H23 1_555 1_555
H24 O2 1_555 1_555
H25 O3 1_555 1_555
O3 H26 1_555 1_555
H27 O4 1_555 1_555
H28 O4 1_555 1_555
O5 C26 1_555 1_555
O6 H29 1_555 1_555
H30 O6 1_555 1_555
C5 C6 1_555 1_555
C11 C12 1_555 1_555
C14 C15 1_555 1_555
C16 C17 1_555 1_555
C22 C23 1_555 1_555

#END
