
#######################################################################
#
#                 Cambridge Crystallographic Data Centre
#                                CCDC 
#
#######################################################################
#
# If this CIF has been generated from an entry in the Cambridge 
# Structural Database, then it will include bibliographic, chemical, 
# crystal, experimental, refinement or atomic coordinate data resulting 
# from the CCDC's data processing and validation procedures.
#
#######################################################################

data_AKUYOV
_chemical_formula_moiety         'C22 H20 O1'
_chemical_name_systematic        (2-Vinylcyclopentyl)(9-phenanthryl)methanone
_symmetry_cell_setting           monoclinic
_symmetry_space_group_name_H-M   'P 21'
_symmetry_Int_Tables_number      4
_space_group_name_Hall           'P 2yb'
loop_
_symmetry_equiv_pos_site_id
_symmetry_equiv_pos_as_xyz
1 x,y,z
2 -x,1/2+y,-z
_cell_length_a                   10.6205(4)
_cell_length_b                   15.0939(6)
_cell_length_c                   11.2337(5)
_cell_angle_alpha                90
_cell_angle_beta                 113.239(2)
_cell_angle_gamma                90
_cell_volume                     1654.71
_exptl_crystal_colour            colorless
_exptl_crystal_description       prism
_cell_formula_units_Z            4
loop_
_atom_site_label
_atom_site_type_symbol
_atom_site_fract_x
_atom_site_fract_y
_atom_site_fract_z
C1 C 0.8010(6) 0.1633(4) 1.0509(6)
C2 C 0.7800(5) 0.1384(4) 0.9156(5)
C3 C 0.6461(6) 0.1132(4) 0.8223(5)
C4 C 0.5292(6) 0.1168(4) 0.8514(6)
H1 H 0.5372 0.1342 0.9335
C5 C 0.4050(7) 0.0951(5) 0.7604(7)
H2 H 0.3287 0.0966 0.7815
C6 C 0.3892(6) 0.0708(5) 0.6376(6)
H3 H 0.3023 0.0581 0.5759
C7 C 0.4984(6) 0.0651(5) 0.6057(6)
H4 H 0.4866 0.0459 0.5233
C8 C 0.6306(5) 0.0880(4) 0.6952(5)
C9 C 0.7514(6) 0.0852(4) 0.6629(5)
C10 C 0.7443(7) 0.0614(5) 0.5401(6)
H5 H 0.6604 0.0458 0.4757
C11 C 0.8609(8) 0.0607(6) 0.5135(7)
H6 H 0.8546 0.0446 0.4314
C12 C 0.9874(7) 0.0840(5) 0.6084(7)
H7 H 1.0654 0.0840 0.5899
C13 C 0.9956(7) 0.1061(6) 0.7258(6)
H8 H 1.0809 0.1198 0.7896
C14 C 0.8781(6) 0.1097(4) 0.7575(5)
C15 C 0.8871(6) 0.1367(4) 0.8817(5)
H9 H 0.9721 0.1541 0.9426
C16 C 0.8656(7) 0.2554(4) 1.0987(5)
H10 H 0.9530 0.2586 1.0886
C17 C 0.7748(10) 0.3267(6) 1.0191(7)
H11 H 0.6792 0.3106 0.9935
H12 H 0.7920 0.3373 0.9417
C18 C 0.8100(18) 0.4118(11) 1.1079(15)
H13 H 0.8585 0.4549 1.0777
H14 H 0.7269 0.4390 1.1072
C19 C 0.8961(17) 0.3813(9) 1.2377(13)
H15 H 0.8628 0.4053 1.3000
H16 H 0.9895 0.4015 1.2608
C20 C 0.8920(7) 0.2773(4) 1.2398(6)
H17 H 0.8113 0.2551 1.2515
C21 C 1.1288(16) 0.2764(12) 1.4065(14)
H18 H 1.1189 0.2264 1.4504
H19 H 1.2123 0.3060 1.4350
C22 C 1.0082(11) 0.2366(8) 1.3346(11)
H20 H 0.9909 0.1768 1.3151
O1 O 0.7660(6) 0.1153(4) 1.1173(4)
C23 C 0.3236(6) 0.1393(4) 0.1189(6)
C24 C 0.3232(6) 0.0590(4) 0.1975(5)
C25 C 0.2182(6) 0.0508(4) 0.2388(6)
H21 H 0.1569 0.0975 0.2249
C26 C 0.1999(7) -0.0268(4) 0.3021(5)
C27 C 0.0898(8) -0.0359(5) 0.3426(6)
H22 H 0.0294 0.0113 0.3292
C28 C 0.0690(8) -0.1081(6) 0.3984(7)
H23 H -0.0058 -0.1123 0.4214
C29 C 0.1605(9) -0.1771(5) 0.4219(7)
H24 H 0.1474 -0.2277 0.4629
C30 C 0.2717(8) -0.1738(5) 0.3865(6)
H25 H 0.3300 -0.2223 0.4013
C31 C 0.2960(6) -0.0970(4) 0.3284(5)
C32 C 0.4108(6) -0.0889(4) 0.2915(5)
C33 C 0.5104(7) -0.1550(5) 0.3137(6)
H26 H 0.5042 -0.2070 0.3555
C34 C 0.6173(7) -0.1443(6) 0.2746(7)
H27 H 0.6820 -0.1892 0.2908
C35 C 0.6303(7) -0.0689(5) 0.2123(7)
H28 H 0.7038 -0.0623 0.1877
C36 C 0.5340(7) -0.0037(5) 0.1868(6)
H29 H 0.5432 0.0471 0.1441
C37 C 0.4223(6) -0.0101(4) 0.2223(5)
C38 C 0.3181(8) 0.2284(5) 0.1740(7)
H30 H 0.2371 0.2314 0.1951
C39 C 0.4490(11) 0.2449(5) 0.3004(8)
H31 H 0.4372 0.2201 0.3749
H32 H 0.5286 0.2177 0.2935
C40 C 0.4664(17) 0.3422(11) 0.3137(15)
H33 H 0.4383 0.3640 0.3807
H34 H 0.5614 0.3583 0.3361
C41 C 0.3818(19) 0.3782(12) 0.1912(17)
H35 H 0.4364 0.4173 0.1620
H36 H 0.3101 0.4135 0.2009
C42 C 0.3138(10) 0.3048(5) 0.0847(8)
H37 H 0.3662 0.2834 0.0355
C44 C 0.1028(19) 0.4016(13) -0.0094(19)
H39 H 0.0741 0.3800 -0.0935
H40 H 0.0522 0.4454 0.0100
C45 C 0.195(2) 0.3131(13) -0.0107(19)
H41 H 0.1836 0.2631 -0.0623
O2 O 0.3275(6) 0.1295(4) 0.0131(6)
C43? C 0.196(2) 0.3758(16) 0.066(2)
H38? H 0.2111 0.4036 0.1448
C46? C 0.102(2) 0.3525(19) -0.057(3)
H42? H 0.0926 0.4059 -0.0201
H43? H 0.0331 0.3327 -0.1330
C47? C 0.748(2) 0.3943(14) 1.1136(19)
C48? C 0.813(2) 0.3706(13) 1.2329(18)
C49? C 1.041(2) 0.3007(16) 1.321(2)
C50? C 1.108(3) 0.235(3) 1.418(3)
C51? C 0.524(3) 0.322(2) 0.250(3)
C52? C 0.435(3) 0.3567(19) 0.136(3)
H44? H 0.7777 0.4530 1.1007
H45? H 0.6506 0.3969 1.0942
H46? H 0.7496 0.3643 1.2747
H47? H 0.8796 0.4159 1.2787
H48? H 1.0664 0.3509 1.2871
H49? H 1.1493 0.2874 1.4577
H50? H 1.1500 0.1809 1.4496
H51? H 0.5560 0.3684 0.3149
H52? H 0.6026 0.2970 0.2389
H53? H 0.4784 0.3582 0.0742
H54? H 0.4120 0.4170 0.1494
loop_
_geom_bond_atom_site_label_1
_geom_bond_atom_site_label_2
_geom_bond_site_symmetry_1
_geom_bond_site_symmetry_2
C1 C2 1_555 1_555
C2 C3 1_555 1_555
C3 C4 1_555 1_555
C4 H1 1_555 1_555
C5 C4 1_555 1_555
H2 C5 1_555 1_555
C6 C5 1_555 1_555
H3 C6 1_555 1_555
C7 C6 1_555 1_555
H4 C7 1_555 1_555
C8 C3 1_555 1_555
C9 C8 1_555 1_555
C10 C9 1_555 1_555
H5 C10 1_555 1_555
C11 C10 1_555 1_555
H6 C11 1_555 1_555
C12 C11 1_555 1_555
H7 C12 1_555 1_555
C13 C12 1_555 1_555
H8 C13 1_555 1_555
C14 C9 1_555 1_555
C15 C2 1_555 1_555
H9 C15 1_555 1_555
C16 C1 1_555 1_555
H10 C16 1_555 1_555
C17 C16 1_555 1_555
H11 C17 1_555 1_555
H12 C17 1_555 1_555
C18 C17 1_555 1_555
H13 C18 1_555 1_555
H14 C18 1_555 1_555
C19 C18 1_555 1_555
H15 C19 1_555 1_555
H16 C19 1_555 1_555
C20 C16 1_555 1_555
H17 C20 1_555 1_555
C21 H18 1_555 1_555
H19 C21 1_555 1_555
C22 C20 1_555 1_555
H20 C22 1_555 1_555
C23 C24 1_555 1_555
C24 C25 1_555 1_555
C25 H21 1_555 1_555
C26 C25 1_555 1_555
C27 C26 1_555 1_555
H22 C27 1_555 1_555
C28 C27 1_555 1_555
H23 C28 1_555 1_555
C29 C28 1_555 1_555
H24 C29 1_555 1_555
C30 C29 1_555 1_555
H25 C30 1_555 1_555
C31 C26 1_555 1_555
C32 C31 1_555 1_555
C33 C32 1_555 1_555
H26 C33 1_555 1_555
C34 C33 1_555 1_555
H27 C34 1_555 1_555
C35 C34 1_555 1_555
H28 C35 1_555 1_555
C36 C35 1_555 1_555
H29 C36 1_555 1_555
C37 C24 1_555 1_555
C38 C23 1_555 1_555
H30 C38 1_555 1_555
C39 C38 1_555 1_555
H31 C39 1_555 1_555
H32 C39 1_555 1_555
C40 C39 1_555 1_555
H33 C40 1_555 1_555
H34 C40 1_555 1_555
C41 C40 1_555 1_555
H35 C41 1_555 1_555
H36 C41 1_555 1_555
C42 C38 1_555 1_555
H37 C42 1_555 1_555
C44 H39 1_555 1_555
H40 C44 1_555 1_555
C45 C42 1_555 1_555
H41 C45 1_555 1_555
O1 C1 1_555 1_555
O2 C23 1_555 1_555
C7 C8 1_555 1_555
C13 C14 1_555 1_555
C14 C15 1_555 1_555
C19 C20 1_555 1_555
C21 C22 1_555 1_555
C30 C31 1_555 1_555
C32 C37 1_555 1_555
C36 C37 1_555 1_555
C41 C42 1_555 1_555
C44 C45 1_555 1_555

#END
