
#######################################################################
#
#                 Cambridge Crystallographic Data Centre
#                                CCDC 
#
#######################################################################
#
# If this CIF has been generated from an entry in the Cambridge 
# Structural Database, then it will include bibliographic, chemical, 
# crystal, experimental, refinement or atomic coordinate data resulting 
# from the CCDC's data processing and validation procedures.
#
#######################################################################

data_AKUYUB
_chemical_formula_moiety         'C21 H20 O1'
_chemical_name_systematic        9H-Fluoren-2-yl(2-vinylcyclopentyl)methanone
_symmetry_cell_setting           orthorhombic
_symmetry_space_group_name_H-M   'P 21 21 21'
_symmetry_Int_Tables_number      19
_space_group_name_Hall           'P 2ac 2ab'
loop_
_symmetry_equiv_pos_site_id
_symmetry_equiv_pos_as_xyz
1 x,y,z
2 1/2-x,-y,1/2+z
3 -x,1/2+y,1/2-z
4 1/2+x,1/2-y,-z
_cell_length_a                   5.5989(2)
_cell_length_b                   8.4736(3)
_cell_length_c                   34.6488(13)
_cell_angle_alpha                90
_cell_angle_beta                 90
_cell_angle_gamma                90
_cell_volume                     1643.84
_exptl_crystal_colour            colorless
_exptl_crystal_description       prism
_cell_formula_units_Z            4
loop_
_atom_site_label
_atom_site_type_symbol
_atom_site_fract_x
_atom_site_fract_y
_atom_site_fract_z
C1 C 0.5047(11) 1.0188(6) 0.13056(16)
C2 C 0.4567(8) 1.0268(4) 0.08834(13)
C3 C 0.6187(7) 0.9556(4) 0.06315(15)
H1 H 0.7538 0.9050 0.0727
C4 C 0.5767(7) 0.9610(4) 0.02427(14)
C5 C 0.3768(6) 1.0403(4) 0.00953(14)
C6 C 0.2169(7) 1.1124(4) 0.03479(13)
H2 H 0.0846 1.1664 0.0253
C7 C 0.2569(8) 1.1029(4) 0.07346(14)
H3 H 0.1478 1.1484 0.0904
C8 C 0.7138(7) 0.8857(4) -0.00870(13)
H4 H 0.8748 0.9274 -0.0104
H5 H 0.7212 0.7720 -0.0058
C9 C 0.5684(8) 0.9316(4) -0.04314(15)
C10 C 0.3759(7) 1.0243(4) -0.03226(14)
C11 C 0.2182(9) 1.0819(5) -0.05962(15)
H6 H 0.0900 1.1451 -0.0524
C12 C 0.2552(10) 1.0436(6) -0.09787(16)
H7 H 0.1493 1.0800 -0.1165
C13 C 0.4492(12) 0.9511(6) -0.10883(16)
H8 H 0.4734 0.9270 -0.1347
C14 C 0.6046(10) 0.8956(5) -0.08141(17)
H9 H 0.7341 0.8337 -0.0887
C15 C 0.3080(10) 1.0467(6) 0.15871(15)
H10 H 0.1556 1.0173 0.1468
C16 C 0.3281(12) 0.9682(6) 0.19697(18)
H11 H 0.4929 0.9726 0.2065
C17 C 0.238(2) 0.7998(12) 0.1964(3)
H12 H 0.0746 0.7870 0.1931
C18 C 0.349(3) 0.6841(19) 0.1995(4)
H13 H 0.5140 0.6894 0.2029
H14 H 0.2734 0.5866 0.1987
C19 C 0.1638(13) 1.0521(9) 0.22387(19)
H15 H 0.2150 1.0407 0.2505
H16 H 0.0012 1.0140 0.2214
C20 C 0.1862(19) 1.2252(8) 0.2101(2)
H17 H 0.0295 1.2738 0.2088
H18 H 0.2837 1.2851 0.2280
C21 C 0.2943(16) 1.2251(6) 0.17265(18)
H19 H 0.4532 1.2705 0.1739
H20 H 0.1993 1.2870 0.1548
O1 O 0.7075(7) 0.9918(5) 0.14212(11)
C22? C 0.319(6) 0.789(3) 0.1853(8)
C23? C 0.474(5) 0.697(3) 0.1881(7)
H21? H 0.1759 0.7519 0.1750
H22? H 0.6203 0.7277 0.1982
H23? H 0.4500 0.5930 0.1803
loop_
_geom_bond_atom_site_label_1
_geom_bond_atom_site_label_2
_geom_bond_site_symmetry_1
_geom_bond_site_symmetry_2
C1 C2 1_555 1_555
C2 C3 1_555 1_555
C3 H1 1_555 1_555
C4 C3 1_555 1_555
C5 C4 1_555 1_555
C6 C5 1_555 1_555
H2 C6 1_555 1_555
C7 C2 1_555 1_555
H3 C7 1_555 1_555
C8 C4 1_555 1_555
H4 C8 1_555 1_555
H5 C8 1_555 1_555
C9 C8 1_555 1_555
C10 C5 1_555 1_555
C11 C10 1_555 1_555
H6 C11 1_555 1_555
C12 C11 1_555 1_555
H7 C12 1_555 1_555
C13 C12 1_555 1_555
H8 C13 1_555 1_555
C14 C9 1_555 1_555
H9 C14 1_555 1_555
C15 C1 1_555 1_555
H10 C15 1_555 1_555
C16 C15 1_555 1_555
H11 C16 1_555 1_555
C17 C16 1_555 1_555
H12 C17 1_555 1_555
C18 C17 1_555 1_555
H13 C18 1_555 1_555
H14 C18 1_555 1_555
C19 C16 1_555 1_555
H15 C19 1_555 1_555
H16 C19 1_555 1_555
C20 C19 1_555 1_555
H17 C20 1_555 1_555
H18 C20 1_555 1_555
C21 C15 1_555 1_555
H19 C21 1_555 1_555
H20 C21 1_555 1_555
O1 C1 1_555 1_555
C6 C7 1_555 1_555
C9 C10 1_555 1_555
C13 C14 1_555 1_555
C20 C21 1_555 1_555

#END
