
#######################################################################
#
#                 Cambridge Crystallographic Data Centre
#                                CCDC 
#
#######################################################################
#
# If this CIF has been generated from an entry in the Cambridge 
# Structural Database, then it will include bibliographic, chemical, 
# crystal, experimental, refinement or atomic coordinate data resulting 
# from the CCDC's data processing and validation procedures.
#
#######################################################################

data_ALABAR
_chemical_formula_moiety         'C26 H18 N2 O2 S1'
_chemical_name_systematic        
2-(2-Naphthylmethyl)-1-(phenylsulfonyl)-1H-indole-5-carbonitrile
_symmetry_cell_setting           monoclinic
_symmetry_space_group_name_H-M   'P 21/n'
_symmetry_Int_Tables_number      14
_space_group_name_Hall           '-P 2yn'
loop_
_symmetry_equiv_pos_site_id
_symmetry_equiv_pos_as_xyz
1 x,y,z
2 1/2-x,1/2+y,1/2-z
3 -x,-y,-z
4 1/2+x,1/2-y,1/2+z
_cell_length_a                   18.0309(4)
_cell_length_b                   5.88641(15)
_cell_length_c                   19.5220(4)
_cell_angle_alpha                90
_cell_angle_beta                 98.636(2)
_cell_angle_gamma                90
_cell_volume                     2048.52
_exptl_crystal_colour            colorless
_exptl_crystal_description       needles
_chemical_melting_point          '142.0-143.0 deg.C'
_cell_formula_units_Z            4
_exptl_crystal_recrystallization_method hexane/dichloromethane
loop_
_atom_site_label
_atom_site_type_symbol
_atom_site_fract_x
_atom_site_fract_y
_atom_site_fract_z
N1 N 0.44400(10) 0.1958(3) 0.31612(9)
C1 C 0.52282(13) 0.1834(4) 0.34131(12)
C2 C 0.54009(12) 0.3540(4) 0.38656(12)
H1 H 0.5886 0.3828 0.4114
C3 C 0.47437(12) 0.4862(4) 0.39178(12)
C4 C 0.46096(13) 0.6747(4) 0.43108(12)
H2 H 0.5007 0.7458 0.4610
C5 C 0.38807(14) 0.7562(5) 0.42547(12)
C6 C 0.32945(14) 0.6495(5) 0.38240(13)
H3 H 0.2800 0.7075 0.3802
C7 C 0.34130(13) 0.4626(5) 0.34297(12)
H4 H 0.3013 0.3908 0.3136
C8 C 0.41467(12) 0.3843(4) 0.34820(11)
S1 S 0.39928(3) 0.07768(13) 0.24368(3)
O1 O 0.44218(9) -0.1169(3) 0.23070(9)
O2 O 0.32266(8) 0.0561(3) 0.25401(9)
C9 C 0.40308(14) 0.2824(5) 0.17839(12)
C10 C 0.34653(16) 0.4446(5) 0.16502(14)
H5 H 0.3065 0.4476 0.1916
C11 C 0.34923(17) 0.6010(5) 0.11276(15)
H6 H 0.3109 0.7122 0.1032
C12 C 0.4071(2) 0.5964(6) 0.07456(16)
H7 H 0.4083 0.7039 0.0384
C13 C 0.46310(18) 0.4390(7) 0.08786(16)
H8 H 0.5032 0.4388 0.0613
C14 C 0.46168(15) 0.2776(6) 0.14051(15)
H9 H 0.5003 0.1672 0.1499
C15 C 0.57417(13) -0.0025(4) 0.32385(12)
H10 H 0.5446 -0.1438 0.3146
H11 H 0.6127 -0.0303 0.3647
C16 C 0.61373(11) 0.0468(4) 0.26156(12)
C17 C 0.61402(12) -0.1068(4) 0.20950(12)
H12 H 0.5868 -0.2445 0.2107
C18 C 0.65421(12) -0.0658(4) 0.15322(12)
C19 C 0.65610(13) -0.2247(5) 0.09937(13)
H13 H 0.6285 -0.3622 0.0992
C20 C 0.69747(14) -0.1827(5) 0.04725(13)
H14 H 0.6984 -0.2914 0.0114
C21 C 0.73833(14) 0.0187(5) 0.04642(14)
H15 H 0.7674 0.0451 0.0105
C22 C 0.73657(12) 0.1772(4) 0.09697(13)
H16 H 0.7636 0.3151 0.0953
C23 C 0.69480(12) 0.1391(4) 0.15221(12)
C24 C 0.69368(12) 0.2951(4) 0.20680(12)
H17 H 0.7210 0.4331 0.2067
C25 C 0.65411(12) 0.2521(4) 0.26007(12)
H18 H 0.6538 0.3606 0.2961
C26 C 0.37270(14) 0.9521(5) 0.46473(14)
N2 N 0.36068(12) 1.1095(4) 0.49642(12)
loop_
_geom_bond_atom_site_label_1
_geom_bond_atom_site_label_2
_geom_bond_site_symmetry_1
_geom_bond_site_symmetry_2
N1 C1 1_555 1_555
C1 C2 1_555 1_555
C2 H1 1_555 1_555
C3 C2 1_555 1_555
C4 C3 1_555 1_555
H2 C4 1_555 1_555
C5 C4 1_555 1_555
C6 C5 1_555 1_555
H3 C6 1_555 1_555
C7 C6 1_555 1_555
H4 C7 1_555 1_555
C8 N1 1_555 1_555
S1 N1 1_555 1_555
O1 S1 1_555 1_555
O2 S1 1_555 1_555
C9 S1 1_555 1_555
C10 C9 1_555 1_555
H5 C10 1_555 1_555
C11 C10 1_555 1_555
H6 C11 1_555 1_555
C12 C11 1_555 1_555
H7 C12 1_555 1_555
C13 C12 1_555 1_555
H8 C13 1_555 1_555
C14 C9 1_555 1_555
H9 C14 1_555 1_555
C15 C1 1_555 1_555
H10 C15 1_555 1_555
H11 C15 1_555 1_555
C16 C15 1_555 1_555
C17 C16 1_555 1_555
H12 C17 1_555 1_555
C18 C17 1_555 1_555
C19 C18 1_555 1_555
H13 C19 1_555 1_555
C20 C19 1_555 1_555
H14 C20 1_555 1_555
C21 C20 1_555 1_555
H15 C21 1_555 1_555
C22 C21 1_555 1_555
H16 C22 1_555 1_555
C23 C18 1_555 1_555
C24 C23 1_555 1_555
H17 C24 1_555 1_555
C25 C16 1_555 1_555
H18 C25 1_555 1_555
C26 C5 1_555 1_555
N2 C26 1_555 1_555
C3 C8 1_555 1_555
C7 C8 1_555 1_555
C13 C14 1_555 1_555
C22 C23 1_555 1_555
C24 C25 1_555 1_555

#END
