
#######################################################################
#
#                 Cambridge Crystallographic Data Centre
#                                CCDC 
#
#######################################################################
#
# If this CIF has been generated from an entry in the Cambridge 
# Structural Database, then it will include bibliographic, chemical, 
# crystal, experimental, refinement or atomic coordinate data resulting 
# from the CCDC's data processing and validation procedures.
#
#######################################################################

data_ALABIZ
_chemical_formula_moiety         'C24 H22 N2 2+,C32 H46 O10,2(F6 P1 1-)'
_chemical_name_systematic        
"(2)-(N,N'-Dibenzyl-4,4'-bipyridinium 4,7,10,13,19,22,25,28,32,39-decaoxatetracyclo[14.14.10.1^3,29^.1^14,18^]dotetraconta-1,3(41),14(42),15,17,29-hexaene) pseudorotaxane bis(hexafluorophosphate)"
_symmetry_cell_setting           triclinic
_symmetry_space_group_name_H-M   'P -1'
_symmetry_Int_Tables_number      2
_space_group_name_Hall           '-P 1'
loop_
_symmetry_equiv_pos_site_id
_symmetry_equiv_pos_as_xyz
1 x,y,z
2 -x,-y,-z
_cell_length_a                   13.672(11)
_cell_length_b                   14.541(11)
_cell_length_c                   16.402(12)
_cell_angle_alpha                112.152(10)
_cell_angle_beta                 92.063(12)
_cell_angle_gamma                104.255(12)
_cell_volume                     2896.8
_exptl_crystal_colour            red
_exptl_crystal_description       block
_cell_formula_units_Z            2
loop_
_atom_site_label
_atom_site_type_symbol
_atom_site_fract_x
_atom_site_fract_y
_atom_site_fract_z
O1 O 0.7150(5) 0.4432(5) 0.4642(4)
O2 O 0.5029(5) 0.3461(5) 0.4048(4)
O3 O 0.3878(5) 0.4072(5) 0.3016(4)
O4 O 0.4428(6) 0.4042(5) 0.1304(4)
O5 O 0.6507(6) 0.7068(7) 0.1148(5)
O6 O 0.8669(7) 0.8007(7) 0.1607(6)
O7 O 0.9928(6) 0.8153(8) 0.3132(7)
O8 O 0.9677(5) 0.6765(6) 0.4033(5)
O9 O 0.8207(7) 0.3999(6) 0.0280(5)
O10 O 0.9802(5) 0.2754(6) 0.2545(5)
C1 C 0.6305(10) 0.6004(11) 0.0879(7)
C2 C 0.9551(9) 0.4128(10) 0.3792(7)
C3 C 1.0385(9) 0.2056(10) 0.2134(8)
H1 H 1.0199 0.1464 0.2294
H2 H 1.1105 0.2400 0.2346
C4 C 0.6635(10) 0.4367(13) 0.0211(7)
C5 C 0.5225(8) 0.4542(10) 0.0991(6)
C6 C 0.3223(8) 0.3997(8) 0.2287(6)
H3 H 0.2651 0.4259 0.2497
H4 H 0.2958 0.3281 0.1873
C7 C 0.3821(7) 0.4618(8) 0.1839(6)
H5 H 0.3365 0.4771 0.1473
H6 H 0.4252 0.5267 0.2279
C8 C 0.8084(8) 0.4613(9) 0.4363(6)
C9 C 0.5457(8) 0.5585(10) 0.1178(6)
H7 H 0.5054 0.5988 0.1494
C10 C 0.8481(7) 0.5579(9) 0.4362(6)
H8 H 0.8140 0.6083 0.4579
C11 C 0.8631(9) 0.3865(8) 0.4086(6)
H9 H 0.8379 0.3217 0.4101
C12 C 0.4054(8) 0.3559(8) 0.4233(6)
H10 H 0.4113 0.4246 0.4674
H11 H 0.3735 0.3060 0.4472
C13 C 0.9927(8) 0.5078(10) 0.3739(6)
H12 H 1.0528 0.5225 0.3506
C14 C 0.6643(8) 0.3407(8) 0.4556(7)
H13 H 0.7000 0.3223 0.4967
H14 H 0.6622 0.2912 0.3956
C15 C 0.7310(10) 0.3749(11) -0.0295(7)
H15 H 0.6967 0.3016 -0.0507
H16 H 0.7469 0.3913 -0.0805
C16 C 0.5820(9) 0.3944(9) 0.0495(6)
H17 H 0.5643 0.3238 0.0361
C17 C 0.6910(9) 0.5420(13) 0.0404(7)
H18 H 0.7489 0.5726 0.0217
C18 C 1.0198(12) 0.1709(11) 0.1169(9)
H19 H 0.9471 0.1390 0.0976
H20 H 1.0538 0.1176 0.0906
C19 C 0.9616(11) 0.8692(10) 0.2000(9)
H21 H 0.9531 0.9309 0.2464
H22 H 0.9953 0.8894 0.1559
C20 C 0.9392(8) 0.5795(10) 0.4038(6)
C21 C 1.0683(10) 0.8112(10) 0.3717(9)
H23 H 1.0650 0.8563 0.4321
H24 H 1.1350 0.8370 0.3573
C22 C 0.3422(7) 0.3379(8) 0.3411(6)
H25 H 0.3324 0.2672 0.2990
H26 H 0.2758 0.3465 0.3546
C23 C 1.0107(8) 0.3317(9) 0.3459(7)
H27 H 1.0836 0.3643 0.3576
H28 H 0.9957 0.2856 0.3766
C24 C 1.0568(8) 0.7050(10) 0.3672(8)
H29 H 1.0511 0.6570 0.3059
H30 H 1.1157 0.7035 0.4009
C25 C 0.7134(10) 0.7604(11) 0.0693(8)
H31 H 0.7391 0.7119 0.0227
H32 H 0.6726 0.7897 0.0417
C26 C 0.8940(13) 0.3572(13) -0.0229(10)
H33 H 0.9129 0.3905 -0.0636
H34 H 0.8635 0.2839 -0.0580
C27 C 0.5597(8) 0.3398(8) 0.4760(6)
H35 H 0.5273 0.2766 0.4833
H36 H 0.5619 0.3980 0.5309
C28 C 1.0269(10) 0.8236(12) 0.2391(9)
H37 H 1.0258 0.7557 0.1959
H38 H 1.0968 0.8670 0.2540
C29 C 0.9799(17) 0.3055(19) 0.0741(15)
H39 H 0.9169 0.2513 0.0457
H40 H 0.9701 0.3422 0.1349
C30 C 1.0545(13) 0.2544(16) 0.0795(11)
H41 H 1.1157 0.3054 0.1170
H42 H 1.0720 0.2224 0.0206
C31 C 0.7972(11) 0.8412(10) 0.1292(8)
H43 H 0.8319 0.8829 0.0989
H44 H 0.7718 0.8856 0.1792
C32 C 0.9863(17) 0.3715(19) 0.0354(15)
H45 H 1.0419 0.3670 0.0004
H46 H 1.0040 0.4409 0.0816
N1 N 0.6491(8) 0.1674(7) 0.1741(5)
N2 N 0.7048(7) 0.6945(7) 0.3212(5)
C33 C 0.7804(15) 0.9198(11) 0.6385(9)
H47 H 0.7951 0.9441 0.7000
C34 C 0.6956(13) 0.9239(10) 0.6033(11)
H48 H 0.6499 0.9493 0.6402
C35 C 0.6715(8) 0.8908(9) 0.5111(9)
H49 H 0.6122 0.8967 0.4865
C36 C 0.7380(10) 0.8496(8) 0.4588(7)
C37 C 0.8266(10) 0.8474(9) 0.4974(9)
H50 H 0.8736 0.8226 0.4619
C38 C 0.8474(12) 0.8811(11) 0.5873(11)
H51 H 0.9072 0.8774 0.6131
C39 C 0.7161(8) 0.8083(8) 0.3586(6)
H52 H 0.6539 0.8211 0.3411
H53 H 0.7715 0.8430 0.3359
C40 C 0.6306(8) 0.6324(9) 0.3448(6)
H54 H 0.5875 0.6613 0.3829
C41 C 0.6179(7) 0.5302(8) 0.3145(6)
H55 H 0.5664 0.4886 0.3311
C42 C 0.6822(7) 0.4873(8) 0.2581(6)
C43 C 0.7561(7) 0.5498(9) 0.2350(6)
H56 H 0.7997 0.5218 0.1970
C44 C 0.7677(8) 0.6544(10) 0.2671(7)
H57 H 0.8190 0.6969 0.2512
C45 C 0.6701(8) 0.3755(8) 0.2258(6)
C46 C 0.5786(8) 0.3069(9) 0.2202(6)
H58 H 0.5218 0.3310 0.2346
C47 C 0.5691(8) 0.2035(9) 0.1937(6)
H59 H 0.5060 0.1582 0.1894
C48 C 0.7374(9) 0.2316(11) 0.1759(7)
H60 H 0.7921 0.2051 0.1582
C49 C 0.7505(8) 0.3345(10) 0.2028(6)
H61 H 0.8144 0.3778 0.2057
C50 C 0.6413(9) 0.0596(8) 0.1609(7)
H62 H 0.6876 0.0331 0.1208
H63 H 0.5724 0.0161 0.1353
C51 C 0.6685(11) 0.0590(8) 0.2501(7)
C52 C 0.7689(11) 0.0861(9) 0.2869(9)
H64 H 0.8207 0.0993 0.2542
C53 C 0.7929(12) 0.0938(10) 0.3719(10)
H65 H 0.8610 0.1135 0.3962
C54 C 0.7207(15) 0.0735(10) 0.4200(9)
H66 H 0.7383 0.0776 0.4768
C55 C 0.6223(13) 0.0472(11) 0.3857(11)
H67 H 0.5717 0.0350 0.4198
C56 C 0.5948(10) 0.0377(8) 0.2983(9)
H68 H 0.5264 0.0169 0.2742
P1 P 0.7218(3) 0.9839(4) 0.9118(2)
F1 F 0.7849(7) 0.9899(9) 0.9953(5)
F2 F 0.6539(6) 0.9703(9) 0.8282(5)
F3 F 0.8149(7) 1.0203(11) 0.8770(6)
F4 F 0.6252(7) 0.9474(11) 0.9475(5)
F5 F 0.7197(12) 1.0906(9) 0.9694(8)
F6 F 0.7197(13) 0.8753(9) 0.8608(8)
P2 P 0.3645(3) 0.7589(3) 0.3168(2)
F7 F 0.2990(7) 0.7709(9) 0.3914(6)
F8 F 0.4213(10) 0.7018(10) 0.3510(6)
F9 F 0.3066(12) 0.8124(11) 0.2828(7)
F10 F 0.4264(11) 0.7386(12) 0.2435(8)
F11 F 0.2944(9) 0.6624(8) 0.2568(9)
F12 F 0.4356(9) 0.8566(9) 0.3813(11)
loop_
_geom_bond_atom_site_label_1
_geom_bond_atom_site_label_2
_geom_bond_site_symmetry_1
_geom_bond_site_symmetry_2
O1 C8 1_555 1_555
O2 C12 1_555 1_555
O3 C6 1_555 1_555
O4 C5 1_555 1_555
O5 C1 1_555 1_555
O6 C19 1_555 1_555
O7 C21 1_555 1_555
O8 C20 1_555 1_555
O9 C15 1_555 1_555
O10 C3 1_555 1_555
C1 C9 1_555 1_555
C2 C11 1_555 1_555
C3 H1 1_555 1_555
H2 C3 1_555 1_555
C4 C15 1_555 1_555
C5 C9 1_555 1_555
C6 H3 1_555 1_555
H4 C6 1_555 1_555
C7 O4 1_555 1_555
H5 C7 1_555 1_555
H6 C7 1_555 1_555
C8 C10 1_555 1_555
C9 H7 1_555 1_555
C10 H8 1_555 1_555
C11 C8 1_555 1_555
H9 C11 1_555 1_555
C12 H10 1_555 1_555
H11 C12 1_555 1_555
C13 C2 1_555 1_555
H12 C13 1_555 1_555
C14 O1 1_555 1_555
H13 C14 1_555 1_555
H14 C14 1_555 1_555
C15 H15 1_555 1_555
H16 C15 1_555 1_555
C16 C4 1_555 1_555
H17 C16 1_555 1_555
C17 C1 1_555 1_555
H18 C17 1_555 1_555
C18 C3 1_555 1_555
H19 C18 1_555 1_555
H20 C18 1_555 1_555
C19 H21 1_555 1_555
H22 C19 1_555 1_555
C20 C10 1_555 1_555
C21 H23 1_555 1_555
H24 C21 1_555 1_555
C22 O3 1_555 1_555
H25 C22 1_555 1_555
H26 C22 1_555 1_555
C23 O10 1_555 1_555
H27 C23 1_555 1_555
H28 C23 1_555 1_555
C24 O8 1_555 1_555
H29 C24 1_555 1_555
H30 C24 1_555 1_555
C25 O5 1_555 1_555
H31 C25 1_555 1_555
H32 C25 1_555 1_555
C26 O9 1_555 1_555
H33 C26 1_555 1_555
H34 C26 1_555 1_555
C27 O2 1_555 1_555
H35 C27 1_555 1_555
H36 C27 1_555 1_555
C28 O7 1_555 1_555
H37 C28 1_555 1_555
H38 C28 1_555 1_555
C29 H39 1_555 1_555
H40 C29 1_555 1_555
C30 C18 1_555 1_555
H41 C30 1_555 1_555
H42 C30 1_555 1_555
C31 O6 1_555 1_555
H43 C31 1_555 1_555
H44 C31 1_555 1_555
C32 C26 1_555 1_555
H45 C32 1_555 1_555
H46 C32 1_555 1_555
N1 C47 1_555 1_555
N2 C39 1_555 1_555
C33 H47 1_555 1_555
C34 C33 1_555 1_555
H48 C34 1_555 1_555
C35 C34 1_555 1_555
H49 C35 1_555 1_555
C36 C35 1_555 1_555
C37 C36 1_555 1_555
H50 C37 1_555 1_555
C38 C33 1_555 1_555
H51 C38 1_555 1_555
C39 C36 1_555 1_555
H52 C39 1_555 1_555
H53 C39 1_555 1_555
C40 N2 1_555 1_555
H54 C40 1_555 1_555
C41 C40 1_555 1_555
H55 C41 1_555 1_555
C42 C41 1_555 1_555
C43 C42 1_555 1_555
H56 C43 1_555 1_555
C44 N2 1_555 1_555
H57 C44 1_555 1_555
C45 C42 1_555 1_555
C46 C45 1_555 1_555
H58 C46 1_555 1_555
C47 C46 1_555 1_555
H59 C47 1_555 1_555
C48 N1 1_555 1_555
H60 C48 1_555 1_555
C49 C45 1_555 1_555
H61 C49 1_555 1_555
C50 N1 1_555 1_555
H62 C50 1_555 1_555
H63 C50 1_555 1_555
C51 C50 1_555 1_555
C52 C51 1_555 1_555
H64 C52 1_555 1_555
C53 C52 1_555 1_555
H65 C53 1_555 1_555
C54 C53 1_555 1_555
H66 C54 1_555 1_555
C55 C54 1_555 1_555
H67 C55 1_555 1_555
C56 C51 1_555 1_555
H68 C56 1_555 1_555
P1 F1 1_555 1_555
F2 P1 1_555 1_555
F3 P1 1_555 1_555
F4 P1 1_555 1_555
F5 P1 1_555 1_555
F6 P1 1_555 1_555
P2 F7 1_555 1_555
F8 P2 1_555 1_555
F9 P2 1_555 1_555
F10 P2 1_555 1_555
F11 P2 1_555 1_555
F12 P2 1_555 1_555
C2 C23 1_555 1_555
C4 C17 1_555 1_555
C5 C16 1_555 1_555
C6 C7 1_555 1_555
C12 C22 1_555 1_555
C13 C20 1_555 1_555
C14 C27 1_555 1_555
C19 C28 1_555 1_555
C21 C24 1_555 1_555
C25 C31 1_555 1_555
C29 C30 1_555 1_555
C29 C32 1_555 1_555
C37 C38 1_555 1_555
C43 C44 1_555 1_555
C48 C49 1_555 1_555
C55 C56 1_555 1_555

#END
