
#######################################################################
#
#                 Cambridge Crystallographic Data Centre
#                                CCDC 
#
#######################################################################
#
# If this CIF has been generated from an entry in the Cambridge 
# Structural Database, then it will include bibliographic, chemical, 
# crystal, experimental, refinement or atomic coordinate data resulting 
# from the CCDC's data processing and validation procedures.
#
#######################################################################

data_ALABEU
_chemical_formula_moiety         'C7 H8 N1 O2 1+,C4 H5 O6 1-,H2 O1'
_chemical_name_systematic        
'4-Carboxyanilinium (2R,3R)-hydrogen tartrate monohydrate'
_symmetry_cell_setting           orthorhombic
_symmetry_space_group_name_H-M   'P 21 21 21'
_symmetry_Int_Tables_number      19
_space_group_name_Hall           'P 2ac 2ab'
loop_
_symmetry_equiv_pos_site_id
_symmetry_equiv_pos_as_xyz
1 x,y,z
2 1/2-x,-y,1/2+z
3 -x,1/2+y,1/2-z
4 1/2+x,1/2-y,-z
_cell_length_a                   7.329(1)
_cell_length_b                   12.095(2)
_cell_length_c                   15.231(3)
_cell_angle_alpha                90
_cell_angle_beta                 90
_cell_angle_gamma                90
_cell_volume                     1350.14
_exptl_crystal_colour            colorless
_exptl_crystal_description       parallelepiped
_cell_formula_units_Z            4
_exptl_crystal_recrystallization_method ethanol
loop_
_atom_site_label
_atom_site_type_symbol
_atom_site_fract_x
_atom_site_fract_y
_atom_site_fract_z
O1 O 0.1780(4) 0.19959(18) 0.36203(14)
O2 O 0.1490(4) 0.07193(17) 0.46620(15)
H1 H 0.145(5) 0.027(3) 0.422(2)
N1 N 0.1438(3) 0.49391(16) 0.71346(13)
H5 H 0.1441 0.5619 0.6911
H6 H 0.2383 0.4860 0.7496
H7 H 0.0405 0.4829 0.7430
C1 C 0.1575(4) 0.4130(2) 0.64211(16)
C2 C 0.1450(5) 0.4452(2) 0.55611(18)
H8 H 0.1319 0.5197 0.5422
C3 C 0.1518(5) 0.3678(2) 0.49067(18)
H9 H 0.1451 0.3900 0.4323
C4 C 0.1686(4) 0.2570(2) 0.51067(18)
C5 C 0.1831(6) 0.2262(2) 0.5976(2)
H10 H 0.1947 0.1518 0.6120
C6 C 0.1804(5) 0.3041(2) 0.66321(19)
H11 H 0.1941 0.2829 0.7215
C7 C 0.1676(4) 0.1745(2) 0.4383(2)
O3 O 0.0746(2) 0.19079(15) 0.86123(14)
O4 O 0.0920(2) 0.35984(15) 0.91977(14)
H2 H 0.2018 0.3512 0.9118
O5 O -0.2753(2) 0.19459(14) 0.85038(15)
H3 H -0.3812 0.1839 0.8656
O6 O -0.1871(3) 0.41765(15) 0.77845(11)
H4 H -0.2438 0.3844 0.7403
O7 O -0.5635(2) 0.34631(15) 0.91141(13)
O8 O -0.5399(3) 0.46898(16) 0.80285(13)
C8 C 0.0046(3) 0.2738(2) 0.89154(17)
C9 C -0.2030(3) 0.2842(2) 0.89777(18)
H12 H -0.2401 0.2782 0.9594
C10 C -0.2659(3) 0.39529(19) 0.86151(17)
H13 H -0.2232 0.4526 0.9021
C11 C -0.4747(3) 0.40349(19) 0.85749(17)
O9 O -0.3983(3) 0.57999(16) 0.65531(14)
H14 H -0.420(5) 0.550(2) 0.7027(12)
H15 H -0.307(3) 0.619(2) 0.654(2)
loop_
_geom_bond_atom_site_label_1
_geom_bond_atom_site_label_2
_geom_bond_site_symmetry_1
_geom_bond_site_symmetry_2
O1 C7 1_555 1_555
O2 H1 1_555 1_555
O3 C8 1_555 1_555
O4 H2 1_555 1_555
O5 H3 1_555 1_555
O6 H4 1_555 1_555
O7 C11 1_555 1_555
O8 C11 1_555 1_555
N1 H5 1_555 1_555
H6 N1 1_555 1_555
H7 N1 1_555 1_555
C1 N1 1_555 1_555
C2 C1 1_555 1_555
H8 C2 1_555 1_555
C3 C2 1_555 1_555
H9 C3 1_555 1_555
C4 C3 1_555 1_555
C5 C4 1_555 1_555
H10 C5 1_555 1_555
C6 C1 1_555 1_555
H11 C6 1_555 1_555
C7 O2 1_555 1_555
C8 O4 1_555 1_555
C9 O5 1_555 1_555
H12 C9 1_555 1_555
C10 O6 1_555 1_555
H13 C10 1_555 1_555
C11 C10 1_555 1_555
O9 H14 1_555 1_555
H15 O9 1_555 1_555
C4 C7 1_555 1_555
C5 C6 1_555 1_555
C8 C9 1_555 1_555
C9 C10 1_555 1_555

#END
