
#######################################################################
#
#                 Cambridge Crystallographic Data Centre
#                                CCDC 
#
#######################################################################
#
# If this CIF has been generated from an entry in the Cambridge 
# Structural Database, then it will include bibliographic, chemical, 
# crystal, experimental, refinement or atomic coordinate data resulting 
# from the CCDC's data processing and validation procedures.
#
#######################################################################

data_ALAGUR
_chemical_formula_moiety         'C11 H9 N3 O3 S2'
_chemical_name_systematic        
(E)-N-Methyl-N'-((5-nitrothiophen-2-yl)methylene)thiophene-2-carbohydrazide:
_symmetry_cell_setting           monoclinic
_symmetry_space_group_name_H-M   'P 21/n'
_symmetry_Int_Tables_number      14
_space_group_name_Hall           '-P 2yn'
loop_
_symmetry_equiv_pos_site_id
_symmetry_equiv_pos_as_xyz
1 x,y,z
2 1/2-x,1/2+y,1/2-z
3 -x,-y,-z
4 1/2+x,1/2-y,1/2+z
_cell_length_a                   3.8619(2)
_cell_length_b                   20.7116(15)
_cell_length_c                   15.2522(11)
_cell_angle_alpha                90
_cell_angle_beta                 92.098(5)
_cell_angle_gamma                90
_cell_volume                     1219.15
_exptl_crystal_colour            yellow
_exptl_crystal_description       Blade
_cell_formula_units_Z            4
loop_
_atom_site_label
_atom_site_type_symbol
_atom_site_fract_x
_atom_site_fract_y
_atom_site_fract_z
S1 S 0.15113(15) 0.49696(3) 0.13078(4)
S2 S -0.06084(15) 0.32963(2) 0.10725(4)
O1 O -0.2109(5) 0.17883(8) -0.03632(12)
O2 O 0.0579(5) 0.56370(7) 0.37361(10)
C1 C -0.3118(6) 0.21497(11) 0.13888(14)
H1 H -0.3849 0.1715 0.1315
N1 N -0.0933(5) 0.41865(8) 0.26401(12)
N2 N -0.1014(5) 0.46362(9) 0.32942(12)
C2 C 0.1731(6) 0.54053(10) 0.22669(14)
C3 C -0.2122(6) 0.36196(10) 0.27887(14)
H2 H -0.3000 0.3518 0.3346
C4 C 0.0400(6) 0.52386(10) 0.31395(15)
O3 O 0.0770(5) 0.26744(8) -0.05719(11)
C5 C -0.3350(6) 0.25109(10) 0.21713(15)
H3 H -0.4263 0.2341 0.2693
C6 C -0.1683(6) 0.25206(10) 0.07531(14)
N3 N -0.0963(5) 0.23133(9) -0.01145(12)
C7 C -0.2501(6) 0.45006(11) 0.41403(13)
H4 H -0.4832 0.4321 0.4046
H5 H -0.2634 0.4901 0.4479
H6 H -0.1036 0.4189 0.4464
C8 C 0.3234(6) 0.60229(11) 0.21407(15)
H7 H 0.3625 0.6335 0.2589
C9 C 0.4072(6) 0.61069(11) 0.12456(15)
H8 H 0.5101 0.6488 0.1028
C10 C -0.2121(6) 0.31331(11) 0.21025(14)
C11 C 0.3256(6) 0.55899(11) 0.07373(16)
H9 H 0.3619 0.5574 0.0125
loop_
_geom_bond_atom_site_label_1
_geom_bond_atom_site_label_2
_geom_bond_site_symmetry_1
_geom_bond_site_symmetry_2
S1 C2 1_555 1_555
S2 C6 1_555 1_555
O1 N3 1_555 1_555
O2 C4 1_555 1_555
C1 H1 1_555 1_555
N1 N2 1_555 1_555
N2 C4 1_555 1_555
C2 C4 1_555 1_555
C3 N1 1_555 1_555
H2 C3 1_555 1_555
O3 N3 1_555 1_555
C5 C1 1_555 1_555
H3 C5 1_555 1_555
C6 C1 1_555 1_555
N3 C6 1_555 1_555
C7 N2 1_555 1_555
H4 C7 1_555 1_555
H5 C7 1_555 1_555
H6 C7 1_555 1_555
C8 C2 1_555 1_555
H7 C8 1_555 1_555
C9 C8 1_555 1_555
H8 C9 1_555 1_555
C10 S2 1_555 1_555
C11 S1 1_555 1_555
H9 C11 1_555 1_555
C3 C10 1_555 1_555
C5 C10 1_555 1_555
C9 C11 1_555 1_555

#END
