
#######################################################################
#
#                 Cambridge Crystallographic Data Centre
#                                CCDC 
#
#######################################################################
#
# If this CIF has been generated from an entry in the Cambridge 
# Structural Database, then it will include bibliographic, chemical, 
# crystal, experimental, refinement or atomic coordinate data resulting 
# from the CCDC's data processing and validation procedures.
#
#######################################################################

data_ALAGUP
_chemical_formula_moiety         'C18 H24 B1 N1 O2'
_chemical_name_systematic        
2-(8-(N,N-Dimethylamino)naphth-1-yl-C,N)-4,4,5,5-tetramethyl-1,3,2-dioxaborolane
_symmetry_cell_setting           triclinic
_symmetry_space_group_name_H-M   'P -1'
_symmetry_Int_Tables_number      2
_space_group_name_Hall           '-P 1'
loop_
_symmetry_equiv_pos_site_id
_symmetry_equiv_pos_as_xyz
1 x,y,z
2 -x,-y,-z
_cell_length_a                   10.3180(14)
_cell_length_b                   12.0316(16)
_cell_length_c                   14.5300(19)
_cell_angle_alpha                66.262(5)
_cell_angle_beta                 86.552(5)
_cell_angle_gamma                86.573(6)
_cell_volume                     1646.94
_exptl_crystal_colour            colorless
_exptl_crystal_description       block
_chemical_melting_point          '77.4-78.2 deg.C'
_cell_formula_units_Z            4
loop_
_atom_site_label
_atom_site_type_symbol
_atom_site_fract_x
_atom_site_fract_y
_atom_site_fract_z
O1 O 0.0820(3) 0.4406(3) 0.4097(2)
O2 O 0.2330(3) 0.5258(3) 0.2799(2)
N1 N 0.0539(5) 0.6796(5) 0.2983(3)
C1 C 0.2310(4) 0.5946(4) 0.4272(3)
C2 C 0.1993(4) 0.7189(4) 0.4026(4)
C3 C 0.1042(4) 0.7692(5) 0.3308(4)
C4 C 0.3183(4) 0.5406(5) 0.5015(3)
H1 H 0.3413 0.4567 0.5222
C5 C 0.3446(4) 0.7292(5) 0.5211(4)
H2 H 0.3846 0.7723 0.5533
C6 C 0.2206(5) 0.4021(6) 0.2903(5)
C7 C 0.2544(4) 0.7906(5) 0.4459(4)
C8 C -0.0840(6) 0.6555(7) 0.3403(5)
H3 H -0.1394 0.7285 0.3074
H4 H -0.0861 0.6345 0.4129
H5 H -0.1160 0.5880 0.3277
C9 C 0.3747(4) 0.6090(5) 0.5477(4)
H6 H 0.4352 0.5695 0.5987
C10 C 0.0932(6) 0.3610(6) 0.3568(5)
B1 B 0.1573(5) 0.5431(5) 0.3597(4)
C11 C 0.0570(4) 0.7231(5) 0.1887(4)
H7 H -0.0001 0.7959 0.1608
H8 H 0.0272 0.6596 0.1698
H9 H 0.1461 0.7429 0.1620
C12 C 0.3411(5) 0.3299(6) 0.3440(5)
H10 H 0.4185 0.3585 0.2999
H11 H 0.3318 0.2434 0.3602
H12 H 0.3500 0.3417 0.4062
C13 C 0.2153(5) 0.9156(5) 0.4091(4)
H13 H 0.2532 0.9674 0.4342
C14 C 0.0641(5) 0.8880(5) 0.2983(4)
H14 H -0.0016 0.9205 0.2504
C15 C 0.1227(5) 0.9623(5) 0.3374(5)
H15 H 0.0977 1.0462 0.3137
C16 C 0.0973(5) 0.2313(5) 0.4334(4)
H16 H 0.0139 0.2135 0.4713
H17 H 0.1670 0.2197 0.4796
H18 H 0.1135 0.1763 0.3988
C17 C -0.0273(5) 0.3827(7) 0.2927(6)
H19 H -0.1047 0.3558 0.3372
H20 H -0.0156 0.3367 0.2503
H21 H -0.0380 0.4695 0.2501
C18 C 0.2195(5) 0.4023(6) 0.1866(4)
H22 H 0.3031 0.4292 0.1512
H23 H 0.1495 0.4577 0.1491
H24 H 0.2051 0.3200 0.1922
O3 O 0.7245(3) 0.9612(3) 0.2204(2)
O4 O 0.5766(3) 1.0538(3) 0.0967(2)
C19 C 0.7443(4) 0.8941(4) 0.0733(3)
N2 N 0.5478(5) 0.8163(5) 0.1968(4)
C20 C 0.7117(4) 0.7748(4) 0.0899(3)
C21 C 0.6034(4) 0.7297(4) 0.1575(4)
C22 C 0.7774(5) 0.7018(5) 0.0450(4)
C23 C 0.8420(5) 0.9431(5) 0.0017(4)
H25 H 0.8642 1.0249 -0.0162
C24 C 0.8805(4) 0.7573(5) -0.0245(4)
H26 H 0.9296 0.7127 -0.0566
C25 C 0.9095(4) 0.8734(5) -0.0454(3)
H27 H 0.9776 0.9093 -0.0935
C26 C 0.4122(6) 0.8562(7) 0.1613(5)
H28 H 0.3555 0.7870 0.1901
H29 H 0.4132 0.8874 0.0877
H30 H 0.3795 0.9205 0.1829
C27 C 0.6113(5) 1.1450(5) 0.1313(4)
C28 C 0.7351(5) 0.5831(5) 0.0710(4)
H31 H 0.7801 0.5305 0.0446
C29 C 0.5470(4) 0.7592(5) 0.3082(4)
H32 H 0.4882 0.6914 0.3331
H33 H 0.5172 0.8195 0.3351
H34 H 0.6350 0.7290 0.3302
B2 B 0.6587(5) 0.9482(5) 0.1422(4)
C30 C 0.5592(5) 0.6175(5) 0.1784(4)
H35 H 0.4843 0.5890 0.2210
C31 C 0.6747(5) 1.0673(5) 0.2338(4)
C32 C 0.5737(5) 1.0316(6) 0.3231(4)
H36 H 0.6171 0.9832 0.3858
H37 H 0.5068 0.9837 0.3128
H38 H 0.5331 1.1052 0.3273
C33 C 0.6281(5) 0.5446(5) 0.1347(5)
H39 H 0.5992 0.4654 0.1502
C34 C 0.7060(5) 1.2281(5) 0.0527(4)
H40 H 0.6609 1.2742 -0.0097
H41 H 0.7780 1.1790 0.0393
H42 H 0.7400 1.2845 0.0778
C35 C 0.7846(5) 1.1275(6) 0.2593(5)
H43 H 0.8187 1.0731 0.3244
H44 H 0.7517 1.2038 0.2630
H45 H 0.8541 1.1445 0.2071
C36 C 0.4899(5) 1.2182(6) 0.1364(5)
H46 H 0.4583 1.2632 0.0685
H47 H 0.5091 1.2756 0.1657
H48 H 0.4231 1.1636 0.1785
loop_
_geom_bond_atom_site_label_1
_geom_bond_atom_site_label_2
_geom_bond_site_symmetry_1
_geom_bond_site_symmetry_2
O1 C10 1_555 1_555
O2 C6 1_555 1_555
N1 C3 1_555 1_555
C1 C2 1_555 1_555
C2 C3 1_555 1_555
C3 C14 1_555 1_555
C4 C1 1_555 1_555
H1 C4 1_555 1_555
C5 H2 1_555 1_555
C6 C10 1_555 1_555
C7 C2 1_555 1_555
C8 N1 1_555 1_555
H3 C8 1_555 1_555
H4 C8 1_555 1_555
H5 C8 1_555 1_555
C9 C4 1_555 1_555
H6 C9 1_555 1_555
C10 C16 1_555 1_555
B1 O1 1_555 1_555
C11 N1 1_555 1_555
H7 C11 1_555 1_555
H8 C11 1_555 1_555
H9 C11 1_555 1_555
C12 C6 1_555 1_555
H10 C12 1_555 1_555
H11 C12 1_555 1_555
H12 C12 1_555 1_555
C13 C7 1_555 1_555
H13 C13 1_555 1_555
C14 H14 1_555 1_555
C15 C13 1_555 1_555
H15 C15 1_555 1_555
C16 H16 1_555 1_555
H17 C16 1_555 1_555
H18 C16 1_555 1_555
C17 C10 1_555 1_555
H19 C17 1_555 1_555
H20 C17 1_555 1_555
H21 C17 1_555 1_555
C18 C6 1_555 1_555
H22 C18 1_555 1_555
H23 C18 1_555 1_555
H24 C18 1_555 1_555
O3 B2 1_555 1_555
O4 C27 1_555 1_555
C19 C20 1_555 1_555
N2 C21 1_555 1_555
C20 C21 1_555 1_555
C21 C30 1_555 1_555
C22 C20 1_555 1_555
C23 C19 1_555 1_555
H25 C23 1_555 1_555
C24 C22 1_555 1_555
H26 C24 1_555 1_555
C25 C23 1_555 1_555
H27 C25 1_555 1_555
C26 N2 1_555 1_555
H28 C26 1_555 1_555
H29 C26 1_555 1_555
H30 C26 1_555 1_555
C27 C31 1_555 1_555
C28 C22 1_555 1_555
H31 C28 1_555 1_555
C29 N2 1_555 1_555
H32 C29 1_555 1_555
H33 C29 1_555 1_555
H34 C29 1_555 1_555
B2 O4 1_555 1_555
C30 H35 1_555 1_555
C31 O3 1_555 1_555
C32 C31 1_555 1_555
H36 C32 1_555 1_555
H37 C32 1_555 1_555
H38 C32 1_555 1_555
C33 C28 1_555 1_555
H39 C33 1_555 1_555
C34 C27 1_555 1_555
H40 C34 1_555 1_555
H41 C34 1_555 1_555
H42 C34 1_555 1_555
C35 C31 1_555 1_555
H43 C35 1_555 1_555
H44 C35 1_555 1_555
H45 C35 1_555 1_555
C36 C27 1_555 1_555
H46 C36 1_555 1_555
H47 C36 1_555 1_555
H48 C36 1_555 1_555
O2 B1 1_555 1_555
N1 B1 1_555 1_555
C1 B1 1_555 1_555
C5 C7 1_555 1_555
C5 C9 1_555 1_555
C14 C15 1_555 1_555
C19 B2 1_555 1_555
N2 B2 1_555 1_555
C24 C25 1_555 1_555
C30 C33 1_555 1_555

#END
