
#######################################################################
#
#                 Cambridge Crystallographic Data Centre
#                                CCDC 
#
#######################################################################
#
# If this CIF has been generated from an entry in the Cambridge 
# Structural Database, then it will include bibliographic, chemical, 
# crystal, experimental, refinement or atomic coordinate data resulting 
# from the CCDC's data processing and validation procedures.
#
#######################################################################

data_ALAHIG
_chemical_formula_moiety         'C10 H7 N3 O3 S2'
_chemical_name_systematic        
(E)-N'-[(5-Nitrothiophen-2-yl)methylene]thiophene-2-carbohydrazide
_symmetry_cell_setting           orthorhombic
_symmetry_space_group_name_H-M   'P n a 21'
_symmetry_Int_Tables_number      33
_space_group_name_Hall           'P 2c -2n'
loop_
_symmetry_equiv_pos_site_id
_symmetry_equiv_pos_as_xyz
1 x,y,z
2 -x,-y,1/2+z
3 1/2-x,1/2+y,1/2+z
4 1/2+x,1/2-y,z
_cell_length_a                   25.811(18)
_cell_length_b                   4.034(3)
_cell_length_c                   22.133(16)
_cell_angle_alpha                90
_cell_angle_beta                 90
_cell_angle_gamma                90
_cell_volume                     2304.52
_exptl_crystal_colour            red
_exptl_crystal_description       Lath
_cell_formula_units_Z            8
loop_
_atom_site_label
_atom_site_type_symbol
_atom_site_fract_x
_atom_site_fract_y
_atom_site_fract_z
S1 S 0.04771(5) 0.4646(4) 0.35209(7)
S2 S 0.02181(5) 0.8992(3) 0.19868(7)
O1 O -0.08220(15) 0.0207(11) 0.4074(2)
C1 C 0.0001(2) 0.2706(13) 0.3922(3)
O2 O 0.06242(19) 1.4222(11) 0.0606(2)
N1 N -0.04559(17) 0.5095(12) 0.2836(2)
C2 C 0.0195(2) 1.1157(14) 0.1314(3)
N2 N -0.07366(19) 0.3128(12) 0.3219(2)
H1 H -0.1056 0.2599 0.3121
C3 C -0.0437(2) 0.8103(14) 0.1911(3)
C4 C -0.0703(2) 0.6053(13) 0.2354(3)
H2 H -0.1054 0.5421 0.2292
O3 O 0.10511(16) 1.2377(11) 0.1390(2)
N3 N 0.0649(2) 1.2691(13) 0.1089(3)
C5 C 0.0169(2) 0.1632(14) 0.4499(3)
H3 H -0.0042 0.0553 0.4791
C6 C 0.0702(2) 0.2424(16) 0.4572(3)
H4 H 0.0896 0.1873 0.4923
C7 C -0.0289(2) 1.1201(15) 0.1049(3)
H5 H -0.0369 1.2294 0.0680
C8 C -0.0540(2) 0.1979(15) 0.3741(3)
C9 C 0.0907(2) 0.4052(15) 0.4089(3)
H6 H 0.1257 0.4782 0.4072
C10 C -0.0647(2) 0.9404(14) 0.1398(3)
H7 H -0.1000 0.9125 0.1288
S3 S 0.20376(5) 0.9256(4) 0.33977(7)
S4 S 0.23054(5) 1.3134(3) 0.49158(7)
O4 O 0.32961(15) 0.4489(11) 0.2818(2)
C11 C 0.2499(2) 0.7221(13) 0.2960(3)
N4 N 0.32423(19) 0.7368(12) 0.3671(2)
H8 H 0.3562 0.6789 0.3761
N5 N 0.29698(17) 0.9309(11) 0.4066(2)
O5 O 0.14635(17) 1.6395(12) 0.5514(3)
C12 C 0.23023(19) 0.6254(13) 0.2405(3)
H9 H 0.2495 0.5105 0.2105
C13 C 0.2950(2) 1.2125(14) 0.5012(3)
O6 O 0.18804(18) 1.8233(14) 0.6302(2)
C14 C 0.3156(2) 1.3292(14) 0.5542(3)
H10 H 0.3506 1.2958 0.5661
C15 C 0.3031(2) 0.6314(15) 0.3144(3)
N6 N 0.18608(19) 1.6716(13) 0.5820(2)
C16 C 0.1581(2) 0.8845(14) 0.2843(3)
H11 H 0.1236 0.9648 0.2876
C17 C 0.1772(2) 0.7205(14) 0.2340(3)
H12 H 0.1571 0.6760 0.1989
C18 C 0.3218(2) 1.0159(13) 0.4552(3)
H13 H 0.3568 0.9513 0.4609
C19 C 0.2317(2) 1.5146(15) 0.5601(3)
C20 C 0.2790(2) 1.5039(15) 0.5891(3)
H14 H 0.2860 1.6010 0.6273
loop_
_geom_bond_atom_site_label_1
_geom_bond_atom_site_label_2
_geom_bond_site_symmetry_1
_geom_bond_site_symmetry_2
S1 C1 1_555 1_555
S2 C2 1_555 1_555
O1 C8 1_555 1_555
C1 C5 1_555 1_555
O2 N3 1_555 1_555
N1 N2 1_555 1_555
C2 N3 1_555 1_555
N2 H1 1_555 1_555
C3 S2 1_555 1_555
C4 N1 1_555 1_555
H2 C4 1_555 1_555
O3 N3 1_555 1_555
C5 H3 1_555 1_555
C6 C5 1_555 1_555
H4 C6 1_555 1_555
C7 C2 1_555 1_555
H5 C7 1_555 1_555
C8 C1 1_555 1_555
C9 S1 1_555 1_555
H6 C9 1_555 1_555
C10 C3 1_555 1_555
H7 C10 1_555 1_555
S3 C11 1_555 1_555
S4 C13 1_555 1_555
O4 C15 1_555 1_555
C11 C12 1_555 1_555
N4 H8 1_555 1_555
N5 N4 1_555 1_555
O5 N6 1_555 1_555
C12 H9 1_555 1_555
C13 C14 1_555 1_555
O6 N6 1_555 1_555
C14 H10 1_555 1_555
C15 C11 1_555 1_555
N6 C19 1_555 1_555
C16 S3 1_555 1_555
H11 C16 1_555 1_555
C17 C12 1_555 1_555
H12 C17 1_555 1_555
C18 N5 1_555 1_555
H13 C18 1_555 1_555
C19 S4 1_555 1_555
C20 C14 1_555 1_555
H14 C20 1_555 1_555
N2 C8 1_555 1_555
C3 C4 1_555 1_555
C6 C9 1_555 1_555
C7 C10 1_555 1_555
N4 C15 1_555 1_555
C13 C18 1_555 1_555
C16 C17 1_555 1_555
C19 C20 1_555 1_555

#END
