
#######################################################################
#
#                 Cambridge Crystallographic Data Centre
#                                CCDC 
#
#######################################################################
#
# If this CIF has been generated from an entry in the Cambridge 
# Structural Database, then it will include bibliographic, chemical, 
# crystal, experimental, refinement or atomic coordinate data resulting 
# from the CCDC's data processing and validation procedures.
#
#######################################################################

data_ALAQIP
_chemical_name_common            dimethoxytribenzo[5.5.5.5]fenestrene
_chemical_formula_moiety         'C27 H22 O2'
_chemical_name_systematic        
2,9-dimethoxy-4b,6a,10b,14b-tetrahydrodibenzo[a,f]benzo[2,3]pentaleno[1,6-cd]pentalene
_symmetry_cell_setting           orthorhombic
_symmetry_space_group_name_H-M   'A b a 2'
_symmetry_Int_Tables_number      41
_space_group_name_Hall           'A 2 -2ab'
loop_
_symmetry_equiv_pos_site_id
_symmetry_equiv_pos_as_xyz
1 x,y,z
2 -x,-y,z
3 1/2+x,1/2-y,z
4 1/2-x,1/2+y,z
5 x,1/2+y,1/2+z
6 -x,1/2-y,1/2+z
7 1/2+x,-y,1/2+z
8 1/2-x,y,1/2+z
_cell_length_a                   10.4776(4)
_cell_length_b                   16.9738(6)
_cell_length_c                   10.9334(6)
_cell_angle_alpha                90
_cell_angle_beta                 90
_cell_angle_gamma                90
_cell_volume                     1944.45
_exptl_crystal_colour            colorless
_exptl_crystal_description       block
_chemical_melting_point          '490-491 K'
_cell_formula_units_Z            4
loop_
_atom_site_label
_atom_site_type_symbol
_atom_site_fract_x
_atom_site_fract_y
_atom_site_fract_z
O1 O 0.21503(19) 0.32748(9) 0.45319(19)
C1 C 0.3050(2) 0.31611(16) 0.5475(3)
H1 H 0.3414 0.3659 0.5702
H2 H 0.3713 0.2815 0.5194
H3 H 0.2636 0.2931 0.6172
C2 C 0.1529(2) 0.26201(13) 0.4090(2)
C3 C 0.0664(2) 0.27678(14) 0.3167(3)
H4 H 0.0536 0.3282 0.2899
C4 C -0.0014(2) 0.21585(15) 0.2637(3)
H5 H -0.0584 0.2262 0.2005
C5 C 0.01582(18) 0.13939(12) 0.3048(2)
C6 C -0.05282(19) 0.06549(12) 0.2662(2)
H6 H -0.1449 0.0716 0.2787
C7 C -0.0266(3) 0.03519(17) 0.1383(2)
C8 C 0.0000 0.0000 0.3516(3)
C9 C 0.10143(16) 0.03904(11) 0.43651(17)
H7 H 0.1857 0.0158 0.4221
C10 C 0.05698(16) 0.02148(10) 0.56535(17)
C11 C 0.11469(19) 0.04189(11) 0.6744(2)
C12 C 0.0574(2) 0.02052(14) 0.7845(2)
C13 C 0.10112(17) 0.12518(12) 0.39940(19)
C14 C 0.17282(19) 0.18600(12) 0.4513(2)
H8 H 0.2322 0.1758 0.5125
O1A O -0.21503(19) -0.32748(9) 0.45319(19)
C1A C -0.3050(2) -0.31611(16) 0.5475(3)
H1A H -0.3414 -0.3659 0.5702
H2A H -0.3713 -0.2815 0.5194
H3A H -0.2636 -0.2931 0.6172
C2A C -0.1529(2) -0.26201(13) 0.4090(2)
C3A C -0.0664(2) -0.27678(14) 0.3167(3)
H4A H -0.0536 -0.3282 0.2899
C4A C 0.0014(2) -0.21585(15) 0.2637(3)
H5A H 0.0584 -0.2262 0.2005
C5A C -0.01582(18) -0.13939(12) 0.3048(2)
C6A C 0.05282(19) -0.06549(12) 0.2662(2)
H6A H 0.1449 -0.0716 0.2787
C7A C 0.0266(3) -0.03519(17) 0.1383(2)
C9A C -0.10143(16) -0.03904(11) 0.43651(17)
H7A H -0.1857 -0.0158 0.4221
C10A C -0.05698(16) -0.02148(10) 0.56535(17)
C11A C -0.11469(19) -0.04189(11) 0.6744(2)
C12A C -0.0574(2) -0.02052(14) 0.7845(2)
C13A C -0.10112(17) -0.12518(12) 0.39940(19)
C14A C -0.17282(19) -0.18600(12) 0.4513(2)
H8A H -0.2322 -0.1758 0.5125
loop_
_geom_bond_atom_site_label_1
_geom_bond_atom_site_label_2
_geom_bond_site_symmetry_1
_geom_bond_site_symmetry_2
O1 C1 1_555 1_555
C1 H1 1_555 1_555
H2 C1 1_555 1_555
H3 C1 1_555 1_555
C2 O1 1_555 1_555
C3 C2 1_555 1_555
H4 C3 1_555 1_555
C4 C3 1_555 1_555
H5 C4 1_555 1_555
C5 C4 1_555 1_555
C6 C5 1_555 1_555
H6 C6 1_555 1_555
C7 C6 1_555 1_555
C8 C6 1_555 1_555
C9 C8 1_555 1_555
H7 C9 1_555 1_555
C10 C9 1_555 1_555
C11 C10 1_555 1_555
C12 C11 1_555 1_555
C13 C5 1_555 1_555
C14 C2 1_555 1_555
H8 C14 1_555 1_555
O1A C1A 1_555 1_555
C1A H1A 1_555 1_555
H2A C1A 1_555 1_555
H3A C1A 1_555 1_555
C2A O1A 1_555 1_555
C3A C2A 1_555 1_555
H4A C3A 1_555 1_555
C4A C3A 1_555 1_555
H5A C4A 1_555 1_555
C5A C4A 1_555 1_555
C6A C8 1_555 1_555
H6A C6A 1_555 1_555
C7A C7 1_555 1_555
C9A C8 1_555 1_555
H7A C9A 1_555 1_555
C10A C10 1_555 1_555
C11A C10A 1_555 1_555
C12A C12 1_555 1_555
C13A C5A 1_555 1_555
C14A C2A 1_555 1_555
H8A C14A 1_555 1_555
C9 C13 1_555 1_555
C13 C14 1_555 1_555
C5A C6A 1_555 1_555
C6A C7A 1_555 1_555
C9A C10A 1_555 1_555
C9A C13A 1_555 1_555
C11A C12A 1_555 1_555
C13A C14A 1_555 1_555

#END
