
#######################################################################
#
#                 Cambridge Crystallographic Data Centre
#                                CCDC 
#
#######################################################################
#
# If this CIF has been generated from an entry in the Cambridge 
# Structural Database, then it will include bibliographic, chemical, 
# crystal, experimental, refinement or atomic coordinate data resulting 
# from the CCDC's data processing and validation procedures.
#
#######################################################################

data_ALASOW
_chemical_formula_moiety         'C30 H27 F1 N4 O4 S1'
_chemical_name_systematic        
2-(2-(5-Fluoro-2-methyl-1-(2-naphthylsulfonyl)-2,3-dihydroquinolin-4(1H)-ylidene)hydrazino)-2-oxo-N-(1-phenylethyl)acetamide
_symmetry_cell_setting           monoclinic
_symmetry_space_group_name_H-M   'P 21'
_symmetry_Int_Tables_number      4
_space_group_name_Hall           'P 2yb'
loop_
_symmetry_equiv_pos_site_id
_symmetry_equiv_pos_as_xyz
1 x,y,z
2 -x,1/2+y,-z
_cell_length_a                   7.803(2)
_cell_length_b                   12.063(2)
_cell_length_c                   14.890(3)
_cell_angle_alpha                90
_cell_angle_beta                 96.02(1)
_cell_angle_gamma                90
_cell_volume                     1393.83
_exptl_crystal_colour            colorless
_exptl_crystal_description       block
_cell_formula_units_Z            2
loop_
_atom_site_label
_atom_site_type_symbol
_atom_site_fract_x
_atom_site_fract_y
_atom_site_fract_z
C1 C 0.1014(6) 0.7532(6) 0.2681(3)
H1 H 0.1152 0.7885 0.3262
H2 H 0.0429 0.6837 0.2727
H3 H 0.0348 0.8002 0.2257
C2 C 0.2776(6) 0.7329(4) 0.2362(3)
H4 H 0.3342 0.8050 0.2319
C3 C 0.2698(6) 0.6770(5) 0.1432(3)
H5 H 0.1625 0.6977 0.1084
H6 H 0.3634 0.7053 0.1118
C4 C 0.2814(5) 0.5528(4) 0.1464(3)
C5 C 0.2714(5) 0.4964(4) 0.2345(3)
C6 C 0.2095(6) 0.3907(5) 0.2445(3)
C7 C 0.2001(6) 0.3424(5) 0.3275(3)
H7 H 0.1577 0.2707 0.3317
C8 C 0.2544(7) 0.4019(5) 0.4043(3)
H8 H 0.2497 0.3699 0.4608
C9 C 0.3154(6) 0.5081(4) 0.3981(3)
H9 H 0.3517 0.5479 0.4501
C10 C 0.3226(5) 0.5555(4) 0.3138(2)
C11 C 0.7062(3) 0.6593(3) 0.15777(17)
H10 H 0.6851 0.7349 0.1506
C12 C 0.6811(3) 0.6081(3) 0.23730(17)
C13 C 0.7123(3) 0.4956(3) 0.25087(17)
H11 H 0.6963 0.4628 0.3059
C14 C 0.7664(7) 0.4342(5) 0.1827(4)
H12 H 0.7866 0.3588 0.1913
C15 C 0.7925(6) 0.4832(5) 0.0986(4)
C16 C 0.8513(8) 0.4220(6) 0.0276(4)
H13 H 0.8716 0.3464 0.0347
C17 C 0.8789(8) 0.4723(6) -0.0514(4)
H14 H 0.9183 0.4306 -0.0976
C18 C 0.8486(8) 0.5866(7) -0.0643(4)
H15 H 0.8674 0.6198 -0.1187
C19 C 0.7920(6) 0.6479(5) 0.0029(3)
H16 H 0.7712 0.7233 -0.0057
C20 C 0.7640(5) 0.5973(5) 0.0867(3)
C21 C 0.3672(7) 0.4949(5) -0.0747(3)
C22 C 0.3848(6) 0.5792(5) -0.1498(3)
C23 C 0.4743(6) 0.6020(5) -0.3004(3)
H17 H 0.5298 0.6702 -0.2764
C24 C 0.6025(7) 0.5402(6) -0.3522(3)
H18 H 0.7025 0.5215 -0.3119
H19 H 0.6358 0.5864 -0.3999
H20 H 0.5502 0.4736 -0.3775
C25 C 0.3160(5) 0.6343(4) -0.3621(3)
C26 C 0.1768(6) 0.5641(5) -0.3803(3)
H21 H 0.1749 0.4959 -0.3512
C27 C 0.0395(7) 0.5955(7) -0.4420(4)
H22 H -0.0534 0.5476 -0.4544
C28 C 0.0389(7) 0.6956(7) -0.4847(4)
H23 H -0.0535 0.7158 -0.5261
C29 C 0.1741(9) 0.7653(6) -0.4664(4)
H24 H 0.1734 0.8336 -0.4954
C30 C 0.3138(7) 0.7365(5) -0.4051(3)
H25 H 0.4054 0.7854 -0.3931
N1 N 0.3820(4) 0.6665(3) 0.30602(19)
N2 N 0.3074(5) 0.4911(4) 0.0787(2)
N3 N 0.3232(5) 0.5467(4) -0.0008(2)
H26 H 0.3042 0.6169 -0.0031
N4 N 0.4346(5) 0.5343(4) -0.2240(2)
H27 H 0.4438 0.4634 -0.2272
O1 O 0.6503(4) 0.6350(4) 0.40743(19)
O2 O 0.6237(4) 0.8002(3) 0.3079(2)
O3 O 0.3917(7) 0.3971(4) -0.0827(2)
O4 O 0.3582(6) 0.6766(4) -0.1391(2)
F1 F 0.1555(4) 0.3294(3) 0.17068(17)
S1 S 0.59340(15) 0.68485(13) 0.32232(7)
loop_
_geom_bond_atom_site_label_1
_geom_bond_atom_site_label_2
_geom_bond_site_symmetry_1
_geom_bond_site_symmetry_2
C1 H1 1_555 1_555
H2 C1 1_555 1_555
H3 C1 1_555 1_555
C2 C1 1_555 1_555
H4 C2 1_555 1_555
C3 C2 1_555 1_555
H5 C3 1_555 1_555
H6 C3 1_555 1_555
C4 C3 1_555 1_555
C5 C4 1_555 1_555
C6 C5 1_555 1_555
C7 C6 1_555 1_555
H7 C7 1_555 1_555
C8 C7 1_555 1_555
H8 C8 1_555 1_555
C9 C8 1_555 1_555
H9 C9 1_555 1_555
C10 C5 1_555 1_555
C11 H10 1_555 1_555
C12 C11 1_555 1_555
C13 C12 1_555 1_555
H11 C13 1_555 1_555
C14 C13 1_555 1_555
H12 C14 1_555 1_555
C15 C14 1_555 1_555
C16 C15 1_555 1_555
H13 C16 1_555 1_555
C17 C16 1_555 1_555
H14 C17 1_555 1_555
C18 C17 1_555 1_555
H15 C18 1_555 1_555
C19 C18 1_555 1_555
H16 C19 1_555 1_555
C20 C11 1_555 1_555
C21 C22 1_555 1_555
C22 N4 1_555 1_555
C23 H17 1_555 1_555
C24 C23 1_555 1_555
H18 C24 1_555 1_555
H19 C24 1_555 1_555
H20 C24 1_555 1_555
C25 C23 1_555 1_555
C26 C25 1_555 1_555
H21 C26 1_555 1_555
C27 C26 1_555 1_555
H22 C27 1_555 1_555
C28 C27 1_555 1_555
H23 C28 1_555 1_555
C29 C28 1_555 1_555
H24 C29 1_555 1_555
C30 C25 1_555 1_555
H25 C30 1_555 1_555
N1 C2 1_555 1_555
N2 C4 1_555 1_555
N3 C21 1_555 1_555
H26 N3 1_555 1_555
N4 C23 1_555 1_555
H27 N4 1_555 1_555
O1 S1 1_555 1_555
O2 S1 1_555 1_555
O3 C21 1_555 1_555
O4 C22 1_555 1_555
F1 C6 1_555 1_555
S1 C12 1_555 1_555
C9 C10 1_555 1_555
C10 N1 1_555 1_555
C15 C20 1_555 1_555
C19 C20 1_555 1_555
C29 C30 1_555 1_555
N1 S1 1_555 1_555
N2 N3 1_555 1_555

#END
