
#######################################################################
#
#                 Cambridge Crystallographic Data Centre
#                                CCDC 
#
#######################################################################
#
# If this CIF has been generated from an entry in the Cambridge 
# Structural Database, then it will include bibliographic, chemical, 
# crystal, experimental, refinement or atomic coordinate data resulting 
# from the CCDC's data processing and validation procedures.
#
#######################################################################

data_ALASEM
_chemical_formula_moiety         'C17 H15 Cl2 N1 O4'
_chemical_name_systematic        
'Ethyl 2-amino-4-(2,4-dichlorophenyl)-5-oxo-4,5,6,7-tetrahydrocyclopenta[b]pyran-3-carboxylate'
_symmetry_cell_setting           monoclinic
_symmetry_space_group_name_H-M   'C 2/c'
_symmetry_Int_Tables_number      15
_space_group_name_Hall           '-C 2yn'
loop_
_symmetry_equiv_pos_site_id
_symmetry_equiv_pos_as_xyz
1 x,y,z
2 -x,y,1/2-z
3 1/2+x,1/2+y,z
4 1/2-x,1/2+y,1/2-z
5 -x,-y,-z
6 x,-y,1/2+z
7 1/2-x,1/2-y,-z
8 1/2+x,1/2-y,1/2+z
_cell_length_a                   20.361(6)
_cell_length_b                   8.793(3)
_cell_length_c                   17.998(6)
_cell_angle_alpha                90
_cell_angle_beta                 98.798(6)
_cell_angle_gamma                90
_cell_volume                     3184.34
_exptl_crystal_colour            colorless
_exptl_crystal_description       prism
_cell_formula_units_Z            8
loop_
_atom_site_label
_atom_site_type_symbol
_atom_site_fract_x
_atom_site_fract_y
_atom_site_fract_z
Cl1 Cl 0.00838(4) 0.90961(9) 0.15476(5)
Cl2 Cl 0.15431(4) 0.92822(9) -0.06818(5)
O1 O -0.01164(10) 0.5401(2) 0.12065(12)
O2 O 0.17692(13) 0.9117(2) 0.28911(13)
O3 O 0.00509(12) 0.2877(2) 0.13541(14)
C1 C 0.10952(14) 0.7097(3) 0.14694(15)
O4 O 0.17430(12) 0.3751(2) 0.29552(13)
C2 C 0.07973(15) 0.4626(3) 0.20588(17)
C3 C 0.19108(15) 0.7796(3) 0.30773(16)
N1 N 0.10914(15) 0.1991(3) 0.23317(16)
H1 H 0.0767 0.1652 0.2013
H2 H 0.1360 0.1366 0.2590
C4 C 0.15644(15) 0.6426(3) 0.27723(16)
C5 C 0.08594(16) 0.9020(3) 0.04822(17)
H3 H 0.0612 0.9851 0.0278
C6 C 0.13611(15) 0.8433(3) 0.01384(16)
C7 C 0.07295(15) 0.8338(3) 0.11464(17)
C8 C 0.11787(17) 0.3483(4) 0.24252(18)
C9 C -0.06702(16) 0.5036(4) 0.06295(17)
H4 H -0.1011 0.4498 0.0846
H5 H -0.0524 0.4397 0.0247
C10 C 0.09649(15) 0.6302(3) 0.21896(16)
H6 H 0.0592 0.6807 0.2374
C11 C 0.16064(15) 0.6565(3) 0.11020(17)
H7 H 0.1865 0.5753 0.1309
C12 C 0.17393(15) 0.7209(3) 0.04397(17)
H8 H 0.2078 0.6825 0.0200
C13 C 0.19006(16) 0.5234(4) 0.30979(17)
C14 C 0.24927(17) 0.5581(4) 0.36666(19)
H9 H 0.2897 0.5184 0.3515
H10 H 0.2445 0.5174 0.4156
C15 C 0.24890(16) 0.7324(4) 0.36691(17)
H11 H 0.2429 0.7707 0.4160
H12 H 0.2904 0.7718 0.3546
C16 C -0.09386(18) 0.6525(4) 0.0291(2)
H13 H -0.1092 0.7135 0.0672
H14 H -0.1301 0.6329 -0.0105
H15 H -0.0593 0.7058 0.0091
C17 C 0.02241(17) 0.4183(3) 0.15239(18)
loop_
_geom_bond_atom_site_label_1
_geom_bond_atom_site_label_2
_geom_bond_site_symmetry_1
_geom_bond_site_symmetry_2
Cl1 C7 1_555 1_555
Cl2 C6 1_555 1_555
O1 C9 1_555 1_555
O2 C3 1_555 1_555
O3 C17 1_555 1_555
C1 C7 1_555 1_555
O4 C8 1_555 1_555
C2 C8 1_555 1_555
C3 C4 1_555 1_555
N1 H1 1_555 1_555
H2 N1 1_555 1_555
C4 C10 1_555 1_555
C5 H3 1_555 1_555
C6 C5 1_555 1_555
C7 C5 1_555 1_555
C8 N1 1_555 1_555
C9 H4 1_555 1_555
H5 C9 1_555 1_555
C10 C1 1_555 1_555
H6 C10 1_555 1_555
C11 C1 1_555 1_555
H7 C11 1_555 1_555
C12 C6 1_555 1_555
H8 C12 1_555 1_555
C13 O4 1_555 1_555
C14 C13 1_555 1_555
H9 C14 1_555 1_555
H10 C14 1_555 1_555
C15 C3 1_555 1_555
H11 C15 1_555 1_555
H12 C15 1_555 1_555
C16 C9 1_555 1_555
H13 C16 1_555 1_555
H14 C16 1_555 1_555
H15 C16 1_555 1_555
C17 O1 1_555 1_555
C2 C10 1_555 1_555
C2 C17 1_555 1_555
C4 C13 1_555 1_555
C11 C12 1_555 1_555
C14 C15 1_555 1_555

#END
