
#######################################################################
#
#                 Cambridge Crystallographic Data Centre
#                                CCDC 
#
#######################################################################
#
# If this CIF has been generated from an entry in the Cambridge 
# Structural Database, then it will include bibliographic, chemical, 
# crystal, experimental, refinement or atomic coordinate data resulting 
# from the CCDC's data processing and validation procedures.
#
#######################################################################

data_ALATIN02
_chemical_name_common            'PDB Chemical Component code: 3AL'
_chemical_formula_moiety         'C4 H6 N4 O3'
_chemical_name_systematic        1-(2,5-Dioxoimidazolidin-4-yl)urea
_symmetry_cell_setting           monoclinic
_symmetry_space_group_name_H-M   'P 21/c'
_symmetry_Int_Tables_number      14
_space_group_name_Hall           '-P 2ybc'
loop_
_symmetry_equiv_pos_site_id
_symmetry_equiv_pos_as_xyz
1 x,y,z
2 -x,1/2+y,1/2-z
3 -x,-y,-z
4 x,1/2-y,1/2+z
_cell_length_a                   8.0004(6)
_cell_length_b                   5.1487(4)
_cell_length_c                   14.7501(10)
_cell_angle_alpha                90
_cell_angle_beta                 92.9080(10)
_cell_angle_gamma                90
_cell_volume                     606.799
_cell_formula_units_Z            4
loop_
_atom_site_label
_atom_site_type_symbol
_atom_site_fract_x
_atom_site_fract_y
_atom_site_fract_z
O1 O 0.2350(1) 0.1073(2) 0.2462(1)
O2 O 0.0690(1) 0.3218(2) 0.4211(1)
O3 O 0.6366(1) 0.2125(2) 0.4374(1)
N1 N 0.1068(1) 0.3202(2) 0.1272(1)
N2 N 0.2117(1) 0.5446(2) 0.2525(1)
N3 N 0.4662(1) 0.4859(2) 0.3500(1)
N4 N 0.3485(1) 0.2270(2) 0.4484(1)
C1 C 0.2162(1) 0.3532(2) 0.4072(1)
C2 C 0.4997(1) 0.3017(2) 0.4127(1)
C3 C 0.2887(1) 0.5523(2) 0.3420(1)
C4 C 0.1849(1) 0.3132(2) 0.2094(1)
H1 H 0.0890 0.1787 0.0973
H2 H 0.0742 0.4663 0.1043
H3 H 0.1820 0.6868 0.2257
H4 H 0.5409 0.5569 0.3182
H5 H 0.3402 0.1149 0.4911
H6 H 0.2740 0.7267 0.3669
loop_
_geom_bond_atom_site_label_1
_geom_bond_atom_site_label_2
_geom_bond_site_symmetry_1
_geom_bond_site_symmetry_2
O1 C4 1_555 1_555
O2 C1 1_555 1_555
O3 C2 1_555 1_555
N1 C4 1_555 1_555
N2 C3 1_555 1_555
N3 C2 1_555 1_555
N4 C1 1_555 1_555
C1 C3 1_555 1_555
C2 N4 1_555 1_555
C3 N3 1_555 1_555
C4 N2 1_555 1_555
H1 N1 1_555 1_555
H2 N1 1_555 1_555
H3 N2 1_555 1_555
H4 N3 1_555 1_555
H5 N4 1_555 1_555
H6 C3 1_555 1_555

#END
