
#######################################################################
#
#                 Cambridge Crystallographic Data Centre
#                                CCDC 
#
#######################################################################
#
# If this CIF has been generated from an entry in the Cambridge 
# Structural Database, then it will include bibliographic, chemical, 
# crystal, experimental, refinement or atomic coordinate data resulting 
# from the CCDC's data processing and validation procedures.
#
#######################################################################

data_ALATIN01
_chemical_name_common            5-Ureidoacetolactam
_chemical_formula_moiety         'C4 H6 N4 O3'
_chemical_name_systematic        DL-Allantoin
_symmetry_cell_setting           monoclinic
_symmetry_space_group_name_H-M   'P 21/c'
_symmetry_Int_Tables_number      14
_space_group_name_Hall           '-P 2ybc'
loop_
_symmetry_equiv_pos_site_id
_symmetry_equiv_pos_as_xyz
1 x,y,z
2 -x,1/2+y,1/2-z
3 -x,-y,-z
4 x,1/2-y,1/2+z
_cell_length_a                   8.025(3)
_cell_length_b                   5.160(9)
_cell_length_c                   14.795(7)
_cell_angle_alpha                90
_cell_angle_beta                 93
_cell_angle_gamma                90
_cell_volume                     611.807
_cell_formula_units_Z            4
loop_
_atom_site_label
_atom_site_type_symbol
_atom_site_fract_x
_atom_site_fract_y
_atom_site_fract_z
O1 O -0.4298(1) 0.1792(2) 0.4210(1)
O2 O -0.2649(1) 0.3939(2) 0.2460(1)
O3 O 0.1354(1) 0.2877(2) 0.4371(1)
N1 N -0.2882(2) -0.0421(2) 0.2526(1)
N2 N -0.3920(2) 0.1808(3) 0.1275(1)
N3 N -0.1513(2) 0.2732(2) 0.4481(1)
N4 N -0.041 -0.005 0.348
C1 C -0.0005(2) 0.1991(3) 0.4124(1)
C2 C -0.3147(2) 0.1883(3) 0.2096(1)
C3 C -0.2113(2) -0.0501(3) 0.3418(1)
C4 C -0.2834(2) 0.1482(3) 0.4069(1)
loop_
_geom_bond_atom_site_label_1
_geom_bond_atom_site_label_2
_geom_bond_site_symmetry_1
_geom_bond_site_symmetry_2
O1 C4 1_555 1_555
O2 C2 1_555 1_555
O3 C1 1_555 1_555
N1 C2 1_555 1_555
N2 C2 1_555 1_555
N3 C1 1_555 1_555
N4 C1 1_555 1_555
C3 N1 1_555 1_555
C4 N3 1_555 1_555
N4 C3 1_555 1_555
C3 C4 1_555 1_555

#END
