
#######################################################################
#
#                 Cambridge Crystallographic Data Centre
#                                CCDC 
#
#######################################################################
#
# If this CIF has been generated from an entry in the Cambridge 
# Structural Database, then it will include bibliographic, chemical, 
# crystal, experimental, refinement or atomic coordinate data resulting 
# from the CCDC's data processing and validation procedures.
#
#######################################################################

data_ALAYER
_chemical_formula_moiety         'C18 H18 N2 O1'
_chemical_name_systematic        
3-Ethylidene-1,3,4,7,12,12b-hexahydro-13-oxo-2H,6H-2,6-methanoindole(2,3-\a)quinolizine
_symmetry_cell_setting           orthorhombic
_symmetry_space_group_name_H-M   'P 21 21 21'
_symmetry_Int_Tables_number      19
_space_group_name_Hall           'P 2ac 2ab'
loop_
_symmetry_equiv_pos_site_id
_symmetry_equiv_pos_as_xyz
1 x,y,z
2 1/2-x,-y,1/2+z
3 -x,1/2+y,1/2-z
4 1/2+x,1/2-y,-z
_cell_length_a                   7.2160(6)
_cell_length_b                   16.8990(19)
_cell_length_c                   49.084(2)
_cell_angle_alpha                90
_cell_angle_beta                 90
_cell_angle_gamma                90
_cell_volume                     5985.46
_cell_formula_units_Z            16
loop_
_atom_site_label
_atom_site_type_symbol
_atom_site_fract_x
_atom_site_fract_y
_atom_site_fract_z
N1 N 0.1615(5) -0.0734(2) 0.14521(7)
H1 H 0.2585 -0.0438 0.1448
C1 C 0.0707(6) -0.0986(2) 0.16808(8)
C2 C 0.1316(5) -0.0795(3) 0.19677(8)
H2 H 0.1649 -0.0233 0.1975
N2 N -0.0338(5) -0.0926(2) 0.21472(7)
C3 C -0.0996(6) -0.1753(3) 0.21036(8)
H3 H -0.1900 -0.1881 0.2246
C4 C -0.1941(6) -0.1829(3) 0.18274(8)
H4 H -0.2137 -0.2382 0.1784
H5 H -0.3138 -0.1567 0.1832
C5 C -0.0754(6) -0.1459(2) 0.16171(8)
C6 C -0.0811(6) -0.1506(3) 0.13249(9)
C7 C -0.1965(7) -0.1892(3) 0.11407(9)
H6 H -0.2956 -0.2197 0.1201
C8 C -0.1603(8) -0.1810(3) 0.08641(10)
H7 H -0.2352 -0.2067 0.0738
C9 C -0.0121(8) -0.1343(3) 0.07732(10)
H8 H 0.0096 -0.1297 0.0587
C10 C 0.1013(7) -0.0953(3) 0.09519(9)
H9 H 0.1979 -0.0638 0.0889
C11 C 0.0690(6) -0.1040(3) 0.12286(8)
C12 C 0.2987(6) -0.1283(3) 0.20641(10)
H10 H 0.3871 -0.0943 0.2156
H11 H 0.3600 -0.1524 0.1909
C13 C 0.2284(6) -0.1935(3) 0.22626(9)
H12 H 0.3258 -0.2317 0.2308
C14 C 0.1483(7) -0.1543(3) 0.25144(9)
C15 C 0.0294(7) -0.0848(3) 0.24352(9)
H13 H -0.0774 -0.0820 0.2555
H14 H 0.0997 -0.0363 0.2456
C16 C 0.0646(6) -0.2325(3) 0.21291(9)
C17 C 0.1571(8) -0.1821(3) 0.27680(10)
H15 H 0.0926 -0.1540 0.2900
C18 C 0.2604(9) -0.2544(4) 0.28624(13)
H16 H 0.2435 -0.2609 0.3055
H17 H 0.3900 -0.2482 0.2823
H18 H 0.2139 -0.3001 0.2769
O1 O 0.0614(5) -0.30043(18) 0.20530(7)
N3 N 0.6475(5) 0.0190(2) 0.20558(6)
H19 H 0.7419 -0.0119 0.2068
C19 C 0.5664(6) 0.0448(2) 0.18193(8)
C20 C 0.6373(6) 0.0248(2) 0.15430(7)
H20 H 0.6662 -0.0319 0.1537
N4 N 0.4819(5) 0.04146(19) 0.13479(7)
C21 C 0.4260(6) 0.1256(3) 0.13825(9)
H21 H 0.3421 0.1393 0.1233
C22 C 0.3195(6) 0.1364(3) 0.16525(9)
H22 H 0.3096 0.1922 0.1696
H23 H 0.1954 0.1149 0.1636
C23 C 0.4222(6) 0.0944(2) 0.18707(8)
C24 C 0.4060(6) 0.0985(3) 0.21632(9)
C25 C 0.2852(8) 0.1368(3) 0.23430(11)
H24 H 0.1899 0.1686 0.2277
C26 C 0.3103(9) 0.1264(4) 0.26219(12)
H25 H 0.2284 0.1501 0.2743
C27 C 0.4555(10) 0.0812(4) 0.27211(11)
H26 H 0.4715 0.0771 0.2909
C28 C 0.5779(8) 0.0419(3) 0.25501(9)
H27 H 0.6734 0.0107 0.2619
C29 C 0.5509(7) 0.0513(3) 0.22703(8)
C30 C 0.8129(6) 0.0718(3) 0.14735(8)
H28 H 0.9082 0.0363 0.1407
H29 H 0.8594 0.0981 0.1635
C31 C 0.7657(6) 0.1337(2) 0.12535(8)
H30 H 0.8694 0.1696 0.1217
C32 C 0.7111(6) 0.0865(3) 0.10054(8)
C33 C 0.5540(7) 0.0299(3) 0.10663(8)
H31 H 0.4546 0.0382 0.0936
H32 H 0.5976 -0.0241 0.1046
C34 C 0.5973(6) 0.1768(2) 0.13569(8)
C35 C 0.7981(7) 0.0885(3) 0.07648(8)
H33 H 0.7493 0.0556 0.0631
C36 C 0.9621(9) 0.1360(3) 0.06815(11)
H34 H 0.9922 0.1246 0.0495
H35 H 1.0656 0.1229 0.0796
H36 H 0.9342 0.1913 0.0700
O2 O 0.5993(5) 0.24655(18) 0.14198(7)
N5 N 0.8064(5) -0.0566(2) 0.45511(7)
H37 H 0.7090 -0.0284 0.4579
C37 C 0.8973(6) -0.0657(2) 0.43046(8)
C38 C 0.8391(6) -0.0275(2) 0.40456(8)
H38 H 0.8076 0.0278 0.4083
N6 N 1.0029(5) -0.0294(2) 0.38589(7)
C39 C 1.0649(6) -0.1123(2) 0.38328(8)
H39 H 1.1544 -0.1153 0.3683
C40 C 1.1618(6) -0.1398(3) 0.40952(8)
H40 H 1.1787 -0.1968 0.4092
H41 H 1.2827 -0.1151 0.4110
C41 C 1.0435(6) -0.1168(2) 0.43332(8)
C42 C 1.0512(6) -0.1382(3) 0.46133(8)
C43 C 1.1732(7) -0.1847(3) 0.47675(9)
H42 H 1.2720 -0.2108 0.4685
C44 C 1.1426(8) -0.1909(3) 0.50466(10)
H43 H 1.2230 -0.2212 0.5152
C45 C 0.9940(8) -0.1528(3) 0.51724(10)
H44 H 0.9771 -0.1583 0.5359
C46 C 0.8722(7) -0.1073(3) 0.50247(9)
H45 H 0.7739 -0.0815 0.5109
C47 C 0.9005(6) -0.1009(2) 0.47437(8)
C48 C 0.6685(6) -0.0684(3) 0.39173(9)
H46 H 0.6106 -0.1034 0.4049
H47 H 0.5783 -0.0291 0.3861
C49 C 0.7345(6) -0.1160(3) 0.36697(8)
H48 H 0.6356 -0.1495 0.3596
C50 C 0.8076(6) -0.0590(3) 0.34576(9)
C51 C 0.9386(7) -0.0016(3) 0.35856(8)
H49 H 0.8777 0.0493 0.3605
H50 H 1.0450 0.0056 0.3467
C52 C 0.8987(6) -0.1644(2) 0.37608(8)
C53 C 0.7655(8) -0.0607(3) 0.31942(10)
H51 H 0.8233 -0.0232 0.3084
C54 C 0.6341(10) -0.1170(4) 0.30538(11)
H52 H 0.6297 -0.1049 0.2863
H53 H 0.5124 -0.1114 0.3131
H54 H 0.6764 -0.1703 0.3079
O3 O 0.8987(5) -0.23621(17) 0.37784(7)
N7 N 0.3327(5) 0.07375(19) 0.40173(6)
H55 H 0.2396 0.0446 0.3974
C55 C 0.4035(5) 0.0839(2) 0.42757(7)
C56 C 0.3300(5) 0.0443(2) 0.45227(7)
H56 H 0.3012 -0.0110 0.4479
N8 N 0.4819(5) 0.04662(19) 0.47288(6)
C57 C 0.5368(6) 0.1299(2) 0.47765(8)
H57 H 0.6211 0.1311 0.4933
C58 C 0.6415(5) 0.1626(3) 0.45267(8)
H58 H 0.6449 0.2200 0.4535
H59 H 0.7681 0.1433 0.4527
C59 C 0.5462(6) 0.1368(2) 0.42726(7)
C60 C 0.5730(6) 0.1600(2) 0.39937(8)
C61 C 0.7016(6) 0.2084(3) 0.38639(8)
H60 H 0.7908 0.2359 0.3963
C62 C 0.6922(7) 0.2143(3) 0.35801(8)
H61 H 0.7772 0.2458 0.3488
C63 C 0.5574(7) 0.1737(3) 0.34348(9)
H62 H 0.5546 0.1793 0.3246
C64 C 0.4283(7) 0.1260(3) 0.35562(8)
H63 H 0.3385 0.0996 0.3455
C65 C 0.4380(6) 0.1188(2) 0.38412(7)
C66 C 0.1525(5) 0.0858(3) 0.46264(7)
H64 H 0.1113 0.1247 0.4494
H65 H 0.0543 0.0473 0.4651
C67 C 0.1965(6) 0.1265(2) 0.48991(7)
H66 H 0.0913 0.1577 0.4966
C68 C 0.2491(6) 0.0623(2) 0.50951(7)
C69 C 0.4086(6) 0.0138(3) 0.49891(7)
H67 H 0.5069 0.0129 0.5124
H68 H 0.3678 -0.0402 0.4960
C70 C 0.3634(6) 0.1768(2) 0.48511(8)
C71 C 0.1632(7) 0.0469(3) 0.53313(9)
H69 H 0.2096 0.0050 0.5433
C72 C 0.0010(8) 0.0900(3) 0.54473(10)
H70 H -0.0327 0.0667 0.5619
H71 H -0.1017 0.0864 0.5323
H72 H 0.0329 0.1445 0.5474
O4 O 0.3634(5) 0.24876(16) 0.48681(7)
loop_
_geom_bond_atom_site_label_1
_geom_bond_atom_site_label_2
_geom_bond_site_symmetry_1
_geom_bond_site_symmetry_2
N1 H1 1_555 1_555
C1 N1 1_555 1_555
C2 C1 1_555 1_555
H2 C2 1_555 1_555
N2 C2 1_555 1_555
C3 N2 1_555 1_555
H3 C3 1_555 1_555
C4 C3 1_555 1_555
H4 C4 1_555 1_555
H5 C4 1_555 1_555
C5 C1 1_555 1_555
C6 C5 1_555 1_555
C7 C6 1_555 1_555
H6 C7 1_555 1_555
C8 C7 1_555 1_555
H7 C8 1_555 1_555
C9 C8 1_555 1_555
H8 C9 1_555 1_555
C10 C9 1_555 1_555
H9 C10 1_555 1_555
C11 N1 1_555 1_555
C12 C2 1_555 1_555
H10 C12 1_555 1_555
H11 C12 1_555 1_555
C13 C12 1_555 1_555
H12 C13 1_555 1_555
C14 C13 1_555 1_555
C15 N2 1_555 1_555
H13 C15 1_555 1_555
H14 C15 1_555 1_555
C16 C3 1_555 1_555
C17 C14 1_555 1_555
H15 C17 1_555 1_555
C18 C17 1_555 1_555
H16 C18 1_555 1_555
H17 C18 1_555 1_555
H18 C18 1_555 1_555
O1 C16 1_555 1_555
N3 H19 1_555 1_555
C19 N3 1_555 1_555
C20 C19 1_555 1_555
H20 C20 1_555 1_555
N4 C20 1_555 1_555
C21 N4 1_555 1_555
H21 C21 1_555 1_555
C22 C21 1_555 1_555
H22 C22 1_555 1_555
H23 C22 1_555 1_555
C23 C19 1_555 1_555
C24 C23 1_555 1_555
C25 C24 1_555 1_555
H24 C25 1_555 1_555
C26 C25 1_555 1_555
H25 C26 1_555 1_555
C27 C26 1_555 1_555
H26 C27 1_555 1_555
C28 C27 1_555 1_555
H27 C28 1_555 1_555
C29 N3 1_555 1_555
C30 C20 1_555 1_555
H28 C30 1_555 1_555
H29 C30 1_555 1_555
C31 C30 1_555 1_555
H30 C31 1_555 1_555
C32 C31 1_555 1_555
C33 N4 1_555 1_555
H31 C33 1_555 1_555
H32 C33 1_555 1_555
C34 C21 1_555 1_555
C35 C32 1_555 1_555
H33 C35 1_555 1_555
C36 C35 1_555 1_555
H34 C36 1_555 1_555
H35 C36 1_555 1_555
H36 C36 1_555 1_555
O2 C34 1_555 1_555
N5 H37 1_555 1_555
C37 N5 1_555 1_555
C38 C37 1_555 1_555
H38 C38 1_555 1_555
N6 C38 1_555 1_555
C39 N6 1_555 1_555
H39 C39 1_555 1_555
C40 C39 1_555 1_555
H40 C40 1_555 1_555
H41 C40 1_555 1_555
C41 C37 1_555 1_555
C42 C41 1_555 1_555
C43 C42 1_555 1_555
H42 C43 1_555 1_555
C44 C43 1_555 1_555
H43 C44 1_555 1_555
C45 C44 1_555 1_555
H44 C45 1_555 1_555
C46 C45 1_555 1_555
H45 C46 1_555 1_555
C47 N5 1_555 1_555
C48 C38 1_555 1_555
H46 C48 1_555 1_555
H47 C48 1_555 1_555
C49 C48 1_555 1_555
H48 C49 1_555 1_555
C50 C49 1_555 1_555
C51 N6 1_555 1_555
H49 C51 1_555 1_555
H50 C51 1_555 1_555
C52 C39 1_555 1_555
C53 C50 1_555 1_555
H51 C53 1_555 1_555
C54 C53 1_555 1_555
H52 C54 1_555 1_555
H53 C54 1_555 1_555
H54 C54 1_555 1_555
O3 C52 1_555 1_555
N7 H55 1_555 1_555
C55 N7 1_555 1_555
C56 C55 1_555 1_555
H56 C56 1_555 1_555
N8 C56 1_555 1_555
C57 N8 1_555 1_555
H57 C57 1_555 1_555
C58 C57 1_555 1_555
H58 C58 1_555 1_555
H59 C58 1_555 1_555
C59 C55 1_555 1_555
C60 C59 1_555 1_555
C61 C60 1_555 1_555
H60 C61 1_555 1_555
C62 C61 1_555 1_555
H61 C62 1_555 1_555
C63 C62 1_555 1_555
H62 C63 1_555 1_555
C64 C63 1_555 1_555
H63 C64 1_555 1_555
C65 N7 1_555 1_555
C66 C56 1_555 1_555
H64 C66 1_555 1_555
H65 C66 1_555 1_555
C67 C66 1_555 1_555
H66 C67 1_555 1_555
C68 C67 1_555 1_555
C69 N8 1_555 1_555
H67 C69 1_555 1_555
H68 C69 1_555 1_555
C70 C57 1_555 1_555
C71 C68 1_555 1_555
H69 C71 1_555 1_555
C72 C71 1_555 1_555
H70 C72 1_555 1_555
H71 C72 1_555 1_555
H72 C72 1_555 1_555
O4 C70 1_555 1_555
C4 C5 1_555 1_555
C6 C11 1_555 1_555
C10 C11 1_555 1_555
C13 C16 1_555 1_555
C14 C15 1_555 1_555
C22 C23 1_555 1_555
C24 C29 1_555 1_555
C28 C29 1_555 1_555
C31 C34 1_555 1_555
C32 C33 1_555 1_555
C40 C41 1_555 1_555
C42 C47 1_555 1_555
C46 C47 1_555 1_555
C49 C52 1_555 1_555
C50 C51 1_555 1_555
C58 C59 1_555 1_555
C60 C65 1_555 1_555
C64 C65 1_555 1_555
C67 C70 1_555 1_555
C68 C69 1_555 1_555

#END
