
#######################################################################
#
#                 Cambridge Crystallographic Data Centre
#                                CCDC 
#
#######################################################################
#
# If this CIF has been generated from an entry in the Cambridge 
# Structural Database, then it will include bibliographic, chemical, 
# crystal, experimental, refinement or atomic coordinate data resulting 
# from the CCDC's data processing and validation procedures.
#
#######################################################################

data_ALAYIV
_chemical_name_common            '(+)-Normacusine B ethanol solvate'
_chemical_formula_moiety         'C19 H22 N2 O1,C2 H6 O1'
_chemical_name_systematic        
'(+)-3-Ethylidene-1,3,4,7,12,12b-hexahydro-13-hydroxymethyl-2H,6H-2,6-methanoindole(2,3-\a)quinolizine ethanol solvate'
_symmetry_cell_setting           orthorhombic
_symmetry_space_group_name_H-M   'P 21 21 21'
_symmetry_Int_Tables_number      19
_space_group_name_Hall           'P 2ac 2ab'
loop_
_symmetry_equiv_pos_site_id
_symmetry_equiv_pos_as_xyz
1 x,y,z
2 1/2-x,-y,1/2+z
3 -x,1/2+y,1/2-z
4 1/2+x,1/2-y,-z
_cell_length_a                   9.953(2)
_cell_length_b                   10.424(2)
_cell_length_c                   18.455(4)
_cell_angle_alpha                90
_cell_angle_beta                 90
_cell_angle_gamma                90
_cell_volume                     1914.71
_cell_formula_units_Z            4
loop_
_atom_site_label
_atom_site_type_symbol
_atom_site_fract_x
_atom_site_fract_y
_atom_site_fract_z
N1 N 1.04193(19) 0.90345(16) 0.89654(10)
H1 H 0.9920 0.9678 0.9078
C1 C 1.0061(2) 0.80217(19) 0.85242(12)
C2 C 0.8755(2) 0.79444(18) 0.81227(11)
H2 H 0.8537 0.8801 0.7938
N2 N 0.89994(17) 0.70808(15) 0.74907(10)
C3 C 0.9512(2) 0.58174(18) 0.77686(12)
H3 H 0.9496 0.5201 0.7368
C4 C 1.0971(2) 0.59851(19) 0.80117(12)
H4 H 1.1255 0.5240 0.8287
H5 H 1.1549 0.6064 0.7591
C5 C 1.1086(2) 0.7161(2) 0.84703(12)
C6 C 1.2177(2) 0.7655(2) 0.88970(12)
C7 C 1.3491(2) 0.7254(3) 0.90452(13)
H6 H 1.3806 0.6474 0.8868
C8 C 1.4315(2) 0.8033(3) 0.94584(13)
H7 H 1.5188 0.7772 0.9560
C9 C 1.3850(3) 0.9211(3) 0.97268(13)
H8 H 1.4434 0.9732 0.9988
C10 C 1.2556(3) 0.9615(2) 0.96129(12)
H9 H 1.2245 1.0383 0.9807
C11 C 1.1723(2) 0.8831(2) 0.91941(12)
C12 C 0.7543(2) 0.74572(17) 0.85767(11)
H10 H 0.7760 0.7484 0.9089
H11 H 0.6765 0.7997 0.8493
C13 C 0.7240(2) 0.60677(18) 0.83425(12)
H12 H 0.6560 0.5681 0.8659
C14 C 0.8569(2) 0.53068(18) 0.83789(12)
H13 H 0.8994 0.5488 0.8847
C15 C 0.8321(2) 0.38721(19) 0.83326(13)
H14 H 0.7572 0.3644 0.8643
H15 H 0.8087 0.3644 0.7839
O1 O 0.95001(16) 0.31619(13) 0.85522(8)
H16 H 0.9346 0.2391 0.8525
C16 C 0.4826(2) 0.4519(2) 0.76634(15)
H17 H 0.4210 0.4153 0.7321
H18 H 0.4335 0.5000 0.8019
H19 H 0.5318 0.3845 0.7898
C17 C 0.5777(2) 0.5382(2) 0.72799(13)
H20 H 0.5661 0.5451 0.6781
C18 C 0.6774(2) 0.60674(18) 0.75647(12)
C19 C 0.7717(2) 0.68635(19) 0.71042(11)
H21 H 0.7890 0.6423 0.6651
H22 H 0.7301 0.7682 0.6994
O2 O 0.9394(4) 0.1299(3) 0.9544(2)
H23 H 0.9369 0.1916 0.9269
C20 C 0.8584(6) 0.1550(6) 1.0159(3)
H24 H 0.8653 0.2451 1.0284
H25 H 0.8918 0.1056 1.0567
C21 C 0.7160(9) 0.1224(11) 1.0034(6)
H26 H 0.6649 0.1403 1.0463
H27 H 0.7085 0.0329 0.9917
H28 H 0.6819 0.1726 0.9639
O3? O 0.8421(6) 0.0899(4) 0.9070(3)
H29? H 0.8641 0.1631 0.8959
C22? C 0.7366(10) 0.0946(8) 0.9576(7)
H30? H 0.7024 0.0086 0.9653
H31? H 0.6641 0.1463 0.9380
C23? C 0.778(2) 0.1471(17) 1.0254(13)
H32? H 0.7000 0.1674 1.0539
H33? H 0.8291 0.2237 1.0171
H34? H 0.8320 0.0857 1.0507
loop_
_geom_bond_atom_site_label_1
_geom_bond_atom_site_label_2
_geom_bond_site_symmetry_1
_geom_bond_site_symmetry_2
N1 H1 1_555 1_555
C1 N1 1_555 1_555
C2 C1 1_555 1_555
H2 C2 1_555 1_555
N2 C2 1_555 1_555
C3 N2 1_555 1_555
H3 C3 1_555 1_555
C4 C3 1_555 1_555
H4 C4 1_555 1_555
H5 C4 1_555 1_555
C5 C1 1_555 1_555
C6 C5 1_555 1_555
C7 C6 1_555 1_555
H6 C7 1_555 1_555
C8 C7 1_555 1_555
H7 C8 1_555 1_555
C9 C8 1_555 1_555
H8 C9 1_555 1_555
C10 C9 1_555 1_555
H9 C10 1_555 1_555
C11 N1 1_555 1_555
C12 C2 1_555 1_555
H10 C12 1_555 1_555
H11 C12 1_555 1_555
C13 C12 1_555 1_555
H12 C13 1_555 1_555
C14 C3 1_555 1_555
H13 C14 1_555 1_555
C15 C14 1_555 1_555
H14 C15 1_555 1_555
H15 C15 1_555 1_555
O1 C15 1_555 1_555
H16 O1 1_555 1_555
C16 H17 1_555 1_555
H18 C16 1_555 1_555
H19 C16 1_555 1_555
C17 C16 1_555 1_555
H20 C17 1_555 1_555
C18 C13 1_555 1_555
C19 N2 1_555 1_555
H21 C19 1_555 1_555
H22 C19 1_555 1_555
O2 H23 1_555 1_555
C20 O2 1_555 1_555
H24 C20 1_555 1_555
H25 C20 1_555 1_555
C21 C20 1_555 1_555
H26 C21 1_555 1_555
H27 C21 1_555 1_555
H28 C21 1_555 1_555
C4 C5 1_555 1_555
C6 C11 1_555 1_555
C10 C11 1_555 1_555
C13 C14 1_555 1_555
C17 C18 1_555 1_555
C18 C19 1_555 1_555

#END
