
#######################################################################
#
#                 Cambridge Crystallographic Data Centre
#                                CCDC 
#
#######################################################################
#
# If this CIF has been generated from an entry in the Cambridge 
# Structural Database, then it will include bibliographic, chemical, 
# crystal, experimental, refinement or atomic coordinate data resulting 
# from the CCDC's data processing and validation procedures.
#
#######################################################################

data_ALAZAP
_chemical_formula_moiety         'C30 H29 N1'
_chemical_name_systematic        
N-(1,2-Diphenylbut-1-en-1-yl)-N,N-bis(4-methylphenyl)amine
_symmetry_cell_setting           monoclinic
_symmetry_space_group_name_H-M   'C c'
_symmetry_Int_Tables_number      9
_space_group_name_Hall           'C -2yc'
loop_
_symmetry_equiv_pos_site_id
_symmetry_equiv_pos_as_xyz
1 x,y,z
2 x,-y,1/2+z
3 1/2+x,1/2+y,z
4 1/2+x,1/2-y,1/2+z
_cell_length_a                   18.025(4)
_cell_length_b                   12.343(3)
_cell_length_c                   12.143(2)
_cell_angle_alpha                90
_cell_angle_beta                 120.46(3)
_cell_angle_gamma                90
_cell_volume                     2328.74
_exptl_crystal_colour            colorless
_exptl_crystal_description       prism
_cell_formula_units_Z            4
loop_
_atom_site_label
_atom_site_type_symbol
_atom_site_fract_x
_atom_site_fract_y
_atom_site_fract_z
N1 N 0.09834(9) 0.14879(11) 0.37567(13)
C1 C 0.01651(11) 0.09939(12) 0.33240(15)
C2 C -0.13190(12) 0.17317(14) 0.25979(17)
H1 H -0.1541 0.1312 0.1840
C3 C -0.07656(12) -0.06436(12) 0.26112(17)
C4 C 0.25267(11) 0.11323(14) 0.47189(16)
H2 H 0.2539 0.1552 0.4073
C5 C -0.08842(12) -0.08587(15) 0.36379(18)
H3 H -0.0488 -0.0575 0.4457
C6 C -0.04480(11) 0.16760(12) 0.35046(15)
C7 C -0.00035(11) -0.00097(13) 0.28140(15)
C8 C 0.05300(13) 0.25939(15) 0.18573(18)
H4 H 0.0169 0.2022 0.1339
C9 C 0.11055(13) 0.43917(15) 0.2021(2)
C10 C 0.25134(13) -0.01143(14) 0.65872(17)
H5 H 0.2502 -0.0548 0.7225
C11 C -0.15564(14) 0.30043(15) 0.3889(2)
H6 H -0.1934 0.3447 0.4024
C12 C 0.32804(12) 0.06554(15) 0.56704(18)
H7 H 0.3802 0.0769 0.5671
C13 C 0.15107(12) 0.33376(13) 0.39163(17)
H8 H 0.1823 0.3276 0.4821
C14 C -0.13426(12) -0.10827(15) 0.14285(19)
H9 H -0.1263 -0.0963 0.0722
C15 C 0.32903(13) 0.00204(15) 0.66153(18)
C16 C 0.05809(13) 0.35505(17) 0.13000(19)
H10 H 0.0246 0.3628 0.0398
C17 C 0.15579(13) 0.42808(14) 0.3345(2)
H11 H 0.1904 0.4863 0.3862
C18 C 0.17540(11) 0.09997(12) 0.47048(15)
C19 C 0.17597(12) 0.03608(14) 0.56633(16)
H12 H 0.1242 0.0255 0.5677
C20 C 0.10078(11) 0.24749(12) 0.31744(15)
C21 C -0.15694(13) -0.14786(15) 0.3485(2)
H13 H -0.1639 -0.1620 0.4196
C22 C -0.18697(13) 0.23932(15) 0.27850(19)
H14 H -0.2463 0.2426 0.2153
C23 C -0.06905(14) 0.29655(15) 0.47918(18)
H15 H -0.0472 0.3386 0.5549
C24 C -0.21512(14) -0.18920(15) 0.2300(2)
H16 H -0.2628 -0.2308 0.2189
C25 C 0.05831(12) -0.05933(15) 0.24606(18)
H17 H 0.1060 -0.0101 0.2614
H18 H 0.0255 -0.0759 0.1535
C26 C -0.01375(12) 0.23177(14) 0.46005(16)
H19 H 0.0459 0.2309 0.5221
C27 C -0.20356(15) -0.16966(15) 0.1270(2)
H20 H -0.2433 -0.1985 0.0454
C28 C 0.09647(16) -0.16421(18) 0.3194(2)
H21 H 0.1333 -0.1972 0.2909
H22 H 0.0499 -0.2144 0.3033
H23 H 0.1307 -0.1485 0.4110
C29 C 0.12389(18) 0.53871(19) 0.1416(3)
H24 H 0.1635 0.5884 0.2087
H25 H 0.0685 0.5749 0.0882
H26 H 0.1483 0.5173 0.0888
C30 C 0.41164(15) -0.04725(18) 0.7669(2)
H27 H 0.4592 -0.0289 0.7530
H28 H 0.4055 -0.1262 0.7662
H29 H 0.4237 -0.0185 0.8496
loop_
_geom_bond_atom_site_label_1
_geom_bond_atom_site_label_2
_geom_bond_site_symmetry_1
_geom_bond_site_symmetry_2
N1 C1 1_555 1_555
C1 C6 1_555 1_555
C2 H1 1_555 1_555
C3 C5 1_555 1_555
C4 H2 1_555 1_555
C5 H3 1_555 1_555
C6 C2 1_555 1_555
C7 C1 1_555 1_555
C8 H4 1_555 1_555
C9 C16 1_555 1_555
C10 H5 1_555 1_555
C11 H6 1_555 1_555
C12 C4 1_555 1_555
H7 C12 1_555 1_555
C13 H8 1_555 1_555
C14 C3 1_555 1_555
H9 C14 1_555 1_555
C15 C10 1_555 1_555
C16 C8 1_555 1_555
H10 C16 1_555 1_555
C17 C9 1_555 1_555
H11 C17 1_555 1_555
C18 N1 1_555 1_555
C19 C10 1_555 1_555
H12 C19 1_555 1_555
C20 N1 1_555 1_555
C21 C5 1_555 1_555
H13 C21 1_555 1_555
C22 C2 1_555 1_555
H14 C22 1_555 1_555
C23 C11 1_555 1_555
H15 C23 1_555 1_555
C24 C21 1_555 1_555
H16 C24 1_555 1_555
C25 C7 1_555 1_555
H17 C25 1_555 1_555
H18 C25 1_555 1_555
C26 C6 1_555 1_555
H19 C26 1_555 1_555
C27 C14 1_555 1_555
H20 C27 1_555 1_555
C28 C25 1_555 1_555
H21 C28 1_555 1_555
H22 C28 1_555 1_555
H23 C28 1_555 1_555
C29 C9 1_555 1_555
H24 C29 1_555 1_555
H25 C29 1_555 1_555
H26 C29 1_555 1_555
C30 C15 1_555 1_555
H27 C30 1_555 1_555
H28 C30 1_555 1_555
H29 C30 1_555 1_555
C3 C7 1_555 1_555
C4 C18 1_555 1_555
C8 C20 1_555 1_555
C11 C22 1_555 1_555
C12 C15 1_555 1_555
C13 C17 1_555 1_555
C13 C20 1_555 1_555
C18 C19 1_555 1_555
C23 C26 1_555 1_555
C24 C27 1_555 1_555

#END
