
#######################################################################
#
#                 Cambridge Crystallographic Data Centre
#                                CCDC 
#
#######################################################################
#
# If this CIF has been generated from an entry in the Cambridge 
# Structural Database, then it will include bibliographic, chemical, 
# crystal, experimental, refinement or atomic coordinate data resulting 
# from the CCDC's data processing and validation procedures.
#
#######################################################################

data_ALEHEF
_chemical_formula_moiety         'C16 H12 O2 S3'
_chemical_name_systematic        
2,3-Dimethoxybisthieno[3,2-a:2',3'-d][3]benzothiepine
_symmetry_cell_setting           monoclinic
_symmetry_space_group_name_H-M   'P 21/c'
_symmetry_Int_Tables_number      14
_space_group_name_Hall           '-P 2ybc'
loop_
_symmetry_equiv_pos_site_id
_symmetry_equiv_pos_as_xyz
1 x,y,z
2 -x,1/2+y,1/2-z
3 -x,-y,-z
4 x,1/2-y,1/2+z
_cell_length_a                   12.7243(6)
_cell_length_b                   7.8174(3)
_cell_length_c                   14.3030(6)
_cell_angle_alpha                90
_cell_angle_beta                 90.712(2)
_cell_angle_gamma                90
_cell_volume                     1422.62
_exptl_crystal_colour            colorless
_exptl_crystal_description       block
_cell_formula_units_Z            4
loop_
_atom_site_label
_atom_site_type_symbol
_atom_site_fract_x
_atom_site_fract_y
_atom_site_fract_z
S1 S 0.63881(2) 0.02943(4) 0.96772(2)
O1 O 1.07999(7) -0.03771(15) 1.29992(7)
C1 C 0.97322(10) -0.04761(17) 1.29050(9)
O2 O 0.98385(7) -0.15991(13) 1.44197(6)
S2 S 0.62258(3) -0.25723(4) 1.10850(2)
C2 C 0.91554(10) 0.00002(17) 1.21236(9)
H1 H 0.9509 0.0491 1.1608
S3 S 0.45087(2) -0.22423(4) 1.25169(2)
C3 C 0.80542(10) -0.02224(15) 1.20698(8)
C4 C 0.75261(9) 0.03032(16) 1.11885(8)
C5 C 0.78151(10) 0.17864(17) 1.06601(9)
H2 H 0.8328 0.2591 1.0865
C6 C 0.72771(10) 0.19227(17) 0.98322(9)
H3 H 0.7383 0.2816 0.9393
C7 C 0.67563(10) -0.06153(16) 1.07292(8)
C8 C 0.57953(10) -0.19434(16) 1.21911(9)
C9 C 0.47647(10) -0.14746(16) 1.36139(9)
H4 H 0.4257 -0.1401 1.4093
C10 C 0.57874(10) -0.09805(16) 1.37180(8)
H5 H 0.6067 -0.0506 1.4280
C11 C 0.63981(9) -0.12486(15) 1.28969(8)
C12 C 0.75356(9) -0.08972(15) 1.28510(8)
C13 C 0.81293(10) -0.12880(16) 1.36624(9)
H6 H 0.7776 -0.1680 1.4203
C14 C 0.92061(10) -0.11172(17) 1.36930(9)
C15 C 1.14089(11) -0.0474(2) 1.21746(10)
H7 H 1.1242 -0.1536 1.1840
H8 H 1.2158 -0.0461 1.2344
H9 H 1.1247 0.0507 1.1772
C16 C 0.93371(12) -0.2308(2) 1.52196(10)
H10 H 0.8841 -0.1474 1.5472
H11 H 0.9869 -0.2588 1.5697
H12 H 0.8958 -0.3350 1.5038
loop_
_geom_bond_atom_site_label_1
_geom_bond_atom_site_label_2
_geom_bond_site_symmetry_1
_geom_bond_site_symmetry_2
S1 C6 1_555 1_555
O1 C1 1_555 1_555
C1 C2 1_555 1_555
O2 C14 1_555 1_555
S2 C7 1_555 1_555
C2 H1 1_555 1_555
S3 C8 1_555 1_555
C3 C2 1_555 1_555
C4 C3 1_555 1_555
C5 C4 1_555 1_555
H2 C5 1_555 1_555
C6 C5 1_555 1_555
H3 C6 1_555 1_555
C7 S1 1_555 1_555
C8 S2 1_555 1_555
C9 S3 1_555 1_555
H4 C9 1_555 1_555
C10 C9 1_555 1_555
H5 C10 1_555 1_555
C11 C8 1_555 1_555
C12 C3 1_555 1_555
C13 C12 1_555 1_555
H6 C13 1_555 1_555
C14 C1 1_555 1_555
C15 O1 1_555 1_555
H7 C15 1_555 1_555
H8 C15 1_555 1_555
H9 C15 1_555 1_555
C16 O2 1_555 1_555
H10 C16 1_555 1_555
H11 C16 1_555 1_555
H12 C16 1_555 1_555
C4 C7 1_555 1_555
C10 C11 1_555 1_555
C11 C12 1_555 1_555
C13 C14 1_555 1_555

#END
