
#######################################################################
#
#                 Cambridge Crystallographic Data Centre
#                                CCDC 
#
#######################################################################
#
# If this CIF has been generated from an entry in the Cambridge 
# Structural Database, then it will include bibliographic, chemical, 
# crystal, experimental, refinement or atomic coordinate data resulting 
# from the CCDC's data processing and validation procedures.
#
#######################################################################

data_ALEJAD
_chemical_formula_moiety         'C14 H19 Br1 O3'
_chemical_name_systematic        
(R*)-3-bromo-5-((S*)-1-cyclohexyl-3-oxobutyl)-5H-furan-2-one
_symmetry_cell_setting           monoclinic
_symmetry_space_group_name_H-M   'P 21/n'
_symmetry_Int_Tables_number      14
_space_group_name_Hall           '-P 2yn'
loop_
_symmetry_equiv_pos_site_id
_symmetry_equiv_pos_as_xyz
1 x,y,z
2 1/2-x,1/2+y,1/2-z
3 -x,-y,-z
4 1/2+x,1/2-y,1/2+z
_cell_length_a                   6.2821(12)
_cell_length_b                   15.603(3)
_cell_length_c                   14.722(3)
_cell_angle_alpha                90
_cell_angle_beta                 101.736(2)
_cell_angle_gamma                90
_cell_volume                     1412.88
_exptl_crystal_colour            colorless
_exptl_crystal_description       block
_cell_formula_units_Z            4
loop_
_atom_site_label
_atom_site_type_symbol
_atom_site_fract_x
_atom_site_fract_y
_atom_site_fract_z
Br1 Br 0.86034(3) 0.894642(11) -0.291253(12)
O1 O 1.2036(2) 0.91892(9) -0.09333(9)
O2 O 0.4770(2) 0.64242(8) 0.02318(9)
O3 O 0.9431(2) 0.90158(7) -0.01049(9)
C1 C 0.8717(3) 0.85018(14) 0.28265(13)
H1 H 0.8521 0.7911 0.3040
H2 H 1.0132 0.8717 0.3174
C2 C 0.6900(3) 0.90683(13) 0.30350(14)
H3 H 0.6867 0.9029 0.3703
H4 H 0.7191 0.9672 0.2894
C3 C 0.7925(3) 0.56753(12) 0.00053(14)
H5 H 0.9056 0.5615 0.0568
H6 H 0.8605 0.5726 -0.0535
H7 H 0.6979 0.5170 -0.0066
C4 C 0.4708(3) 0.88003(12) 0.24650(13)
H8 H 0.3579 0.9208 0.2575
H9 H 0.4328 0.8225 0.2666
C5 C 0.4740(3) 0.87804(12) 0.14297(13)
H10 H 0.3316 0.8575 0.1080
H11 H 0.4970 0.9368 0.1216
C6 C 0.8746(3) 0.84861(13) 0.17884(12)
H12 H 0.9086 0.9066 0.1584
H13 H 0.9893 0.8089 0.1675
C7 C 0.6597(3) 0.64646(11) 0.00807(11)
C8 C 1.0151(3) 0.90693(10) -0.09109(13)
C9 C 0.7698(3) 0.73089(10) -0.00425(12)
H14 H 0.7898 0.7351 -0.0691
H15 H 0.9158 0.7314 0.0368
C10 C 0.8254(3) 0.89581(10) -0.16812(12)
C11 C 0.6468(3) 0.88712(10) -0.13380(12)
H16 H 0.5037 0.8802 -0.1693
C12 C 0.7071(3) 0.88996(10) -0.03035(12)
H17 H 0.6376 0.9411 -0.0076
C13 C 0.6536(3) 0.81953(10) 0.12278(11)
H18 H 0.6256 0.7615 0.1466
C14 C 0.6430(3) 0.80932(10) 0.01747(11)
H19 H 0.4871 0.7980 -0.0111
loop_
_geom_bond_atom_site_label_1
_geom_bond_atom_site_label_2
_geom_bond_site_symmetry_1
_geom_bond_site_symmetry_2
Br1 C10 1_555 1_555
O1 C8 1_555 1_555
O2 C7 1_555 1_555
O3 C8 1_555 1_555
C1 H1 1_555 1_555
H2 C1 1_555 1_555
C2 C1 1_555 1_555
H3 C2 1_555 1_555
H4 C2 1_555 1_555
C3 H5 1_555 1_555
H6 C3 1_555 1_555
H7 C3 1_555 1_555
C4 C2 1_555 1_555
H8 C4 1_555 1_555
H9 C4 1_555 1_555
C5 C4 1_555 1_555
H10 C5 1_555 1_555
H11 C5 1_555 1_555
C6 C1 1_555 1_555
H12 C6 1_555 1_555
H13 C6 1_555 1_555
C7 C3 1_555 1_555
C8 C10 1_555 1_555
C9 C7 1_555 1_555
H14 C9 1_555 1_555
H15 C9 1_555 1_555
C10 C11 1_555 1_555
C11 H16 1_555 1_555
C12 O3 1_555 1_555
H17 C12 1_555 1_555
C13 C5 1_555 1_555
H18 C13 1_555 1_555
C14 C9 1_555 1_555
H19 C14 1_555 1_555
C6 C13 1_555 1_555
C11 C12 1_555 1_555
C12 C14 1_555 1_555
C13 C14 1_555 1_555

#END
