
#######################################################################
#
#                 Cambridge Crystallographic Data Centre
#                                CCDC 
#
#######################################################################
#
# If this CIF has been generated from an entry in the Cambridge 
# Structural Database, then it will include bibliographic, chemical, 
# crystal, experimental, refinement or atomic coordinate data resulting 
# from the CCDC's data processing and validation procedures.
#
#######################################################################

data_ALEJOR
_chemical_formula_moiety         'C14 H13 Br1 O3'
_chemical_name_systematic        
(R*)-3-bromo-5-((S*)-3-oxo-1-phenylbutyl)furan-2(5H)-one
_symmetry_cell_setting           triclinic
_symmetry_space_group_name_H-M   'P -1'
_symmetry_Int_Tables_number      2
_space_group_name_Hall           '-P 1'
loop_
_symmetry_equiv_pos_site_id
_symmetry_equiv_pos_as_xyz
1 x,y,z
2 -x,-y,-z
_cell_length_a                   6.2196(16)
_cell_length_b                   10.038(3)
_cell_length_c                   10.899(3)
_cell_angle_alpha                73.247(2)
_cell_angle_beta                 85.069(3)
_cell_angle_gamma                89.251(3)
_cell_volume                     649.109
_exptl_crystal_colour            colorless
_exptl_crystal_description       column
_cell_formula_units_Z            2
loop_
_atom_site_label
_atom_site_type_symbol
_atom_site_fract_x
_atom_site_fract_y
_atom_site_fract_z
Br1 Br 0.29806(3) 0.16768(2) 0.134041(19)
O1 O -0.1445(3) -0.0212(2) 0.1687(2)
O2 O 0.3997(3) -0.56118(19) 0.15592(18)
O3 O 0.0454(3) -0.21611(18) 0.17638(17)
C1 C 0.0497(5) -0.2532(3) 0.5727(3)
H1 H -0.0904 -0.2582 0.6161
C2 C 0.2173(5) -0.1856(3) 0.6083(3)
H2 H 0.1921 -0.1438 0.6761
C3 C 0.7835(5) -0.5370(3) 0.1257(3)
H3 H 0.7842 -0.6256 0.1048
H4 H 0.8883 -0.5400 0.1886
H5 H 0.8224 -0.4612 0.0474
C4 C 0.4213(5) -0.1793(3) 0.5444(3)
H6 H 0.5362 -0.1345 0.5697
C5 C 0.0891(4) -0.3139(3) 0.4724(2)
H7 H -0.0250 -0.3611 0.4490
C6 C 0.4590(4) -0.2381(3) 0.4436(2)
H8 H 0.5990 -0.2319 0.3998
C7 C 0.5619(4) -0.5125(2) 0.1814(2)
C8 C 0.5505(4) -0.4211(3) 0.2713(2)
H9 H 0.6529 -0.3420 0.2357
H10 H 0.5967 -0.4759 0.3556
C9 C 0.0278(4) -0.0773(3) 0.1643(2)
C10 C 0.2927(4) -0.3063(2) 0.4062(2)
C11 C 0.3909(4) -0.1179(3) 0.1450(2)
H11 H 0.5433 -0.1057 0.1321
C12 C 0.3246(4) -0.3642(2) 0.2916(2)
H12 H 0.2192 -0.4429 0.3066
C13 C 0.2718(4) -0.2525(2) 0.1672(2)
H13 H 0.3040 -0.2893 0.0916
C14 C 0.2488(4) -0.0188(2) 0.1462(2)
loop_
_geom_bond_atom_site_label_1
_geom_bond_atom_site_label_2
_geom_bond_site_symmetry_1
_geom_bond_site_symmetry_2
Br1 C14 1_555 1_555
O1 C9 1_555 1_555
O2 C7 1_555 1_555
O3 C9 1_555 1_555
C1 H1 1_555 1_555
C2 C1 1_555 1_555
H2 C2 1_555 1_555
C3 H3 1_555 1_555
H4 C3 1_555 1_555
H5 C3 1_555 1_555
C4 C2 1_555 1_555
H6 C4 1_555 1_555
C5 C1 1_555 1_555
H7 C5 1_555 1_555
C6 C4 1_555 1_555
H8 C6 1_555 1_555
C7 C3 1_555 1_555
C8 C7 1_555 1_555
H9 C8 1_555 1_555
H10 C8 1_555 1_555
C9 C14 1_555 1_555
C10 C5 1_555 1_555
C11 H11 1_555 1_555
C12 C8 1_555 1_555
H12 C12 1_555 1_555
C13 O3 1_555 1_555
H13 C13 1_555 1_555
C14 C11 1_555 1_555
C6 C10 1_555 1_555
C10 C12 1_555 1_555
C11 C13 1_555 1_555
C12 C13 1_555 1_555

#END
