
#######################################################################
#
#                 Cambridge Crystallographic Data Centre
#                                CCDC 
#
#######################################################################
#
# If this CIF has been generated from an entry in the Cambridge 
# Structural Database, then it will include bibliographic, chemical, 
# crystal, experimental, refinement or atomic coordinate data resulting 
# from the CCDC's data processing and validation procedures.
#
#######################################################################

data_ALENUC
_chemical_formula_moiety         'C78 H66 N6 O16'
_chemical_name_systematic        
3,8,13-Tri-t-butyl-2,7,12-trinitro-15-(3,8,13-tri-t-butyl-2,7,12-trinitro-10,15-dioxo-10,15-dihydro-5H-di-indeno[1,2-a:1',2'-c]fluoren-5-ylidene)-5H-diindeno[1,2-a:1',2'-c]fluorene-5,10(15H)-dione
_symmetry_cell_setting           triclinic
_symmetry_space_group_name_H-M   'P -1'
_symmetry_Int_Tables_number      2
_space_group_name_Hall           '-P 1'
loop_
_symmetry_equiv_pos_site_id
_symmetry_equiv_pos_as_xyz
1 x,y,z
2 -x,-y,-z
_cell_length_a                   10.4203(5)
_cell_length_b                   17.8167(9)
_cell_length_c                   20.5187(11)
_cell_angle_alpha                66.236(4)
_cell_angle_beta                 83.916(4)
_cell_angle_gamma                77.287(4)
_cell_volume                     3400.31
_exptl_crystal_colour            red
_exptl_crystal_description       plate
_cell_formula_units_Z            2
loop_
_atom_site_label
_atom_site_type_symbol
_atom_site_fract_x
_atom_site_fract_y
_atom_site_fract_z
C1 C 0.5369(3) 0.5400(2) 0.26540(18)
C2 C 0.5731(3) 0.4537(2) 0.28865(18)
C3 C 0.5781(3) 0.6041(2) 0.20108(19)
C4 C 0.6297(3) 0.6041(2) 0.13510(18)
C5 C 0.6512(3) 0.5398(2) 0.10364(19)
C6 C 0.6085(3) 0.4646(2) 0.12523(19)
H1 H 0.5549 0.4473 0.1670
C7 C 0.6432(3) 0.4137(2) 0.08622(19)
C8 C 0.7172(3) 0.4465(2) 0.0237(2)
N1 N 0.7616(3) 0.3993(2) -0.0228(2)
O1 O 0.7101(3) 0.42941(18) -0.08156(16)
O2 O 0.8493(3) 0.33739(17) -0.00201(16)
C9 C 0.7559(3) 0.5218(2) -0.0010(2)
H2 H 0.8042 0.5410 -0.0445
C10 C 0.7219(3) 0.5691(2) 0.03985(19)
C11 C 0.7412(3) 0.6548(2) 0.0230(2)
O3 O 0.7964(2) 0.69799(16) -0.02896(14)
C12 C 0.6736(3) 0.6761(2) 0.08422(19)
C13 C 0.6555(3) 0.7493(2) 0.09545(18)
C14 C 0.6919(3) 0.8313(2) 0.05265(19)
C15 C 0.7630(3) 0.8599(2) -0.0101(2)
H3 H 0.7985 0.8224 -0.0327
C16 C 0.7850(3) 0.9425(2) -0.0419(2)
C17 C 0.7270(3) 0.9936(2) -0.0051(2)
N2 N 0.7313(3) 1.0835(2) -0.03333(19)
O4 O 0.6700(3) 1.12929(18) -0.0858(2)
O5 O 0.7906(5) 1.1075(2) -0.0016(2)
C18 C 0.6580(3) 0.9664(2) 0.0593(2)
H4 H 0.6237 1.0030 0.0828
C19 C 0.6408(3) 0.8843(2) 0.0880(2)
C20 C 0.5732(3) 0.8396(2) 0.1553(2)
O6 O 0.5241(2) 0.86865(15) 0.19902(14)
C21 C 0.5846(3) 0.7533(2) 0.15803(19)
C22 C 0.5455(3) 0.6839(2) 0.20868(18)
C23 C 0.4709(3) 0.6692(2) 0.27594(18)
C24 C 0.4068(3) 0.7250(2) 0.30672(19)
H5 H 0.4101 0.7826 0.2827
C25 C 0.3388(3) 0.6986(2) 0.37115(19)
C26 C 0.3489(3) 0.6122(2) 0.40611(19)
N3 N 0.2773(8) 0.5735(5) 0.4726(4)
O7 O 0.1577(5) 0.5764(4) 0.4690(3)
O8 O 0.3372(6) 0.5397(4) 0.5281(3)
C27 C 0.4115(3) 0.5544(2) 0.37834(19)
H6 H 0.4172 0.4961 0.4051
C28 C 0.4653(3) 0.5840(2) 0.31038(18)
C29 C 0.6026(3) 0.3275(2) 0.1156(2)
C30 C 0.5665(4) 0.3030(3) 0.0567(2)
H7 H 0.6408 0.3040 0.0230
H8 H 0.5465 0.2467 0.0782
H9 H 0.4893 0.3430 0.0315
C31 C 0.7187(4) 0.2611(2) 0.1575(2)
H10 H 0.7960 0.2614 0.1259
H11 H 0.7387 0.2738 0.1971
H12 H 0.6951 0.2058 0.1763
C32 C 0.4843(4) 0.3251(2) 0.1665(2)
H13 H 0.4090 0.3669 0.1410
H14 H 0.4621 0.2694 0.1852
H15 H 0.5057 0.3375 0.2060
C33 C 0.8686(4) 0.9676(2) -0.1110(2)
C34 C 0.9784(4) 0.8930(3) -0.1096(2)
H16 H 1.0378 0.8780 -0.0704
H17 H 0.9390 0.8451 -0.1026
H18 H 1.0280 0.9086 -0.1548
C35 C 0.7796(5) 0.9882(4) -0.1726(2)
H19 H 0.7357 0.9414 -0.1630
H20 H 0.7133 1.0387 -0.1779
H21 H 0.8325 0.9979 -0.2167
C36 C 0.9420(6) 1.0372(3) -0.1209(4)
H22 H 0.9972 1.0201 -0.0796
H23 H 0.9974 1.0477 -0.1641
H24 H 0.8782 1.0884 -0.1253
C37 C 0.2535(3) 0.7642(2) 0.39762(19)
C38 C 0.2441(7) 0.7335(4) 0.4798(3)
H25 H 0.3326 0.7183 0.4990
H26 H 0.1914 0.7782 0.4931
H27 H 0.2022 0.6845 0.4994
C39 C 0.3139(5) 0.8441(3) 0.3695(3)
H28 H 0.4025 0.8302 0.3883
H29 H 0.3189 0.8664 0.3173
H30 H 0.2585 0.8862 0.3850
C40 C 0.1169(5) 0.7879(4) 0.3676(4)
H31 H 0.1234 0.8072 0.3156
H32 H 0.0749 0.7390 0.3870
H33 H 0.0642 0.8327 0.3807
C41 C 0.5044(3) 0.3883(2) 0.33806(18)
C42 C 0.3739(3) 0.3889(2) 0.36241(18)
C43 C 0.2497(3) 0.4544(2) 0.34236(19)
C44 C 0.2197(3) 0.5305(2) 0.28417(19)
H34 H 0.2857 0.5484 0.2489
C45 C 0.0926(3) 0.5813(2) 0.27683(19)
C46 C 0.0026(3) 0.5488(2) 0.33222(19)
N4 N -0.1321(3) 0.5960(2) 0.33484(18)
O9 O -0.2168(2) 0.59006(16) 0.30081(15)
O10 O -0.1563(3) 0.63361(19) 0.37529(17)
C47 C 0.0279(3) 0.4726(2) 0.38810(19)
H35 H -0.0380 0.4535 0.4230
C48 C 0.1520(3) 0.4248(2) 0.39179(19)
C49 C 0.2004(3) 0.3384(2) 0.4420(2)
O11 O 0.1385(2) 0.29416(15) 0.48978(14)
C50 C 0.3413(3) 0.3172(2) 0.41900(18)
C51 C 0.4317(3) 0.2428(2) 0.44445(18)
C52 C 0.4282(3) 0.1630(2) 0.50584(19)
C53 C 0.3412(3) 0.1406(2) 0.5632(2)
H36 H 0.2602 0.1779 0.5625
C54 C 0.3692(3) 0.0644(2) 0.62218(19)
C55 C 0.4856(3) 0.0100(2) 0.61680(19)
N5 N 0.5274(3) -0.0722(2) 0.67364(17)
O12 O 0.4787(3) -0.13026(17) 0.67705(15)
O13 O 0.6139(3) -0.07943(16) 0.71362(15)
C56 C 0.5746(3) 0.0303(2) 0.55966(19)
H37 H 0.6532 -0.0082 0.5587
C57 C 0.5460(3) 0.1073(2) 0.50466(19)
C58 C 0.6315(3) 0.1489(2) 0.44503(19)
O14 O 0.7405(2) 0.11739(15) 0.42993(13)
C59 C 0.5576(3) 0.2375(2) 0.40986(19)
C60 C 0.5939(3) 0.3086(2) 0.35948(19)
C61 C 0.7183(3) 0.3234(2) 0.32014(18)
C62 C 0.8377(3) 0.2682(2) 0.32129(19)
H38 H 0.8442 0.2104 0.3505
C63 C 0.9472(3) 0.2955(2) 0.28089(18)
C64 C 0.9297(3) 0.3822(2) 0.24037(18)
N6 N 1.0347(3) 0.42206(18) 0.19464(19)
O15 O 1.0119(2) 0.46052(16) 0.13093(15)
O16 O 1.1358(2) 0.41911(15) 0.22202(14)
C65 C 0.8133(3) 0.4383(2) 0.23793(18)
H39 H 0.8079 0.4964 0.2102
C66 C 0.7050(3) 0.4090(2) 0.27626(18)
C67 C 0.0596(3) 0.6621(2) 0.21077(19)
C68 C 0.1818(3) 0.6966(2) 0.1744(2)
H40 H 0.1558 0.7482 0.1325
H41 H 0.2267 0.7084 0.2077
H42 H 0.2413 0.6552 0.1595
C69 C -0.0098(4) 0.6424(2) 0.1581(2)
H43 H -0.0884 0.6203 0.1813
H44 H -0.0354 0.6936 0.1159
H45 H 0.0506 0.6008 0.1439
C70 C -0.0352(4) 0.7343(2) 0.2257(2)
H46 H -0.1158 0.7152 0.2493
H47 H 0.0077 0.7508 0.2567
H48 H -0.0574 0.7823 0.1807
C71 C 0.2725(3) 0.0465(2) 0.6863(2)
C72 C 0.2079(4) 0.1277(2) 0.6947(2)
H49 H 0.2754 0.1523 0.7043
H50 H 0.1628 0.1670 0.6507
H51 H 0.1440 0.1161 0.7344
C73 C 0.1686(4) 0.0082(3) 0.6715(2)
H52 H 0.2105 -0.0440 0.6662
H53 H 0.1047 -0.0035 0.7112
H54 H 0.1235 0.0473 0.6275
C74 C 0.3372(4) -0.0108(3) 0.7590(2)
H55 H 0.4040 0.0149 0.7678
H56 H 0.2698 -0.0181 0.7970
H57 H 0.3785 -0.0654 0.7581
C75 C 1.0733(3) 0.2311(2) 0.2811(2)
C76 C 1.1361(3) 0.2508(2) 0.2059(2)
H58 H 1.1561 0.3071 0.1872
H59 H 1.2174 0.2099 0.2085
H60 H 1.0745 0.2481 0.1744
C77 C 1.1708(3) 0.2312(2) 0.3326(2)
H61 H 1.1918 0.2870 0.3162
H62 H 1.1310 0.2163 0.3805
H63 H 1.2517 0.1904 0.3337
C78 C 1.0434(3) 0.1428(2) 0.3086(2)
H64 H 1.1246 0.1028 0.3083
H65 H 1.0074 0.1278 0.3573
H66 H 0.9791 0.1414 0.2778
N7? N 0.315(2) 0.5706(14) 0.4877(11)
O17? O 0.2407(11) 0.5223(7) 0.4992(6)
O18? O 0.3630(11) 0.5908(8) 0.5279(6)
C79? C 0.1936(17) 0.8413(9) 0.3311(7)
H67? H 0.1420 0.8235 0.3047
H68? H 0.1364 0.8830 0.3466
H69? H 0.2646 0.8660 0.3004
C80? C 0.1321(12) 0.7318(8) 0.4435(9)
H70? H 0.0802 0.7157 0.4159
H71? H 0.1627 0.6833 0.4869
H72? H 0.0775 0.7763 0.4564
C81? C 0.3326(15) 0.7888(12) 0.4392(10)
H73? H 0.2764 0.8302 0.4552
H74? H 0.3690 0.7394 0.4806
H75? H 0.4047 0.8130 0.4091
loop_
_geom_bond_atom_site_label_1
_geom_bond_atom_site_label_2
_geom_bond_site_symmetry_1
_geom_bond_site_symmetry_2
C1 C2 1_555 1_555
C2 C41 1_555 1_555
C3 C1 1_555 1_555
C4 C3 1_555 1_555
C5 C4 1_555 1_555
C6 C5 1_555 1_555
H1 C6 1_555 1_555
C7 C6 1_555 1_555
C8 C7 1_555 1_555
N1 C8 1_555 1_555
O1 N1 1_555 1_555
O2 N1 1_555 1_555
C9 C8 1_555 1_555
H2 C9 1_555 1_555
C10 C5 1_555 1_555
C11 C10 1_555 1_555
O3 C11 1_555 1_555
C12 C4 1_555 1_555
C13 C12 1_555 1_555
C14 C13 1_555 1_555
C15 C14 1_555 1_555
H3 C15 1_555 1_555
C16 C15 1_555 1_555
C17 C16 1_555 1_555
N2 C17 1_555 1_555
O4 N2 1_555 1_555
O5 N2 1_555 1_555
C18 C17 1_555 1_555
H4 C18 1_555 1_555
C19 C14 1_555 1_555
C20 C19 1_555 1_555
O6 C20 1_555 1_555
C21 C13 1_555 1_555
C22 C3 1_555 1_555
C23 C22 1_555 1_555
C24 C23 1_555 1_555
H5 C24 1_555 1_555
C25 C24 1_555 1_555
C26 C25 1_555 1_555
N3 C26 1_555 1_555
O7 N3 1_555 1_555
O8 N3 1_555 1_555
C27 C26 1_555 1_555
H6 C27 1_555 1_555
C28 C1 1_555 1_555
C29 C7 1_555 1_555
C30 C29 1_555 1_555
H7 C30 1_555 1_555
H8 C30 1_555 1_555
H9 C30 1_555 1_555
C31 C29 1_555 1_555
H10 C31 1_555 1_555
H11 C31 1_555 1_555
H12 C31 1_555 1_555
C32 C29 1_555 1_555
H13 C32 1_555 1_555
H14 C32 1_555 1_555
H15 C32 1_555 1_555
C33 C16 1_555 1_555
C34 C33 1_555 1_555
H16 C34 1_555 1_555
H17 C34 1_555 1_555
H18 C34 1_555 1_555
C35 C33 1_555 1_555
H19 C35 1_555 1_555
H20 C35 1_555 1_555
H21 C35 1_555 1_555
C36 C33 1_555 1_555
H22 C36 1_555 1_555
H23 C36 1_555 1_555
H24 C36 1_555 1_555
C37 C25 1_555 1_555
C38 C37 1_555 1_555
H25 C38 1_555 1_555
H26 C38 1_555 1_555
H27 C38 1_555 1_555
C39 C37 1_555 1_555
H28 C39 1_555 1_555
H29 C39 1_555 1_555
H30 C39 1_555 1_555
C40 C37 1_555 1_555
H31 C40 1_555 1_555
H32 C40 1_555 1_555
H33 C40 1_555 1_555
C41 C42 1_555 1_555
C42 C43 1_555 1_555
C43 C44 1_555 1_555
C44 H34 1_555 1_555
C45 C44 1_555 1_555
C46 C45 1_555 1_555
N4 C46 1_555 1_555
O9 N4 1_555 1_555
O10 N4 1_555 1_555
C47 C46 1_555 1_555
H35 C47 1_555 1_555
C48 C43 1_555 1_555
C49 C48 1_555 1_555
O11 C49 1_555 1_555
C50 C42 1_555 1_555
C51 C50 1_555 1_555
C52 C51 1_555 1_555
C53 C52 1_555 1_555
H36 C53 1_555 1_555
C54 C53 1_555 1_555
C55 C54 1_555 1_555
N5 C55 1_555 1_555
O12 N5 1_555 1_555
O13 N5 1_555 1_555
C56 C55 1_555 1_555
H37 C56 1_555 1_555
C57 C52 1_555 1_555
C58 C57 1_555 1_555
O14 C58 1_555 1_555
C59 C51 1_555 1_555
C60 C41 1_555 1_555
C61 C60 1_555 1_555
C62 C61 1_555 1_555
H38 C62 1_555 1_555
C63 C62 1_555 1_555
C64 C63 1_555 1_555
N6 C64 1_555 1_555
O15 N6 1_555 1_555
O16 N6 1_555 1_555
C65 C64 1_555 1_555
H39 C65 1_555 1_555
C66 C2 1_555 1_555
C67 C45 1_555 1_555
C68 C67 1_555 1_555
H40 C68 1_555 1_555
H41 C68 1_555 1_555
H42 C68 1_555 1_555
C69 C67 1_555 1_555
H43 C69 1_555 1_555
H44 C69 1_555 1_555
H45 C69 1_555 1_555
C70 C67 1_555 1_555
H46 C70 1_555 1_555
H47 C70 1_555 1_555
H48 C70 1_555 1_555
C71 C54 1_555 1_555
C72 C71 1_555 1_555
H49 C72 1_555 1_555
H50 C72 1_555 1_555
H51 C72 1_555 1_555
C73 C71 1_555 1_555
H52 C73 1_555 1_555
H53 C73 1_555 1_555
H54 C73 1_555 1_555
C74 C71 1_555 1_555
H55 C74 1_555 1_555
H56 C74 1_555 1_555
H57 C74 1_555 1_555
C75 C63 1_555 1_555
C76 C75 1_555 1_555
H58 C76 1_555 1_555
H59 C76 1_555 1_555
H60 C76 1_555 1_555
C77 C75 1_555 1_555
H61 C77 1_555 1_555
H62 C77 1_555 1_555
H63 C77 1_555 1_555
C78 C75 1_555 1_555
H64 C78 1_555 1_555
H65 C78 1_555 1_555
H66 C78 1_555 1_555
C9 C10 1_555 1_555
C11 C12 1_555 1_555
C18 C19 1_555 1_555
C20 C21 1_555 1_555
C21 C22 1_555 1_555
C23 C28 1_555 1_555
C27 C28 1_555 1_555
C47 C48 1_555 1_555
C49 C50 1_555 1_555
C56 C57 1_555 1_555
C58 C59 1_555 1_555
C59 C60 1_555 1_555
C61 C66 1_555 1_555
C65 C66 1_555 1_555

#END
