
#######################################################################
#
#                 Cambridge Crystallographic Data Centre
#                                CCDC 
#
#######################################################################
#
# If this CIF has been generated from an entry in the Cambridge 
# Structural Database, then it will include bibliographic, chemical, 
# crystal, experimental, refinement or atomic coordinate data resulting 
# from the CCDC's data processing and validation procedures.
#
#######################################################################

data_ALEROZ
_chemical_formula_moiety         'C14 H8 B1 O6 1-,C4 H12 N1 1+'
_chemical_name_systematic        'Butan-1-aminium bis(2-oxybenzoato)borate'
_symmetry_cell_setting           monoclinic
_symmetry_space_group_name_H-M   'P 21/n'
_symmetry_Int_Tables_number      14
_space_group_name_Hall           '-P 2yn'
loop_
_symmetry_equiv_pos_site_id
_symmetry_equiv_pos_as_xyz
1 x,y,z
2 1/2-x,1/2+y,1/2-z
3 -x,-y,-z
4 1/2+x,1/2-y,1/2+z
_cell_length_a                   7.7766(4)
_cell_length_b                   20.0721(11)
_cell_length_c                   11.1130(7)
_cell_angle_alpha                90
_cell_angle_beta                 101.294(2)
_cell_angle_gamma                90
_cell_volume                     1701.07
_cell_formula_units_Z            4
loop_
_atom_site_label
_atom_site_type_symbol
_atom_site_fract_x
_atom_site_fract_y
_atom_site_fract_z
O1 O 0.92053(11) 0.93615(5) 0.69611(8)
O2 O 0.77986(12) 0.84707(4) 0.78312(9)
O3 O 1.08618(11) 0.93325(5) 0.55662(9)
O4 O 0.60341(12) 0.91959(5) 0.64209(9)
O5 O 0.73070(12) 0.96228(5) 0.83373(9)
O6 O 0.79707(13) 0.99786(5) 1.02477(9)
C1 C 0.94000(16) 0.92885(6) 0.58141(12)
C2 C 0.61721(17) 0.91573(6) 0.52338(12)
C3 C 0.78024(16) 0.91701(6) 0.48872(12)
C4 C 0.47708(19) 0.90588(7) 0.31234(14)
H4 H 0.3753 0.9031 0.2526
C5 C 0.80870(17) 0.95421(7) 0.95027(13)
C6 C 0.89731(16) 0.89024(7) 0.98280(12)
C8 C 0.99364(17) 0.87932(7) 1.10090(13)
H7 H 1.0116 0.9142 1.1571
C9 C 0.94244(18) 0.77529(7) 0.93312(14)
H8 H 0.9261 0.7402 0.8774
C10 C 0.46453(18) 0.91112(7) 0.43371(14)
H9 H 0.3552 0.9116 0.4558
C11 C 0.87335(17) 0.83807(7) 0.89780(13)
C12 C 0.78986(19) 0.91074(7) 0.36555(14)
H10 H 0.8987 0.9106 0.3427
C13 C 0.63956(19) 0.90471(7) 0.27711(14)
H11 H 0.6464 0.8999 0.1949
C15 C 1.03488(19) 0.76551(7) 1.05073(15)
H14 H 1.0797 0.7235 1.0741
C16 C 1.06229(18) 0.81730(8) 1.13486(14)
H15 H 1.1265 0.8102 1.2136
B1 B 0.7586(2) 0.91536(8) 0.73753(15)
N1 N 0.31871(14) 0.93571(5) 0.78268(11)
H1 H 0.4267 0.9509 0.7844
H2 H 0.2739 0.9557 0.8411
H3 H 0.2518 0.9444 0.7098
C7 C 0.41457(17) 0.84459(6) 0.93325(13)
H5 H 0.3406 0.8578 0.9900
H6 H 0.5241 0.8689 0.9545
C14 C 0.32497(18) 0.86237(7) 0.80410(13)
H12 H 0.3871 0.8414 0.7465
H13 H 0.2063 0.8449 0.7888
C17 C 0.45127(19) 0.77032(7) 0.94593(14)
H16 H 0.3416 0.7463 0.9229
H17 H 0.5260 0.7576 0.8894
C18 C 0.5387(2) 0.74999(8) 1.07449(16)
H18 H 0.4611 0.7588 1.1300
H19 H 0.6451 0.7749 1.0993
H20 H 0.5655 0.7033 1.0758
loop_
_geom_bond_atom_site_label_1
_geom_bond_atom_site_label_2
_geom_bond_site_symmetry_1
_geom_bond_site_symmetry_2
O1 C1 1_555 1_555
O2 C11 1_555 1_555
O3 C1 1_555 1_555
O4 C2 1_555 1_555
O5 C5 1_555 1_555
O6 C5 1_555 1_555
N1 H1 1_555 1_555
H2 N1 1_555 1_555
H3 N1 1_555 1_555
C1 C3 1_555 1_555
C2 C3 1_555 1_555
C3 C12 1_555 1_555
C4 H4 1_555 1_555
C5 C6 1_555 1_555
C6 C8 1_555 1_555
C7 H5 1_555 1_555
H6 C7 1_555 1_555
C8 H7 1_555 1_555
C9 H8 1_555 1_555
C10 C2 1_555 1_555
H9 C10 1_555 1_555
C11 C6 1_555 1_555
C12 H10 1_555 1_555
C13 C4 1_555 1_555
H11 C13 1_555 1_555
C14 N1 1_555 1_555
H12 C14 1_555 1_555
H13 C14 1_555 1_555
C15 C9 1_555 1_555
H14 C15 1_555 1_555
C16 C8 1_555 1_555
H15 C16 1_555 1_555
B1 O1 1_555 1_555
C17 C7 1_555 1_555
H16 C17 1_555 1_555
H17 C17 1_555 1_555
C18 C17 1_555 1_555
H18 C18 1_555 1_555
H19 C18 1_555 1_555
H20 C18 1_555 1_555
O2 B1 1_555 1_555
O4 B1 1_555 1_555
O5 B1 1_555 1_555
C4 C10 1_555 1_555
C7 C14 1_555 1_555
C9 C11 1_555 1_555
C12 C13 1_555 1_555
C15 C16 1_555 1_555

#END
