
#######################################################################
#
#                 Cambridge Crystallographic Data Centre
#                                CCDC 
#
#######################################################################
#
# If this CIF has been generated from an entry in the Cambridge 
# Structural Database, then it will include bibliographic, chemical, 
# crystal, experimental, refinement or atomic coordinate data resulting 
# from the CCDC's data processing and validation procedures.
#
#######################################################################

data_ALESEP
_chemical_formula_moiety         'C29 H22 F6 O2 S2'
_chemical_name_systematic        
1-(4-Methyl-5-(p-methoxyphenyl)-2-thienyl)-2-(2-methyl-5-(p-methoxyphenyl)-3-thienyl)perfluorocyclopentene
_symmetry_cell_setting           monoclinic
_symmetry_space_group_name_H-M   'P 21/n'
_symmetry_Int_Tables_number      14
_space_group_name_Hall           '-P 2yn'
loop_
_symmetry_equiv_pos_site_id
_symmetry_equiv_pos_as_xyz
1 x,y,z
2 1/2+x,1/2-y,1/2+z
3 -x,-y,-z
4 1/2-x,1/2+y,1/2-z
_cell_length_a                   17.983(8)
_cell_length_b                   12.475(2)
_cell_length_c                   24.095(4)
_cell_angle_alpha                90
_cell_angle_beta                 91.676(19)
_cell_angle_gamma                90
_cell_volume                     5403.11
_exptl_crystal_colour            yellow
_exptl_crystal_description       prism
_chemical_melting_point          103-104deg.C
_cell_formula_units_Z            8
_chemical_properties_physical    light-sensitive
_exptl_crystal_recrystallization_method hexane
_exptl_crystal_preparation       photochromic
loop_
_atom_site_label
_atom_site_type_symbol
_atom_site_fract_x
_atom_site_fract_y
_atom_site_fract_z
S1 S 0.78784(5) 0.43963(9) 0.10176(4)
S2 S 0.57194(6) 0.58263(10) 0.05832(5)
F1 F 0.88916(14) 0.6537(3) 0.24360(11)
F2 F 0.81606(19) 0.5463(2) 0.28524(10)
F3 F 0.7427(2) 0.7052(4) 0.31121(13)
F4 F 0.8083(2) 0.8051(3) 0.2646(2)
F5 F 0.64261(18) 0.7071(3) 0.24144(15)
F6 F 0.7049(3) 0.8197(3) 0.19587(14)
O1 O 0.85701(19) 0.0425(3) -0.07272(14)
O2 O 0.6085(2) 0.8828(4) -0.17185(16)
C1 C 0.7866(2) 0.5829(3) 0.19110(15)
C2 C 0.7260(2) 0.6392(3) 0.17637(16)
C3 C 0.7095(3) 0.7245(4) 0.2175(2)
C4 C 0.7695(3) 0.7166(4) 0.2616(2)
C5 C 0.8178(2) 0.6224(4) 0.24590(17)
C6 C 0.8224(2) 0.4957(3) 0.16310(15)
C7 C 0.8879(2) 0.4461(3) 0.17854(17)
H1 H 0.9152 0.4649 0.2105
C8 C 0.9108(2) 0.3647(3) 0.14242(17)
C9 C 0.8612(2) 0.3506(3) 0.09869(16)
C10 C 0.8618(2) 0.2717(3) 0.05321(16)
C11 C 0.9263(2) 0.2459(3) 0.02680(17)
H2 H 0.9703 0.2801 0.0377
C12 C 0.9277(2) 0.1708(4) -0.01534(18)
H3 H 0.9721 0.1550 -0.0324
C13 C 0.8631(3) 0.1196(4) -0.03191(19)
C14 C 0.7979(3) 0.1451(4) -0.0065(2)
H4 H 0.7537 0.1119 -0.0178
C15 C 0.7979(2) 0.2194(4) 0.0355(2)
H5 H 0.7534 0.2349 0.0525
C16 C 0.9234(3) 0.0109(5) -0.0995(2)
H6 H 0.9115 -0.0418 -0.1274
H7 H 0.9579 -0.0190 -0.0726
H8 H 0.9454 0.0723 -0.1166
C17 C 0.9795(2) 0.2984(4) 0.15438(18)
H9 H 0.9859 0.2479 0.1248
H10 H 0.9742 0.2605 0.1887
H11 H 1.0222 0.3445 0.1572
C18 C 0.6157(2) 0.5673(3) 0.12190(18)
C19 C 0.6775(2) 0.6293(3) 0.12550(17)
C20 C 0.6895(2) 0.6892(3) 0.07614(17)
H12 H 0.7296 0.7356 0.0723
C21 C 0.6378(2) 0.6725(3) 0.03571(17)
C22 C 0.6307(2) 0.7214(4) -0.02019(18)
C23 C 0.6660(3) 0.8189(4) -0.0313(2)
H13 H 0.6950 0.8515 -0.0035
C24 C 0.6588(3) 0.8674(5) -0.0825(2)
H14 H 0.6837 0.9312 -0.0893
C25 C 0.6157(3) 0.8225(6) -0.1230(2)
C26 C 0.5829(3) 0.7259(6) -0.1153(2)
H15 H 0.5557 0.6935 -0.1442
C27 C 0.5902(3) 0.6752(5) -0.0634(2)
H16 H 0.5673 0.6093 -0.0580
C28 C 0.5535(3) 0.8504(7) -0.2107(2)
H17 H 0.5534 0.8978 -0.2421
H18 H 0.5058 0.8526 -0.1939
H19 H 0.5637 0.7786 -0.2227
C29 C 0.5843(3) 0.4948(4) 0.1650(2)
H20 H 0.6159 0.4962 0.1979
H21 H 0.5815 0.4229 0.1509
H22 H 0.5354 0.5188 0.1740
S3 S 0.59424(6) 0.01083(9) 0.54157(4)
S4 S 0.80826(6) -0.09016(9) 0.59557(5)
F7 F 0.62622(18) 0.1059(3) 0.74094(13)
F8 F 0.6726(2) 0.2408(3) 0.70429(13)
F9 F 0.7878(2) 0.2330(3) 0.7659(2)
F10 F 0.7228(2) 0.1341(4) 0.81666(14)
F11 F 0.87294(15) 0.0786(2) 0.75927(12)
F12 F 0.79156(19) -0.0326(3) 0.78829(11)
O3 O 0.5936(2) 0.3972(3) 0.34864(14)
O4 O 0.9163(2) -0.4067(4) 0.39583(15)
C30 C 0.7192(2) 0.0729(3) 0.67673(16)
C31 C 0.7803(2) 0.0194(3) 0.69386(16)
C32 C 0.8011(3) 0.0490(4) 0.7527(2)
C33 C 0.7491(3) 0.1402(5) 0.7675(2)
C34 C 0.6920(3) 0.1451(4) 0.7208(2)
C35 C 0.6345(2) -0.0151(3) 0.60562(16)
C36 C 0.6782(2) 0.0683(3) 0.62256(16)
C37 C 0.6786(2) 0.1535(3) 0.58346(16)
H23 H 0.7057 0.2161 0.5891
C38 C 0.6361(2) 0.1355(3) 0.53740(16)
C39 C 0.6233(2) 0.2041(3) 0.48879(17)
C40 C 0.6418(2) 0.3124(4) 0.49134(19)
H24 H 0.6601 0.3408 0.5247
C41 C 0.6338(3) 0.3790(4) 0.4458(2)
H25 H 0.6477 0.4507 0.4484
C42 C 0.6053(3) 0.3389(4) 0.3965(2)
C43 C 0.5852(2) 0.2325(4) 0.39270(18)
H26 H 0.5656 0.2053 0.3595
C44 C 0.5944(2) 0.1665(4) 0.43832(17)
H27 H 0.5807 0.0948 0.4352
C45 C 0.6245(4) 0.5017(5) 0.3479(3)
H28 H 0.6138 0.5343 0.3125
H29 H 0.6774 0.4973 0.3540
H30 H 0.6032 0.5441 0.3766
C46 C 0.6190(3) -0.1184(4) 0.63465(18)
H31 H 0.6461 -0.1203 0.6696
H32 H 0.6342 -0.1773 0.6120
H33 H 0.5667 -0.1239 0.6410
C47 C 0.8244(2) -0.0591(3) 0.66484(16)
C48 C 0.8817(2) -0.1195(3) 0.68602(17)
H34 H 0.8988 -0.1137 0.7227
C49 C 0.9129(2) -0.1908(3) 0.64833(18)
C50 C 0.8793(2) -0.1840(3) 0.59667(17)
C51 C 0.8926(2) -0.2440(4) 0.54538(18)
C52 C 0.9049(2) -0.3533(4) 0.5459(2)
H35 H 0.9070 -0.3894 0.5797
C53 C 0.9140(2) -0.4108(4) 0.4970(2)
H36 H 0.9226 -0.4842 0.4983
C54 C 0.9102(3) -0.3585(5) 0.4470(2)
C55 C 0.8986(3) -0.2493(5) 0.4454(2)
H37 H 0.8965 -0.2135 0.4115
C56 C 0.8901(2) -0.1932(4) 0.4942(2)
H38 H 0.8824 -0.1195 0.4927
C57 C 0.9145(4) -0.5180(6) 0.3950(3)
H39 H 0.9207 -0.5429 0.3577
H40 H 0.8675 -0.5425 0.4081
H41 H 0.9539 -0.5456 0.4186
C58 C 0.9765(2) -0.2648(4) 0.66367(18)
H42 H 0.9894 -0.3064 0.6318
H43 H 0.9620 -0.3119 0.6929
H44 H 1.0188 -0.2233 0.6760
loop_
_geom_bond_atom_site_label_1
_geom_bond_atom_site_label_2
_geom_bond_site_symmetry_1
_geom_bond_site_symmetry_2
S1 C6 1_555 1_555
S2 C18 1_555 1_555
S3 C35 1_555 1_555
S4 C47 1_555 1_555
F1 C5 1_555 1_555
F2 C5 1_555 1_555
F3 C4 1_555 1_555
F4 C4 1_555 1_555
F5 C3 1_555 1_555
F6 C3 1_555 1_555
F7 C34 1_555 1_555
F8 C34 1_555 1_555
F9 C33 1_555 1_555
F10 C33 1_555 1_555
F11 C32 1_555 1_555
F12 C32 1_555 1_555
O1 C13 1_555 1_555
O2 C25 1_555 1_555
O3 C42 1_555 1_555
O4 C54 1_555 1_555
C1 C2 1_555 1_555
C2 C3 1_555 1_555
C3 C4 1_555 1_555
C4 C5 1_555 1_555
C5 C1 1_555 1_555
C6 C1 1_555 1_555
C7 C6 1_555 1_555
H1 C7 1_555 1_555
C8 C7 1_555 1_555
C9 S1 1_555 1_555
C10 C9 1_555 1_555
C11 C10 1_555 1_555
H2 C11 1_555 1_555
C12 C11 1_555 1_555
H3 C12 1_555 1_555
C13 C12 1_555 1_555
C14 C13 1_555 1_555
H4 C14 1_555 1_555
C15 C10 1_555 1_555
H5 C15 1_555 1_555
C16 O1 1_555 1_555
H6 C16 1_555 1_555
H7 C16 1_555 1_555
H8 C16 1_555 1_555
C17 C8 1_555 1_555
H9 C17 1_555 1_555
H10 C17 1_555 1_555
H11 C17 1_555 1_555
C18 C19 1_555 1_555
C19 C2 1_555 1_555
C20 C19 1_555 1_555
H12 C20 1_555 1_555
C21 S2 1_555 1_555
C22 C21 1_555 1_555
C23 C22 1_555 1_555
H13 C23 1_555 1_555
C24 C23 1_555 1_555
H14 C24 1_555 1_555
C25 C24 1_555 1_555
C26 C25 1_555 1_555
H15 C26 1_555 1_555
C27 C22 1_555 1_555
H16 C27 1_555 1_555
C28 O2 1_555 1_555
H17 C28 1_555 1_555
H18 C28 1_555 1_555
H19 C28 1_555 1_555
C29 C18 1_555 1_555
H20 C29 1_555 1_555
H21 C29 1_555 1_555
H22 C29 1_555 1_555
C30 C31 1_555 1_555
C31 C32 1_555 1_555
C32 C33 1_555 1_555
C33 C34 1_555 1_555
C34 C30 1_555 1_555
C35 C36 1_555 1_555
C36 C30 1_555 1_555
C37 C36 1_555 1_555
H23 C37 1_555 1_555
C38 S3 1_555 1_555
C39 C38 1_555 1_555
C40 C39 1_555 1_555
H24 C40 1_555 1_555
C41 C40 1_555 1_555
H25 C41 1_555 1_555
C42 C41 1_555 1_555
C43 C42 1_555 1_555
H26 C43 1_555 1_555
C44 C39 1_555 1_555
H27 C44 1_555 1_555
C45 O3 1_555 1_555
H28 C45 1_555 1_555
H29 C45 1_555 1_555
H30 C45 1_555 1_555
C46 C35 1_555 1_555
H31 C46 1_555 1_555
H32 C46 1_555 1_555
H33 C46 1_555 1_555
C47 C31 1_555 1_555
C48 C47 1_555 1_555
H34 C48 1_555 1_555
C49 C48 1_555 1_555
C50 S4 1_555 1_555
C51 C50 1_555 1_555
C52 C51 1_555 1_555
H35 C52 1_555 1_555
C53 C52 1_555 1_555
H36 C53 1_555 1_555
C54 C53 1_555 1_555
C55 C54 1_555 1_555
H37 C55 1_555 1_555
C56 C51 1_555 1_555
H38 C56 1_555 1_555
C57 O4 1_555 1_555
H39 C57 1_555 1_555
H40 C57 1_555 1_555
H41 C57 1_555 1_555
C58 C49 1_555 1_555
H42 C58 1_555 1_555
H43 C58 1_555 1_555
H44 C58 1_555 1_555
C8 C9 1_555 1_555
C14 C15 1_555 1_555
C20 C21 1_555 1_555
C26 C27 1_555 1_555
C37 C38 1_555 1_555
C43 C44 1_555 1_555
C49 C50 1_555 1_555
C55 C56 1_555 1_555

#END
