
#######################################################################
#
#                 Cambridge Crystallographic Data Centre
#                                CCDC 
#
#######################################################################
#
# If this CIF has been generated from an entry in the Cambridge 
# Structural Database, then it will include bibliographic, chemical, 
# crystal, experimental, refinement or atomic coordinate data resulting 
# from the CCDC's data processing and validation procedures.
#
#######################################################################

data_ALESOZ
_chemical_formula_moiety         'C20 H14 F6 S2'
_chemical_name_systematic        
1-(2,5-Dimethylthien-3-yl)-2-(3-methylbenzo(b)thien-2-yl)perfluorocyclopentene
_symmetry_cell_setting           monoclinic
_symmetry_space_group_name_H-M   'P 21/c'
_symmetry_Int_Tables_number      14
_space_group_name_Hall           '-P 2ybc'
loop_
_symmetry_equiv_pos_site_id
_symmetry_equiv_pos_as_xyz
1 x,y,z
2 x,1/2-y,1/2+z
3 -x,-y,-z
4 -x,1/2+y,1/2-z
_cell_length_a                   19.168(6)
_cell_length_b                   9.0086(17)
_cell_length_c                   11.495(4)
_cell_angle_alpha                90.00
_cell_angle_beta                 106.10(3)
_cell_angle_gamma                90.00
_cell_volume                     1907.07
_chemical_melting_point          347K
_cell_formula_units_Z            4
_chemical_properties_physical    light-sensitive
_exptl_crystal_recrystallization_method hexane
_exptl_crystal_preparation       photochromic
loop_
_atom_site_label
_atom_site_type_symbol
_atom_site_fract_x
_atom_site_fract_y
_atom_site_fract_z
S1 S 0.12434(6) 0.48601(14) 0.98958(11)
S2 S 0.42569(7) 0.71796(15) 0.95589(12)
F1 F 0.3274(2) 0.1789(4) 0.7665(4)
F2 F 0.39055(19) 0.1750(4) 0.9481(5)
F3 F 0.2933(2) 0.0578(5) 1.0214(4)
F4 F 0.2546(2) -0.0135(4) 0.8402(5)
F5 F 0.1726(2) 0.1754(4) 0.9865(4)
F6 F 0.1509(2) 0.1743(4) 0.7929(4)
C1 C 0.2298(2) 0.3600(5) 0.8981(4)
C2 C 0.2997(2) 0.3606(5) 0.8950(4)
C3 C 0.3242(3) 0.2049(6) 0.8828(5)
C4 C 0.2668(3) 0.1056(5) 0.9051(5)
C5 C 0.2026(3) 0.2043(5) 0.8982(5)
C6 C 0.1799(2) 0.4845(5) 0.8922(4)
C7 C 0.1686(2) 0.6035(5) 0.8160(4)
C8 C 0.1139(2) 0.7013(5) 0.8366(4)
C9 C 0.0838(2) 0.6502(5) 0.9268(4)
C10 C 0.0279(2) 0.7257(6) 0.9560(4)
H1 H 0.0082 0.6898 1.0158
C11 C 0.0022(3) 0.8534(6) 0.8956(5)
H2 H -0.0360 0.9040 0.9130
C12 C 0.0327(3) 0.9079(6) 0.8085(5)
H3 H 0.0155 0.9964 0.7694
C13 C 0.0878(2) 0.8344(5) 0.7786(4)
H4 H 0.1078 0.8729 0.7199
C14 C 0.2045(2) 0.6297(5) 0.7175(4)
H5 H 0.2389 0.5520 0.7186
H6 H 0.2291 0.7236 0.7303
H7 H 0.1684 0.6304 0.6405
C15 C 0.3584(2) 0.6032(5) 0.9764(4)
C16 C 0.3501(2) 0.4836(5) 0.8999(4)
C17 C 0.3994(2) 0.4871(6) 0.8269(4)
H8 H 0.4011 0.4135 0.7710
C18 C 0.4434(2) 0.6072(6) 0.8465(4)
C19 C 0.3212(3) 0.6403(6) 1.0708(4)
H9 H 0.2853 0.5659 1.0710
H10 H 0.2980 0.7353 1.0532
H11 H 0.3562 0.6435 1.1487
C20 C 0.5018(3) 0.6454(7) 0.7873(5)
H12 H 0.5041 0.5699 0.7296
H13 H 0.5477 0.6516 0.8478
H14 H 0.4909 0.7393 0.7468
loop_
_geom_bond_atom_site_label_1
_geom_bond_atom_site_label_2
_geom_bond_site_symmetry_1
_geom_bond_site_symmetry_2
S1 C6 1_555 1_555
S2 C15 1_555 1_555
F1 C3 1_555 1_555
F2 C3 1_555 1_555
F3 C4 1_555 1_555
F4 C4 1_555 1_555
F5 C5 1_555 1_555
F6 C5 1_555 1_555
C1 C2 1_555 1_555
C2 C3 1_555 1_555
C3 C4 1_555 1_555
C4 C5 1_555 1_555
C5 C1 1_555 1_555
C6 C1 1_555 1_555
C7 C6 1_555 1_555
C8 C7 1_555 1_555
C9 S1 1_555 1_555
C10 C9 1_555 1_555
H1 C10 1_555 1_555
C11 C10 1_555 1_555
H2 C11 1_555 1_555
C12 C11 1_555 1_555
H3 C12 1_555 1_555
C13 C8 1_555 1_555
H4 C13 1_555 1_555
C14 C7 1_555 1_555
H5 C14 1_555 1_555
H6 C14 1_555 1_555
H7 C14 1_555 1_555
C15 C16 1_555 1_555
C16 C2 1_555 1_555
C17 C16 1_555 1_555
H8 C17 1_555 1_555
C18 S2 1_555 1_555
C19 C15 1_555 1_555
H9 C19 1_555 1_555
H10 C19 1_555 1_555
H11 C19 1_555 1_555
C20 C18 1_555 1_555
H12 C20 1_555 1_555
H13 C20 1_555 1_555
H14 C20 1_555 1_555
C8 C9 1_555 1_555
C12 C13 1_555 1_555
C17 C18 1_555 1_555

#END
