
#######################################################################
#
#                 Cambridge Crystallographic Data Centre
#                                CCDC 
#
#######################################################################
#
# If this CIF has been generated from an entry in the Cambridge 
# Structural Database, then it will include bibliographic, chemical, 
# crystal, experimental, refinement or atomic coordinate data resulting 
# from the CCDC's data processing and validation procedures.
#
#######################################################################

data_ALESAM
_chemical_formula_moiety         'C14 H8 B1 O6 1-,0.5(C6 H18 N2 2+)'
_chemical_name_systematic        
"hemikis(N,N,N',N'-tetramethylethane-1,2-diammonium) bis(2-oxybenzoato)borate"
_symmetry_cell_setting           monoclinic
_symmetry_space_group_name_H-M   'P 2/n'
_symmetry_Int_Tables_number      13
_space_group_name_Hall           '-P 2yac'
loop_
_symmetry_equiv_pos_site_id
_symmetry_equiv_pos_as_xyz
1 x,y,z
2 1/2-x,y,1/2-z
3 -x,-y,-z
4 1/2+x,-y,1/2+z
_cell_length_a                   12.4348(8)
_cell_length_b                   8.2558(5)
_cell_length_c                   16.2548(13)
_cell_angle_alpha                90
_cell_angle_beta                 94.813(2)
_cell_angle_gamma                90
_cell_volume                     1662.82
_cell_formula_units_Z            4
loop_
_atom_site_label
_atom_site_type_symbol
_atom_site_fract_x
_atom_site_fract_y
_atom_site_fract_z
O1 O 0.13829(12) 0.64074(17) 0.13330(10)
O2 O 0.20049(12) 0.87562(17) 0.06490(9)
O3 O 0.01400(12) 0.85165(19) 0.08215(10)
O4 O 0.08835(12) 0.67399(19) -0.00893(10)
O5 O 0.12979(13) 0.54126(19) 0.25704(11)
O6 O 0.35585(15) 0.9458(2) 0.02048(12)
C1 C -0.00702(16) 0.8820(2) 0.16047(15)
C2 C 0.10565(16) 0.6491(3) 0.20788(14)
C3 C 0.1743(2) 0.6266(3) -0.04774(13)
C4 C 0.03761(16) 0.7880(2) 0.22540(14)
C5 C 0.27200(18) 0.7090(3) -0.03624(13)
C6 C 0.28068(19) 0.8521(3) 0.01817(14)
C8 C -0.0767(2) 1.0080(3) 0.17647(19)
H3 H -0.1080 1.0706 0.1333
C9 C 0.0130(2) 0.8230(3) 0.30504(16)
H4 H 0.0425 0.7597 0.3486
C12 C 0.1652(3) 0.4939(3) -0.10000(17)
H11 H 0.1000 0.4388 -0.1086
C13 C -0.0987(2) 1.0393(3) 0.2556(2)
H12 H -0.1451 1.1238 0.2659
C14 C -0.0536(2) 0.9480(4) 0.3208(2)
H13 H -0.0684 0.9716 0.3746
C15 C 0.3590(2) 0.6575(3) -0.07723(18)
H14 H 0.4242 0.7128 -0.0700
C16 C 0.2527(4) 0.4449(4) -0.13877(19)
H15 H 0.2466 0.3546 -0.1731
C17 C 0.3494(3) 0.5256(4) -0.1284(2)
H16 H 0.4079 0.4910 -0.1559
B1 B 0.1089(2) 0.7621(3) 0.06680(16)
C7 C 0.28093(19) 0.1753(3) 0.21249(14)
H1 H 0.2734 0.0698 0.1863
H2 H 0.3568 0.1910 0.2296
C10 C 0.13902(19) 0.2651(3) 0.10503(15)
H5 H 0.1434 0.1641 0.0763
H6 H 0.1199 0.3499 0.0661
H7 H 0.0851 0.2574 0.1438
C11 C 0.3294(2) 0.3215(3) 0.08999(17)
H8 H 0.3965 0.3542 0.1188
H9 H 0.3064 0.4024 0.0499
H10 H 0.3392 0.2202 0.0626
N1 N 0.24598(14) 0.3025(2) 0.15003(11)
C7A C 0.21907(19) 0.1753(3) 0.28751(14)
H1A H 0.2266 0.0698 0.3137
H2A H 0.1432 0.1910 0.2704
C10A C 0.36098(19) 0.2651(3) 0.39497(15)
H5A H 0.3566 0.1641 0.4237
H6A H 0.3801 0.3499 0.4339
H7A H 0.4149 0.2574 0.3562
C11A C 0.1706(2) 0.3215(3) 0.41001(17)
H8A H 0.1035 0.3542 0.3812
H9A H 0.1936 0.4024 0.4501
H10A H 0.1608 0.2202 0.4374
N1A N 0.25402(14) 0.3025(2) 0.34997(11)
loop_
_geom_bond_atom_site_label_1
_geom_bond_atom_site_label_2
_geom_bond_site_symmetry_1
_geom_bond_site_symmetry_2
O1 C2 1_555 1_555
O2 C6 1_555 1_555
O3 C1 1_555 1_555
O4 C3 1_555 1_555
O5 C2 1_555 1_555
O6 C6 1_555 1_555
C1 C4 1_555 1_555
C2 C4 1_555 1_555
C3 C5 1_555 1_555
C4 C9 1_555 1_555
C5 C6 1_555 1_555
C7 H1 1_555 1_555
H2 C7 1_555 1_555
C8 C1 1_555 1_555
H3 C8 1_555 1_555
C9 H4 1_555 1_555
C10 H5 1_555 1_555
H6 C10 1_555 1_555
H7 C10 1_555 1_555
C11 H8 1_555 1_555
H9 C11 1_555 1_555
H10 C11 1_555 1_555
C12 C3 1_555 1_555
H11 C12 1_555 1_555
C13 C8 1_555 1_555
H12 C13 1_555 1_555
C14 C9 1_555 1_555
H13 C14 1_555 1_555
C15 C5 1_555 1_555
H14 C15 1_555 1_555
C16 C12 1_555 1_555
H15 C16 1_555 1_555
C17 C15 1_555 1_555
H16 C17 1_555 1_555
B1 O1 1_555 1_555
N1 C7 1_555 1_555
C7A C7 1_555 1_555
H1A C7A 1_555 1_555
H2A C7A 1_555 1_555
C10A H5A 1_555 1_555
H6A C10A 1_555 1_555
H7A C10A 1_555 1_555
C11A H8A 1_555 1_555
H9A C11A 1_555 1_555
H10A C11A 1_555 1_555
N1A C7A 1_555 1_555
O2 B1 1_555 1_555
O3 B1 1_555 1_555
O4 B1 1_555 1_555
C10 N1 1_555 1_555
C11 N1 1_555 1_555
C13 C14 1_555 1_555
C16 C17 1_555 1_555
C10A N1A 1_555 1_555
C11A N1A 1_555 1_555

#END
