
#######################################################################
#
#                 Cambridge Crystallographic Data Centre
#                                CCDC 
#
#######################################################################
#
# If this CIF has been generated from an entry in the Cambridge 
# Structural Database, then it will include bibliographic, chemical, 
# crystal, experimental, refinement or atomic coordinate data resulting 
# from the CCDC's data processing and validation procedures.
#
#######################################################################

data_ALETIW
_chemical_formula_moiety         'C13 H8 N4,H2 O4 S1,H2 O1'
_chemical_name_systematic        
'1H-imidazo[4,5-f][1,10]phenanthroline sulfuric acid monohydrate'
_symmetry_cell_setting           monoclinic
_symmetry_space_group_name_H-M   'P 21/c'
_symmetry_Int_Tables_number      14
_space_group_name_Hall           '-P 2ybc'
loop_
_symmetry_equiv_pos_site_id
_symmetry_equiv_pos_as_xyz
1 x,y,z
2 -x,1/2+y,1/2-z
3 -x,-y,-z
4 x,1/2-y,1/2+z
_cell_length_a                   11.401(2)
_cell_length_b                   18.475(3)
_cell_length_c                   6.7163(13)
_cell_angle_alpha                90
_cell_angle_beta                 90.179(3)
_cell_angle_gamma                90
_cell_volume                     1414.67
_exptl_crystal_colour            yellow
_exptl_crystal_description       block
_cell_formula_units_Z            4
loop_
_atom_site_label
_atom_site_type_symbol
_atom_site_fract_x
_atom_site_fract_y
_atom_site_fract_z
N1 N 0.7568(2) 0.41423(15) 0.3682(4)
N2 N 0.5240(2) 0.38487(13) 0.3443(4)
N3 N 0.8119(2) 0.14745(15) 0.3782(4)
H1 H 0.8860 0.1389 0.3830
N4 N 0.6189(3) 0.12594(14) 0.3670(4)
C1 C 0.7244(3) 0.34379(16) 0.3664(4)
C2 C 0.9256(3) 0.3043(2) 0.3815(5)
H2 H 0.9824 0.2682 0.3862
C3 C 0.3602(3) 0.3070(2) 0.3449(5)
H3 H 0.2793 0.3010 0.3444
C4 C 0.6001(2) 0.32847(16) 0.3569(4)
C5 C 0.5552(2) 0.25733(16) 0.3586(4)
C6 C 0.4085(3) 0.37507(19) 0.3386(5)
H4 H 0.3594 0.4151 0.3302
C7 C 0.9567(3) 0.3747(2) 0.3823(5)
H5 H 1.0355 0.3876 0.3873
C8 C 0.4333(3) 0.24797(18) 0.3519(4)
H6 H 0.4017 0.2016 0.3522
C9 C 0.8053(3) 0.28625(17) 0.3734(4)
C10 C 0.8702(3) 0.4283(2) 0.3755(5)
H7 H 0.8938 0.4765 0.3762
C11 C 0.7578(3) 0.21518(16) 0.3724(4)
C12 C 0.6390(3) 0.20044(16) 0.3653(4)
C13 C 0.7259(3) 0.09871(19) 0.3748(5)
H8 H 0.7402 0.0492 0.3777
S1 S 0.15280(7) 0.11624(5) 0.40431(14)
O1 O 0.2072(4) 0.07300(19) 0.5466(6)
O2 O 0.2196(4) 0.1128(2) 0.2311(7)
H9 H 0.2170 0.1519 0.1736
O3 O 0.0405(2) 0.08866(19) 0.3649(5)
O4 O 0.1463(3) 0.18719(16) 0.4803(6)
H10 H 0.0939 0.1894 0.5635
O5 O 0.4428(2) 0.02585(14) 0.2432(6)
H11 H 0.495(3) 0.054(2) 0.289(7)
H12 H 0.3755(17) 0.042(3) 0.264(8)
loop_
_geom_bond_atom_site_label_1
_geom_bond_atom_site_label_2
_geom_bond_site_symmetry_1
_geom_bond_site_symmetry_2
N1 C1 1_555 1_555
N2 C4 1_555 1_555
N3 H1 1_555 1_555
N4 C12 1_555 1_555
C1 C4 1_555 1_555
C2 H2 1_555 1_555
C3 H3 1_555 1_555
C4 C5 1_555 1_555
C5 C8 1_555 1_555
C6 N2 1_555 1_555
H4 C6 1_555 1_555
C7 C2 1_555 1_555
H5 C7 1_555 1_555
C8 C3 1_555 1_555
H6 C8 1_555 1_555
C9 C1 1_555 1_555
C10 N1 1_555 1_555
H7 C10 1_555 1_555
C11 N3 1_555 1_555
C12 C5 1_555 1_555
C13 N3 1_555 1_555
H8 C13 1_555 1_555
S1 O1 1_555 1_555
O2 S1 1_555 1_555
H9 O2 1_555 1_555
O3 S1 1_555 1_555
O4 S1 1_555 1_555
H10 O4 1_555 1_555
O5 H11 1_555 1_555
H12 O5 1_555 1_555
N4 C13 1_555 1_555
C2 C9 1_555 1_555
C3 C6 1_555 1_555
C7 C10 1_555 1_555
C9 C11 1_555 1_555
C11 C12 1_555 1_555

#END
