
#######################################################################
#
#                 Cambridge Crystallographic Data Centre
#                                CCDC 
#
#######################################################################
#
# If this CIF has been generated from an entry in the Cambridge 
# Structural Database, then it will include bibliographic, chemical, 
# crystal, experimental, refinement or atomic coordinate data resulting 
# from the CCDC's data processing and validation procedures.
#
#######################################################################

data_ALEWAR
_chemical_formula_moiety         'C13 H9 Cl2 N3 S1'
_chemical_name_systematic        
8-chloro-3-((4-chlorobenzyl)sulfanyl)[1,2,4]triazolo[4,3-a]pyridine
_symmetry_cell_setting           triclinic
_symmetry_space_group_name_H-M   'P -1'
_symmetry_Int_Tables_number      2
_space_group_name_Hall           '-P 1'
loop_
_symmetry_equiv_pos_site_id
_symmetry_equiv_pos_as_xyz
1 x,y,z
2 -x,-y,-z
_cell_length_a                   6.8264(6)
_cell_length_b                   7.5890(4)
_cell_length_c                   13.0960(7)
_cell_angle_alpha                93.447(4)
_cell_angle_beta                 98.772(6)
_cell_angle_gamma                92.615(6)
_cell_volume                     668.263
_exptl_crystal_colour            colorless
_exptl_crystal_description       rectangle
_cell_formula_units_Z            2
loop_
_atom_site_label
_atom_site_type_symbol
_atom_site_fract_x
_atom_site_fract_y
_atom_site_fract_z
S1 S 0.24883(8) 0.14547(6) 0.54402(4)
Cl1 Cl 0.38624(10) 0.43222(8) 0.09663(4)
Cl2 Cl -0.30863(11) 0.07641(8) 0.93095(5)
N1 N 0.1979(2) 0.25993(18) 0.34624(11)
N2 N 0.5076(3) 0.3282(2) 0.32502(14)
N3 N 0.5087(3) 0.2749(2) 0.42387(13)
C1 C 0.3203(3) 0.3193(2) 0.27978(14)
C2 C 0.2318(3) 0.3579(2) 0.17944(15)
C3 C 0.0337(3) 0.3353(3) 0.15178(15)
H1 H -0.0250 0.3611 0.0859
C4 C -0.0856(3) 0.2720(3) 0.22296(16)
H2 H -0.2222 0.2560 0.2028
C5 C -0.0051(3) 0.2348(2) 0.31892(15)
H3 H -0.0838 0.1934 0.3654
C6 C 0.3250(3) 0.2341(2) 0.43614(14)
C7 C 0.1340(4) 0.3331(3) 0.60069(17)
H4 H 0.2351 0.4237 0.6300
H5 H 0.0423 0.3837 0.5478
C8 C 0.0253(3) 0.2680(2) 0.68370(14)
C9 C 0.1239(3) 0.2477(3) 0.78276(15)
H6 H 0.2598 0.2751 0.7981
C10 C 0.0232(3) 0.1874(3) 0.85911(15)
H7 H 0.0903 0.1736 0.9252
C11 C -0.1775(3) 0.1484(3) 0.83541(15)
C12 C -0.2788(3) 0.1661(3) 0.73811(16)
H8 H -0.4147 0.1382 0.7232
C13 C -0.1769(3) 0.2257(3) 0.66269(15)
H9 H -0.2451 0.2376 0.5966
loop_
_geom_bond_atom_site_label_1
_geom_bond_atom_site_label_2
_geom_bond_site_symmetry_1
_geom_bond_site_symmetry_2
S1 C6 1_555 1_555
Cl1 C2 1_555 1_555
Cl2 C11 1_555 1_555
N1 C1 1_555 1_555
N2 N3 1_555 1_555
N3 C6 1_555 1_555
C1 N2 1_555 1_555
C2 C1 1_555 1_555
C3 C2 1_555 1_555
H1 C3 1_555 1_555
C4 C3 1_555 1_555
H2 C4 1_555 1_555
C5 N1 1_555 1_555
H3 C5 1_555 1_555
C6 N1 1_555 1_555
C7 S1 1_555 1_555
H4 C7 1_555 1_555
H5 C7 1_555 1_555
C8 C7 1_555 1_555
C9 C8 1_555 1_555
H6 C9 1_555 1_555
C10 C9 1_555 1_555
H7 C10 1_555 1_555
C11 C10 1_555 1_555
C12 C11 1_555 1_555
H8 C12 1_555 1_555
C13 C8 1_555 1_555
H9 C13 1_555 1_555
C4 C5 1_555 1_555
C12 C13 1_555 1_555

#END
