
#######################################################################
#
#                 Cambridge Crystallographic Data Centre
#                                CCDC 
#
#######################################################################
#
# If this CIF has been generated from an entry in the Cambridge 
# Structural Database, then it will include bibliographic, chemical, 
# crystal, experimental, refinement or atomic coordinate data resulting 
# from the CCDC's data processing and validation procedures.
#
#######################################################################

data_ALEXIZ
_chemical_name_common            2,5-Dihexyloxy-4-bromobenzaldehyde
_chemical_formula_moiety         'C19 H29 Br1 O3'
_chemical_name_systematic        4-Bromo-2,5-bis(hexyloxy)benzaldehyde
_symmetry_cell_setting           triclinic
_symmetry_space_group_name_H-M   'P -1'
_symmetry_Int_Tables_number      2
_space_group_name_Hall           '-P 1'
loop_
_symmetry_equiv_pos_site_id
_symmetry_equiv_pos_as_xyz
1 x,y,z
2 -x,-y,-z
_cell_length_a                   9.5083(8)
_cell_length_b                   9.6863(8)
_cell_length_c                   10.9481(9)
_cell_angle_alpha                68.563(1)
_cell_angle_beta                 85.847(1)
_cell_angle_gamma                84.917(1)
_cell_volume                     934.004
_exptl_crystal_colour            colorless
_exptl_crystal_description       wedge
_cell_formula_units_Z            2
loop_
_atom_site_label
_atom_site_type_symbol
_atom_site_fract_x
_atom_site_fract_y
_atom_site_fract_z
Br1 Br 0.518563(13) -0.114641(13) 0.204324(12)
O1 O 0.50920(11) 0.58786(11) 0.21320(10)
O2 O 0.37807(10) 0.04660(10) 0.37039(9)
O3 O 0.73683(11) 0.40290(11) -0.01363(10)
C1 C 0.53890(14) 0.08270(14) 0.18899(13)
C2 C 0.63016(14) 0.16631(15) 0.09101(13)
H1 H 0.6805 0.1242 0.0334
C3 C 0.64771(14) 0.31272(14) 0.07734(13)
C4 C 0.56944(14) 0.37395(14) 0.16093(13)
C5 C 0.47766(14) 0.28691(14) 0.25984(13)
H2 H 0.4252 0.3293 0.3162
C6 C 0.46248(14) 0.14010(14) 0.27655(13)
C7 C 0.58073(14) 0.53218(15) 0.14659(12)
H3 H 0.6464 0.5901 0.0830
C8 C 0.30077(14) 0.10404(15) 0.46119(13)
H4 H 0.2390 0.1924 0.4134
H5 H 0.3667 0.1333 0.5120
C9 C 0.21266(14) -0.01870(15) 0.55234(13)
H6 H 0.2762 -0.1036 0.6037
H7 H 0.1545 -0.0538 0.4994
C10 C 0.11600(14) 0.03425(15) 0.64634(13)
H8 H 0.1743 0.0690 0.6993
H9 H 0.0531 0.1196 0.5948
C11 C 0.02621(14) -0.08798(15) 0.73813(13)
H10 H -0.0281 -0.1260 0.6846
H11 H 0.0896 -0.1712 0.7921
C12 C -0.07645(16) -0.03734(17) 0.82920(15)
H12 H -0.1392 0.0469 0.7757
H13 H -0.0224 -0.0014 0.8844
C13 C -0.16665(16) -0.16099(18) 0.91802(15)
H14 H -0.2232 -0.1944 0.8640
H15 H -0.2295 -0.1235 0.9755
H16 H -0.1051 -0.2446 0.9716
C14 C 0.81889(14) 0.34358(15) -0.10106(13)
H17 H 0.7563 0.3197 -0.1580
H18 H 0.8750 0.2518 -0.0505
C15 C 0.91534(15) 0.46266(15) -0.18293(14)
H19 H 0.9679 0.4942 -0.1238
H20 H 0.8573 0.5502 -0.2382
C16 C 1.02075(14) 0.40969(15) -0.27123(13)
H21 H 1.0810 0.3241 -0.2161
H22 H 0.9686 0.3756 -0.3289
C17 C 1.11413(15) 0.53263(15) -0.35572(14)
H23 H 1.0535 0.6160 -0.4132
H24 H 1.1617 0.5701 -0.2976
C18 C 1.22608(15) 0.48347(16) -0.44095(14)
H25 H 1.1792 0.4462 -0.4996
H26 H 1.2878 0.4007 -0.3840
C19 C 1.31625(17) 0.61015(18) -0.52375(15)
H27 H 1.2558 0.6912 -0.5820
H28 H 1.3873 0.5741 -0.5765
H29 H 1.3636 0.6466 -0.4660
loop_
_geom_bond_atom_site_label_1
_geom_bond_atom_site_label_2
_geom_bond_site_symmetry_1
_geom_bond_site_symmetry_2
Br1 C1 1_555 1_555
O1 C7 1_555 1_555
O2 C6 1_555 1_555
O3 C3 1_555 1_555
C1 C2 1_555 1_555
C2 H1 1_555 1_555
C3 C2 1_555 1_555
C4 C3 1_555 1_555
C5 C4 1_555 1_555
H2 C5 1_555 1_555
C6 C1 1_555 1_555
C7 C4 1_555 1_555
H3 C7 1_555 1_555
C8 O2 1_555 1_555
H4 C8 1_555 1_555
H5 C8 1_555 1_555
C9 C8 1_555 1_555
H6 C9 1_555 1_555
H7 C9 1_555 1_555
C10 C9 1_555 1_555
H8 C10 1_555 1_555
H9 C10 1_555 1_555
C11 C10 1_555 1_555
H10 C11 1_555 1_555
H11 C11 1_555 1_555
C12 C11 1_555 1_555
H12 C12 1_555 1_555
H13 C12 1_555 1_555
C13 C12 1_555 1_555
H14 C13 1_555 1_555
H15 C13 1_555 1_555
H16 C13 1_555 1_555
C14 O3 1_555 1_555
H17 C14 1_555 1_555
H18 C14 1_555 1_555
C15 C14 1_555 1_555
H19 C15 1_555 1_555
H20 C15 1_555 1_555
C16 C15 1_555 1_555
H21 C16 1_555 1_555
H22 C16 1_555 1_555
C17 C16 1_555 1_555
H23 C17 1_555 1_555
H24 C17 1_555 1_555
C18 C17 1_555 1_555
H25 C18 1_555 1_555
H26 C18 1_555 1_555
C19 C18 1_555 1_555
H27 C19 1_555 1_555
H28 C19 1_555 1_555
H29 C19 1_555 1_555
C5 C6 1_555 1_555

#END
