
#######################################################################
#
#                 Cambridge Crystallographic Data Centre
#                                CCDC 
#
#######################################################################
#
# If this CIF has been generated from an entry in the Cambridge 
# Structural Database, then it will include bibliographic, chemical, 
# crystal, experimental, refinement or atomic coordinate data resulting 
# from the CCDC's data processing and validation procedures.
#
#######################################################################

data_ALICUV01
_chemical_formula_moiety         'C10 H15 N4 O2'
_chemical_name_systematic        
'(Z)-3-amino-3-(4,4,5,5-tetramethyl-4,5-dihydro-1H-imidazol-3-oxide-1-oxyl-2-yl)acrylonitrile radical'
_symmetry_cell_setting           triclinic
_symmetry_space_group_name_H-M   'P -1'
_symmetry_Int_Tables_number      2
_space_group_name_Hall           '-P 1'
loop_
_symmetry_equiv_pos_site_id
_symmetry_equiv_pos_as_xyz
1 x,y,z
2 -x,-y,-z
_cell_length_a                   7.1009(5)
_cell_length_b                   9.0783(7)
_cell_length_c                   10.2090(8)
_cell_angle_alpha                64.978(4)
_cell_angle_beta                 86.515(4)
_cell_angle_gamma                75.815(5)
_cell_volume                     577.476
_exptl_crystal_colour            green
_exptl_crystal_description       stick
_cell_formula_units_Z            2
loop_
_atom_site_label
_atom_site_type_symbol
_atom_site_fract_x
_atom_site_fract_y
_atom_site_fract_z
C1 C 0.1048(7) 1.0514(6) 0.6502(5)
H1 H 0.180(7) 1.075(6) 0.567(6)
H2 H -0.031(7) 1.062(5) 0.626(5)
H3 H 0.103(6) 1.142(5) 0.668(4)
C2 C 0.1971(8) 0.7428(6) 0.7174(6)
H4 H 0.258(9) 0.776(7) 0.619(7)
H5 H 0.250(7) 0.641(7) 0.782(6)
H6 H 0.054(6) 0.730(5) 0.718(4)
C3 C 0.2101(5) 0.8804(5) 0.7634(4)
C4 C 0.4179(5) 0.8670(4) 0.8128(4)
C5 C 0.4479(7) 1.0281(5) 0.8097(5)
H7 H 0.451(6) 1.113(6) 0.713(5)
H8 H 0.343(6) 1.078(5) 0.854(4)
H9 H 0.564(8) 1.016(6) 0.865(5)
C6 C 0.5819(7) 0.7936(7) 0.7401(5)
H10 H 0.566(8) 0.872(7) 0.628(7)
H11 H 0.718(8) 0.782(6) 0.787(5)
H12 H 0.570(8) 0.692(7) 0.756(6)
N1 N 0.1121(4) 0.8422(4) 0.9033(3)
O1 O -0.0734(4) 0.8816(4) 0.9072(3)
C7 C 0.2397(5) 0.7508(4) 1.0187(4)
N2 N 0.4215(4) 0.7480(4) 0.9708(3)
O2 O 0.5806(4) 0.6702(4) 1.0455(3)
C8 C 0.1871(5) 0.6654(4) 1.1675(4)
N3 N 0.0074(5) 0.6350(5) 1.1839(4)
H13 H -0.053(6) 0.610(5) 1.277(5)
H14 H -0.074(7) 0.699(6) 1.092(5)
C9 C 0.3166(6) 0.6195(5) 1.2781(4)
H15 H 0.441(6) 0.633(5) 1.266(4)
C10 C 0.2702(6) 0.5376(5) 1.4245(4)
N4 N 0.2336(6) 0.4701(5) 1.5417(4)
loop_
_geom_bond_atom_site_label_1
_geom_bond_atom_site_label_2
_geom_bond_site_symmetry_1
_geom_bond_site_symmetry_2
C1 H1 1_555 1_555
H2 C1 1_555 1_555
H3 C1 1_555 1_555
C2 H4 1_555 1_555
H5 C2 1_555 1_555
H6 C2 1_555 1_555
C3 C1 1_555 1_555
C4 C3 1_555 1_555
C5 C4 1_555 1_555
H7 C5 1_555 1_555
H8 C5 1_555 1_555
H9 C5 1_555 1_555
C6 C4 1_555 1_555
H10 C6 1_555 1_555
H11 C6 1_555 1_555
H12 C6 1_555 1_555
N1 C3 1_555 1_555
O1 N1 1_555 1_555
C7 N1 1_555 1_555
N2 C4 1_555 1_555
O2 N2 1_555 1_555
C8 C7 1_555 1_555
N3 C8 1_555 1_555
H13 N3 1_555 1_555
H14 N3 1_555 1_555
C9 C8 1_555 1_555
H15 C9 1_555 1_555
C10 C9 1_555 1_555
N4 C10 1_555 1_555
C2 C3 1_555 1_555
C7 N2 1_555 1_555

#END
