
#######################################################################
#
#                 Cambridge Crystallographic Data Centre
#                                CCDC 
#
#######################################################################
#
# If this CIF has been generated from an entry in the Cambridge 
# Structural Database, then it will include bibliographic, chemical, 
# crystal, experimental, refinement or atomic coordinate data resulting 
# from the CCDC's data processing and validation procedures.
#
#######################################################################

data_ALICAZ
_chemical_formula_moiety         'C20 H26 O2 S2'
_chemical_name_systematic        meso-1,6-bis(Benzylsulfinyl)hexane
_symmetry_cell_setting           monoclinic
_symmetry_space_group_name_H-M   'C c'
_symmetry_Int_Tables_number      9
_space_group_name_Hall           'C -2yc'
loop_
_symmetry_equiv_pos_site_id
_symmetry_equiv_pos_as_xyz
1 x,y,z
2 x,-y,1/2+z
3 1/2+x,1/2+y,z
4 1/2+x,1/2-y,1/2+z
_cell_length_a                   41.95(2)
_cell_length_b                   5.132(2)
_cell_length_c                   8.660(4)
_cell_angle_alpha                90
_cell_angle_beta                 94.898(9)
_cell_angle_gamma                90
_cell_volume                     1857.58
_exptl_crystal_colour            colorless
_exptl_crystal_description       cubic
_chemical_melting_point          181-183deg.C
_cell_formula_units_Z            4
loop_
_atom_site_label
_atom_site_type_symbol
_atom_site_fract_x
_atom_site_fract_y
_atom_site_fract_z
O1 O 0.9057(2) 0.5880(14) -0.0787(10)
S1 S 1.09704(7) 0.1882(8) 0.5347(3)
O2 O 1.0963(3) -0.0988(17) 0.5135(10)
S2 S 0.90161(7) 0.3105(6) -0.0450(3)
C1 C 1.1726(4) 0.083(2) 0.3699(16)
H1 H 1.1628 -0.0341 0.2993
C2 C 1.2053(4) 0.062(3) 0.416(2)
H2 H 1.2173 -0.0702 0.3764
C3 C 1.2195(3) 0.232(4) 0.518(2)
H3 H 1.2412 0.2175 0.5477
C4 C 1.2025(4) 0.418(4) 0.575(2)
H4 H 1.2129 0.5354 0.6435
C5 C 1.1705(3) 0.450(2) 0.5388(14)
H5 H 1.1592 0.5803 0.5852
C6 C 1.1552(3) 0.282(2) 0.4306(11)
C7 C 1.1205(2) 0.3224(19) 0.3879(11)
H6 H 1.1145 0.2389 0.2892
H7 H 1.1162 0.5073 0.3766
C8 C 1.0593(3) 0.316(2) 0.4675(13)
H8 H 1.0447 0.2874 0.5471
H9 H 1.0615 0.5026 0.4552
C9 C 1.0441(3) 0.207(2) 0.3180(13)
H10 H 1.0438 0.0179 0.3244
H11 H 1.0569 0.2546 0.2342
C10 C 1.0102(2) 0.306(2) 0.2823(13)
H12 H 1.0108 0.4941 0.2704
H13 H 0.9979 0.2678 0.3695
C11 C 0.9932(3) 0.186(2) 0.1347(13)
H14 H 1.0055 0.2205 0.0473
H15 H 0.9917 -0.0014 0.1472
C12 C 0.9595(3) 0.300(2) 0.1023(14)
H16 H 0.9480 0.2770 0.1939
H17 H 0.9613 0.4853 0.0842
C13 C 0.9400(3) 0.179(2) -0.0346(13)
H18 H 0.9390 -0.0082 -0.0220
H19 H 0.9499 0.2164 -0.1295
C14 C 0.8844(3) 0.158(2) -0.2209(12)
H20 H 0.8935 0.2358 -0.3094
H21 H 0.8897 -0.0259 -0.2189
C15 C 0.8485(3) 0.190(2) -0.2380(12)
C16 C 0.8276(5) 0.038(3) -0.1724(17)
H22 H 0.8357 -0.0987 -0.1107
C17 C 0.7965(4) 0.068(3) -0.189(2)
H23 H 0.7831 -0.0463 -0.1417
C18 C 0.7840(4) 0.276(3) -0.2781(18)
H24 H 0.7621 0.3070 -0.2892
C19 C 0.8036(3) 0.427(3) -0.346(2)
H25 H 0.7953 0.5624 -0.4077
C20 C 0.8350(4) 0.392(2) -0.3284(14)
H26 H 0.8482 0.5041 -0.3778
loop_
_geom_bond_atom_site_label_1
_geom_bond_atom_site_label_2
_geom_bond_site_symmetry_1
_geom_bond_site_symmetry_2
O1 S2 1_555 1_555
S1 O2 1_555 1_555
S2 C13 1_555 1_555
C1 H1 1_555 1_555
C2 C1 1_555 1_555
H2 C2 1_555 1_555
C3 C2 1_555 1_555
H3 C3 1_555 1_555
C4 C3 1_555 1_555
H4 C4 1_555 1_555
C5 C4 1_555 1_555
H5 C5 1_555 1_555
C6 C1 1_555 1_555
C7 S1 1_555 1_555
H6 C7 1_555 1_555
H7 C7 1_555 1_555
C8 S1 1_555 1_555
H8 C8 1_555 1_555
H9 C8 1_555 1_555
C9 C8 1_555 1_555
H10 C9 1_555 1_555
H11 C9 1_555 1_555
C10 C9 1_555 1_555
H12 C10 1_555 1_555
H13 C10 1_555 1_555
C11 C10 1_555 1_555
H14 C11 1_555 1_555
H15 C11 1_555 1_555
C12 C11 1_555 1_555
H16 C12 1_555 1_555
H17 C12 1_555 1_555
C13 C12 1_555 1_555
H18 C13 1_555 1_555
H19 C13 1_555 1_555
C14 S2 1_555 1_555
H20 C14 1_555 1_555
H21 C14 1_555 1_555
C15 C14 1_555 1_555
C16 C15 1_555 1_555
H22 C16 1_555 1_555
C17 C16 1_555 1_555
H23 C17 1_555 1_555
C18 C17 1_555 1_555
H24 C18 1_555 1_555
C19 C18 1_555 1_555
H25 C19 1_555 1_555
C20 C15 1_555 1_555
H26 C20 1_555 1_555
C5 C6 1_555 1_555
C6 C7 1_555 1_555
C19 C20 1_555 1_555

#END
