
#######################################################################
#
#                 Cambridge Crystallographic Data Centre
#                                CCDC 
#
#######################################################################
#
# If this CIF has been generated from an entry in the Cambridge 
# Structural Database, then it will include bibliographic, chemical, 
# crystal, experimental, refinement or atomic coordinate data resulting 
# from the CCDC's data processing and validation procedures.
#
#######################################################################

data_ALIYAX
_chemical_compound_source        'Flueggea virosa'
_chemical_formula_moiety         'C18 H20 O3,0.5(C1 H4 O1)'
_chemical_name_systematic        
'12-hydroxy-13-methyl-3,17-epoxypodocarpa-6,8,11,13-tetraen-17-one methanol solvate'
_symmetry_cell_setting           orthorhombic
_symmetry_space_group_name_H-M   'P 21 21 21'
_symmetry_Int_Tables_number      19
_space_group_name_Hall           'P 2ac 2ab'
loop_
_symmetry_equiv_pos_site_id
_symmetry_equiv_pos_as_xyz
1 x,y,z
2 1/2-x,-y,1/2+z
3 -x,1/2+y,1/2-z
4 1/2+x,1/2-y,-z
_cell_length_a                   13.7792(9)
_cell_length_b                   15.0645(10)
_cell_length_c                   15.3672(11)
_cell_angle_alpha                90
_cell_angle_beta                 90
_cell_angle_gamma                90
_cell_volume                     3189.87
_exptl_crystal_colour            colorless
_exptl_crystal_description       parallelepiped
_cell_formula_units_Z            8
loop_
_atom_site_label
_atom_site_type_symbol
_atom_site_fract_x
_atom_site_fract_y
_atom_site_fract_z
O1 O 1.04479(8) 0.31448(7) 1.02093(8)
O2 O 0.89375(8) 0.30622(8) 0.97446(8)
O3 O 0.76901(9) 0.09539(8) 0.73240(8)
H1 H 0.811(2) 0.1363(19) 0.7057(18)
C1 C 1.07637(11) 0.17419(11) 0.90940(11)
H2 H 1.0948 0.1134 0.8913
H3 H 1.0566 0.2077 0.8569
C2 C 1.16358(12) 0.22034(12) 0.95305(12)
H4 H 1.2162 0.1768 0.9632
H5 H 1.1889 0.2677 0.9146
C3 C 1.13094(12) 0.26000(11) 1.03917(12)
H6 H 1.1837 0.2984 1.0632
C4 C 1.10115(12) 0.19114(11) 1.10735(11)
C5 C 1.03161(12) 0.12557(11) 1.05930(11)
H7 H 1.0733 0.0754 1.0390
C6 C 0.95502(12) 0.08447(12) 1.11583(11)
H8 H 0.9679 0.0771 1.1761
C7 C 0.86979(12) 0.05793(12) 1.08478(12)
H9 H 0.8243 0.0311 1.1231
C8 C 0.84445(11) 0.06904(10) 0.99302(11)
C9 C 0.90232(11) 0.12202(10) 0.93841(11)
C10 C 0.99030(11) 0.16987(10) 0.97507(11)
C11 C 0.87620(11) 0.13082(10) 0.85140(10)
H10 H 0.9145 0.1668 0.8140
C12 C 0.79455(11) 0.08764(11) 0.81802(11)
C13 C 0.73692(11) 0.03412(10) 0.87084(11)
C14 C 0.76331(11) 0.02627(10) 0.95779(12)
H11 H 0.7246 -0.0097 0.9949
C15 C 0.64946(13) -0.01212(13) 0.83380(13)
H12 H 0.6176 -0.0467 0.8797
H13 H 0.6698 -0.0520 0.7868
H14 H 0.6040 0.0321 0.8108
C16 C 1.05235(15) 0.23913(14) 1.18404(12)
H15 H 1.0992 0.2792 1.2116
H16 H 1.0300 0.1953 1.2267
H17 H 0.9968 0.2735 1.1627
C17 C 1.19065(13) 0.14190(13) 1.14178(13)
H18 H 1.2335 0.1839 1.1717
H19 H 1.2255 0.1147 1.0930
H20 H 1.1701 0.0956 1.1826
C18 C 0.96852(11) 0.26743(11) 0.99158(11)
O4 O 1.02101(8) 0.19278(7) 0.62520(8)
O5 O 0.87250(8) 0.23420(8) 0.66186(8)
O6 O 0.80255(9) 0.54601(8) 0.80332(9)
H21 H 0.8422 0.5234 0.8384
C19 C 1.07599(11) 0.36401(11) 0.66050(12)
H22 H 1.1006 0.4247 0.6493
H23 H 1.0607 0.3590 0.7233
C20 C 1.15396(12) 0.29555(12) 0.63587(13)
H24 H 1.2074 0.3250 0.6039
H25 H 1.1812 0.2681 0.6891
C21 C 1.10759(13) 0.22491(12) 0.57915(12)
H26 H 1.1542 0.1747 0.5709
C22 C 1.07400(13) 0.25917(12) 0.48991(12)
C23 C 1.01483(12) 0.34593(11) 0.50827(11)
H27 H 1.0606 0.3967 0.5000
C24 C 0.93179(14) 0.36059(12) 0.44647(12)
H28 H 0.9385 0.3411 0.3880
C25 C 0.84923(13) 0.39976(11) 0.47021(12)
H29 H 0.7991 0.4068 0.4283
C26 C 0.83335(12) 0.43219(11) 0.55875(12)
C27 C 0.90204(11) 0.41312(10) 0.62422(11)
C28 C 0.88984(12) 0.45005(11) 0.70596(11)
H30 H 0.9356 0.4372 0.7505
C29 C 0.81161(12) 0.50575(11) 0.72416(11)
C30 C 0.74071(12) 0.52275(11) 0.66164(13)
C31 C 0.75382(12) 0.48513(12) 0.57996(13)
H31 H 0.7063 0.4960 0.5365
C32 C 1.01319(15) 0.18631(12) 0.44575(13)
H32 H 1.0537 0.1338 0.4359
H33 H 0.9887 0.2083 0.3899
H34 H 0.9584 0.1704 0.4833
C33 C 1.16151(15) 0.27931(14) 0.43182(15)
H35 H 1.1978 0.2244 0.4210
H36 H 1.2038 0.3224 0.4609
H37 H 1.1390 0.3040 0.3764
C34 C 0.65506(14) 0.58078(15) 0.68308(15)
H38 H 0.6128 0.5855 0.6320
H39 H 0.6780 0.6400 0.6997
H40 H 0.6187 0.5546 0.7315
C35 C 0.95101(11) 0.25446(11) 0.63234(11)
C36 C 0.98293(11) 0.34737(10) 0.60605(11)
O7 O 0.43283(10) 0.01952(9) 0.08144(9)
C37 C 0.53502(14) 0.01202(14) 0.09583(15)
H41 H 0.5599 0.0681 0.1191
H42 H 0.5676 -0.0014 0.0407
H43 H 0.5476 -0.0358 0.1376
H44 H 0.413(2) 0.0711(18) 0.0607(18)
loop_
_geom_bond_atom_site_label_1
_geom_bond_atom_site_label_2
_geom_bond_site_symmetry_1
_geom_bond_site_symmetry_2
O1 C3 1_555 1_555
O2 C18 1_555 1_555
O3 H1 1_555 1_555
C1 H2 1_555 1_555
H3 C1 1_555 1_555
C2 C1 1_555 1_555
H4 C2 1_555 1_555
H5 C2 1_555 1_555
C3 C2 1_555 1_555
H6 C3 1_555 1_555
C4 C3 1_555 1_555
C5 C4 1_555 1_555
H7 C5 1_555 1_555
C6 C5 1_555 1_555
H8 C6 1_555 1_555
C7 C6 1_555 1_555
H9 C7 1_555 1_555
C8 C7 1_555 1_555
C9 C8 1_555 1_555
C10 C1 1_555 1_555
C11 C9 1_555 1_555
H10 C11 1_555 1_555
C12 O3 1_555 1_555
C13 C12 1_555 1_555
C14 C8 1_555 1_555
H11 C14 1_555 1_555
C15 C13 1_555 1_555
H12 C15 1_555 1_555
H13 C15 1_555 1_555
H14 C15 1_555 1_555
C16 C4 1_555 1_555
H15 C16 1_555 1_555
H16 C16 1_555 1_555
H17 C16 1_555 1_555
C17 C4 1_555 1_555
H18 C17 1_555 1_555
H19 C17 1_555 1_555
H20 C17 1_555 1_555
C18 O1 1_555 1_555
O4 C21 1_555 1_555
O5 C35 1_555 1_555
O6 H21 1_555 1_555
C19 H22 1_555 1_555
H23 C19 1_555 1_555
C20 C19 1_555 1_555
H24 C20 1_555 1_555
H25 C20 1_555 1_555
C21 C20 1_555 1_555
H26 C21 1_555 1_555
C22 C21 1_555 1_555
C23 C22 1_555 1_555
H27 C23 1_555 1_555
C24 C23 1_555 1_555
H28 C24 1_555 1_555
C25 C24 1_555 1_555
H29 C25 1_555 1_555
C26 C25 1_555 1_555
C27 C26 1_555 1_555
C28 C27 1_555 1_555
H30 C28 1_555 1_555
C29 O6 1_555 1_555
C30 C29 1_555 1_555
C31 C26 1_555 1_555
H31 C31 1_555 1_555
C32 C22 1_555 1_555
H32 C32 1_555 1_555
H33 C32 1_555 1_555
H34 C32 1_555 1_555
C33 C22 1_555 1_555
H35 C33 1_555 1_555
H36 C33 1_555 1_555
H37 C33 1_555 1_555
C34 C30 1_555 1_555
H38 C34 1_555 1_555
H39 C34 1_555 1_555
H40 C34 1_555 1_555
C35 O4 1_555 1_555
C36 C19 1_555 1_555
O7 C37 1_555 1_555
C37 H41 1_555 1_555
H42 C37 1_555 1_555
H43 C37 1_555 1_555
H44 O7 1_555 1_555
C5 C10 1_555 1_555
C9 C10 1_555 1_555
C10 C18 1_555 1_555
C11 C12 1_555 1_555
C13 C14 1_555 1_555
C23 C36 1_555 1_555
C27 C36 1_555 1_555
C28 C29 1_555 1_555
C30 C31 1_555 1_555
C35 C36 1_555 1_555

#END
