
#######################################################################
#
#                 Cambridge Crystallographic Data Centre
#                                CCDC 
#
#######################################################################
#
# If this CIF has been generated from an entry in the Cambridge 
# Structural Database, then it will include bibliographic, chemical, 
# crystal, experimental, refinement or atomic coordinate data resulting 
# from the CCDC's data processing and validation procedures.
#
#######################################################################

data_ALIYEB
_chemical_compound_source        'Flueggea virosa'
_chemical_formula_moiety         'C30 H48 O6,H2 O1'
_chemical_name_systematic        
'methyl 4-hydroxy-4,11-bis(hydroxymethyl)-4a,6b,8a,12b,14a-pentamethyl-1,4,4a,5,6,6a,6b,7,8,8a,9,10,12a,12b,13,14,14a,14b-octadecahydro-2H-phenanthro[2,1-f]isochromene-2-carboxylate monohydrate'
_symmetry_cell_setting           orthorhombic
_symmetry_space_group_name_H-M   'P 21 21 21'
_symmetry_Int_Tables_number      19
_space_group_name_Hall           'P 2ac 2ab'
loop_
_symmetry_equiv_pos_site_id
_symmetry_equiv_pos_as_xyz
1 x,y,z
2 1/2-x,-y,1/2+z
3 -x,1/2+y,1/2-z
4 1/2+x,1/2-y,-z
_cell_length_a                   6.5814(2)
_cell_length_b                   13.4215(4)
_cell_length_c                   32.1290(10)
_cell_angle_alpha                90
_cell_angle_beta                 90
_cell_angle_gamma                90
_cell_volume                     2838.03
_exptl_crystal_colour            colorless
_exptl_crystal_description       parallelepiped
_cell_formula_units_Z            4
loop_
_atom_site_label
_atom_site_type_symbol
_atom_site_fract_x
_atom_site_fract_y
_atom_site_fract_z
O1 O 0.2937(3) 0.98879(14) 0.95845(6)
O2 O -0.0224(3) 0.97029(17) 0.92624(6)
H1 H -0.0775 1.0043 0.9451
O3 O 0.6636(5) 1.1009(2) 0.96517(9)
O4 O 0.4406(5) 1.22132(18) 0.94809(9)
O5 O -0.0307(4) 0.9243(2) 1.00884(7)
H2 H 0.0374 0.9762 1.0132
O6 O 0.2525(4) 1.01485(19) 0.56454(7)
H3 H 0.144(9) 1.031(4) 0.5531(15)
C1 C 0.4538(5) 1.0088(2) 0.89062(9)
H4 H 0.5815 0.9762 0.8995
H5 H 0.4875 1.0588 0.8690
C2 C 0.3556(6) 1.0597(2) 0.92740(10)
H6 H 0.2354 1.0992 0.9179
C3 C 0.5064(6) 1.1280(2) 0.94979(10)
C4 C 0.1445(4) 0.9184(2) 0.94283(9)
C5 C 0.2431(4) 0.8554(2) 0.90749(8)
C6 C 0.0835(5) 0.7832(2) 0.88923(8)
H7 H 0.0600 0.7286 0.9094
H8 H -0.0464 0.8194 0.8857
C7 C 0.1453(5) 0.7378(2) 0.84721(9)
H9 H 0.0328 0.6961 0.8365
H10 H 0.2654 0.6944 0.8511
C8 C 0.1957(4) 0.81987(19) 0.81531(8)
H11 H 0.0772 0.8664 0.8165
C9 C 0.3791(4) 0.8828(2) 0.83084(9)
C10 C 0.3078(4) 0.9306(2) 0.87257(8)
H12 H 0.1813 0.9682 0.8655
C11 C 0.4226(5) 0.9663(3) 0.79941(9)
H13 H 0.3155 1.0177 0.8021
H14 H 0.5537 0.9979 0.8067
C12 C 0.4318(5) 0.9321(3) 0.75392(9)
H15 H 0.5496 0.8870 0.7503
H16 H 0.4532 0.9908 0.7358
C13 C 0.2372(4) 0.87762(19) 0.74012(8)
C14 C 0.2045(4) 0.78446(18) 0.76877(8)
C15 C 0.0002(6) 0.7376(2) 0.75545(9)
H17 H -0.0283 0.6794 0.7735
H18 H -0.1097 0.7868 0.7599
C16 C -0.0029(6) 0.7039(2) 0.70980(9)
H19 H -0.1455 0.6890 0.7022
H20 H 0.0739 0.6407 0.7078
C17 C 0.0835(5) 0.7764(2) 0.67689(8)
C18 C 0.2598(4) 0.8414(2) 0.69392(8)
H21 H 0.3820 0.7971 0.6938
C19 C 0.3096(5) 0.9248(2) 0.66461(9)
H22 H 0.4394 0.9551 0.6673
C20 C 0.1885(5) 0.9597(2) 0.63537(9)
C21 C -0.0180(6) 0.9180(3) 0.62671(11)
H23 H -0.0169 0.8862 0.5989
H24 H -0.1171 0.9734 0.6259
C22 C -0.0891(5) 0.8410(3) 0.65908(9)
H25 H -0.1914 0.7969 0.6460
H26 H -0.1565 0.8766 0.6823
C23 C 0.0782(5) 0.8607(2) 0.98166(9)
H27 H -0.0089 0.8039 0.9734
H28 H 0.1992 0.8339 0.9961
C24 C 0.4175(5) 0.7945(3) 0.92610(9)
H29 H 0.3642 0.7499 0.9476
H30 H 0.5179 0.8396 0.9384
H31 H 0.4821 0.7549 0.9041
C25 C 0.5800(6) 0.8230(4) 0.83584(11)
H32 H 0.664(6) 0.824(3) 0.8131(12)
H33 H 0.649(7) 0.855(3) 0.8544(13)
H34 H 0.572(6) 0.755(3) 0.8449(12)
C26 C 0.3712(6) 0.7038(2) 0.76330(10)
H35 H 0.3426 0.6475 0.7818
H36 H 0.5041 0.7322 0.7702
H37 H 0.3721 0.6806 0.7344
C27 C 0.0627(5) 0.9531(2) 0.74347(9)
H38 H 0.0503 0.9758 0.7724
H39 H -0.0646 0.9215 0.7348
H40 H 0.0911 1.0103 0.7254
C28 C 0.1674(7) 0.7128(3) 0.64099(10)
H41 H 0.2783 0.6708 0.6513
H42 H 0.2185 0.7565 0.6189
H43 H 0.0588 0.6705 0.6299
C29 C 0.2583(6) 1.0435(2) 0.60731(10)
H44 H 0.1696 1.1022 0.6116
H45 H 0.3987 1.0628 0.6149
C30 C 0.5648(9) 1.2944(3) 0.97017(19)
H46 H 0.5037 1.3606 0.9673
H47 H 0.7021 1.2951 0.9583
H48 H 0.5721 1.2766 0.9997
O7 O 0.0615(4) 0.5895(2) 0.97843(8)
H49 H 0.215(7) 0.569(3) 0.9838(13)
H50 H 0.013(11) 0.552(5) 1.002(2)
loop_
_geom_bond_atom_site_label_1
_geom_bond_atom_site_label_2
_geom_bond_site_symmetry_1
_geom_bond_site_symmetry_2
O1 C2 1_555 1_555
O2 H1 1_555 1_555
O3 C3 1_555 1_555
O4 C3 1_555 1_555
O5 H2 1_555 1_555
O6 H3 1_555 1_555
C1 H4 1_555 1_555
H5 C1 1_555 1_555
C2 C1 1_555 1_555
H6 C2 1_555 1_555
C3 C2 1_555 1_555
C4 O1 1_555 1_555
C5 C4 1_555 1_555
C6 C5 1_555 1_555
H7 C6 1_555 1_555
H8 C6 1_555 1_555
C7 C6 1_555 1_555
H9 C7 1_555 1_555
H10 C7 1_555 1_555
C8 C7 1_555 1_555
H11 C8 1_555 1_555
C9 C8 1_555 1_555
C10 C1 1_555 1_555
H12 C10 1_555 1_555
C11 C9 1_555 1_555
H13 C11 1_555 1_555
H14 C11 1_555 1_555
C12 C11 1_555 1_555
H15 C12 1_555 1_555
H16 C12 1_555 1_555
C13 C12 1_555 1_555
C14 C8 1_555 1_555
C15 C14 1_555 1_555
H17 C15 1_555 1_555
H18 C15 1_555 1_555
C16 C15 1_555 1_555
H19 C16 1_555 1_555
H20 C16 1_555 1_555
C17 C16 1_555 1_555
C18 C13 1_555 1_555
H21 C18 1_555 1_555
C19 C18 1_555 1_555
H22 C19 1_555 1_555
C20 C19 1_555 1_555
C21 C20 1_555 1_555
H23 C21 1_555 1_555
H24 C21 1_555 1_555
C22 C17 1_555 1_555
H25 C22 1_555 1_555
H26 C22 1_555 1_555
C23 O5 1_555 1_555
H27 C23 1_555 1_555
H28 C23 1_555 1_555
C24 C5 1_555 1_555
H29 C24 1_555 1_555
H30 C24 1_555 1_555
H31 C24 1_555 1_555
C25 C9 1_555 1_555
H32 C25 1_555 1_555
H33 C25 1_555 1_555
H34 C25 1_555 1_555
C26 C14 1_555 1_555
H35 C26 1_555 1_555
H36 C26 1_555 1_555
H37 C26 1_555 1_555
C27 C13 1_555 1_555
H38 C27 1_555 1_555
H39 C27 1_555 1_555
H40 C27 1_555 1_555
C28 C17 1_555 1_555
H41 C28 1_555 1_555
H42 C28 1_555 1_555
H43 C28 1_555 1_555
C29 O6 1_555 1_555
H44 C29 1_555 1_555
H45 C29 1_555 1_555
C30 O4 1_555 1_555
H46 C30 1_555 1_555
H47 C30 1_555 1_555
H48 C30 1_555 1_555
O7 H49 1_555 1_555
H50 O7 1_555 1_555
O2 C4 1_555 1_555
C4 C23 1_555 1_555
C5 C10 1_555 1_555
C9 C10 1_555 1_555
C13 C14 1_555 1_555
C17 C18 1_555 1_555
C20 C29 1_555 1_555
C21 C22 1_555 1_555

#END
