
#######################################################################
#
#                 Cambridge Crystallographic Data Centre
#                                CCDC 
#
#######################################################################
#
# If this CIF has been generated from an entry in the Cambridge 
# Structural Database, then it will include bibliographic, chemical, 
# crystal, experimental, refinement or atomic coordinate data resulting 
# from the CCDC's data processing and validation procedures.
#
#######################################################################

data_ALOSIE
_chemical_name_common            Isoeucommiol
_chemical_formula_moiety         'C9 H16 O4'
_chemical_name_systematic        
5-(2-Hydroxyethyl)-3,4-bis(hydroxymethyl)cyclopent-2-en-1-ol
_symmetry_cell_setting           triclinic
_symmetry_space_group_name_H-M   'P 1'
_symmetry_Int_Tables_number      1
_space_group_name_Hall           'P 1'
loop_
_symmetry_equiv_pos_site_id
_symmetry_equiv_pos_as_xyz
1 x,y,z
_cell_length_a                   5.4158(13)
_cell_length_b                   6.5251(15)
_cell_length_c                   7.1555(17)
_cell_angle_alpha                88.183(2)
_cell_angle_beta                 88.522(3)
_cell_angle_gamma                69.134(3)
_cell_volume                     236.134
_exptl_crystal_colour            colorless
_exptl_crystal_description       block
_chemical_melting_point          '90-91 deg.C'
_cell_formula_units_Z            1
_exptl_crystal_recrystallization_method 'ethyl acetate'
loop_
_atom_site_label
_atom_site_type_symbol
_atom_site_fract_x
_atom_site_fract_y
_atom_site_fract_z
O1 O 0.1574(5) 0.8824(4) 0.2609(4)
H1 H 0.1932 0.9448 0.1686
O2 O 0.7988(5) 0.0598(3) 0.5381(3)
H2 H 0.8870 0.0096 0.4443
O3 O 0.2404(5) 0.1904(4) 0.0263(3)
H3 H 0.1906 0.2505 -0.0754
O4 O 0.8549(5) 0.3719(4) -0.2352(3)
H4 H 0.7997 0.3075 -0.3110
C1 C 0.1931(6) 0.6610(5) 0.2165(4)
H5 H 0.0431 0.6577 0.1445
C2 C 0.2349(7) 0.5073(5) 0.3854(4)
H6 H 0.1296 0.5392 0.4931
C3 C 0.4368(6) 0.3241(5) 0.3626(4)
C4 C 0.5682(5) 0.3175(4) 0.1702(4)
H7 H 0.7592 0.2759 0.1857
C5 C 0.4510(5) 0.5623(4) 0.1030(3)
H8 H 0.5715 0.6322 0.1462
C6 C 0.5238(7) 0.1284(5) 0.4963(4)
H9 H 0.4211 0.1656 0.6115
H10 H 0.4884 0.0076 0.4419
C7 C 0.5164(6) 0.1515(4) 0.0457(4)
H11 H 0.5939 0.1575 -0.0771
H12 H 0.6029 0.0051 0.0983
C8 C 0.4199(6) 0.6129(5) -0.1088(4)
H13 H 0.3435 0.5145 -0.1619
H14 H 0.2948 0.7612 -0.1266
C9 C 0.6720(7) 0.5930(5) -0.2188(4)
H15 H 0.6244 0.6557 -0.3433
H16 H 0.7596 0.6788 -0.1583
loop_
_geom_bond_atom_site_label_1
_geom_bond_atom_site_label_2
_geom_bond_site_symmetry_1
_geom_bond_site_symmetry_2
O1 H1 1_555 1_555
O2 H2 1_555 1_555
O3 H3 1_555 1_555
O4 H4 1_555 1_555
C1 O1 1_555 1_555
H5 C1 1_555 1_555
C2 C1 1_555 1_555
H6 C2 1_555 1_555
C3 C2 1_555 1_555
C4 C3 1_555 1_555
H7 C4 1_555 1_555
C5 C1 1_555 1_555
H8 C5 1_555 1_555
C6 O2 1_555 1_555
H9 C6 1_555 1_555
H10 C6 1_555 1_555
C7 O3 1_555 1_555
H11 C7 1_555 1_555
H12 C7 1_555 1_555
C8 C5 1_555 1_555
H13 C8 1_555 1_555
H14 C8 1_555 1_555
C9 O4 1_555 1_555
H15 C9 1_555 1_555
H16 C9 1_555 1_555
C3 C6 1_555 1_555
C4 C5 1_555 1_555
C4 C7 1_555 1_555
C8 C9 1_555 1_555

#END
