
#######################################################################
#
#                 Cambridge Crystallographic Data Centre
#                                CCDC 
#
#######################################################################
#
# If this CIF has been generated from an entry in the Cambridge 
# Structural Database, then it will include bibliographic, chemical, 
# crystal, experimental, refinement or atomic coordinate data resulting 
# from the CCDC's data processing and validation procedures.
#
#######################################################################

data_ALOVAY
_chemical_compound_source        'marine sponge Phakellia fusca Schmidt'
_chemical_formula_moiety         'C6 H7 F1 N2 O3'
_chemical_name_systematic        1-(2-Hydroxyethyl)-5-fluorouracil
_symmetry_cell_setting           triclinic
_symmetry_space_group_name_H-M   'P -1'
_symmetry_Int_Tables_number      2
_space_group_name_Hall           '-P 1'
loop_
_symmetry_equiv_pos_site_id
_symmetry_equiv_pos_as_xyz
1 x,y,z
2 -x,-y,-z
_cell_length_a                   5.213(2)
_cell_length_b                   8.376(3)
_cell_length_c                   8.943(3)
_cell_angle_alpha                104.690(6)
_cell_angle_beta                 96.583(7)
_cell_angle_gamma                105.118(6)
_cell_volume                     357.753
_exptl_crystal_colour            colorless
_exptl_crystal_description       needle
_chemical_melting_point          '153-154 deg.C'
_cell_formula_units_Z            2
_exptl_crystal_recrystallization_method methanol/dichloromethane
loop_
_atom_site_label
_atom_site_type_symbol
_atom_site_fract_x
_atom_site_fract_y
_atom_site_fract_z
N1 N 0.6966(4) 0.2843(2) 0.1925(2)
N2 N 0.7576(4) 0.0128(2) 0.1396(2)
F1 F 0.2689(3) 0.0276(2) 0.3882(2)
O1 O 0.9912(4) 0.2130(2) 0.0348(2)
O2 O 0.5288(4) -0.1997(3) 0.2328(2)
O3 O 1.2000(4) 0.5652(3) 0.3528(2)
C1 C 0.5121(5) 0.2336(3) 0.2827(3)
C2 C 0.4527(5) 0.0759(3) 0.3001(3)
C3 C 0.5750(5) -0.0504(3) 0.2272(3)
C4 C 0.8278(5) 0.1741(3) 0.1180(3)
C5 C 0.7588(5) 0.4626(3) 0.1802(3)
C6 C 0.9434(5) 0.5926(3) 0.3275(3)
H1 H 0.8371 -0.0579 0.0927
H2 H 1.3087 0.6312 0.3197
H3 H 0.4272 0.3112 0.3324
H4 H 0.5915 0.4913 0.1626
H5 H 0.8450 0.4688 0.0904
H6 H 0.9678 0.7084 0.3187
H7 H 0.8590 0.5842 0.4176
loop_
_geom_bond_atom_site_label_1
_geom_bond_atom_site_label_2
_geom_bond_site_symmetry_1
_geom_bond_site_symmetry_2
N1 C1 1_555 1_555
N2 C3 1_555 1_555
F1 C2 1_555 1_555
O1 C4 1_555 1_555
O2 C3 1_555 1_555
O3 C6 1_555 1_555
C1 C2 1_555 1_555
C2 C3 1_555 1_555
C4 N1 1_555 1_555
C5 N1 1_555 1_555
C6 C5 1_555 1_555
H1 N2 1_555 1_555
H2 O3 1_555 1_555
H3 C1 1_555 1_555
H4 C5 1_555 1_555
H5 C5 1_555 1_555
H6 C6 1_555 1_555
H7 C6 1_555 1_555
N2 C4 1_555 1_555

#END
