
#######################################################################
#
#                 Cambridge Crystallographic Data Centre
#                                CCDC 
#
#######################################################################
#
# If this CIF has been generated from an entry in the Cambridge 
# Structural Database, then it will include bibliographic, chemical, 
# crystal, experimental, refinement or atomic coordinate data resulting 
# from the CCDC's data processing and validation procedures.
#
#######################################################################

data_ALOVUS
_chemical_formula_moiety         'C12 H12 N2'
_chemical_name_systematic        3-Methyl-6-p-tolylpyridazine
_symmetry_cell_setting           monoclinic
_symmetry_space_group_name_H-M   'P 21'
_symmetry_Int_Tables_number      4
_space_group_name_Hall           'P 2yb'
loop_
_symmetry_equiv_pos_site_id
_symmetry_equiv_pos_as_xyz
1 x,y,z
2 -x,1/2+y,-z
_cell_length_a                   10.0880(10)
_cell_length_b                   5.8440(10)
_cell_length_c                   17.511(4)
_cell_angle_alpha                90
_cell_angle_beta                 97.190(10)
_cell_angle_gamma                90
_cell_volume                     1024.23
_cell_formula_units_Z            4
loop_
_atom_site_label
_atom_site_type_symbol
_atom_site_fract_x
_atom_site_fract_y
_atom_site_fract_z
N1 N 0.5132(1) 0.1789(2) 0.9040(1)
N2 N 0.6429(1) 0.2236(2) 0.9263(1)
C1 C 0.8318(1) 0.4709(3) 0.9579(1)
C2 C 0.6863(2) 0.4395(3) 0.9327(1)
C3 C 0.5998(2) 0.6221(3) 0.9165(1)
C4 C 0.4693(2) 0.5789(3) 0.8939(1)
C5 C 0.4268(2) 0.3508(3) 0.8880(1)
C6 C 0.2870(2) 0.2846(3) 0.8650(1)
C7 C 0.2028(2) 0.4111(3) 0.8123(1)
C8 C 0.0727(2) 0.3423(3) 0.7896(1)
C9 C 0.0214(2) 0.1440(3) 0.8183(1)
C10 C 0.1055(2) 0.0216(3) 0.8724(1)
C11 C 0.2342(2) 0.0881(3) 0.8955(1)
C12 C -0.1186(2) 0.0637(4) 0.7920(1)
H1 H 0.8743 0.3240 0.9641
H2 H 0.8439 0.5517 1.0060
H3 H 0.8707 0.5573 0.9197
H4 H 0.6311 0.7718 0.9211
H5 H 0.4089 0.6980 0.8825
H6 H 0.2343 0.5444 0.7918
H7 H 0.0184 0.4307 0.7543
H8 H 0.0732 -0.1099 0.8936
H9 H 0.2874 0.0015 0.9320
H10 H -0.1154 -0.0756 0.7633
H11 H -0.1652 0.1787 0.7600
H12 H -0.1645 0.0369 0.8360
loop_
_geom_bond_atom_site_label_1
_geom_bond_atom_site_label_2
_geom_bond_site_symmetry_1
_geom_bond_site_symmetry_2
N1 N2 1_555 1_555
N2 C2 1_555 1_555
C1 C2 1_555 1_555
C2 C3 1_555 1_555
C3 C4 1_555 1_555
C4 C5 1_555 1_555
C5 N1 1_555 1_555
C6 C5 1_555 1_555
C7 C6 1_555 1_555
C8 C7 1_555 1_555
C9 C8 1_555 1_555
C10 C9 1_555 1_555
C11 C6 1_555 1_555
C12 C9 1_555 1_555
H1 C1 1_555 1_555
H2 C1 1_555 1_555
H3 C1 1_555 1_555
H4 C3 1_555 1_555
H5 C4 1_555 1_555
H6 C7 1_555 1_555
H7 C8 1_555 1_555
H8 C10 1_555 1_555
H9 C11 1_555 1_555
H10 C12 1_555 1_555
H11 C12 1_555 1_555
H12 C12 1_555 1_555
C10 C11 1_555 1_555

#END
