
#######################################################################
#
#                 Cambridge Crystallographic Data Centre
#                                CCDC 
#
#######################################################################
#
# If this CIF has been generated from an entry in the Cambridge 
# Structural Database, then it will include bibliographic, chemical, 
# crystal, experimental, refinement or atomic coordinate data resulting 
# from the CCDC's data processing and validation procedures.
#
#######################################################################

data_ALUBAM
_chemical_formula_moiety         'C19 H11 F2 N5 O6,C2 H6 O1 S1'
_chemical_name_systematic        
"N,N'-bis(4-fluoro-3-nitrophenyl)pyridine-2,6-dicarboxamide dimethyl sulfoxide solvate"
_symmetry_cell_setting           monoclinic
_symmetry_space_group_name_H-M   'C 2/c'
_symmetry_Int_Tables_number      15
_space_group_name_Hall           '-C 2yn'
loop_
_symmetry_equiv_pos_site_id
_symmetry_equiv_pos_as_xyz
1 x,y,z
2 -x,y,1/2-z
3 1/2+x,1/2+y,z
4 1/2-x,1/2+y,1/2-z
5 -x,-y,-z
6 x,-y,1/2+z
7 1/2-x,1/2-y,-z
8 1/2+x,1/2-y,1/2+z
_cell_length_a                   16.1685(3)
_cell_length_b                   11.6159(3)
_cell_length_c                   23.4758(5)
_cell_angle_alpha                90
_cell_angle_beta                 95.9510(10)
_cell_angle_gamma                90
_cell_volume                     4385.27
_exptl_crystal_colour            colorless
_exptl_crystal_description       Block
_cell_formula_units_Z            8
loop_
_atom_site_label
_atom_site_type_symbol
_atom_site_fract_x
_atom_site_fract_y
_atom_site_fract_z
F1 F -0.1705(2) 0.3768(3) 0.54422(16)
F2 F 0.2297(2) 0.3735(3) 0.14211(16)
O1 O -0.1258(4) 0.5071(5) 0.4612(2)
O2 O -0.0152(4) 0.4510(5) 0.4286(3)
O3 O -0.1070(3) -0.1347(4) 0.4496(2)
O4 O 0.1571(3) -0.1450(4) 0.23052(19)
O5 O 0.1111(7) 0.4399(6) 0.2805(4)
O6 O 0.1403(4) 0.5060(5) 0.2032(3)
N1 N -0.0757(4) 0.4327(5) 0.4521(2)
N2 N -0.0395(3) 0.0260(4) 0.4217(2)
H1 H -0.0011 0.0489 0.4002
N3 N 0.0314(3) -0.0994(4) 0.3435(2)
N4 N 0.1099(3) 0.0223(4) 0.2694(2)
H2 H 0.0823 0.0470 0.2974
N5 N 0.1299(4) 0.4269(5) 0.2331(3)
C1 C -0.0581(3) 0.2249(5) 0.4400(3)
H3 H -0.0233 0.2413 0.4108
C2 C -0.0921(4) 0.3150(5) 0.4694(3)
C3 C -0.1407(4) 0.2910(5) 0.5134(3)
C4 C -0.1564(4) 0.1789(6) 0.5268(3)
H4 H -0.1898 0.1629 0.5568
C5 C -0.1248(4) 0.0894(5) 0.4978(2)
H5 H -0.1366 0.0123 0.5078
C6 C -0.0750(3) 0.1114(5) 0.4533(2)
C7 C -0.0572(4) -0.0884(6) 0.4204(3)
C8 C -0.0113(3) -0.1577(5) 0.3805(2)
C9 C -0.0136(4) -0.2785(6) 0.3817(3)
H6 H -0.0441 -0.3179 0.4082
C10 C 0.0291(4) -0.3382(5) 0.3439(3)
H7 H 0.0281 -0.4199 0.3438
C11 C 0.0738(4) -0.2802(6) 0.3058(3)
H8 H 0.1041 -0.3206 0.2795
C12 C 0.0727(4) -0.1604(5) 0.3073(2)
C13 C 0.1181(4) -0.0947(5) 0.2650(3)
C14 C 0.1400(4) 0.1068(6) 0.2348(3)
C15 C 0.1888(4) 0.0852(6) 0.1899(2)
H9 H 0.2022 0.0084 0.1805
C16 C 0.2174(4) 0.1762(6) 0.1596(3)
H10 H 0.2507 0.1615 0.1293
C17 C 0.1982(4) 0.2879(5) 0.1726(2)
C18 C 0.1499(4) 0.3103(5) 0.2158(3)
C19 C 0.1206(4) 0.2212(5) 0.2469(3)
H11 H 0.0870 0.2375 0.2768
C20 C 0.1724(5) 0.3200(7) 0.4389(4)
H12 H 0.1589 0.3719 0.4064
H13 H 0.2267 0.3408 0.4586
H14 H 0.1298 0.3268 0.4655
C21 C 0.2562(4) 0.1932(7) 0.3687(3)
H15 H 0.2628 0.1215 0.3477
H16 H 0.3084 0.2116 0.3919
H17 H 0.2418 0.2558 0.3415
O7 O 0.0950(3) 0.1566(4) 0.37547(18)
S1 S 0.17564(10) 0.17641(15) 0.41396(7)
loop_
_geom_bond_atom_site_label_1
_geom_bond_atom_site_label_2
_geom_bond_site_symmetry_1
_geom_bond_site_symmetry_2
F1 C3 1_555 1_555
F2 C17 1_555 1_555
O1 N1 1_555 1_555
O2 N1 1_555 1_555
O3 C7 1_555 1_555
O4 C13 1_555 1_555
O5 N5 1_555 1_555
O6 N5 1_555 1_555
N1 C2 1_555 1_555
N2 H1 1_555 1_555
N3 C8 1_555 1_555
N4 H2 1_555 1_555
N5 C18 1_555 1_555
C1 H3 1_555 1_555
C2 C1 1_555 1_555
C3 C2 1_555 1_555
C4 C3 1_555 1_555
H4 C4 1_555 1_555
C5 C4 1_555 1_555
H5 C5 1_555 1_555
C6 N2 1_555 1_555
C7 N2 1_555 1_555
C8 C7 1_555 1_555
C9 C8 1_555 1_555
H6 C9 1_555 1_555
C10 C9 1_555 1_555
H7 C10 1_555 1_555
C11 C10 1_555 1_555
H8 C11 1_555 1_555
C12 N3 1_555 1_555
C13 N4 1_555 1_555
C14 N4 1_555 1_555
C15 C14 1_555 1_555
H9 C15 1_555 1_555
C16 C15 1_555 1_555
H10 C16 1_555 1_555
C17 C16 1_555 1_555
C18 C17 1_555 1_555
C19 C14 1_555 1_555
H11 C19 1_555 1_555
C20 H12 1_555 1_555
H13 C20 1_555 1_555
H14 C20 1_555 1_555
C21 H15 1_555 1_555
H16 C21 1_555 1_555
H17 C21 1_555 1_555
O7 S1 1_555 1_555
S1 C20 1_555 1_555
C1 C6 1_555 1_555
C5 C6 1_555 1_555
C11 C12 1_555 1_555
C12 C13 1_555 1_555
C18 C19 1_555 1_555
C21 S1 1_555 1_555

#END
