
#######################################################################
#
#                 Cambridge Crystallographic Data Centre
#                                CCDC 
#
#######################################################################
#
# If this CIF has been generated from an entry in the Cambridge 
# Structural Database, then it will include bibliographic, chemical, 
# crystal, experimental, refinement or atomic coordinate data resulting 
# from the CCDC's data processing and validation procedures.
#
#######################################################################

data_ALUCAL04
_chemical_formula_moiety         'C3 H7 N1 O2'
_chemical_name_systematic        D-Alanine
_symmetry_cell_setting           orthorhombic
_symmetry_space_group_name_H-M   'P 21 21 21'
_symmetry_Int_Tables_number      19
_space_group_name_Hall           'P 2ac 2ab'
loop_
_symmetry_equiv_pos_site_id
_symmetry_equiv_pos_as_xyz
1 x,y,z
2 1/2+x,1/2-y,-z
3 -x,1/2+y,1/2-z
4 1/2-x,-y,1/2+z
_cell_length_a                   6.043(3)
_cell_length_b                   12.337(5)
_cell_length_c                   5.784(3)
_cell_angle_alpha                90
_cell_angle_beta                 90
_cell_angle_gamma                90
_cell_volume                     431.212
_exptl_crystal_colour            colorless
_exptl_crystal_description       'irregular prism'
_cell_formula_units_Z            4
_exptl_crystal_recrystallization_method water
loop_
_atom_site_label
_atom_site_type_symbol
_atom_site_fract_x
_atom_site_fract_y
_atom_site_fract_z
H1 H -0.5643(12) 0.2478(6) -0.6586(15)
H2 H -0.2145(10) 0.1917(6) -0.7898(15)
H3 H -0.4068(11) 0.1496(6) -0.9859(14)
O1 O -0.5503(6) 0.1850(3) -0.2381(7)
N1 N -0.3444(3) 0.13804(15) -0.8143(4)
C1 C -0.5231(4) 0.1614(2) -0.6437(4)
C2 C -0.4397(4) 0.14123(18) -0.3973(5)
H4 H -0.7904(16) 0.1108(12) -0.868(2)
H5 H -0.8589(14) 0.1052(11) -0.571(2)
C3 C -0.7256(5) 0.0918(3) -0.6959(7)
H6 H -0.2879(11) 0.0593(6) -0.8034(15)
O2 O -0.2707(6) 0.0848(3) -0.3713(7)
H7 H -0.6793(17) 0.0043(8) -0.695(2)
loop_
_geom_bond_atom_site_label_1
_geom_bond_atom_site_label_2
_geom_bond_site_symmetry_1
_geom_bond_site_symmetry_2
H1 C1 1_555 1_555
H2 N1 1_555 1_555
H3 N1 1_555 1_555
O1 C2 1_555 1_555
N1 C1 1_555 1_555
C1 C2 1_555 1_555
C2 O2 1_555 1_555
H4 C3 1_555 1_555
H5 C3 1_555 1_555
C3 C1 1_555 1_555
H6 N1 1_555 1_555
H7 C3 1_555 1_555

#END
