
#######################################################################
#
#                 Cambridge Crystallographic Data Centre
#                                CCDC 
#
#######################################################################
#
# If this CIF has been generated from an entry in the Cambridge 
# Structural Database, then it will include bibliographic, chemical, 
# crystal, experimental, refinement or atomic coordinate data resulting 
# from the CCDC's data processing and validation procedures.
#
#######################################################################

data_ALUDIV
_chemical_formula_moiety         'C42 H59 Mg1 N3 O1 Si1'
_chemical_name_systematic        
Isopropyl-(4-t-butyl-2-((bis(3-(dimethylamino)propyl)amino)methyl)-6-triphenylsilylphenolato-N,N',O)-magnesium
_symmetry_cell_setting           monoclinic
_symmetry_space_group_name_H-M   'P 21/c'
_symmetry_Int_Tables_number      14
_space_group_name_Hall           '-P 2ybc'
loop_
_symmetry_equiv_pos_site_id
_symmetry_equiv_pos_as_xyz
1 x,y,z
2 -x,1/2+y,1/2-z
3 -x,-y,-z
4 x,1/2-y,1/2+z
_cell_length_a                   10.7798(7)
_cell_length_b                   14.4804(9)
_cell_length_c                   25.3779(15)
_cell_angle_alpha                90
_cell_angle_beta                 94.550(1)
_cell_angle_gamma                90
_cell_volume                     3948.9
_exptl_crystal_colour            colorless
_exptl_crystal_description       plate
_cell_formula_units_Z            4
_exptl_crystal_recrystallization_method hexanes
loop_
_atom_site_label
_atom_site_type_symbol
_atom_site_fract_x
_atom_site_fract_y
_atom_site_fract_z
Mg1 Mg 0.57409(6) 0.94588(5) 0.13677(3)
Si1 Si 0.28093(5) 0.95616(4) 0.27396(2)
O1 O 0.49196(13) 0.95914(10) 0.20071(5)
N1 N 0.70930(15) 0.85529(12) 0.17815(6)
N2 N 0.46528(17) 0.83919(13) 0.09669(7)
N3 N 0.90737(18) 0.82713(15) 0.03856(7)
C1 C 0.45213(18) 0.96314(13) 0.29120(8)
C2 C 0.53405(18) 0.95154(13) 0.25073(8)
C3 C 0.66026(18) 0.92885(13) 0.26569(8)
C4 C 0.70134(19) 0.92454(14) 0.31893(8)
H1 H 0.7856 0.9083 0.3282
C5 C 0.62429(19) 0.94297(14) 0.35940(8)
C6 C 0.49978(19) 0.96033(14) 0.34398(8)
H2 H 0.4444 0.9708 0.3707
C7 C 0.25389(19) 0.83665(14) 0.24633(8)
C8 C 0.3300(2) 0.76388(14) 0.26582(8)
H3 H 0.3949 0.7763 0.2925
C9 C 0.3133(2) 0.67433(15) 0.24728(9)
H4 H 0.3661 0.6262 0.2612
C10 C 0.2194(2) 0.65527(15) 0.20832(9)
H5 H 0.2080 0.5941 0.1953
C11 C 0.1422(2) 0.72573(15) 0.18839(9)
H6 H 0.0774 0.7128 0.1618
C12 C 0.15979(19) 0.81526(15) 0.20732(8)
H7 H 0.1064 0.8630 0.1933
C13 C 0.20386(18) 0.96221(16) 0.33805(8)
C14 C 0.1893(2) 0.88358(18) 0.36854(9)
H8 H 0.2116 0.8251 0.3552
C15 C 0.1430(3) 0.8887(2) 0.41800(10)
H9 H 0.1340 0.8341 0.4381
C16 C 0.1103(2) 0.9728(3) 0.43768(10)
H10 H 0.0789 0.9763 0.4716
C17 C 0.1228(2) 1.0524(2) 0.40857(10)
H11 H 0.1001 1.1106 0.4222
C18 C 0.1690(2) 1.04644(18) 0.35909(9)
H12 H 0.1770 1.1012 0.3391
C19 C 0.20553(19) 1.04790(14) 0.22989(8)
C20 C 0.0780(2) 1.06591(15) 0.22995(9)
H13 H 0.0291 1.0295 0.2516
C21 C 0.0211(2) 1.13546(17) 0.19929(9)
H14 H -0.0657 1.1460 0.1998
C22 C 0.0911(2) 1.18944(17) 0.16791(9)
H15 H 0.0524 1.2372 0.1469
C23 C 0.2174(2) 1.17371(17) 0.16722(9)
H16 H 0.2658 1.2113 0.1460
C24 C 0.2741(2) 1.10290(15) 0.19760(8)
H17 H 0.3607 1.0919 0.1963
C25 C 0.75352(18) 0.91317(15) 0.22496(8)
H18 H 0.7794 0.9741 0.2119
H19 H 0.8282 0.8834 0.2427
C26 C 0.8030(5) 0.9070(4) 0.42711(19)
H20 H 0.8557 0.9465 0.4069
H21 H 0.8098 0.8429 0.4153
H22 H 0.8303 0.9112 0.4648
C27 C 0.6631(5) 1.0395(3) 0.43919(16)
H23 H 0.7162 1.0787 0.4189
H24 H 0.6936 1.0407 0.4766
H25 H 0.5774 1.0626 0.4353
C28 C 0.5862(5) 0.8788(4) 0.44966(18)
H26 H 0.4994 0.8991 0.4441
H27 H 0.6139 0.8835 0.4873
H28 H 0.5928 0.8145 0.4381
C29 C 0.6666(12) 0.9389(8) 0.4182(7)
C30 C 0.6522(2) 0.76832(14) 0.19657(8)
H29 H 0.5983 0.7839 0.2251
H30 H 0.7194 0.7276 0.2119
C31 C 0.5754(2) 0.71495(15) 0.15397(8)
H31 H 0.5565 0.6533 0.1682
H32 H 0.6268 0.7053 0.1238
C32 C 0.4532(2) 0.75993(15) 0.13323(9)
H33 H 0.4003 0.7123 0.1147
H34 H 0.4095 0.7815 0.1638
C33 C 0.3399(2) 0.87939(19) 0.08460(10)
H35 H 0.3449 0.9300 0.0592
H36 H 0.3085 0.9030 0.1172
H37 H 0.2834 0.8317 0.0694
C34 C 0.5124(2) 0.80827(18) 0.04658(9)
H38 H 0.4586 0.7592 0.0311
H39 H 0.5973 0.7847 0.0534
H40 H 0.5125 0.8604 0.0220
C35 C 0.81781(19) 0.83036(15) 0.14834(8)
H41 H 0.7908 0.7845 0.1208
H42 H 0.8818 0.8007 0.1729
C36 C 0.8763(2) 0.91201(15) 0.12208(8)
H43 H 0.9212 0.9507 0.1495
H44 H 0.8098 0.9502 0.1039
C37 C 0.9667(2) 0.88145(16) 0.08212(8)
H45 H 1.0054 0.9369 0.0675
H46 H 1.0338 0.8442 0.1006
C38 C 0.8288(3) 0.8847(2) 0.00261(10)
H47 H 0.8801 0.9315 -0.0132
H48 H 0.7656 0.9152 0.0222
H49 H 0.7880 0.8462 -0.0254
C39 C 1.0018(3) 0.7816(2) 0.00980(11)
H50 H 0.9614 0.7456 -0.0194
H51 H 1.0514 0.7404 0.0338
H52 H 1.0562 0.8283 -0.0043
C40 C 0.4878(2) 1.12588(18) 0.09519(10)
H53 H 0.5013 1.1510 0.1310
H54 H 0.4094 1.0913 0.0918
H55 H 0.4838 1.1766 0.0696
C41 C 0.5955(2) 1.06126(16) 0.08441(9)
H56 H 0.5781 1.0375 0.0476
C42 C 0.7132(2) 1.12089(18) 0.08442(12)
H57 H 0.6959 1.1753 0.0621
H58 H 0.7803 1.0848 0.0706
H59 H 0.7385 1.1407 0.1206
C43? C 0.7523(6) 0.8654(4) 0.4340(2)
C44? C 0.7720(6) 1.0357(4) 0.4211(2)
C45? C 0.5839(5) 0.9693(5) 0.45370(19)
C46? C 0.6828(16) 0.9553(10) 0.4172(8)
H60? H 0.8169 0.8531 0.4098
H61? H 0.6932 0.8138 0.4327
H62? H 0.7908 0.8721 0.4701
H63? H 0.8373 1.0260 0.3969
H64? H 0.8099 1.0406 0.4574
H65? H 0.7268 1.0928 0.4116
H66? H 0.5353 1.0243 0.4430
H67? H 0.6218 0.9777 0.4898
H68? H 0.5291 0.9152 0.4525
loop_
_geom_bond_atom_site_label_1
_geom_bond_atom_site_label_2
_geom_bond_site_symmetry_1
_geom_bond_site_symmetry_2
Mg1 O1 1_555 1_555
Si1 C1 1_555 1_555
O1 C2 1_555 1_555
N1 Mg1 1_555 1_555
N2 Mg1 1_555 1_555
N3 C37 1_555 1_555
C1 C2 1_555 1_555
C2 C3 1_555 1_555
C3 C4 1_555 1_555
C4 H1 1_555 1_555
C5 C4 1_555 1_555
C6 C1 1_555 1_555
H2 C6 1_555 1_555
C7 Si1 1_555 1_555
C8 C7 1_555 1_555
H3 C8 1_555 1_555
C9 C8 1_555 1_555
H4 C9 1_555 1_555
C10 C9 1_555 1_555
H5 C10 1_555 1_555
C11 C10 1_555 1_555
H6 C11 1_555 1_555
C12 C7 1_555 1_555
H7 C12 1_555 1_555
C13 Si1 1_555 1_555
C14 C13 1_555 1_555
H8 C14 1_555 1_555
C15 C14 1_555 1_555
H9 C15 1_555 1_555
C16 C15 1_555 1_555
H10 C16 1_555 1_555
C17 C16 1_555 1_555
H11 C17 1_555 1_555
C18 C13 1_555 1_555
H12 C18 1_555 1_555
C19 Si1 1_555 1_555
C20 C19 1_555 1_555
H13 C20 1_555 1_555
C21 C20 1_555 1_555
H14 C21 1_555 1_555
C22 C21 1_555 1_555
H15 C22 1_555 1_555
C23 C22 1_555 1_555
H16 C23 1_555 1_555
C24 C19 1_555 1_555
H17 C24 1_555 1_555
C25 N1 1_555 1_555
H18 C25 1_555 1_555
H19 C25 1_555 1_555
C26 H20 1_555 1_555
H21 C26 1_555 1_555
H22 C26 1_555 1_555
C27 H23 1_555 1_555
H24 C27 1_555 1_555
H25 C27 1_555 1_555
C28 H26 1_555 1_555
H27 C28 1_555 1_555
H28 C28 1_555 1_555
C29 C5 1_555 1_555
C30 N1 1_555 1_555
H29 C30 1_555 1_555
H30 C30 1_555 1_555
C31 C30 1_555 1_555
H31 C31 1_555 1_555
H32 C31 1_555 1_555
C32 N2 1_555 1_555
H33 C32 1_555 1_555
H34 C32 1_555 1_555
C33 N2 1_555 1_555
H35 C33 1_555 1_555
H36 C33 1_555 1_555
H37 C33 1_555 1_555
C34 N2 1_555 1_555
H38 C34 1_555 1_555
H39 C34 1_555 1_555
H40 C34 1_555 1_555
C35 N1 1_555 1_555
H41 C35 1_555 1_555
H42 C35 1_555 1_555
C36 C35 1_555 1_555
H43 C36 1_555 1_555
H44 C36 1_555 1_555
C37 C36 1_555 1_555
H45 C37 1_555 1_555
H46 C37 1_555 1_555
C38 N3 1_555 1_555
H47 C38 1_555 1_555
H48 C38 1_555 1_555
H49 C38 1_555 1_555
C39 N3 1_555 1_555
H50 C39 1_555 1_555
H51 C39 1_555 1_555
H52 C39 1_555 1_555
C40 H53 1_555 1_555
H54 C40 1_555 1_555
H55 C40 1_555 1_555
C41 Mg1 1_555 1_555
H56 C41 1_555 1_555
C42 C41 1_555 1_555
H57 C42 1_555 1_555
H58 C42 1_555 1_555
H59 C42 1_555 1_555
C3 C25 1_555 1_555
C5 C6 1_555 1_555
C11 C12 1_555 1_555
C17 C18 1_555 1_555
C23 C24 1_555 1_555
C26 C29 1_555 1_555
C27 C29 1_555 1_555
C28 C29 1_555 1_555
C31 C32 1_555 1_555
C40 C41 1_555 1_555

#END
