
#######################################################################
#
#                 Cambridge Crystallographic Data Centre
#                                CCDC 
#
#######################################################################
#
# If this CIF has been generated from an entry in the Cambridge 
# Structural Database, then it will include bibliographic, chemical, 
# crystal, experimental, refinement or atomic coordinate data resulting 
# from the CCDC's data processing and validation procedures.
#
#######################################################################

data_ALUQON
_chemical_formula_moiety         'C40 H34 O8'
_chemical_name_systematic        
(-)-2-Ethynyl-1,4,6,9,10,13,15,18-octamethoxy(7)helicene
_symmetry_cell_setting           orthorhombic
_symmetry_space_group_name_H-M   'P 21 21 21'
_symmetry_Int_Tables_number      19
_space_group_name_Hall           'P 2ac 2ab'
loop_
_symmetry_equiv_pos_site_id
_symmetry_equiv_pos_as_xyz
1 x,y,z
2 1/2-x,-y,1/2+z
3 -x,1/2+y,1/2-z
4 1/2+x,1/2-y,-z
_cell_length_a                   12.2960(7)
_cell_length_b                   14.3164(9)
_cell_length_c                   18.0668(11)
_cell_angle_alpha                90
_cell_angle_beta                 90
_cell_angle_gamma                90
_cell_volume                     3180.38
_exptl_crystal_colour            yellow
_exptl_crystal_description       block
_cell_formula_units_Z            4
loop_
_atom_site_label
_atom_site_type_symbol
_atom_site_fract_x
_atom_site_fract_y
_atom_site_fract_z
O1 O 0.83290(9) 0.62199(8) 1.00997(6)
O2 O 0.71878(11) 0.82104(9) 0.75958(7)
O3 O 1.05246(11) 0.64276(9) 0.69296(7)
O4 O 1.15601(16) 0.33466(15) 0.97143(9)
O5 O 1.00685(13) 0.30882(10) 1.08741(7)
O6 O 0.51192(11) 0.51907(9) 1.07856(7)
O7 O 0.43525(11) 0.63070(11) 0.82498(7)
O8 O 0.79739(10) 0.40404(8) 0.80269(6)
C1 C 0.80208(14) 0.66783(12) 0.94620(9)
C2 C 0.72797(14) 0.73911(12) 0.95282(10)
C3 C 0.69402(14) 0.78931(13) 0.89014(10)
H1 H 0.6384 0.8351 0.8944
C4 C 0.74132(15) 0.77208(13) 0.82303(10)
C5 C 0.82303(14) 0.70326(12) 0.81572(9)
C6 C 0.88776(15) 0.70019(13) 0.74990(10)
H2 H 0.8696 0.7381 0.7085
C7 C 0.97507(15) 0.64285(12) 0.74720(10)
C8 C 0.99274(14) 0.57294(12) 0.80288(10)
C9 C 1.08459(15) 0.51356(14) 0.79844(11)
H3 H 1.1314 0.5166 0.7567
C10 C 1.10564(16) 0.45249(15) 0.85381(11)
H4 H 1.1726 0.4194 0.8542
C11 C 1.02935(16) 0.43731(14) 0.91097(10)
C12 C 1.05370(19) 0.37435(16) 0.97037(11)
C13 C 0.98054(18) 0.35774(14) 1.02388(10)
C14 C 0.87260(17) 0.39343(13) 1.01795(10)
C15 C 0.79731(18) 0.37892(12) 1.07633(10)
H5 H 0.8155 0.3388 1.1164
C16 C 0.69934(16) 0.42242(12) 1.07482(10)
H6 H 0.6549 0.4222 1.1178
C17 C 0.66234(15) 0.46806(12) 1.01033(10)
C18 C 0.56105(16) 0.51652(12) 1.01059(10)
C19 C 0.52241(15) 0.55859(12) 0.94897(10)
H7 H 0.4598 0.5973 0.9517
C20 C 0.57583(15) 0.54467(12) 0.87985(10)
C21 C 0.52818(15) 0.57889(13) 0.81394(11)
C22 C 0.57127(16) 0.55830(14) 0.74668(11)
H8 H 0.5394 0.5828 0.7029
C23 C 0.66333(15) 0.50039(13) 0.74243(10)
H9 H 0.6913 0.4836 0.6953
C24 C 0.71322(15) 0.46792(12) 0.80474(10)
C25 C 0.67576(15) 0.49458(11) 0.87629(9)
C26 C 0.72777(15) 0.46891(11) 0.94586(9)
C27 C 0.84176(15) 0.44798(11) 0.95596(9)
C28 C 0.92826(15) 0.48397(12) 0.90950(9)
C29 C 0.92040(14) 0.56553(12) 0.86312(9)
C30 C 0.84551(13) 0.64279(11) 0.87594(9)
C31 C 0.68826(16) 0.76548(13) 1.02468(11)
C32 C 0.6556(2) 0.79020(17) 1.08190(13)
H10 H 0.6290 0.8104 1.1286
C33 C 0.92640(17) 0.65767(17) 1.04578(12)
H11 H 0.9408 0.6213 1.0907
H12 H 0.9142 0.7232 1.0591
H13 H 0.9890 0.6533 1.0124
C34 C 0.63755(19) 0.89160(17) 0.76320(12)
H14 H 0.6301 0.9213 0.7146
H15 H 0.6586 0.9386 0.7999
H16 H 0.5680 0.8635 0.7775
C35 C 1.04154(18) 0.70975(15) 0.63483(11)
H17 H 1.1020 0.7028 0.6000
H18 H 1.0425 0.7729 0.6558
H19 H 0.9726 0.6995 0.6088
C36 C 1.2319(3) 0.3855(5) 1.0151(2)
H20 H 1.3027 0.3541 1.0137
H21 H 1.2061 0.3885 1.0663
H22 H 1.2394 0.4489 0.9953
C37 C 1.0256(4) 0.21217(19) 1.07902(15)
H23 H 1.0413 0.1845 1.1275
H24 H 1.0877 0.2024 1.0459
H25 H 0.9608 0.1826 1.0579
C38 C 0.42266(18) 0.58116(16) 1.08763(11)
H26 H 0.3948 0.5763 1.1383
H27 H 0.3650 0.5646 1.0526
H28 H 0.4467 0.6453 1.0783
C39 C 0.38622(19) 0.67280(18) 0.76218(12)
H29 H 0.3215 0.7077 0.7777
H30 H 0.3651 0.6242 0.7268
H31 H 0.4381 0.7155 0.7388
C40 C 0.84205(17) 0.38380(14) 0.73152(9)
H32 H 0.9013 0.3385 0.7368
H33 H 0.8703 0.4414 0.7094
H34 H 0.7852 0.3577 0.6996
loop_
_geom_bond_atom_site_label_1
_geom_bond_atom_site_label_2
_geom_bond_site_symmetry_1
_geom_bond_site_symmetry_2
O1 C1 1_555 1_555
O2 C4 1_555 1_555
O3 C7 1_555 1_555
O4 C12 1_555 1_555
O5 C13 1_555 1_555
O6 C18 1_555 1_555
O7 C21 1_555 1_555
O8 C24 1_555 1_555
C1 C2 1_555 1_555
C2 C3 1_555 1_555
C3 H1 1_555 1_555
C4 C3 1_555 1_555
C5 C4 1_555 1_555
C6 C5 1_555 1_555
H2 C6 1_555 1_555
C7 C6 1_555 1_555
C8 C7 1_555 1_555
C9 C8 1_555 1_555
H3 C9 1_555 1_555
C10 C9 1_555 1_555
H4 C10 1_555 1_555
C11 C10 1_555 1_555
C12 C11 1_555 1_555
C13 C12 1_555 1_555
C14 C13 1_555 1_555
C15 C14 1_555 1_555
H5 C15 1_555 1_555
C16 C15 1_555 1_555
H6 C16 1_555 1_555
C17 C16 1_555 1_555
C18 C17 1_555 1_555
C19 C18 1_555 1_555
H7 C19 1_555 1_555
C20 C19 1_555 1_555
C21 C20 1_555 1_555
C22 C21 1_555 1_555
H8 C22 1_555 1_555
C23 C22 1_555 1_555
H9 C23 1_555 1_555
C24 C23 1_555 1_555
C25 C20 1_555 1_555
C26 C17 1_555 1_555
C27 C14 1_555 1_555
C28 C11 1_555 1_555
C29 C8 1_555 1_555
C30 C1 1_555 1_555
C31 C2 1_555 1_555
C32 C31 1_555 1_555
H10 C32 1_555 1_555
C33 O1 1_555 1_555
H11 C33 1_555 1_555
H12 C33 1_555 1_555
H13 C33 1_555 1_555
C34 O2 1_555 1_555
H14 C34 1_555 1_555
H15 C34 1_555 1_555
H16 C34 1_555 1_555
C35 O3 1_555 1_555
H17 C35 1_555 1_555
H18 C35 1_555 1_555
H19 C35 1_555 1_555
C36 O4 1_555 1_555
H20 C36 1_555 1_555
H21 C36 1_555 1_555
H22 C36 1_555 1_555
C37 O5 1_555 1_555
H23 C37 1_555 1_555
H24 C37 1_555 1_555
H25 C37 1_555 1_555
C38 O6 1_555 1_555
H26 C38 1_555 1_555
H27 C38 1_555 1_555
H28 C38 1_555 1_555
C39 O7 1_555 1_555
H29 C39 1_555 1_555
H30 C39 1_555 1_555
H31 C39 1_555 1_555
C40 O8 1_555 1_555
H32 C40 1_555 1_555
H33 C40 1_555 1_555
H34 C40 1_555 1_555
C5 C30 1_555 1_555
C24 C25 1_555 1_555
C25 C26 1_555 1_555
C26 C27 1_555 1_555
C27 C28 1_555 1_555
C28 C29 1_555 1_555
C29 C30 1_555 1_555

#END
