
#######################################################################
#
#                 Cambridge Crystallographic Data Centre
#                                CCDC 
#
#######################################################################
#
# If this CIF has been generated from an entry in the Cambridge 
# Structural Database, then it will include bibliographic, chemical, 
# crystal, experimental, refinement or atomic coordinate data resulting 
# from the CCDC's data processing and validation procedures.
#
#######################################################################

data_ALURAA
_chemical_formula_moiety         'C38 H32 O9'
_chemical_name_systematic        
(+-)-2-Formyl-1-hydroxy-4,6,9,10,13,15,18-heptamethoxy(7)helicene
_symmetry_cell_setting           monoclinic
_symmetry_space_group_name_H-M   'P 21/n'
_symmetry_Int_Tables_number      14
_space_group_name_Hall           '-P 2yn'
loop_
_symmetry_equiv_pos_site_id
_symmetry_equiv_pos_as_xyz
1 x,y,z
2 1/2+x,1/2-y,1/2+z
3 -x,-y,-z
4 1/2-x,1/2+y,1/2-z
_cell_length_a                   12.5856(6)
_cell_length_b                   13.9391(7)
_cell_length_c                   17.2984(9)
_cell_angle_alpha                90
_cell_angle_beta                 102.3280(10)
_cell_angle_gamma                90
_cell_volume                     2964.72
_exptl_crystal_colour            orange
_exptl_crystal_description       block
_cell_formula_units_Z            4
loop_
_atom_site_label
_atom_site_type_symbol
_atom_site_fract_x
_atom_site_fract_y
_atom_site_fract_z
O1 O 0.18748(8) 0.12448(7) 0.04396(5)
O2 O 0.05551(9) 0.15952(8) 0.13760(6)
O3 O -0.17056(7) 0.06382(8) -0.19694(6)
O4 O 0.15317(8) -0.01425(7) -0.30623(6)
O5 O 0.60439(7) 0.15370(8) -0.04453(6)
O6 O 0.58117(7) 0.28376(8) 0.07343(5)
O7 O 0.07079(8) 0.42056(8) 0.11563(6)
O8 O -0.18874(8) 0.34377(9) -0.13728(6)
O9 O 0.22566(8) 0.30388(7) -0.19208(5)
C1 C 0.09842(10) 0.12044(10) -0.01535(8)
C2 C -0.00572(11) 0.12519(10) 0.00048(8)
C3 C -0.09875(11) 0.11094(11) -0.06064(8)
C4 C -0.08709(11) 0.08422(10) -0.13414(8)
C5 C 0.01870(10) 0.07719(9) -0.15138(7)
C6 C 0.03030(11) 0.03901(10) -0.22552(8)
C7 C 0.13138(11) 0.02729(10) -0.24024(7)
C8 C 0.22618(10) 0.06402(10) -0.18708(7)
C9 C 0.33122(11) 0.05011(10) -0.20323(8)
C10 C 0.42053(11) 0.08505(11) -0.15270(8)
C11 C 0.40865(10) 0.14823(10) -0.09052(8)
C12 C 0.50267(10) 0.18700(10) -0.03823(8)
C13 C 0.49217(11) 0.25018(10) 0.01907(8)
C14 C 0.38686(10) 0.28462(10) 0.02546(7)
C15 C 0.37480(11) 0.34423(11) 0.08956(8)
C16 C 0.27423(11) 0.37263(11) 0.09736(8)
C17 C 0.18206(11) 0.35621(10) 0.03501(8)
C18 C 0.07438(11) 0.38282(10) 0.04324(8)
C19 C -0.01369(12) 0.36636(10) -0.01578(8)
C20 C 0.00114(11) 0.33663(10) -0.09190(8)
C21 C -0.08948(11) 0.33243(10) -0.15706(9)
C22 C -0.07389(12) 0.31799(11) -0.23220(9)
C23 C 0.03209(12) 0.30812(10) -0.24557(8)
C24 C 0.12074(11) 0.30717(9) -0.18306(8)
C25 C 0.10624(11) 0.31483(9) -0.10377(8)
C26 C 0.19462(10) 0.30901(9) -0.03440(7)
C27 C 0.29406(10) 0.25585(10) -0.03096(7)
C28 C 0.30406(10) 0.17347(10) -0.08002(7)
C29 C 0.21399(10) 0.11518(9) -0.11923(7)
C30 C 0.11113(10) 0.10701(9) -0.09450(7)
C31 C -0.01900(12) 0.14639(11) 0.07976(8)
C32 C -0.27790(11) 0.06564(13) -0.18253(9)
C33 C 0.06674(13) -0.06418(13) -0.35718(9)
C34 C 0.63702(15) 0.07199(16) 0.00566(12)
C35 C 0.65069(14) 0.34574(15) 0.04041(10)
C36 C -0.03396(13) 0.43240(13) 0.13295(9)
C37 C -0.28168(13) 0.34105(14) -0.20024(11)
C38 C 0.24386(13) 0.28835(12) -0.26965(8)
H1 H 0.1599(16) 0.1385(15) 0.0874(13)
H2 H -0.1693(14) 0.1185(13) -0.0505(10)
H3 H -0.0325(12) 0.0165(11) -0.2609(9)
H4 H 0.3366(13) 0.0138(13) -0.2472(11)
H5 H 0.4914(14) 0.0696(13) -0.1602(10)
H6 H 0.4392(13) 0.3582(12) 0.1291(10)
H7 H 0.2639(13) 0.4036(13) 0.1420(10)
H8 H -0.0861(14) 0.3787(13) -0.0074(10)
H9 H -0.1361(14) 0.3166(13) -0.2756(11)
H10 H 0.0410(13) 0.3034(12) -0.3010(10)
H11 H -0.0956(14) 0.1539(12) 0.0860(10)
H12 H -0.2938(14) 0.1299(14) -0.1627(10)
H13 H -0.3249(14) 0.0515(14) -0.2343(11)
H14 H -0.2852(14) 0.0134(14) -0.1435(11)
H15 H 0.1003(14) -0.0952(14) -0.3972(11)
H16 H 0.0365(14) -0.1131(14) -0.3256(10)
H17 H 0.0116(14) -0.0214(14) -0.3847(10)
H18 H 0.577(2) 0.016(2) -0.0173(18)
H19 H 0.6335(19) 0.0884(19) 0.0578(15)
H20 H 0.7091(16) 0.0519(14) 0.0018(11)
H21 H 0.6851(18) 0.3130(17) 0.0032(14)
H22 H 0.6090(19) 0.4027(19) 0.0127(14)
H23 H 0.7026(15) 0.3727(14) 0.0825(11)
H24 H -0.0192(14) 0.4655(13) 0.1851(11)
H25 H -0.0692(14) 0.3706(13) 0.1343(10)
H26 H -0.0804(14) 0.4749(13) 0.0948(10)
H27 H -0.2830(16) 0.2796(16) -0.2316(12)
H28 H -0.2828(16) 0.3960(16) -0.2343(12)
H29 H -0.3429(18) 0.3420(16) -0.1744(13)
H30 H 0.2067(15) 0.2315(14) -0.2938(11)
H31 H 0.2155(14) 0.3450(13) -0.3061(10)
H32 H 0.3257(13) 0.2818(12) -0.2627(9)
loop_
_geom_bond_atom_site_label_1
_geom_bond_atom_site_label_2
_geom_bond_site_symmetry_1
_geom_bond_site_symmetry_2
O1 C1 1_555 1_555
O2 C31 1_555 1_555
O3 C4 1_555 1_555
O4 C7 1_555 1_555
O5 C12 1_555 1_555
O6 C13 1_555 1_555
O7 C18 1_555 1_555
O8 C21 1_555 1_555
O9 C24 1_555 1_555
C1 C2 1_555 1_555
C2 C3 1_555 1_555
C3 C4 1_555 1_555
C4 C5 1_555 1_555
C5 C6 1_555 1_555
C6 C7 1_555 1_555
C7 C8 1_555 1_555
C8 C9 1_555 1_555
C9 C10 1_555 1_555
C10 C11 1_555 1_555
C11 C12 1_555 1_555
C12 C13 1_555 1_555
C13 C14 1_555 1_555
C14 C15 1_555 1_555
C15 C16 1_555 1_555
C16 C17 1_555 1_555
C17 C18 1_555 1_555
C18 C19 1_555 1_555
C19 C20 1_555 1_555
C20 C21 1_555 1_555
C21 C22 1_555 1_555
C22 C23 1_555 1_555
C23 C24 1_555 1_555
C24 C25 1_555 1_555
C25 C20 1_555 1_555
C26 C17 1_555 1_555
C27 C14 1_555 1_555
C28 C11 1_555 1_555
C29 C8 1_555 1_555
C30 C1 1_555 1_555
C31 C2 1_555 1_555
C32 O3 1_555 1_555
C33 O4 1_555 1_555
C34 O5 1_555 1_555
C35 O6 1_555 1_555
C36 O7 1_555 1_555
C37 O8 1_555 1_555
C38 O9 1_555 1_555
H1 O1 1_555 1_555
H2 C3 1_555 1_555
H3 C6 1_555 1_555
H4 C9 1_555 1_555
H5 C10 1_555 1_555
H6 C15 1_555 1_555
H7 C16 1_555 1_555
H8 C19 1_555 1_555
H9 C22 1_555 1_555
H10 C23 1_555 1_555
H11 C31 1_555 1_555
H12 C32 1_555 1_555
H13 C32 1_555 1_555
H14 C32 1_555 1_555
H15 C33 1_555 1_555
H16 C33 1_555 1_555
H17 C33 1_555 1_555
H18 C34 1_555 1_555
H19 C34 1_555 1_555
H20 C34 1_555 1_555
H21 C35 1_555 1_555
H22 C35 1_555 1_555
H23 C35 1_555 1_555
H24 C36 1_555 1_555
H25 C36 1_555 1_555
H26 C36 1_555 1_555
H27 C37 1_555 1_555
H28 C37 1_555 1_555
H29 C37 1_555 1_555
H30 C38 1_555 1_555
H31 C38 1_555 1_555
H32 C38 1_555 1_555
C5 C30 1_555 1_555
C25 C26 1_555 1_555
C26 C27 1_555 1_555
C27 C28 1_555 1_555
C28 C29 1_555 1_555
C29 C30 1_555 1_555

#END
