
#######################################################################
#
#                 Cambridge Crystallographic Data Centre
#                                CCDC 
#
#######################################################################
#
# If this CIF has been generated from an entry in the Cambridge 
# Structural Database, then it will include bibliographic, chemical, 
# crystal, experimental, refinement or atomic coordinate data resulting 
# from the CCDC's data processing and validation procedures.
#
#######################################################################

data_AMABAR
_chemical_formula_moiety         'C10 H9 N1 S2'
_chemical_name_systematic        N-(2-Thienylmethylidene)-2-thienylmethylamine
_symmetry_cell_setting           orthorhombic
_symmetry_space_group_name_H-M   'P n a 21'
_symmetry_Int_Tables_number      33
_space_group_name_Hall           'P 2c -2n'
loop_
_symmetry_equiv_pos_site_id
_symmetry_equiv_pos_as_xyz
1 x,y,z
2 -x,-y,1/2+z
3 1/2+x,1/2-y,z
4 1/2-x,1/2+y,1/2+z
_cell_length_a                   8.1365(10)
_cell_length_b                   11.3317(16)
_cell_length_c                   21.629(3)
_cell_angle_alpha                90
_cell_angle_beta                 90
_cell_angle_gamma                90
_cell_volume                     1994.2
_exptl_crystal_colour            'light yellow'
_exptl_crystal_description       plate
_chemical_melting_point          54.6-55.0deg.C
_cell_formula_units_Z            8
_exptl_crystal_recrystallization_method acetone
loop_
_atom_site_label
_atom_site_type_symbol
_atom_site_fract_x
_atom_site_fract_y
_atom_site_fract_z
S1 S 0.3721(4) 0.7044(2) 0.16799(11)
S2 S 0.3000(4) 0.3002(2) 0.00710(13)
C1 C 0.2552(14) 0.5816(7) 0.1849(4)
C2 C 0.2676(14) 0.5553(8) 0.2477(5)
H1 H 0.2156 0.4897 0.2668
C3 C 0.3682(15) 0.6389(10) 0.2802(5)
H2 H 0.3886 0.6359 0.3234
C4 C 0.4291(15) 0.7206(9) 0.2429(5)
H3 H 0.4983 0.7827 0.2569
C5 C 0.1614(15) 0.5202(8) 0.1397(4)
H4 H 0.0886 0.4588 0.1518
C6 C 0.0820(15) 0.4824(9) 0.0387(5)
H5 H 0.0031 0.5361 0.0181
H6 H 0.0177 0.4218 0.0611
C7 C 0.1847(15) 0.4217(9) -0.0105(4)
C8 C 0.1978(15) 0.4478(9) -0.0714(5)
H7 H 0.1434 0.5129 -0.0900
C9 C 0.2985(14) 0.3702(9) -0.1043(5)
H8 H 0.3143 0.3739 -0.1478
C10 C 0.3739(17) 0.2859(10) -0.0659(6)
H9 H 0.4536 0.2298 -0.0787
N1 N 0.1754(13) 0.5482(7) 0.0822(4)
S3 S 0.7354(4) 0.5362(2) 0.91933(13)
S4 S 1.1843(5) 0.5408(3) 0.75703(13)
C11 C 0.8133(14) 0.6767(8) 0.9307(4)
C12 C 0.7582(15) 0.7204(8) 0.9872(4)
H10 H 0.7837 0.7972 1.0020
C13 C 0.6614(15) 0.6398(10) 1.0198(5)
H11 H 0.6173 0.6559 1.0595
C14 C 0.6366(15) 0.5391(10) 0.9903(5)
H12 H 0.5724 0.4759 1.0062
C15 C 0.9025(13) 0.7370(9) 0.8828(4)
H13 H 0.9322 0.8172 0.8889
C16 C 1.0319(14) 0.7523(9) 0.7858(4)
H14 H 1.1101 0.8057 0.8069
H15 H 0.9526 0.8022 0.7629
C17 C 1.1232(13) 0.6814(8) 0.7411(4)
C18 C 1.1798(10) 0.7220(6) 0.6780(3)
H16 H 1.1592 0.7960 0.6589
C19 C 1.2730(15) 0.6228(10) 0.6526(5)
H17 H 1.3247 0.6259 0.6133
C20 C 1.2802(15) 0.5256(9) 0.6896(5)
H18 H 1.3353 0.4552 0.6778
N2 N 0.9434(13) 0.6865(6) 0.8320(4)
loop_
_geom_bond_atom_site_label_1
_geom_bond_atom_site_label_2
_geom_bond_site_symmetry_1
_geom_bond_site_symmetry_2
S1 C1 1_555 1_555
S2 C7 1_555 1_555
S3 C11 1_555 1_555
S4 C17 1_555 1_555
C1 C2 1_555 1_555
C2 H1 1_555 1_555
C3 C2 1_555 1_555
H2 C3 1_555 1_555
C4 S1 1_555 1_555
H3 C4 1_555 1_555
C5 C1 1_555 1_555
H4 C5 1_555 1_555
C6 H5 1_555 1_555
H6 C6 1_555 1_555
C7 C6 1_555 1_555
C8 C7 1_555 1_555
H7 C8 1_555 1_555
C9 C8 1_555 1_555
H8 C9 1_555 1_555
C10 S2 1_555 1_555
H9 C10 1_555 1_555
C11 C12 1_555 1_555
C12 H10 1_555 1_555
C13 C12 1_555 1_555
H11 C13 1_555 1_555
C14 S3 1_555 1_555
H12 C14 1_555 1_555
C15 C11 1_555 1_555
H13 C15 1_555 1_555
C16 H14 1_555 1_555
H15 C16 1_555 1_555
C17 C16 1_555 1_555
C18 C17 1_555 1_555
H16 C18 1_555 1_555
C19 C18 1_555 1_555
H17 C19 1_555 1_555
C20 S4 1_555 1_555
H18 C20 1_555 1_555
N1 C5 1_555 1_555
N2 C15 1_555 1_555
C3 C4 1_555 1_555
C6 N1 1_555 1_555
C9 C10 1_555 1_555
C13 C14 1_555 1_555
C16 N2 1_555 1_555
C19 C20 1_555 1_555

#END
