
#######################################################################
#
#                 Cambridge Crystallographic Data Centre
#                                CCDC 
#
#######################################################################
#
# If this CIF has been generated from an entry in the Cambridge 
# Structural Database, then it will include bibliographic, chemical, 
# crystal, experimental, refinement or atomic coordinate data resulting 
# from the CCDC's data processing and validation procedures.
#
#######################################################################

data_AMAJON
_chemical_formula_moiety         'C9 H11 F2 N3 O4'
_chemical_name_systematic        
N^1^-(3-Deoxy-3,3-difluoro-D-arabinofuranosyl)cytosine
_symmetry_cell_setting           orthorhombic
_symmetry_space_group_name_H-M   'P 21 21 2'
_symmetry_Int_Tables_number      18
_space_group_name_Hall           'P 2 2ab'
loop_
_symmetry_equiv_pos_site_id
_symmetry_equiv_pos_as_xyz
1 x,y,z
2 -x,-y,z
3 1/2-x,1/2+y,-z
4 1/2+x,1/2-y,-z
_cell_length_a                   7.9175(8)
_cell_length_b                   19.677(2)
_cell_length_c                   6.9300(7)
_cell_angle_alpha                90
_cell_angle_beta                 90
_cell_angle_gamma                90
_cell_volume                     1079.64
_exptl_crystal_colour            colorless
_chemical_melting_point          220-223deg.C
_cell_formula_units_Z            4
loop_
_atom_site_label
_atom_site_type_symbol
_atom_site_fract_x
_atom_site_fract_y
_atom_site_fract_z
O1 O 0.1392(2) 0.15666(7) 0.6856(2)
O2 O 0.4849(2) 0.09812(8) 0.7018(2)
O3 O 0.1691(2) -0.04710(7) 0.8711(2)
O4 O 0.5992(4) 0.27131(14) 0.6522(5)
N1 N 0.2676(2) 0.02305(7) 0.6376(2)
N2 N 0.1318(2) -0.08089(8) 0.5619(2)
N3 N 0.1111(3) -0.11403(12) 0.2454(3)
F1 F 0.31245(19) 0.24247(6) 0.91192(19)
F2 F 0.4004(2) 0.16015(7) 1.0962(2)
C1 C 0.2244(3) 0.12794(11) 0.8415(3)
C2 C 0.3621(3) 0.17656(11) 0.9090(3)
C3 C 0.5149(3) 0.16344(11) 0.7831(4)
C4 C 0.3382(3) 0.06861(10) 0.7816(3)
C5 C 0.2849(3) 0.03753(11) 0.4447(3)
C6 C 0.2321(3) -0.00636(12) 0.3116(3)
C7 C 0.1584(3) -0.06784(10) 0.3750(3)
C8 C 0.1884(3) -0.03643(10) 0.6979(3)
C9 C 0.5447(7) 0.21196(18) 0.6204(7)
H1 H 0.148(3) 0.1154(9) 0.950(3)
H2 H 0.618(3) 0.1615(10) 0.855(3)
H3 H 0.360(2) 0.0394(9) 0.899(3)
H4 H 0.333(3) 0.0825(10) 0.421(3)
H5 H 0.235(3) 0.0014(11) 0.176(3)
H6 H 0.122(3) -0.1048(11) 0.122(4)
H7 H 0.086(4) -0.1541(13) 0.282(4)
H8 H 0.041(4) 0.1305(13) 0.658(4)
H9 H 0.612(4) 0.1928(14) 0.526(4)
H10 H 0.626(10) 0.291(4) 0.530(6)
O5? O 0.4509(7) 0.2386(3) 0.5461(6)
loop_
_geom_bond_atom_site_label_1
_geom_bond_atom_site_label_2
_geom_bond_site_symmetry_1
_geom_bond_site_symmetry_2
O1 C1 1_555 1_555
O2 C3 1_555 1_555
O3 C8 1_555 1_555
O4 C9 1_555 1_555
N1 C4 1_555 1_555
N2 C7 1_555 1_555
N3 C7 1_555 1_555
F1 C2 1_555 1_555
F2 C2 1_555 1_555
C1 C2 1_555 1_555
C2 C3 1_555 1_555
C3 C9 1_555 1_555
C4 O2 1_555 1_555
C5 N1 1_555 1_555
C6 C5 1_555 1_555
C7 C6 1_555 1_555
C8 N1 1_555 1_555
C9 H9 1_555 1_555
H1 C1 1_555 1_555
H2 C3 1_555 1_555
H3 C4 1_555 1_555
H4 C5 1_555 1_555
H5 C6 1_555 1_555
H6 N3 1_555 1_555
H7 N3 1_555 1_555
H8 O1 1_555 1_555
H10 O4 1_555 1_555
N2 C8 1_555 1_555
C1 C4 1_555 1_555

#END
