
#######################################################################
#
#                 Cambridge Crystallographic Data Centre
#                                CCDC 
#
#######################################################################
#
# If this CIF has been generated from an entry in the Cambridge 
# Structural Database, then it will include bibliographic, chemical, 
# crystal, experimental, refinement or atomic coordinate data resulting 
# from the CCDC's data processing and validation procedures.
#
#######################################################################

data_AMARUB
_chemical_formula_moiety         'C11 H9 F4 N1 O1 S1'
_chemical_name_systematic        
5-Methyl-2-(2,3,5,6-tetrafluorophenyl)-3,6-dihydro-1,2-thiazine-1-oxide
_symmetry_cell_setting           triclinic
_symmetry_space_group_name_H-M   'P -1'
_symmetry_Int_Tables_number      2
_space_group_name_Hall           '-P 1'
loop_
_symmetry_equiv_pos_site_id
_symmetry_equiv_pos_as_xyz
1 x,y,z
2 -x,-y,-z
_cell_length_a                   5.9601(7)
_cell_length_b                   9.6127(12)
_cell_length_c                   10.8228(13)
_cell_angle_alpha                110.630(2)
_cell_angle_beta                 105.298(2)
_cell_angle_gamma                82.126(2)
_cell_volume                     559.077
_exptl_crystal_colour            colorless
_cell_formula_units_Z            2
loop_
_atom_site_label
_atom_site_type_symbol
_atom_site_fract_x
_atom_site_fract_y
_atom_site_fract_z
N1 N 0.5321(3) 0.83874(16) 0.76129(16)
O1 O 0.6767(2) 0.57389(15) 0.63729(14)
S1 S 0.47537(9) 0.68054(5) 0.62742(5)
F1 F 0.9713(2) 0.96991(14) 0.85053(13)
F2 F 1.0206(2) 1.22364(14) 0.81890(14)
F3 F 0.2467(2) 1.21849(14) 0.56660(14)
F4 F 0.18820(19) 0.97032(13) 0.60943(13)
C1 C 0.2614(4) 0.6248(2) 0.6883(2)
C2 C 0.3311(4) 0.6390(2) 0.8351(2)
C3 C 0.4958(4) 0.7253(2) 0.9229(2)
C4 C 0.6365(4) 0.8209(2) 0.8938(2)
C5 C 0.5750(3) 0.96446(19) 0.73457(18)
C6 C 0.7865(3) 1.0318(2) 0.78399(19)
C7 C 0.8114(4) 1.1627(2) 0.7653(2)
C8 C 0.6343(4) 1.2285(2) 0.6931(2)
C9 C 0.4277(4) 1.1598(2) 0.6396(2)
C10 C 0.3969(3) 1.0305(2) 0.66025(19)
C11 C 0.2017(5) 0.5424(3) 0.8732(3)
H1 H 0.125(4) 0.682(2) 0.662(2)
H2 H 0.240(3) 0.529(2) 0.630(2)
H3 H 0.538(3) 0.7277(19) 1.0175(19)
H4 H 0.646(4) 0.918(3) 0.961(2)
H5 H 0.797(4) 0.780(2) 0.898(2)
H6 H 0.649(4) 1.316(2) 0.676(2)
H7 H 0.032(5) 0.560(3) 0.851(3)
H8 H 0.240(4) 0.437(3) 0.827(3)
H9 H 0.247(5) 0.568(3) 0.9722(18)
loop_
_geom_bond_atom_site_label_1
_geom_bond_atom_site_label_2
_geom_bond_site_symmetry_1
_geom_bond_site_symmetry_2
N1 S1 1_555 1_555
O1 S1 1_555 1_555
S1 C1 1_555 1_555
F1 C6 1_555 1_555
F2 C7 1_555 1_555
F3 C9 1_555 1_555
F4 C10 1_555 1_555
C1 C2 1_555 1_555
C2 C3 1_555 1_555
C3 C4 1_555 1_555
C4 N1 1_555 1_555
C5 N1 1_555 1_555
C6 C5 1_555 1_555
C7 C6 1_555 1_555
C8 C7 1_555 1_555
C9 C8 1_555 1_555
C10 C5 1_555 1_555
C11 C2 1_555 1_555
H1 C1 1_555 1_555
H2 C1 1_555 1_555
H3 C3 1_555 1_555
H4 C4 1_555 1_555
H5 C4 1_555 1_555
H6 C8 1_555 1_555
H7 C11 1_555 1_555
H8 C11 1_555 1_555
H9 C11 1_555 1_555
C9 C10 1_555 1_555

#END
