
#######################################################################
#
#                 Cambridge Crystallographic Data Centre
#                                CCDC 
#
#######################################################################
#
# If this CIF has been generated from an entry in the Cambridge 
# Structural Database, then it will include bibliographic, chemical, 
# crystal, experimental, refinement or atomic coordinate data resulting 
# from the CCDC's data processing and validation procedures.
#
#######################################################################

data_AMASAI
_chemical_formula_moiety         'C11 H6 F5 N1'
_chemical_name_systematic        1-(Pentafluorophenyl)-3-methylpyrrole
_symmetry_cell_setting           monoclinic
_symmetry_space_group_name_H-M   'P 21/c'
_symmetry_Int_Tables_number      14
_space_group_name_Hall           '-P 2ybc'
loop_
_symmetry_equiv_pos_site_id
_symmetry_equiv_pos_as_xyz
1 x,y,z
2 x,1/2-y,1/2+z
3 -x,-y,-z
4 -x,1/2+y,1/2-z
_cell_length_a                   6.1480(12)
_cell_length_b                   7.7620(16)
_cell_length_c                   21.141(4)
_cell_angle_alpha                90
_cell_angle_beta                 94.70(3)
_cell_angle_gamma                90
_cell_volume                     1005.47
_exptl_crystal_colour            colorless
_chemical_melting_point          73-74deg.C
_cell_formula_units_Z            4
loop_
_atom_site_label
_atom_site_type_symbol
_atom_site_fract_x
_atom_site_fract_y
_atom_site_fract_z
C1 C 0.2554(4) 0.5544(3) 0.17929(12)
C2 C 0.2034(5) 0.5511(4) 0.11516(14)
C3 C 0.3454(6) 0.6159(4) 0.07459(13)
C4 C 0.5402(5) 0.6844(4) 0.09906(12)
C5 C 0.5912(4) 0.6873(3) 0.16343(12)
C6 C 0.4500(4) 0.6245(3) 0.20583(11)
F1 F 0.1127(2) 0.4858(2) 0.21693(8)
F2 F 0.0123(3) 0.4823(3) 0.09232(9)
F3 F 0.2948(4) 0.6149(3) 0.01212(8)
F4 F 0.6787(3) 0.7517(2) 0.05996(8)
F5 F 0.7818(3) 0.7575(2) 0.18532(7)
C7 C 0.3610(5) 0.6891(4) 0.31552(13)
H1 H 0.2213 0.7330 0.3062
C8 C 0.4651(5) 0.6716(4) 0.37411(13)
H2 H 0.4084 0.7016 0.4121
C9 C 0.6729(5) 0.6008(3) 0.36816(12)
C10 C 0.6900(4) 0.5763(3) 0.30515(12)
H3 H 0.8107 0.5308 0.2872
C11 C 0.8448(6) 0.5580(4) 0.42095(14)
H4 H 0.7926 0.5888 0.4610
H5 H 0.9757 0.6213 0.4149
H6 H 0.8753 0.4367 0.4205
N1 N 0.4989(3) 0.6300(3) 0.27206(9)
loop_
_geom_bond_atom_site_label_1
_geom_bond_atom_site_label_2
_geom_bond_site_symmetry_1
_geom_bond_site_symmetry_2
C1 C2 1_555 1_555
C2 C3 1_555 1_555
C3 C4 1_555 1_555
C4 C5 1_555 1_555
C5 C6 1_555 1_555
C6 C1 1_555 1_555
F1 C1 1_555 1_555
F2 C2 1_555 1_555
F3 C3 1_555 1_555
F4 C4 1_555 1_555
F5 C5 1_555 1_555
C7 H1 1_555 1_555
C8 C7 1_555 1_555
H2 C8 1_555 1_555
C9 C8 1_555 1_555
C10 C9 1_555 1_555
H3 C10 1_555 1_555
C11 C9 1_555 1_555
H4 C11 1_555 1_555
H5 C11 1_555 1_555
H6 C11 1_555 1_555
N1 C6 1_555 1_555
C7 N1 1_555 1_555
C10 N1 1_555 1_555

#END
