
#######################################################################
#
#                 Cambridge Crystallographic Data Centre
#                                CCDC 
#
#######################################################################
#
# If this CIF has been generated from an entry in the Cambridge 
# Structural Database, then it will include bibliographic, chemical, 
# crystal, experimental, refinement or atomic coordinate data resulting 
# from the CCDC's data processing and validation procedures.
#
#######################################################################

data_AMASUE
_chemical_formula_moiety         'C13 H10 Cl1 N3 O1'
_chemical_name_systematic        
4-chloro-2-(2-methylpyrazolo[1,5-a]pyrimidin-5-yl)phenol
_symmetry_cell_setting           triclinic
_symmetry_space_group_name_H-M   'P -1'
_symmetry_Int_Tables_number      2
_space_group_name_Hall           '-P 1'
loop_
_symmetry_equiv_pos_site_id
_symmetry_equiv_pos_as_xyz
1 x,y,z
2 -x,-y,-z
_cell_length_a                   7.344(2)
_cell_length_b                   8.741(3)
_cell_length_c                   9.446(3)
_cell_angle_alpha                79.165(5)
_cell_angle_beta                 85.637(5)
_cell_angle_gamma                74.183(5)
_cell_volume                     572.818
_exptl_crystal_colour            white
_exptl_crystal_description       needle
_cell_formula_units_Z            2
loop_
_atom_site_label
_atom_site_type_symbol
_atom_site_fract_x
_atom_site_fract_y
_atom_site_fract_z
Cl1 Cl 0.31787(8) -0.48530(6) -0.17649(6)
N1 N 0.3374(2) 0.2167(2) 0.40370(17)
N2 N 0.3264(2) 0.13246(19) 0.29863(16)
N3 N 0.2162(2) 0.16946(18) 0.06080(16)
O1 O 0.1070(2) 0.21441(16) -0.19868(15)
H1 H 0.1280 0.2395 -0.1233
C1 C 0.2887(3) -0.2189(2) -0.0621(2)
H2 H 0.3410 -0.2908 0.0193
C2 C 0.2606(3) -0.2774(2) -0.1815(2)
C3 C 0.1848(3) -0.1742(2) -0.3051(2)
H3 H 0.1674 -0.2151 -0.3857
C4 C 0.1356(3) -0.0107(2) -0.3071(2)
H4 H 0.0848 0.0592 -0.3899
C5 C 0.1607(3) 0.0527(2) -0.1869(2)
C6 C 0.2397(2) -0.0521(2) -0.06105(19)
C7 C 0.2718(2) 0.0102(2) 0.0670(2)
C8 C 0.3609(3) -0.0927(2) 0.1925(2)
H5 H 0.4000 -0.2038 0.1959
C9 C 0.3885(3) -0.0293(2) 0.3061(2)
H6 H 0.4486 -0.0952 0.3875
C10 C 0.2404(2) 0.2327(2) 0.17635(19)
C11 C 0.1955(3) 0.3869(2) 0.2063(2)
H7 H 0.1369 0.4820 0.1461
C12 C 0.2562(3) 0.3707(2) 0.3457(2)
C13 C 0.2425(3) 0.5014(3) 0.4312(2)
H8 H 0.2280 0.4602 0.5318
H9 H 0.1352 0.5901 0.4011
H10 H 0.3557 0.5378 0.4155
loop_
_geom_bond_atom_site_label_1
_geom_bond_atom_site_label_2
_geom_bond_site_symmetry_1
_geom_bond_site_symmetry_2
Cl1 C2 1_555 1_555
N1 N2 1_555 1_555
N2 C9 1_555 1_555
N3 C7 1_555 1_555
O1 H1 1_555 1_555
C1 H2 1_555 1_555
C2 C1 1_555 1_555
C3 C2 1_555 1_555
H3 C3 1_555 1_555
C4 C3 1_555 1_555
H4 C4 1_555 1_555
C5 O1 1_555 1_555
C6 C1 1_555 1_555
C7 C6 1_555 1_555
C8 C7 1_555 1_555
H5 C8 1_555 1_555
C9 C8 1_555 1_555
H6 C9 1_555 1_555
C10 N2 1_555 1_555
C11 C10 1_555 1_555
H7 C11 1_555 1_555
C12 N1 1_555 1_555
C13 C12 1_555 1_555
H8 C13 1_555 1_555
H9 C13 1_555 1_555
H10 C13 1_555 1_555
N3 C10 1_555 1_555
C4 C5 1_555 1_555
C5 C6 1_555 1_555
C11 C12 1_555 1_555

#END
