
#######################################################################
#
#                 Cambridge Crystallographic Data Centre
#                                CCDC 
#
#######################################################################
#
# If this CIF has been generated from an entry in the Cambridge 
# Structural Database, then it will include bibliographic, chemical, 
# crystal, experimental, refinement or atomic coordinate data resulting 
# from the CCDC's data processing and validation procedures.
#
#######################################################################

data_AMAVEP
_chemical_name_common            
'(4,9-Dihydro-4-(1-methyl-4-piperidinylidene)-10H-benzo(4,5)cyclohepta(1,2-b)thiophen-10-one) hydrogenfumarate'
_chemical_formula_moiety         'C19 H20 N1 O1 S1 1+,C4 H3 O4 1-'
_chemical_name_systematic        'Ketotifen hydrogen fumarate'
_chemical_properties_biological  
'inhibits the release of chemical mediators such as histamine'
_symmetry_cell_setting           triclinic
_symmetry_space_group_name_H-M   'P -1'
_symmetry_Int_Tables_number      2
_space_group_name_Hall           '-P 1'
loop_
_symmetry_equiv_pos_site_id
_symmetry_equiv_pos_as_xyz
1 x,y,z
2 -x,-y,-z
_cell_length_a                   10.0901(6)
_cell_length_b                   11.7760(7)
_cell_length_c                   18.8200(7)
_cell_angle_alpha                74.054(2)
_cell_angle_beta                 81.034(3)
_cell_angle_gamma                88.4315(7)
_cell_volume                     2123.61
_exptl_crystal_colour            colorless
_exptl_crystal_description       platelet
_cell_formula_units_Z            4
_exptl_crystal_recrystallization_method methanol/acetonitrile
loop_
_atom_site_label
_atom_site_type_symbol
_atom_site_fract_x
_atom_site_fract_y
_atom_site_fract_z
S1 S 0.7315(2) 0.5950(2) 0.5147(1)
O1 O 0.4727(6) 0.4961(5) 0.6044(3)
N1 N 0.8574(5) 0.6844(5) 0.8723(3)
C1 C 0.8596(8) 0.6897(8) 0.5093(4)
C2 C 0.8411(7) 0.7425(7) 0.5651(4)
C3 C 0.7205(7) 0.7075(6) 0.6154(4)
C4 C 0.6490(7) 0.6265(7) 0.5943(4)
C5 C 0.6709(6) 0.7567(6) 0.6795(4)
C6 C 0.5316(7) 0.8015(7) 0.6802(4)
C7 C 0.4235(7) 0.7226(7) 0.6899(4)
C8 C 0.4540(8) 0.5917(7) 0.7006(4)
C9 C 0.5234(8) 0.5671(7) 0.6310(5)
C10 C 0.5046(8) 0.9192(8) 0.6680(5)
C11 C 0.3736(9) 0.9594(9) 0.6641(5)
C12 C 0.2719(7) 0.8824(8) 0.6741(5)
C13 C 0.2942(8) 0.764(1) 0.6866(4)
C14 C 0.9079(7) 0.6326(6) 0.8091(4)
C15 C 0.8869(6) 0.7153(6) 0.7345(4)
C16 C 0.7433(6) 0.7587(6) 0.7330(4)
C17 C 0.6903(7) 0.8025(7) 0.7997(4)
C18 C 0.7122(6) 0.7137(7) 0.8722(4)
C19 C 0.8821(8) 0.6054(7) 0.9451(4)
H1 H 0.3564(9) 1.0415(9) 0.6542(5)
H2 H 0.5756(8) 0.9738(8) 0.6625(5)
H3 H 0.1829(7) 0.9104(8) 0.6728(5)
H4 H 0.7346(7) 0.8748(7) 0.7955(4)
H5 H 0.2217(8) 0.711(1) 0.6929(4)
H6 H 0.9027(7) 0.7983(7) 0.5702(4)
H7 H 0.5967(7) 0.8153(7) 0.8009(4)
H8 H 0.6629(6) 0.6434(7) 0.8779(4)
H9 H 0.6811(6) 0.7459(7) 0.9127(4)
H10 H 1.0009(7) 0.6170(6) 0.8084(4)
H11 H 0.9061(5) 0.7561(5) 0.8637(3)
H12 H 0.9358(8) 0.7042(8) 0.4712(4)
H13 H 0.5102(8) 0.5681(7) 0.7380(4)
H14 H 0.8601(7) 0.5608(6) 0.8167(4)
H15 H 0.9454(6) 0.7817(6) 0.7238(4)
H16 H 0.9088(6) 0.6748(6) 0.6971(4)
H17 H 0.8528(8) 0.6430(7) 0.9833(4)
H18 H 0.8336(8) 0.5332(7) 0.9553(4)
H19 H 0.9752(8) 0.5897(7) 0.9436(4)
H20 H 0.3722(8) 0.5475(7) 0.7166(4)
S2 S 0.7678(2) 0.1024(2) 0.5163(1)
O2 O 0.9698(6) -0.0156(6) 0.6082(4)
N2 N 0.4532(5) 0.1988(5) 0.8762(3)
C20 C 0.6459(8) 0.2041(8) 0.5107(4)
C21 C 0.6337(8) 0.2568(7) 0.5670(4)
C22 C 0.7266(7) 0.2170(7) 0.6171(4)
C23 C 0.8089(7) 0.1290(7) 0.5966(4)
C24 C 0.7422(7) 0.2622(6) 0.6817(4)
C25 C 0.8827(7) 0.2994(7) 0.6823(4)
C26 C 0.9828(7) 0.2114(7) 0.6920(4)
C27 C 0.9424(8) 0.0825(7) 0.7034(4)
C28 C 0.9097(8) 0.0616(8) 0.6339(5)
C29 C 0.9181(8) 0.4138(8) 0.6706(5)
C30 C 1.0525(8) 0.4467(8) 0.6674(5)
C31 C 1.1475(6) 0.3616(7) 0.6777(4)
C32 C 1.1145(8) 0.2471(9) 0.6894(4)
C33 C 0.4323(7) 0.1558(7) 0.8108(4)
C34 C 0.4964(6) 0.2381(7) 0.7377(4)
C35 C 0.6415(7) 0.2686(6) 0.7362(4)
C36 C 0.6626(7) 0.3043(7) 0.8050(4)
C37 C 0.5998(6) 0.2150(7) 0.8761(4)
C38 C 0.3863(7) 0.1183(7) 0.9481(4)
H21 H 0.7562(7) 0.3099(7) 0.8055(4)
H22 H 0.6231(7) 0.3791(7) 0.8030(4)
H23 H 0.6105(6) 0.2430(7) 0.9177(4)
H24 H 0.6436(6) 0.1415(7) 0.8802(4)
H25 H 0.4936(6) 0.2002(7) 0.6994(4)
H26 H 0.4467(6) 0.3089(7) 0.7277(4)
H27 H 0.4691(7) 0.0793(7) 0.8162(4)
H28 H 0.8515(8) 0.4728(8) 0.6639(5)
H29 H 1.0769(8) 0.5274(8) 0.6579(5)
H30 H 1.2377(6) 0.3837(7) 0.6769(4)
H31 H 1.1825(8) 0.1894(9) 0.6963(4)
H32 H 0.5916(8) 0.2230(8) 0.4723(4)
H33 H 0.5687(8) 0.3150(7) 0.5723(4)
H34 H 0.3387(7) 0.1518(7) 0.8100(4)
H35 H 1.0161(8) 0.0341(7) 0.7171(4)
H36 H 0.8677(8) 0.0615(7) 0.7422(4)
H37 H 0.4127(5) 0.2739(5) 0.8705(3)
H38 H 0.3993(7) 0.1497(7) 0.9879(4)
H39 H 0.2930(7) 0.1130(7) 0.9468(4)
H40 H 0.4239(7) 0.0418(7) 0.9555(4)
O3 O 0.4271(5) 0.8147(5) 0.9300(3)
O4 O 0.2477(6) 0.9035(5) 0.8918(4)
O5 O 0.3916(5) 0.4156(5) 0.8897(3)
O6 O 0.1966(5) 0.4927(4) 0.8621(3)
C39 C 0.3247(8) 0.8111(7) 0.9048(4)
C40 C 0.2809(7) 0.7036(7) 0.8887(4)
C41 C 0.3462(7) 0.6050(7) 0.9006(4)
C42 C 0.3087(8) 0.4965(6) 0.8826(4)
H41 H 0.1994(7) 0.7056(7) 0.8691(4)
H42 H 0.4259(7) 0.6031(7) 0.9219(4)
H43 H 0.186(5) 0.894(5) 0.878(3)
O7 O 0.9154(6) 0.3382(6) 0.9267(4)
O8 O 1.1134(6) 0.2827(5) 0.8790(3)
O9 O 1.0092(5) -0.1225(4) 0.8665(3)
O10 O 0.8089(5) -0.0600(5) 0.9049(3)
C43 C 0.9859(8) 0.2645(8) 0.9087(5)
C44 C 0.9357(8) 0.1452(7) 0.9158(4)
C45 C 0.9948(7) 0.0673(6) 0.8848(4)
C46 C 0.9318(8) -0.0470(7) 0.8874(4)
H44 H 0.8516(8) 0.1224(7) 0.9467(4)
H45 H 1.0836(7) 0.0840(6) 0.8587(4)
H46 H 1.120(7) 0.369(7) 0.868(4)
loop_
_geom_bond_atom_site_label_1
_geom_bond_atom_site_label_2
_geom_bond_site_symmetry_1
_geom_bond_site_symmetry_2
S1 C1 1_555 1_555
O1 C9 1_555 1_555
N1 C14 1_555 1_555
C1 C2 1_555 1_555
C2 C3 1_555 1_555
C3 C4 1_555 1_555
C4 S1 1_555 1_555
C5 C3 1_555 1_555
C6 C5 1_555 1_555
C7 C6 1_555 1_555
C8 C7 1_555 1_555
C9 C4 1_555 1_555
C10 C6 1_555 1_555
C11 C10 1_555 1_555
C12 C11 1_555 1_555
C13 C7 1_555 1_555
C14 C15 1_555 1_555
C15 C16 1_555 1_555
C16 C5 1_555 1_555
C17 C16 1_555 1_555
C18 N1 1_555 1_555
C19 N1 1_555 1_555
H1 C11 1_555 1_555
H2 C10 1_555 1_555
H3 C12 1_555 1_555
H4 C17 1_555 1_555
H5 C13 1_555 1_555
H6 C2 1_555 1_555
H7 C17 1_555 1_555
H8 C18 1_555 1_555
H9 C18 1_555 1_555
H10 C14 1_555 1_555
H11 N1 1_555 1_555
H12 C1 1_555 1_555
H13 C8 1_555 1_555
H14 C14 1_555 1_555
H15 C15 1_555 1_555
H16 C15 1_555 1_555
H17 C19 1_555 1_555
H18 C19 1_555 1_555
H19 C19 1_555 1_555
H20 C8 1_555 1_555
S2 C20 1_555 1_555
O2 C28 1_555 1_555
N2 C33 1_555 1_555
C20 C21 1_555 1_555
C21 C22 1_555 1_555
C22 C23 1_555 1_555
C23 S2 1_555 1_555
C24 C22 1_555 1_555
C25 C24 1_555 1_555
C26 C25 1_555 1_555
C27 C26 1_555 1_555
C28 C23 1_555 1_555
C29 C25 1_555 1_555
C30 C29 1_555 1_555
C31 C30 1_555 1_555
C32 C26 1_555 1_555
C33 C34 1_555 1_555
C34 C35 1_555 1_555
C35 C24 1_555 1_555
C36 C35 1_555 1_555
C37 N2 1_555 1_555
C38 N2 1_555 1_555
H21 C36 1_555 1_555
H22 C36 1_555 1_555
H23 C37 1_555 1_555
H24 C37 1_555 1_555
H25 C34 1_555 1_555
H26 C34 1_555 1_555
H27 C33 1_555 1_555
H28 C29 1_555 1_555
H29 C30 1_555 1_555
H30 C31 1_555 1_555
H31 C32 1_555 1_555
H32 C20 1_555 1_555
H33 C21 1_555 1_555
H34 C33 1_555 1_555
H35 C27 1_555 1_555
H36 C27 1_555 1_555
H37 N2 1_555 1_555
H38 C38 1_555 1_555
H39 C38 1_555 1_555
H40 C38 1_555 1_555
O3 C39 1_555 1_555
O4 C39 1_555 1_555
O5 C42 1_555 1_555
O6 C42 1_555 1_555
C39 C40 1_555 1_555
C40 C41 1_555 1_555
C41 C42 1_555 1_555
H41 C40 1_555 1_555
H42 C41 1_555 1_555
H43 O4 1_555 1_555
O7 C43 1_555 1_555
O8 C43 1_555 1_555
O9 C46 1_555 1_555
O10 C46 1_555 1_555
C43 C44 1_555 1_555
C44 C45 1_555 1_555
C45 C46 1_555 1_555
H44 C44 1_555 1_555
H45 C45 1_555 1_555
H46 O8 1_555 1_555
C8 C9 1_555 1_555
C12 C13 1_555 1_555
C17 C18 1_555 1_555
C27 C28 1_555 1_555
C31 C32 1_555 1_555
C36 C37 1_555 1_555

#END
