
#######################################################################
#
#                 Cambridge Crystallographic Data Centre
#                                CCDC 
#
#######################################################################
#
# If this CIF has been generated from an entry in the Cambridge 
# Structural Database, then it will include bibliographic, chemical, 
# crystal, experimental, refinement or atomic coordinate data resulting 
# from the CCDC's data processing and validation procedures.
#
#######################################################################

data_AMAWOC
_chemical_formula_moiety         'C30 H38 O3 S1'
_chemical_name_systematic        
4a,7,7,10a-tetramethyl-2-((4-methylphenyl)sulfonyl)-3-phenyl-4a,5,6,6a,7,8,9,10,10a,10b-decahydro-1H-benzo[f]chromene
_symmetry_cell_setting           monoclinic
_symmetry_space_group_name_H-M   'P 21/n'
_symmetry_Int_Tables_number      14
_space_group_name_Hall           '-P 2yn'
loop_
_symmetry_equiv_pos_site_id
_symmetry_equiv_pos_as_xyz
1 x,y,z
2 1/2-x,1/2+y,1/2-z
3 -x,-y,-z
4 1/2+x,1/2-y,1/2+z
_cell_length_a                   7.0561(5)
_cell_length_b                   26.349(2)
_cell_length_c                   14.3583(11)
_cell_angle_alpha                90
_cell_angle_beta                 101.571(3)
_cell_angle_gamma                90
_cell_volume                     2615.26
_exptl_crystal_colour            colorless
_exptl_crystal_description       Columnar
_cell_formula_units_Z            4
loop_
_atom_site_label
_atom_site_type_symbol
_atom_site_fract_x
_atom_site_fract_y
_atom_site_fract_z
S1 S 0.41300(9) 0.92504(3) 0.61098(5)
O1 O 0.7219(2) 0.82759(7) 0.49024(12)
O2 O 0.3294(3) 0.96972(8) 0.56117(14)
O3 O 0.2939(3) 0.89626(9) 0.66133(15)
C1 C 0.5155(9) 0.78250(17) 0.0496(3)
H1 H 0.4710 0.7553 0.0842
H2 H 0.6536 0.7806 0.0571
H3 H 0.4570 0.7796 -0.0166
C2 C 0.4595(5) 0.83341(13) 0.0877(2)
C3 C 0.5232(4) 0.83346(11) 0.19719(18)
H4 H 0.4619 0.8033 0.2180
C4 C 0.4506(4) 0.87831(11) 0.25158(19)
C5 C 0.5007(3) 0.86505(10) 0.35910(17)
H5 H 0.4298 0.8337 0.3657
C6 C 0.4315(4) 0.90336(11) 0.42455(18)
H6 H 0.4820 0.9367 0.4145
H7 H 0.2914 0.9052 0.4098
C7 C 0.4989(3) 0.88794(10) 0.52647(18)
C8 C 0.6228(4) 0.94333(10) 0.69302(18)
C9 C 0.6433(4) 0.93088(10) 0.7877(2)
H8 H 0.5447 0.9140 0.8094
C10 C 0.8122(5) 0.94372(12) 0.8499(2)
H9 H 0.8250 0.9361 0.9141
C11 C 0.9626(4) 0.96767(12) 0.8190(2)
C12 C 1.1499(5) 0.97973(17) 0.8863(3)
H10 H 1.1402 1.0123 0.9148
H11 H 1.2534 0.9803 0.8518
H12 H 1.1756 0.9543 0.9350
C13 C 0.2411(6) 0.8374(2) 0.0617(3)
H13 H 0.1839 0.8067 0.0812
H14 H 0.2006 0.8406 -0.0067
C14 C 0.1652(6) 0.8855(3) 0.1124(3)
H15 H 0.2181 0.9164 0.0912
H16 H 0.0252 0.8873 0.0948
C15 C 0.2276(4) 0.88088(18) 0.2223(2)
H17 H 0.1802 0.9099 0.2522
H18 H 0.1714 0.8505 0.2437
C16 C 0.5486(5) 0.87497(15) 0.0364(2)
H19 H 0.5094 0.8704 -0.0311
H20 H 0.6871 0.8732 0.0541
H21 H 0.5056 0.9075 0.0538
C17 C 0.7389(4) 0.82512(12) 0.23289(19)
H22 H 0.8085 0.8556 0.2221
H23 H 0.7824 0.7977 0.1972
C18 C 0.7854(4) 0.81216(12) 0.3384(2)
H24 H 0.7257 0.7800 0.3483
H25 H 0.9242 0.8084 0.3590
C19 C 0.7141(3) 0.85261(10) 0.39850(17)
C20 C 0.6297(3) 0.85106(10) 0.55328(17)
C21 C 0.7024(4) 0.83090(9) 0.64970(18)
C22 C 0.8960(4) 0.83578(10) 0.69048(19)
H26 H 0.9787 0.8514 0.6563
C23 C 0.9686(5) 0.81813(13) 0.7802(2)
H27 H 1.0988 0.8225 0.8073
C24 C 0.8480(6) 0.79389(13) 0.8300(2)
H28 H 0.8965 0.7815 0.8908
C25 C 0.6565(6) 0.78798(13) 0.7900(3)
H29 H 0.5756 0.7714 0.8240
C26 C 0.5813(5) 0.80614(11) 0.7003(2)
H30 H 0.4508 0.8019 0.6737
C27 C 0.8527(4) 0.89722(11) 0.4174(2)
H31 H 0.7930 0.9245 0.4453
H32 H 0.8837 0.9084 0.3586
H33 H 0.9690 0.8870 0.4602
C28 C 0.5344(5) 0.92993(11) 0.2300(2)
H34 H 0.4689 0.9416 0.1686
H35 H 0.6700 0.9263 0.2304
H36 H 0.5167 0.9541 0.2776
C29 C 0.7696(4) 0.96862(10) 0.6603(2)
H37 H 0.7541 0.9777 0.5966
C30 C 0.9382(4) 0.98012(11) 0.7232(2)
H38 H 1.0375 0.9965 0.7014
loop_
_geom_bond_atom_site_label_1
_geom_bond_atom_site_label_2
_geom_bond_site_symmetry_1
_geom_bond_site_symmetry_2
S1 O2 1_555 1_555
O1 C19 1_555 1_555
O3 S1 1_555 1_555
C1 H1 1_555 1_555
H2 C1 1_555 1_555
H3 C1 1_555 1_555
C2 C1 1_555 1_555
C3 C2 1_555 1_555
H4 C3 1_555 1_555
C4 C3 1_555 1_555
C5 C4 1_555 1_555
H5 C5 1_555 1_555
C6 C5 1_555 1_555
H6 C6 1_555 1_555
H7 C6 1_555 1_555
C7 S1 1_555 1_555
C8 S1 1_555 1_555
C9 C8 1_555 1_555
H8 C9 1_555 1_555
C10 C9 1_555 1_555
H9 C10 1_555 1_555
C11 C10 1_555 1_555
C12 C11 1_555 1_555
H10 C12 1_555 1_555
H11 C12 1_555 1_555
H12 C12 1_555 1_555
C13 C2 1_555 1_555
H13 C13 1_555 1_555
H14 C13 1_555 1_555
C14 C13 1_555 1_555
H15 C14 1_555 1_555
H16 C14 1_555 1_555
C15 C4 1_555 1_555
H17 C15 1_555 1_555
H18 C15 1_555 1_555
C16 C2 1_555 1_555
H19 C16 1_555 1_555
H20 C16 1_555 1_555
H21 C16 1_555 1_555
C17 C3 1_555 1_555
H22 C17 1_555 1_555
H23 C17 1_555 1_555
C18 C17 1_555 1_555
H24 C18 1_555 1_555
H25 C18 1_555 1_555
C19 C5 1_555 1_555
C20 O1 1_555 1_555
C21 C20 1_555 1_555
C22 C21 1_555 1_555
H26 C22 1_555 1_555
C23 C22 1_555 1_555
H27 C23 1_555 1_555
C24 C23 1_555 1_555
H28 C24 1_555 1_555
C25 C24 1_555 1_555
H29 C25 1_555 1_555
C26 C21 1_555 1_555
H30 C26 1_555 1_555
C27 C19 1_555 1_555
H31 C27 1_555 1_555
H32 C27 1_555 1_555
H33 C27 1_555 1_555
C28 C4 1_555 1_555
H34 C28 1_555 1_555
H35 C28 1_555 1_555
H36 C28 1_555 1_555
C29 C8 1_555 1_555
H37 C29 1_555 1_555
C30 C11 1_555 1_555
H38 C30 1_555 1_555
C6 C7 1_555 1_555
C7 C20 1_555 1_555
C14 C15 1_555 1_555
C18 C19 1_555 1_555
C25 C26 1_555 1_555
C29 C30 1_555 1_555

#END
