
#######################################################################
#
#                 Cambridge Crystallographic Data Centre
#                                CCDC 
#
#######################################################################
#
# If this CIF has been generated from an entry in the Cambridge 
# Structural Database, then it will include bibliographic, chemical, 
# crystal, experimental, refinement or atomic coordinate data resulting 
# from the CCDC's data processing and validation procedures.
#
#######################################################################

data_AMAWUI
_chemical_formula_moiety         'C30 H37 F1 O3 S1'
_chemical_name_systematic        
3-(4-fluorophenyl)-4a,7,7,10a-tetramethyl-2-((4-methylphenyl)sulfonyl)-4a,5,6,6a,7,8,9,10,10a,10b-decahydro-1H-benzo[f]chromene
_symmetry_cell_setting           monoclinic
_symmetry_space_group_name_H-M   'P 21/n'
_symmetry_Int_Tables_number      14
_space_group_name_Hall           '-P 2yn'
loop_
_symmetry_equiv_pos_site_id
_symmetry_equiv_pos_as_xyz
1 x,y,z
2 1/2-x,1/2+y,1/2-z
3 -x,-y,-z
4 1/2+x,1/2-y,1/2+z
_cell_length_a                   7.0592(3)
_cell_length_b                   26.5040(10)
_cell_length_c                   14.4311(5)
_cell_angle_alpha                90
_cell_angle_beta                 100.633(2)
_cell_angle_gamma                90
_cell_volume                     2653.65
_exptl_crystal_colour            colorless
_cell_formula_units_Z            4
loop_
_atom_site_label
_atom_site_type_symbol
_atom_site_fract_x
_atom_site_fract_y
_atom_site_fract_z
S1 S 1.09022(11) 0.07514(3) 0.39137(6)
F1 F 0.6031(4) 0.22711(10) 0.09430(16)
O1 O 1.1733(3) 0.03031(9) 0.43912(16)
O2 O 0.7795(3) 0.17092(8) 0.51509(14)
O3 O 1.2105(3) 0.10465(10) 0.34198(17)
C1 C 1.2641(7) 0.1586(2) 0.9400(3)
H1 H 1.3028 0.1544 1.0076
H2 H 1.3247 0.1890 0.9218
C2 C 1.0446(6) 0.16383(15) 0.9145(2)
C3 C 0.9816(5) 0.16478(13) 0.8062(2)
H3 H 1.0450 0.1946 0.7859
C4 C 1.0520(4) 0.12007(13) 0.7510(2)
C5 C 1.0005(4) 0.13312(11) 0.6442(2)
H4 H 1.0725 0.1640 0.6368
C6 C 1.0669(4) 0.09458(13) 0.5776(2)
H5 H 1.2062 0.0918 0.5916
H6 H 1.0130 0.0617 0.5871
C7 C 1.0027(4) 0.11068(11) 0.4767(2)
C8 C 0.8830(4) 0.05749(11) 0.3100(2)
C9 C 0.8651(5) 0.07038(12) 0.2157(2)
H7 H 0.9640 0.0874 0.1944
C10 C 0.6975(6) 0.05752(14) 0.1534(2)
H8 H 0.6873 0.0649 0.0896
C11 C 0.5459(5) 0.03397(13) 0.1841(3)
C12 C 0.3608(6) 0.0228(2) 0.1171(3)
H9 H 0.3460 0.0460 0.0651
H10 H 0.2543 0.0265 0.1495
H11 H 0.3639 -0.0111 0.0941
C13 C 0.8731(4) 0.14820(12) 0.4518(2)
C14 C 0.7883(4) 0.14633(12) 0.6065(2)
C15 C 0.9659(6) 0.06911(13) 0.7735(3)
H12 H 0.9827 0.0448 0.7263
H13 H 0.8310 0.0732 0.7740
H14 H 1.0304 0.0575 0.8342
C16 C 0.7664(5) 0.17405(14) 0.7717(2)
H15 H 0.6951 0.1441 0.7829
H16 H 0.7245 0.2015 0.8075
C17 C 0.7210(5) 0.18703(14) 0.6672(2)
H17 H 0.5830 0.1916 0.6480
H18 H 0.7831 0.2187 0.6570
C18 C 0.9956(11) 0.2164(2) 0.9532(3)
H19 H 0.8601 0.2181 0.9539
H20 H 1.0299 0.2426 0.9134
H21 H 1.0668 0.2207 1.0161
C19 C 1.3344(8) 0.1101(3) 0.8858(4)
H22 H 1.4735 0.1070 0.9020
H23 H 1.2779 0.0796 0.9060
C20 C 1.2721(5) 0.1165(2) 0.7772(3)
H24 H 1.3298 0.1468 0.7569
H25 H 1.3170 0.0879 0.7453
C21 C 0.9538(6) 0.1232(2) 0.9648(3)
H26 H 0.9919 0.0907 0.9452
H27 H 0.8161 0.1262 0.9495
H28 H 0.9958 0.1268 1.0316
C22 C 0.6477(4) 0.10212(14) 0.5897(2)
H29 H 0.5308 0.1127 0.5493
H30 H 0.6192 0.0909 0.6489
H31 H 0.7046 0.0750 0.5604
C23 C 0.8048(4) 0.16888(11) 0.3570(2)
C24 C 0.6112(5) 0.16436(12) 0.3157(2)
H32 H 0.5271 0.1482 0.3486
C25 C 0.5415(5) 0.18322(14) 0.2273(3)
H33 H 0.4125 0.1795 0.1995
C26 C 0.6694(7) 0.20794(15) 0.1812(3)
C27 C 0.8582(7) 0.21407(14) 0.2197(3)
H34 H 0.9402 0.2312 0.1870
C28 C 0.9272(5) 0.19439(13) 0.3085(3)
H35 H 1.0564 0.1983 0.3356
C29 C 0.7338(5) 0.03223(12) 0.3417(2)
H36 H 0.7470 0.0229 0.4047
C30 C 0.5677(5) 0.02123(12) 0.2797(2)
H37 H 0.4675 0.0050 0.3014
loop_
_geom_bond_atom_site_label_1
_geom_bond_atom_site_label_2
_geom_bond_site_symmetry_1
_geom_bond_site_symmetry_2
S1 O1 1_555 1_555
F1 C26 1_555 1_555
O2 C13 1_555 1_555
O3 S1 1_555 1_555
C1 H1 1_555 1_555
H2 C1 1_555 1_555
C2 C1 1_555 1_555
C3 C2 1_555 1_555
H3 C3 1_555 1_555
C4 C3 1_555 1_555
C5 C4 1_555 1_555
H4 C5 1_555 1_555
C6 C5 1_555 1_555
H5 C6 1_555 1_555
H6 C6 1_555 1_555
C7 S1 1_555 1_555
C8 S1 1_555 1_555
C9 C8 1_555 1_555
H7 C9 1_555 1_555
C10 C9 1_555 1_555
H8 C10 1_555 1_555
C11 C10 1_555 1_555
C12 C11 1_555 1_555
H9 C12 1_555 1_555
H10 C12 1_555 1_555
H11 C12 1_555 1_555
C13 C7 1_555 1_555
C14 O2 1_555 1_555
C15 C4 1_555 1_555
H12 C15 1_555 1_555
H13 C15 1_555 1_555
H14 C15 1_555 1_555
C16 C3 1_555 1_555
H15 C16 1_555 1_555
H16 C16 1_555 1_555
C17 C14 1_555 1_555
H17 C17 1_555 1_555
H18 C17 1_555 1_555
C18 C2 1_555 1_555
H19 C18 1_555 1_555
H20 C18 1_555 1_555
H21 C18 1_555 1_555
C19 C1 1_555 1_555
H22 C19 1_555 1_555
H23 C19 1_555 1_555
C20 C4 1_555 1_555
H24 C20 1_555 1_555
H25 C20 1_555 1_555
C21 C2 1_555 1_555
H26 C21 1_555 1_555
H27 C21 1_555 1_555
H28 C21 1_555 1_555
C22 C14 1_555 1_555
H29 C22 1_555 1_555
H30 C22 1_555 1_555
H31 C22 1_555 1_555
C23 C13 1_555 1_555
C24 C23 1_555 1_555
H32 C24 1_555 1_555
C25 C24 1_555 1_555
H33 C25 1_555 1_555
C26 C25 1_555 1_555
C27 C26 1_555 1_555
H34 C27 1_555 1_555
C28 C23 1_555 1_555
H35 C28 1_555 1_555
C29 C8 1_555 1_555
H36 C29 1_555 1_555
C30 C11 1_555 1_555
H37 C30 1_555 1_555
C5 C14 1_555 1_555
C6 C7 1_555 1_555
C16 C17 1_555 1_555
C19 C20 1_555 1_555
C27 C28 1_555 1_555
C29 C30 1_555 1_555

#END
