
#######################################################################
#
#                 Cambridge Crystallographic Data Centre
#                                CCDC 
#
#######################################################################
#
# If this CIF has been generated from an entry in the Cambridge 
# Structural Database, then it will include bibliographic, chemical, 
# crystal, experimental, refinement or atomic coordinate data resulting 
# from the CCDC's data processing and validation procedures.
#
#######################################################################

data_AMDFAC
_chemical_formula_moiety         'C2 H1 F2 O2 1-,H4 N1 1+'
_chemical_name_systematic        'Ammonium difluoroacetate'
_symmetry_cell_setting           orthorhombic
_symmetry_space_group_name_H-M   'P 21 21 21'
_symmetry_Int_Tables_number      19
_space_group_name_Hall           'P 2ac 2ab'
loop_
_symmetry_equiv_pos_site_id
_symmetry_equiv_pos_as_xyz
1 x,y,z
2 1/2+x,1/2-y,-z
3 -x,1/2+y,1/2-z
4 1/2-x,-y,1/2+z
_cell_length_a                   7.486(4)
_cell_length_b                   9.271(3)
_cell_length_c                   6.570(2)
_cell_angle_alpha                90
_cell_angle_beta                 90
_cell_angle_gamma                90
_cell_volume                     455.976
_cell_formula_units_Z            4
loop_
_atom_site_label
_atom_site_type_symbol
_atom_site_fract_x
_atom_site_fract_y
_atom_site_fract_z
F1 F 0.42460 0.09930 -0.27090
F2 F 0.44280 -0.02170 -0.55290
O1 O 0.32290 0.33150 -0.47290
O2 O 0.35110 0.21000 -0.76220
C1 C 0.34190 0.22160 -0.57430
C2 C 0.34620 0.07990 -0.45420
H1 H 0.21700 0.04100 -0.42900
N1 N 0.30910 -0.37540 0.42400
H2 H 0.42400 -0.32800 0.39100
H3 H 0.30500 -0.47000 0.45600
H4 H 0.24500 -0.35600 0.31600
H5 H 0.25700 -0.32400 0.54400
loop_
_geom_bond_atom_site_label_1
_geom_bond_atom_site_label_2
_geom_bond_site_symmetry_1
_geom_bond_site_symmetry_2
F1 C2 1_555 1_555
F2 C2 1_555 1_555
O1 C1 1_555 1_555
O2 C1 1_555 1_555
N1 H2 1_555 1_555
C1 C2 1_555 1_555
C2 H1 1_555 1_555
H3 N1 1_555 1_555
H4 N1 1_555 1_555
H5 N1 1_555 1_555

#END
