
#######################################################################
#
#                 Cambridge Crystallographic Data Centre
#                                CCDC 
#
#######################################################################
#
# If this CIF has been generated from an entry in the Cambridge 
# Structural Database, then it will include bibliographic, chemical, 
# crystal, experimental, refinement or atomic coordinate data resulting 
# from the CCDC's data processing and validation procedures.
#
#######################################################################

data_AMEBUR
_chemical_formula_moiety         'C25 H28 O2,C1 H2 Cl2'
_chemical_name_systematic        
'3\b-hydroxy-16-phenylandrosta-5,8(14),15-trien-17-one dichloromethane solvate'
_chemical_properties_biological  
'anticancer activity towards human tumor cell lines derived from various human cancer types: A549 (human lung carcinoma), SKOV3 (human ovarian carcinoma), MKN-45 (human gastric adenocarcinoma)'
_symmetry_cell_setting           orthorhombic
_symmetry_space_group_name_H-M   'P 21 21 21'
_symmetry_Int_Tables_number      19
_space_group_name_Hall           'P 2ac 2ab'
loop_
_symmetry_equiv_pos_site_id
_symmetry_equiv_pos_as_xyz
1 x,y,z
2 1/2-x,-y,1/2+z
3 -x,1/2+y,1/2-z
4 1/2+x,1/2-y,-z
_cell_length_a                   9.775(2)
_cell_length_b                   12.055(3)
_cell_length_c                   20.438(5)
_cell_angle_alpha                90
_cell_angle_beta                 90
_cell_angle_gamma                90
_cell_volume                     2408.37
_exptl_crystal_colour            yellow
_exptl_crystal_description       block
_chemical_melting_point          '175-176 deg.C'
_cell_formula_units_Z            4
loop_
_atom_site_label
_atom_site_type_symbol
_atom_site_fract_x
_atom_site_fract_y
_atom_site_fract_z
C1 C 0.4166(5) 0.8787(4) 0.0837(3)
H1 H 0.3841 0.8311 0.0487
H2 H 0.3524 0.8724 0.1198
C2 C 0.4161(6) 0.9989(4) 0.0594(2)
H3 H 0.4693 1.0042 0.0194
H4 H 0.3231 1.0214 0.0496
C3 C 0.4754(6) 1.0752(4) 0.1102(2)
H5 H 0.4199 1.0707 0.1500
C4 C 0.6192(5) 1.0406(4) 0.1259(2)
H6 H 0.6557 1.0891 0.1595
H7 H 0.6755 1.0488 0.0871
C5 C 0.6267(5) 0.9215(3) 0.1494(2)
C6 C 0.6937(5) 0.8961(4) 0.2030(2)
H8 H 0.7330 0.9543 0.2263
C7 C 0.7125(5) 0.7822(4) 0.2300(2)
H9 H 0.6681 0.7779 0.2724
H10 H 0.8094 0.7688 0.2365
C8 C 0.6551(4) 0.6923(4) 0.1862(2)
C9 C 0.5322(5) 0.7291(3) 0.1471(2)
H11 H 0.4646 0.7510 0.1801
C10 C 0.5579(4) 0.8354(3) 0.1069(2)
C11 C 0.4632(5) 0.6334(4) 0.1090(2)
H12 H 0.3664 0.6497 0.1047
H13 H 0.5018 0.6305 0.0653
C12 C 0.4789(5) 0.5202(4) 0.1405(2)
H14 H 0.4328 0.5193 0.1825
H15 H 0.4376 0.4640 0.1129
C13 C 0.6293(4) 0.4952(3) 0.1498(2)
C14 C 0.6940(5) 0.5859(4) 0.1894(2)
C15 C 0.7880(5) 0.5349(4) 0.2342(2)
H16 H 0.8518 0.5744 0.2586
C16 C 0.7738(5) 0.4229(4) 0.2371(2)
C17 C 0.6628(5) 0.3928(4) 0.1911(2)
C18 C 0.6511(6) 0.8120(4) 0.0481(2)
H17 H 0.6759 0.8807 0.0275
H18 H 0.6035 0.7660 0.0172
H19 H 0.7323 0.7746 0.0627
C19 C 0.7036(6) 0.4771(4) 0.0842(2)
H20 H 0.6908 0.5409 0.0568
H21 H 0.6666 0.4128 0.0628
H22 H 0.7995 0.4662 0.0921
C20 C 0.8438(5) 0.3466(4) 0.2811(2)
C21 C 0.9176(5) 0.3839(4) 0.3346(2)
H23 H 0.9255 0.4597 0.3418
C22 C 0.9792(6) 0.3117(6) 0.3770(3)
H24 H 1.0278 0.3393 0.4126
C23 C 0.9703(6) 0.1992(6) 0.3679(3)
H25 H 1.0101 0.1506 0.3977
C24 C 0.9025(6) 0.1598(5) 0.3149(3)
H26 H 0.8986 0.0837 0.3078
C25 C 0.8387(6) 0.2311(4) 0.2710(3)
H27 H 0.7927 0.2026 0.2349
O1 O 0.4689(5) 1.1860(3) 0.08482(18)
H28 H 0.4946 1.2298 0.1130
O2 O 0.6071(4) 0.3029(3) 0.18518(17)
C26 C 0.8798(9) 0.7647(5) 0.4396(4)
H29 H 0.9019 0.7791 0.4851
H30 H 0.7892 0.7320 0.4383
Cl1 Cl 0.9919(5) 0.6728(3) 0.4100(2)
Cl2 Cl 0.8759(3) 0.8889(2) 0.39819(16)
H31? H 0.7190 0.7092 0.1506
loop_
_geom_bond_atom_site_label_1
_geom_bond_atom_site_label_2
_geom_bond_site_symmetry_1
_geom_bond_site_symmetry_2
C1 H1 1_555 1_555
H2 C1 1_555 1_555
C2 C1 1_555 1_555
H3 C2 1_555 1_555
H4 C2 1_555 1_555
C3 C2 1_555 1_555
H5 C3 1_555 1_555
C4 C3 1_555 1_555
H6 C4 1_555 1_555
H7 C4 1_555 1_555
C5 C4 1_555 1_555
C6 C5 1_555 1_555
H8 C6 1_555 1_555
C7 C6 1_555 1_555
H9 C7 1_555 1_555
H10 C7 1_555 1_555
C8 C7 1_555 1_555
C9 C8 1_555 1_555
H11 C9 1_555 1_555
C10 C1 1_555 1_555
C11 C9 1_555 1_555
H12 C11 1_555 1_555
H13 C11 1_555 1_555
C12 C11 1_555 1_555
H14 C12 1_555 1_555
H15 C12 1_555 1_555
C13 C12 1_555 1_555
C14 C8 1_555 1_555
C15 C14 1_555 1_555
H16 C15 1_555 1_555
C16 C15 1_555 1_555
C17 C13 1_555 1_555
C18 C10 1_555 1_555
H17 C18 1_555 1_555
H18 C18 1_555 1_555
H19 C18 1_555 1_555
C19 C13 1_555 1_555
H20 C19 1_555 1_555
H21 C19 1_555 1_555
H22 C19 1_555 1_555
C20 C16 1_555 1_555
C21 C20 1_555 1_555
H23 C21 1_555 1_555
C22 C21 1_555 1_555
H24 C22 1_555 1_555
C23 C22 1_555 1_555
H25 C23 1_555 1_555
C24 C23 1_555 1_555
H26 C24 1_555 1_555
C25 C20 1_555 1_555
H27 C25 1_555 1_555
O1 C3 1_555 1_555
H28 O1 1_555 1_555
O2 C17 1_555 1_555
C26 H29 1_555 1_555
H30 C26 1_555 1_555
Cl1 C26 1_555 1_555
Cl2 C26 1_555 1_555
C5 C10 1_555 1_555
C9 C10 1_555 1_555
C13 C14 1_555 1_555
C16 C17 1_555 1_555
C24 C25 1_555 1_555

#END
