
#######################################################################
#
#                 Cambridge Crystallographic Data Centre
#                                CCDC 
#
#######################################################################
#
# If this CIF has been generated from an entry in the Cambridge 
# Structural Database, then it will include bibliographic, chemical, 
# crystal, experimental, refinement or atomic coordinate data resulting 
# from the CCDC's data processing and validation procedures.
#
#######################################################################

data_AMEGIK
_chemical_formula_moiety         'C13 H10 N4 O4 S1'
_chemical_name_systematic        1-(3-nitrophenyl)-3-(4-nitrophenyl)thiourea
_symmetry_cell_setting           orthorhombic
_symmetry_space_group_name_H-M   'P 21 21 21'
_symmetry_Int_Tables_number      19
_space_group_name_Hall           'P 2ac 2ab'
loop_
_symmetry_equiv_pos_site_id
_symmetry_equiv_pos_as_xyz
1 x,y,z
2 1/2-x,-y,1/2+z
3 -x,1/2+y,1/2-z
4 1/2+x,1/2-y,-z
_cell_length_a                   6.9411(7)
_cell_length_b                   12.9117(11)
_cell_length_c                   15.326(2)
_cell_angle_alpha                90
_cell_angle_beta                 90
_cell_angle_gamma                90
_cell_volume                     1373.54
_exptl_crystal_colour            'pale yellow'
_exptl_crystal_description       Shard
_cell_formula_units_Z            4
loop_
_atom_site_label
_atom_site_type_symbol
_atom_site_fract_x
_atom_site_fract_y
_atom_site_fract_z
S1 S 0.75755(8) 0.34394(4) 0.38247(3)
N1 N 0.7371(3) -0.10434(14) 0.18285(11)
N2 N 0.5495(3) 0.18369(13) 0.44280(11)
H1 H 0.4727 0.1600 0.4839
N3 N 0.5522(3) 0.32528(13) 0.52880(11)
H2 H 0.4781 0.2856 0.5612
N4 N 0.6434(4) 0.70088(15) 0.50219(15)
O1 O 0.7592(3) -0.07394(13) 0.10799(9)
O2 O 0.7624(3) -0.19450(11) 0.20557(11)
O3 O 0.6637(4) 0.78393(13) 0.53882(13)
O4 O 0.6333(4) 0.69235(14) 0.42293(13)
C1 C 0.6781(3) -0.02950(17) 0.24916(14)
C2 C 0.6604(3) -0.06223(17) 0.33497(14)
H3 H 0.6770 -0.1331 0.3500
C3 C 0.6184(3) 0.01043(16) 0.39792(14)
H4 H 0.6069 -0.0100 0.4572
C4 C 0.5926(3) 0.11416(15) 0.37471(13)
C5 C 0.6007(3) 0.14378(17) 0.28743(14)
H5 H 0.5750 0.2135 0.2713
C6 C 0.6460(3) 0.07177(17) 0.22475(14)
H6 H 0.6552 0.0916 0.1652
C7 C 0.6117(3) 0.28298(16) 0.45305(13)
C8 C 0.5921(3) 0.42470(17) 0.56363(14)
C9 C 0.6142(3) 0.43021(17) 0.65338(14)
H7 H 0.6076 0.3690 0.6876
C10 C 0.6460(3) 0.52472(18) 0.69309(15)
H8 H 0.6606 0.5277 0.7547
C11 C 0.6567(4) 0.61462(18) 0.64508(15)
H9 H 0.6793 0.6797 0.6722
C12 C 0.6333(3) 0.60636(16) 0.55567(15)
C13 C 0.5999(3) 0.51362(17) 0.51340(14)
H10 H 0.5829 0.5110 0.4519
loop_
_geom_bond_atom_site_label_1
_geom_bond_atom_site_label_2
_geom_bond_site_symmetry_1
_geom_bond_site_symmetry_2
S1 C7 1_555 1_555
N1 O1 1_555 1_555
N2 H1 1_555 1_555
N3 H2 1_555 1_555
N4 O3 1_555 1_555
O2 N1 1_555 1_555
O4 N4 1_555 1_555
C1 N1 1_555 1_555
C2 C1 1_555 1_555
H3 C2 1_555 1_555
C3 C2 1_555 1_555
H4 C3 1_555 1_555
C4 N2 1_555 1_555
C5 C4 1_555 1_555
H5 C5 1_555 1_555
C6 C1 1_555 1_555
H6 C6 1_555 1_555
C7 N2 1_555 1_555
C8 N3 1_555 1_555
C9 C8 1_555 1_555
H7 C9 1_555 1_555
C10 C9 1_555 1_555
H8 C10 1_555 1_555
C11 C10 1_555 1_555
H9 C11 1_555 1_555
C12 N4 1_555 1_555
C13 C8 1_555 1_555
H10 C13 1_555 1_555
N3 C7 1_555 1_555
C3 C4 1_555 1_555
C5 C6 1_555 1_555
C11 C12 1_555 1_555
C12 C13 1_555 1_555

#END
