
#######################################################################
#
#                 Cambridge Crystallographic Data Centre
#                                CCDC 
#
#######################################################################
#
# If this CIF has been generated from an entry in the Cambridge 
# Structural Database, then it will include bibliographic, chemical, 
# crystal, experimental, refinement or atomic coordinate data resulting 
# from the CCDC's data processing and validation procedures.
#
#######################################################################

data_AMEVAP
_chemical_name_common            Benzthiazide
_chemical_formula_moiety         'C15 H14 Cl1 N3 O4 S3'
_chemical_name_systematic        
6-Chloro-3-(((phenylmethyl)thio)methyl)-4H-1,2,4-benzthothiadiazine-7-sulfonamide-1,1-dioxide
_chemical_properties_biological  
'Diuretic used in the treatment of high blood pressure and edema.'
_symmetry_cell_setting           monoclinic
_symmetry_space_group_name_H-M   'P 21/a'
_symmetry_Int_Tables_number      14
_space_group_name_Hall           '-P 2yab'
loop_
_symmetry_equiv_pos_site_id
_symmetry_equiv_pos_as_xyz
1 x,y,z
2 1/2-x,1/2+y,-z
3 -x,-y,-z
4 1/2+x,1/2-y,z
_cell_length_a                   10.726(2)
_cell_length_b                   9.0275(13)
_cell_length_c                   18.333(7)
_cell_angle_alpha                90
_cell_angle_beta                 97.24(2)
_cell_angle_gamma                90
_cell_volume                     1761.01
_exptl_crystal_colour            'pale yellow'
_exptl_crystal_description       block
_cell_formula_units_Z            4
_exptl_crystal_recrystallization_method methanol
loop_
_atom_site_label
_atom_site_type_symbol
_atom_site_fract_x
_atom_site_fract_y
_atom_site_fract_z
Cl1 Cl 0.57027(9) 0.53379(10) 0.08261(4)
S1 S 0.87253(8) 0.23356(8) 0.35510(4)
S2 S 0.82760(8) 0.78271(8) 0.44857(4)
S3 S 0.69419(9) 0.20746(9) 0.06501(4)
O1 O 0.8019(3) 0.1133(3) 0.38027(13)
O2 O 0.9946(3) 0.1997(3) 0.33763(14)
O3 O 0.7592(3) 0.0706(3) 0.08072(13)
O4 O 0.5649(3) 0.2050(3) 0.0345(2)
N1 N 0.8838(3) 0.3624(3) 0.41740(13)
N2 N 0.7698(4) 0.2967(4) 0.0104(2)
N3 N 0.7370(2) 0.5215(3) 0.35125(14)
C1 C 0.8172(3) 0.4829(3) 0.4100(2)
C2 C 0.6559(3) 0.5116(3) 0.2241(2)
C3 C 0.6482(3) 0.4420(3) 0.1571(2)
C4 C 0.7060(3) 0.3039(3) 0.1497(2)
C5 C 0.7755(3) 0.2411(3) 0.2100(2)
C6 C 0.7845(3) 0.3125(3) 0.2778(2)
C7 C 0.7246(2) 0.4475(3) 0.2848(2)
C8 C 0.8302(3) 0.5898(3) 0.4738(2)
C9 C 0.9708(3) 0.7986(4) 0.4059(2)
C10 C 0.9637(3) 0.7415(4) 0.3288(2)
C11 C 1.0354(3) 0.6221(4) 0.3108(2)
C12 C 1.0272(4) 0.5745(5) 0.2381(3)
C13 C 0.9493(4) 0.6437(5) 0.1837(2)
C14 C 0.8761(4) 0.7607(5) 0.2008(2)
C15 C 0.8833(3) 0.8092(4) 0.2731(2)
H1 H 0.815(3) 0.152(4) 0.2072(16)
H2 H 0.614(3) 0.606(4) 0.2280(18)
H3 H 0.706(4) 0.597(5) 0.353(2)
H4 H 0.754(3) 0.582(4) 0.499(2)
H5 H 0.902(4) 0.571(5) 0.512(2)
H6 H 1.025(3) 0.746(4) 0.437(2)
H7 H 0.979(3) 0.902(5) 0.406(2)
H8 H 1.085(4) 0.580(5) 0.347(2)
H9 H 1.072(5) 0.499(7) 0.224(3)
H10 H 0.951(4) 0.608(6) 0.137(3)
H11 H 0.806(4) 0.825(6) 0.163(3)
H12 H 0.829(3) 0.897(4) 0.285(2)
H13 H 0.851(5) 0.295(6) 0.017(3)
H14 H 0.745(5) 0.368(7) -0.005(3)
loop_
_geom_bond_atom_site_label_1
_geom_bond_atom_site_label_2
_geom_bond_site_symmetry_1
_geom_bond_site_symmetry_2
Cl1 C3 1_555 1_555
S1 O1 1_555 1_555
S2 C8 1_555 1_555
S3 O3 1_555 1_555
O2 S1 1_555 1_555
O4 S3 1_555 1_555
N1 S1 1_555 1_555
N2 S3 1_555 1_555
N3 C1 1_555 1_555
C1 N1 1_555 1_555
C2 C3 1_555 1_555
C3 C4 1_555 1_555
C4 S3 1_555 1_555
C5 C4 1_555 1_555
C6 S1 1_555 1_555
C7 N3 1_555 1_555
C8 C1 1_555 1_555
C9 S2 1_555 1_555
C10 C9 1_555 1_555
C11 C10 1_555 1_555
C12 C11 1_555 1_555
C13 C12 1_555 1_555
C14 C13 1_555 1_555
C15 C10 1_555 1_555
H1 C5 1_555 1_555
H2 C2 1_555 1_555
H3 N3 1_555 1_555
H4 C8 1_555 1_555
H5 C8 1_555 1_555
H6 C9 1_555 1_555
H7 C9 1_555 1_555
H8 C11 1_555 1_555
H9 C12 1_555 1_555
H10 C13 1_555 1_555
H11 C14 1_555 1_555
H12 C15 1_555 1_555
H13 N2 1_555 1_555
H14 N2 1_555 1_555
C2 C7 1_555 1_555
C5 C6 1_555 1_555
C6 C7 1_555 1_555
C14 C15 1_555 1_555

#END
