
#######################################################################
#
#                 Cambridge Crystallographic Data Centre
#                                CCDC 
#
#######################################################################
#
# If this CIF has been generated from an entry in the Cambridge 
# Structural Database, then it will include bibliographic, chemical, 
# crystal, experimental, refinement or atomic coordinate data resulting 
# from the CCDC's data processing and validation procedures.
#
#######################################################################

data_AMEVOF
_chemical_formula_moiety         'C13 H19 N3 O3'
_chemical_name_systematic        1-hexyl-3-(4-nitrophenyl)urea
_symmetry_cell_setting           monoclinic
_symmetry_space_group_name_H-M   'P 21'
_symmetry_Int_Tables_number      4
_space_group_name_Hall           'P 2yb'
loop_
_symmetry_equiv_pos_site_id
_symmetry_equiv_pos_as_xyz
1 x,y,z
2 -x,1/2+y,-z
_cell_length_a                   4.902(8)
_cell_length_b                   6.382(6)
_cell_length_c                   20.86(8)
_cell_angle_alpha                90
_cell_angle_beta                 92.13(18)
_cell_angle_gamma                90
_cell_volume                     652.145
_exptl_crystal_colour            colorless
_exptl_crystal_description       Plate
_cell_formula_units_Z            2
loop_
_atom_site_label
_atom_site_type_symbol
_atom_site_fract_x
_atom_site_fract_y
_atom_site_fract_z
C1 C 0.4013(19) 1.077(2) 0.3246(6)
H1 H 0.4852 1.1308 0.2878
C2 C 0.491(2) 0.8941(17) 0.3522(6)
H2 H 0.6412 0.8217 0.3351
C3 C 0.363(2) 0.8141(16) 0.4051(5)
C4 C 0.145(2) 0.9148(15) 0.4319(5)
H3 H 0.0571 0.8591 0.4680
C5 C 0.062(2) 1.0987(17) 0.4037(5)
H4 H -0.0873 1.1713 0.4212
C6 C 0.183(2) 1.1833(18) 0.3517(5)
C7 C 0.186(2) 1.4807(17) 0.2758(5)
C8 C 0.079(2) 1.7576(17) 0.2001(5)
H5 H 0.1026 1.6781 0.1599
H6 H 0.2576 1.8196 0.2129
C9 C -0.122(2) 1.9324(17) 0.1868(6)
H7 H -0.1420 2.0149 0.2265
H8 H -0.3026 1.8707 0.1751
C10 C -0.040(2) 2.079(2) 0.1335(6)
H9 H 0.0019 1.9941 0.0954
H10 H 0.1285 2.1534 0.1475
C11 C -0.257(2) 2.241(2) 0.1139(6)
H11 H -0.4253 2.1672 0.0988
H12 H -0.3020 2.3251 0.1519
C12 C -0.168(2) 2.3823(19) 0.0629(6)
H13 H -0.1354 2.2984 0.0240
H14 H 0.0072 2.4476 0.0769
C13 C -0.374(2) 2.556(2) 0.0455(7)
H15 H -0.5370 2.4942 0.0244
H16 H -0.2912 2.6561 0.0164
H17 H -0.4259 2.6287 0.0846
N1 N 0.458(2) 0.6193(15) 0.4329(5)
N2 N 0.0725(17) 1.3641(15) 0.3224(4)
H18 H -0.0868 1.4063 0.3356
N3 N 0.0013(19) 1.6172(14) 0.2482(4)
H19 H -0.1682 1.6173 0.2607
O1 O 0.3266(14) 0.5412(11) 0.4747(4)
O2 O 0.6614(14) 0.5338(13) 0.4119(4)
O3 O 0.4234(14) 1.4734(11) 0.2611(4)
loop_
_geom_bond_atom_site_label_1
_geom_bond_atom_site_label_2
_geom_bond_site_symmetry_1
_geom_bond_site_symmetry_2
C1 H1 1_555 1_555
C2 C1 1_555 1_555
H2 C2 1_555 1_555
C3 C2 1_555 1_555
C4 C3 1_555 1_555
H3 C4 1_555 1_555
C5 C4 1_555 1_555
H4 C5 1_555 1_555
C6 C1 1_555 1_555
C7 N2 1_555 1_555
C8 H5 1_555 1_555
H6 C8 1_555 1_555
C9 C8 1_555 1_555
H7 C9 1_555 1_555
H8 C9 1_555 1_555
C10 C9 1_555 1_555
H9 C10 1_555 1_555
H10 C10 1_555 1_555
C11 C10 1_555 1_555
H11 C11 1_555 1_555
H12 C11 1_555 1_555
C12 C11 1_555 1_555
H13 C12 1_555 1_555
H14 C12 1_555 1_555
C13 C12 1_555 1_555
H15 C13 1_555 1_555
H16 C13 1_555 1_555
H17 C13 1_555 1_555
N1 C3 1_555 1_555
N2 C6 1_555 1_555
H18 N2 1_555 1_555
N3 C7 1_555 1_555
H19 N3 1_555 1_555
O1 N1 1_555 1_555
O2 N1 1_555 1_555
O3 C7 1_555 1_555
C5 C6 1_555 1_555
C8 N3 1_555 1_555

#END
