
#######################################################################
#
#                 Cambridge Crystallographic Data Centre
#                                CCDC 
#
#######################################################################
#
# If this CIF has been generated from an entry in the Cambridge 
# Structural Database, then it will include bibliographic, chemical, 
# crystal, experimental, refinement or atomic coordinate data resulting 
# from the CCDC's data processing and validation procedures.
#
#######################################################################

data_AMEVET
_chemical_name_common            'Benzthiazide monohydrate'
_chemical_formula_moiety         'C15 H14 Cl1 N3 O4 S3,H2 O1'
_chemical_name_systematic        
'6-Chloro-3-(((phenylmethyl)thio)methyl)4H-1,2,4-benzthothiadiazine-7-sulfonamide-1,1-dioxide monohydrate'
_symmetry_cell_setting           monoclinic
_symmetry_space_group_name_H-M   'P 21'
_symmetry_Int_Tables_number      4
_space_group_name_Hall           'P 2yb'
loop_
_symmetry_equiv_pos_site_id
_symmetry_equiv_pos_as_xyz
1 x,y,z
2 -x,1/2+y,-z
_cell_length_a                   12.243(2)
_cell_length_b                   4.905(2)
_cell_length_c                   31.957(3)
_cell_angle_alpha                90
_cell_angle_beta                 96.34(3)
_cell_angle_gamma                90
_cell_volume                     1907.34
_exptl_crystal_colour            colorless
_exptl_crystal_description       block
_cell_formula_units_Z            4
loop_
_atom_site_label
_atom_site_type_symbol
_atom_site_fract_x
_atom_site_fract_y
_atom_site_fract_z
Cl1 Cl 0.53917(19) -0.1244(7) 0.38218(7)
S1 S 0.74831(19) 0.6896(6) 0.26401(7)
S2 S 0.4164(2) 0.5158(7) 0.15795(8)
S3 S 0.7769(2) 0.1752(6) 0.41634(7)
O1 O 0.8087(5) 0.9095(18) 0.28459(19)
O2 O 0.8100(5) 0.5156(18) 0.23881(18)
O3 O 0.8812(4) 0.3124(16) 0.41438(17)
O4 O 0.7752(5) -0.1094(16) 0.4247(2)
N1 N 0.6465(6) 0.8094(19) 0.2329(2)
N2 N 0.7142(6) 0.331(2) 0.45026(19)
H1 H 0.7400 0.3540 0.4796
H2 H 0.6503 0.2757 0.4572
C1 C 0.5525(8) 0.674(3) 0.2285(3)
N3 N 0.5239(6) 0.472(2) 0.2521(2)
H3 H 0.4687 0.3081 0.2415
C2 C 0.5420(8) 0.187(3) 0.3141(2)
H4 H 0.4740 0.1089 0.3056
C3 C 0.5995(7) 0.112(2) 0.3520(2)
C4 C 0.7017(7) 0.242(2) 0.3658(2)
C5 C 0.7453(7) 0.422(3) 0.3396(3)
H5 H 0.8141 0.4963 0.3480
C6 C 0.6902(7) 0.498(2) 0.3008(3)
C7 C 0.5857(7) 0.379(2) 0.2890(3)
C8 C 0.4645(8) 0.783(3) 0.1938(3)
H6 H 0.4958 0.9283 0.1784
H7 H 0.4031 0.8569 0.2069
C9 C 0.5411(12) 0.445(3) 0.1337(4)
H8 H 0.6007 0.4149 0.1558
H9 H 0.5306 0.2770 0.1177
C10 C 0.5749(10) 0.662(3) 0.1053(3)
C11 C 0.6811(12) 0.784(4) 0.1101(4)
H10 H 0.7304 0.7332 0.1330
C12 C 0.7131(13) 0.969(4) 0.0832(5)
H11 H 0.7852 1.0317 0.0871
C13 C 0.6416(12) 1.073(3) 0.0489(4)
H12 H 0.6624 1.2076 0.0308
C14 C 0.5375(12) 0.956(3) 0.0449(4)
H13 H 0.4868 1.0143 0.0229
C15 C 0.5052(11) 0.761(3) 0.0717(3)
H14 H 0.4340 0.6922 0.0670
Cl2 Cl 0.04097(19) 0.8699(7) 0.38467(7)
S4 S 0.24520(19) 0.0408(6) 0.26794(7)
S5 S -0.0008(2) 0.1358(7) 0.14657(7)
S6 S 0.2785(2) 0.5641(6) 0.41901(8)
O5 O 0.3048(5) -0.1844(17) 0.28915(19)
O6 O 0.3087(4) 0.2153(17) 0.24246(17)
O7 O 0.3834(5) 0.4363(16) 0.41704(17)
O8 O 0.2770(5) 0.8546(18) 0.4271(2)
N4 N 0.2186(6) 0.417(2) 0.4538(2)
H15 H 0.1800 0.4966 0.4704
H16 H 0.2200 0.2536 0.4575
N5 N 0.1418(6) -0.077(2) 0.2372(2)
C16 C 0.0492(8) 0.067(3) 0.2318(3)
N6 N 0.0244(6) 0.289(2) 0.2543(2)
H17 H -0.0374 0.2485 0.2550
C17 C 0.0443(7) 0.555(3) 0.3176(2)
H18 H -0.0227 0.6386 0.3090
C18 C 0.1002(7) 0.625(3) 0.3553(3)
C19 C 0.2031(7) 0.502(2) 0.3694(3)
C20 C 0.2438(7) 0.308(2) 0.3424(3)
H19 H 0.3096 0.2193 0.3508
C21 C 0.1872(7) 0.250(2) 0.3039(2)
C22 C 0.0859(7) 0.362(3) 0.2918(3)
C23 C -0.0322(7) -0.011(3) 0.1954(2)
H20 H -0.1048 0.0492 0.2010
H21 H -0.0339 -0.2076 0.1928
C24 C 0.1176(10) -0.071(4) 0.1356(3)
H22 H 0.1815 -0.0232 0.1549
H23 H 0.1020 -0.2627 0.1390
C25 C 0.1392(9) -0.014(3) 0.0909(3)
C26 C 0.2133(10) 0.166(4) 0.0802(4)
H24 H 0.2523 0.2673 0.1016
C27 C 0.2356(12) 0.212(4) 0.0390(5)
H25 H 0.2856 0.3446 0.0329
C28 C 0.1834(12) 0.059(4) 0.0084(4)
H26 H 0.1988 0.0821 -0.0193
C29 C 0.1079(14) -0.129(4) 0.0175(5)
H27 H 0.0712 -0.2327 -0.0040
C30 C 0.0857(12) -0.166(4) 0.0586(4)
H28 H 0.0341 -0.2957 0.0646
O9 O 0.5095(5) 0.1217(18) 0.48066(17)
H29 H 0.5000 -0.0494 0.4864
H30 H 0.5000 0.0946 0.4572
O10 O 0.0094(5) 0.6028(19) 0.48078(17)
H31 H 0.0000 0.7542 0.4814
H32 H -0.0400 0.5407 0.4583
loop_
_geom_bond_atom_site_label_1
_geom_bond_atom_site_label_2
_geom_bond_site_symmetry_1
_geom_bond_site_symmetry_2
Cl1 C3 1_555 1_555
S1 O1 1_555 1_555
S2 C8 1_555 1_555
S3 O3 1_555 1_555
O2 S1 1_555 1_555
O4 S3 1_555 1_555
N1 S1 1_555 1_555
N2 S3 1_555 1_555
H1 N2 1_555 1_555
H2 N2 1_555 1_555
C1 N1 1_555 1_555
N3 C1 1_555 1_555
H3 N3 1_555 1_555
C2 H4 1_555 1_555
C3 C2 1_555 1_555
C4 S3 1_555 1_555
C5 C4 1_555 1_555
H5 C5 1_555 1_555
C6 S1 1_555 1_555
C7 N3 1_555 1_555
C8 C1 1_555 1_555
H6 C8 1_555 1_555
H7 C8 1_555 1_555
C9 S2 1_555 1_555
H8 C9 1_555 1_555
H9 C9 1_555 1_555
C10 C9 1_555 1_555
C11 C10 1_555 1_555
H10 C11 1_555 1_555
C12 C11 1_555 1_555
H11 C12 1_555 1_555
C13 C12 1_555 1_555
H12 C13 1_555 1_555
C14 C13 1_555 1_555
H13 C14 1_555 1_555
C15 C10 1_555 1_555
H14 C15 1_555 1_555
Cl2 C18 1_555 1_555
S4 O5 1_555 1_555
S5 C23 1_555 1_555
S6 O7 1_555 1_555
O6 S4 1_555 1_555
O8 S6 1_555 1_555
N4 S6 1_555 1_555
H15 N4 1_555 1_555
H16 N4 1_555 1_555
N5 S4 1_555 1_555
C16 N5 1_555 1_555
N6 C16 1_555 1_555
H17 N6 1_555 1_555
C17 H18 1_555 1_555
C18 C17 1_555 1_555
C19 S6 1_555 1_555
C20 C19 1_555 1_555
H19 C20 1_555 1_555
C21 S4 1_555 1_555
C22 N6 1_555 1_555
C23 C16 1_555 1_555
H20 C23 1_555 1_555
H21 C23 1_555 1_555
C24 S5 1_555 1_555
H22 C24 1_555 1_555
H23 C24 1_555 1_555
C25 C24 1_555 1_555
C26 C25 1_555 1_555
H24 C26 1_555 1_555
C27 C26 1_555 1_555
H25 C27 1_555 1_555
C28 C27 1_555 1_555
H26 C28 1_555 1_555
C29 C28 1_555 1_555
H27 C29 1_555 1_555
C30 C25 1_555 1_555
H28 C30 1_555 1_555
O9 H29 1_555 1_555
H30 O9 1_555 1_555
O10 H31 1_555 1_555
H32 O10 1_555 1_555
C2 C7 1_555 1_555
C3 C4 1_555 1_555
C5 C6 1_555 1_555
C6 C7 1_555 1_555
C14 C15 1_555 1_555
C17 C22 1_555 1_555
C18 C19 1_555 1_555
C20 C21 1_555 1_555
C21 C22 1_555 1_555
C29 C30 1_555 1_555

#END
