
#######################################################################
#
#                 Cambridge Crystallographic Data Centre
#                                CCDC 
#
#######################################################################
#
# If this CIF has been generated from an entry in the Cambridge 
# Structural Database, then it will include bibliographic, chemical, 
# crystal, experimental, refinement or atomic coordinate data resulting 
# from the CCDC's data processing and validation procedures.
#
#######################################################################

data_AMEXUL
_chemical_name_common            
'4,6-bis(2-(6-ethoxycarbonyl pyridyl))pyrimidine'
_chemical_formula_moiety         'C20 H18 N4 O4'
_chemical_name_systematic        
'Diethyl pyrimidine-4,6-diylbis(2-pyridyl-6-carboxylate)'
_symmetry_cell_setting           orthorhombic
_symmetry_space_group_name_H-M   'P n a 21'
_symmetry_Int_Tables_number      33
_space_group_name_Hall           'P 2c -2n'
loop_
_symmetry_equiv_pos_site_id
_symmetry_equiv_pos_as_xyz
1 x,y,z
2 -x,-y,1/2+z
3 1/2-x,1/2+y,1/2+z
4 1/2+x,1/2-y,z
_cell_length_a                   18.675(3)
_cell_length_b                   4.3936(13)
_cell_length_c                   44.604(5)
_cell_angle_alpha                90
_cell_angle_beta                 90
_cell_angle_gamma                90
_cell_volume                     3659.78
_exptl_crystal_colour            colorless
_exptl_crystal_description       block
_chemical_melting_point          162deg.C
_cell_formula_units_Z            8
loop_
_atom_site_label
_atom_site_type_symbol
_atom_site_fract_x
_atom_site_fract_y
_atom_site_fract_z
N1 N 0.8523(3) 0.5433(13) 0.55742(13)
C1 C 0.8600(4) 0.5842(18) 0.58696(19)
H1 H 0.8272 0.7135 0.5961
N2 N 0.9090(3) 0.4621(13) 0.60468(12)
C2 C 0.9575(4) 0.2792(16) 0.59165(17)
C3 C 0.9552(3) 0.2247(14) 0.56052(17)
H2 H 0.9891 0.1001 0.5514
C4 C 0.9033(4) 0.3563(16) 0.54434(15)
C5 C 0.8935(4) 0.3095(15) 0.51172(16)
N3 N 0.9408(3) 0.1229(14) 0.49832(13)
C6 C 0.9308(4) 0.0794(15) 0.46889(16)
C7 C 0.8783(4) 0.2050(18) 0.45258(19)
H3 H 0.8743 0.1598 0.4323
C8 C 0.8308(4) 0.3992(16) 0.46572(19)
H4 H 0.7952 0.4927 0.4544
C9 C 0.8365(4) 0.4559(17) 0.49655(16)
H5 H 0.8045 0.5828 0.5065
C10 C 1.0094(4) 0.1413(17) 0.61094(17)
N4 N 1.0566(3) -0.0510(12) 0.59778(11)
C11 C 1.1051(4) -0.1759(17) 0.61511(18)
C12 C 1.1136(4) -0.1263(18) 0.64532(18)
H6 H 1.1503 -0.2177 0.6561
C13 C 1.0649(5) 0.0657(17) 0.65884(16)
H7 H 1.0672 0.0996 0.6794
C14 C 1.0123(4) 0.2089(17) 0.64184(17)
H8 H 0.9801 0.3443 0.6505
C15 C 1.1583(5) -0.378(2) 0.6014(2)
O1 O 1.2083(3) -0.4983(13) 0.61391(13)
O2 O 1.1455(3) -0.4271(12) 0.57232(12)
C16 C 1.1939(4) -0.6306(19) 0.5558(2)
H9 H 1.2372 -0.5233 0.5500
H10 H 1.2071 -0.8036 0.5682
C17 C 1.1563(5) -0.727(2) 0.5304(3)
H11 H 1.1860 -0.8619 0.5188
H12 H 1.1436 -0.5538 0.5184
H13 H 1.1137 -0.8324 0.5365
C18 C 0.9832(4) -0.1286(17) 0.45395(18)
O3 O 0.9825(3) -0.1641(13) 0.42668(12)
O4 O 1.0287(3) -0.2548(10) 0.47156(12)
C19 C 1.0812(4) -0.4618(17) 0.45896(15)
H14 H 1.0641 -0.5404 0.4399
H15 H 1.0885 -0.6322 0.4724
C20 C 1.1494(5) -0.2979(17) 0.4544(2)
H16 H 1.1839 -0.4331 0.4457
H17 H 1.1669 -0.2263 0.4734
H18 H 1.1417 -0.1279 0.4413
N5 N 0.6750(3) 0.4642(14) 0.72264(13)
C21 C 0.6270(4) 0.5904(18) 0.74058(16)
H19 H 0.5932 0.7164 0.7316
N6 N 0.6219(3) 0.5556(12) 0.77044(13)
C22 C 0.6690(3) 0.3645(15) 0.78272(16)
C23 C 0.7219(3) 0.2254(14) 0.76622(17)
H20 H 0.7559 0.1013 0.7753
C24 C 0.7231(4) 0.2764(14) 0.73541(19)
C25 C 0.7736(4) 0.1355(16) 0.71505(14)
N7 N 0.8216(3) -0.0393(12) 0.72791(12)
C26 C 0.8700(4) -0.1754(17) 0.70968(18)
C27 C 0.8705(4) -0.1333(18) 0.67855(16)
H21 H 0.9043 -0.2300 0.6666
C28 C 0.8200(5) 0.0536(18) 0.66633(17)
H22 H 0.8196 0.0910 0.6458
C29 C 0.7701(4) 0.1851(17) 0.68451(18)
H23 H 0.7342 0.3067 0.6764
C30 C 0.6627(4) 0.3132(17) 0.81669(17)
N8 N 0.7094(3) 0.1285(12) 0.82865(12)
C31 C 0.7031(4) 0.0797(15) 0.85797(15)
C32 C 0.6510(4) 0.2078(16) 0.87573(18)
H24 H 0.6490 0.1663 0.8962
C33 C 0.6025(4) 0.396(2) 0.86274(18)
H25 H 0.5655 0.4837 0.8738
C34 C 0.6102(3) 0.4537(16) 0.83234(17)
H26 H 0.5793 0.5883 0.8227
C35 C 0.7566(4) -0.1271(17) 0.8724(2)
O5 O 0.7551(3) -0.1717(13) 0.89963(11)
O6 O 0.8005(2) -0.2528(10) 0.85408(12)
C36 C 0.8526(4) -0.4643(16) 0.86690(15)
H27 H 0.8596 -0.6348 0.8534
H28 H 0.8348 -0.5428 0.8858
C37 C 0.9227(4) -0.3050(18) 0.8719(2)
H29 H 0.9565 -0.4450 0.8804
H30 H 0.9157 -0.1372 0.8854
H31 H 0.9406 -0.2309 0.8531
C38 C 0.9254(5) -0.3783(18) 0.72291(17)
O7 O 0.9758(3) -0.4858(12) 0.70943(11)
O8 O 0.9140(3) -0.4261(11) 0.75159(11)
C39 C 0.9649(4) -0.6253(19) 0.7672(2)
H32 H 1.0089 -0.5170 0.7715
H33 H 0.9762 -0.8016 0.7549
C40 C 0.9283(5) -0.7208(18) 0.7957(2)
H34 H 0.9598 -0.8491 0.8071
H35 H 0.8853 -0.8306 0.7910
H36 H 0.9164 -0.5436 0.8073
loop_
_geom_bond_atom_site_label_1
_geom_bond_atom_site_label_2
_geom_bond_site_symmetry_1
_geom_bond_site_symmetry_2
N1 C1 1_555 1_555
C1 H1 1_555 1_555
N2 C1 1_555 1_555
C2 N2 1_555 1_555
C3 C2 1_555 1_555
H2 C3 1_555 1_555
C4 N1 1_555 1_555
C5 C4 1_555 1_555
N3 C5 1_555 1_555
C6 N3 1_555 1_555
C7 C6 1_555 1_555
H3 C7 1_555 1_555
C8 C7 1_555 1_555
H4 C8 1_555 1_555
C9 C5 1_555 1_555
H5 C9 1_555 1_555
C10 C2 1_555 1_555
N4 C10 1_555 1_555
C11 N4 1_555 1_555
C12 C11 1_555 1_555
H6 C12 1_555 1_555
C13 C12 1_555 1_555
H7 C13 1_555 1_555
C14 C10 1_555 1_555
H8 C14 1_555 1_555
C15 C11 1_555 1_555
O1 C15 1_555 1_555
O2 C15 1_555 1_555
C16 O2 1_555 1_555
H9 C16 1_555 1_555
H10 C16 1_555 1_555
C17 C16 1_555 1_555
H11 C17 1_555 1_555
H12 C17 1_555 1_555
H13 C17 1_555 1_555
C18 C6 1_555 1_555
O3 C18 1_555 1_555
O4 C18 1_555 1_555
C19 O4 1_555 1_555
H14 C19 1_555 1_555
H15 C19 1_555 1_555
C20 C19 1_555 1_555
H16 C20 1_555 1_555
H17 C20 1_555 1_555
H18 C20 1_555 1_555
N5 C21 1_555 1_555
C21 H19 1_555 1_555
N6 C21 1_555 1_555
C22 N6 1_555 1_555
C23 C22 1_555 1_555
H20 C23 1_555 1_555
C24 N5 1_555 1_555
C25 C24 1_555 1_555
N7 C25 1_555 1_555
C26 N7 1_555 1_555
C27 C26 1_555 1_555
H21 C27 1_555 1_555
C28 C27 1_555 1_555
H22 C28 1_555 1_555
C29 C25 1_555 1_555
H23 C29 1_555 1_555
C30 C22 1_555 1_555
N8 C30 1_555 1_555
C31 N8 1_555 1_555
C32 C31 1_555 1_555
H24 C32 1_555 1_555
C33 C32 1_555 1_555
H25 C33 1_555 1_555
C34 C30 1_555 1_555
H26 C34 1_555 1_555
C35 C31 1_555 1_555
O5 C35 1_555 1_555
O6 C35 1_555 1_555
C36 O6 1_555 1_555
H27 C36 1_555 1_555
H28 C36 1_555 1_555
C37 C36 1_555 1_555
H29 C37 1_555 1_555
H30 C37 1_555 1_555
H31 C37 1_555 1_555
C38 C26 1_555 1_555
O7 C38 1_555 1_555
O8 C38 1_555 1_555
C39 O8 1_555 1_555
H32 C39 1_555 1_555
H33 C39 1_555 1_555
C40 C39 1_555 1_555
H34 C40 1_555 1_555
H35 C40 1_555 1_555
H36 C40 1_555 1_555
C3 C4 1_555 1_555
C8 C9 1_555 1_555
C13 C14 1_555 1_555
C23 C24 1_555 1_555
C28 C29 1_555 1_555
C33 C34 1_555 1_555

#END
