
#######################################################################
#
#                 Cambridge Crystallographic Data Centre
#                                CCDC 
#
#######################################################################
#
# If this CIF has been generated from an entry in the Cambridge 
# Structural Database, then it will include bibliographic, chemical, 
# crystal, experimental, refinement or atomic coordinate data resulting 
# from the CCDC's data processing and validation procedures.
#
#######################################################################

data_AMHBZO01
_chemical_formula_moiety         'C14 H11 O4 1-,H4 N1 1+'
_chemical_name_systematic        'Ammonium hydrogen bis(benzoate)'
_symmetry_cell_setting           monoclinic
_symmetry_space_group_name_H-M   'C 2/c'
_symmetry_Int_Tables_number      15
_space_group_name_Hall           '-C 2yn'
loop_
_symmetry_equiv_pos_site_id
_symmetry_equiv_pos_as_xyz
1 x,y,z
2 -x,y,1/2-z
3 1/2+x,1/2+y,z
4 1/2-x,1/2+y,1/2-z
5 -x,-y,-z
6 x,-y,1/2+z
7 1/2-x,1/2-y,-z
8 1/2+x,1/2-y,1/2+z
_cell_length_a                   29.234(10)
_cell_length_b                   3.8543(13)
_cell_length_c                   11.408(4)
_cell_angle_alpha                90
_cell_angle_beta                 94.455(5)
_cell_angle_gamma                90
_cell_volume                     1281.53
_exptl_crystal_colour            colorless
_exptl_crystal_description       Plates
_cell_formula_units_Z            4
loop_
_atom_site_label
_atom_site_type_symbol
_atom_site_fract_x
_atom_site_fract_y
_atom_site_fract_z
O1 O 0.03750(6) 0.0361(5) 0.05617(15)
O2 O 0.06072(7) 0.1576(5) -0.12020(15)
C1 C 0.19172(10) 0.4100(7) 0.0244(3)
C2 C 0.20390(10) 0.3212(7) 0.1406(3)
C3 C 0.14805(10) 0.3491(7) -0.0238(3)
C4 C 0.17210(9) 0.1723(7) 0.2077(2)
C5 C 0.12771(10) 0.1121(7) 0.1606(2)
C6 C 0.06856(9) 0.1292(6) -0.0127(2)
C7 C 0.11564(9) 0.1970(6) 0.0435(2)
H1 H 0.1800(10) 0.102(7) 0.289(3)
H2 H 0.2354(10) 0.363(7) 0.176(2)
H3 H 0.0000 0.0000 0.0000
H4 H 0.1380(9) 0.403(7) -0.100(3)
H5 H 0.2151(10) 0.526(8) -0.019(3)
H6 H 0.1052(9) 0.012(7) 0.202(2)
O1D O -0.03750(6) -0.0361(5) -0.05617(15)
O2D O -0.06072(7) -0.1576(5) 0.12020(15)
C1D C -0.19172(10) -0.4100(7) -0.0244(3)
C2D C -0.20390(10) -0.3212(7) -0.1406(3)
C3D C -0.14805(10) -0.3491(7) 0.0238(3)
C4D C -0.17210(9) -0.1723(7) -0.2077(2)
C5D C -0.12771(10) -0.1121(7) -0.1606(2)
C6D C -0.06856(9) -0.1292(6) 0.0127(2)
C7D C -0.11564(9) -0.1970(6) -0.0435(2)
H1D H -0.1800(10) -0.102(7) -0.289(3)
H2D H -0.2354(10) -0.363(7) -0.176(2)
H4D H -0.1380(9) -0.403(7) 0.100(3)
H5D H -0.2151(10) -0.526(8) 0.019(3)
H6D H -0.1052(9) -0.012(7) -0.202(2)
N1 N 0.0000 0.4081(11) 0.2500
H7 H 0.0162(12) 0.266(11) 0.200(3)
H8 H -0.0203(11) 0.539(10) 0.213(3)
H7A H -0.0162(12) 0.266(11) 0.300(3)
H8A H 0.0203(11) 0.539(10) 0.287(3)
loop_
_geom_bond_atom_site_label_1
_geom_bond_atom_site_label_2
_geom_bond_site_symmetry_1
_geom_bond_site_symmetry_2
O1 C6 1_555 1_555
O2 C6 1_555 1_555
C1 C2 1_555 1_555
C2 C4 1_555 1_555
C3 C1 1_555 1_555
C4 C5 1_555 1_555
C5 C7 1_555 1_555
C6 C7 1_555 1_555
C7 C3 1_555 1_555
H1 C4 1_555 1_555
H2 C2 1_555 1_555
H3 O1 1_555 1_555
H4 C3 1_555 1_555
H5 C1 1_555 1_555
H6 C5 1_555 1_555
N1 H7 1_555 1_555
H8 N1 1_555 1_555
O1D H3 1_555 1_555
O2D C6D 1_555 1_555
C1D C2D 1_555 1_555
C2D C4D 1_555 1_555
C3D C1D 1_555 1_555
C4D C5D 1_555 1_555
C5D C7D 1_555 1_555
C6D O1D 1_555 1_555
C7D C3D 1_555 1_555
H1D C4D 1_555 1_555
H2D C2D 1_555 1_555
H4D C3D 1_555 1_555
H5D C1D 1_555 1_555
H6D C5D 1_555 1_555
H7A N1 1_555 1_555
H8A N1 1_555 1_555
C6D C7D 1_555 1_555

#END
