
#######################################################################
#
#                 Cambridge Crystallographic Data Centre
#                                CCDC 
#
#######################################################################
#
# If this CIF has been generated from an entry in the Cambridge 
# Structural Database, then it will include bibliographic, chemical, 
# crystal, experimental, refinement or atomic coordinate data resulting 
# from the CCDC's data processing and validation procedures.
#
#######################################################################

data_AMICEE
_chemical_formula_moiety         'C48 H34 O2 P2,C6 H6'
_chemical_name_systematic        
'1,16-bis(Diphenylphosphinoyl)tetraphenylene benzene solvate'
_symmetry_cell_setting           triclinic
_symmetry_space_group_name_H-M   'P -1'
_symmetry_Int_Tables_number      2
_space_group_name_Hall           '-P 1'
loop_
_symmetry_equiv_pos_site_id
_symmetry_equiv_pos_as_xyz
1 x,y,z
2 -x,-y,-z
_cell_length_a                   13.040(7)
_cell_length_b                   13.061(7)
_cell_length_c                   13.591(8)
_cell_angle_alpha                81.354(11)
_cell_angle_beta                 75.101(10)
_cell_angle_gamma                78.463(12)
_cell_volume                     2179.75
_cell_formula_units_Z            2
loop_
_atom_site_label
_atom_site_type_symbol
_atom_site_fract_x
_atom_site_fract_y
_atom_site_fract_z
P1 P 0.30276(16) 0.22297(15) 0.09929(15)
P2 P 0.24465(17) 0.42608(15) 0.31124(15)
O1 O 0.2093(3) 0.3125(3) 0.1213(3)
O2 O 0.3509(3) 0.4058(3) 0.2340(3)
C1 C 0.1786(7) 0.0246(7) 0.3916(7)
C2 C 0.2380(7) -0.0162(7) 0.4701(8)
C3 C 0.2594(9) 0.0534(9) 0.5334(8)
C4 C 0.3305(8) 0.1282(8) 0.4950(7)
C5 C 0.3852(7) 0.1331(6) 0.3806(6)
C6 C 0.3243(6) 0.1782(5) 0.3083(6)
C7 C 0.2042(6) 0.2147(6) 0.3458(5)
C8 C 0.1358(7) 0.1413(6) 0.3817(5)
C9 C 0.1636(7) -0.0425(7) 0.3276(7)
H1 H 0.1276 -0.0155 0.2760
C10 C 0.2029(9) -0.1509(8) 0.3411(10)
H2 H 0.1916 -0.1966 0.3001
C11 C 0.2603(12) -0.1890(11) 0.4187(11)
H3 H 0.2911 -0.2596 0.4251
C12 C 0.2709(9) -0.1267(9) 0.4819(9)
H4 H 0.3014 -0.1565 0.5367
C13 C 0.2131(9) 0.0461(9) 0.6431(10)
H5 H 0.1652 0.0001 0.6735
C14 C 0.2418(13) 0.1090(13) 0.7012(13)
H6 H 0.2121 0.1018 0.7714
C15 C 0.3089(12) 0.1799(12) 0.6659(12)
H7 H 0.3239 0.2210 0.7091
C16 C 0.3548(8) 0.1878(8) 0.5594(9)
H8 H 0.4027 0.2345 0.5318
C17 C 0.4941(8) 0.0958(7) 0.3479(7)
H9 H 0.5351 0.0720 0.3962
C18 C 0.5436(7) 0.0932(7) 0.2447(8)
H10 H 0.6161 0.0645 0.2242
C19 C 0.4843(6) 0.1336(6) 0.1734(6)
H11 H 0.5178 0.1342 0.1041
C20 C 0.3729(6) 0.1744(5) 0.2034(6)
C21 C 0.1605(6) 0.3245(5) 0.3416(5)
C22 C 0.0502(6) 0.3519(5) 0.3705(5)
H12 H 0.0208 0.4230 0.3685
C23 C -0.0192(6) 0.2798(6) 0.4022(5)
H13 H -0.0933 0.3019 0.4187
C24 C 0.0249(6) 0.1722(6) 0.4089(5)
H14 H -0.0200 0.1221 0.4314
C25 C 0.2600(7) 0.1094(6) 0.0705(5)
C26 C 0.1648(7) 0.1260(7) 0.0378(7)
H15 H 0.1250 0.1934 0.0336
C27 C 0.1287(8) 0.0444(10) 0.0117(8)
H16 H 0.0664 0.0559 -0.0125
C28 C 0.1885(9) -0.0571(9) 0.0228(8)
H17 H 0.1630 -0.1134 0.0081
C29 C 0.2807(8) -0.0759(8) 0.0536(7)
H18 H 0.3195 -0.1437 0.0592
C30 C 0.3167(6) 0.0074(7) 0.0767(6)
H19 H 0.3813 -0.0048 0.0972
C31 C 0.4088(5) 0.2568(6) -0.0123(6)
C32 C 0.4340(6) 0.2096(6) -0.1021(6)
H20 H 0.3996 0.1555 -0.1074
C33 C 0.5119(7) 0.2449(9) -0.1845(7)
H21 H 0.5289 0.2142 -0.2455
C34 C 0.5640(7) 0.3241(8) -0.1772(8)
H22 H 0.6166 0.3451 -0.2330
C35 C 0.5401(7) 0.3730(6) -0.0893(8)
H23 H 0.5751 0.4272 -0.0856
C36 C 0.4614(6) 0.3390(6) -0.0051(7)
H24 H 0.4441 0.3708 0.0552
C37 C 0.1578(6) 0.5437(5) 0.2696(5)
C38 C 0.1537(6) 0.5631(6) 0.1681(6)
H25 H 0.1972 0.5165 0.1229
C39 C 0.0886(7) 0.6479(7) 0.1304(7)
H26 H 0.0877 0.6587 0.0614
C40 C 0.0243(7) 0.7167(7) 0.1986(8)
H27 H -0.0217 0.7737 0.1752
C41 C 0.0275(6) 0.7019(6) 0.3025(7)
H28 H -0.0151 0.7496 0.3470
C42 C 0.0941(6) 0.6160(5) 0.3383(5)
H29 H 0.0970 0.6058 0.4068
C43 C 0.2590(6) 0.4471(6) 0.4374(6)
C44 C 0.3526(8) 0.4912(8) 0.4335(8)
H30 H 0.4039 0.5019 0.3729
C45 C 0.3618(9) 0.5179(12) 0.5297(9)
H31 H 0.4185 0.5506 0.5311
C46 C 0.2870(10) 0.4954(12) 0.6209(9)
H32 H 0.2970 0.5105 0.6822
C47 C 0.2004(8) 0.4521(8) 0.6221(7)
H33 H 0.1509 0.4371 0.6828
C48 C 0.1887(6) 0.4308(6) 0.5283(7)
H34 H 0.1281 0.4035 0.5283
C49 C 0.157(3) 0.7202(10) 0.8209(11)
H35 H 0.1372 0.7898 0.7961
C50 C 0.2525(19) 0.687(3) 0.834(2)
H36 H 0.2980 0.7364 0.8172
C51 C 0.291(3) 0.602(3) 0.866(2)
H37 H 0.3622 0.5844 0.8726
C52 C 0.220(3) 0.5315(14) 0.8908(13)
H38 H 0.2448 0.4633 0.9161
C53 C 0.119(2) 0.554(3) 0.8814(15)
H39 H 0.0732 0.5044 0.9002
C54 C 0.0855(16) 0.653(2) 0.8431(15)
H40 H 0.0165 0.6742 0.8324
loop_
_geom_bond_atom_site_label_1
_geom_bond_atom_site_label_2
_geom_bond_site_symmetry_1
_geom_bond_site_symmetry_2
P1 O1 1_555 1_555
P2 O2 1_555 1_555
C1 C2 1_555 1_555
C2 C3 1_555 1_555
C3 C4 1_555 1_555
C4 C5 1_555 1_555
C5 C6 1_555 1_555
C6 C7 1_555 1_555
C7 C8 1_555 1_555
C8 C1 1_555 1_555
C9 C1 1_555 1_555
H1 C9 1_555 1_555
C10 C9 1_555 1_555
H2 C10 1_555 1_555
C11 C10 1_555 1_555
H3 C11 1_555 1_555
C12 C2 1_555 1_555
H4 C12 1_555 1_555
C13 C3 1_555 1_555
H5 C13 1_555 1_555
C14 C13 1_555 1_555
H6 C14 1_555 1_555
C15 C14 1_555 1_555
H7 C15 1_555 1_555
C16 C4 1_555 1_555
H8 C16 1_555 1_555
C17 C5 1_555 1_555
H9 C17 1_555 1_555
C18 C17 1_555 1_555
H10 C18 1_555 1_555
C19 C18 1_555 1_555
H11 C19 1_555 1_555
C20 P1 1_555 1_555
C21 P2 1_555 1_555
C22 C21 1_555 1_555
H12 C22 1_555 1_555
C23 C22 1_555 1_555
H13 C23 1_555 1_555
C24 C8 1_555 1_555
H14 C24 1_555 1_555
C25 P1 1_555 1_555
C26 C25 1_555 1_555
H15 C26 1_555 1_555
C27 C26 1_555 1_555
H16 C27 1_555 1_555
C28 C27 1_555 1_555
H17 C28 1_555 1_555
C29 C28 1_555 1_555
H18 C29 1_555 1_555
C30 C25 1_555 1_555
H19 C30 1_555 1_555
C31 P1 1_555 1_555
C32 C31 1_555 1_555
H20 C32 1_555 1_555
C33 C32 1_555 1_555
H21 C33 1_555 1_555
C34 C33 1_555 1_555
H22 C34 1_555 1_555
C35 C34 1_555 1_555
H23 C35 1_555 1_555
C36 C31 1_555 1_555
H24 C36 1_555 1_555
C37 P2 1_555 1_555
C38 C37 1_555 1_555
H25 C38 1_555 1_555
C39 C38 1_555 1_555
H26 C39 1_555 1_555
C40 C39 1_555 1_555
H27 C40 1_555 1_555
C41 C40 1_555 1_555
H28 C41 1_555 1_555
C42 C37 1_555 1_555
H29 C42 1_555 1_555
C43 P2 1_555 1_555
C44 C43 1_555 1_555
H30 C44 1_555 1_555
C45 C44 1_555 1_555
H31 C45 1_555 1_555
C46 C45 1_555 1_555
H32 C46 1_555 1_555
C47 C46 1_555 1_555
H33 C47 1_555 1_555
C48 C43 1_555 1_555
H34 C48 1_555 1_555
C49 H35 1_555 1_555
C50 C49 1_555 1_555
H36 C50 1_555 1_555
C51 C50 1_555 1_555
H37 C51 1_555 1_555
C52 C51 1_555 1_555
H38 C52 1_555 1_555
C53 C52 1_555 1_555
H39 C53 1_555 1_555
C54 C49 1_555 1_555
H40 C54 1_555 1_555
C6 C20 1_555 1_555
C7 C21 1_555 1_555
C11 C12 1_555 1_555
C15 C16 1_555 1_555
C19 C20 1_555 1_555
C23 C24 1_555 1_555
C29 C30 1_555 1_555
C35 C36 1_555 1_555
C41 C42 1_555 1_555
C47 C48 1_555 1_555
C53 C54 1_555 1_555

#END
