
#######################################################################
#
#                 Cambridge Crystallographic Data Centre
#                                CCDC 
#
#######################################################################
#
# If this CIF has been generated from an entry in the Cambridge 
# Structural Database, then it will include bibliographic, chemical, 
# crystal, experimental, refinement or atomic coordinate data resulting 
# from the CCDC's data processing and validation procedures.
#
#######################################################################

data_AMICUU
_chemical_formula_moiety         'C18 H16 O2'
_chemical_name_systematic        1,12-Dimethoxydibenzo(a,c)cyclo-octene
_symmetry_cell_setting           monoclinic
_symmetry_space_group_name_H-M   'P 21/n'
_symmetry_Int_Tables_number      14
_space_group_name_Hall           '-P 2yn'
loop_
_symmetry_equiv_pos_site_id
_symmetry_equiv_pos_as_xyz
1 x,y,z
2 1/2+x,1/2-y,1/2+z
3 -x,-y,-z
4 1/2-x,1/2+y,1/2-z
_cell_length_a                   13.104(3)
_cell_length_b                   7.811(1)
_cell_length_c                   14.904(3)
_cell_angle_alpha                90
_cell_angle_beta                 103.259(3)
_cell_angle_gamma                90
_cell_volume                     1484.84
_exptl_crystal_colour            colorless
_exptl_crystal_description       block
_cell_formula_units_Z            4
_exptl_crystal_recrystallization_method chloroform
loop_
_atom_site_label
_atom_site_type_symbol
_atom_site_fract_x
_atom_site_fract_y
_atom_site_fract_z
C1 C 0.2631(2) 0.1348(3) 0.44288(18)
C2 C 0.1597(2) 0.1521(4) 0.39121(19)
C3 C 0.1379(3) 0.2321(4) 0.3055(2)
H1 H 0.0690 0.2430 0.2720
C4 C 0.2187(3) 0.2946(4) 0.2706(2)
H2 H 0.2043 0.3467 0.2130
C5 C 0.3204(3) 0.2809(4) 0.3199(2)
H3 H 0.3743 0.3234 0.2951
C6 C 0.3442(2) 0.2036(3) 0.40715(19)
C7 C 0.4555(2) 0.2019(4) 0.4583(2)
H4 H 0.5030 0.1441 0.4315
C8 C 0.4925(2) 0.2759(4) 0.5390(2)
H5 H 0.5649 0.2747 0.5613
C9 C 0.4309(2) 0.3591(4) 0.5962(2)
H6 H 0.4458 0.4733 0.6114
C10 C 0.3554(2) 0.2861(4) 0.6286(2)
H7 H 0.3189 0.3548 0.6615
C11 C 0.3246(2) 0.1037(4) 0.61658(19)
C12 C 0.3380(2) 0.0021(4) 0.6963(2)
H8 H 0.3636 0.0511 0.7540
C13 C 0.3140(3) -0.1674(4) 0.6896(2)
H9 H 0.3245 -0.2339 0.7427
C14 C 0.2739(2) -0.2423(4) 0.6046(2)
H10 H 0.2572 -0.3582 0.6006
C15 C 0.2588(2) -0.1431(4) 0.5255(2)
C16 C 0.2838(2) 0.0321(3) 0.53020(18)
C17 C -0.0180(3) 0.0630(8) 0.3756(3)
H11 H -0.0633 0.0192 0.4125
H12 H -0.0147 -0.0174 0.3276
H13 H -0.0450 0.1701 0.3486
C18 C 0.1794(4) -0.3739(5) 0.4288(3)
H14 H 0.1583 -0.4023 0.3645
H15 H 0.1197 -0.3798 0.4558
H16 H 0.2318 -0.4535 0.4593
O1 O 0.08388(15) 0.0882(3) 0.43169(13)
O2 O 0.22105(18) -0.2063(3) 0.43858(15)
loop_
_geom_bond_atom_site_label_1
_geom_bond_atom_site_label_2
_geom_bond_site_symmetry_1
_geom_bond_site_symmetry_2
C1 C2 1_555 1_555
C2 C3 1_555 1_555
C3 H1 1_555 1_555
C4 C3 1_555 1_555
H2 C4 1_555 1_555
C5 C4 1_555 1_555
H3 C5 1_555 1_555
C6 C1 1_555 1_555
C7 C6 1_555 1_555
H4 C7 1_555 1_555
C8 C7 1_555 1_555
H5 C8 1_555 1_555
C9 C8 1_555 1_555
H6 C9 1_555 1_555
C10 C9 1_555 1_555
H7 C10 1_555 1_555
C11 C10 1_555 1_555
C12 C11 1_555 1_555
H8 C12 1_555 1_555
C13 C12 1_555 1_555
H9 C13 1_555 1_555
C14 C13 1_555 1_555
H10 C14 1_555 1_555
C15 C14 1_555 1_555
C16 C1 1_555 1_555
C17 H11 1_555 1_555
H12 C17 1_555 1_555
H13 C17 1_555 1_555
C18 H14 1_555 1_555
H15 C18 1_555 1_555
H16 C18 1_555 1_555
O1 C2 1_555 1_555
O2 C15 1_555 1_555
C5 C6 1_555 1_555
C11 C16 1_555 1_555
C15 C16 1_555 1_555
C17 O1 1_555 1_555
C18 O2 1_555 1_555

#END
