
#######################################################################
#
#                 Cambridge Crystallographic Data Centre
#                                CCDC 
#
#######################################################################
#
# If this CIF has been generated from an entry in the Cambridge 
# Structural Database, then it will include bibliographic, chemical, 
# crystal, experimental, refinement or atomic coordinate data resulting 
# from the CCDC's data processing and validation procedures.
#
#######################################################################

data_AMICII
_chemical_formula_moiety         'C26 H20 O2,C1 H1 Cl3'
_chemical_name_systematic        
'1,16-Dimethoxytetraphenylene chloroform solvate'
_symmetry_cell_setting           monoclinic
_symmetry_space_group_name_H-M   'P 21/c'
_symmetry_Int_Tables_number      14
_space_group_name_Hall           '-P 2ybc'
loop_
_symmetry_equiv_pos_site_id
_symmetry_equiv_pos_as_xyz
1 x,y,z
2 x,1/2-y,1/2+z
3 -x,-y,-z
4 -x,1/2+y,1/2-z
_cell_length_a                   14.304(2)
_cell_length_b                   13.250(2)
_cell_length_c                   14.068(2)
_cell_angle_alpha                90
_cell_angle_beta                 116.378(3)
_cell_angle_gamma                90
_cell_volume                     2388.67
_exptl_crystal_colour            colorless
_chemical_melting_point          185-195deg.C(subl.)
_cell_formula_units_Z            4
loop_
_atom_site_label
_atom_site_type_symbol
_atom_site_fract_x
_atom_site_fract_y
_atom_site_fract_z
O1 O 0.1951(2) 0.2433(2) -0.0806(2)
O2 O 0.4263(2) 0.1858(2) -0.00663(19)
C1 C 0.2822(3) 0.1317(3) 0.0594(3)
C2 C 0.3153(3) 0.1043(3) 0.1653(3)
C3 C 0.3700(3) 0.0063(4) 0.2054(3)
C4 C 0.3197(4) -0.0861(4) 0.1677(3)
C5 C 0.2089(3) -0.0934(3) 0.0870(3)
C6 C 0.1741(4) -0.0628(3) -0.0184(3)
C7 C 0.2482(3) -0.0220(3) -0.0559(3)
C8 C 0.3035(3) 0.0672(3) -0.0159(3)
C9 C 0.2292(3) 0.2233(3) 0.0254(3)
C10 C 0.2159(4) 0.2847(4) 0.0965(5)
C11 C 0.2486(4) 0.2571(4) 0.2003(4)
C12 C 0.2985(3) 0.1677(4) 0.2359(4)
C13 C 0.4703(4) 0.0063(5) 0.2892(4)
C14 C 0.5214(5) -0.0824(6) 0.3325(4)
C15 C 0.4752(5) -0.1715(5) 0.2942(4)
C16 C 0.3743(5) -0.1736(4) 0.2135(5)
C17 C 0.1364(4) -0.1330(3) 0.1190(4)
C18 C 0.0328(4) -0.1445(3) 0.0480(5)
C19 C 0.0006(4) -0.1159(4) -0.0560(5)
C20 C 0.0697(4) -0.0761(3) -0.0885(4)
C21 C 0.2631(4) -0.0741(4) -0.1347(4)
C22 C 0.3347(5) -0.0422(4) -0.1656(4)
C23 C 0.3915(4) 0.0433(4) -0.1244(4)
C24 C 0.3754(3) 0.0991(3) -0.0509(3)
C25 C 0.1437(5) 0.3377(5) -0.1193(5)
C26 C 0.5055(5) 0.2194(5) -0.0341(4)
H1 H 0.183(2) 0.3340(19) 0.072(2)
H2 H 0.237(2) 0.299(2) 0.246(2)
H3 H 0.325(2) 0.1375(19) 0.3092(19)
H4 H 0.505(2) 0.072(2) 0.318(2)
H5 H 0.588(3) -0.070(3) 0.383(3)
H6 H 0.495(3) -0.247(3) 0.325(3)
H7 H 0.349(2) -0.229(2) 0.186(2)
H8 H 0.159(2) -0.155(2) 0.189(2)
H9 H -0.013(2) -0.171(2) 0.081(2)
H10 H -0.065(2) -0.113(3) -0.103(2)
H11 H 0.050(2) -0.047(2) -0.161(2)
H12 H 0.222(2) -0.134(2) -0.154(2)
H13 H 0.352(2) -0.070(2) -0.213(2)
H14 H 0.436(2) 0.068(2) -0.146(2)
H15 H 0.129(2) 0.331(2) -0.1914(19)
H16 H 0.187(4) 0.401(3) -0.072(3)
H17 H 0.084(2) 0.344(2) -0.102(2)
H18 H 0.579(3) 0.178(3) -0.004(3)
H19 H 0.471(2) 0.228(2) -0.1083(18)
H20 H 0.537(4) 0.278(3) 0.010(3)
C27 C 0.1287(4) 0.8499(4) 0.4504(4)
Cl1 Cl 0.12907(12) 0.91765(10) 0.55527(11)
Cl2 Cl 0.24458(12) 0.87107(10) 0.44107(12)
Cl3 Cl 0.02548(12) 0.88258(10) 0.33411(11)
H21 H 0.112(3) 0.782(3) 0.456(3)
loop_
_geom_bond_atom_site_label_1
_geom_bond_atom_site_label_2
_geom_bond_site_symmetry_1
_geom_bond_site_symmetry_2
O1 C9 1_555 1_555
O2 C24 1_555 1_555
C1 C2 1_555 1_555
C2 C3 1_555 1_555
C3 C4 1_555 1_555
C4 C5 1_555 1_555
C5 C6 1_555 1_555
C6 C7 1_555 1_555
C7 C8 1_555 1_555
C8 C1 1_555 1_555
C9 C1 1_555 1_555
C10 C9 1_555 1_555
C11 C10 1_555 1_555
C12 C2 1_555 1_555
C13 C3 1_555 1_555
C14 C13 1_555 1_555
C15 C14 1_555 1_555
C16 C4 1_555 1_555
C17 C5 1_555 1_555
C18 C17 1_555 1_555
C19 C18 1_555 1_555
C20 C6 1_555 1_555
C21 C7 1_555 1_555
C22 C21 1_555 1_555
C23 C22 1_555 1_555
C24 C8 1_555 1_555
C25 O1 1_555 1_555
C26 O2 1_555 1_555
C27 Cl1 1_555 1_555
Cl2 C27 1_555 1_555
Cl3 C27 1_555 1_555
H1 C10 1_555 1_555
H2 C11 1_555 1_555
H3 C12 1_555 1_555
H4 C13 1_555 1_555
H5 C14 1_555 1_555
H6 C15 1_555 1_555
H7 C16 1_555 1_555
H8 C17 1_555 1_555
H9 C18 1_555 1_555
H10 C19 1_555 1_555
H11 C20 1_555 1_555
H12 C21 1_555 1_555
H13 C22 1_555 1_555
H14 C23 1_555 1_555
H15 C25 1_555 1_555
H16 C25 1_555 1_555
H17 C25 1_555 1_555
H18 C26 1_555 1_555
H19 C26 1_555 1_555
H20 C26 1_555 1_555
H21 C27 1_555 1_555
C11 C12 1_555 1_555
C15 C16 1_555 1_555
C19 C20 1_555 1_555
C23 C24 1_555 1_555

#END
