
#######################################################################
#
#                 Cambridge Crystallographic Data Centre
#                                CCDC 
#
#######################################################################
#
# If this CIF has been generated from an entry in the Cambridge 
# Structural Database, then it will include bibliographic, chemical, 
# crystal, experimental, refinement or atomic coordinate data resulting 
# from the CCDC's data processing and validation procedures.
#
#######################################################################

data_AMIDAD
_chemical_formula_moiety         'C21 H17 N1 O5'
_chemical_name_systematic        
'5-(1,3-Dioxo-1,3-dihydro-2H-isoindol-2-yl)-1-oxo-1-phenylpent-2-en-2-yl acetate'
_symmetry_cell_setting           monoclinic
_symmetry_space_group_name_H-M   'P 21/c'
_symmetry_Int_Tables_number      14
_space_group_name_Hall           '-P 2ybc'
loop_
_symmetry_equiv_pos_site_id
_symmetry_equiv_pos_as_xyz
1 x,y,z
2 -x,1/2+y,1/2-z
3 -x,-y,-z
4 x,1/2-y,1/2+z
_cell_length_a                   14.688(2)
_cell_length_b                   7.8028(12)
_cell_length_c                   16.343(3)
_cell_angle_alpha                90
_cell_angle_beta                 98.819(16)
_cell_angle_gamma                90
_cell_volume                     1850.89
_exptl_crystal_colour            colorless
_exptl_crystal_description       prism
_cell_formula_units_Z            4
loop_
_atom_site_label
_atom_site_type_symbol
_atom_site_fract_x
_atom_site_fract_y
_atom_site_fract_z
N1 N 0.17967(7) 0.52913(13) 0.49350(6)
C1 C 0.12704(8) 0.63543(15) 0.53834(7)
O1 O 0.14711(6) 0.66946(12) 0.61135(5)
C2 C 0.04545(8) 0.69542(15) 0.47714(7)
C3 C -0.02903(8) 0.80055(15) 0.48779(8)
H1 H -0.0369 0.8417 0.5410
C4 C -0.09206(9) 0.84314(16) 0.41654(9)
H2 H -0.1432 0.9146 0.4218
C5 C -0.08057(9) 0.78212(18) 0.33866(8)
H3 H -0.1230 0.8151 0.2915
C6 C -0.00665(9) 0.67180(18) 0.32874(8)
H4 H 0.0005 0.6279 0.2759
C7 C 0.05543(8) 0.62965(16) 0.39949(7)
C8 C 0.13968(8) 0.51616(16) 0.40993(7)
O2 O 0.16993(6) 0.42720(13) 0.35900(6)
C9 C 0.26348(8) 0.43369(15) 0.52898(8)
H5 H 0.2577 0.3133 0.5097
H6 H 0.2686 0.4332 0.5901
C10 C 0.35266(8) 0.51250(15) 0.50424(7)
H7 H 0.4053 0.4360 0.5237
H8 H 0.3460 0.5189 0.4431
C11 C 0.37340(8) 0.68928(15) 0.53986(7)
H9 H 0.4000 0.6971 0.5965
C12 C 0.35708(8) 0.83572(14) 0.49749(7)
O3 O 0.32314(6) 0.82928(11) 0.41214(5)
C13 C 0.24477(8) 0.92714(15) 0.38721(7)
O4 O 0.20188(6) 0.99432(12) 0.43591(6)
C14 C 0.22233(11) 0.9332(2) 0.29466(8)
H10 H 0.1640 0.9941 0.2786
H11 H 0.2167 0.8162 0.2727
H12 H 0.2716 0.9932 0.2721
C15 C 0.38829(7) 1.01191(14) 0.52766(7)
O5 O 0.40912(6) 1.11824(11) 0.47824(5)
C16 C 0.39341(8) 1.05588(14) 0.61749(7)
C17 C 0.32973(8) 0.98895(15) 0.66562(7)
H13 H 0.2863 0.9047 0.6431
C18 C 0.33096(9) 1.04746(17) 0.74659(7)
H14 H 0.2880 1.0033 0.7792
C19 C 0.39555(9) 1.17148(17) 0.77996(8)
H15 H 0.3957 1.2114 0.8349
C20 C 0.45992(9) 1.23683(17) 0.73275(8)
H16 H 0.5040 1.3195 0.7559
C21 C 0.45888(8) 1.17980(15) 0.65190(7)
H17 H 0.5022 1.2240 0.6197
loop_
_geom_bond_atom_site_label_1
_geom_bond_atom_site_label_2
_geom_bond_site_symmetry_1
_geom_bond_site_symmetry_2
N1 C1 1_555 1_555
C1 O1 1_555 1_555
C2 C1 1_555 1_555
C3 C2 1_555 1_555
H1 C3 1_555 1_555
C4 C3 1_555 1_555
H2 C4 1_555 1_555
C5 C4 1_555 1_555
H3 C5 1_555 1_555
C6 C5 1_555 1_555
H4 C6 1_555 1_555
C7 C2 1_555 1_555
C8 N1 1_555 1_555
O2 C8 1_555 1_555
C9 N1 1_555 1_555
H5 C9 1_555 1_555
H6 C9 1_555 1_555
C10 C9 1_555 1_555
H7 C10 1_555 1_555
H8 C10 1_555 1_555
C11 C10 1_555 1_555
H9 C11 1_555 1_555
C12 C11 1_555 1_555
O3 C12 1_555 1_555
C13 O3 1_555 1_555
O4 C13 1_555 1_555
C14 C13 1_555 1_555
H10 C14 1_555 1_555
H11 C14 1_555 1_555
H12 C14 1_555 1_555
C15 C12 1_555 1_555
O5 C15 1_555 1_555
C16 C15 1_555 1_555
C17 C16 1_555 1_555
H13 C17 1_555 1_555
C18 C17 1_555 1_555
H14 C18 1_555 1_555
C19 C18 1_555 1_555
H15 C19 1_555 1_555
C20 C19 1_555 1_555
H16 C20 1_555 1_555
C21 C16 1_555 1_555
H17 C21 1_555 1_555
C6 C7 1_555 1_555
C7 C8 1_555 1_555
C20 C21 1_555 1_555

#END
