
#######################################################################
#
#                 Cambridge Crystallographic Data Centre
#                                CCDC 
#
#######################################################################
#
# If this CIF has been generated from an entry in the Cambridge 
# Structural Database, then it will include bibliographic, chemical, 
# crystal, experimental, refinement or atomic coordinate data resulting 
# from the CCDC's data processing and validation procedures.
#
#######################################################################

data_AMIDAB
_chemical_formula_moiety         'C44 H44 O8 S2'
_chemical_name_systematic        
(S)-(+)-1,16-bis((S)-camphorsulfonyloxy)tetraphenylene
_symmetry_cell_setting           orthorhombic
_symmetry_space_group_name_H-M   'P 21 21 21'
_symmetry_Int_Tables_number      19
_space_group_name_Hall           'P 2ac 2ab'
loop_
_symmetry_equiv_pos_site_id
_symmetry_equiv_pos_as_xyz
1 x,y,z
2 1/2-x,-y,1/2+z
3 -x,1/2+y,1/2-z
4 1/2+x,1/2-y,-z
_cell_length_a                   9.7766(11)
_cell_length_b                   18.833(2)
_cell_length_c                   21.033(3)
_cell_angle_alpha                90
_cell_angle_beta                 90
_cell_angle_gamma                90
_cell_volume                     3872.65
_exptl_crystal_colour            colorless
_chemical_melting_point          239-240deg.C
_cell_formula_units_Z            4
_exptl_crystal_recrystallization_method methanol
loop_
_atom_site_label
_atom_site_type_symbol
_atom_site_fract_x
_atom_site_fract_y
_atom_site_fract_z
C1 C 0.3128(9) 0.4240(4) 0.2682(4)
C2 C 0.4473(9) 0.4446(5) 0.2619(5)
H1 H 0.4795 0.4669 0.2254
C3 C 0.5310(9) 0.4302(5) 0.3127(5)
H2 H 0.6232 0.4419 0.3101
C4 C 0.4826(9) 0.3989(5) 0.3677(5)
H3 H 0.5412 0.3905 0.4018
C5 C 0.3704(9) 0.2844(4) 0.4544(5)
H4 H 0.4375 0.2633 0.4295
C6 C 0.3358(11) 0.2558(5) 0.5130(5)
H5 H 0.3798 0.2148 0.5268
C7 C 0.2384(11) 0.2863(5) 0.5508(5)
H6 H 0.2167 0.2661 0.5899
C8 C 0.1727(10) 0.3470(5) 0.5309(4)
H7 H 0.1081 0.3680 0.5574
C9 C 0.1542(10) 0.5028(6) 0.4978(4)
H8 H 0.2048 0.4952 0.5346
C10 C 0.0984(13) 0.5686(6) 0.4863(6)
H9 H 0.1170 0.6060 0.5138
C11 C 0.0174(11) 0.5790(6) 0.4358(6)
H10 H -0.0222 0.6233 0.4295
C12 C -0.0082(9) 0.5252(5) 0.3932(5)
H11 H -0.0637 0.5332 0.3580
C13 C -0.1201(8) 0.3776(5) 0.3546(5)
H12 H -0.1861 0.3995 0.3797
C14 C -0.1580(9) 0.3238(5) 0.3140(5)
H13 H -0.2491 0.3096 0.3124
C15 C -0.0626(9) 0.2905(5) 0.2754(5)
H14 H -0.0879 0.2541 0.2479
C16 C 0.0740(9) 0.3137(5) 0.2791(4)
C17 C 0.3475(8) 0.3803(4) 0.3717(4)
C18 C 0.3005(8) 0.3480(4) 0.4326(4)
C19 C 0.2008(8) 0.3778(4) 0.4718(4)
C20 C 0.1359(8) 0.4476(4) 0.4550(4)
C21 C 0.0504(9) 0.4586(5) 0.4034(4)
C22 C 0.0150(8) 0.3999(4) 0.3589(4)
C23 C 0.1143(8) 0.3680(4) 0.3207(4)
C24 C 0.2591(8) 0.3914(4) 0.3205(5)
S1 S 0.1664(2) 0.51082(12) 0.19945(12)
O1 O 0.2239(6) 0.4318(3) 0.2146(3)
O2 O 0.1610(7) 0.5506(3) 0.2566(3)
O3 O 0.2418(7) 0.5389(4) 0.1482(3)
O4 O -0.2405(10) 0.5226(6) 0.2421(5)
C25 C 0.0052(8) 0.4846(5) 0.1796(5)
H15 H 0.0129 0.4459 0.1494
H16 H -0.0379 0.4656 0.2175
C26 C -0.0921(9) 0.5405(5) 0.1509(5)
C27 C -0.0469(11) 0.6219(5) 0.1529(6)
H17 H -0.0548 0.6413 0.1954
H18 H 0.0464 0.6278 0.1381
C28 C -0.1497(12) 0.6572(6) 0.1071(6)
H19 H -0.1975 0.6960 0.1277
H20 H -0.1040 0.6750 0.0694
C29 C -0.2443(12) 0.5992(6) 0.0911(6)
H21 H -0.2991 0.6085 0.0529
C30 C -0.3300(11) 0.5803(7) 0.1491(6)
H22 H -0.3663 0.6223 0.1698
H23 H -0.4045 0.5485 0.1383
C31 C -0.2271(13) 0.5452(7) 0.1883(6)
C32 C -0.1498(10) 0.5328(5) 0.0847(4)
C33 C -0.0462(13) 0.5399(7) 0.0320(6)
H24 H 0.0027 0.5838 0.0368
H25 H -0.0922 0.5396 -0.0083
H26 H 0.0170 0.5010 0.0339
C34 C -0.2255(13) 0.4601(6) 0.0734(6)
H27 H -0.1593 0.4226 0.0701
H28 H -0.2777 0.4627 0.0348
H29 H -0.2857 0.4507 0.1085
S2 S 0.1497(3) 0.25834(16) 0.17069(14)
O5 O 0.0460(10) 0.3050(5) 0.1416(4)
O6 O 0.1272(9) 0.1839(4) 0.1728(4)
O7 O 0.1763(6) 0.2837(3) 0.2425(3)
O8 O 0.5488(11) 0.3514(10) 0.1382(6)
C35 C 0.3054(12) 0.2801(6) 0.1358(6)
H30 H 0.2918 0.2812 0.0901
H31 H 0.3286 0.3279 0.1490
C36 C 0.4337(12) 0.2310(9) 0.1497(7)
C37 C 0.4590(15) 0.2164(7) 0.2209(9)
H32 H 0.3850 0.1899 0.2405
H33 H 0.4770 0.2594 0.2449
C38 C 0.594(2) 0.1691(10) 0.2107(9)
H34 H 0.6726 0.1910 0.2307
H35 H 0.5815 0.1218 0.2280
C39 C 0.6102(19) 0.1667(10) 0.1396(9)
H36 H 0.6647 0.1273 0.1228
C40 C 0.674(2) 0.2389(11) 0.1355(12)
H37 H 0.7374 0.2474 0.1702
H38 H 0.7208 0.2460 0.0952
C41 C 0.5488(19) 0.2839(9) 0.1408(8)
C42 C 0.473(3) 0.1777(17) 0.1096(12)
C43 C 0.4958(19) 0.2063(9) 0.0380(8)
H39 H 0.5506 0.2486 0.0390
H40 H 0.4087 0.2168 0.0192
H41 H 0.5415 0.1705 0.0134
C44 C 0.419(4) 0.1092(9) 0.1148(12)
H42 H 0.4134 0.0961 0.1588
H43 H 0.4767 0.0762 0.0927
H44 H 0.3290 0.1083 0.0964
loop_
_geom_bond_atom_site_label_1
_geom_bond_atom_site_label_2
_geom_bond_site_symmetry_1
_geom_bond_site_symmetry_2
C1 C2 1_555 1_555
C2 H1 1_555 1_555
C3 C2 1_555 1_555
H2 C3 1_555 1_555
C4 C3 1_555 1_555
H3 C4 1_555 1_555
C5 H4 1_555 1_555
C6 C5 1_555 1_555
H5 C6 1_555 1_555
C7 C6 1_555 1_555
H6 C7 1_555 1_555
C8 C7 1_555 1_555
H7 C8 1_555 1_555
C9 H8 1_555 1_555
C10 C9 1_555 1_555
H9 C10 1_555 1_555
C11 C10 1_555 1_555
H10 C11 1_555 1_555
C12 C11 1_555 1_555
H11 C12 1_555 1_555
C13 H12 1_555 1_555
C14 C13 1_555 1_555
H13 C14 1_555 1_555
C15 C14 1_555 1_555
H14 C15 1_555 1_555
C16 C15 1_555 1_555
C17 C4 1_555 1_555
C18 C5 1_555 1_555
C19 C8 1_555 1_555
C20 C9 1_555 1_555
C21 C12 1_555 1_555
C22 C13 1_555 1_555
C23 C16 1_555 1_555
C24 C1 1_555 1_555
S1 O1 1_555 1_555
O1 C1 1_555 1_555
O2 S1 1_555 1_555
O3 S1 1_555 1_555
O4 C31 1_555 1_555
C25 S1 1_555 1_555
H15 C25 1_555 1_555
H16 C25 1_555 1_555
C26 C25 1_555 1_555
C27 C26 1_555 1_555
H17 C27 1_555 1_555
H18 C27 1_555 1_555
C28 C27 1_555 1_555
H19 C28 1_555 1_555
H20 C28 1_555 1_555
C29 C28 1_555 1_555
H21 C29 1_555 1_555
C30 C29 1_555 1_555
H22 C30 1_555 1_555
H23 C30 1_555 1_555
C31 C26 1_555 1_555
C32 C26 1_555 1_555
C33 C32 1_555 1_555
H24 C33 1_555 1_555
H25 C33 1_555 1_555
H26 C33 1_555 1_555
C34 C32 1_555 1_555
H27 C34 1_555 1_555
H28 C34 1_555 1_555
H29 C34 1_555 1_555
S2 O5 1_555 1_555
O6 S2 1_555 1_555
O7 C16 1_555 1_555
O8 C41 1_555 1_555
C35 S2 1_555 1_555
H30 C35 1_555 1_555
H31 C35 1_555 1_555
C36 C35 1_555 1_555
C37 C36 1_555 1_555
H32 C37 1_555 1_555
H33 C37 1_555 1_555
C38 C37 1_555 1_555
H34 C38 1_555 1_555
H35 C38 1_555 1_555
C39 C38 1_555 1_555
H36 C39 1_555 1_555
C40 C39 1_555 1_555
H37 C40 1_555 1_555
H38 C40 1_555 1_555
C41 C36 1_555 1_555
C42 C36 1_555 1_555
C43 C42 1_555 1_555
H39 C43 1_555 1_555
H40 C43 1_555 1_555
H41 C43 1_555 1_555
C44 C42 1_555 1_555
H42 C44 1_555 1_555
H43 C44 1_555 1_555
H44 C44 1_555 1_555
C17 C18 1_555 1_555
C17 C24 1_555 1_555
C18 C19 1_555 1_555
C19 C20 1_555 1_555
C20 C21 1_555 1_555
C21 C22 1_555 1_555
C22 C23 1_555 1_555
C23 C24 1_555 1_555
C29 C32 1_555 1_555
C30 C31 1_555 1_555
S2 O7 1_555 1_555
C39 C42 1_555 1_555
C40 C41 1_555 1_555

#END
