
#######################################################################
#
#                 Cambridge Crystallographic Data Centre
#                                CCDC 
#
#######################################################################
#
# If this CIF has been generated from an entry in the Cambridge 
# Structural Database, then it will include bibliographic, chemical, 
# crystal, experimental, refinement or atomic coordinate data resulting 
# from the CCDC's data processing and validation procedures.
#
#######################################################################

data_AMIKUD
_chemical_formula_moiety         'C23 H18 N6 O1'
_chemical_name_systematic        
N,N-Dimethyl-7-(2,2':6',2''-terpyridin-4'-yl)-2,1,3-benzoxadiazol-4-amine
_symmetry_cell_setting           triclinic
_symmetry_space_group_name_H-M   'P -1'
_symmetry_Int_Tables_number      2
_space_group_name_Hall           '-P 1'
loop_
_symmetry_equiv_pos_site_id
_symmetry_equiv_pos_as_xyz
1 x,y,z
2 -x,-y,-z
_cell_length_a                   8.7846(14)
_cell_length_b                   9.1746(15)
_cell_length_c                   12.361(2)
_cell_angle_alpha                90.693(3)
_cell_angle_beta                 97.346(2)
_cell_angle_gamma                107.751(2)
_cell_volume                     939.642
_exptl_crystal_colour            red
_exptl_crystal_description       block
_cell_formula_units_Z            2
loop_
_atom_site_label
_atom_site_type_symbol
_atom_site_fract_x
_atom_site_fract_y
_atom_site_fract_z
C1 C 0.7512(3) 0.4889(3) 0.5000(2)
C2 C 0.6916(3) 0.5644(3) 0.5781(2)
C3 C 0.7222(3) 0.7300(4) 0.5807(2)
C4 C 0.5841(4) 0.7386(4) 0.7424(3)
H1 H 0.5022 0.6431 0.7198
H2 H 0.5361 0.8079 0.7728
H3 H 0.6643 0.7211 0.7966
C5 C 0.6712(4) 0.9644(4) 0.6352(3)
H4 H 0.7767 1.0279 0.6666
H5 H 0.5911 0.9898 0.6709
H6 H 0.6542 0.9813 0.5587
C6 C 0.8193(3) 0.8008(3) 0.5062(2)
H7 H 0.8478 0.9070 0.5051
C7 C 0.8789(3) 0.7226(3) 0.4308(2)
H8 H 0.9430 0.7814 0.3830
C8 C 0.8501(3) 0.5670(3) 0.4224(2)
C9 C 0.9091(3) 0.4924(3) 0.3376(2)
C10 C 1.0133(3) 0.5762(3) 0.2696(2)
H9 H 1.0477 0.6826 0.2775
C11 C 1.0674(3) 0.5044(3) 0.1899(2)
C12 C 1.1778(3) 0.5936(3) 0.1167(2)
C13 C 1.3015(4) 0.8306(4) 0.0566(3)
H10 H 1.3224 0.9364 0.0611
C14 C 1.3702(4) 0.7706(4) -0.0187(3)
H11 H 1.4335 0.8331 -0.0652
C15 C 1.3431(4) 0.6167(4) -0.0233(3)
H12 H 1.3901 0.5722 -0.0723
C16 C 1.2462(3) 0.5277(3) 0.0443(2)
H13 H 1.2267 0.4222 0.0412
C17 C 0.9409(4) 0.0285(3) 0.1537(3)
H14 H 1.0352 0.0850 0.1280
C18 C 0.8796(4) -0.1281(4) 0.1300(3)
H15 H 0.9315 -0.1781 0.0885
C19 C 0.7414(4) -0.2070(4) 0.1690(3)
H16 H 0.6956 -0.3119 0.1536
C20 C 0.6710(4) -0.1281(4) 0.2315(3)
H17 H 0.5780 -0.1834 0.2592
C21 C 0.8622(4) 0.1000(3) 0.2153(2)
C22 C 0.9207(3) 0.2702(3) 0.2396(2)
C23 C 0.8630(3) 0.3339(3) 0.3211(2)
H18 H 0.7939 0.2713 0.3646
N1 N 0.7001(3) 0.3379(3) 0.5134(2)
N2 N 0.6039(3) 0.4644(3) 0.6384(2)
N3 N 0.6587(3) 0.8043(3) 0.6493(2)
N4 N 1.2061(3) 0.7470(3) 0.1242(2)
N5 N 1.0251(3) 0.3510(3) 0.17610(19)
N6 N 0.7277(3) 0.0233(3) 0.2554(2)
O1 O 0.6105(2) 0.3254(2) 0.59972(17)
loop_
_geom_bond_atom_site_label_1
_geom_bond_atom_site_label_2
_geom_bond_site_symmetry_1
_geom_bond_site_symmetry_2
C1 C2 1_555 1_555
C2 C3 1_555 1_555
C3 C6 1_555 1_555
C4 H1 1_555 1_555
H2 C4 1_555 1_555
H3 C4 1_555 1_555
C5 H4 1_555 1_555
H5 C5 1_555 1_555
H6 C5 1_555 1_555
C6 H7 1_555 1_555
C7 C6 1_555 1_555
H8 C7 1_555 1_555
C8 C1 1_555 1_555
C9 C8 1_555 1_555
C10 C9 1_555 1_555
H9 C10 1_555 1_555
C11 C10 1_555 1_555
C12 C11 1_555 1_555
C13 H10 1_555 1_555
C14 C13 1_555 1_555
H11 C14 1_555 1_555
C15 C14 1_555 1_555
H12 C15 1_555 1_555
C16 C12 1_555 1_555
H13 C16 1_555 1_555
C17 H14 1_555 1_555
C18 C17 1_555 1_555
H15 C18 1_555 1_555
C19 C18 1_555 1_555
H16 C19 1_555 1_555
C20 C19 1_555 1_555
H17 C20 1_555 1_555
C21 C17 1_555 1_555
C22 C21 1_555 1_555
C23 C9 1_555 1_555
H18 C23 1_555 1_555
N1 C1 1_555 1_555
N2 C2 1_555 1_555
N3 C3 1_555 1_555
N4 C12 1_555 1_555
N5 C11 1_555 1_555
N6 C20 1_555 1_555
O1 N1 1_555 1_555
C4 N3 1_555 1_555
C5 N3 1_555 1_555
C7 C8 1_555 1_555
C13 N4 1_555 1_555
C15 C16 1_555 1_555
C21 N6 1_555 1_555
C22 C23 1_555 1_555
C22 N5 1_555 1_555
N2 O1 1_555 1_555

#END
