
#######################################################################
#
#                 Cambridge Crystallographic Data Centre
#                                CCDC 
#
#######################################################################
#
# If this CIF has been generated from an entry in the Cambridge 
# Structural Database, then it will include bibliographic, chemical, 
# crystal, experimental, refinement or atomic coordinate data resulting 
# from the CCDC's data processing and validation procedures.
#
#######################################################################

data_AMIWEA
_chemical_formula_moiety         'C18 H17 Cl1 O1'
_chemical_name_systematic        
1-(3-Chlorophenyl)-3-(4-isopropylphenyl)prop-2-en-1-one
_symmetry_cell_setting           monoclinic
_symmetry_space_group_name_H-M   'P 21/c'
_symmetry_Int_Tables_number      14
_space_group_name_Hall           '-P 2ybc'
loop_
_symmetry_equiv_pos_site_id
_symmetry_equiv_pos_as_xyz
1 x,y,z
2 -x,1/2+y,1/2-z
3 -x,-y,-z
4 x,1/2-y,1/2+z
_cell_length_a                   5.9172(3)
_cell_length_b                   7.5758(6)
_cell_length_c                   33.1334(16)
_cell_angle_alpha                90
_cell_angle_beta                 93.666(5)
_cell_angle_gamma                90
_cell_volume                     1482.25
_exptl_crystal_colour            colorless
_exptl_crystal_description       block
_cell_formula_units_Z            4
loop_
_atom_site_label
_atom_site_type_symbol
_atom_site_fract_x
_atom_site_fract_y
_atom_site_fract_z
C1 C 0.5801(3) 0.3341(3) 0.44599(5)
C2 C 0.4339(3) 0.3273(3) 0.41119(5)
H1 H 0.2869 0.2776 0.4122
C3 C 0.5057(3) 0.3934(3) 0.37552(5)
C4 C 0.7177(3) 0.4691(3) 0.37340(6)
H2 H 0.7640 0.5148 0.3485
C5 C 0.8607(3) 0.4772(3) 0.40783(6)
H3 H 1.0059 0.5298 0.4068
C6 C 0.7941(3) 0.4095(3) 0.44386(6)
H4 H 0.8946 0.4143 0.4674
C7 C 0.4980(3) 0.2661(3) 0.48471(5)
C8 C 0.6712(3) 0.2083(3) 0.51621(5)
H5 H 0.8206 0.1845 0.5088
C9 C 0.6230(3) 0.1889(3) 0.55459(5)
H6 H 0.4717 0.2132 0.5609
C10 C 0.7812(3) 0.1336(3) 0.58823(5)
C11 C 0.7249(3) 0.1646(3) 0.62773(5)
H7 H 0.5821 0.2153 0.6325
C12 C 0.8741(3) 0.1226(3) 0.66032(5)
H8 H 0.8330 0.1471 0.6870
C13 C 1.0822(3) 0.0456(3) 0.65462(5)
C14 C 1.1349(3) 0.0105(3) 0.61517(5)
H9 H 1.2748 -0.0451 0.6106
C15 C 0.9891(3) 0.0544(3) 0.58240(5)
H10 H 1.0310 0.0303 0.5557
C16 C 1.2461(3) -0.0016(3) 0.69027(5)
H11 H 1.3823 -0.0575 0.6792
C17 C 1.3256(3) 0.1626(3) 0.71406(6)
H12 H 1.1949 0.2210 0.7250
H13 H 1.3996 0.2440 0.6961
H14 H 1.4332 0.1278 0.7364
C18 C 1.1438(4) -0.1346(4) 0.71835(7)
H15 H 1.0078 -0.0840 0.7292
H16 H 1.2544 -0.1629 0.7407
H17 H 1.1032 -0.2424 0.7032
Cl1 Cl 0.32640(8) 0.38231(8) 0.33164(2)
O1 O 0.2954(2) 0.2590(2) 0.48992(4)
loop_
_geom_bond_atom_site_label_1
_geom_bond_atom_site_label_2
_geom_bond_site_symmetry_1
_geom_bond_site_symmetry_2
C1 C2 1_555 1_555
C2 H1 1_555 1_555
C3 C2 1_555 1_555
C4 C3 1_555 1_555
H2 C4 1_555 1_555
C5 C4 1_555 1_555
H3 C5 1_555 1_555
C6 C1 1_555 1_555
H4 C6 1_555 1_555
C7 C1 1_555 1_555
C8 C7 1_555 1_555
H5 C8 1_555 1_555
C9 C8 1_555 1_555
H6 C9 1_555 1_555
C10 C9 1_555 1_555
C11 C10 1_555 1_555
H7 C11 1_555 1_555
C12 C11 1_555 1_555
H8 C12 1_555 1_555
C13 C12 1_555 1_555
C14 C13 1_555 1_555
H9 C14 1_555 1_555
C15 C10 1_555 1_555
H10 C15 1_555 1_555
C16 C13 1_555 1_555
H11 C16 1_555 1_555
C17 C16 1_555 1_555
H12 C17 1_555 1_555
H13 C17 1_555 1_555
H14 C17 1_555 1_555
C18 C16 1_555 1_555
H15 C18 1_555 1_555
H16 C18 1_555 1_555
H17 C18 1_555 1_555
Cl1 C3 1_555 1_555
O1 C7 1_555 1_555
C5 C6 1_555 1_555
C14 C15 1_555 1_555

#END
