
#######################################################################
#
#                 Cambridge Crystallographic Data Centre
#                                CCDC 
#
#######################################################################
#
# If this CIF has been generated from an entry in the Cambridge 
# Structural Database, then it will include bibliographic, chemical, 
# crystal, experimental, refinement or atomic coordinate data resulting 
# from the CCDC's data processing and validation procedures.
#
#######################################################################

data_AMMFAC
_chemical_formula_moiety         'C2 H2 F1 O2 1-,H4 N1 1+'
_chemical_name_systematic        'Ammonium fluoroacetate'
_symmetry_cell_setting           monoclinic
_symmetry_space_group_name_H-M   'C 2/c'
_symmetry_Int_Tables_number      15
_space_group_name_Hall           '-C 2yn'
loop_
_symmetry_equiv_pos_site_id
_symmetry_equiv_pos_as_xyz
1 x,y,z
2 1/2+x,1/2+y,z
3 -x,y,1/2-z
4 1/2-x,1/2+y,1/2-z
5 -x,-y,-z
6 1/2-x,1/2-y,-z
7 x,-y,1/2+z
8 1/2+x,1/2-y,1/2+z
_cell_length_a                   11.755(3)
_cell_length_b                   10.900(3)
_cell_length_c                   6.788(2)
_cell_angle_alpha                90
_cell_angle_beta                 92.67(2)
_cell_angle_gamma                90
_cell_volume                     868.799
_cell_formula_units_Z            8
loop_
_atom_site_label
_atom_site_type_symbol
_atom_site_fract_x
_atom_site_fract_y
_atom_site_fract_z
F1 F 0.13740 -0.04220 0.11080
O1 O 0.08550 -0.35140 -0.00890
O2 O 0.17490 -0.26410 0.25000
C1 C 0.11960 -0.26190 0.09040
C2 C 0.09020 -0.13950 0.00270
H1 H 0.00300 -0.13100 -0.00400
H2 H 0.11200 -0.13700 -0.14700
N1 N 0.34160 -0.09230 0.41330
H3 H 0.34200 -0.13600 0.54500
H4 H 0.27000 -0.11600 0.34200
H5 H 0.35200 -0.01200 0.43200
H6 H 0.40400 -0.12300 0.33400
loop_
_geom_bond_atom_site_label_1
_geom_bond_atom_site_label_2
_geom_bond_site_symmetry_1
_geom_bond_site_symmetry_2
F1 C2 1_555 1_555
O1 C1 1_555 1_555
O2 C1 1_555 1_555
N1 H3 1_555 1_555
C1 C2 1_555 1_555
C2 H1 1_555 1_555
H2 C2 1_555 1_555
H4 N1 1_555 1_555
H5 N1 1_555 1_555
H6 N1 1_555 1_555

#END
