
#######################################################################
#
#                 Cambridge Crystallographic Data Centre
#                                CCDC 
#
#######################################################################
#
# If this CIF has been generated from an entry in the Cambridge 
# Structural Database, then it will include bibliographic, chemical, 
# crystal, experimental, refinement or atomic coordinate data resulting 
# from the CCDC's data processing and validation procedures.
#
#######################################################################

data_AMOLIZ
_chemical_formula_moiety         'C16 H21 N1 O4'
_chemical_name_systematic        
3,3,7,7-tetramethyl-5-(4-nitrophenyl)-2,6-dioxabicyclo[2.2.2]octane
_symmetry_cell_setting           monoclinic
_symmetry_space_group_name_H-M   'P 21/n'
_symmetry_Int_Tables_number      14
_space_group_name_Hall           '-P 2yn'
loop_
_symmetry_equiv_pos_site_id
_symmetry_equiv_pos_as_xyz
1 x,y,z
2 1/2-x,1/2+y,1/2-z
3 -x,-y,-z
4 1/2+x,1/2-y,1/2+z
_cell_length_a                   7.230(4)
_cell_length_b                   17.846(9)
_cell_length_c                   11.959(6)
_cell_angle_alpha                90
_cell_angle_beta                 105.260(6)
_cell_angle_gamma                90
_cell_volume                     1488.62
_exptl_crystal_colour            colorless
_exptl_crystal_description       block
_cell_formula_units_Z            4
loop_
_atom_site_label
_atom_site_type_symbol
_atom_site_fract_x
_atom_site_fract_y
_atom_site_fract_z
N1 N 0.8065(2) 0.57002(9) 1.02329(16)
O1 O 0.53270(19) 0.23523(7) 0.86576(11)
O2 O 0.56725(19) 0.10970(7) 0.92162(11)
O3 O 0.8010(3) 0.60535(8) 0.93613(15)
O4 O 0.8510(3) 0.59795(9) 1.11874(16)
C1 C 0.6261(3) 0.16610(9) 0.85532(15)
H1 H 0.5851 0.1508 0.7738
C2 C 0.5771(3) 0.26091(10) 0.98379(15)
H2 H 0.4581 0.2595 1.0084
C3 C 0.6180(3) 0.12763(10) 1.04534(16)
C4 C 0.8428(3) 0.17501(9) 0.88734(15)
C5 C 0.8974(2) 0.20211(10) 1.01547(14)
H3 H 0.9899 0.1680 1.0631
H4 H 0.9551 0.2515 1.0208
C6 C 0.7161(2) 0.20483(9) 1.05873(14)
H5 H 0.7484 0.2205 1.1401
C7 C 0.6467(2) 0.34158(9) 0.99350(15)
C8 C 0.7076(3) 0.37512(10) 1.10115(16)
H6 H 0.7116 0.3472 1.1674
C9 C 0.7627(3) 0.44951(11) 1.11187(16)
H7 H 0.8053 0.4716 1.1846
C10 C 0.7534(3) 0.49011(9) 1.01318(16)
C11 C 0.6928(3) 0.45902(11) 0.90532(17)
H8 H 0.6883 0.4874 0.8394
C12 C 0.6383(3) 0.38439(10) 0.89612(17)
H9 H 0.5954 0.3628 0.8231
C13 C 0.7477(3) 0.06584(10) 1.11148(17)
H10 H 0.6850 0.0183 1.0934
H11 H 0.7736 0.0750 1.1933
H12 H 0.8660 0.0654 1.0893
C14 C 0.4331(3) 0.12667(13) 1.0837(2)
H13 H 0.3409 0.1594 1.0349
H14 H 0.4590 0.1434 1.1626
H15 H 0.3830 0.0766 1.0779
C15 C 0.9350(3) 0.09981(11) 0.87000(19)
H16 H 0.8933 0.0617 0.9146
H17 H 1.0720 0.1043 0.8952
H18 H 0.8972 0.0865 0.7894
C16 C 0.9016(4) 0.23273(12) 0.80831(19)
H19 H 0.8510 0.2182 0.7288
H20 H 1.0390 0.2352 0.8260
H21 H 0.8519 0.2810 0.8206
loop_
_geom_bond_atom_site_label_1
_geom_bond_atom_site_label_2
_geom_bond_site_symmetry_1
_geom_bond_site_symmetry_2
N1 O3 1_555 1_555
O1 C1 1_555 1_555
O2 C1 1_555 1_555
O4 N1 1_555 1_555
C1 H1 1_555 1_555
C2 O1 1_555 1_555
H2 C2 1_555 1_555
C3 O2 1_555 1_555
C4 C1 1_555 1_555
C5 C4 1_555 1_555
H3 C5 1_555 1_555
H4 C5 1_555 1_555
C6 C2 1_555 1_555
H5 C6 1_555 1_555
C7 C2 1_555 1_555
C8 C7 1_555 1_555
H6 C8 1_555 1_555
C9 C8 1_555 1_555
H7 C9 1_555 1_555
C10 N1 1_555 1_555
C11 C10 1_555 1_555
H8 C11 1_555 1_555
C12 C7 1_555 1_555
H9 C12 1_555 1_555
C13 C3 1_555 1_555
H10 C13 1_555 1_555
H11 C13 1_555 1_555
H12 C13 1_555 1_555
C14 C3 1_555 1_555
H13 C14 1_555 1_555
H14 C14 1_555 1_555
H15 C14 1_555 1_555
C15 C4 1_555 1_555
H16 C15 1_555 1_555
H17 C15 1_555 1_555
H18 C15 1_555 1_555
C16 C4 1_555 1_555
H19 C16 1_555 1_555
H20 C16 1_555 1_555
H21 C16 1_555 1_555
C3 C6 1_555 1_555
C5 C6 1_555 1_555
C9 C10 1_555 1_555
C11 C12 1_555 1_555

#END
