
#######################################################################
#
#                 Cambridge Crystallographic Data Centre
#                                CCDC 
#
#######################################################################
#
# If this CIF has been generated from an entry in the Cambridge 
# Structural Database, then it will include bibliographic, chemical, 
# crystal, experimental, refinement or atomic coordinate data resulting 
# from the CCDC's data processing and validation procedures.
#
#######################################################################

data_AMOSIG
_chemical_formula_moiety         'C16 H18 F1 N1 O4 S1'
_chemical_name_systematic        
'trans-t-butyl 1-cyano-2-fluoro-2-((phenylsulfonyl)methyl)cyclopropanecarboxylate'
_symmetry_cell_setting           orthorhombic
_symmetry_space_group_name_H-M   'P 21 21 21'
_symmetry_Int_Tables_number      19
_space_group_name_Hall           'P 2ac 2ab'
loop_
_symmetry_equiv_pos_site_id
_symmetry_equiv_pos_as_xyz
1 x,y,z
2 1/2-x,-y,1/2+z
3 1/2+x,1/2-y,-z
4 -x,1/2+y,1/2-z
_cell_length_a                   8.9016(10)
_cell_length_b                   19.634(2)
_cell_length_c                   10.2145(12)
_cell_angle_alpha                90
_cell_angle_beta                 90
_cell_angle_gamma                90
_cell_volume                     1785.23
_exptl_crystal_colour            colorless
_exptl_crystal_description       prism
_cell_formula_units_Z            4
loop_
_atom_site_label
_atom_site_type_symbol
_atom_site_fract_x
_atom_site_fract_y
_atom_site_fract_z
C1 C 0.3045(3) 0.09780(12) 0.2495(2)
H1 H 0.3697 0.1206 0.1935
C2 C 0.1685(3) 0.07328(14) 0.2045(3)
H2 H 0.1414 0.0801 0.1175
C3 C 0.0741(4) 0.03948(15) 0.2856(3)
H3 H -0.0166 0.0227 0.254
C4 C 0.1127(4) 0.02988(16) 0.4149(3)
H4 H 0.0476 0.0066 0.4703
C5 C 0.2468(3) 0.05443(12) 0.4630(2)
H5 H 0.2726 0.0485 0.5505
C6 C 0.3413(3) 0.08788(10) 0.3782(2)
C7 C 0.4807(3) 0.20577(10) 0.4816(2)
H6 H 0.5765 0.2291 0.4876
H7 H 0.4239 0.2272 0.4117
C8 C 0.3989(2) 0.21575(9) 0.6056(2)
C9 C 0.4204(3) 0.27458(11) 0.6920(3)
H8 H 0.3317 0.2947 0.7312
H9 H 0.4987 0.3068 0.6691
C10 C 0.4694(2) 0.20427(9) 0.74131(19)
C11 C 0.6353(2) 0.19098(10) 0.75006(19)
C12 C 0.3744(3) 0.17115(12) 0.8361(2)
C13 C 0.8200(3) 0.12353(13) 0.8708(3)
C14 C 0.9050(3) 0.18531(16) 0.9204(3)
H10 H 0.9118 0.2187 0.8519
H11 H 1.0042 0.1719 0.9467
H12 H 0.8528 0.2045 0.9939
C15 C 0.7941(4) 0.07208(18) 0.9775(4)
H13 H 0.7459 0.0938 1.0505
H14 H 0.8888 0.0535 1.0051
H15 H 0.7313 0.0361 0.9452
C16 C 0.8927(4) 0.0929(2) 0.7524(4)
H16 H 0.8357 0.054 0.7241
H17 H 0.993 0.0789 0.7738
H18 H 0.8959 0.126 0.6834
F1 F 0.25335(13) 0.19244(6) 0.59943(13)
N1 N 0.2992(3) 0.14629(15) 0.9110(3)
O1 O 0.6187(2) 0.12075(12) 0.3314(2)
O2 O 0.5523(2) 0.08270(8) 0.55525(19)
O3 O 0.72356(18) 0.22190(10) 0.68498(19)
O4 O 0.66357(15) 0.14443(8) 0.83841(14)
S1 S 0.51452(6) 0.11897(3) 0.43796(5)
loop_
_geom_bond_atom_site_label_1
_geom_bond_atom_site_label_2
_geom_bond_site_symmetry_1
_geom_bond_site_symmetry_2
C1 H1 1_555 1_555
C2 C1 1_555 1_555
H2 C2 1_555 1_555
C3 C2 1_555 1_555
H3 C3 1_555 1_555
C4 C3 1_555 1_555
H4 C4 1_555 1_555
C5 C4 1_555 1_555
H5 C5 1_555 1_555
C6 C1 1_555 1_555
C7 H6 1_555 1_555
H7 C7 1_555 1_555
C8 C7 1_555 1_555
C9 C8 1_555 1_555
H8 C9 1_555 1_555
H9 C9 1_555 1_555
C10 C8 1_555 1_555
C11 C10 1_555 1_555
C12 C10 1_555 1_555
C13 C14 1_555 1_555
C14 H10 1_555 1_555
H11 C14 1_555 1_555
H12 C14 1_555 1_555
C15 C13 1_555 1_555
H13 C15 1_555 1_555
H14 C15 1_555 1_555
H15 C15 1_555 1_555
C16 C13 1_555 1_555
H16 C16 1_555 1_555
H17 C16 1_555 1_555
H18 C16 1_555 1_555
F1 C8 1_555 1_555
N1 C12 1_555 1_555
O1 S1 1_555 1_555
O2 S1 1_555 1_555
O3 C11 1_555 1_555
O4 C11 1_555 1_555
S1 C6 1_555 1_555
C5 C6 1_555 1_555
C7 S1 1_555 1_555
C9 C10 1_555 1_555
C13 O4 1_555 1_555

#END
