
#######################################################################
#
#                 Cambridge Crystallographic Data Centre
#                                CCDC 
#
#######################################################################
#
# If this CIF has been generated from an entry in the Cambridge 
# Structural Database, then it will include bibliographic, chemical, 
# crystal, experimental, refinement or atomic coordinate data resulting 
# from the CCDC's data processing and validation procedures.
#
#######################################################################

data_AMOXAL10
_chemical_formula_moiety         'C2 O4 2-,2(H4 N1 1+),H2 O1'
_chemical_name_systematic        'bis(ammonium) oxalate monohydrate'
_symmetry_cell_setting           orthorhombic
_symmetry_space_group_name_H-M   'P 21 21 2'
_symmetry_Int_Tables_number      18
_space_group_name_Hall           'P 2 2ab'
loop_
_symmetry_equiv_pos_site_id
_symmetry_equiv_pos_as_xyz
1 x,y,z
2 -x,-y,z
3 1/2-x,1/2+y,-z
4 1/2+x,1/2-y,-z
_cell_length_a                   8.0472(3)
_cell_length_b                   10.3334(3)
_cell_length_c                   3.7710(2)
_cell_angle_alpha                90
_cell_angle_beta                 90
_cell_angle_gamma                90
_cell_volume                     313.577
_exptl_crystal_colour            colorless
_exptl_crystal_description       block
_cell_formula_units_Z            2
loop_
_atom_site_label
_atom_site_type_symbol
_atom_site_fract_x
_atom_site_fract_y
_atom_site_fract_z
O1 O 0.88070(12) -0.14067(9) 0.5018(3)
O2 O 0.79809(12) 0.05956(9) 0.6399(3)
C1 C 0.90681(17) -0.02317(13) 0.5693(4)
O1A O 1.11930(12) 0.14067(9) 0.5018(3)
O2A O 1.20191(12) -0.05956(9) 0.6399(3)
C1A C 1.09319(17) 0.02317(13) 0.5693(4)
N1 N 0.38813(16) 0.22572(12) -0.0741(4)
H1 H 0.429(2) 0.159(2) 0.039(6)
H2 H 0.304(3) 0.2031(18) -0.202(6)
H3 H 0.3547(19) 0.2828(19) 0.074(6)
H4 H 0.465(3) 0.264(2) -0.214(6)
O3 O 0.5000 0.0000 0.3149(5)
H5 H 0.587(3) 0.016(3) 0.451(7)
H5A H 0.413(3) -0.016(3) 0.451(7)
loop_
_geom_bond_atom_site_label_1
_geom_bond_atom_site_label_2
_geom_bond_site_symmetry_1
_geom_bond_site_symmetry_2
O1 C1 1_555 1_555
O2 C1 1_555 1_555
C1 C1A 1_555 1_555
N1 H1 1_555 1_555
H2 N1 1_555 1_555
H3 N1 1_555 1_555
H4 N1 1_555 1_555
O3 H5 1_555 1_555
O1A C1A 1_555 1_555
O2A C1A 1_555 1_555
H5A O3 1_555 1_555

#END
