
#######################################################################
#
#                 Cambridge Crystallographic Data Centre
#                                CCDC 
#
#######################################################################
#
# If this CIF has been generated from an entry in the Cambridge 
# Structural Database, then it will include bibliographic, chemical, 
# crystal, experimental, refinement or atomic coordinate data resulting 
# from the CCDC's data processing and validation procedures.
#
#######################################################################

data_AMOXEG
_chemical_formula_moiety         'C46 H48 N2 P2 Si2'
_chemical_name_systematic        
5-(9-Anthrylmethylene)-2,2,8,8-tetramethyl-4,4,6,6-tetraphenyl-3,7-diaza-4\l^5^,6\l^5^-diphospha-2,8-disilanona-3,6-diene
_symmetry_cell_setting           monoclinic
_symmetry_space_group_name_H-M   'P 21/n'
_symmetry_Int_Tables_number      14
_space_group_name_Hall           '-P 2yn'
loop_
_symmetry_equiv_pos_site_id
_symmetry_equiv_pos_as_xyz
1 x,y,z
2 1/2-x,1/2+y,1/2-z
3 -x,-y,-z
4 1/2+x,1/2-y,1/2+z
_cell_length_a                   10.2019(11)
_cell_length_b                   22.108(2)
_cell_length_c                   18.280(2)
_cell_angle_alpha                90
_cell_angle_beta                 100.901(2)
_cell_angle_gamma                90
_cell_volume                     4048.54
_exptl_crystal_colour            yellow
_exptl_crystal_description       needle
_cell_formula_units_Z            4
loop_
_atom_site_label
_atom_site_type_symbol
_atom_site_fract_x
_atom_site_fract_y
_atom_site_fract_z
C1 C 0.7952(2) 0.07048(9) 0.27757(11)
P1 P 0.74644(5) 0.14947(2) 0.26313(3)
C2 C 0.8171(2) 0.17246(10) 0.18354(11)
C3 C 0.7555(2) 0.22032(10) 0.13990(12)
H1 H 0.6752 0.2373 0.1499
C4 C 0.8114(3) 0.24288(11) 0.08214(12)
H2 H 0.7699 0.2757 0.0531
C5 C 0.9276(3) 0.21791(11) 0.06645(13)
H3 H 0.9650 0.2333 0.0264
C6 C 0.9892(3) 0.17052(11) 0.10917(13)
H4 H 1.0688 0.1534 0.0984
C7 C 0.9348(2) 0.14803(10) 0.16780(12)
H5 H 0.9780 0.1158 0.1973
C8 C 0.8468(2) 0.19319(9) 0.33721(11)
C9 C 0.7815(2) 0.22874(9) 0.38210(12)
H6 H 0.6868 0.2295 0.3736
C10 C 0.8543(2) 0.26307(10) 0.43925(12)
H7 H 0.8094 0.2871 0.4698
C11 C 0.9922(2) 0.26229(10) 0.45170(13)
H8 H 1.0417 0.2855 0.4913
C12 C 1.0587(2) 0.22778(10) 0.40661(12)
H9 H 1.1535 0.2279 0.4148
C13 C 0.9862(2) 0.19321(10) 0.34964(12)
H10 H 1.0316 0.1695 0.3190
N1 N 0.59632(18) 0.15937(8) 0.25571(10)
Si1 Si 0.43721(6) 0.18108(3) 0.24736(4)
C14 C 0.4140(3) 0.24158(13) 0.31559(16)
H11 H 0.4683 0.2769 0.3084
H12 H 0.4419 0.2262 0.3664
H13 H 0.3197 0.2533 0.3076
C15 C 0.3714(3) 0.21050(12) 0.15151(14)
H14 H 0.3815 0.1794 0.1147
H15 H 0.4215 0.2467 0.1426
H16 H 0.2767 0.2208 0.1470
C16 C 0.3300(2) 0.11614(12) 0.26564(14)
H17 H 0.3354 0.0837 0.2298
H18 H 0.2372 0.1297 0.2603
H19 H 0.3613 0.1010 0.3163
P2 P 0.76580(6) 0.01514(2) 0.20042(3)
C17 C 0.6571(2) 0.04706(9) 0.11902(11)
C18 C 0.5193(2) 0.05151(10) 0.11272(13)
H20 H 0.4792 0.0412 0.1539
C19 C 0.4404(2) 0.07085(10) 0.04697(13)
H21 H 0.3464 0.0733 0.0431
C20 C 0.4974(3) 0.08658(10) -0.01301(13)
H22 H 0.4428 0.0998 -0.0581
C21 C 0.6344(3) 0.08297(10) -0.00727(13)
H23 H 0.6738 0.0945 -0.0483
C22 C 0.7150(2) 0.06250(10) 0.05820(12)
H24 H 0.8088 0.0591 0.0614
C23 C 0.6630(2) -0.04227(10) 0.23374(11)
C24 C 0.6846(2) -0.10263(10) 0.21686(12)
H25 H 0.7544 -0.1126 0.1912
C25 C 0.6049(2) -0.14815(10) 0.23725(12)
H26 H 0.6196 -0.1891 0.2252
C26 C 0.5040(2) -0.13359(11) 0.27515(13)
H27 H 0.4495 -0.1647 0.2893
C27 C 0.4818(2) -0.07400(11) 0.29255(12)
H28 H 0.4121 -0.0642 0.3183
C28 C 0.5617(2) -0.02868(10) 0.27226(12)
H29 H 0.5471 0.0121 0.2848
N2 N 0.89779(19) -0.00865(8) 0.18431(10)
Si2 Si 1.01458(6) -0.04790(3) 0.15204(3)
C29 C 1.1203(3) -0.08885(14) 0.23057(15)
H30 H 1.0642 -0.1157 0.2542
H31 H 1.1650 -0.0596 0.2673
H32 H 1.1875 -0.1128 0.2116
C30 C 1.1211(3) 0.00488(13) 0.10971(17)
H33 H 1.1640 0.0337 0.1475
H34 H 1.0657 0.0269 0.0686
H35 H 1.1897 -0.0182 0.0908
C31 C 0.9434(3) -0.10506(11) 0.07994(13)
H36 H 0.9000 -0.1374 0.1033
H37 H 1.0153 -0.1222 0.0577
H38 H 0.8777 -0.0855 0.0411
C32 C 0.8557(2) 0.04475(10) 0.34187(11)
H39 H 0.8733 0.0028 0.3380
C33 C 0.9000(2) 0.07025(9) 0.41786(11)
C34 C 0.8074(2) 0.09406(10) 0.45829(12)
C35 C 0.6674(2) 0.09741(10) 0.42942(12)
H40 H 0.6335 0.0824 0.3808
C36 C 0.5819(2) 0.12147(10) 0.46979(13)
H41 H 0.4894 0.1237 0.4488
C37 C 0.6282(3) 0.14349(11) 0.54303(13)
H42 H 0.5670 0.1602 0.5708
C38 C 0.7603(2) 0.14063(10) 0.57335(12)
H43 H 0.7905 0.1554 0.6224
C39 C 0.8543(2) 0.11597(10) 0.53307(12)
C40 C 0.9897(2) 0.11216(10) 0.56389(12)
H44 H 1.0204 0.1272 0.6128
C41 C 1.0814(2) 0.08706(10) 0.52523(12)
C42 C 1.2200(2) 0.08175(10) 0.55793(12)
H45 H 1.2512 0.0967 0.6069
C43 C 1.3073(2) 0.05572(10) 0.51995(12)
H46 H 1.3984 0.0516 0.5430
C44 C 1.2635(2) 0.03466(10) 0.44614(13)
H47 H 1.3257 0.0169 0.4199
C45 C 1.1324(2) 0.03978(10) 0.41247(12)
H48 H 1.1050 0.0262 0.3626
C46 C 1.0362(2) 0.06513(9) 0.45081(12)
loop_
_geom_bond_atom_site_label_1
_geom_bond_atom_site_label_2
_geom_bond_site_symmetry_1
_geom_bond_site_symmetry_2
C1 P1 1_555 1_555
P1 C2 1_555 1_555
C2 C3 1_555 1_555
C3 H1 1_555 1_555
C4 C3 1_555 1_555
H2 C4 1_555 1_555
C5 C4 1_555 1_555
H3 C5 1_555 1_555
C6 C5 1_555 1_555
H4 C6 1_555 1_555
C7 C2 1_555 1_555
H5 C7 1_555 1_555
C8 P1 1_555 1_555
C9 C8 1_555 1_555
H6 C9 1_555 1_555
C10 C9 1_555 1_555
H7 C10 1_555 1_555
C11 C10 1_555 1_555
H8 C11 1_555 1_555
C12 C11 1_555 1_555
H9 C12 1_555 1_555
C13 C8 1_555 1_555
H10 C13 1_555 1_555
N1 P1 1_555 1_555
Si1 N1 1_555 1_555
C14 Si1 1_555 1_555
H11 C14 1_555 1_555
H12 C14 1_555 1_555
H13 C14 1_555 1_555
C15 Si1 1_555 1_555
H14 C15 1_555 1_555
H15 C15 1_555 1_555
H16 C15 1_555 1_555
C16 Si1 1_555 1_555
H17 C16 1_555 1_555
H18 C16 1_555 1_555
H19 C16 1_555 1_555
P2 C1 1_555 1_555
C17 P2 1_555 1_555
C18 C17 1_555 1_555
H20 C18 1_555 1_555
C19 C18 1_555 1_555
H21 C19 1_555 1_555
C20 C19 1_555 1_555
H22 C20 1_555 1_555
C21 C20 1_555 1_555
H23 C21 1_555 1_555
C22 C17 1_555 1_555
H24 C22 1_555 1_555
C23 P2 1_555 1_555
C24 C23 1_555 1_555
H25 C24 1_555 1_555
C25 C24 1_555 1_555
H26 C25 1_555 1_555
C26 C25 1_555 1_555
H27 C26 1_555 1_555
C27 C26 1_555 1_555
H28 C27 1_555 1_555
C28 C23 1_555 1_555
H29 C28 1_555 1_555
N2 P2 1_555 1_555
Si2 N2 1_555 1_555
C29 Si2 1_555 1_555
H30 C29 1_555 1_555
H31 C29 1_555 1_555
H32 C29 1_555 1_555
C30 Si2 1_555 1_555
H33 C30 1_555 1_555
H34 C30 1_555 1_555
H35 C30 1_555 1_555
C31 Si2 1_555 1_555
H36 C31 1_555 1_555
H37 C31 1_555 1_555
H38 C31 1_555 1_555
C32 C1 1_555 1_555
H39 C32 1_555 1_555
C33 C32 1_555 1_555
C34 C33 1_555 1_555
C35 C34 1_555 1_555
H40 C35 1_555 1_555
C36 C35 1_555 1_555
H41 C36 1_555 1_555
C37 C36 1_555 1_555
H42 C37 1_555 1_555
C38 C37 1_555 1_555
H43 C38 1_555 1_555
C39 C34 1_555 1_555
C40 C39 1_555 1_555
H44 C40 1_555 1_555
C41 C40 1_555 1_555
C42 C41 1_555 1_555
H45 C42 1_555 1_555
C43 C42 1_555 1_555
H46 C43 1_555 1_555
C44 C43 1_555 1_555
H47 C44 1_555 1_555
C45 C44 1_555 1_555
H48 C45 1_555 1_555
C46 C33 1_555 1_555
C6 C7 1_555 1_555
C12 C13 1_555 1_555
C21 C22 1_555 1_555
C27 C28 1_555 1_555
C38 C39 1_555 1_555
C41 C46 1_555 1_555
C45 C46 1_555 1_555

#END
