
#######################################################################
#
#                 Cambridge Crystallographic Data Centre
#                                CCDC 
#
#######################################################################
#
# If this CIF has been generated from an entry in the Cambridge 
# Structural Database, then it will include bibliographic, chemical, 
# crystal, experimental, refinement or atomic coordinate data resulting 
# from the CCDC's data processing and validation procedures.
#
#######################################################################

data_AMOXAL11
_chemical_formula_moiety         'C2 O4 2-,2(H4 N1 1+),H2 O1'
_chemical_name_systematic        'bis(ammonium) oxalate monohydrate'
_symmetry_cell_setting           orthorhombic
_symmetry_space_group_name_H-M   'P 21 21 2'
_symmetry_Int_Tables_number      18
_space_group_name_Hall           'P 2 2ab'
loop_
_symmetry_equiv_pos_site_id
_symmetry_equiv_pos_as_xyz
1 x,y,z
2 -x,-y,z
3 1/2-x,1/2+y,-z
4 1/2+x,1/2-y,-z
_cell_length_a                   8.0182(3)
_cell_length_b                   10.2837(4)
_cell_length_c                   3.7891(2)
_cell_angle_alpha                90
_cell_angle_beta                 90
_cell_angle_gamma                90
_cell_volume                     312.437
_exptl_crystal_colour            colorless
_exptl_crystal_description       block
_cell_formula_units_Z            2
loop_
_atom_site_label
_atom_site_type_symbol
_atom_site_fract_x
_atom_site_fract_y
_atom_site_fract_z
O1 O -0.88186(13) -0.14055(10) -1.0020(3)
O2 O -0.79839(12) 0.05836(10) -1.1415(4)
C1 C -0.90744(17) -0.02359(13) -1.0708(4)
O1A O -1.11814(13) 0.14055(10) -1.0020(3)
O2A O -1.20161(12) -0.05836(10) -1.1415(4)
C1A C -1.09256(17) 0.02359(13) -1.0708(4)
O3 O -0.5000 0.0000 -0.8138(5)
H1 H -0.592(3) 0.016(3) -0.956(6)
H1A H -0.408(3) -0.016(3) -0.956(6)
N1 N -0.61318(17) -0.22642(13) -0.4254(4)
H2 H -0.697(3) -0.2039(19) -0.296(6)
H3 H -0.573(2) -0.160(3) -0.535(6)
H4 H -0.646(2) -0.286(2) -0.575(6)
H5 H -0.539(2) -0.2620(18) -0.281(6)
loop_
_geom_bond_atom_site_label_1
_geom_bond_atom_site_label_2
_geom_bond_site_symmetry_1
_geom_bond_site_symmetry_2
O1 C1 1_555 1_555
O2 C1 1_555 1_555
C1 C1A 1_555 1_555
O3 H1 1_555 1_555
N1 H2 1_555 1_555
H3 N1 1_555 1_555
H4 N1 1_555 1_555
H5 N1 1_555 1_555
O1A C1A 1_555 1_555
O2A C1A 1_555 1_555
H1A O3 1_555 1_555

#END
