
#######################################################################
#
#                 Cambridge Crystallographic Data Centre
#                                CCDC 
#
#######################################################################
#
# If this CIF has been generated from an entry in the Cambridge 
# Structural Database, then it will include bibliographic, chemical, 
# crystal, experimental, refinement or atomic coordinate data resulting 
# from the CCDC's data processing and validation procedures.
#
#######################################################################

data_AMPHOM10
_chemical_formula_moiety         'C6 H7 N1 O1'
_chemical_name_systematic        2-Aminophenol
_symmetry_cell_setting           orthorhombic
_symmetry_space_group_name_H-M   'P b c a'
_symmetry_Int_Tables_number      61
_space_group_name_Hall           '-P 2ac 2ab'
loop_
_symmetry_equiv_pos_site_id
_symmetry_equiv_pos_as_xyz
1 x,y,z
2 1/2-x,-y,1/2+z
3 1/2+x,1/2-y,-z
4 -x,1/2+y,1/2-z
5 -x,-y,-z
6 1/2+x,y,1/2-z
7 1/2-x,1/2+y,z
8 x,1/2-y,1/2+z
_cell_length_a                   7.256(3)
_cell_length_b                   7.849(6)
_cell_length_c                   19.754(6)
_cell_angle_alpha                90
_cell_angle_beta                 90
_cell_angle_gamma                90
_cell_volume                     1125.04
_exptl_crystal_colour            'dark brown'
_chemical_melting_point          447K
_cell_formula_units_Z            8
loop_
_atom_site_label
_atom_site_type_symbol
_atom_site_fract_x
_atom_site_fract_y
_atom_site_fract_z
O1 O -0.06810 0.23470 0.49670
N1 N 0.19410 0.08350 0.42130
C1 C -0.04970 0.29080 0.43150
C2 C 0.07930 0.20780 0.39070
C3 C 0.10670 0.25890 0.32450
C4 C 0.00060 0.39430 0.29780
C5 C -0.12930 0.47470 0.33840
C6 C -0.15470 0.42160 0.40460
H1 H 0.20800 0.19400 0.29600
H2 H 0.01700 0.43300 0.24700
H3 H -0.21100 0.58700 0.31600
H4 H -0.26100 0.49100 0.43400
loop_
_geom_bond_atom_site_label_1
_geom_bond_atom_site_label_2
_geom_bond_site_symmetry_1
_geom_bond_site_symmetry_2
O1 C1 1_555 1_555
N1 C2 1_555 1_555
C1 C2 1_555 1_555
C2 C3 1_555 1_555
C3 C4 1_555 1_555
C4 C5 1_555 1_555
C5 C6 1_555 1_555
C6 C1 1_555 1_555
H1 C3 1_555 1_555
H2 C4 1_555 1_555
H3 C5 1_555 1_555
H4 C6 1_555 1_555

#END
