
#######################################################################
#
#                 Cambridge Crystallographic Data Centre
#                                CCDC 
#
#######################################################################
#
# If this CIF has been generated from an entry in the Cambridge 
# Structural Database, then it will include bibliographic, chemical, 
# crystal, experimental, refinement or atomic coordinate data resulting 
# from the CCDC's data processing and validation procedures.
#
#######################################################################

data_AMUBIV02
_chemical_formula_moiety         'C23 H14 O1'
_chemical_name_systematic        phenyl(pyren-1-yl)methanone
_symmetry_cell_setting           triclinic
_symmetry_space_group_name_H-M   'P -1'
_symmetry_Int_Tables_number      2
_space_group_name_Hall           '-P 1'
loop_
_symmetry_equiv_pos_site_id
_symmetry_equiv_pos_as_xyz
1 x,y,z
2 -x,-y,-z
_cell_length_a                   8.6959(10)
_cell_length_b                   8.9304(10)
_cell_length_c                   11.2041(13)
_cell_angle_alpha                69.755(4)
_cell_angle_beta                 80.944(4)
_cell_angle_gamma                69.789(4)
_cell_volume                     765.361
_exptl_crystal_description       plate
_cell_formula_units_Z            2
loop_
_atom_site_label
_atom_site_type_symbol
_atom_site_fract_x
_atom_site_fract_y
_atom_site_fract_z
C1 C -0.0261(2) 0.34040(19) 0.70653(15)
C2 C -0.0859(2) 0.5126(2) 0.64348(15)
H1 H -0.1569 0.5519 0.5752
C3 C -0.0440(2) 0.6273(2) 0.67813(15)
H2 H -0.0849 0.7437 0.6325
C4 C 0.1081(2) 0.6892(2) 0.81525(17)
H3 H 0.0721 0.8056 0.7687
C5 C 0.2051(2) 0.6356(2) 0.91326(17)
H4 H 0.2363 0.7150 0.9345
C6 C 0.3645(2) 0.4015(3) 1.08963(17)
H5 H 0.3975 0.4786 1.1125
C7 C 0.4178(2) 0.2332(3) 1.15828(17)
H6 H 0.4857 0.1960 1.2282
C8 C 0.3734(2) 0.1183(2) 1.12640(16)
H7 H 0.4116 0.0025 1.1743
C9 C 0.2255(2) 0.0552(2) 0.98717(16)
H8 H 0.2607 -0.0608 1.0349
C10 C 0.1322(2) 0.10676(19) 0.88607(15)
H9 H 0.1048 0.0260 0.8637
C11 C 0.11410(19) 0.39983(19) 0.84835(14)
C12 C 0.21669(19) 0.3435(2) 0.95337(15)
C13 C 0.0573(2) 0.57443(19) 0.77900(15)
C14 C 0.2629(2) 0.4614(2) 0.98691(15)
C15 C 0.2727(2) 0.1705(2) 1.02430(15)
C16 C 0.07362(19) 0.28079(19) 0.81173(14)
C17 C -0.0536(2) 0.2205(2) 0.65238(14)
C18 C -0.2228(2) 0.2409(2) 0.62301(14)
C19 C -0.2414(2) 0.1531(2) 0.54748(16)
H10 H -0.1473 0.0897 0.5100
C20 C -0.3957(3) 0.1580(2) 0.52692(18)
H11 H -0.4074 0.0980 0.4753
C21 C -0.5330(3) 0.2495(3) 0.5810(2)
H12 H -0.6386 0.2497 0.5684
C22 C -0.5179(2) 0.3411(2) 0.65356(18)
H13 H -0.6128 0.4064 0.6889
C23 C -0.3624(2) 0.3367(2) 0.67439(17)
H14 H -0.3515 0.3995 0.7240
O1 O 0.06315(15) 0.10601(14) 0.63162(11)
loop_
_geom_bond_atom_site_label_1
_geom_bond_atom_site_label_2
_geom_bond_site_symmetry_1
_geom_bond_site_symmetry_2
C1 C2 1_555 1_555
C2 H1 1_555 1_555
C3 C2 1_555 1_555
H2 C3 1_555 1_555
C4 H3 1_555 1_555
C5 C4 1_555 1_555
H4 C5 1_555 1_555
C6 H5 1_555 1_555
C7 C6 1_555 1_555
H6 C7 1_555 1_555
C8 C7 1_555 1_555
H7 C8 1_555 1_555
C9 H8 1_555 1_555
C10 C9 1_555 1_555
H9 C10 1_555 1_555
C11 C12 1_555 1_555
C12 C14 1_555 1_555
C13 C3 1_555 1_555
C14 C5 1_555 1_555
C15 C8 1_555 1_555
C16 C1 1_555 1_555
C17 C1 1_555 1_555
C18 C17 1_555 1_555
C19 C18 1_555 1_555
H10 C19 1_555 1_555
C20 C19 1_555 1_555
H11 C20 1_555 1_555
C21 C20 1_555 1_555
H12 C21 1_555 1_555
C22 C21 1_555 1_555
H13 C22 1_555 1_555
C23 C18 1_555 1_555
H14 C23 1_555 1_555
O1 C17 1_555 1_555
C4 C13 1_555 1_555
C6 C14 1_555 1_555
C9 C15 1_555 1_555
C10 C16 1_555 1_555
C11 C13 1_555 1_555
C11 C16 1_555 1_555
C12 C15 1_555 1_555
C22 C23 1_555 1_555

#END
