
#######################################################################
#
#                 Cambridge Crystallographic Data Centre
#                                CCDC 
#
#######################################################################
#
# If this CIF has been generated from an entry in the Cambridge 
# Structural Database, then it will include bibliographic, chemical, 
# crystal, experimental, refinement or atomic coordinate data resulting 
# from the CCDC's data processing and validation procedures.
#
#######################################################################

data_AMUBAM
_chemical_name_common            'bis(Paracetamol) citric acid'
_chemical_formula_moiety         '2(C8 H9 N1 O2),C6 H8 O7'
_chemical_name_systematic        
'bis(N-(4-Hydroxyphenyl)acetamide) 2-hydroxypropane-1,2,3-tricarboxylic acid'
_chemical_properties_biological  
'Paracetamol is an analgesic and antipyretic drug'
_symmetry_cell_setting           monoclinic
_symmetry_space_group_name_H-M   'C 2/c'
_symmetry_Int_Tables_number      15
_space_group_name_Hall           '-C 2yn'
loop_
_symmetry_equiv_pos_site_id
_symmetry_equiv_pos_as_xyz
1 x,y,z
2 -x,y,1/2-z
3 1/2+x,1/2+y,z
4 1/2-x,1/2+y,1/2-z
5 -x,-y,-z
6 x,-y,1/2+z
7 1/2-x,1/2-y,-z
8 1/2+x,1/2-y,1/2+z
_cell_length_a                   24.2864(10)
_cell_length_b                   11.3217(5)
_cell_length_c                   16.9668(7)
_cell_angle_alpha                90
_cell_angle_beta                 107.988(2)
_cell_angle_gamma                90
_cell_volume                     4437.22
_exptl_crystal_colour            colorless
_exptl_crystal_description       block
_cell_formula_units_Z            8
loop_
_atom_site_label
_atom_site_type_symbol
_atom_site_fract_x
_atom_site_fract_y
_atom_site_fract_z
O1 O 0.21401(6) 0.13293(13) 0.23042(10)
O2 O 0.20280(6) 0.36650(13) 0.24600(9)
O3 O 0.29737(6) 0.39776(14) 0.26413(10)
O4 O 0.25205(7) 0.11925(14) 0.44244(10)
O5 O 0.27726(7) 0.30634(14) 0.43006(10)
O6 O 0.29136(7) 0.12862(14) 0.06006(10)
O7 O 0.24839(6) 0.28940(14) 0.09124(9)
C1 C 0.26666(8) 0.19887(19) 0.25510(12)
C2 C 0.30028(9) 0.16139(19) 0.34369(13)
H1 H 0.3031 0.0759 0.3454
H2 H 0.3393 0.1925 0.3571
C3 C 0.27464(9) 0.2008(2) 0.40933(13)
C4 C 0.30435(9) 0.16765(19) 0.20083(13)
H3 H 0.3414 0.2070 0.2227
H4 H 0.3114 0.0832 0.2041
C5 C 0.27838(9) 0.2014(2) 0.11176(13)
C6 C 0.25120(10) 0.33074(19) 0.25336(12)
H5 H 0.1911(11) 0.159(2) 0.1868(17)
H6 H 0.2891(11) 0.474(3) 0.2647(16)
H7 H 0.2421(14) 0.146(3) 0.492(2)
H8 H 0.2761(11) 0.156(2) 0.0051(18)
O8 O 0.12879(7) 0.20824(15) 0.09013(9)
O9 O 0.06544(6) 0.20983(14) -0.31181(9)
N1 N 0.08301(8) 0.04264(18) -0.23410(12)
C7 C 0.09625(9) 0.09191(19) -0.15311(13)
C8 C 0.13061(9) 0.0272(2) -0.08652(14)
H9 H 0.1466 -0.0438 -0.0962
C9 C 0.14141(9) 0.0668(2) -0.00614(14)
H10 H 0.1642 0.0221 0.0379
C10 C 0.11825(9) 0.17345(19) 0.00893(13)
C11 C 0.08504(9) 0.23957(19) -0.05711(13)
H11 H 0.0700 0.3117 -0.0474
C12 C 0.07394(9) 0.19950(19) -0.13754(13)
H12 H 0.0514 0.2447 -0.1815
C13 C 0.06809(9) 0.1010(2) -0.30700(14)
C14 C 0.05291(11) 0.0259(2) -0.38343(14)
H13 H 0.0117 0.0268 -0.4093
H14 H 0.0656 -0.0536 -0.3687
H15 H 0.0717 0.0566 -0.4213
H16 H 0.0901(9) -0.033(2) -0.2350(14)
H17 H 0.1149(11) 0.275(2) 0.0937(16)
N2 N 0.05455(8) 0.38588(17) 0.56048(11)
O10 O 0.10544(7) 0.23099(14) 0.27805(10)
O11 O 0.08529(7) 0.57482(14) 0.57697(10)
C15 C 0.06752(9) 0.35595(19) 0.48656(13)
C16 C 0.10965(9) 0.41229(19) 0.46056(13)
H18 H 0.1293 0.4769 0.4899
C17 C 0.12247(9) 0.37242(19) 0.39086(13)
H19 H 0.1510 0.4101 0.3741
C18 C 0.09326(9) 0.27737(19) 0.34619(13)
C19 C 0.04981(9) 0.22306(19) 0.37025(14)
H20 H 0.0290 0.1607 0.3393
C20 C 0.03750(9) 0.26155(19) 0.44004(14)
H21 H 0.0087 0.2240 0.4563
C21 C 0.06385(9) 0.48949(19) 0.60136(13)
C22 C 0.04616(10) 0.4949(2) 0.67846(14)
H22 H 0.0304 0.4201 0.6872
H23 H 0.0174 0.5553 0.6725
H24 H 0.0793 0.5129 0.7250
H25 H 0.0435(10) 0.327(2) 0.5836(15)
H26 H 0.1339(13) 0.269(3) 0.2713(18)
H27? H 0.0543 0.5721 0.7027
H28? H 0.0674 0.4369 0.7173
H29? H 0.0054 0.4793 0.6648
loop_
_geom_bond_atom_site_label_1
_geom_bond_atom_site_label_2
_geom_bond_site_symmetry_1
_geom_bond_site_symmetry_2
O1 C1 1_555 1_555
O2 C6 1_555 1_555
O3 C6 1_555 1_555
O4 C3 1_555 1_555
O5 C3 1_555 1_555
O6 C5 1_555 1_555
O7 C5 1_555 1_555
C1 C2 1_555 1_555
C2 H1 1_555 1_555
H2 C2 1_555 1_555
C3 C2 1_555 1_555
C4 C1 1_555 1_555
H3 C4 1_555 1_555
H4 C4 1_555 1_555
C5 C4 1_555 1_555
C6 C1 1_555 1_555
H5 O1 1_555 1_555
H6 O3 1_555 1_555
H7 O4 1_555 1_555
H8 O6 1_555 1_555
O8 C10 1_555 1_555
O9 C13 1_555 1_555
N1 C7 1_555 1_555
C7 C8 1_555 1_555
C8 H9 1_555 1_555
C9 C8 1_555 1_555
H10 C9 1_555 1_555
C10 C9 1_555 1_555
C11 C10 1_555 1_555
H11 C11 1_555 1_555
C12 C7 1_555 1_555
H12 C12 1_555 1_555
C13 N1 1_555 1_555
C14 C13 1_555 1_555
H13 C14 1_555 1_555
H14 C14 1_555 1_555
H15 C14 1_555 1_555
H16 N1 1_555 1_555
H17 O8 1_555 1_555
N2 C15 1_555 1_555
O10 C18 1_555 1_555
O11 C21 1_555 1_555
C15 C16 1_555 1_555
C16 H18 1_555 1_555
C17 C16 1_555 1_555
H19 C17 1_555 1_555
C18 C17 1_555 1_555
C19 C18 1_555 1_555
H20 C19 1_555 1_555
C20 C15 1_555 1_555
H21 C20 1_555 1_555
C21 N2 1_555 1_555
C22 C21 1_555 1_555
H22 C22 1_555 1_555
H23 C22 1_555 1_555
H24 C22 1_555 1_555
H25 N2 1_555 1_555
H26 O10 1_555 1_555
C11 C12 1_555 1_555
C19 C20 1_555 1_555

#END
