
#######################################################################
#
#                 Cambridge Crystallographic Data Centre
#                                CCDC 
#
#######################################################################
#
# If this CIF has been generated from an entry in the Cambridge 
# Structural Database, then it will include bibliographic, chemical, 
# crystal, experimental, refinement or atomic coordinate data resulting 
# from the CCDC's data processing and validation procedures.
#
#######################################################################

data_AMUSIM
_chemical_formula_moiety         'C36 H28 N2 O1'
_chemical_name_systematic        
(4-Methyl-1-(3-methyl-4,6-diphenylpyridin-2-yl)-2-phenyl-1H-pyrrol-3-yl)(phenyl)methanone
_symmetry_cell_setting           triclinic
_symmetry_space_group_name_H-M   'P -1'
_symmetry_Int_Tables_number      2
_space_group_name_Hall           '-P 1'
loop_
_symmetry_equiv_pos_site_id
_symmetry_equiv_pos_as_xyz
1 x,y,z
2 -x,-y,-z
_cell_length_a                   9.4141(9)
_cell_length_b                   11.6808(12)
_cell_length_c                   14.2260(11)
_cell_angle_alpha                104.808(8)
_cell_angle_beta                 91.834(7)
_cell_angle_gamma                113.724(9)
_cell_volume                     1368.43
_exptl_crystal_colour            white
_chemical_melting_point          '473 K'
_cell_formula_units_Z            2
_chemical_properties_physical    
'Air-sensitive, Moisture-sensitive, Oxygen-sensitive, Light-sensitive, Photo-sensitive'
loop_
_atom_site_label
_atom_site_type_symbol
_atom_site_fract_x
_atom_site_fract_y
_atom_site_fract_z
O1 O -0.02494(17) -0.34817(16) 0.43868(11)
N1 N 0.16180(18) -0.09753(16) 0.23605(11)
N2 N 0.33912(18) 0.05885(16) 0.17195(11)
C1 C 0.0406(2) -0.0774(2) 0.27808(15)
H1 H -0.0056 -0.0262 0.2626
C2 C -0.0005(2) -0.1439(2) 0.34550(14)
C3 C 0.1016(2) -0.20695(19) 0.34687(13)
C4 C 0.2004(2) -0.17711(18) 0.27719(13)
C5 C -0.1273(3) -0.1468(3) 0.40828(17)
H2 H -0.2143 -0.2316 0.3865
H3 H -0.1617 -0.0815 0.4026
H4 H -0.0865 -0.1292 0.4757
C6 C 0.0989(2) -0.28602(19) 0.41261(13)
C7 C 0.2470(2) -0.28794(19) 0.45232(13)
C8 C 0.2384(3) -0.4004(2) 0.47266(17)
H5 H 0.1426 -0.4732 0.4603
C9 C 0.3727(4) -0.4037(3) 0.5113(2)
H6 H 0.3676 -0.4801 0.5228
C10 C 0.5137(3) -0.2952(3) 0.5327(2)
H7 H 0.6034 -0.2983 0.5589
C11 C 0.5228(3) -0.1818(3) 0.51585(18)
H8 H 0.6177 -0.1074 0.5324
C12 C 0.3901(2) -0.1791(2) 0.47405(15)
H9 H 0.3968 -0.1036 0.4604
C13 C 0.3192(2) -0.2245(2) 0.24336(14)
C14 C 0.2817(3) -0.3570(2) 0.21649(17)
H10 H 0.1799 -0.4168 0.2160
C15 C 0.3959(4) -0.4010(3) 0.1903(2)
H11 H 0.3705 -0.4900 0.1726
C16 C 0.5459(4) -0.3135(4) 0.1904(2)
H12 H 0.6219 -0.3435 0.1730
C17 C 0.5842(3) -0.1827(4) 0.2158(2)
H13 H 0.6861 -0.1239 0.2152
C18 C 0.4718(2) -0.1371(3) 0.24262(16)
H14 H 0.4986 -0.0478 0.2601
C19 C 0.2151(2) -0.05518(19) 0.15161(14)
C20 C 0.1291(2) -0.1315(2) 0.05867(14)
C21 C 0.1778(2) -0.07897(19) -0.01961(14)
C22 C 0.3079(2) 0.0407(2) 0.00158(14)
H15 H 0.3426 0.0768 -0.0492
C23 C 0.3874(2) 0.10788(19) 0.09686(14)
C24 C -0.0032(3) -0.2638(2) 0.04534(17)
H16 H -0.0982 -0.2542 0.0571
H17 H 0.0211 -0.3036 0.0910
H18 H -0.0170 -0.3181 -0.0206
C25 C 0.0966(2) -0.14438(19) -0.12285(14)
C26 C -0.0653(2) -0.1935(2) -0.14722(16)
H19 H -0.1264 -0.1882 -0.0976
C27 C -0.1363(3) -0.2498(2) -0.24388(18)
H20 H -0.2448 -0.2826 -0.2588
C28 C -0.0484(3) -0.2582(2) -0.31859(17)
H21 H -0.0969 -0.2965 -0.3838
C29 C 0.1122(3) -0.2092(3) -0.29589(17)
H22 H 0.1726 -0.2144 -0.3459
C30 C 0.1835(3) -0.1525(2) -0.19907(16)
H23 H 0.2921 -0.1189 -0.1847
C31 C 0.5243(2) 0.2381(2) 0.12195(14)
C32 C 0.6048(3) 0.2868(2) 0.05064(17)
H24 H 0.5729 0.2376 -0.0152
C33 C 0.7321(3) 0.4080(3) 0.07651(19)
H25 H 0.7842 0.4400 0.0279
C34 C 0.7821(3) 0.4814(2) 0.1732(2)
H26 H 0.8678 0.5627 0.1901
C35 C 0.7049(3) 0.4341(2) 0.24476(18)
H27 H 0.7386 0.4832 0.3105
C36 C 0.5773(3) 0.3138(2) 0.21918(16)
H28 H 0.5257 0.2828 0.2683
loop_
_geom_bond_atom_site_label_1
_geom_bond_atom_site_label_2
_geom_bond_site_symmetry_1
_geom_bond_site_symmetry_2
O1 C6 1_555 1_555
N1 C1 1_555 1_555
N2 C19 1_555 1_555
C1 H1 1_555 1_555
C2 C1 1_555 1_555
C3 C2 1_555 1_555
C4 N1 1_555 1_555
C5 C2 1_555 1_555
H2 C5 1_555 1_555
H3 C5 1_555 1_555
H4 C5 1_555 1_555
C6 C3 1_555 1_555
C7 C6 1_555 1_555
C8 C7 1_555 1_555
H5 C8 1_555 1_555
C9 C8 1_555 1_555
H6 C9 1_555 1_555
C10 C9 1_555 1_555
H7 C10 1_555 1_555
C11 C10 1_555 1_555
H8 C11 1_555 1_555
C12 C7 1_555 1_555
H9 C12 1_555 1_555
C13 C4 1_555 1_555
C14 C13 1_555 1_555
H10 C14 1_555 1_555
C15 C14 1_555 1_555
H11 C15 1_555 1_555
C16 C15 1_555 1_555
H12 C16 1_555 1_555
C17 C16 1_555 1_555
H13 C17 1_555 1_555
C18 C13 1_555 1_555
H14 C18 1_555 1_555
C19 N1 1_555 1_555
C20 C19 1_555 1_555
C21 C20 1_555 1_555
C22 C21 1_555 1_555
H15 C22 1_555 1_555
C23 N2 1_555 1_555
C24 C20 1_555 1_555
H16 C24 1_555 1_555
H17 C24 1_555 1_555
H18 C24 1_555 1_555
C25 C21 1_555 1_555
C26 C25 1_555 1_555
H19 C26 1_555 1_555
C27 C26 1_555 1_555
H20 C27 1_555 1_555
C28 C27 1_555 1_555
H21 C28 1_555 1_555
C29 C28 1_555 1_555
H22 C29 1_555 1_555
C30 C25 1_555 1_555
H23 C30 1_555 1_555
C31 C23 1_555 1_555
C32 C31 1_555 1_555
H24 C32 1_555 1_555
C33 C32 1_555 1_555
H25 C33 1_555 1_555
C34 C33 1_555 1_555
H26 C34 1_555 1_555
C35 C34 1_555 1_555
H27 C35 1_555 1_555
C36 C31 1_555 1_555
H28 C36 1_555 1_555
C3 C4 1_555 1_555
C11 C12 1_555 1_555
C17 C18 1_555 1_555
C22 C23 1_555 1_555
C29 C30 1_555 1_555
C35 C36 1_555 1_555

#END
