
#######################################################################
#
#                 Cambridge Crystallographic Data Centre
#                                CCDC 
#
#######################################################################
#
# If this CIF has been generated from an entry in the Cambridge 
# Structural Database, then it will include bibliographic, chemical, 
# crystal, experimental, refinement or atomic coordinate data resulting 
# from the CCDC's data processing and validation procedures.
#
#######################################################################

data_ANAGUT
_chemical_formula_moiety         'C22 H23 N3 O4'
_chemical_name_systematic        
N'-((7-(diethylamino)-2-oxo-2H-chromen-3-yl)methylene)-4-methoxybenzohydrazide
_symmetry_cell_setting           monoclinic
_symmetry_space_group_name_H-M   'P 21/n'
_symmetry_Int_Tables_number      14
_space_group_name_Hall           '-P 2yn'
loop_
_symmetry_equiv_pos_site_id
_symmetry_equiv_pos_as_xyz
1 x,y,z
2 1/2-x,1/2+y,1/2-z
3 -x,-y,-z
4 1/2+x,1/2-y,1/2+z
_cell_length_a                   10.9129(4)
_cell_length_b                   7.8194(3)
_cell_length_c                   22.4280(8)
_cell_angle_alpha                90
_cell_angle_beta                 97.304(2)
_cell_angle_gamma                90
_cell_volume                     1898.3
_exptl_crystal_colour            orange
_exptl_crystal_description       block
_cell_formula_units_Z            4
loop_
_atom_site_label
_atom_site_type_symbol
_atom_site_fract_x
_atom_site_fract_y
_atom_site_fract_z
O1 O 0.56092(7) -0.00353(9) 0.41270(3)
O2 O 0.51664(6) 0.09475(9) 0.32035(3)
O3 O 0.26704(8) 0.59944(10) 0.56242(3)
O4 O 0.42015(7) 0.39741(10) 0.83640(3)
N1 N 0.38737(8) 0.22326(11) 0.11381(3)
N2 N 0.37048(7) 0.37014(10) 0.48963(3)
N3 N 0.37848(8) 0.35732(11) 0.55132(3)
H1 H 0.4086(13) 0.2585(19) 0.5683(6)
C1 C 0.50583(9) 0.10473(12) 0.38073(4)
C2 C 0.44743(8) 0.19591(11) 0.27831(4)
C3 C 0.46006(8) 0.16547(12) 0.21876(4)
H2 H 0.5195 0.0856 0.2084
C4 C 0.38354(8) 0.25452(11) 0.17325(4)
C5 C 0.29936(9) 0.37767(12) 0.19173(4)
H3 H 0.2474 0.4399 0.1622
C6 C 0.29240(9) 0.40745(13) 0.25142(4)
H4 H 0.2368 0.4920 0.2623
C7 C 0.36525(8) 0.31633(11) 0.29706(4)
C8 C 0.36123(8) 0.33974(12) 0.35939(4)
H5 H 0.3096 0.4261 0.3725
C9 C 0.43028(8) 0.24039(12) 0.40101(4)
C10 C 0.43085(9) 0.25289(12) 0.46585(4)
H6 H 0.4771 0.1722 0.4912
C11 C 0.48386(9) 0.11871(13) 0.09227(4)
H7 H 0.5589 0.1239 0.1221
H8 H 0.5049 0.1680 0.0542
C12 C 0.44734(10) -0.06762(14) 0.08167(5)
H9 H 0.3727 -0.0741 0.0524
H10 H 0.4310 -0.1195 0.1196
H11 H 0.5148 -0.1293 0.0661
C13 C 0.29491(9) 0.29362(14) 0.06708(4)
H12 H 0.2148 0.3027 0.0832
H13 H 0.2839 0.2136 0.0326
C14 C 0.33002(11) 0.46866(16) 0.04498(5)
H14 H 0.2665 0.5075 0.0130
H15 H 0.4097 0.4610 0.0293
H16 H 0.3365 0.5503 0.0784
C15 C 0.32644(8) 0.47726(12) 0.58446(4)
C16 C 0.34984(8) 0.44903(11) 0.65081(4)
C17 C 0.44467(8) 0.34422(12) 0.67863(4)
H17 H 0.4953 0.2826 0.6547
C18 C 0.46523(9) 0.32962(12) 0.74046(4)
H18 H 0.5299 0.2585 0.7588
C19 C 0.39102(8) 0.41926(12) 0.77611(4)
C20 C 0.29551(9) 0.52312(12) 0.74938(4)
H19 H 0.2440 0.5829 0.7734
C21 C 0.27677(8) 0.53791(12) 0.68701(4)
H20 H 0.2128 0.6102 0.6687
C22 C 0.33949(10) 0.47243(15) 0.87453(4)
H21 H 0.2549 0.4325 0.8624
H22 H 0.3423 0.5973 0.8711
H23 H 0.3659 0.4389 0.9163
loop_
_geom_bond_atom_site_label_1
_geom_bond_atom_site_label_2
_geom_bond_site_symmetry_1
_geom_bond_site_symmetry_2
O1 C1 1_555 1_555
O2 C1 1_555 1_555
O3 C15 1_555 1_555
O4 C19 1_555 1_555
N1 C4 1_555 1_555
N2 N3 1_555 1_555
N3 H1 1_555 1_555
C1 C9 1_555 1_555
C2 O2 1_555 1_555
C3 C2 1_555 1_555
H2 C3 1_555 1_555
C4 C3 1_555 1_555
C5 C4 1_555 1_555
H3 C5 1_555 1_555
C6 C5 1_555 1_555
H4 C6 1_555 1_555
C7 C2 1_555 1_555
C8 C7 1_555 1_555
H5 C8 1_555 1_555
C9 C8 1_555 1_555
C10 N2 1_555 1_555
H6 C10 1_555 1_555
C11 N1 1_555 1_555
H7 C11 1_555 1_555
H8 C11 1_555 1_555
C12 C11 1_555 1_555
H9 C12 1_555 1_555
H10 C12 1_555 1_555
H11 C12 1_555 1_555
C13 N1 1_555 1_555
H12 C13 1_555 1_555
H13 C13 1_555 1_555
C14 C13 1_555 1_555
H14 C14 1_555 1_555
H15 C14 1_555 1_555
H16 C14 1_555 1_555
C15 N3 1_555 1_555
C16 C15 1_555 1_555
C17 C16 1_555 1_555
H17 C17 1_555 1_555
C18 C17 1_555 1_555
H18 C18 1_555 1_555
C19 C18 1_555 1_555
C20 C19 1_555 1_555
H19 C20 1_555 1_555
C21 C16 1_555 1_555
H20 C21 1_555 1_555
C22 O4 1_555 1_555
H21 C22 1_555 1_555
H22 C22 1_555 1_555
H23 C22 1_555 1_555
C6 C7 1_555 1_555
C9 C10 1_555 1_555
C20 C21 1_555 1_555

#END
