
#######################################################################
#
#                 Cambridge Crystallographic Data Centre
#                                CCDC 
#
#######################################################################
#
# If this CIF has been generated from an entry in the Cambridge 
# Structural Database, then it will include bibliographic, chemical, 
# crystal, experimental, refinement or atomic coordinate data resulting 
# from the CCDC's data processing and validation procedures.
#
#######################################################################

data_ANARAJ
_chemical_formula_moiety         'C12 H18 N2 O2 S1'
_chemical_name_systematic        
'2-Ethyl-3-methyl-5-phenyl-1,2,6-thiadiazinane 1,1-dioxide'
_symmetry_cell_setting           triclinic
_symmetry_space_group_name_H-M   'P -1'
_symmetry_Int_Tables_number      2
_space_group_name_Hall           '-P 1'
loop_
_symmetry_equiv_pos_site_id
_symmetry_equiv_pos_as_xyz
1 x,y,z
2 -x,-y,-z
_cell_length_a                   6.2798(2)
_cell_length_b                   9.8042(3)
_cell_length_c                   10.8887(3)
_cell_angle_alpha                73.662(2)
_cell_angle_beta                 78.698(2)
_cell_angle_gamma                87.286(2)
_cell_volume                     630.831
_exptl_crystal_colour            colorless
_exptl_crystal_description       plate-like
_cell_formula_units_Z            2
loop_
_atom_site_label
_atom_site_type_symbol
_atom_site_fract_x
_atom_site_fract_y
_atom_site_fract_z
C1 C 0.7965(4) 0.8862(3) 0.6347(2)
S1 S 0.44661(8) 0.69268(6) 0.56528(5)
C2 C 0.7205(4) 0.8510(3) 0.3630(2)
C3 C 0.8437(4) 0.7593(2) 0.5782(2)
C4 C 0.8509(4) 0.6182(3) 0.6839(2)
C5 C 0.6285(4) 0.5644(2) 0.7643(2)
C6 C 0.6361(4) 0.4243(2) 0.8678(2)
C7 C 0.4718(4) 0.3221(3) 0.8988(2)
C8 C 0.4804(5) 0.1941(3) 0.9934(2)
C9 C 0.6510(5) 0.1656(3) 1.0600(2)
C10 C 0.8133(4) 0.2674(3) 1.0317(2)
C11 C 0.8052(4) 0.3945(3) 0.9369(2)
C12 C 0.9224(4) 0.8216(3) 0.2734(2)
N1 N 0.4830(3) 0.5483(2) 0.67660(18)
N2 N 0.6932(3) 0.7438(2) 0.49195(18)
O1 O 0.3439(2) 0.65371(16) 0.47307(15)
O2 O 0.3338(2) 0.79117(16) 0.62963(15)
H1 H 0.952(4) 0.628(3) 0.740(2)
H2 H 0.913(4) 0.735(3) 0.265(3)
H3 H 0.567(4) 0.630(3) 0.807(2)
H4 H 0.931(5) 0.250(3) 1.077(3)
H5 H 0.910(4) 0.548(3) 0.645(2)
H6 H 0.534(4) 0.482(3) 0.636(3)
H7 H 0.712(4) 0.941(3) 0.374(3)
H8 H 0.350(4) 0.349(3) 0.850(3)
H9 H 0.924(5) 0.464(3) 0.916(3)
H10 H 1.055(5) 0.827(3) 0.309(3)
H11 H 0.933(5) 0.890(3) 0.182(3)
H12 H 0.365(5) 0.123(4) 1.015(3)
H13 H 0.651(5) 0.080(4) 1.125(3)
H14 H 0.996(4) 0.771(3) 0.517(2)
H15 H 0.917(4) 0.896(3) 0.676(2)
H16 H 0.658(5) 0.875(3) 0.700(3)
H17 H 0.773(5) 0.971(3) 0.573(3)
H18 H 0.596(4) 0.849(3) 0.326(2)
loop_
_geom_bond_atom_site_label_1
_geom_bond_atom_site_label_2
_geom_bond_site_symmetry_1
_geom_bond_site_symmetry_2
C1 C3 1_555 1_555
S1 N1 1_555 1_555
C2 C12 1_555 1_555
C3 C4 1_555 1_555
C4 C5 1_555 1_555
C5 C6 1_555 1_555
C6 C7 1_555 1_555
C7 C8 1_555 1_555
C8 C9 1_555 1_555
C9 C10 1_555 1_555
C10 C11 1_555 1_555
C11 C6 1_555 1_555
C12 H2 1_555 1_555
N1 C5 1_555 1_555
N2 S1 1_555 1_555
O1 S1 1_555 1_555
O2 S1 1_555 1_555
H1 C4 1_555 1_555
H3 C5 1_555 1_555
H4 C10 1_555 1_555
H5 C4 1_555 1_555
H6 N1 1_555 1_555
H7 C2 1_555 1_555
H8 C7 1_555 1_555
H9 C11 1_555 1_555
H10 C12 1_555 1_555
H11 C12 1_555 1_555
H12 C8 1_555 1_555
H13 C9 1_555 1_555
H14 C3 1_555 1_555
H15 C1 1_555 1_555
H16 C1 1_555 1_555
H17 C1 1_555 1_555
H18 C2 1_555 1_555
C2 N2 1_555 1_555
C3 N2 1_555 1_555

#END
