
#######################################################################
#
#                 Cambridge Crystallographic Data Centre
#                                CCDC 
#
#######################################################################
#
# If this CIF has been generated from an entry in the Cambridge 
# Structural Database, then it will include bibliographic, chemical, 
# crystal, experimental, refinement or atomic coordinate data resulting 
# from the CCDC's data processing and validation procedures.
#
#######################################################################

data_ANDRON11
_chemical_formula_moiety         'C19 H30 O2'
_chemical_name_systematic        Epiandrosterone
_symmetry_cell_setting           monoclinic
_symmetry_space_group_name_H-M   'P 21'
_symmetry_Int_Tables_number      4
_space_group_name_Hall           'P 2yb'
loop_
_symmetry_equiv_pos_site_id
_symmetry_equiv_pos_as_xyz
1 x,y,z
2 -x,1/2+y,-z
_cell_length_a                   6.3058(10)
_cell_length_b                   21.497(4)
_cell_length_c                   6.5945(10)
_cell_angle_alpha                90
_cell_angle_beta                 109.305(5)
_cell_angle_gamma                90
_cell_volume                     843.659
_exptl_crystal_colour            colorless
_exptl_crystal_description       plate
_cell_formula_units_Z            2
loop_
_atom_site_label
_atom_site_type_symbol
_atom_site_fract_x
_atom_site_fract_y
_atom_site_fract_z
C1 C 0.6724(7) 0.37065(17) 0.5453(6)
C2 C 0.5335(6) 0.45465(17) 0.2578(6)
C3 C 0.5846(6) 0.38551(17) 0.3023(6)
C4 C 0.7273(6) 0.30110(18) 0.5726(6)
O1 O 0.6377(6) 0.63846(13) 0.0447(5)
C5 C 0.7310(9) 0.56139(18) 0.3245(7)
C6 C 0.8344(8) 0.47909(18) 0.6133(6)
C7 C 0.7514(6) 0.49158(16) 0.3737(6)
C8 C 0.3932(8) 0.3428(2) 0.1728(7)
C9 C 0.6639(8) 0.57280(18) 0.0839(7)
C10 C 0.5280(6) 0.25863(18) 0.4574(6)
C11 C 0.4517(10) 0.2723(2) 0.2188(7)
C12 C 0.4724(8) 0.46900(18) 0.0146(6)
C13 C 0.8742(7) 0.4102(2) 0.6601(7)
C14 C 0.6332(6) 0.1965(2) 0.5284(7)
C15 C 0.4532(8) 0.53856(19) -0.0369(8)
O2 O 0.5974(5) 0.14916(14) 0.4206(5)
C16 C 0.8239(9) 0.2726(2) 0.7960(7)
C17 C 0.7992(9) 0.2016(2) 0.7520(7)
C18 C 0.3364(7) 0.4755(2) 0.3328(9)
C19 C 0.3339(8) 0.2627(2) 0.5539(9)
H1 H 0.718(5) 0.3780(14) 0.257(5)
H2 H 0.274(6) 0.3547(17) 0.205(6)
H3 H 0.872(5) 0.4762(14) 0.313(5)
H4 H 0.550(6) 0.3814(17) 0.611(5)
H5 H 0.859(5) 0.2917(13) 0.508(4)
H6 H 0.771(5) 0.5601(14) 0.026(5)
H7 H 0.617(6) 0.449(2) -0.025(6)
H8 H 0.332(10) 0.243(3) 0.131(9)
H9 H 0.630(6) 0.5752(17) 0.397(6)
H10 H 1.013(8) 0.403(2) 0.599(7)
H11 H 0.721(7) 0.499(2) 0.684(6)
H12 H 0.977(6) 0.4999(15) 0.677(5)
H13 H 0.209(7) 0.462(2) 0.253(7)
H14 H 0.922(5) 0.4055(17) 0.820(6)
H15 H 0.342(7) 0.5579(19) 0.007(6)
H16 H 0.875(6) 0.5855(17) 0.386(5)
H17 H 0.238(9) 0.241(3) 0.461(9)
H18 H 0.356(6) 0.453(2) 0.484(6)
H19 H 0.952(8) 0.176(2) 0.740(8)
H20 H 0.421(7) 0.5441(19) -0.201(7)
H21 H 0.225(8) 0.309(3) 0.518(7)
H22 H 0.982(7) 0.2867(17) 0.866(6)
H23 H 0.759(8) 0.291(2) 0.900(8)
H24 H 0.396(9) 0.240(2) 0.735(9)
H25 H 0.315(6) 0.436(2) -0.086(6)
H26 H 0.565(9) 0.259(3) 0.149(8)
H27 H 0.318(12) 0.532(4) 0.268(12)
H28 H 0.733(7) 0.179(2) 0.837(7)
H29 H 0.809(19) 0.648(7) -0.02(2)
loop_
_geom_bond_atom_site_label_1
_geom_bond_atom_site_label_2
_geom_bond_site_symmetry_1
_geom_bond_site_symmetry_2
C1 C3 1_555 1_555
C2 C3 1_555 1_555
C3 C8 1_555 1_555
C4 C1 1_555 1_555
O1 C9 1_555 1_555
C5 C7 1_555 1_555
C6 C7 1_555 1_555
C7 C2 1_555 1_555
C8 C11 1_555 1_555
C9 C5 1_555 1_555
C10 C4 1_555 1_555
C11 C10 1_555 1_555
C12 C2 1_555 1_555
C13 C1 1_555 1_555
C14 C10 1_555 1_555
C15 C9 1_555 1_555
O2 C14 1_555 1_555
C16 C4 1_555 1_555
C17 C14 1_555 1_555
C18 C2 1_555 1_555
C19 C10 1_555 1_555
H1 C3 1_555 1_555
H2 C8 1_555 1_555
H3 C7 1_555 1_555
H4 C1 1_555 1_555
H5 C4 1_555 1_555
H6 C9 1_555 1_555
H7 C12 1_555 1_555
H8 C11 1_555 1_555
H9 C5 1_555 1_555
H10 C13 1_555 1_555
H11 C6 1_555 1_555
H12 C6 1_555 1_555
H13 C18 1_555 1_555
H14 C13 1_555 1_555
H15 C15 1_555 1_555
H16 C5 1_555 1_555
H17 C19 1_555 1_555
H18 C18 1_555 1_555
H19 C17 1_555 1_555
H20 C15 1_555 1_555
H21 C19 1_555 1_555
H22 C16 1_555 1_555
H23 C16 1_555 1_555
H24 C19 1_555 1_555
H25 C12 1_555 1_555
H26 C11 1_555 1_555
H27 C18 1_555 1_555
H28 C17 1_555 1_555
H29 O1 1_555 1_555
C6 C13 1_555 1_555
C12 C15 1_555 1_555
C16 C17 1_555 1_555

#END
