
#######################################################################
#
#                 Cambridge Crystallographic Data Centre
#                                CCDC 
#
#######################################################################
#
# If this CIF has been generated from an entry in the Cambridge 
# Structural Database, then it will include bibliographic, chemical, 
# crystal, experimental, refinement or atomic coordinate data resulting 
# from the CCDC's data processing and validation procedures.
#
#######################################################################

data_ANDROL
_chemical_formula_moiety         'C19 H32 O2'
_chemical_name_systematic        5\b-Androstane-3\a,17\b-diol
_symmetry_cell_setting           monoclinic
_symmetry_space_group_name_H-M   'P 21'
_symmetry_Int_Tables_number      4
_space_group_name_Hall           'P 2yb'
loop_
_symmetry_equiv_pos_site_id
_symmetry_equiv_pos_as_xyz
1 x,y,z
2 -x,1/2+y,-z
_cell_length_a                   11.875(2)
_cell_length_b                   7.157(1)
_cell_length_c                   10.960(2)
_cell_angle_alpha                90
_cell_angle_beta                 114.70(2)
_cell_angle_gamma                90
_cell_volume                     846.26
_cell_formula_units_Z            2
loop_
_atom_site_label
_atom_site_type_symbol
_atom_site_fract_x
_atom_site_fract_y
_atom_site_fract_z
C1 C 0.16083 -0.58300 0.21184
C2 C 0.22430 -0.44570 0.14971
C3 C 0.44192 -0.58840 0.28979
C4 C 0.58078 -0.54730 0.37636
C5 C 0.63444 -0.41370 0.30693
C6 C 0.55481 -0.23340 0.27470
C7 C 0.63021 -0.08910 0.23517
C8 C 0.76655 -0.14880 0.31873
C9 C 0.76139 -0.32980 0.39400
C10 C 0.63762 -0.50360 0.17912
C11 C 0.21023 -0.53550 0.01497
C12 C 0.14761 -0.50660 0.33525
C13 C 0.07558 -0.32250 0.30099
C14 C 0.13708 -0.18080 0.24623
C15 C 0.15058 -0.26020 0.11989
C16 C 0.20648 -0.11030 0.06192
C17 C 0.34672 -0.08130 0.13958
C18 C 0.41937 -0.26450 0.18044
C19 C 0.36284 -0.40900 0.24360
H1 H 0.20360 -0.69000 0.23420
H2 H 0.19540 -0.16290 -0.01540
H3 H 0.38220 0.00690 0.10140
H4 H 0.36410 -0.02920 0.23910
H5 H 0.42080 -0.31130 0.10310
H6 H 0.36620 -0.35770 0.33210
H7 H 0.41310 -0.66270 0.34650
H8 H 0.43520 -0.63990 0.21200
H9 H 0.59850 -0.50020 0.45520
H10 H 0.61670 -0.66570 0.38430
H11 H 0.54340 -0.18020 0.36230
H12 H 0.07850 -0.60040 0.14580
H13 H 0.61700 0.02760 0.25220
H14 H 0.60710 -0.08730 0.14160
H15 H 0.79770 -0.16270 0.25850
H16 H 0.80910 -0.04540 0.37790
H17 H 0.75410 -0.30930 0.47410
H18 H 0.63700 -0.41560 0.12560
H19 H 0.68580 -0.61020 0.20480
H20 H 0.56010 -0.54790 0.12580
H21 H 0.24450 -0.46460 -0.01960
H22 H 0.24780 -0.65030 0.03920
H23 H 0.23270 -0.48510 0.41160
H24 H 0.12890 -0.53740 -0.04070
H25 H 0.02320 -0.31800 0.44390
H26 H 0.88180 -0.52190 0.47770
H27 H 0.09230 -0.59660 0.37050
H28 H -0.00820 -0.35120 0.22900
H29 H 0.21510 -0.15550 0.30980
H30 H 0.09190 -0.06720 0.21820
H31 H 0.06650 -0.28370 0.04620
H32 H 0.16200 0.01690 0.05010
O1 O 0.86724 -0.43990 0.41541
O2 O 0.06977 -0.24870 0.41806
loop_
_geom_bond_atom_site_label_1
_geom_bond_atom_site_label_2
_geom_bond_site_symmetry_1
_geom_bond_site_symmetry_2
C1 C2 1_555 1_555
C2 C11 1_555 1_555
C3 C4 1_555 1_555
C4 C5 1_555 1_555
C5 C6 1_555 1_555
C6 C7 1_555 1_555
C7 C8 1_555 1_555
C8 C9 1_555 1_555
C9 C5 1_555 1_555
C10 C5 1_555 1_555
C11 H21 1_555 1_555
C12 C1 1_555 1_555
C13 C12 1_555 1_555
C14 C13 1_555 1_555
C15 C2 1_555 1_555
C16 C15 1_555 1_555
C17 C16 1_555 1_555
C18 C6 1_555 1_555
C19 C2 1_555 1_555
H1 C1 1_555 1_555
H2 C16 1_555 1_555
H3 C17 1_555 1_555
H4 C17 1_555 1_555
H5 C18 1_555 1_555
H6 C19 1_555 1_555
H7 C3 1_555 1_555
H8 C3 1_555 1_555
H9 C4 1_555 1_555
H10 C4 1_555 1_555
H11 C6 1_555 1_555
H12 C1 1_555 1_555
H13 C7 1_555 1_555
H14 C7 1_555 1_555
H15 C8 1_555 1_555
H16 C8 1_555 1_555
H17 C9 1_555 1_555
H18 C10 1_555 1_555
H19 C10 1_555 1_555
H20 C10 1_555 1_555
H22 C11 1_555 1_555
H23 C12 1_555 1_555
H24 C11 1_555 1_555
H25 O2 1_555 1_555
H26 O1 1_555 1_555
H27 C12 1_555 1_555
H28 C13 1_555 1_555
H29 C14 1_555 1_555
H30 C14 1_555 1_555
H31 C15 1_555 1_555
H32 C16 1_555 1_555
O1 C9 1_555 1_555
O2 C13 1_555 1_555
C3 C19 1_555 1_555
C14 C15 1_555 1_555
C17 C18 1_555 1_555
C18 C19 1_555 1_555

#END
