
#######################################################################
#
#                 Cambridge Crystallographic Data Centre
#                                CCDC 
#
#######################################################################
#
# If this CIF has been generated from an entry in the Cambridge 
# Structural Database, then it will include bibliographic, chemical, 
# crystal, experimental, refinement or atomic coordinate data resulting 
# from the CCDC's data processing and validation procedures.
#
#######################################################################

data_ANETOE
_chemical_name_common            
'5,16-dimesityl-10,11-bisdehydro-21,22-hydroporphyrin(2.1.2.1) chloroform solvate'
_chemical_formula_moiety         'C40 H36 N4,2(C1 H1 Cl3)'
_chemical_name_systematic        
'2,13-dimesityl-23,24,25,26-tetraazapentacyclo[18.2.1.1^3,6^.1^9,12^.1^14,17^]hexacosa-1,3,5,9(25),10,12,14,16,20(23),21-decaen-7-yne chloroform solvate'
_symmetry_cell_setting           monoclinic
_symmetry_space_group_name_H-M   'P 21/n'
_symmetry_Int_Tables_number      14
_space_group_name_Hall           '-P 2yn'
loop_
_symmetry_equiv_pos_site_id
_symmetry_equiv_pos_as_xyz
1 x,y,z
2 1/2-x,1/2+y,1/2-z
3 -x,-y,-z
4 1/2+x,1/2-y,1/2+z
_cell_length_a                   13.209(3)
_cell_length_b                   9.508(3)
_cell_length_c                   15.515(4)
_cell_angle_alpha                90
_cell_angle_beta                 91.891(7)
_cell_angle_gamma                90
_cell_volume                     1947.49
_exptl_crystal_colour            brown
_exptl_crystal_description       Prism
_cell_formula_units_Z            2
loop_
_atom_site_label
_atom_site_type_symbol
_atom_site_fract_x
_atom_site_fract_y
_atom_site_fract_z
C1 C 0.7965(6) -0.1616(9) 0.5312(5)
C2 C 0.7404(11) -0.0461(17) 0.4984(9)
C3 C 0.6409(15) -0.011(2) 0.4894(10)
H1 H 0.5841 -0.0645 0.5063
C4 C 0.6409(2) 0.1217(3) 0.44953(18)
H2 H 0.5817 0.1713 0.4310
C5 C 0.74026(19) 0.1709(3) 0.44082(16)
C6 C 0.77762(18) 0.3034(3) 0.41359(15)
C7 C 0.87964(19) 0.3337(3) 0.40840(15)
C8 C 0.92720(19) 0.4637(3) 0.38263(16)
H3 H 0.8927 0.5437 0.3596
C9 C 1.0254(17) 0.453(2) 0.3961(11)
H4 H 1.0751 0.5240 0.3878
C10 C 1.0414(11) 0.3134(14) 0.4260(8)
C11 C 1.1359(4) 0.2405(7) 0.4493(5)
C12 C 0.70138(17) 0.4154(3) 0.39008(16)
C13 C 0.65638(18) 0.4929(3) 0.45522(16)
C14 C 0.58778(19) 0.6000(3) 0.43201(17)
H5 H 0.5570 0.6527 0.4761
C15 C 0.56351(18) 0.6312(3) 0.34632(17)
C16 C 0.60851(18) 0.5514(3) 0.28258(16)
H6 H 0.5922 0.5712 0.2237
C17 C 0.67674(19) 0.4432(3) 0.30272(16)
C18 C 0.6832(2) 0.4683(3) 0.54955(17)
H7 H 0.6773 0.3678 0.5626
H8 H 0.6367 0.5217 0.5851
H9 H 0.7529 0.4994 0.5621
C19 C 0.4921(2) 0.7498(3) 0.32225(19)
H10 H 0.4583 0.7825 0.3738
H11 H 0.4413 0.7163 0.2796
H12 H 0.5304 0.8275 0.2977
C20 C 0.7226(2) 0.3596(3) 0.23144(18)
H13 H 0.6802 0.3687 0.1787
H14 H 0.7267 0.2603 0.2483
H15 H 0.7907 0.3952 0.2209
N1 N 0.7963(14) 0.067(3) 0.4729(12)
H16 H 0.8629 0.0704 0.4774
N2 N 0.956(2) 0.247(2) 0.4358(13)
C1B C 1.2035(6) 0.1616(9) 0.4688(5)
C2B C 1.2596(11) 0.0461(17) 0.5016(9)
C3B C 1.3591(15) 0.011(2) 0.5106(10)
H1B H 1.4159 0.0645 0.4937
C4B C 1.3591(2) -0.1217(3) 0.55047(18)
H2B H 1.4183 -0.1713 0.5690
C5B C 1.25974(19) -0.1709(3) 0.55918(16)
C6B C 1.22238(18) -0.3034(3) 0.58641(15)
C7B C 1.12036(19) -0.3337(3) 0.59160(15)
C8B C 1.07280(19) -0.4637(3) 0.61737(16)
H3B H 1.1073 -0.5437 0.6404
C9B C 0.9746(17) -0.453(2) 0.6039(11)
H4B H 0.9249 -0.5240 0.6122
C10B C 0.9586(11) -0.3134(14) 0.5740(8)
C11B C 0.8641(4) -0.2405(7) 0.5507(5)
C12B C 1.29862(17) -0.4154(3) 0.60992(16)
C13B C 1.34362(18) -0.4929(3) 0.54478(16)
C14B C 1.41222(19) -0.6000(3) 0.56799(17)
H5B H 1.4430 -0.6527 0.5239
C15B C 1.43649(18) -0.6312(3) 0.65368(17)
C16B C 1.39149(18) -0.5514(3) 0.71742(16)
H6B H 1.4078 -0.5712 0.7763
C17B C 1.32326(19) -0.4432(3) 0.69728(16)
C18B C 1.3168(2) -0.4683(3) 0.45045(17)
H7B H 1.3227 -0.3678 0.4374
H8B H 1.3633 -0.5217 0.4149
H9B H 1.2471 -0.4994 0.4379
C19B C 1.5079(2) -0.7498(3) 0.67775(19)
H10B H 1.5417 -0.7825 0.6262
H11B H 1.5587 -0.7163 0.7204
H12B H 1.4696 -0.8275 0.7023
C20B C 1.2774(2) -0.3596(3) 0.76856(18)
H13B H 1.3198 -0.3687 0.8213
H14B H 1.2733 -0.2603 0.7517
H15B H 1.2093 -0.3952 0.7791
N1B N 1.2037(14) -0.067(3) 0.5271(12)
H16B H 1.1371 -0.0704 0.5226
N2B N 1.044(2) -0.247(2) 0.5642(13)
C27 C 0.8950(2) 0.1544(3) 0.73773(19)
H26 H 0.9327 0.0747 0.7660
Cl1 Cl 0.94784(6) 0.18647(9) 0.63684(5)
Cl2 Cl 0.90688(8) 0.30315(9) 0.80523(5)
Cl3 Cl 0.76775(6) 0.10529(13) 0.72416(6)
H17? H 0.5795 0.1731 0.4424
H18? H 0.8958 0.5521 0.3715
N3? N 0.954(2) 0.222(2) 0.4203(13)
N4? N 0.8108(14) 0.058(3) 0.4586(12)
H19? H 0.8771 0.0632 0.4553
C21? C 0.8115(7) -0.1921(9) 0.5032(5)
H20? H 0.7614 -0.2696 0.5001
H21? H 0.8621 -0.2105 0.4590
C22? C 0.7573(10) -0.0555(18) 0.4810(8)
C23? C 0.6530(14) -0.022(2) 0.4712(10)
H22? H 0.5991 -0.0862 0.4783
C24? C 1.0318(15) 0.4289(19) 0.3778(11)
H23? H 1.0844 0.4896 0.3603
C25? C 1.0429(11) 0.2822(12) 0.4048(7)
C26? C 1.1353(4) 0.1956(7) 0.4088(5)
H24? H 1.1830 0.2321 0.3663
H25? H 1.1173 0.0982 0.3917
loop_
_geom_bond_atom_site_label_1
_geom_bond_atom_site_label_2
_geom_bond_site_symmetry_1
_geom_bond_site_symmetry_2
C1 C2 1_555 1_555
C2 C3 1_555 1_555
C3 H1 1_555 1_555
C4 C3 1_555 1_555
H2 C4 1_555 1_555
C5 C4 1_555 1_555
C6 C5 1_555 1_555
C7 C6 1_555 1_555
C8 C7 1_555 1_555
H3 C8 1_555 1_555
C9 C8 1_555 1_555
H4 C9 1_555 1_555
C10 C9 1_555 1_555
C11 C10 1_555 1_555
C12 C6 1_555 1_555
C13 C12 1_555 1_555
C14 C13 1_555 1_555
H5 C14 1_555 1_555
C15 C14 1_555 1_555
C16 C15 1_555 1_555
H6 C16 1_555 1_555
C17 C12 1_555 1_555
C18 C13 1_555 1_555
H7 C18 1_555 1_555
H8 C18 1_555 1_555
H9 C18 1_555 1_555
C19 C15 1_555 1_555
H10 C19 1_555 1_555
H11 C19 1_555 1_555
H12 C19 1_555 1_555
C20 C17 1_555 1_555
H13 C20 1_555 1_555
H14 C20 1_555 1_555
H15 C20 1_555 1_555
N1 C2 1_555 1_555
H16 N1 1_555 1_555
N2 C7 1_555 1_555
C27 H26 1_555 1_555
Cl1 C27 1_555 1_555
Cl2 C27 1_555 1_555
Cl3 C27 1_555 1_555
C1B C11 1_555 1_555
C2B C1B 1_555 1_555
C3B C2B 1_555 1_555
H1B C3B 1_555 1_555
C4B C3B 1_555 1_555
H2B C4B 1_555 1_555
C5B C4B 1_555 1_555
C6B C5B 1_555 1_555
C7B C6B 1_555 1_555
C8B C7B 1_555 1_555
H3B C8B 1_555 1_555
C9B C8B 1_555 1_555
H4B C9B 1_555 1_555
C10B C9B 1_555 1_555
C11B C1 1_555 1_555
C12B C6B 1_555 1_555
C13B C12B 1_555 1_555
C14B C13B 1_555 1_555
H5B C14B 1_555 1_555
C15B C14B 1_555 1_555
C16B C15B 1_555 1_555
H6B C16B 1_555 1_555
C17B C12B 1_555 1_555
C18B C13B 1_555 1_555
H7B C18B 1_555 1_555
H8B C18B 1_555 1_555
H9B C18B 1_555 1_555
C19B C15B 1_555 1_555
H10B C19B 1_555 1_555
H11B C19B 1_555 1_555
H12B C19B 1_555 1_555
C20B C17B 1_555 1_555
H13B C20B 1_555 1_555
H14B C20B 1_555 1_555
H15B C20B 1_555 1_555
N1B C2B 1_555 1_555
H16B N1B 1_555 1_555
N2B C7B 1_555 1_555
C5 N1 1_555 1_555
C10 N2 1_555 1_555
C16 C17 1_555 1_555
C5B N1B 1_555 1_555
C10B C11B 1_555 1_555
C10B N2B 1_555 1_555
C16B C17B 1_555 1_555

#END
