
#######################################################################
#
#                 Cambridge Crystallographic Data Centre
#                                CCDC 
#
#######################################################################
#
# If this CIF has been generated from an entry in the Cambridge 
# Structural Database, then it will include bibliographic, chemical, 
# crystal, experimental, refinement or atomic coordinate data resulting 
# from the CCDC's data processing and validation procedures.
#
#######################################################################

data_ANEVAS
_chemical_formula_moiety         'C31 H26 N2 O6'
_chemical_name_systematic        
"methyl 5-(3-(benzyloxy)prop-1-yn-1-yl)-1'-methyl-5-nitro-2'-oxo-4-phenyl-1',2'-dihydrospiro[cyclopent-2-ene-1,3'-indole]-2-carboxylate"
_symmetry_cell_setting           orthorhombic
_symmetry_space_group_name_H-M   'P 21 21 21'
_symmetry_Int_Tables_number      19
_space_group_name_Hall           'P 2ac 2ab'
loop_
_symmetry_equiv_pos_site_id
_symmetry_equiv_pos_as_xyz
1 x,y,z
2 1/2-x,-y,1/2+z
3 1/2+x,1/2-y,-z
4 -x,1/2+y,1/2-z
_cell_length_a                   9.02156(13)
_cell_length_b                   9.44417(11)
_cell_length_c                   30.9480(4)
_cell_angle_alpha                90
_cell_angle_beta                 90
_cell_angle_gamma                90
_cell_volume                     2636.81
_exptl_crystal_colour            colorless
_exptl_crystal_description       block
_cell_formula_units_Z            4
loop_
_atom_site_label
_atom_site_type_symbol
_atom_site_fract_x
_atom_site_fract_y
_atom_site_fract_z
O1 O -0.8959(3) -0.5943(3) -0.10109(8)
O2 O -0.7881(3) -0.8239(2) -0.23154(7)
C1 C -0.8050(3) -0.7035(3) -0.20984(9)
N1 N -0.8611(3) -0.3749(3) -0.13158(8)
C2 C -0.7022(3) -0.6906(3) -0.17265(8)
O3 O -0.3668(3) -0.6005(3) -0.17018(8)
O4 O -0.8947(3) -0.6144(3) -0.21843(9)
C3 C -0.7702(3) -0.3176(3) -0.16386(9)
C4 C -0.6855(3) -0.5501(3) -0.15039(8)
C5 C -0.6668(3) -0.4180(3) -0.17758(8)
O5 O -0.6168(3) -0.3670(3) 0.02759(7)
C6 C -0.6005(3) -0.8103(3) -0.07110(9)
C7 C -0.6308(3) -0.7953(3) -0.15257(8)
H1 H -0.6332 -0.8889 -0.1619
N2 N -0.4086(3) -0.5333(3) -0.13924(8)
C8 C -0.7802(4) -0.1852(3) -0.18308(11)
H2 H -0.8468 -0.1175 -0.1731
C9 C -0.5558(3) -0.5806(3) -0.11726(8)
C10 C -0.8281(3) -0.5139(3) -0.12434(8)
C11 C -0.5950(4) -0.4201(3) -0.04859(10)
C12 C -0.5708(4) -0.4989(3) -0.07764(9)
C13 C -0.5754(4) -0.3887(3) -0.21241(9)
H3 H -0.5081 -0.4558 -0.2223
C14 C -0.5863(4) -0.2562(4) -0.23238(10)
H4 H -0.5252 -0.2347 -0.2557
C15 C -0.5092(4) -0.8014(4) -0.03502(10)
H5 H -0.4190 -0.7541 -0.0369
C16 C -0.6866(4) -0.1575(3) -0.21782(11)
H6 H -0.6921 -0.0701 -0.2315
C17 C -0.5464(3) -0.7472(3) -0.11359(8)
H7 H -0.4426 -0.7748 -0.1174
O6 O -0.3465(4) -0.4291(4) -0.12527(13)
C18 C -0.6835(5) -0.9347(4) 0.00697(12)
H8 H -0.7107 -0.9772 0.0329
C19 C -0.7342(4) -0.8815(4) -0.06759(11)
H9 H -0.7964 -0.8878 -0.0915
C20 C -0.7243(4) -0.5001(4) 0.08415(12)
C21 C -0.6410(5) -0.6053(5) 0.10180(14)
H10 H -0.5834 -0.6603 0.0834
C22 C -0.7763(5) -0.9436(4) -0.02881(13)
H11 H -0.8663 -0.9911 -0.0268
C23 C -0.8865(5) -0.8442(5) -0.26795(13)
H12 H -0.8683 -0.7721 -0.2891
H13 H -0.9875 -0.8384 -0.2583
H14 H -0.8690 -0.9356 -0.2805
C24 C -0.9823(4) -0.3014(4) -0.11056(13)
H15 H -0.9445 -0.2209 -0.0952
H16 H -1.0305 -0.3644 -0.0906
H17 H -1.0523 -0.2704 -0.1319
C25 C -0.8086(6) -0.4194(5) 0.11126(16)
H18 H -0.8660 -0.3470 0.0996
C26 C -0.6281(7) -0.3156(4) -0.01484(11)
H19 H -0.5607 -0.2362 -0.0181
H20 H -0.7279 -0.2803 -0.0193
C27 C -0.5522(5) -0.8631(4) 0.00384(10)
H21 H -0.4911 -0.8556 0.0279
C28 C -0.7203(5) -0.4712(5) 0.03609(13)
H22 H -0.7785 -0.5164 0.0155
C29 C -0.8115(7) -0.4407(7) 0.1539(2)
H23 H -0.8704 -0.3840 0.1714
C30 C -0.6371(6) -0.6349(7) 0.14504(17)
H24 H -0.5790 -0.7082 0.1558
C31 C -0.7233(8) -0.5516(9) 0.17253(16)
H25 H -0.7235 -0.5674 0.2022
loop_
_geom_bond_atom_site_label_1
_geom_bond_atom_site_label_2
_geom_bond_site_symmetry_1
_geom_bond_site_symmetry_2
O1 C10 1_555 1_555
O2 C1 1_555 1_555
C1 C2 1_555 1_555
N1 C3 1_555 1_555
C2 C4 1_555 1_555
O3 N2 1_555 1_555
O4 C1 1_555 1_555
C3 C5 1_555 1_555
C4 C5 1_555 1_555
C5 C13 1_555 1_555
O5 C26 1_555 1_555
C6 C15 1_555 1_555
C7 C2 1_555 1_555
H1 C7 1_555 1_555
N2 C9 1_555 1_555
C8 C3 1_555 1_555
H2 C8 1_555 1_555
C9 C4 1_555 1_555
C10 N1 1_555 1_555
C11 C12 1_555 1_555
C12 C9 1_555 1_555
C13 H3 1_555 1_555
C14 C13 1_555 1_555
H4 C14 1_555 1_555
C15 H5 1_555 1_555
C16 C8 1_555 1_555
H6 C16 1_555 1_555
C17 C6 1_555 1_555
H7 C17 1_555 1_555
O6 N2 1_555 1_555
C18 H8 1_555 1_555
C19 C6 1_555 1_555
H9 C19 1_555 1_555
C20 C21 1_555 1_555
C21 H10 1_555 1_555
C22 C18 1_555 1_555
H11 C22 1_555 1_555
C23 O2 1_555 1_555
H12 C23 1_555 1_555
H13 C23 1_555 1_555
H14 C23 1_555 1_555
C24 N1 1_555 1_555
H15 C24 1_555 1_555
H16 C24 1_555 1_555
H17 C24 1_555 1_555
C25 C20 1_555 1_555
H18 C25 1_555 1_555
C26 C11 1_555 1_555
H19 C26 1_555 1_555
H20 C26 1_555 1_555
C27 C15 1_555 1_555
H21 C27 1_555 1_555
C28 O5 1_555 1_555
H22 C28 1_555 1_555
C29 C25 1_555 1_555
H23 C29 1_555 1_555
C30 C21 1_555 1_555
H24 C30 1_555 1_555
C31 C29 1_555 1_555
H25 C31 1_555 1_555
C4 C10 1_555 1_555
C7 C17 1_555 1_555
C9 C17 1_555 1_555
C14 C16 1_555 1_555
C18 C27 1_555 1_555
C19 C22 1_555 1_555
C20 C28 1_555 1_555
C30 C31 1_555 1_555

#END
