
#######################################################################
#
#                 Cambridge Crystallographic Data Centre
#                                CCDC 
#
#######################################################################
#
# If this CIF has been generated from an entry in the Cambridge 
# Structural Database, then it will include bibliographic, chemical, 
# crystal, experimental, refinement or atomic coordinate data resulting 
# from the CCDC's data processing and validation procedures.
#
#######################################################################

data_ANIGUA
_chemical_formula_moiety         'C31 H25 N1 O3'
_chemical_name_systematic        
4-Benzyl-4-(3-oxo-1,3-diphenylpropyl)-2-phenyl-1,3-oxazol-5(4H)-one
_symmetry_cell_setting           orthorhombic
_symmetry_space_group_name_H-M   'P 21 21 21'
_symmetry_Int_Tables_number      19
_space_group_name_Hall           'P 2ac 2ab'
loop_
_symmetry_equiv_pos_site_id
_symmetry_equiv_pos_as_xyz
1 x,y,z
2 1/2-x,-y,1/2+z
3 -x,1/2+y,1/2-z
4 1/2+x,1/2-y,-z
_cell_length_a                   9.3195(11)
_cell_length_b                   10.5990(12)
_cell_length_c                   24.308(3)
_cell_angle_alpha                90
_cell_angle_beta                 90
_cell_angle_gamma                90
_cell_volume                     2401.08
_exptl_crystal_colour            colorless
_exptl_crystal_description       plate
_cell_formula_units_Z            4
loop_
_atom_site_label
_atom_site_type_symbol
_atom_site_fract_x
_atom_site_fract_y
_atom_site_fract_z
O1 O 0.31929(12) 0.15049(11) 0.21916(4)
O2 O 0.19302(12) 0.09359(12) 0.14446(4)
O3 O 0.57834(14) 0.00657(13) 0.02228(5)
N1 N 0.47466(14) 0.29575(12) 0.18460(5)
C1 C 0.38426(16) 0.25457(15) 0.13836(6)
C2 C 0.47386(17) 0.19285(15) 0.09116(6)
H1 H 0.4041 0.1518 0.0655
C3 C 0.28556(16) 0.15693(16) 0.16389(6)
C4 C 0.43219(16) 0.23554(15) 0.22660(6)
C5 C 0.29104(17) 0.36433(16) 0.11605(6)
H2 H 0.3551 0.4339 0.1044
H3 H 0.2387 0.3346 0.0831
C6 C 0.18389(17) 0.41524(16) 0.15695(6)
C7 C 0.2246(2) 0.50435(17) 0.19562(7)
H4 H 0.3210 0.5332 0.1966
C8 C 0.1257(2) 0.55181(19) 0.23294(7)
H5 H 0.1546 0.6135 0.2590
C9 C -0.0145(2) 0.5098(2) 0.23237(8)
H6 H -0.0819 0.5416 0.2582
C10 C -0.0556(2) 0.4216(2) 0.19396(8)
H7 H -0.1521 0.3925 0.1933
C11 C 0.04218(18) 0.37467(19) 0.15632(7)
H8 H 0.0122 0.3143 0.1298
C12 C 0.57155(17) 0.08878(15) 0.11324(6)
H9 H 0.6527 0.1279 0.1332
H10 H 0.5170 0.0367 0.1398
C13 C 0.63037(18) 0.00400(17) 0.06820(7)
C14 C 0.74975(17) -0.08490(16) 0.08158(6)
C15 C 0.80666(19) -0.09604(18) 0.13413(7)
H11 H 0.7716 -0.0440 0.1630
C16 C 0.9146(2) -0.18296(19) 0.14462(8)
H12 H 0.9528 -0.1905 0.1807
C17 C 0.9668(2) -0.25832(19) 0.10308(8)
H13 H 1.0403 -0.3181 0.1106
C18 C 0.91221(19) -0.24696(18) 0.05051(8)
H14 H 0.9490 -0.2981 0.0217
C19 C 0.80390(19) -0.16113(18) 0.03988(7)
H15 H 0.7661 -0.1542 0.0037
C20 C 0.55494(17) 0.29107(15) 0.05817(6)
C21 C 0.68030(18) 0.34627(17) 0.07747(7)
H16 H 0.7180 0.3212 0.1121
C22 C 0.7511(2) 0.43725(18) 0.04705(8)
H17 H 0.8372 0.4736 0.0607
C23 C 0.6970(2) 0.47536(18) -0.00308(8)
H18 H 0.7456 0.5379 -0.0239
C24 C 0.5726(2) 0.42269(19) -0.02271(7)
H19 H 0.5345 0.4496 -0.0570
C25 C 0.50261(18) 0.33028(18) 0.00741(6)
H20 H 0.4176 0.2932 -0.0068
C26 C 0.48904(17) 0.24116(15) 0.28307(6)
C27 C 0.42712(19) 0.17103(17) 0.32524(6)
H21 H 0.3452 0.1202 0.3181
C28 C 0.4854(2) 0.17560(19) 0.37767(7)
H22 H 0.4429 0.1286 0.4067
C29 C 0.6047(2) 0.24835(19) 0.38754(7)
H23 H 0.6448 0.2507 0.4235
C30 C 0.6672(2) 0.31809(17) 0.34593(7)
H24 H 0.7501 0.3675 0.3532
C31 C 0.60846(18) 0.31565(16) 0.29353(7)
H25 H 0.6498 0.3647 0.2649
loop_
_geom_bond_atom_site_label_1
_geom_bond_atom_site_label_2
_geom_bond_site_symmetry_1
_geom_bond_site_symmetry_2
O1 C3 1_555 1_555
O2 C3 1_555 1_555
O3 C13 1_555 1_555
N1 C1 1_555 1_555
C1 C2 1_555 1_555
C2 H1 1_555 1_555
C3 C1 1_555 1_555
C4 O1 1_555 1_555
C5 C1 1_555 1_555
H2 C5 1_555 1_555
H3 C5 1_555 1_555
C6 C5 1_555 1_555
C7 C6 1_555 1_555
H4 C7 1_555 1_555
C8 C7 1_555 1_555
H5 C8 1_555 1_555
C9 C8 1_555 1_555
H6 C9 1_555 1_555
C10 C9 1_555 1_555
H7 C10 1_555 1_555
C11 C6 1_555 1_555
H8 C11 1_555 1_555
C12 C2 1_555 1_555
H9 C12 1_555 1_555
H10 C12 1_555 1_555
C13 C12 1_555 1_555
C14 C13 1_555 1_555
C15 C14 1_555 1_555
H11 C15 1_555 1_555
C16 C15 1_555 1_555
H12 C16 1_555 1_555
C17 C16 1_555 1_555
H13 C17 1_555 1_555
C18 C17 1_555 1_555
H14 C18 1_555 1_555
C19 C14 1_555 1_555
H15 C19 1_555 1_555
C20 C2 1_555 1_555
C21 C20 1_555 1_555
H16 C21 1_555 1_555
C22 C21 1_555 1_555
H17 C22 1_555 1_555
C23 C22 1_555 1_555
H18 C23 1_555 1_555
C24 C23 1_555 1_555
H19 C24 1_555 1_555
C25 C20 1_555 1_555
H20 C25 1_555 1_555
C26 C4 1_555 1_555
C27 C26 1_555 1_555
H21 C27 1_555 1_555
C28 C27 1_555 1_555
H22 C28 1_555 1_555
C29 C28 1_555 1_555
H23 C29 1_555 1_555
C30 C29 1_555 1_555
H24 C30 1_555 1_555
C31 C26 1_555 1_555
H25 C31 1_555 1_555
N1 C4 1_555 1_555
C10 C11 1_555 1_555
C18 C19 1_555 1_555
C24 C25 1_555 1_555
C30 C31 1_555 1_555

#END
