
#######################################################################
#
#                 Cambridge Crystallographic Data Centre
#                                CCDC 
#
#######################################################################
#
# If this CIF has been generated from an entry in the Cambridge 
# Structural Database, then it will include bibliographic, chemical, 
# crystal, experimental, refinement or atomic coordinate data resulting 
# from the CCDC's data processing and validation procedures.
#
#######################################################################

data_ANIJOY
_chemical_formula_moiety         'C31 H33 N3 O2'
_chemical_name_systematic        
3',6'-bis(Diethylamino)-2-(prop-2-yn-1-yl)spiro[isoindole-1,9'-xanthen]-3(2H)-one
_symmetry_cell_setting           monoclinic
_symmetry_space_group_name_H-M   'P 21/c'
_symmetry_Int_Tables_number      14
_space_group_name_Hall           '-P 2ybc'
loop_
_symmetry_equiv_pos_site_id
_symmetry_equiv_pos_as_xyz
1 x,y,z
2 -x,1/2+y,1/2-z
3 -x,-y,-z
4 x,1/2-y,1/2+z
_cell_length_a                   18.0701(8)
_cell_length_b                   16.2611(7)
_cell_length_c                   9.0801(4)
_cell_angle_alpha                90
_cell_angle_beta                 97.645(2)
_cell_angle_gamma                90
_cell_volume                     2644.38
_exptl_crystal_colour            pink
_exptl_crystal_description       block
_cell_formula_units_Z            4
loop_
_atom_site_label
_atom_site_type_symbol
_atom_site_fract_x
_atom_site_fract_y
_atom_site_fract_z
C1 C 0.29699(12) 0.55506(14) 0.4059(3)
C2 C 0.35508(15) 0.60419(16) 0.3708(3)
H1 H 0.3987 0.5790 0.3497
C3 C 0.35069(15) 0.68822(16) 0.3658(4)
H2 H 0.3911 0.7185 0.3417
C4 C 0.28656(15) 0.72918(16) 0.3964(3)
C5 C 0.22779(15) 0.68068(16) 0.4334(3)
H3 H 0.1844 0.7056 0.4561
C6 C 0.23396(13) 0.59608(15) 0.4363(3)
C7 C 0.17976(13) 0.47332(14) 0.5134(3)
C8 C 0.12177(13) 0.44161(15) 0.5811(3)
H4 H 0.0807 0.4744 0.5917
C9 C 0.12425(13) 0.36132(14) 0.6335(3)
C10 C 0.18786(13) 0.31512(15) 0.6149(3)
H5 H 0.1923 0.2616 0.6513
C11 C 0.24385(13) 0.34752(14) 0.5440(3)
H6 H 0.2847 0.3147 0.5314
C12 C 0.24146(12) 0.42754(14) 0.4904(3)
C13 C 0.29979(12) 0.46205(14) 0.4032(3)
C14 C 0.29140(13) 0.43066(14) 0.2440(3)
C15 C 0.23015(15) 0.43577(16) 0.1353(3)
H7 H 0.1854 0.4588 0.1553
C16 C 0.23772(17) 0.40540(17) -0.0046(3)
H8 H 0.1972 0.4077 -0.0793
C17 C 0.30422(17) 0.37172(18) -0.0353(3)
H9 H 0.3079 0.3523 -0.1304
C18 C 0.36521(16) 0.36645(17) 0.0729(3)
H10 H 0.4100 0.3439 0.0526
C19 C 0.35730(14) 0.39608(15) 0.2131(3)
C20 C 0.41227(14) 0.39862(14) 0.3487(3)
C21 C 0.41217(14) 0.44670(16) 0.6068(3)
H11 H 0.4547 0.4827 0.6024
H12 H 0.3776 0.4748 0.6626
C22 C 0.43761(14) 0.37143(17) 0.6847(3)
C23 C 0.45786(16) 0.3112(2) 0.7474(3)
H13 H 0.4740 0.2632 0.7974
N1 N 0.37558(10) 0.43172(12) 0.4563(2)
N2 N 0.06666(12) 0.32915(14) 0.7002(3)
O1 O 0.17142(9) 0.55466(10) 0.4709(2)
O2 O 0.47756(10) 0.37691(12) 0.3659(2)
C24 C 0.07600(17) 0.25489(18) 0.7890(3)
H14 H 0.0476 0.2605 0.8719
H15 H 0.1282 0.2497 0.8296
C25 C -0.00442(16) 0.3710(2) 0.6930(4)
H16 H -0.0432 0.3302 0.6979
H17 H -0.0147 0.3985 0.5977
C26 C 0.0522(2) 0.1779(2) 0.7072(5)
H18 H 0.0601 0.1319 0.7735
H19 H 0.0001 0.1816 0.6689
H20 H 0.0809 0.1708 0.6264
C27 C -0.0086(2) 0.4336(3) 0.8147(5)
H21 H -0.0571 0.4585 0.8025
H22 H 0.0001 0.4068 0.9097
H23 H 0.0287 0.4751 0.8094
C28 C 0.3992(3) 0.8913(3) 0.4442(5)
H24 H 0.4341 0.9241 0.3987
H25 H 0.3791 0.9233 0.5185
H26 H 0.4243 0.8439 0.4898
C29 C 0.33793(18) 0.86470(19) 0.3299(4)
H27 H 0.3124 0.9123 0.2829
H28 H 0.3577 0.8326 0.2541
N3 N 0.2856(5) 0.8146(6) 0.4037(10)
C30 C 0.2286(3) 0.8579(3) 0.4703(8)
H29 H 0.2492 0.9091 0.5123
H30 H 0.2143 0.8249 0.5510
C31 C 0.1602(4) 0.8765(4) 0.3633(8)
H31 H 0.1246 0.9051 0.4141
H32 H 0.1736 0.9102 0.2842
H33 H 0.1386 0.8260 0.3229
N4? N 0.2711(11) 0.8100(15) 0.358(3)
C32? C 0.1995(10) 0.8497(8) 0.3683(19)
H34? H 0.1595 0.8178 0.3140
H35? H 0.1990 0.9042 0.3247
C33? C 0.1881(12) 0.8558(10) 0.5277(18)
H36? H 0.1411 0.8819 0.5349
H37? H 0.1883 0.8017 0.5700
H38? H 0.2277 0.8878 0.5807
loop_
_geom_bond_atom_site_label_1
_geom_bond_atom_site_label_2
_geom_bond_site_symmetry_1
_geom_bond_site_symmetry_2
C1 C2 1_555 1_555
C2 H1 1_555 1_555
C3 C2 1_555 1_555
H2 C3 1_555 1_555
C4 C3 1_555 1_555
C5 C4 1_555 1_555
H3 C5 1_555 1_555
C6 C1 1_555 1_555
C7 C8 1_555 1_555
C8 H4 1_555 1_555
C9 C8 1_555 1_555
C10 C9 1_555 1_555
H5 C10 1_555 1_555
C11 C10 1_555 1_555
H6 C11 1_555 1_555
C12 C7 1_555 1_555
C13 C1 1_555 1_555
C14 C13 1_555 1_555
C15 C14 1_555 1_555
H7 C15 1_555 1_555
C16 C15 1_555 1_555
H8 C16 1_555 1_555
C17 C16 1_555 1_555
H9 C17 1_555 1_555
C18 C17 1_555 1_555
H10 C18 1_555 1_555
C19 C14 1_555 1_555
C20 C19 1_555 1_555
C21 H11 1_555 1_555
H12 C21 1_555 1_555
C22 C21 1_555 1_555
C23 C22 1_555 1_555
H13 C23 1_555 1_555
N1 C13 1_555 1_555
N2 C9 1_555 1_555
O1 C6 1_555 1_555
O2 C20 1_555 1_555
C24 N2 1_555 1_555
H14 C24 1_555 1_555
H15 C24 1_555 1_555
C25 N2 1_555 1_555
H16 C25 1_555 1_555
H17 C25 1_555 1_555
C26 C24 1_555 1_555
H18 C26 1_555 1_555
H19 C26 1_555 1_555
H20 C26 1_555 1_555
C27 C25 1_555 1_555
H21 C27 1_555 1_555
H22 C27 1_555 1_555
H23 C27 1_555 1_555
C28 H24 1_555 1_555
H25 C28 1_555 1_555
H26 C28 1_555 1_555
C29 C28 1_555 1_555
H27 C29 1_555 1_555
H28 C29 1_555 1_555
N3 C4 1_555 1_555
C30 N3 1_555 1_555
H29 C30 1_555 1_555
H30 C30 1_555 1_555
C31 C30 1_555 1_555
H31 C31 1_555 1_555
H32 C31 1_555 1_555
H33 C31 1_555 1_555
C5 C6 1_555 1_555
C7 O1 1_555 1_555
C11 C12 1_555 1_555
C12 C13 1_555 1_555
C18 C19 1_555 1_555
C20 N1 1_555 1_555
C21 N1 1_555 1_555
C29 N3 1_555 1_555

#END
