
#######################################################################
#
#                 Cambridge Crystallographic Data Centre
#                                CCDC 
#
#######################################################################
#
# If this CIF has been generated from an entry in the Cambridge 
# Structural Database, then it will include bibliographic, chemical, 
# crystal, experimental, refinement or atomic coordinate data resulting 
# from the CCDC's data processing and validation procedures.
#
#######################################################################

data_ANINUI
_chemical_formula_moiety         'C15 H13 Br2 N1 O1'
_chemical_name_systematic        
1-(2,6-dibromophenyl)-N-methoxy-1-(4-methylphenyl)methanimine
_symmetry_cell_setting           triclinic
_symmetry_space_group_name_H-M   'P -1'
_symmetry_Int_Tables_number      2
_space_group_name_Hall           '-P 1'
loop_
_symmetry_equiv_pos_site_id
_symmetry_equiv_pos_as_xyz
1 x,y,z
2 -x,-y,-z
_cell_length_a                   7.7015(8)
_cell_length_b                   7.8506(9)
_cell_length_c                   12.8436(14)
_cell_angle_alpha                81.678(7)
_cell_angle_beta                 87.124(6)
_cell_angle_gamma                67.031(6)
_cell_volume                     707.429
_exptl_crystal_colour            colorless
_cell_formula_units_Z            2
loop_
_atom_site_label
_atom_site_type_symbol
_atom_site_fract_x
_atom_site_fract_y
_atom_site_fract_z
Br1 Br 0.32868(2) 0.77987(2) 1.015064(11)
Br2 Br 0.68328(2) 0.95929(2) 0.638057(11)
O1 O 0.06042(14) 1.15204(15) 0.73052(9)
N1 N 0.23281(16) 1.09434(16) 0.78452(9)
C1 C 0.34530(17) 0.92760(18) 0.77240(10)
C2 C 0.52678(17) 0.86186(18) 0.83245(10)
C3 C 0.54292(18) 0.79085(19) 0.93957(10)
C4 C 0.7129(2) 0.7250(2) 0.99431(12)
H1 H 0.7195 0.6783 1.0671
C5 C 0.8720(2) 0.7287(2) 0.94089(13)
H2 H 0.9889 0.6832 0.9775
C6 C 0.86406(19) 0.7977(2) 0.83462(12)
H3 H 0.9738 0.8006 0.7986
C7 C 0.69241(18) 0.86243(19) 0.78224(11)
C8 C 0.31939(17) 0.79532(18) 0.70885(10)
C9 C 0.40053(19) 0.60367(19) 0.74516(10)
H4 H 0.4687 0.5616 0.8098
C10 C 0.3823(2) 0.4745(2) 0.68768(11)
H5 H 0.4354 0.3454 0.7145
C11 C 0.28709(18) 0.5315(2) 0.59117(11)
C12 C 0.20791(19) 0.7217(2) 0.55497(11)
H6 H 0.1425 0.7630 0.4895
C13 C 0.22238(18) 0.85300(19) 0.61246(10)
H7 H 0.1663 0.9822 0.5862
C14 C 0.2748(2) 0.3907(2) 0.52672(12)
H8 H 0.1648 0.4500 0.4797
H9 H 0.2620 0.2862 0.5737
H10 H 0.3894 0.3444 0.4848
C15 C -0.0555(2) 1.3359(2) 0.75302(12)
H11 H -0.0707 1.3344 0.8293
H12 H -0.1795 1.3763 0.7197
H13 H 0.0043 1.4226 0.7254
loop_
_geom_bond_atom_site_label_1
_geom_bond_atom_site_label_2
_geom_bond_site_symmetry_1
_geom_bond_site_symmetry_2
Br1 C3 1_555 1_555
Br2 C7 1_555 1_555
O1 N1 1_555 1_555
N1 C1 1_555 1_555
C1 C2 1_555 1_555
C2 C3 1_555 1_555
C3 C4 1_555 1_555
C4 H1 1_555 1_555
C5 C4 1_555 1_555
H2 C5 1_555 1_555
C6 C5 1_555 1_555
H3 C6 1_555 1_555
C7 C2 1_555 1_555
C8 C1 1_555 1_555
C9 C8 1_555 1_555
H4 C9 1_555 1_555
C10 C9 1_555 1_555
H5 C10 1_555 1_555
C11 C10 1_555 1_555
C12 C11 1_555 1_555
H6 C12 1_555 1_555
C13 C8 1_555 1_555
H7 C13 1_555 1_555
C14 C11 1_555 1_555
H8 C14 1_555 1_555
H9 C14 1_555 1_555
H10 C14 1_555 1_555
C15 O1 1_555 1_555
H11 C15 1_555 1_555
H12 C15 1_555 1_555
H13 C15 1_555 1_555
C6 C7 1_555 1_555
C12 C13 1_555 1_555

#END
