
#######################################################################
#
#                 Cambridge Crystallographic Data Centre
#                                CCDC 
#
#######################################################################
#
# If this CIF has been generated from an entry in the Cambridge 
# Structural Database, then it will include bibliographic, chemical, 
# crystal, experimental, refinement or atomic coordinate data resulting 
# from the CCDC's data processing and validation procedures.
#
#######################################################################

data_ANIPAQ
_chemical_formula_moiety         'C15 H14 Br1 N1 O2'
_chemical_name_systematic        
1-(2-bromo-4-methoxyphenyl)-N-methoxy-1-phenylmethanimine
_symmetry_cell_setting           triclinic
_symmetry_space_group_name_H-M   'P -1'
_symmetry_Int_Tables_number      2
_space_group_name_Hall           '-P 1'
loop_
_symmetry_equiv_pos_site_id
_symmetry_equiv_pos_as_xyz
1 x,y,z
2 -x,-y,-z
_cell_length_a                   8.3277(15)
_cell_length_b                   12.980(2)
_cell_length_c                   20.614(4)
_cell_angle_alpha                99.490(9)
_cell_angle_beta                 92.554(10)
_cell_angle_gamma                102.847(10)
_cell_volume                     2135.07
_exptl_crystal_colour            colorless
_chemical_melting_point          '322.6-324.2 K'
_cell_formula_units_Z            6
loop_
_atom_site_label
_atom_site_type_symbol
_atom_site_fract_x
_atom_site_fract_y
_atom_site_fract_z
Br1 Br 0.59387(3) 0.327644(17) -0.028821(10)
O1 O 0.67185(16) 0.51055(10) 0.19712(7)
O2 O 0.7692(2) -0.02372(11) -0.00146(7)
N1 N 0.71049(19) 0.41705(12) 0.16219(8)
C1 C 0.5866(2) 0.35232(13) 0.12594(9)
C2 C 0.6290(2) 0.25114(13) 0.09190(9)
C3 C 0.6371(2) 0.22712(14) 0.02367(9)
C4 C 0.6827(3) 0.13529(15) -0.00698(9)
H1 H 0.6878 0.1216 -0.0535
C5 C 0.7210(2) 0.06326(14) 0.03163(9)
C6 C 0.7113(2) 0.08359(14) 0.09977(9)
H2 H 0.7347 0.0343 0.1261
C7 C 0.6668(2) 0.17724(14) 0.12892(9)
H3 H 0.6621 0.1911 0.1754
C8 C 0.4135(2) 0.36260(13) 0.12063(8)
C9 C 0.2887(2) 0.26859(14) 0.11518(9)
H4 H 0.3167 0.2009 0.1110
C10 C 0.1244(2) 0.27404(16) 0.11579(10)
H5 H 0.0404 0.2102 0.1131
C11 C 0.0822(2) 0.37277(17) 0.12031(10)
H6 H -0.0305 0.3762 0.1212
C12 C 0.2040(2) 0.46611(16) 0.12355(10)
H7 H 0.1744 0.5331 0.1254
C13 C 0.3695(2) 0.46190(14) 0.12408(9)
H8 H 0.4529 0.5260 0.1268
C14 C 0.8104(2) 0.56563(15) 0.24282(10)
H9 H 0.8152 0.5265 0.2794
H10 H 0.7987 0.6384 0.2600
H11 H 0.9123 0.5697 0.2204
C15 C 0.8271(3) -0.09153(17) 0.03864(11)
H12 H 0.9194 -0.0484 0.0697
H13 H 0.8643 -0.1484 0.0102
H14 H 0.7370 -0.1238 0.0633
Br2 Br 0.84427(2) 0.390956(14) 0.482405(11)
O3 O 0.26770(15) 0.30535(10) 0.52273(6)
O4 O 0.93144(15) -0.00297(10) 0.41879(7)
N2 N 0.39840(18) 0.25172(12) 0.51764(8)
C16 C 0.4716(2) 0.26086(13) 0.46401(9)
C17 C 0.5982(2) 0.19420(13) 0.45465(8)
C18 C 0.7667(2) 0.23907(13) 0.45908(9)
C19 C 0.8837(2) 0.17751(13) 0.44843(9)
H15 H 0.9983 0.2108 0.4524
C20 C 0.8291(2) 0.06593(13) 0.43178(9)
C21 C 0.6616(2) 0.01777(14) 0.42757(10)
H16 H 0.6246 -0.0582 0.4169
C22 C 0.5492(2) 0.08139(14) 0.43911(10)
H17 H 0.4349 0.0477 0.4364
C23 C 0.4396(2) 0.32102(13) 0.41120(9)
C24 C 0.4749(2) 0.28364(15) 0.34696(9)
H18 H 0.5162 0.2206 0.3382
C25 C 0.4498(3) 0.33793(16) 0.29577(10)
H19 H 0.4731 0.3111 0.2523
C26 C 0.3909(3) 0.43140(17) 0.30778(11)
H20 H 0.3734 0.4682 0.2728
C27 C 0.3582(3) 0.46975(17) 0.37172(11)
H21 H 0.3198 0.5339 0.3805
C28 C 0.3807(3) 0.41566(15) 0.42296(10)
H22 H 0.3562 0.4426 0.4662
C29 C 0.2073(3) 0.30046(19) 0.58634(10)
H23 H 0.1821 0.2258 0.5932
H24 H 0.1068 0.3279 0.5888
H25 H 0.2916 0.3444 0.6205
C30 C 1.1043(2) 0.04401(15) 0.42445(10)
H26 H 1.1291 0.0911 0.3918
H27 H 1.1651 -0.0128 0.4165
H28 H 1.1378 0.0861 0.4689
Br3 Br 0.30500(2) 1.036127(15) 0.206568(11)
O5 O -0.00430(19) 0.66984(11) 0.12018(7)
O6 O -0.18950(19) 1.19904(11) 0.29138(7)
N3 N -0.0479(2) 0.76854(13) 0.14040(8)
C31 C 0.0292(2) 0.82127(14) 0.19587(9)
C32 C -0.0237(2) 0.92308(14) 0.22043(9)
C33 C 0.0840(2) 1.02400(14) 0.22975(9)
C34 C 0.0355(2) 1.11919(14) 0.25341(9)
H29 H 0.1119 1.1869 0.2589
C35 C -0.1268(2) 1.11198(15) 0.26857(9)
C36 C -0.2378(2) 1.01216(16) 0.25987(10)
H30 H -0.3488 1.0075 0.2704
C37 C -0.1863(2) 0.91960(16) 0.23587(10)
H31 H -0.2636 0.8522 0.2298
C38 C 0.1517(2) 0.78946(13) 0.23871(9)
C39 C 0.2801(2) 0.74555(15) 0.21351(10)
H32 H 0.2899 0.7332 0.1673
C40 C 0.3931(3) 0.72005(16) 0.25611(12)
H33 H 0.4800 0.6902 0.2389
C41 C 0.3799(3) 0.73798(16) 0.32417(11)
H34 H 0.4581 0.7208 0.3531
C42 C 0.2532(3) 0.78075(16) 0.34933(11)
H35 H 0.2432 0.7921 0.3956
C43 C 0.1399(2) 0.80728(14) 0.30703(9)
H36 H 0.0539 0.8377 0.3247
C44 C -0.1046(3) 0.61583(19) 0.06040(11)
H37 H -0.0772 0.6576 0.0253
H38 H -0.2216 0.6088 0.0679
H39 H -0.0834 0.5443 0.0473
C45 C -0.0790(3) 1.30314(17) 0.30138(12)
H40 H -0.0373 1.3174 0.2592
H41 H 0.0139 1.3055 0.3329
H42 H -0.1381 1.3578 0.3188
Br4? Br -0.3287(14) 0.8355(8) 0.2359(7)
loop_
_geom_bond_atom_site_label_1
_geom_bond_atom_site_label_2
_geom_bond_site_symmetry_1
_geom_bond_site_symmetry_2
Br1 C3 1_555 1_555
O1 N1 1_555 1_555
O2 C5 1_555 1_555
N1 C1 1_555 1_555
C1 C2 1_555 1_555
C2 C3 1_555 1_555
C3 C4 1_555 1_555
C4 H1 1_555 1_555
C5 C4 1_555 1_555
C6 C5 1_555 1_555
H2 C6 1_555 1_555
C7 C2 1_555 1_555
H3 C7 1_555 1_555
C8 C1 1_555 1_555
C9 C8 1_555 1_555
H4 C9 1_555 1_555
C10 C9 1_555 1_555
H5 C10 1_555 1_555
C11 C10 1_555 1_555
H6 C11 1_555 1_555
C12 C11 1_555 1_555
H7 C12 1_555 1_555
C13 C8 1_555 1_555
H8 C13 1_555 1_555
C14 O1 1_555 1_555
H9 C14 1_555 1_555
H10 C14 1_555 1_555
H11 C14 1_555 1_555
C15 O2 1_555 1_555
H12 C15 1_555 1_555
H13 C15 1_555 1_555
H14 C15 1_555 1_555
Br2 C18 1_555 1_555
O3 N2 1_555 1_555
O4 C20 1_555 1_555
N2 C16 1_555 1_555
C16 C17 1_555 1_555
C17 C18 1_555 1_555
C18 C19 1_555 1_555
C19 H15 1_555 1_555
C20 C19 1_555 1_555
C21 C20 1_555 1_555
H16 C21 1_555 1_555
C22 C17 1_555 1_555
H17 C22 1_555 1_555
C23 C16 1_555 1_555
C24 C23 1_555 1_555
H18 C24 1_555 1_555
C25 C24 1_555 1_555
H19 C25 1_555 1_555
C26 C25 1_555 1_555
H20 C26 1_555 1_555
C27 C26 1_555 1_555
H21 C27 1_555 1_555
C28 C23 1_555 1_555
H22 C28 1_555 1_555
C29 O3 1_555 1_555
H23 C29 1_555 1_555
H24 C29 1_555 1_555
H25 C29 1_555 1_555
C30 O4 1_555 1_555
H26 C30 1_555 1_555
H27 C30 1_555 1_555
H28 C30 1_555 1_555
Br3 C33 1_555 1_555
O5 N3 1_555 1_555
O6 C35 1_555 1_555
N3 C31 1_555 1_555
C31 C32 1_555 1_555
C32 C33 1_555 1_555
C33 C34 1_555 1_555
C34 H29 1_555 1_555
C35 C34 1_555 1_555
C36 C35 1_555 1_555
H30 C36 1_555 1_555
C37 C32 1_555 1_555
H31 C37 1_555 1_555
C38 C31 1_555 1_555
C39 C38 1_555 1_555
H32 C39 1_555 1_555
C40 C39 1_555 1_555
H33 C40 1_555 1_555
C41 C40 1_555 1_555
H34 C41 1_555 1_555
C42 C41 1_555 1_555
H35 C42 1_555 1_555
C43 C38 1_555 1_555
H36 C43 1_555 1_555
C44 O5 1_555 1_555
H37 C44 1_555 1_555
H38 C44 1_555 1_555
H39 C44 1_555 1_555
C45 O6 1_555 1_555
H40 C45 1_555 1_555
H41 C45 1_555 1_555
H42 C45 1_555 1_555
C6 C7 1_555 1_555
C12 C13 1_555 1_555
C21 C22 1_555 1_555
C27 C28 1_555 1_555
C36 C37 1_555 1_555
C42 C43 1_555 1_555

#END
