
#######################################################################
#
#                 Cambridge Crystallographic Data Centre
#                                CCDC 
#
#######################################################################
#
# If this CIF has been generated from an entry in the Cambridge 
# Structural Database, then it will include bibliographic, chemical, 
# crystal, experimental, refinement or atomic coordinate data resulting 
# from the CCDC's data processing and validation procedures.
#
#######################################################################

data_ANISAZ05
_chemical_formula_moiety         'C16 H16 N2 O2'
_chemical_name_systematic        N,N'-bis(4-Methoxybenzylidene)hydrazine
_symmetry_cell_setting           triclinic
_symmetry_space_group_name_H-M   'P -1'
_symmetry_Int_Tables_number      2
_space_group_name_Hall           '-P 1'
loop_
_symmetry_equiv_pos_site_id
_symmetry_equiv_pos_as_xyz
1 x,y,z
2 -x,-y,-z
_cell_length_a                   8.539(2)
_cell_length_b                   9.230(2)
_cell_length_c                   10.702(3)
_cell_angle_alpha                109.976(6)
_cell_angle_beta                 93.920(6)
_cell_angle_gamma                111.081(6)
_cell_volume                     721.872
_exptl_crystal_colour            colorless
_exptl_crystal_description       block
_cell_formula_units_Z            2
_exptl_crystal_recrystallization_method ethanol
loop_
_atom_site_label
_atom_site_type_symbol
_atom_site_fract_x
_atom_site_fract_y
_atom_site_fract_z
O1 O 0.4755(4) 0.3463(4) 0.8657(3)
N1 N 0.9728(5) 0.0599(4) 0.5424(4)
C1 C 0.3060(6) 0.2584(7) 0.8801(6)
H1 H 0.2283 0.2012 0.7926
H2 H 0.2691 0.3376 0.9404
H3 H 0.3069 0.1773 0.9170
C2 C 0.5525(5) 0.2503(6) 0.7896(4)
C3 C 0.4804(6) 0.0786(6) 0.7273(5)
H4 H 0.3714 0.0172 0.7360
C4 C 0.5696(6) -0.0042(6) 0.6511(5)
H5 H 0.5189 -0.1212 0.6071
C5 C 0.7328(5) 0.0844(5) 0.6393(4)
C6 C 0.8053(6) 0.2594(5) 0.7033(5)
H6 H 0.9147 0.3211 0.6954
C7 C 0.7167(6) 0.3408(5) 0.7776(5)
H7 H 0.7664 0.4580 0.8208
C8 C 0.8208(6) -0.0081(6) 0.5555(5)
H8 H 0.7613 -0.1243 0.5088
O1A O 1.5245(4) -0.3463(4) 0.1343(3)
N1A N 1.0272(5) -0.0599(4) 0.4576(4)
C1A C 1.6940(6) -0.2584(7) 0.1199(6)
H1A H 1.7717 -0.2012 0.2074
H2A H 1.7309 -0.3376 0.0596
H3A H 1.6931 -0.1773 0.0830
C2A C 1.4475(5) -0.2503(6) 0.2104(4)
C3A C 1.5196(6) -0.0786(6) 0.2727(5)
H4A H 1.6286 -0.0172 0.2640
C4A C 1.4304(6) 0.0042(6) 0.3489(5)
H5A H 1.4811 0.1212 0.3929
C5A C 1.2672(5) -0.0844(5) 0.3607(4)
C6A C 1.1947(6) -0.2594(5) 0.2967(5)
H6A H 1.0853 -0.3211 0.3046
C7A C 1.2833(6) -0.3408(5) 0.2224(5)
H7A H 1.2336 -0.4580 0.1792
C8A C 1.1792(6) 0.0081(6) 0.4445(5)
H8A H 1.2387 0.1243 0.4912
O2 O 1.0374(5) 0.1960(4) 0.1143(3)
N2 N 0.5624(5) 0.4669(5) 0.4831(4)
C9 C 1.1426(6) 0.1442(7) 0.1822(5)
H9 H 1.2185 0.2388 0.2622
H10 H 1.2091 0.1022 0.1224
H11 H 1.0713 0.0567 0.2080
C10 C 0.9331(6) 0.2578(6) 0.1834(5)
C11 C 0.9271(6) 0.2857(5) 0.3176(5)
H12 H 0.9980 0.2604 0.3687
C12 C 0.8163(6) 0.3509(5) 0.3757(5)
H13 H 0.8132 0.3686 0.4662
C13 C 0.7095(6) 0.3910(5) 0.3045(5)
C14 C 0.7159(7) 0.3619(6) 0.1690(5)
H14 H 0.6451 0.3879 0.1183
C15 C 0.8253(7) 0.2952(6) 0.1089(5)
H15 H 0.8270 0.2752 0.0178
C16 C 0.5888(6) 0.4577(5) 0.3650(5)
H16 H 0.5292 0.4949 0.3160
O2A O -0.0374(5) 0.8040(4) 0.8857(3)
N2A N 0.4376(5) 0.5331(5) 0.5169(4)
C9A C -0.1426(6) 0.8558(7) 0.8178(5)
H9A H -0.2185 0.7612 0.7378
H10A H -0.2091 0.8978 0.8776
H11A H -0.0713 0.9433 0.7920
C10A C 0.0669(6) 0.7422(6) 0.8166(5)
C11A C 0.0729(6) 0.7143(5) 0.6824(5)
H12A H 0.0020 0.7396 0.6313
C12A C 0.1837(6) 0.6491(5) 0.6243(5)
H13A H 0.1868 0.6314 0.5338
C13A C 0.2905(6) 0.6090(5) 0.6955(5)
C14A C 0.2841(7) 0.6381(6) 0.8310(5)
H14A H 0.3549 0.6121 0.8817
C15A C 0.1747(7) 0.7048(6) 0.8911(5)
H15A H 0.1730 0.7248 0.9822
C16A C 0.4112(6) 0.5423(5) 0.6350(5)
H16A H 0.4708 0.5051 0.6840
loop_
_geom_bond_atom_site_label_1
_geom_bond_atom_site_label_2
_geom_bond_site_symmetry_1
_geom_bond_site_symmetry_2
O1 C1 1_555 1_555
N1 C8 1_555 1_555
C1 H1 1_555 1_555
H2 C1 1_555 1_555
H3 C1 1_555 1_555
C2 O1 1_555 1_555
C3 C2 1_555 1_555
H4 C3 1_555 1_555
C4 C3 1_555 1_555
H5 C4 1_555 1_555
C5 C4 1_555 1_555
C6 C5 1_555 1_555
H6 C6 1_555 1_555
C7 C2 1_555 1_555
H7 C7 1_555 1_555
C8 C5 1_555 1_555
H8 C8 1_555 1_555
O2 C9 1_555 1_555
N2 C16 1_555 1_555
C9 H9 1_555 1_555
H10 C9 1_555 1_555
H11 C9 1_555 1_555
C10 O2 1_555 1_555
C11 C10 1_555 1_555
H12 C11 1_555 1_555
C12 C11 1_555 1_555
H13 C12 1_555 1_555
C13 C12 1_555 1_555
C14 C13 1_555 1_555
H14 C14 1_555 1_555
C15 C10 1_555 1_555
H15 C15 1_555 1_555
C16 C13 1_555 1_555
H16 C16 1_555 1_555
O1A C1A 1_555 1_555
N1A N1 1_555 1_555
C1A H1A 1_555 1_555
H2A C1A 1_555 1_555
H3A C1A 1_555 1_555
C2A O1A 1_555 1_555
C3A C2A 1_555 1_555
H4A C3A 1_555 1_555
C4A C3A 1_555 1_555
H5A C4A 1_555 1_555
C5A C4A 1_555 1_555
C6A C5A 1_555 1_555
H6A C6A 1_555 1_555
C7A C2A 1_555 1_555
H7A C7A 1_555 1_555
C8A N1A 1_555 1_555
H8A C8A 1_555 1_555
O2A C9A 1_555 1_555
N2A N2 1_555 1_555
C9A H9A 1_555 1_555
H10A C9A 1_555 1_555
H11A C9A 1_555 1_555
C10A O2A 1_555 1_555
C11A C10A 1_555 1_555
H12A C11A 1_555 1_555
C12A C11A 1_555 1_555
H13A C12A 1_555 1_555
C13A C12A 1_555 1_555
C14A C13A 1_555 1_555
H14A C14A 1_555 1_555
C15A C10A 1_555 1_555
H15A C15A 1_555 1_555
C16A N2A 1_555 1_555
H16A C16A 1_555 1_555
C6 C7 1_555 1_555
C14 C15 1_555 1_555
C5A C8A 1_555 1_555
C6A C7A 1_555 1_555
C13A C16A 1_555 1_555
C14A C15A 1_555 1_555

#END
