
#######################################################################
#
#                 Cambridge Crystallographic Data Centre
#                                CCDC 
#
#######################################################################
#
# If this CIF has been generated from an entry in the Cambridge 
# Structural Database, then it will include bibliographic, chemical, 
# crystal, experimental, refinement or atomic coordinate data resulting 
# from the CCDC's data processing and validation procedures.
#
#######################################################################

data_ANITAU
_chemical_formula_moiety         'C14 H15 N3 O3'
_chemical_name_systematic        
2,2-dimethyl-N-(5-nitroquinolin-8-yl)propanamide
_symmetry_cell_setting           triclinic
_symmetry_space_group_name_H-M   'P -1'
_symmetry_Int_Tables_number      2
_space_group_name_Hall           '-P 1'
loop_
_symmetry_equiv_pos_site_id
_symmetry_equiv_pos_as_xyz
1 x,y,z
2 -x,-y,-z
_cell_length_a                   8.466(10)
_cell_length_b                   9.632(11)
_cell_length_c                   9.683(11)
_cell_angle_alpha                85.531(19)
_cell_angle_beta                 67.313(17)
_cell_angle_gamma                71.304(19)
_cell_volume                     689.115
_exptl_crystal_colour            yellow
_exptl_crystal_description       prism
_cell_formula_units_Z            2
loop_
_atom_site_label
_atom_site_type_symbol
_atom_site_fract_x
_atom_site_fract_y
_atom_site_fract_z
C1 C -0.0444(2) 1.01591(19) 0.7819(2)
N1 N -0.1701(2) 1.1097(2) 0.9166(2)
O1 O -0.1450(3) 1.2228(3) 0.9351(3)
N2 N 0.33921(19) 0.73981(16) 0.41063(17)
H1 H 0.288(3) 0.689(2) 0.394(2)
C2 C 0.1255(2) 1.0268(2) 0.7204(2)
H2 H 0.147(3) 1.092(3) 0.765(3)
O2 O -0.2936(2) 1.0714(2) 1.00693(18)
O3 O 0.59665(18) 0.79134(18) 0.36370(19)
C3 C 0.2586(2) 0.9376(2) 0.5959(2)
H3 H 0.377(3) 0.949(2) 0.554(2)
C4 C 0.2185(2) 0.83687(17) 0.53236(18)
C5 C 0.0387(2) 0.82623(18) 0.59339(18)
N3 N 0.01004(19) 0.72468(17) 0.52258(17)
C6 C -0.1550(3) 0.7147(2) 0.5734(2)
H4 H -0.173(3) 0.640(2) 0.521(3)
C7 C -0.2991(3) 0.8030(2) 0.6924(2)
H5 H -0.415(3) 0.790(2) 0.720(3)
C8 C -0.2723(2) 0.9029(2) 0.7665(2)
H6 H -0.370(3) 0.962(2) 0.852(2)
C9 C -0.0967(2) 0.91649(18) 0.71984(18)
C10 C 0.5199(2) 0.71602(19) 0.33596(19)
C11 C 0.6214(2) 0.5904(2) 0.2152(2)
C12 C 0.8006(3) 0.5084(3) 0.2332(3)
H7 H 0.8667 0.4230 0.1620
H8 H 0.7757 0.4757 0.3356
H9 H 0.8735 0.5743 0.2134
C13 C 0.6627(4) 0.6582(3) 0.0634(3)
H10 H 0.5496 0.7091 0.0498
H11 H 0.7385 0.5808 -0.0159
H12 H 0.7265 0.7284 0.0585
C14 C 0.5205(4) 0.4820(3) 0.2280(4)
H13 H 0.4116 0.5306 0.2073
H14 H 0.4864 0.4463 0.3296
H15 H 0.5983 0.3990 0.1554
loop_
_geom_bond_atom_site_label_1
_geom_bond_atom_site_label_2
_geom_bond_site_symmetry_1
_geom_bond_site_symmetry_2
C1 N1 1_555 1_555
N1 O1 1_555 1_555
N2 H1 1_555 1_555
C2 C1 1_555 1_555
H2 C2 1_555 1_555
O2 N1 1_555 1_555
O3 C10 1_555 1_555
C3 C2 1_555 1_555
H3 C3 1_555 1_555
C4 N2 1_555 1_555
C5 C4 1_555 1_555
N3 C5 1_555 1_555
C6 N3 1_555 1_555
H4 C6 1_555 1_555
C7 C6 1_555 1_555
H5 C7 1_555 1_555
C8 C7 1_555 1_555
H6 C8 1_555 1_555
C9 C1 1_555 1_555
C10 N2 1_555 1_555
C11 C10 1_555 1_555
C12 C11 1_555 1_555
H7 C12 1_555 1_555
H8 C12 1_555 1_555
H9 C12 1_555 1_555
C13 C11 1_555 1_555
H10 C13 1_555 1_555
H11 C13 1_555 1_555
H12 C13 1_555 1_555
C14 C11 1_555 1_555
H13 C14 1_555 1_555
H14 C14 1_555 1_555
H15 C14 1_555 1_555
C3 C4 1_555 1_555
C5 C9 1_555 1_555
C8 C9 1_555 1_555

#END
