
#######################################################################
#
#                 Cambridge Crystallographic Data Centre
#                                CCDC 
#
#######################################################################
#
# If this CIF has been generated from an entry in the Cambridge 
# Structural Database, then it will include bibliographic, chemical, 
# crystal, experimental, refinement or atomic coordinate data resulting 
# from the CCDC's data processing and validation procedures.
#
#######################################################################

data_ANIVIE
_chemical_formula_moiety         'C22 H16 O2'
_chemical_name_systematic        2-(2-(1-benzofuran-3-yl)-2-phenylvinyl)phenol
_symmetry_cell_setting           triclinic
_symmetry_space_group_name_H-M   'P -1'
_symmetry_Int_Tables_number      2
_space_group_name_Hall           '-P 1'
loop_
_symmetry_equiv_pos_site_id
_symmetry_equiv_pos_as_xyz
1 x,y,z
2 -x,-y,-z
_cell_length_a                   8.8870(9)
_cell_length_b                   9.7868(10)
_cell_length_c                   11.1972(12)
_cell_angle_alpha                67.061(2)
_cell_angle_beta                 87.686(2)
_cell_angle_gamma                63.218(2)
_cell_volume                     789.749
_exptl_crystal_colour            colorless
_exptl_crystal_description       block
_cell_formula_units_Z            2
loop_
_atom_site_label
_atom_site_type_symbol
_atom_site_fract_x
_atom_site_fract_y
_atom_site_fract_z
O1 O 0.21419(12) 0.12831(12) 0.59073(9)
O2 O 0.95825(12) 0.07496(12) 0.33703(11)
H1 H 0.8954 0.0399 0.3828
C1 C 0.34750(16) 0.05213(15) 0.69213(12)
C2 C 0.35547(17) -0.05599(16) 0.81854(13)
H2 H 0.2688 -0.0883 0.8426
C3 C 0.49622(18) -0.11479(17) 0.90824(13)
H3 H 0.5086 -0.1912 0.9963
C4 C 0.62064(18) -0.06314(17) 0.87097(13)
H4 H 0.7152 -0.1040 0.9350
C5 C 0.61033(16) 0.04597(16) 0.74325(13)
H5 H 0.6959 0.0800 0.7197
C6 C 0.47059(15) 0.10435(15) 0.65034(12)
C7 C 0.40638(16) 0.22164(15) 0.51293(12)
C8 C 0.25470(17) 0.23083(17) 0.48502(13)
H6 H 0.1835 0.3005 0.4015
C9 C 0.48435(16) 0.31219(15) 0.41835(12)
C10 C 0.65486(16) 0.25290(16) 0.43254(12)
H7 H 0.7225 0.1483 0.5047
C11 C 0.74560(15) 0.33636(16) 0.34571(12)
C12 C 0.89158(15) 0.24460(15) 0.30228(12)
C13 C 0.97540(16) 0.32377(17) 0.21797(13)
H8 H 1.0718 0.2607 0.1869
C14 C 0.91902(17) 0.49369(17) 0.17930(13)
H9 H 0.9767 0.5471 0.1219
C15 C 0.77814(18) 0.58625(17) 0.22433(14)
H10 H 0.7407 0.7025 0.1996
C16 C 0.69240(17) 0.50798(16) 0.30557(13)
H11 H 0.5949 0.5726 0.3348
C17 C 0.36381(15) 0.46660(15) 0.30254(12)
C18 C 0.38127(17) 0.47587(16) 0.17547(13)
H12 H 0.4708 0.3841 0.1632
C19 C 0.27001(18) 0.61698(18) 0.06729(13)
H13 H 0.2826 0.6210 -0.0185
C20 C 0.13989(18) 0.75270(17) 0.08404(14)
H14 H 0.0640 0.8502 0.0099
C21 C 0.12137(18) 0.74500(17) 0.20984(15)
H15 H 0.0333 0.8381 0.2216
C22 C 0.23084(17) 0.60203(17) 0.31853(14)
H16 H 0.2150 0.5965 0.4044
loop_
_geom_bond_atom_site_label_1
_geom_bond_atom_site_label_2
_geom_bond_site_symmetry_1
_geom_bond_site_symmetry_2
O1 C1 1_555 1_555
O2 H1 1_555 1_555
C1 C2 1_555 1_555
C2 H2 1_555 1_555
C3 C2 1_555 1_555
H3 C3 1_555 1_555
C4 C3 1_555 1_555
H4 C4 1_555 1_555
C5 C4 1_555 1_555
H5 C5 1_555 1_555
C6 C1 1_555 1_555
C7 C6 1_555 1_555
C8 O1 1_555 1_555
H6 C8 1_555 1_555
C9 C7 1_555 1_555
C10 C9 1_555 1_555
H7 C10 1_555 1_555
C11 C10 1_555 1_555
C12 O2 1_555 1_555
C13 C12 1_555 1_555
H8 C13 1_555 1_555
C14 C13 1_555 1_555
H9 C14 1_555 1_555
C15 C14 1_555 1_555
H10 C15 1_555 1_555
C16 C11 1_555 1_555
H11 C16 1_555 1_555
C17 C9 1_555 1_555
C18 C17 1_555 1_555
H12 C18 1_555 1_555
C19 C18 1_555 1_555
H13 C19 1_555 1_555
C20 C19 1_555 1_555
H14 C20 1_555 1_555
C21 C20 1_555 1_555
H15 C21 1_555 1_555
C22 C17 1_555 1_555
H16 C22 1_555 1_555
C5 C6 1_555 1_555
C7 C8 1_555 1_555
C11 C12 1_555 1_555
C15 C16 1_555 1_555
C21 C22 1_555 1_555

#END
