
#######################################################################
#
#                 Cambridge Crystallographic Data Centre
#                                CCDC 
#
#######################################################################
#
# If this CIF has been generated from an entry in the Cambridge 
# Structural Database, then it will include bibliographic, chemical, 
# crystal, experimental, refinement or atomic coordinate data resulting 
# from the CCDC's data processing and validation procedures.
#
#######################################################################

data_ANIVEZ
_chemical_formula_moiety         'C15 H12 F1 N1 O3'
_chemical_name_systematic        
N-(4-Fluorophenyl)-2,3-dihydro-1,4-benzodioxine-6-carboxamide
_symmetry_cell_setting           monoclinic
_symmetry_space_group_name_H-M   'P 21/n'
_symmetry_Int_Tables_number      14
_space_group_name_Hall           '-P 2yn'
loop_
_symmetry_equiv_pos_site_id
_symmetry_equiv_pos_as_xyz
1 x,y,z
2 1/2-x,1/2+y,1/2-z
3 -x,-y,-z
4 1/2+x,1/2-y,1/2+z
_cell_length_a                   5.1970(10)
_cell_length_b                   8.0400(16)
_cell_length_c                   29.784(6)
_cell_angle_alpha                90
_cell_angle_beta                 92.53(3)
_cell_angle_gamma                90
_cell_volume                     1243.28
_cell_formula_units_Z            4
loop_
_atom_site_label
_atom_site_type_symbol
_atom_site_fract_x
_atom_site_fract_y
_atom_site_fract_z
F1 F 0.7373(3) 0.3204(2) 1.18114(5)
N1 N 0.6819(4) 0.2465(3) 0.99719(6)
H1 H 0.5288 0.2486 0.9850
O1 O 0.6250(3) 0.2048(2) 0.78343(5)
O2 O 1.0608(3) 0.0312(2) 0.82087(5)
O3 O 1.1053(3) 0.2153(3) 0.98295(5)
C1 C 1.0225(5) 0.0599(4) 0.77382(8)
H2 H 1.0998 -0.0302 0.7574
H3 H 1.1079 0.1624 0.7659
C2 C 0.7451(5) 0.0716(4) 0.76036(9)
H4 H 0.7259 0.0899 0.7282
H5 H 0.6605 -0.0323 0.7672
C3 C 0.6900(4) 0.2086(3) 0.82853(7)
C4 C 0.9048(4) 0.1246(3) 0.84675(7)
C5 C 0.5381(4) 0.2997(3) 0.85617(8)
H6 H 0.3974 0.3580 0.8439
C6 C 0.5917(4) 0.3056(3) 0.90181(8)
H7 H 0.4862 0.3662 0.9202
C7 C 0.8049(4) 0.2204(3) 0.92044(7)
C8 C 0.9611(4) 0.1315(3) 0.89243(7)
H8 H 1.1050 0.0761 0.9045
C9 C 0.8803(4) 0.2273(3) 0.96926(8)
C10 C 0.7057(4) 0.2634(3) 1.04432(7)
C11 C 0.5209(4) 0.1910(3) 1.07011(8)
H9 H 0.3885 0.1294 1.0562
C12 C 0.5308(5) 0.2092(3) 1.11599(8)
H10 H 0.4063 0.1610 1.1333
C13 C 0.7283(5) 0.2998(3) 1.13567(8)
C14 C 0.9133(5) 0.3731(3) 1.11127(8)
H11 H 1.0449 0.4344 1.1255
C15 C 0.9021(4) 0.3549(3) 1.06533(8)
H12 H 1.0269 0.4043 1.0483
loop_
_geom_bond_atom_site_label_1
_geom_bond_atom_site_label_2
_geom_bond_site_symmetry_1
_geom_bond_site_symmetry_2
F1 C13 1_555 1_555
N1 H1 1_555 1_555
O1 C2 1_555 1_555
O2 C1 1_555 1_555
O3 C9 1_555 1_555
C1 H2 1_555 1_555
H3 C1 1_555 1_555
C2 C1 1_555 1_555
H4 C2 1_555 1_555
H5 C2 1_555 1_555
C3 O1 1_555 1_555
C4 O2 1_555 1_555
C5 C3 1_555 1_555
H6 C5 1_555 1_555
C6 C5 1_555 1_555
H7 C6 1_555 1_555
C7 C6 1_555 1_555
C8 C4 1_555 1_555
H8 C8 1_555 1_555
C9 N1 1_555 1_555
C10 N1 1_555 1_555
C11 C10 1_555 1_555
H9 C11 1_555 1_555
C12 C11 1_555 1_555
H10 C12 1_555 1_555
C13 C12 1_555 1_555
C14 C13 1_555 1_555
H11 C14 1_555 1_555
C15 C10 1_555 1_555
H12 C15 1_555 1_555
C3 C4 1_555 1_555
C7 C8 1_555 1_555
C7 C9 1_555 1_555
C14 C15 1_555 1_555

#END
