
#######################################################################
#
#                 Cambridge Crystallographic Data Centre
#                                CCDC 
#
#######################################################################
#
# If this CIF has been generated from an entry in the Cambridge 
# Structural Database, then it will include bibliographic, chemical, 
# crystal, experimental, refinement or atomic coordinate data resulting 
# from the CCDC's data processing and validation procedures.
#
#######################################################################

data_ANIWUR
_chemical_formula_moiety         'C19 H15 Br1 F3 N1 O4'
_chemical_name_systematic        
2-(6-bromo-3-methyl-3-nitro-2-(trifluoromethyl)-3,4-dihydro-2H-chromen-4-yl)-1-phenylethanone
_symmetry_cell_setting           orthorhombic
_symmetry_space_group_name_H-M   'P 21 21 21'
_symmetry_Int_Tables_number      19
_space_group_name_Hall           'P 2ac 2ab'
loop_
_symmetry_equiv_pos_site_id
_symmetry_equiv_pos_as_xyz
1 x,y,z
2 1/2-x,-y,1/2+z
3 -x,1/2+y,1/2-z
4 1/2+x,1/2-y,-z
_cell_length_a                   8.3159(7)
_cell_length_b                   9.4678(7)
_cell_length_c                   23.6499(18)
_cell_angle_alpha                90
_cell_angle_beta                 90
_cell_angle_gamma                90
_cell_volume                     1862.03
_exptl_crystal_colour            colorless
_exptl_crystal_description       block
_cell_formula_units_Z            4
loop_
_atom_site_label
_atom_site_type_symbol
_atom_site_fract_x
_atom_site_fract_y
_atom_site_fract_z
Br1 Br 0.79612(4) 0.00993(4) 0.901544(15)
O1 O 0.2086(3) 0.3788(3) 0.91326(8)
O2 O 0.2025(3) 0.5898(2) 0.75990(10)
O3 O 0.0337(3) 0.4360(3) 0.72867(10)
O4 O 0.6357(3) 0.4293(2) 0.74229(10)
C1 C 0.6126(3) 0.1283(3) 0.90441(13)
C2 C 0.5327(4) 0.1457(4) 0.95457(13)
H1 H 0.5687 0.1005 0.9871
C3 C 0.3982(5) 0.2311(4) 0.95639(13)
H2 H 0.3427 0.2433 0.9902
C4 C 0.3463(3) 0.2983(3) 0.90791(13)
C5 C 0.4251(3) 0.2800(3) 0.85613(11)
C6 C 0.5607(4) 0.1952(3) 0.85543(12)
H3 H 0.6175 0.1829 0.8219
C7 C 0.1573(3) 0.4612(3) 0.86675(11)
H4 H 0.2237 0.5466 0.8649
C8 C 0.1796(3) 0.3778(3) 0.81144(11)
C9 C 0.3629(3) 0.3554(3) 0.80405(11)
H5 H 0.4128 0.4492 0.8034
C10 C -0.0135(4) 0.5039(4) 0.88163(14)
C11 C 0.0832(4) 0.2427(3) 0.80847(14)
H6 H -0.0293 0.2650 0.8064
H7 H 0.1035 0.1870 0.8416
H8 H 0.1141 0.1903 0.7755
C12 C 0.4020(3) 0.2840(3) 0.74743(11)
H9 H 0.4189 0.1839 0.7539
H10 H 0.3103 0.2939 0.7224
C13 C 0.5498(4) 0.3447(3) 0.71836(12)
C14 C 0.5815(4) 0.3028(3) 0.65836(13)
C15 C 0.4870(4) 0.2050(4) 0.63020(14)
H11 H 0.4018 0.1612 0.6487
C16 C 0.7101(5) 0.3648(4) 0.63076(15)
H12 H 0.7763 0.4280 0.6499
C17 C 0.5207(6) 0.1725(5) 0.57364(16)
H13 H 0.4586 0.1065 0.5544
C18 C 0.6471(7) 0.2394(6) 0.54667(16)
H14 H 0.6680 0.2197 0.5089
C19 C 0.7400(7) 0.3326(5) 0.57450(18)
H15 H 0.8252 0.3759 0.5558
F1 F -0.0163(3) 0.5862(3) 0.92709(9)
F2 F -0.1090(3) 0.3966(3) 0.89344(12)
F3 F -0.0798(3) 0.5768(3) 0.83976(10)
N1 N 0.1327(3) 0.4761(3) 0.76276(10)
loop_
_geom_bond_atom_site_label_1
_geom_bond_atom_site_label_2
_geom_bond_site_symmetry_1
_geom_bond_site_symmetry_2
Br1 C1 1_555 1_555
O1 C4 1_555 1_555
O2 N1 1_555 1_555
O3 N1 1_555 1_555
O4 C13 1_555 1_555
C1 C2 1_555 1_555
C2 H1 1_555 1_555
C3 C2 1_555 1_555
H2 C3 1_555 1_555
C4 C3 1_555 1_555
C5 C4 1_555 1_555
C6 C1 1_555 1_555
H3 C6 1_555 1_555
C7 O1 1_555 1_555
H4 C7 1_555 1_555
C8 C7 1_555 1_555
C9 C5 1_555 1_555
H5 C9 1_555 1_555
C10 C7 1_555 1_555
C11 C8 1_555 1_555
H6 C11 1_555 1_555
H7 C11 1_555 1_555
H8 C11 1_555 1_555
C12 C9 1_555 1_555
H9 C12 1_555 1_555
H10 C12 1_555 1_555
C13 C12 1_555 1_555
C14 C13 1_555 1_555
C15 C14 1_555 1_555
H11 C15 1_555 1_555
C16 C14 1_555 1_555
H12 C16 1_555 1_555
C17 C15 1_555 1_555
H13 C17 1_555 1_555
C18 C17 1_555 1_555
H14 C18 1_555 1_555
C19 C16 1_555 1_555
H15 C19 1_555 1_555
F1 C10 1_555 1_555
F2 C10 1_555 1_555
F3 C10 1_555 1_555
N1 C8 1_555 1_555
C5 C6 1_555 1_555
C8 C9 1_555 1_555
C18 C19 1_555 1_555

#END
