
#######################################################################
#
#                 Cambridge Crystallographic Data Centre
#                                CCDC 
#
#######################################################################
#
# If this CIF has been generated from an entry in the Cambridge 
# Structural Database, then it will include bibliographic, chemical, 
# crystal, experimental, refinement or atomic coordinate data resulting 
# from the CCDC's data processing and validation procedures.
#
#######################################################################

data_ANIXEB
_chemical_name_common            
4-(cyclohexyl(phenyl)amino)-6-morpholino-1,3,5-triazine-2-carbonitrile
_chemical_formula_moiety         'C20 H24 N6 O1'
_chemical_name_systematic        
4-(Cyclohexyl(phenyl)amino)-6-(morpholin-4-yl)-1,3,5-triazine-2-carbonitrile
_symmetry_cell_setting           orthorhombic
_symmetry_space_group_name_H-M   'P c a 21'
_symmetry_Int_Tables_number      29
_space_group_name_Hall           'P 2c -2ac'
loop_
_symmetry_equiv_pos_site_id
_symmetry_equiv_pos_as_xyz
1 x,y,z
2 -x,-y,1/2+z
3 1/2-x,y,1/2+z
4 1/2+x,-y,z
_cell_length_a                   21.9483(6)
_cell_length_b                   9.9829(2)
_cell_length_c                   9.0538(3)
_cell_angle_alpha                90
_cell_angle_beta                 90
_cell_angle_gamma                90
_cell_volume                     1983.76
_exptl_crystal_colour            colorless
_exptl_crystal_description       plate
_cell_formula_units_Z            4
loop_
_atom_site_label
_atom_site_type_symbol
_atom_site_fract_x
_atom_site_fract_y
_atom_site_fract_z
O1 O 0.5049(2) 0.4848(6) 0.3388(16)
N1 N 0.37479(8) 0.87282(18) 0.3990(8)
N2 N 0.26730(9) 0.91366(17) 0.3991(9)
N3 N 0.30510(7) 0.68862(16) 0.4004(7)
N4 N 0.40854(8) 0.65368(18) 0.3982(8)
N5 N 0.20187(8) 0.73129(18) 0.3993(9)
N6 N 0.34550(14) 1.2043(2) 0.4064(13)
C1 C 0.32519(11) 0.9477(2) 0.4005(9)
C2 C 0.25975(10) 0.7778(2) 0.3959(8)
C3 C 0.36140(9) 0.7391(2) 0.3989(7)
C4 C 0.4709(4) 0.7040(11) 0.3605(17)
C5 C 0.5105(4) 0.6220(11) 0.3171(16)
C6 C 0.4426(3) 0.4449(9) 0.3046(17)
C7 C 0.4007(4) 0.5104(8) 0.389(3)
C8 C 0.1480(6) 0.8291(16) 0.4257(15)
C9 C 0.0952(4) 0.7660(12) 0.5030(14)
C10 C 0.0432(6) 0.8722(14) 0.5141(14)
C11 C 0.0263(4) 0.9118(10) 0.3612(17)
C12 C 0.0786(4) 0.9606(10) 0.2650(14)
C13 C 0.1332(5) 0.8647(12) 0.2640(12)
C14 C 0.19263(9) 0.5880(2) 0.3979(8)
C15 C 0.1886(3) 0.5214(5) 0.5296(6)
C16 C 0.1836(3) 0.3831(7) 0.5299(7)
C17 C 0.18155(12) 0.3132(2) 0.4016(11)
C18 C 0.1833(3) 0.3802(6) 0.2667(7)
C19 C 0.1891(3) 0.5190(5) 0.2652(5)
C20 C 0.33640(13) 1.0936(3) 0.3966(11)
H1 H 0.4658 0.7792 0.2756
H2 H 0.4888 0.7539 0.4571
H3 H 0.5530 0.6517 0.3673
H4 H 0.5156 0.6372 0.1996
H5 H 0.4335 0.4650 0.1894
H6 H 0.4379 0.3384 0.3219
H7 H 0.4022 0.4695 0.4992
H8 H 0.3559 0.4901 0.3446
H9 H 0.1633 0.9167 0.4849
H10 H 0.1086 0.7336 0.6121
H11 H 0.0796 0.6797 0.4419
H12 H 0.0043 0.8302 0.5704
H13 H 0.0587 0.9585 0.5754
H14 H -0.0075 0.9903 0.3673
H15 H 0.0053 0.8269 0.3076
H16 H 0.0935 1.0573 0.3044
H17 H 0.0624 0.9731 0.1532
H18 H 0.1720 0.9122 0.2124
H19 H 0.1222 0.7752 0.2026
H20 H 0.1893 0.5712 0.6229
H21 H 0.1816 0.3351 0.6241
H22 H 0.1788 0.2153 0.4038
H23 H 0.1805 0.3301 0.1738
H24 H 0.1907 0.5676 0.1712
C21? C 0.1508(6) 0.8210(19) 0.3719(14)
C22? C 0.1331(5) 0.8661(9) 0.5297(10)
C23? C 0.0818(5) 0.9720(11) 0.5308(12)
C24? C 0.0275(5) 0.9086(11) 0.4592(13)
C25? C 0.0406(7) 0.8690(15) 0.2983(13)
C26? C 0.0932(5) 0.7686(9) 0.2964(11)
C27? C 0.4727(7) 0.6869(13) 0.4184(10)
C28? C 0.5104(6) 0.6223(15) 0.4932(14)
C29? C 0.4420(6) 0.4440(13) 0.4975(14)
C30? C 0.4001(9) 0.5041(16) 0.400(3)
H25? H 0.1671 0.9071 0.3114
H26? H 0.1184 0.7798 0.5921
H27? H 0.1728 0.9071 0.5837
H28? H 0.0712 1.0012 0.6427
H29? H 0.0957 1.0600 0.4700
H30? H -0.0103 0.9779 0.4619
H31? H 0.0145 0.8205 0.5209
H32? H 0.0005 0.8245 0.2495
H33? H 0.0526 0.9567 0.2349
H34? H 0.1038 0.7438 0.1832
H35? H 0.0788 0.6778 0.3510
H36? H 0.4918 0.6931 0.3087
H37? H 0.4735 0.7875 0.4621
H38? H 0.5051 0.6489 0.6081
H39? H 0.5559 0.6507 0.4598
H40? H 0.4295 0.4718 0.6087
H41? H 0.4370 0.3367 0.4888
H42? H 0.3542 0.4804 0.4338
H43? H 0.4068 0.4649 0.2896
O2? O 0.5038(5) 0.4752(10) 0.4776(13)
loop_
_geom_bond_atom_site_label_1
_geom_bond_atom_site_label_2
_geom_bond_site_symmetry_1
_geom_bond_site_symmetry_2
O1 C5 1_555 1_555
N1 C1 1_555 1_555
N2 C1 1_555 1_555
N3 C2 1_555 1_555
N4 C3 1_555 1_555
N5 C2 1_555 1_555
N6 C20 1_555 1_555
C1 C20 1_555 1_555
C2 N2 1_555 1_555
C3 N1 1_555 1_555
C4 N4 1_555 1_555
C5 C4 1_555 1_555
C6 O1 1_555 1_555
C7 N4 1_555 1_555
C8 N5 1_555 1_555
C9 C8 1_555 1_555
C10 C9 1_555 1_555
C11 C10 1_555 1_555
C12 C11 1_555 1_555
C13 C8 1_555 1_555
C14 N5 1_555 1_555
C15 C14 1_555 1_555
C16 C15 1_555 1_555
C17 C16 1_555 1_555
C18 C17 1_555 1_555
C19 C14 1_555 1_555
H1 C4 1_555 1_555
H2 C4 1_555 1_555
H3 C5 1_555 1_555
H4 C5 1_555 1_555
H5 C6 1_555 1_555
H6 C6 1_555 1_555
H7 C7 1_555 1_555
H8 C7 1_555 1_555
H9 C8 1_555 1_555
H10 C9 1_555 1_555
H11 C9 1_555 1_555
H12 C10 1_555 1_555
H13 C10 1_555 1_555
H14 C11 1_555 1_555
H15 C11 1_555 1_555
H16 C12 1_555 1_555
H17 C12 1_555 1_555
H18 C13 1_555 1_555
H19 C13 1_555 1_555
H20 C15 1_555 1_555
H21 C16 1_555 1_555
H22 C17 1_555 1_555
H23 C18 1_555 1_555
H24 C19 1_555 1_555
N3 C3 1_555 1_555
C6 C7 1_555 1_555
C12 C13 1_555 1_555
C18 C19 1_555 1_555

#END
