
#######################################################################
#
#                 Cambridge Crystallographic Data Centre
#                                CCDC 
#
#######################################################################
#
# If this CIF has been generated from an entry in the Cambridge 
# Structural Database, then it will include bibliographic, chemical, 
# crystal, experimental, refinement or atomic coordinate data resulting 
# from the CCDC's data processing and validation procedures.
#
#######################################################################

data_ANIXIF
_chemical_formula_moiety         'C20 H18 N6 O1,0.5(C1 H1 Cl3)'
_chemical_name_systematic        
'4-(Diphenylamino)-6-(morpholin-4-yl)-1,3,5-triazine-2-carbonitrile chloroform solvate'
_symmetry_cell_setting           triclinic
_symmetry_space_group_name_H-M   'P -1'
_symmetry_Int_Tables_number      2
_space_group_name_Hall           '-P 1'
loop_
_symmetry_equiv_pos_site_id
_symmetry_equiv_pos_as_xyz
1 x,y,z
2 -x,-y,-z
_cell_length_a                   9.5175(2)
_cell_length_b                   11.8720(2)
_cell_length_c                   17.7950(4)
_cell_angle_alpha                87.1979(7)
_cell_angle_beta                 80.0541(7)
_cell_angle_gamma                84.8364(8)
_cell_volume                     1971.29
_exptl_crystal_colour            colorless
_exptl_crystal_description       cube
_cell_formula_units_Z            4
loop_
_atom_site_label
_atom_site_type_symbol
_atom_site_fract_x
_atom_site_fract_y
_atom_site_fract_z
O1 O -0.62770(12) 1.44440(9) 0.44125(7)
N1 N -0.43571(13) 1.09336(10) 0.55907(7)
N2 N -0.26718(13) 0.93788(10) 0.51449(7)
N3 N -0.28420(13) 1.10790(10) 0.43687(7)
N4 N -0.44076(15) 0.88326(11) 0.69461(8)
N5 N -0.12590(13) 0.95508(10) 0.39534(7)
N6 N -0.45277(13) 1.25282(10) 0.48007(7)
C1 C -0.36774(15) 0.99197(12) 0.56430(8)
C2 C -0.23004(15) 1.00271(12) 0.45007(9)
C3 C -0.38870(15) 1.14960(12) 0.49204(8)
C4 C -0.40924(15) 0.92964(12) 0.63703(9)
C5 C -0.07572(16) 1.01399(12) 0.32428(9)
C6 C -0.16843(17) 1.05795(13) 0.27571(9)
C7 C -0.11268(18) 1.10928(14) 0.20671(9)
C8 C 0.03342(19) 1.11614(15) 0.18529(10)
C9 C 0.12567(19) 1.07078(17) 0.23344(11)
C10 C 0.07199(18) 1.01943(15) 0.30296(10)
C11 C -0.06041(15) 0.84203(12) 0.40552(9)
C12 C -0.07470(16) 0.76149(13) 0.35392(9)
C13 C -0.00588(17) 0.65354(14) 0.35866(10)
C14 C 0.07663(17) 0.62646(14) 0.41557(10)
C15 C 0.08914(17) 0.70756(15) 0.46704(10)
C16 C 0.02130(16) 0.81524(14) 0.46261(9)
C17 C -0.55870(17) 1.31024(13) 0.53888(9)
C18 C -0.68017(18) 1.36800(14) 0.50218(10)
C19 C -0.53316(17) 1.38408(13) 0.38337(9)
C20 C -0.40489(16) 1.32472(13) 0.41297(9)
H2 H -0.268(2) 1.0536(15) 0.2928(11)
H3 H -0.176(2) 1.1454(16) 0.1725(12)
H4 H 0.072(2) 1.1477(18) 0.1388(13)
H5 H 0.224(2) 1.0768(17) 0.2223(12)
H6 H 0.136(2) 0.9908(16) 0.3391(12)
H7 H -0.127(2) 0.7805(15) 0.3137(11)
H8 H -0.0130(18) 0.5954(15) 0.3232(11)
H9 H 0.126(2) 0.551(2) 0.4172(14)
H10 H 0.146(2) 0.6885(17) 0.5062(13)
H11 H 0.028(2) 0.8692(16) 0.4996(12)
H12 H -0.596(2) 1.2538(16) 0.5764(12)
H13 H -0.5126(19) 1.3680(16) 0.5639(11)
H14 H -0.746(2) 1.4140(16) 0.5365(11)
H15 H -0.734(2) 1.3101(17) 0.4847(12)
H16 H -0.502(2) 1.4399(16) 0.3426(11)
H17 H -0.585(2) 1.3274(16) 0.3631(12)
H18 H -0.348(2) 1.2785(16) 0.3742(12)
H19 H -0.346(2) 1.3857(16) 0.4278(11)
O2 O 0.35077(12) 0.94765(9) -0.04955(7)
N7 N 0.55560(13) 0.59534(10) 0.06430(7)
N8 N 0.72604(13) 0.44415(10) 0.01410(7)
N9 N 0.70015(13) 0.61738(10) -0.05921(7)
N10 N 0.56406(14) 0.37262(11) 0.19186(8)
N11 N 0.86404(13) 0.47129(10) -0.10520(7)
N12 N 0.52937(13) 0.75756(10) -0.01205(7)
C21 C 0.62630(15) 0.49393(12) 0.06600(8)
C22 C 0.75955(15) 0.51293(12) -0.04890(8)
C23 C 0.59683(15) 0.65485(12) -0.00243(8)
C24 C 0.58986(15) 0.42598(12) 0.13667(9)
C25 C 0.93926(15) 0.36131(12) -0.09791(9)
C26 C 0.93592(16) 0.28307(13) -0.15288(9)
C27 C 1.01419(18) 0.17868(13) -0.15054(9)
C28 C 1.09490(17) 0.15219(14) -0.09292(10)
C29 C 1.09679(16) 0.23081(14) -0.03807(10)
C30 C 1.01978(16) 0.33547(13) -0.04014(9)
C31 C 0.91125(15) 0.53773(12) -0.17357(9)
C32 C 1.05347(16) 0.56099(13) -0.18874(9)
C33 C 1.10556(18) 0.62086(15) -0.25575(10)
C34 C 1.01405(18) 0.65774(14) -0.30659(10)
C35 C 0.87198(18) 0.63462(14) -0.29025(10)
C36 C 0.81893(17) 0.57399(13) -0.22423(9)
C37 C 0.41835(17) 0.80933(13) 0.04669(9)
C38 C 0.29804(17) 0.86756(14) 0.00871(10)
C39 C 0.44968(18) 0.89100(13) -0.10790(10)
C40 C 0.57777(16) 0.83379(12) -0.07705(9)
H20 H 0.8842(18) 0.3010(14) -0.1940(10)
H21 H 1.0086(19) 0.1253(15) -0.1887(11)
H22 H 1.1503(19) 0.0808(16) -0.0927(11)
H23 H 1.153(2) 0.2188(17) -0.0004(13)
H24 H 1.018(2) 0.3874(17) -0.0005(12)
H25 H 1.114(2) 0.5373(15) -0.1496(11)
H26 H 1.207(2) 0.6327(17) -0.2672(13)
H27 H 1.052(2) 0.7003(17) -0.3509(13)
H28 H 0.808(2) 0.6642(16) -0.3268(12)
H29 H 0.718(2) 0.5563(16) -0.2108(11)
H30 H 0.380(2) 0.7526(15) 0.0829(11)
H31 H 0.4623(19) 0.8659(15) 0.0747(11)
H32 H 0.248(2) 0.8086(17) -0.0129(12)
H33 H 0.228(2) 0.9089(16) 0.0452(12)
H34 H 0.482(2) 0.9490(17) -0.1457(12)
H35 H 0.401(2) 0.8316(18) -0.1277(12)
H36 H 0.633(2) 0.8961(15) -0.0597(11)
H37 H 0.641(2) 0.7872(16) -0.1171(11)
Cl1 Cl 0.55583(7) 0.85579(4) 0.24035(3)
Cl2 Cl 0.36896(5) 0.67709(5) 0.28816(3)
Cl3 Cl 0.67734(5) 0.62638(4) 0.25807(3)
C41 C 0.5313(2) 0.71181(15) 0.23203(11)
H1 H 0.5299(19) 0.7040(15) 0.1814(12)
C42? C 0.4642(17) 0.7798(13) 0.2735(10)
Cl4? Cl 0.3200(4) 0.8646(3) 0.2445(2)
Cl5? Cl 0.6264(5) 0.8103(4) 0.2135(3)
Cl6? Cl 0.4382(7) 0.6370(5) 0.2655(3)
H38? H 0.4701 0.7962 0.3320
loop_
_geom_bond_atom_site_label_1
_geom_bond_atom_site_label_2
_geom_bond_site_symmetry_1
_geom_bond_site_symmetry_2
O1 C18 1_555 1_555
O2 C38 1_555 1_555
N1 C1 1_555 1_555
N2 C1 1_555 1_555
N3 C2 1_555 1_555
N4 C4 1_555 1_555
N5 C2 1_555 1_555
N6 C3 1_555 1_555
N7 C21 1_555 1_555
N8 C21 1_555 1_555
N9 C22 1_555 1_555
N10 C24 1_555 1_555
N11 C22 1_555 1_555
N12 C23 1_555 1_555
C1 C4 1_555 1_555
C2 N2 1_555 1_555
C3 N1 1_555 1_555
C5 N5 1_555 1_555
C6 C5 1_555 1_555
C7 C6 1_555 1_555
C8 C7 1_555 1_555
C9 C8 1_555 1_555
C10 C5 1_555 1_555
C11 N5 1_555 1_555
C12 C11 1_555 1_555
C13 C12 1_555 1_555
C14 C13 1_555 1_555
C15 C14 1_555 1_555
C16 C11 1_555 1_555
C17 N6 1_555 1_555
C18 C17 1_555 1_555
C19 O1 1_555 1_555
C20 N6 1_555 1_555
C21 C24 1_555 1_555
C22 N8 1_555 1_555
C23 N7 1_555 1_555
C25 N11 1_555 1_555
C26 C25 1_555 1_555
C27 C26 1_555 1_555
C28 C27 1_555 1_555
C29 C28 1_555 1_555
C30 C25 1_555 1_555
C31 N11 1_555 1_555
C32 C31 1_555 1_555
C33 C32 1_555 1_555
C34 C33 1_555 1_555
C35 C34 1_555 1_555
C36 C31 1_555 1_555
C37 N12 1_555 1_555
C38 C37 1_555 1_555
C39 O2 1_555 1_555
C40 N12 1_555 1_555
Cl1 C41 1_555 1_555
Cl2 C41 1_555 1_555
Cl3 C41 1_555 1_555
C41 H1 1_555 1_555
H2 C6 1_555 1_555
H3 C7 1_555 1_555
H4 C8 1_555 1_555
H5 C9 1_555 1_555
H6 C10 1_555 1_555
H7 C12 1_555 1_555
H8 C13 1_555 1_555
H9 C14 1_555 1_555
H10 C15 1_555 1_555
H11 C16 1_555 1_555
H12 C17 1_555 1_555
H13 C17 1_555 1_555
H14 C18 1_555 1_555
H15 C18 1_555 1_555
H16 C19 1_555 1_555
H17 C19 1_555 1_555
H18 C20 1_555 1_555
H19 C20 1_555 1_555
H20 C26 1_555 1_555
H21 C27 1_555 1_555
H22 C28 1_555 1_555
H23 C29 1_555 1_555
H24 C30 1_555 1_555
H25 C32 1_555 1_555
H26 C33 1_555 1_555
H27 C34 1_555 1_555
H28 C35 1_555 1_555
H29 C36 1_555 1_555
H30 C37 1_555 1_555
H31 C37 1_555 1_555
H32 C38 1_555 1_555
H33 C38 1_555 1_555
H34 C39 1_555 1_555
H35 C39 1_555 1_555
H36 C40 1_555 1_555
H37 C40 1_555 1_555
N3 C3 1_555 1_555
N9 C23 1_555 1_555
C9 C10 1_555 1_555
C15 C16 1_555 1_555
C19 C20 1_555 1_555
C29 C30 1_555 1_555
C35 C36 1_555 1_555
C39 C40 1_555 1_555

#END
