
#######################################################################
#
#                 Cambridge Crystallographic Data Centre
#                                CCDC 
#
#######################################################################
#
# If this CIF has been generated from an entry in the Cambridge 
# Structural Database, then it will include bibliographic, chemical, 
# crystal, experimental, refinement or atomic coordinate data resulting 
# from the CCDC's data processing and validation procedures.
#
#######################################################################

data_ANIXEC
_chemical_compound_source        'Icacina trichantha Oliv. (Icacinaceae)'
_chemical_name_common            icacintrichantholide
_chemical_formula_moiety         'C20 H18 O7'
_chemical_name_systematic        
16-hydroxy-4-methoxy-15-methyl-8,13,18-trioxahexacyclo[10.7.1.1^1,16^.0^2,10^.0^5,9^.0^15,20^]henicosa-2,4,6,9-tetraene-14,17-dione
_symmetry_cell_setting           orthorhombic
_symmetry_space_group_name_H-M   'P 21 21 21'
_symmetry_Int_Tables_number      19
_space_group_name_Hall           'P 2ac 2ab'
loop_
_symmetry_equiv_pos_site_id
_symmetry_equiv_pos_as_xyz
1 x,y,z
2 1/2+x,1/2-y,-z
3 -x,1/2+y,1/2-z
4 1/2-x,-y,1/2+z
_cell_length_a                   5.9680(9)
_cell_length_b                   10.5100(10)
_cell_length_c                   25.663(2)
_cell_angle_alpha                90
_cell_angle_beta                 90
_cell_angle_gamma                90
_cell_volume                     1609.68
_exptl_crystal_colour            colorless
_exptl_crystal_description       needle
_cell_formula_units_Z            4
loop_
_atom_site_label
_atom_site_type_symbol
_atom_site_fract_x
_atom_site_fract_y
_atom_site_fract_z
C1 C 0.1853(4) 0.28797(19) 0.30484(7)
H1 H 0.0357 0.3077 0.3194
H2 H 0.1707 0.2218 0.2776
C2 C 0.5030(4) 0.3651(2) 0.25063(8)
O1 O 0.5475(3) 0.40293(15) 0.20792(6)
C3 C 0.3050(4) 0.40924(19) 0.28394(7)
O2 O 0.1736(3) 0.48791(15) 0.25255(6)
H3 H 0.0506 0.5019 0.2674
C4 C 0.4027(4) 0.4764(2) 0.33527(8)
C5 C 0.3017(4) 0.60761(19) 0.34565(8)
H4 H 0.1383 0.6004 0.3480
H5 H 0.3413 0.6653 0.3171
H6 H 0.3608 0.6412 0.3785
C6 C 0.3659(4) 0.3763(2) 0.37746(7)
H7 H 0.2238 0.3930 0.3969
C7 C 0.5660(4) 0.3834(2) 0.41357(8)
H8 H 0.5364 0.4482 0.4413
O3 O 0.7462(3) 0.43022(16) 0.37894(6)
C8 C 0.6571(4) 0.4896(2) 0.33683(8)
O4 O 0.7734(3) 0.54744(16) 0.30631(6)
C9 C 0.6269(4) 0.2553(2) 0.43939(9)
H9 H 0.7728 0.2261 0.4255
H10 H 0.6447 0.2688 0.4773
C10 C 0.4527(4) 0.15170(19) 0.43044(8)
C11 C 0.3092(4) 0.14709(19) 0.38715(7)
C12 C 0.3516(4) 0.24928(19) 0.34723(8)
C13 C 0.1489(4) 0.05034(19) 0.37988(8)
H11 H 0.0540 0.0522 0.3502
C14 C 0.1288(4) -0.0478(2) 0.41586(8)
C15 C 0.2725(4) -0.0481(2) 0.45904(8)
C16 C 0.4265(4) 0.0501(2) 0.46481(7)
O5 O 0.5544(3) 0.03181(15) 0.50898(6)
C17 C 0.3106(5) -0.1338(2) 0.50227(8)
H12 H 0.2328 -0.2107 0.5096
C18 C 0.4788(5) -0.0822(2) 0.52997(8)
H13 H 0.5394 -0.1196 0.5606
C19 C 0.5652(4) 0.20440(19) 0.31876(7)
H14 H 0.6894 0.2029 0.3443
H15 H 0.5407 0.1157 0.3071
O6 O 0.6378(3) 0.27895(15) 0.27383(6)
O7 O -0.0180(3) -0.14678(16) 0.41294(6)
C20 C -0.1744(5) -0.1446(2) 0.37038(9)
H16 H -0.2630 -0.0662 0.3719
H17 H -0.2744 -0.2183 0.3729
H18 H -0.0924 -0.1479 0.3373
loop_
_geom_bond_atom_site_label_1
_geom_bond_atom_site_label_2
_geom_bond_site_symmetry_1
_geom_bond_site_symmetry_2
C1 H1 1_555 1_555
H2 C1 1_555 1_555
C2 O1 1_555 1_555
C3 C1 1_555 1_555
O2 C3 1_555 1_555
H3 O2 1_555 1_555
C4 C3 1_555 1_555
C5 C4 1_555 1_555
H4 C5 1_555 1_555
H5 C5 1_555 1_555
H6 C5 1_555 1_555
C6 C4 1_555 1_555
H7 C6 1_555 1_555
C7 C6 1_555 1_555
H8 C7 1_555 1_555
O3 C7 1_555 1_555
C8 C4 1_555 1_555
O4 C8 1_555 1_555
C9 C7 1_555 1_555
H9 C9 1_555 1_555
H10 C9 1_555 1_555
C10 C9 1_555 1_555
C11 C10 1_555 1_555
C12 C1 1_555 1_555
C13 C11 1_555 1_555
H11 C13 1_555 1_555
C14 C13 1_555 1_555
C15 C14 1_555 1_555
C16 C10 1_555 1_555
O5 C16 1_555 1_555
C17 C15 1_555 1_555
H12 C17 1_555 1_555
C18 O5 1_555 1_555
H13 C18 1_555 1_555
C19 C12 1_555 1_555
H14 C19 1_555 1_555
H15 C19 1_555 1_555
O6 C2 1_555 1_555
O7 C14 1_555 1_555
C20 O7 1_555 1_555
H16 C20 1_555 1_555
H17 C20 1_555 1_555
H18 C20 1_555 1_555
C2 C3 1_555 1_555
C6 C12 1_555 1_555
O3 C8 1_555 1_555
C11 C12 1_555 1_555
C15 C16 1_555 1_555
C17 C18 1_555 1_555
C19 O6 1_555 1_555

#END
