
#######################################################################
#
#                 Cambridge Crystallographic Data Centre
#                                CCDC 
#
#######################################################################
#
# If this CIF has been generated from an entry in the Cambridge 
# Structural Database, then it will include bibliographic, chemical, 
# crystal, experimental, refinement or atomic coordinate data resulting 
# from the CCDC's data processing and validation procedures.
#
#######################################################################

data_ANOGAM
_chemical_formula_moiety         'C21 H28 O1 S1'
_chemical_name_systematic        
3,3,6,7-Tetramethyl-8a-((phenylsulfanyl)methyl)-3,4,4a,5,8,8a-hexahydronaphthalen-1(2H)-one
_symmetry_cell_setting           monoclinic
_symmetry_space_group_name_H-M   'P 21/c'
_symmetry_Int_Tables_number      14
_space_group_name_Hall           '-P 2ybc'
loop_
_symmetry_equiv_pos_site_id
_symmetry_equiv_pos_as_xyz
1 x,y,z
2 -x,1/2+y,1/2-z
3 -x,-y,-z
4 x,1/2-y,1/2+z
_cell_length_a                   17.578(3)
_cell_length_b                   6.3654(10)
_cell_length_c                   17.405(3)
_cell_angle_alpha                90
_cell_angle_beta                 110.119(2)
_cell_angle_gamma                90
_cell_volume                     1828.63
_exptl_crystal_colour            colorless
_exptl_crystal_description       block
_cell_formula_units_Z            4
loop_
_atom_site_label
_atom_site_type_symbol
_atom_site_fract_x
_atom_site_fract_y
_atom_site_fract_z
S1 S 0.370372(15) 0.35676(4) 0.449587(16)
O1 O 0.29145(5) 0.70237(13) 0.28941(6)
C1 C 0.22381(5) 0.40942(14) 0.32604(6)
C2 C 0.27792(6) 0.51444(16) 0.28413(6)
C3 C 0.30906(6) 0.37095(18) 0.23271(7)
H1 H 0.3438 0.2612 0.2680
H2 H 0.3427 0.4529 0.2081
C4 C 0.23864(7) 0.26519(19) 0.16386(6)
C5 C 0.18119(6) 0.15942(16) 0.20181(6)
H3 H 0.1330 0.1072 0.1571
H4 H 0.2090 0.0363 0.2341
C6 C 0.15291(6) 0.30333(15) 0.25727(6)
H5 H 0.1206 0.4187 0.2219
C7 C 0.09669(6) 0.19062(16) 0.29414(6)
H6 H 0.0467 0.1482 0.2494
H7 H 0.1238 0.0612 0.3219
C8 C 0.07365(6) 0.32287(17) 0.35465(6)
C9 C 0.11360(6) 0.49864(16) 0.38644(6)
C10 C 0.18765(6) 0.57246(16) 0.36842(7)
H8 H 0.2298 0.6141 0.4205
H9 H 0.1729 0.6991 0.3334
C11 C 0.27374(6) 0.24341(15) 0.38827(6)
H10 H 0.2828 0.1183 0.3588
H11 H 0.2436 0.1987 0.4242
C12 C 0.41317(6) 0.16341(16) 0.52481(6)
C13 C 0.48218(6) 0.22354(19) 0.59001(7)
H12 H 0.5044 0.3599 0.5908
C14 C 0.51818(7) 0.0844(2) 0.65339(7)
H13 H 0.5654 0.1252 0.6971
C15 C 0.48568(7) -0.1140(2) 0.65336(8)
H14 H 0.5094 -0.2073 0.6978
C16 C 0.41845(7) -0.17539(19) 0.58809(8)
H15 H 0.3968 -0.3124 0.5874
C17 C 0.38234(6) -0.03840(17) 0.52351(7)
H16 H 0.3367 -0.0826 0.4786
C18 C 0.19400(8) 0.4310(3) 0.10029(8)
H17 H 0.1483 0.3651 0.0578
H18 H 0.2313 0.4912 0.0754
H19 H 0.1739 0.5425 0.1271
C19 C 0.27448(9) 0.0973(2) 0.12289(9)
H20 H 0.2311 0.0344 0.0770
H21 H 0.3008 -0.0121 0.1629
H22 H 0.3145 0.1622 0.1026
C20 C 0.00165(7) 0.2413(2) 0.37411(8)
H23 H -0.0020 0.3148 0.4222
H24 H 0.0082 0.0903 0.3855
H25 H -0.0480 0.2658 0.3273
C21 C 0.08796(8) 0.6442(2) 0.44189(9)
H26 H 0.0290 0.6629 0.4200
H27 H 0.1145 0.7807 0.4447
H28 H 0.1037 0.5830 0.4968
loop_
_geom_bond_atom_site_label_1
_geom_bond_atom_site_label_2
_geom_bond_site_symmetry_1
_geom_bond_site_symmetry_2
S1 C11 1_555 1_555
O1 C2 1_555 1_555
C1 C2 1_555 1_555
C2 C3 1_555 1_555
C3 H1 1_555 1_555
H2 C3 1_555 1_555
C4 C3 1_555 1_555
C5 C4 1_555 1_555
H3 C5 1_555 1_555
H4 C5 1_555 1_555
C6 C1 1_555 1_555
H5 C6 1_555 1_555
C7 C6 1_555 1_555
H6 C7 1_555 1_555
H7 C7 1_555 1_555
C8 C7 1_555 1_555
C9 C8 1_555 1_555
C10 C1 1_555 1_555
H8 C10 1_555 1_555
H9 C10 1_555 1_555
C11 C1 1_555 1_555
H10 C11 1_555 1_555
H11 C11 1_555 1_555
C12 S1 1_555 1_555
C13 C12 1_555 1_555
H12 C13 1_555 1_555
C14 C13 1_555 1_555
H13 C14 1_555 1_555
C15 C14 1_555 1_555
H14 C15 1_555 1_555
C16 C15 1_555 1_555
H15 C16 1_555 1_555
C17 C12 1_555 1_555
H16 C17 1_555 1_555
C18 C4 1_555 1_555
H17 C18 1_555 1_555
H18 C18 1_555 1_555
H19 C18 1_555 1_555
C19 C4 1_555 1_555
H20 C19 1_555 1_555
H21 C19 1_555 1_555
H22 C19 1_555 1_555
C20 C8 1_555 1_555
H23 C20 1_555 1_555
H24 C20 1_555 1_555
H25 C20 1_555 1_555
C21 C9 1_555 1_555
H26 C21 1_555 1_555
H27 C21 1_555 1_555
H28 C21 1_555 1_555
C5 C6 1_555 1_555
C9 C10 1_555 1_555
C16 C17 1_555 1_555

#END
