
#######################################################################
#
#                 Cambridge Crystallographic Data Centre
#                                CCDC 
#
#######################################################################
#
# If this CIF has been generated from an entry in the Cambridge 
# Structural Database, then it will include bibliographic, chemical, 
# crystal, experimental, refinement or atomic coordinate data resulting 
# from the CCDC's data processing and validation procedures.
#
#######################################################################

data_ANOHUH
_chemical_formula_moiety         'C39 H66 B1 Li1 N4,C7 H8'
_chemical_name_systematic        
"((1,3-bis(2,6-Di-isopropylphenyl)-2,3-dihydro-1H-imidazol-4-yl-2-ylidene)(triethyl)borate)-(N,N,N',N'-tetramethylethylene-1,2-diamine)-lithium toluene solvate"
_symmetry_cell_setting           orthorhombic
_symmetry_space_group_name_H-M   'P b c a'
_symmetry_Int_Tables_number      61
_space_group_name_Hall           '-P 2ac 2ab'
loop_
_symmetry_equiv_pos_site_id
_symmetry_equiv_pos_as_xyz
1 x,y,z
2 1/2-x,-y,1/2+z
3 -x,1/2+y,1/2-z
4 1/2+x,1/2-y,-z
5 -x,-y,-z
6 1/2+x,y,1/2-z
7 x,1/2-y,1/2+z
8 1/2-x,1/2+y,z
_cell_length_a                   13.430(2)
_cell_length_b                   20.533(3)
_cell_length_c                   34.121(5)
_cell_angle_alpha                90
_cell_angle_beta                 90
_cell_angle_gamma                90
_cell_volume                     9409.15
_exptl_crystal_colour            colorless
_exptl_crystal_description       plate
_cell_formula_units_Z            8
loop_
_atom_site_label
_atom_site_type_symbol
_atom_site_fract_x
_atom_site_fract_y
_atom_site_fract_z
Li1 Li 0.5331(4) 0.1512(3) 0.12877(16)
B1 B 0.0989(3) 0.1398(2) 0.09589(12)
N1 N 0.31900(18) 0.16867(11) 0.16541(7)
N2 N 0.30543(17) 0.14029(11) 0.10597(7)
C1 C 0.3757(2) 0.15354(14) 0.13392(9)
C2 C 0.2185(2) 0.16509(15) 0.15662(10)
H1 H 0.1673 0.1736 0.1742
C3 C 0.2057(2) 0.14742(15) 0.11867(9)
C4 C 0.3384(2) 0.12098(17) 0.06727(9)
C5 C 0.3619(2) 0.16968(17) 0.04061(9)
C6 C 0.3997(3) 0.1498(2) 0.00444(10)
H2 H 0.4181 0.1810 -0.0140
C7 C 0.4104(3) 0.0855(2) -0.00435(11)
H3 H 0.4353 0.0733 -0.0287
C8 C 0.3848(3) 0.0386(2) 0.02212(12)
H4 H 0.3923 -0.0051 0.0155
C9 C 0.3475(2) 0.05517(17) 0.05891(10)
C10 C 0.3190(3) 0.00300(18) 0.08802(11)
H5 H 0.2711 0.0222 0.1064
C11 C 0.4096(3) -0.01964(19) 0.11188(12)
H6 H 0.3891 -0.0519 0.1306
H7 H 0.4380 0.0169 0.1254
H8 H 0.4584 -0.0381 0.0946
C12 C 0.2689(4) -0.0562(2) 0.06897(14)
H9 H 0.2515 -0.0873 0.0889
H10 H 0.3140 -0.0760 0.0507
H11 H 0.2097 -0.0425 0.0555
C13 C 0.3477(3) 0.24147(17) 0.04938(10)
H12 H 0.3038 0.2447 0.0722
C14 C 0.4451(4) 0.2749(2) 0.05992(14)
H13 H 0.4326 0.3199 0.0657
H14 H 0.4904 0.2718 0.0382
H15 H 0.4738 0.2541 0.0824
C15 C 0.2962(3) 0.2773(2) 0.01531(11)
H16 H 0.2874 0.3223 0.0221
H17 H 0.2325 0.2578 0.0104
H18 H 0.3367 0.2741 -0.0078
C16 C 0.3572(2) 0.18598(18) 0.20323(9)
C17 C 0.3597(3) 0.25144(18) 0.21400(10)
C18 C 0.3988(3) 0.2665(2) 0.25070(12)
H19 H 0.4025 0.3097 0.2587
C19 C 0.4319(3) 0.2183(3) 0.27518(11)
H20 H 0.4578 0.2292 0.2996
C20 C 0.4274(3) 0.1544(2) 0.26416(10)
H21 H 0.4501 0.1225 0.2813
C21 C 0.3895(2) 0.13632(18) 0.22801(10)
C22 C 0.3796(3) 0.0649(2) 0.21724(11)
H22 H 0.3741 0.0631 0.1886
C23 C 0.2836(4) 0.0369(2) 0.23351(17)
H23 H 0.2285 0.0634 0.2253
H24 H 0.2867 0.0363 0.2616
H25 H 0.2748 -0.0066 0.2239
C24 C 0.4669(4) 0.0233(2) 0.22822(18)
H26 H 0.5265 0.0412 0.2170
H27 H 0.4569 -0.0201 0.2184
H28 H 0.4732 0.0220 0.2562
C25 C 0.3173(4) 0.3049(2) 0.18777(12)
H29 H 0.3066 0.2865 0.1616
C26 C 0.2165(4) 0.3277(2) 0.20360(15)
H30 H 0.1901 0.3609 0.1868
H31 H 0.2250 0.3450 0.2295
H32 H 0.1713 0.2915 0.2044
C27 C 0.3869(4) 0.3629(2) 0.18374(17)
H33 H 0.3575 0.3947 0.1667
H34 H 0.4493 0.3487 0.1730
H35 H 0.3980 0.3820 0.2091
C28 C 0.1077(12) 0.0924(8) 0.0574(4)
H36 H 0.1528 0.1118 0.0385
H37 H 0.1350 0.0506 0.0652
C29 C 0.0044(12) 0.0819(11) 0.0380(5)
H38 H 0.0076 0.0452 0.0206
H39 H -0.0137 0.1201 0.0235
H40 H -0.0445 0.0739 0.0580
C30 C 0.0134(10) 0.1180(8) 0.1259(3)
H41 H -0.0486 0.1123 0.1117
H42 H 0.0035 0.1521 0.1452
C31 C 0.0399(15) 0.0548(7) 0.1467(5)
H43 H -0.0098 0.0452 0.1661
H44 H 0.1036 0.0593 0.1592
H45 H 0.0428 0.0200 0.1280
C32 C 0.0689(11) 0.2129(5) 0.0781(4)
H46 H 0.1136 0.2223 0.0565
H47 H 0.0022 0.2100 0.0673
C33 C 0.0715(14) 0.2720(7) 0.1068(5)
H48 H 0.0385 0.3085 0.0949
H49 H 0.1394 0.2833 0.1123
H50 H 0.0382 0.2606 0.1307
N3 N 0.6447(2) 0.1923(2) 0.16349(11)
N4 N 0.6468(2) 0.11863(18) 0.09212(10)
C34 C 0.7364(10) 0.1763(16) 0.1457(6)
H51 H 0.7604 0.1355 0.1565
H52 H 0.7849 0.2098 0.1519
C35 C 0.7271(7) 0.1699(9) 0.1008(4)
H53 H 0.7903 0.1565 0.0897
H54 H 0.7085 0.2114 0.0894
C36 C 0.6508(17) 0.1519(12) 0.0548(7)
H55 H 0.5872 0.1487 0.0421
H56 H 0.7008 0.1321 0.0386
H57 H 0.6670 0.1969 0.0589
C37 C 0.6362(11) 0.0465(5) 0.0806(6)
H58 H 0.5796 0.0414 0.0636
H59 H 0.6271 0.0207 0.1037
H60 H 0.6952 0.0326 0.0671
C38 C 0.633(3) 0.2597(10) 0.1770(14)
H61 H 0.5705 0.2643 0.1903
H62 H 0.6348 0.2886 0.1548
H63 H 0.6864 0.2704 0.1946
C39 C 0.6518(19) 0.150(2) 0.1986(9)
H64 H 0.5906 0.1528 0.2131
H65 H 0.7057 0.1653 0.2148
H66 H 0.6638 0.1063 0.1908
C40 C 0.7197(7) 0.3948(4) 0.1011(3)
C41 C 0.6695(7) 0.4270(4) 0.1285(4)
H67 H 0.6062 0.4439 0.1243
C42 C 0.7180(12) 0.4332(5) 0.1631(4)
H68 H 0.6829 0.4549 0.1826
C43 C 0.8076(10) 0.4130(6) 0.1733(4)
H69 H 0.8354 0.4219 0.1977
C44 C 0.8565(8) 0.3776(4) 0.1448(4)
H70 H 0.9190 0.3601 0.1501
C45 C 0.8126(6) 0.3678(3) 0.1076(3)
H71 H 0.8450 0.3440 0.0882
C46 C 0.6729(6) 0.3869(4) 0.0636(2)
H72 H 0.7165 0.3633 0.0464
H73 H 0.6590 0.4289 0.0525
H74 H 0.6118 0.3632 0.0667
C47? C 0.0946(16) 0.1145(11) 0.0515(4)
C48? C -0.006(2) 0.1029(15) 0.0302(9)
C49? C 0.0376(12) 0.0913(9) 0.1264(6)
C50? C 0.0606(16) 0.0238(8) 0.1390(7)
C51? C 0.0308(9) 0.2062(6) 0.1035(5)
C52? C 0.0782(14) 0.2642(9) 0.0805(5)
C53? C 0.7346(9) 0.1877(11) 0.1369(6)
C54? C 0.7335(7) 0.1210(9) 0.1159(4)
C55? C 0.6276(17) 0.1209(15) 0.0516(8)
C56? C 0.686(2) 0.0580(10) 0.1065(9)
C57? C 0.620(3) 0.2616(8) 0.1587(14)
C58? C 0.654(2) 0.182(3) 0.2065(6)
H75? H 0.1320 0.1454 0.0358
H76? H 0.1310 0.0737 0.0507
H77? H 0.0062 0.0804 0.0060
H78? H -0.0370 0.1440 0.0249
H79? H -0.0486 0.0770 0.0465
H80? H 0.0322 0.1159 0.1505
H81? H -0.0294 0.0890 0.1158
H82? H 0.0102 0.0090 0.1569
H83? H 0.1242 0.0230 0.1518
H84? H 0.0621 -0.0043 0.1165
H85? H -0.0369 0.1990 0.0945
H86? H 0.0288 0.2162 0.1313
H87? H 0.0392 0.3028 0.0847
H88? H 0.0797 0.2541 0.0531
H89? H 0.1448 0.2714 0.0898
H90? H 0.7329 0.2226 0.1178
H91? H 0.7951 0.1921 0.1522
H92? H 0.7926 0.1162 0.0998
H93? H 0.7324 0.0860 0.1349
H94? H 0.6014 0.1629 0.0448
H95? H 0.5801 0.0878 0.0448
H96? H 0.6884 0.1136 0.0374
H97? H 0.6970 0.0613 0.1343
H98? H 0.7477 0.0486 0.0936
H99? H 0.6391 0.0237 0.1014
H100? H 0.5604 0.2713 0.1733
H101? H 0.6087 0.2709 0.1315
H102? H 0.6736 0.2879 0.1683
H103? H 0.6767 0.1381 0.2114
H104? H 0.5909 0.1883 0.2188
H105? H 0.7017 0.2120 0.2171
loop_
_geom_bond_atom_site_label_1
_geom_bond_atom_site_label_2
_geom_bond_site_symmetry_1
_geom_bond_site_symmetry_2
Li1 C1 1_555 1_555
B1 C3 1_555 1_555
N1 C1 1_555 1_555
N2 C1 1_555 1_555
C2 N1 1_555 1_555
H1 C2 1_555 1_555
C3 N2 1_555 1_555
C4 N2 1_555 1_555
C5 C4 1_555 1_555
C6 C5 1_555 1_555
H2 C6 1_555 1_555
C7 C6 1_555 1_555
H3 C7 1_555 1_555
C8 C7 1_555 1_555
H4 C8 1_555 1_555
C9 C4 1_555 1_555
C10 C9 1_555 1_555
H5 C10 1_555 1_555
C11 C10 1_555 1_555
H6 C11 1_555 1_555
H7 C11 1_555 1_555
H8 C11 1_555 1_555
C12 C10 1_555 1_555
H9 C12 1_555 1_555
H10 C12 1_555 1_555
H11 C12 1_555 1_555
C13 C5 1_555 1_555
H12 C13 1_555 1_555
C14 C13 1_555 1_555
H13 C14 1_555 1_555
H14 C14 1_555 1_555
H15 C14 1_555 1_555
C15 C13 1_555 1_555
H16 C15 1_555 1_555
H17 C15 1_555 1_555
H18 C15 1_555 1_555
C16 N1 1_555 1_555
C17 C16 1_555 1_555
C18 C17 1_555 1_555
H19 C18 1_555 1_555
C19 C18 1_555 1_555
H20 C19 1_555 1_555
C20 C19 1_555 1_555
H21 C20 1_555 1_555
C21 C16 1_555 1_555
C22 C21 1_555 1_555
H22 C22 1_555 1_555
C23 C22 1_555 1_555
H23 C23 1_555 1_555
H24 C23 1_555 1_555
H25 C23 1_555 1_555
C24 C22 1_555 1_555
H26 C24 1_555 1_555
H27 C24 1_555 1_555
H28 C24 1_555 1_555
C25 C17 1_555 1_555
H29 C25 1_555 1_555
C26 C25 1_555 1_555
H30 C26 1_555 1_555
H31 C26 1_555 1_555
H32 C26 1_555 1_555
C27 C25 1_555 1_555
H33 C27 1_555 1_555
H34 C27 1_555 1_555
H35 C27 1_555 1_555
C28 B1 1_555 1_555
H36 C28 1_555 1_555
H37 C28 1_555 1_555
C29 C28 1_555 1_555
H38 C29 1_555 1_555
H39 C29 1_555 1_555
H40 C29 1_555 1_555
C30 B1 1_555 1_555
H41 C30 1_555 1_555
H42 C30 1_555 1_555
C31 C30 1_555 1_555
H43 C31 1_555 1_555
H44 C31 1_555 1_555
H45 C31 1_555 1_555
C32 B1 1_555 1_555
H46 C32 1_555 1_555
H47 C32 1_555 1_555
C33 C32 1_555 1_555
H48 C33 1_555 1_555
H49 C33 1_555 1_555
H50 C33 1_555 1_555
N3 Li1 1_555 1_555
N4 Li1 1_555 1_555
C34 N3 1_555 1_555
H51 C34 1_555 1_555
H52 C34 1_555 1_555
C35 N4 1_555 1_555
H53 C35 1_555 1_555
H54 C35 1_555 1_555
C36 N4 1_555 1_555
H55 C36 1_555 1_555
H56 C36 1_555 1_555
H57 C36 1_555 1_555
C37 N4 1_555 1_555
H58 C37 1_555 1_555
H59 C37 1_555 1_555
H60 C37 1_555 1_555
C38 N3 1_555 1_555
H61 C38 1_555 1_555
H62 C38 1_555 1_555
H63 C38 1_555 1_555
C39 N3 1_555 1_555
H64 C39 1_555 1_555
H65 C39 1_555 1_555
H66 C39 1_555 1_555
C40 C41 1_555 1_555
C41 H67 1_555 1_555
C42 C41 1_555 1_555
H68 C42 1_555 1_555
C43 C42 1_555 1_555
H69 C43 1_555 1_555
C44 C43 1_555 1_555
H70 C44 1_555 1_555
C45 C40 1_555 1_555
H71 C45 1_555 1_555
C46 C40 1_555 1_555
H72 C46 1_555 1_555
H73 C46 1_555 1_555
H74 C46 1_555 1_555
C2 C3 1_555 1_555
C8 C9 1_555 1_555
C20 C21 1_555 1_555
C34 C35 1_555 1_555
C44 C45 1_555 1_555

#END
