
#######################################################################
#
#                 Cambridge Crystallographic Data Centre
#                                CCDC 
#
#######################################################################
#
# If this CIF has been generated from an entry in the Cambridge 
# Structural Database, then it will include bibliographic, chemical, 
# crystal, experimental, refinement or atomic coordinate data resulting 
# from the CCDC's data processing and validation procedures.
#
#######################################################################

data_ANOQEB
_chemical_formula_moiety         'C22 H20 Br1 N1'
_chemical_name_systematic        
6-bromo-3-methyl-2,4-diphenyl-1,2,3,4-tetrahydroquinoline
_symmetry_cell_setting           triclinic
_symmetry_space_group_name_H-M   'P 1'
_symmetry_Int_Tables_number      1
_space_group_name_Hall           'P 1'
loop_
_symmetry_equiv_pos_site_id
_symmetry_equiv_pos_as_xyz
1 x,y,z
_cell_length_a                   6.134(3)
_cell_length_b                   7.123(4)
_cell_length_c                   10.777(6)
_cell_angle_alpha                102.328(8)
_cell_angle_beta                 106.299(8)
_cell_angle_gamma                90.659(7)
_cell_volume                     440.246
_exptl_crystal_colour            colorless
_exptl_crystal_description       Plate
_cell_formula_units_Z            1
loop_
_atom_site_label
_atom_site_type_symbol
_atom_site_fract_x
_atom_site_fract_y
_atom_site_fract_z
Br1 Br -0.09878(2) -0.27976(2) 0.13338(2)
N1 N 0.6381(8) 0.2835(6) 0.5422(4)
H1 H 0.6276 0.3151 0.6218
C1 C 0.8279(8) 0.3666(7) 0.5105(5)
H2 H 0.9375 0.2687 0.5035
C2 C 0.7365(8) 0.4181(6) 0.3739(4)
H3 H 0.8669 0.4674 0.3515
C3 C 0.6347(8) 0.2297(7) 0.2694(4)
H4 H 0.7597 0.1447 0.2722
C4 C 0.4565(9) 0.1274(7) 0.3101(5)
C5 C 0.2836(8) -0.0026(7) 0.2174(5)
H5 H 0.2697 -0.0223 0.1273
C6 C 0.1332(8) -0.1017(6) 0.2605(5)
C7 C 0.1486(9) -0.0752(7) 0.3934(5)
H6 H 0.0458 -0.1422 0.4204
C8 C 0.3171(9) 0.0511(7) 0.4853(5)
H7 H 0.3284 0.0694 0.5750
C9 C 0.4727(9) 0.1531(7) 0.4455(5)
C10 C 0.9483(8) 0.5402(7) 0.6190(4)
C11 C 1.1643(9) 0.6081(7) 0.6243(5)
H8 H 1.2371 0.5437 0.5646
C12 C 1.2725(9) 0.7723(8) 0.7185(5)
H9 H 1.4157 0.8186 0.7198
C13 C 1.1695(10) 0.8671(8) 0.8101(6)
H10 H 1.2432 0.9760 0.8734
C14 C 0.9552(10) 0.7983(8) 0.8068(5)
H11 H 0.8847 0.8619 0.8680
C15 C 0.8451(9) 0.6353(7) 0.7130(5)
H12 H 0.7023 0.5891 0.7124
C16 C 0.5702(9) 0.5774(7) 0.3773(5)
H13 H 0.4274 0.5251 0.3804
H14 H 0.5466 0.6277 0.2990
H15 H 0.6327 0.6791 0.4545
C17 C 0.5607(8) 0.2632(6) 0.1291(5)
C18 C 0.7066(8) 0.2204(7) 0.0495(5)
H16 H 0.8399 0.1621 0.0803
C19 C 0.6557(9) 0.2634(7) -0.0749(5)
H17 H 0.7537 0.2321 -0.1270
C20 C 0.4592(10) 0.3530(8) -0.1219(6)
H18 H 0.4266 0.3855 -0.2040
C21 C 0.3120(10) 0.3932(8) -0.0438(6)
H19 H 0.1787 0.4514 -0.0748
C22 C 0.3610(8) 0.3480(7) 0.0796(5)
H20 H 0.2593 0.3745 0.1297
loop_
_geom_bond_atom_site_label_1
_geom_bond_atom_site_label_2
_geom_bond_site_symmetry_1
_geom_bond_site_symmetry_2
Br1 C6 1_555 1_555
N1 H1 1_555 1_555
C1 N1 1_555 1_555
H2 C1 1_555 1_555
C2 C1 1_555 1_555
H3 C2 1_555 1_555
C3 C2 1_555 1_555
H4 C3 1_555 1_555
C4 C3 1_555 1_555
C5 C4 1_555 1_555
H5 C5 1_555 1_555
C6 C5 1_555 1_555
C7 C6 1_555 1_555
H6 C7 1_555 1_555
C8 C7 1_555 1_555
H7 C8 1_555 1_555
C9 N1 1_555 1_555
C10 C1 1_555 1_555
C11 C10 1_555 1_555
H8 C11 1_555 1_555
C12 C11 1_555 1_555
H9 C12 1_555 1_555
C13 C12 1_555 1_555
H10 C13 1_555 1_555
C14 C13 1_555 1_555
H11 C14 1_555 1_555
C15 C10 1_555 1_555
H12 C15 1_555 1_555
C16 C2 1_555 1_555
H13 C16 1_555 1_555
H14 C16 1_555 1_555
H15 C16 1_555 1_555
C17 C3 1_555 1_555
C18 C17 1_555 1_555
H16 C18 1_555 1_555
C19 C18 1_555 1_555
H17 C19 1_555 1_555
C20 C19 1_555 1_555
H18 C20 1_555 1_555
C21 C20 1_555 1_555
H19 C21 1_555 1_555
C22 C17 1_555 1_555
H20 C22 1_555 1_555
C4 C9 1_555 1_555
C8 C9 1_555 1_555
C14 C15 1_555 1_555
C21 C22 1_555 1_555

#END
