
#######################################################################
#
#                 Cambridge Crystallographic Data Centre
#                                CCDC 
#
#######################################################################
#
# If this CIF has been generated from an entry in the Cambridge 
# Structural Database, then it will include bibliographic, chemical, 
# crystal, experimental, refinement or atomic coordinate data resulting 
# from the CCDC's data processing and validation procedures.
#
#######################################################################

data_ANORIG
_chemical_formula_moiety         'C24 H22 Br1 N1 O4 S1,0.25(H2 O1)'
_chemical_name_systematic        
'N-(1-bromo-1-(4-methoxyphenyl)-3-oxo-3-phenylprop-1-en-2-yl)-N,4-dimethylbenzenesulfonamide hydrate'
_symmetry_cell_setting           monoclinic
_symmetry_space_group_name_H-M   'C 2/c'
_symmetry_Int_Tables_number      15
_space_group_name_Hall           '-C 2yn'
loop_
_symmetry_equiv_pos_site_id
_symmetry_equiv_pos_as_xyz
1 x,y,z
2 -x,y,1/2-z
3 1/2+x,1/2+y,z
4 1/2-x,1/2+y,1/2-z
5 -x,-y,-z
6 x,-y,1/2+z
7 1/2-x,1/2-y,-z
8 1/2+x,1/2-y,1/2+z
_cell_length_a                   39.577(12)
_cell_length_b                   6.966(2)
_cell_length_c                   18.429(6)
_cell_angle_alpha                90
_cell_angle_beta                 116.465(4)
_cell_angle_gamma                90
_cell_volume                     4548.32
_cell_formula_units_Z            8
loop_
_atom_site_label
_atom_site_type_symbol
_atom_site_fract_x
_atom_site_fract_y
_atom_site_fract_z
Br1 Br 0.295927(12) 0.05145(6) 0.40047(3)
C1 C 0.29953(11) 0.1287(6) 0.2527(2)
C2 C 0.32185(13) 0.0664(6) 0.2167(3)
H1 H 0.3478 0.0558 0.2474
C3 C 0.30534(11) 0.0201(6) 0.1347(2)
H2 H 0.3203 -0.0215 0.1106
C4 C 0.26649(11) 0.0361(6) 0.0888(2)
C5 C 0.24417(12) 0.0983(6) 0.1248(3)
H3 H 0.2182 0.1090 0.0941
C6 C 0.26069(12) 0.1446(6) 0.2068(2)
H4 H 0.2458 0.1863 0.2309
C7 C 0.21083(10) -0.0310(6) -0.0220(2)
H5 H 0.2020 -0.1194 0.0058
H6 H 0.2022 -0.0716 -0.0772
H7 H 0.2012 0.0949 -0.0210
C8 C 0.31643(12) 0.1816(6) 0.3380(2)
C9 C 0.34503(11) 0.2951(6) 0.3766(2)
C10 C 0.35988(12) 0.3588(7) 0.4634(2)
C11 C 0.37633(12) 0.2230(6) 0.5317(2)
C12 C 0.38300(11) 0.0296(6) 0.5219(2)
H8 H 0.3769 -0.0173 0.4703
C13 C 0.39824(12) -0.0902(6) 0.5865(3)
H9 H 0.4019 -0.2190 0.5789
C14 C 0.40802(11) -0.0226(6) 0.6618(2)
H10 H 0.4183 -0.1055 0.7059
C15 C 0.40284(11) 0.1697(6) 0.6741(2)
H11 H 0.4101 0.2161 0.7263
C16 C 0.38673(12) 0.2919(6) 0.6081(2)
H12 H 0.3830 0.4206 0.6159
C17 C 0.43397(11) 0.5036(6) 0.4352(2)
C18 C 0.43753(12) 0.6986(6) 0.4272(2)
H13 H 0.4246 0.7565 0.3767
C19 C 0.45972(11) 0.8060(6) 0.4923(2)
H14 H 0.4626 0.9362 0.4855
C20 C 0.47834(11) 0.7247(6) 0.5694(3)
C21 C 0.47452(11) 0.5302(6) 0.5760(2)
H15 H 0.4875 0.4722 0.6264
C22 C 0.45216(11) 0.4183(6) 0.5105(3)
H16 H 0.4494 0.2877 0.5168
C23 C 0.34125(12) 0.5751(6) 0.2914(2)
H17 H 0.3148 0.5503 0.2603
H18 H 0.3514 0.6219 0.2563
H19 H 0.3449 0.6696 0.3322
C24 C 0.50163(12) 0.8510(7) 0.6414(3)
H20 H 0.5009 0.8002 0.6891
H21 H 0.4915 0.9788 0.6316
H22 H 0.5273 0.8541 0.6492
N1 N 0.36053(10) 0.3977(4) 0.3303(2)
O1 O 0.24831(8) -0.0267(4) 0.01437(16)
O2 O 0.35859(8) 0.5299(4) 0.47563(18)
O3 O 0.41241(8) 0.1626(4) 0.37169(16)
O4 O 0.40888(8) 0.4356(4) 0.28207(17)
S1 S 0.40467(3) 0.36317(17) 0.34992(7)
H23 H 0.4806 0.3298 0.7567
O5 O 0.5000 0.3567(11) 0.7500
H23A H 0.5194 0.3298 0.7433
H24? H 0.5127 0.2553 0.7547
loop_
_geom_bond_atom_site_label_1
_geom_bond_atom_site_label_2
_geom_bond_site_symmetry_1
_geom_bond_site_symmetry_2
Br1 C8 1_555 1_555
C1 C2 1_555 1_555
C2 H1 1_555 1_555
C3 C2 1_555 1_555
H2 C3 1_555 1_555
C4 C3 1_555 1_555
C5 C4 1_555 1_555
H3 C5 1_555 1_555
C6 C1 1_555 1_555
H4 C6 1_555 1_555
C7 H5 1_555 1_555
H6 C7 1_555 1_555
H7 C7 1_555 1_555
C8 C1 1_555 1_555
C9 C8 1_555 1_555
C10 C9 1_555 1_555
C11 C10 1_555 1_555
C12 C11 1_555 1_555
H8 C12 1_555 1_555
C13 C12 1_555 1_555
H9 C13 1_555 1_555
C14 C13 1_555 1_555
H10 C14 1_555 1_555
C15 C14 1_555 1_555
H11 C15 1_555 1_555
C16 C11 1_555 1_555
H12 C16 1_555 1_555
C17 C18 1_555 1_555
C18 H13 1_555 1_555
C19 C18 1_555 1_555
H14 C19 1_555 1_555
C20 C19 1_555 1_555
C21 C20 1_555 1_555
H15 C21 1_555 1_555
C22 C17 1_555 1_555
H16 C22 1_555 1_555
C23 H17 1_555 1_555
H18 C23 1_555 1_555
H19 C23 1_555 1_555
C24 C20 1_555 1_555
H20 C24 1_555 1_555
H21 C24 1_555 1_555
H22 C24 1_555 1_555
N1 C9 1_555 1_555
O1 C4 1_555 1_555
O2 C10 1_555 1_555
O3 S1 1_555 1_555
O4 S1 1_555 1_555
S1 C17 1_555 1_555
H23 O5 1_555 1_555
O5 H23A 1_555 1_555
C5 C6 1_555 1_555
C7 O1 1_555 1_555
C15 C16 1_555 1_555
C21 C22 1_555 1_555
C23 N1 1_555 1_555
N1 S1 1_555 1_555

#END
