
#######################################################################
#
#                 Cambridge Crystallographic Data Centre
#                                CCDC 
#
#######################################################################
#
# If this CIF has been generated from an entry in the Cambridge 
# Structural Database, then it will include bibliographic, chemical, 
# crystal, experimental, refinement or atomic coordinate data resulting 
# from the CCDC's data processing and validation procedures.
#
#######################################################################

data_ANOVOP
_chemical_formula_moiety         'C43 H29 N5'
_chemical_name_systematic        5,10,15,20-Tetraphenyl-2-azaporphyrin
_symmetry_cell_setting           triclinic
_symmetry_space_group_name_H-M   'P -1'
_symmetry_Int_Tables_number      2
_space_group_name_Hall           '-P 1'
loop_
_symmetry_equiv_pos_site_id
_symmetry_equiv_pos_as_xyz
1 x,y,z
2 -x,-y,-z
_cell_length_a                   6.334(2)
_cell_length_b                   10.352(3)
_cell_length_c                   12.149(4)
_cell_angle_alpha                94.288(5)
_cell_angle_beta                 99.895(5)
_cell_angle_gamma                101.107(5)
_cell_volume                     765.246
_exptl_crystal_colour            black
_exptl_crystal_description       needle
_cell_formula_units_Z            1
loop_
_atom_site_label
_atom_site_type_symbol
_atom_site_fract_x
_atom_site_fract_y
_atom_site_fract_z
N1 N 0.3633(4) 0.5132(2) 0.6446(2)
H1 H 0.4056 0.5214 0.5797
N2 N 0.2357(4) 0.3626(2) 0.4226(2)
C1 C 0.4706(4) 0.5824(3) 0.7460(2)
C2 C 0.3475(5) 0.5408(3) 0.8287(3)
H2 H 0.3835 0.5724 0.9064
C3 C 0.1700(5) 0.4484(3) 0.7775(2)
H3 H 0.0584 0.4040 0.8128
C4 C 0.1796(4) 0.4292(3) 0.6616(2)
C5 C 0.0375(4) 0.3337(3) 0.5806(2)
C6 C -0.1468(4) 0.2465(3) 0.6180(2)
C7 C -0.3031(5) 0.2991(3) 0.6642(3)
H4 H -0.2947 0.3920 0.6707
C8 C -0.4709(5) 0.2164(3) 0.7008(3)
H5 H -0.5752 0.2533 0.7333
C9 C -0.4873(5) 0.0817(3) 0.6902(3)
H6 H -0.6038 0.0255 0.7143
C10 C -0.3331(5) 0.0278(3) 0.6443(3)
H7 H -0.3436 -0.0654 0.6374
C11 C -0.1640(5) 0.1095(3) 0.6087(3)
H8 H -0.0587 0.0720 0.5777
C12 C 0.0634(4) 0.3084(3) 0.4698(2)
C13 C -0.0942(5) 0.2172(3) 0.3866(2)
H9 H -0.2300 0.1672 0.3975
N6 N -0.0168(4) 0.2151(3) 0.2920(2)
C15 C 0.1906(4) 0.3060(3) 0.3139(2)
C16 C 0.6742(5) 0.6701(3) 0.7658(2)
C17 C 0.7523(5) 0.7423(3) 0.8809(2)
C18 C 0.6262(5) 0.8210(3) 0.9267(3)
H11 H 0.4894 0.8286 0.8842
C19 C 0.6988(6) 0.8879(3) 1.0335(3)
H12 H 0.6107 0.9403 1.0642
C20 C 0.8965(6) 0.8792(3) 1.0952(3)
H13 H 0.9462 0.9265 1.1681
C21 C 1.0242(5) 0.8017(3) 1.0518(3)
H14 H 1.1617 0.7958 1.0946
C22 C 0.9514(5) 0.7328(3) 0.9461(3)
H15 H 1.0383 0.6781 0.9174
N1A N 0.6367(4) 0.4868(2) 0.3554(2)
H1A H 0.5944 0.4786 0.4203
N2A N 0.7643(4) 0.6374(2) 0.5774(2)
C1A C 0.5294(4) 0.4176(3) 0.2540(2)
C2A C 0.6525(5) 0.4592(3) 0.1713(3)
H2A H 0.6165 0.4276 0.0936
C3A C 0.8300(5) 0.5516(3) 0.2225(2)
H3A H 0.9416 0.5960 0.1872
C4A C 0.8204(4) 0.5708(3) 0.3384(2)
C5A C 0.9625(4) 0.6663(3) 0.4194(2)
C6A C 1.1468(4) 0.7535(3) 0.3820(2)
C7A C 1.3031(5) 0.7009(3) 0.3358(3)
H4A H 1.2947 0.6080 0.3293
C8A C 1.4709(5) 0.7836(3) 0.2992(3)
H5A H 1.5752 0.7467 0.2667
C9A C 1.4873(5) 0.9183(3) 0.3098(3)
H6A H 1.6038 0.9745 0.2857
C10A C 1.3331(5) 0.9722(3) 0.3557(3)
H7A H 1.3436 1.0654 0.3626
C11A C 1.1640(5) 0.8905(3) 0.3913(3)
H8A H 1.0587 0.9280 0.4223
C12A C 0.9366(4) 0.6916(3) 0.5302(2)
C13A C 1.0942(5) 0.7828(3) 0.6134(2)
H9A H 1.2300 0.8328 0.6025
N6A N 1.0168(4) 0.7849(3) 0.7080(2)
C15A C 0.8094(4) 0.6940(3) 0.6861(2)
C16A C 0.3258(5) 0.3299(3) 0.2342(2)
C17A C 0.2477(5) 0.2577(3) 0.1191(2)
C18A C 0.3738(5) 0.1790(3) 0.0733(3)
H11A H 0.5106 0.1714 0.1158
C19A C 0.3012(6) 0.1121(3) -0.0335(3)
H12A H 0.3893 0.0597 -0.0642
C20A C 0.1035(6) 0.1208(3) -0.0952(3)
H13A H 0.0538 0.0735 -0.1681
C21A C -0.0242(5) 0.1983(3) -0.0518(3)
H14A H -0.1617 0.2042 -0.0946
C22A C 0.0486(5) 0.2672(3) 0.0539(3)
H15A H -0.0383 0.3219 0.0826
N3? N 0.3475(5) 0.5408(3) 0.8287(3)
N4? N 0.1700(5) 0.4484(3) 0.7775(2)
N5? N -0.0942(5) 0.2172(3) 0.3866(2)
C14? C -0.0168(4) 0.2151(3) 0.2920(2)
H10? H -0.0859 0.1631 0.2228
H16? H 0.3526 0.4221 0.4557
loop_
_geom_bond_atom_site_label_1
_geom_bond_atom_site_label_2
_geom_bond_site_symmetry_1
_geom_bond_site_symmetry_2
N1 H1 1_555 1_555
N2 C12 1_555 1_555
C1 N1 1_555 1_555
C2 C1 1_555 1_555
H2 C2 1_555 1_555
C3 C2 1_555 1_555
H3 C3 1_555 1_555
C4 N1 1_555 1_555
C5 C4 1_555 1_555
C6 C5 1_555 1_555
C7 C6 1_555 1_555
H4 C7 1_555 1_555
C8 C7 1_555 1_555
H5 C8 1_555 1_555
C9 C8 1_555 1_555
H6 C9 1_555 1_555
C10 C9 1_555 1_555
H7 C10 1_555 1_555
C11 C6 1_555 1_555
H8 C11 1_555 1_555
C12 C5 1_555 1_555
C13 C12 1_555 1_555
H9 C13 1_555 1_555
N6 C13 1_555 1_555
C15 N2 1_555 1_555
C16 C1 1_555 1_555
C17 C16 1_555 1_555
C18 C17 1_555 1_555
H11 C18 1_555 1_555
C19 C18 1_555 1_555
H12 C19 1_555 1_555
C20 C19 1_555 1_555
H13 C20 1_555 1_555
C21 C20 1_555 1_555
H14 C21 1_555 1_555
C22 C17 1_555 1_555
H15 C22 1_555 1_555
N1A H1A 1_555 1_555
N2A C12A 1_555 1_555
C1A N1A 1_555 1_555
C2A C1A 1_555 1_555
H2A C2A 1_555 1_555
C3A C2A 1_555 1_555
H3A C3A 1_555 1_555
C4A N1A 1_555 1_555
C5A C4A 1_555 1_555
C6A C5A 1_555 1_555
C7A C6A 1_555 1_555
H4A C7A 1_555 1_555
C8A C7A 1_555 1_555
H5A C8A 1_555 1_555
C9A C8A 1_555 1_555
H6A C9A 1_555 1_555
C10A C9A 1_555 1_555
H7A C10A 1_555 1_555
C11A C6A 1_555 1_555
H8A C11A 1_555 1_555
C12A C5A 1_555 1_555
C13A C12A 1_555 1_555
H9A C13A 1_555 1_555
N6A C13A 1_555 1_555
C15A C16 1_555 1_555
C16A C15 1_555 1_555
C17A C16A 1_555 1_555
C18A C17A 1_555 1_555
H11A C18A 1_555 1_555
C19A C18A 1_555 1_555
H12A C19A 1_555 1_555
C20A C19A 1_555 1_555
H13A C20A 1_555 1_555
C21A C20A 1_555 1_555
H14A C21A 1_555 1_555
C22A C17A 1_555 1_555
H15A C22A 1_555 1_555
C3 C4 1_555 1_555
C10 C11 1_555 1_555
N6 C15 1_555 1_555
C21 C22 1_555 1_555
N2A C15A 1_555 1_555
C1A C16A 1_555 1_555
C3A C4A 1_555 1_555
C10A C11A 1_555 1_555
N6A C15A 1_555 1_555
C21A C22A 1_555 1_555

#END
