
#######################################################################
#
#                 Cambridge Crystallographic Data Centre
#                                CCDC 
#
#######################################################################
#
# If this CIF has been generated from an entry in the Cambridge 
# Structural Database, then it will include bibliographic, chemical, 
# crystal, experimental, refinement or atomic coordinate data resulting 
# from the CCDC's data processing and validation procedures.
#
#######################################################################

data_ANOWOQ
_chemical_formula_moiety         'C24 H23 Br1 N2 O6'
_chemical_name_systematic        
'Dimethyl 9-bromo-6-hydroxy-4-isopropyl-5-(pyridin-2-yl)-5,6-dihydro-4H-furo[2,3-a][3]benzazepine-2,3-dicarboxylate'
_symmetry_cell_setting           monoclinic
_symmetry_space_group_name_H-M   'P 21/n'
_symmetry_Int_Tables_number      14
_space_group_name_Hall           '-P 2yn'
loop_
_symmetry_equiv_pos_site_id
_symmetry_equiv_pos_as_xyz
1 x,y,z
2 1/2-x,1/2+y,1/2-z
3 -x,-y,-z
4 1/2+x,1/2-y,1/2+z
_cell_length_a                   8.5580(12)
_cell_length_b                   15.813(2)
_cell_length_c                   16.673(2)
_cell_angle_alpha                90
_cell_angle_beta                 98.473(5)
_cell_angle_gamma                90
_cell_volume                     2231.69
_exptl_crystal_colour            colorless
_exptl_crystal_description       prism
_cell_formula_units_Z            4
loop_
_atom_site_label
_atom_site_type_symbol
_atom_site_fract_x
_atom_site_fract_y
_atom_site_fract_z
Br1 Br 0.35267(2) 0.561407(13) 0.208463(11)
N1 N 0.48713(17) 0.69685(9) 0.64114(8)
N2 N 0.43508(19) 0.87310(10) 0.49582(9)
O1 O 0.73751(17) 0.80754(9) 0.51139(8)
H1 H 0.677(3) 0.8403(14) 0.5014(14)
O2 O 0.29718(14) 0.53109(8) 0.51358(7)
O3 O 0.10113(15) 0.40813(8) 0.51534(8)
O4 O 0.04775(17) 0.43936(8) 0.64061(8)
O5 O 0.25548(16) 0.52422(9) 0.76839(8)
O6 O 0.19024(18) 0.65823(9) 0.73472(9)
C1 C 0.6471(2) 0.73564(11) 0.52876(11)
H2 H 0.7232 0.6935 0.5571
C2 C 0.5671(2) 0.69381(12) 0.45149(11)
C3 C 0.6126(2) 0.71672(12) 0.37745(11)
H3 H 0.6871 0.7611 0.3765
C4 C 0.5531(2) 0.67714(12) 0.30528(11)
H4 H 0.5876 0.6930 0.2558
C5 C 0.4425(2) 0.61395(12) 0.30721(10)
C6 C 0.3918(2) 0.58897(11) 0.37829(11)
H5 H 0.3149 0.5456 0.3779
C7 C 0.4554(2) 0.62861(11) 0.45168(11)
C8 C 0.3985(2) 0.59967(11) 0.52520(11)
C9 C 0.4071(2) 0.62841(11) 0.60388(10)
C10 C 0.5364(2) 0.76383(11) 0.59102(10)
H6 H 0.6018 0.8029 0.6295
C11 C 0.3983(2) 0.81694(11) 0.55127(10)
C12 C 0.2474(2) 0.81122(12) 0.57139(12)
H7 H 0.2255 0.7730 0.6122
C13 C 0.1287(2) 0.86190(12) 0.53134(12)
H8 H 0.0239 0.8579 0.5435
C14 C 0.1645(2) 0.91820(13) 0.47366(12)
H9 H 0.0851 0.9533 0.4449
C15 C 0.3196(2) 0.92227(13) 0.45868(12)
H10 H 0.3450 0.9621 0.4200
C16 C 0.5788(2) 0.68435(12) 0.72292(11)
H11 H 0.5352 0.6328 0.7464
C17 C 0.7541(2) 0.66746(14) 0.72084(12)
H12 H 0.7654 0.6173 0.6877
H13 H 0.8080 0.6578 0.7761
H14 H 0.8011 0.7164 0.6974
C18 C 0.5540(3) 0.75817(13) 0.77863(12)
H15 H 0.5902 0.8106 0.7560
H16 H 0.6143 0.7483 0.8325
H17 H 0.4415 0.7630 0.7831
C19 C 0.1205(2) 0.45125(11) 0.58546(12)
C20 C 0.2419(2) 0.51699(11) 0.58529(11)
C21 C 0.3028(2) 0.57418(11) 0.64161(11)
C22 C 0.2447(2) 0.59098(12) 0.71956(11)
C23 C -0.0050(2) 0.33673(12) 0.51125(12)
H18 H 0.0483 0.2892 0.5416
H19 H -0.0359 0.3202 0.4545
H20 H -0.0993 0.3523 0.5348
C24 C 0.1768(3) 0.53310(14) 0.83904(14)
H21 H 0.2380 0.5711 0.8781
H22 H 0.1681 0.4776 0.8641
H23 H 0.0709 0.5567 0.8228
loop_
_geom_bond_atom_site_label_1
_geom_bond_atom_site_label_2
_geom_bond_site_symmetry_1
_geom_bond_site_symmetry_2
Br1 C5 1_555 1_555
N1 C9 1_555 1_555
N2 C11 1_555 1_555
O1 H1 1_555 1_555
O2 C8 1_555 1_555
O3 C19 1_555 1_555
O4 C19 1_555 1_555
O5 C22 1_555 1_555
O6 C22 1_555 1_555
C1 O1 1_555 1_555
H2 C1 1_555 1_555
C2 C1 1_555 1_555
C3 C2 1_555 1_555
H3 C3 1_555 1_555
C4 C3 1_555 1_555
H4 C4 1_555 1_555
C5 C4 1_555 1_555
C6 C5 1_555 1_555
H5 C6 1_555 1_555
C7 C2 1_555 1_555
C8 C7 1_555 1_555
C9 C8 1_555 1_555
C10 N1 1_555 1_555
H6 C10 1_555 1_555
C11 C10 1_555 1_555
C12 C11 1_555 1_555
H7 C12 1_555 1_555
C13 C12 1_555 1_555
H8 C13 1_555 1_555
C14 C13 1_555 1_555
H9 C14 1_555 1_555
C15 N2 1_555 1_555
H10 C15 1_555 1_555
C16 N1 1_555 1_555
H11 C16 1_555 1_555
C17 C16 1_555 1_555
H12 C17 1_555 1_555
H13 C17 1_555 1_555
H14 C17 1_555 1_555
C18 C16 1_555 1_555
H15 C18 1_555 1_555
H16 C18 1_555 1_555
H17 C18 1_555 1_555
C19 C20 1_555 1_555
C20 O2 1_555 1_555
C21 C9 1_555 1_555
C22 C21 1_555 1_555
C23 O3 1_555 1_555
H18 C23 1_555 1_555
H19 C23 1_555 1_555
H20 C23 1_555 1_555
C24 O5 1_555 1_555
H21 C24 1_555 1_555
H22 C24 1_555 1_555
H23 C24 1_555 1_555
C1 C10 1_555 1_555
C6 C7 1_555 1_555
C14 C15 1_555 1_555
C20 C21 1_555 1_555

#END
