
#######################################################################
#
#                 Cambridge Crystallographic Data Centre
#                                CCDC 
#
#######################################################################
#
# If this CIF has been generated from an entry in the Cambridge 
# Structural Database, then it will include bibliographic, chemical, 
# crystal, experimental, refinement or atomic coordinate data resulting 
# from the CCDC's data processing and validation procedures.
#
#######################################################################

data_ANOXIM
_chemical_formula_moiety         'C17 H13 Br1 O2'
_chemical_name_systematic        
6-bromo-2-methyl-2-(2-phenylvinyl)-1-benzofuran-3(2H)-one
_symmetry_cell_setting           orthorhombic
_symmetry_space_group_name_H-M   'P n a 21'
_symmetry_Int_Tables_number      33
_space_group_name_Hall           'P 2c -2n'
loop_
_symmetry_equiv_pos_site_id
_symmetry_equiv_pos_as_xyz
1 x,y,z
2 -x,-y,1/2+z
3 1/2-x,1/2+y,1/2+z
4 1/2+x,1/2-y,z
_cell_length_a                   29.2958(17)
_cell_length_b                   6.1415(3)
_cell_length_c                   15.5413(9)
_cell_angle_alpha                90
_cell_angle_beta                 90
_cell_angle_gamma                90
_cell_volume                     2796.19
_exptl_crystal_colour            colorless
_cell_formula_units_Z            8
loop_
_atom_site_label
_atom_site_type_symbol
_atom_site_fract_x
_atom_site_fract_y
_atom_site_fract_z
Br1 Br 0.28524(3) 0.67155(11) 0.43062(5)
O1 O 0.45676(15) 0.9139(8) 0.4083(3)
O2 O 0.45206(17) 1.4326(8) 0.3076(3)
C1 C 0.3336(2) 0.8598(10) 0.3970(5)
C2 C 0.3783(2) 0.7961(10) 0.4146(4)
H1 H 0.3853 0.6591 0.4397
C3 C 0.4118(2) 0.9454(10) 0.3931(4)
C4 C 0.4813(2) 1.1082(11) 0.3811(5)
C5 C 0.5169(2) 1.0553(11) 0.3170(5)
H2 H 0.5357 1.1716 0.2978
C6 C 0.5250(2) 0.8593(10) 0.2837(5)
H3 H 0.5072 0.7418 0.3048
C7 C 0.5588(2) 0.8087(11) 0.2177(5)
C8 C 0.5919(2) 0.9561(12) 0.1899(5)
H4 H 0.5937 1.0956 0.2161
C9 C 0.6218(3) 0.9034(12) 0.1255(5)
H5 H 0.6438 1.0064 0.1069
C10 C 0.6197(3) 0.6958(12) 0.0868(5)
H6 H 0.6403 0.6576 0.0421
C11 C 0.5004(3) 1.2191(13) 0.4613(5)
H7 H 0.4761 1.2353 0.5042
H8 H 0.5124 1.3630 0.4459
H9 H 0.5251 1.1301 0.4854
C12 C 0.5872(3) 0.5484(12) 0.1152(5)
H10 H 0.5855 0.4081 0.0897
C13 C 0.5574(2) 0.6033(12) 0.1794(4)
H11 H 0.5355 0.4999 0.1982
C14 C 0.4445(2) 1.2559(12) 0.3410(4)
C15 C 0.4017(2) 1.1454(10) 0.3542(4)
C16 C 0.3565(2) 1.2024(11) 0.3357(4)
H12 H 0.3495 1.3366 0.3083
C17 C 0.3220(2) 1.0584(11) 0.3584(4)
H13 H 0.2909 1.0940 0.3478
Br2 Br 0.95548(3) 0.17345(11) 0.07249(5)
O3 O 0.78975(15) 0.4926(7) 0.0872(3)
O4 O 0.80181(17) 0.9841(8) 0.2053(3)
C18 C 0.9257(3) 0.5625(11) 0.1525(5)
H14 H 0.9570 0.5809 0.1664
C19 C 0.8938(2) 0.7157(12) 0.1770(5)
H15 H 0.9027 0.8407 0.2089
C20 C 0.8481(2) 0.6841(10) 0.1541(4)
C21 C 0.8069(2) 0.8120(10) 0.1679(4)
C22 C 0.7681(3) 0.6896(10) 0.1215(4)
C23 C 0.7315(2) 0.6272(11) 0.1859(4)
H16 H 0.7122 0.7397 0.2067
C24 C 0.7245(2) 0.4273(11) 0.2155(4)
H17 H 0.7428 0.3137 0.1925
C25 C 0.6904(2) 0.3679(10) 0.2815(5)
C26 C 0.6558(2) 0.5067(11) 0.3082(5)
H18 H 0.6528 0.6454 0.2818
C27 C 0.6261(2) 0.4478(12) 0.3716(5)
H19 H 0.6028 0.5455 0.3893
C28 C 0.6300(2) 0.2427(13) 0.4108(5)
H20 H 0.6098 0.2012 0.4557
C29 C 0.9109(3) 0.3789(11) 0.1066(5)
C30 C 0.8661(2) 0.3391(10) 0.0837(4)
H21 H 0.8570 0.2115 0.0536
C31 C 0.8351(2) 0.4995(11) 0.1080(4)
C32 C 0.6637(3) 0.1025(12) 0.3829(5)
H22 H 0.6664 -0.0381 0.4079
C33 C 0.6937(3) 0.1648(11) 0.3188(5)
H23 H 0.7168 0.0669 0.3003
C34 C 0.7504(3) 0.8281(11) 0.0477(5)
H24 H 0.7751 0.8535 0.0064
H25 H 0.7395 0.9679 0.0701
H26 H 0.7252 0.7522 0.0190
loop_
_geom_bond_atom_site_label_1
_geom_bond_atom_site_label_2
_geom_bond_site_symmetry_1
_geom_bond_site_symmetry_2
Br1 C1 1_555 1_555
O1 C3 1_555 1_555
O2 C14 1_555 1_555
C1 C2 1_555 1_555
C2 H1 1_555 1_555
C3 C2 1_555 1_555
C4 O1 1_555 1_555
C5 C4 1_555 1_555
H2 C5 1_555 1_555
C6 C5 1_555 1_555
H3 C6 1_555 1_555
C7 C6 1_555 1_555
C8 C7 1_555 1_555
H4 C8 1_555 1_555
C9 C8 1_555 1_555
H5 C9 1_555 1_555
C10 C9 1_555 1_555
H6 C10 1_555 1_555
C11 C4 1_555 1_555
H7 C11 1_555 1_555
H8 C11 1_555 1_555
H9 C11 1_555 1_555
C12 C10 1_555 1_555
H10 C12 1_555 1_555
C13 C7 1_555 1_555
H11 C13 1_555 1_555
C14 C4 1_555 1_555
C15 C3 1_555 1_555
C16 C15 1_555 1_555
H12 C16 1_555 1_555
C17 C1 1_555 1_555
H13 C17 1_555 1_555
Br2 C29 1_555 1_555
O3 C22 1_555 1_555
O4 C21 1_555 1_555
C18 H14 1_555 1_555
C19 C18 1_555 1_555
H15 C19 1_555 1_555
C20 C19 1_555 1_555
C21 C20 1_555 1_555
C22 C21 1_555 1_555
C23 C22 1_555 1_555
H16 C23 1_555 1_555
C24 C23 1_555 1_555
H17 C24 1_555 1_555
C25 C24 1_555 1_555
C26 C25 1_555 1_555
H18 C26 1_555 1_555
C27 C26 1_555 1_555
H19 C27 1_555 1_555
C28 C27 1_555 1_555
H20 C28 1_555 1_555
C29 C18 1_555 1_555
C30 C29 1_555 1_555
H21 C30 1_555 1_555
C31 O3 1_555 1_555
C32 C28 1_555 1_555
H22 C32 1_555 1_555
C33 C25 1_555 1_555
H23 C33 1_555 1_555
C34 C22 1_555 1_555
H24 C34 1_555 1_555
H25 C34 1_555 1_555
H26 C34 1_555 1_555
C12 C13 1_555 1_555
C14 C15 1_555 1_555
C16 C17 1_555 1_555
C20 C31 1_555 1_555
C30 C31 1_555 1_555
C32 C33 1_555 1_555

#END
