
#######################################################################
#
#                 Cambridge Crystallographic Data Centre
#                                CCDC 
#
#######################################################################
#
# If this CIF has been generated from an entry in the Cambridge 
# Structural Database, then it will include bibliographic, chemical, 
# crystal, experimental, refinement or atomic coordinate data resulting 
# from the CCDC's data processing and validation procedures.
#
#######################################################################

data_ANPHXN
_chemical_name_common            
"Anthracene 3,3',5,5'-tetrachloro-diphenoxinone complex"
_chemical_formula_moiety         'C14 H10,C12 H4 Cl4 O2'
_chemical_name_systematic        
"Anthracene 1,1'-bi-3,5-dichloro-4-oxo-hexa-2,5-dienylidene complex"
_symmetry_cell_setting           monoclinic
_symmetry_space_group_name_H-M   'P 1 1 21/b'
_symmetry_Int_Tables_number      14
_space_group_name_Hall           '-P 2bc'
loop_
_symmetry_equiv_pos_site_id
_symmetry_equiv_pos_as_xyz
1 x,y,z
2 -x,1/2-y,1/2+z
3 -x,-y,-z
4 x,1/2+y,1/2-z
_cell_length_a                   7.082(5)
_cell_length_b                   11.349(7)
_cell_length_c                   13.821(8)
_cell_angle_alpha                90
_cell_angle_beta                 90
_cell_angle_gamma                103.94(4)
_cell_volume                     1078.13
_cell_formula_units_Z            2
loop_
_atom_site_label
_atom_site_type_symbol
_atom_site_fract_x
_atom_site_fract_y
_atom_site_fract_z
O1 O 0.85020 0.16530 0.22520
Cl1 Cl 0.99320 0.40040 0.32020
Cl2 Cl 0.74170 0.09170 0.02580
C1 C 0.97080 0.45080 0.03300
C2 C 1.00600 0.47370 0.13640
C3 C 0.95860 0.37500 0.19710
C4 C 0.87910 0.25250 0.16570
C5 C 0.84490 0.23610 0.06190
C6 C 0.89080 0.32990 0.00020
H1 H 1.06360 0.56290 0.16460
H2 H 0.86980 0.31400 -0.07460
C1B C 1.02920 0.54920 -0.03300
C2B C 0.99400 0.52630 -0.13640
C6B C 1.10920 0.67010 -0.00020
C3B C 1.04140 0.62500 -0.19710
H1B H 0.93640 0.43710 -0.16460
C5B C 1.15510 0.76390 -0.06190
H2B H 1.13020 0.68600 0.07460
Cl1B Cl 1.00680 0.59960 -0.32020
C4B C 1.12090 0.74750 -0.16570
Cl2B Cl 1.25830 0.90830 -0.02580
O1B O 1.14980 0.83470 -0.22520
C7 C 0.42340 0.37880 0.02580
C8 C 0.34830 0.25190 0.05310
C9 C 0.35410 0.22310 0.14900
C10 C 0.42570 0.30600 0.21970
C11 C 0.49790 0.42770 0.19910
C12 C 0.50330 0.46740 0.09890
C13 C 0.42730 0.41180 -0.07160
H3 H 0.29440 0.18430 0.00230
H4 H 0.29840 0.13090 0.16960
H5 H 0.42390 0.27570 0.29260
H6 H 0.55180 0.48980 0.25570
H7 H 0.35640 0.34160 -0.09880
C13B C 0.57270 0.58820 0.07160
C12B C 0.49670 0.53260 -0.09890
C7B C 0.57660 0.62120 -0.02580
H7B H 0.64360 0.65840 0.09880
C11B C 0.50210 0.57230 -0.19910
C8B C 0.65170 0.74810 -0.05310
C10B C 0.57430 0.69400 -0.21970
H6B H 0.44820 0.51020 -0.25570
C9B C 0.64590 0.77690 -0.14900
H3B H 0.70560 0.81570 -0.00230
H5B H 0.57610 0.72430 -0.29260
H4B H 0.70160 0.86910 -0.16960
loop_
_geom_bond_atom_site_label_1
_geom_bond_atom_site_label_2
_geom_bond_site_symmetry_1
_geom_bond_site_symmetry_2
O1 C4 1_555 1_555
Cl1 C3 1_555 1_555
Cl2 C5 1_555 1_555
C1 C2 1_555 1_555
C2 C3 1_555 1_555
C3 C4 1_555 1_555
C4 C5 1_555 1_555
C5 C6 1_555 1_555
C6 C1 1_555 1_555
C7 C8 1_555 1_555
C8 C9 1_555 1_555
C9 C10 1_555 1_555
C10 C11 1_555 1_555
C11 C12 1_555 1_555
C12 C7 1_555 1_555
C13 C7 1_555 1_555
H1 C2 1_555 1_555
H2 C6 1_555 1_555
H3 C8 1_555 1_555
H4 C9 1_555 1_555
H5 C10 1_555 1_555
H6 C11 1_555 1_555
H7 C13 1_555 1_555
C1B C1 1_555 1_555
C2B C1B 1_555 1_555
C6B C1B 1_555 1_555
C3B C2B 1_555 1_555
H1B C2B 1_555 1_555
C5B C6B 1_555 1_555
H2B C6B 1_555 1_555
Cl1B C3B 1_555 1_555
C4B C3B 1_555 1_555
Cl2B C5B 1_555 1_555
O1B C4B 1_555 1_555
C13B C12 1_555 1_555
C12B C13 1_555 1_555
C7B C13B 1_555 1_555
H7B C13B 1_555 1_555
C11B C12B 1_555 1_555
C8B C7B 1_555 1_555
C10B C11B 1_555 1_555
H6B C11B 1_555 1_555
C9B C8B 1_555 1_555
H3B C8B 1_555 1_555
H5B C10B 1_555 1_555
H4B C9B 1_555 1_555
C5B C4B 1_555 1_555
C12B C7B 1_555 1_555
C10B C9B 1_555 1_555

#END
