
#######################################################################
#
#                 Cambridge Crystallographic Data Centre
#                                CCDC 
#
#######################################################################
#
# If this CIF has been generated from an entry in the Cambridge 
# Structural Database, then it will include bibliographic, chemical, 
# crystal, experimental, refinement or atomic coordinate data resulting 
# from the CCDC's data processing and validation procedures.
#
#######################################################################

data_ANUBIV
_chemical_formula_moiety         'C13 H13 N1 O2 S2'
_chemical_name_systematic        
1-(2-Methylphenyl)-2-thioxo-7-oxa-3-thia-1-azaspiro[4.4]nonan-8-one
_symmetry_cell_setting           monoclinic
_symmetry_space_group_name_H-M   'P 21/c'
_symmetry_Int_Tables_number      14
_space_group_name_Hall           '-P 2ybc'
loop_
_symmetry_equiv_pos_site_id
_symmetry_equiv_pos_as_xyz
1 x,y,z
2 -x,1/2+y,1/2-z
3 -x,-y,-z
4 x,1/2-y,1/2+z
_cell_length_a                   15.916(3)
_cell_length_b                   7.0320(14)
_cell_length_c                   12.473(3)
_cell_angle_alpha                90
_cell_angle_beta                 110.14(3)
_cell_angle_gamma                90
_cell_volume                     1310.64
_cell_formula_units_Z            4
loop_
_atom_site_label
_atom_site_type_symbol
_atom_site_fract_x
_atom_site_fract_y
_atom_site_fract_z
C1 C 0.31054(14) 0.7940(3) 0.21426(18)
C2 C 0.30098(17) 0.6186(4) 0.1617(2)
H1 H 0.2502 0.5921 0.0989
C3 C 0.3667(2) 0.4828(4) 0.2023(2)
H2 H 0.3608 0.3654 0.1661
C4 C 0.44099(18) 0.5208(4) 0.2962(2)
H3 H 0.4850 0.4287 0.3244
C5 C 0.45000(16) 0.6955(3) 0.3483(2)
H4 H 0.5005 0.7198 0.4118
C6 C 0.38552(14) 0.8373(3) 0.30841(19)
C7 C 0.39907(18) 1.0282(4) 0.3653(2)
H5 H 0.3582 1.1181 0.3165
H6 H 0.4594 1.0698 0.3797
H7 H 0.3883 1.0188 0.4363
C8 C 0.23301(16) 1.0318(3) 0.07364(18)
C9 C 0.1285(2) 1.1520(5) 0.1751(3)
H8 H 0.1612 1.2477 0.2295
H9 H 0.0659 1.1580 0.1675
C10 C 0.16652(15) 0.9548(4) 0.21318(19)
C11 C 0.19001(16) 0.9299(4) 0.34134(19)
H10 H 0.2393 0.8417 0.3720
H11 H 0.2057 1.0506 0.3809
C12 C 0.10539(18) 0.8516(4) 0.3512(2)
C13 C 0.09771(18) 0.7961(5) 0.1683(2)
H12 H 0.0557 0.8281 0.0934
H13 H 0.1270 0.6774 0.1630
N1 N 0.24142(11) 0.9351(3) 0.16952(14)
O1 O 0.05222(13) 0.7807(4) 0.25062(16)
O2 O 0.08221(15) 0.8476(4) 0.43297(17)
S1 S 0.14204(5) 1.18772(12) 0.03895(6)
S2 S 0.29743(5) 1.01928(11) -0.00547(6)
loop_
_geom_bond_atom_site_label_1
_geom_bond_atom_site_label_2
_geom_bond_site_symmetry_1
_geom_bond_site_symmetry_2
C1 C2 1_555 1_555
C2 H1 1_555 1_555
C3 C2 1_555 1_555
H2 C3 1_555 1_555
C4 C3 1_555 1_555
H3 C4 1_555 1_555
C5 C4 1_555 1_555
H4 C5 1_555 1_555
C6 C1 1_555 1_555
C7 C6 1_555 1_555
H5 C7 1_555 1_555
H6 C7 1_555 1_555
H7 C7 1_555 1_555
C8 N1 1_555 1_555
C9 H8 1_555 1_555
H9 C9 1_555 1_555
C10 C9 1_555 1_555
C11 C10 1_555 1_555
H10 C11 1_555 1_555
H11 C11 1_555 1_555
C12 C11 1_555 1_555
C13 C10 1_555 1_555
H12 C13 1_555 1_555
H13 C13 1_555 1_555
N1 C1 1_555 1_555
O1 C12 1_555 1_555
O2 C12 1_555 1_555
S1 C8 1_555 1_555
S2 C8 1_555 1_555
C5 C6 1_555 1_555
C9 S1 1_555 1_555
C10 N1 1_555 1_555
C13 O1 1_555 1_555

#END
