
#######################################################################
#
#                 Cambridge Crystallographic Data Centre
#                                CCDC 
#
#######################################################################
#
# If this CIF has been generated from an entry in the Cambridge 
# Structural Database, then it will include bibliographic, chemical, 
# crystal, experimental, refinement or atomic coordinate data resulting 
# from the CCDC's data processing and validation procedures.
#
#######################################################################

data_ANUDAQ
_chemical_formula_moiety         'C21 H23 N3 O3'
_chemical_name_systematic        
3-(4-(diethylamino)-2-ethoxyphenyl)-2-(4-nitrophenyl)acrylonitrile
_symmetry_cell_setting           monoclinic
_symmetry_space_group_name_H-M   'P 21/c'
_symmetry_Int_Tables_number      14
_space_group_name_Hall           '-P 2ybc'
loop_
_symmetry_equiv_pos_site_id
_symmetry_equiv_pos_as_xyz
1 x,y,z
2 -x,1/2+y,1/2-z
3 -x,-y,-z
4 x,1/2-y,1/2+z
_cell_length_a                   4.7414(5)
_cell_length_b                   17.2225(19)
_cell_length_c                   22.721(3)
_cell_angle_alpha                90
_cell_angle_beta                 91.351(2)
_cell_angle_gamma                90
_cell_volume                     1854.85
_exptl_crystal_colour            red
_exptl_crystal_description       rodlike
_cell_formula_units_Z            4
loop_
_atom_site_label
_atom_site_type_symbol
_atom_site_fract_x
_atom_site_fract_y
_atom_site_fract_z
C1 C 0.7756(3) 0.34338(9) 0.12230(7)
C2 C 0.5707(3) 0.33794(10) 0.17009(7)
C3 C 0.2163(3) 0.40773(9) 0.23507(7)
C4 C 0.8605(4) 0.41526(10) 0.09936(7)
H1 H 0.7853 0.4607 0.1145
C5 C 1.1592(4) 0.35224(10) 0.03172(7)
C6 C 0.4201(3) 0.39955(10) 0.18972(7)
H2 H 0.4563 0.4455 0.1698
C7 C 0.8948(4) 0.27675(10) 0.09820(8)
H3 H 0.8458 0.2284 0.1131
C8 C 1.0529(4) 0.42000(10) 0.05482(7)
H4 H 1.1099 0.4680 0.0406
C9 C -0.1861(4) 0.43494(10) 0.32438(7)
C10 C 0.0750(3) 0.47985(9) 0.24035(7)
C11 C -0.1198(3) 0.49338(10) 0.28349(7)
H5 H -0.2081 0.5415 0.2856
C12 C 1.0836(4) 0.28063(10) 0.05285(8)
H6 H 1.1582 0.2355 0.0369
C13 C 0.5336(4) 0.26127(11) 0.19383(8)
C14 C -0.5022(4) 0.52477(11) 0.37564(8)
H7 H -0.6735 0.5190 0.3977
H8 H -0.5548 0.5454 0.3372
C15 C -0.0238(4) 0.60469(10) 0.19605(8)
H9 H -0.0002 0.6355 0.2316
H10 H -0.2221 0.5920 0.1907
C16 C 0.1419(4) 0.35036(10) 0.27574(7)
H11 H 0.2273 0.3019 0.2734
C17 C -0.0510(4) 0.36264(10) 0.31879(7)
H12 H -0.0932 0.3227 0.3446
C18 C -0.4471(4) 0.38800(11) 0.41012(8)
H13 H -0.4558 0.3386 0.3896
H14 H -0.6338 0.3986 0.4247
C19 C 0.0801(4) 0.64873(11) 0.14366(8)
H15 H 0.2675 0.6675 0.1519
H16 H -0.0430 0.6919 0.1355
H17 H 0.0820 0.6150 0.1101
C20 C -0.2448(4) 0.38038(13) 0.46198(8)
H18 H -0.0620 0.3659 0.4484
H19 H -0.3119 0.3412 0.4883
H20 H -0.2317 0.4291 0.4823
C21 C -0.3117(4) 0.58292(11) 0.40714(8)
H21 H -0.2612 0.5636 0.4456
H22 H -0.4092 0.6315 0.4108
H23 H -0.1440 0.5905 0.3850
N1 N -0.3760(3) 0.44836(8) 0.36794(6)
N2 N 1.3596(3) 0.35671(10) -0.01638(6)
N3 N 0.5081(4) 0.19899(9) 0.21086(7)
O1 O 0.1435(2) 0.53485(6) 0.20015(5)
O2 O 1.4578(3) 0.29584(8) -0.03512(6)
O3 O 1.4176(3) 0.42097(8) -0.03628(6)
loop_
_geom_bond_atom_site_label_1
_geom_bond_atom_site_label_2
_geom_bond_site_symmetry_1
_geom_bond_site_symmetry_2
C1 C2 1_555 1_555
C2 C6 1_555 1_555
C3 C6 1_555 1_555
C4 C1 1_555 1_555
H1 C4 1_555 1_555
C5 C8 1_555 1_555
C6 H2 1_555 1_555
C7 C1 1_555 1_555
H3 C7 1_555 1_555
C8 C4 1_555 1_555
H4 C8 1_555 1_555
C9 C11 1_555 1_555
C10 C3 1_555 1_555
C11 C10 1_555 1_555
H5 C11 1_555 1_555
C12 C5 1_555 1_555
H6 C12 1_555 1_555
C13 C2 1_555 1_555
C14 H7 1_555 1_555
H8 C14 1_555 1_555
C15 H9 1_555 1_555
H10 C15 1_555 1_555
C16 C3 1_555 1_555
H11 C16 1_555 1_555
C17 C9 1_555 1_555
H12 C17 1_555 1_555
C18 H13 1_555 1_555
H14 C18 1_555 1_555
C19 C15 1_555 1_555
H15 C19 1_555 1_555
H16 C19 1_555 1_555
H17 C19 1_555 1_555
C20 C18 1_555 1_555
H18 C20 1_555 1_555
H19 C20 1_555 1_555
H20 C20 1_555 1_555
C21 C14 1_555 1_555
H21 C21 1_555 1_555
H22 C21 1_555 1_555
H23 C21 1_555 1_555
N1 C9 1_555 1_555
N2 C5 1_555 1_555
N3 C13 1_555 1_555
O1 C10 1_555 1_555
O2 N2 1_555 1_555
O3 N2 1_555 1_555
C7 C12 1_555 1_555
C14 N1 1_555 1_555
C15 O1 1_555 1_555
C16 C17 1_555 1_555
C18 N1 1_555 1_555

#END
