
#######################################################################
#
#                 Cambridge Crystallographic Data Centre
#                                CCDC 
#
#######################################################################
#
# If this CIF has been generated from an entry in the Cambridge 
# Structural Database, then it will include bibliographic, chemical, 
# crystal, experimental, refinement or atomic coordinate data resulting 
# from the CCDC's data processing and validation procedures.
#
#######################################################################

data_ANUHIC
_chemical_formula_moiety         'C20 H17 N1 O4 S1'
_chemical_name_systematic        
'2-(6-benzoylcyclohex-2-en-1-yl)-1,2-benzothiazol-3(2H)-one 1,1-dioxide'
_symmetry_cell_setting           monoclinic
_symmetry_space_group_name_H-M   'P 21/c'
_symmetry_Int_Tables_number      14
_space_group_name_Hall           '-P 2ybc'
loop_
_symmetry_equiv_pos_site_id
_symmetry_equiv_pos_as_xyz
1 x,y,z
2 -x,1/2+y,1/2-z
3 -x,-y,-z
4 x,1/2-y,1/2+z
_cell_length_a                   8.125(2)
_cell_length_b                   13.637(3)
_cell_length_c                   15.676(3)
_cell_angle_alpha                90
_cell_angle_beta                 100.08(3)
_cell_angle_gamma                90
_cell_volume                     1710.1
_cell_formula_units_Z            4
loop_
_atom_site_label
_atom_site_type_symbol
_atom_site_fract_x
_atom_site_fract_y
_atom_site_fract_z
C1 C 0.3994(2) 0.18186(13) 0.13020(12)
C2 C 0.4066(2) 0.14817(13) 0.04147(13)
C3 C 0.2505(2) 0.13315(13) -0.00757(12)
C4 C 0.2275(3) 0.09885(14) -0.09193(13)
H1 H 0.1217 0.0884 -0.1243
C5 C 0.3732(4) 0.08089(16) -0.12552(15)
H2 H 0.3641 0.0573 -0.1818
C6 C 0.5303(3) 0.09730(16) -0.07737(17)
H3 H 0.6244 0.0860 -0.1022
C7 C 0.5494(3) 0.13023(15) 0.00712(16)
H4 H 0.6551 0.1400 0.0399
C8 C 0.1927(2) 0.22100(13) 0.22597(12)
H5 H 0.2847 0.2635 0.2526
C9 C 0.0375(3) 0.28271(15) 0.21476(13)
H6 H 0.0358 0.3409 0.1837
C10 C -0.0981(3) 0.25834(18) 0.24709(14)
H7 H -0.1868 0.3025 0.2402
C11 C -0.1165(3) 0.1652(2) 0.29341(15)
H8 H -0.2279 0.1392 0.2741
H9 H -0.1039 0.1782 0.3550
C12 C 0.0110(3) 0.08945(17) 0.27797(14)
H10 H -0.0180 0.0639 0.2195
H11 H 0.0108 0.0353 0.3181
C13 C 0.1849(2) 0.13559(14) 0.29056(12)
H12 H 0.2069 0.1636 0.3490
C14 C 0.3170(3) 0.05710(14) 0.28684(12)
C15 C 0.4694(2) 0.05174(14) 0.35434(13)
C16 C 0.5635(3) -0.03472(16) 0.36206(15)
H13 H 0.5300 -0.0871 0.3251
C17 C 0.7053(3) -0.0427(2) 0.42408(18)
H14 H 0.7668 -0.1005 0.4290
C18 C 0.7564(3) 0.0342(2) 0.47853(17)
H15 H 0.8527 0.0283 0.5201
C19 C 0.6658(3) 0.12005(19) 0.47202(15)
H16 H 0.7009 0.1722 0.5090
C20 C 0.5225(2) 0.12841(16) 0.41023(14)
H17 H 0.4610 0.1863 0.4062
N1 N 0.23290(18) 0.18962(11) 0.14101(9)
O1 O 0.01973(18) 0.25845(11) 0.01658(10)
O2 O -0.01650(17) 0.09097(11) 0.06324(9)
O3 O 0.51478(17) 0.20108(12) 0.18751(10)
O4 O 0.2924(2) -0.00374(11) 0.22879(10)
S1 S 0.09324(5) 0.16841(3) 0.05055(3)
loop_
_geom_bond_atom_site_label_1
_geom_bond_atom_site_label_2
_geom_bond_site_symmetry_1
_geom_bond_site_symmetry_2
C1 C2 1_555 1_555
C2 C3 1_555 1_555
C3 C4 1_555 1_555
C4 H1 1_555 1_555
C5 C4 1_555 1_555
H2 C5 1_555 1_555
C6 C5 1_555 1_555
H3 C6 1_555 1_555
C7 C2 1_555 1_555
H4 C7 1_555 1_555
C8 H5 1_555 1_555
C9 C8 1_555 1_555
H6 C9 1_555 1_555
C10 C9 1_555 1_555
H7 C10 1_555 1_555
C11 C10 1_555 1_555
H8 C11 1_555 1_555
H9 C11 1_555 1_555
C12 C11 1_555 1_555
H10 C12 1_555 1_555
H11 C12 1_555 1_555
C13 C8 1_555 1_555
H12 C13 1_555 1_555
C14 C13 1_555 1_555
C15 C14 1_555 1_555
C16 C15 1_555 1_555
H13 C16 1_555 1_555
C17 C16 1_555 1_555
H14 C17 1_555 1_555
C18 C17 1_555 1_555
H15 C18 1_555 1_555
C19 C18 1_555 1_555
H16 C19 1_555 1_555
C20 C15 1_555 1_555
H17 C20 1_555 1_555
N1 C1 1_555 1_555
O1 S1 1_555 1_555
O2 S1 1_555 1_555
O3 C1 1_555 1_555
O4 C14 1_555 1_555
S1 C3 1_555 1_555
C6 C7 1_555 1_555
C8 N1 1_555 1_555
C12 C13 1_555 1_555
C19 C20 1_555 1_555
N1 S1 1_555 1_555

#END
