
#######################################################################
#
#                 Cambridge Crystallographic Data Centre
#                                CCDC 
#
#######################################################################
#
# If this CIF has been generated from an entry in the Cambridge 
# Structural Database, then it will include bibliographic, chemical, 
# crystal, experimental, refinement or atomic coordinate data resulting 
# from the CCDC's data processing and validation procedures.
#
#######################################################################

data_ANUJAW
_chemical_formula_moiety         'C20 H21 N1 O2 S1'
_chemical_name_systematic        
'11-phenyl-6a,7,8,9,10,10a,11,11a-octahydroindolo[1,2-b][1,2]benzothiazole 5,5-dioxide'
_symmetry_cell_setting           triclinic
_symmetry_space_group_name_H-M   'P 1'
_symmetry_Int_Tables_number      1
_space_group_name_Hall           'P 1'
loop_
_symmetry_equiv_pos_site_id
_symmetry_equiv_pos_as_xyz
1 x,y,z
_cell_length_a                   6.1852(5)
_cell_length_b                   7.6183(6)
_cell_length_c                   9.2043(8)
_cell_angle_alpha                75.137(4)
_cell_angle_beta                 86.167(4)
_cell_angle_gamma                87.099(4)
_cell_volume                     418.012
_cell_formula_units_Z            1
loop_
_atom_site_label
_atom_site_type_symbol
_atom_site_fract_x
_atom_site_fract_y
_atom_site_fract_z
C1 C 0.1861(5) 0.2120(4) 0.5615(3)
C2 C 0.0243(5) 0.1152(4) 0.5228(3)
H1 H -0.0741 0.0512 0.5957
C3 C 0.0136(6) 0.1167(4) 0.3734(4)
H2 H -0.0945 0.0544 0.3444
C4 C 0.1645(6) 0.2115(4) 0.2650(4)
H3 H 0.1562 0.2110 0.1645
C5 C 0.3260(5) 0.3060(4) 0.3060(3)
H4 H 0.4268 0.3673 0.2337
C6 C 0.3367(4) 0.3088(3) 0.4559(3)
C7 C 0.4907(4) 0.4114(3) 0.5222(3)
H5 H 0.6392 0.3624 0.5130
C8 C 0.3618(4) 0.5682(3) 0.7148(3)
H6 H 0.2108 0.6015 0.6908
C9 C 0.3921(5) 0.5730(4) 0.8760(3)
H7 H 0.3147 0.4739 0.9435
H8 H 0.3283 0.6859 0.8921
C10 C 0.6301(5) 0.5574(4) 0.9160(3)
H9 H 0.6400 0.5748 1.0161
H10 H 0.6894 0.4371 0.9160
C11 C 0.7606(5) 0.7000(4) 0.8022(3)
H11 H 0.9106 0.6906 0.8287
H12 H 0.7035 0.8206 0.8037
C12 C 0.7477(4) 0.6715(4) 0.6449(3)
H13 H 0.8069 0.5515 0.6436
H14 H 0.8346 0.7604 0.5734
C13 C 0.5127(4) 0.6901(3) 0.5971(3)
H15 H 0.4606 0.8171 0.5788
C14 C 0.4840(4) 0.6186(3) 0.4573(3)
H16 H 0.3365 0.6541 0.4257
C15 C 0.6383(5) 0.6955(4) 0.3229(3)
C16 C 0.8468(4) 0.6262(4) 0.3048(3)
H17 H 0.8943 0.5210 0.3729
C17 C 0.9870(5) 0.7130(4) 0.1849(3)
H18 H 1.1254 0.6637 0.1720
C18 C 0.9189(5) 0.8725(4) 0.0856(3)
H19 H 1.0141 0.9329 0.0086
C19 C 0.7135(6) 0.9414(4) 0.1001(3)
H20 H 0.6672 1.0465 0.0312
C20 C 0.5724(5) 0.8540(4) 0.2186(3)
H21 H 0.4324 0.9020 0.2281
N1 N 0.4204(4) 0.3875(3) 0.6852(2)
O1 O 0.3570(4) 0.0574(3) 0.8129(3)
O2 O 0.0643(3) 0.2821(3) 0.8245(2)
S1 S 0.24606(7) 0.22315(6) 0.74218(6)
loop_
_geom_bond_atom_site_label_1
_geom_bond_atom_site_label_2
_geom_bond_site_symmetry_1
_geom_bond_site_symmetry_2
C1 C2 1_555 1_555
C2 H1 1_555 1_555
C3 C2 1_555 1_555
H2 C3 1_555 1_555
C4 C3 1_555 1_555
H3 C4 1_555 1_555
C5 C4 1_555 1_555
H4 C5 1_555 1_555
C6 C1 1_555 1_555
C7 C6 1_555 1_555
H5 C7 1_555 1_555
C8 H6 1_555 1_555
C9 C8 1_555 1_555
H7 C9 1_555 1_555
H8 C9 1_555 1_555
C10 C9 1_555 1_555
H9 C10 1_555 1_555
H10 C10 1_555 1_555
C11 C10 1_555 1_555
H11 C11 1_555 1_555
H12 C11 1_555 1_555
C12 C11 1_555 1_555
H13 C12 1_555 1_555
H14 C12 1_555 1_555
C13 C8 1_555 1_555
H15 C13 1_555 1_555
C14 C7 1_555 1_555
H16 C14 1_555 1_555
C15 C14 1_555 1_555
C16 C15 1_555 1_555
H17 C16 1_555 1_555
C17 C16 1_555 1_555
H18 C17 1_555 1_555
C18 C17 1_555 1_555
H19 C18 1_555 1_555
C19 C18 1_555 1_555
H20 C19 1_555 1_555
C20 C15 1_555 1_555
H21 C20 1_555 1_555
N1 C7 1_555 1_555
O1 S1 1_555 1_555
O2 S1 1_555 1_555
S1 C1 1_555 1_555
C5 C6 1_555 1_555
C8 N1 1_555 1_555
C12 C13 1_555 1_555
C13 C14 1_555 1_555
C19 C20 1_555 1_555
N1 S1 1_555 1_555

#END
