
#######################################################################
#
#                 Cambridge Crystallographic Data Centre
#                                CCDC 
#
#######################################################################
#
# If this CIF has been generated from an entry in the Cambridge 
# Structural Database, then it will include bibliographic, chemical, 
# crystal, experimental, refinement or atomic coordinate data resulting 
# from the CCDC's data processing and validation procedures.
#
#######################################################################

data_ANUKIF
_chemical_formula_moiety         'C18 H32 N2 O4,0.25(H2 O1)'
_chemical_name_systematic        
't-butyl (1S,2S,3R,5R)-(2-((S)-1-acetamido-2-ethylbutyl)-6-oxabicyclo[3.1.0]hexan-3-yl)carbamate hydrate'
_symmetry_cell_setting           orthorhombic
_symmetry_space_group_name_H-M   'P 21 21 21'
_symmetry_Int_Tables_number      19
_space_group_name_Hall           'P 2ac 2ab'
loop_
_symmetry_equiv_pos_site_id
_symmetry_equiv_pos_as_xyz
1 x,y,z
2 1/2-x,-y,1/2+z
3 -x,1/2+y,1/2-z
4 1/2+x,1/2-y,-z
_cell_length_a                   10.1743(7)
_cell_length_b                   17.6975(8)
_cell_length_c                   23.0051(14)
_cell_angle_alpha                90
_cell_angle_beta                 90
_cell_angle_gamma                90
_cell_volume                     4142.29
_exptl_crystal_description       Columnar
_cell_formula_units_Z            8
loop_
_atom_site_label
_atom_site_type_symbol
_atom_site_fract_x
_atom_site_fract_y
_atom_site_fract_z
O1 O 0.4214(2) 0.85252(11) 0.09696(9)
O2 O 0.3243(3) 0.73998(12) 0.07978(11)
O3 O -0.0837(2) 0.70309(12) 0.19673(12)
O4 O 0.3895(2) 0.59767(10) 0.20151(9)
N1 N 0.2530(3) 0.81849(13) 0.15015(11)
H1 H 0.256(4) 0.861(2) 0.1652(16)
N2 N 0.3375(2) 0.70624(12) 0.24679(10)
H2 H 0.366(4) 0.748(2) 0.2562(15)
C1 C 0.1380(3) 0.77447(13) 0.16629(12)
H3 H 0.1448 0.7251 0.1472
C2 C 0.0096(3) 0.81151(17) 0.14617(16)
H4 H 0.0162 0.8661 0.1478
H5 H -0.0118 0.7965 0.1067
C3 C -0.0902(3) 0.78360(17) 0.18754(18)
H6 H -0.1742 0.8102 0.1916
C4 C -0.0250(3) 0.75350(16) 0.23841(15)
H7 H -0.0655 0.7597 0.2768
C5 C 0.1212(3) 0.76049(13) 0.23212(12)
H8 H 0.1505 0.8056 0.2532
C6 C 0.3315(3) 0.79814(16) 0.10637(13)
C7 C 0.5125(4) 0.84794(19) 0.04745(15)
C8 C 0.5816(5) 0.9241(3) 0.0496(2)
H9 H 0.5185 0.9637 0.0437
H10 H 0.6470 0.9263 0.0195
H11 H 0.6230 0.9304 0.0868
C9 C 0.4374(5) 0.8403(2) -0.00786(17)
H12 H 0.3960 0.7916 -0.0092
H13 H 0.4964 0.8453 -0.0402
H14 H 0.3716 0.8790 -0.0098
C10 C 0.6080(5) 0.7830(3) 0.0565(2)
H15 H 0.5612 0.7360 0.0549
H16 H 0.6494 0.7881 0.0938
H17 H 0.6737 0.7840 0.0266
C11 C 0.1977(3) 0.69183(13) 0.25498(13)
H18 H 0.1745 0.6486 0.2304
C12 C 0.4205(3) 0.66105(14) 0.21915(12)
C13 C 0.5560(3) 0.69170(17) 0.21030(15)
H19 H 0.6085 0.6550 0.1901
H20 H 0.5951 0.7025 0.2474
H21 H 0.5514 0.7372 0.1877
C14 C 0.1659(3) 0.66986(15) 0.31790(14)
H22 H 0.0701 0.6663 0.3209
C15 C 0.2106(5) 0.7300(2) 0.36150(15)
H23 H 0.3060 0.7308 0.3618
H24 H 0.1812 0.7789 0.3476
C16 C 0.1637(6) 0.7204(3) 0.42284(19)
H25 H 0.1971 0.7608 0.4464
H26 H 0.1946 0.6730 0.4378
H27 H 0.0694 0.7211 0.4236
C17 C 0.2214(4) 0.59230(19) 0.33378(18)
H28 H 0.3077 0.5878 0.3162
H29 H 0.2335 0.5908 0.3756
C18 C 0.1469(5) 0.5284(2) 0.3175(4)
H30 H 0.1914 0.4833 0.3297
H31 H 0.1365 0.5277 0.2760
H32 H 0.0620 0.5307 0.3356
O5 O 0.7820(2) 0.60334(11) 0.31179(9)
O6 O 0.7619(3) 0.47546(12) 0.30438(11)
O7 O 0.9189(4) 0.39978(19) 0.09508(19)
O8 O 0.5900(3) 0.35063(11) 0.21060(10)
N3 N 0.8248(3) 0.54854(13) 0.22910(11)
H33 H 0.840(4) 0.593(2) 0.2189(16)
N4 N 0.5642(3) 0.46875(12) 0.17706(10)
H34 H 0.522(4) 0.5121(18) 0.1831(16)
C19 C 0.8502(3) 0.48899(15) 0.18697(16)
H35 H 0.8241 0.4405 0.2039
C20 C 0.9979(5) 0.4852(2) 0.1704(2)
H36 H 1.0405 0.5335 0.1766
H37 H 1.0431 0.4468 0.1930
C21 C 0.9962(7) 0.4649(3) 0.1068(3)
H38 H 1.0730 0.4760 0.0826
C22 C 0.8684(7) 0.4739(3) 0.0836(2)
H39 H 0.8569 0.4911 0.0434
C23 C 0.7755(4) 0.50041(16) 0.13032(14)
H40 H 0.7589 0.5545 0.1250
C24 C 0.7872(3) 0.53658(16) 0.28353(13)
C25 C 0.7289(4) 0.6101(2) 0.37029(14)
C26 C 0.8073(6) 0.5642(3) 0.4121(2)
H41 H 0.7933 0.5114 0.4045
H42 H 0.7801 0.5757 0.4511
H43 H 0.8989 0.5758 0.4076
C27 C 0.7460(6) 0.6930(3) 0.3818(2)
H44 H 0.6923 0.7214 0.3553
H45 H 0.8366 0.7066 0.3764
H46 H 0.7201 0.7041 0.4210
C28 C 0.5858(5) 0.5888(4) 0.3690(2)
H47 H 0.5776 0.5356 0.3616
H48 H 0.5422 0.6165 0.3388
H49 H 0.5463 0.6006 0.4058
C29 C 0.6458(4) 0.45811(15) 0.12609(12)
H50 H 0.6682 0.4043 0.1251
C30 C 0.5379(3) 0.41289(15) 0.21462(13)
C31 C 0.4427(4) 0.42912(17) 0.26231(15)
H51 H 0.4312 0.3847 0.2857
H52 H 0.3598 0.4437 0.2459
H53 H 0.4759 0.4695 0.2861
C32 C 0.5691(5) 0.47405(19) 0.07013(15)
H54 H 0.6307 0.4650 0.0382
C33 C 0.4577(6) 0.4174(3) 0.0619(2)
H55 H 0.3970 0.4228 0.0941
H56 H 0.4105 0.4307 0.0267
C34 C 0.4953(8) 0.3391(3) 0.0579(3)
H57 H 0.4182 0.3084 0.0534
H58 H 0.5409 0.3246 0.0927
H59 H 0.5520 0.3321 0.0250
C35 C 0.5254(7) 0.5561(2) 0.06412(17)
H60 H 0.4511 0.5647 0.0897
H61 H 0.5964 0.5886 0.0770
C36 C 0.4865(7) 0.5788(3) 0.00279(18)
H62 H 0.4593 0.6308 0.0026
H63 H 0.4153 0.5475 -0.0102
H64 H 0.5603 0.5726 -0.0227
O9 O 0.2125(6) 0.5956(3) 0.0992(3)
H65 H 0.264(3) 0.595(6) 0.1311(12)
H66 H 0.227(12) 0.643(3) 0.086(4)
loop_
_geom_bond_atom_site_label_1
_geom_bond_atom_site_label_2
_geom_bond_site_symmetry_1
_geom_bond_site_symmetry_2
O1 C6 1_555 1_555
O2 C6 1_555 1_555
O3 C3 1_555 1_555
O4 C12 1_555 1_555
N1 H1 1_555 1_555
N2 H2 1_555 1_555
C1 N1 1_555 1_555
H3 C1 1_555 1_555
C2 C1 1_555 1_555
H4 C2 1_555 1_555
H5 C2 1_555 1_555
C3 C2 1_555 1_555
H6 C3 1_555 1_555
C4 O3 1_555 1_555
H7 C4 1_555 1_555
C5 C1 1_555 1_555
H8 C5 1_555 1_555
C6 N1 1_555 1_555
C7 O1 1_555 1_555
C8 C7 1_555 1_555
H9 C8 1_555 1_555
H10 C8 1_555 1_555
H11 C8 1_555 1_555
C9 C7 1_555 1_555
H12 C9 1_555 1_555
H13 C9 1_555 1_555
H14 C9 1_555 1_555
C10 C7 1_555 1_555
H15 C10 1_555 1_555
H16 C10 1_555 1_555
H17 C10 1_555 1_555
C11 N2 1_555 1_555
H18 C11 1_555 1_555
C12 N2 1_555 1_555
C13 C12 1_555 1_555
H19 C13 1_555 1_555
H20 C13 1_555 1_555
H21 C13 1_555 1_555
C14 C11 1_555 1_555
H22 C14 1_555 1_555
C15 C14 1_555 1_555
H23 C15 1_555 1_555
H24 C15 1_555 1_555
C16 C15 1_555 1_555
H25 C16 1_555 1_555
H26 C16 1_555 1_555
H27 C16 1_555 1_555
C17 C14 1_555 1_555
H28 C17 1_555 1_555
H29 C17 1_555 1_555
C18 C17 1_555 1_555
H30 C18 1_555 1_555
H31 C18 1_555 1_555
H32 C18 1_555 1_555
O5 C24 1_555 1_555
O6 C24 1_555 1_555
O7 C21 1_555 1_555
O8 C30 1_555 1_555
N3 H33 1_555 1_555
N4 H34 1_555 1_555
C19 N3 1_555 1_555
H35 C19 1_555 1_555
C20 C19 1_555 1_555
H36 C20 1_555 1_555
H37 C20 1_555 1_555
C21 C20 1_555 1_555
H38 C21 1_555 1_555
C22 O7 1_555 1_555
H39 C22 1_555 1_555
C23 C19 1_555 1_555
H40 C23 1_555 1_555
C24 N3 1_555 1_555
C25 O5 1_555 1_555
C26 C25 1_555 1_555
H41 C26 1_555 1_555
H42 C26 1_555 1_555
H43 C26 1_555 1_555
C27 C25 1_555 1_555
H44 C27 1_555 1_555
H45 C27 1_555 1_555
H46 C27 1_555 1_555
C28 C25 1_555 1_555
H47 C28 1_555 1_555
H48 C28 1_555 1_555
H49 C28 1_555 1_555
C29 N4 1_555 1_555
H50 C29 1_555 1_555
C30 N4 1_555 1_555
C31 C30 1_555 1_555
H51 C31 1_555 1_555
H52 C31 1_555 1_555
H53 C31 1_555 1_555
C32 C29 1_555 1_555
H54 C32 1_555 1_555
C33 C32 1_555 1_555
H55 C33 1_555 1_555
H56 C33 1_555 1_555
C34 C33 1_555 1_555
H57 C34 1_555 1_555
H58 C34 1_555 1_555
H59 C34 1_555 1_555
C35 C32 1_555 1_555
H60 C35 1_555 1_555
H61 C35 1_555 1_555
C36 C35 1_555 1_555
H62 C36 1_555 1_555
H63 C36 1_555 1_555
H64 C36 1_555 1_555
O9 H65 1_555 1_555
H66 O9 1_555 1_555
C3 C4 1_555 1_555
C4 C5 1_555 1_555
C5 C11 1_555 1_555
C21 C22 1_555 1_555
C22 C23 1_555 1_555
C23 C29 1_555 1_555

#END
