
#######################################################################
#
#                 Cambridge Crystallographic Data Centre
#                                CCDC 
#
#######################################################################
#
# If this CIF has been generated from an entry in the Cambridge 
# Structural Database, then it will include bibliographic, chemical, 
# crystal, experimental, refinement or atomic coordinate data resulting 
# from the CCDC's data processing and validation procedures.
#
#######################################################################

data_ANUQIL
_chemical_formula_moiety         'C24 H28 Cl1 N1 O7'
_chemical_name_systematic        
'dimethyl 3-(4-chlorophenyl)-7-ethoxy-2-(4-methoxyphenyl)-1,2-oxazepane-4,4-dicarboxylate'
_symmetry_cell_setting           monoclinic
_symmetry_space_group_name_H-M   'P 21/n'
_symmetry_Int_Tables_number      14
_space_group_name_Hall           '-P 2yn'
loop_
_symmetry_equiv_pos_site_id
_symmetry_equiv_pos_as_xyz
1 x,y,z
2 1/2-x,1/2+y,1/2-z
3 -x,-y,-z
4 1/2+x,1/2-y,1/2+z
_cell_length_a                   10.5446(12)
_cell_length_b                   9.5462(10)
_cell_length_c                   24.575(3)
_cell_angle_alpha                90
_cell_angle_beta                 91.778(2)
_cell_angle_gamma                90
_cell_volume                     2472.55
_exptl_crystal_colour            colorless
_exptl_crystal_description       prismatic
_cell_formula_units_Z            4
_exptl_crystal_recrystallization_method hexane/isopropanol
loop_
_atom_site_label
_atom_site_type_symbol
_atom_site_fract_x
_atom_site_fract_y
_atom_site_fract_z
Cl1 Cl 0.42033(7) 0.64598(8) 0.15142(2)
N1 N 0.47082(16) 0.92025(16) 0.40793(6)
O1 O 0.56252(14) 0.80951(14) 0.41045(6)
O2 O 0.66046(17) 0.65188(18) 0.46390(8)
O3 O 0.66238(18) 1.39677(18) 0.30711(9)
O4 O 0.20859(17) 0.97641(16) 0.46016(6)
O5 O 0.14757(17) 0.76793(17) 0.49016(7)
O6 O 0.1838(2) 0.56288(18) 0.37354(8)
O7 O 0.10354(15) 0.77624(18) 0.35886(7)
C1 C 0.5804(3) 0.7662(2) 0.46641(10)
H1 H 0.6198 0.8413 0.4882
C2 C 0.4580(3) 0.7206(2) 0.49041(9)
H2 H 0.4179 0.8011 0.5068
H3 H 0.4762 0.6530 0.5190
C3 C 0.3659(2) 0.6557(2) 0.44891(8)
H4 H 0.3102 0.5922 0.4676
H5 H 0.4136 0.6009 0.4234
C4 C 0.28422(19) 0.76328(19) 0.41683(7)
C5 C 0.35668(18) 0.86475(19) 0.37903(7)
H6 H 0.3004 0.9455 0.3734
C6 C 0.37969(18) 0.80717(19) 0.32250(7)
C7 C 0.3267(2) 0.8787(2) 0.27816(8)
H7 H 0.2815 0.9606 0.2840
C8 C 0.3395(2) 0.8312(2) 0.22557(8)
H8 H 0.3035 0.8804 0.1963
C9 C 0.4065(2) 0.7098(2) 0.21741(8)
C10 C 0.4615(2) 0.6380(2) 0.25999(8)
H9 H 0.5074 0.5568 0.2537
C11 C 0.4485(2) 0.6867(2) 0.31241(8)
H10 H 0.4864 0.6380 0.3414
C12 C 0.52501(19) 1.03866(19) 0.38116(8)
C13 C 0.4530(2) 1.1598(2) 0.37620(9)
H11 H 0.3717 1.1622 0.3897
C14 C 0.5015(2) 1.2765(2) 0.35134(10)
H12 H 0.4521 1.3569 0.3478
C15 C 0.6227(2) 1.2755(2) 0.33151(10)
C16 C 0.6950(2) 1.1569(2) 0.33726(11)
H13 H 0.7773 1.1555 0.3247
C17 C 0.6455(2) 1.0389(2) 0.36183(10)
H14 H 0.6951 0.9586 0.3653
C18 C 0.7864(3) 1.4007(4) 0.28723(17)
H15 H 0.8468 1.3922 0.3171
H16 H 0.7993 1.4880 0.2688
H17 H 0.7974 1.3246 0.2623
C19 C 0.7828(12) 0.6991(14) 0.4583(5)
H18 H 0.8035 0.7662 0.4869
H19 H 0.7897 0.7460 0.4236
C20 C 0.8719(12) 0.5830(12) 0.4616(6)
H20 H 0.8905 0.5608 0.4991
H21 H 0.9488 0.6088 0.4442
H22 H 0.8352 0.5028 0.4436
C21 C 0.2109(2) 0.8520(2) 0.45747(8)
C22 C 0.0798(3) 0.8332(3) 0.53345(12)
H23 H 0.1358 0.8951 0.5535
H24 H 0.0489 0.7624 0.5574
H25 H 0.0095 0.8857 0.5183
C23 C 0.1857(2) 0.6861(2) 0.38145(8)
C24 C 0.0161(3) 0.7216(4) 0.31780(13)
H26 H 0.0611 0.7003 0.2855
H27 H -0.0482 0.7903 0.3095
H28 H -0.0229 0.6380 0.3311
C25? C 0.7884(13) 0.6640(14) 0.4347(5)
H29? H 0.7727 0.6881 0.3967
H30? H 0.8397 0.7375 0.4514
C26? C 0.8545(12) 0.5339(12) 0.4384(6)
H31? H 0.8565 0.5019 0.4754
H32? H 0.9397 0.5463 0.4266
H33? H 0.8119 0.4657 0.4156
loop_
_geom_bond_atom_site_label_1
_geom_bond_atom_site_label_2
_geom_bond_site_symmetry_1
_geom_bond_site_symmetry_2
Cl1 C9 1_555 1_555
N1 O1 1_555 1_555
O1 C1 1_555 1_555
O2 C1 1_555 1_555
O3 C15 1_555 1_555
O4 C21 1_555 1_555
O5 C21 1_555 1_555
O6 C23 1_555 1_555
O7 C23 1_555 1_555
C1 H1 1_555 1_555
C2 C1 1_555 1_555
H2 C2 1_555 1_555
H3 C2 1_555 1_555
C3 C2 1_555 1_555
H4 C3 1_555 1_555
H5 C3 1_555 1_555
C4 C3 1_555 1_555
C5 N1 1_555 1_555
H6 C5 1_555 1_555
C6 C5 1_555 1_555
C7 C6 1_555 1_555
H7 C7 1_555 1_555
C8 C7 1_555 1_555
H8 C8 1_555 1_555
C9 C8 1_555 1_555
C10 C9 1_555 1_555
H9 C10 1_555 1_555
C11 C6 1_555 1_555
H10 C11 1_555 1_555
C12 N1 1_555 1_555
C13 C12 1_555 1_555
H11 C13 1_555 1_555
C14 C13 1_555 1_555
H12 C14 1_555 1_555
C15 C14 1_555 1_555
C16 C15 1_555 1_555
H13 C16 1_555 1_555
C17 C12 1_555 1_555
H14 C17 1_555 1_555
C18 O3 1_555 1_555
H15 C18 1_555 1_555
H16 C18 1_555 1_555
H17 C18 1_555 1_555
C19 O2 1_555 1_555
H18 C19 1_555 1_555
H19 C19 1_555 1_555
C20 C19 1_555 1_555
H20 C20 1_555 1_555
H21 C20 1_555 1_555
H22 C20 1_555 1_555
C21 C4 1_555 1_555
C22 O5 1_555 1_555
H23 C22 1_555 1_555
H24 C22 1_555 1_555
H25 C22 1_555 1_555
C23 C4 1_555 1_555
C24 O7 1_555 1_555
H26 C24 1_555 1_555
H27 C24 1_555 1_555
H28 C24 1_555 1_555
C4 C5 1_555 1_555
C10 C11 1_555 1_555
C16 C17 1_555 1_555

#END
