
#######################################################################
#
#                 Cambridge Crystallographic Data Centre
#                                CCDC 
#
#######################################################################
#
# If this CIF has been generated from an entry in the Cambridge 
# Structural Database, then it will include bibliographic, chemical, 
# crystal, experimental, refinement or atomic coordinate data resulting 
# from the CCDC's data processing and validation procedures.
#
#######################################################################

data_ANUQUX
_chemical_formula_moiety         'C29 H30 Br1 N1 O7'
_chemical_name_systematic        
'(3R,7R)-dimethyl 3-(4-bromophenyl)-2,7-bis(4-methoxyphenyl)-1,2-oxazepane-4,4-dicarboxylate'
_symmetry_cell_setting           orthorhombic
_symmetry_space_group_name_H-M   'P 21 21 21'
_symmetry_Int_Tables_number      19
_space_group_name_Hall           'P 2ac 2ab'
loop_
_symmetry_equiv_pos_site_id
_symmetry_equiv_pos_as_xyz
1 x,y,z
2 1/2-x,-y,1/2+z
3 -x,1/2+y,1/2-z
4 1/2+x,1/2-y,-z
_cell_length_a                   9.948(7)
_cell_length_b                   13.552(9)
_cell_length_c                   21.041(15)
_cell_angle_alpha                90
_cell_angle_beta                 90
_cell_angle_gamma                90
_cell_volume                     2836.65
_exptl_crystal_colour            colorless
_exptl_crystal_description       prismatic
_cell_formula_units_Z            4
_exptl_crystal_recrystallization_method hexane/isopropanol
loop_
_atom_site_label
_atom_site_type_symbol
_atom_site_fract_x
_atom_site_fract_y
_atom_site_fract_z
Br1 Br 0.43443(7) -0.01848(7) 0.56591(4)
N1 N 0.8893(3) 0.3210(2) 0.69368(14)
O1 O 0.8382(3) 0.26964(18) 0.74829(12)
O2 O 0.7145(4) 0.0942(2) 1.01684(15)
O3 O 0.6006(4) 0.6617(2) 0.6327(2)
O4 O 1.0576(4) 0.0223(2) 0.62635(14)
O5 O 1.0675(3) 0.13818(19) 0.55092(13)
O6 O 1.1502(4) 0.3450(2) 0.61571(17)
O7 O 1.2820(3) 0.2281(2) 0.65608(17)
C1 C 0.9379(5) 0.2795(3) 0.79881(17)
H1 H 0.9491 0.3498 0.8083
C2 C 1.0732(5) 0.2385(3) 0.7766(2)
H2 H 1.1203 0.2126 0.8133
H3 H 1.1262 0.2927 0.7599
C3 C 1.0671(4) 0.1575(3) 0.72606(18)
H4 H 0.9929 0.1137 0.7360
H5 H 1.1492 0.1190 0.7283
C4 C 1.0494(4) 0.1952(3) 0.65702(18)
C5 C 0.9137(4) 0.2485(3) 0.64258(18)
H6 H 0.9300 0.2876 0.6042
C6 C 0.7954(4) 0.1819(3) 0.62671(19)
C7 C 0.7408(5) 0.1118(3) 0.6674(2)
H7 H 0.7771 0.1044 0.7079
C8 C 0.6347(5) 0.0529(4) 0.6496(2)
H8 H 0.6001 0.0061 0.6774
C9 C 0.5804(5) 0.0644(4) 0.5900(3)
C10 C 0.6294(5) 0.1311(4) 0.5485(2)
H9 H 0.5915 0.1374 0.5083
C11 C 0.7371(5) 0.1904(3) 0.5664(2)
H10 H 0.7709 0.2365 0.5378
C12 C 0.8767(4) 0.2297(3) 0.85633(17)
C13 C 0.8635(5) 0.1275(3) 0.86151(18)
H11 H 0.8917 0.0874 0.8282
C14 C 0.8090(5) 0.0851(3) 0.9156(2)
H12 H 0.8010 0.0169 0.9184
C15 C 0.7663(5) 0.1441(3) 0.9655(2)
C16 C 0.7783(5) 0.2440(3) 0.9607(2)
H13 H 0.7502 0.2843 0.9939
C17 C 0.8325(5) 0.2856(3) 0.9063(2)
H14 H 0.8390 0.3539 0.9036
C18 C 0.6821(6) 0.1499(4) 1.0714(2)
H15 H 0.7597 0.1866 1.0848
H16 H 0.6543 0.1064 1.1049
H17 H 0.6104 0.1948 1.0615
C19 C 0.8054(4) 0.4028(3) 0.67803(18)
C20 C 0.6961(5) 0.4302(3) 0.7142(2)
H18 H 0.6696 0.3913 0.7484
C21 C 0.6247(5) 0.5167(3) 0.6997(2)
H19 H 0.5511 0.5346 0.7243
C22 C 0.6621(5) 0.5747(3) 0.6499(2)
C23 C 0.7730(5) 0.5487(3) 0.6141(2)
H20 H 0.7997 0.5883 0.5803
C24 C 0.8440(5) 0.4643(3) 0.62816(19)
H21 H 0.9190 0.4480 0.6040
C25 C 0.4964(7) 0.6972(5) 0.6717(4)
H22 H 0.4251 0.6495 0.6732
H23 H 0.4628 0.7581 0.6546
H24 H 0.5302 0.7082 0.7138
C26 C 1.0597(4) 0.1066(3) 0.61126(19)
C27 C 1.0688(6) 0.0632(4) 0.5024(2)
H25 H 1.1403 0.0174 0.5107
H26 H 1.0825 0.0934 0.4616
H27 H 0.9844 0.0288 0.5025
C28 C 1.1636(4) 0.2665(3) 0.6405(2)
C29 C 1.3973(6) 0.2884(5) 0.6420(3)
H28 H 1.4020 0.2998 0.5970
H29 H 1.4774 0.2552 0.6558
H30 H 1.3894 0.3504 0.6638
loop_
_geom_bond_atom_site_label_1
_geom_bond_atom_site_label_2
_geom_bond_site_symmetry_1
_geom_bond_site_symmetry_2
Br1 C9 1_555 1_555
N1 O1 1_555 1_555
O1 C1 1_555 1_555
O2 C15 1_555 1_555
O3 C22 1_555 1_555
O4 C26 1_555 1_555
O5 C26 1_555 1_555
O6 C28 1_555 1_555
O7 C28 1_555 1_555
C1 H1 1_555 1_555
C2 C1 1_555 1_555
H2 C2 1_555 1_555
H3 C2 1_555 1_555
C3 C2 1_555 1_555
H4 C3 1_555 1_555
H5 C3 1_555 1_555
C4 C3 1_555 1_555
C5 N1 1_555 1_555
H6 C5 1_555 1_555
C6 C5 1_555 1_555
C7 C6 1_555 1_555
H7 C7 1_555 1_555
C8 C7 1_555 1_555
H8 C8 1_555 1_555
C9 C8 1_555 1_555
C10 C9 1_555 1_555
H9 C10 1_555 1_555
C11 C6 1_555 1_555
H10 C11 1_555 1_555
C12 C1 1_555 1_555
C13 C12 1_555 1_555
H11 C13 1_555 1_555
C14 C13 1_555 1_555
H12 C14 1_555 1_555
C15 C14 1_555 1_555
C16 C15 1_555 1_555
H13 C16 1_555 1_555
C17 C12 1_555 1_555
H14 C17 1_555 1_555
C18 O2 1_555 1_555
H15 C18 1_555 1_555
H16 C18 1_555 1_555
H17 C18 1_555 1_555
C19 N1 1_555 1_555
C20 C19 1_555 1_555
H18 C20 1_555 1_555
C21 C20 1_555 1_555
H19 C21 1_555 1_555
C22 C21 1_555 1_555
C23 C22 1_555 1_555
H20 C23 1_555 1_555
C24 C19 1_555 1_555
H21 C24 1_555 1_555
C25 O3 1_555 1_555
H22 C25 1_555 1_555
H23 C25 1_555 1_555
H24 C25 1_555 1_555
C26 C4 1_555 1_555
C27 O5 1_555 1_555
H25 C27 1_555 1_555
H26 C27 1_555 1_555
H27 C27 1_555 1_555
C28 C4 1_555 1_555
C29 O7 1_555 1_555
H28 C29 1_555 1_555
H29 C29 1_555 1_555
H30 C29 1_555 1_555
C4 C5 1_555 1_555
C10 C11 1_555 1_555
C16 C17 1_555 1_555
C23 C24 1_555 1_555

#END
