
#######################################################################
#
#                 Cambridge Crystallographic Data Centre
#                                CCDC 
#
#######################################################################
#
# If this CIF has been generated from an entry in the Cambridge 
# Structural Database, then it will include bibliographic, chemical, 
# crystal, experimental, refinement or atomic coordinate data resulting 
# from the CCDC's data processing and validation procedures.
#
#######################################################################

data_ANURAE
_chemical_formula_moiety         'C14 H15 F3 O4 S1'
_chemical_name_systematic        
'dimethyl ((2-phenylethyl)(trifluoromethyl)-\l^4^-sulfanylidene)malonate'
_symmetry_cell_setting           monoclinic
_symmetry_space_group_name_H-M   'P 21/n'
_symmetry_Int_Tables_number      14
_space_group_name_Hall           '-P 2yn'
loop_
_symmetry_equiv_pos_site_id
_symmetry_equiv_pos_as_xyz
1 x,y,z
2 1/2-x,1/2+y,1/2-z
3 -x,-y,-z
4 1/2+x,1/2-y,1/2+z
_cell_length_a                   5.4571(5)
_cell_length_b                   34.890(3)
_cell_length_c                   7.6271(7)
_cell_angle_alpha                90
_cell_angle_beta                 96.378(2)
_cell_angle_gamma                90
_cell_volume                     1443.2
_exptl_crystal_colour            colorless
_exptl_crystal_description       block
_cell_formula_units_Z            4
loop_
_atom_site_label
_atom_site_type_symbol
_atom_site_fract_x
_atom_site_fract_y
_atom_site_fract_z
S1 S 0.47778(7) 0.09495(2) 0.28253(5)
F1 F 0.6898(2) 0.04352(3) 0.10350(15)
F2 F 0.3058(2) 0.03174(3) 0.10635(15)
F3 F 0.5569(2) 0.02104(3) 0.33853(15)
O1 O 0.0602(2) 0.05423(4) 0.40556(16)
O2 O 0.1576(2) 0.06593(4) 0.69477(16)
O3 O 0.5244(3) 0.11833(4) 0.77737(17)
O4 O 0.7534(2) 0.13108(4) 0.55713(17)
C1 C 0.5054(3) 0.04420(5) 0.2034(2)
C2 C 0.4028(3) 0.09312(5) 0.4923(2)
C3 C 0.1920(3) 0.06982(5) 0.5245(2)
C4 C -0.0385(3) 0.03979(5) 0.7272(2)
H1 H -0.1951 0.0491 0.6669
H2 H -0.0501 0.0383 0.8543
H3 H -0.0029 0.0143 0.6823
C5 C 0.5584(3) 0.11431(5) 0.6237(2)
C6 C 0.9072(4) 0.15469(6) 0.6778(3)
H4 H 0.8043 0.1690 0.7524
H5 H 0.9995 0.1727 0.6114
H6 H 1.0230 0.1385 0.7521
C7 C 0.2104(3) 0.10931(5) 0.1318(2)
H7 H 0.2549 0.1104 0.0096
H8 H 0.0759 0.0904 0.1357
C8 C 0.1246(3) 0.14877(5) 0.1874(2)
H9 H -0.0175 0.1569 0.1037
H10 H 0.0668 0.1466 0.3055
C9 C 0.3208(3) 0.17940(5) 0.1941(2)
C10 C 0.4322(4) 0.18888(5) 0.0440(2)
H11 H 0.3827 0.1761 -0.0642
C11 C 0.6144(4) 0.21675(6) 0.0507(3)
H12 H 0.6880 0.2230 -0.0527
C12 C 0.6895(4) 0.23550(5) 0.2079(3)
H13 H 0.8145 0.2545 0.2124
C13 C 0.5816(4) 0.22637(6) 0.3581(3)
H14 H 0.6324 0.2391 0.4661
C14 C 0.3986(4) 0.19852(6) 0.3507(3)
H15 H 0.3252 0.1924 0.4545
loop_
_geom_bond_atom_site_label_1
_geom_bond_atom_site_label_2
_geom_bond_site_symmetry_1
_geom_bond_site_symmetry_2
S1 C1 1_555 1_555
F1 C1 1_555 1_555
F2 C1 1_555 1_555
F3 C1 1_555 1_555
O1 C3 1_555 1_555
O2 C3 1_555 1_555
O3 C5 1_555 1_555
O4 C5 1_555 1_555
C2 S1 1_555 1_555
C3 C2 1_555 1_555
C4 O2 1_555 1_555
H1 C4 1_555 1_555
H2 C4 1_555 1_555
H3 C4 1_555 1_555
C5 C2 1_555 1_555
C6 O4 1_555 1_555
H4 C6 1_555 1_555
H5 C6 1_555 1_555
H6 C6 1_555 1_555
C7 S1 1_555 1_555
H7 C7 1_555 1_555
H8 C7 1_555 1_555
C8 C7 1_555 1_555
H9 C8 1_555 1_555
H10 C8 1_555 1_555
C9 C8 1_555 1_555
C10 C9 1_555 1_555
H11 C10 1_555 1_555
C11 C10 1_555 1_555
H12 C11 1_555 1_555
C12 C11 1_555 1_555
H13 C12 1_555 1_555
C13 C12 1_555 1_555
H14 C13 1_555 1_555
C14 C9 1_555 1_555
H15 C14 1_555 1_555
C13 C14 1_555 1_555

#END
