
#######################################################################
#
#                 Cambridge Crystallographic Data Centre
#                                CCDC 
#
#######################################################################
#
# If this CIF has been generated from an entry in the Cambridge 
# Structural Database, then it will include bibliographic, chemical, 
# crystal, experimental, refinement or atomic coordinate data resulting 
# from the CCDC's data processing and validation procedures.
#
#######################################################################

data_ANUYEO
_chemical_formula_moiety         'C32 H32 N2 O2'
_chemical_name_systematic        
(2Z,2'Z)-2,2'-(1,4-Phenylene)bis(3-(4-butoxyphenyl)acrylonitrile)
_symmetry_cell_setting           triclinic
_symmetry_space_group_name_H-M   'P -1'
_symmetry_Int_Tables_number      2
_space_group_name_Hall           '-P 1'
loop_
_symmetry_equiv_pos_site_id
_symmetry_equiv_pos_as_xyz
1 x,y,z
2 -x,-y,-z
_cell_length_a                   7.6944(19)
_cell_length_b                   8.914(2)
_cell_length_c                   9.926(3)
_cell_angle_alpha                96.945(4)
_cell_angle_beta                 102.309(4)
_cell_angle_gamma                91.532(4)
_cell_volume                     659.304
_exptl_crystal_colour            'pale yellow'
_exptl_crystal_description       plate
_cell_formula_units_Z            1
_exptl_crystal_recrystallization_method 'ethyl acetate'
loop_
_atom_site_label
_atom_site_type_symbol
_atom_site_fract_x
_atom_site_fract_y
_atom_site_fract_z
O1 O 0.37504(15) 0.94283(11) 0.78984(11)
C1 C 0.3870(2) 0.77159(16) 0.95141(16)
H1 H 0.4667 0.8395 1.0152
C2 C 0.31971(19) 0.80713(15) 0.81956(16)
C3 C 0.05577(18) 0.27445(15) 0.88362(14)
C4 C 0.02873(18) 0.13488(15) 0.94451(14)
C5 C 0.21635(19) 0.53137(15) 0.89648(15)
C6 C 0.2957(2) 0.98606(17) 0.65799(18)
H2 H 0.1678 0.9891 0.6487
H3 H 0.3183 0.9120 0.5846
C7 C 0.17195(19) 0.39109(16) 0.94471(15)
H4 H 0.2348 0.3796 1.0336
C8 C 0.3370(2) 0.63668(16) 0.98877(15)
H5 H 0.3844 0.6143 1.0779
C9 C 0.3708(2) 1.13793(17) 0.64400(18)
H6 H 0.4991 1.1354 0.6560
H7 H 0.3455 1.2123 0.7162
C10 C -0.1043(2) 0.02664(18) 0.87794(17)
H8 H -0.1768 0.0434 0.7939
C11 C 0.1523(2) 0.57009(18) 0.76381(17)
H9 H 0.0732 0.5025 0.6993
C12 C 0.2018(2) 0.70447(18) 0.72519(17)
H10 H 0.1564 0.7269 0.6357
C13 C 0.1329(2) 0.10398(18) 1.06854(17)
H11 H 0.2242 0.1732 1.1166
C14 C -0.0564(2) 0.27977(18) 0.74949(17)
N1 N -0.1482(3) 0.2776(2) 0.64320(19)
C15 C 0.2913(3) 1.1836(2) 0.5028(2)
H12 H 0.3150 1.1072 0.4317
H13 H 0.1631 1.1854 0.4920
C16 C 0.3607(4) 1.3345(2) 0.4791(3)
H14 H 0.3445 1.4103 0.5521
H15 H 0.2970 1.3594 0.3912
H16 H 0.4852 1.3306 0.4789
O1A O -0.37504(15) -0.94283(11) 1.21016(11)
C1A C -0.3870(2) -0.77159(16) 1.04859(16)
H1A H -0.4667 -0.8395 0.9848
C2A C -0.31971(19) -0.80713(15) 1.18044(16)
C3A C -0.05577(18) -0.27445(15) 1.11638(14)
C4A C -0.02873(18) -0.13488(15) 1.05549(14)
C5A C -0.21635(19) -0.53137(15) 1.10352(15)
C6A C -0.2957(2) -0.98606(17) 1.34201(18)
H2A H -0.1678 -0.9891 1.3513
H3A H -0.3183 -0.9120 1.4154
C7A C -0.17195(19) -0.39109(16) 1.05529(15)
H4A H -0.2348 -0.3796 0.9664
C8A C -0.3370(2) -0.63668(16) 1.01123(15)
H5A H -0.3844 -0.6143 0.9221
C9A C -0.3708(2) -1.13793(17) 1.35600(18)
H6A H -0.4991 -1.1354 1.3440
H7A H -0.3455 -1.2123 1.2838
C10A C 0.1043(2) -0.02664(18) 1.12206(17)
H8A H 0.1768 -0.0434 1.2061
C11A C -0.1523(2) -0.57009(18) 1.23619(17)
H9A H -0.0732 -0.5025 1.3007
C12A C -0.2018(2) -0.70447(18) 1.27481(17)
H10A H -0.1564 -0.7269 1.3643
C13A C -0.1329(2) -0.10398(18) 0.93146(17)
H11A H -0.2242 -0.1732 0.8834
C14A C 0.0564(2) -0.27977(18) 1.25051(17)
N1A N 0.1482(3) -0.2776(2) 1.35680(19)
C15A C -0.2913(3) -1.1836(2) 1.4972(2)
H12A H -0.3150 -1.1072 1.5683
H13A H -0.1631 -1.1854 1.5080
C16A C -0.3607(4) -1.3345(2) 1.5209(3)
H14A H -0.3445 -1.4103 1.4479
H15A H -0.2970 -1.3594 1.6088
H16A H -0.4852 -1.3306 1.5211
loop_
_geom_bond_atom_site_label_1
_geom_bond_atom_site_label_2
_geom_bond_site_symmetry_1
_geom_bond_site_symmetry_2
O1 C2 1_555 1_555
C1 H1 1_555 1_555
C2 C1 1_555 1_555
C3 C4 1_555 1_555
C4 C10 1_555 1_555
C5 C7 1_555 1_555
C6 O1 1_555 1_555
H2 C6 1_555 1_555
H3 C6 1_555 1_555
C7 C3 1_555 1_555
H4 C7 1_555 1_555
C8 C1 1_555 1_555
H5 C8 1_555 1_555
C9 C6 1_555 1_555
H6 C9 1_555 1_555
H7 C9 1_555 1_555
C10 H8 1_555 1_555
C11 C5 1_555 1_555
H9 C11 1_555 1_555
C12 C2 1_555 1_555
H10 C12 1_555 1_555
C13 C4 1_555 1_555
H11 C13 1_555 1_555
C14 C3 1_555 1_555
N1 C14 1_555 1_555
C15 C9 1_555 1_555
H12 C15 1_555 1_555
H13 C15 1_555 1_555
C16 C15 1_555 1_555
H14 C16 1_555 1_555
H15 C16 1_555 1_555
H16 C16 1_555 1_555
O1A C2A 1_555 1_555
C1A H1A 1_555 1_555
C2A C1A 1_555 1_555
C3A C4A 1_555 1_555
C4A C10A 1_555 1_555
C5A C7A 1_555 1_555
C6A O1A 1_555 1_555
H2A C6A 1_555 1_555
H3A C6A 1_555 1_555
C7A C3A 1_555 1_555
H4A C7A 1_555 1_555
C8A C1A 1_555 1_555
H5A C8A 1_555 1_555
C9A C6A 1_555 1_555
H6A C9A 1_555 1_555
H7A C9A 1_555 1_555
C10A C13 1_555 1_555
H8A C10A 1_555 1_555
C11A C5A 1_555 1_555
H9A C11A 1_555 1_555
C12A C2A 1_555 1_555
H10A C12A 1_555 1_555
C13A C10 1_555 1_555
H11A C13A 1_555 1_555
C14A C3A 1_555 1_555
N1A C14A 1_555 1_555
C15A C9A 1_555 1_555
H12A C15A 1_555 1_555
H13A C15A 1_555 1_555
C16A C15A 1_555 1_555
H14A C16A 1_555 1_555
H15A C16A 1_555 1_555
H16A C16A 1_555 1_555
C5 C8 1_555 1_555
C11 C12 1_555 1_555
C4A C13A 1_555 1_555
C5A C8A 1_555 1_555
C11A C12A 1_555 1_555

#END
