
#######################################################################
#
#                 Cambridge Crystallographic Data Centre
#                                CCDC 
#
#######################################################################
#
# If this CIF has been generated from an entry in the Cambridge 
# Structural Database, then it will include bibliographic, chemical, 
# crystal, experimental, refinement or atomic coordinate data resulting 
# from the CCDC's data processing and validation procedures.
#
#######################################################################

data_APAJUX
_chemical_name_common            
1-Methyl-3-(2-(3-methyl-thioureido)phenyl)thiourea
_chemical_formula_moiety         'C10 H14 N4 S2'
_chemical_name_systematic        1,1'-(1,2-Phenylene)bis(3-methyl(thiourea))
_symmetry_cell_setting           monoclinic
_symmetry_space_group_name_H-M   'C 2/c'
_symmetry_Int_Tables_number      15
_space_group_name_Hall           '-C 2yn'
loop_
_symmetry_equiv_pos_site_id
_symmetry_equiv_pos_as_xyz
1 x,y,z
2 -x,y,1/2-z
3 1/2+x,1/2+y,z
4 1/2-x,1/2+y,1/2-z
5 -x,-y,-z
6 x,-y,1/2+z
7 1/2-x,1/2-y,-z
8 1/2+x,1/2-y,1/2+z
_cell_length_a                   18.0632(8)
_cell_length_b                   7.5649(3)
_cell_length_c                   19.4089(8)
_cell_angle_alpha                90
_cell_angle_beta                 116.084(1)
_cell_angle_gamma                90
_cell_volume                     2382.03
_exptl_crystal_colour            colorless
_exptl_crystal_description       block
_cell_formula_units_Z            8
_exptl_crystal_recrystallization_method methanol/water
loop_
_atom_site_label
_atom_site_type_symbol
_atom_site_fract_x
_atom_site_fract_y
_atom_site_fract_z
S1 S 0.004476(18) 0.07598(4) 0.094054(17)
S2 S 0.307401(19) 0.04595(4) -0.072422(18)
N1 N 0.09268(6) -0.21887(14) 0.10977(6)
N2 N 0.15665(6) 0.04408(14) 0.11139(6)
N3 N 0.20869(6) 0.00959(15) -0.00036(6)
N4 N 0.14624(7) 0.09419(15) -0.12388(6)
C1 C 0.23564(7) -0.03248(15) 0.13040(7)
C2 C 0.26454(7) -0.04307(15) 0.07377(7)
C3 C 0.34382(8) -0.10849(17) 0.09477(7)
C4 C 0.39219(8) -0.16199(18) 0.16998(7)
C5 C 0.36336(8) -0.15311(18) 0.22544(7)
C6 C 0.28486(8) -0.08723(17) 0.20513(7)
C7 C 0.08867(7) -0.04365(16) 0.10563(6)
C8 C 0.02319(8) -0.33278(19) 0.09728(9)
C9 C 0.21743(7) 0.04902(15) -0.06503(7)
C10 C 0.13597(9) 0.1325(2) -0.20072(7)
H1 H 0.3647(10) -0.118(2) 0.0574(9)
H2 H 0.4470(11) -0.207(2) 0.1828(10)
H3 H 0.3960(10) -0.189(2) 0.2745(10)
H4 H 0.2662(11) -0.075(2) 0.2421(10)
H5 H 0.0062(10) -0.323(2) 0.1384(10)
H6 H 0.0794(14) 0.145(3) -0.2335(12)
H7 H 0.0380(13) -0.454(3) 0.0948(12)
H8 H 0.1532(12) 0.028(3) -0.2213(11)
H9 H -0.0226(12) -0.303(3) 0.0485(11)
H10 H 0.1686(12) 0.233(3) -0.2029(11)
H11 H 0.1344(11) -0.267(2) 0.1119(10)
H12 H 0.1540(10) 0.153(2) 0.1062(9)
H13 H 0.1619(11) 0.026(2) -0.0035(9)
H14 H 0.1032(12) 0.079(2) -0.1174(10)
loop_
_geom_bond_atom_site_label_1
_geom_bond_atom_site_label_2
_geom_bond_site_symmetry_1
_geom_bond_site_symmetry_2
S1 C7 1_555 1_555
S2 C9 1_555 1_555
N1 C7 1_555 1_555
N2 C1 1_555 1_555
N3 C2 1_555 1_555
N4 C9 1_555 1_555
C1 C2 1_555 1_555
C2 C3 1_555 1_555
C3 C4 1_555 1_555
C4 C5 1_555 1_555
C5 C6 1_555 1_555
C6 C1 1_555 1_555
C7 N2 1_555 1_555
C8 N1 1_555 1_555
C9 N3 1_555 1_555
C10 N4 1_555 1_555
H1 C3 1_555 1_555
H2 C4 1_555 1_555
H3 C5 1_555 1_555
H4 C6 1_555 1_555
H5 C8 1_555 1_555
H6 C10 1_555 1_555
H7 C8 1_555 1_555
H8 C10 1_555 1_555
H9 C8 1_555 1_555
H10 C10 1_555 1_555
H11 N1 1_555 1_555
H12 N2 1_555 1_555
H13 N3 1_555 1_555
H14 N4 1_555 1_555

#END
