
#######################################################################
#
#                 Cambridge Crystallographic Data Centre
#                                CCDC 
#
#######################################################################
#
# If this CIF has been generated from an entry in the Cambridge 
# Structural Database, then it will include bibliographic, chemical, 
# crystal, experimental, refinement or atomic coordinate data resulting 
# from the CCDC's data processing and validation procedures.
#
#######################################################################

data_APAJOR02
_chemical_formula_moiety         'C6 H14 N4 S2'
_chemical_name_systematic        1,1'-ethane-1,2-diylbis(3-methyl(thiourea))
_symmetry_cell_setting           monoclinic
_symmetry_space_group_name_H-M   'P 21/c'
_symmetry_Int_Tables_number      14
_space_group_name_Hall           '-P 2ybc'
loop_
_symmetry_equiv_pos_site_id
_symmetry_equiv_pos_as_xyz
1 x,y,z
2 -x,1/2+y,1/2-z
3 -x,-y,-z
4 x,1/2-y,1/2+z
_cell_length_a                   8.8700(3)
_cell_length_b                   9.9944(4)
_cell_length_c                   11.2527(4)
_cell_angle_alpha                90
_cell_angle_beta                 102.151(2)
_cell_angle_gamma                90
_cell_volume                     975.207
_exptl_crystal_colour            colorless
_exptl_crystal_description       block
_cell_formula_units_Z            4
loop_
_atom_site_label
_atom_site_type_symbol
_atom_site_fract_x
_atom_site_fract_y
_atom_site_fract_z
S1 S 0.56706(2) -0.16260(2) 0.38356(2)
S2 S 0.04772(2) 0.28670(2) 0.45777(2)
N1 N 0.29657(9) -0.20193(8) 0.23091(7)
H1 H 0.2034(16) -0.1831(13) 0.2034(12)
N2 N 0.29942(9) -0.04740(8) 0.38271(7)
H2 H 0.3529(14) -0.0034(13) 0.4406(11)
N3 N 0.17559(9) 0.20410(8) 0.27625(7)
H3 H 0.2368(15) 0.2176(13) 0.2335(12)
N4 N 0.26538(9) 0.40243(8) 0.36215(8)
H4 H 0.3219(15) 0.4019(13) 0.3110(12)
C1 C 0.36362(12) -0.30326(11) 0.16532(10)
H5 H 0.431 -0.2603 0.1179
H6 H 0.2811 -0.3517 0.1104
H7 H 0.4239 -0.3662 0.2233
C2 C 0.37475(10) -0.13535(8) 0.32703(8)
C3 C 0.13434(10) -0.02170(9) 0.35688(8)
H8 H 0.1044 0.0087 0.4324
H9 H 0.0791 -0.1065 0.3316
C4 C 0.08280(10) 0.08311(9) 0.25784(8)
H10 H 0.0883 0.0438 0.1781
H11 H -0.0261 0.1069 0.2555
C5 C 0.16971(10) 0.29770(8) 0.36079(8)
C6 C 0.28728(11) 0.50660(9) 0.45415(9)
H12 H 0.1869 0.5435 0.4603
H13 H 0.3517 0.5779 0.4315
H14 H 0.3381 0.4687 0.5327
loop_
_geom_bond_atom_site_label_1
_geom_bond_atom_site_label_2
_geom_bond_site_symmetry_1
_geom_bond_site_symmetry_2
S1 C2 1_555 1_555
S2 C5 1_555 1_555
N1 H1 1_555 1_555
N2 H2 1_555 1_555
N3 H3 1_555 1_555
N4 H4 1_555 1_555
C1 N1 1_555 1_555
H5 C1 1_555 1_555
H6 C1 1_555 1_555
H7 C1 1_555 1_555
C2 N1 1_555 1_555
C3 N2 1_555 1_555
H8 C3 1_555 1_555
H9 C3 1_555 1_555
C4 N3 1_555 1_555
H10 C4 1_555 1_555
H11 C4 1_555 1_555
C5 N3 1_555 1_555
C6 N4 1_555 1_555
H12 C6 1_555 1_555
H13 C6 1_555 1_555
H14 C6 1_555 1_555
N2 C2 1_555 1_555
N4 C5 1_555 1_555
C3 C4 1_555 1_555

#END
