
#######################################################################
#
#                 Cambridge Crystallographic Data Centre
#                                CCDC 
#
#######################################################################
#
# If this CIF has been generated from an entry in the Cambridge 
# Structural Database, then it will include bibliographic, chemical, 
# crystal, experimental, refinement or atomic coordinate data resulting 
# from the CCDC's data processing and validation procedures.
#
#######################################################################

data_APAKEI
_chemical_name_common            
1-Methyl-3-(6-(3-methyl-thioureido)pyridin-2-yl)thiourea
_chemical_formula_moiety         'C9 H13 N5 S2'
_chemical_name_systematic        1,1'-Pyridine-2,6-diylbis(3-methyl(thiourea))
_symmetry_cell_setting           triclinic
_symmetry_space_group_name_H-M   'P -1'
_symmetry_Int_Tables_number      2
_space_group_name_Hall           '-P 1'
loop_
_symmetry_equiv_pos_site_id
_symmetry_equiv_pos_as_xyz
1 x,y,z
2 -x,-y,-z
_cell_length_a                   5.798(2)
_cell_length_b                   9.447(4)
_cell_length_c                   11.167(4)
_cell_angle_alpha                87.646(7)
_cell_angle_beta                 75.043(6)
_cell_angle_gamma                75.422(6)
_cell_volume                     571.724
_exptl_crystal_colour            colorless
_exptl_crystal_description       block
_cell_formula_units_Z            2
_exptl_crystal_recrystallization_method ethanol
loop_
_atom_site_label
_atom_site_type_symbol
_atom_site_fract_x
_atom_site_fract_y
_atom_site_fract_z
S1 S 0.60515(10) 0.27014(7) 0.44085(6)
S2 S -0.36992(11) 0.27382(7) 0.02977(6)
N1 N 0.0103(3) 0.4960(2) 0.24885(18)
N2 N 0.2119(3) 0.2574(2) 0.36542(17)
H1 H 0.0785 0.3012 0.3417
N3 N 0.0291(3) 0.2676(2) 0.10653(17)
H2 H 0.1206 0.3129 0.1347
N4 N 0.2794(3) 0.4879(2) 0.37468(18)
H3 H 0.3564 0.5399 0.4066
N5 N -0.2557(3) 0.4922(2) 0.12286(17)
H4 H -0.3783 0.5442 0.0945
C1 C 0.3504(4) 0.3396(3) 0.3895(2)
C2 C -0.2526(4) 0.7224(3) 0.2070(2)
H5 H -0.3810 0.7728 0.1711
C3 C -0.1618(4) 0.5713(3) 0.1940(2)
C4 C 0.0352(4) 0.7210(3) 0.3295(2)
H6 H 0.1111 0.7710 0.3741
C5 C 0.1029(4) 0.5692(3) 0.3165(2)
C6 C -0.1856(4) 0.3461(3) 0.0906(2)
C7 C 0.1208(4) 0.1116(3) 0.0800(2)
H7 H 0.1246 0.0911 -0.0059
H8 H 0.0120 0.0595 0.1363
H9 H 0.2876 0.0786 0.0917
C8 C 0.2676(5) 0.0997(3) 0.3759(2)
H10 H 0.4055 0.0545 0.3062
H11 H 0.1225 0.0652 0.3745
H12 H 0.3127 0.0727 0.4540
C9 C -0.1473(4) 0.7962(3) 0.2746(2)
H13 H -0.2012 0.8997 0.2835
loop_
_geom_bond_atom_site_label_1
_geom_bond_atom_site_label_2
_geom_bond_site_symmetry_1
_geom_bond_site_symmetry_2
S1 C1 1_555 1_555
S2 C6 1_555 1_555
N1 C3 1_555 1_555
N2 H1 1_555 1_555
N3 H2 1_555 1_555
N4 H3 1_555 1_555
N5 H4 1_555 1_555
C1 N2 1_555 1_555
C2 H5 1_555 1_555
C3 N5 1_555 1_555
C4 H6 1_555 1_555
C5 N1 1_555 1_555
C6 N3 1_555 1_555
C7 N3 1_555 1_555
H7 C7 1_555 1_555
H8 C7 1_555 1_555
H9 C7 1_555 1_555
C8 N2 1_555 1_555
H10 C8 1_555 1_555
H11 C8 1_555 1_555
H12 C8 1_555 1_555
C9 C2 1_555 1_555
H13 C9 1_555 1_555
N4 C1 1_555 1_555
N4 C5 1_555 1_555
N5 C6 1_555 1_555
C2 C3 1_555 1_555
C4 C5 1_555 1_555
C4 C9 1_555 1_555

#END
