
#######################################################################
#
#                 Cambridge Crystallographic Data Centre
#                                CCDC 
#
#######################################################################
#
# If this CIF has been generated from an entry in the Cambridge 
# Structural Database, then it will include bibliographic, chemical, 
# crystal, experimental, refinement or atomic coordinate data resulting 
# from the CCDC's data processing and validation procedures.
#
#######################################################################

data_APAPIR
_chemical_formula_moiety         'C21 H22 O4'
_chemical_name_systematic        
'Methyl 6-t-butyl-2-hydroxy-4-phenyl-2H-chromene-2-carboxylate'
_symmetry_cell_setting           monoclinic
_symmetry_space_group_name_H-M   'P 21/n'
_symmetry_Int_Tables_number      14
_space_group_name_Hall           '-P 2yn'
loop_
_symmetry_equiv_pos_site_id
_symmetry_equiv_pos_as_xyz
1 x,y,z
2 1/2-x,1/2+y,1/2-z
3 -x,-y,-z
4 1/2+x,1/2-y,1/2+z
_cell_length_a                   14.3688(8)
_cell_length_b                   7.7163(4)
_cell_length_c                   18.1469(11)
_cell_angle_alpha                90
_cell_angle_beta                 111.567(2)
_cell_angle_gamma                90
_cell_volume                     1871.15
_chemical_melting_point          '115-116 deg.C'
_cell_formula_units_Z            4
loop_
_atom_site_label
_atom_site_type_symbol
_atom_site_fract_x
_atom_site_fract_y
_atom_site_fract_z
O1 O 0.00143(17) 0.6975(3) 0.04171(13)
O2 O 0.01757(15) 0.8291(3) 0.15401(11)
O3 O -0.03921(14) 0.3926(2) 0.09552(11)
H1 H -0.0143 0.4030 0.0617
O4 O 0.09379(13) 0.4988(2) 0.20233(11)
C1 C 0.0354(3) 0.9936(3) 0.1217(2)
H2 H 0.0444 1.0837 0.1602
H3 H -0.0209 1.0209 0.0746
H4 H 0.0945 0.9845 0.1091
C2 C 0.00377(19) 0.6941(4) 0.10773(18)
C3 C -0.0075(2) 0.5268(3) 0.14920(16)
C4 C -0.07650(18) 0.5382(3) 0.19410(15)
H5 H -0.1309 0.6132 0.1765
C5 C -0.06151(18) 0.4436(3) 0.25843(16)
C6 C -0.13240(18) 0.4527(3) 0.30064(17)
C7 C -0.2350(2) 0.4439(4) 0.25856(19)
H6 H -0.2594 0.4204 0.2045
C8 C -0.3012(2) 0.4705(4) 0.2977(2)
H7 H -0.3697 0.4645 0.2691
C9 C -0.2684(3) 0.5045(4) 0.3760(2)
H8 H -0.3137 0.5236 0.4009
C10 C -0.1675(3) 0.5106(4) 0.41835(19)
H9 H -0.1439 0.5333 0.4725
C11 C -0.1005(2) 0.4833(3) 0.38090(17)
H10 H -0.0322 0.4856 0.4107
C12 C 0.02982(18) 0.3381(3) 0.28822(15)
C13 C 0.1055(2) 0.3706(3) 0.25910(16)
C14 C 0.1948(2) 0.2825(4) 0.28588(17)
H11 H 0.2456 0.3115 0.2679
C15 C 0.2080(2) 0.1497(4) 0.34008(17)
H12 H 0.2682 0.0895 0.3582
C16 C 0.13300(19) 0.1039(4) 0.36827(16)
C17 C 0.04555(18) 0.2015(3) 0.34197(15)
H13 H -0.0046 0.1747 0.3610
C18 C 0.1461(2) -0.0501(4) 0.42421(17)
C19 C 0.2255(5) -0.1708(7) 0.4213(4)
H14 H 0.2312 -0.2661 0.4567
H15 H 0.2882 -0.1104 0.4369
H16 H 0.2082 -0.2139 0.3683
C20 C 0.0546(3) -0.1486(6) 0.4054(3)
H17 H 0.0655 -0.2432 0.4420
H18 H 0.0347 -0.1930 0.3525
H19 H 0.0028 -0.0749 0.4094
C21 C 0.1772(4) 0.0115(5) 0.5062(2)
H20 H 0.1842 -0.0855 0.5409
H21 H 0.1276 0.0896 0.5108
H22 H 0.2401 0.0708 0.5204
loop_
_geom_bond_atom_site_label_1
_geom_bond_atom_site_label_2
_geom_bond_site_symmetry_1
_geom_bond_site_symmetry_2
O1 C2 1_555 1_555
O2 C1 1_555 1_555
O3 H1 1_555 1_555
O4 C3 1_555 1_555
C1 H2 1_555 1_555
H3 C1 1_555 1_555
H4 C1 1_555 1_555
C2 O2 1_555 1_555
C3 O3 1_555 1_555
C4 C3 1_555 1_555
H5 C4 1_555 1_555
C5 C4 1_555 1_555
C6 C5 1_555 1_555
C7 C6 1_555 1_555
H6 C7 1_555 1_555
C8 C7 1_555 1_555
H7 C8 1_555 1_555
C9 C8 1_555 1_555
H8 C9 1_555 1_555
C10 C9 1_555 1_555
H9 C10 1_555 1_555
C11 C6 1_555 1_555
H10 C11 1_555 1_555
C12 C5 1_555 1_555
C13 O4 1_555 1_555
C14 C13 1_555 1_555
H11 C14 1_555 1_555
C15 C14 1_555 1_555
H12 C15 1_555 1_555
C16 C15 1_555 1_555
C17 C12 1_555 1_555
H13 C17 1_555 1_555
C18 C16 1_555 1_555
C19 C18 1_555 1_555
H14 C19 1_555 1_555
H15 C19 1_555 1_555
H16 C19 1_555 1_555
C20 C18 1_555 1_555
H17 C20 1_555 1_555
H18 C20 1_555 1_555
H19 C20 1_555 1_555
C21 C18 1_555 1_555
H20 C21 1_555 1_555
H21 C21 1_555 1_555
H22 C21 1_555 1_555
C2 C3 1_555 1_555
C10 C11 1_555 1_555
C12 C13 1_555 1_555
C16 C17 1_555 1_555

#END
