
#######################################################################
#
#                 Cambridge Crystallographic Data Centre
#                                CCDC 
#
#######################################################################
#
# If this CIF has been generated from an entry in the Cambridge 
# Structural Database, then it will include bibliographic, chemical, 
# crystal, experimental, refinement or atomic coordinate data resulting 
# from the CCDC's data processing and validation procedures.
#
#######################################################################

data_APAVIY
_chemical_name_common            'Aspergillus PZ monohydrate'
_chemical_formula_moiety         'C24 H35 N1 O4,H2 O1'
_chemical_name_systematic        
'16-hydroxy-8-isobutyl-1,5,6-trimethyl-19-oxa-9-azapentacyclo[13.3.1.0^2,14^.0^3,11^.0^7,11^]nonadec-4-ene-10,12-dione monohydrate'
_symmetry_cell_setting           orthorhombic
_symmetry_space_group_name_H-M   'P 21 21 21'
_symmetry_Int_Tables_number      19
_space_group_name_Hall           'P 2ac 2ab'
loop_
_symmetry_equiv_pos_site_id
_symmetry_equiv_pos_as_xyz
1 x,y,z
2 1/2+x,1/2-y,-z
3 -x,1/2+y,1/2-z
4 1/2-x,-y,1/2+z
_cell_length_a                   7.7083(6)
_cell_length_b                   11.0066(9)
_cell_length_c                   27.185(2)
_cell_angle_alpha                90
_cell_angle_beta                 90
_cell_angle_gamma                90
_cell_volume                     2306.43
_exptl_crystal_colour            colorless
_exptl_crystal_description       block
_cell_formula_units_Z            4
_exptl_crystal_recrystallization_method 'Vapour deposition'
loop_
_atom_site_label
_atom_site_type_symbol
_atom_site_fract_x
_atom_site_fract_y
_atom_site_fract_z
O1 O 0.3548(6) 0.6973(4) 0.46008(14)
H1 H 0.2737 0.7471 0.4645
O2 O 0.5453(5) 0.7919(3) 0.37680(13)
O3 O 0.3692(5) 0.5006(3) 0.23880(13)
O4 O 0.2557(5) 0.8234(3) 0.19948(14)
N1 N 0.4550(6) 0.5444(4) 0.16057(15)
H2 H 0.4189 0.4757 0.1475
C1 C 0.3425(9) 0.6478(6) 0.4119(2)
H3 H 0.2241 0.6125 0.4073
C2 C 0.3734(8) 0.7449(5) 0.37279(19)
H4 H 0.2871 0.8121 0.3765
C3 C 0.3667(7) 0.6934(5) 0.31967(18)
H5 H 0.2858 0.6224 0.3182
C4 C 0.3059(7) 0.7923(5) 0.28484(19)
H6 H 0.1788 0.8011 0.2887
H7 H 0.3593 0.8698 0.2955
C5 C 0.3437(7) 0.7756(4) 0.23114(18)
C6 C 0.5023(7) 0.6975(5) 0.21818(18)
C7 C 0.5877(7) 0.7364(4) 0.16954(18)
H8 H 0.5331 0.8143 0.1586
C8 C 0.5419(7) 0.6365(5) 0.13133(19)
H9 H 0.6510 0.6021 0.1171
C9 C 0.4264(8) 0.6852(5) 0.0899(2)
H10 H 0.3278 0.7293 0.1049
H11 H 0.4942 0.7448 0.0706
C10 C 0.3541(10) 0.5904(6) 0.0547(2)
H12 H 0.2845 0.5311 0.0743
C11 C 0.2315(14) 0.6532(9) 0.0183(3)
H13 H 0.1359 0.6914 0.0364
H14 H 0.1846 0.5929 -0.0047
H15 H 0.2954 0.7154 -0.0001
C12 C 0.6552(7) 0.6949(5) 0.35711(18)
C13 C 0.8345(8) 0.7485(6) 0.3510(2)
H16 H 0.8296 0.8164 0.3278
H17 H 0.9135 0.6861 0.3384
H18 H 0.8766 0.7776 0.3829
C14 C 0.5558(7) 0.6507(5) 0.31087(18)
H19 H 0.5571 0.5598 0.3107
C15 C 0.6331(7) 0.6956(5) 0.26196(18)
H20 H 0.6731 0.7811 0.2673
C16 C 0.4328(7) 0.5690(5) 0.20809(18)
C17 C 0.4959(14) 0.5199(7) 0.0278(2)
H21 H 0.5704 0.5768 0.0098
H22 H 0.4427 0.4628 0.0046
H23 H 0.5659 0.4749 0.0518
C18 C 0.7845(7) 0.7576(5) 0.17503(19)
H24 H 0.7994 0.8291 0.1973
C19 C 0.8737(8) 0.7899(6) 0.1263(2)
H25 H 0.9957 0.8099 0.1324
H26 H 0.8155 0.8600 0.1114
H27 H 0.8669 0.7204 0.1038
C20 C 0.8591(7) 0.6480(5) 0.20180(19)
C21 C 0.9991(8) 0.5711(5) 0.1792(2)
H28 H 1.0412 0.5124 0.2035
H29 H 1.0952 0.6232 0.1686
H30 H 0.9521 0.5276 0.1507
C22 C 0.7871(7) 0.6235(5) 0.24513(19)
H31 H 0.8330 0.5607 0.2653
C23 C 0.6592(9) 0.5961(5) 0.3966(2)
H32 H 0.7085 0.6298 0.4273
H33 H 0.7347 0.5286 0.3856
C24 C 0.4763(10) 0.5477(5) 0.4066(2)
H34 H 0.4415 0.4935 0.3793
H35 H 0.4781 0.4987 0.4372
O5 O 0.9214(7) 0.3557(7) 0.03342(19)
loop_
_geom_bond_atom_site_label_1
_geom_bond_atom_site_label_2
_geom_bond_site_symmetry_1
_geom_bond_site_symmetry_2
O1 H1 1_555 1_555
O2 C2 1_555 1_555
O3 C16 1_555 1_555
O4 C5 1_555 1_555
N1 H2 1_555 1_555
C1 O1 1_555 1_555
H3 C1 1_555 1_555
C2 C1 1_555 1_555
H4 C2 1_555 1_555
C3 C2 1_555 1_555
H5 C3 1_555 1_555
C4 C3 1_555 1_555
H6 C4 1_555 1_555
H7 C4 1_555 1_555
C5 C4 1_555 1_555
C6 C5 1_555 1_555
C7 C6 1_555 1_555
H8 C7 1_555 1_555
C8 N1 1_555 1_555
H9 C8 1_555 1_555
C9 C8 1_555 1_555
H10 C9 1_555 1_555
H11 C9 1_555 1_555
C10 C9 1_555 1_555
H12 C10 1_555 1_555
C11 C10 1_555 1_555
H13 C11 1_555 1_555
H14 C11 1_555 1_555
H15 C11 1_555 1_555
C12 O2 1_555 1_555
C13 C12 1_555 1_555
H16 C13 1_555 1_555
H17 C13 1_555 1_555
H18 C13 1_555 1_555
C14 C3 1_555 1_555
H19 C14 1_555 1_555
C15 C6 1_555 1_555
H20 C15 1_555 1_555
C16 N1 1_555 1_555
C17 C10 1_555 1_555
H21 C17 1_555 1_555
H22 C17 1_555 1_555
H23 C17 1_555 1_555
C18 C7 1_555 1_555
H24 C18 1_555 1_555
C19 C18 1_555 1_555
H25 C19 1_555 1_555
H26 C19 1_555 1_555
H27 C19 1_555 1_555
C20 C18 1_555 1_555
C21 C20 1_555 1_555
H28 C21 1_555 1_555
H29 C21 1_555 1_555
H30 C21 1_555 1_555
C22 C15 1_555 1_555
H31 C22 1_555 1_555
C23 C12 1_555 1_555
H32 C23 1_555 1_555
H33 C23 1_555 1_555
C24 C1 1_555 1_555
H34 C24 1_555 1_555
H35 C24 1_555 1_555
C6 C16 1_555 1_555
C7 C8 1_555 1_555
C12 C14 1_555 1_555
C14 C15 1_555 1_555
C20 C22 1_555 1_555
C23 C24 1_555 1_555

#END
