
#######################################################################
#
#                 Cambridge Crystallographic Data Centre
#                                CCDC 
#
#######################################################################
#
# If this CIF has been generated from an entry in the Cambridge 
# Structural Database, then it will include bibliographic, chemical, 
# crystal, experimental, refinement or atomic coordinate data resulting 
# from the CCDC's data processing and validation procedures.
#
#######################################################################

data_APAWUL
_chemical_formula_moiety         'C29 H22 F1 N3 O5'
_chemical_name_systematic        
'ethyl 3-(1,3-dioxo-1,3-dihydro-2H-isoindol-2-yl)-2-(3-fluorophenyl)-4-oxo-4-(quinolin-8-ylamino)butanoate'
_symmetry_cell_setting           orthorhombic
_symmetry_space_group_name_H-M   'P 21 21 21'
_symmetry_Int_Tables_number      19
_space_group_name_Hall           'P 2ac 2ab'
loop_
_symmetry_equiv_pos_site_id
_symmetry_equiv_pos_as_xyz
1 x,y,z
2 1/2-x,-y,1/2+z
3 1/2+x,1/2-y,-z
4 -x,1/2+y,1/2-z
_cell_length_a                   7.7205(4)
_cell_length_b                   14.3320(9)
_cell_length_c                   22.2820(10)
_cell_angle_alpha                90
_cell_angle_beta                 90
_cell_angle_gamma                90
_cell_volume                     2465.51
_exptl_crystal_colour            yellow
_exptl_crystal_description       block
_cell_formula_units_Z            4
loop_
_atom_site_label
_atom_site_type_symbol
_atom_site_fract_x
_atom_site_fract_y
_atom_site_fract_z
F1 F 0.9988(3) 0.2050(2) 0.24949(10)
O1 O 0.6630(3) -0.06047(17) 0.22320(9)
O2 O 0.1531(3) 0.02759(17) 0.13710(9)
O3 O 0.4292(3) 0.03499(14) 0.01196(8)
O4 O 0.7655(3) 0.13324(15) 0.04791(9)
O5 O 0.5582(2) 0.24263(14) 0.04078(8)
N1 N 0.4281(3) -0.01736(16) 0.16533(9)
N2 N 0.4417(4) -0.11175(16) 0.05170(10)
H1 H 0.4472 -0.1403 0.0856
N3 N 0.4308(4) -0.29546(18) 0.06979(11)
C1 C 0.3798(5) -0.0805(2) 0.32394(13)
H2 H 0.4840 -0.0976 0.3417
C2 C 0.2267(5) -0.0803(3) 0.35608(15)
H3 H 0.2283 -0.0967 0.3965
C3 C 0.0722(5) -0.0565(3) 0.32958(15)
H4 H -0.0287 -0.0575 0.3524
C4 C 0.0632(5) -0.0309(2) 0.26959(14)
H5 H -0.0415 -0.0154 0.2515
C5 C 0.2156(4) -0.0296(2) 0.23828(12)
C6 C 0.3718(4) -0.0541(2) 0.26395(12)
C7 C 0.5096(4) -0.0464(2) 0.21848(12)
C8 C 0.2509(4) -0.0025(2) 0.17465(12)
C9 C 0.5224(4) 0.02039(19) 0.11406(11)
H6 H 0.6432 0.0004 0.1181
C10 C 0.4555(4) -0.0178(2) 0.05388(12)
C11 C 0.4194(4) -0.1687(2) 0.00069(12)
C12 C 0.4033(5) -0.1365(2) -0.05638(13)
H7 H 0.3992 -0.0726 -0.0637
C13 C 0.3927(6) -0.2002(3) -0.10463(14)
H8 H 0.3812 -0.1774 -0.1435
C14 C 0.3988(5) -0.2929(3) -0.09579(14)
H9 H 0.3940 -0.3332 -0.1284
C15 C 0.4126(4) -0.3292(2) -0.03714(13)
C16 C 0.4202(4) -0.2662(2) 0.01146(12)
C17 C 0.4307(7) -0.3860(2) 0.07935(16)
H10 H 0.4339 -0.4067 0.1189
C18 C 0.4262(6) -0.4532(3) 0.03382(17)
H11 H 0.4286 -0.5165 0.0432
C19 C 0.4183(5) -0.4249(2) -0.02381(16)
H12 H 0.4166 -0.4686 -0.0546
C20 C 0.5214(4) 0.12771(19) 0.11486(11)
H13 H 0.4018 0.1493 0.1099
C21 C 0.5906(4) 0.16452(19) 0.17463(11)
C22 C 0.7671(4) 0.1680(2) 0.18552(13)
H14 H 0.8454 0.1496 0.1561
C23 C 0.8251(5) 0.1991(2) 0.24055(15)
C24 C 0.7154(5) 0.2234(2) 0.28610(14)
H15 H 0.7577 0.2422 0.3232
C25 C 0.5399(6) 0.2191(2) 0.27515(14)
H16 H 0.4623 0.2354 0.3053
C26 C 0.4777(5) 0.1904(2) 0.21954(13)
H17 H 0.3589 0.1888 0.2126
C27 C 0.6293(4) 0.16557(19) 0.06359(11)
C28 C 0.6442(4) 0.2846(2) -0.01150(12)
H18 H 0.7673 0.2902 -0.0036
H19 H 0.5984 0.3467 -0.0181
C29 C 0.6172(5) 0.2265(3) -0.06696(13)
H20 H 0.6796 0.1689 -0.0631
H21 H 0.6587 0.2600 -0.1014
H22 H 0.4960 0.2136 -0.0717
loop_
_geom_bond_atom_site_label_1
_geom_bond_atom_site_label_2
_geom_bond_site_symmetry_1
_geom_bond_site_symmetry_2
F1 C23 1_555 1_555
O1 C7 1_555 1_555
O2 C8 1_555 1_555
O3 C10 1_555 1_555
O4 C27 1_555 1_555
O5 C27 1_555 1_555
N1 C7 1_555 1_555
N2 H1 1_555 1_555
N3 C16 1_555 1_555
C1 H2 1_555 1_555
C2 C1 1_555 1_555
H3 C2 1_555 1_555
C3 C2 1_555 1_555
H4 C3 1_555 1_555
C4 C3 1_555 1_555
H5 C4 1_555 1_555
C5 C4 1_555 1_555
C6 C1 1_555 1_555
C7 C6 1_555 1_555
C8 N1 1_555 1_555
C9 N1 1_555 1_555
H6 C9 1_555 1_555
C10 N2 1_555 1_555
C11 N2 1_555 1_555
C12 C11 1_555 1_555
H7 C12 1_555 1_555
C13 C12 1_555 1_555
H8 C13 1_555 1_555
C14 C13 1_555 1_555
H9 C14 1_555 1_555
C15 C14 1_555 1_555
C16 C11 1_555 1_555
C17 N3 1_555 1_555
H10 C17 1_555 1_555
C18 C17 1_555 1_555
H11 C18 1_555 1_555
C19 C15 1_555 1_555
H12 C19 1_555 1_555
C20 C9 1_555 1_555
H13 C20 1_555 1_555
C21 C20 1_555 1_555
C22 C21 1_555 1_555
H14 C22 1_555 1_555
C23 C22 1_555 1_555
C24 C23 1_555 1_555
H15 C24 1_555 1_555
C25 C24 1_555 1_555
H16 C25 1_555 1_555
C26 C21 1_555 1_555
H17 C26 1_555 1_555
C27 C20 1_555 1_555
C28 O5 1_555 1_555
H18 C28 1_555 1_555
H19 C28 1_555 1_555
C29 C28 1_555 1_555
H20 C29 1_555 1_555
H21 C29 1_555 1_555
H22 C29 1_555 1_555
C5 C6 1_555 1_555
C5 C8 1_555 1_555
C9 C10 1_555 1_555
C15 C16 1_555 1_555
C18 C19 1_555 1_555
C25 C26 1_555 1_555

#END
