
#######################################################################
#
#                 Cambridge Crystallographic Data Centre
#                                CCDC 
#
#######################################################################
#
# If this CIF has been generated from an entry in the Cambridge 
# Structural Database, then it will include bibliographic, chemical, 
# crystal, experimental, refinement or atomic coordinate data resulting 
# from the CCDC's data processing and validation procedures.
#
#######################################################################

data_APAXEW
_chemical_formula_moiety         'C33 H31 N3 O5'
_chemical_name_systematic        
'ethyl 2-(4-t-butylphenyl)-3-(1,3-dioxo-1,3-dihydro-2H-isoindol-2-yl)-4-oxo-4-(quinolin-8-ylamino)butanoate'
_symmetry_cell_setting           monoclinic
_symmetry_space_group_name_H-M   'P 21'
_symmetry_Int_Tables_number      4
_space_group_name_Hall           'P 2yb'
loop_
_symmetry_equiv_pos_site_id
_symmetry_equiv_pos_as_xyz
1 x,y,z
2 -x,1/2+y,-z
_cell_length_a                   9.2583(12)
_cell_length_b                   14.0257(14)
_cell_length_c                   12.1921(12)
_cell_angle_alpha                90
_cell_angle_beta                 110.498(12)
_cell_angle_gamma                90
_cell_volume                     1482.95
_exptl_crystal_colour            colorless
_exptl_crystal_description       block
_cell_formula_units_Z            2
loop_
_atom_site_label
_atom_site_type_symbol
_atom_site_fract_x
_atom_site_fract_y
_atom_site_fract_z
O1 O 0.1735(3) 0.7717(2) 0.3496(3)
O2 O 0.5482(3) 0.5653(3) 0.5581(3)
O3 O 0.0821(3) 0.6937(2) 0.5790(3)
O4 O 0.0374(3) 0.4717(3) 0.5447(3)
O5 O -0.1604(3) 0.4933(2) 0.3796(2)
N1 N 0.3310(3) 0.6502(2) 0.4532(2)
N2 N 0.3156(4) 0.6385(3) 0.6960(3)
H1 H 0.3954 0.6086 0.6933
N3 N 0.5401(4) 0.5690(4) 0.8786(3)
C1 C 0.4820(6) 0.8457(4) 0.3252(4)
H2 H 0.4069 0.8897 0.2853
C2 C 0.6339(7) 0.8552(4) 0.3320(5)
H3 H 0.6606 0.9063 0.2944
C3 C 0.7470(6) 0.7911(4) 0.3928(5)
H4 H 0.8476 0.7998 0.3950
C4 C 0.7129(5) 0.7143(4) 0.4503(4)
H5 H 0.7889 0.6717 0.4927
C5 C 0.5609(5) 0.7032(3) 0.4421(4)
C6 C 0.4475(5) 0.7677(3) 0.3804(3)
C7 C 0.2985(5) 0.7351(3) 0.3883(3)
C8 C 0.4897(5) 0.6305(3) 0.4929(4)
C9 C 0.2252(4) 0.5941(3) 0.4921(3)
H6 H 0.2772 0.5339 0.5235
C10 C 0.1975(4) 0.6470(3) 0.5939(3)
C11 C 0.3249(5) 0.6725(3) 0.8066(3)
C12 C 0.2267(6) 0.7378(4) 0.8250(4)
H7 H 0.1477 0.7637 0.7619
C13 C 0.2453(7) 0.7659(5) 0.9398(5)
H8 H 0.1793 0.8114 0.9517
C14 C 0.3572(8) 0.7281(5) 1.0332(5)
H9 H 0.3656 0.7464 1.1085
C15 C 0.4608(6) 0.6614(4) 1.0172(4)
C16 C 0.4448(5) 0.6332(4) 0.9015(3)
C17 C 0.6511(6) 0.5316(5) 0.9682(4)
H10 H 0.7183 0.4882 0.9539
C18 C 0.6713(8) 0.5553(6) 1.0853(5)
H11 H 0.7495 0.5264 1.1463
C19 C 0.5787(9) 0.6191(6) 1.1093(5)
H12 H 0.5929 0.6350 1.1864
C20 C 0.0742(4) 0.5692(3) 0.3951(3)
H13 H 0.0160 0.6281 0.3670
C21 C 0.0995(4) 0.5196(3) 0.2922(3)
C22 C 0.1352(5) 0.4245(3) 0.2943(4)
H14 H 0.1454 0.3890 0.3611
C23 C 0.1559(6) 0.3807(4) 0.2011(5)
H15 H 0.1811 0.3163 0.2066
C24 C 0.1407(5) 0.4294(4) 0.0975(4)
C25 C 0.1061(6) 0.5241(4) 0.0968(4)
H16 H 0.0949 0.5598 0.0300
C26 C 0.0870(6) 0.5688(3) 0.1917(4)
H17 H 0.0652 0.6337 0.1876
C27 C 0.1649(6) 0.3818(5) -0.0078(5)
C28 C 0.1729(17) 0.2670(8) 0.0167(12)
H18 H 0.2596 0.2529 0.0859
H19 H 0.1839 0.2340 -0.0489
H20 H 0.0798 0.2466 0.0275
C29 C 0.0274(14) 0.3922(13) -0.1099(10)
H21 H -0.0596 0.3679 -0.0932
H22 H 0.0391 0.3572 -0.1740
H23 H 0.0112 0.4584 -0.1305
C30 C 0.3200(17) 0.4012(19) -0.0119(18)
H24 H 0.3269 0.4670 -0.0311
H25 H 0.3371 0.3616 -0.0704
H26 H 0.3967 0.3876 0.0631
C31 C -0.0156(5) 0.5067(3) 0.4491(3)
C32 C -0.2506(5) 0.4295(4) 0.4264(4)
H27 H -0.2590 0.4562 0.4973
H28 H -0.2008 0.3678 0.4449
C33 C -0.4071(6) 0.4192(5) 0.3348(5)
H29 H -0.3976 0.3916 0.2655
H30 H -0.4548 0.4807 0.3164
H31 H -0.4693 0.3785 0.3635
C34? C 0.3353(19) 0.380(2) 0.016(2)
H32? H 0.3772 0.4428 0.0398
H33? H 0.3538 0.3620 -0.0537
H34? H 0.3839 0.3355 0.0773
C35? C 0.080(2) 0.2955(13) -0.0514(15)
H35? H 0.0892 0.2535 0.0128
H36? H 0.1211 0.2648 -0.1046
H37? H -0.0265 0.3107 -0.0917
C36? C 0.0969(18) 0.4517(12) -0.1264(10)
H38? H -0.0067 0.4707 -0.1369
H39? H 0.0977 0.4171 -0.1942
H40? H 0.1609 0.5072 -0.1161
loop_
_geom_bond_atom_site_label_1
_geom_bond_atom_site_label_2
_geom_bond_site_symmetry_1
_geom_bond_site_symmetry_2
O1 C7 1_555 1_555
O2 C8 1_555 1_555
O3 C10 1_555 1_555
O4 C31 1_555 1_555
O5 C31 1_555 1_555
N1 C7 1_555 1_555
N2 H1 1_555 1_555
N3 C16 1_555 1_555
C1 H2 1_555 1_555
C2 C1 1_555 1_555
H3 C2 1_555 1_555
C3 C2 1_555 1_555
H4 C3 1_555 1_555
C4 C3 1_555 1_555
H5 C4 1_555 1_555
C5 C4 1_555 1_555
C6 C1 1_555 1_555
C7 C6 1_555 1_555
C8 N1 1_555 1_555
C9 N1 1_555 1_555
H6 C9 1_555 1_555
C10 N2 1_555 1_555
C11 N2 1_555 1_555
C12 C11 1_555 1_555
H7 C12 1_555 1_555
C13 C12 1_555 1_555
H8 C13 1_555 1_555
C14 C13 1_555 1_555
H9 C14 1_555 1_555
C15 C14 1_555 1_555
C16 C11 1_555 1_555
C17 N3 1_555 1_555
H10 C17 1_555 1_555
C18 C17 1_555 1_555
H11 C18 1_555 1_555
C19 C15 1_555 1_555
H12 C19 1_555 1_555
C20 C9 1_555 1_555
H13 C20 1_555 1_555
C21 C20 1_555 1_555
C22 C21 1_555 1_555
H14 C22 1_555 1_555
C23 C22 1_555 1_555
H15 C23 1_555 1_555
C24 C23 1_555 1_555
C25 C24 1_555 1_555
H16 C25 1_555 1_555
C26 C21 1_555 1_555
H17 C26 1_555 1_555
C27 C24 1_555 1_555
C28 C27 1_555 1_555
H18 C28 1_555 1_555
H19 C28 1_555 1_555
H20 C28 1_555 1_555
C29 C27 1_555 1_555
H21 C29 1_555 1_555
H22 C29 1_555 1_555
H23 C29 1_555 1_555
C30 C27 1_555 1_555
H24 C30 1_555 1_555
H25 C30 1_555 1_555
H26 C30 1_555 1_555
C31 C20 1_555 1_555
C32 O5 1_555 1_555
H27 C32 1_555 1_555
H28 C32 1_555 1_555
C33 C32 1_555 1_555
H29 C33 1_555 1_555
H30 C33 1_555 1_555
H31 C33 1_555 1_555
C5 C6 1_555 1_555
C5 C8 1_555 1_555
C9 C10 1_555 1_555
C15 C16 1_555 1_555
C18 C19 1_555 1_555
C25 C26 1_555 1_555

#END
