
#######################################################################
#
#                 Cambridge Crystallographic Data Centre
#                                CCDC 
#
#######################################################################
#
# If this CIF has been generated from an entry in the Cambridge 
# Structural Database, then it will include bibliographic, chemical, 
# crystal, experimental, refinement or atomic coordinate data resulting 
# from the CCDC's data processing and validation procedures.
#
#######################################################################

data_APCHAC10
_chemical_formula_moiety         'C24 H38 O4,C3 H6 O1'
_chemical_name_systematic        'Apocholic acid acetone'
_symmetry_cell_setting           orthorhombic
_symmetry_space_group_name_H-M   'P 21 21 21'
_symmetry_Int_Tables_number      19
_space_group_name_Hall           'P 2ac 2ab'
loop_
_symmetry_equiv_pos_site_id
_symmetry_equiv_pos_as_xyz
1 x,y,z
2 1/2+x,1/2-y,-z
3 -x,1/2+y,1/2-z
4 1/2-x,-y,1/2+z
_cell_length_a                   24.570
_cell_length_b                   14.264(3)
_cell_length_c                   7.530(1)
_cell_angle_alpha                90
_cell_angle_beta                 90
_cell_angle_gamma                90
_cell_volume                     2639.01
_chemical_melting_point          168-172deg.C
_cell_formula_units_Z            4
loop_
_atom_site_label
_atom_site_type_symbol
_atom_site_fract_x
_atom_site_fract_y
_atom_site_fract_z
C1 C 0.6412(3) -0.1911(5) 0.2981(9)
C2 C 0.5868(3) -0.2405(5) 0.2872(8)
C3 C 0.5863(3) -0.3083(5) 0.1316(9)
C4 C 0.5994(2) -0.2581(4) -0.0394(8)
C5 C 0.6548(2) -0.2085(4) -0.0275(8)
C6 C 0.6677(2) -0.1608(5) -0.2056(9)
C7 C 0.6321(3) -0.0742(4) -0.2401(8)
C8 C 0.6300(2) -0.0090(4) -0.0858(8)
C9 C 0.6187(2) -0.0553(4) 0.0941(7)
C10 C 0.6576(2) -0.1383(4) 0.1269(9)
C11 C 0.6158(3) 0.0150(4) 0.2451(8)
C12 C 0.5913(2) 0.1094(4) 0.1907(8)
C13 C 0.6263(2) 0.1558(4) 0.0432(8)
C14 C 0.6319(2) 0.0836(4) -0.1088(8)
C15 C 0.6328(3) 0.1340(5) -0.2822(8)
C16 C 0.6275(3) 0.2389(5) -0.2358(9)
C17 C 0.6007(2) 0.2414(4) -0.0500(8)
C18 C 0.6824(2) 0.1798(4) 0.1195(11)
C19 C 0.7165(2) -0.1033(5) 0.1495(2)
C20 C 0.6065(2) 0.3375(4) 0.0376(10)
C21 C 0.5768(4) 0.3409(5) 0.2215(10)
C22 C 0.5883(2) 0.4187(5) -0.0807(10)
C23 C 0.5273(3) 0.4128(5) -0.1296(11)
C24 C 0.5127(2) 0.4958(6) -0.2472(11)
O1 O 0.5319(2) -0.3473(3) 0.1230(7)
O2 O 0.5367(1) 0.0968(3) 0.1290(5)
O3 O 0.5100(2) 0.5765(4) -0.2034(7)
O4 O 0.5027(2) 0.4703(3) -0.4115(6)
H1 H 0.642 -0.147 0.398
H2 H 0.671 -0.241 0.318
H3 H 0.560 -0.191 0.263
H4 H 0.580 -0.270 0.403
H5 H 0.621 -0.356 0.157
H6 H 0.571 -0.208 -0.057
H7 H 0.600 -0.300 -0.144
H8 H 0.681 -0.260 0.003
H9 H 0.664 -0.208 -0.303
H10 H 0.708 -0.142 -0.198
H11 H 0.594 -0.096 -0.266
H12 H 0.647 -0.041 -0.348
H13 H 0.582 -0.081 0.069
H14 H 0.654 0.025 0.292
H15 H 0.594 -0.013 0.343
H16 H 0.591 0.154 0.294
H17 H 0.601 0.116 -0.357
H18 H 0.667 0.123 -0.350
H19 H 0.607 0.274 -0.325
H20 H 0.666 0.267 -0.229
H21 H 0.562 0.225 -0.068
H22 H 0.686 0.240 0.182
H23 H 0.708 0.195 0.031
H24 H 0.704 0.130 0.172
H25 H 0.731 -0.070 0.249
H26 H 0.742 -0.152 0.143
H27 H 0.734 -0.071 0.033
H28 H 0.646 0.346 0.065
H29 H 0.590 0.310 0.312
H30 H 0.537 0.312 0.228
H31 H 0.572 0.405 0.283
H32 H 0.592 0.482 -0.019
H33 H 0.607 0.422 -0.198
H34 H 0.507 0.417 -0.010
H35 H 0.521 0.352 -0.193
H36 H 0.528 -0.377 0.010
H37 H 0.510 0.124 0.214
H38 H 0.493 0.522 -0.491
C25 C 0.7248(6) 0.5277(8) 0.4847(15)
C26 C 0.7272(6) 0.4173(8) 0.4588(15)
C27 C 0.6747(6) 0.5523(8) 0.5241(15)
O5 O 0.7587(6) 0.5568(8) 0.4380(15)
H39 H 0.692 0.390 0.494
H40 H 0.754 0.389 0.545
H41 H 0.734 0.395 0.338
H42 H 0.671 0.619 0.538
H43 H 0.668 0.522 0.646
H44 H 0.648 0.528 0.439
loop_
_geom_bond_atom_site_label_1
_geom_bond_atom_site_label_2
_geom_bond_site_symmetry_1
_geom_bond_site_symmetry_2
C1 C2 1_555 1_555
C2 C3 1_555 1_555
C3 C4 1_555 1_555
C4 C5 1_555 1_555
C5 C6 1_555 1_555
C6 C7 1_555 1_555
C7 C8 1_555 1_555
C8 C9 1_555 1_555
C9 C10 1_555 1_555
C10 C1 1_555 1_555
C11 C9 1_555 1_555
C12 C11 1_555 1_555
C13 C12 1_555 1_555
C14 C8 1_555 1_555
C15 C14 1_555 1_555
C16 C15 1_555 1_555
C17 C13 1_555 1_555
C18 C13 1_555 1_555
C19 C10 1_555 1_555
C20 C17 1_555 1_555
C21 C20 1_555 1_555
C22 C20 1_555 1_555
C23 C22 1_555 1_555
C24 C23 1_555 1_555
O1 C3 1_555 1_555
O2 C12 1_555 1_555
O3 C24 1_555 1_555
O4 C24 1_555 1_555
H1 C1 1_555 1_555
H2 C1 1_555 1_555
H3 C2 1_555 1_555
H4 C2 1_555 1_555
H5 C3 1_555 1_555
H6 C4 1_555 1_555
H7 C4 1_555 1_555
H8 C5 1_555 1_555
H9 C6 1_555 1_555
H10 C6 1_555 1_555
H11 C7 1_555 1_555
H12 C7 1_555 1_555
H13 C9 1_555 1_555
H14 C11 1_555 1_555
H15 C11 1_555 1_555
H16 C12 1_555 1_555
H17 C15 1_555 1_555
H18 C15 1_555 1_555
H19 C16 1_555 1_555
H20 C16 1_555 1_555
H21 C17 1_555 1_555
H22 C18 1_555 1_555
H23 C18 1_555 1_555
H24 C18 1_555 1_555
H25 C19 1_555 1_555
H26 C19 1_555 1_555
H27 C19 1_555 1_555
H28 C20 1_555 1_555
H29 C21 1_555 1_555
H30 C21 1_555 1_555
H31 C21 1_555 1_555
H32 C22 1_555 1_555
H33 C22 1_555 1_555
H34 C23 1_555 1_555
H35 C23 1_555 1_555
H36 O1 1_555 1_555
H37 O2 1_555 1_555
H38 O4 1_555 1_555
C25 C26 1_555 1_555
C26 H39 1_555 1_555
C27 C25 1_555 1_555
O5 C25 1_555 1_555
H40 C26 1_555 1_555
H41 C26 1_555 1_555
H42 C27 1_555 1_555
H43 C27 1_555 1_555
H44 C27 1_555 1_555
C5 C10 1_555 1_555
C13 C14 1_555 1_555
C16 C17 1_555 1_555

#END
