
#######################################################################
#
#                 Cambridge Crystallographic Data Centre
#                                CCDC 
#
#######################################################################
#
# If this CIF has been generated from an entry in the Cambridge 
# Structural Database, then it will include bibliographic, chemical, 
# crystal, experimental, refinement or atomic coordinate data resulting 
# from the CCDC's data processing and validation procedures.
#
#######################################################################

data_APEFOS
_chemical_formula_moiety         'C20 H25 N1 O6'
_chemical_name_systematic        
't-Butyl (5-formyl-1,4,6-trimethoxy-7-methyl-2-naphthyl)carbamate'
_symmetry_cell_setting           triclinic
_symmetry_space_group_name_H-M   'P -1'
_symmetry_Int_Tables_number      2
_space_group_name_Hall           '-P 1'
loop_
_symmetry_equiv_pos_site_id
_symmetry_equiv_pos_as_xyz
1 x,y,z
2 -x,-y,-z
_cell_length_a                   9.8884(10)
_cell_length_b                   9.9615(10)
_cell_length_c                   11.2817(10)
_cell_angle_alpha                86.326(3)
_cell_angle_beta                 68.916(3)
_cell_angle_gamma                65.816(3)
_cell_volume                     941.346
_exptl_crystal_colour            colorless
_exptl_crystal_description       block
_cell_formula_units_Z            2
loop_
_atom_site_label
_atom_site_type_symbol
_atom_site_fract_x
_atom_site_fract_y
_atom_site_fract_z
O1 O 0.72277(19) 0.45580(17) 0.51246(13)
O2 O 0.5621(2) 0.2881(2) 0.72982(17)
O3 O 0.72439(16) 0.22842(15) 0.92248(13)
O4 O 0.91788(17) 0.76799(16) 0.75339(13)
O5 O 0.9199(2) 1.0247(2) 0.39614(16)
O6 O 0.77728(19) 0.90266(17) 0.38338(15)
N1 N 0.9038(2) 0.8430(2) 0.52195(16)
H1 H 0.957(3) 0.865(3) 0.556(2)
C1 C 0.8579(2) 0.7292(2) 0.57480(19)
C2 C 0.8114(2) 0.6481(2) 0.51129(19)
H2 H 0.8067 0.6716 0.4295
C3 C 0.7732(2) 0.5361(2) 0.56662(19)
C4 C 0.7820(2) 0.4943(2) 0.68743(18)
C5 C 0.7431(2) 0.3780(2) 0.74877(19)
C6 C 0.7536(2) 0.3465(2) 0.86648(19)
C7 C 0.8035(2) 0.4252(2) 0.92969(19)
C8 C 0.8418(2) 0.5361(2) 0.87070(19)
H3 H 0.8768 0.5886 0.9117
C9 C 0.8307(2) 0.5750(2) 0.75044(18)
C10 C 0.8666(2) 0.6926(2) 0.69224(19)
C11 C 0.6995(3) 0.4979(3) 0.3956(2)
H4 H 0.6537 0.4381 0.3719
H5 H 0.8022 0.4817 0.3282
H6 H 0.6268 0.6027 0.4065
C12 C 0.6941(3) 0.2853(2) 0.6889(2)
H7 H 0.7708 0.2208 0.6147
C13 C 0.5621(3) 0.2672(3) 1.0054(2)
H8 H 0.5526 0.1807 1.0477
H9 H 0.4933 0.3003 0.9553
H10 H 0.5295 0.3470 1.0699
C14 C 0.8115(3) 0.3891(3) 1.0593(2)
H11 H 0.8641 0.4425 1.0821
H12 H 0.8722 0.2825 1.0574
H13 H 0.7034 0.4189 1.1227
C15 C 0.7911(3) 0.8975(3) 0.8323(2)
H14 H 0.8348 0.9484 0.8697
H15 H 0.7158 0.8691 0.9006
H16 H 0.7358 0.9638 0.7805
C16 C 0.8695(3) 0.9310(2) 0.43005(19)
C17 C 0.7211(3) 0.9917(3) 0.2865(2)
C18 C 0.5901(7) 0.9514(7) 0.2890(6)
H17 H 0.6311 0.8438 0.2740
H18 H 0.5503 0.9982 0.2221
H19 H 0.5033 0.9859 0.3724
C19 C 0.6437(7) 1.1593(6) 0.3366(5)
H20 H 0.7269 1.1896 0.3348
H21 H 0.5674 1.1745 0.4243
H22 H 0.5883 1.2186 0.2819
C20 C 0.8521(8) 0.9582(7) 0.1682(7)
H23 H 0.8994 0.8521 0.1417
H24 H 0.9322 0.9854 0.1783
H25 H 0.8146 1.0142 0.1031
C21? C 0.6604(8) 0.8936(7) 0.2370(6)
H26? H 0.7504 0.8006 0.1934
H27? H 0.6101 0.9460 0.1771
H28? H 0.5824 0.8726 0.3091
C22? C 0.5962(7) 1.1306(7) 0.3444(6)
H29? H 0.5085 1.1156 0.4108
H30? H 0.5582 1.1869 0.2798
H31? H 0.6355 1.1854 0.3827
C23? C 0.8619(9) 0.9964(9) 0.1682(8)
H32? H 0.9489 0.8972 0.1433
H33? H 0.8998 1.0648 0.1897
H34? H 0.8254 1.0300 0.0971
loop_
_geom_bond_atom_site_label_1
_geom_bond_atom_site_label_2
_geom_bond_site_symmetry_1
_geom_bond_site_symmetry_2
O1 C3 1_555 1_555
O2 C12 1_555 1_555
O3 C6 1_555 1_555
O4 C10 1_555 1_555
O5 C16 1_555 1_555
O6 C16 1_555 1_555
N1 H1 1_555 1_555
C1 N1 1_555 1_555
C2 C1 1_555 1_555
H2 C2 1_555 1_555
C3 C2 1_555 1_555
C4 C3 1_555 1_555
C5 C4 1_555 1_555
C6 C5 1_555 1_555
C7 C6 1_555 1_555
C8 C7 1_555 1_555
H3 C8 1_555 1_555
C9 C4 1_555 1_555
C10 C1 1_555 1_555
C11 O1 1_555 1_555
H4 C11 1_555 1_555
H5 C11 1_555 1_555
H6 C11 1_555 1_555
C12 C5 1_555 1_555
H7 C12 1_555 1_555
C13 O3 1_555 1_555
H8 C13 1_555 1_555
H9 C13 1_555 1_555
H10 C13 1_555 1_555
C14 C7 1_555 1_555
H11 C14 1_555 1_555
H12 C14 1_555 1_555
H13 C14 1_555 1_555
C15 O4 1_555 1_555
H14 C15 1_555 1_555
H15 C15 1_555 1_555
H16 C15 1_555 1_555
C16 N1 1_555 1_555
C17 O6 1_555 1_555
C18 C17 1_555 1_555
H17 C18 1_555 1_555
H18 C18 1_555 1_555
H19 C18 1_555 1_555
C19 C17 1_555 1_555
H20 C19 1_555 1_555
H21 C19 1_555 1_555
H22 C19 1_555 1_555
C20 C17 1_555 1_555
H23 C20 1_555 1_555
H24 C20 1_555 1_555
H25 C20 1_555 1_555
C8 C9 1_555 1_555
C9 C10 1_555 1_555

#END
