
#######################################################################
#
#                 Cambridge Crystallographic Data Centre
#                                CCDC 
#
#######################################################################
#
# If this CIF has been generated from an entry in the Cambridge 
# Structural Database, then it will include bibliographic, chemical, 
# crystal, experimental, refinement or atomic coordinate data resulting 
# from the CCDC's data processing and validation procedures.
#
#######################################################################

data_APEHOU
_chemical_formula_moiety         'C40 H28 B2 F4 N2 O2'
_chemical_name_systematic        
8,8'-cyclohexane-1,2-diylbis(9,9-difluoro-9H-8,9-pyreno[2,1-e][1,3,2]oxazaborinine)
_symmetry_cell_setting           orthorhombic
_symmetry_space_group_name_H-M   'P 21 21 21'
_symmetry_Int_Tables_number      19
_space_group_name_Hall           'P 2ac 2ab'
loop_
_symmetry_equiv_pos_site_id
_symmetry_equiv_pos_as_xyz
1 x,y,z
2 1/2-x,-y,1/2+z
3 -x,1/2+y,1/2-z
4 1/2+x,1/2-y,-z
_cell_length_a                   11.123(2)
_cell_length_b                   13.112(3)
_cell_length_c                   21.321(4)
_cell_angle_alpha                90
_cell_angle_beta                 90
_cell_angle_gamma                90
_cell_volume                     3109.56
_exptl_crystal_colour            'red orange'
_exptl_crystal_description       block
_cell_formula_units_Z            4
loop_
_atom_site_label
_atom_site_type_symbol
_atom_site_fract_x
_atom_site_fract_y
_atom_site_fract_z
B1 B 0.2731(4) -0.1039(3) 0.4759(2)
B2 B 0.3522(3) 0.0090(3) 0.2703(2)
C1 C 0.3195(3) 0.0631(2) 0.52361(14)
C2 C 0.2849(3) 0.1398(2) 0.56532(13)
C3 C 0.1737(2) 0.1362(2) 0.59864(13)
H1 H 0.1240 0.0795 0.5947
C4 C 0.1406(3) 0.2135(3) 0.63542(13)
H2 H 0.0675 0.2091 0.6564
C5 C 0.2119(3) 0.3025(3) 0.64416(14)
C6 C 0.3238(3) 0.3070(3) 0.61199(13)
C7 C 0.3596(3) 0.2258(2) 0.57200(13)
C8 C 0.1818(3) 0.3839(3) 0.68373(14)
H3 H 0.1088 0.3824 0.7050
C9 C 0.2571(3) 0.4661(3) 0.69211(15)
H4 H 0.2350 0.5184 0.7192
C10 C 0.3657(3) 0.4714(3) 0.66030(15)
H5 H 0.4160 0.5273 0.6660
C11 C 0.3995(3) 0.3937(3) 0.62012(14)
C12 C 0.5119(3) 0.3974(3) 0.58716(14)
H6 H 0.5625 0.4534 0.5920
C13 C 0.5439(3) 0.3204(3) 0.54946(14)
H7 H 0.6172 0.3246 0.5286
C14 C 0.4713(3) 0.2324(3) 0.53963(14)
C15 C 0.5024(2) 0.1540(2) 0.49981(13)
H8 H 0.5752 0.1570 0.4784
C16 C 0.4272(3) 0.0705(2) 0.49088(13)
C17 C 0.4595(3) -0.0098(3) 0.44862(13)
H9 H 0.5318 -0.0047 0.4269
C18 C 0.4325(3) -0.1737(2) 0.39794(13)
H10 H 0.3671 -0.2236 0.3958
C19 C 0.5418(3) -0.2259(2) 0.42674(12)
H11 H 0.5193 -0.2566 0.4664
H12 H 0.6036 -0.1754 0.4349
C20 C 0.5918(3) -0.3080(2) 0.38320(14)
H13 H 0.6605 -0.3410 0.4026
H14 H 0.5310 -0.3594 0.3752
C21 C 0.6292(3) -0.2587(2) 0.32268(15)
H15 H 0.6672 -0.3086 0.2956
H16 H 0.6866 -0.2047 0.3309
C22 C 0.5192(3) -0.2153(2) 0.29088(12)
H17 H 0.4632 -0.2700 0.2818
H18 H 0.5424 -0.1841 0.2514
C23 C 0.4571(2) -0.1355(2) 0.33217(13)
H19 H 0.5116 -0.0771 0.3357
C24 C 0.1517(3) -0.0305(2) 0.22568(13)
C25 C 0.0577(3) 0.0009(2) 0.18585(13)
C26 C 0.0605(3) 0.0942(2) 0.15309(13)
H20 H 0.1259 0.1375 0.1581
C27 C -0.0295(3) 0.1216(2) 0.11472(13)
H21 H -0.0265 0.1845 0.0947
C28 C -0.1297(3) 0.0560(3) 0.10415(14)
C29 C -0.1339(3) -0.0389(2) 0.13614(13)
C30 C -0.0386(3) -0.0669(2) 0.17744(13)
C31 C -0.2227(3) 0.0801(3) 0.06270(14)
H22 H -0.2220 0.1424 0.0419
C32 C -0.3158(3) 0.0124(3) 0.05228(16)
H23 H -0.3764 0.0293 0.0241
C33 C -0.3198(3) -0.0805(3) 0.08349(16)
H24 H -0.3830 -0.1252 0.0758
C34 C -0.2308(3) -0.1077(3) 0.12606(15)
C35 C -0.2314(3) -0.2029(3) 0.15820(14)
H25 H -0.2949 -0.2480 0.1521
C36 C -0.1426(3) -0.2283(2) 0.19683(14)
H26 H -0.1457 -0.2911 0.2170
C37 C -0.0435(3) -0.1637(2) 0.20847(13)
C38 C 0.0513(3) -0.1909(2) 0.24667(14)
H27 H 0.0499 -0.2539 0.2668
C39 C 0.1503(3) -0.1256(2) 0.25596(13)
C40 C 0.2516(3) -0.1567(2) 0.29256(13)
H28 H 0.2502 -0.2202 0.3120
F1 F 0.28948(17) -0.19221(14) 0.51134(8)
F2 F 0.18263(15) -0.12138(15) 0.43365(8)
F3 F 0.36916(15) 0.07895(13) 0.31739(8)
F4 F 0.45321(14) 0.01187(14) 0.23058(8)
N1 N 0.3933(2) -0.0887(2) 0.43923(10)
N2 N 0.3452(2) -0.09914(19) 0.29941(10)
O1 O 0.24708(16) -0.01766(17) 0.51605(9)
O2 O 0.24517(17) 0.03301(14) 0.23425(9)
loop_
_geom_bond_atom_site_label_1
_geom_bond_atom_site_label_2
_geom_bond_site_symmetry_1
_geom_bond_site_symmetry_2
B1 F1 1_555 1_555
B2 F3 1_555 1_555
C1 C2 1_555 1_555
C2 C3 1_555 1_555
C3 H1 1_555 1_555
C4 C3 1_555 1_555
H2 C4 1_555 1_555
C5 C4 1_555 1_555
C6 C5 1_555 1_555
C7 C2 1_555 1_555
C8 C5 1_555 1_555
H3 C8 1_555 1_555
C9 C8 1_555 1_555
H4 C9 1_555 1_555
C10 C9 1_555 1_555
H5 C10 1_555 1_555
C11 C6 1_555 1_555
C12 C11 1_555 1_555
H6 C12 1_555 1_555
C13 C12 1_555 1_555
H7 C13 1_555 1_555
C14 C7 1_555 1_555
C15 C14 1_555 1_555
H8 C15 1_555 1_555
C16 C1 1_555 1_555
C17 C16 1_555 1_555
H9 C17 1_555 1_555
C18 H10 1_555 1_555
C19 C18 1_555 1_555
H11 C19 1_555 1_555
H12 C19 1_555 1_555
C20 C19 1_555 1_555
H13 C20 1_555 1_555
H14 C20 1_555 1_555
C21 C20 1_555 1_555
H15 C21 1_555 1_555
H16 C21 1_555 1_555
C22 C21 1_555 1_555
H17 C22 1_555 1_555
H18 C22 1_555 1_555
C23 C18 1_555 1_555
H19 C23 1_555 1_555
C24 C25 1_555 1_555
C25 C26 1_555 1_555
C26 H20 1_555 1_555
C27 C26 1_555 1_555
H21 C27 1_555 1_555
C28 C27 1_555 1_555
C29 C28 1_555 1_555
C30 C25 1_555 1_555
C31 C28 1_555 1_555
H22 C31 1_555 1_555
C32 C31 1_555 1_555
H23 C32 1_555 1_555
C33 C32 1_555 1_555
H24 C33 1_555 1_555
C34 C29 1_555 1_555
C35 C34 1_555 1_555
H25 C35 1_555 1_555
C36 C35 1_555 1_555
H26 C36 1_555 1_555
C37 C30 1_555 1_555
C38 C37 1_555 1_555
H27 C38 1_555 1_555
C39 C24 1_555 1_555
C40 C39 1_555 1_555
H28 C40 1_555 1_555
F2 B1 1_555 1_555
F4 B2 1_555 1_555
N1 B1 1_555 1_555
N2 B2 1_555 1_555
O1 B1 1_555 1_555
O2 B2 1_555 1_555
C1 O1 1_555 1_555
C6 C7 1_555 1_555
C10 C11 1_555 1_555
C13 C14 1_555 1_555
C15 C16 1_555 1_555
C17 N1 1_555 1_555
C18 N1 1_555 1_555
C22 C23 1_555 1_555
C23 N2 1_555 1_555
C24 O2 1_555 1_555
C29 C30 1_555 1_555
C33 C34 1_555 1_555
C36 C37 1_555 1_555
C38 C39 1_555 1_555
C40 N2 1_555 1_555

#END
