
#######################################################################
#
#                 Cambridge Crystallographic Data Centre
#                                CCDC 
#
#######################################################################
#
# If this CIF has been generated from an entry in the Cambridge 
# Structural Database, then it will include bibliographic, chemical, 
# crystal, experimental, refinement or atomic coordinate data resulting 
# from the CCDC's data processing and validation procedures.
#
#######################################################################

data_APELOY
_chemical_formula_moiety         'C15 H19 N3 O2'
_chemical_name_systematic        
5-methyl-2-(2-(tetrahydro-2H-pyran-4-ylamino)phenyl)-1,2-dihydro-3H-pyrazol-3-one
_symmetry_cell_setting           triclinic
_symmetry_space_group_name_H-M   'P 1'
_symmetry_Int_Tables_number      1
_space_group_name_Hall           'P 1'
loop_
_symmetry_equiv_pos_site_id
_symmetry_equiv_pos_as_xyz
1 x,y,z
_cell_length_a                   8.665(5)
_cell_length_b                   8.848(5)
_cell_length_c                   10.375(6)
_cell_angle_alpha                74.678(12)
_cell_angle_beta                 79.658(10)
_cell_angle_gamma                83.356(11)
_cell_volume                     752.738
_cell_formula_units_Z            2
loop_
_atom_site_label
_atom_site_type_symbol
_atom_site_fract_x
_atom_site_fract_y
_atom_site_fract_z
O1 O 0.2424(6) 0.1840(7) 0.9411(5)
C1 C -0.2511(12) 0.0321(15) 0.8479(12)
H1 H -0.3328 0.1133 0.8574
H2 H -0.2689 -0.0577 0.9231
H3 H -0.2518 0.0027 0.7653
C2 C -0.0963(10) 0.0908(11) 0.8446(8)
N1 N -0.0180(7) 0.1659(9) 0.7284(7)
H4 H -0.0465 0.1859 0.6500
N2 N 0.1172(7) 0.2055(8) 0.7574(6)
C3 C 0.2293(8) 0.2923(10) 0.6563(7)
C4 C 0.1835(10) 0.4433(11) 0.5843(8)
N3 N 0.0336(8) 0.5107(9) 0.6152(7)
H5 H -0.0230 0.4663 0.6896
C5 C -0.0336(10) 0.6497(11) 0.5312(9)
H6 H 0.0392 0.7326 0.5114
C6 C -0.1885(13) 0.7044(13) 0.6062(12)
H7 H -0.2596 0.6208 0.6325
H8 H -0.1698 0.7285 0.6878
C7 C -0.2619(15) 0.8458(13) 0.5198(17)
H9 H -0.3624 0.8754 0.5685
H10 H -0.1951 0.9322 0.5016
O2 O -0.2855(10) 0.8212(10) 0.3952(11)
C8 C 0.1204(9) 0.1563(9) 0.8916(8)
C9 C -0.0112(10) 0.0792(11) 0.9518(9)
H11 H -0.0390 0.0301 1.0429
C10 C 0.3789(10) 0.2277(12) 0.6334(9)
H12 H 0.4073 0.1275 0.6831
C11 C 0.4903(12) 0.3148(16) 0.5333(12)
H13 H 0.5925 0.2716 0.5154
C12 C 0.4472(13) 0.4628(16) 0.4626(12)
H14 H 0.5216 0.5214 0.3988
C13 C 0.2957(11) 0.5258(15) 0.4848(10)
H15 H 0.2672 0.6246 0.4329
C14 C -0.1436(14) 0.7746(15) 0.3206(11)
H16 H -0.0735 0.8591 0.2958
H17 H -0.1654 0.7558 0.2378
C15 C -0.0628(12) 0.6274(13) 0.3998(10)
H18 H -0.1281 0.5400 0.4171
H19 H 0.0365 0.6024 0.3468
N4 N 0.1153(8) 0.4965(9) 0.0997(8)
H20 H 0.1685 0.4471 0.1626
N5 N 0.1696(7) 0.1417(8) 0.2059(6)
H21 H 0.1974 0.1513 0.1204
O3 O -0.0870(6) 0.2180(7) 0.4832(5)
O4 O 0.4616(9) 0.7598(9) -0.1696(8)
C16 C 0.4037(15) 0.8021(14) -0.0480(16)
H22 H 0.3352 0.8975 -0.0660
H23 H 0.4908 0.8235 -0.0099
C17 C 0.3153(12) 0.6763(15) 0.0513(11)
H24 H 0.2720 0.7130 0.1315
H25 H 0.3879 0.5859 0.0778
C18 C 0.1844(10) 0.6256(10) -0.0001(9)
H26 H 0.1042 0.7132 -0.0158
C19 C -0.0311(8) 0.4448(10) 0.1028(8)
C20 C -0.0767(8) 0.3033(10) 0.1902(8)
N6 N 0.0346(6) 0.2074(7) 0.2679(6)
C21 C 0.2491(9) 0.0600(9) 0.3045(8)
C22 C 0.4003(11) -0.0227(12) 0.2708(10)
H27 H 0.4307 0.0023 0.1743
H28 H 0.3916 -0.1339 0.3043
H29 H 0.4782 0.0090 0.3114
C23 C 0.0312(9) 0.1677(9) 0.4046(8)
C24 C 0.1649(9) 0.0720(10) 0.4314(9)
H30 H 0.1937 0.0249 0.5159
C25 C 0.2503(13) 0.5887(13) -0.1299(11)
H31 H 0.1658 0.5655 -0.1699
H32 H 0.3221 0.4955 -0.1137
C26 C -0.1355(10) 0.5253(12) 0.0160(10)
H33 H -0.1062 0.6154 -0.0500
C27 C -0.2799(11) 0.4728(15) 0.0271(12)
H34 H -0.3485 0.5288 -0.0310
C28 C -0.3262(11) 0.3417(14) 0.1204(12)
H35 H -0.4271 0.3104 0.1290
C29 C -0.2241(9) 0.2558(11) 0.2016(9)
H36 H -0.2547 0.1643 0.2652
C30 C 0.3389(17) 0.7246(19) -0.2308(14)
H37 H 0.3834 0.6942 -0.3138
H38 H 0.2668 0.8167 -0.2528
loop_
_geom_bond_atom_site_label_1
_geom_bond_atom_site_label_2
_geom_bond_site_symmetry_1
_geom_bond_site_symmetry_2
O1 C8 1_555 1_555
C1 H1 1_555 1_555
H2 C1 1_555 1_555
H3 C1 1_555 1_555
C2 C1 1_555 1_555
N1 C2 1_555 1_555
H4 N1 1_555 1_555
N2 N1 1_555 1_555
C3 N2 1_555 1_555
C4 C3 1_555 1_555
N3 C4 1_555 1_555
H5 N3 1_555 1_555
C5 N3 1_555 1_555
H6 C5 1_555 1_555
C6 C5 1_555 1_555
H7 C6 1_555 1_555
H8 C6 1_555 1_555
C7 C6 1_555 1_555
H9 C7 1_555 1_555
H10 C7 1_555 1_555
O2 C7 1_555 1_555
C8 N2 1_555 1_555
C9 C2 1_555 1_555
H11 C9 1_555 1_555
C10 C3 1_555 1_555
H12 C10 1_555 1_555
C11 C10 1_555 1_555
H13 C11 1_555 1_555
C12 C11 1_555 1_555
H14 C12 1_555 1_555
C13 C4 1_555 1_555
H15 C13 1_555 1_555
C14 O2 1_555 1_555
H16 C14 1_555 1_555
H17 C14 1_555 1_555
C15 C5 1_555 1_555
H18 C15 1_555 1_555
H19 C15 1_555 1_555
N4 H20 1_555 1_555
N5 H21 1_555 1_555
O3 C23 1_555 1_555
O4 C16 1_555 1_555
C16 H22 1_555 1_555
H23 C16 1_555 1_555
C17 C16 1_555 1_555
H24 C17 1_555 1_555
H25 C17 1_555 1_555
C18 N4 1_555 1_555
H26 C18 1_555 1_555
C19 N4 1_555 1_555
C20 C19 1_555 1_555
N6 N5 1_555 1_555
C21 N5 1_555 1_555
C22 C21 1_555 1_555
H27 C22 1_555 1_555
H28 C22 1_555 1_555
H29 C22 1_555 1_555
C23 N6 1_555 1_555
C24 C21 1_555 1_555
H30 C24 1_555 1_555
C25 C18 1_555 1_555
H31 C25 1_555 1_555
H32 C25 1_555 1_555
C26 C19 1_555 1_555
H33 C26 1_555 1_555
C27 C26 1_555 1_555
H34 C27 1_555 1_555
C28 C27 1_555 1_555
H35 C28 1_555 1_555
C29 C20 1_555 1_555
H36 C29 1_555 1_555
C30 O4 1_555 1_555
H37 C30 1_555 1_555
H38 C30 1_555 1_555
C8 C9 1_555 1_555
C12 C13 1_555 1_555
C14 C15 1_555 1_555
C17 C18 1_555 1_555
C20 N6 1_555 1_555
C23 C24 1_555 1_555
C25 C30 1_555 1_555
C28 C29 1_555 1_555

#END
