
#######################################################################
#
#                 Cambridge Crystallographic Data Centre
#                                CCDC 
#
#######################################################################
#
# If this CIF has been generated from an entry in the Cambridge 
# Structural Database, then it will include bibliographic, chemical, 
# crystal, experimental, refinement or atomic coordinate data resulting 
# from the CCDC's data processing and validation procedures.
#
#######################################################################

data_APELEO
_chemical_formula_moiety         'C23 H36 O4 Si1'
_chemical_name_systematic        
"(3,3-dimethyl-1'-oxo-7'-(trimethylsilyl)-4a',7',8',8a'-tetrahydro-1'H-spiro[cyclohexane-1,4'-isochromen]-2-yl)methyl acrylate"
_symmetry_cell_setting           triclinic
_symmetry_space_group_name_H-M   'P -1'
_symmetry_Int_Tables_number      2
_space_group_name_Hall           '-P 1'
loop_
_symmetry_equiv_pos_site_id
_symmetry_equiv_pos_as_xyz
1 x,y,z
2 -x,-y,-z
_cell_length_a                   8.4671(7)
_cell_length_b                   11.9089(11)
_cell_length_c                   12.8735(11)
_cell_angle_alpha                70.766(8)
_cell_angle_beta                 75.194(8)
_cell_angle_gamma                77.187(8)
_cell_volume                     1171.4
_exptl_crystal_colour            'light colorless'
_exptl_crystal_description       block
_cell_formula_units_Z            2
loop_
_atom_site_label
_atom_site_type_symbol
_atom_site_fract_x
_atom_site_fract_y
_atom_site_fract_z
Si1 Si 0.10238(13) 0.81258(9) 0.33296(9)
O1 O 0.4137(3) 0.4259(2) 0.7068(2)
O2 O 0.2901(4) 0.3471(2) 0.6249(3)
O3 O -0.0719(4) 0.6268(3) 1.0817(3)
O4 O 0.0628(3) 0.7549(2) 0.9386(2)
C1 C 0.2891(5) 0.4317(3) 0.6575(3)
C2 C 0.1624(4) 0.5430(3) 0.6374(3)
H1 H 0.0547 0.5151 0.6619
C3 C 0.1563(4) 0.6290(3) 0.7058(3)
H2 H 0.0933 0.5941 0.7808
C4 C 0.3300(4) 0.6357(3) 0.7238(3)
C5 C 0.4048(4) 0.5055(3) 0.7734(3)
H3 H 0.5155 0.5045 0.7824
H4 H 0.3396 0.4743 0.8475
C6 C 0.1825(4) 0.6033(3) 0.5092(3)
H5 H 0.2898 0.6298 0.4803
H6 H 0.1783 0.5447 0.4730
C7 C 0.0490(4) 0.7103(3) 0.4803(3)
H7 H -0.0502 0.6782 0.4845
C8 C 0.0042(4) 0.7812(3) 0.5647(3)
H8 H -0.0659 0.8540 0.5482
C9 C 0.0573(4) 0.7474(3) 0.6602(3)
H9 H 0.0307 0.8018 0.7021
C10 C 0.4389(4) 0.6940(3) 0.6120(3)
H10 H 0.4681 0.6394 0.5660
H11 H 0.3752 0.7668 0.5728
C11 C 0.5976(4) 0.7255(4) 0.6241(4)
H12 H 0.6681 0.6522 0.6555
H13 H 0.6569 0.7658 0.5507
C12 C 0.5592(5) 0.8064(4) 0.6995(3)
H14 H 0.4926 0.8809 0.6660
H15 H 0.6617 0.8260 0.7045
C13 C 0.4663(4) 0.7484(3) 0.8186(3)
C14 C 0.3076(4) 0.7101(3) 0.8072(3)
H16 H 0.2424 0.7865 0.7736
C15 C 0.5825(5) 0.6472(4) 0.8830(4)
H17 H 0.5206 0.6051 0.9534
H18 H 0.6660 0.6806 0.8965
H19 H 0.6339 0.5922 0.8395
C16 C 0.4130(5) 0.8455(3) 0.8797(3)
H20 H 0.3388 0.9100 0.8415
H21 H 0.5086 0.8758 0.8804
H22 H 0.3582 0.8115 0.9554
C17 C 0.1979(4) 0.6603(3) 0.9212(3)
H23 H 0.1559 0.5906 0.9218
H24 H 0.2608 0.6364 0.9804
C18 C -0.0652(5) 0.7260(4) 1.0217(3)
C19 C -0.1924(6) 0.8392(6) 1.0249(5)
H25 H -0.1681 0.9116 0.9725
C20 C -0.3228(9) 0.8401(6) 1.0915(6)
H26 H -0.3505 0.7691 1.1449
H27 H -0.3951 0.9117 1.0893
C21 C 0.2727(7) 0.8926(5) 0.3242(4)
H28 H 0.2384 0.9387 0.3770
H29 H 0.2992 0.9454 0.2497
H30 H 0.3683 0.8349 0.3415
C22 C -0.0837(6) 0.9227(4) 0.3004(4)
H31 H -0.1675 0.8813 0.2981
H32 H -0.0555 0.9805 0.2289
H33 H -0.1246 0.9633 0.3574
C23 C 0.1684(6) 0.7219(4) 0.2332(4)
H34 H 0.2738 0.6740 0.2429
H35 H 0.1773 0.7744 0.1578
H36 H 0.0884 0.6702 0.2469
loop_
_geom_bond_atom_site_label_1
_geom_bond_atom_site_label_2
_geom_bond_site_symmetry_1
_geom_bond_site_symmetry_2
Si1 C7 1_555 1_555
O1 C1 1_555 1_555
O2 C1 1_555 1_555
O3 C18 1_555 1_555
O4 C17 1_555 1_555
C1 C2 1_555 1_555
C2 H1 1_555 1_555
C3 C2 1_555 1_555
H2 C3 1_555 1_555
C4 C3 1_555 1_555
C5 O1 1_555 1_555
H3 C5 1_555 1_555
H4 C5 1_555 1_555
C6 C2 1_555 1_555
H5 C6 1_555 1_555
H6 C6 1_555 1_555
C7 C6 1_555 1_555
H7 C7 1_555 1_555
C8 C7 1_555 1_555
H8 C8 1_555 1_555
C9 C3 1_555 1_555
H9 C9 1_555 1_555
C10 C4 1_555 1_555
H10 C10 1_555 1_555
H11 C10 1_555 1_555
C11 C10 1_555 1_555
H12 C11 1_555 1_555
H13 C11 1_555 1_555
C12 C11 1_555 1_555
H14 C12 1_555 1_555
H15 C12 1_555 1_555
C13 C12 1_555 1_555
C14 C4 1_555 1_555
H16 C14 1_555 1_555
C15 C13 1_555 1_555
H17 C15 1_555 1_555
H18 C15 1_555 1_555
H19 C15 1_555 1_555
C16 C13 1_555 1_555
H20 C16 1_555 1_555
H21 C16 1_555 1_555
H22 C16 1_555 1_555
C17 C14 1_555 1_555
H23 C17 1_555 1_555
H24 C17 1_555 1_555
C18 O4 1_555 1_555
C19 C18 1_555 1_555
H25 C19 1_555 1_555
C20 C19 1_555 1_555
H26 C20 1_555 1_555
H27 C20 1_555 1_555
C21 Si1 1_555 1_555
H28 C21 1_555 1_555
H29 C21 1_555 1_555
H30 C21 1_555 1_555
C22 Si1 1_555 1_555
H31 C22 1_555 1_555
H32 C22 1_555 1_555
H33 C22 1_555 1_555
C23 Si1 1_555 1_555
H34 C23 1_555 1_555
H35 C23 1_555 1_555
H36 C23 1_555 1_555
C4 C5 1_555 1_555
C8 C9 1_555 1_555
C13 C14 1_555 1_555

#END
