
#######################################################################
#
#                 Cambridge Crystallographic Data Centre
#                                CCDC 
#
#######################################################################
#
# If this CIF has been generated from an entry in the Cambridge 
# Structural Database, then it will include bibliographic, chemical, 
# crystal, experimental, refinement or atomic coordinate data resulting 
# from the CCDC's data processing and validation procedures.
#
#######################################################################

data_APENOA
_chemical_formula_moiety         'C7 H5 N13 O1,4(H2 O1)'
_chemical_name_systematic        
'N-(3-(4-amino-1,2,5-oxadiazol-3-yl)-4H-1,2,4-triazol-4-yl)[1,2,4]triazolo[4,3-b][1,2,4,5]tetrazin-6-amine tetrahydrate'
_symmetry_cell_setting           triclinic
_symmetry_space_group_name_H-M   'P -1'
_symmetry_Int_Tables_number      2
_space_group_name_Hall           '-P 1'
loop_
_symmetry_equiv_pos_site_id
_symmetry_equiv_pos_as_xyz
1 x,y,z
2 -x,-y,-z
_cell_length_a                   7.4468(5)
_cell_length_b                   8.4992(6)
_cell_length_c                   12.6276(9)
_cell_angle_alpha                92.2050(10)
_cell_angle_beta                 97.4160(10)
_cell_angle_gamma                108.6690(10)
_cell_volume                     748.125
_exptl_crystal_colour            yellow
_exptl_crystal_description       prism
_cell_formula_units_Z            2
loop_
_atom_site_label
_atom_site_type_symbol
_atom_site_fract_x
_atom_site_fract_y
_atom_site_fract_z
O1 O 0.09103(12) 0.87235(10) 0.28197(6)
N1 N 0.69214(14) 0.96442(12) -0.05909(7)
N2 N 0.83547(14) 1.09397(12) -0.00129(8)
N3 N 0.70965(13) 0.92273(11) 0.11343(7)
N4 N 0.66510(13) 0.84420(11) 0.20308(7)
N5 N 0.42527(13) 0.63346(11) 0.07575(7)
N6 N 0.47098(13) 0.71379(11) -0.00646(7)
N7 N 0.46888(13) 0.59606(11) 0.25397(7)
N8 N 0.53142(12) 0.65695(11) 0.35996(7)
N9 N 0.68360(13) 0.68711(12) 0.52324(7)
N10 N 0.53786(13) 0.75723(11) 0.52341(7)
N11 N 0.23369(13) 0.80338(12) 0.28662(7)
N12 N 0.05939(14) 0.91222(12) 0.38527(8)
N13 N 0.19169(16) 0.88197(14) 0.55923(8)
C1 C 0.61799(15) 0.86093(13) 0.01211(8)
C2 C 0.84540(15) 1.06798(13) 0.10233(9)
C3 C 0.52750(14) 0.70160(12) 0.17752(8)
C4 C 0.67614(15) 0.62816(13) 0.42523(8)
C5 C 0.44896(14) 0.73866(12) 0.42460(8)
C6 C 0.29171(14) 0.79902(13) 0.38838(8)
C7 C 0.18239(15) 0.86750(13) 0.45181(9)
H1 H 0.758(2) 0.5719(19) 0.3991(12)
H2 H 0.928(2) 1.135(2) 0.1580(13)
H3 H 0.360(3) 0.515(2) 0.2450(14)
H4 H 0.124(3) 0.936(2) 0.5848(14)
H5 H 0.286(3) 0.868(2) 0.5995(15)
O2 O 0.53055(13) 0.18143(11) 0.26315(7)
H6 H 0.473(3) 0.186(3) 0.3159(18)
H7 H 0.446(3) 0.129(3) 0.2110(17)
O3 O 0.14213(12) 0.34929(10) 0.26889(7)
H8 H 0.168(2) 0.328(2) 0.3339(15)
H9 H 0.047(3) 0.391(2) 0.2702(16)
O4 O 0.84438(12) 0.46361(11) 0.25133(7)
H10 H 0.740(3) 0.381(2) 0.2403(15)
H11 H 0.853(3) 0.516(2) 0.1937(17)
O5 O 0.86093(13) 0.63597(11) 0.06814(7)
H12 H 0.814(3) 0.572(3) 0.0081(17)
H13 H 0.964(3) 0.708(3) 0.0519(16)
loop_
_geom_bond_atom_site_label_1
_geom_bond_atom_site_label_2
_geom_bond_site_symmetry_1
_geom_bond_site_symmetry_2
O1 N11 1_555 1_555
N1 N2 1_555 1_555
N2 C2 1_555 1_555
N3 N4 1_555 1_555
N4 C3 1_555 1_555
N5 N6 1_555 1_555
N6 C1 1_555 1_555
N7 N8 1_555 1_555
N8 C4 1_555 1_555
N9 N10 1_555 1_555
N10 C5 1_555 1_555
N11 C6 1_555 1_555
N12 O1 1_555 1_555
N13 C7 1_555 1_555
C1 N1 1_555 1_555
C2 N3 1_555 1_555
C3 N5 1_555 1_555
C4 N9 1_555 1_555
C5 N8 1_555 1_555
C6 C5 1_555 1_555
C7 N12 1_555 1_555
H1 C4 1_555 1_555
H2 C2 1_555 1_555
H3 N7 1_555 1_555
H4 N13 1_555 1_555
H5 N13 1_555 1_555
O2 H6 1_555 1_555
H7 O2 1_555 1_555
O3 H8 1_555 1_555
H9 O3 1_555 1_555
O4 H10 1_555 1_555
H11 O4 1_555 1_555
O5 H12 1_555 1_555
H13 O5 1_555 1_555
N3 C1 1_555 1_555
N7 C3 1_555 1_555
C6 C7 1_555 1_555

#END
