
#######################################################################
#
#                 Cambridge Crystallographic Data Centre
#                                CCDC 
#
#######################################################################
#
# If this CIF has been generated from an entry in the Cambridge 
# Structural Database, then it will include bibliographic, chemical, 
# crystal, experimental, refinement or atomic coordinate data resulting 
# from the CCDC's data processing and validation procedures.
#
#######################################################################

data_APENEQ
_chemical_formula_moiety         'C7 H2 F3 N13 O1,H2 O1'
_chemical_name_systematic        
'N-(4-(1H-tetrazol-5-yl)-1,2,5-oxadiazol-3-yl)-3-(trifluoromethyl)[1,2,4]triazolo[4,3-b][1,2,4,5]tetrazin-6-amine monohydrate'
_symmetry_cell_setting           monoclinic
_symmetry_space_group_name_H-M   'P 21/c'
_symmetry_Int_Tables_number      14
_space_group_name_Hall           '-P 2ybc'
loop_
_symmetry_equiv_pos_site_id
_symmetry_equiv_pos_as_xyz
1 x,y,z
2 -x,1/2+y,1/2-z
3 -x,-y,-z
4 x,1/2-y,1/2+z
_cell_length_a                   7.1664(4)
_cell_length_b                   8.7753(5)
_cell_length_c                   20.0906(12)
_cell_angle_alpha                90
_cell_angle_beta                 96.9930(10)
_cell_angle_gamma                90
_cell_volume                     1254.05
_exptl_crystal_colour            red
_exptl_crystal_description       prism
_cell_formula_units_Z            4
loop_
_atom_site_label
_atom_site_type_symbol
_atom_site_fract_x
_atom_site_fract_y
_atom_site_fract_z
F1 F 0.56011(12) 0.41737(10) 0.25028(4)
F2 F 0.52694(12) 0.21483(10) 0.18940(4)
F3 F 0.60854(12) 0.19651(10) 0.29625(4)
O1 O 0.37148(14) 0.70083(12) 0.01774(5)
N1 N 1.13772(17) 0.26228(15) 0.24241(6)
N2 N 0.97532(17) 0.21887(14) 0.26709(6)
N3 N 0.89498(16) 0.37448(13) 0.18319(6)
N4 N 0.79740(16) 0.46358(14) 0.13510(6)
N5 N 1.11173(17) 0.51213(14) 0.10386(6)
N6 N 1.19564(17) 0.42563(14) 0.14941(6)
N7 N 0.85294(18) 0.62807(15) 0.04918(6)
N8 N 0.51952(17) 0.61907(14) 0.05297(6)
N9 N 0.43476(17) 0.80214(15) -0.02672(6)
N10 N 0.69032(17) 0.98694(14) -0.09987(6)
N11 N 0.84525(17) 1.03853(15) -0.12394(6)
N12 N 0.98526(17) 0.95758(15) -0.09553(6)
N13 N 0.92511(17) 0.85234(14) -0.05315(6)
C1 C 1.08589(19) 0.35639(16) 0.19172(7)
C2 C 0.83213(19) 0.28742(16) 0.23123(7)
C3 C 0.91503(19) 0.52994(16) 0.09940(7)
C4 C 0.6696(2) 0.67155(16) 0.02958(7)
C5 C 0.61682(19) 0.78543(16) -0.02007(7)
C6 C 0.74068(19) 0.87369(16) -0.05707(7)
C7 C 0.62953(19) 0.27820(16) 0.24221(7)
H1 H 0.932(3) 0.671(2) 0.0299(10)
H2 H 0.567(3) 1.020(3) -0.1143(11)
O2 O 1.33582(15) 1.08253(14) -0.13242(6)
H3 H 1.297(3) 1.137(3) -0.1646(11)
H4 H 1.241(3) 1.033(3) -0.1215(11)
loop_
_geom_bond_atom_site_label_1
_geom_bond_atom_site_label_2
_geom_bond_site_symmetry_1
_geom_bond_site_symmetry_2
F1 C7 1_555 1_555
F2 C7 1_555 1_555
F3 C7 1_555 1_555
O1 N8 1_555 1_555
N1 N2 1_555 1_555
N2 C2 1_555 1_555
N3 N4 1_555 1_555
N4 C3 1_555 1_555
N5 N6 1_555 1_555
N6 C1 1_555 1_555
N7 C3 1_555 1_555
N8 C4 1_555 1_555
N9 O1 1_555 1_555
N10 N11 1_555 1_555
N11 N12 1_555 1_555
N12 N13 1_555 1_555
N13 C6 1_555 1_555
C1 N1 1_555 1_555
C2 N3 1_555 1_555
C3 N5 1_555 1_555
C4 N7 1_555 1_555
C5 N9 1_555 1_555
C6 N10 1_555 1_555
C7 C2 1_555 1_555
H1 N7 1_555 1_555
H2 N10 1_555 1_555
O2 H3 1_555 1_555
H4 O2 1_555 1_555
N3 C1 1_555 1_555
C4 C5 1_555 1_555
C5 C6 1_555 1_555

#END
