
#######################################################################
#
#                 Cambridge Crystallographic Data Centre
#                                CCDC 
#
#######################################################################
#
# If this CIF has been generated from an entry in the Cambridge 
# Structural Database, then it will include bibliographic, chemical, 
# crystal, experimental, refinement or atomic coordinate data resulting 
# from the CCDC's data processing and validation procedures.
#
#######################################################################

data_APENAM
_chemical_formula_moiety         'C5 H4 N10 O1,3(H2 O1)'
_chemical_name_systematic        
'N-([1,2,4]triazolo[4,3-b][1,2,4,5]tetrazin-6-yl)-1,2,5-oxadiazole-3,4-diamine trihydrate'
_symmetry_cell_setting           monoclinic
_symmetry_space_group_name_H-M   'P 21/c'
_symmetry_Int_Tables_number      14
_space_group_name_Hall           '-P 2ybc'
loop_
_symmetry_equiv_pos_site_id
_symmetry_equiv_pos_as_xyz
1 x,y,z
2 -x,1/2+y,1/2-z
3 -x,-y,-z
4 x,1/2-y,1/2+z
_cell_length_a                   8.1516(14)
_cell_length_b                   7.1045(12)
_cell_length_c                   19.453(3)
_cell_angle_alpha                90
_cell_angle_beta                 95.924(4)
_cell_angle_gamma                90
_cell_volume                     1120.57
_exptl_crystal_colour            red
_exptl_crystal_description       needle
_cell_formula_units_Z            4
loop_
_atom_site_label
_atom_site_type_symbol
_atom_site_fract_x
_atom_site_fract_y
_atom_site_fract_z
O1 O 0.7865(2) 0.1230(2) 0.47651(10)
N1 N -0.1078(2) 0.1262(3) 0.31790(12)
N2 N -0.0749(3) -0.0607(3) 0.33039(12)
N3 N 0.1425(2) 0.0948(3) 0.37111(11)
N4 N 0.2964(2) 0.1479(3) 0.39891(11)
N5 N 0.1953(3) 0.4640(3) 0.36936(11)
N6 N 0.0519(3) 0.4070(3) 0.34365(11)
N7 N 0.4596(3) 0.4146(3) 0.41529(12)
N8 N 0.6224(3) 0.1456(3) 0.45093(11)
N9 N 0.8684(3) 0.2976(3) 0.48065(12)
N10 N 0.7857(3) 0.6087(3) 0.45487(13)
C1 C 0.0265(3) 0.2163(4) 0.34298(14)
C2 C 0.0752(3) -0.0770(4) 0.36224(14)
C3 C 0.3141(3) 0.3300(4) 0.39404(13)
C4 C 0.6041(3) 0.3250(4) 0.43964(13)
C5 C 0.7575(3) 0.4215(3) 0.45769(13)
H1 H 0.128(3) -0.191(4) 0.3770(13)
H2 H 0.467(3) 0.534(4) 0.4105(13)
H3 H 0.713(3) 0.680(4) 0.4315(15)
H4 H 0.896(3) 0.652(4) 0.4680(14)
O2 O 0.6942(3) 0.7067(3) 0.25282(11)
H5 H 0.767(4) 0.770(5) 0.2829(18)
H6 H 0.602(5) 0.767(5) 0.2534(19)
O3 O 0.4886(2) 0.7897(3) 0.39133(13)
H7 H 0.459(4) 0.808(4) 0.3490(18)
H8 H 0.491(5) 0.900(6) 0.414(2)
O4 O 0.3736(2) 0.8367(3) 0.25412(11)
H9 H 0.348(4) 0.948(5) 0.2469(18)
H10 H 0.286(5) 0.771(6) 0.231(2)
loop_
_geom_bond_atom_site_label_1
_geom_bond_atom_site_label_2
_geom_bond_site_symmetry_1
_geom_bond_site_symmetry_2
O1 N8 1_555 1_555
N1 N2 1_555 1_555
N2 C2 1_555 1_555
N3 N4 1_555 1_555
N4 C3 1_555 1_555
N5 N6 1_555 1_555
N6 C1 1_555 1_555
N7 C3 1_555 1_555
N8 C4 1_555 1_555
N9 O1 1_555 1_555
N10 C5 1_555 1_555
C1 N1 1_555 1_555
C2 N3 1_555 1_555
C3 N5 1_555 1_555
C4 N7 1_555 1_555
C5 N9 1_555 1_555
H1 C2 1_555 1_555
H2 N7 1_555 1_555
H3 N10 1_555 1_555
H4 N10 1_555 1_555
O2 H5 1_555 1_555
H6 O2 1_555 1_555
O3 H7 1_555 1_555
H8 O3 1_555 1_555
O4 H9 1_555 1_555
H10 O4 1_555 1_555
N3 C1 1_555 1_555
C4 C5 1_555 1_555

#END
