
#######################################################################
#
#                 Cambridge Crystallographic Data Centre
#                                CCDC 
#
#######################################################################
#
# If this CIF has been generated from an entry in the Cambridge 
# Structural Database, then it will include bibliographic, chemical, 
# crystal, experimental, refinement or atomic coordinate data resulting 
# from the CCDC's data processing and validation procedures.
#
#######################################################################

data_APENUG
_chemical_formula_moiety         'C7 H4 N12 O2,0.5(H2 O1)'
_chemical_name_systematic        
"N-([1,2,4]triazolo[4,3-b][1,2,4,5]tetrazin-6-yl)-3,3'-bi-1,2,5-oxadiazole-4,4'-diamine hemihydrate"
_symmetry_cell_setting           monoclinic
_symmetry_space_group_name_H-M   'P 21'
_symmetry_Int_Tables_number      4
_space_group_name_Hall           'P 2yb'
loop_
_symmetry_equiv_pos_site_id
_symmetry_equiv_pos_as_xyz
1 x,y,z
2 -x,1/2+y,-z
_cell_length_a                   5.1476(10)
_cell_length_b                   24.198(5)
_cell_length_c                   9.0518(17)
_cell_angle_alpha                90
_cell_angle_beta                 90.242(4)
_cell_angle_gamma                90
_cell_volume                     1127.5
_exptl_crystal_colour            yellow
_exptl_crystal_description       needle
_cell_formula_units_Z            4
loop_
_atom_site_label
_atom_site_type_symbol
_atom_site_fract_x
_atom_site_fract_y
_atom_site_fract_z
O1 O 1.3871(5) 0.19820(11) 0.6280(3)
O2 O 0.5766(5) 0.04922(10) 0.4863(3)
C1 C 0.7148(7) 0.20914(14) 1.2401(4)
C2 C 1.0476(8) 0.26301(15) 1.2620(4)
H1 H 1.2031 0.2828 1.2429
C3 C 0.8306(7) 0.17677(14) 0.9771(4)
C4 C 1.0519(7) 0.16663(14) 0.7389(4)
C5 C 1.0614(7) 0.14524(14) 0.5910(4)
C6 C 0.8912(7) 0.10617(15) 0.5177(4)
C7 C 0.9006(7) 0.08509(14) 0.3689(4)
N1 N 0.6991(6) 0.23166(13) 1.3732(3)
N2 N 0.9098(6) 0.26585(13) 1.3857(4)
N3 N 0.9315(6) 0.22767(11) 1.1687(3)
N4 N 0.9973(6) 0.21265(12) 1.0282(3)
N5 N 0.6097(6) 0.15456(12) 1.0456(3)
N6 N 0.5523(6) 0.17131(12) 1.1767(3)
N7 N 0.8576(6) 0.15543(13) 0.8379(3)
N8 N 1.2513(6) 0.19868(13) 0.7616(3)
N9 N 1.2662(6) 0.16464(13) 0.5259(3)
N10 N 0.6955(6) 0.08391(12) 0.5868(3)
N11 N 0.7081(6) 0.05042(13) 0.3493(3)
N12 N 1.0718(7) 0.09974(15) 0.2628(4)
H2 H 0.734(8) 0.1282(18) 0.808(4)
H3 H 1.198(8) 0.1230(18) 0.283(4)
H4 H 1.093(8) 0.0765(19) 0.183(5)
O3 O 0.1284(5) 0.38920(10) 0.3024(3)
O4 O 0.9295(5) 0.54017(11) 0.1615(3)
N13 N 0.7719(6) 0.34945(13) 1.0502(3)
N14 N 0.5629(6) 0.31386(13) 1.0504(3)
N15 N 0.5514(6) 0.35791(12) 0.8411(3)
N16 N 0.4917(6) 0.37692(12) 0.7033(3)
N17 N 0.8763(6) 0.43429(12) 0.7380(3)
N18 N 0.9237(6) 0.41534(12) 0.8686(3)
N19 N 0.6467(6) 0.43473(13) 0.5203(3)
N20 N 0.2649(6) 0.38878(12) 0.4370(3)
N21 N 0.2461(6) 0.42352(12) 0.2017(3)
N22 N 0.8142(6) 0.50558(12) 0.2628(3)
N23 N 0.7923(6) 0.53875(13) 0.0267(3)
N24 N 0.4238(7) 0.49007(15) -0.0573(4)
C8 C 0.7613(7) 0.37566(14) 0.9223(4)
C9 C 0.4329(7) 0.31919(15) 0.9243(4)
H5 H 0.2815 0.2991 0.8972
C10 C 0.6643(7) 0.41247(14) 0.6601(4)
C11 C 0.4597(7) 0.42237(13) 0.4166(4)
C12 C 0.4476(7) 0.44446(14) 0.2700(4)
C13 C 0.6148(7) 0.48373(14) 0.1968(4)
C14 C 0.5973(7) 0.50436(14) 0.0468(4)
H6 H 0.751(8) 0.4566(16) 0.500(4)
H7 H 0.296(8) 0.4707(17) -0.034(4)
H8 H 0.415(7) 0.5099(16) -0.140(4)
O5 O 0.0008(6) 0.31421(12) 0.6724(3)
H9 H -0.047(8) 0.2953(17) 0.600(5)
H10 H 0.123(10) 0.337(2) 0.644(5)
loop_
_geom_bond_atom_site_label_1
_geom_bond_atom_site_label_2
_geom_bond_site_symmetry_1
_geom_bond_site_symmetry_2
O1 N8 1_555 1_555
O2 N10 1_555 1_555
C1 N1 1_555 1_555
C2 H1 1_555 1_555
C3 N4 1_555 1_555
C4 C5 1_555 1_555
C5 C6 1_555 1_555
C6 C7 1_555 1_555
C7 N11 1_555 1_555
N1 N2 1_555 1_555
N2 C2 1_555 1_555
N3 C1 1_555 1_555
N4 N3 1_555 1_555
N5 C3 1_555 1_555
N6 C1 1_555 1_555
N7 C3 1_555 1_555
N8 C4 1_555 1_555
N9 O1 1_555 1_555
N10 C6 1_555 1_555
N11 O2 1_555 1_555
N12 C7 1_555 1_555
H2 N7 1_555 1_555
H3 N12 1_555 1_555
H4 N12 1_555 1_555
O3 N20 1_555 1_555
O4 N22 1_555 1_555
N13 N14 1_555 1_555
N14 C9 1_555 1_555
N15 N16 1_555 1_555
N16 C10 1_555 1_555
N17 N18 1_555 1_555
N18 C8 1_555 1_555
N19 C10 1_555 1_555
N20 C11 1_555 1_555
N21 O3 1_555 1_555
N22 C13 1_555 1_555
N23 O4 1_555 1_555
N24 C14 1_555 1_555
C8 N13 1_555 1_555
C9 N15 1_555 1_555
H5 C9 1_555 1_555
C10 N17 1_555 1_555
C11 N19 1_555 1_555
C12 N21 1_555 1_555
C13 C12 1_555 1_555
C14 N23 1_555 1_555
H6 N19 1_555 1_555
H7 N24 1_555 1_555
H8 N24 1_555 1_555
O5 H9 1_555 1_555
H10 O5 1_555 1_555
C2 N3 1_555 1_555
C4 N7 1_555 1_555
C5 N9 1_555 1_555
N5 N6 1_555 1_555
N15 C8 1_555 1_555
C11 C12 1_555 1_555
C13 C14 1_555 1_555

#END
