
#######################################################################
#
#                 Cambridge Crystallographic Data Centre
#                                CCDC 
#
#######################################################################
#
# If this CIF has been generated from an entry in the Cambridge 
# Structural Database, then it will include bibliographic, chemical, 
# crystal, experimental, refinement or atomic coordinate data resulting 
# from the CCDC's data processing and validation procedures.
#
#######################################################################

data_APEQUJ
_chemical_formula_moiety         'C78 H80 N4 O10,C4 H8 O2'
_chemical_name_systematic        
"25,27-bis((2-ethoxy-2-oxoethyl)oxy)-26,28-(2,2'-((5,10,10,15,20,20-hexamethyl-5,10,15,20,22,24-hexahydroporphyrin-5,15-diyl)bis((4,1-phenylene)oxy))bis(ethanolato))-calix(4)arene ethyl acetate solvate"
_symmetry_cell_setting           triclinic
_symmetry_space_group_name_H-M   'P -1'
_symmetry_Int_Tables_number      2
_space_group_name_Hall           '-P 1'
loop_
_symmetry_equiv_pos_site_id
_symmetry_equiv_pos_as_xyz
1 x,y,z
2 -x,-y,-z
_cell_length_a                   12.572(3)
_cell_length_b                   14.553(4)
_cell_length_c                   20.155(4)
_cell_angle_alpha                96.735(4)
_cell_angle_beta                 103.439(5)
_cell_angle_gamma                101.565(5)
_cell_volume                     3461.43
_exptl_crystal_colour            colorless
_exptl_crystal_description       prisms
_cell_formula_units_Z            2
_exptl_crystal_recrystallization_method 'ethyl acetate'
loop_
_atom_site_label
_atom_site_type_symbol
_atom_site_fract_x
_atom_site_fract_y
_atom_site_fract_z
C1 C -0.0177(4) 0.0595(3) 0.7830(2)
C2 C -0.0736(4) 0.0468(3) 0.8322(2)
H1 H -0.1529 0.0334 0.8250
C3 C 0.0062(4) 0.0568(3) 0.8957(2)
H2 H -0.0102 0.0513 0.9390
C4 C 0.1105(4) 0.0754(3) 0.8854(2)
C5 C 0.2268(4) 0.0904(3) 0.9320(2)
C6 C 0.2733(4) 0.0038(3) 0.9185(2)
C7 C 0.3629(4) -0.0242(3) 0.9565(2)
H3 H 0.4135 0.0096 0.9990
C8 C 0.3661(4) -0.1127(3) 0.9209(2)
H4 H 0.4207 -0.1480 0.9353
C9 C 0.2804(4) -0.1393(3) 0.8635(2)
C10 C 0.2371(4) -0.2297(3) 0.8122(2)
C11 C 0.2472(4) -0.2201(3) 0.7410(2)
C12 C 0.2829(4) -0.2753(3) 0.6951(2)
H5 H 0.3164 -0.3269 0.7049
C13 C 0.2621(4) -0.2433(3) 0.6307(2)
H6 H 0.2784 -0.2699 0.5899
C14 C 0.2151(4) -0.1685(3) 0.6373(2)
C15 C 0.1753(4) -0.1054(3) 0.5873(2)
C16 C 0.0696(4) -0.0819(3) 0.6005(2)
C17 C -0.0399(4) -0.1268(3) 0.5753(2)
H7 H -0.0688 -0.1801 0.5389
C18 C -0.1047(4) -0.0831(3) 0.6108(2)
H8 H -0.1840 -0.1018 0.6030
C19 C -0.0344(4) -0.0095(3) 0.6582(2)
C20 C -0.0581(4) 0.0664(3) 0.7074(2)
C21 C 0.2218(4) 0.1032(3) 1.0079(2)
H9 H 0.1911 0.1585 1.0181
H10 H 0.2977 0.1132 1.0384
H11 H 0.1733 0.0461 1.0158
C22 C 0.1116(4) -0.2677(3) 0.8107(2)
H12 H 0.0663 -0.2272 0.7879
H13 H 0.1047 -0.2670 0.8582
H14 H 0.0847 -0.3331 0.7850
C23 C 0.3017(4) -0.3024(3) 0.8390(2)
H15 H 0.2719 -0.3635 0.8073
H16 H 0.2930 -0.3109 0.8851
H17 H 0.3817 -0.2795 0.8417
C24 C 0.1467(4) -0.1606(3) 0.5140(2)
H18 H 0.2156 -0.1724 0.5035
H19 H 0.1127 -0.1233 0.4811
H20 H 0.0935 -0.2214 0.5101
C25 C -0.1862(4) 0.0550(4) 0.6897(2)
H21 H -0.2224 -0.0080 0.6967
H22 H -0.2138 0.0615 0.6412
H23 H -0.2042 0.1043 0.7198
C26 C -0.0024(4) 0.1653(3) 0.6965(2)
H24 H -0.0169 0.2142 0.7287
H25 H -0.0335 0.1732 0.6488
H26 H 0.0790 0.1716 0.7051
C27 C 0.3032(3) 0.1832(3) 0.9236(2)
C28 C 0.4186(4) 0.1972(3) 0.9368(2)
H27 H 0.4517 0.1457 0.9473
C29 C 0.4881(4) 0.2834(3) 0.9352(2)
H28 H 0.5673 0.2907 0.9448
C30 C 0.4407(4) 0.3586(3) 0.9195(2)
C31 C 0.3260(4) 0.3471(3) 0.9053(2)
H29 H 0.2933 0.3984 0.8934
C32 C 0.2573(4) 0.2599(3) 0.9081(2)
H30 H 0.1783 0.2530 0.8993
C33 C 0.4709(4) 0.5202(3) 0.9004(2)
H31 H 0.4261 0.5381 0.9320
H32 H 0.4217 0.5034 0.8526
C34 C 0.5679(4) 0.6005(3) 0.9054(2)
H33 H 0.5416 0.6595 0.8996
H34 H 0.6225 0.6112 0.9513
C35 C 0.7063(4) 0.6522(3) 0.8506(2)
C36 C 0.8151(4) 0.6559(3) 0.8891(2)
C37 C 0.8996(4) 0.7338(3) 0.8895(2)
H35 H 0.9742 0.7390 0.9163
C38 C 0.8771(4) 0.8039(3) 0.8517(2)
H36 H 0.9353 0.8577 0.8531
C39 C 0.7696(4) 0.7951(3) 0.8119(2)
H37 H 0.7550 0.8424 0.7846
C40 C 0.6824(4) 0.7199(3) 0.8104(2)
C41 C 0.8448(4) 0.5770(3) 0.9264(2)
H38 H 0.7753 0.5288 0.9235
H39 H 0.8817 0.6031 0.9759
C42 C 0.9232(4) 0.5304(3) 0.8947(2)
C43 C 0.8900(4) 0.4810(3) 0.8272(2)
C44 C 0.9637(4) 0.4485(3) 0.7942(2)
C45 C 1.0750(4) 0.4635(3) 0.8308(2)
H40 H 1.1273 0.4418 0.8092
C46 C 1.1102(4) 0.5097(3) 0.8984(2)
H41 H 1.1864 0.5186 0.9237
C47 C 1.0358(4) 0.5430(3) 0.9296(2)
H42 H 1.0619 0.5753 0.9762
C48 C 0.9230(4) 0.4022(3) 0.7187(2)
H43 H 0.9821 0.3739 0.7056
H44 H 0.8554 0.3501 0.7120
C49 C 0.8947(4) 0.4726(3) 0.6719(2)
C50 C 0.7845(4) 0.4661(3) 0.6330(2)
C51 C 0.7580(4) 0.5365(3) 0.5957(2)
C52 C 0.8444(4) 0.6123(3) 0.5960(2)
H45 H 0.8274 0.6618 0.5716
C53 C 0.9547(4) 0.6184(3) 0.6306(2)
H46 H 1.0134 0.6697 0.6288
C54 C 0.9773(4) 0.5479(3) 0.6679(2)
H47 H 1.0530 0.5515 0.6919
C55 C 0.6379(4) 0.5323(3) 0.5560(2)
H48 H 0.6347 0.5364 0.5069
H49 H 0.5881 0.4711 0.5576
C56 C 0.5977(4) 0.6142(3) 0.5878(2)
C57 C 0.5774(4) 0.6192(3) 0.6536(2)
C58 C 0.5668(4) 0.7028(3) 0.6896(2)
C59 C 0.5633(4) 0.7799(3) 0.6549(2)
H50 H 0.5548 0.8377 0.6778
C60 C 0.5720(4) 0.7732(3) 0.5876(2)
H51 H 0.5649 0.8250 0.5637
C61 C 0.5910(4) 0.6920(3) 0.5552(2)
H52 H 0.5996 0.6892 0.5095
C62 C 0.5665(4) 0.7103(3) 0.7648(2)
H53 H 0.5380 0.7664 0.7784
H54 H 0.5152 0.6529 0.7712
C63 C 0.6916(4) 0.3078(3) 0.5837(2)
H55 H 0.7680 0.3000 0.5836
H56 H 0.6543 0.3177 0.5370
C64 C 0.6261(4) 0.2208(3) 0.6003(2)
H57 H 0.6327 0.1638 0.5710
H58 H 0.6567 0.2162 0.6494
C65 C 0.4340(4) 0.1425(3) 0.5893(2)
C66 C 0.3220(4) 0.1427(3) 0.5672(2)
H59 H 0.3012 0.1971 0.5514
C67 C 0.2399(4) 0.0648(3) 0.5679(2)
H60 H 0.1630 0.0658 0.5517
C68 C 0.2678(4) -0.0157(3) 0.5918(2)
C69 C 0.3803(4) -0.0144(3) 0.6130(2)
H61 H 0.4017 -0.0687 0.6287
C70 C 0.4637(4) 0.0635(3) 0.6122(2)
H62 H 0.5408 0.0623 0.6273
C71 C 0.6983(4) 0.3929(3) 0.8053(3)
H63 H 0.6311 0.3714 0.7653
H64 H 0.6742 0.4197 0.8453
C72 C 0.7461(4) 0.3084(3) 0.8223(3)
C73 C 0.8299(6) 0.2361(4) 0.9121(3)
H65 H 0.9124 0.2618 0.9253
H66 H 0.8109 0.1809 0.8742
O1 O 0.7728(3) 0.3088(2) 0.88935(16)
C74 C 0.7927(5) 0.2063(4) 0.9721(3)
H67 H 0.8080 0.2620 1.0084
H68 H 0.8335 0.1599 0.9902
H69 H 0.7117 0.1771 0.9578
C75 C 0.4891(4) 0.4615(3) 0.6564(3)
H70 H 0.5114 0.4038 0.6708
H71 H 0.4762 0.4543 0.6055
N1 N 0.0947(3) 0.0758(2) 0.81589(18)
H72 H 0.1492 0.0853 0.7951
N2 N 0.2233(3) -0.0674(2) 0.86216(16)
H73 H 0.1630 -0.0673 0.8296
N3 N 0.2063(3) -0.1545(2) 0.70457(16)
H74 H 0.1783 -0.1094 0.7220
N4 N 0.0731(3) -0.0087(2) 0.65310(17)
H75 H 0.1346 0.0317 0.6790
O2 O 0.5150(2) 0.44132(19) 0.91933(14)
O3 O 0.6197(2) 0.57703(18) 0.85235(13)
O4 O 0.6994(2) 0.38847(19) 0.63383(14)
O5 O 0.5103(3) 0.2241(2) 0.58832(15)
O6 O 0.7785(2) 0.46550(19) 0.78932(14)
O7 O 0.7570(3) 0.2492(2) 0.78026(17)
O8 O 0.5794(3) 0.54193(19) 0.68782(14)
C76 C 0.3819(4) 0.4667(4) 0.6739(3)
O9 O 0.3664(3) 0.5112(2) 0.72228(18)
O10 O 0.2967(8) 0.3954(11) 0.6317(8)
C77 C 0.1825(10) 0.3996(14) 0.6467(6)
H76 H 0.1716 0.3670 0.6859
H77 H 0.1761 0.4661 0.6569
C78 C 0.1066(9) 0.3518(10) 0.5851(7)
H78 H 0.1186 0.3862 0.5475
H79 H 0.0297 0.3480 0.5892
H80 H 0.1177 0.2874 0.5751
C81 C 0.3967(5) 0.2487(3) 0.7462(3)
H86 H 0.4501 0.2567 0.7176
H87 H 0.4280 0.2932 0.7901
H88 H 0.3257 0.2615 0.7216
C82 C 0.3758(5) 0.1492(4) 0.7602(2)
C83 C 0.4591(4) 0.0262(3) 0.7973(3)
H89 H 0.4122 -0.0203 0.7559
H90 H 0.4228 0.0192 0.8356
C84 C 0.5746(5) 0.0091(4) 0.8172(3)
H91 H 0.6112 0.0197 0.7798
H92 H 0.5696 -0.0566 0.8250
H93 H 0.6188 0.0531 0.8597
O12 O 0.2837(3) 0.0986(2) 0.75230(16)
O13 O 0.4706(3) 0.1227(2) 0.78233(16)
O11? O 0.3080(12) 0.4208(15) 0.6173(10)
C79? C 0.1869(13) 0.3806(16) 0.6238(9)
H81? H 0.1616 0.3110 0.6074
H82? H 0.1813 0.3955 0.6719
C80? C 0.1282(19) 0.4301(19) 0.5803(9)
H83? H 0.1785 0.4899 0.5782
H84? H 0.0656 0.4439 0.5979
H85? H 0.0986 0.3916 0.5338
loop_
_geom_bond_atom_site_label_1
_geom_bond_atom_site_label_2
_geom_bond_site_symmetry_1
_geom_bond_site_symmetry_2
C1 C2 1_555 1_555
C2 H1 1_555 1_555
C3 C2 1_555 1_555
H2 C3 1_555 1_555
C4 C3 1_555 1_555
C5 C4 1_555 1_555
C6 C5 1_555 1_555
C7 C6 1_555 1_555
H3 C7 1_555 1_555
C8 C7 1_555 1_555
H4 C8 1_555 1_555
C9 C8 1_555 1_555
C10 C9 1_555 1_555
C11 C10 1_555 1_555
C12 C11 1_555 1_555
H5 C12 1_555 1_555
C13 C12 1_555 1_555
H6 C13 1_555 1_555
C14 C13 1_555 1_555
C15 C14 1_555 1_555
C16 C15 1_555 1_555
C17 C16 1_555 1_555
H7 C17 1_555 1_555
C18 C17 1_555 1_555
H8 C18 1_555 1_555
C19 C18 1_555 1_555
C20 C1 1_555 1_555
C21 C5 1_555 1_555
H9 C21 1_555 1_555
H10 C21 1_555 1_555
H11 C21 1_555 1_555
C22 C10 1_555 1_555
H12 C22 1_555 1_555
H13 C22 1_555 1_555
H14 C22 1_555 1_555
C23 C10 1_555 1_555
H15 C23 1_555 1_555
H16 C23 1_555 1_555
H17 C23 1_555 1_555
C24 C15 1_555 1_555
H18 C24 1_555 1_555
H19 C24 1_555 1_555
H20 C24 1_555 1_555
C25 C20 1_555 1_555
H21 C25 1_555 1_555
H22 C25 1_555 1_555
H23 C25 1_555 1_555
C26 C20 1_555 1_555
H24 C26 1_555 1_555
H25 C26 1_555 1_555
H26 C26 1_555 1_555
C27 C5 1_555 1_555
C28 C27 1_555 1_555
H27 C28 1_555 1_555
C29 C28 1_555 1_555
H28 C29 1_555 1_555
C30 C29 1_555 1_555
C31 C30 1_555 1_555
H29 C31 1_555 1_555
C32 C27 1_555 1_555
H30 C32 1_555 1_555
C33 H31 1_555 1_555
H32 C33 1_555 1_555
C34 C33 1_555 1_555
H33 C34 1_555 1_555
H34 C34 1_555 1_555
C35 C36 1_555 1_555
C36 C37 1_555 1_555
C37 H35 1_555 1_555
C38 C37 1_555 1_555
H36 C38 1_555 1_555
C39 C38 1_555 1_555
H37 C39 1_555 1_555
C40 C35 1_555 1_555
C41 C36 1_555 1_555
H38 C41 1_555 1_555
H39 C41 1_555 1_555
C42 C41 1_555 1_555
C43 C42 1_555 1_555
C44 C43 1_555 1_555
C45 C44 1_555 1_555
H40 C45 1_555 1_555
C46 C45 1_555 1_555
H41 C46 1_555 1_555
C47 C42 1_555 1_555
H42 C47 1_555 1_555
C48 C44 1_555 1_555
H43 C48 1_555 1_555
H44 C48 1_555 1_555
C49 C48 1_555 1_555
C50 C49 1_555 1_555
C51 C50 1_555 1_555
C52 C51 1_555 1_555
H45 C52 1_555 1_555
C53 C52 1_555 1_555
H46 C53 1_555 1_555
C54 C49 1_555 1_555
H47 C54 1_555 1_555
C55 C51 1_555 1_555
H48 C55 1_555 1_555
H49 C55 1_555 1_555
C56 C55 1_555 1_555
C57 C56 1_555 1_555
C58 C57 1_555 1_555
C59 C58 1_555 1_555
H50 C59 1_555 1_555
C60 C59 1_555 1_555
H51 C60 1_555 1_555
C61 C56 1_555 1_555
H52 C61 1_555 1_555
C62 C40 1_555 1_555
H53 C62 1_555 1_555
H54 C62 1_555 1_555
C63 H55 1_555 1_555
H56 C63 1_555 1_555
C64 C63 1_555 1_555
H57 C64 1_555 1_555
H58 C64 1_555 1_555
C65 C66 1_555 1_555
C66 H59 1_555 1_555
C67 C66 1_555 1_555
H60 C67 1_555 1_555
C68 C15 1_555 1_555
C69 C68 1_555 1_555
H61 C69 1_555 1_555
C70 C65 1_555 1_555
H62 C70 1_555 1_555
C71 H63 1_555 1_555
H64 C71 1_555 1_555
C72 C71 1_555 1_555
C73 H65 1_555 1_555
H66 C73 1_555 1_555
O1 C72 1_555 1_555
C74 C73 1_555 1_555
H67 C74 1_555 1_555
H68 C74 1_555 1_555
H69 C74 1_555 1_555
C75 H70 1_555 1_555
H71 C75 1_555 1_555
N1 C1 1_555 1_555
H72 N1 1_555 1_555
N2 C6 1_555 1_555
H73 N2 1_555 1_555
N3 C11 1_555 1_555
H74 N3 1_555 1_555
N4 C16 1_555 1_555
H75 N4 1_555 1_555
O2 C30 1_555 1_555
O3 C34 1_555 1_555
O4 C50 1_555 1_555
O5 C64 1_555 1_555
O6 C43 1_555 1_555
O7 C72 1_555 1_555
O8 C57 1_555 1_555
C76 C75 1_555 1_555
O9 C76 1_555 1_555
O10 C76 1_555 1_555
C77 O10 1_555 1_555
H76 C77 1_555 1_555
H77 C77 1_555 1_555
C78 C77 1_555 1_555
H78 C78 1_555 1_555
H79 C78 1_555 1_555
H80 C78 1_555 1_555
C81 H86 1_555 1_555
H87 C81 1_555 1_555
H88 C81 1_555 1_555
C82 C81 1_555 1_555
C83 H89 1_555 1_555
H90 C83 1_555 1_555
C84 C83 1_555 1_555
H91 C84 1_555 1_555
H92 C84 1_555 1_555
H93 C84 1_555 1_555
O12 C82 1_555 1_555
O13 C82 1_555 1_555
C4 N1 1_555 1_555
C9 N2 1_555 1_555
C14 N3 1_555 1_555
C19 C20 1_555 1_555
C19 N4 1_555 1_555
C31 C32 1_555 1_555
C33 O2 1_555 1_555
C35 O3 1_555 1_555
C39 C40 1_555 1_555
C46 C47 1_555 1_555
C53 C54 1_555 1_555
C58 C62 1_555 1_555
C60 C61 1_555 1_555
C63 O4 1_555 1_555
C65 O5 1_555 1_555
C67 C68 1_555 1_555
C69 C70 1_555 1_555
C71 O6 1_555 1_555
C73 O1 1_555 1_555
C75 O8 1_555 1_555
C83 O13 1_555 1_555

#END
