
#######################################################################
#
#                 Cambridge Crystallographic Data Centre
#                                CCDC 
#
#######################################################################
#
# If this CIF has been generated from an entry in the Cambridge 
# Structural Database, then it will include bibliographic, chemical, 
# crystal, experimental, refinement or atomic coordinate data resulting 
# from the CCDC's data processing and validation procedures.
#
#######################################################################

data_APERET
_chemical_formula_moiety         'C31 H28 N2 O1'
_chemical_name_systematic        
5-Benzyl-2-(4-methoxyphenyl)-1-phenyl-2,3,4,5-tetrahydro-1H-pyrido[4,3-b]indole
_symmetry_cell_setting           triclinic
_symmetry_space_group_name_H-M   'P -1'
_symmetry_Int_Tables_number      2
_space_group_name_Hall           '-P 1'
loop_
_symmetry_equiv_pos_site_id
_symmetry_equiv_pos_as_xyz
1 x,y,z
2 -x,-y,-z
_cell_length_a                   10.5558(8)
_cell_length_b                   11.6490(9)
_cell_length_c                   12.0736(9)
_cell_angle_alpha                61.3120(10)
_cell_angle_beta                 84.5650(10)
_cell_angle_gamma                67.0750(10)
_cell_volume                     1191.67
_exptl_crystal_colour            colorless
_exptl_crystal_description       block
_cell_formula_units_Z            2
loop_
_atom_site_label
_atom_site_type_symbol
_atom_site_fract_x
_atom_site_fract_y
_atom_site_fract_z
C1 C 0.49436(17) 0.78813(18) 0.13079(16)
C2 C 0.6255(2) 0.6951(2) 0.1285(2)
H1 H 0.6594 0.7036 0.0521
C3 C 0.7026(2) 0.5903(2) 0.2432(3)
H2 H 0.7909 0.5277 0.2443
C4 C 0.6519(2) 0.5755(2) 0.3576(2)
H3 H 0.7070 0.5035 0.4335
C5 C 0.52151(18) 0.66521(18) 0.36113(17)
H4 H 0.4883 0.6537 0.4384
C6 C 0.44020(16) 0.77373(16) 0.24652(15)
C7 C 0.30504(15) 0.88552(16) 0.21259(13)
C8 C 0.28203(16) 0.96096(17) 0.08334(14)
C9 C 0.4080(2) 0.9520(2) -0.10205(16)
H5 H 0.5042 0.9348 -0.1161
H6 H 0.3550 1.0540 -0.1488
C10 C 0.35825(17) 0.88109(19) -0.15545(16)
C11 C 0.3196(2) 0.9486(2) -0.28317(19)
H7 H 0.3207 1.0383 -0.3351
C12 C 0.2789(3) 0.8839(3) -0.3355(2)
H8 H 0.2521 0.9310 -0.4225
C13 C 0.2775(2) 0.7519(3) -0.2613(3)
H9 H 0.2514 0.7086 -0.2976
C14 C 0.3142(2) 0.6845(3) -0.1347(2)
H10 H 0.3128 0.5947 -0.0835
C15 C 0.3539(2) 0.7489(2) -0.08100(19)
H11 H 0.3779 0.7023 0.0063
C16 C 0.15579(18) 1.08925(18) 0.00894(14)
H12 H 0.1202 1.0790 -0.0555
H13 H 0.1782 1.1727 -0.0333
C17 C 0.04616(17) 1.10776(17) 0.09816(14)
H14 H -0.0227 1.2047 0.0563
H15 H -0.0001 1.0445 0.1149
C18 C 0.19891(15) 0.92657(15) 0.29321(13)
H16 H 0.2481 0.9161 0.3646
C19 C 0.11358(15) 0.83568(15) 0.34836(13)
C20 C 0.04952(17) 0.82872(17) 0.45597(14)
H17 H 0.0627 0.8760 0.4950
C21 C -0.03318(19) 0.75300(19) 0.50586(16)
H18 H -0.0746 0.7488 0.5785
C22 C -0.05492(19) 0.68361(19) 0.44887(18)
H19 H -0.1122 0.6339 0.4818
C23 C 0.0085(2) 0.68825(18) 0.34292(17)
H20 H -0.0054 0.6409 0.3043
C24 C 0.09297(17) 0.76303(17) 0.29328(14)
H21 H 0.1364 0.7645 0.2222
C25 C 0.14982(15) 1.18037(16) 0.21318(13)
C26 C 0.27918(16) 1.14889(17) 0.26359(15)
H22 H 0.3446 1.0557 0.2986
C27 C 0.31396(17) 1.25250(18) 0.26340(16)
H23 H 0.4009 1.2276 0.2997
C28 C 0.22002(18) 1.39193(17) 0.20964(15)
C29 C 0.09192(19) 1.42587(17) 0.15637(15)
H24 H 0.0282 1.5199 0.1183
C30 C 0.05728(18) 1.32289(17) 0.15872(14)
H25 H -0.0303 1.3486 0.1231
C31 C 0.3633(2) 1.4670(3) 0.2767(3)
H26 H 0.3639 1.4001 0.3637
H27 H 0.3636 1.5515 0.2721
H28 H 0.4441 1.4253 0.2436
N1 N 0.39652(15) 0.90389(15) 0.03250(12)
N2 N 0.10426(13) 1.07781(13) 0.21970(11)
O1 O 0.24336(15) 1.50229(13) 0.20441(13)
loop_
_geom_bond_atom_site_label_1
_geom_bond_atom_site_label_2
_geom_bond_site_symmetry_1
_geom_bond_site_symmetry_2
C1 C2 1_555 1_555
C2 H1 1_555 1_555
C3 C2 1_555 1_555
H2 C3 1_555 1_555
C4 C3 1_555 1_555
H3 C4 1_555 1_555
C5 C4 1_555 1_555
H4 C5 1_555 1_555
C6 C1 1_555 1_555
C7 C6 1_555 1_555
C8 C7 1_555 1_555
C9 H5 1_555 1_555
H6 C9 1_555 1_555
C10 C9 1_555 1_555
C11 C10 1_555 1_555
H7 C11 1_555 1_555
C12 C11 1_555 1_555
H8 C12 1_555 1_555
C13 C12 1_555 1_555
H9 C13 1_555 1_555
C14 C13 1_555 1_555
H10 C14 1_555 1_555
C15 C10 1_555 1_555
H11 C15 1_555 1_555
C16 C8 1_555 1_555
H12 C16 1_555 1_555
H13 C16 1_555 1_555
C17 C16 1_555 1_555
H14 C17 1_555 1_555
H15 C17 1_555 1_555
C18 C7 1_555 1_555
H16 C18 1_555 1_555
C19 C18 1_555 1_555
C20 C19 1_555 1_555
H17 C20 1_555 1_555
C21 C20 1_555 1_555
H18 C21 1_555 1_555
C22 C21 1_555 1_555
H19 C22 1_555 1_555
C23 C22 1_555 1_555
H20 C23 1_555 1_555
C24 C19 1_555 1_555
H21 C24 1_555 1_555
C25 C26 1_555 1_555
C26 H22 1_555 1_555
C27 C26 1_555 1_555
H23 C27 1_555 1_555
C28 C27 1_555 1_555
C29 C28 1_555 1_555
H24 C29 1_555 1_555
C30 C25 1_555 1_555
H25 C30 1_555 1_555
C31 H26 1_555 1_555
H27 C31 1_555 1_555
H28 C31 1_555 1_555
N1 C1 1_555 1_555
N2 C17 1_555 1_555
O1 C28 1_555 1_555
C5 C6 1_555 1_555
C8 N1 1_555 1_555
C9 N1 1_555 1_555
C14 C15 1_555 1_555
C18 N2 1_555 1_555
C23 C24 1_555 1_555
C25 N2 1_555 1_555
C29 C30 1_555 1_555
C31 O1 1_555 1_555

#END
