
#######################################################################
#
#                 Cambridge Crystallographic Data Centre
#                                CCDC 
#
#######################################################################
#
# If this CIF has been generated from an entry in the Cambridge 
# Structural Database, then it will include bibliographic, chemical, 
# crystal, experimental, refinement or atomic coordinate data resulting 
# from the CCDC's data processing and validation procedures.
#
#######################################################################

data_APERUK
_chemical_formula_moiety         'C17 H17 N1 O3'
_chemical_name_systematic        
'2-(((isopropylideneamino)oxy)methyl)phenyl benzoate'
_symmetry_cell_setting           orthorhombic
_symmetry_space_group_name_H-M   'P b c a'
_symmetry_Int_Tables_number      61
_space_group_name_Hall           '-P 2ac 2ab'
loop_
_symmetry_equiv_pos_site_id
_symmetry_equiv_pos_as_xyz
1 x,y,z
2 1/2-x,-y,1/2+z
3 -x,1/2+y,1/2-z
4 1/2+x,1/2-y,-z
5 -x,-y,-z
6 1/2+x,y,1/2-z
7 x,1/2-y,1/2+z
8 1/2-x,1/2+y,z
_cell_length_a                   12.049(3)
_cell_length_b                   7.1678(19)
_cell_length_c                   35.147(9)
_cell_angle_alpha                90
_cell_angle_beta                 90
_cell_angle_gamma                90
_cell_volume                     3035.46
_exptl_crystal_colour            white
_exptl_crystal_description       prismatic
_chemical_melting_point          '345 K'
_cell_formula_units_Z            8
_chemical_properties_physical    Moisture-sensitive
loop_
_atom_site_label
_atom_site_type_symbol
_atom_site_fract_x
_atom_site_fract_y
_atom_site_fract_z
N1 N 0.15668(16) 1.1464(3) 0.41713(5)
O1 O 0.09298(13) 1.1366(3) 0.38295(5)
O2 O -0.08599(12) 0.8213(3) 0.35668(4)
O3 O -0.26550(14) 0.8826(3) 0.34589(4)
C1 C -0.0214(2) 1.1599(4) 0.39309(8)
H1 H -0.0645 1.1790 0.3701
H2 H -0.0288 1.2710 0.4086
C2 C -0.06831(17) 0.9971(4) 0.41434(7)
C3 C -0.07784(19) 1.0009(5) 0.45384(7)
H3 H -0.0570 1.1077 0.4671
C4 C -0.1175(2) 0.8495(7) 0.47359(8)
H4 H -0.1225 0.8541 0.5000
C5 C -0.1497(2) 0.6921(6) 0.45463(8)
H5 H -0.1764 0.5899 0.4681
C6 C -0.1427(2) 0.6847(5) 0.41554(8)
H6 H -0.1658 0.5787 0.4025
C7 C -0.10135(17) 0.8346(4) 0.39617(6)
C8 C -0.17583(18) 0.8428(3) 0.33396(6)
C9 C -0.14818(18) 0.8115(3) 0.29348(6)
C10 C -0.22587(19) 0.8606(3) 0.26616(6)
H7 H -0.2933 0.9122 0.2736
C11 C -0.2040(2) 0.8335(4) 0.22834(7)
H8 H -0.2566 0.8670 0.2102
C12 C -0.1043(2) 0.7567(4) 0.21704(7)
H9 H -0.0896 0.7381 0.1913
C13 C -0.0269(2) 0.7080(4) 0.24387(7)
H10 H 0.0403 0.6562 0.2363
C14 C -0.04792(18) 0.7349(3) 0.28198(6)
H11 H 0.0051 0.7018 0.3000
C15 C 0.2601(2) 1.1369(3) 0.41027(6)
C16 C 0.3352(2) 1.1466(5) 0.44394(8)
H12 H 0.2916 1.1579 0.4667
H13 H 0.3831 1.2529 0.4416
H14 H 0.3791 1.0350 0.4452
C17 C 0.3130(2) 1.1184(4) 0.37207(7)
H15 H 0.2564 1.1115 0.3529
H16 H 0.3571 1.0070 0.3714
H17 H 0.3594 1.2248 0.3674
loop_
_geom_bond_atom_site_label_1
_geom_bond_atom_site_label_2
_geom_bond_site_symmetry_1
_geom_bond_site_symmetry_2
N1 O1 1_555 1_555
O1 C1 1_555 1_555
O2 C7 1_555 1_555
O3 C8 1_555 1_555
C1 H1 1_555 1_555
H2 C1 1_555 1_555
C2 C1 1_555 1_555
C3 C2 1_555 1_555
H3 C3 1_555 1_555
C4 C3 1_555 1_555
H4 C4 1_555 1_555
C5 C4 1_555 1_555
H5 C5 1_555 1_555
C6 C5 1_555 1_555
H6 C6 1_555 1_555
C7 C2 1_555 1_555
C8 O2 1_555 1_555
C9 C8 1_555 1_555
C10 C9 1_555 1_555
H7 C10 1_555 1_555
C11 C10 1_555 1_555
H8 C11 1_555 1_555
C12 C11 1_555 1_555
H9 C12 1_555 1_555
C13 C12 1_555 1_555
H10 C13 1_555 1_555
C14 C9 1_555 1_555
H11 C14 1_555 1_555
C15 N1 1_555 1_555
C16 C15 1_555 1_555
H12 C16 1_555 1_555
H13 C16 1_555 1_555
H14 C16 1_555 1_555
C17 C15 1_555 1_555
H15 C17 1_555 1_555
H16 C17 1_555 1_555
H17 C17 1_555 1_555
C6 C7 1_555 1_555
C13 C14 1_555 1_555

#END
