
#######################################################################
#
#                 Cambridge Crystallographic Data Centre
#                                CCDC 
#
#######################################################################
#
# If this CIF has been generated from an entry in the Cambridge 
# Structural Database, then it will include bibliographic, chemical, 
# crystal, experimental, refinement or atomic coordinate data resulting 
# from the CCDC's data processing and validation procedures.
#
#######################################################################

data_APEVUO
_chemical_formula_moiety         'C15 H22 O5'
_chemical_name_systematic        
10a-hydroxy-2,3,6,7,8-pentamethyl-2,3,6,7,10,10a-hexahydro-9H-furo[2,3-e][1,4]benzodioxin-9-one
_symmetry_cell_setting           orthorhombic
_symmetry_space_group_name_H-M   'P 21 21 21'
_symmetry_Int_Tables_number      19
_space_group_name_Hall           'P 2ac 2ab'
loop_
_symmetry_equiv_pos_site_id
_symmetry_equiv_pos_as_xyz
1 x,y,z
2 1/2-x,-y,1/2+z
3 1/2+x,1/2-y,-z
4 -x,1/2+y,1/2-z
_cell_length_a                   9.1432(3)
_cell_length_b                   12.9450(4)
_cell_length_c                   13.5273(5)
_cell_angle_alpha                90
_cell_angle_beta                 90
_cell_angle_gamma                90
_cell_volume                     1601.07
_exptl_crystal_colour            colorless
_exptl_crystal_description       block
_cell_formula_units_Z            4
loop_
_atom_site_label
_atom_site_type_symbol
_atom_site_fract_x
_atom_site_fract_y
_atom_site_fract_z
O1 O 0.79343(13) 0.03671(10) 0.44108(9)
O2 O 0.94000(14) 0.22079(9) 0.41308(10)
H1 H 0.8621 0.2034 0.3881
O3 O 1.15070(16) 0.26475(11) 0.65932(11)
O4 O 1.00523(16) -0.03958(10) 0.50383(11)
O5 O 1.07787(14) 0.09271(11) 0.35025(10)
C1 C 0.6935(2) -0.01138(15) 0.51031(16)
H2 H 0.7115 -0.0860 0.5113
C2 C 0.7316(2) 0.03384(16) 0.61185(15)
H3 H 0.6577 0.0851 0.6306
C3 C 0.87513(19) 0.08727(14) 0.59311(13)
C4 C 0.9415(2) 0.16051(14) 0.64639(14)
C5 C 1.0810(2) 0.20372(13) 0.60915(13)
C6 C 1.1374(2) 0.16909(15) 0.51049(14)
H4 H 1.2056 0.1127 0.5206
H5 H 1.1910 0.2256 0.4804
C7 C 1.01858(19) 0.13372(14) 0.43916(13)
C8 C 0.92547(19) 0.05353(12) 0.49226(13)
C9 C 0.5393(2) 0.0080(2) 0.47614(19)
H6 H 0.5193 0.0807 0.4781
H7 H 0.4723 -0.0277 0.5188
H8 H 0.5279 -0.0169 0.4097
C10 C 0.7417(4) -0.0498(2) 0.69232(18)
H9 H 0.8210 -0.0958 0.6774
H10 H 0.6518 -0.0880 0.6945
H11 H 0.7585 -0.0177 0.7553
C11 C 0.8830(3) 0.2040(2) 0.74163(16)
H12 H 0.8715 0.2775 0.7353
H13 H 0.9503 0.1893 0.7943
H14 H 0.7900 0.1732 0.7561
C12 C 1.1511(3) -0.0045(2) 0.3592(2)
H15 H 1.2399 0.0046 0.3988
C13 C 1.0524(3) -0.08166(18) 0.4099(2)
H16 H 0.9668 -0.0950 0.3682
C14 C 1.1940(4) -0.0352(3) 0.2542(3)
H17 H 1.1073 -0.0459 0.2155
H18 H 1.2502 -0.0978 0.2560
H19 H 1.2515 0.0189 0.2251
C15 C 1.1273(5) -0.1839(2) 0.4349(3)
H20 H 1.2087 -0.1711 0.4780
H21 H 1.1613 -0.2159 0.3752
H22 H 1.0588 -0.2288 0.4672
loop_
_geom_bond_atom_site_label_1
_geom_bond_atom_site_label_2
_geom_bond_site_symmetry_1
_geom_bond_site_symmetry_2
O1 C1 1_555 1_555
O2 H1 1_555 1_555
O3 C5 1_555 1_555
O4 C8 1_555 1_555
O5 C7 1_555 1_555
C1 H2 1_555 1_555
C2 C1 1_555 1_555
H3 C2 1_555 1_555
C3 C2 1_555 1_555
C4 C3 1_555 1_555
C5 C4 1_555 1_555
C6 C5 1_555 1_555
H4 C6 1_555 1_555
H5 C6 1_555 1_555
C7 O2 1_555 1_555
C8 O1 1_555 1_555
C9 C1 1_555 1_555
H6 C9 1_555 1_555
H7 C9 1_555 1_555
H8 C9 1_555 1_555
C10 C2 1_555 1_555
H9 C10 1_555 1_555
H10 C10 1_555 1_555
H11 C10 1_555 1_555
C11 C4 1_555 1_555
H12 C11 1_555 1_555
H13 C11 1_555 1_555
H14 C11 1_555 1_555
C12 O5 1_555 1_555
H15 C12 1_555 1_555
C13 O4 1_555 1_555
H16 C13 1_555 1_555
C14 C12 1_555 1_555
H17 C14 1_555 1_555
H18 C14 1_555 1_555
H19 C14 1_555 1_555
C15 C13 1_555 1_555
H20 C15 1_555 1_555
H21 C15 1_555 1_555
H22 C15 1_555 1_555
C3 C8 1_555 1_555
C6 C7 1_555 1_555
C7 C8 1_555 1_555
C12 C13 1_555 1_555

#END
