
#######################################################################
#
#                 Cambridge Crystallographic Data Centre
#                                CCDC 
#
#######################################################################
#
# If this CIF has been generated from an entry in the Cambridge 
# Structural Database, then it will include bibliographic, chemical, 
# crystal, experimental, refinement or atomic coordinate data resulting 
# from the CCDC's data processing and validation procedures.
#
#######################################################################

data_APEZAY
_chemical_formula_moiety         'C21 H21 N1 O5 S1'
_chemical_name_systematic        
'ethyl 3-(1-(4-methylphenyl)-1-oxobut-3-en-2-yl)-2,3-dihydro-1,2-benzothiazole-3-carboxylate 1,1-dioxide'
_symmetry_cell_setting           monoclinic
_symmetry_space_group_name_H-M   'P 21'
_symmetry_Int_Tables_number      4
_space_group_name_Hall           'P 2yb'
loop_
_symmetry_equiv_pos_site_id
_symmetry_equiv_pos_as_xyz
1 x,y,z
2 -x,1/2+y,-z
_cell_length_a                   11.3632(14)
_cell_length_b                   11.8020(15)
_cell_length_c                   15.831(2)
_cell_angle_alpha                90
_cell_angle_beta                 109.817(2)
_cell_angle_gamma                90
_cell_volume                     1997.34
_exptl_crystal_colour            colorless
_exptl_crystal_description       block
_chemical_melting_point          '164.9-166.3 deg.C'
_cell_formula_units_Z            4
loop_
_atom_site_label
_atom_site_type_symbol
_atom_site_fract_x
_atom_site_fract_y
_atom_site_fract_z
S1 S 1.22810(6) 0.66836(6) 0.88074(5)
O1 O 1.2320(2) 0.6977(2) 0.79403(14)
O2 O 1.2865(2) 0.56340(19) 0.91658(17)
O3 O 0.94988(19) 0.82160(17) 1.02765(13)
O4 O 1.0171(2) 0.64147(18) 1.03711(15)
O5 O 0.82156(18) 0.70446(18) 0.80792(17)
N1 N 1.08645(18) 0.67449(18) 0.88544(15)
H1 H 1.0321 0.6224 0.8625
C1 C 1.2807(2) 0.7808(2) 0.95711(18)
C2 C 1.4017(3) 0.8193(3) 0.9912(2)
H2 H 1.4657 0.7842 0.9768
C3 C 1.4250(3) 0.9125(3) 1.0478(2)
H3 H 1.5061 0.9403 1.0729
C4 C 1.3274(3) 0.9644(3) 1.0671(2)
H4 H 1.3441 1.0271 1.1049
C5 C 1.2059(3) 0.9251(2) 1.03161(17)
H5 H 1.1412 0.9609 1.0447
C6 C 1.1828(2) 0.8305(2) 0.97572(16)
C7 C 1.0572(2) 0.7722(2) 0.93019(16)
C8 C 1.0050(2) 0.7336(2) 1.00358(18)
C9 C 0.8961(3) 0.8077(3) 1.0986(2)
H6 H 0.9029 0.8785 1.1311
H7 H 0.9426 0.7504 1.1406
C10 C 0.7639(4) 0.7741(4) 1.0612(3)
H8 H 0.7188 0.8283 1.0167
H9 H 0.7287 0.7716 1.1084
H10 H 0.7577 0.7006 1.0341
C11 C 0.9628(2) 0.8556(2) 0.86475(16)
H11 H 0.9597 0.9252 0.8976
C12 C 1.0027(2) 0.8856(2) 0.78627(17)
H12 H 0.9913 0.8317 0.7413
C13 C 1.0515(4) 0.9807(3) 0.7774(2)
H13 H 1.0641 1.0363 0.8212
H14 H 1.0742 0.9942 0.7271
C14 C 0.8320(2) 0.8036(2) 0.83087(16)
C15 C 0.7201(2) 0.8714(2) 0.82489(16)
C16 C 0.7265(3) 0.9843(3) 0.8510(2)
H15 H 0.8033 1.0212 0.8706
C17 C 0.6196(3) 1.0418(3) 0.8481(2)
H16 H 0.6256 1.1175 0.8654
C18 C 0.5047(3) 0.9902(3) 0.8205(2)
C19 C 0.4981(3) 0.8779(3) 0.7935(2)
H17 H 0.4210 0.8414 0.7736
C20 C 0.6036(2) 0.8197(3) 0.79551(19)
H18 H 0.5969 0.7445 0.7769
C21 C 0.3888(4) 1.0537(4) 0.8208(3)
H19 H 0.3679 1.0315 0.8723
H20 H 0.3204 1.0362 0.7671
H21 H 0.4049 1.1337 0.8232
S2 S 0.86414(6) 0.58969(6) 0.62820(5)
O6 O 0.8889(2) 0.6994(2) 0.59972(17)
O7 O 0.95233(19) 0.5493(2) 0.71085(14)
O8 O 0.44473(17) 0.44658(19) 0.47811(13)
O9 O 0.5059(2) 0.6272(2) 0.48259(19)
O10 O 0.5454(2) 0.54716(19) 0.71191(16)
N2 N 0.7207(2) 0.5805(2) 0.62710(16)
H22 H 0.6904 0.6292 0.6546
C22 C 0.8402(2) 0.4879(2) 0.54392(18)
C23 C 0.9244(3) 0.4573(3) 0.5023(2)
H23 H 1.0010 0.4940 0.5156
C24 C 0.8910(3) 0.3707(3) 0.4405(2)
H24 H 0.9458 0.3481 0.4115
C25 C 0.7774(3) 0.3172(3) 0.4214(2)
H25 H 0.7565 0.2590 0.3794
C26 C 0.6926(3) 0.3485(3) 0.46365(18)
H26 H 0.6160 0.3118 0.4503
C27 C 0.7255(2) 0.4354(2) 0.52580(16)
C28 C 0.6464(2) 0.4867(2) 0.57789(16)
C29 C 0.5236(3) 0.5318(3) 0.5070(2)
C30 C 0.3232(3) 0.4685(4) 0.4104(2)
H27 H 0.3332 0.5237 0.3679
H28 H 0.2921 0.3990 0.3778
C31 C 0.2319(3) 0.5103(5) 0.4479(3)
H29 H 0.2208 0.4557 0.4896
H30 H 0.1537 0.5223 0.4005
H31 H 0.2607 0.5805 0.4786
C32 C 0.6130(2) 0.3986(2) 0.63877(16)
H32 H 0.5721 0.3336 0.6021
C33 C 0.7257(3) 0.3572(3) 0.71537(19)
H33 H 0.7792 0.4115 0.7509
C34 C 0.7523(4) 0.2549(4) 0.7345(3)
H34 H 0.7011 0.1982 0.7004
H35 H 0.8233 0.2359 0.7826
C35 C 0.5211(2) 0.4539(2) 0.67852(17)
C36 C 0.4052(2) 0.3941(2) 0.67611(16)
C37 C 0.3692(3) 0.2900(3) 0.6356(2)
H36 H 0.4221 0.2513 0.6118
C38 C 0.2560(3) 0.2429(3) 0.6302(2)
H37 H 0.2337 0.1728 0.6026
C39 C 0.1748(3) 0.2976(3) 0.66469(18)
C40 C 0.2113(3) 0.4015(3) 0.7062(2)
H38 H 0.1585 0.4395 0.7304
C41 C 0.3242(2) 0.4493(2) 0.71231(18)
H39 H 0.3469 0.5190 0.7407
C42 C 0.0510(3) 0.2454(3) 0.6575(2)
H40 H 0.0159 0.2091 0.6001
H41 H -0.0049 0.3035 0.6634
H42 H 0.0631 0.1904 0.7043
loop_
_geom_bond_atom_site_label_1
_geom_bond_atom_site_label_2
_geom_bond_site_symmetry_1
_geom_bond_site_symmetry_2
S1 O1 1_555 1_555
O2 S1 1_555 1_555
O3 C8 1_555 1_555
O4 C8 1_555 1_555
O5 C14 1_555 1_555
N1 S1 1_555 1_555
H1 N1 1_555 1_555
C1 S1 1_555 1_555
C2 C1 1_555 1_555
H2 C2 1_555 1_555
C3 C2 1_555 1_555
H3 C3 1_555 1_555
C4 C3 1_555 1_555
H4 C4 1_555 1_555
C5 C4 1_555 1_555
H5 C5 1_555 1_555
C6 C1 1_555 1_555
C7 N1 1_555 1_555
C8 C7 1_555 1_555
C9 O3 1_555 1_555
H6 C9 1_555 1_555
H7 C9 1_555 1_555
C10 C9 1_555 1_555
H8 C10 1_555 1_555
H9 C10 1_555 1_555
H10 C10 1_555 1_555
C11 C7 1_555 1_555
H11 C11 1_555 1_555
C12 C11 1_555 1_555
H12 C12 1_555 1_555
C13 C12 1_555 1_555
H13 C13 1_555 1_555
H14 C13 1_555 1_555
C14 C11 1_555 1_555
C15 C14 1_555 1_555
C16 C15 1_555 1_555
H15 C16 1_555 1_555
C17 C16 1_555 1_555
H16 C17 1_555 1_555
C18 C17 1_555 1_555
C19 C18 1_555 1_555
H17 C19 1_555 1_555
C20 C15 1_555 1_555
H18 C20 1_555 1_555
C21 C18 1_555 1_555
H19 C21 1_555 1_555
H20 C21 1_555 1_555
H21 C21 1_555 1_555
S2 O6 1_555 1_555
O7 S2 1_555 1_555
O8 C29 1_555 1_555
O9 C29 1_555 1_555
O10 C35 1_555 1_555
N2 S2 1_555 1_555
H22 N2 1_555 1_555
C22 S2 1_555 1_555
C23 C22 1_555 1_555
H23 C23 1_555 1_555
C24 C23 1_555 1_555
H24 C24 1_555 1_555
C25 C24 1_555 1_555
H25 C25 1_555 1_555
C26 C25 1_555 1_555
H26 C26 1_555 1_555
C27 C22 1_555 1_555
C28 N2 1_555 1_555
C29 C28 1_555 1_555
C30 O8 1_555 1_555
H27 C30 1_555 1_555
H28 C30 1_555 1_555
C31 C30 1_555 1_555
H29 C31 1_555 1_555
H30 C31 1_555 1_555
H31 C31 1_555 1_555
C32 C28 1_555 1_555
H32 C32 1_555 1_555
C33 C32 1_555 1_555
H33 C33 1_555 1_555
C34 C33 1_555 1_555
H34 C34 1_555 1_555
H35 C34 1_555 1_555
C35 C32 1_555 1_555
C36 C35 1_555 1_555
C37 C36 1_555 1_555
H36 C37 1_555 1_555
C38 C37 1_555 1_555
H37 C38 1_555 1_555
C39 C38 1_555 1_555
C40 C39 1_555 1_555
H38 C40 1_555 1_555
C41 C36 1_555 1_555
H39 C41 1_555 1_555
C42 C39 1_555 1_555
H40 C42 1_555 1_555
H41 C42 1_555 1_555
H42 C42 1_555 1_555
C5 C6 1_555 1_555
C6 C7 1_555 1_555
C19 C20 1_555 1_555
C26 C27 1_555 1_555
C27 C28 1_555 1_555
C40 C41 1_555 1_555

#END
