
#######################################################################
#
#                 Cambridge Crystallographic Data Centre
#                                CCDC 
#
#######################################################################
#
# If this CIF has been generated from an entry in the Cambridge 
# Structural Database, then it will include bibliographic, chemical, 
# crystal, experimental, refinement or atomic coordinate data resulting 
# from the CCDC's data processing and validation procedures.
#
#######################################################################

data_APHOUA
_chemical_formula_moiety         'C24 H32 N2 O7'
_chemical_name_systematic        
1,11-bis(2-Acetylaminophenoxy)-3,6,9-trioxa-undecane
_symmetry_cell_setting           monoclinic
_symmetry_space_group_name_H-M   'C 2/c'
_symmetry_Int_Tables_number      15
_space_group_name_Hall           '-C 2yn'
loop_
_symmetry_equiv_pos_site_id
_symmetry_equiv_pos_as_xyz
1 x,y,z
2 1/2+x,1/2+y,z
3 -x,y,1/2-z
4 1/2-x,1/2+y,1/2-z
5 -x,-y,-z
6 1/2-x,1/2-y,-z
7 x,-y,1/2+z
8 1/2+x,1/2-y,1/2+z
_cell_length_a                   31.110(9)
_cell_length_b                   4.608(4)
_cell_length_c                   17.188(6)
_cell_angle_alpha                90
_cell_angle_beta                 105.27(8)
_cell_angle_gamma                90
_cell_volume                     2376.99
_chemical_melting_point          76-78deg.C
_cell_formula_units_Z            4
loop_
_atom_site_label
_atom_site_type_symbol
_atom_site_fract_x
_atom_site_fract_y
_atom_site_fract_z
O1 O 0.00000 0.29750 0.75000
O2 O 0.09780 0.18560 0.80360
O3 O 0.14630 -0.24410 0.73760
O4 O 0.08050 -0.79370 0.50260
N1 N 0.10990 -0.63550 0.63090
C1 C 0.03400 0.48100 0.80280
C2 C 0.06890 0.27370 0.85290
C3 C 0.13370 0.00770 0.85060
C4 C 0.16650 -0.03320 0.79970
C5 C 0.16880 -0.29230 0.67890
C6 C 0.20840 -0.15810 0.67800
C7 C 0.22790 -0.21570 0.61510
C8 C 0.20730 -0.42090 0.55660
C9 C 0.16740 -0.56160 0.55790
C10 C 0.14830 -0.50130 0.62090
C11 C 0.07910 -0.78430 0.57290
C12 C 0.04420 -0.93170 0.60110
C1B C -0.03400 0.48100 0.69720
C2B C -0.06890 0.27370 0.64710
O2B O -0.09780 0.18560 0.69640
C3B C -0.13370 0.00770 0.64940
C4B C -0.16650 -0.03320 0.70030
O3B O -0.14630 -0.24410 0.76240
C5B C -0.16880 -0.29230 0.82110
C6B C -0.20840 -0.15810 0.82200
C10B C -0.14830 -0.50130 0.87910
C7B C -0.22790 -0.21570 0.88490
N1B N -0.10990 -0.63550 0.86910
C9B C -0.16740 -0.56160 0.94210
C8B C -0.20730 -0.42090 0.94340
C11B C -0.07910 -0.78430 0.92710
O4B O -0.08050 -0.79370 0.99740
C12B C -0.04420 -0.93170 0.89890
loop_
_geom_bond_atom_site_label_1
_geom_bond_atom_site_label_2
_geom_bond_site_symmetry_1
_geom_bond_site_symmetry_2
O1 C1 1_555 1_555
O2 C2 1_555 1_555
O3 C4 1_555 1_555
O4 C11 1_555 1_555
N1 C10 1_555 1_555
C1 C2 1_555 1_555
C3 O2 1_555 1_555
C4 C3 1_555 1_555
C5 O3 1_555 1_555
C6 C5 1_555 1_555
C7 C6 1_555 1_555
C8 C7 1_555 1_555
C9 C8 1_555 1_555
C10 C5 1_555 1_555
C11 N1 1_555 1_555
C12 C11 1_555 1_555
C1B O1 1_555 1_555
C2B C1B 1_555 1_555
O2B C2B 1_555 1_555
C3B O2B 1_555 1_555
C4B C3B 1_555 1_555
O3B C4B 1_555 1_555
C5B O3B 1_555 1_555
C6B C5B 1_555 1_555
C10B C5B 1_555 1_555
C7B C6B 1_555 1_555
N1B C10B 1_555 1_555
C9B C10B 1_555 1_555
C8B C7B 1_555 1_555
C11B N1B 1_555 1_555
O4B C11B 1_555 1_555
C12B C11B 1_555 1_555
C9 C10 1_555 1_555
C9B C8B 1_555 1_555

#END
