
#######################################################################
#
#                 Cambridge Crystallographic Data Centre
#                                CCDC 
#
#######################################################################
#
# If this CIF has been generated from an entry in the Cambridge 
# Structural Database, then it will include bibliographic, chemical, 
# crystal, experimental, refinement or atomic coordinate data resulting 
# from the CCDC's data processing and validation procedures.
#
#######################################################################

data_APIBOR
_chemical_formula_moiety         '0.86(C12 H13 Br1 N2 O1),0.14(C12 H14 N2 O1)'
_chemical_name_systematic        
'2-Bromo-6,8,9,11-tetrahydro-7H-pyrido[2,1-b]quinazolin-11-ol 6,8,9,11-tetrahydro-7H-pyrido[2,1-b]quinazolin-11-ol'
_symmetry_cell_setting           monoclinic
_symmetry_space_group_name_H-M   'P 21/c'
_symmetry_Int_Tables_number      14
_space_group_name_Hall           '-P 2ybc'
loop_
_symmetry_equiv_pos_site_id
_symmetry_equiv_pos_as_xyz
1 x,y,z
2 -x,1/2+y,1/2-z
3 -x,-y,-z
4 x,1/2-y,1/2+z
_cell_length_a                   11.181(7)
_cell_length_b                   10.162(8)
_cell_length_c                   10.747(8)
_cell_angle_alpha                90
_cell_angle_beta                 112.36(5)
_cell_angle_gamma                90
_cell_volume                     1129.28
_exptl_crystal_colour            colorless
_exptl_crystal_description       prism
_chemical_melting_point          '411 K'
_cell_formula_units_Z            4
loop_
_atom_site_label
_atom_site_type_symbol
_atom_site_fract_x
_atom_site_fract_y
_atom_site_fract_z
Br1 Br 0.07492(12) 0.08392(13) 0.40437(13)
O1 O 0.5981(6) 0.2842(6) 0.6660(6)
H1 H 0.5862 0.3636 0.6692
N1 N 0.4700(7) 0.4515(7) 0.3337(7)
C1 C 0.5919(8) 0.4200(9) 0.3851(8)
N2 N 0.6392(7) 0.3171(8) 0.4671(7)
C2 C 0.5626(8) 0.2453(9) 0.5314(9)
H2 H 0.5822 0.1514 0.5308
C3 C 0.4211(7) 0.2640(9) 0.4471(8)
C4 C 0.3309(9) 0.1803(10) 0.4650(9)
H3 H 0.3574 0.1125 0.5277
C5 C 0.2009(9) 0.1991(10) 0.3881(10)
C6 C 0.1612(9) 0.3019(11) 0.2998(10)
H4 H 0.0735 0.3146 0.2497
C7 C 0.2504(9) 0.3860(10) 0.2851(9)
H5 H 0.2225 0.4571 0.2266
C8 C 0.3817(8) 0.3672(8) 0.3559(8)
C9 C 0.6813(9) 0.5034(11) 0.3447(11)
C10 C 0.7751(10) 0.2707(13) 0.5172(14)
H6 H 0.776(8) 0.204(9) 0.462(9)
H7 H 0.812(10) 0.297(11) 0.601(11)
H8 H 0.636(8) 0.512(9) 0.240(10)
H9 H 0.694(11) 0.597(12) 0.394(13)
C11 C 0.812(2) 0.442(3) 0.361(2)
H10 H 0.8006 0.3781 0.2906
H11 H 0.8712 0.5094 0.3562
C12 C 0.866(2) 0.374(2) 0.499(2)
H12 H 0.8834 0.4407 0.5684
H13 H 0.9478 0.3330 0.5100
C13? C 0.8259(12) 0.477(2) 0.422(3)
C14? C 0.849(3) 0.329(2) 0.436(3)
H14? H 0.8537 0.5172 0.5108
H15? H 0.8756 0.5161 0.3747
H16? H 0.9407 0.3108 0.4806
H17? H 0.8191 0.2885 0.3471
loop_
_geom_bond_atom_site_label_1
_geom_bond_atom_site_label_2
_geom_bond_site_symmetry_1
_geom_bond_site_symmetry_2
Br1 C5 1_555 1_555
O1 H1 1_555 1_555
N1 C1 1_555 1_555
C1 N2 1_555 1_555
N2 C2 1_555 1_555
C2 O1 1_555 1_555
H2 C2 1_555 1_555
C3 C2 1_555 1_555
C4 C3 1_555 1_555
H3 C4 1_555 1_555
C5 C4 1_555 1_555
C6 C5 1_555 1_555
H4 C6 1_555 1_555
C7 C6 1_555 1_555
H5 C7 1_555 1_555
C8 N1 1_555 1_555
C9 C1 1_555 1_555
C10 N2 1_555 1_555
H6 C10 1_555 1_555
H7 C10 1_555 1_555
H8 C9 1_555 1_555
H9 C9 1_555 1_555
C11 C9 1_555 1_555
H10 C11 1_555 1_555
H11 C11 1_555 1_555
C12 C10 1_555 1_555
H12 C12 1_555 1_555
H13 C12 1_555 1_555
C3 C8 1_555 1_555
C7 C8 1_555 1_555
C11 C12 1_555 1_555

#END
