
#######################################################################
#
#                 Cambridge Crystallographic Data Centre
#                                CCDC 
#
#######################################################################
#
# If this CIF has been generated from an entry in the Cambridge 
# Structural Database, then it will include bibliographic, chemical, 
# crystal, experimental, refinement or atomic coordinate data resulting 
# from the CCDC's data processing and validation procedures.
#
#######################################################################

data_APIBUX
_chemical_formula_moiety         '0.97(C12 H14 N2 O1),0.03(C12 H13 Br1 N2 O1)'
_chemical_name_systematic        
'6,8,9,11-Tetrahydro-7H-pyrido[2,1-b]quinazolin-11-ol 2-bromo-6,8,9,11-tetrahydro-7H-pyrido[2,1-b]quinazolin-11-ol'
_symmetry_cell_setting           monoclinic
_symmetry_space_group_name_H-M   'P 21/n'
_symmetry_Int_Tables_number      14
_space_group_name_Hall           '-P 2yn'
loop_
_symmetry_equiv_pos_site_id
_symmetry_equiv_pos_as_xyz
1 x,y,z
2 1/2-x,1/2+y,1/2-z
3 -x,-y,-z
4 1/2+x,1/2-y,1/2+z
_cell_length_a                   7.617(2)
_cell_length_b                   14.639(3)
_cell_length_c                   18.743(4)
_cell_angle_alpha                90
_cell_angle_beta                 101.17(3)
_cell_angle_gamma                90
_cell_volume                     2050.35
_exptl_crystal_colour            colorless
_exptl_crystal_description       prism
_chemical_melting_point          '425 K'
_cell_formula_units_Z            8
loop_
_atom_site_label
_atom_site_type_symbol
_atom_site_fract_x
_atom_site_fract_y
_atom_site_fract_z
O1 O 0.3507(4) 0.2204(2) 0.69842(17)
H1 H 0.3198 0.2664 0.7176
N1 N 0.7180(4) 0.3561(2) 0.7971(2)
C1 C 0.7183(6) 0.3369(3) 0.7293(3)
N3 N 0.6519(5) 0.2580(3) 0.6965(2)
C3 C 0.5332(6) 0.2006(3) 0.7287(3)
H3 H 0.5560 0.1370 0.7169
C5 C 0.5743(6) 0.2098(3) 0.8096(2)
C7 C 0.5253(6) 0.1432(3) 0.8548(3)
H5 H 0.4714 0.0895 0.8351
C9 C 0.5568(7) 0.1570(4) 0.9290(3)
C11 C 0.6390(7) 0.2350(4) 0.9585(3)
H9 H 0.6616 0.2430 1.0087
C13 C 0.6884(6) 0.3015(3) 0.9149(3)
H11 H 0.7418 0.3549 0.9354
C15 C 0.6587(5) 0.2891(3) 0.8399(2)
C17 C 0.8089(6) 0.4051(3) 0.6887(2)
H13 H 0.9343 0.4076 0.7118
H14 H 0.7580 0.4647 0.6945
C19 C 0.6593(7) 0.2371(3) 0.6205(3)
H17 H 0.5460 0.2535 0.5898
H18 H 0.6762 0.1719 0.6157
C21 C 0.7985(15) 0.3888(5) 0.6089(4)
H21 H 0.8962 0.4201 0.5929
H22 H 0.6868 0.4130 0.5817
C22 C 0.8091(12) 0.2876(4) 0.5944(6)
H23 H 0.9237 0.2641 0.6194
H24 H 0.8001 0.2773 0.5427
Br1 Br 0.529(5) 0.075(2) 0.9757(16)
O2 O 0.3572(4) 0.4659(2) 0.16038(18)
H2 H 0.3364 0.5196 0.1678
N2 N 0.7154(5) 0.6040(2) 0.2552(2)
C2 C 0.7213(6) 0.5788(3) 0.1888(3)
N4 N 0.6629(5) 0.4973(3) 0.16067(19)
C4 C 0.5382(6) 0.4451(3) 0.1930(3)
H4 H 0.5583 0.3804 0.1839
C6 C 0.5748(6) 0.4589(3) 0.2729(3)
C8 C 0.5249(6) 0.3940(4) 0.3195(3)
H6 H 0.4719 0.3395 0.3010
C10 C 0.5543(8) 0.4107(5) 0.3928(4)
H8 H 0.5202 0.3679 0.4242
C12 C 0.6350(7) 0.4917(5) 0.4201(3)
H10 H 0.6548 0.5030 0.4699
C14 C 0.6859(6) 0.5550(4) 0.3744(3)
H12 H 0.7402 0.6090 0.3933
C16 C 0.6569(5) 0.5392(3) 0.2997(2)
C18 C 0.8083(6) 0.6443(3) 0.1449(3)
H15 H 0.9337 0.6497 0.1674
H16 H 0.7539 0.7039 0.1469
C20 C 0.6866(8) 0.4660(4) 0.0887(3)
H19 H 0.5737 0.4721 0.0548
H20 H 0.7183 0.4018 0.0917
C23 C 0.7954(13) 0.6182(5) 0.0656(4)
H25 H 0.6775 0.6335 0.0382
H26 H 0.8834 0.6522 0.0453
C24 C 0.8280(12) 0.5180(5) 0.0599(5)
H27 H 0.9453 0.5025 0.0877
H28 H 0.8245 0.5016 0.0095
H7? H 0.5218 0.1129 0.9591
C25? C 0.869(4) 0.349(3) 0.6282(16)
C26? C 0.703(6) 0.317(3) 0.5740(19)
C27? C 0.885(7) 0.585(3) 0.090(3)
C28? C 0.720(9) 0.546(4) 0.039(3)
Br2? Br 0.513(3) 0.3383(12) 0.4444(9)
loop_
_geom_bond_atom_site_label_1
_geom_bond_atom_site_label_2
_geom_bond_site_symmetry_1
_geom_bond_site_symmetry_2
O1 H1 1_555 1_555
O2 H2 1_555 1_555
N1 C1 1_555 1_555
N2 C2 1_555 1_555
C1 N3 1_555 1_555
C2 N4 1_555 1_555
N3 C3 1_555 1_555
N4 C4 1_555 1_555
C3 O1 1_555 1_555
H3 C3 1_555 1_555
C4 O2 1_555 1_555
H4 C4 1_555 1_555
C5 C3 1_555 1_555
C6 C4 1_555 1_555
C7 C5 1_555 1_555
H5 C7 1_555 1_555
C8 C6 1_555 1_555
H6 C8 1_555 1_555
C9 C7 1_555 1_555
C10 C8 1_555 1_555
H8 C10 1_555 1_555
C11 C9 1_555 1_555
H9 C11 1_555 1_555
C12 C10 1_555 1_555
H10 C12 1_555 1_555
C13 C11 1_555 1_555
H11 C13 1_555 1_555
C14 C12 1_555 1_555
H12 C14 1_555 1_555
C15 N1 1_555 1_555
C16 N2 1_555 1_555
C17 C1 1_555 1_555
H13 C17 1_555 1_555
H14 C17 1_555 1_555
C18 C2 1_555 1_555
H15 C18 1_555 1_555
H16 C18 1_555 1_555
C19 N3 1_555 1_555
H17 C19 1_555 1_555
H18 C19 1_555 1_555
C20 N4 1_555 1_555
H19 C20 1_555 1_555
H20 C20 1_555 1_555
C21 C17 1_555 1_555
H21 C21 1_555 1_555
H22 C21 1_555 1_555
C22 C19 1_555 1_555
H23 C22 1_555 1_555
H24 C22 1_555 1_555
C23 C18 1_555 1_555
H25 C23 1_555 1_555
H26 C23 1_555 1_555
C24 C20 1_555 1_555
H27 C24 1_555 1_555
H28 C24 1_555 1_555
Br1 C9 1_555 1_555
C5 C15 1_555 1_555
C6 C16 1_555 1_555
C13 C15 1_555 1_555
C14 C16 1_555 1_555
C21 C22 1_555 1_555
C23 C24 1_555 1_555

#END
