
#######################################################################
#
#                 Cambridge Crystallographic Data Centre
#                                CCDC 
#
#######################################################################
#
# If this CIF has been generated from an entry in the Cambridge 
# Structural Database, then it will include bibliographic, chemical, 
# crystal, experimental, refinement or atomic coordinate data resulting 
# from the CCDC's data processing and validation procedures.
#
#######################################################################

data_APICEI
_chemical_compound_source        'Peganum harmala'
_chemical_name_common            'peganinium nitrate'
_chemical_formula_moiety         'C11 H13 N2 O1 1+,N1 O3 1-'
_chemical_name_systematic        
'3-Hydroxy-2,3,4,9-tetrahydro-1H-pyrrolo[2,1-b]quinazolin-4-ium nitrate'
_symmetry_cell_setting           monoclinic
_symmetry_space_group_name_H-M   'P 21/c'
_symmetry_Int_Tables_number      14
_space_group_name_Hall           '-P 2ybc'
loop_
_symmetry_equiv_pos_site_id
_symmetry_equiv_pos_as_xyz
1 x,y,z
2 -x,1/2+y,1/2-z
3 -x,-y,-z
4 x,1/2-y,1/2+z
_cell_length_a                   7.302(2)
_cell_length_b                   13.355(3)
_cell_length_c                   12.126(2)
_cell_angle_alpha                90
_cell_angle_beta                 100.61(3)
_cell_angle_gamma                90
_cell_volume                     1162.29
_exptl_crystal_colour            colorless
_exptl_crystal_description       prism
_chemical_melting_point          '450 K'
_cell_formula_units_Z            4
_exptl_crystal_recrystallization_method methanol
loop_
_atom_site_label
_atom_site_type_symbol
_atom_site_fract_x
_atom_site_fract_y
_atom_site_fract_z
O1 O 0.8312(4) 0.7469(3) 0.7405(3)
H1 H 0.7454 0.7803 0.7057
N1 N 0.7102(5) 0.5946(3) 0.5666(3)
C1 C 0.7660(5) 0.5774(3) 0.6742(3)
N2 N 0.8296(4) 0.4908(3) 0.7128(3)
C2 C 0.8288(6) 0.4005(3) 0.6454(4)
H2 H 0.7353 0.3544 0.6626
H3 H 0.9493 0.3679 0.6635
C3 C 0.7872(5) 0.4259(3) 0.5223(4)
C4 C 0.8047(6) 0.3547(3) 0.4422(4)
H4 H 0.8491 0.2913 0.4645
C5 C 0.7571(6) 0.3769(4) 0.3294(4)
H5 H 0.7686 0.3279 0.2766
C6 C 0.6932(6) 0.4697(4) 0.2945(4)
H6 H 0.6606 0.4839 0.2183
C7 C 0.6774(5) 0.5424(3) 0.3728(3)
H7 H 0.6354 0.6061 0.3497
C8 C 0.7243(5) 0.5203(3) 0.4862(3)
C9 C 0.7636(6) 0.6526(4) 0.7658(3)
H8 H 0.6368 0.6593 0.7808
C10 C 0.8877(7) 0.6012(5) 0.8651(4)
H9 H 1.0133 0.6278 0.8760
H10 H 0.8387 0.6112 0.9334
C11 C 0.8868(7) 0.4914(4) 0.8355(4)
H11 H 1.0097 0.4623 0.8580
H12 H 0.7989 0.4547 0.8710
H13 H 0.666(5) 0.648(3) 0.547(3)
N3 N 0.4745(6) 0.8351(3) 0.5216(3)
O2 O 0.3452(5) 0.8861(3) 0.4718(3)
O3 O 0.5526(5) 0.7732(3) 0.4695(3)
O4 O 0.5181(5) 0.8416(3) 0.6254(3)
loop_
_geom_bond_atom_site_label_1
_geom_bond_atom_site_label_2
_geom_bond_site_symmetry_1
_geom_bond_site_symmetry_2
O1 H1 1_555 1_555
N1 C1 1_555 1_555
C1 N2 1_555 1_555
N2 C2 1_555 1_555
C2 H2 1_555 1_555
H3 C2 1_555 1_555
C3 C2 1_555 1_555
C4 C3 1_555 1_555
H4 C4 1_555 1_555
C5 C4 1_555 1_555
H5 C5 1_555 1_555
C6 C5 1_555 1_555
H6 C6 1_555 1_555
C7 C6 1_555 1_555
H7 C7 1_555 1_555
C8 N1 1_555 1_555
C9 O1 1_555 1_555
H8 C9 1_555 1_555
C10 C9 1_555 1_555
H9 C10 1_555 1_555
H10 C10 1_555 1_555
C11 N2 1_555 1_555
H11 C11 1_555 1_555
H12 C11 1_555 1_555
N3 O2 1_555 1_555
O3 N3 1_555 1_555
O4 N3 1_555 1_555
H13 N1 1_555 1_555
C1 C9 1_555 1_555
C3 C8 1_555 1_555
C7 C8 1_555 1_555
C10 C11 1_555 1_555

#END
