
#######################################################################
#
#                 Cambridge Crystallographic Data Centre
#                                CCDC 
#
#######################################################################
#
# If this CIF has been generated from an entry in the Cambridge 
# Structural Database, then it will include bibliographic, chemical, 
# crystal, experimental, refinement or atomic coordinate data resulting 
# from the CCDC's data processing and validation procedures.
#
#######################################################################

data_APICAE
_chemical_compound_source        'Peganum harmala'
_chemical_name_common            '(-)-peganin hydrate'
_chemical_formula_moiety         'C11 H12 N2 O1,0.13(H2 O1)'
_chemical_name_systematic        
'1,2,3,9-Tetrahydropyrrolo[2,1-b]quinazolin-3-ol hydrate'
_symmetry_cell_setting           triclinic
_symmetry_space_group_name_H-M   'P 1'
_symmetry_Int_Tables_number      1
_space_group_name_Hall           'P 1'
loop_
_symmetry_equiv_pos_site_id
_symmetry_equiv_pos_as_xyz
1 x,y,z
_cell_length_a                   5.927(1)
_cell_length_b                   9.471(2)
_cell_length_c                   18.544(4)
_cell_angle_alpha                87.24(3)
_cell_angle_beta                 83.33(3)
_cell_angle_gamma                71.78(3)
_cell_volume                     982
_exptl_crystal_colour            'dark yellow'
_exptl_crystal_description       plate
_cell_formula_units_Z            4
_exptl_crystal_recrystallization_method ethanol
loop_
_atom_site_label
_atom_site_type_symbol
_atom_site_fract_x
_atom_site_fract_y
_atom_site_fract_z
O1 O 0.4314(8) 0.8027(4) 0.7533(3)
N1 N 0.3655(9) 0.5598(5) 0.8548(3)
C1 C 0.5421(10) 0.5525(6) 0.8051(3)
N2 N 0.7644(8) 0.4610(5) 0.8045(3)
C2 C 0.8421(11) 0.3445(7) 0.8579(3)
H1 H 0.9827 0.3528 0.8772
H2 H 0.8837 0.2481 0.8354
C3 C 0.6435(11) 0.3578(7) 0.9190(3)
C4 C 0.6901(13) 0.2655(8) 0.9795(4)
H3 H 0.8420 0.1990 0.9826
C5 C 0.5115(15) 0.2725(8) 1.0347(4)
H4 H 0.5432 0.2104 1.0752
C6 C 0.2861(15) 0.3706(8) 1.0308(4)
H5 H 0.1654 0.3731 1.0680
C7 C 0.2389(12) 0.4654(7) 0.9714(3)
H6 H 0.0873 0.5331 0.9692
C8 C 0.4197(10) 0.4594(6) 0.9146(3)
C9 C 0.5235(11) 0.6509(6) 0.7377(3)
H7 H 0.4243 0.6244 0.7052
C10 C 0.7795(12) 0.6145(7) 0.7019(4)
H8 H 0.8407 0.6969 0.7068
H9 H 0.7861 0.5955 0.6507
C11 C 0.9275(11) 0.4755(7) 0.7407(3)
H10 H 0.9709 0.3889 0.7101
H11 H 1.0715 0.4893 0.7549
H45 H 0.264(18) 0.813(10) 0.750(5)
O2 O 0.9305(8) 0.4554(5) 0.2158(2)
N3 N 0.8719(9) 0.5738(5) 0.3655(3)
C12 C 1.0289(10) 0.5866(6) 0.3129(3)
N4 N 1.1398(8) 0.6885(5) 0.3040(3)
C13 C 1.1293(11) 0.7914(7) 0.3601(3)
H12 H 1.0932 0.8914 0.3398
H13 H 1.2835 0.7665 0.3787
C14 C 0.9400(11) 0.7864(7) 0.4216(3)
C15 C 0.8861(12) 0.8825(7) 0.4790(4)
H14 H 0.9699 0.9506 0.4798
C16 C 0.7133(14) 0.8818(8) 0.5353(4)
H15 H 0.6806 0.9473 0.5738
C17 C 0.5893(13) 0.7796(8) 0.5327(4)
H16 H 0.4687 0.7786 0.5694
C18 C 0.6410(12) 0.6805(7) 0.4771(4)
H17 H 0.5563 0.6128 0.4769
C19 C 0.8205(10) 0.6799(6) 0.4207(3)
C20 C 1.1173(11) 0.4777(7) 0.2505(3)
H18 H 1.2184 0.3822 0.2680
C21 C 1.2692(12) 0.5500(7) 0.1971(4)
H19 H 1.4176 0.4766 0.1790
H20 H 1.1829 0.5951 0.1562
C22 C 1.3177(11) 0.6678(7) 0.2408(4)
H21 H 1.4783 0.6335 0.2552
H22 H 1.2971 0.7596 0.2131
H46 H 0.905(14) 0.385(9) 0.236(4)
O3 O 0.5339(7) 0.4351(4) 0.3677(3)
N5 N 0.8459(9) 0.1925(6) 0.2699(3)
C23 C 0.6826(10) 0.1858(6) 0.3216(3)
N6 N 0.5494(8) 0.0931(5) 0.3252(3)
C24 C 0.5727(12) -0.0175(7) 0.2714(3)
H23 H 0.4203 -0.0012 0.2527
H24 H 0.6191 -0.1158 0.2935
C25 C 0.7575(10) -0.0079(6) 0.2103(3)
C26 C 0.8000(13) -0.0999(8) 0.1512(4)
H25 H 0.7107 -0.1646 0.1492
C27 C 0.9752(14) -0.0966(8) 0.0947(4)
H26 H 1.0063 -0.1606 0.0557
C28 C 1.1015(14) 0.0018(9) 0.0971(4)
H27 H 1.2178 0.0051 0.0594
C29 C 1.0565(12) 0.0962(7) 0.1553(3)
H28 H 1.1430 0.1627 0.1565
C30 C 0.8845(11) 0.0925(6) 0.2117(3)
C31 C 0.6094(11) 0.2849(7) 0.3869(3)
H29 H 0.7429 0.2648 0.4165
C32 C 0.4043(13) 0.2395(8) 0.4292(4)
H30 H 0.4415 0.2083 0.4781
H31 H 0.2580 0.3226 0.4319
C33 C 0.3746(12) 0.1116(8) 0.3887(4)
H32 H 0.4069 0.0218 0.4184
H33 H 0.2142 0.1359 0.3746
H47 H 0.69(2) 0.484(14) 0.368(6)
O4 O 1.0288(7) -0.1820(5) 0.9086(2)
N7 N 0.9471(8) -0.0556(5) 0.7611(3)
C34 C 0.7837(9) -0.0495(6) 0.8155(3)
N8 N 0.5688(8) 0.0512(5) 0.8260(3)
C35 C 0.4654(10) 0.1568(7) 0.7706(3)
H34 H 0.3978 0.2552 0.7913
H35 H 0.3377 0.1295 0.7526
C36 C 0.6521(10) 0.1593(6) 0.7092(3)
C37 C 0.6003(12) 0.2621(7) 0.6537(3)
H36 H 0.4475 0.3298 0.6548
C38 C 0.7694(14) 0.2679(8) 0.5962(4)
H37 H 0.7309 0.3386 0.5593
C39 C 0.9944(14) 0.1675(8) 0.5946(4)
H38 H 1.1098 0.1700 0.5565
C40 C 1.0499(11) 0.0625(7) 0.6497(3)
H39 H 1.2028 -0.0051 0.6482
C41 C 0.8797(10) 0.0570(6) 0.7072(3)
C42 C 0.8151(10) -0.1610(6) 0.8779(3)
H40 H 0.8112 -0.2565 0.8608
C43 C 0.5945(11) -0.0946(7) 0.9318(4)
H41 H 0.5240 -0.1707 0.9501
H42 H 0.6377 -0.0518 0.9726
C44 C 0.4208(10) 0.0242(7) 0.8908(3)
H43 H 0.2934 -0.0105 0.8778
H44 H 0.3515 0.1136 0.9193
H48 H 1.148(17) -0.272(11) 0.879(5)
O5 O 0.708(3) 0.597(2) 0.0808(10)
O6 O 1.211(13) 0.548(7) 0.564(3)
loop_
_geom_bond_atom_site_label_1
_geom_bond_atom_site_label_2
_geom_bond_site_symmetry_1
_geom_bond_site_symmetry_2
O1 C9 1_555 1_555
N1 C1 1_555 1_555
C1 N2 1_555 1_555
N2 C2 1_555 1_555
C2 H1 1_555 1_555
H2 C2 1_555 1_555
C3 C2 1_555 1_555
C4 C3 1_555 1_555
H3 C4 1_555 1_555
C5 C4 1_555 1_555
H4 C5 1_555 1_555
C6 C5 1_555 1_555
H5 C6 1_555 1_555
C7 C6 1_555 1_555
H6 C7 1_555 1_555
C8 N1 1_555 1_555
C9 C1 1_555 1_555
H7 C9 1_555 1_555
C10 C9 1_555 1_555
H8 C10 1_555 1_555
H9 C10 1_555 1_555
C11 N2 1_555 1_555
H10 C11 1_555 1_555
H11 C11 1_555 1_555
O2 C20 1_555 1_555
N3 C12 1_555 1_555
C12 N4 1_555 1_555
N4 C13 1_555 1_555
C13 H12 1_555 1_555
H13 C13 1_555 1_555
C14 C13 1_555 1_555
C15 C14 1_555 1_555
H14 C15 1_555 1_555
C16 C15 1_555 1_555
H15 C16 1_555 1_555
C17 C16 1_555 1_555
H16 C17 1_555 1_555
C18 C17 1_555 1_555
H17 C18 1_555 1_555
C19 N3 1_555 1_555
C20 C12 1_555 1_555
H18 C20 1_555 1_555
C21 C20 1_555 1_555
H19 C21 1_555 1_555
H20 C21 1_555 1_555
C22 N4 1_555 1_555
H21 C22 1_555 1_555
H22 C22 1_555 1_555
O3 C31 1_555 1_555
N5 C23 1_555 1_555
C23 N6 1_555 1_555
N6 C24 1_555 1_555
C24 H23 1_555 1_555
H24 C24 1_555 1_555
C25 C24 1_555 1_555
C26 C25 1_555 1_555
H25 C26 1_555 1_555
C27 C26 1_555 1_555
H26 C27 1_555 1_555
C28 C27 1_555 1_555
H27 C28 1_555 1_555
C29 C28 1_555 1_555
H28 C29 1_555 1_555
C30 N5 1_555 1_555
C31 C23 1_555 1_555
H29 C31 1_555 1_555
C32 C31 1_555 1_555
H30 C32 1_555 1_555
H31 C32 1_555 1_555
C33 N6 1_555 1_555
H32 C33 1_555 1_555
H33 C33 1_555 1_555
O4 C42 1_555 1_555
N7 C34 1_555 1_555
C34 N8 1_555 1_555
N8 C35 1_555 1_555
C35 H34 1_555 1_555
H35 C35 1_555 1_555
C36 C35 1_555 1_555
C37 C36 1_555 1_555
H36 C37 1_555 1_555
C38 C37 1_555 1_555
H37 C38 1_555 1_555
C39 C38 1_555 1_555
H38 C39 1_555 1_555
C40 C39 1_555 1_555
H39 C40 1_555 1_555
C41 N7 1_555 1_555
C42 C34 1_555 1_555
H40 C42 1_555 1_555
C43 C42 1_555 1_555
H41 C43 1_555 1_555
H42 C43 1_555 1_555
C44 N8 1_555 1_555
H43 C44 1_555 1_555
H44 C44 1_555 1_555
H45 O1 1_555 1_555
H46 O2 1_555 1_555
H47 O3 1_555 1_555
H48 O4 1_555 1_555
C3 C8 1_555 1_555
C7 C8 1_555 1_555
C10 C11 1_555 1_555
C14 C19 1_555 1_555
C18 C19 1_555 1_555
C21 C22 1_555 1_555
C25 C30 1_555 1_555
C29 C30 1_555 1_555
C32 C33 1_555 1_555
C36 C41 1_555 1_555
C40 C41 1_555 1_555
C43 C44 1_555 1_555

#END
