
#######################################################################
#
#                 Cambridge Crystallographic Data Centre
#                                CCDC 
#
#######################################################################
#
# If this CIF has been generated from an entry in the Cambridge 
# Structural Database, then it will include bibliographic, chemical, 
# crystal, experimental, refinement or atomic coordinate data resulting 
# from the CCDC's data processing and validation procedures.
#
#######################################################################

data_APIPUM
_chemical_formula_moiety         'C12 F10 Te1,C5 H12 N2 S1'
_chemical_name_systematic        
'bis(pentafluorophenyl)telluride 1,1,3,3-tetramethylthiourea'
_symmetry_cell_setting           monoclinic
_symmetry_space_group_name_H-M   'P 21/c'
_symmetry_Int_Tables_number      14
_space_group_name_Hall           '-P 2ybc'
loop_
_symmetry_equiv_pos_site_id
_symmetry_equiv_pos_as_xyz
1 x,y,z
2 -x,1/2+y,1/2-z
3 -x,-y,-z
4 x,1/2-y,1/2+z
_cell_length_a                   10.3275(11)
_cell_length_b                   20.7002(15)
_cell_length_c                   9.4642(10)
_cell_angle_alpha                90
_cell_angle_beta                 90.861(8)
_cell_angle_gamma                90
_cell_volume                     2023.04
_exptl_crystal_colour            colorless
_cell_formula_units_Z            4
loop_
_atom_site_label
_atom_site_type_symbol
_atom_site_fract_x
_atom_site_fract_y
_atom_site_fract_z
Te1 Te -0.706749(17) -0.181019(8) -0.478493(19)
F1 F -0.99009(18) -0.11691(10) -0.5598(2)
F2 F -1.0582(2) -0.00575(10) -0.6870(2)
F3 F -0.8728(3) 0.08214(10) -0.7556(3)
F4 F -0.6202(2) 0.05699(11) -0.7003(3)
F5 F -0.54943(17) -0.05505(9) -0.5778(2)
F6 F -0.92679(18) -0.25090(9) -0.29158(19)
F7 F -1.04386(18) -0.22000(11) -0.0510(2)
F8 F -0.9715(2) -0.11252(11) 0.0951(2)
F9 F -0.7822(2) -0.03468(10) -0.0057(2)
F10 F -0.66511(19) -0.06401(9) -0.2492(2)
C1 C -0.7675(3) -0.08938(13) -0.5626(3)
C2 C -0.8957(3) -0.07493(14) -0.5922(3)
C3 C -0.9327(3) -0.01764(16) -0.6569(3)
C4 C -0.8393(4) 0.02646(15) -0.6923(4)
C5 C -0.7104(4) 0.01394(15) -0.6633(4)
C6 C -0.6765(3) -0.04373(14) -0.6001(3)
C7 C -0.7920(3) -0.15838(14) -0.2795(3)
C8 C -0.8877(3) -0.19711(14) -0.2238(3)
C9 C -0.9479(3) -0.18239(15) -0.0988(3)
C10 C -0.9122(3) -0.12772(16) -0.0254(3)
C11 C -0.8166(3) -0.08850(15) -0.0769(3)
C12 C -0.7574(3) -0.10413(14) -0.2024(3)
S1 S -0.62935(7) -0.31081(3) -0.31453(8)
N1 N -0.3920(3) -0.26384(14) -0.2617(3)
N2 N -0.4015(3) -0.36955(14) -0.3393(3)
C13 C -0.4652(3) -0.31496(15) -0.3035(3)
C14 C -0.4464(3) -0.20939(16) -0.1872(4)
H1 H -0.4637 -0.1749 -0.2516
H2 H -0.3821 -0.1873 -0.1273
H3 H -0.5170 -0.2237 -0.1287
C15 C -0.2645(4) -0.2514(2) -0.3216(5)
H4 H -0.2492 -0.2836 -0.3987
H5 H -0.1952 -0.2556 -0.2396
H6 H -0.2564 -0.2055 -0.3519
C16 C -0.4652(4) -0.42015(16) -0.4210(4)
H7 H -0.5254 -0.4008 -0.4845
H8 H -0.4013 -0.4411 -0.4716
H9 H -0.5056 -0.4488 -0.3614
C17 C -0.2846(4) -0.3911(2) -0.2609(5)
H10 H -0.2664 -0.3567 -0.1787
H11 H -0.3055 -0.4378 -0.2120
H12 H -0.2197 -0.3939 -0.3256
loop_
_geom_bond_atom_site_label_1
_geom_bond_atom_site_label_2
_geom_bond_site_symmetry_1
_geom_bond_site_symmetry_2
Te1 C1 1_555 1_555
F1 C2 1_555 1_555
F2 C3 1_555 1_555
F3 C4 1_555 1_555
F4 C5 1_555 1_555
F5 C6 1_555 1_555
F6 C8 1_555 1_555
F7 C9 1_555 1_555
F8 C10 1_555 1_555
F9 C11 1_555 1_555
F10 C12 1_555 1_555
C1 C2 1_555 1_555
C2 C3 1_555 1_555
C3 C4 1_555 1_555
C4 C5 1_555 1_555
C5 C6 1_555 1_555
C6 C1 1_555 1_555
C7 Te1 1_555 1_555
C8 C7 1_555 1_555
C9 C8 1_555 1_555
C10 C9 1_555 1_555
C11 C10 1_555 1_555
C12 C7 1_555 1_555
S1 C13 1_555 1_555
N1 C13 1_555 1_555
N2 C13 1_555 1_555
C14 N1 1_555 1_555
H1 C14 1_555 1_555
H2 C14 1_555 1_555
H3 C14 1_555 1_555
C15 N1 1_555 1_555
H4 C15 1_555 1_555
H5 C15 1_555 1_555
H6 C15 1_555 1_555
C16 N2 1_555 1_555
H7 C16 1_555 1_555
H8 C16 1_555 1_555
H9 C16 1_555 1_555
C17 N2 1_555 1_555
H10 C17 1_555 1_555
H11 C17 1_555 1_555
H12 C17 1_555 1_555
C11 C12 1_555 1_555

#END
