
#######################################################################
#
#                 Cambridge Crystallographic Data Centre
#                                CCDC 
#
#######################################################################
#
# If this CIF has been generated from an entry in the Cambridge 
# Structural Database, then it will include bibliographic, chemical, 
# crystal, experimental, refinement or atomic coordinate data resulting 
# from the CCDC's data processing and validation procedures.
#
#######################################################################

data_APIPEW
_chemical_formula_moiety         'C18 H12 N2 O2'
_chemical_name_systematic        
11-benzoylpyrido[1',2':3,4]imidazo[1,2-a]pyridin-5-ium-4-olate
_symmetry_cell_setting           orthorhombic
_symmetry_space_group_name_H-M   'P b c a'
_symmetry_Int_Tables_number      61
_space_group_name_Hall           '-P 2ac 2ab'
loop_
_symmetry_equiv_pos_site_id
_symmetry_equiv_pos_as_xyz
1 x,y,z
2 1/2-x,-y,1/2+z
3 -x,1/2+y,1/2-z
4 1/2+x,1/2-y,-z
5 -x,-y,-z
6 1/2+x,y,1/2-z
7 x,1/2-y,1/2+z
8 1/2-x,1/2+y,z
_cell_length_a                   16.336(11)
_cell_length_b                   7.549(5)
_cell_length_c                   21.555(16)
_cell_angle_alpha                90
_cell_angle_beta                 90
_cell_angle_gamma                90
_cell_volume                     2658.17
_exptl_crystal_colour            red
_exptl_crystal_description       BLOCK
_cell_formula_units_Z            8
loop_
_atom_site_label
_atom_site_type_symbol
_atom_site_fract_x
_atom_site_fract_y
_atom_site_fract_z
N1 N 0.24136(15) 0.9882(3) 0.64430(12)
C1 C 0.32305(19) 1.0197(5) 0.66405(18)
O1 O 0.33387(16) 1.1031(4) 0.71254(13)
N2 N 0.10704(15) 0.9815(4) 0.64195(13)
O2 O 0.00668(14) 0.7975(4) 0.55409(11)
C2 C 0.3814(2) 0.9487(5) 0.62391(18)
H1 H 0.4366 0.9611 0.6335
C3 C 0.3597(2) 0.8610(5) 0.57053(17)
H2 H 0.4011 0.8140 0.5459
C4 C 0.2808(2) 0.8395(4) 0.55187(15)
H3 H 0.2687 0.7825 0.5147
C5 C 0.21921(18) 0.9041(4) 0.58922(15)
C6 C 0.13352(18) 0.9051(4) 0.58634(16)
C7 C 0.0298(2) 1.0116(5) 0.66227(17)
H4 H -0.0148 0.9749 0.6387
C8 C 0.0180(2) 1.0959(5) 0.71740(17)
H5 H -0.0349 1.1165 0.7317
C9 C 0.0843(2) 1.1510(6) 0.75221(16)
H6 H 0.0759 1.2098 0.7896
C10 C 0.1616(2) 1.1198(5) 0.73203(16)
H7 H 0.2064 1.1562 0.7554
C11 C 0.1726(2) 1.0334(5) 0.67649(15)
C12 C 0.0779(2) 0.8328(5) 0.54182(15)
C13 C 0.10871(18) 0.7965(5) 0.47819(16)
C14 C 0.1510(2) 0.9237(5) 0.44463(18)
H8 H 0.1639 1.0317 0.4630
C15 C 0.1739(2) 0.8908(6) 0.38421(19)
H9 H 0.2012 0.9774 0.3615
C16 C 0.1565(2) 0.7306(6) 0.35757(19)
H10 H 0.1724 0.7078 0.3169
C17 C 0.1160(2) 0.6050(6) 0.39070(18)
H11 H 0.1052 0.4955 0.3727
C18 C 0.0909(2) 0.6376(5) 0.45009(16)
H12 H 0.0616 0.5518 0.4717
loop_
_geom_bond_atom_site_label_1
_geom_bond_atom_site_label_2
_geom_bond_site_symmetry_1
_geom_bond_site_symmetry_2
N1 C1 1_555 1_555
C1 O1 1_555 1_555
N2 C6 1_555 1_555
O2 C12 1_555 1_555
C2 C1 1_555 1_555
H1 C2 1_555 1_555
C3 C2 1_555 1_555
H2 C3 1_555 1_555
C4 C3 1_555 1_555
H3 C4 1_555 1_555
C5 N1 1_555 1_555
C6 C5 1_555 1_555
C7 N2 1_555 1_555
H4 C7 1_555 1_555
C8 C7 1_555 1_555
H5 C8 1_555 1_555
C9 C8 1_555 1_555
H6 C9 1_555 1_555
C10 C9 1_555 1_555
H7 C10 1_555 1_555
C11 N1 1_555 1_555
C12 C6 1_555 1_555
C13 C12 1_555 1_555
C14 C13 1_555 1_555
H8 C14 1_555 1_555
C15 C14 1_555 1_555
H9 C15 1_555 1_555
C16 C15 1_555 1_555
H10 C16 1_555 1_555
C17 C16 1_555 1_555
H11 C17 1_555 1_555
C18 C13 1_555 1_555
H12 C18 1_555 1_555
N2 C11 1_555 1_555
C4 C5 1_555 1_555
C10 C11 1_555 1_555
C17 C18 1_555 1_555

#END
