
#######################################################################
#
#                 Cambridge Crystallographic Data Centre
#                                CCDC 
#
#######################################################################
#
# If this CIF has been generated from an entry in the Cambridge 
# Structural Database, then it will include bibliographic, chemical, 
# crystal, experimental, refinement or atomic coordinate data resulting 
# from the CCDC's data processing and validation procedures.
#
#######################################################################

data_APIQEX
_chemical_formula_moiety         'C10 F8 N2 Se1,C2 H6 O1 S1'
_chemical_name_systematic        
'bis(tetrafluoropyridin-4-yl)selenide dimethyl sulfoxide solvate'
_symmetry_cell_setting           monoclinic
_symmetry_space_group_name_H-M   'P 21/c'
_symmetry_Int_Tables_number      14
_space_group_name_Hall           '-P 2ybc'
loop_
_symmetry_equiv_pos_site_id
_symmetry_equiv_pos_as_xyz
1 x,y,z
2 -x,1/2+y,1/2-z
3 -x,-y,-z
4 x,1/2-y,1/2+z
_cell_length_a                   9.5859(13)
_cell_length_b                   17.9451(17)
_cell_length_c                   8.9832(12)
_cell_angle_alpha                90
_cell_angle_beta                 96.345(11)
_cell_angle_gamma                90
_cell_volume                     1535.82
_exptl_crystal_colour            colorless
_exptl_crystal_description       polyhedron
_cell_formula_units_Z            4
loop_
_atom_site_label
_atom_site_type_symbol
_atom_site_fract_x
_atom_site_fract_y
_atom_site_fract_z
Se1 Se 0.72739(3) 0.188918(17) 0.51052(3)
C1 C 0.8049(3) 0.16144(18) 0.7106(3)
C2 C 0.7286(4) 0.12144(19) 0.8056(3)
F1 F 0.5945(2) 0.10244(14) 0.7651(2)
C3 C 0.7933(5) 0.1002(2) 0.9439(4)
F2 F 0.7215(3) 0.05803(14) 1.0327(2)
N1 N 0.9227(4) 0.1168(2) 0.9938(3)
C4 C 0.9936(4) 0.1556(3) 0.9051(4)
F3 F 1.1266(2) 0.17174(19) 0.9561(3)
C5 C 0.9418(3) 0.1778(2) 0.7645(4)
F4 F 1.0251(2) 0.21397(16) 0.6791(2)
C6 C 0.8096(3) 0.10299(17) 0.4243(3)
C7 C 0.7424(4) 0.0347(2) 0.4154(4)
F5 F 0.6186(3) 0.02621(15) 0.4682(4)
C8 C 0.8030(5) -0.0249(2) 0.3531(5)
F6 F 0.7372(4) -0.09069(16) 0.3442(5)
N2 N 0.9248(4) -0.02294(18) 0.3020(3)
C9 C 0.9897(4) 0.0409(2) 0.3108(4)
F7 F 1.1169(3) 0.04229(15) 0.2621(3)
C10 C 0.9383(3) 0.10477(18) 0.3691(3)
F8 F 1.0148(2) 0.16714(12) 0.3736(3)
S1 S 0.47285(10) 0.18653(6) 0.12872(9)
O1 O 0.6208(3) 0.19753(14) 0.1976(3)
C11 C 0.4231(6) 0.0958(3) 0.1619(12)
H1 H 0.4734 0.0622 0.1042
H2 H 0.3241 0.0904 0.1334
H3 H 0.4440 0.0846 0.2664
C12 C 0.3641(5) 0.2285(4) 0.2479(9)
H4 H 0.3755 0.2816 0.2448
H5 H 0.3890 0.2110 0.3484
H6 H 0.2682 0.2159 0.2161
loop_
_geom_bond_atom_site_label_1
_geom_bond_atom_site_label_2
_geom_bond_site_symmetry_1
_geom_bond_site_symmetry_2
Se1 C1 1_555 1_555
C1 C2 1_555 1_555
C2 F1 1_555 1_555
C3 C2 1_555 1_555
F2 C3 1_555 1_555
N1 C3 1_555 1_555
C4 N1 1_555 1_555
F3 C4 1_555 1_555
C5 C1 1_555 1_555
F4 C5 1_555 1_555
C6 Se1 1_555 1_555
C7 C6 1_555 1_555
F5 C7 1_555 1_555
C8 C7 1_555 1_555
F6 C8 1_555 1_555
N2 C8 1_555 1_555
C9 N2 1_555 1_555
F7 C9 1_555 1_555
C10 C6 1_555 1_555
F8 C10 1_555 1_555
S1 O1 1_555 1_555
C11 S1 1_555 1_555
H1 C11 1_555 1_555
H2 C11 1_555 1_555
H3 C11 1_555 1_555
C12 S1 1_555 1_555
H4 C12 1_555 1_555
H5 C12 1_555 1_555
H6 C12 1_555 1_555
C4 C5 1_555 1_555
C9 C10 1_555 1_555

#END
