
#######################################################################
#
#                 Cambridge Crystallographic Data Centre
#                                CCDC 
#
#######################################################################
#
# If this CIF has been generated from an entry in the Cambridge 
# Structural Database, then it will include bibliographic, chemical, 
# crystal, experimental, refinement or atomic coordinate data resulting 
# from the CCDC's data processing and validation procedures.
#
#######################################################################

data_APIQAT
_chemical_formula_moiety         'C10 F8 N2 Te1,C2 H6 O1 S1'
_chemical_name_systematic        
'bis(tetrafluoropyridin-4-yl)telluride dimethyl sulfoxide solvate'
_symmetry_cell_setting           monoclinic
_symmetry_space_group_name_H-M   'P 21/c'
_symmetry_Int_Tables_number      14
_space_group_name_Hall           '-P 2ybc'
loop_
_symmetry_equiv_pos_site_id
_symmetry_equiv_pos_as_xyz
1 x,y,z
2 -x,1/2+y,1/2-z
3 -x,-y,-z
4 x,1/2-y,1/2+z
_cell_length_a                   9.6911(8)
_cell_length_b                   17.783(2)
_cell_length_c                   9.2819(7)
_cell_angle_alpha                90
_cell_angle_beta                 98.520(6)
_cell_angle_gamma                90
_cell_volume                     1581.96
_exptl_crystal_colour            colorless
_cell_formula_units_Z            4
loop_
_atom_site_label
_atom_site_type_symbol
_atom_site_fract_x
_atom_site_fract_y
_atom_site_fract_z
Te1 Te 0.31892(3) -0.192420(14) 0.48772(3)
C1 C 0.2115(4) -0.1022(2) 0.5751(4)
C2 C 0.2578(4) -0.0286(2) 0.5709(5)
F1 F 0.3720(3) -0.01256(16) 0.5116(4)
C3 C 0.1869(5) 0.0288(2) 0.6241(6)
F2 F 0.2329(3) 0.09948(17) 0.6194(5)
N1 N 0.0695(4) 0.0198(2) 0.6797(4)
C4 C 0.0244(4) -0.0493(3) 0.6830(5)
F3 F -0.0986(3) -0.05793(18) 0.7321(3)
C5 C 0.0898(4) -0.1113(2) 0.6350(4)
F4 F 0.0319(3) -0.17929(15) 0.6433(4)
C6 C 0.2274(4) -0.1537(2) 0.2777(4)
C7 C 0.3025(4) -0.1187(2) 0.1819(5)
F5 F 0.4411(3) -0.10640(16) 0.2160(3)
C8 C 0.2367(5) -0.0934(2) 0.0488(4)
F6 F 0.3087(3) -0.05733(18) -0.0418(3)
N2 N 0.1016(4) -0.1028(2) 0.0034(4)
C9 C 0.0308(5) -0.1371(3) 0.0928(5)
F7 F -0.1061(3) -0.1461(2) 0.0465(3)
C10 C 0.0864(4) -0.1630(2) 0.2283(5)
F8 F 0.0025(3) -0.19487(14) 0.3130(3)
S1 S 0.56815(12) -0.18506(7) 0.85867(13)
O1 O 0.4215(3) -0.20640(18) 0.7903(3)
C11 C 0.5923(6) -0.0894(3) 0.8110(8)
C12 C 0.6839(6) -0.2252(4) 0.7473(8)
H1 H 0.666(7) -0.279(5) 0.754(8)
H2 H 0.749(11) -0.219(6) 0.801(12)
H3 H 0.647(6) -0.201(3) 0.641(7)
H4 H 0.575(6) -0.084(4) 0.691(7)
H5 H 0.695(7) -0.083(4) 0.855(7)
H6 H 0.527(7) -0.057(4) 0.852(7)
loop_
_geom_bond_atom_site_label_1
_geom_bond_atom_site_label_2
_geom_bond_site_symmetry_1
_geom_bond_site_symmetry_2
Te1 C1 1_555 1_555
C1 C2 1_555 1_555
C2 F1 1_555 1_555
C3 C2 1_555 1_555
F2 C3 1_555 1_555
N1 C3 1_555 1_555
C4 N1 1_555 1_555
F3 C4 1_555 1_555
C5 C1 1_555 1_555
F4 C5 1_555 1_555
C6 Te1 1_555 1_555
C7 C6 1_555 1_555
F5 C7 1_555 1_555
C8 C7 1_555 1_555
F6 C8 1_555 1_555
N2 C8 1_555 1_555
C9 N2 1_555 1_555
F7 C9 1_555 1_555
C10 C6 1_555 1_555
F8 C10 1_555 1_555
S1 O1 1_555 1_555
C11 S1 1_555 1_555
C12 S1 1_555 1_555
H1 C12 1_555 1_555
H2 C12 1_555 1_555
H3 C12 1_555 1_555
H4 C11 1_555 1_555
H5 C11 1_555 1_555
H6 C11 1_555 1_555
C4 C5 1_555 1_555
C9 C10 1_555 1_555

#END
