
#######################################################################
#
#                 Cambridge Crystallographic Data Centre
#                                CCDC 
#
#######################################################################
#
# If this CIF has been generated from an entry in the Cambridge 
# Structural Database, then it will include bibliographic, chemical, 
# crystal, experimental, refinement or atomic coordinate data resulting 
# from the CCDC's data processing and validation procedures.
#
#######################################################################

data_APITUQ
_chemical_formula_moiety         'C2 H6 N5 1+,C1 H2 N5 O1 1-'
_chemical_name_systematic        
'4,5-diamino-4H-1,2,4-triazol-1-ium 4-amino-5-oxo-4,5-dihydrotetrazol-1-ide'
_symmetry_cell_setting           triclinic
_symmetry_space_group_name_H-M   'P -1'
_symmetry_Int_Tables_number      2
_space_group_name_Hall           '-P 1'
loop_
_symmetry_equiv_pos_site_id
_symmetry_equiv_pos_as_xyz
1 x,y,z
2 -x,-y,-z
_cell_length_a                   6.0700(6)
_cell_length_b                   7.1682(7)
_cell_length_c                   10.6018(9)
_cell_angle_alpha                76.8520(10)
_cell_angle_beta                 88.343(2)
_cell_angle_gamma                65.4060(10)
_cell_volume                     407.323
_cell_formula_units_Z            2
loop_
_atom_site_label
_atom_site_type_symbol
_atom_site_fract_x
_atom_site_fract_y
_atom_site_fract_z
N1 N 0.0691(6) 0.2306(5) 0.4749(3)
N2 N -0.1566(6) 0.2958(6) 0.5112(3)
N3 N -0.2866(6) 0.2951(6) 0.4168(3)
N4 N -0.1487(6) 0.2309(6) 0.3184(3)
N5 N 0.2571(6) 0.2122(6) 0.5574(3)
H1 H 0.3385 0.2811 0.5131
H2 H 0.3572 0.0765 0.5860
O1 O 0.2716(5) 0.1217(5) 0.2974(3)
C1 C 0.0808(7) 0.1874(6) 0.3558(3)
N6 N 0.1764(6) 0.2645(6) 0.9558(3)
N7 N 0.3470(6) 0.2428(5) 1.0496(3)
H3 H 0.3253 0.2260 1.1312
N8 N 0.5050(6) 0.2778(5) 0.8699(3)
N9 N 0.6776(6) 0.2932(6) 0.7830(3)
H4 H 0.6099 0.4134 0.7224
H5 H 0.7279 0.1846 0.7456
N10 N 0.7373(6) 0.2408(6) 1.0559(3)
H6 H 0.7486 0.2266 1.1385
H7 H 0.8541 0.2484 1.0103
C2 C 0.5442(7) 0.2509(6) 1.0001(3)
C3 C 0.2798(7) 0.2841(7) 0.8498(4)
H8 H 0.2103 0.3007 0.7687
loop_
_geom_bond_atom_site_label_1
_geom_bond_atom_site_label_2
_geom_bond_site_symmetry_1
_geom_bond_site_symmetry_2
N1 N2 1_555 1_555
N2 N3 1_555 1_555
N3 N4 1_555 1_555
N4 C1 1_555 1_555
N5 N1 1_555 1_555
H1 N5 1_555 1_555
H2 N5 1_555 1_555
O1 C1 1_555 1_555
C1 N1 1_555 1_555
N6 N7 1_555 1_555
N7 H3 1_555 1_555
N8 N9 1_555 1_555
N9 H4 1_555 1_555
H5 N9 1_555 1_555
N10 H6 1_555 1_555
H7 N10 1_555 1_555
C2 N7 1_555 1_555
C3 N6 1_555 1_555
H8 C3 1_555 1_555
N8 C2 1_555 1_555
N8 C3 1_555 1_555
N10 C2 1_555 1_555

#END
