
#######################################################################
#
#                 Cambridge Crystallographic Data Centre
#                                CCDC 
#
#######################################################################
#
# If this CIF has been generated from an entry in the Cambridge 
# Structural Database, then it will include bibliographic, chemical, 
# crystal, experimental, refinement or atomic coordinate data resulting 
# from the CCDC's data processing and validation procedures.
#
#######################################################################

data_APIVEC
_chemical_name_common            
'triaminoguanidinium 4-amino-5-oxo-4,5-dihydrotetrazol-1-ide'
_chemical_formula_moiety         'C1 H9 N6 1+,C1 H2 N5 O1 1-'
_chemical_name_systematic        
'(dihydrazinomethylene)hydrazinium 4-amino-5-oxo-4,5-dihydrotetrazol-1-ide'
_symmetry_cell_setting           orthorhombic
_symmetry_space_group_name_H-M   'P b c a'
_symmetry_Int_Tables_number      61
_space_group_name_Hall           '-P 2ac 2ab'
loop_
_symmetry_equiv_pos_site_id
_symmetry_equiv_pos_as_xyz
1 x,y,z
2 1/2-x,-y,1/2+z
3 -x,1/2+y,1/2-z
4 1/2+x,1/2-y,-z
5 -x,-y,-z
6 1/2+x,y,1/2-z
7 x,1/2-y,1/2+z
8 1/2-x,1/2+y,z
_cell_length_a                   12.8237(6)
_cell_length_b                   6.7049(3)
_cell_length_c                   20.2018(10)
_cell_angle_alpha                90
_cell_angle_beta                 90
_cell_angle_gamma                90
_cell_volume                     1736.98
_cell_formula_units_Z            8
loop_
_atom_site_label
_atom_site_type_symbol
_atom_site_fract_x
_atom_site_fract_y
_atom_site_fract_z
C1 C 0.08796(9) 0.2819(2) 0.61832(6)
H1 H 0.1429(16) -0.063(3) 0.6779(10)
H2 H 0.0378(18) -0.037(3) 0.6877(10)
N1 N 0.10774(9) 0.20278(18) 0.67886(5)
N2 N 0.09702(14) 0.0085(2) 0.70141(7)
N3 N 0.13703(10) 0.3476(2) 0.72154(6)
N4 N 0.10688(10) 0.47694(18) 0.62378(6)
N5 N 0.13650(11) 0.5098(2) 0.68744(7)
O1 O 0.05702(7) 0.18279(15) 0.56897(4)
C2 C 0.74393(9) 0.24562(16) 0.58266(6)
H3 H 0.6414(14) 0.234(3) 0.5155(10)
H4 H 0.8439(13) 0.087(3) 0.4608(9)
H5 H 0.8391(13) 0.307(3) 0.4537(9)
H6 H 0.8905(13) 0.229(2) 0.5611(8)
H7 H 0.5179(15) 0.182(3) 0.5973(9)
H8 H 0.5323(15) 0.392(3) 0.5813(9)
H9 H 0.7015(12) 0.289(2) 0.6710(7)
H10 H 0.8531(15) 0.181(3) 0.7082(12)
H11 H 0.8640(15) 0.390(3) 0.6934(10)
N6 N 0.80991(9) 0.1981(2) 0.47577(5)
N7 N 0.56438(9) 0.2856(2) 0.59879(6)
N8 N 0.75520(9) 0.27199(18) 0.64737(5)
N9 N 0.64913(8) 0.23955(18) 0.55686(6)
N10 N 0.82691(8) 0.22266(18) 0.54437(5)
N11 N 0.85611(9) 0.2705(2) 0.67439(6)
loop_
_geom_bond_atom_site_label_1
_geom_bond_atom_site_label_2
_geom_bond_site_symmetry_1
_geom_bond_site_symmetry_2
C1 N1 1_555 1_555
H1 N2 1_555 1_555
H2 N2 1_555 1_555
N1 N2 1_555 1_555
N3 N1 1_555 1_555
N4 C1 1_555 1_555
N5 N3 1_555 1_555
O1 C1 1_555 1_555
C2 N8 1_555 1_555
H3 N9 1_555 1_555
H4 N6 1_555 1_555
H5 N6 1_555 1_555
H6 N10 1_555 1_555
H7 N7 1_555 1_555
H8 N7 1_555 1_555
H9 N8 1_555 1_555
H10 N11 1_555 1_555
H11 N11 1_555 1_555
N6 N10 1_555 1_555
N7 N9 1_555 1_555
N8 N11 1_555 1_555
N9 C2 1_555 1_555
N10 C2 1_555 1_555
N4 N5 1_555 1_555

#END
