
#######################################################################
#
#                 Cambridge Crystallographic Data Centre
#                                CCDC 
#
#######################################################################
#
# If this CIF has been generated from an entry in the Cambridge 
# Structural Database, then it will include bibliographic, chemical, 
# crystal, experimental, refinement or atomic coordinate data resulting 
# from the CCDC's data processing and validation procedures.
#
#######################################################################

data_APIXAA
_chemical_formula_moiety         'C20 H14 N6 O4'
_chemical_name_systematic        
1,7-bis(4-methoxyphenyl)[1,2,3]triazolo[4,5-f]benzotriazole-4,8(1H,7H)-dione
_symmetry_cell_setting           triclinic
_symmetry_space_group_name_H-M   'P -1'
_symmetry_Int_Tables_number      2
_space_group_name_Hall           '-P 1'
loop_
_symmetry_equiv_pos_site_id
_symmetry_equiv_pos_as_xyz
1 x,y,z
2 -x,-y,-z
_cell_length_a                   17.0052(7)
_cell_length_b                   17.3045(8)
_cell_length_c                   19.3461(8)
_cell_angle_alpha                74.882(4)
_cell_angle_beta                 64.370(4)
_cell_angle_gamma                64.823(4)
_cell_volume                     4624.52
_exptl_crystal_colour            brown
_exptl_crystal_description       parallelepiped
_cell_formula_units_Z            10
loop_
_atom_site_label
_atom_site_type_symbol
_atom_site_fract_x
_atom_site_fract_y
_atom_site_fract_z
O1 O 0.44245(9) 0.13877(9) 0.64525(7)
O2 O 0.61531(11) 0.03409(10) 0.35303(8)
O3 O 0.68330(10) 0.06333(10) 0.83454(8)
O4 O 0.03297(10) 0.33808(10) 0.77559(8)
N1 N 0.64365(11) 0.01660(10) 0.58013(9)
N2 N 0.72224(12) -0.03745(12) 0.53076(10)
N3 N 0.70790(12) -0.03063(12) 0.46736(10)
N4 N 0.42468(12) 0.16829(12) 0.40740(10)
N5 N 0.34536(12) 0.21667(12) 0.45501(10)
N6 N 0.35311(11) 0.20359(11) 0.52488(9)
C1 C 0.71260(17) -0.00753(17) 0.88691(13)
H1 H 0.7193 0.0130 0.9260
H2 H 0.7728 -0.0492 0.8586
H3 H 0.6658 -0.0349 0.9120
C2 C 0.67017(13) 0.04674(13) 0.77600(11)
C3 C 0.68210(13) -0.03353(13) 0.76369(11)
H4 H 0.6987 -0.0819 0.7984
C4 C 0.66973(13) -0.04295(13) 0.70035(11)
H5 H 0.6774 -0.0977 0.6916
C5 C 0.64613(13) 0.02800(13) 0.65030(11)
C6 C 0.63179(14) 0.10928(13) 0.66279(12)
H6 H 0.6142 0.1576 0.6283
C7 C 0.64344(14) 0.11861(13) 0.72596(12)
H7 H 0.6333 0.1738 0.7356
C8 C 0.57909(13) 0.05819(12) 0.54722(11)
C9 C 0.62105(13) 0.02842(13) 0.47558(11)
C10 C 0.57791(14) 0.05949(13) 0.41675(11)
C11 C 0.48339(14) 0.12399(13) 0.44648(11)
C12 C 0.43858(13) 0.14655(12) 0.52114(10)
C13 C 0.48140(13) 0.11778(12) 0.58026(11)
C14 C 0.27252(13) 0.24143(13) 0.58992(11)
C15 C 0.22833(14) 0.32937(14) 0.58872(12)
H8 H 0.2532 0.3657 0.5464
C16 C 0.14684(14) 0.36415(14) 0.65026(12)
H9 H 0.1150 0.4245 0.6498
C17 C 0.11230(14) 0.31068(14) 0.71205(11)
C18 C 0.15911(14) 0.22233(14) 0.71283(12)
H10 H 0.1358 0.1859 0.7559
C19 C 0.23890(14) 0.18722(13) 0.65176(11)
H11 H 0.2704 0.1268 0.6520
C20 C -0.03368(15) 0.42177(15) 0.76746(14)
H12 H -0.0867 0.4340 0.8165
H13 H -0.0558 0.4242 0.7275
H14 H -0.0042 0.4645 0.7528
O5 O 0.38497(9) 0.22216(9) 0.24087(8)
O6 O 0.60718(10) 0.35780(10) 0.27114(8)
O7 O 0.52609(10) -0.07746(9) 0.07643(8)
O8 O -0.04245(10) 0.40080(11) 0.36724(10)
N7 N 0.59527(11) 0.14066(11) 0.19033(9)
N8 N 0.68482(11) 0.12809(12) 0.17853(10)
N9 N 0.68279(12) 0.19226(12) 0.20440(10)
N10 N 0.40044(13) 0.43545(13) 0.33322(11)
N11 N 0.31258(13) 0.44835(13) 0.35012(11)
N12 N 0.30999(11) 0.38601(11) 0.32073(9)
C21 C 0.55095(17) -0.16728(13) 0.09998(13)
H15 H 0.5325 -0.1937 0.0733
H16 H 0.5187 -0.1761 0.1557
H17 H 0.6187 -0.1936 0.0871
C22 C 0.54612(13) -0.02891(13) 0.10765(11)
C23 C 0.57325(14) -0.05600(13) 0.17057(11)
H18 H 0.5810 -0.1127 0.1947
C24 C 0.58909(13) 0.00046(13) 0.19814(11)
H19 H 0.6077 -0.0174 0.2413
C25 C 0.57762(13) 0.08217(12) 0.16260(11)
C26 C 0.55113(14) 0.10973(13) 0.09943(11)
H20 H 0.5441 0.1663 0.0752
C27 C 0.53511(14) 0.05429(13) 0.07220(11)
H21 H 0.5165 0.0726 0.0291
C28 C 0.53618(13) 0.21360(12) 0.22436(10)
C29 C 0.59253(13) 0.24577(13) 0.23257(11)
C30 C 0.55764(14) 0.32697(14) 0.26579(11)
C31 C 0.45472(14) 0.36549(14) 0.29281(11)
C32 C 0.39822(13) 0.33284(13) 0.28447(10)
C33 C 0.43245(13) 0.25255(12) 0.24894(10)
C34 C 0.21943(13) 0.38690(13) 0.33424(11)
C35 C 0.14892(15) 0.40784(15) 0.40445(12)
H22 H 0.1614 0.4188 0.4436
C36 C 0.05952(15) 0.41307(15) 0.41845(13)
H23 H 0.0105 0.4284 0.4666
C37 C 0.04284(14) 0.39570(13) 0.36138(12)
C38 C 0.11491(14) 0.37258(14) 0.29128(12)
H24 H 0.1033 0.3588 0.2531
C39 C 0.20305(13) 0.36941(13) 0.27643(11)
H25 H 0.2516 0.3556 0.2278
C40 C -0.11832(15) 0.41845(17) 0.43982(15)
H26 H -0.1747 0.4202 0.4361
H27 H -0.1296 0.4739 0.4535
H28 H -0.1026 0.3733 0.4796
O9 O 0.70176(9) 0.43838(9) 0.33165(8)
O10 O 0.33934(10) 0.46907(11) 0.51765(9)
O11 O 1.03118(10) 0.15692(10) 0.33193(9)
O12 O 0.79450(11) 0.71739(10) 0.08868(8)
N13 N 0.64359(11) 0.29165(10) 0.43478(9)
N14 N 0.58732(12) 0.24865(12) 0.48638(10)
N15 N 0.50007(12) 0.30259(12) 0.50540(10)
N16 N 0.39075(12) 0.61438(11) 0.41198(10)
N17 N 0.44260(12) 0.65649(11) 0.35952(11)
N18 N 0.53304(11) 0.60088(10) 0.33497(9)
C41 C 1.07594(15) 0.16202(17) 0.37787(15)
H29 H 1.1439 0.1383 0.3515
H30 H 1.0577 0.1292 0.4279
H31 H 1.0568 0.2221 0.3856
C42 C 0.93553(14) 0.18791(13) 0.36132(12)
C43 C 0.88251(14) 0.21434(15) 0.43404(12)
H32 H 0.9118 0.2106 0.4675
C44 C 0.78586(14) 0.24654(14) 0.45810(12)
H33 H 0.7486 0.2649 0.5083
C45 C 0.74431(13) 0.25180(12) 0.40920(11)
C46 C 0.79652(15) 0.22379(15) 0.33713(12)
H34 H 0.7669 0.2270 0.3041
C47 C 0.89230(15) 0.19095(16) 0.31349(13)
H35 H 0.9292 0.1702 0.2641
C48 C 0.59133(13) 0.37356(12) 0.42104(10)
C49 C 0.50026(13) 0.37997(13) 0.46625(11)
C50 C 0.41854(13) 0.46086(14) 0.47320(11)
C51 C 0.44716(13) 0.53167(13) 0.42119(11)
C52 C 0.53817(13) 0.52244(12) 0.37296(11)
C53 C 0.62156(13) 0.44399(12) 0.36895(10)
C54 C 0.60389(14) 0.62927(12) 0.27326(12)
C55 C 0.63514(14) 0.68323(13) 0.28704(12)
H36 H 0.6127 0.6993 0.3374
C56 C 0.70026(14) 0.71399(13) 0.22592(12)
H37 H 0.7223 0.7514 0.2344
C57 C 0.73261(15) 0.68977(13) 0.15279(12)
C58 C 0.70087(16) 0.63463(14) 0.14025(12)
H38 H 0.7239 0.6177 0.0901
C59 C 0.63616(15) 0.60451(13) 0.20025(12)
H39 H 0.6139 0.5673 0.1917
C60 C 0.82395(16) 0.78015(15) 0.09621(14)
H40 H 0.8679 0.7942 0.0462
H41 H 0.8546 0.7570 0.1338
H42 H 0.7694 0.8321 0.1137
O13 O 0.25969(10) 0.52967(9) 0.15990(8)
O14 O 0.49516(10) 0.65965(10) -0.09485(8)
O15 O 0.17864(10) 0.22464(10) 0.13216(10)
O16 O 0.01943(10) 0.74494(10) 0.44314(8)
N19 N 0.35029(11) 0.46611(11) 0.00089(9)
N20 N 0.40617(13) 0.45854(12) -0.07529(10)
N21 N 0.44466(13) 0.51717(12) -0.09895(10)
N22 N 0.40722(12) 0.72712(11) 0.05797(10)
N23 N 0.35231(12) 0.73978(12) 0.12997(10)
N24 N 0.30616(11) 0.68338(10) 0.15678(9)
C61 C 0.08410(16) 0.24460(18) 0.14237(16)
H43 H 0.0678 0.1932 0.1642
H44 H 0.0768 0.2647 0.0925
H45 H 0.0428 0.2897 0.1775
C62 C 0.21429(14) 0.28858(14) 0.10204(12)
C63 C 0.31002(15) 0.26228(14) 0.08325(13)
H46 H 0.3451 0.2035 0.0924
C64 C 0.35431(15) 0.32078(14) 0.05146(13)
H47 H 0.4199 0.3025 0.0376
C65 C 0.30221(14) 0.40642(13) 0.03987(11)
C66 C 0.20716(14) 0.43374(14) 0.05926(12)
H48 H 0.1722 0.4929 0.0516
C67 C 0.16246(14) 0.37473(14) 0.08994(12)
H49 H 0.0971 0.3930 0.1026
C68 C 0.35340(13) 0.53053(12) 0.02534(11)
C69 C 0.41347(13) 0.56253(13) -0.03857(11)
C70 C 0.44142(13) 0.63193(13) -0.03847(11)
C71 C 0.39661(13) 0.66388(13) 0.03788(11)
C72 C 0.33305(13) 0.63419(12) 0.10050(11)
C73 C 0.30754(13) 0.56150(13) 0.10325(11)
C74 C 0.23208(14) 0.69286(12) 0.23121(11)
C75 C 0.25142(15) 0.68703(14) 0.29547(12)
H50 H 0.3139 0.6714 0.2913
C76 C 0.17869(15) 0.70423(15) 0.36550(12)
H51 H 0.1911 0.7007 0.4098
C77 C 0.08709(14) 0.72680(13) 0.37159(11)
C78 C 0.06864(14) 0.73083(13) 0.30720(11)
H52 H 0.0064 0.7449 0.3114
C79 C 0.14174(14) 0.71422(13) 0.23677(11)
H53 H 0.1297 0.7175 0.1923
C80 C -0.07579(15) 0.76898(16) 0.45124(13)
H54 H -0.1170 0.7803 0.5047
H55 H -0.0829 0.7222 0.4376
H56 H -0.0924 0.8208 0.4170
O17 O 0.93946(11) 0.14376(9) 0.14153(8)
O18 O 0.83829(11) 0.01055(11) -0.02272(9)
O19 O 0.92319(10) 0.47904(10) 0.11968(9)
O20 O 1.03219(11) -0.03963(11) 0.41395(8)
N25 N 0.85416(11) 0.24780(11) 0.02233(9)
N26 N 0.81955(12) 0.26667(12) -0.03411(10)
N27 N 0.81512(12) 0.19606(13) -0.04341(10)
N28 N 0.92463(12) -0.09536(12) 0.09231(10)
N29 N 0.95874(13) -0.11487(12) 0.14689(10)
N30 N 0.95670(11) -0.04138(11) 0.16195(9)
C81 C 0.88191(17) 0.49419(16) 0.19934(14)
H57 H 0.9042 0.5341 0.2068
H58 H 0.8996 0.4398 0.2306
H59 H 0.8137 0.5190 0.2152
C82 C 0.90005(14) 0.42443(13) 0.09839(12)
C83 C 0.95092(14) 0.40265(14) 0.02276(12)
H60 H 0.9967 0.4269 -0.0108
C84 C 0.93459(14) 0.34589(14) -0.00314(12)
H61 H 0.9694 0.3302 -0.0544
C85 C 0.86685(13) 0.31214(13) 0.04654(11)
C86 C 0.81512(15) 0.33470(14) 0.12103(12)
H62 H 0.7683 0.3115 0.1540
C87 C 0.83152(14) 0.39103(14) 0.14755(12)
H63 H 0.7963 0.4067 0.1988
C88 C 0.87133(13) 0.16460(13) 0.04930(11)
C89 C 0.84632(13) 0.13208(14) 0.00696(11)
C90 C 0.85818(14) 0.04110(14) 0.01455(11)
C91 C 0.90044(13) -0.00941(14) 0.07285(11)
C92 C 0.92118(13) 0.02560(13) 0.11607(11)
C93 C 0.91274(13) 0.11560(13) 0.10818(11)
C94 C 0.98009(14) -0.04152(13) 0.22576(11)
C95 C 1.07157(15) -0.06291(13) 0.21629(12)
H64 H 1.1202 -0.0775 0.1678
C96 C 1.09214(15) -0.06301(14) 0.27837(12)
H65 H 1.1551 -0.0776 0.2726
C97 C 1.02051(15) -0.04173(14) 0.34872(12)
C98 C 0.92866(16) -0.02139(16) 0.35757(13)
H66 H 0.8799 -0.0077 0.4062
C99 C 0.90785(15) -0.02106(15) 0.29581(12)
H67 H 0.8451 -0.0070 0.3014
C100 C 1.12544(16) -0.05951(16) 0.40769(14)
H68 H 1.1250 -0.0559 0.4576
H69 H 1.1513 -0.0185 0.3690
H70 H 1.1640 -0.1177 0.3922
loop_
_geom_bond_atom_site_label_1
_geom_bond_atom_site_label_2
_geom_bond_site_symmetry_1
_geom_bond_site_symmetry_2
O1 C13 1_555 1_555
O2 C10 1_555 1_555
O3 C1 1_555 1_555
O4 C17 1_555 1_555
N1 N2 1_555 1_555
N2 N3 1_555 1_555
N3 C9 1_555 1_555
N4 N5 1_555 1_555
N5 N6 1_555 1_555
N6 C12 1_555 1_555
C1 H1 1_555 1_555
H2 C1 1_555 1_555
H3 C1 1_555 1_555
C2 O3 1_555 1_555
C3 C2 1_555 1_555
H4 C3 1_555 1_555
C4 C3 1_555 1_555
H5 C4 1_555 1_555
C5 N1 1_555 1_555
C6 C5 1_555 1_555
H6 C6 1_555 1_555
C7 C2 1_555 1_555
H7 C7 1_555 1_555
C8 N1 1_555 1_555
C9 C8 1_555 1_555
C10 C9 1_555 1_555
C11 N4 1_555 1_555
C12 C11 1_555 1_555
C13 C8 1_555 1_555
C14 N6 1_555 1_555
C15 C14 1_555 1_555
H8 C15 1_555 1_555
C16 C15 1_555 1_555
H9 C16 1_555 1_555
C17 C16 1_555 1_555
C18 C17 1_555 1_555
H10 C18 1_555 1_555
C19 C14 1_555 1_555
H11 C19 1_555 1_555
C20 O4 1_555 1_555
H12 C20 1_555 1_555
H13 C20 1_555 1_555
H14 C20 1_555 1_555
O5 C33 1_555 1_555
O6 C30 1_555 1_555
O7 C21 1_555 1_555
O8 C37 1_555 1_555
N7 N8 1_555 1_555
N8 N9 1_555 1_555
N9 C29 1_555 1_555
N10 N11 1_555 1_555
N11 N12 1_555 1_555
N12 C32 1_555 1_555
C21 H15 1_555 1_555
H16 C21 1_555 1_555
H17 C21 1_555 1_555
C22 O7 1_555 1_555
C23 C22 1_555 1_555
H18 C23 1_555 1_555
C24 C23 1_555 1_555
H19 C24 1_555 1_555
C25 N7 1_555 1_555
C26 C25 1_555 1_555
H20 C26 1_555 1_555
C27 C22 1_555 1_555
H21 C27 1_555 1_555
C28 N7 1_555 1_555
C29 C28 1_555 1_555
C30 C29 1_555 1_555
C31 N10 1_555 1_555
C32 C31 1_555 1_555
C33 C28 1_555 1_555
C34 N12 1_555 1_555
C35 C34 1_555 1_555
H22 C35 1_555 1_555
C36 C35 1_555 1_555
H23 C36 1_555 1_555
C37 C36 1_555 1_555
C38 C37 1_555 1_555
H24 C38 1_555 1_555
C39 C34 1_555 1_555
H25 C39 1_555 1_555
C40 O8 1_555 1_555
H26 C40 1_555 1_555
H27 C40 1_555 1_555
H28 C40 1_555 1_555
O9 C53 1_555 1_555
O10 C50 1_555 1_555
O11 C41 1_555 1_555
O12 C57 1_555 1_555
N13 N14 1_555 1_555
N14 N15 1_555 1_555
N15 C49 1_555 1_555
N16 N17 1_555 1_555
N17 N18 1_555 1_555
N18 C52 1_555 1_555
C41 H29 1_555 1_555
H30 C41 1_555 1_555
H31 C41 1_555 1_555
C42 O11 1_555 1_555
C43 C42 1_555 1_555
H32 C43 1_555 1_555
C44 C43 1_555 1_555
H33 C44 1_555 1_555
C45 N13 1_555 1_555
C46 C45 1_555 1_555
H34 C46 1_555 1_555
C47 C42 1_555 1_555
H35 C47 1_555 1_555
C48 N13 1_555 1_555
C49 C48 1_555 1_555
C50 C49 1_555 1_555
C51 N16 1_555 1_555
C52 C51 1_555 1_555
C53 C48 1_555 1_555
C54 N18 1_555 1_555
C55 C54 1_555 1_555
H36 C55 1_555 1_555
C56 C55 1_555 1_555
H37 C56 1_555 1_555
C57 C56 1_555 1_555
C58 C57 1_555 1_555
H38 C58 1_555 1_555
C59 C54 1_555 1_555
H39 C59 1_555 1_555
C60 O12 1_555 1_555
H40 C60 1_555 1_555
H41 C60 1_555 1_555
H42 C60 1_555 1_555
O13 C73 1_555 1_555
O14 C70 1_555 1_555
O15 C61 1_555 1_555
O16 C77 1_555 1_555
N19 N20 1_555 1_555
N20 N21 1_555 1_555
N21 C69 1_555 1_555
N22 N23 1_555 1_555
N23 N24 1_555 1_555
N24 C72 1_555 1_555
C61 H43 1_555 1_555
H44 C61 1_555 1_555
H45 C61 1_555 1_555
C62 O15 1_555 1_555
C63 C62 1_555 1_555
H46 C63 1_555 1_555
C64 C63 1_555 1_555
H47 C64 1_555 1_555
C65 N19 1_555 1_555
C66 C65 1_555 1_555
H48 C66 1_555 1_555
C67 C62 1_555 1_555
H49 C67 1_555 1_555
C68 N19 1_555 1_555
C69 C68 1_555 1_555
C70 C69 1_555 1_555
C71 N22 1_555 1_555
C72 C71 1_555 1_555
C73 C68 1_555 1_555
C74 N24 1_555 1_555
C75 C74 1_555 1_555
H50 C75 1_555 1_555
C76 C75 1_555 1_555
H51 C76 1_555 1_555
C77 C76 1_555 1_555
C78 C77 1_555 1_555
H52 C78 1_555 1_555
C79 C74 1_555 1_555
H53 C79 1_555 1_555
C80 O16 1_555 1_555
H54 C80 1_555 1_555
H55 C80 1_555 1_555
H56 C80 1_555 1_555
O17 C93 1_555 1_555
O18 C90 1_555 1_555
O19 C81 1_555 1_555
O20 C97 1_555 1_555
N25 N26 1_555 1_555
N26 N27 1_555 1_555
N27 C89 1_555 1_555
N28 N29 1_555 1_555
N29 N30 1_555 1_555
N30 C92 1_555 1_555
C81 H57 1_555 1_555
H58 C81 1_555 1_555
H59 C81 1_555 1_555
C82 O19 1_555 1_555
C83 C82 1_555 1_555
H60 C83 1_555 1_555
C84 C83 1_555 1_555
H61 C84 1_555 1_555
C85 N25 1_555 1_555
C86 C85 1_555 1_555
H62 C86 1_555 1_555
C87 C82 1_555 1_555
H63 C87 1_555 1_555
C88 N25 1_555 1_555
C89 C88 1_555 1_555
C90 C89 1_555 1_555
C91 N28 1_555 1_555
C92 C91 1_555 1_555
C93 C88 1_555 1_555
C94 N30 1_555 1_555
C95 C94 1_555 1_555
H64 C95 1_555 1_555
C96 C95 1_555 1_555
H65 C96 1_555 1_555
C97 C96 1_555 1_555
C98 C97 1_555 1_555
H66 C98 1_555 1_555
C99 C94 1_555 1_555
H67 C99 1_555 1_555
C100 O20 1_555 1_555
H68 C100 1_555 1_555
H69 C100 1_555 1_555
H70 C100 1_555 1_555
C4 C5 1_555 1_555
C6 C7 1_555 1_555
C10 C11 1_555 1_555
C12 C13 1_555 1_555
C18 C19 1_555 1_555
C24 C25 1_555 1_555
C26 C27 1_555 1_555
C30 C31 1_555 1_555
C32 C33 1_555 1_555
C38 C39 1_555 1_555
C44 C45 1_555 1_555
C46 C47 1_555 1_555
C50 C51 1_555 1_555
C52 C53 1_555 1_555
C58 C59 1_555 1_555
C64 C65 1_555 1_555
C66 C67 1_555 1_555
C70 C71 1_555 1_555
C72 C73 1_555 1_555
C78 C79 1_555 1_555
C84 C85 1_555 1_555
C86 C87 1_555 1_555
C90 C91 1_555 1_555
C92 C93 1_555 1_555
C98 C99 1_555 1_555

#END
