
#######################################################################
#
#                 Cambridge Crystallographic Data Centre
#                                CCDC 
#
#######################################################################
#
# If this CIF has been generated from an entry in the Cambridge 
# Structural Database, then it will include bibliographic, chemical, 
# crystal, experimental, refinement or atomic coordinate data resulting 
# from the CCDC's data processing and validation procedures.
#
#######################################################################

data_APOGET
_chemical_formula_moiety         'C12 H13 F1 O4'
_chemical_name_systematic        
'ethyl 4-(4-fluorophenyl)-2-hydroxy-4-oxobutanoate'
_symmetry_cell_setting           monoclinic
_symmetry_space_group_name_H-M   'P 21'
_symmetry_Int_Tables_number      4
_space_group_name_Hall           'P 2yb'
loop_
_symmetry_equiv_pos_site_id
_symmetry_equiv_pos_as_xyz
1 x,y,z
2 -x,1/2+y,-z
_cell_length_a                   5.059(5)
_cell_length_b                   10.704(12)
_cell_length_c                   11.363(12)
_cell_angle_alpha                90
_cell_angle_beta                 101.62(2)
_cell_angle_gamma                90
_cell_volume                     602.713
_cell_formula_units_Z            2
loop_
_atom_site_label
_atom_site_type_symbol
_atom_site_fract_x
_atom_site_fract_y
_atom_site_fract_z
F1 F 0.3210(9) 0.7545(5) 1.3469(4)
O1 O 0.8529(10) 0.9672(5) 0.9354(5)
O2 O 1.3191(9) 0.7139(4) 0.7944(4)
H1 H 1.4510 0.7447 0.7737
O3 O 0.7179(10) 0.8086(6) 0.6865(4)
O4 O 1.0569(8) 0.9223(4) 0.6455(4)
C1 C 0.7262(14) 0.7087(6) 1.1221(6)
H2 H 0.8162 0.6446 1.0913
C2 C 0.5922(14) 0.6851(7) 1.2142(6)
H3 H 0.5992 0.6058 1.2480
C3 C 0.4501(16) 0.7770(8) 1.2558(6)
C4 C 0.4479(16) 0.8989(7) 1.2129(7)
H4 H 0.3580 0.9619 1.2453
C5 C 0.5812(13) 0.9240(7) 1.1218(6)
H5 H 0.5763 1.0043 1.0902
C6 C 0.7258(12) 0.8294(6) 1.0755(5)
C7 C 0.8602(13) 0.8612(6) 0.9757(6)
C8 C 1.0246(12) 0.7610(6) 0.9244(6)
H6 H 1.1649 0.7293 0.9885
H7 H 0.9068 0.6918 0.8937
C9 C 1.1518(12) 0.8114(6) 0.8254(5)
H8 H 1.2640 0.8838 0.8551
C10 C 0.9492(15) 0.8481(6) 0.7132(6)
C11 C 0.8891(17) 0.9574(10) 0.5287(7)
H9 H 0.7244 0.9976 0.5404
H10 H 0.8410 0.8837 0.4794
C12 C 1.049(2) 1.0447(11) 0.4691(7)
H11 H 0.9617 1.1248 0.4595
H12 H 1.0617 1.0123 0.3917
H13 H 1.2268 1.0535 0.5176
loop_
_geom_bond_atom_site_label_1
_geom_bond_atom_site_label_2
_geom_bond_site_symmetry_1
_geom_bond_site_symmetry_2
F1 C3 1_555 1_555
O1 C7 1_555 1_555
O2 H1 1_555 1_555
O3 C10 1_555 1_555
O4 C10 1_555 1_555
C1 H2 1_555 1_555
C2 C1 1_555 1_555
H3 C2 1_555 1_555
C3 C2 1_555 1_555
C4 C3 1_555 1_555
H4 C4 1_555 1_555
C5 C4 1_555 1_555
H5 C5 1_555 1_555
C6 C1 1_555 1_555
C7 C6 1_555 1_555
C8 C7 1_555 1_555
H6 C8 1_555 1_555
H7 C8 1_555 1_555
C9 O2 1_555 1_555
H8 C9 1_555 1_555
C10 C9 1_555 1_555
C11 O4 1_555 1_555
H9 C11 1_555 1_555
H10 C11 1_555 1_555
C12 C11 1_555 1_555
H11 C12 1_555 1_555
H12 C12 1_555 1_555
H13 C12 1_555 1_555
C5 C6 1_555 1_555
C8 C9 1_555 1_555

#END
