
#######################################################################
#
#                 Cambridge Crystallographic Data Centre
#                                CCDC 
#
#######################################################################
#
# If this CIF has been generated from an entry in the Cambridge 
# Structural Database, then it will include bibliographic, chemical, 
# crystal, experimental, refinement or atomic coordinate data resulting 
# from the CCDC's data processing and validation procedures.
#
#######################################################################

data_APOLUN
_chemical_formula_moiety         'C8 H15 N1 O6'
_chemical_name_systematic        
'Methyl 2-formamido-2-deoxy-\b-D-glucopyranoside'
_symmetry_cell_setting           monoclinic
_symmetry_space_group_name_H-M   'P 21'
_symmetry_Int_Tables_number      4
_space_group_name_Hall           'P 2yb'
loop_
_symmetry_equiv_pos_site_id
_symmetry_equiv_pos_as_xyz
1 x,y,z
2 -x,1/2+y,-z
_cell_length_a                   4.5374(5)
_cell_length_b                   15.8837(16)
_cell_length_c                   6.8993(7)
_cell_angle_alpha                90
_cell_angle_beta                 100.185(4)
_cell_angle_gamma                90
_cell_volume                     489.402
_exptl_crystal_colour            colorless
_exptl_crystal_description       rod
_cell_formula_units_Z            2
loop_
_atom_site_label
_atom_site_type_symbol
_atom_site_fract_x
_atom_site_fract_y
_atom_site_fract_z
N1 N -0.2017(3) 0.71728(7) 0.10020(16)
H1 H -0.3909 0.7196 0.1132
O1 O 0.3423(2) 0.70731(6) 0.39700(14)
O2 O -0.2868(2) 0.54758(6) -0.08114(14)
H2 H -0.4438 0.5190 -0.1120
O3 O -0.3240(2) 0.42177(6) 0.22397(15)
H3 H -0.2765 0.3818 0.1559
O4 O 0.2267(2) 0.57256(6) 0.46455(14)
O5 O 0.1860(2) 0.46548(6) 0.79389(15)
H4 H 0.0392 0.4927 0.8199
O6 O 0.1723(2) 0.78734(7) -0.01196(15)
C1 C 0.1075(3) 0.65022(9) 0.3842(2)
H5 H -0.0455 0.6715 0.4602
C2 C -0.0322(3) 0.64118(9) 0.1663(2)
H6 H 0.1338 0.6357 0.0892
C3 C -0.2326(3) 0.56275(9) 0.1262(2)
H7 H -0.4288 0.5757 0.1666
C4 C -0.0992(3) 0.48537(9) 0.2417(2)
H8 H 0.0778 0.4645 0.1877
C5 C -0.0042(3) 0.51034(9) 0.4576(2)
H9 H -0.1789 0.5354 0.5072
C6 C 0.1248(3) 0.43908(9) 0.5920(2)
H10 H -0.0188 0.3916 0.5775
H11 H 0.3123 0.4190 0.5528
C7 C 0.4591(4) 0.73055(9) 0.5975(2)
H12 H 0.2960 0.7516 0.6602
H13 H 0.6106 0.7747 0.5992
H14 H 0.5503 0.6812 0.6696
C8 C -0.0855(3) 0.78315(9) 0.0214(2)
H15 H -0.2111 0.8308 -0.0118
loop_
_geom_bond_atom_site_label_1
_geom_bond_atom_site_label_2
_geom_bond_site_symmetry_1
_geom_bond_site_symmetry_2
N1 H1 1_555 1_555
O1 C1 1_555 1_555
O2 H2 1_555 1_555
O3 H3 1_555 1_555
O4 C1 1_555 1_555
O5 H4 1_555 1_555
O6 C8 1_555 1_555
C1 H5 1_555 1_555
C2 N1 1_555 1_555
H6 C2 1_555 1_555
C3 O2 1_555 1_555
H7 C3 1_555 1_555
C4 O3 1_555 1_555
H8 C4 1_555 1_555
C5 O4 1_555 1_555
H9 C5 1_555 1_555
C6 O5 1_555 1_555
H10 C6 1_555 1_555
H11 C6 1_555 1_555
C7 O1 1_555 1_555
H12 C7 1_555 1_555
H13 C7 1_555 1_555
H14 C7 1_555 1_555
C8 N1 1_555 1_555
H15 C8 1_555 1_555
C1 C2 1_555 1_555
C2 C3 1_555 1_555
C3 C4 1_555 1_555
C4 C5 1_555 1_555
C5 C6 1_555 1_555

#END
