
#######################################################################
#
#                 Cambridge Crystallographic Data Centre
#                                CCDC 
#
#######################################################################
#
# If this CIF has been generated from an entry in the Cambridge 
# Structural Database, then it will include bibliographic, chemical, 
# crystal, experimental, refinement or atomic coordinate data resulting 
# from the CCDC's data processing and validation procedures.
#
#######################################################################

data_APOMIC
_chemical_formula_moiety         '2(C1 H6 N3 1+),C12 H8 O6 S2 2-,C6 H4 S2'
_chemical_name_systematic        
"bis(Guanidinium) biphenyl-4,4'-disulfonate thieno[3,2-b]thiophene clathrate"
_symmetry_cell_setting           triclinic
_symmetry_space_group_name_H-M   'P -1'
_symmetry_Int_Tables_number      2
_space_group_name_Hall           '-P 1'
loop_
_symmetry_equiv_pos_site_id
_symmetry_equiv_pos_as_xyz
1 x,y,z
2 -x,-y,-z
_cell_length_a                   7.2917(4)
_cell_length_b                   12.1492(7)
_cell_length_c                   15.2108(9)
_cell_angle_alpha                68.059(1)
_cell_angle_beta                 80.634(1)
_cell_angle_gamma                86.118(1)
_cell_volume                     1233.2
_exptl_crystal_colour            colorless
_exptl_crystal_description       block
_cell_formula_units_Z            2
_exptl_crystal_recrystallization_method methanol
loop_
_atom_site_label
_atom_site_type_symbol
_atom_site_fract_x
_atom_site_fract_y
_atom_site_fract_z
C1 C 0.2411(3) 0.71814(19) 0.10088(15)
N1 N 0.3868(3) 0.78024(16) 0.09945(13)
H1 H 0.3715 0.8542 0.0959
H2 H 0.4979 0.7472 0.1021
N2 N 0.0732(3) 0.76701(16) 0.09693(14)
H3 H -0.0229 0.7246 0.1004
H4 H 0.0576 0.8418 0.0908
N3 N 0.2638(3) 0.60538(17) 0.11011(16)
H5 H 0.1675 0.5632 0.1136
H6 H 0.3752 0.5727 0.1127
C2 C 0.2358(3) 0.21964(19) 0.09799(14)
N4 N 0.2599(3) 0.10788(17) 0.10506(15)
H7 H 0.1642 0.0657 0.1078
H8 H 0.3717 0.0757 0.1070
N5 N 0.3806(3) 0.28233(16) 0.09712(13)
H9 H 0.4916 0.2492 0.1012
H10 H 0.3648 0.3567 0.0924
N6 N 0.0672(3) 0.26774(16) 0.09505(14)
H11 H -0.0283 0.2254 0.0978
H12 H 0.0507 0.3420 0.0903
C3 C 0.6596(3) 0.92768(18) 0.25792(14)
C4 C 0.5267(3) 0.97160(19) 0.31285(16)
H13 H 0.4769 1.0491 0.2853
C5 C 0.4666(3) 0.90273(19) 0.40772(16)
H14 H 0.3751 0.9335 0.4447
C6 C 0.5383(3) 0.78845(18) 0.45005(15)
C7 C 0.6710(3) 0.74496(19) 0.39296(15)
H15 H 0.7209 0.6674 0.4201
C8 C 0.7306(3) 0.81317(19) 0.29777(15)
H16 H 0.8193 0.7821 0.2598
C9 C 0.3446(3) 0.57346(18) 0.74219(14)
C10 C 0.3320(3) 0.69695(19) 0.71222(15)
H17 H 0.2795 0.7332 0.7562
C11 C 0.3964(3) 0.76631(18) 0.61785(15)
H18 H 0.3870 0.8503 0.5975
C12 C 0.4753(3) 0.71423(18) 0.55186(15)
C13 C 0.4911(3) 0.59052(19) 0.58503(15)
H19 H 0.5482 0.5537 0.5422
C14 C 0.4255(3) 0.52073(18) 0.67869(15)
H20 H 0.4360 0.4368 0.6995
S1 S 0.73923(7) 1.01585(4) 0.13717(3)
O1 O 0.7192(2) 1.13919(13) 0.13104(11)
O2 O 0.9337(2) 0.98232(13) 0.11812(11)
O3 O 0.6217(2) 0.98924(13) 0.07867(11)
S2 S 0.25588(7) 0.48563(4) 0.86178(3)
O4 O 0.2744(2) 0.36214(13) 0.86835(11)
O5 O 0.3682(2) 0.51189(13) 0.92255(11)
O6 O 0.0610(2) 0.52087(13) 0.87710(11)
S3 S 0.04226(10) 0.50923(7) 0.35939(5)
C15 C 0.1460(3) 0.6324(2) 0.3637(2)
H21 H 0.2090 0.6901 0.3074
C16 C 0.1346(3) 0.6417(2) 0.4427(2)
H22 H 0.1854 0.7045 0.4538
C17 C -0.0292(3) 0.4602(2) 0.48226(17)
S3A S -0.04226(10) 0.49077(7) 0.64061(5)
C15A C -0.1460(3) 0.3676(2) 0.6363(2)
H21A H -0.2090 0.3099 0.6926
C16A C -0.1346(3) 0.3583(2) 0.5573(2)
H22A H -0.1854 0.2955 0.5462
C17A C 0.0292(3) 0.5398(2) 0.51774(17)
S4 S 0.00170(10) 0.02041(7) 0.35871(5)
C18 C 0.0962(3) 0.1459(3) 0.3569(2)
H23 H 0.1407 0.2074 0.2981
C19 C 0.1058(3) 0.1551(2) 0.44279(17)
H24 H 0.1501 0.2205 0.4531
C20 C -0.0309(3) -0.0390(2) 0.48172(18)
S4A S -0.00170(10) -0.02041(7) 0.64129(5)
C18A C -0.0962(3) -0.1459(3) 0.6431(2)
H23A H -0.1407 -0.2074 0.7019
C19A C -0.1058(3) -0.1551(2) 0.55721(17)
H24A H -0.1501 -0.2205 0.5469
C20A C 0.0309(3) 0.0390(2) 0.51828(18)
loop_
_geom_bond_atom_site_label_1
_geom_bond_atom_site_label_2
_geom_bond_site_symmetry_1
_geom_bond_site_symmetry_2
C1 N1 1_555 1_555
N1 H1 1_555 1_555
H2 N1 1_555 1_555
N2 C1 1_555 1_555
H3 N2 1_555 1_555
H4 N2 1_555 1_555
N3 C1 1_555 1_555
H5 N3 1_555 1_555
H6 N3 1_555 1_555
C2 N4 1_555 1_555
N4 H7 1_555 1_555
H8 N4 1_555 1_555
N5 C2 1_555 1_555
H9 N5 1_555 1_555
H10 N5 1_555 1_555
N6 C2 1_555 1_555
H11 N6 1_555 1_555
H12 N6 1_555 1_555
C3 C4 1_555 1_555
C4 H13 1_555 1_555
C5 C4 1_555 1_555
H14 C5 1_555 1_555
C6 C5 1_555 1_555
C7 C6 1_555 1_555
H15 C7 1_555 1_555
C8 C3 1_555 1_555
H16 C8 1_555 1_555
C9 C10 1_555 1_555
C10 H17 1_555 1_555
C11 C10 1_555 1_555
H18 C11 1_555 1_555
C12 C6 1_555 1_555
C13 C12 1_555 1_555
H19 C13 1_555 1_555
C14 C9 1_555 1_555
H20 C14 1_555 1_555
S1 C3 1_555 1_555
O1 S1 1_555 1_555
O2 S1 1_555 1_555
O3 S1 1_555 1_555
S2 C9 1_555 1_555
O4 S2 1_555 1_555
O5 S2 1_555 1_555
O6 S2 1_555 1_555
S3 C15 1_555 1_555
C15 H21 1_555 1_555
C16 C15 1_555 1_555
H22 C16 1_555 1_555
C17 S3 1_555 1_555
S4 C18 1_555 1_555
C18 H23 1_555 1_555
C19 C18 1_555 1_555
H24 C19 1_555 1_555
C20 S4 1_555 1_555
S3A C15A 1_555 1_555
C15A H21A 1_555 1_555
C16A C17 1_555 1_555
H22A C16A 1_555 1_555
C17A C16 1_555 1_555
S4A C18A 1_555 1_555
C18A H23A 1_555 1_555
C19A C20 1_555 1_555
H24A C19A 1_555 1_555
C20A C19 1_555 1_555
C7 C8 1_555 1_555
C11 C12 1_555 1_555
C13 C14 1_555 1_555
C17 C17A 1_555 1_555
C20 C20A 1_555 1_555
S3A C17A 1_555 1_555
C15A C16A 1_555 1_555
S4A C20A 1_555 1_555
C18A C19A 1_555 1_555

#END
