
#######################################################################
#
#                 Cambridge Crystallographic Data Centre
#                                CCDC 
#
#######################################################################
#
# If this CIF has been generated from an entry in the Cambridge 
# Structural Database, then it will include bibliographic, chemical, 
# crystal, experimental, refinement or atomic coordinate data resulting 
# from the CCDC's data processing and validation procedures.
#
#######################################################################

data_APOMAU
_chemical_formula_moiety         '2(C1 H6 N3 1+),C4 H8 O6 S2 2-,C6 H4 S2'
_chemical_name_systematic        
'bis(Guanidinium) butane-1,4-disulfonate thieno[3,2-b]thiophene clathrate'
_symmetry_cell_setting           triclinic
_symmetry_space_group_name_H-M   'P -1'
_symmetry_Int_Tables_number      2
_space_group_name_Hall           '-P 1'
loop_
_symmetry_equiv_pos_site_id
_symmetry_equiv_pos_as_xyz
1 x,y,z
2 -x,-y,-z
_cell_length_a                   7.2548(15)
_cell_length_b                   7.5417(16)
_cell_length_c                   11.167(3)
_cell_angle_alpha                98.349(4)
_cell_angle_beta                 98.643(4)
_cell_angle_gamma                118.152(3)
_cell_volume                     515.961
_exptl_crystal_colour            colorless
_exptl_crystal_description       plate
_cell_formula_units_Z            1
_exptl_crystal_recrystallization_method methanol
loop_
_atom_site_label
_atom_site_type_symbol
_atom_site_fract_x
_atom_site_fract_y
_atom_site_fract_z
C1 C 0.0902(8) 0.8280(7) 0.6294(4)
N1 N 0.2001(6) 0.7290(6) 0.6327(4)
H1 H 0.1361 0.5982 0.6361
H2 H 0.3370 0.7940 0.6314
N2 N -0.1175(7) 0.7324(6) 0.6313(4)
H3 H -0.1835 0.6017 0.6348
H4 H -0.1884 0.8001 0.6291
N3 N 0.1896(6) 1.0276(6) 0.6267(4)
H5 H 0.3273 1.0926 0.6270
H6 H 0.1174 1.0941 0.6245
C2 C 0.1495(7) 0.7410(7) 0.1392(4)
H7 H 0.0680 0.8085 0.1114
H8 H 0.2874 0.8059 0.1141
C3 C 0.0208(7) 0.5126(7) 0.0709(4)
H9 H -0.1188 0.4456 0.0940
H10 H 0.1015 0.4432 0.0963
S1 S 0.20835(17) 0.79244(16) 0.30459(11)
O1 O 0.3353(5) 0.6976(5) 0.3436(3)
O2 O 0.0006(5) 0.7015(5) 0.3376(3)
O3 O 0.3322(5) 1.0194(5) 0.3490(3)
C2A C -0.1495(7) 0.2590(7) -0.1392(4)
H7A H -0.0680 0.1915 -0.1114
H8A H -0.2874 0.1941 -0.1141
C3A C -0.0208(7) 0.4874(7) -0.0709(4)
H9A H 0.1188 0.5544 -0.0940
H10A H -0.1015 0.5568 -0.0963
S1A S -0.20835(17) 0.20756(16) -0.30459(11)
O1A O -0.3353(5) 0.3024(5) -0.3436(3)
O2A O -0.0006(5) 0.2985(5) -0.3376(3)
O3A O -0.3322(5) -0.0194(5) -0.3490(3)
S2 S 0.66792(19) 0.82256(18) 1.04303(12)
C4 C 0.5939(7) 0.7371(7) 0.8816(5)
H11 H 0.6279 0.8284 0.8277
C5 C 0.4823(7) 0.5266(7) 0.8394(5)
H12 H 0.4300 0.4536 0.7538
C6 C 0.5455(7) 0.5694(7) 1.0582(5)
S2A S 0.33208(19) 0.17744(18) 0.95697(12)
C4A C 0.4061(7) 0.2629(7) 1.1184(5)
H11A H 0.3721 0.1716 1.1723
C5A C 0.5177(7) 0.4734(7) 1.1606(5)
H12A H 0.5700 0.5464 1.2462
C6A C 0.4545(7) 0.4306(7) 0.9418(5)
loop_
_geom_bond_atom_site_label_1
_geom_bond_atom_site_label_2
_geom_bond_site_symmetry_1
_geom_bond_site_symmetry_2
C1 N1 1_555 1_555
N1 H1 1_555 1_555
H2 N1 1_555 1_555
N2 C1 1_555 1_555
H3 N2 1_555 1_555
H4 N2 1_555 1_555
N3 C1 1_555 1_555
H5 N3 1_555 1_555
H6 N3 1_555 1_555
C2 H7 1_555 1_555
H8 C2 1_555 1_555
C3 C2 1_555 1_555
H9 C3 1_555 1_555
H10 C3 1_555 1_555
S1 C2 1_555 1_555
O1 S1 1_555 1_555
O2 S1 1_555 1_555
O3 S1 1_555 1_555
S2 C4 1_555 1_555
C4 H11 1_555 1_555
C5 C4 1_555 1_555
H12 C5 1_555 1_555
C6 S2 1_555 1_555
C2A H7A 1_555 1_555
H8A C2A 1_555 1_555
C3A C3 1_555 1_555
H9A C3A 1_555 1_555
H10A C3A 1_555 1_555
S1A C2A 1_555 1_555
O1A S1A 1_555 1_555
O2A S1A 1_555 1_555
O3A S1A 1_555 1_555
S2A C4A 1_555 1_555
C4A H11A 1_555 1_555
C5A C6 1_555 1_555
H12A C5A 1_555 1_555
C6A C5 1_555 1_555
C6 C6A 1_555 1_555
C2A C3A 1_555 1_555
S2A C6A 1_555 1_555
C4A C5A 1_555 1_555

#END
