
#######################################################################
#
#                 Cambridge Crystallographic Data Centre
#                                CCDC 
#
#######################################################################
#
# If this CIF has been generated from an entry in the Cambridge 
# Structural Database, then it will include bibliographic, chemical, 
# crystal, experimental, refinement or atomic coordinate data resulting 
# from the CCDC's data processing and validation procedures.
#
#######################################################################

data_APONEZ
_chemical_formula_moiety         '2(C1 H6 N3 1+),C14 H12 O6 S2 2-,C8 H6 S2'
_chemical_name_systematic        
"bis(Guanidinium) 1,2-bis(4-sulfonatophenyl)ethane 2,2'-bithiophene clathrate"
_symmetry_cell_setting           triclinic
_symmetry_space_group_name_H-M   'P -1'
_symmetry_Int_Tables_number      2
_space_group_name_Hall           '-P 1'
loop_
_symmetry_equiv_pos_site_id
_symmetry_equiv_pos_as_xyz
1 x,y,z
2 -x,-y,-z
_cell_length_a                   6.1495(5)
_cell_length_b                   7.2725(6)
_cell_length_c                   16.2688(14)
_cell_angle_alpha                96.933(5)
_cell_angle_beta                 91.913(5)
_cell_angle_gamma                93.743(5)
_cell_volume                     720.091
_exptl_crystal_colour            colorless
_exptl_crystal_description       plate
_cell_formula_units_Z            1
_exptl_crystal_recrystallization_method methanol
loop_
_atom_site_label
_atom_site_type_symbol
_atom_site_fract_x
_atom_site_fract_y
_atom_site_fract_z
S1 S 0.83783(7) 0.24538(6) 0.38094(3)
O1 O 0.9491(2) 0.1378(2) 0.43750(8)
O2 O 0.9219(2) 0.43945(18) 0.38905(9)
O3 O 0.6004(2) 0.22831(18) 0.38667(8)
C1 C 0.8947(3) 0.1486(3) 0.27899(12)
C2 C 1.1005(3) 0.1838(3) 0.24902(13)
H1 H 1.2097 0.2577 0.2830
C3 C 1.1454(3) 0.1100(3) 0.16908(13)
H2 H 1.2858 0.1350 0.1486
C4 C 0.9876(3) 0.0000(3) 0.11844(12)
C5 C 0.7839(3) -0.0359(3) 0.15014(13)
H3 H 0.6754 -0.1120 0.1167
C6 C 0.7360(3) 0.0377(3) 0.22994(13)
H4 H 0.5961 0.0122 0.2507
C7 C 1.0329(4) -0.0693(3) 0.02979(12)
H5 H 0.9506 -0.1905 0.0134
H6 H 1.1902 -0.0883 0.0254
S1A S 1.16217(7) -0.24538(6) -0.38094(3)
O1A O 1.0509(2) -0.1378(2) -0.43750(8)
O2A O 1.0781(2) -0.43945(18) -0.38905(9)
O3A O 1.3996(2) -0.22831(18) -0.38667(8)
C1A C 1.1053(3) -0.1486(3) -0.27899(12)
C2A C 0.8995(3) -0.1838(3) -0.24902(13)
H1A H 0.7903 -0.2577 -0.2830
C3A C 0.8546(3) -0.1100(3) -0.16908(13)
H2A H 0.7142 -0.1350 -0.1486
C4A C 1.0124(3) 0.0000(3) -0.11844(12)
C5A C 1.2161(3) 0.0359(3) -0.15014(13)
H3A H 1.3246 0.1120 -0.1167
C6A C 1.2640(3) -0.0377(3) -0.22994(13)
H4A H 1.4039 -0.0122 -0.2507
C7A C 0.9671(4) 0.0693(3) -0.02979(12)
H5A H 1.0494 0.1905 -0.0134
H6A H 0.8098 0.0883 -0.0254
N1 N 0.6807(3) 0.7668(2) 0.41523(11)
H7 H 0.7601 0.6704 0.4151
H8 H 0.7444 0.8788 0.4156
N2 N 0.3706(3) 0.5734(2) 0.41429(11)
H9 H 0.4511 0.4777 0.4142
H10 H 0.2276 0.5567 0.4140
N3 N 0.3449(3) 0.8889(2) 0.41272(11)
H11 H 0.4088 1.0004 0.4116
H12 H 0.2017 0.8736 0.4125
C8 C 0.4650(3) 0.7432(3) 0.41486(11)
S2 S 0.72244(10) 0.45602(8) 0.10321(4)
C9 C 0.4996(3) 0.5100(3) 0.04516(13)
C10 C 0.3378(3) 0.5717(3) 0.09746(13)
H13 H 0.2007 0.6067 0.0783
C11 C 0.4003(4) 0.5764(3) 0.18258(15)
H14 H 0.3095 0.6165 0.2264
C12 C 0.6014(4) 0.5185(3) 0.19510(15)
H15 H 0.6679 0.5130 0.2482
S2A S 0.27756(10) 0.54398(8) -0.10321(4)
C9A C 0.5004(3) 0.4900(3) -0.04516(13)
C10A C 0.6622(3) 0.4283(3) -0.09746(13)
H13A H 0.7993 0.3933 -0.0783
C11A C 0.5997(4) 0.4236(3) -0.18258(15)
H14A H 0.6905 0.3835 -0.2264
C12A C 0.3986(4) 0.4815(3) -0.19510(15)
H15A H 0.3321 0.4870 -0.2482
loop_
_geom_bond_atom_site_label_1
_geom_bond_atom_site_label_2
_geom_bond_site_symmetry_1
_geom_bond_site_symmetry_2
S1 O1 1_555 1_555
O2 S1 1_555 1_555
O3 S1 1_555 1_555
C1 S1 1_555 1_555
C2 C1 1_555 1_555
H1 C2 1_555 1_555
C3 C2 1_555 1_555
H2 C3 1_555 1_555
C4 C3 1_555 1_555
C5 C4 1_555 1_555
H3 C5 1_555 1_555
C6 C1 1_555 1_555
H4 C6 1_555 1_555
C7 C4 1_555 1_555
H5 C7 1_555 1_555
H6 C7 1_555 1_555
N1 H7 1_555 1_555
H8 N1 1_555 1_555
N2 H9 1_555 1_555
H10 N2 1_555 1_555
N3 H11 1_555 1_555
H12 N3 1_555 1_555
C8 N1 1_555 1_555
S2 C9 1_555 1_555
C9 C10 1_555 1_555
C10 H13 1_555 1_555
C11 C10 1_555 1_555
H14 C11 1_555 1_555
C12 S2 1_555 1_555
H15 C12 1_555 1_555
S1A O1A 1_555 1_555
O2A S1A 1_555 1_555
O3A S1A 1_555 1_555
C1A S1A 1_555 1_555
C2A C1A 1_555 1_555
H1A C2A 1_555 1_555
C3A C2A 1_555 1_555
H2A C3A 1_555 1_555
C4A C3A 1_555 1_555
C5A C4A 1_555 1_555
H3A C5A 1_555 1_555
C6A C1A 1_555 1_555
H4A C6A 1_555 1_555
C7A C7 1_555 1_555
H5A C7A 1_555 1_555
H6A C7A 1_555 1_555
S2A C9A 1_555 1_555
C9A C9 1_555 1_555
C10A C9A 1_555 1_555
H13A C10A 1_555 1_555
C11A C10A 1_555 1_555
H14A C11A 1_555 1_555
C12A S2A 1_555 1_555
H15A C12A 1_555 1_555
C5 C6 1_555 1_555
N2 C8 1_555 1_555
N3 C8 1_555 1_555
C11 C12 1_555 1_555
C4A C7A 1_555 1_555
C5A C6A 1_555 1_555
C11A C12A 1_555 1_555

#END
