
#######################################################################
#
#                 Cambridge Crystallographic Data Centre
#                                CCDC 
#
#######################################################################
#
# If this CIF has been generated from an entry in the Cambridge 
# Structural Database, then it will include bibliographic, chemical, 
# crystal, experimental, refinement or atomic coordinate data resulting 
# from the CCDC's data processing and validation procedures.
#
#######################################################################

data_APONAV
_chemical_formula_moiety         '2(C1 H6 N3 1+),C12 H8 N2 O6 S2 2-,C8 H6 S2'
_chemical_name_systematic        
"bis(Guanidinium) 4,4'-azobenzenedisulfonate 2,2'-bithiophene clathrate"
_symmetry_cell_setting           triclinic
_symmetry_space_group_name_H-M   'P -1'
_symmetry_Int_Tables_number      2
_space_group_name_Hall           '-P 1'
loop_
_symmetry_equiv_pos_site_id
_symmetry_equiv_pos_as_xyz
1 x,y,z
2 -x,-y,-z
_cell_length_a                   6.1289(3)
_cell_length_b                   7.1528(4)
_cell_length_c                   15.7075(8)
_cell_angle_alpha                93.882(3)
_cell_angle_beta                 96.130(3)
_cell_angle_gamma                93.115(3)
_cell_volume                     681.773
_exptl_crystal_colour            orange
_exptl_crystal_description       needle
_cell_formula_units_Z            1
_exptl_crystal_recrystallization_method methanol
loop_
_atom_site_label
_atom_site_type_symbol
_atom_site_fract_x
_atom_site_fract_y
_atom_site_fract_z
S1 S 0.18655(7) 0.74703(6) 0.62650(3)
O1 O 0.4222(2) 0.76348(18) 0.61893(8)
O2 O 0.0620(2) 0.86592(19) 0.57021(8)
O3 O 0.0999(2) 0.55181(18) 0.61690(8)
C1 C 0.1536(3) 0.8299(3) 0.73291(11)
C2 C 0.3256(3) 0.9291(3) 0.78364(12)
H1 H 0.4617 0.9541 0.7615
C3 C 0.2979(3) 0.9918(3) 0.86711(12)
H2 H 0.4146 1.0609 0.9024
C4 C 0.0980(3) 0.9529(3) 0.89886(11)
C5 C -0.0751(3) 0.8544(3) 0.84748(12)
H3 H -0.2113 0.8295 0.8695
C6 C -0.0484(3) 0.7929(3) 0.76432(11)
H4 H -0.1660 0.7260 0.7287
N1 N 0.0901(3) 1.0215(2) 0.98621(10)
S1A S -0.18655(7) 1.25297(6) 1.37350(3)
O1A O -0.4222(2) 1.23652(18) 1.38107(8)
O2A O -0.0620(2) 1.13408(19) 1.42979(8)
O3A O -0.0999(2) 1.44819(18) 1.38310(8)
C1A C -0.1536(3) 1.1701(3) 1.26709(11)
C2A C -0.3256(3) 1.0709(3) 1.21636(12)
H1A H -0.4617 1.0459 1.2385
C3A C -0.2979(3) 1.0082(3) 1.13289(12)
H2A H -0.4146 0.9391 1.0976
C4A C -0.0980(3) 1.0471(3) 1.10114(11)
C5A C 0.0751(3) 1.1456(3) 1.15252(12)
H3A H 0.2113 1.1705 1.1305
C6A C 0.0484(3) 1.2071(3) 1.23568(11)
H4A H 0.1660 1.2740 1.2713
N1A N -0.0901(3) 0.9785(2) 1.01379(10)
C7 C 0.5553(3) 0.2503(3) 0.58508(11)
N2 N 0.6507(3) 0.4212(2) 0.58548(10)
H5 H 0.5700 0.5192 0.5832
H6 H 0.7947 0.4367 0.5880
N3 N 0.6760(3) 0.1019(2) 0.58933(10)
H7 H 0.6118 -0.0112 0.5896
H8 H 0.8201 0.1165 0.5919
N4 N 0.3388(2) 0.2280(2) 0.58122(10)
H9 H 0.2587 0.3263 0.5789
H10 H 0.2747 0.1148 0.5809
S2 S 0.7577(2) 0.3858(3) 0.92936(9)
C8 C 0.6708(10) 0.3731(7) 0.8210(2)
H11 H 0.7558 0.3278 0.7777
C9 C 0.4662(10) 0.4355(11) 0.8050(4)
H12 H 0.3881 0.4349 0.7494
C10 C 0.3854(7) 0.5002(7) 0.8799(3)
H13 H 0.2488 0.5569 0.8797
C11 C 0.5190(3) 0.4761(3) 0.95571(12)
S2A S 0.2423(2) 0.6142(3) 1.07064(9)
C8A C 0.3292(10) 0.6269(7) 1.1790(2)
H11A H 0.2442 0.6722 1.2223
C9A C 0.5338(10) 0.5645(11) 1.1950(4)
H12A H 0.6119 0.5651 1.2506
C10A C 0.6146(7) 0.4998(7) 1.1201(3)
H13A H 0.7512 0.4431 1.1203
C11A C 0.4810(3) 0.5239(3) 1.04429(12)
C12? C 0.715(3) 0.404(4) 0.9348(12)
C13? C 0.515(3) 0.415(4) 0.8044(12)
C14? C 0.706(3) 0.371(3) 0.8454(9)
H14? H 0.8365 0.3814 0.9749
H15? H 0.4837 0.4084 0.7436
H16? H 0.8219 0.3220 0.8171
S3? S 0.3313(7) 0.4877(8) 0.8748(3)
loop_
_geom_bond_atom_site_label_1
_geom_bond_atom_site_label_2
_geom_bond_site_symmetry_1
_geom_bond_site_symmetry_2
S1 O1 1_555 1_555
O2 S1 1_555 1_555
O3 S1 1_555 1_555
C1 S1 1_555 1_555
C2 C1 1_555 1_555
H1 C2 1_555 1_555
C3 C2 1_555 1_555
H2 C3 1_555 1_555
C4 C3 1_555 1_555
C5 C4 1_555 1_555
H3 C5 1_555 1_555
C6 C1 1_555 1_555
H4 C6 1_555 1_555
N1 C4 1_555 1_555
C7 N2 1_555 1_555
N2 H5 1_555 1_555
H6 N2 1_555 1_555
N3 C7 1_555 1_555
H7 N3 1_555 1_555
H8 N3 1_555 1_555
N4 C7 1_555 1_555
H9 N4 1_555 1_555
H10 N4 1_555 1_555
S2 C8 1_555 1_555
C8 H11 1_555 1_555
C9 C8 1_555 1_555
H12 C9 1_555 1_555
C10 C9 1_555 1_555
H13 C10 1_555 1_555
C11 S2 1_555 1_555
S1A O1A 1_555 1_555
O2A S1A 1_555 1_555
O3A S1A 1_555 1_555
C1A S1A 1_555 1_555
C2A C1A 1_555 1_555
H1A C2A 1_555 1_555
C3A C2A 1_555 1_555
H2A C3A 1_555 1_555
C4A C3A 1_555 1_555
C5A C4A 1_555 1_555
H3A C5A 1_555 1_555
C6A C1A 1_555 1_555
H4A C6A 1_555 1_555
N1A N1 1_555 1_555
S2A C8A 1_555 1_555
C8A H11A 1_555 1_555
C9A C8A 1_555 1_555
H12A C9A 1_555 1_555
C10A C9A 1_555 1_555
H13A C10A 1_555 1_555
C11A C11 1_555 1_555
C5 C6 1_555 1_555
C10 C11 1_555 1_555
C4A N1A 1_555 1_555
C5A C6A 1_555 1_555
S2A C11A 1_555 1_555
C10A C11A 1_555 1_555

#END
