
#######################################################################
#
#                 Cambridge Crystallographic Data Centre
#                                CCDC 
#
#######################################################################
#
# If this CIF has been generated from an entry in the Cambridge 
# Structural Database, then it will include bibliographic, chemical, 
# crystal, experimental, refinement or atomic coordinate data resulting 
# from the CCDC's data processing and validation procedures.
#
#######################################################################

data_APOPEB
_chemical_formula_moiety         
'2(C1 H6 N3 1+),C12 H8 N2 O6 S2 2-,3(C10 H8 S2)'
_chemical_name_systematic        
"bis(Guanidinium) 4,4'-azobenzenedisulfonate tris(trans-1,2-bis(thiophen-2-yl)ethene) clathrate"
_symmetry_cell_setting           monoclinic
_symmetry_space_group_name_H-M   'P 21/n'
_symmetry_Int_Tables_number      14
_space_group_name_Hall           '-P 2yn'
loop_
_symmetry_equiv_pos_site_id
_symmetry_equiv_pos_as_xyz
1 x,y,z
2 1/2-x,1/2+y,1/2-z
3 -x,-y,-z
4 1/2+x,1/2-y,1/2+z
_cell_length_a                   7.573(2)
_cell_length_b                   11.721(4)
_cell_length_c                   28.831(9)
_cell_angle_alpha                90
_cell_angle_beta                 91.220(6)
_cell_angle_gamma                90
_cell_volume                     2558.55
_exptl_crystal_colour            orange
_exptl_crystal_description       plate
_cell_formula_units_Z            2
_exptl_crystal_recrystallization_method methanol
loop_
_atom_site_label
_atom_site_type_symbol
_atom_site_fract_x
_atom_site_fract_y
_atom_site_fract_z
C1 C 0.5133(4) 0.0112(3) 0.24518(12)
N1 N 0.3618(4) -0.0417(3) 0.25360(11)
H1 H 0.3628 -0.1118 0.2645
H2 H 0.2608 -0.0065 0.2483
N2 N 0.5117(4) 0.1165(3) 0.22816(12)
H3 H 0.6118 0.1511 0.2222
H4 H 0.4106 0.1516 0.2228
N3 N 0.6650(4) -0.0419(3) 0.25324(12)
H5 H 0.7653 -0.0075 0.2473
H6 H 0.6656 -0.1117 0.2645
C2 C 0.0045(4) 0.1252(3) 0.14801(12)
C3 C 0.0857(5) 0.0252(3) 0.13262(13)
H7 H 0.1422 -0.0246 0.1543
C4 C 0.0837(5) -0.0009(3) 0.08607(14)
H8 H 0.1388 -0.0686 0.0755
C5 C 0.0003(4) 0.0726(3) 0.05435(13)
C6 C -0.0745(5) 0.1742(3) 0.06924(14)
H9 H -0.1252 0.2258 0.0473
C7 C -0.0750(4) 0.1998(3) 0.11613(14)
H10 H -0.1292 0.2680 0.1266
N4 N -0.0162(4) 0.0510(2) 0.00541(12)
S1 S 0.00973(10) 0.15842(7) 0.20791(3)
O1 O 0.0126(3) 0.0497(2) 0.23273(9)
O2 O -0.1496(3) 0.2245(2) 0.21665(9)
O3 O 0.1704(3) 0.2244(2) 0.21676(9)
C2B C -0.0045(4) -0.1252(3) -0.14801(12)
C3B C -0.0857(5) -0.0252(3) -0.13262(13)
H7B H -0.1422 0.0246 -0.1543
C4B C -0.0837(5) 0.0009(3) -0.08607(14)
H8B H -0.1388 0.0686 -0.0755
C5B C -0.0003(4) -0.0726(3) -0.05435(13)
C6B C 0.0745(5) -0.1742(3) -0.06924(14)
H9B H 0.1252 -0.2258 -0.0473
C7B C 0.0750(4) -0.1998(3) -0.11613(14)
H10B H 0.1292 -0.2680 -0.1266
N4B N 0.0162(4) -0.0510(2) -0.00541(12)
S1B S -0.00973(10) -0.15842(7) -0.20791(3)
O1B O -0.0126(3) -0.0497(2) -0.23273(9)
O2B O 0.1496(3) -0.2245(2) -0.21665(9)
O3B O -0.1704(3) -0.2244(2) -0.21676(9)
S2 S 0.60168(15) 0.43935(9) 0.07251(4)
C8 C 0.5780(5) 0.4563(3) 0.13074(16)
H11 H 0.6233 0.5199 0.1476
C9 C 0.4872(5) 0.3692(3) 0.15056(15)
H12 H 0.4620 0.3656 0.1827
C10 C 0.4317(4) 0.2800(2) 0.11624(12)
H13 H 0.3670 0.2128 0.1230
C11 C 0.4917(5) 0.3124(3) 0.07190(13)
C12 C 0.4661(5) 0.2434(3) 0.02939(16)
H14 H 0.3968 0.1762 0.0318
C13 C 0.5313(5) 0.2671(3) -0.01165(15)
H15 H 0.6001 0.3346 -0.0138
S3 S 0.40785(15) 0.06936(9) -0.05621(4)
C14 C 0.5086(5) 0.2005(3) -0.05384(15)
C15 C 0.5594(5) 0.2367(3) -0.09582(14)
H16 H 0.6180 0.3069 -0.1013
C16 C 0.5118(6) 0.1523(4) -0.13235(17)
H17 H 0.5364 0.1618 -0.1643
C17 C 0.4290(6) 0.0601(4) -0.11459(18)
H18 H 0.3875 -0.0025 -0.1327
S4 S 0.5898(5) 0.1827(3) 0.43611(14)
C18 C 0.5424(18) 0.1994(10) 0.3765(3)
H19 H 0.5792 0.2604 0.3572
C19 C 0.4407(15) 0.1061(9) 0.3630(6)
H20 H 0.4017 0.0991 0.3316
C20 C 0.390(2) 0.0134(14) 0.3985(5)
H21 H 0.3234 -0.0548 0.3946
C21 C 0.4701(17) 0.0591(10) 0.4371(4)
C22 C 0.4579(8) -0.0082(6) 0.4787(3)
H22 H 0.3818 -0.0725 0.4766
S4B S 0.4102(5) -0.1827(3) 0.56389(14)
C18B C 0.4576(18) -0.1994(10) 0.6235(3)
H19B H 0.4208 -0.2604 0.6428
C19B C 0.5593(15) -0.1061(9) 0.6370(6)
H20B H 0.5983 -0.0991 0.6684
C20B C 0.610(2) -0.0134(14) 0.6015(5)
H21B H 0.6766 0.0548 0.6054
C21B C 0.5299(17) -0.0591(10) 0.5629(4)
C22B C 0.5421(8) 0.0082(6) 0.5213(3)
H22B H 0.6182 0.0725 0.5234
C23? C 0.470(3) 0.1365(16) 0.3598(9)
C24? C 0.558(4) 0.212(3) 0.3882(7)
C25? C 0.556(3) 0.1951(16) 0.4377(8)
C26? C 0.506(3) 0.0821(18) 0.4435(6)
C27? C 0.5281(15) 0.0441(11) 0.4928(5)
H23? H 0.4475 0.1452 0.3275
H24? H 0.6189 0.2752 0.3754
H25? H 0.5836 0.2493 0.4613
H26? H 0.5904 0.0927 0.5138
S5? S 0.4092(13) 0.0237(7) 0.3931(3)
loop_
_geom_bond_atom_site_label_1
_geom_bond_atom_site_label_2
_geom_bond_site_symmetry_1
_geom_bond_site_symmetry_2
C1 N1 1_555 1_555
N1 H1 1_555 1_555
H2 N1 1_555 1_555
N2 C1 1_555 1_555
H3 N2 1_555 1_555
H4 N2 1_555 1_555
N3 C1 1_555 1_555
H5 N3 1_555 1_555
H6 N3 1_555 1_555
C2 C3 1_555 1_555
C3 H7 1_555 1_555
C4 C3 1_555 1_555
H8 C4 1_555 1_555
C5 C4 1_555 1_555
C6 C5 1_555 1_555
H9 C6 1_555 1_555
C7 C2 1_555 1_555
H10 C7 1_555 1_555
N4 C5 1_555 1_555
S1 C2 1_555 1_555
O1 S1 1_555 1_555
O2 S1 1_555 1_555
O3 S1 1_555 1_555
S2 C8 1_555 1_555
C8 H11 1_555 1_555
C9 C8 1_555 1_555
H12 C9 1_555 1_555
C10 C9 1_555 1_555
H13 C10 1_555 1_555
C11 S2 1_555 1_555
C12 C11 1_555 1_555
H14 C12 1_555 1_555
C13 C12 1_555 1_555
H15 C13 1_555 1_555
S3 C14 1_555 1_555
C14 C13 1_555 1_555
C15 C14 1_555 1_555
H16 C15 1_555 1_555
C16 C15 1_555 1_555
H17 C16 1_555 1_555
C17 S3 1_555 1_555
H18 C17 1_555 1_555
S4 C18 1_555 1_555
C18 H19 1_555 1_555
C19 C18 1_555 1_555
H20 C19 1_555 1_555
C20 C19 1_555 1_555
H21 C20 1_555 1_555
C21 S4 1_555 1_555
C22 C21 1_555 1_555
H22 C22 1_555 1_555
C2B C3B 1_555 1_555
C3B H7B 1_555 1_555
C4B C3B 1_555 1_555
H8B C4B 1_555 1_555
C5B C4B 1_555 1_555
C6B C5B 1_555 1_555
H9B C6B 1_555 1_555
C7B C2B 1_555 1_555
H10B C7B 1_555 1_555
N4B N4 1_555 1_555
S1B C2B 1_555 1_555
O1B S1B 1_555 1_555
O2B S1B 1_555 1_555
O3B S1B 1_555 1_555
S4B C18B 1_555 1_555
C18B H19B 1_555 1_555
C19B C18B 1_555 1_555
H20B C19B 1_555 1_555
C20B C19B 1_555 1_555
H21B C20B 1_555 1_555
C21B S4B 1_555 1_555
C22B C22 1_555 1_555
H22B C22B 1_555 1_555
C6 C7 1_555 1_555
C10 C11 1_555 1_555
C16 C17 1_555 1_555
C20 C21 1_555 1_555
C5B N4B 1_555 1_555
C6B C7B 1_555 1_555
C20B C21B 1_555 1_555
C21B C22B 1_555 1_555

#END
