
#######################################################################
#
#                 Cambridge Crystallographic Data Centre
#                                CCDC 
#
#######################################################################
#
# If this CIF has been generated from an entry in the Cambridge 
# Structural Database, then it will include bibliographic, chemical, 
# crystal, experimental, refinement or atomic coordinate data resulting 
# from the CCDC's data processing and validation procedures.
#
#######################################################################

data_APOPUR
_chemical_formula_moiety         
'2(C1 H6 N3 1+),C12 H8 N2 O6 S2 2-,3(C12 H10 N2)'
_chemical_name_systematic        
"bis(Guanidinium) 4,4'-azobenzenedisulfonate tris(azobenzene) clathrate"
_symmetry_cell_setting           monoclinic
_symmetry_space_group_name_H-M   'P 21/n'
_symmetry_Int_Tables_number      14
_space_group_name_Hall           '-P 2yn'
loop_
_symmetry_equiv_pos_site_id
_symmetry_equiv_pos_as_xyz
1 x,y,z
2 1/2-x,1/2+y,1/2-z
3 -x,-y,-z
4 1/2+x,1/2-y,1/2+z
_cell_length_a                   7.5750(11)
_cell_length_b                   29.220(4)
_cell_length_c                   11.6324(18)
_cell_angle_alpha                90
_cell_angle_beta                 90.103(3)
_cell_angle_gamma                90
_cell_volume                     2574.73
_exptl_crystal_colour            orange
_exptl_crystal_description       slab
_cell_formula_units_Z            2
_exptl_crystal_recrystallization_method methanol
loop_
_atom_site_label
_atom_site_type_symbol
_atom_site_fract_x
_atom_site_fract_y
_atom_site_fract_z
S1 S 0.01047(5) 0.205987(11) 0.85545(3)
O1 O 0.01525(15) 0.21232(3) 0.73165(8)
C2 C 0.00821(18) 0.14653(4) 0.88241(10)
O2 O 0.16869(13) 0.22372(4) 0.91230(9)
C3 C -0.05885(19) 0.13104(5) 0.98700(11)
H5 H -0.1069 0.1522 1.0405
O3 O -0.14910(13) 0.22449(4) 0.90771(9)
C4 C -0.05528(19) 0.08517(5) 1.01257(11)
H8 H -0.0998 0.0745 1.0840
N4 N 0.02233(19) 0.00607(4) 0.95132(9)
C5 C 0.0142(2) 0.05444(5) 0.93282(10)
C6 C 0.0782(2) 0.06971(5) 0.82814(12)
H9 H 0.1229 0.0484 0.7737
C7 C 0.07682(19) 0.11608(5) 0.80282(11)
H10 H 0.1224 0.1268 0.7318
S1B S -0.01047(5) -0.205987(11) 1.14455(3)
O1B O -0.01525(15) -0.21232(3) 1.26835(8)
C2B C -0.00821(18) -0.14653(4) 1.11759(10)
O2B O -0.16869(13) -0.22372(4) 1.08770(9)
C3B C 0.05885(19) -0.13104(5) 1.01300(11)
H5B H 0.1069 -0.1522 0.9595
O3B O 0.14910(13) -0.22449(4) 1.09229(9)
C4B C 0.05528(19) -0.08517(5) 0.98743(11)
H8B H 0.0998 -0.0745 0.9160
N4B N -0.02233(19) -0.00607(4) 1.04868(9)
C5B C -0.0142(2) -0.05444(5) 1.06718(10)
C6B C -0.0782(2) -0.06971(5) 1.17186(12)
H9B H -0.1229 -0.0484 1.2263
C7B C -0.07682(19) -0.11608(5) 1.19718(11)
H10B H -0.1224 -0.1268 1.2682
C1 C 0.50955(19) 0.23952(4) 0.69966(10)
N1 N 0.66123(16) 0.24726(5) 0.64834(12)
H1 H 0.7607 0.2442 0.6867
H2 H 0.6632 0.2555 0.5756
N2 N 0.35958(16) 0.24421(4) 0.64233(11)
H3 H 0.3611 0.2525 0.5696
H4 H 0.2583 0.2390 0.6769
N3 N 0.50713(17) 0.22710(4) 0.80892(9)
H6 H 0.6068 0.2240 0.8471
H7 H 0.4058 0.2219 0.8435
N5 N 0.01246(18) 0.00550(4) 0.44892(9)
C8 C 0.0385(3) 0.14599(5) 0.38007(14)
H11 H 0.0491 0.1778 0.3640
C9 C -0.0372(3) 0.13179(5) 0.48202(14)
H12 H -0.0803 0.1539 0.5349
C10 C -0.0506(2) 0.08577(5) 0.50768(12)
H13 H -0.1031 0.0761 0.5777
C11 C 0.01367(19) 0.05381(4) 0.42967(10)
C12 C 0.0843(2) 0.06798(5) 0.32560(12)
H14 H 0.1228 0.0460 0.2710
C13 C 0.0987(2) 0.11427(6) 0.30143(14)
H15 H 0.1497 0.1241 0.2311
N5B N -0.01246(18) -0.00550(4) 0.55108(9)
C8B C -0.0385(3) -0.14599(5) 0.61993(14)
H11B H -0.0491 -0.1778 0.6360
C9B C 0.0372(3) -0.13179(5) 0.51798(14)
H12B H 0.0803 -0.1539 0.4651
C10B C 0.0506(2) -0.08577(5) 0.49232(12)
H13B H 0.1031 -0.0761 0.4223
C11B C -0.01367(19) -0.05381(4) 0.57033(10)
C12B C -0.0843(2) -0.06798(5) 0.67440(12)
H14B H -0.1228 -0.0460 0.7290
C13B C -0.0987(2) -0.11427(6) 0.69857(14)
H15B H -0.1497 -0.1241 0.7689
N6 N 0.4447(6) 0.96605(15) 0.7393(4)
N7 N 0.5324(4) 0.99830(14) 0.7792(3)
C14 C 0.507(3) 1.1231(4) 0.6033(13)
H16 H 0.4961 1.1521 0.5671
C15 C 0.6025(13) 1.1189(3) 0.7043(8)
H17 H 0.6674 1.1441 0.7341
C16 C 0.6018(10) 1.0770(3) 0.7612(7)
H18 H 0.6605 1.0744 0.8332
C17 C 0.5192(9) 1.0397(2) 0.7165(5)
C18 C 0.430(2) 1.0438(4) 0.6130(9)
H19 H 0.3704 1.0181 0.5817
C19 C 0.427(2) 1.0848(4) 0.5551(12)
H20 H 0.3712 1.0869 0.4822
C20 C 0.4902(13) 0.8329(4) 0.8868(8)
H21 H 0.4978 0.8016 0.9083
C21 C 0.554(2) 0.8674(4) 0.9575(10)
H22 H 0.5985 0.8616 1.0325
C22 C 0.547(2) 0.9113(4) 0.9104(10)
H23 H 0.5912 0.9355 0.9569
C23 C 0.483(2) 0.9234(3) 0.8040(10)
C24 C 0.3954(16) 0.8899(2) 0.7434(8)
H24 H 0.3253 0.8965 0.6776
C25 C 0.4165(16) 0.8459(3) 0.7852(8)
H25 H 0.3744 0.8220 0.7372
C26? C 0.419(3) 1.0462(5) 0.5841(12)
C27? C 0.4845(11) 1.0313(3) 0.6875(7)
C28? C 0.5687(13) 1.0610(3) 0.7610(10)
C29? C 0.5822(18) 1.1070(4) 0.7326(9)
C30? C 0.4934(19) 0.8382(4) 0.8990(8)
C31? C 0.4128(15) 0.8437(3) 0.7924(10)
C32? C 0.422(2) 0.8891(4) 0.7584(12)
C33? C 0.466(3) 0.9249(4) 0.8277(14)
C34? C 0.554(3) 0.9198(5) 0.9304(14)
C35? C 0.561(2) 0.8746(5) 0.9583(11)
C36? C 0.523(3) 1.1220(5) 0.6280(15)
C37? C 0.433(3) 1.0922(5) 0.5538(14)
H26? H 0.3643 1.0251 0.5331
H27? H 0.6176 1.0500 0.8311
H28? H 0.6322 1.1280 0.7857
H29? H 0.5016 0.8084 0.9314
H30? H 0.3593 0.8198 0.7492
H31? H 0.3957 0.8958 0.6803
H32? H 0.6013 0.9440 0.9750
H33? H 0.6213 0.8674 1.0278
H34? H 0.5437 1.1528 0.6054
H35? H 0.3828 1.1031 0.4842
N8? N 0.5057(5) 0.97303(18) 0.8110(3)
N9? N 0.4655(7) 0.98365(18) 0.7121(4)
loop_
_geom_bond_atom_site_label_1
_geom_bond_atom_site_label_2
_geom_bond_site_symmetry_1
_geom_bond_site_symmetry_2
S1 O1 1_555 1_555
C1 N1 1_555 1_555
N1 H1 1_555 1_555
H2 N1 1_555 1_555
C2 S1 1_555 1_555
N2 C1 1_555 1_555
H3 N2 1_555 1_555
H4 N2 1_555 1_555
O2 S1 1_555 1_555
C3 C2 1_555 1_555
H5 C3 1_555 1_555
N3 C1 1_555 1_555
H6 N3 1_555 1_555
H7 N3 1_555 1_555
O3 S1 1_555 1_555
C4 C3 1_555 1_555
H8 C4 1_555 1_555
N4 C5 1_555 1_555
C5 C4 1_555 1_555
C6 C5 1_555 1_555
H9 C6 1_555 1_555
C7 C2 1_555 1_555
H10 C7 1_555 1_555
N5 C11 1_555 1_555
C8 H11 1_555 1_555
C9 C8 1_555 1_555
H12 C9 1_555 1_555
C10 C9 1_555 1_555
H13 C10 1_555 1_555
C11 C10 1_555 1_555
C12 C11 1_555 1_555
H14 C12 1_555 1_555
C13 C8 1_555 1_555
H15 C13 1_555 1_555
N6 N7 1_555 1_555
N7 C17 1_555 1_555
C14 H16 1_555 1_555
C15 C14 1_555 1_555
H17 C15 1_555 1_555
C16 C15 1_555 1_555
H18 C16 1_555 1_555
C17 C16 1_555 1_555
C18 C17 1_555 1_555
H19 C18 1_555 1_555
C19 C14 1_555 1_555
H20 C19 1_555 1_555
C20 H21 1_555 1_555
C21 C20 1_555 1_555
H22 C21 1_555 1_555
C22 C21 1_555 1_555
H23 C22 1_555 1_555
C23 N6 1_555 1_555
C24 C23 1_555 1_555
H24 C24 1_555 1_555
C25 C20 1_555 1_555
H25 C25 1_555 1_555
S1B O1B 1_555 1_555
C2B S1B 1_555 1_555
O2B S1B 1_555 1_555
C3B C2B 1_555 1_555
H5B C3B 1_555 1_555
O3B S1B 1_555 1_555
C4B C3B 1_555 1_555
H8B C4B 1_555 1_555
N4B N4 1_555 1_555
C5B C4B 1_555 1_555
C6B C5B 1_555 1_555
H9B C6B 1_555 1_555
C7B C2B 1_555 1_555
H10B C7B 1_555 1_555
N5B N5 1_555 1_555
C8B H11B 1_555 1_555
C9B C8B 1_555 1_555
H12B C9B 1_555 1_555
C10B C9B 1_555 1_555
H13B C10B 1_555 1_555
C11B N5B 1_555 1_555
C12B C11B 1_555 1_555
H14B C12B 1_555 1_555
C13B C8B 1_555 1_555
H15B C13B 1_555 1_555
C6 C7 1_555 1_555
C12 C13 1_555 1_555
C18 C19 1_555 1_555
C22 C23 1_555 1_555
C24 C25 1_555 1_555
N4B C5B 1_555 1_555
C6B C7B 1_555 1_555
C10B C11B 1_555 1_555
C12B C13B 1_555 1_555

#END
