
#######################################################################
#
#                 Cambridge Crystallographic Data Centre
#                                CCDC 
#
#######################################################################
#
# If this CIF has been generated from an entry in the Cambridge 
# Structural Database, then it will include bibliographic, chemical, 
# crystal, experimental, refinement or atomic coordinate data resulting 
# from the CCDC's data processing and validation procedures.
#
#######################################################################

data_APOPOM
_chemical_compound_source        'twigs and leaves of Winchia calophylla'
_chemical_name_common            'winchinine A methanol solvate'
_chemical_formula_moiety         'C20 H25 N3 O2,C1 H4 O1'
_chemical_name_systematic        
'9a-ethyl-8a,9,9a,11,12,13a,14,15-octahydro-5H,10H-indolizino[8,1-cd][1,3]oxazolo[4,5-m]carbazol-7(6H)-one methanol solvate'
_symmetry_cell_setting           triclinic
_symmetry_space_group_name_H-M   'P 1'
_symmetry_Int_Tables_number      1
_space_group_name_Hall           'P 1'
loop_
_symmetry_equiv_pos_site_id
_symmetry_equiv_pos_as_xyz
1 x,y,z
_cell_length_a                   7.8960(10)
_cell_length_b                   8.4207(7)
_cell_length_c                   14.3158(16)
_cell_angle_alpha                80.843(8)
_cell_angle_beta                 81.536(10)
_cell_angle_gamma                89.868(8)
_cell_volume                     929.272
_exptl_crystal_colour            colorless
_exptl_crystal_description       block
_cell_formula_units_Z            2
loop_
_atom_site_label
_atom_site_type_symbol
_atom_site_fract_x
_atom_site_fract_y
_atom_site_fract_z
O1 O 0.5461(7) 0.6254(6) -0.3712(3)
O2 O 0.6483(5) 0.6755(5) -0.2408(3)
N1 N 0.6307(6) 0.3229(6) -0.1197(3)
H1 H 0.7007 0.2961 -0.1663
C1 C 0.5122(7) 0.4559(6) -0.1299(4)
C2 C 0.0400(6) 0.7138(6) -0.0026(4)
H2 H -0.0033 0.6714 0.0637
H3 H -0.0573 0.7363 -0.0365
N2 N 0.1461(5) 0.5948(5) -0.0448(3)
C3 C 0.0610(7) 0.4382(6) -0.0364(4)
H4 H -0.0196 0.4412 -0.0817
H5 H 0.0007 0.4044 0.0278
C4 C 0.2083(6) 0.3264(6) -0.0595(4)
H6 H 0.2211 0.3127 -0.1262
H7 H 0.1882 0.2217 -0.0198
C5 C 0.3707(6) 0.4101(6) -0.0381(3)
C6 C 0.4671(6) 0.2959(6) 0.0270(4)
C7 C 0.4253(7) 0.2322(7) 0.1219(4)
H8 H 0.3243 0.2611 0.1568
C8 C 0.5352(8) 0.1232(7) 0.1664(4)
H9 H 0.5102 0.0828 0.2313
C9 C 0.6794(7) 0.0775(7) 0.1128(4)
H10 H 0.7502 0.0029 0.1419
C10 C 0.7235(7) 0.1388(7) 0.0166(4)
H11 H 0.8237 0.1081 -0.0182
C11 C 0.6162(7) 0.2459(6) -0.0264(4)
C12 C 0.1411(7) 0.8666(7) -0.0075(4)
H12 H 0.0706 0.9419 0.0247
H13 H 0.1734 0.9152 -0.0739
C13 C 0.3005(7) 0.8340(6) 0.0388(4)
H14 H 0.2665 0.8055 0.1074
H15 H 0.3692 0.9325 0.0275
C14 C 0.6036(7) 0.6238(7) -0.1393(4)
H16 H 0.7082 0.6108 -0.1097
C15 C 0.4960(7) 0.7529(6) -0.0993(4)
H17 H 0.4080 0.7830 -0.1390
H18 H 0.5680 0.8473 -0.1023
C16 C 0.4976(9) 0.6175(8) 0.1746(4)
H19 H 0.5964 0.5939 0.2058
H20 H 0.4213 0.5255 0.1883
H21 H 0.4400 0.7075 0.1974
C17 C 0.5530(7) 0.6581(7) 0.0678(4)
H22 H 0.6147 0.5672 0.0470
H23 H 0.6335 0.7484 0.0561
C18 C 0.4114(7) 0.7008(6) 0.0034(4)
C19 C 0.2949(6) 0.5534(5) 0.0063(3)
H24 H 0.2501 0.5138 0.0735
C20 C 0.5464(8) 0.5922(7) -0.2861(4)
N3 N 0.4554(6) 0.4782(6) -0.2226(3)
H25 H 0.3721 0.4240 -0.2355
N4 N -0.1693(6) -0.0892(6) 0.5643(3)
H26 H -0.2452 -0.1365 0.6094
O3 O -0.0858(7) 0.0707(7) 0.8182(3)
O4 O -0.1819(5) 0.1951(5) 0.6879(3)
C21 C -0.0497(7) 0.0343(6) 0.5758(4)
C22 C 0.4275(7) 0.3594(6) 0.4463(4)
H27 H 0.4703 0.3511 0.3802
H28 H 0.5248 0.3644 0.4801
N5 N 0.3191(5) 0.2190(5) 0.4903(3)
C23 C 0.4044(7) 0.0663(6) 0.4845(4)
H29 H 0.4859 0.0474 0.5294
H30 H 0.4636 0.0638 0.4204
C24 C 0.2584(6) -0.0568(6) 0.5105(4)
H31 H 0.2453 -0.1012 0.5781
H32 H 0.2794 -0.1440 0.4737
C25 C 0.0961(6) 0.0353(6) 0.4862(4)
C26 C 0.0032(6) -0.0469(6) 0.4212(3)
C27 C 0.0538(7) -0.0638(6) 0.3272(4)
H33 H 0.1561 -0.0168 0.2938
C28 C -0.0510(7) -0.1529(6) 0.2824(4)
H34 H -0.0195 -0.1637 0.2185
C29 C -0.1997(8) -0.2238(7) 0.3329(4)
H35 H -0.2677 -0.2830 0.3026
C30 C -0.2520(8) -0.2098(7) 0.4280(4)
H36 H -0.3538 -0.2575 0.4615
C31 C -0.1457(7) -0.1214(6) 0.4713(4)
C32 C 0.3221(7) 0.5111(7) 0.4509(4)
H37 H 0.2901 0.5245 0.5172
H38 H 0.3912 0.6041 0.4182
C33 C 0.1627(7) 0.5021(6) 0.4054(4)
H39 H 0.1960 0.5101 0.3368
H40 H 0.0931 0.5941 0.4167
C34 C -0.1374(7) 0.1966(6) 0.5849(4)
H41 H -0.2422 0.2012 0.5555
C35 C -0.0293(7) 0.3462(7) 0.5452(4)
H42 H 0.0598 0.3533 0.5844
H43 H -0.1004 0.4398 0.5488
C36 C -0.0402(8) 0.3590(8) 0.2722(4)
H44 H -0.1407 0.3520 0.2425
H45 H 0.0364 0.2750 0.2570
H46 H 0.0159 0.4617 0.2490
C37 C -0.0907(7) 0.3405(6) 0.3791(4)
H47 H -0.1507 0.2378 0.4003
H48 H -0.1720 0.4235 0.3923
C38 C 0.0532(6) 0.3488(6) 0.4417(4)
C39 C 0.1714(6) 0.2039(6) 0.4410(4)
H49 H 0.2162 0.1991 0.3740
C40 C -0.0863(8) 0.0852(7) 0.7328(4)
N6 N 0.0046(6) 0.0033(6) 0.6697(3)
H50 H 0.0858 -0.0604 0.6833
O5 O 0.1138(7) 0.7078(5) -0.2409(3)
H51 H 0.1464 0.6673 -0.1908
C41 C 0.0712(9) 0.5860(8) -0.2901(5)
H52 H 0.0351 0.6334 -0.3493
H53 H -0.0202 0.5198 -0.2516
H54 H 0.1694 0.5212 -0.3031
O6 O 0.3457(7) 0.2287(5) -0.3114(3)
H55 H 0.3509 0.2255 -0.3687
C42 C 0.3926(9) 0.0807(7) -0.2646(5)
H56 H 0.4291 0.0948 -0.2053
H57 H 0.4848 0.0384 -0.3043
H58 H 0.2963 0.0071 -0.2519
loop_
_geom_bond_atom_site_label_1
_geom_bond_atom_site_label_2
_geom_bond_site_symmetry_1
_geom_bond_site_symmetry_2
O1 C20 1_555 1_555
O2 C14 1_555 1_555
N1 H1 1_555 1_555
C1 N1 1_555 1_555
C2 H2 1_555 1_555
H3 C2 1_555 1_555
N2 C2 1_555 1_555
C3 N2 1_555 1_555
H4 C3 1_555 1_555
H5 C3 1_555 1_555
C4 C3 1_555 1_555
H6 C4 1_555 1_555
H7 C4 1_555 1_555
C5 C1 1_555 1_555
C6 C5 1_555 1_555
C7 C6 1_555 1_555
H8 C7 1_555 1_555
C8 C7 1_555 1_555
H9 C8 1_555 1_555
C9 C8 1_555 1_555
H10 C9 1_555 1_555
C10 C9 1_555 1_555
H11 C10 1_555 1_555
C11 N1 1_555 1_555
C12 C2 1_555 1_555
H12 C12 1_555 1_555
H13 C12 1_555 1_555
C13 C12 1_555 1_555
H14 C13 1_555 1_555
H15 C13 1_555 1_555
C14 C1 1_555 1_555
H16 C14 1_555 1_555
C15 C14 1_555 1_555
H17 C15 1_555 1_555
H18 C15 1_555 1_555
C16 H19 1_555 1_555
H20 C16 1_555 1_555
H21 C16 1_555 1_555
C17 C16 1_555 1_555
H22 C17 1_555 1_555
H23 C17 1_555 1_555
C18 C13 1_555 1_555
C19 N2 1_555 1_555
H24 C19 1_555 1_555
C20 O2 1_555 1_555
N3 C1 1_555 1_555
H25 N3 1_555 1_555
N4 H26 1_555 1_555
O3 C40 1_555 1_555
O4 C34 1_555 1_555
C21 N4 1_555 1_555
C22 H27 1_555 1_555
H28 C22 1_555 1_555
N5 C22 1_555 1_555
C23 N5 1_555 1_555
H29 C23 1_555 1_555
H30 C23 1_555 1_555
C24 C23 1_555 1_555
H31 C24 1_555 1_555
H32 C24 1_555 1_555
C25 C21 1_555 1_555
C26 C25 1_555 1_555
C27 C26 1_555 1_555
H33 C27 1_555 1_555
C28 C27 1_555 1_555
H34 C28 1_555 1_555
C29 C28 1_555 1_555
H35 C29 1_555 1_555
C30 C29 1_555 1_555
H36 C30 1_555 1_555
C31 N4 1_555 1_555
C32 C22 1_555 1_555
H37 C32 1_555 1_555
H38 C32 1_555 1_555
C33 C32 1_555 1_555
H39 C33 1_555 1_555
H40 C33 1_555 1_555
C34 C21 1_555 1_555
H41 C34 1_555 1_555
C35 C34 1_555 1_555
H42 C35 1_555 1_555
H43 C35 1_555 1_555
C36 H44 1_555 1_555
H45 C36 1_555 1_555
H46 C36 1_555 1_555
C37 C36 1_555 1_555
H47 C37 1_555 1_555
H48 C37 1_555 1_555
C38 C33 1_555 1_555
C39 N5 1_555 1_555
H49 C39 1_555 1_555
C40 O4 1_555 1_555
N6 C21 1_555 1_555
H50 N6 1_555 1_555
O5 H51 1_555 1_555
C41 O5 1_555 1_555
H52 C41 1_555 1_555
H53 C41 1_555 1_555
H54 C41 1_555 1_555
O6 H55 1_555 1_555
C42 O6 1_555 1_555
H56 C42 1_555 1_555
H57 C42 1_555 1_555
H58 C42 1_555 1_555
C4 C5 1_555 1_555
C5 C19 1_555 1_555
C6 C11 1_555 1_555
C10 C11 1_555 1_555
C15 C18 1_555 1_555
C17 C18 1_555 1_555
C18 C19 1_555 1_555
C20 N3 1_555 1_555
C24 C25 1_555 1_555
C25 C39 1_555 1_555
C26 C31 1_555 1_555
C30 C31 1_555 1_555
C35 C38 1_555 1_555
C37 C38 1_555 1_555
C38 C39 1_555 1_555
C40 N6 1_555 1_555

#END
