
#######################################################################
#
#                 Cambridge Crystallographic Data Centre
#                                CCDC 
#
#######################################################################
#
# If this CIF has been generated from an entry in the Cambridge 
# Structural Database, then it will include bibliographic, chemical, 
# crystal, experimental, refinement or atomic coordinate data resulting 
# from the CCDC's data processing and validation procedures.
#
#######################################################################

data_APOPIF
_chemical_formula_moiety         '2(C1 H6 N3 1+),C14 H12 O8 S2 2-,C10 H8 S2'
_chemical_name_systematic        
'bis(Guanidinium) 1,2-bis(4-sulfonatophenoxy)ethane trans-1,2-bis(thiophen-2-yl)ethene clathrate'
_symmetry_cell_setting           triclinic
_symmetry_space_group_name_H-M   'P -1'
_symmetry_Int_Tables_number      2
_space_group_name_Hall           '-P 1'
loop_
_symmetry_equiv_pos_site_id
_symmetry_equiv_pos_as_xyz
1 x,y,z
2 -x,-y,-z
_cell_length_a                   6.0857(8)
_cell_length_b                   7.2198(10)
_cell_length_c                   18.138(3)
_cell_angle_alpha                94.606(2)
_cell_angle_beta                 99.461(2)
_cell_angle_gamma                91.746(2)
_cell_volume                     782.787
_exptl_crystal_colour            colorless
_exptl_crystal_description       plate
_cell_formula_units_Z            1
_exptl_crystal_recrystallization_method methanol
loop_
_atom_site_label
_atom_site_type_symbol
_atom_site_fract_x
_atom_site_fract_y
_atom_site_fract_z
C1 C 0.5657(3) 0.7485(3) 0.07568(11)
N1 N 0.6625(3) 0.9149(3) 0.07517(11)
H1 H 0.5820 1.0141 0.0738
H2 H 0.8074 0.9262 0.0762
N2 N 0.6832(3) 0.5973(3) 0.07871(11)
H3 H 0.6163 0.4879 0.0797
H4 H 0.8282 0.6061 0.0797
N3 N 0.3481(3) 0.7338(3) 0.07415(12)
H5 H 0.2692 0.8340 0.0728
H6 H 0.2820 0.6238 0.0745
C2 C 0.1803(3) 0.3358(3) 0.20466(11)
C3 C 0.3513(4) 0.4468(3) 0.24845(12)
H7 H 0.4804 0.4802 0.2285
C4 C 0.3323(4) 0.5081(3) 0.32120(13)
H8 H 0.4480 0.5853 0.3512
C5 C 0.1445(4) 0.4572(3) 0.35071(12)
C6 C -0.0278(4) 0.3493(3) 0.30664(13)
H9 H -0.1576 0.3167 0.3264
C7 C -0.0090(4) 0.2895(3) 0.23343(12)
H10 H -0.1270 0.2162 0.2028
C8 C -0.0276(4) 0.4564(3) 0.46026(12)
H11 H -0.0323 0.3190 0.4593
H12 H -0.1738 0.4959 0.4355
O1 O 0.1468(3) 0.5206(2) 0.42376(9)
S1 S 0.20454(8) 0.25319(7) 0.11187(3)
O2 O 0.4425(2) 0.2622(2) 0.10806(8)
O3 O 0.0802(2) 0.3762(2) 0.06222(8)
O4 O 0.1120(2) 0.0627(2) 0.10081(9)
C2A C -0.1803(3) 0.6642(3) 0.79534(11)
C3A C -0.3513(4) 0.5532(3) 0.75155(12)
H7A H -0.4804 0.5198 0.7715
C4A C -0.3323(4) 0.4919(3) 0.67880(13)
H8A H -0.4480 0.4147 0.6488
C5A C -0.1445(4) 0.5428(3) 0.64929(12)
C6A C 0.0278(4) 0.6507(3) 0.69336(13)
H9A H 0.1576 0.6833 0.6736
C7A C 0.0090(4) 0.7105(3) 0.76657(12)
H10A H 0.1270 0.7838 0.7972
C8A C 0.0276(4) 0.5436(3) 0.53974(12)
H11A H 0.0323 0.6810 0.5407
H12A H 0.1738 0.5041 0.5645
O1A O -0.1468(3) 0.4794(2) 0.57624(9)
S1A S -0.20454(8) 0.74681(7) 0.88813(3)
O2A O -0.4425(2) 0.7378(2) 0.89194(8)
O3A O -0.0802(2) 0.6238(2) 0.93778(8)
O4A O -0.1120(2) 0.9373(2) 0.89919(9)
S2 S 0.8058(7) 0.8868(6) 0.39534(14)
C9 C 0.7667(10) 0.8758(7) 0.2967(2)
H13 H 0.8673 0.8299 0.2655
C10 C 0.5640(17) 0.9460(15) 0.2741(8)
H14 H 0.5144 0.9589 0.2223
C11 C 0.4013(8) 1.0100(7) 0.3372(3)
H15 H 0.2536 1.0521 0.3317
C12 C 0.5502(7) 0.9815(6) 0.3980(3)
C13 C 0.4582(6) 1.0219(5) 0.4656(2)
H16 H 0.3238 1.0867 0.4605
S2A S 0.1942(7) 1.1132(6) 0.60466(14)
C9A C 0.2333(10) 1.1242(7) 0.7033(2)
H13A H 0.1327 1.1701 0.7345
C10A C 0.4360(17) 1.0540(15) 0.7259(8)
H14A H 0.4856 1.0411 0.7777
C11A C 0.5987(8) 0.9900(7) 0.6628(3)
H15A H 0.7464 0.9479 0.6683
C12A C 0.4498(7) 1.0185(6) 0.6020(3)
C13A C 0.5418(6) 0.9781(5) 0.5344(2)
H16A H 0.6762 0.9133 0.5395
C14? C 0.784(3) 0.875(3) 0.3192(8)
C15? C 0.819(6) 0.888(5) 0.4021(12)
C16? C 0.623(2) 0.952(2) 0.4088(9)
C17? C 0.5905(18) 0.9740(13) 0.4869(6)
C18? C 0.596(5) 0.931(4) 0.266(2)
H17? H 0.9019 0.8229 0.2971
H18? H 0.9417 0.8592 0.4383
H19? H 0.7141 0.9480 0.5234
H20? H 0.5678 0.9262 0.2133
S3? S 0.4531(8) 1.0049(7) 0.3292(3)
loop_
_geom_bond_atom_site_label_1
_geom_bond_atom_site_label_2
_geom_bond_site_symmetry_1
_geom_bond_site_symmetry_2
C1 N1 1_555 1_555
N1 H1 1_555 1_555
H2 N1 1_555 1_555
N2 C1 1_555 1_555
H3 N2 1_555 1_555
H4 N2 1_555 1_555
N3 C1 1_555 1_555
H5 N3 1_555 1_555
H6 N3 1_555 1_555
C2 C3 1_555 1_555
C3 H7 1_555 1_555
C4 C3 1_555 1_555
H8 C4 1_555 1_555
C5 C4 1_555 1_555
C6 C5 1_555 1_555
H9 C6 1_555 1_555
C7 C2 1_555 1_555
H10 C7 1_555 1_555
C8 H11 1_555 1_555
H12 C8 1_555 1_555
O1 C5 1_555 1_555
S1 C2 1_555 1_555
O2 S1 1_555 1_555
O3 S1 1_555 1_555
O4 S1 1_555 1_555
S2 C9 1_555 1_555
C9 H13 1_555 1_555
C10 C9 1_555 1_555
H14 C10 1_555 1_555
C11 C10 1_555 1_555
H15 C11 1_555 1_555
C12 S2 1_555 1_555
C13 C12 1_555 1_555
H16 C13 1_555 1_555
C2A C3A 1_555 1_555
C3A H7A 1_555 1_555
C4A C3A 1_555 1_555
H8A C4A 1_555 1_555
C5A C4A 1_555 1_555
C6A C5A 1_555 1_555
H9A C6A 1_555 1_555
C7A C2A 1_555 1_555
H10A C7A 1_555 1_555
C8A C8 1_555 1_555
H11A C8A 1_555 1_555
H12A C8A 1_555 1_555
O1A C5A 1_555 1_555
S1A C2A 1_555 1_555
O2A S1A 1_555 1_555
O3A S1A 1_555 1_555
O4A S1A 1_555 1_555
S2A C9A 1_555 1_555
C9A H13A 1_555 1_555
C10A C9A 1_555 1_555
H14A C10A 1_555 1_555
C11A C10A 1_555 1_555
H15A C11A 1_555 1_555
C12A S2A 1_555 1_555
C13A C13 1_555 1_555
H16A C13A 1_555 1_555
C6 C7 1_555 1_555
C8 O1 1_555 1_555
C11 C12 1_555 1_555
C6A C7A 1_555 1_555
C8A O1A 1_555 1_555
C11A C12A 1_555 1_555
C12A C13A 1_555 1_555

#END
