
#######################################################################
#
#                 Cambridge Crystallographic Data Centre
#                                CCDC 
#
#######################################################################
#
# If this CIF has been generated from an entry in the Cambridge 
# Structural Database, then it will include bibliographic, chemical, 
# crystal, experimental, refinement or atomic coordinate data resulting 
# from the CCDC's data processing and validation procedures.
#
#######################################################################

data_APOQED
_chemical_formula_moiety         'C25 H22 N6'
_chemical_name_systematic        
2-(N-phenyl-3-(phenylhydrazono)-3-(pyridin-2-yl)propanehydrazonoyl)pyridine
_symmetry_cell_setting           monoclinic
_symmetry_space_group_name_H-M   'C 2/c'
_symmetry_Int_Tables_number      15
_space_group_name_Hall           '-C 2yn'
loop_
_symmetry_equiv_pos_site_id
_symmetry_equiv_pos_as_xyz
1 x,y,z
2 -x,y,1/2-z
3 1/2+x,1/2+y,z
4 1/2-x,1/2+y,1/2-z
5 -x,-y,-z
6 x,-y,1/2+z
7 1/2-x,1/2-y,-z
8 1/2+x,1/2-y,1/2+z
_cell_length_a                   25.670(5)
_cell_length_b                   8.1100(16)
_cell_length_c                   10.500(2)
_cell_angle_alpha                90
_cell_angle_beta                 113.00(3)
_cell_angle_gamma                90
_cell_volume                     2012.16
_exptl_crystal_colour            'light yellow'
_exptl_crystal_description       block
_chemical_melting_point          '471-473 K'
_cell_formula_units_Z            4
loop_
_atom_site_label
_atom_site_type_symbol
_atom_site_fract_x
_atom_site_fract_y
_atom_site_fract_z
N1 N 1.00019(9) 0.2044(3) 0.0552(2)
N2 N 1.05705(9) 0.2025(3) 0.1101(3)
H1 H 1.0753 0.1499 0.1857
N3 N 0.87948(9) 0.0805(3) 0.1135(3)
C1 C 0.97273(11) 0.1283(3) 0.1178(3)
C2 C 0.91076(11) 0.1331(4) 0.0440(3)
C3 C 0.88535(12) 0.1910(4) -0.0913(3)
H2 H 0.9074 0.2273 -0.1380
C4 C 0.82776(12) 0.1941(4) -0.1546(3)
H3 H 0.8103 0.2330 -0.2448
C5 C 0.79549(13) 0.1396(4) -0.0850(4)
H4 H 0.7562 0.1403 -0.1265
C6 C 0.82308(12) 0.0846(4) 0.0467(4)
H5 H 0.8013 0.0472 0.0938
C7 C 1.08607(11) 0.2874(4) 0.0422(3)
C8 C 1.05833(13) 0.3820(4) -0.0727(3)
H6 H 1.0191 0.3918 -0.1071
C9 C 1.08861(14) 0.4625(4) -0.1371(4)
H7 H 1.0696 0.5252 -0.2158
C10 C 1.14620(15) 0.4512(4) -0.0867(4)
H8 H 1.1664 0.5062 -0.1304
C11 C 1.17384(14) 0.3582(5) 0.0286(4)
H9 H 1.2131 0.3504 0.0636
C12 C 1.14411(12) 0.2756(4) 0.0936(4)
H10 H 1.1632 0.2123 0.1719
C13 C 1.0000 0.0312(5) 0.2500
H11 H 0.9714 -0.0398 0.2599
H11A H 1.0286 -0.0398 0.2401
N1A N 0.99981(9) 0.2044(3) 0.4448(2)
N2A N 0.94295(9) 0.2025(3) 0.3899(3)
H1A H 0.9247 0.1499 0.3143
N3A N 1.12052(9) 0.0805(3) 0.3865(3)
C1A C 1.02727(11) 0.1283(3) 0.3822(3)
C2A C 1.08924(11) 0.1331(4) 0.4560(3)
C3A C 1.11465(12) 0.1910(4) 0.5913(3)
H2A H 1.0926 0.2273 0.6380
C4A C 1.17224(12) 0.1941(4) 0.6546(3)
H3A H 1.1897 0.2330 0.7448
C5A C 1.20451(13) 0.1396(4) 0.5850(4)
H4A H 1.2438 0.1403 0.6265
C6A C 1.17692(12) 0.0846(4) 0.4533(4)
H5A H 1.1987 0.0472 0.4062
C7A C 0.91393(11) 0.2874(4) 0.4578(3)
C8A C 0.94167(13) 0.3820(4) 0.5727(3)
H6A H 0.9809 0.3918 0.6071
C9A C 0.91139(14) 0.4625(4) 0.6371(4)
H7A H 0.9304 0.5252 0.7158
C10A C 0.85380(15) 0.4512(4) 0.5867(4)
H8A H 0.8336 0.5062 0.6304
C11A C 0.82616(14) 0.3582(5) 0.4714(4)
H9A H 0.7869 0.3504 0.4364
C12A C 0.85589(12) 0.2756(4) 0.4064(4)
H10A H 0.8368 0.2123 0.3281
H12? H 0.9714 -0.0398 0.2599
loop_
_geom_bond_atom_site_label_1
_geom_bond_atom_site_label_2
_geom_bond_site_symmetry_1
_geom_bond_site_symmetry_2
N1 N2 1_555 1_555
N2 H1 1_555 1_555
N3 C2 1_555 1_555
C1 N1 1_555 1_555
C2 C1 1_555 1_555
C3 C2 1_555 1_555
H2 C3 1_555 1_555
C4 C3 1_555 1_555
H3 C4 1_555 1_555
C5 C4 1_555 1_555
H4 C5 1_555 1_555
C6 N3 1_555 1_555
H5 C6 1_555 1_555
C7 N2 1_555 1_555
C8 C7 1_555 1_555
H6 C8 1_555 1_555
C9 C8 1_555 1_555
H7 C9 1_555 1_555
C10 C9 1_555 1_555
H8 C10 1_555 1_555
C11 C10 1_555 1_555
H9 C11 1_555 1_555
C12 C7 1_555 1_555
H10 C12 1_555 1_555
C13 C1 1_555 1_555
H11 C13 1_555 1_555
H11A C13 1_555 1_555
N1A N2A 1_555 1_555
N2A H1A 1_555 1_555
N3A C2A 1_555 1_555
C1A C13 1_555 1_555
C2A C1A 1_555 1_555
C3A C2A 1_555 1_555
H2A C3A 1_555 1_555
C4A C3A 1_555 1_555
H3A C4A 1_555 1_555
C5A C4A 1_555 1_555
H4A C5A 1_555 1_555
C6A N3A 1_555 1_555
H5A C6A 1_555 1_555
C7A N2A 1_555 1_555
C8A C7A 1_555 1_555
H6A C8A 1_555 1_555
C9A C8A 1_555 1_555
H7A C9A 1_555 1_555
C10A C9A 1_555 1_555
H8A C10A 1_555 1_555
C11A C10A 1_555 1_555
H9A C11A 1_555 1_555
C12A C7A 1_555 1_555
H10A C12A 1_555 1_555
C5 C6 1_555 1_555
C11 C12 1_555 1_555
N1A C1A 1_555 1_555
C5A C6A 1_555 1_555
C11A C12A 1_555 1_555

#END
