
#######################################################################
#
#                 Cambridge Crystallographic Data Centre
#                                CCDC 
#
#######################################################################
#
# If this CIF has been generated from an entry in the Cambridge 
# Structural Database, then it will include bibliographic, chemical, 
# crystal, experimental, refinement or atomic coordinate data resulting 
# from the CCDC's data processing and validation procedures.
#
#######################################################################

data_APOQEC
_chemical_formula_moiety         '2(C1 H6 N3 1+),C14 H10 O6 S2 2-,3(C12 H10 N2)'
_chemical_name_systematic        
"bis(Guanidinium) 4,4'-stilbenedisulfonate tris(azobenzene) clathrate"
_symmetry_cell_setting           monoclinic
_symmetry_space_group_name_H-M   'P 21/n'
_symmetry_Int_Tables_number      14
_space_group_name_Hall           '-P 2yn'
loop_
_symmetry_equiv_pos_site_id
_symmetry_equiv_pos_as_xyz
1 x,y,z
2 1/2-x,1/2+y,1/2-z
3 -x,-y,-z
4 1/2+x,1/2-y,1/2+z
_cell_length_a                   7.6142(5)
_cell_length_b                   29.502(2)
_cell_length_c                   11.6308(8)
_cell_angle_alpha                90
_cell_angle_beta                 90.10
_cell_angle_gamma                90
_cell_volume                     2612.67
_exptl_crystal_colour            orange
_exptl_crystal_description       slab
_cell_formula_units_Z            2
_exptl_crystal_recrystallization_method methanol
loop_
_atom_site_label
_atom_site_type_symbol
_atom_site_fract_x
_atom_site_fract_y
_atom_site_fract_z
C1 C 0.4728(4) 0.76109(8) 0.3051(2)
N1 N 0.6206(3) 0.75717(8) 0.3622(2)
H21 H 0.7214 0.7617 0.3271
H22 H 0.6191 0.7500 0.4356
N2 N 0.3208(3) 0.75455(9) 0.3582(2)
H23 H 0.3193 0.7476 0.4318
H24 H 0.2216 0.7572 0.3199
N3 N 0.4727(3) 0.77185(7) 0.19512(16)
H25 H 0.5726 0.7765 0.1591
H26 H 0.3726 0.7744 0.1577
C2 C -0.0245(4) 0.84856(9) 0.12164(19)
C3 C -0.0935(3) 0.87944(12) 0.2003(2)
H1 H -0.1399 0.8692 0.2715
C4 C -0.0938(4) 0.92492(11) 0.1737(2)
H2 H -0.1406 0.9459 0.2277
C5 C -0.0274(4) 0.94111(10) 0.0699(2)
C6 C 0.0409(4) 0.90934(10) -0.0069(2)
H3 H 0.0873 0.9194 -0.0782
C7 C 0.0427(4) 0.86402(11) 0.0181(2)
H4 H 0.0901 0.8431 -0.0356
C8 C -0.0320(4) 0.98949(10) 0.0458(2)
H5 H -0.0870 1.0081 0.1019
O1 O 0.1292(2) 0.77084(7) 0.09833(18)
O2 O -0.0334(2) 0.78423(6) 0.27421(14)
O3 O -0.1875(2) 0.77239(7) 0.09474(17)
S1 S -0.02917(10) 0.79009(2) 0.15025(6)
C2B C 0.0245(4) 1.15144(9) -0.12164(19)
C3B C 0.0935(3) 1.12056(12) -0.2003(2)
H1B H 0.1399 1.1308 -0.2715
C4B C 0.0938(4) 1.07508(11) -0.1737(2)
H2B H 0.1406 1.0541 -0.2277
C5B C 0.0274(4) 1.05889(10) -0.0699(2)
C6B C -0.0409(4) 1.09066(10) 0.0069(2)
H3B H -0.0873 1.0806 0.0782
C7B C -0.0427(4) 1.13598(11) -0.0181(2)
H4B H -0.0901 1.1569 0.0356
C8B C 0.0320(4) 1.01051(10) -0.0458(2)
H5B H 0.0870 0.9919 -0.1019
O1B O -0.1292(2) 1.22916(7) -0.09833(18)
O2B O 0.0334(2) 1.21577(6) -0.27421(14)
O3B O 0.1875(2) 1.22761(7) -0.09474(17)
S1B S 0.02917(10) 1.20991(2) -0.15025(6)
C9 C 0.4738(5) -0.12074(11) 0.3826(3)
H6 H 0.4699 -0.1505 0.4137
C10 C 0.5592(4) -0.08711(12) 0.4411(3)
H7 H 0.6127 -0.0934 0.5132
C11 C 0.5675(4) -0.04450(12) 0.3956(3)
H8 H 0.6274 -0.0210 0.4354
C12 C 0.4883(4) -0.03601(12) 0.2918(3)
C13 C 0.4016(5) -0.06962(18) 0.2336(3)
H9 H 0.3473 -0.0636 0.1617
C14 C 0.3947(5) -0.11195(16) 0.2808(4)
H10 H 0.3337 -0.1355 0.2418
C15 C 0.5241(5) 0.16403(13) 0.1087(3)
H11 H 0.5162 0.1944 0.0820
C16 C 0.4554(5) 0.12928(17) 0.0437(3)
H12 H 0.4045 0.1355 -0.0292
C17 C 0.4605(5) 0.08541(15) 0.0845(4)
H13 H 0.4111 0.0615 0.0404
C18 C 0.5371(5) 0.07643(12) 0.1887(3)
C19 C 0.6110(4) 0.11071(13) 0.2509(3)
H14 H 0.6680 0.1042 0.3217
C20 C 0.6034(4) 0.15495(12) 0.2113(3)
H15 H 0.6531 0.1788 0.2554
N4 N 0.4770(5) 0.01041(16) 0.2108(3)
N5 N 0.5545(4) 0.02820(12) 0.2683(3)
C21 C 0.9491(5) 0.85518(11) 0.6179(3)
H16 H 0.9380 0.8237 0.6340
C22 C 0.8870(4) 0.88672(11) 0.6951(3)
H17 H 0.8336 0.8771 0.7647
C23 C 0.9023(4) 0.93236(11) 0.6711(2)
H18 H 0.8611 0.9542 0.7248
C24 C 0.9782(4) 0.94653(9) 0.5684(2)
C25 C 1.0430(4) 0.91453(10) 0.4918(2)
H19 H 1.0976 0.9239 0.4223
C26 C 1.0277(5) 0.86933(10) 0.5170(3)
H20 H 1.0717 0.8474 0.4645
N6 N 0.9828(3) 0.99445(7) 0.55038(16)
C21B C 1.0509(5) 1.14482(11) 0.3821(3)
H16B H 1.0620 1.1763 0.3660
C22B C 1.1130(4) 1.11328(11) 0.3049(3)
H17B H 1.1664 1.1229 0.2353
C23B C 1.0977(4) 1.06764(11) 0.3289(2)
H18B H 1.1389 1.0458 0.2752
C24B C 1.0218(4) 1.05347(9) 0.4316(2)
C25B C 0.9570(4) 1.08547(10) 0.5082(2)
H19B H 0.9024 1.0761 0.5777
C26B C 0.9723(5) 1.13067(10) 0.4830(3)
H20B H 0.9283 1.1526 0.5355
N6B N 1.0172(3) 1.00555(7) 0.44962(16)
loop_
_geom_bond_atom_site_label_1
_geom_bond_atom_site_label_2
_geom_bond_site_symmetry_1
_geom_bond_site_symmetry_2
C1 N1 1_555 1_555
C2 C3 1_555 1_555
C3 H1 1_555 1_555
C4 C3 1_555 1_555
H2 C4 1_555 1_555
C5 C4 1_555 1_555
C6 C5 1_555 1_555
H3 C6 1_555 1_555
C7 C2 1_555 1_555
H4 C7 1_555 1_555
C8 C5 1_555 1_555
H5 C8 1_555 1_555
C9 H6 1_555 1_555
C10 C9 1_555 1_555
H7 C10 1_555 1_555
C11 C10 1_555 1_555
H8 C11 1_555 1_555
C12 C11 1_555 1_555
C13 C12 1_555 1_555
H9 C13 1_555 1_555
C14 C9 1_555 1_555
H10 C14 1_555 1_555
C15 H11 1_555 1_555
C16 C15 1_555 1_555
H12 C16 1_555 1_555
C17 C16 1_555 1_555
H13 C17 1_555 1_555
C18 C17 1_555 1_555
C19 C18 1_555 1_555
H14 C19 1_555 1_555
C20 C15 1_555 1_555
H15 C20 1_555 1_555
C21 H16 1_555 1_555
C22 C21 1_555 1_555
H17 C22 1_555 1_555
C23 C22 1_555 1_555
H18 C23 1_555 1_555
C24 C23 1_555 1_555
C25 C24 1_555 1_555
H19 C25 1_555 1_555
C26 C21 1_555 1_555
H20 C26 1_555 1_555
N1 H21 1_555 1_555
H22 N1 1_555 1_555
N2 C1 1_555 1_555
H23 N2 1_555 1_555
H24 N2 1_555 1_555
N3 C1 1_555 1_555
H25 N3 1_555 1_555
H26 N3 1_555 1_555
N4 C12 1_555 1_555
N5 C18 1_555 1_555
N6 C24 1_555 1_555
O1 S1 1_555 1_555
O2 S1 1_555 1_555
O3 S1 1_555 1_555
S1 C2 1_555 1_555
C2B C3B 1_555 1_555
C3B H1B 1_555 1_555
C4B C3B 1_555 1_555
H2B C4B 1_555 1_555
C5B C4B 1_555 1_555
C6B C5B 1_555 1_555
H3B C6B 1_555 1_555
C7B C2B 1_555 1_555
H4B C7B 1_555 1_555
C8B C8 1_555 1_555
H5B C8B 1_555 1_555
C21B H16B 1_555 1_555
C22B C21B 1_555 1_555
H17B C22B 1_555 1_555
C23B C22B 1_555 1_555
H18B C23B 1_555 1_555
C24B C23B 1_555 1_555
C25B C24B 1_555 1_555
H19B C25B 1_555 1_555
C26B C21B 1_555 1_555
H20B C26B 1_555 1_555
N6B N6 1_555 1_555
O1B S1B 1_555 1_555
O2B S1B 1_555 1_555
O3B S1B 1_555 1_555
S1B C2B 1_555 1_555
C6 C7 1_555 1_555
C13 C14 1_555 1_555
C19 C20 1_555 1_555
C25 C26 1_555 1_555
N4 N5 1_555 1_555
C5B C8B 1_555 1_555
C6B C7B 1_555 1_555
C24B N6B 1_555 1_555
C25B C26B 1_555 1_555

#END
