
#######################################################################
#
#                 Cambridge Crystallographic Data Centre
#                                CCDC 
#
#######################################################################
#
# If this CIF has been generated from an entry in the Cambridge 
# Structural Database, then it will include bibliographic, chemical, 
# crystal, experimental, refinement or atomic coordinate data resulting 
# from the CCDC's data processing and validation procedures.
#
#######################################################################

data_APORAZ
_chemical_formula_moiety         '2(C1 H6 N3 1+),C14 H12 O6 S2 2-,3(C14 H12)'
_chemical_name_systematic        
'bis(Guanidinium) 1,2-bis(4-sulfonatophenyl)ethane tris(stilbene) clathrate'
_symmetry_cell_setting           monoclinic
_symmetry_space_group_name_H-M   'P 21/n'
_symmetry_Int_Tables_number      14
_space_group_name_Hall           '-P 2yn'
loop_
_symmetry_equiv_pos_site_id
_symmetry_equiv_pos_as_xyz
1 x,y,z
2 1/2-x,1/2+y,1/2-z
3 -x,-y,-z
4 1/2+x,1/2-y,1/2+z
_cell_length_a                   7.6384(5)
_cell_length_b                   30.908(2)
_cell_length_c                   11.3694(7)
_cell_angle_alpha                90
_cell_angle_beta                 90.739(1)
_cell_angle_gamma                90
_cell_volume                     2683.95
_exptl_crystal_colour            colorless
_exptl_crystal_description       slab
_cell_formula_units_Z            2
_exptl_crystal_recrystallization_method methanol
loop_
_atom_site_label
_atom_site_type_symbol
_atom_site_fract_x
_atom_site_fract_y
_atom_site_fract_z
C1 C 0.5622(2) 0.23610(5) 0.26773(14)
N1 N 0.71044(18) 0.24155(5) 0.21096(13)
H1 H 0.7085 0.2502 0.1372
H2 H 0.8111 0.2365 0.2469
N2 N 0.41096(18) 0.24360(5) 0.21416(13)
H3 H 0.4086 0.2522 0.1404
H4 H 0.3124 0.2399 0.2522
N3 N 0.56550(18) 0.22239(5) 0.37808(12)
H5 H 0.4669 0.2183 0.4156
H6 H 0.6663 0.2174 0.4139
C2 C 0.03774(19) 0.14890(5) 0.44645(13)
C3 C -0.0597(2) 0.12464(6) 0.36672(15)
H7 H -0.1031 0.1375 0.2963
C4 C -0.0931(2) 0.08165(6) 0.39034(16)
H8 H -0.1595 0.0651 0.3354
C5 C -0.0314(2) 0.06215(6) 0.49284(16)
C6 C 0.0700(2) 0.08694(6) 0.57004(15)
H9 H 0.1163 0.0739 0.6395
C7 C 0.1047(2) 0.12981(6) 0.54798(14)
H10 H 0.1740 0.1462 0.6018
C8 C -0.0721(2) 0.01542(6) 0.51963(18)
H11 H -0.1833 0.0073 0.4797
H12 H -0.0887 0.0121 0.6054
O1 O 0.06581(15) 0.21208(4) 0.29687(10)
O2 O 0.22563(14) 0.21779(4) 0.48228(10)
O3 O -0.08890(14) 0.22543(4) 0.47696(10)
S1 S 0.06310(5) 0.204992(14) 0.42331(3)
C2B C -0.03774(19) -0.14890(5) 0.55355(13)
C3B C 0.0597(2) -0.12464(6) 0.63328(15)
H7B H 0.1031 -0.1375 0.7037
C4B C 0.0931(2) -0.08165(6) 0.60966(16)
H8B H 0.1595 -0.0651 0.6646
C5B C 0.0314(2) -0.06215(6) 0.50716(16)
C6B C -0.0700(2) -0.08694(6) 0.42996(15)
H9B H -0.1163 -0.0739 0.3605
C7B C -0.1047(2) -0.12981(6) 0.45202(14)
H10B H -0.1740 -0.1462 0.3982
C8B C 0.0721(2) -0.01542(6) 0.48037(18)
H11B H 0.1833 -0.0073 0.5203
H12B H 0.0887 -0.0121 0.3946
O1B O -0.06581(15) -0.21208(4) 0.70313(10)
O2B O -0.22563(14) -0.21779(4) 0.51772(10)
O3B O 0.08890(14) -0.22543(4) 0.52304(10)
S1B S -0.06310(5) -0.204992(14) 0.57669(3)
C9 C 1.013(2) 0.8492(5) 0.0535(17)
H13 H 1.0264 0.8190 0.0675
C10 C 0.923(2) 0.8634(6) -0.0548(10)
H14 H 0.8773 0.8432 -0.1104
C11 C 0.908(2) 0.9061(4) -0.0714(14)
H15 H 0.8458 0.9160 -0.1392
C12 C 0.9779(12) 0.9367(4) 0.0050(9)
C13 C 1.061(2) 0.9226(4) 0.1075(12)
H16 H 1.1076 0.9432 0.1615
C14 C 1.0765(19) 0.8769(5) 0.1325(15)
H17 H 1.1304 0.8670 0.2033
C15 C 0.9607(5) 0.9831(2) -0.0265(4)
H18 H 0.8857 0.9896 -0.0914
C9B C 0.987(2) 1.1508(5) -0.0535(17)
H13B H 0.9736 1.1810 -0.0675
C10B C 1.077(2) 1.1366(6) 0.0548(10)
H14B H 1.1227 1.1568 0.1104
C11B C 1.092(2) 1.0939(4) 0.0714(14)
H15B H 1.1542 1.0840 0.1392
C12B C 1.0221(12) 1.0633(4) -0.0050(9)
C13B C 0.939(2) 1.0774(4) -0.1075(12)
H16B H 0.8924 1.0568 -0.1615
C14B C 0.9235(19) 1.1231(5) -0.1325(15)
H17B H 0.8696 1.1330 -0.2033
C15B C 1.0393(5) 1.0169(2) 0.0265(4)
H18B H 1.1143 1.0104 0.0914
C16 C 0.4722(2) -0.12289(6) 0.81125(19)
H19 H 0.4631 -0.1527 0.8303
C17 C 0.5528(2) -0.11032(7) 0.70979(19)
H20 H 0.5996 -0.1315 0.6585
C18 C 0.5663(2) -0.06710(6) 0.68180(17)
H21 H 0.6225 -0.0589 0.6112
C19 C 0.4990(2) -0.03526(6) 0.75532(15)
C20 C 0.4176(2) -0.04866(6) 0.85843(16)
H22 H 0.3709 -0.0277 0.9104
C21 C 0.4041(2) -0.09202(6) 0.88581(18)
H23 H 0.3479 -0.1007 0.9561
C22 C 0.5155(2) 0.01036(6) 0.72086(16)
H24 H 0.5737 0.0157 0.6489
C23 C 0.5409(2) 0.17749(6) 0.69161(18)
H25 H 0.5612 0.2071 0.6746
C24 C 0.5983(2) 0.14578(7) 0.61606(17)
H26 H 0.6576 0.1537 0.5463
C25 C 0.5702(2) 0.10274(6) 0.64111(16)
H27 H 0.6094 0.0813 0.5878
C26 C 0.4851(2) 0.09019(6) 0.74345(15)
C27 C 0.4255(2) 0.12265(6) 0.81785(16)
H28 H 0.3646 0.1150 0.8872
C28 C 0.4537(3) 0.16574(7) 0.79234(18)
H29 H 0.4127 0.1874 0.8444
C29 C 0.4595(2) 0.04476(6) 0.77737(16)
H30 H 0.3960 0.0397 0.8473
C30? C 1.070(5) 0.8741(16) 0.121(4)
C31? C 1.075(5) 0.9137(10) 0.129(3)
C32? C 1.007(3) 0.9415(10) 0.039(2)
C33? C 0.931(4) 0.9185(9) -0.054(3)
C34? C 0.927(5) 0.8715(15) -0.048(3)
C35? C 1.0213(12) 0.9864(5) 0.0413(10)
C36? C 0.990(5) 0.8477(12) 0.028(4)
H31? H 1.1261 0.8586 0.1835
H32? H 1.1251 0.9264 0.1972
H33? H 0.8831 0.9333 -0.1199
H34? H 0.8683 0.8573 -0.1111
H35? H 1.0676 0.9987 0.1117
H36? H 0.9865 0.8170 0.0273
loop_
_geom_bond_atom_site_label_1
_geom_bond_atom_site_label_2
_geom_bond_site_symmetry_1
_geom_bond_site_symmetry_2
C1 N1 1_555 1_555
N1 H1 1_555 1_555
H2 N1 1_555 1_555
N2 C1 1_555 1_555
H3 N2 1_555 1_555
H4 N2 1_555 1_555
N3 C1 1_555 1_555
H5 N3 1_555 1_555
H6 N3 1_555 1_555
C2 C3 1_555 1_555
C3 H7 1_555 1_555
C4 C3 1_555 1_555
H8 C4 1_555 1_555
C5 C4 1_555 1_555
C6 C5 1_555 1_555
H9 C6 1_555 1_555
C7 C2 1_555 1_555
H10 C7 1_555 1_555
C8 C5 1_555 1_555
H11 C8 1_555 1_555
H12 C8 1_555 1_555
O1 S1 1_555 1_555
O2 S1 1_555 1_555
O3 S1 1_555 1_555
S1 C2 1_555 1_555
C9 H13 1_555 1_555
C10 C9 1_555 1_555
H14 C10 1_555 1_555
C11 C10 1_555 1_555
H15 C11 1_555 1_555
C12 C11 1_555 1_555
C13 C12 1_555 1_555
H16 C13 1_555 1_555
C14 C9 1_555 1_555
H17 C14 1_555 1_555
C15 C12 1_555 1_555
H18 C15 1_555 1_555
C16 H19 1_555 1_555
C17 C16 1_555 1_555
H20 C17 1_555 1_555
C18 C17 1_555 1_555
H21 C18 1_555 1_555
C19 C18 1_555 1_555
C20 C19 1_555 1_555
H22 C20 1_555 1_555
C21 C16 1_555 1_555
H23 C21 1_555 1_555
C22 C19 1_555 1_555
H24 C22 1_555 1_555
C23 H25 1_555 1_555
C24 C23 1_555 1_555
H26 C24 1_555 1_555
C25 C24 1_555 1_555
H27 C25 1_555 1_555
C26 C25 1_555 1_555
C27 C26 1_555 1_555
H28 C27 1_555 1_555
C28 C23 1_555 1_555
H29 C28 1_555 1_555
C29 C22 1_555 1_555
H30 C29 1_555 1_555
C2B C3B 1_555 1_555
C3B H7B 1_555 1_555
C4B C3B 1_555 1_555
H8B C4B 1_555 1_555
C5B C4B 1_555 1_555
C6B C5B 1_555 1_555
H9B C6B 1_555 1_555
C7B C2B 1_555 1_555
H10B C7B 1_555 1_555
C8B C8 1_555 1_555
H11B C8B 1_555 1_555
H12B C8B 1_555 1_555
O1B S1B 1_555 1_555
O2B S1B 1_555 1_555
O3B S1B 1_555 1_555
S1B C2B 1_555 1_555
C9B H13B 1_555 1_555
C10B C9B 1_555 1_555
H14B C10B 1_555 1_555
C11B C10B 1_555 1_555
H15B C11B 1_555 1_555
C12B C11B 1_555 1_555
C13B C12B 1_555 1_555
H16B C13B 1_555 1_555
C14B C9B 1_555 1_555
H17B C14B 1_555 1_555
C15B C15 1_555 1_555
H18B C15B 1_555 1_555
C6 C7 1_555 1_555
C13 C14 1_555 1_555
C20 C21 1_555 1_555
C26 C29 1_555 1_555
C27 C28 1_555 1_555
C5B C8B 1_555 1_555
C6B C7B 1_555 1_555
C12B C15B 1_555 1_555
C13B C14B 1_555 1_555

#END
