
#######################################################################
#
#                 Cambridge Crystallographic Data Centre
#                                CCDC 
#
#######################################################################
#
# If this CIF has been generated from an entry in the Cambridge 
# Structural Database, then it will include bibliographic, chemical, 
# crystal, experimental, refinement or atomic coordinate data resulting 
# from the CCDC's data processing and validation procedures.
#
#######################################################################

data_APOSAA
_chemical_formula_moiety         '2(C1 H6 N3 1+),C14 H12 O6 S2 2-,3(C14 H14)'
_chemical_name_systematic        
'bis(Guanidinium) 1,2-bis(4-sulfonatophenyl)ethane tris(1,2-diphenylethane) clathrate'
_symmetry_cell_setting           monoclinic
_symmetry_space_group_name_H-M   'P 21/n'
_symmetry_Int_Tables_number      14
_space_group_name_Hall           '-P 2yn'
loop_
_symmetry_equiv_pos_site_id
_symmetry_equiv_pos_as_xyz
1 x,y,z
2 1/2-x,1/2+y,1/2-z
3 -x,-y,-z
4 1/2+x,1/2-y,1/2+z
_cell_length_a                   7.7503(6)
_cell_length_b                   30.182(2)
_cell_length_c                   11.5482(9)
_cell_angle_alpha                90
_cell_angle_beta                 90.583(2)
_cell_angle_gamma                90
_cell_volume                     2701.21
_exptl_crystal_colour            colorless
_exptl_crystal_description       slab
_cell_formula_units_Z            2
_exptl_crystal_recrystallization_method methanol
loop_
_atom_site_label
_atom_site_type_symbol
_atom_site_fract_x
_atom_site_fract_y
_atom_site_fract_z
C1 C 0.9268(2) 0.24026(6) 0.25128(16)
N1 N 1.0755(2) 0.24617(6) 0.19783(14)
H1 H 1.1734 0.2420 0.2355
H2 H 1.0764 0.2543 0.1247
N2 N 0.7799(2) 0.24634(5) 0.19377(14)
H3 H 0.6808 0.2422 0.2287
H4 H 0.7814 0.2545 0.1206
N3 N 0.9250(2) 0.22805(5) 0.36105(13)
H5 H 1.0228 0.2238 0.3989
H6 H 0.8261 0.2241 0.3964
C2 C 0.4596(2) 0.15182(6) 0.41905(15)
C3 C 0.5558(2) 0.12786(6) 0.33976(17)
H7 H 0.5999 0.1420 0.2728
C4 C 0.5867(3) 0.08354(7) 0.35878(19)
H8 H 0.6523 0.0673 0.3043
C5 C 0.5242(2) 0.06226(6) 0.4554(2)
C6 C 0.4278(3) 0.08667(7) 0.53371(19)
H9 H 0.3838 0.0725 0.6006
C7 C 0.3944(2) 0.13130(6) 0.51615(17)
H10 H 0.3276 0.1475 0.5701
C8 C 0.5631(3) 0.01349(7) 0.4723(3)
H11 H 0.5855 0.0005 0.3952
H12 H 0.6717 0.0112 0.5179
O1 O 0.42875(17) 0.21790(4) 0.27621(11)
O2 O 0.58218(16) 0.23005(4) 0.45653(11)
O3 O 0.27236(15) 0.22140(4) 0.45667(11)
S1 S 0.43258(6) 0.209425(15) 0.39990(4)
C2B C 0.5404(2) -0.15182(6) 0.58095(15)
C3B C 0.4442(2) -0.12786(6) 0.66024(17)
H7B H 0.4001 -0.1420 0.7272
C4B C 0.4133(3) -0.08354(7) 0.64122(19)
H8B H 0.3477 -0.0673 0.6957
C5B C 0.4758(2) -0.06226(6) 0.5446(2)
C6B C 0.5722(3) -0.08667(7) 0.46629(19)
H9B H 0.6162 -0.0725 0.3994
C7B C 0.6056(2) -0.13130(6) 0.48385(17)
H10B H 0.6724 -0.1475 0.4299
C8B C 0.4369(3) -0.01349(7) 0.5277(3)
H11B H 0.4145 -0.0005 0.6048
H12B H 0.3283 -0.0112 0.4821
O1B O 0.57125(17) -0.21790(4) 0.72379(11)
O2B O 0.41782(16) -0.23005(4) 0.54347(11)
O3B O 0.72764(15) -0.22140(4) 0.54333(11)
S1B S 0.56742(6) -0.209425(15) 0.60010(4)
C9 C -0.0394(3) 1.12678(7) 0.1655(2)
H13 H -0.0670 1.1569 0.1497
C10 C 0.0474(3) 1.11578(7) 0.2655(2)
H14 H 0.0802 1.1383 0.3188
C11 C 0.0875(3) 1.07211(7) 0.28909(18)
H15 H 0.1466 1.0648 0.3590
C12 C 0.0424(2) 1.03870(6) 0.21188(17)
C13 C -0.0453(2) 1.05061(6) 0.11166(17)
H16 H -0.0779 1.0282 0.0579
C14 C -0.0866(3) 1.09410(7) 0.08778(18)
H17 H -0.1470 1.1015 0.0185
C15 C 0.0839(3) 0.99067(7) 0.23672(19)
H18 H 0.1863 0.9893 0.2886
H19 H 0.1142 0.9758 0.1632
C16 C 0.0573(3) 0.82769(7) 0.3349(2)
H20 H 0.0850 0.7972 0.3441
C17 C -0.0321(3) 0.84173(7) 0.2381(2)
H21 H -0.0658 0.8210 0.1803
C18 C -0.0731(3) 0.88619(7) 0.22495(19)
H22 H -0.1351 0.8956 0.1580
C19 C -0.0249(2) 0.91703(7) 0.30804(17)
C20 C 0.0654(3) 0.90217(7) 0.40491(18)
H23 H 0.0995 0.9228 0.4630
C21 C 0.1064(3) 0.85775(7) 0.41811(19)
H24 H 0.1685 0.8481 0.4848
C22 C -0.0636(3) 0.96556(7) 0.2925(2)
H25 H -0.0878 0.9788 0.3691
H26 H -0.1686 0.9688 0.2437
C23 C 0.4740(3) 0.84921(8) 0.0779(2)
H27 H 0.4502 0.8186 0.0889
C24 C 0.4278(3) 0.87953(8) 0.1607(2)
H28 H 0.3723 0.8700 0.2293
C25 C 0.4621(3) 0.92385(7) 0.14381(18)
H29 H 0.4303 0.9446 0.2016
C26 C 0.5417(2) 0.93873(7) 0.04471(18)
C27 C 0.5881(3) 0.90762(8) -0.03735(18)
H30 H 0.6438 0.9170 -0.1060
C28 C 0.5546(3) 0.86317(8) -0.0207(2)
H31 H 0.5874 0.8422 -0.0778
C29 C 0.5760(3) 0.98750(7) 0.0263(2)
H32 H 0.6766 0.9908 -0.0252
H33 H 0.6066 1.0012 0.1017
C23B C 0.5260(3) 1.15079(8) -0.0779(2)
H27B H 0.5498 1.1814 -0.0889
C24B C 0.5722(3) 1.12047(8) -0.1607(2)
H28B H 0.6277 1.1300 -0.2293
C25B C 0.5379(3) 1.07615(7) -0.14381(18)
H29B H 0.5697 1.0554 -0.2016
C26B C 0.4583(2) 1.06127(7) -0.04471(18)
C27B C 0.4119(3) 1.09238(8) 0.03735(18)
H30B H 0.3562 1.0830 0.1060
C28B C 0.4454(3) 1.13683(8) 0.0207(2)
H31B H 0.4126 1.1578 0.0778
C29B C 0.4240(3) 1.01250(7) -0.0263(2)
H32B H 0.3234 1.0092 0.0252
H33B H 0.3934 0.9988 -0.1017
loop_
_geom_bond_atom_site_label_1
_geom_bond_atom_site_label_2
_geom_bond_site_symmetry_1
_geom_bond_site_symmetry_2
C1 N1 1_555 1_555
N1 H1 1_555 1_555
H2 N1 1_555 1_555
N2 C1 1_555 1_555
H3 N2 1_555 1_555
H4 N2 1_555 1_555
N3 C1 1_555 1_555
H5 N3 1_555 1_555
H6 N3 1_555 1_555
C2 C3 1_555 1_555
C3 H7 1_555 1_555
C4 C3 1_555 1_555
H8 C4 1_555 1_555
C5 C4 1_555 1_555
C6 C5 1_555 1_555
H9 C6 1_555 1_555
C7 C2 1_555 1_555
H10 C7 1_555 1_555
C8 C5 1_555 1_555
H11 C8 1_555 1_555
H12 C8 1_555 1_555
O1 S1 1_555 1_555
O2 S1 1_555 1_555
O3 S1 1_555 1_555
S1 C2 1_555 1_555
C9 H13 1_555 1_555
C10 C9 1_555 1_555
H14 C10 1_555 1_555
C11 C10 1_555 1_555
H15 C11 1_555 1_555
C12 C11 1_555 1_555
C13 C12 1_555 1_555
H16 C13 1_555 1_555
C14 C9 1_555 1_555
H17 C14 1_555 1_555
C15 C12 1_555 1_555
H18 C15 1_555 1_555
H19 C15 1_555 1_555
C16 H20 1_555 1_555
C17 C16 1_555 1_555
H21 C17 1_555 1_555
C18 C17 1_555 1_555
H22 C18 1_555 1_555
C19 C18 1_555 1_555
C20 C19 1_555 1_555
H23 C20 1_555 1_555
C21 C16 1_555 1_555
H24 C21 1_555 1_555
C22 C15 1_555 1_555
H25 C22 1_555 1_555
H26 C22 1_555 1_555
C23 H27 1_555 1_555
C24 C23 1_555 1_555
H28 C24 1_555 1_555
C25 C24 1_555 1_555
H29 C25 1_555 1_555
C26 C25 1_555 1_555
C27 C26 1_555 1_555
H30 C27 1_555 1_555
C28 C23 1_555 1_555
H31 C28 1_555 1_555
C29 C26 1_555 1_555
H32 C29 1_555 1_555
H33 C29 1_555 1_555
C2B C3B 1_555 1_555
C3B H7B 1_555 1_555
C4B C3B 1_555 1_555
H8B C4B 1_555 1_555
C5B C4B 1_555 1_555
C6B C5B 1_555 1_555
H9B C6B 1_555 1_555
C7B C2B 1_555 1_555
H10B C7B 1_555 1_555
C8B C8 1_555 1_555
H11B C8B 1_555 1_555
H12B C8B 1_555 1_555
O1B S1B 1_555 1_555
O2B S1B 1_555 1_555
O3B S1B 1_555 1_555
S1B C2B 1_555 1_555
C23B H27B 1_555 1_555
C24B C23B 1_555 1_555
H28B C24B 1_555 1_555
C25B C24B 1_555 1_555
H29B C25B 1_555 1_555
C26B C25B 1_555 1_555
C27B C26B 1_555 1_555
H30B C27B 1_555 1_555
C28B C23B 1_555 1_555
H31B C28B 1_555 1_555
C29B C29 1_555 1_555
H32B C29B 1_555 1_555
H33B C29B 1_555 1_555
C6 C7 1_555 1_555
C13 C14 1_555 1_555
C19 C22 1_555 1_555
C20 C21 1_555 1_555
C27 C28 1_555 1_555
C5B C8B 1_555 1_555
C6B C7B 1_555 1_555
C26B C29B 1_555 1_555
C27B C28B 1_555 1_555

#END
