
#######################################################################
#
#                 Cambridge Crystallographic Data Centre
#                                CCDC 
#
#######################################################################
#
# If this CIF has been generated from an entry in the Cambridge 
# Structural Database, then it will include bibliographic, chemical, 
# crystal, experimental, refinement or atomic coordinate data resulting 
# from the CCDC's data processing and validation procedures.
#
#######################################################################

data_APOSEE
_chemical_formula_moiety         '2(C1 H6 N3 1+),C14 H10 O6 S2 2-,3(C14 H14)'
_chemical_name_systematic        
"bis(Guanidinium) 4,4'-stilbenedisulfonate tris(1,2-diphenylethane) clathrate"
_symmetry_cell_setting           monoclinic
_symmetry_space_group_name_H-M   'P 21/n'
_symmetry_Int_Tables_number      14
_space_group_name_Hall           '-P 2yn'
loop_
_symmetry_equiv_pos_site_id
_symmetry_equiv_pos_as_xyz
1 x,y,z
2 1/2-x,1/2+y,1/2-z
3 -x,-y,-z
4 1/2+x,1/2-y,1/2+z
_cell_length_a                   7.7596(5)
_cell_length_b                   30.2152(19)
_cell_length_c                   11.5130(7)
_cell_angle_alpha                90
_cell_angle_beta                 90.739(1)
_cell_angle_gamma                90
_cell_volume                     2699.09
_exptl_crystal_colour            colorless
_exptl_crystal_description       plate
_cell_formula_units_Z            2
_exptl_crystal_recrystallization_method methanol
loop_
_atom_site_label
_atom_site_type_symbol
_atom_site_fract_x
_atom_site_fract_y
_atom_site_fract_z
S1 S 0.56252(4) 0.209353(12) 0.60272(3)
C2 C 0.54161(17) 0.15148(5) 0.58646(12)
C3 C 0.47208(19) 0.01273(5) 0.54243(13)
H1 H 0.4104 -0.0016 0.6024
C5 C 0.60679(19) 0.13085(5) 0.48841(13)
H2 H 0.6675 0.1476 0.4323
C6 C 0.49463(18) 0.06064(5) 0.55449(13)
C8 C 0.58300(19) 0.08609(5) 0.47287(13)
H3 H 0.6274 0.0722 0.4055
C10 C 0.45224(19) 0.12718(5) 0.66780(13)
H5 H 0.4067 0.1413 0.7344
C11 C 0.4296(2) 0.08220(5) 0.65150(14)
H6 H 0.3684 0.0656 0.7077
O1 O 0.72225(13) 0.22183(4) 0.54594(9)
O2 O 0.41211(13) 0.22862(4) 0.54388(9)
O3 O 0.56450(14) 0.21872(4) 0.72647(9)
S1B S 0.43748(4) -0.209353(12) 0.39728(3)
C2B C 0.45839(17) -0.15148(5) 0.41354(12)
C3B C 0.52792(19) -0.01273(5) 0.45757(13)
H1B H 0.5896 0.0016 0.3976
C5B C 0.39321(19) -0.13085(5) 0.51159(13)
H2B H 0.3325 -0.1476 0.5677
C6B C 0.50537(18) -0.06064(5) 0.44551(13)
C8B C 0.41700(19) -0.08609(5) 0.52713(13)
H3B H 0.3726 -0.0722 0.5945
C10B C 0.54776(19) -0.12718(5) 0.33220(13)
H5B H 0.5933 -0.1413 0.2656
C11B C 0.5704(2) -0.08220(5) 0.34850(14)
H6B H 0.6316 -0.0656 0.2923
O1B O 0.27775(13) -0.22183(4) 0.45406(9)
O2B O 0.58789(13) -0.22862(4) 0.45612(9)
O3B O 0.43550(14) -0.21872(4) 0.27353(9)
C1 C 0.06861(18) 0.24106(5) 0.74954(13)
N1 N 0.07051(16) 0.22884(4) 0.63929(11)
H27 H -0.0271 0.2245 0.6012
H28 H 0.1694 0.2250 0.6040
N2 N 0.21554(16) 0.24725(4) 0.80731(12)
H29 H 0.2142 0.2552 0.8808
H30 H 0.3144 0.2434 0.7721
N3 N -0.07933(16) 0.24685(5) 0.80273(12)
H31 H -0.1771 0.2426 0.7648
H32 H -0.0802 0.2550 0.8761
C4 C 0.95712(18) 1.04065(5) 0.78664(14)
C7 C 1.02093(19) 0.91954(5) 0.68542(14)
C9 C 1.0433(2) 1.05070(5) 0.88936(15)
H4 H 1.0725 1.0275 0.9416
C12 C 0.9272(2) 0.90488(6) 0.58919(15)
H7 H 0.8894 0.9256 0.5323
C14 C 1.0606(2) 0.96797(6) 0.70207(16)
H9 H 1.0868 0.9813 0.6258
H10 H 1.1646 0.9710 0.7522
C15 C 1.0732(2) 0.88838(6) 0.76696(15)
H11 H 1.1375 0.8976 0.8335
C16 C 0.8882(2) 0.86057(6) 0.57514(16)
H12 H 0.8244 0.8511 0.5087
C17 C 0.9163(2) 1.07518(6) 0.71213(15)
H13 H 0.8585 1.0692 0.6406
C18 C 1.0877(2) 1.09359(6) 0.91757(16)
H14 H 1.1478 1.0997 0.9882
C19 C 0.9411(2) 0.83020(6) 0.65650(17)
H15 H 0.9143 0.7997 0.6465
C22 C 1.0445(2) 1.12750(6) 0.84299(18)
H17 H 1.0738 1.1572 0.8621
C24 C 0.9119(2) 0.99332(6) 0.75695(16)
H20 H 0.8121 0.9932 0.7025
H21 H 0.8768 0.9778 0.8286
C25 C 1.0333(2) 0.84404(6) 0.75291(17)
H22 H 1.0694 0.8231 0.8098
C26 C 0.9590(2) 1.11831(6) 0.74099(18)
H23 H 0.9288 1.1417 0.6896
C13 C 0.4635(2) 0.07471(6) 0.15024(15)
H8 H 0.4316 0.0536 0.2072
C20 C 0.4296(2) 0.11887(7) 0.16894(17)
H16 H 0.3745 0.1280 0.2381
C21 C 0.54309(19) 0.06051(5) 0.05003(14)
C23 C 0.5756(2) 0.01189(6) 0.02853(17)
H18 H 0.6028 -0.0027 0.1036
H19 H 0.6776 0.0088 -0.0216
C27 C 0.5571(3) 0.13651(7) -0.01166(18)
H24 H 0.5909 0.1579 -0.0674
C28 C 0.5904(2) 0.09213(6) -0.03073(15)
H25 H 0.6463 0.0832 -0.0999
C29 C 0.4758(3) 0.14964(7) 0.08716(19)
H26 H 0.4511 0.1801 0.0993
C13B C 0.5365(2) -0.07471(6) -0.15024(15)
H8B H 0.5684 -0.0536 -0.2072
C20B C 0.5704(2) -0.11887(7) -0.16894(17)
H16B H 0.6255 -0.1280 -0.2381
C21B C 0.45691(19) -0.06051(5) -0.05003(14)
C23B C 0.4244(2) -0.01189(6) -0.02853(17)
H18B H 0.3972 0.0027 -0.1036
H19B H 0.3224 -0.0088 0.0216
C27B C 0.4429(3) -0.13651(7) 0.01166(18)
H24B H 0.4091 -0.1579 0.0674
C28B C 0.4096(2) -0.09213(6) 0.03073(15)
H25B H 0.3537 -0.0832 0.0999
C29B C 0.5242(3) -0.14964(7) -0.08716(19)
H26B H 0.5489 -0.1801 -0.0993
loop_
_geom_bond_atom_site_label_1
_geom_bond_atom_site_label_2
_geom_bond_site_symmetry_1
_geom_bond_site_symmetry_2
S1 C2 1_555 1_555
C1 N1 1_555 1_555
C2 C5 1_555 1_555
C3 H1 1_555 1_555
C4 C9 1_555 1_555
C5 H2 1_555 1_555
C6 C3 1_555 1_555
C7 C12 1_555 1_555
C8 C5 1_555 1_555
H3 C8 1_555 1_555
C9 H4 1_555 1_555
C10 C2 1_555 1_555
H5 C10 1_555 1_555
C11 C6 1_555 1_555
H6 C11 1_555 1_555
C12 H7 1_555 1_555
C13 H8 1_555 1_555
C14 C7 1_555 1_555
H9 C14 1_555 1_555
H10 C14 1_555 1_555
C15 C7 1_555 1_555
H11 C15 1_555 1_555
C16 C12 1_555 1_555
H12 C16 1_555 1_555
C17 C4 1_555 1_555
H13 C17 1_555 1_555
C18 C9 1_555 1_555
H14 C18 1_555 1_555
C19 C16 1_555 1_555
H15 C19 1_555 1_555
C20 C13 1_555 1_555
H16 C20 1_555 1_555
C21 C13 1_555 1_555
C22 C18 1_555 1_555
H17 C22 1_555 1_555
C23 C21 1_555 1_555
H18 C23 1_555 1_555
H19 C23 1_555 1_555
C24 C4 1_555 1_555
H20 C24 1_555 1_555
H21 C24 1_555 1_555
C25 C15 1_555 1_555
H22 C25 1_555 1_555
C26 C17 1_555 1_555
H23 C26 1_555 1_555
C27 H24 1_555 1_555
C28 C21 1_555 1_555
H25 C28 1_555 1_555
C29 C20 1_555 1_555
H26 C29 1_555 1_555
N1 H27 1_555 1_555
H28 N1 1_555 1_555
N2 C1 1_555 1_555
H29 N2 1_555 1_555
H30 N2 1_555 1_555
N3 C1 1_555 1_555
H31 N3 1_555 1_555
H32 N3 1_555 1_555
O1 S1 1_555 1_555
O2 S1 1_555 1_555
O3 S1 1_555 1_555
S1B C2B 1_555 1_555
C2B C5B 1_555 1_555
C3B C3 1_555 1_555
H1B C3B 1_555 1_555
C5B H2B 1_555 1_555
C6B C3B 1_555 1_555
C8B C5B 1_555 1_555
H3B C8B 1_555 1_555
C10B C2B 1_555 1_555
H5B C10B 1_555 1_555
C11B C6B 1_555 1_555
H6B C11B 1_555 1_555
C13B H8B 1_555 1_555
C20B C13B 1_555 1_555
H16B C20B 1_555 1_555
C21B C13B 1_555 1_555
C23B C23 1_555 1_555
H18B C23B 1_555 1_555
H19B C23B 1_555 1_555
C27B H24B 1_555 1_555
C28B C21B 1_555 1_555
H25B C28B 1_555 1_555
C29B C20B 1_555 1_555
H26B C29B 1_555 1_555
O1B S1B 1_555 1_555
O2B S1B 1_555 1_555
O3B S1B 1_555 1_555
C6 C8 1_555 1_555
C10 C11 1_555 1_555
C14 C24 1_555 1_555
C19 C25 1_555 1_555
C22 C26 1_555 1_555
C27 C28 1_555 1_555
C27 C29 1_555 1_555
C6B C8B 1_555 1_555
C10B C11B 1_555 1_555
C21B C23B 1_555 1_555
C27B C28B 1_555 1_555
C27B C29B 1_555 1_555

#END
