
#######################################################################
#
#                 Cambridge Crystallographic Data Centre
#                                CCDC 
#
#######################################################################
#
# If this CIF has been generated from an entry in the Cambridge 
# Structural Database, then it will include bibliographic, chemical, 
# crystal, experimental, refinement or atomic coordinate data resulting 
# from the CCDC's data processing and validation procedures.
#
#######################################################################

data_APOSUU
_chemical_formula_moiety         '2(C1 H6 N3 1+),C14 H10 O6 S2 2-,C6 H4 S4'
_chemical_name_systematic        
"bis(Guanidinium) 4,4'-stilbenedisulfonate tetrathiafulvalene clathrate"
_symmetry_cell_setting           monoclinic
_symmetry_space_group_name_H-M   'C 2'
_symmetry_Int_Tables_number      5
_space_group_name_Hall           'C 2y'
loop_
_symmetry_equiv_pos_site_id
_symmetry_equiv_pos_as_xyz
1 x,y,z
2 -x,y,-z
3 1/2+x,1/2+y,z
4 1/2-x,1/2+y,-z
_cell_length_a                   34.320(4)
_cell_length_b                   8.1261(8)
_cell_length_c                   10.1674(10)
_cell_angle_alpha                90
_cell_angle_beta                 99.663(3)
_cell_angle_gamma                90
_cell_volume                     2795.33
_exptl_crystal_colour            red
_exptl_crystal_description       plate
_cell_formula_units_Z            4
_exptl_crystal_recrystallization_method methanol
loop_
_atom_site_label
_atom_site_type_symbol
_atom_site_fract_x
_atom_site_fract_y
_atom_site_fract_z
C1 C -0.03589(4) -0.8270(3) -0.61632(15)
N1 N -0.05956(4) -0.8227(3) -0.52419(14)
H1 H -0.0673 -0.7276 -0.4963
H2 H -0.0673 -0.9151 -0.4915
N2 N -0.02506(5) -0.9709(2) -0.66067(17)
H3 H -0.0101 -0.9741 -0.7229
H4 H -0.0329 -1.0631 -0.6279
N3 N -0.02426(5) -0.6880(2) -0.66511(17)
H5 H -0.0093 -0.6904 -0.7273
H6 H -0.0315 -0.5930 -0.6354
C2 C -0.05265(5) -0.3285(3) -0.98867(17)
N4 N -0.05501(5) -0.4717(2) -0.92677(19)
H7 H -0.0583 -0.4734 -0.8427
H8 H -0.0533 -0.5646 -0.9699
N5 N -0.05530(5) -0.1916(2) -0.92063(17)
H9 H -0.0546 -0.0954 -0.9600
H10 H -0.0577 -0.1966 -0.8359
N6 N -0.04896(4) -0.3238(3) -1.11692(14)
H11 H -0.0483 -0.2286 -1.1576
H12 H -0.0472 -0.4160 -1.1610
C3 C -0.10513(4) -0.8263(3) -0.22107(15)
C4 C -0.11974(6) -0.9492(3) -0.3093(2)
H13 H -0.1029 -1.0348 -0.3300
C5 C -0.15969(7) -0.9461(3) -0.3680(2)
H14 H -0.1697 -1.0276 -0.4319
C6 C -0.18460(13) -0.8268(9) -0.3344(9)
C7 C -0.16932(7) -0.6981(3) -0.2505(2)
H15 H -0.1860 -0.6105 -0.2328
C8 C -0.12969(7) -0.6984(3) -0.1931(2)
H16 H -0.1193 -0.6118 -0.1349
C9 C -0.22703(10) -0.8406(4) -0.3890(5)
H17 H -0.2347 -0.9135 -0.4618
S1 S -0.055714(11) -0.83091(6) -0.13585(4)
O1 O -0.05834(3) -0.8376(2) 0.00576(11)
O2 O -0.03715(4) -0.67902(17) -0.17112(14)
O3 O -0.03765(4) -0.97779(17) -0.18194(15)
C10 C -0.38091(5) -0.8151(3) -0.44456(16)
C11 C -0.35670(7) -0.9048(3) -0.5125(2)
H18 H -0.3679 -0.9787 -0.5809
C12 C -0.31576(7) -0.8871(3) -0.4810(2)
H19 H -0.2992 -0.9517 -0.5266
C13 C -0.29884(7) -0.7756(3) -0.3833(2)
C14 C -0.32358(7) -0.6828(3) -0.3174(2)
H20 H -0.3124 -0.6068 -0.2507
C15 C -0.36453(7) -0.6991(3) -0.3473(2)
H21 H -0.3812 -0.6332 -0.3030
C16 C -0.25572(7) -0.7560(3) -0.3420(2)
H22 H -0.2473 -0.6756 -0.2754
S2 S -0.432923(11) -0.83010(6) -0.48058(4)
O4 O -0.44593(4) -0.8401(2) -0.35036(12)
O5 O -0.44236(5) -0.97828(19) -0.55980(16)
O6 O -0.44677(4) -0.67990(18) -0.55108(15)
C17 C -0.26070(11) -0.8204(6) -0.8850(4)
C18 C -0.22122(10) -0.8116(4) -0.8592(3)
C19 C -0.33519(9) -0.7782(5) -0.8871(3)
H23 H -0.3598 -0.7438 -0.8654
C20 C -0.33355(9) -0.8570(4) -1.0001(4)
H24 H -0.3568 -0.8814 -1.0618
C21 C -0.14927(9) -0.7395(4) -0.7609(3)
H25 H -0.1262 -0.6974 -0.7063
C22 C -0.14721(14) -0.8133(12) -0.8761(7)
H26 H -0.1227 -0.8248 -0.9067
S3 S -0.29088(2) -0.73927(9) -0.77903(6)
S4 S -0.28679(2) -0.91449(9) -1.03128(7)
S5 S -0.19555(2) -0.72227(9) -0.71323(6)
S6 S -0.19073(2) -0.88823(10) -0.96947(7)
C23? C -0.3562(4) -0.7529(18) -0.5128(13)
C24? C -0.3153(4) -0.777(2) -0.4800(13)
C25? C -0.2987(4) -0.878(2) -0.3873(13)
C26? C -0.3248(4) -0.9763(18) -0.3173(13)
C27? C -0.3642(5) -0.9599(18) -0.3444(14)
C28? C -0.2564(4) -0.9061(19) -0.3470(12)
C29? C -0.2595(5) -0.848(4) -0.892(2)
C30? C -0.3339(4) -0.882(3) -0.8883(14)
C31? C -0.3313(4) -0.801(3) -1.000(2)
C32? C -0.2199(4) -0.848(3) -0.8607(17)
C33? C -0.1480(6) -0.918(3) -0.761(2)
C34? C -0.1456(6) -0.839(7) -0.874(4)
C35? C -0.1281(4) -0.9586(17) -0.1901(14)
C36? C -0.1686(4) -0.9590(17) -0.2505(15)
C37? C -0.1879(7) -0.822(5) -0.351(5)
C38? C -0.1588(3) -0.7088(15) -0.3680(11)
C39? C -0.1195(3) -0.7026(14) -0.3078(12)
C40? C -0.2309(6) -0.804(3) -0.394(3)
H27? H -0.3662 -0.6880 -0.5888
H28? H -0.2986 -0.7155 -0.5279
H29? H -0.3134 -1.0532 -0.2515
H30? H -0.3812 -1.0306 -0.3061
H31? H -0.2470 -0.9946 -0.2892
H32? H -0.3586 -0.9186 -0.8691
H33? H -0.3545 -0.7754 -1.0616
H34? H -0.1251 -0.9631 -0.7083
H35? H -0.1209 -0.8213 -0.9021
H36? H -0.1172 -1.0440 -0.1315
H37? H -0.1849 -1.0463 -0.2294
H38? H -0.1671 -0.6234 -0.4302
H39? H -0.1029 -0.6148 -0.3260
H40? H -0.2407 -0.7191 -0.4546
S7? S -0.29008(14) -0.9182(6) -0.7788(4)
S8? S -0.28540(17) -0.7426(7) -1.0314(4)
S9? S -0.19469(15) -0.9369(6) -0.7122(4)
S10? S -0.18945(17) -0.7687(7) -0.9693(5)
loop_
_geom_bond_atom_site_label_1
_geom_bond_atom_site_label_2
_geom_bond_site_symmetry_1
_geom_bond_site_symmetry_2
C1 N1 1_555 1_555
N1 H1 1_555 1_555
H2 N1 1_555 1_555
N2 C1 1_555 1_555
H3 N2 1_555 1_555
H4 N2 1_555 1_555
N3 C1 1_555 1_555
H5 N3 1_555 1_555
H6 N3 1_555 1_555
C2 N4 1_555 1_555
N4 H7 1_555 1_555
H8 N4 1_555 1_555
N5 C2 1_555 1_555
H9 N5 1_555 1_555
H10 N5 1_555 1_555
N6 C2 1_555 1_555
H11 N6 1_555 1_555
H12 N6 1_555 1_555
C3 C4 1_555 1_555
C4 H13 1_555 1_555
C5 C4 1_555 1_555
H14 C5 1_555 1_555
C6 C5 1_555 1_555
C7 C6 1_555 1_555
H15 C7 1_555 1_555
C8 C3 1_555 1_555
H16 C8 1_555 1_555
C9 C6 1_555 1_555
H17 C9 1_555 1_555
S1 C3 1_555 1_555
O1 S1 1_555 1_555
O2 S1 1_555 1_555
O3 S1 1_555 1_555
C10 C11 1_555 1_555
C11 H18 1_555 1_555
C12 C11 1_555 1_555
H19 C12 1_555 1_555
C13 C12 1_555 1_555
C14 C13 1_555 1_555
H20 C14 1_555 1_555
C15 C10 1_555 1_555
H21 C15 1_555 1_555
C16 C9 1_555 1_555
H22 C16 1_555 1_555
S2 C10 1_555 1_555
O4 S2 1_555 1_555
O5 S2 1_555 1_555
O6 S2 1_555 1_555
C17 C18 1_555 1_555
C18 S5 1_555 1_555
C19 H23 1_555 1_555
C20 C19 1_555 1_555
H24 C20 1_555 1_555
C21 H25 1_555 1_555
C22 C21 1_555 1_555
H26 C22 1_555 1_555
S3 C17 1_555 1_555
S4 C17 1_555 1_555
S5 C21 1_555 1_555
S6 C18 1_555 1_555
C7 C8 1_555 1_555
C13 C16 1_555 1_555
C14 C15 1_555 1_555
C19 S3 1_555 1_555
C20 S4 1_555 1_555
C22 S6 1_555 1_555

#END
