
#######################################################################
#
#                 Cambridge Crystallographic Data Centre
#                                CCDC 
#
#######################################################################
#
# If this CIF has been generated from an entry in the Cambridge 
# Structural Database, then it will include bibliographic, chemical, 
# crystal, experimental, refinement or atomic coordinate data resulting 
# from the CCDC's data processing and validation procedures.
#
#######################################################################

data_APOSOO
_chemical_formula_moiety         '2(C1 H6 N3 1+),C12 H8 N2 O6 S2 2-,C6 H4 S4'
_chemical_name_systematic        
"bis(Guanidinium) 4,4'-azobenzenedisulfonate tetrathiafulvalene clathrate"
_symmetry_cell_setting           triclinic
_symmetry_space_group_name_H-M   'P -1'
_symmetry_Int_Tables_number      2
_space_group_name_Hall           '-P 1'
loop_
_symmetry_equiv_pos_site_id
_symmetry_equiv_pos_as_xyz
1 x,y,z
2 -x,-y,-z
_cell_length_a                   6.2754(13)
_cell_length_b                   7.1880(15)
_cell_length_c                   15.396(3)
_cell_angle_alpha                91.838(3)
_cell_angle_beta                 95.848(3)
_cell_angle_gamma                96.074(3)
_cell_volume                     686.339
_exptl_crystal_colour            'dark green'
_exptl_crystal_description       plate
_cell_formula_units_Z            1
_exptl_crystal_recrystallization_method methanol
loop_
_atom_site_label
_atom_site_type_symbol
_atom_site_fract_x
_atom_site_fract_y
_atom_site_fract_z
C1 C 0.9425(6) 0.2493(6) 0.4104(3)
N1 N 0.8520(5) 0.0756(5) 0.4147(2)
H1 H 0.7126 0.0539 0.4184
H2 H 0.9311 -0.0184 0.4139
N2 N 0.8251(6) 0.3934(5) 0.4115(2)
H3 H 0.6856 0.3735 0.4152
H4 H 0.8872 0.5083 0.4086
N3 N 1.1530(6) 0.2800(5) 0.4011(3)
H5 H 1.2299 0.1849 0.3979
H6 H 1.2144 0.3951 0.3981
C2 C 0.3401(6) 0.6941(6) 0.2650(3)
C3 C 0.1609(6) 0.6267(7) 0.2078(3)
H7 H 0.0209 0.6205 0.2266
C4 C 0.1869(7) 0.5681(7) 0.1227(3)
H8 H 0.0648 0.5238 0.0831
C5 C 0.3939(6) 0.5751(6) 0.0962(3)
C6 C 0.5734(6) 0.6468(6) 0.1538(3)
H9 H 0.7133 0.6562 0.1348
C7 C 0.5472(6) 0.7036(6) 0.2378(3)
H10 H 0.6692 0.7492 0.2773
N4 N 0.4057(6) 0.5095(5) 0.0086(2)
S1 S 0.30884(15) 0.77128(14) 0.37284(7)
O1 O 0.4289(5) 0.6528(4) 0.43087(19)
O2 O 0.0764(4) 0.7466(4) 0.38081(19)
O3 O 0.3971(4) 0.9678(4) 0.3822(2)
C2A C 0.6599(6) 0.3059(6) -0.2650(3)
C3A C 0.8391(6) 0.3733(7) -0.2078(3)
H7A H 0.9791 0.3795 -0.2266
C4A C 0.8131(7) 0.4319(7) -0.1227(3)
H8A H 0.9352 0.4762 -0.0831
C5A C 0.6061(6) 0.4249(6) -0.0962(3)
C6A C 0.4266(6) 0.3532(6) -0.1538(3)
H9A H 0.2867 0.3438 -0.1348
C7A C 0.4528(6) 0.2964(6) -0.2378(3)
H10A H 0.3308 0.2508 -0.2773
N4A N 0.5943(6) 0.4905(5) -0.0086(2)
S1A S 0.69116(15) 0.22872(14) -0.37284(7)
O1A O 0.5711(5) 0.3472(4) -0.43087(19)
O2A O 0.9236(4) 0.2534(4) -0.38081(19)
O3A O 0.6029(4) 0.0322(4) -0.3822(2)
S2 S 0.37940(17) 0.09562(16) 0.12166(7)
S3 S 0.82082(17) 0.07498(17) 0.07192(8)
C8 C 0.5404(7) 0.0364(6) 0.0400(3)
C9 C 0.5958(8) 0.1824(7) 0.1973(3)
H11 H 0.5732 0.2348 0.2527
C10 C 0.7934(7) 0.1727(7) 0.1749(3)
H12 H 0.9166 0.2178 0.2138
S2A S 0.62060(17) -0.09562(16) -0.12166(7)
S3A S 0.17918(17) -0.07498(17) -0.07192(8)
C8A C 0.4596(7) -0.0364(6) -0.0400(3)
C9A C 0.4042(8) -0.1824(7) -0.1973(3)
H11A H 0.4268 -0.2348 -0.2527
C10A C 0.2066(7) -0.1727(7) -0.1749(3)
H12A H 0.0834 -0.2178 -0.2138
loop_
_geom_bond_atom_site_label_1
_geom_bond_atom_site_label_2
_geom_bond_site_symmetry_1
_geom_bond_site_symmetry_2
C1 N1 1_555 1_555
N1 H1 1_555 1_555
H2 N1 1_555 1_555
N2 C1 1_555 1_555
H3 N2 1_555 1_555
H4 N2 1_555 1_555
N3 C1 1_555 1_555
H5 N3 1_555 1_555
H6 N3 1_555 1_555
C2 C3 1_555 1_555
C3 H7 1_555 1_555
C4 C3 1_555 1_555
H8 C4 1_555 1_555
C5 C4 1_555 1_555
C6 C5 1_555 1_555
H9 C6 1_555 1_555
C7 C2 1_555 1_555
H10 C7 1_555 1_555
N4 C5 1_555 1_555
S1 C2 1_555 1_555
O1 S1 1_555 1_555
O2 S1 1_555 1_555
O3 S1 1_555 1_555
S2 C8 1_555 1_555
S3 C8 1_555 1_555
C8 C8A 1_555 1_555
C9 S2 1_555 1_555
H11 C9 1_555 1_555
C10 S3 1_555 1_555
H12 C10 1_555 1_555
C2A C3A 1_555 1_555
C3A H7A 1_555 1_555
C4A C3A 1_555 1_555
H8A C4A 1_555 1_555
C5A C4A 1_555 1_555
C6A C5A 1_555 1_555
H9A C6A 1_555 1_555
C7A C2A 1_555 1_555
H10A C7A 1_555 1_555
N4A N4 1_555 1_555
S1A C2A 1_555 1_555
O1A S1A 1_555 1_555
O2A S1A 1_555 1_555
O3A S1A 1_555 1_555
S2A C8A 1_555 1_555
S3A C8A 1_555 1_555
C9A S2A 1_555 1_555
H11A C9A 1_555 1_555
C10A S3A 1_555 1_555
H12A C10A 1_555 1_555
C6 C7 1_555 1_555
C9 C10 1_555 1_555
C5A N4A 1_555 1_555
C6A C7A 1_555 1_555
C9A C10A 1_555 1_555

#END
