
#######################################################################
#
#                 Cambridge Crystallographic Data Centre
#                                CCDC 
#
#######################################################################
#
# If this CIF has been generated from an entry in the Cambridge 
# Structural Database, then it will include bibliographic, chemical, 
# crystal, experimental, refinement or atomic coordinate data resulting 
# from the CCDC's data processing and validation procedures.
#
#######################################################################

data_APOTEF
_chemical_formula_moiety         '2(C1 H6 N3 1+),C16 H16 O8 S2 2-,C12 H8 S3'
_chemical_name_systematic        
"bis(Guanidinium) 1,4-bis(4-sulfonatophenoxy)butane tris(2,2':5',2''-terthiophene) clathrate"
_symmetry_cell_setting           monoclinic
_symmetry_space_group_name_H-M   'P 21/n'
_symmetry_Int_Tables_number      14
_space_group_name_Hall           '-P 2yn'
loop_
_symmetry_equiv_pos_site_id
_symmetry_equiv_pos_as_xyz
1 x,y,z
2 1/2-x,1/2+y,1/2-z
3 -x,-y,-z
4 1/2+x,1/2-y,1/2+z
_cell_length_a                   12.3178(7)
_cell_length_b                   7.4997(4)
_cell_length_c                   38.947(2)
_cell_angle_alpha                90
_cell_angle_beta                 96.277(2)
_cell_angle_gamma                90
_cell_volume                     3576.35
_exptl_crystal_colour            'light yellow'
_exptl_crystal_description       plate
_cell_formula_units_Z            4
_exptl_crystal_recrystallization_method methanol
loop_
_atom_site_label
_atom_site_type_symbol
_atom_site_fract_x
_atom_site_fract_y
_atom_site_fract_z
C1 C 0.1018(4) 0.1597(8) 0.46248(15)
N1 N -0.0050(4) 0.1643(7) 0.46459(13)
H1 H -0.0420 0.0643 0.4654
H2 H -0.0388 0.2675 0.4652
N2 N 0.1522(4) 0.0042(7) 0.46158(13)
H3 H 0.2228 0.0005 0.4600
H4 H 0.1150 -0.0955 0.4626
N3 N 0.1579(4) 0.3098(6) 0.46096(12)
H5 H 0.2286 0.3060 0.4593
H6 H 0.1245 0.4132 0.4616
C2 C 0.8994(4) 0.1433(8) 0.03222(15)
N4 N 1.0077(4) 0.1377(7) 0.03550(13)
H7 H 1.0455 0.2373 0.0361
H8 H 1.0416 0.0343 0.0371
N5 N 0.8476(4) 0.2972(6) 0.02983(13)
H9 H 0.8848 0.3975 0.0304
H10 H 0.7758 0.2997 0.0277
N6 N 0.8440(4) -0.0096(6) 0.03103(14)
H11 H 0.7721 -0.0083 0.0286
H12 H 0.8792 -0.1118 0.0326
C3 C 0.8785(4) 0.6098(7) 0.40136(15)
C4 C 0.7826(5) 0.6870(9) 0.38526(16)
H13 H 0.7441 0.7724 0.3973
C5 C 0.7443(5) 0.6394(9) 0.35210(15)
H14 H 0.6798 0.6938 0.3413
C6 C 0.7981(4) 0.5136(8) 0.33420(15)
C7 C 0.8953(5) 0.4412(8) 0.34973(15)
H15 H 0.9355 0.3599 0.3373
C8 C 0.9332(4) 0.4872(8) 0.38295(16)
H16 H 0.9984 0.4338 0.3936
C9 C 1.0177(4) 0.5957(7) 0.09954(14)
C10 C 0.9177(4) 0.6625(8) 0.10852(15)
H17 H 0.8696 0.7241 0.0919
C11 C 0.8902(5) 0.6384(9) 0.14122(16)
H18 H 0.8235 0.6861 0.1474
C12 C 0.9594(4) 0.5441(7) 0.16576(15)
C13 C 1.0581(5) 0.4766(9) 0.15681(16)
H19 H 1.1060 0.4126 0.1732
C14 C 1.0848(5) 0.5047(8) 0.12360(15)
H20 H 1.1520 0.4592 0.1174
C15 C 0.9950(5) 0.4426(9) 0.22427(16)
H21 H 1.0657 0.5059 0.2283
H22 H 1.0091 0.3186 0.2172
C16 C 0.7792(5) 0.3140(8) 0.28496(15)
H23 H 0.7115 0.2427 0.2804
H24 H 0.8318 0.2447 0.3007
C17 C 0.8268(4) 0.3465(8) 0.25157(14)
H25 H 0.7750 0.4195 0.2362
H26 H 0.8356 0.2307 0.2400
C18 C 0.9387(4) 0.4425(8) 0.25663(15)
H27 H 0.9277 0.5672 0.2639
H28 H 0.9861 0.3827 0.2753
O1 O 0.8796(3) 0.8268(5) 0.45295(10)
O2 O 1.0457(3) 0.6599(5) 0.44663(11)
O3 O 0.8883(3) 0.5103(5) 0.46492(10)
S1 S 0.92672(11) 0.65568(19) 0.44462(4)
O4 O 1.1170(3) 0.7990(5) 0.05849(10)
O5 O 0.9533(3) 0.6444(5) 0.03493(10)
O6 O 1.1214(3) 0.4788(5) 0.05011(10)
S2 S 1.05476(11) 0.63154(19) 0.05771(4)
O7 O 0.7547(3) 0.4803(6) 0.30136(10)
O8 O 0.9248(3) 0.5310(5) 0.19768(10)
S3 S 0.1223(6) -0.0238(10) 0.14499(15)
C19 C 0.2302(19) 0.055(5) 0.1248(6)
H29 H 0.2355 0.0546 0.1006
C20 C 0.306(4) 0.119(9) 0.1497(5)
H30 H 0.3736 0.1680 0.1442
C21 C 0.2816(14) 0.110(4) 0.1840(6)
H31 H 0.3278 0.1511 0.2035
C22 C 0.1816(4) 0.0336(8) 0.18528(16)
S4 S 0.18696(12) 0.0798(2) 0.25612(4)
C23 C 0.1285(5) 0.0080(9) 0.21618(17)
C24 C 0.0267(5) -0.0640(9) 0.21889(18)
H32 H -0.0193 -0.1106 0.1998
C25 C -0.0014(5) -0.0611(9) 0.25250(18)
H33 H -0.0687 -0.1071 0.2584
C26 C 0.0743(5) 0.0121(8) 0.27605(17)
S5 S -0.03110(14) -0.0615(3) 0.33336(5)
C27 C 0.0727(5) 0.0357(8) 0.31278(17)
C28 C 0.1430(5) 0.1248(9) 0.33629(17)
H34 H 0.2053 0.1878 0.3304
C29 C 0.1137(6) 0.1136(10) 0.37008(19)
H35 H 0.1543 0.1690 0.3893
C30 C 0.0215(6) 0.0157(10) 0.37272(19)
H36 H -0.0090 -0.0063 0.3937
C31? C 0.303(5) 0.124(13) 0.1402(5)
C32? C 0.208(3) 0.040(8) 0.1281(7)
C33? C 0.140(2) -0.013(5) 0.1528(4)
H37? H 0.3560 0.1715 0.1269
H38? H 0.1895 0.0190 0.1041
H39? H 0.0728 -0.0746 0.1474
S6? S 0.3065(8) 0.129(2) 0.1845(4)
loop_
_geom_bond_atom_site_label_1
_geom_bond_atom_site_label_2
_geom_bond_site_symmetry_1
_geom_bond_site_symmetry_2
C1 N1 1_555 1_555
N1 H1 1_555 1_555
H2 N1 1_555 1_555
N2 C1 1_555 1_555
H3 N2 1_555 1_555
H4 N2 1_555 1_555
N3 C1 1_555 1_555
H5 N3 1_555 1_555
H6 N3 1_555 1_555
C2 N4 1_555 1_555
N4 H7 1_555 1_555
H8 N4 1_555 1_555
N5 C2 1_555 1_555
H9 N5 1_555 1_555
H10 N5 1_555 1_555
N6 C2 1_555 1_555
H11 N6 1_555 1_555
H12 N6 1_555 1_555
C3 C4 1_555 1_555
C4 H13 1_555 1_555
C5 C4 1_555 1_555
H14 C5 1_555 1_555
C6 C5 1_555 1_555
C7 C6 1_555 1_555
H15 C7 1_555 1_555
C8 C3 1_555 1_555
H16 C8 1_555 1_555
C9 C10 1_555 1_555
C10 H17 1_555 1_555
C11 C10 1_555 1_555
H18 C11 1_555 1_555
C12 C11 1_555 1_555
C13 C12 1_555 1_555
H19 C13 1_555 1_555
C14 C9 1_555 1_555
H20 C14 1_555 1_555
C15 H21 1_555 1_555
H22 C15 1_555 1_555
C16 H23 1_555 1_555
H24 C16 1_555 1_555
C17 C16 1_555 1_555
H25 C17 1_555 1_555
H26 C17 1_555 1_555
C18 C15 1_555 1_555
H27 C18 1_555 1_555
H28 C18 1_555 1_555
O1 S1 1_555 1_555
O2 S1 1_555 1_555
O3 S1 1_555 1_555
S1 C3 1_555 1_555
O4 S2 1_555 1_555
O5 S2 1_555 1_555
O6 S2 1_555 1_555
S2 C9 1_555 1_555
O7 C6 1_555 1_555
O8 C12 1_555 1_555
S3 C19 1_555 1_555
C19 H29 1_555 1_555
C20 C19 1_555 1_555
H30 C20 1_555 1_555
C21 C20 1_555 1_555
H31 C21 1_555 1_555
C22 S3 1_555 1_555
S4 C23 1_555 1_555
C23 C22 1_555 1_555
C24 C23 1_555 1_555
H32 C24 1_555 1_555
C25 C24 1_555 1_555
H33 C25 1_555 1_555
C26 S4 1_555 1_555
S5 C27 1_555 1_555
C27 C26 1_555 1_555
C28 C27 1_555 1_555
H34 C28 1_555 1_555
C29 C28 1_555 1_555
H35 C29 1_555 1_555
C30 S5 1_555 1_555
H36 C30 1_555 1_555
C7 C8 1_555 1_555
C13 C14 1_555 1_555
C15 O8 1_555 1_555
C16 O7 1_555 1_555
C17 C18 1_555 1_555
C21 C22 1_555 1_555
C25 C26 1_555 1_555
C29 C30 1_555 1_555

#END
