
#######################################################################
#
#                 Cambridge Crystallographic Data Centre
#                                CCDC 
#
#######################################################################
#
# If this CIF has been generated from an entry in the Cambridge 
# Structural Database, then it will include bibliographic, chemical, 
# crystal, experimental, refinement or atomic coordinate data resulting 
# from the CCDC's data processing and validation procedures.
#
#######################################################################

data_APOXOS
_chemical_formula_moiety         'C10 H10 N4 O1 S1'
_chemical_name_systematic        
(E)-4-Salicylideneamino-3-methyl-1,2,4-triazole-5-thione
_symmetry_cell_setting           monoclinic
_symmetry_space_group_name_H-M   'P 21/n'
_symmetry_Int_Tables_number      14
_space_group_name_Hall           '-P 2yn'
loop_
_symmetry_equiv_pos_site_id
_symmetry_equiv_pos_as_xyz
1 x,y,z
2 1/2-x,1/2+y,1/2-z
3 -x,-y,-z
4 1/2+x,1/2-y,1/2+z
_cell_length_a                   12.697(3)
_cell_length_b                   7.4072(15)
_cell_length_c                   12.750(3)
_cell_angle_alpha                90
_cell_angle_beta                 117.68(3)
_cell_angle_gamma                90
_cell_volume                     1061.89
_exptl_crystal_colour            'light yellow'
_chemical_melting_point          '210-212 deg.C'
_cell_formula_units_Z            4
_exptl_crystal_recrystallization_method ethanol
loop_
_atom_site_label
_atom_site_type_symbol
_atom_site_fract_x
_atom_site_fract_y
_atom_site_fract_z
S1 S -0.0676(1) 0.1290(1) 0.1177(1)
O1 O 0.2036(1) 0.1416(2) 0.6492(1)
N1 N 0.1285(1) 0.1040(2) 0.4168(1)
N2 N 0.1422(1) 0.0378(2) 0.3212(1)
N3 N 0.1343(1) -0.0458(2) 0.1582(1)
N4 N 0.2441(2) -0.1039(2) 0.2446(2)
C1 C 0.0962(2) 0.2217(2) 0.6158(2)
C2 C 0.0725(2) 0.2892(3) 0.7048(2)
C3 C -0.0354(2) 0.3728(3) 0.6755(2)
C4 C -0.1208(2) 0.3891(3) 0.5580(2)
C5 C -0.0987(2) 0.3214(3) 0.4698(2)
C6 C 0.0106(2) 0.2373(2) 0.4964(2)
C7 C 0.0282(2) 0.1716(2) 0.3983(2)
C8 C 0.0696(2) 0.0418(2) 0.2000(2)
C9 C 0.2464(2) -0.0510(2) 0.3437(2)
C10 C 0.3461(2) -0.0831(3) 0.4635(2)
loop_
_geom_bond_atom_site_label_1
_geom_bond_atom_site_label_2
_geom_bond_site_symmetry_1
_geom_bond_site_symmetry_2
S1 C8 1_555 1_555
O1 C1 1_555 1_555
N1 N2 1_555 1_555
N2 C8 1_555 1_555
N3 N4 1_555 1_555
N4 C9 1_555 1_555
C1 C2 1_555 1_555
C2 C3 1_555 1_555
C3 C4 1_555 1_555
C4 C5 1_555 1_555
C5 C6 1_555 1_555
C6 C1 1_555 1_555
C7 N1 1_555 1_555
C8 N3 1_555 1_555
C9 N2 1_555 1_555
C10 C9 1_555 1_555
C6 C7 1_555 1_555

#END
