
#######################################################################
#
#                 Cambridge Crystallographic Data Centre
#                                CCDC 
#
#######################################################################
#
# If this CIF has been generated from an entry in the Cambridge 
# Structural Database, then it will include bibliographic, chemical, 
# crystal, experimental, refinement or atomic coordinate data resulting 
# from the CCDC's data processing and validation procedures.
#
#######################################################################

data_APOYUZ
_chemical_formula_moiety         'C42 H48 N10,1.4(C2 H6 O1),5(H2 O1)'
_chemical_name_systematic        
"N,N,N',N'-tetrakis(1-Ethylbenzimidazol-2-ylmethyl)-1,2-ethanediamine ethanol solvate pentahydrate"
_symmetry_cell_setting           triclinic
_symmetry_space_group_name_H-M   'P -1'
_symmetry_Int_Tables_number      2
_space_group_name_Hall           '-P 1'
loop_
_symmetry_equiv_pos_site_id
_symmetry_equiv_pos_as_xyz
1 x,y,z
2 -x,-y,-z
_cell_length_a                   11.489(2)
_cell_length_b                   11.866(3)
_cell_length_c                   12.002(3)
_cell_angle_alpha                97.47(2)
_cell_angle_beta                 114.564(13)
_cell_angle_gamma                114.11(2)
_cell_volume                     1266.63
_cell_formula_units_Z            1
loop_
_atom_site_label
_atom_site_type_symbol
_atom_site_fract_x
_atom_site_fract_y
_atom_site_fract_z
N1 N 0.9730(4) 0.3834(3) 0.0920(3)
N2 N 1.0387(5) 0.5456(4) 0.3661(4)
N3 N 0.8060(5) 0.4965(4) 0.2302(4)
N4 N 1.1260(5) 0.2010(4) 0.1297(4)
N5 N 0.8969(5) 0.0784(4) 0.0932(4)
C1 C 0.9412(5) 0.4663(4) 0.0163(5)
C2 C 0.8804(6) 0.3489(4) 0.1530(5)
C3 C 0.9090(6) 0.4649(5) 0.2484(5)
C4 C 1.0175(6) 0.6361(5) 0.4285(5)
C5 C 1.1097(6) 0.7367(5) 0.5515(5)
C6 C 1.0490(8) 0.8076(5) 0.5817(6)
C7 C 0.9037(8) 0.7791(6) 0.4962(7)
C8 C 0.8147(7) 0.6778(5) 0.3771(6)
C9 C 0.8724(6) 0.6037(5) 0.3420(5)
C10 C 1.1769(5) 0.5441(5) 0.4170(5)
C11 C 1.2954(6) 0.6590(5) 0.4122(6)
C12 C 0.9356(6) 0.2579(4) 0.0052(5)
C13 C 0.9847(6) 0.1788(5) 0.0756(5)
C14 C 1.1294(6) 0.1079(5) 0.1874(5)
C15 C 1.2430(7) 0.0841(6) 0.2561(5)
C16 C 1.2086(8) -0.0168(6) 0.3030(6)
C17 C 1.0682(9) -0.0907(6) 0.2821(6)
C18 C 0.9546(7) -0.0682(5) 0.2123(5)
C19 C 0.9882(6) 0.0338(5) 0.1650(5)
C20 C 1.2507(7) 0.2990(6) 0.1248(6)
C21 C 1.3593(8) 0.4130(6) 0.2495(8)
C1A C 1.0588(5) 0.5337(4) -0.0163(5)
N1A N 1.0270(4) 0.6166(3) -0.0920(3)
C2A C 1.1196(6) 0.6511(4) -0.1530(5)
C3A C 1.0910(6) 0.5351(5) -0.2484(5)
N2A N 0.9613(5) 0.4544(4) -0.3661(4)
C4A C 0.9825(6) 0.3639(5) -0.4285(5)
C5A C 0.8903(6) 0.2633(5) -0.5515(5)
C6A C 0.9510(8) 0.1924(5) -0.5817(6)
C7A C 1.0963(8) 0.2209(6) -0.4962(7)
C8A C 1.1853(7) 0.3222(5) -0.3771(6)
C9A C 1.1276(6) 0.3963(5) -0.3420(5)
N3A N 1.1940(5) 0.5035(4) -0.2302(4)
C10A C 0.8231(5) 0.4559(5) -0.4170(5)
C11A C 0.7046(6) 0.3410(5) -0.4122(6)
C12A C 1.0644(6) 0.7421(4) -0.0052(5)
C13A C 1.0153(6) 0.8212(5) -0.0756(5)
N4A N 0.8740(5) 0.7990(4) -0.1297(4)
C14A C 0.8706(6) 0.8921(5) -0.1874(5)
C15A C 0.7570(7) 0.9159(6) -0.2561(5)
C16A C 0.7914(8) 1.0168(6) -0.3030(6)
C17A C 0.9318(9) 1.0907(6) -0.2821(6)
C18A C 1.0454(7) 1.0682(5) -0.2123(5)
C19A C 1.0118(6) 0.9662(5) -0.1650(5)
N5A N 1.1031(5) 0.9216(4) -0.0932(4)
C20A C 0.7493(7) 0.7010(6) -0.1248(6)
C21A C 0.6407(8) 0.5870(6) -0.2495(8)
O1 O 0.5629(8) -0.1970(6) 0.1744(7)
C22 C 0.5786(13) -0.1515(10) 0.2949(11)
C23 C 0.5285(10) -0.0731(9) 0.3098(9)
O2 O 0.5776(7) 0.4481(6) -0.0169(5)
O3 O 0.5938(5) -0.0517(4) 0.0168(5)
O4 O 0.5670(5) 0.2508(5) 0.2292(5)
loop_
_geom_bond_atom_site_label_1
_geom_bond_atom_site_label_2
_geom_bond_site_symmetry_1
_geom_bond_site_symmetry_2
N1 C1 1_555 1_555
N2 C3 1_555 1_555
N3 C3 1_555 1_555
N4 C13 1_555 1_555
N5 C13 1_555 1_555
O1 C22 1_555 1_555
C1 C1A 1_555 1_555
C2 N1 1_555 1_555
C3 C2 1_555 1_555
C4 N2 1_555 1_555
C5 C4 1_555 1_555
C6 C5 1_555 1_555
C7 C6 1_555 1_555
C8 C7 1_555 1_555
C9 N3 1_555 1_555
C10 N2 1_555 1_555
C11 C10 1_555 1_555
C12 N1 1_555 1_555
C13 C12 1_555 1_555
C14 N4 1_555 1_555
C15 C14 1_555 1_555
C16 C15 1_555 1_555
C17 C16 1_555 1_555
C18 C17 1_555 1_555
C19 N5 1_555 1_555
C20 N4 1_555 1_555
C21 C20 1_555 1_555
C22 C23 1_555 1_555
C1A N1A 1_555 1_555
N1A C2A 1_555 1_555
C2A C3A 1_555 1_555
C3A N2A 1_555 1_555
N2A C4A 1_555 1_555
C4A C5A 1_555 1_555
C5A C6A 1_555 1_555
C6A C7A 1_555 1_555
C7A C8A 1_555 1_555
C8A C9A 1_555 1_555
C9A C4A 1_555 1_555
N3A C3A 1_555 1_555
C10A N2A 1_555 1_555
C11A C10A 1_555 1_555
C12A N1A 1_555 1_555
C13A C12A 1_555 1_555
N4A C13A 1_555 1_555
C14A N4A 1_555 1_555
C15A C14A 1_555 1_555
C16A C15A 1_555 1_555
C17A C16A 1_555 1_555
C18A C17A 1_555 1_555
C19A C14A 1_555 1_555
N5A C13A 1_555 1_555
C20A N4A 1_555 1_555
C21A C20A 1_555 1_555
C4 C9 1_555 1_555
C8 C9 1_555 1_555
C14 C19 1_555 1_555
C18 C19 1_555 1_555
C9A N3A 1_555 1_555
C18A C19A 1_555 1_555
C19A N5A 1_555 1_555

#END
