
#######################################################################
#
#                 Cambridge Crystallographic Data Centre
#                                CCDC 
#
#######################################################################
#
# If this CIF has been generated from an entry in the Cambridge 
# Structural Database, then it will include bibliographic, chemical, 
# crystal, experimental, refinement or atomic coordinate data resulting 
# from the CCDC's data processing and validation procedures.
#
#######################################################################

data_APOZAG
_chemical_formula_moiety         'C42 H52 N10 4+,4(Cl1 O4 1-),C2 H6 O1'
_chemical_name_systematic        
"N,N,N',N'-tetrakis(1-Ethylbenzimidazol-2-ylmethyl)-1,2-ethanediammonium tetraperchlorate ethanol solvate"
_symmetry_cell_setting           monoclinic
_symmetry_space_group_name_H-M   'C 2/c'
_symmetry_Int_Tables_number      15
_space_group_name_Hall           '-C 2yn'
loop_
_symmetry_equiv_pos_site_id
_symmetry_equiv_pos_as_xyz
1 x,y,z
2 -x,y,1/2-z
3 1/2+x,1/2+y,z
4 1/2-x,1/2+y,1/2-z
5 -x,-y,-z
6 x,-y,1/2+z
7 1/2-x,1/2-y,-z
8 1/2+x,1/2-y,1/2+z
_cell_length_a                   24.260(5)
_cell_length_b                   13.040(3)
_cell_length_c                   17.680(4)
_cell_angle_alpha                90
_cell_angle_beta                 97.50(3)
_cell_angle_gamma                90
_cell_volume                     5545.23
_cell_formula_units_Z            4
loop_
_atom_site_label
_atom_site_type_symbol
_atom_site_fract_x
_atom_site_fract_y
_atom_site_fract_z
C1 C 0.5303(2) 0.1155(3) 0.2454(2)
C4 C 0.5966(2) 0.0803(3) 0.1583(3)
C5 C 0.6043(2) -0.0293(3) 0.1804(2)
C6 C 0.5866(2) -0.1958(4) 0.1928(3)
C7 C 0.5636(2) -0.2925(4) 0.1925(3)
C8 C 0.5968(3) -0.3687(4) 0.2239(3)
C9 C 0.6518(3) -0.3503(5) 0.2555(4)
C10 C 0.6753(2) -0.2538(4) 0.2554(3)
C11 C 0.6410(2) -0.1766(4) 0.2236(3)
C12 C 0.7028(2) -0.0195(4) 0.2407(3)
C13 C 0.7079(3) 0.0067(5) 0.3242(4)
C14 C 0.5263(2) 0.2102(3) 0.1250(3)
C15 C 0.4697(2) 0.2092(3) 0.0784(2)
C16 C 0.3889(2) 0.1563(3) 0.0201(2)
C17 C 0.3418(2) 0.0993(4) -0.0077(2)
C18 C 0.2997(2) 0.1544(4) -0.0502(3)
C19 C 0.3049(2) 0.2589(4) -0.0637(3)
C20 C 0.3511(2) 0.3140(4) -0.0368(3)
C21 C 0.3934(2) 0.2595(3) 0.0057(2)
C22 C 0.4680(2) 0.3951(3) 0.0421(3)
C23 C 0.4546(3) 0.4583(4) 0.1083(4)
N1 N 0.5387(1) 0.1118(3) 0.1643(2)
N2 N 0.4381(1) 0.1268(3) 0.0656(2)
N3 N 0.4455(1) 0.2906(3) 0.0429(2)
N4 N 0.5649(2) -0.1012(3) 0.1659(2)
N5 N 0.6504(1) -0.0714(3) 0.2144(2)
C1A C 0.4697(2) 0.1155(3) 0.2546(2)
N1A N 0.4613(1) 0.1118(3) 0.3357(2)
C4A C 0.4034(2) 0.0803(3) 0.3417(3)
C5A C 0.3957(2) -0.0293(3) 0.3196(2)
N4A N 0.4351(2) -0.1012(3) 0.3341(2)
C6A C 0.4134(2) -0.1958(4) 0.3072(3)
C7A C 0.4364(2) -0.2925(4) 0.3075(3)
C8A C 0.4032(3) -0.3687(4) 0.2761(3)
C9A C 0.3482(3) -0.3503(5) 0.2445(4)
C10A C 0.3247(2) -0.2538(4) 0.2446(3)
C11A C 0.3590(2) -0.1766(4) 0.2764(3)
N5A N 0.3496(1) -0.0714(3) 0.2856(2)
C12A C 0.2972(2) -0.0195(4) 0.2593(3)
C13A C 0.2921(3) 0.0067(5) 0.1758(4)
C14A C 0.4737(2) 0.2102(3) 0.3750(3)
C15A C 0.5303(2) 0.2092(3) 0.4216(2)
N2A N 0.5619(1) 0.1268(3) 0.4344(2)
C16A C 0.6111(2) 0.1563(3) 0.4799(2)
C17A C 0.6582(2) 0.0993(4) 0.5077(2)
C18A C 0.7003(2) 0.1544(4) 0.5502(3)
C19A C 0.6951(2) 0.2589(4) 0.5637(3)
C20A C 0.6489(2) 0.3140(4) 0.5368(3)
C21A C 0.6066(2) 0.2595(3) 0.4943(2)
N3A N 0.5545(1) 0.2906(3) 0.4571(2)
C22A C 0.5320(2) 0.3951(3) 0.4579(3)
C23A C 0.5454(3) 0.4583(4) 0.3917(4)
C2 C 0.6929(5) 0.3954(9) -0.0143(7)
C3 C 0.6669(6) 0.3702(8) 0.0480(7)
O1 O 0.6254(4) 0.4319(5) 0.0731(4)
O2 O 0.6801(1) 0.4076(3) 0.3249(2)
O3 O 0.6582(7) 0.2270(10) 0.3146(12)
O4 O 0.5950(6) 0.3449(13) 0.2610(9)
O5 O 0.6765(8) 0.3336(16) 0.2137(11)
Cl1 Cl 0.6537(1) 0.3263(1) 0.2797(1)
O9 O 0.3735(3) -0.1428(5) 0.0334(5)
O10 O 0.4634(3) -0.0930(5) 0.0384(4)
O11 O 0.4381(4) -0.0866(6) 0.1416(4)
O12 O 0.4511(3) -0.2500(4) 0.0712(4)
Cl2 Cl 0.4258(1) -0.1530(1) 0.0775(1)
O6? O 0.6355(2) 0.2533(5) 0.3310(4)
O7? O 0.6071(3) 0.3636(5) 0.2296(4)
O8? O 0.6913(2) 0.2750(5) 0.2343(4)
O13? O 0.3685(7) -0.1632(14) 0.0770(9)
O14? O 0.4290(9) -0.0947(15) 0.0090(11)
O15? O 0.4405(7) -0.1349(14) 0.1589(10)
O16? O 0.4274(7) -0.2468(13) 0.1145(10)
loop_
_geom_bond_atom_site_label_1
_geom_bond_atom_site_label_2
_geom_bond_site_symmetry_1
_geom_bond_site_symmetry_2
C1 N1 1_555 1_555
C2 C3 1_555 1_555
C3 O1 1_555 1_555
C4 C5 1_555 1_555
C5 N4 1_555 1_555
C6 C7 1_555 1_555
C7 C8 1_555 1_555
C8 C9 1_555 1_555
C9 C10 1_555 1_555
C10 C11 1_555 1_555
C11 C6 1_555 1_555
C12 C13 1_555 1_555
C14 C15 1_555 1_555
C15 N2 1_555 1_555
C16 C17 1_555 1_555
C17 C18 1_555 1_555
C18 C19 1_555 1_555
C19 C20 1_555 1_555
C20 C21 1_555 1_555
C21 C16 1_555 1_555
C22 C23 1_555 1_555
N1 C4 1_555 1_555
N2 C16 1_555 1_555
N3 C15 1_555 1_555
N4 C6 1_555 1_555
N5 C5 1_555 1_555
O2 Cl1 1_555 1_555
O3 Cl1 1_555 1_555
O4 Cl1 1_555 1_555
O5 Cl1 1_555 1_555
O9 Cl2 1_555 1_555
O10 Cl2 1_555 1_555
O11 Cl2 1_555 1_555
O12 Cl2 1_555 1_555
C1A C1 1_555 1_555
N1A C1A 1_555 1_555
C4A N1A 1_555 1_555
C5A C4A 1_555 1_555
N4A C5A 1_555 1_555
C6A N4A 1_555 1_555
C7A C6A 1_555 1_555
C8A C7A 1_555 1_555
C9A C8A 1_555 1_555
C10A C9A 1_555 1_555
C11A C6A 1_555 1_555
N5A C5A 1_555 1_555
C12A N5A 1_555 1_555
C13A C12A 1_555 1_555
C14A N1A 1_555 1_555
C15A C14A 1_555 1_555
N2A C15A 1_555 1_555
C16A N2A 1_555 1_555
C17A C16A 1_555 1_555
C18A C17A 1_555 1_555
C19A C18A 1_555 1_555
C20A C19A 1_555 1_555
C21A C16A 1_555 1_555
N3A C15A 1_555 1_555
C22A N3A 1_555 1_555
C23A C22A 1_555 1_555
C11 N5 1_555 1_555
C12 N5 1_555 1_555
C14 N1 1_555 1_555
C21 N3 1_555 1_555
C22 N3 1_555 1_555
C10A C11A 1_555 1_555
C11A N5A 1_555 1_555
C20A C21A 1_555 1_555
C21A N3A 1_555 1_555

#END
