
#######################################################################
#
#                 Cambridge Crystallographic Data Centre
#                                CCDC 
#
#######################################################################
#
# If this CIF has been generated from an entry in the Cambridge 
# Structural Database, then it will include bibliographic, chemical, 
# crystal, experimental, refinement or atomic coordinate data resulting 
# from the CCDC's data processing and validation procedures.
#
#######################################################################

data_APUDOF
_chemical_formula_moiety         'C22 H20 N2 O1'
_chemical_name_systematic        
5-Cyclopropyl-1-(methoxy(phenyl)methyl)pyrazolo[5,1-a]isoquinoline
_symmetry_cell_setting           monoclinic
_symmetry_space_group_name_H-M   'C 2/c'
_symmetry_Int_Tables_number      15
_space_group_name_Hall           '-C 2yn'
loop_
_symmetry_equiv_pos_site_id
_symmetry_equiv_pos_as_xyz
1 x,y,z
2 -x,y,1/2-z
3 1/2+x,1/2+y,z
4 1/2-x,1/2+y,1/2-z
5 -x,-y,-z
6 x,-y,1/2+z
7 1/2-x,1/2-y,-z
8 1/2+x,1/2-y,1/2+z
_cell_length_a                   21.376(5)
_cell_length_b                   9.2038(18)
_cell_length_c                   17.855(4)
_cell_angle_alpha                90
_cell_angle_beta                 100.141(4)
_cell_angle_gamma                90
_cell_volume                     3457.92
_cell_formula_units_Z            8
loop_
_atom_site_label
_atom_site_type_symbol
_atom_site_fract_x
_atom_site_fract_y
_atom_site_fract_z
N1 N 0.06930(8) 0.7153(2) 0.12281(10)
C1 C 0.11058(9) 0.6331(2) 0.08989(12)
O1 O 0.25781(7) 0.5406(2) 0.09582(9)
N2 N 0.09110(9) 0.7444(2) 0.19797(10)
C2 C 0.09378(9) 0.5994(3) 0.01011(11)
C3 C 0.00947(10) 0.7642(3) 0.08565(13)
C4 C 0.03473(10) 0.6513(3) -0.02900(12)
C5 C 0.01759(12) 0.6193(3) -0.10736(12)
H1 H -0.0215 0.6504 -0.1339
C6 C 0.21953(10) 0.5077(3) 0.15122(13)
H2 H 0.2461 0.5207 0.2014
C7 C -0.00578(11) 0.7303(3) 0.01188(13)
H3 H -0.0452 0.7601 -0.0144
C8 C 0.20195(10) 0.3484(3) 0.14338(12)
C9 C 0.13315(11) 0.5219(3) -0.02978(12)
H4 H 0.1722 0.4882 -0.0043
C10 C 0.05754(12) 0.5436(3) -0.14435(13)
H5 H 0.0458 0.5248 -0.1961
C11 C -0.02934(11) 0.8414(3) 0.13297(15)
H6 H -0.0300 0.7957 0.1824
C12 C 0.15950(11) 0.2897(3) 0.18557(14)
H7 H 0.1419 0.3494 0.2184
C13 C 0.11532(12) 0.4945(3) -0.10591(13)
H8 H 0.1422 0.4427 -0.1318
C14 C 0.14694(11) 0.6768(3) 0.21078(12)
H9 H 0.1736 0.6777 0.2580
C15 C 0.16245(10) 0.6045(3) 0.14801(12)
C16 C 0.22831(11) 0.2553(3) 0.09687(14)
H10 H 0.2580 0.2905 0.0691
C17 C 0.16830(13) 0.0540(3) 0.13211(17)
H11 H 0.1568 -0.0435 0.1278
C18 C 0.14283(13) 0.1447(4) 0.17980(17)
H12 H 0.1141 0.1081 0.2085
C19 C 0.21108(13) 0.1101(3) 0.09096(16)
H13 H 0.2288 0.0497 0.0585
C20 C 0.28535(13) 0.6809(3) 0.10293(17)
H14 H 0.2526 0.7528 0.0910
H15 H 0.3149 0.6901 0.0685
H16 H 0.3072 0.6949 0.1542
C21 C -0.08819(15) 0.9144(5) 0.1003(2)
H17 H -0.1234 0.9090 0.1279
H18 H -0.1003 0.9149 0.0454
C22 C -0.03284(18) 0.9992(4) 0.1338(2)
H19 H -0.0336 1.0465 0.1821
H20 H -0.0106 1.0524 0.0996
loop_
_geom_bond_atom_site_label_1
_geom_bond_atom_site_label_2
_geom_bond_site_symmetry_1
_geom_bond_site_symmetry_2
N1 C1 1_555 1_555
C1 C2 1_555 1_555
O1 C6 1_555 1_555
N2 N1 1_555 1_555
C2 C4 1_555 1_555
C3 N1 1_555 1_555
C4 C5 1_555 1_555
C5 H1 1_555 1_555
C6 H2 1_555 1_555
C7 C3 1_555 1_555
H3 C7 1_555 1_555
C8 C6 1_555 1_555
C9 C2 1_555 1_555
H4 C9 1_555 1_555
C10 C5 1_555 1_555
H5 C10 1_555 1_555
C11 C3 1_555 1_555
H6 C11 1_555 1_555
C12 C8 1_555 1_555
H7 C12 1_555 1_555
C13 C9 1_555 1_555
H8 C13 1_555 1_555
C14 N2 1_555 1_555
H9 C14 1_555 1_555
C15 C1 1_555 1_555
C16 C8 1_555 1_555
H10 C16 1_555 1_555
C17 H11 1_555 1_555
C18 C12 1_555 1_555
H12 C18 1_555 1_555
C19 C16 1_555 1_555
H13 C19 1_555 1_555
C20 O1 1_555 1_555
H14 C20 1_555 1_555
H15 C20 1_555 1_555
H16 C20 1_555 1_555
C21 C11 1_555 1_555
H17 C21 1_555 1_555
H18 C21 1_555 1_555
C22 C11 1_555 1_555
H19 C22 1_555 1_555
H20 C22 1_555 1_555
C4 C7 1_555 1_555
C6 C15 1_555 1_555
C10 C13 1_555 1_555
C14 C15 1_555 1_555
C17 C18 1_555 1_555
C17 C19 1_555 1_555
C21 C22 1_555 1_555

#END
