
#######################################################################
#
#                 Cambridge Crystallographic Data Centre
#                                CCDC 
#
#######################################################################
#
# If this CIF has been generated from an entry in the Cambridge 
# Structural Database, then it will include bibliographic, chemical, 
# crystal, experimental, refinement or atomic coordinate data resulting 
# from the CCDC's data processing and validation procedures.
#
#######################################################################

data_APUDEV01
_chemical_formula_moiety         'C48 H8 F16'
_chemical_name_systematic        
1,2,3,4,5,7,10,12,13,14,15,16,17,19,22,24-Hexadecafluorotrinaphtho[1,2,3,4-fgh:1',2',3',4'-pqr:1'',2'',3'',4''-za1b1]trinaphthylene
_symmetry_cell_setting           monoclinic
_symmetry_space_group_name_H-M   'P 21/c'
_symmetry_Int_Tables_number      14
_space_group_name_Hall           '-P 2ybc'
loop_
_symmetry_equiv_pos_site_id
_symmetry_equiv_pos_as_xyz
1 x,y,z
2 -x,1/2+y,1/2-z
3 -x,-y,-z
4 x,1/2-y,1/2+z
_cell_length_a                   14.740(2)
_cell_length_b                   13.624(2)
_cell_length_c                   16.060(3)
_cell_angle_alpha                90
_cell_angle_beta                 99.116(3)
_cell_angle_gamma                90
_cell_volume                     3184.4
_exptl_crystal_colour            yellow
_exptl_crystal_description       block
_cell_formula_units_Z            4
loop_
_atom_site_label
_atom_site_type_symbol
_atom_site_fract_x
_atom_site_fract_y
_atom_site_fract_z
F1 F 0.44824(18) -0.24632(19) -0.15459(16)
F2 F 0.39993(17) -0.53764(18) -0.01734(15)
F3 F 0.22935(17) -0.52490(18) -0.06129(15)
F4 F 0.14271(17) -0.69548(18) -0.07550(15)
F5 F 0.11880(18) -0.79928(18) 0.06286(16)
F6 F 0.17622(18) -0.72623(18) 0.21664(15)
F7 F 0.35099(18) -0.71992(18) 0.27638(16)
F8 F 0.34918(18) -0.69268(19) 0.56464(15)
F9 F 0.03067(18) -0.42580(19) 0.60841(16)
F10 F 0.12554(18) -0.13219(19) 0.50204(16)
F11 F -0.00341(17) -0.14445(19) 0.38424(16)
F12 F -0.05446(18) 0.0363(2) 0.33702(17)
F13 F 0.03713(18) 0.13846(19) 0.23395(17)
F14 F 0.18445(17) 0.06047(17) 0.18073(15)
F15 F 0.33172(17) 0.05644(18) 0.28902(15)
F16 F 0.55135(17) 0.03863(18) 0.11087(16)
C1 C 0.2968(3) -0.2823(3) 0.1742(3)
C2 C 0.2852(3) -0.3870(3) 0.1691(3)
C3 C 0.2593(3) -0.4380(3) 0.2407(3)
C4 C 0.2302(3) -0.3843(3) 0.3091(3)
C5 C 0.2151(3) -0.2813(3) 0.2994(3)
C6 C 0.2555(3) -0.2295(3) 0.2365(3)
C7 C 0.3406(3) -0.2322(3) 0.1161(3)
C8 C 0.3624(3) -0.2861(3) 0.0431(3)
C9 C 0.3503(3) -0.3896(3) 0.0395(3)
C10 C 0.3030(3) -0.4392(3) 0.0996(3)
C11 C 0.2644(3) -0.5376(3) 0.0890(3)
C12 C 0.2477(3) -0.5891(3) 0.1618(3)
C13 C 0.2605(3) -0.5397(3) 0.2423(3)
C14 C 0.2713(3) -0.5857(3) 0.3245(3)
C15 C 0.2475(3) -0.5330(3) 0.3938(3)
C16 C 0.2093(3) -0.4347(3) 0.3792(3)
C17 C 0.1600(3) -0.3830(3) 0.4367(3)
C18 C 0.1465(3) -0.2792(3) 0.4281(3)
C19 C 0.1677(3) -0.2291(3) 0.3540(3)
C20 C 0.1350(3) -0.1321(3) 0.3263(3)
C21 C 0.1832(3) -0.0791(3) 0.2711(3)
C22 C 0.2545(3) -0.1267(3) 0.2347(3)
C23 C 0.3255(3) -0.0797(3) 0.1963(3)
C24 C 0.3695(3) -0.1318(3) 0.1371(3)
C25 C 0.3920(3) -0.2375(3) -0.0260(3)
H1 H 0.3913 -0.1679 -0.0294
C26 C 0.4215(3) -0.2924(4) -0.0873(3)
C27 C 0.4262(3) -0.3934(4) -0.0856(3)
H2 H 0.4525 -0.4296 -0.1264
C28 C 0.3910(3) -0.4380(3) -0.0225(3)
C29 C 0.2274(3) -0.5767(3) 0.0100(3)
C30 C 0.1808(3) -0.6635(3) 0.0018(3)
C31 C 0.1683(3) -0.7152(3) 0.0724(3)
C32 C 0.2000(3) -0.6786(3) 0.1503(3)
C33 C 0.3192(3) -0.6742(3) 0.3414(3)
C34 C 0.3444(3) -0.7130(3) 0.4188(3)
H3 H 0.3766 -0.7735 0.4275
C35 C 0.3199(3) -0.6583(4) 0.4853(3)
C36 C 0.2741(3) -0.5714(3) 0.4760(3)
H4 H 0.2601 -0.5371 0.5239
C37 C 0.1186(3) -0.4326(4) 0.4992(3)
H5 H 0.1201 -0.5022 0.5028
C38 C 0.0775(3) -0.3790(4) 0.5530(3)
C39 C 0.0795(3) -0.2771(4) 0.5587(3)
H6 H 0.0574 -0.2424 0.6026
C40 C 0.1159(3) -0.2313(3) 0.4964(3)
C41 C 0.0533(3) -0.0910(4) 0.3442(3)
C42 C 0.0234(3) -0.0009(4) 0.3175(3)
C43 C 0.0718(3) 0.0531(3) 0.2659(3)
C44 C 0.1487(3) 0.0132(3) 0.2416(3)
C45 C 0.3651(3) 0.0108(3) 0.2248(3)
C46 C 0.4377(3) 0.0528(3) 0.1985(3)
H7 H 0.4611 0.1147 0.2191
C47 C 0.4765(3) -0.0003(3) 0.1388(3)
C48 C 0.4464(3) -0.0893(3) 0.1093(3)
H8 H 0.4770 -0.1230 0.0700
loop_
_geom_bond_atom_site_label_1
_geom_bond_atom_site_label_2
_geom_bond_site_symmetry_1
_geom_bond_site_symmetry_2
F1 C26 1_555 1_555
F2 C28 1_555 1_555
F3 C29 1_555 1_555
F4 C30 1_555 1_555
F5 C31 1_555 1_555
F6 C32 1_555 1_555
F7 C33 1_555 1_555
F8 C35 1_555 1_555
F9 C38 1_555 1_555
F10 C40 1_555 1_555
F11 C41 1_555 1_555
F12 C42 1_555 1_555
F13 C43 1_555 1_555
F14 C44 1_555 1_555
F15 C45 1_555 1_555
F16 C47 1_555 1_555
C1 C2 1_555 1_555
C2 C3 1_555 1_555
C3 C4 1_555 1_555
C4 C5 1_555 1_555
C5 C6 1_555 1_555
C6 C1 1_555 1_555
C7 C1 1_555 1_555
C8 C7 1_555 1_555
C9 C8 1_555 1_555
C10 C2 1_555 1_555
C11 C10 1_555 1_555
C12 C11 1_555 1_555
C13 C3 1_555 1_555
C14 C13 1_555 1_555
C15 C14 1_555 1_555
C16 C4 1_555 1_555
C17 C16 1_555 1_555
C18 C17 1_555 1_555
C19 C5 1_555 1_555
C20 C19 1_555 1_555
C21 C20 1_555 1_555
C22 C6 1_555 1_555
C23 C22 1_555 1_555
C24 C7 1_555 1_555
C25 C8 1_555 1_555
H1 C25 1_555 1_555
C26 C25 1_555 1_555
C27 C26 1_555 1_555
H2 C27 1_555 1_555
C28 C9 1_555 1_555
C29 C11 1_555 1_555
C30 C29 1_555 1_555
C31 C30 1_555 1_555
C32 C12 1_555 1_555
C33 C14 1_555 1_555
C34 C33 1_555 1_555
H3 C34 1_555 1_555
C35 C34 1_555 1_555
C36 C15 1_555 1_555
H4 C36 1_555 1_555
C37 C17 1_555 1_555
H5 C37 1_555 1_555
C38 C37 1_555 1_555
C39 C38 1_555 1_555
H6 C39 1_555 1_555
C40 C18 1_555 1_555
C41 C20 1_555 1_555
C42 C41 1_555 1_555
C43 C42 1_555 1_555
C44 C21 1_555 1_555
C45 C23 1_555 1_555
C46 C45 1_555 1_555
H7 C46 1_555 1_555
C47 C46 1_555 1_555
C48 C24 1_555 1_555
H8 C48 1_555 1_555
C9 C10 1_555 1_555
C12 C13 1_555 1_555
C15 C16 1_555 1_555
C18 C19 1_555 1_555
C21 C22 1_555 1_555
C23 C24 1_555 1_555
C27 C28 1_555 1_555
C31 C32 1_555 1_555
C35 C36 1_555 1_555
C39 C40 1_555 1_555
C43 C44 1_555 1_555
C47 C48 1_555 1_555

#END
