
#######################################################################
#
#                 Cambridge Crystallographic Data Centre
#                                CCDC 
#
#######################################################################
#
# If this CIF has been generated from an entry in the Cambridge 
# Structural Database, then it will include bibliographic, chemical, 
# crystal, experimental, refinement or atomic coordinate data resulting 
# from the CCDC's data processing and validation procedures.
#
#######################################################################

data_APUFUO
_chemical_formula_moiety         '2(C10 H7 O4 S6 1-),C10 H10 N2 2+'
_chemical_name_systematic        
"4,4'-bipyridin-1-ium bis(2-(4,5-bis(methylsulfanyl)-1,3-dithiol-2-ylidene)-5-carboxy-1,3-dithiole-4-carboxylate)"
_symmetry_cell_setting           triclinic
_symmetry_space_group_name_H-M   'P -1'
_symmetry_Int_Tables_number      2
_space_group_name_Hall           '-P 1'
loop_
_symmetry_equiv_pos_site_id
_symmetry_equiv_pos_as_xyz
1 x,y,z
2 -x,-y,-z
_cell_length_a                   10.6334(7)
_cell_length_b                   13.2801(9)
_cell_length_c                   13.5988(8)
_cell_angle_alpha                77.855(8)
_cell_angle_beta                 78.677(8)
_cell_angle_gamma                79.177(7)
_cell_volume                     1819.19
_exptl_crystal_colour            'dark red'
_exptl_crystal_description       Prism
_cell_formula_units_Z            2
loop_
_atom_site_label
_atom_site_type_symbol
_atom_site_fract_x
_atom_site_fract_y
_atom_site_fract_z
S1 S 0.01693(14) 0.87886(11) 0.96233(10)
S2 S 0.10181(14) 0.90311(11) 0.70792(10)
S3 S 0.09299(14) 0.67759(11) 0.73270(10)
S4 S 0.02148(15) 0.65463(12) 0.97154(10)
S5 S -0.12171(16) 0.87993(13) 1.17450(11)
S6 S -0.10753(19) 0.61838(15) 1.19024(12)
O1 O 0.1756(4) 0.9012(3) 0.4142(3)
H1 H 0.181(7) 0.8354(11) 0.422(5)
O2 O 0.1466(4) 1.0202(3) 0.5114(3)
O3 O 0.1514(4) 0.7162(3) 0.4372(3)
O4 O 0.1207(4) 0.5860(3) 0.5673(3)
C1 C -0.0560(6) 0.7066(5) 1.0813(4)
C2 C -0.0554(5) 0.8094(5) 1.0763(4)
C3 C 0.0406(5) 0.7768(4) 0.8933(4)
C4 C 0.0717(5) 0.7873(4) 0.7904(4)
C5 C 0.1153(5) 0.7487(4) 0.6086(4)
C6 C 0.1201(5) 0.8509(5) 0.5966(4)
C7 C 0.1301(5) 0.6786(5) 0.5306(4)
C8 C 0.1467(6) 0.9318(5) 0.5032(4)
C9 C -0.2395(7) 0.5778(6) 1.1528(5)
H2 H -0.2088 0.5492 1.0908
H3 H -0.3068 0.6372 1.1406
H4 H -0.2746 0.5250 1.2066
C10 C -0.0104(7) 0.8268(6) 1.2644(5)
H5 H 0.0763 0.8401 1.2326
H6 H -0.0103 0.7522 1.2847
H7 H -0.0377 0.8596 1.3241
S7 S 0.39375(16) -0.35960(12) -0.15164(11)
S8 S 0.39441(14) -0.13267(11) -0.18194(10)
S9 S 0.47139(16) -0.12857(13) -0.43180(11)
S10 S 0.58448(15) -0.38431(14) -0.60145(12)
S11 S 0.44571(16) -0.35049(13) -0.39360(11)
S12 S 0.61057(19) -0.12096(16) -0.64141(12)
O5 O 0.3325(4) -0.4715(4) 0.0430(3)
O6 O 0.2974(6) -0.3505(4) 0.1396(3)
H8 H 0.317(8) -0.289(3) 0.125(6)
O7 O 0.3109(5) -0.1638(4) 0.1140(3)
O8 O 0.3524(4) -0.0352(3) -0.0171(3)
C11 C 0.3617(5) -0.3032(5) -0.0427(4)
C12 C 0.3631(5) -0.1984(5) -0.0576(4)
C13 C 0.3301(6) -0.3821(5) 0.0520(4)
C14 C 0.3401(6) -0.1270(5) 0.0200(5)
C15 C 0.4417(5) -0.2401(4) -0.3402(4)
C16 C 0.5214(6) -0.2973(5) -0.5169(4)
C17 C 0.5326(6) -0.1962(5) -0.5337(4)
C18 C 0.5408(8) -0.1413(6) -0.7448(5)
H9 H 0.4470 -0.1298 -0.7276
H10 H 0.5702 -0.2122 -0.7563
H11 H 0.5678 -0.0929 -0.8062
C19 C 0.4416(6) -0.3880(6) -0.6517(5)
H12 H 0.4088 -0.3184 -0.6844
H13 H 0.3759 -0.4135 -0.5966
H14 H 0.4631 -0.4341 -0.7012
C20 C 0.4147(5) -0.2437(4) -0.2387(4)
N1 N 0.1680(5) 0.4513(4) 0.4429(4)
H15 H 0.151(6) 0.498(4) 0.483(4)
N2 N 0.2990(4) 0.0980(4) 0.1088(3)
H16 H 0.316(6) 0.047(4) 0.074(4)
C21 C 0.1757(6) 0.3504(5) 0.4812(4)
H17 H 0.1640 0.3279 0.5522
C22 C 0.2009(5) 0.2777(5) 0.4176(4)
H18 H 0.2045 0.2062 0.4449
C23 C 0.2208(5) 0.3121(4) 0.3120(4)
C24 C 0.2128(6) 0.4184(5) 0.2758(4)
H19 H 0.2259 0.4434 0.2051
C25 C 0.1858(6) 0.4879(5) 0.3422(5)
H20 H 0.1799 0.5599 0.3172
C26 C 0.2488(5) 0.2382(4) 0.2397(4)
C27 C 0.2327(5) 0.1341(4) 0.2750(4)
H21 H 0.2047 0.1107 0.3447
C28 C 0.2578(6) 0.0659(5) 0.2078(4)
H22 H 0.2458 -0.0040 0.2317
C29 C 0.3168(5) 0.1965(5) 0.0717(4)
H23 H 0.3468 0.2168 0.0018
C30 C 0.2910(5) 0.2691(5) 0.1359(4)
H24 H 0.3019 0.3388 0.1094
loop_
_geom_bond_atom_site_label_1
_geom_bond_atom_site_label_2
_geom_bond_site_symmetry_1
_geom_bond_site_symmetry_2
S1 C2 1_555 1_555
S2 C4 1_555 1_555
S3 C4 1_555 1_555
S4 C1 1_555 1_555
S5 C2 1_555 1_555
S6 C1 1_555 1_555
O1 H1 1_555 1_555
O2 C8 1_555 1_555
O3 C7 1_555 1_555
O4 C7 1_555 1_555
C1 C2 1_555 1_555
C3 S1 1_555 1_555
C4 C3 1_555 1_555
C5 S3 1_555 1_555
C6 S2 1_555 1_555
C7 C5 1_555 1_555
C8 O1 1_555 1_555
C9 S6 1_555 1_555
H2 C9 1_555 1_555
H3 C9 1_555 1_555
H4 C9 1_555 1_555
C10 S5 1_555 1_555
H5 C10 1_555 1_555
H6 C10 1_555 1_555
H7 C10 1_555 1_555
S7 C11 1_555 1_555
S8 C12 1_555 1_555
S9 C15 1_555 1_555
S10 C16 1_555 1_555
S11 C15 1_555 1_555
S12 C17 1_555 1_555
O5 C13 1_555 1_555
O6 H8 1_555 1_555
O7 C14 1_555 1_555
O8 C14 1_555 1_555
C11 C12 1_555 1_555
C12 C14 1_555 1_555
C13 O6 1_555 1_555
C15 C20 1_555 1_555
C16 S11 1_555 1_555
C17 S9 1_555 1_555
C18 S12 1_555 1_555
H9 C18 1_555 1_555
H10 C18 1_555 1_555
H11 C18 1_555 1_555
C19 S10 1_555 1_555
H12 C19 1_555 1_555
H13 C19 1_555 1_555
H14 C19 1_555 1_555
C20 S7 1_555 1_555
N1 H15 1_555 1_555
N2 H16 1_555 1_555
C21 N1 1_555 1_555
H17 C21 1_555 1_555
C22 C21 1_555 1_555
H18 C22 1_555 1_555
C23 C22 1_555 1_555
C24 C23 1_555 1_555
H19 C24 1_555 1_555
C25 N1 1_555 1_555
H20 C25 1_555 1_555
C26 C23 1_555 1_555
C27 C26 1_555 1_555
H21 C27 1_555 1_555
C28 N2 1_555 1_555
H22 C28 1_555 1_555
C29 N2 1_555 1_555
H23 C29 1_555 1_555
C30 C26 1_555 1_555
H24 C30 1_555 1_555
S4 C3 1_555 1_555
C5 C6 1_555 1_555
C6 C8 1_555 1_555
S8 C20 1_555 1_555
C11 C13 1_555 1_555
C16 C17 1_555 1_555
C24 C25 1_555 1_555
C27 C28 1_555 1_555
C29 C30 1_555 1_555

#END
