
#######################################################################
#
#                 Cambridge Crystallographic Data Centre
#                                CCDC 
#
#######################################################################
#
# If this CIF has been generated from an entry in the Cambridge 
# Structural Database, then it will include bibliographic, chemical, 
# crystal, experimental, refinement or atomic coordinate data resulting 
# from the CCDC's data processing and validation procedures.
#
#######################################################################

data_APUJUQ
_chemical_formula_moiety         'C30 H26 O2 S2 2+,2(Cl1 O4 1-),C2 H3 N1'
_chemical_name_systematic        
'1,2-bis(Phenoxathiinium-10-yl)cyclohexane diperchlorate acetonitrile solvate'
_symmetry_cell_setting           monoclinic
_symmetry_space_group_name_H-M   'P 21/c'
_symmetry_Int_Tables_number      14
_space_group_name_Hall           '-P 2ybc'
loop_
_symmetry_equiv_pos_site_id
_symmetry_equiv_pos_as_xyz
1 x,y,z
2 x,1/2-y,1/2+z
3 -x,-y,-z
4 -x,1/2+y,1/2-z
_cell_length_a                   9.0344(18)
_cell_length_b                   16.368(3)
_cell_length_c                   21.868(4)
_cell_angle_alpha                90
_cell_angle_beta                 100.84(3)
_cell_angle_gamma                90
_cell_volume                     3176.03
_exptl_crystal_colour            white
_exptl_crystal_description       'square prism'
_cell_formula_units_Z            4
loop_
_atom_site_label
_atom_site_type_symbol
_atom_site_fract_x
_atom_site_fract_y
_atom_site_fract_z
S1 S 0.31251(13) 0.14623(7) 0.26050(5)
S2 S 0.10960(13) 0.13239(7) 0.42602(5)
O1 O 0.1228(4) 0.29617(19) 0.22082(15)
O2 O 0.3011(4) 0.2737(2) 0.48548(16)
C1 C 0.1965(5) 0.1633(3) 0.1878(2)
C2 C 0.1891(6) 0.1052(3) 0.1410(2)
H1 H 0.2486 0.0585 0.1473
C3 C 0.0933(6) 0.1177(3) 0.0856(2)
H2 H 0.0867 0.0790 0.0541
C4 C 0.0061(6) 0.1875(3) 0.0762(2)
H3 H -0.0611 0.1945 0.0388
C5 C 0.0174(5) 0.2470(3) 0.1216(2)
H4 H -0.0393 0.2946 0.1145
C6 C 0.1135(5) 0.2347(3) 0.1775(2)
C7 C 0.2573(5) 0.3101(3) 0.2605(2)
C8 C 0.2923(6) 0.3886(3) 0.2798(2)
H5 H 0.2263 0.4310 0.2655
C9 C 0.4246(7) 0.4045(4) 0.3199(3)
H6 H 0.4473 0.4579 0.3330
C10 C 0.5245(7) 0.3429(4) 0.3412(3)
H7 H 0.6137 0.3546 0.3687
C11 C 0.4923(6) 0.2642(3) 0.3219(2)
H8 H 0.5603 0.2224 0.3355
C12 C 0.3586(5) 0.2474(3) 0.2822(2)
C13 C 0.0765(5) 0.2365(3) 0.4126(2)
C14 C -0.0475(6) 0.2603(4) 0.3688(2)
H9 H -0.1190 0.2225 0.3505
C15 C -0.0616(8) 0.3429(4) 0.3530(3)
H10 H -0.1424 0.3603 0.3229
C16 C 0.0422(10) 0.3984(4) 0.3813(3)
H11 H 0.0308 0.4533 0.3704
C17 C 0.1642(8) 0.3743(3) 0.4260(3)
H12 H 0.2342 0.4123 0.4453
C18 C 0.1790(6) 0.2929(3) 0.4411(2)
C19 C 0.2964(6) 0.2054(3) 0.5219(2)
C20 C 0.3808(6) 0.2082(3) 0.5817(2)
H13 H 0.4387 0.2539 0.5956
C21 C 0.3776(6) 0.1429(4) 0.6198(3)
H14 H 0.4336 0.1447 0.6601
C22 C 0.2938(6) 0.0742(4) 0.6005(2)
H15 H 0.2929 0.0304 0.6276
C23 C 0.2115(6) 0.0711(3) 0.5410(2)
H16 H 0.1539 0.0252 0.5272
C24 C 0.2155(5) 0.1368(3) 0.5018(2)
C25 C 0.1702(5) 0.1219(3) 0.3096(2)
H17 H 0.0982 0.1672 0.3068
C26 C 0.2551(5) 0.1150(3) 0.3771(2)
H18 H 0.3305 0.1586 0.3852
C27 C 0.3324(5) 0.0336(3) 0.3927(2)
H19 H 0.4233 0.0322 0.3751
H20 H 0.3624 0.0293 0.4375
C28 C 0.2372(6) -0.0393(3) 0.3693(2)
H21 H 0.1536 -0.0432 0.3912
H22 H 0.2971 -0.0886 0.3778
C29 C 0.1768(6) -0.0331(3) 0.3000(2)
H23 H 0.2599 -0.0325 0.2777
H24 H 0.1142 -0.0802 0.2862
C30 C 0.0850(6) 0.0442(3) 0.2862(2)
H25 H -0.0037 0.0400 0.3050
H26 H 0.0511 0.0486 0.2415
Cl1 Cl 0.71654(15) 0.15612(8) 0.46930(6)
O3 O 0.8584(4) 0.1304(2) 0.50326(18)
O4 O 0.7026(6) 0.1233(3) 0.40766(18)
O5 O 0.7129(6) 0.2414(3) 0.4635(2)
O6 O 0.6023(5) 0.1226(4) 0.4957(3)
Cl2 Cl 0.70544(16) 0.13822(10) 0.21560(7)
O7 O 0.5589(5) 0.1487(3) 0.1836(2)
O8 O 0.7856(5) 0.0883(3) 0.1791(2)
O9 O 0.7023(7) 0.1001(4) 0.2735(2)
O10 O 0.7781(9) 0.2111(4) 0.2262(4)
C31 C -0.3299(8) 0.0691(4) -0.0053(3)
C32 C -0.3945(8) 0.1122(4) 0.0396(3)
N1 N -0.2814(10) 0.0346(4) -0.0418(4)
loop_
_geom_bond_atom_site_label_1
_geom_bond_atom_site_label_2
_geom_bond_site_symmetry_1
_geom_bond_site_symmetry_2
S1 C1 1_555 1_555
S2 C13 1_555 1_555
Cl1 O3 1_555 1_555
Cl2 O7 1_555 1_555
O1 C6 1_555 1_555
O2 C18 1_555 1_555
O4 Cl1 1_555 1_555
O5 Cl1 1_555 1_555
O6 Cl1 1_555 1_555
O8 Cl2 1_555 1_555
O9 Cl2 1_555 1_555
O10 Cl2 1_555 1_555
C1 C2 1_555 1_555
C2 H1 1_555 1_555
C3 C2 1_555 1_555
H2 C3 1_555 1_555
C4 C3 1_555 1_555
H3 C4 1_555 1_555
C5 C4 1_555 1_555
H4 C5 1_555 1_555
C6 C1 1_555 1_555
C7 O1 1_555 1_555
C8 C7 1_555 1_555
H5 C8 1_555 1_555
C9 C8 1_555 1_555
H6 C9 1_555 1_555
C10 C9 1_555 1_555
H7 C10 1_555 1_555
C11 C10 1_555 1_555
H8 C11 1_555 1_555
C12 S1 1_555 1_555
C13 C14 1_555 1_555
C14 H9 1_555 1_555
C15 C14 1_555 1_555
H10 C15 1_555 1_555
C16 C15 1_555 1_555
H11 C16 1_555 1_555
C17 C16 1_555 1_555
H12 C17 1_555 1_555
C18 C13 1_555 1_555
C19 O2 1_555 1_555
C20 C19 1_555 1_555
H13 C20 1_555 1_555
C21 C20 1_555 1_555
H14 C21 1_555 1_555
C22 C21 1_555 1_555
H15 C22 1_555 1_555
C23 C22 1_555 1_555
H16 C23 1_555 1_555
C24 S2 1_555 1_555
C25 S1 1_555 1_555
H17 C25 1_555 1_555
C26 S2 1_555 1_555
H18 C26 1_555 1_555
C27 C26 1_555 1_555
H19 C27 1_555 1_555
H20 C27 1_555 1_555
C28 C27 1_555 1_555
H21 C28 1_555 1_555
H22 C28 1_555 1_555
C29 C28 1_555 1_555
H23 C29 1_555 1_555
H24 C29 1_555 1_555
C30 C25 1_555 1_555
H25 C30 1_555 1_555
H26 C30 1_555 1_555
C31 C32 1_555 1_555
N1 C31 1_555 1_555
C5 C6 1_555 1_555
C7 C12 1_555 1_555
C11 C12 1_555 1_555
C17 C18 1_555 1_555
C19 C24 1_555 1_555
C23 C24 1_555 1_555
C25 C26 1_555 1_555
C29 C30 1_555 1_555

#END
