
#######################################################################
#
#                 Cambridge Crystallographic Data Centre
#                                CCDC 
#
#######################################################################
#
# If this CIF has been generated from an entry in the Cambridge 
# Structural Database, then it will include bibliographic, chemical, 
# crystal, experimental, refinement or atomic coordinate data resulting 
# from the CCDC's data processing and validation procedures.
#
#######################################################################

data_APUKAX
_chemical_formula_moiety         'C29 H24 O2 S2 2+,2(Cl1 O4 1-)'
_chemical_name_systematic        
'1,2-bis(Phenoxathiinium-10-yl)cyclopentane diperchlorate'
_symmetry_cell_setting           monoclinic
_symmetry_space_group_name_H-M   'C 2/c'
_symmetry_Int_Tables_number      15
_space_group_name_Hall           '-C 2yn'
loop_
_symmetry_equiv_pos_site_id
_symmetry_equiv_pos_as_xyz
1 x,y,z
2 1/2+x,1/2+y,z
3 x,-y,1/2+z
4 1/2+x,1/2-y,1/2+z
5 -x,-y,-z
6 1/2-x,1/2-y,-z
7 -x,y,1/2-z
8 1/2-x,1/2+y,1/2-z
_cell_length_a                   16.803(3)
_cell_length_b                   13.651(3)
_cell_length_c                   12.880(3)
_cell_angle_alpha                90
_cell_angle_beta                 105.57(3)
_cell_angle_gamma                90
_cell_volume                     2845.97
_exptl_crystal_colour            colorless
_exptl_crystal_description       block
_chemical_melting_point          '154-155 deg.C(dec.)'
_cell_formula_units_Z            4
loop_
_atom_site_label
_atom_site_type_symbol
_atom_site_fract_x
_atom_site_fract_y
_atom_site_fract_z
Cl1 Cl 0.13957(7) 0.71365(7) 0.59872(8)
O2 O 0.1147(11) 0.6256(6) 0.6328(9)
O3 O 0.0719(6) 0.7731(9) 0.5484(8)
O4 O 0.1765(7) 0.6898(7) 0.5126(7)
O5 O 0.1939(7) 0.7639(9) 0.6791(9)
S1 S 0.12296(5) 0.70249(6) 0.22975(6)
O1 O 0.09375(16) 0.83741(16) 0.03183(15)
C1 C 0.14883(19) 0.6809(2) 0.1084(2)
C2 C 0.1867(2) 0.5933(3) 0.0959(3)
H1 H 0.2021 0.5495 0.1531
C3 C 0.2015(2) 0.5712(3) -0.0013(3)
H2 H 0.2262 0.5120 -0.0106
C4 C 0.1793(2) 0.6378(3) -0.0852(3)
H3 H 0.1893 0.6231 -0.1511
C5 C 0.1429(2) 0.7244(3) -0.0726(3)
H4 H 0.1281 0.7682 -0.1299
C6 C 0.1279(2) 0.7475(2) 0.0244(2)
C7 C 0.1167(2) 0.8304(2) 0.2263(2)
C8 C 0.1008(2) 0.8813(2) 0.1296(2)
C9 C 0.0919(2) 0.9810(3) 0.1286(3)
H5 H 0.0820 1.0152 0.0640
C10 C 0.0976(3) 1.0303(3) 0.2229(3)
H6 H 0.0901 1.0979 0.2217
C11 C 0.1146(3) 0.9804(3) 0.3202(3)
H7 H 0.1190 1.0146 0.3839
C12 C 0.1250(2) 0.8817(3) 0.3225(3)
H8 H 0.1375 0.8483 0.3879
C13 C 0.01197(18) 0.6669(2) 0.1966(2)
H9 H -0.0227 0.7119 0.1441
C14 C 0.0012(2) 0.5612(2) 0.1572(3)
H10 H -0.0556 0.5488 0.1172
H11 H 0.0369 0.5471 0.1110
C15 C 0.0236(5) 0.5028(4) 0.2525(14)
H12 H 0.0826 0.4903 0.2730
H13 H -0.0052 0.4405 0.2405
C13F C -0.01197(18) 0.6669(2) 0.3034(2)
S1F S -0.12296(5) 0.70249(6) 0.27025(6)
C1F C -0.14883(19) 0.6809(2) 0.3916(2)
C2F C -0.1867(2) 0.5933(3) 0.4041(3)
H1F H -0.2021 0.5495 0.3469
C3F C -0.2015(2) 0.5712(3) 0.5013(3)
H2F H -0.2262 0.5120 0.5106
C4F C -0.1793(2) 0.6378(3) 0.5852(3)
H3F H -0.1893 0.6231 0.6511
C5F C -0.1429(2) 0.7244(3) 0.5726(3)
H4F H -0.1281 0.7682 0.6299
C6F C -0.1279(2) 0.7475(2) 0.4756(2)
O1F O -0.09375(16) 0.83741(16) 0.46817(15)
C8F C -0.1008(2) 0.8813(2) 0.3704(2)
C7F C -0.1167(2) 0.8304(2) 0.2737(2)
C12F C -0.1250(2) 0.8817(3) 0.1775(3)
C11F C -0.1146(3) 0.9804(3) 0.1798(3)
C10F C -0.0976(3) 1.0303(3) 0.2771(3)
C9F C -0.0919(2) 0.9810(3) 0.3714(3)
H5F H -0.0820 1.0152 0.4360
H6F H -0.0901 1.0979 0.2783
H7F H -0.1190 1.0146 0.1161
H8F H -0.1375 0.8483 0.1121
H9F H 0.0227 0.7119 0.3559
C14F C -0.0012(2) 0.5612(2) 0.3428(3)
H10F H 0.0556 0.5488 0.3828
H11F H -0.0369 0.5471 0.3890
C15F C -0.0236(5) 0.5028(4) 0.2475(14)
H12F H -0.0826 0.4903 0.2270
H13F H 0.0052 0.4405 0.2595
Cl2? Cl 0.13957(7) 0.71365(7) 0.59872(8)
O6? O 0.0667(7) 0.7274(11) 0.6278(17)
O7? O 0.1874(12) 0.8005(12) 0.628(2)
O8? O 0.1310(12) 0.6926(16) 0.4943(6)
O9? O 0.1849(15) 0.6386(15) 0.6656(12)
Cl3? Cl 0.13957(7) 0.71365(7) 0.59872(8)
O10? O 0.1702(13) 0.6485(15) 0.5390(18)
O11? O 0.1978(11) 0.7424(18) 0.6919(11)
O12? O 0.1085(13) 0.7969(11) 0.5356(15)
O13? O 0.0716(9) 0.6731(16) 0.6283(18)
loop_
_geom_bond_atom_site_label_1
_geom_bond_atom_site_label_2
_geom_bond_site_symmetry_1
_geom_bond_site_symmetry_2
S1 C1 1_555 1_555
O1 C6 1_555 1_555
C1 C2 1_555 1_555
C2 H1 1_555 1_555
C3 C2 1_555 1_555
H2 C3 1_555 1_555
C4 C3 1_555 1_555
H3 C4 1_555 1_555
C5 C4 1_555 1_555
H4 C5 1_555 1_555
C6 C1 1_555 1_555
C7 S1 1_555 1_555
C8 O1 1_555 1_555
C9 C8 1_555 1_555
H5 C9 1_555 1_555
C10 C9 1_555 1_555
H6 C10 1_555 1_555
C11 C10 1_555 1_555
H7 C11 1_555 1_555
C12 C7 1_555 1_555
H8 C12 1_555 1_555
C13 S1 1_555 1_555
H9 C13 1_555 1_555
C14 C13 1_555 1_555
H10 C14 1_555 1_555
H11 C14 1_555 1_555
C15 C14 1_555 1_555
H12 C15 1_555 1_555
H13 C15 1_555 1_555
Cl1 O2 1_555 1_555
O3 Cl1 1_555 1_555
O4 Cl1 1_555 1_555
O5 Cl1 1_555 1_555
C13F C13 1_555 1_555
S1F C13F 1_555 1_555
C1F S1F 1_555 1_555
C2F C1F 1_555 1_555
H1F C2F 1_555 1_555
C3F C2F 1_555 1_555
H2F C3F 1_555 1_555
C4F C3F 1_555 1_555
H3F C4F 1_555 1_555
C5F C4F 1_555 1_555
H4F C5F 1_555 1_555
C6F C1F 1_555 1_555
O1F C6F 1_555 1_555
C8F O1F 1_555 1_555
C7F S1F 1_555 1_555
C12F C7F 1_555 1_555
C11F C12F 1_555 1_555
C10F C11F 1_555 1_555
C9F C8F 1_555 1_555
H5F C9F 1_555 1_555
H6F C10F 1_555 1_555
H7F C11F 1_555 1_555
H8F C12F 1_555 1_555
H9F C13F 1_555 1_555
C14F C15 1_555 1_555
H10F C14F 1_555 1_555
H11F C14F 1_555 1_555
C15F C14 1_555 1_555
H12F C15F 1_555 1_555
H13F C15 1_555 1_555
C5 C6 1_555 1_555
C7 C8 1_555 1_555
C11 C12 1_555 1_555
C15 C15F 1_555 1_555
H13 C15F 1_555 1_555
H13 H13F 1_555 1_555
C13F C14F 1_555 1_555
C5F C6F 1_555 1_555
C8F C7F 1_555 1_555
C10F C9F 1_555 1_555
C14F C15F 1_555 1_555
C15F H13F 1_555 1_555

#END
