
#######################################################################
#
#                 Cambridge Crystallographic Data Centre
#                                CCDC 
#
#######################################################################
#
# If this CIF has been generated from an entry in the Cambridge 
# Structural Database, then it will include bibliographic, chemical, 
# crystal, experimental, refinement or atomic coordinate data resulting 
# from the CCDC's data processing and validation procedures.
#
#######################################################################

data_APUKUR
_chemical_formula_moiety         'C18 H20 S2 2+,2(Cl1 O4 1-)'
_chemical_name_systematic        
'threo-2,3-(Thianthrenium-5,10-diyl)-4-methylpentane diperchlorate'
_symmetry_cell_setting           monoclinic
_symmetry_space_group_name_H-M   'P 21/n'
_symmetry_Int_Tables_number      14
_space_group_name_Hall           '-P 2yn'
loop_
_symmetry_equiv_pos_site_id
_symmetry_equiv_pos_as_xyz
1 x,y,z
2 1/2+x,1/2-y,1/2+z
3 -x,-y,-z
4 1/2-x,1/2+y,1/2-z
_cell_length_a                   9.7296(11)
_cell_length_b                   22.347(2)
_cell_length_c                   10.4119(11)
_cell_angle_alpha                90
_cell_angle_beta                 99.920(2)
_cell_angle_gamma                90
_cell_volume                     2229.99
_exptl_crystal_colour            colorless
_exptl_crystal_description       'thin plate'
_chemical_melting_point          '114-115 deg.C(dec.)'
_cell_formula_units_Z            4
loop_
_atom_site_label
_atom_site_type_symbol
_atom_site_fract_x
_atom_site_fract_y
_atom_site_fract_z
S1 S 0.06156(14) 0.18849(6) 0.59750(13)
S2 S 0.23016(14) 0.17425(6) 0.37296(13)
C1 C 0.1168(6) 0.2536(2) 0.5240(5)
C2 C 0.0788(6) 0.3095(3) 0.5619(5)
H1 H 0.0256 0.3138 0.6275
C3 C 0.1216(7) 0.3583(3) 0.5005(6)
H2 H 0.0967 0.3964 0.5246
C4 C 0.2013(7) 0.3524(3) 0.4034(6)
H3 H 0.2311 0.3864 0.3646
C5 C 0.2369(6) 0.2964(3) 0.3634(6)
H4 H 0.2883 0.2923 0.2964
C6 C 0.1948(6) 0.2469(2) 0.4249(5)
C7 C 0.2900(6) 0.1377(2) 0.5234(5)
C8 C 0.4074(6) 0.1013(3) 0.5368(6)
H5 H 0.4583 0.0971 0.4695
C9 C 0.4452(6) 0.0718(3) 0.6522(6)
H6 H 0.5225 0.0466 0.6630
C10 C 0.3721(7) 0.0783(3) 0.7523(6)
H7 H 0.4012 0.0576 0.8296
C11 C 0.2561(6) 0.1151(2) 0.7419(5)
H8 H 0.2075 0.1197 0.8108
C12 C 0.2153(5) 0.1446(2) 0.6243(5)
C13 C -0.0211(7) 0.1742(4) 0.2150(6)
H9 H -0.1149 0.1596 0.1928
H10 H 0.0289 0.1655 0.1454
H11 H -0.0226 0.2167 0.2283
C14 C 0.0506(6) 0.1441(3) 0.3389(6)
H12 H 0.0578 0.1014 0.3194
C15 C -0.0309(6) 0.1492(3) 0.4523(6)
H13 H -0.1144 0.1729 0.4199
C16 C -0.0829(8) 0.0887(3) 0.4968(7)
H14 H -0.0020 0.0624 0.5207
C17 C -0.1556(9) 0.0944(4) 0.6138(9)
H15 H -0.0917 0.1106 0.6862
H16 H -0.1867 0.0557 0.6366
H17 H -0.2344 0.1207 0.5929
C18 C -0.1786(11) 0.0608(4) 0.3844(10)
H18 H -0.2091 0.0224 0.4102
H19 H -0.1299 0.0558 0.3124
H20 H -0.2581 0.0862 0.3587
Cl1 Cl 0.64033(17) 0.25158(7) 0.43549(16)
O1 O 0.5366(8) 0.2079(3) 0.4162(11)
O2 O 0.7344(7) 0.2472(3) 0.5553(5)
O3 O 0.7243(6) 0.2490(3) 0.3372(5)
O4 O 0.5718(5) 0.3088(2) 0.4234(5)
Cl2 Cl 0.65803(18) -0.05407(7) 0.83564(16)
O5 O 0.7166(9) -0.0997(3) 0.9165(7)
O6 O 0.6508(7) -0.0007(3) 0.9022(6)
O7 O 0.5200(6) -0.0708(3) 0.7741(6)
O8 O 0.7354(6) -0.0447(3) 0.7337(6)
loop_
_geom_bond_atom_site_label_1
_geom_bond_atom_site_label_2
_geom_bond_site_symmetry_1
_geom_bond_site_symmetry_2
S1 C1 1_555 1_555
S2 C6 1_555 1_555
C1 C2 1_555 1_555
C2 H1 1_555 1_555
C3 C2 1_555 1_555
H2 C3 1_555 1_555
C4 C3 1_555 1_555
H3 C4 1_555 1_555
C5 C4 1_555 1_555
H4 C5 1_555 1_555
C6 C1 1_555 1_555
C7 S2 1_555 1_555
C8 C7 1_555 1_555
H5 C8 1_555 1_555
C9 C8 1_555 1_555
H6 C9 1_555 1_555
C10 C9 1_555 1_555
H7 C10 1_555 1_555
C11 C10 1_555 1_555
H8 C11 1_555 1_555
C12 S1 1_555 1_555
C13 H9 1_555 1_555
H10 C13 1_555 1_555
H11 C13 1_555 1_555
C14 S2 1_555 1_555
H12 C14 1_555 1_555
C15 S1 1_555 1_555
H13 C15 1_555 1_555
C16 C15 1_555 1_555
H14 C16 1_555 1_555
C17 C16 1_555 1_555
H15 C17 1_555 1_555
H16 C17 1_555 1_555
H17 C17 1_555 1_555
C18 C16 1_555 1_555
H18 C18 1_555 1_555
H19 C18 1_555 1_555
H20 C18 1_555 1_555
Cl1 O1 1_555 1_555
Cl2 O5 1_555 1_555
O2 Cl1 1_555 1_555
O3 Cl1 1_555 1_555
O4 Cl1 1_555 1_555
O6 Cl2 1_555 1_555
O7 Cl2 1_555 1_555
O8 Cl2 1_555 1_555
C5 C6 1_555 1_555
C7 C12 1_555 1_555
C11 C12 1_555 1_555
C13 C14 1_555 1_555
C14 C15 1_555 1_555

#END
