
#######################################################################
#
#                 Cambridge Crystallographic Data Centre
#                                CCDC 
#
#######################################################################
#
# If this CIF has been generated from an entry in the Cambridge 
# Structural Database, then it will include bibliographic, chemical, 
# crystal, experimental, refinement or atomic coordinate data resulting 
# from the CCDC's data processing and validation procedures.
#
#######################################################################

data_APUKOL
_chemical_formula_moiety         'C16 H16 S2 2+,2(Cl1 O4 1-),C2 H3 N1'
_chemical_name_systematic        
'threo-2,3-(Thianthrenium-5,10-diyl)butane diperchlorate acetonitrile solvate'
_symmetry_cell_setting           orthorhombic
_symmetry_space_group_name_H-M   'P b c a'
_symmetry_Int_Tables_number      61
_space_group_name_Hall           '-P 2ac 2ab'
loop_
_symmetry_equiv_pos_site_id
_symmetry_equiv_pos_as_xyz
1 x,y,z
2 1/2+x,y,1/2-z
3 x,1/2-y,1/2+z
4 1/2-x,1/2+y,z
5 -x,-y,-z
6 1/2-x,-y,1/2+z
7 -x,1/2+y,1/2-z
8 1/2+x,1/2-y,-z
_cell_length_a                   14.216(2)
_cell_length_b                   15.657(2)
_cell_length_c                   20.419(3)
_cell_angle_alpha                90
_cell_angle_beta                 90
_cell_angle_gamma                90
_cell_volume                     4544.86
_exptl_crystal_colour            colorless
_exptl_crystal_description       'thin plate'
_cell_formula_units_Z            8
loop_
_atom_site_label
_atom_site_type_symbol
_atom_site_fract_x
_atom_site_fract_y
_atom_site_fract_z
S1 S 0.24390(12) 0.22406(13) 0.67405(13)
S2 S 0.24543(13) 0.02677(14) 0.67415(13)
C1 C 0.3419(6) 0.0821(6) 0.6377(4)
C2 C 0.4168(7) 0.0398(6) 0.6125(4)
H1 H 0.4192 -0.0195 0.6139
C3 C 0.4874(7) 0.0844(8) 0.5856(5)
H2 H 0.5376 0.0551 0.5670
C4 C 0.4876(7) 0.1722(8) 0.5845(5)
H3 H 0.5377 0.2019 0.5661
C5 C 0.4145(8) 0.2142(6) 0.6106(4)
H4 H 0.4140 0.2736 0.6106
C6 C 0.3408(6) 0.1702(6) 0.6372(4)
C7 C 0.1475(6) 0.1687(6) 0.6374(4)
C8 C 0.0738(8) 0.2104(6) 0.6112(4)
H5 H 0.0729 0.2698 0.6122
C9 C 0.0014(7) 0.1688(8) 0.5835(5)
H6 H -0.0486 0.1986 0.5651
C10 C 0.0029(7) 0.0813(8) 0.5830(5)
H7 H -0.0470 0.0519 0.5639
C11 C 0.0747(7) 0.0364(5) 0.6095(4)
H8 H 0.0740 -0.0230 0.6091
C12 C 0.1485(6) 0.0797(5) 0.6369(4)
C13 C 0.2443(5) 0.0766(6) 0.7548(4)
H9 H 0.1858 0.0590 0.7763
C14 C 0.2459(5) 0.1742(6) 0.7553(4)
H10 H 0.3050 0.1914 0.7762
C15 C 0.1666(7) 0.2135(7) 0.7952(4)
H11 H 0.1666 0.1892 0.8384
H12 H 0.1075 0.2018 0.7743
H13 H 0.1758 0.2741 0.7982
C16 C 0.3256(8) 0.0401(7) 0.7954(4)
H14 H 0.3249 0.0651 0.8383
H15 H 0.3842 0.0529 0.7742
H16 H 0.3185 -0.0207 0.7990
C17 C 0.6640(11) 0.3752(6) 0.5664(5)
C18 C 0.7638(10) 0.3766(7) 0.5473(7)
H17 H 0.7778 0.3268 0.5216
H18 H 0.8024 0.3769 0.5859
H19 H 0.7762 0.4269 0.5219
N1 N 0.5875(9) 0.3733(7) 0.5789(6)
Cl1 Cl 0.74244(12) 0.1248(2) 0.49296(9)
O1 O 0.7586(16) 0.1957(12) 0.4668(8)
O2 O 0.7924(16) 0.0717(14) 0.4676(6)
O3 O 0.6541(11) 0.1209(9) 0.4734(6)
O4 O 0.7441(6) 0.1249(7) 0.5565(4)
Cl3 Cl 0.4383(2) 0.12487(15) 0.27596(12)
O9 O 0.4075(11) 0.1945(10) 0.2500(10)
O10 O 0.4231(10) 0.1222(11) 0.3388(5)
O11 O 0.5342(6) 0.1254(5) 0.2683(7)
O12 O 0.4079(11) 0.0572(10) 0.2467(10)
Cl2? Cl 0.4383(2) 0.12487(15) 0.27596(12)
O5? O 0.4127(10) 0.1983(10) 0.3078(12)
O6? O 0.4131(11) 0.0555(11) 0.3123(11)
O7? O 0.5342(6) 0.1254(5) 0.2683(7)
O8? O 0.3959(13) 0.1218(15) 0.2164(7)
loop_
_geom_bond_atom_site_label_1
_geom_bond_atom_site_label_2
_geom_bond_site_symmetry_1
_geom_bond_site_symmetry_2
S1 C6 1_555 1_555
S2 C1 1_555 1_555
C1 C2 1_555 1_555
C2 H1 1_555 1_555
C3 C2 1_555 1_555
H2 C3 1_555 1_555
C4 C3 1_555 1_555
H3 C4 1_555 1_555
C5 C4 1_555 1_555
H4 C5 1_555 1_555
C6 C1 1_555 1_555
C7 S1 1_555 1_555
C8 C7 1_555 1_555
H5 C8 1_555 1_555
C9 C8 1_555 1_555
H6 C9 1_555 1_555
C10 C9 1_555 1_555
H7 C10 1_555 1_555
C11 C10 1_555 1_555
H8 C11 1_555 1_555
C12 S2 1_555 1_555
C13 S2 1_555 1_555
H9 C13 1_555 1_555
C14 S1 1_555 1_555
H10 C14 1_555 1_555
C15 C14 1_555 1_555
H11 C15 1_555 1_555
H12 C15 1_555 1_555
H13 C15 1_555 1_555
C16 C13 1_555 1_555
H14 C16 1_555 1_555
H15 C16 1_555 1_555
H16 C16 1_555 1_555
C17 C18 1_555 1_555
C18 H17 1_555 1_555
H18 C18 1_555 1_555
H19 C18 1_555 1_555
N1 C17 1_555 1_555
Cl1 O1 1_555 1_555
O2 Cl1 1_555 1_555
O3 Cl1 1_555 1_555
O4 Cl1 1_555 1_555
Cl3 O9 1_555 1_555
O10 Cl3 1_555 1_555
O11 Cl3 1_555 1_555
O12 Cl3 1_555 1_555
C5 C6 1_555 1_555
C7 C12 1_555 1_555
C11 C12 1_555 1_555
C13 C14 1_555 1_555

#END
