
#######################################################################
#
#                 Cambridge Crystallographic Data Centre
#                                CCDC 
#
#######################################################################
#
# If this CIF has been generated from an entry in the Cambridge 
# Structural Database, then it will include bibliographic, chemical, 
# crystal, experimental, refinement or atomic coordinate data resulting 
# from the CCDC's data processing and validation procedures.
#
#######################################################################

data_APUKEB
_chemical_formula_moiety         'C31 H28 O2 S2 2+,2(Cl1 O4 1-)'
_chemical_name_systematic        
'1,2-bis(Phenoxathiinium-10-yl)cycloheptane diperchlorate'
_symmetry_cell_setting           monoclinic
_symmetry_space_group_name_H-M   'P 21/n'
_symmetry_Int_Tables_number      14
_space_group_name_Hall           '-P 2yn'
loop_
_symmetry_equiv_pos_site_id
_symmetry_equiv_pos_as_xyz
1 x,y,z
2 1/2+x,1/2-y,1/2+z
3 -x,-y,-z
4 1/2-x,1/2+y,1/2-z
_cell_length_a                   14.198(3)
_cell_length_b                   13.998(3)
_cell_length_c                   15.977(3)
_cell_angle_alpha                90
_cell_angle_beta                 108.00(3)
_cell_angle_gamma                90
_cell_volume                     3019.92
_exptl_crystal_colour            colorless
_exptl_crystal_description       prism
_chemical_melting_point          '125-126 deg.C(dec.)'
_cell_formula_units_Z            4
loop_
_atom_site_label
_atom_site_type_symbol
_atom_site_fract_x
_atom_site_fract_y
_atom_site_fract_z
S1 S 0.15289(10) 0.83612(9) 0.03610(9)
O1 O 0.0795(3) 0.6587(3) 0.1052(3)
C1 C 0.0652(4) 0.8321(4) 0.0930(4)
C2 C 0.0215(4) 0.9158(4) 0.1080(4)
H1 H 0.0379 0.9739 0.0878
C3 C -0.0465(5) 0.9119(5) 0.1531(5)
H2 H -0.0755 0.9678 0.1650
C4 C -0.0718(5) 0.8246(6) 0.1810(5)
H3 H -0.1180 0.8228 0.2115
C5 C -0.0309(5) 0.7417(5) 0.1651(5)
H4 H -0.0493 0.6837 0.1839
C6 C 0.0395(4) 0.7444(4) 0.1199(4)
C7 C 0.1066(4) 0.6481(4) 0.0308(4)
C8 C 0.1057(4) 0.5555(4) -0.0009(5)
H5 H 0.0919 0.5039 0.0300
C9 C 0.1258(5) 0.5415(5) -0.0792(5)
H6 H 0.1241 0.4800 -0.1017
C10 C 0.1481(4) 0.6167(5) -0.1244(4)
H7 H 0.1604 0.6056 -0.1775
C11 C 0.1528(4) 0.7090(5) -0.0925(4)
H8 H 0.1677 0.7601 -0.1234
C12 C 0.1346(4) 0.7231(4) -0.0130(4)
S2 S 0.45990(10) 0.74858(9) 0.13199(9)
O2 O 0.4119(3) 0.6734(3) -0.0523(3)
C13 C 0.4128(4) 0.6339(4) 0.0954(4)
C14 C 0.3960(5) 0.5685(5) 0.1544(5)
H9 H 0.4083 0.5846 0.2133
C15 C 0.3610(5) 0.4799(5) 0.1242(6)
H10 H 0.3494 0.4351 0.1629
C16 C 0.3428(5) 0.4566(5) 0.0363(6)
H11 H 0.3173 0.3967 0.0163
C17 C 0.3617(5) 0.5199(4) -0.0214(5)
H12 H 0.3517 0.5029 -0.0798
C18 C 0.3960(4) 0.6099(4) 0.0085(4)
C19 C 0.4957(4) 0.7314(4) -0.0240(4)
C20 C 0.5441(5) 0.7530(5) -0.0847(5)
H13 H 0.5182 0.7329 -0.1428
C21 C 0.6293(5) 0.8036(5) -0.0590(6)
H14 H 0.6614 0.8188 -0.0999
C22 C 0.6690(5) 0.8329(5) 0.0265(6)
H15 H 0.7293 0.8649 0.0435
C23 C 0.6206(4) 0.8153(4) 0.0880(5)
H16 H 0.6465 0.8364 0.1458
C24 C 0.5318(4) 0.7650(4) 0.0606(4)
C25 C 0.2739(4) 0.8197(4) 0.1251(4)
H17 H 0.2766 0.7548 0.1486
C26 C 0.3525(4) 0.8294(3) 0.0778(4)
H18 H 0.3224 0.8053 0.0179
C27 C 0.3883(4) 0.9300(4) 0.0692(4)
H19 H 0.3310 0.9716 0.0508
H20 H 0.4186 0.9300 0.0224
C28 C 0.4624(5) 0.9734(4) 0.1516(5)
H21 H 0.5159 0.9280 0.1741
H22 H 0.4907 1.0301 0.1339
C29 C 0.4234(5) 1.0005(4) 0.2260(5)
H23 H 0.3752 1.0514 0.2061
H24 H 0.4776 1.0255 0.2741
C30 C 0.3752(5) 0.9186(5) 0.2604(4)
H25 H 0.4186 0.8635 0.2704
H26 H 0.3676 0.9370 0.3166
C31 C 0.2746(4) 0.8908(4) 0.1980(4)
H27 H 0.2413 0.9485 0.1706
H28 H 0.2358 0.8639 0.2326
Cl1 Cl 0.14070(12) 0.17782(12) 0.12246(11)
O3 O 0.0461(4) 0.1590(4) 0.1337(4)
O4 O 0.1354(5) 0.2633(4) 0.0742(4)
O5 O 0.2153(5) 0.1833(4) 0.2062(4)
O6 O 0.1642(4) 0.0999(3) 0.0748(4)
Cl2 Cl 0.25018(12) 0.91089(12) -0.22443(11)
O7 O 0.1553(6) 0.8747(5) -0.2601(5)
O8 O 0.2845(8) 0.8957(7) -0.1330(8)
O9 O 0.2454(6) 1.0139(6) -0.2322(6)
O10 O 0.3114(7) 0.8919(7) -0.2721(7)
loop_
_geom_bond_atom_site_label_1
_geom_bond_atom_site_label_2
_geom_bond_site_symmetry_1
_geom_bond_site_symmetry_2
S1 C1 1_555 1_555
O1 C6 1_555 1_555
C1 C2 1_555 1_555
C2 H1 1_555 1_555
C3 C2 1_555 1_555
H2 C3 1_555 1_555
C4 C3 1_555 1_555
H3 C4 1_555 1_555
C5 C4 1_555 1_555
H4 C5 1_555 1_555
C6 C1 1_555 1_555
C7 O1 1_555 1_555
C8 C7 1_555 1_555
H5 C8 1_555 1_555
C9 C8 1_555 1_555
H6 C9 1_555 1_555
C10 C9 1_555 1_555
H7 C10 1_555 1_555
C11 C10 1_555 1_555
H8 C11 1_555 1_555
C12 S1 1_555 1_555
S2 C13 1_555 1_555
O2 C18 1_555 1_555
C13 C14 1_555 1_555
C14 H9 1_555 1_555
C15 C14 1_555 1_555
H10 C15 1_555 1_555
C16 C15 1_555 1_555
H11 C16 1_555 1_555
C17 C16 1_555 1_555
H12 C17 1_555 1_555
C18 C13 1_555 1_555
C19 O2 1_555 1_555
C20 C19 1_555 1_555
H13 C20 1_555 1_555
C21 C20 1_555 1_555
H14 C21 1_555 1_555
C22 C21 1_555 1_555
H15 C22 1_555 1_555
C23 C22 1_555 1_555
H16 C23 1_555 1_555
C24 S2 1_555 1_555
C25 S1 1_555 1_555
H17 C25 1_555 1_555
C26 S2 1_555 1_555
H18 C26 1_555 1_555
C27 C26 1_555 1_555
H19 C27 1_555 1_555
H20 C27 1_555 1_555
C28 C27 1_555 1_555
H21 C28 1_555 1_555
H22 C28 1_555 1_555
C29 C28 1_555 1_555
H23 C29 1_555 1_555
H24 C29 1_555 1_555
C30 C29 1_555 1_555
H25 C30 1_555 1_555
H26 C30 1_555 1_555
C31 C25 1_555 1_555
H27 C31 1_555 1_555
H28 C31 1_555 1_555
Cl1 O3 1_555 1_555
O4 Cl1 1_555 1_555
O5 Cl1 1_555 1_555
O6 Cl1 1_555 1_555
Cl2 O7 1_555 1_555
O8 Cl2 1_555 1_555
O9 Cl2 1_555 1_555
O10 Cl2 1_555 1_555
C5 C6 1_555 1_555
C7 C12 1_555 1_555
C11 C12 1_555 1_555
C17 C18 1_555 1_555
C19 C24 1_555 1_555
C23 C24 1_555 1_555
C25 C26 1_555 1_555
C30 C31 1_555 1_555

#END
