
#######################################################################
#
#                 Cambridge Crystallographic Data Centre
#                                CCDC 
#
#######################################################################
#
# If this CIF has been generated from an entry in the Cambridge 
# Structural Database, then it will include bibliographic, chemical, 
# crystal, experimental, refinement or atomic coordinate data resulting 
# from the CCDC's data processing and validation procedures.
#
#######################################################################

data_APULAY
_chemical_formula_moiety         'C22 H28 S2 2+,2(Cl1 O4 1-)'
_chemical_name_systematic        
'erythro-5,6-(Thianthrenium-5,10-diyl)decane diperchlorate'
_symmetry_cell_setting           monoclinic
_symmetry_space_group_name_H-M   'P 21/c'
_symmetry_Int_Tables_number      14
_space_group_name_Hall           '-P 2ybc'
loop_
_symmetry_equiv_pos_site_id
_symmetry_equiv_pos_as_xyz
1 x,y,z
2 x,1/2-y,1/2+z
3 -x,-y,-z
4 -x,1/2+y,1/2-z
_cell_length_a                   9.431(3)
_cell_length_b                   16.610(5)
_cell_length_c                   16.074(4)
_cell_angle_alpha                90
_cell_angle_beta                 92.771(6)
_cell_angle_gamma                90
_cell_volume                     2515.03
_exptl_crystal_colour            colorless
_exptl_crystal_description       'thin needle'
_chemical_melting_point          '134-135 deg.C(dec.)'
_cell_formula_units_Z            4
loop_
_atom_site_label
_atom_site_type_symbol
_atom_site_fract_x
_atom_site_fract_y
_atom_site_fract_z
S1 S 0.85099(18) 0.21644(10) 0.72340(10)
S2 S 0.84797(18) 0.03082(10) 0.73409(10)
C1 C 0.9701(7) 0.1675(4) 0.7950(4)
C2 C 1.0595(8) 0.2131(5) 0.8468(4)
H1 H 1.0641 0.2688 0.8415
C3 C 1.1427(9) 0.1721(6) 0.9075(5)
H2 H 1.2009 0.2014 0.9449
C4 C 1.1402(9) 0.0910(6) 0.9130(5)
H3 H 1.1989 0.0657 0.9531
C5 C 1.0518(8) 0.0436(5) 0.8600(4)
H4 H 1.0507 -0.0122 0.8640
C6 C 0.9662(7) 0.0846(4) 0.8013(4)
C7 C 0.6885(7) 0.0838(4) 0.7485(4)
C8 C 0.5630(8) 0.0423(4) 0.7598(4)
H5 H 0.5604 -0.0137 0.7600
C9 C 0.4427(8) 0.0872(5) 0.7705(5)
H6 H 0.3588 0.0609 0.7818
C10 C 0.4424(8) 0.1693(5) 0.7651(5)
H7 H 0.3586 0.1978 0.7710
C11 C 0.5681(7) 0.2104(4) 0.7509(4)
H8 H 0.5685 0.2662 0.7457
C12 C 0.6901(7) 0.1673(4) 0.7447(4)
C13 C 0.654(2) 0.4072(8) 0.4889(8)
H9 H 0.5812 0.4218 0.4480
H10 H 0.7418 0.4325 0.4756
H11 H 0.6277 0.4247 0.5429
C14 C 0.6721(16) 0.3219(6) 0.4892(6)
H12 H 0.6965 0.3048 0.4340
H13 H 0.5824 0.2970 0.5011
C15 C 0.7871(12) 0.2915(5) 0.5528(5)
H14 H 0.8800 0.3076 0.5355
H15 H 0.7727 0.3155 0.6068
C16 C 0.7805(10) 0.2001(4) 0.5596(4)
H16 H 0.7984 0.1770 0.5057
H17 H 0.6853 0.1847 0.5734
C17 C 0.8861(8) 0.1643(4) 0.6246(4)
H18 H 0.9807 0.1814 0.6092
C18 C 0.8908(8) 0.0707(4) 0.6319(4)
H19 H 0.9891 0.0548 0.6233
C19 C 0.7980(9) 0.0252(4) 0.5662(4)
H20 H 0.6988 0.0330 0.5775
H21 H 0.8135 0.0475 0.5116
C20 C 0.8309(11) -0.0655(5) 0.5656(5)
H22 H 0.9327 -0.0723 0.5626
H23 H 0.8040 -0.0883 0.6181
C21 C 0.7599(15) -0.1123(6) 0.4971(7)
H24 H 0.7769 -0.0864 0.4444
H25 H 0.8009 -0.1658 0.4959
C22 C 0.6128(15) -0.1188(9) 0.5059(12)
H26 H 0.5709 -0.1489 0.4601
H27 H 0.5715 -0.0659 0.5065
H28 H 0.5953 -0.1458 0.5572
Cl1 Cl 0.2291(3) -0.09035(12) 0.68575(12)
O1 O 0.3573(11) -0.0727(10) 0.6374(8)
O2 O 0.1476(14) -0.0231(6) 0.6787(9)
O3 O 0.1713(16) -0.1598(7) 0.6496(9)
O4 O 0.2806(17) -0.1051(11) 0.7678(6)
Cl2 Cl -0.2299(2) -0.15921(13) 0.84491(13)
O13 O -0.3130(19) -0.1538(11) 0.7691(7)
O14 O -0.2240(18) -0.0826(6) 0.8827(10)
O15 O -0.288(3) -0.2154(11) 0.8972(8)
O16 O -0.0907(13) -0.1814(16) 0.8256(14)
O5? O 0.240(2) -0.0205(7) 0.6420(9)
O6? O 0.0839(10) -0.0891(9) 0.7208(8)
O7? O 0.2308(17) -0.1605(7) 0.6385(11)
O8? O 0.3227(15) -0.0950(12) 0.7560(8)
O9? O -0.275(3) -0.1448(18) 0.7617(7)
O10? O -0.157(2) -0.0923(11) 0.8785(16)
O11? O -0.3509(17) -0.1744(16) 0.8925(14)
O12? O -0.143(2) -0.2279(10) 0.8499(15)
loop_
_geom_bond_atom_site_label_1
_geom_bond_atom_site_label_2
_geom_bond_site_symmetry_1
_geom_bond_site_symmetry_2
S1 C1 1_555 1_555
S2 C6 1_555 1_555
C1 C2 1_555 1_555
C2 H1 1_555 1_555
C3 C2 1_555 1_555
H2 C3 1_555 1_555
C4 C3 1_555 1_555
H3 C4 1_555 1_555
C5 C4 1_555 1_555
H4 C5 1_555 1_555
C6 C1 1_555 1_555
C7 S2 1_555 1_555
C8 C7 1_555 1_555
H5 C8 1_555 1_555
C9 C8 1_555 1_555
H6 C9 1_555 1_555
C10 C9 1_555 1_555
H7 C10 1_555 1_555
C11 C10 1_555 1_555
H8 C11 1_555 1_555
C12 S1 1_555 1_555
C13 H9 1_555 1_555
H10 C13 1_555 1_555
H11 C13 1_555 1_555
C14 C13 1_555 1_555
H12 C14 1_555 1_555
H13 C14 1_555 1_555
C15 C14 1_555 1_555
H14 C15 1_555 1_555
H15 C15 1_555 1_555
C16 C15 1_555 1_555
H16 C16 1_555 1_555
H17 C16 1_555 1_555
C17 S1 1_555 1_555
H18 C17 1_555 1_555
C18 S2 1_555 1_555
H19 C18 1_555 1_555
C19 C18 1_555 1_555
H20 C19 1_555 1_555
H21 C19 1_555 1_555
C20 C19 1_555 1_555
H22 C20 1_555 1_555
H23 C20 1_555 1_555
C21 C20 1_555 1_555
H24 C21 1_555 1_555
H25 C21 1_555 1_555
C22 C21 1_555 1_555
H26 C22 1_555 1_555
H27 C22 1_555 1_555
H28 C22 1_555 1_555
Cl1 O1 1_555 1_555
O2 Cl1 1_555 1_555
O3 Cl1 1_555 1_555
O4 Cl1 1_555 1_555
Cl2 O13 1_555 1_555
O14 Cl2 1_555 1_555
O15 Cl2 1_555 1_555
O16 Cl2 1_555 1_555
C5 C6 1_555 1_555
C7 C12 1_555 1_555
C11 C12 1_555 1_555
C16 C17 1_555 1_555
C17 C18 1_555 1_555

#END
