
#######################################################################
#
#                 Cambridge Crystallographic Data Centre
#                                CCDC 
#
#######################################################################
#
# If this CIF has been generated from an entry in the Cambridge 
# Structural Database, then it will include bibliographic, chemical, 
# crystal, experimental, refinement or atomic coordinate data resulting 
# from the CCDC's data processing and validation procedures.
#
#######################################################################

data_APULEC
_chemical_formula_moiety         'C22 H28 S2 2+,2(Cl1 O4 1-)'
_chemical_name_systematic        
'threo-5,6-(Thianthrenium-5,10-diyl)decane diperchlorate'
_symmetry_cell_setting           triclinic
_symmetry_space_group_name_H-M   'P -1'
_symmetry_Int_Tables_number      2
_space_group_name_Hall           '-P 1'
loop_
_symmetry_equiv_pos_site_id
_symmetry_equiv_pos_as_xyz
1 x,y,z
2 -x,-y,-z
_cell_length_a                   8.744(3)
_cell_length_b                   9.346(3)
_cell_length_c                   15.340(6)
_cell_angle_alpha                88.599(6)
_cell_angle_beta                 85.784(6)
_cell_angle_gamma                89.797(7)
_cell_volume                     1249.84
_exptl_crystal_colour            colorless
_exptl_crystal_description       'thin plate'
_chemical_melting_point          '139-139.5 deg.C(dec.)'
_cell_formula_units_Z            2
loop_
_atom_site_label
_atom_site_type_symbol
_atom_site_fract_x
_atom_site_fract_y
_atom_site_fract_z
S1 S -1.2401(3) -0.6249(3) 0.84451(17)
S2 S -1.0925(3) -0.6519(3) 0.65516(17)
C1 C -1.3174(13) -0.5198(12) 0.7606(8)
C2 C -1.4389(13) -0.4289(13) 0.7781(8)
H1 H -1.4825 -0.4182 0.8347
C3 C -1.4944(15) -0.3533(15) 0.7073(9)
H2 H -1.5784 -0.2930 0.7170
C4 C -1.4295(16) -0.3652(15) 0.6252(10)
H3 H -1.4706 -0.3136 0.5799
C5 C -1.3022(13) -0.4529(13) 0.6064(8)
H4 H -1.2556 -0.4577 0.5501
C6 C -1.2482(13) -0.5325(12) 0.6750(8)
C7 C -1.1661(12) -0.8077(12) 0.7112(7)
C8 C -1.1519(14) -0.9364(13) 0.6722(8)
H5 H -1.1059 -0.9448 0.6160
C9 C -1.2089(17) -1.0551(15) 0.7200(10)
H6 H -1.2027 -1.1445 0.6947
C10 C -1.2747(16) -1.0437(14) 0.8044(9)
H7 H -1.3144 -1.1247 0.8342
C11 C -1.2820(15) -0.9150(14) 0.8442(8)
H8 H -1.3206 -0.9091 0.9021
C12 C -1.2328(12) -0.7958(12) 0.7989(7)
C13 C -0.8638(17) -0.3729(18) 0.8697(12)
H9 H -0.8100 -0.3689 0.8121
H10 H -0.8137 -0.4453 0.9040
C14 C -1.0229(14) -0.4202(15) 0.8601(10)
H11 H -1.0692 -0.3553 0.8193
H12 H -1.0810 -0.4129 0.9161
C15 C -1.0373(14) -0.5711(13) 0.8285(7)
H13 H -0.9813 -0.6326 0.8680
C16 C -0.9611(13) -0.5934(13) 0.7349(7)
H14 H -0.9194 -0.5007 0.7137
C17 C -0.8256(14) -0.7002(18) 0.7337(9)
H15 H -0.7559 -0.6714 0.7764
H16 H -0.8649 -0.7942 0.7515
C18 C -0.738(2) -0.7108(19) 0.6468(11)
H17 H -0.8050 -0.7493 0.6056
H18 H -0.7082 -0.6152 0.6261
C19 C -0.589(4) -0.926(3) 0.609(2)
H19 H -0.4879 -0.9652 0.6148
H20 H -0.6065 -0.9142 0.5488
H21 H -0.6637 -0.9902 0.6374
C20 C -0.845(3) -0.232(3) 0.911(2)
H22 H -0.9151 -0.2315 0.9632
H23 H -0.7423 -0.2305 0.9309
C21 C -0.862(6) -0.125(4) 0.874(3)
H24 H -0.8402 -0.0471 0.9112
H25 H -0.9664 -0.1176 0.8588
H26 H -0.7943 -0.1206 0.8222
C22 C -0.599(3) -0.801(3) 0.6474(19)
H27 H -0.5795 -0.8177 0.7082
H28 H -0.5147 -0.7431 0.6216
Cl1 Cl -0.1145(4) 0.2624(4) 0.43052(19)
O2 O -0.1340(16) 0.2347(16) 0.3422(7)
O3 O -0.0654(17) 0.4065(12) 0.4376(7)
O4 O -0.0006(19) 0.1759(17) 0.4618(8)
O5 O -0.2499(13) 0.2465(15) 0.4879(8)
Cl2 Cl -0.3557(4) -0.2704(4) 1.0331(2)
O1 O -0.4338(11) -0.3063(13) 1.1157(6)
O6 O -0.1974(11) -0.2471(15) 1.0441(8)
O7 O -0.366(2) -0.384(2) 0.9749(13)
O8 O -0.422(2) -0.151(2) 1.0001(12)
loop_
_geom_bond_atom_site_label_1
_geom_bond_atom_site_label_2
_geom_bond_site_symmetry_1
_geom_bond_site_symmetry_2
S1 C1 1_555 1_555
S2 C6 1_555 1_555
C1 C2 1_555 1_555
C2 H1 1_555 1_555
C3 C2 1_555 1_555
H2 C3 1_555 1_555
C4 C3 1_555 1_555
H3 C4 1_555 1_555
C5 C4 1_555 1_555
H4 C5 1_555 1_555
C6 C1 1_555 1_555
C7 S2 1_555 1_555
C8 C7 1_555 1_555
H5 C8 1_555 1_555
C9 C8 1_555 1_555
H6 C9 1_555 1_555
C10 C9 1_555 1_555
H7 C10 1_555 1_555
C11 C10 1_555 1_555
H8 C11 1_555 1_555
C12 S1 1_555 1_555
C13 H9 1_555 1_555
H10 C13 1_555 1_555
C14 C13 1_555 1_555
H11 C14 1_555 1_555
H12 C14 1_555 1_555
C15 S1 1_555 1_555
H13 C15 1_555 1_555
C16 S2 1_555 1_555
H14 C16 1_555 1_555
C17 C16 1_555 1_555
H15 C17 1_555 1_555
H16 C17 1_555 1_555
C18 C17 1_555 1_555
H17 C18 1_555 1_555
H18 C18 1_555 1_555
C19 H19 1_555 1_555
H20 C19 1_555 1_555
H21 C19 1_555 1_555
C20 C13 1_555 1_555
H22 C20 1_555 1_555
H23 C20 1_555 1_555
C21 C20 1_555 1_555
H24 C21 1_555 1_555
H25 C21 1_555 1_555
H26 C21 1_555 1_555
Cl1 O2 1_555 1_555
Cl2 O1 1_555 1_555
O3 Cl1 1_555 1_555
O4 Cl1 1_555 1_555
O5 Cl1 1_555 1_555
O6 Cl2 1_555 1_555
O7 Cl2 1_555 1_555
O8 Cl2 1_555 1_555
C22 C18 1_555 1_555
H27 C22 1_555 1_555
H28 C22 1_555 1_555
C5 C6 1_555 1_555
C7 C12 1_555 1_555
C11 C12 1_555 1_555
C14 C15 1_555 1_555
C15 C16 1_555 1_555
C19 C22 1_555 1_555

#END
