
#######################################################################
#
#                 Cambridge Crystallographic Data Centre
#                                CCDC 
#
#######################################################################
#
# If this CIF has been generated from an entry in the Cambridge 
# Structural Database, then it will include bibliographic, chemical, 
# crystal, experimental, refinement or atomic coordinate data resulting 
# from the CCDC's data processing and validation procedures.
#
#######################################################################

data_APULUS
_chemical_formula_moiety         'C20 H19 O1 S1 1+,Cl1 O4 1-'
_chemical_name_systematic        
'1-(Phenoxathiinium-10-yl)cyclo-octa-1,5-diene perchlorate'
_symmetry_cell_setting           monoclinic
_symmetry_space_group_name_H-M   'P 21/c'
_symmetry_Int_Tables_number      14
_space_group_name_Hall           '-P 2ybc'
loop_
_symmetry_equiv_pos_site_id
_symmetry_equiv_pos_as_xyz
1 x,y,z
2 x,1/2-y,1/2+z
3 -x,-y,-z
4 -x,1/2+y,1/2-z
_cell_length_a                   11.580(2)
_cell_length_b                   13.189(3)
_cell_length_c                   13.743(3)
_cell_angle_alpha                90
_cell_angle_beta                 112.42(3)
_cell_angle_gamma                90
_cell_volume                     1940.3
_exptl_crystal_colour            colorless
_exptl_crystal_description       'thin plate'
_chemical_melting_point          '183.5-184 deg.C'
_cell_formula_units_Z            4
loop_
_atom_site_label
_atom_site_type_symbol
_atom_site_fract_x
_atom_site_fract_y
_atom_site_fract_z
S1 S 0.6960(2) -0.66269(17) 0.81622(19)
O1 O 0.7025(6) -0.4829(5) 0.6718(6)
C1 C 0.6423(8) -0.6592(9) 0.6791(8)
C2 C 0.5904(9) -0.7480(9) 0.6249(10)
H1 H 0.5816 -0.8050 0.6613
C3 C 0.5523(9) -0.7506(10) 0.5171(11)
H2 H 0.5170 -0.8093 0.4804
C4 C 0.5667(9) -0.6653(12) 0.4628(9)
H3 H 0.5421 -0.6683 0.3901
C5 C 0.6165(9) -0.5769(9) 0.5149(10)
H4 H 0.6257 -0.5202 0.4783
C6 C 0.6526(9) -0.5745(9) 0.6230(10)
C7 C 0.7078(8) -0.4606(9) 0.7715(10)
C8 C 0.7148(9) -0.3597(9) 0.7974(10)
H5 H 0.7162 -0.3111 0.7488
C9 C 0.7196(9) -0.3302(9) 0.8937(12)
H6 H 0.7248 -0.2616 0.9105
C10 C 0.7170(9) -0.4011(11) 0.9670(9)
H7 H 0.7197 -0.3802 1.0325
C11 C 0.7103(8) -0.5023(9) 0.9427(9)
H8 H 0.7085 -0.5506 0.9914
C12 C 0.7061(8) -0.5317(7) 0.8443(9)
C13 C 0.8527(8) -0.7068(8) 0.8562(8)
C14 C 0.9451(9) -0.6480(8) 0.8250(10)
H9 H 0.9182 -0.5778 0.8146
H10 H 1.0253 -0.6497 0.8836
C15 C 0.9640(17) -0.6823(14) 0.7298(16)
H11 H 0.9818 -0.6358 0.6865
C16 C 0.9545(12) -0.7893(17) 0.7048(11)
H12 H 0.9173 -0.8034 0.6332
C17 C 0.9891(14) -0.8705(13) 0.7652(15)
H13 H 0.9695 -0.9341 0.7340
C18 C 1.0581(15) -0.8643(13) 0.8811(15)
H14 H 1.1113 -0.9236 0.9035
H15 H 1.1121 -0.8053 0.8963
C19 C 0.9825(12) -0.8580(9) 0.9436(9)
H16 H 1.0357 -0.8339 1.0129
H17 H 0.9570 -0.9263 0.9523
C20 C 0.8683(9) -0.7934(9) 0.9058(8)
H18 H 0.8002 -0.8176 0.9190
Cl1 Cl 0.6632(3) -0.4513(2) 0.2569(3)
O2 O 0.6023(12) -0.5372(8) 0.2741(9)
O3 O 0.5789(8) -0.3725(7) 0.2227(9)
O4 O 0.708(2) -0.4772(17) 0.1897(14)
O5 O 0.7554(12) -0.4289(9) 0.3524(11)
loop_
_geom_bond_atom_site_label_1
_geom_bond_atom_site_label_2
_geom_bond_site_symmetry_1
_geom_bond_site_symmetry_2
S1 C1 1_555 1_555
O1 C6 1_555 1_555
C1 C2 1_555 1_555
C2 H1 1_555 1_555
C3 C2 1_555 1_555
H2 C3 1_555 1_555
C4 C3 1_555 1_555
H3 C4 1_555 1_555
C5 C4 1_555 1_555
H4 C5 1_555 1_555
C6 C1 1_555 1_555
C7 O1 1_555 1_555
C8 C7 1_555 1_555
H5 C8 1_555 1_555
C9 C8 1_555 1_555
H6 C9 1_555 1_555
C10 C9 1_555 1_555
H7 C10 1_555 1_555
C11 C10 1_555 1_555
H8 C11 1_555 1_555
C12 S1 1_555 1_555
C13 S1 1_555 1_555
C14 C13 1_555 1_555
H9 C14 1_555 1_555
H10 C14 1_555 1_555
C15 C14 1_555 1_555
H11 C15 1_555 1_555
C16 C15 1_555 1_555
H12 C16 1_555 1_555
C17 C16 1_555 1_555
H13 C17 1_555 1_555
C18 C17 1_555 1_555
H14 C18 1_555 1_555
H15 C18 1_555 1_555
C19 C18 1_555 1_555
H16 C19 1_555 1_555
H17 C19 1_555 1_555
C20 C13 1_555 1_555
H18 C20 1_555 1_555
Cl1 O2 1_555 1_555
O3 Cl1 1_555 1_555
O4 Cl1 1_555 1_555
O5 Cl1 1_555 1_555
C5 C6 1_555 1_555
C7 C12 1_555 1_555
C11 C12 1_555 1_555
C19 C20 1_555 1_555

#END
