
#######################################################################
#
#                 Cambridge Crystallographic Data Centre
#                                CCDC 
#
#######################################################################
#
# If this CIF has been generated from an entry in the Cambridge 
# Structural Database, then it will include bibliographic, chemical, 
# crystal, experimental, refinement or atomic coordinate data resulting 
# from the CCDC's data processing and validation procedures.
#
#######################################################################

data_APUNOP
_chemical_formula_moiety         'C34 H34 N2 O5 S2,C1 H2 Cl2'
_chemical_name_systematic        
'1,6-bis((4-Methylphenyl)sulfonyl)-2,7-diphenyloctahydro-1,6-naphthyridin-4(1H)-one dichloromethane solvate'
_symmetry_cell_setting           monoclinic
_symmetry_space_group_name_H-M   'P 21/n'
_symmetry_Int_Tables_number      14
_space_group_name_Hall           '-P 2yn'
loop_
_symmetry_equiv_pos_site_id
_symmetry_equiv_pos_as_xyz
1 x,y,z
2 1/2-x,1/2+y,1/2-z
3 -x,-y,-z
4 1/2+x,1/2-y,1/2+z
_cell_length_a                   10.2378(5)
_cell_length_b                   26.1305(12)
_cell_length_c                   12.5220(6)
_cell_angle_alpha                90
_cell_angle_beta                 96.880(4)
_cell_angle_gamma                90
_cell_volume                     3325.75
_exptl_crystal_colour            colorless
_exptl_crystal_description       prism
_cell_formula_units_Z            4
loop_
_atom_site_label
_atom_site_type_symbol
_atom_site_fract_x
_atom_site_fract_y
_atom_site_fract_z
C2 C 0.4235(16) 0.8889(7) 0.6986(12)
H3 H 0.3933 0.8622 0.7461
H4 H 0.3760 0.9210 0.7107
Cl3 Cl 0.5948(4) 0.8986(2) 0.7314(5)
Cl4 Cl 0.3874(5) 0.8702(3) 0.5653(4)
S1 S 0.67645(17) 0.98445(6) 0.16616(15)
S2 S 0.6919(2) 0.73921(7) 0.40068(17)
O1 O 0.5795(5) 1.01750(18) 0.1085(4)
O2 O 0.7462(5) 1.00253(18) 0.2664(4)
O3 O 0.7444(6) 0.7037(2) 0.3293(5)
O4 O 0.7302(6) 0.7358(2) 0.5164(5)
O5 O 0.5712(5) 0.78179(18) 0.1110(4)
N1 N 0.5997(6) 0.9318(2) 0.1937(5)
N2 N 0.7312(7) 0.7963(2) 0.3635(5)
C3 C 0.7052(8) 0.8408(3) 0.4292(6)
H5 H 0.6547 0.8283 0.4877
C4 C 0.6140(8) 0.8776(3) 0.3575(6)
H6 H 0.5296 0.8603 0.3334
H7 H 0.5950 0.9082 0.3997
C5 C 0.6796(7) 0.8938(3) 0.2602(6)
H8 H 0.7642 0.9109 0.2881
C6 C 0.4818(7) 0.9141(3) 0.1226(6)
H9 H 0.4555 0.9423 0.0705
C7 C 0.5165(8) 0.8672(3) 0.0566(6)
H10 H 0.4338 0.8518 0.0218
H11 H 0.5675 0.8790 -0.0011
C8 C 0.5943(7) 0.8267(3) 0.1215(6)
C9 C 0.7145(7) 0.8477(3) 0.1944(6)
H12 H 0.7767 0.8606 0.1449
C10 C 0.7894(7) 0.8068(3) 0.2638(6)
H13 H 0.7906 0.7748 0.2217
H14 H 0.8816 0.8181 0.2825
C11 C 0.7934(7) 0.9663(3) 0.0806(6)
C12 C 0.7541(7) 0.9586(3) -0.0271(6)
H15 H 0.6670 0.9667 -0.0574
C13 C 0.8451(8) 0.9388(3) -0.0914(6)
H16 H 0.8197 0.9333 -0.1660
C14 C 0.9722(8) 0.9272(3) -0.0467(7)
C15 C 1.0107(8) 0.9363(3) 0.0621(7)
H17 H 1.0984 0.9292 0.0922
C16 C 0.9213(7) 0.9557(3) 0.1268(7)
H18 H 0.9468 0.9617 0.2012
C17 C 1.0694(9) 0.9058(3) -0.1165(8)
H19 H 1.1521 0.8977 -0.0718
H20 H 1.0860 0.9311 -0.1710
H21 H 1.0334 0.8746 -0.1520
C18 C 0.5178(8) 0.7353(3) 0.3833(6)
C19 C 0.4537(8) 0.7207(3) 0.2842(7)
H22 H 0.5028 0.7131 0.2264
C20 C 0.3174(7) 0.7173(3) 0.2696(7)
H23 H 0.2739 0.7080 0.2011
C21 C 0.2438(8) 0.7272(3) 0.3530(7)
C22 C 0.3105(9) 0.7421(3) 0.4522(7)
H24 H 0.2619 0.7502 0.5100
C23 C 0.4479(10) 0.7451(3) 0.4673(7)
H25 H 0.4924 0.7540 0.5357
C24 C 0.8326(8) 0.8648(3) 0.4833(6)
C25 C 0.9393(7) 0.8335(3) 0.5195(6)
H26 H 0.9323 0.7977 0.5075
C26 C 1.0541(8) 0.8530(3) 0.5720(6)
H27 H 1.1264 0.8310 0.5934
C27 C 1.0638(9) 0.9056(3) 0.5938(7)
H28 H 1.1415 0.9195 0.6321
C28 C 0.9595(10) 0.9367(3) 0.5590(8)
H29 H 0.9662 0.9726 0.5712
C29 C 0.8445(11) 0.9164(3) 0.5061(8)
H30 H 0.7722 0.9384 0.4852
C30 C 0.3684(7) 0.9062(3) 0.1904(6)
C31 C 0.3334(8) 0.9470(3) 0.2533(6)
H31 H 0.3795 0.9785 0.2525
C32 C 0.2315(8) 0.9419(3) 0.3172(6)
H32 H 0.2090 0.9696 0.3605
C33 C 0.1632(8) 0.8959(3) 0.3169(7)
H33 H 0.0933 0.8920 0.3598
C34 C 0.1976(8) 0.8555(3) 0.2536(7)
H34 H 0.1510 0.8241 0.2536
C35 C 0.2987(7) 0.8606(3) 0.1907(6)
H35 H 0.3208 0.8328 0.1474
C36 C 0.0951(8) 0.7230(4) 0.3363(8)
H36 H 0.0571 0.7478 0.3824
H37 H 0.0689 0.6883 0.3549
H38 H 0.0632 0.7300 0.2608
C1? C 0.5637(17) 1.0594(8) 0.4331(15)
H1? H 0.6299 1.0486 0.3861
H2? H 0.6084 1.0820 0.4896
Cl1? Cl 0.5000 1.0000 0.5000
Cl2? Cl 0.4359(6) 1.0955(2) 0.3538(5)
loop_
_geom_bond_atom_site_label_1
_geom_bond_atom_site_label_2
_geom_bond_site_symmetry_1
_geom_bond_site_symmetry_2
C2 H3 1_555 1_555
H4 C2 1_555 1_555
Cl3 C2 1_555 1_555
Cl4 C2 1_555 1_555
S1 O1 1_555 1_555
S2 O3 1_555 1_555
O2 S1 1_555 1_555
O4 S2 1_555 1_555
O5 C8 1_555 1_555
N1 S1 1_555 1_555
N2 S2 1_555 1_555
C3 N2 1_555 1_555
H5 C3 1_555 1_555
C4 C3 1_555 1_555
H6 C4 1_555 1_555
H7 C4 1_555 1_555
C5 N1 1_555 1_555
H8 C5 1_555 1_555
C6 N1 1_555 1_555
H9 C6 1_555 1_555
C7 C6 1_555 1_555
H10 C7 1_555 1_555
H11 C7 1_555 1_555
C8 C7 1_555 1_555
C9 C5 1_555 1_555
H12 C9 1_555 1_555
C10 N2 1_555 1_555
H13 C10 1_555 1_555
H14 C10 1_555 1_555
C11 S1 1_555 1_555
C12 C11 1_555 1_555
H15 C12 1_555 1_555
C13 C12 1_555 1_555
H16 C13 1_555 1_555
C14 C13 1_555 1_555
C15 C14 1_555 1_555
H17 C15 1_555 1_555
C16 C11 1_555 1_555
H18 C16 1_555 1_555
C17 C14 1_555 1_555
H19 C17 1_555 1_555
H20 C17 1_555 1_555
H21 C17 1_555 1_555
C18 S2 1_555 1_555
C19 C18 1_555 1_555
H22 C19 1_555 1_555
C20 C19 1_555 1_555
H23 C20 1_555 1_555
C21 C20 1_555 1_555
C22 C21 1_555 1_555
H24 C22 1_555 1_555
C23 C18 1_555 1_555
H25 C23 1_555 1_555
C24 C3 1_555 1_555
C25 C24 1_555 1_555
H26 C25 1_555 1_555
C26 C25 1_555 1_555
H27 C26 1_555 1_555
C27 C26 1_555 1_555
H28 C27 1_555 1_555
C28 C27 1_555 1_555
H29 C28 1_555 1_555
C29 C24 1_555 1_555
H30 C29 1_555 1_555
C30 C6 1_555 1_555
C31 C30 1_555 1_555
H31 C31 1_555 1_555
C32 C31 1_555 1_555
H32 C32 1_555 1_555
C33 C32 1_555 1_555
H33 C33 1_555 1_555
C34 C33 1_555 1_555
H34 C34 1_555 1_555
C35 C30 1_555 1_555
H35 C35 1_555 1_555
C36 C21 1_555 1_555
H36 C36 1_555 1_555
H37 C36 1_555 1_555
H38 C36 1_555 1_555
C4 C5 1_555 1_555
C8 C9 1_555 1_555
C9 C10 1_555 1_555
C15 C16 1_555 1_555
C22 C23 1_555 1_555
C28 C29 1_555 1_555
C34 C35 1_555 1_555

#END
