
#######################################################################
#
#                 Cambridge Crystallographic Data Centre
#                                CCDC 
#
#######################################################################
#
# If this CIF has been generated from an entry in the Cambridge 
# Structural Database, then it will include bibliographic, chemical, 
# crystal, experimental, refinement or atomic coordinate data resulting 
# from the CCDC's data processing and validation procedures.
#
#######################################################################

data_APUQOT01
_chemical_formula_moiety         'C12 H6 Br2 N4 S1'
_chemical_name_systematic        
2-bromo-5-(4-(6-bromopyridin-3-yl)-1,2,5-thiadiazol-3-yl)pyridine
_symmetry_cell_setting           monoclinic
_symmetry_space_group_name_H-M   'C 2/c'
_symmetry_Int_Tables_number      15
_space_group_name_Hall           '-C 2yn'
loop_
_symmetry_equiv_pos_site_id
_symmetry_equiv_pos_as_xyz
1 x,y,z
2 -x,y,1/2-z
3 1/2+x,1/2+y,z
4 1/2-x,1/2+y,1/2-z
5 -x,-y,-z
6 x,-y,1/2+z
7 1/2-x,1/2-y,-z
8 1/2+x,1/2-y,1/2+z
_cell_length_a                   14.8696(5)
_cell_length_b                   7.7513(3)
_cell_length_c                   13.3462(4)
_cell_angle_alpha                90
_cell_angle_beta                 122.7486(14)
_cell_angle_gamma                90
_cell_volume                     1293.76
_exptl_crystal_colour            colorless
_exptl_crystal_description       plate
_cell_formula_units_Z            4
loop_
_atom_site_label
_atom_site_type_symbol
_atom_site_fract_x
_atom_site_fract_y
_atom_site_fract_z
Br1 Br 0.80015(2) 0.90808(4) 0.31909(2)
C1 C 0.9650(2) 0.3336(3) 0.6862(2)
C2 C 0.9264(2) 0.4843(3) 0.6051(2)
C3 C 0.8226(2) 0.4881(4) 0.5054(2)
H1 H 0.7758 0.3965 0.4949
C4 C 0.8525(2) 0.7377(4) 0.4405(2)
C5 C 0.9572(2) 0.7495(4) 0.5363(2)
H2 H 1.0018 0.8429 0.5439
C6 C 0.9940(2) 0.6197(4) 0.6205(2)
H3 H 1.0651 0.6230 0.6883
N1 N 0.93831(18) 0.1754(3) 0.64045(19)
N2 N 0.78489(19) 0.6135(3) 0.4233(2)
S1 S 1.0000 0.03932(12) 0.7500
Br1A Br 1.19985(2) 0.90808(4) 1.18091(2)
C1A C 1.0350(2) 0.3336(3) 0.8138(2)
C2A C 1.0736(2) 0.4843(3) 0.8949(2)
C3A C 1.1774(2) 0.4881(4) 0.9946(2)
H1A H 1.2242 0.3965 1.0051
C4A C 1.1475(2) 0.7377(4) 1.0595(2)
C5A C 1.0428(2) 0.7495(4) 0.9637(2)
H2A H 0.9982 0.8429 0.9561
C6A C 1.0060(2) 0.6197(4) 0.8795(2)
H3A H 0.9349 0.6230 0.8117
N1A N 1.06169(18) 0.1754(3) 0.85955(19)
N2A N 1.21511(19) 0.6135(3) 1.0767(2)
loop_
_geom_bond_atom_site_label_1
_geom_bond_atom_site_label_2
_geom_bond_site_symmetry_1
_geom_bond_site_symmetry_2
Br1 C4 1_555 1_555
C1 C2 1_555 1_555
C2 C3 1_555 1_555
C3 H1 1_555 1_555
C4 C5 1_555 1_555
C5 H2 1_555 1_555
C6 C2 1_555 1_555
H3 C6 1_555 1_555
N1 C1 1_555 1_555
N2 C3 1_555 1_555
S1 N1 1_555 1_555
Br1A C4A 1_555 1_555
C1A C1 1_555 1_555
C2A C1A 1_555 1_555
C3A C2A 1_555 1_555
H1A C3A 1_555 1_555
C4A C5A 1_555 1_555
C5A H2A 1_555 1_555
C6A C2A 1_555 1_555
H3A C6A 1_555 1_555
N1A S1 1_555 1_555
N2A C3A 1_555 1_555
C4 N2 1_555 1_555
C5 C6 1_555 1_555
C1A N1A 1_555 1_555
C4A N2A 1_555 1_555
C5A C6A 1_555 1_555

#END
