
#######################################################################
#
#                 Cambridge Crystallographic Data Centre
#                                CCDC 
#
#######################################################################
#
# If this CIF has been generated from an entry in the Cambridge 
# Structural Database, then it will include bibliographic, chemical, 
# crystal, experimental, refinement or atomic coordinate data resulting 
# from the CCDC's data processing and validation procedures.
#
#######################################################################

data_APUREK
_chemical_formula_moiety         'C6 H3 F4 N3'
_chemical_name_systematic        
5-(1,2,2,2-tetrafluoroethyl)-1H-pyrazole-3-carbonitrile
_symmetry_cell_setting           monoclinic
_symmetry_space_group_name_H-M   'P 21/n'
_symmetry_Int_Tables_number      14
_space_group_name_Hall           '-P 2yn'
loop_
_symmetry_equiv_pos_site_id
_symmetry_equiv_pos_as_xyz
1 x,y,z
2 1/2-x,1/2+y,1/2-z
3 -x,-y,-z
4 1/2+x,1/2-y,1/2+z
_cell_length_a                   10.8369(11)
_cell_length_b                   6.4815(5)
_cell_length_c                   12.0890(14)
_cell_angle_alpha                90
_cell_angle_beta                 105.774(11)
_cell_angle_gamma                90
_cell_volume                     817.147
_cell_formula_units_Z            4
loop_
_atom_site_label
_atom_site_type_symbol
_atom_site_fract_x
_atom_site_fract_y
_atom_site_fract_z
F1 F 0.73266(17) 0.1931(3) 0.56256(13)
F2 F 0.86968(18) 0.2828(3) 0.4148(3)
F3 F 0.85093(16) -0.0394(3) 0.43815(18)
F4 F 0.7439(3) 0.1103(4) 0.28275(19)
N1 N 0.55506(15) 0.6930(2) 0.39334(14)
N2 N 0.63116(14) 0.5430(3) 0.44877(14)
H1 H 0.689(2) 0.569(3) 0.511(2)
N3 N 0.3094(2) 0.8118(4) 0.15933(19)
C1 C 0.60310(16) 0.3581(3) 0.39894(16)
C2 C 0.50289(16) 0.3869(3) 0.30293(17)
H2 H 0.4617 0.2887 0.2495
C3 C 0.47703(16) 0.5962(3) 0.30373(16)
C4 C 0.38274(19) 0.7156(4) 0.22384(18)
C5 C 0.6793(2) 0.1701(3) 0.4460(2)
H3 H 0.6225 0.0496 0.4323
C6 C 0.7881(3) 0.1318(4) 0.3958(3)
loop_
_geom_bond_atom_site_label_1
_geom_bond_atom_site_label_2
_geom_bond_site_symmetry_1
_geom_bond_site_symmetry_2
F1 C5 1_555 1_555
F2 C6 1_555 1_555
F3 C6 1_555 1_555
F4 C6 1_555 1_555
N1 N2 1_555 1_555
N2 H1 1_555 1_555
N3 C4 1_555 1_555
C1 N2 1_555 1_555
C2 C1 1_555 1_555
H2 C2 1_555 1_555
C3 N1 1_555 1_555
C4 C3 1_555 1_555
C5 C1 1_555 1_555
H3 C5 1_555 1_555
C6 C5 1_555 1_555
C2 C3 1_555 1_555

#END
