
#######################################################################
#
#                 Cambridge Crystallographic Data Centre
#                                CCDC 
#
#######################################################################
#
# If this CIF has been generated from an entry in the Cambridge 
# Structural Database, then it will include bibliographic, chemical, 
# crystal, experimental, refinement or atomic coordinate data resulting 
# from the CCDC's data processing and validation procedures.
#
#######################################################################

data_APURUA
_chemical_formula_moiety         'C10 H12 F4 N2 O2'
_chemical_name_systematic        
't-butyl 3-(1,2,2,2-tetrafluoroethyl)-1H-pyrazole-5-carboxylate'
_symmetry_cell_setting           monoclinic
_symmetry_space_group_name_H-M   'P 21/n'
_symmetry_Int_Tables_number      14
_space_group_name_Hall           '-P 2yn'
loop_
_symmetry_equiv_pos_site_id
_symmetry_equiv_pos_as_xyz
1 x,y,z
2 1/2-x,1/2+y,1/2-z
3 -x,-y,-z
4 1/2+x,1/2-y,1/2+z
_cell_length_a                   5.760(4)
_cell_length_b                   19.793(7)
_cell_length_c                   11.037(4)
_cell_angle_alpha                90
_cell_angle_beta                 90.14(4)
_cell_angle_gamma                90
_cell_volume                     1258.3
_cell_formula_units_Z            4
loop_
_atom_site_label
_atom_site_type_symbol
_atom_site_fract_x
_atom_site_fract_y
_atom_site_fract_z
F1 F 0.3797(14) 0.4169(3) 0.7354(5)
F2 F 0.2590(14) 0.5499(3) 0.9170(4)
F3 F 0.2569(11) 0.4395(3) 0.9497(4)
F4 F 0.0172(12) 0.4751(4) 0.8222(6)
O1 O -0.0486(10) 0.6547(3) 0.4465(5)
O2 O 0.3111(10) 0.6914(3) 0.3928(4)
N1 N 0.5147(11) 0.6021(3) 0.5463(5)
H1 H 0.6103 0.6239 0.5011
N2 N 0.5842(13) 0.5593(3) 0.6324(5)
C1 C 0.3840(15) 0.5331(5) 0.6761(8)
C2 C 0.2016(15) 0.5628(4) 0.6180(6)
H2 H 0.0456 0.5537 0.6319
C3 C 0.2860(15) 0.6083(4) 0.5360(6)
C4 C 0.1653(17) 0.6527(4) 0.4529(6)
C5 C 0.2258(13) 0.7437(4) 0.3095(7)
C6 C 0.0991(16) 0.7107(4) 0.2023(7)
H3 H -0.0271 0.6837 0.2319
H4 H 0.2054 0.6825 0.1585
H5 H 0.0398 0.7451 0.1494
C7 C 0.0861(17) 0.7978(4) 0.3766(8)
H6 H 0.1733 0.8135 0.4453
H7 H -0.0583 0.7789 0.4036
H8 H 0.0556 0.8350 0.3231
C8 C 0.4495(15) 0.7766(5) 0.2629(9)
H9 H 0.5211 0.8018 0.3272
H10 H 0.4132 0.8063 0.1969
H11 H 0.5542 0.7421 0.2355
C9 C 0.4178(17) 0.4829(5) 0.7778(9)
H12 H 0.5673 0.4881 0.8193
C10 C 0.210(2) 0.4895(7) 0.8635(10)
loop_
_geom_bond_atom_site_label_1
_geom_bond_atom_site_label_2
_geom_bond_site_symmetry_1
_geom_bond_site_symmetry_2
F1 C9 1_555 1_555
F2 C10 1_555 1_555
F3 C10 1_555 1_555
F4 C10 1_555 1_555
O1 C4 1_555 1_555
O2 C4 1_555 1_555
N1 H1 1_555 1_555
N2 N1 1_555 1_555
C1 N2 1_555 1_555
C2 C1 1_555 1_555
H2 C2 1_555 1_555
C3 N1 1_555 1_555
C4 C3 1_555 1_555
C5 O2 1_555 1_555
C6 C5 1_555 1_555
H3 C6 1_555 1_555
H4 C6 1_555 1_555
H5 C6 1_555 1_555
C7 C5 1_555 1_555
H6 C7 1_555 1_555
H7 C7 1_555 1_555
H8 C7 1_555 1_555
C8 C5 1_555 1_555
H9 C8 1_555 1_555
H10 C8 1_555 1_555
H11 C8 1_555 1_555
C9 C1 1_555 1_555
H12 C9 1_555 1_555
C10 C9 1_555 1_555
C2 C3 1_555 1_555

#END
