
#######################################################################
#
#                 Cambridge Crystallographic Data Centre
#                                CCDC 
#
#######################################################################
#
# If this CIF has been generated from an entry in the Cambridge 
# Structural Database, then it will include bibliographic, chemical, 
# crystal, experimental, refinement or atomic coordinate data resulting 
# from the CCDC's data processing and validation procedures.
#
#######################################################################

data_APUREJ
_chemical_formula_moiety         
'C39 H46 N2 O4,C178 H169 F9 N32 O26,1.27(C6 H4 Cl2),C1 H4 O1,4(H2 O1)'
_chemical_name_systematic        
"[2]-(bis(4,4-Diphenylbutyl) pentane-1,5-diylbiscarbamate)-(N,N'-bis(2-((2-((2-((2-((6-((6-((6-(t-butylcarbonylamino)pyridin-2-yl)carbamoyl)pyridin-2-yl)carbonylamino)pyridin-2-yl)carbamoyl)-8-fluoro-4-isobutoxyquinolin-7-yl)carbamoyl)-8-fluoro-4-isobutoxyquinolin-7-yl)carbamoyl)-8-fluoro-4-isobutoxyquinolin-7-yl)carbamoyl)-8-fluoro-4-isobutoxyquinolin-7-yl)-10-fluoro-4,6-di-isobutoxypyrido[3,2-g]quinoline-2,8-dicarboxamide)-helical-pseudorotaxane 1,2-dichlorobenzene methanol unknown solvate tetrahydrate"
_symmetry_cell_setting           triclinic
_symmetry_space_group_name_H-M   'P -1'
_symmetry_Int_Tables_number      2
_space_group_name_Hall           '-P 1'
loop_
_symmetry_equiv_pos_site_id
_symmetry_equiv_pos_as_xyz
1 x,y,z
2 -x,-y,-z
_cell_length_a                   15.820(3)
_cell_length_b                   26.120(5)
_cell_length_c                   30.170(6)
_cell_angle_alpha                81.06(3)
_cell_angle_beta                 84.39(3)
_cell_angle_gamma                78.08(3)
_cell_volume                     12022
_cell_formula_units_Z            2
loop_
_atom_site_label
_atom_site_type_symbol
_atom_site_fract_x
_atom_site_fract_y
_atom_site_fract_z
F1 F 0.6769(3) 0.6907(2) 0.30376(16)
F2 F 0.5516(3) 0.8748(2) 0.25559(16)
F3 F 0.4707(3) 0.7575(2) 0.37469(16)
F4 F 0.4922(3) 0.6083(2) 0.33956(16)
F5 F 0.3321(3) 0.7384(3) 0.15736(18)
F6 F 0.5535(3) 0.6131(2) 0.21330(18)
O1 O 0.8505(4) 0.5440(3) 0.1766(2)
N1 N 0.6114(4) 0.5904(3) 0.3970(2)
H1 H 0.5856 0.6209 0.3849
N2 N 0.6873(4) 0.5503(3) 0.2542(2)
F7 F 0.5589(4) 0.7215(3) 0.10494(19)
N3 N 0.5844(4) 0.6815(3) 0.4221(2)
F8 F 0.3207(3) 0.8639(2) 0.25146(18)
F9 F 0.4339(3) 0.8685(2) 0.12124(17)
O2 O 0.7169(4) 0.7239(3) 0.5183(2)
O3 O 0.7007(4) 0.5529(3) 0.4536(2)
O4 O 0.9070(4) 0.7188(3) 0.4395(2)
O5 O 0.9341(4) 0.7640(3) 0.3108(2)
N4 N 0.7128(4) 0.7652(3) 0.3491(2)
N5 N 0.7601(4) 0.5900(3) 0.3109(2)
H2 H 0.7153 0.6028 0.2958
C1 C 0.8242(5) 0.6975(4) 0.3864(3)
O6 O 0.8590(4) 0.5136(3) 0.3261(2)
C2 C 0.7414(5) 0.6766(4) 0.3328(3)
N6 N 0.4365(5) 0.8587(3) 0.3871(3)
H3 H 0.4267 0.8490 0.3624
N7 N 0.4489(5) 0.5367(4) 0.2963(3)
N8 N 0.4539(4) 0.9664(3) 0.2168(2)
N9 N 0.6948(4) 0.9215(3) 0.1784(3)
H4 H 0.7166 0.8882 0.1820
N10 N 0.4655(5) 0.5843(4) 0.1527(3)
C3 C 0.8431(5) 0.7357(4) 0.4105(3)
C4 C 0.7585(5) 0.7144(4) 0.3569(3)
N11 N 0.8385(4) 0.6943(4) 0.2157(3)
C5 C 0.7839(5) 0.6235(4) 0.3366(3)
O7 O 0.6945(4) 0.8873(3) 0.3889(3)
C6 C 0.6005(5) 0.5477(4) 0.3765(3)
N12 N 0.6582(4) 0.9061(3) 0.1110(3)
C7 C 0.7332(5) 0.7985(4) 0.3731(3)
N13 N 0.3881(4) 0.9683(4) 0.1393(3)
H5 H 0.4156 0.9422 0.1566
N14 N 0.3377(5) 0.9118(4) 0.3223(3)
C8 C 0.6126(5) 0.7466(4) 0.4649(3)
C9 C 0.5787(6) 0.5637(4) 0.2039(3)
C10 C 0.5369(6) 0.5568(4) 0.3464(3)
C11 C 0.5161(6) 0.5200(5) 0.3232(3)
N15 N 0.6302(4) 0.8654(3) 0.3317(2)
H6 H 0.6267 0.8392 0.3183
O8 O 0.3342(5) 1.0563(3) 0.1349(2)
C12 C 0.6751(5) 0.7063(4) 0.4879(3)
N16 N 0.4508(5) 0.7377(4) 0.0411(3)
H7 H 0.4423 0.7543 0.0641
O9 O 0.2473(4) 0.9432(3) -0.0454(2)
C13 C 0.7984(6) 0.5400(4) 0.3067(3)
C14 C 0.5711(5) 0.7321(4) 0.4321(3)
O10 O 0.5544(4) 0.9147(3) -0.0127(2)
C15 C 0.4892(5) 0.9662(4) 0.2562(3)
N17 N 0.3943(5) 0.8358(4) 0.0467(3)
N18 N 0.6841(5) 0.6348(4) 0.1212(3)
C16 C 0.6566(5) 0.5912(4) 0.4332(3)
N19 N 0.7967(4) 0.8681(4) 0.2472(2)
C17 C 0.2792(5) 0.9145(4) 0.2522(4)
N20 N 0.6367(5) 0.8803(4) 0.0454(3)
H8 H 0.6706 0.8517 0.0560
C18 C 0.7810(6) 0.6854(4) 0.5438(3)
H9 H 0.8279 0.6703 0.5237
H10 H 0.7548 0.6571 0.5604
C19 C 0.6205(5) 0.9203(4) 0.0730(3)
C20 C 0.2302(6) 0.9384(5) 0.2168(4)
C21 C 0.9227(6) 0.6055(5) 0.2291(3)
H11 H 0.9334 0.5703 0.2243
N21 N 0.2243(5) 0.9089(4) 0.1831(3)
H12 H 0.2568 0.8780 0.1855
C22 C 0.5115(5) 0.7711(4) 0.4076(3)
O11 O 0.0817(5) 0.8505(5) 0.0232(3)
C23 C 0.5674(7) 0.4694(5) 0.3305(3)
C24 C 0.5366(6) 0.8364(4) 0.4484(3)
H13 H 0.5263 0.8715 0.4535
C25 C 0.6481(6) 0.5308(4) 0.2240(3)
C26 C 0.6896(5) 0.6565(4) 0.4785(3)
H14 H 0.7298 0.6300 0.4934
C27 C 0.6417(5) 0.6457(4) 0.4451(3)
O12 O 0.3975(5) 0.7432(4) -0.0270(3)
N22 N 0.8629(4) 0.7622(4) 0.2490(3)
H15 H 0.8295 0.7820 0.2297
N23 N 0.3096(5) 0.6897(4) 0.4361(3)
H16 H 0.3117 0.6716 0.4144
C28 C 0.2871(5) 0.9389(4) 0.2885(4)
C29 C 0.8680(5) 0.6449(4) 0.3920(3)
H17 H 0.9105 0.6343 0.4125
N24 N 0.3422(5) 0.6532(5) 0.1149(3)
H18 H 0.3717 0.6551 0.1369
C30 C 0.7546(6) 0.5184(4) 0.2731(3)
C31 C 0.5395(5) 0.9177(4) 0.2765(3)
C32 C 0.6488(5) 0.9416(4) 0.1395(3)
N25 N 0.8034(5) 0.6323(4) 0.1784(3)
H19 H 0.7644 0.6583 0.1680
C33 C 0.8146(6) 0.7147(4) 0.5757(3)
H20 H 0.8426 0.7420 0.5578
O13 O 0.6757(6) 0.9964(4) 0.2113(2)
C34 C 0.9392(6) 0.7579(5) 0.4576(4)
H21 H 0.8942 0.7767 0.4766
H22 H 0.9576 0.7832 0.4334
C35 C 0.6497(6) 0.4956(4) 0.3829(3)
H23 H 0.6931 0.4868 0.4030
C36 C 0.2786(6) 0.5816(5) 0.5023(4)
H24 H 0.2303 0.5950 0.4840
H25 H 0.2656 0.5940 0.5310
H26 H 0.2895 0.5437 0.5064
C37 C 0.2963(6) 0.9051(6) -0.0175(3)
C38 C 0.7969(5) 0.7868(4) 0.4040(3)
H27 H 0.8077 0.8125 0.4196
N26 N 0.2288(5) 0.8334(5) 0.1342(3)
C39 C 0.8486(6) 0.8438(5) 0.2796(3)
C40 C 0.3677(5) 0.8862(5) 0.0517(3)
C41 C 0.7501(7) 0.4474(5) 0.2323(3)
C42 C 0.9541(6) 0.6751(5) 0.2658(3)
H28 H 0.9861 0.6867 0.2852
C43 C 0.3894(5) 0.9044(5) 0.0911(3)
C44 C 0.5797(6) 0.9143(4) 0.3163(3)
C45 C 0.3579(6) 0.6008(5) 0.4792(3)
C46 C 0.3723(6) 0.8197(5) 0.0106(3)
C47 C 0.7416(6) 0.5897(5) 0.1291(3)
C48 C 0.8499(5) 0.6086(4) 0.3679(3)
H29 H 0.8808 0.5740 0.3719
C49 C 0.3230(6) 0.8533(6) -0.0236(3)
H30 H 0.3097 0.8406 -0.0486
O14 O 0.1292(4) 0.9664(4) 0.1370(2)
O15 O 0.2005(6) 1.0653(4) 0.3261(3)
C50 C 0.6335(7) 0.4581(5) 0.3597(3)
H31 H 0.6675 0.4244 0.3635
C51 C 0.4930(6) 0.8220(4) 0.4153(3)
C52 C 0.6031(6) 0.9928(4) 0.1303(4)
H32 H 0.5985 1.0169 0.1504
C53 C 0.6846(6) 0.8551(5) 0.3658(4)
C54 C 0.4779(6) 1.0099(5) 0.2794(4)
C55 C 0.8866(6) 0.7863(4) 0.2812(3)
C56 C 0.1789(6) 0.8781(7) 0.1189(4)
C57 C 0.5333(6) 0.5478(5) 0.1728(3)
C58 C 0.3405(6) 0.9373(5) 0.3565(4)
C59 C 0.2213(6) 0.9281(5) -0.0856(3)
H33 H 0.1920 0.8984 -0.0775
H34 H 0.2720 0.9174 -0.1054
O16 O 0.4146(6) 1.0984(3) 0.2827(3)
O17 O 0.3168(5) 0.5958(4) 0.0717(3)
C60 C 0.6282(6) 0.6363(5) 0.0890(4)
C61 C 0.3658(6) 0.9557(5) 0.0998(3)
N27 N 0.3179(8) 0.5626(7) 0.2438(3)
H35 H 0.3322 0.5800 0.2628
C62 C 0.7643(6) 0.9201(5) 0.2473(3)
C63 C 0.7880(6) 0.4673(4) 0.2629(3)
H36 H 0.8360 0.4470 0.2769
C64 C 0.5649(7) 0.6821(5) 0.0799(3)
C65 C 0.3735(6) 1.0149(5) 0.1547(3)
O18 O 0.6004(6) 0.3836(4) 0.3097(3)
C66 C 0.5071(7) 0.6892(5) 0.0475(3)
C67 C 0.2414(7) 0.9906(5) 0.2889(4)
C68 C 0.6765(7) 0.4792(4) 0.2125(3)
C69 C 0.6076(6) 0.8794(5) 0.0049(3)
C70 C 0.8042(6) 0.5856(6) 0.1639(3)
C71 C 0.7398(6) 0.8383(5) -0.0364(4)
H37 H 0.7675 0.8088 -0.0514
H38 H 0.7729 0.8402 -0.0119
H39 H 0.7365 0.8703 -0.0573
O19 O 0.7742(6) 0.4003(4) 0.2178(3)
C72 C 0.5712(6) 0.9702(5) 0.0602(4)
H40 H 0.5443 0.9787 0.0332
N28 N 0.2388(6) 0.7565(5) 0.3881(4)
C73 C 0.3194(5) 0.9254(5) 0.0202(3)
C74 C 0.5942(6) 0.7992(4) 0.4734(3)
H41 H 0.6211 0.8089 0.4960
O20 O 0.4017(6) 0.9284(4) 0.4278(3)
C75 C 0.3919(7) 1.0589(5) 0.2195(4)
H42 H 0.3574 1.0896 0.2062
C76 C 0.5645(6) 1.0066(5) 0.0899(4)
H43 H 0.5335 1.0407 0.0826
C77 C 0.5495(9) 0.4315(7) 0.3044(4)
O21 O 0.5191(7) 0.4257(5) 0.1324(3)
O22 O 0.6920(5) 0.5099(4) 0.0481(3)
C78 C 0.4094(5) 1.0128(4) 0.1994(3)
C79 C 0.5587(7) 0.4946(5) 0.1634(3)
C80 C 0.2864(7) 0.7000(7) 0.0993(4)
C81 C 0.3180(6) 0.9933(5) 0.0662(3)
H44 H 0.3018 1.0287 0.0703
C82 C 0.2971(7) 0.9892(5) 0.3617(4)
H45 H 0.3025 1.0044 0.3869
N29 N 0.0994(8) 0.8170(10) 0.2538(9)
C83 C 0.4269(7) 1.0575(5) 0.2590(4)
C84 C 0.8369(7) 0.9237(6) 0.3119(3)
H46 H 0.8497 0.9421 0.3336
C85 C 0.2457(7) 1.0164(6) 0.3273(5)
C86 C 0.8709(7) 0.8707(5) 0.3123(4)
H47 H 0.9084 0.8529 0.3340
N30 N 0.2224(8) 0.6406(9) 0.2267(4)
C87 C 0.6297(7) 0.5951(5) 0.0626(4)
C88 C 0.3561(7) 0.6070(7) 0.1010(4)
C89 C 0.5698(8) 0.6019(6) 0.0300(4)
H48 H 0.5695 0.5746 0.0136
C90 C 0.3372(8) 0.6612(6) 0.4754(4)
C91 C 0.2304(6) 0.7934(7) 0.1094(4)
C92 C 0.4239(7) 0.5665(6) 0.1236(3)
C93 C 0.1867(7) 0.9916(5) 0.2182(4)
H49 H 0.1538 1.0092 0.1945
C94 C 0.7485(6) 0.5444(5) 0.1063(3)
H50 H 0.7890 0.5136 0.1137
C95 C 0.1294(7) 0.8479(8) 0.0581(5)
N31 N 0.1660(6) 0.8153(5) 0.3333(5)
H51 H 0.1728 0.7888 0.3187
C96 C 0.6552(8) 0.7793(5) 0.0140(4)
H52 H 0.5983 0.7750 0.0260
H53 H 0.6899 0.7802 0.0382
H54 H 0.6815 0.7503 -0.0019
C97 C 0.1919(7) 1.0165(5) 0.2522(4)
H55 H 0.1629 1.0514 0.2523
C98 C 0.4327(7) 0.5790(6) 0.5098(4)
H56 H 0.4462 0.5412 0.5120
H57 H 0.4160 0.5891 0.5391
H58 H 0.4826 0.5931 0.4973
C99 C 0.3957(7) 0.9082(5) 0.3950(4)
C100 C 0.1797(6) 0.7958(7) 0.0708(4)
C101 C 0.5164(7) 1.0055(5) 0.3200(4)
H59 H 0.5083 1.0349 0.3349
O23 O 0.3482(7) 0.4825(6) 0.2192(3)
C102 C 0.1743(6) 0.9214(6) 0.1464(4)
C103 C 1.0155(9) 0.7297(6) 0.4848(5)
H60 H 0.9922 0.7092 0.5115
C104 C 0.5949(7) 0.8294(5) -0.0567(4)
H61 H 0.5377 0.8255 -0.0450
H62 H 0.6213 0.7999 -0.0721
H63 H 0.5917 0.8615 -0.0774
N32 N 0.1319(9) 0.7238(10) 0.2142(6)
H64 H 0.1506 0.7286 0.2388
C105 C 0.8822(8) 0.6761(5) 0.6029(4)
H65 H 0.9043 0.6943 0.6231
H66 H 0.9287 0.6613 0.5830
H67 H 0.8563 0.6484 0.6199
C106 C 0.3825(7) 0.5807(5) 0.4342(4)
H68 H 0.3362 0.5943 0.4146
H69 H 0.3927 0.5428 0.4386
H70 H 0.4341 0.5923 0.4208
C107 C 0.7079(6) 0.9485(5) 0.2097(4)
C108 C 0.2821(5) 0.7432(6) 0.1219(4)
C109 C 0.2363(7) 0.7063(7) 0.0636(4)
H71 H 0.2373 0.6774 0.0489
C110 C 0.1855(8) 0.7528(8) 0.0490(4)
H72 H 0.1541 0.7558 0.0239
C111 C 0.6928(7) 0.5480(6) 0.0729(4)
C112 C 0.4357(8) 0.4984(8) 0.2739(4)
C113 C 1.0786(8) 0.6948(6) 0.4633(6)
H73 H 1.1215 0.6773 0.4839
H74 H 1.1055 0.7140 0.4380
H75 H 1.0525 0.6691 0.4531
C114 C 0.7830(7) 0.9489(5) 0.2784(4)
H76 H 0.7597 0.9848 0.2768
C115 C 0.6282(8) 0.4621(5) 0.1827(3)
H77 H 0.6444 0.4277 0.1760
C116 C 0.4396(9) 0.5132(7) 0.1147(4)
H78 H 0.4070 0.5028 0.0950
C117 C 0.5662(7) 0.9582(5) 0.3386(4)
H79 H 0.5905 0.9560 0.3659
C118 C 0.4836(10) 0.4468(8) 0.2768(4)
H80 H 0.4703 0.4231 0.2598
C119 C 0.1909(9) 1.0888(6) 0.3660(6)
H81 H 0.2446 1.0986 0.3711
H82 H 0.1759 1.0641 0.3916
C120 C 0.4073(6) 0.7634(5) 0.0056(4)
C121 C 0.2052(8) 0.8052(10) 0.3744(7)
C122 C 0.9699(6) 0.6245(6) 0.2572(4)
H83 H 1.0152 0.6009 0.2710
C123 C 0.2967(6) 0.9773(5) 0.0287(4)
H84 H 0.2656 1.0023 0.0078
O24 O 0.0487(6) 0.7650(8) 0.1584(4)
C124 C 0.1277(6) 0.8881(7) 0.0818(4)
H85 H 0.0938 0.9213 0.0739
C125 C 0.2493(14) 0.5895(12) 0.2170(6)
C126 C 0.0232(8) 0.8985(8) 0.0083(5)
H86 H 0.0543 0.9247 -0.0081
H87 H -0.0110 0.9130 0.0335
C127 C 0.7449(8) 0.7404(6) 0.6054(4)
H88 H 0.7690 0.7583 0.6252
H89 H 0.7162 0.7143 0.6228
H90 H 0.7041 0.7656 0.5876
O25 O 0.3438(11) 0.6830(5) 0.5066(4)
C128 C 0.5105(7) 0.6493(6) 0.0218(4)
H91 H 0.4730 0.6541 -0.0011
C129 C 0.3635(10) 0.5133(10) 0.2432(5)
C130 C 0.5026(9) 0.4788(6) 0.1358(4)
C131 C 0.2109(13) 0.8438(10) 0.3997(10)
H92 H 0.1867 0.8788 0.3897
C132 C 0.7454(10) 0.4582(7) 0.0600(5)
H93 H 0.7331 0.4456 0.0915
H94 H 0.8060 0.4606 0.0556
C133 C 0.0115(14) 0.8589(19) 0.1916(11)
H95 H -0.0076 0.8576 0.1637
C134 C 0.3697(10) 1.1501(5) 0.2634(5)
H96 H 0.3094 1.1492 0.2608
H97 H 0.3955 1.1597 0.2335
C135 C 0.8625(13) 0.3711(8) 0.2265(6)
H98 H 0.8588 0.3371 0.2441
H99 H 0.8888 0.3905 0.2445
O26 O 0.1031(9) 0.9031(7) 0.3304(7)
C136 C 0.2785(7) 0.7434(6) 0.4255(5)
C137 C 1.0520(10) 0.7758(7) 0.5018(7)
H100 H 1.0063 0.7970 0.5181
H101 H 1.0737 0.7975 0.4764
H102 H 1.0980 0.7603 0.5212
C138 C 0.4517(12) 0.4048(7) 0.1159(6)
H103 H 0.4490 0.4152 0.0837
H104 H 0.3958 0.4180 0.1305
C139 C 0.1259(14) 0.6511(16) 0.1679(8)
H105 H 0.0814 0.6718 0.1513
C140 C 0.2892(10) 0.7775(7) 0.4524(7)
H106 H 0.3195 0.7664 0.4782
C141 C 0.5952(11) 0.3456(7) 0.2808(5)
H107 H 0.6028 0.3609 0.2496
H108 H 0.5387 0.3359 0.2856
C142 C 0.0607(12) 0.8151(15) 0.2139(11)
C143 C 0.8575(5) 0.6441(5) 0.2084(3)
C144 C 0.162(2) 0.9736(9) -0.1091(8)
H109 H 0.1131 0.9638 -0.0897
C145 C 0.3753(16) 1.1898(6) 0.2922(6)
H110 H 0.3503 1.1796 0.3225
C146 C 0.6604(19) 0.3001(8) 0.2902(8)
H111 H 0.7153 0.3118 0.2905
C147 C -0.0953(10) 0.9338(8) -0.0425(6)
H112 H -0.1189 0.9543 -0.0188
H113 H -0.1415 0.9251 -0.0564
H114 H -0.0626 0.9539 -0.0645
C148 C 0.1286(15) 0.9549(7) -0.1499(6)
H115 H 0.1372 0.9170 -0.1456
H116 H 0.1598 0.9667 -0.1772
H117 H 0.0680 0.9696 -0.1518
C149 C 0.0296(10) 0.9057(10) 0.2476(9)
H118 H 0.0205 0.9381 0.2583
C150 C 0.1396(11) 1.0213(10) -0.1004(6)
H119 H 0.0882 1.0383 -0.1153
H120 H 0.1854 1.0402 -0.1108
H121 H 0.1283 1.0210 -0.0685
C151 C 0.4752(14) 0.3445(8) 0.1268(7)
H122 H 0.5315 0.3321 0.1114
C152 C 0.1555(16) 0.6024(18) 0.1592(9)
H123 H 0.1336 0.5906 0.1360
C153 C -0.0082(16) 0.9015(18) 0.2091(16)
H124 H -0.0480 0.9299 0.1960
C154 C 0.7266(15) 0.4184(11) 0.0303(7)
H125 H 0.7448 0.4299 -0.0010
C155 C -0.0343(14) 0.8814(13) -0.0224(7)
H126 H -0.0730 0.8628 -0.0016
C156 C 0.2176(10) 0.5688(10) 0.1838(5)
H127 H 0.2376 0.5341 0.1785
C157 C 0.2517(13) 0.8320(8) 0.4395(8)
H128 H 0.2546 0.8579 0.4569
C158 C 0.6413(15) 0.2700(9) 0.3374(10)
H129 H 0.6882 0.2408 0.3441
H130 H 0.5887 0.2570 0.3377
H131 H 0.6352 0.2934 0.3595
C159 C 0.6330(18) 0.4178(13) 0.0329(9)
H132 H 0.6226 0.3944 0.0134
H133 H 0.6015 0.4528 0.0237
H134 H 0.6141 0.4059 0.0632
C160 C 0.8869(5) 0.7082(4) 0.2436(3)
C161 C 0.6489(6) 0.8315(4) -0.0185(3)
C162 C 0.1591(11) 0.6750(15) 0.2026(7)
C163 C 0.1198(11) 1.1371(6) 0.3602(6)
H135 H 0.0670 1.1259 0.3543
C164 C 0.1189(10) 0.8611(11) 0.3133(11)
C165 C 0.0810(10) 0.7655(16) 0.1936(8)
C166 C 0.0826(12) 0.8605(11) 0.2708(11)
C167 C 0.1023(10) 1.1611(6) 0.4034(5)
H136 H 0.0551 1.1908 0.4002
H137 H 0.1532 1.1726 0.4098
H138 H 0.0877 1.1352 0.4275
C168 C 0.4080(10) 0.3208(6) 0.1093(5)
H139 H 0.4237 0.2830 0.1150
H140 H 0.4046 0.3318 0.0775
H141 H 0.3527 0.3324 0.1245
C169 C 0.1413(15) 1.1740(8) 0.3224(7)
H142 H 0.1488 1.1576 0.2956
H143 H 0.1941 1.1845 0.3270
H144 H 0.0954 1.2045 0.3194
C170 C 0.671(2) 0.2635(10) 0.2528(10)
H145 H 0.6856 0.2828 0.2243
H146 H 0.6177 0.2519 0.2515
H147 H 0.7163 0.2334 0.2597
C171 C 0.4814(15) 0.3271(5) 0.1765(5)
H148 H 0.5270 0.3406 0.1868
H149 H 0.4938 0.2892 0.1824
H150 H 0.4275 0.3404 0.1922
C172 C 0.3255(15) 1.2427(5) 0.2728(5)
H151 H 0.2650 1.2420 0.2737
H152 H 0.3469 1.2512 0.2422
H153 H 0.3339 1.2689 0.2902
C173 C 0.470(2) 1.1923(12) 0.2945(12)
H154 H 0.4738 1.2173 0.3140
H155 H 0.4937 1.2031 0.2650
H156 H 0.5009 1.1580 0.3061
C174 C 0.787(2) 0.3597(10) 0.0465(8)
H157 H 0.8467 0.3623 0.0438
H158 H 0.7781 0.3348 0.0279
H159 H 0.7703 0.3478 0.0773
C175 C 0.899(2) 0.3910(10) 0.1404(6)
H160 H 0.9444 0.3786 0.1187
H161 H 0.8949 0.4281 0.1403
H162 H 0.8451 0.3846 0.1326
C176 C -0.0017(4) 0.8462(3) -0.0544(2)
H163 H 0.0297 0.8137 -0.0394
H164 H 0.0363 0.8619 -0.0768
H165 H -0.0491 0.8392 -0.0686
C177 C 0.9192(4) 0.3622(3) 0.1860(2)
H166 H 0.9806 0.3485 0.1907
C178 C 0.870(4) 0.324(2) 0.169(3)
H167 H 0.8620 0.2965 0.1932
H168 H 0.9033 0.3092 0.1444
H169 H 0.8148 0.3434 0.1598
O27 O 0.7949(4) 0.7663(3) 0.1083(2)
N33 N 0.6730(5) 0.7718(3) 0.1504(3)
H170 H 0.6613 0.7514 0.1331
O28 O 0.7777(4) 0.8117(3) 0.1674(2)
O29 O 0.2384(5) 0.6420(3) 0.3442(3)
C179 C 0.7501(6) 0.7851(4) 0.1436(4)
C180 C 0.5662(5) 0.7459(4) 0.2093(3)
H171 H 0.6089 0.7219 0.2275
H172 H 0.5506 0.7263 0.1876
C181 C 0.1278(6) 0.4758(4) 0.4243(4)
C182 C 0.0418(6) 0.4375(5) 0.4867(4)
H173 H 0.0353 0.4236 0.5168
C183 C 0.2805(7) 0.4461(5) 0.3927(4)
N34 N 0.3308(7) 0.6861(5) 0.3096(4)
H174 H 0.3689 0.6588 0.3185
C184 C -0.0149(6) 0.4613(4) 0.4152(4)
H175 H -0.0597 0.4640 0.3967
C185 C 0.0606(7) 0.4780(4) 0.3982(3)
H176 H 0.0660 0.4914 0.3679
C186 C -0.0228(6) 0.4409(5) 0.4591(4)
H177 H -0.0731 0.4290 0.4707
C187 C 0.1169(7) 0.4547(4) 0.4700(3)
H178 H 0.1608 0.4524 0.4890
C188 C 0.8835(7) 0.7746(6) 0.1010(5)
H179 H 0.8845 0.8119 0.0927
H180 H 0.9143 0.7617 0.1281
C189 C 0.6064(7) 0.7889(5) 0.1848(4)
H181 H 0.6318 0.8045 0.2062
H182 H 0.5617 0.8161 0.1707
C190 C 0.2029(7) 0.5363(5) 0.3692(5)
H183 H 0.1763 0.5265 0.3450
H184 H 0.2598 0.5428 0.3577
C191 C 0.3524(7) 0.4255(5) 0.4196(4)
H185 H 0.3585 0.4407 0.4447
C192 C 0.2126(7) 0.4920(5) 0.4069(4)
H186 H 0.2349 0.5043 0.4317
C193 C 0.9377(8) 0.6861(7) 0.0770(5)
H187 H 0.8819 0.6762 0.0857
H188 H 0.9719 0.6765 0.1030
C194 C 0.4448(8) 0.7186(5) 0.2636(4)
H189 H 0.4407 0.6955 0.2420
H190 H 0.4829 0.6984 0.2861
C195 C 0.3590(9) 0.7338(6) 0.2856(5)
H191 H 0.3609 0.7580 0.3067
H192 H 0.3184 0.7515 0.2634
C196 C 0.1465(8) 0.5883(5) 0.3840(5)
H193 H 0.0870 0.5838 0.3902
H194 H 0.1669 0.5946 0.4116
C197 C 0.4863(7) 0.7633(5) 0.2395(4)
H195 H 0.4440 0.7878 0.2214
H196 H 0.5021 0.7822 0.2617
C198 C 0.1497(7) 0.6354(5) 0.3490(5)
H197 H 0.1317 0.6295 0.3207
H198 H 0.1118 0.6666 0.3585
O30 O 0.1919(6) 0.7190(4) 0.3029(4)
C199 C 0.2491(9) 0.6845(6) 0.3175(5)
C200 C 0.4077(8) 0.3616(6) 0.3705(6)
H199 H 0.4503 0.3334 0.3630
C201 C 0.3400(9) 0.3811(6) 0.3430(4)
H200 H 0.3365 0.3665 0.3172
C202 C 0.9238(8) 0.7446(7) 0.0640(5)
H201 H 0.9791 0.7545 0.0539
H202 H 0.8870 0.7546 0.0389
C203 C 0.9520(12) 0.6953(6) -0.0387(6)
H203 H 1.0014 0.7099 -0.0410
C204 C 0.2755(7) 0.4244(5) 0.3555(4)
H204 H 0.2292 0.4380 0.3375
C205 C 0.9262(11) 0.6647(6) -0.0004(5)
C206 C 0.4133(8) 0.3824(6) 0.4079(5)
H205 H 0.4587 0.3677 0.4263
C207 C 0.9842(10) 0.6538(8) 0.0388(5)
H206 H 1.0354 0.6689 0.0278
C208 C 0.8540(16) 0.6420(8) 0.0044(7)
H207 H 0.8420 0.6207 0.0310
C209 C 0.8933(14) 0.7030(7) -0.0763(6)
H208 H 0.9070 0.7234 -0.1032
C210 C 0.8009(16) 0.6509(8) -0.0294(10)
H209 H 0.7504 0.6372 -0.0247
C211 C 0.8188(15) 0.6811(8) -0.0732(7)
H210 H 0.7837 0.6853 -0.0970
C212 C 1.0165(8) 0.5990(3) 0.0561(4)
C213 C 0.9812(6) 0.5695(4) 0.0930(4)
H211 H 0.9338 0.5854 0.1102
C214 C 1.0168(9) 0.5163(4) 0.1043(5)
H212 H 0.9932 0.4966 0.1290
C215 C 1.0877(9) 0.4926(3) 0.0787(4)
H213 H 1.1116 0.4570 0.0862
C216 C 1.1230(4) 0.5221(3) 0.04178(15)
H214 H 1.1705 0.5062 0.0246
C217 C 1.0874(8) 0.5753(3) 0.0305(4)
H215 H 1.1110 0.5950 0.0059
Cl1 Cl 0.6935(7) 0.1100(4) 0.2576(3)
C218 C 0.5734(14) 0.1844(10) 0.1296(6)
H216 H 0.5401 0.2010 0.1058
C219 C 0.5484(10) 0.1444(8) 0.1567(5)
H217 H 0.4986 0.1332 0.1515
C220 C 0.6440(17) 0.2012(8) 0.1354(7)
H218 H 0.6610 0.2284 0.1151
C221 C 0.5955(14) 0.1197(8) 0.1922(7)
H219 H 0.5779 0.0906 0.2095
C222 C 0.6941(16) 0.1783(12) 0.1724(12)
C223 C 0.664(2) 0.1342(10) 0.2037(8)
Cl2 Cl 0.8048(4) 0.1983(3) 0.1650(2)
C224 C 0.0456(8) 0.4635(6) 0.2681(5)
H220 H 0.0010 0.4883 0.2792
C225 C 0.0685(12) 0.4165(7) 0.2902(5)
H221 H 0.0378 0.4057 0.3167
Cl3 Cl 0.2749(11) 0.3616(5) 0.2149(7)
C226 C 0.1808(11) 0.3990(11) 0.2356(8)
C227 C 0.1428(19) 0.3814(8) 0.2726(7)
H222 H 0.1622 0.3477 0.2875
C228 C 0.0894(14) 0.4743(9) 0.2287(9)
H223 H 0.0748 0.5085 0.2137
C229 C 0.1533(14) 0.4402(10) 0.2080(10)
Cl4 Cl 0.1927(4) 0.4321(3) 0.1480(2)
O31 O 0.917(2) 0.0721(14) 0.281(2)
C230 C 0.9773(4) 0.0345(3) 0.3246(2)
O32 O 0.075(2) 0.3100(8) 0.2874(7)
O33 O 0.434(3) 0.792(3) 0.5608(9)
O34 O 0.8815(4) 0.9058(3) 0.4456(2)
O35 O 0.6668(4) 0.9154(3) 0.5245(2)
Cl5? Cl 0.8601(5) 0.3695(4) 0.3719(3)
C231? C 0.9104(15) 0.292(2) 0.3401(8)
C232? C 0.7766(17) 0.2990(8) 0.4291(9)
C233? C 0.8950(11) 0.2148(8) 0.3429(7)
C234? C 0.187(3) 0.189(4) 0.1740(12)
C235? C 0.040(3) 0.1454(19) 0.1900(9)
C236? C 0.2451(4) 0.1955(3) 0.1642(2)
C237? C 0.0939(4) 0.2257(3) 0.2046(2)
C238? C 0.8552(4) 0.2916(3) 0.3778(2)
C239? C 0.7896(4) 0.2499(3) 0.4151(2)
C240? C 0.8402(4) 0.2011(3) 0.3798(2)
C241? C 0.1434(4) 0.1336(3) 0.1612(2)
C242? C 0.0581(4) 0.1949(3) 0.2017(2)
loop_
_geom_bond_atom_site_label_1
_geom_bond_atom_site_label_2
_geom_bond_site_symmetry_1
_geom_bond_site_symmetry_2
F1 C2 1_555 1_555
F2 C31 1_555 1_555
F3 C22 1_555 1_555
F4 C10 1_555 1_555
F5 C108 1_555 1_555
F6 C9 1_555 1_555
O1 C70 1_555 1_555
N1 H1 1_555 1_555
N2 C25 1_555 1_555
F7 C64 1_555 1_555
N3 C14 1_555 1_555
F8 C17 1_555 1_555
F9 C43 1_555 1_555
O2 C12 1_555 1_555
O3 C16 1_555 1_555
O4 C3 1_555 1_555
O5 C55 1_555 1_555
N4 C4 1_555 1_555
N5 H2 1_555 1_555
C1 C3 1_555 1_555
O6 C13 1_555 1_555
C2 C4 1_555 1_555
N6 H3 1_555 1_555
N7 C11 1_555 1_555
N8 C15 1_555 1_555
N9 H4 1_555 1_555
N10 C57 1_555 1_555
C3 C38 1_555 1_555
C4 C1 1_555 1_555
N11 C143 1_555 1_555
C5 N5 1_555 1_555
O7 C53 1_555 1_555
C6 N1 1_555 1_555
N12 C19 1_555 1_555
C7 N4 1_555 1_555
N13 H5 1_555 1_555
N14 C28 1_555 1_555
C8 C12 1_555 1_555
C9 C25 1_555 1_555
C10 C6 1_555 1_555
C11 C10 1_555 1_555
N15 H6 1_555 1_555
O8 C65 1_555 1_555
C12 C26 1_555 1_555
N16 H7 1_555 1_555
O9 C37 1_555 1_555
C13 N5 1_555 1_555
C14 C8 1_555 1_555
O10 C69 1_555 1_555
C15 C31 1_555 1_555
N17 C40 1_555 1_555
N18 C47 1_555 1_555
C16 N1 1_555 1_555
N19 C39 1_555 1_555
C17 C20 1_555 1_555
N20 H8 1_555 1_555
C18 O2 1_555 1_555
H9 C18 1_555 1_555
H10 C18 1_555 1_555
C19 N20 1_555 1_555
C20 N21 1_555 1_555
C21 H11 1_555 1_555
N21 H12 1_555 1_555
C22 C14 1_555 1_555
O11 C95 1_555 1_555
C23 C11 1_555 1_555
C24 H13 1_555 1_555
C25 C68 1_555 1_555
C26 H14 1_555 1_555
C27 N3 1_555 1_555
O12 C120 1_555 1_555
N22 H15 1_555 1_555
N23 H16 1_555 1_555
C28 C17 1_555 1_555
C29 C1 1_555 1_555
H17 C29 1_555 1_555
N24 H18 1_555 1_555
C30 N2 1_555 1_555
C31 C44 1_555 1_555
C32 N9 1_555 1_555
N25 H19 1_555 1_555
C33 C18 1_555 1_555
H20 C33 1_555 1_555
O13 C107 1_555 1_555
C34 O4 1_555 1_555
H21 C34 1_555 1_555
H22 C34 1_555 1_555
C35 C6 1_555 1_555
H23 C35 1_555 1_555
C36 H24 1_555 1_555
H25 C36 1_555 1_555
H26 C36 1_555 1_555
C37 C49 1_555 1_555
C38 C7 1_555 1_555
H27 C38 1_555 1_555
N26 C56 1_555 1_555
C39 C55 1_555 1_555
C40 C43 1_555 1_555
C41 C63 1_555 1_555
C42 H28 1_555 1_555
C43 C61 1_555 1_555
C44 N15 1_555 1_555
C45 C36 1_555 1_555
C46 N17 1_555 1_555
C47 C70 1_555 1_555
C48 C5 1_555 1_555
H29 C48 1_555 1_555
C49 C46 1_555 1_555
H30 C49 1_555 1_555
O14 C102 1_555 1_555
O15 C85 1_555 1_555
C50 C23 1_555 1_555
H31 C50 1_555 1_555
C51 N6 1_555 1_555
C52 C32 1_555 1_555
H32 C52 1_555 1_555
C53 C7 1_555 1_555
C54 C15 1_555 1_555
C55 N22 1_555 1_555
C56 C102 1_555 1_555
C57 C9 1_555 1_555
C58 N14 1_555 1_555
C59 O9 1_555 1_555
H33 C59 1_555 1_555
H34 C59 1_555 1_555
O16 C83 1_555 1_555
O17 C88 1_555 1_555
C60 N18 1_555 1_555
C61 N13 1_555 1_555
N27 H35 1_555 1_555
C62 N19 1_555 1_555
C63 C30 1_555 1_555
H36 C63 1_555 1_555
C64 C60 1_555 1_555
C65 N13 1_555 1_555
O18 C77 1_555 1_555
C66 N16 1_555 1_555
C67 C28 1_555 1_555
C68 C41 1_555 1_555
C69 N20 1_555 1_555
C70 N25 1_555 1_555
C71 H37 1_555 1_555
H38 C71 1_555 1_555
H39 C71 1_555 1_555
O19 C41 1_555 1_555
C72 C19 1_555 1_555
H40 C72 1_555 1_555
N28 C121 1_555 1_555
C73 C37 1_555 1_555
C74 C8 1_555 1_555
H41 C74 1_555 1_555
O20 C99 1_555 1_555
C75 H42 1_555 1_555
C76 C52 1_555 1_555
H43 C76 1_555 1_555
C77 C23 1_555 1_555
O21 C130 1_555 1_555
O22 C111 1_555 1_555
C78 N8 1_555 1_555
C79 C57 1_555 1_555
C80 N24 1_555 1_555
C81 C61 1_555 1_555
H44 C81 1_555 1_555
C82 C58 1_555 1_555
H45 C82 1_555 1_555
N29 C142 1_555 1_555
C83 C54 1_555 1_555
C84 H46 1_555 1_555
C85 C67 1_555 1_555
C86 C39 1_555 1_555
H47 C86 1_555 1_555
N30 C125 1_555 1_555
C87 C60 1_555 1_555
C88 N24 1_555 1_555
C89 C87 1_555 1_555
H48 C89 1_555 1_555
C90 N23 1_555 1_555
C91 N26 1_555 1_555
C92 N10 1_555 1_555
C93 C20 1_555 1_555
H49 C93 1_555 1_555
C94 C47 1_555 1_555
H50 C94 1_555 1_555
C95 C100 1_555 1_555
N31 H51 1_555 1_555
C96 H52 1_555 1_555
H53 C96 1_555 1_555
H54 C96 1_555 1_555
C97 C67 1_555 1_555
H55 C97 1_555 1_555
C98 C45 1_555 1_555
H56 C98 1_555 1_555
H57 C98 1_555 1_555
H58 C98 1_555 1_555
C99 N6 1_555 1_555
C100 C91 1_555 1_555
C101 C54 1_555 1_555
H59 C101 1_555 1_555
O23 C129 1_555 1_555
C102 N21 1_555 1_555
C103 C34 1_555 1_555
H60 C103 1_555 1_555
C104 H61 1_555 1_555
H62 C104 1_555 1_555
H63 C104 1_555 1_555
N32 H64 1_555 1_555
C105 C33 1_555 1_555
H65 C105 1_555 1_555
H66 C105 1_555 1_555
H67 C105 1_555 1_555
C106 C45 1_555 1_555
H68 C106 1_555 1_555
H69 C106 1_555 1_555
H70 C106 1_555 1_555
C107 N9 1_555 1_555
C108 C80 1_555 1_555
C109 C80 1_555 1_555
H71 C109 1_555 1_555
C110 C100 1_555 1_555
H72 C110 1_555 1_555
C111 C87 1_555 1_555
C112 N7 1_555 1_555
C113 C103 1_555 1_555
H73 C113 1_555 1_555
H74 C113 1_555 1_555
H75 C113 1_555 1_555
C114 C62 1_555 1_555
H76 C114 1_555 1_555
C115 C68 1_555 1_555
H77 C115 1_555 1_555
C116 C92 1_555 1_555
H78 C116 1_555 1_555
C117 C44 1_555 1_555
H79 C117 1_555 1_555
C118 C77 1_555 1_555
H80 C118 1_555 1_555
C119 O15 1_555 1_555
H81 C119 1_555 1_555
H82 C119 1_555 1_555
C120 N16 1_555 1_555
C121 N31 1_555 1_555
C122 C21 1_555 1_555
H83 C122 1_555 1_555
C123 C73 1_555 1_555
H84 C123 1_555 1_555
O24 C165 1_555 1_555
C124 C56 1_555 1_555
H85 C124 1_555 1_555
C125 N27 1_555 1_555
C126 O11 1_555 1_555
H86 C126 1_555 1_555
H87 C126 1_555 1_555
C127 C33 1_555 1_555
H88 C127 1_555 1_555
H89 C127 1_555 1_555
H90 C127 1_555 1_555
O25 C90 1_555 1_555
C128 C66 1_555 1_555
H91 C128 1_555 1_555
C129 N27 1_555 1_555
C130 C79 1_555 1_555
C131 C121 1_555 1_555
H92 C131 1_555 1_555
C132 O22 1_555 1_555
H93 C132 1_555 1_555
H94 C132 1_555 1_555
C133 H95 1_555 1_555
C134 O16 1_555 1_555
H96 C134 1_555 1_555
H97 C134 1_555 1_555
C135 O19 1_555 1_555
H98 C135 1_555 1_555
H99 C135 1_555 1_555
O26 C164 1_555 1_555
C136 N23 1_555 1_555
C137 C103 1_555 1_555
H100 C137 1_555 1_555
H101 C137 1_555 1_555
H102 C137 1_555 1_555
C138 O21 1_555 1_555
H103 C138 1_555 1_555
H104 C138 1_555 1_555
C139 H105 1_555 1_555
C140 C136 1_555 1_555
H106 C140 1_555 1_555
C141 O18 1_555 1_555
H107 C141 1_555 1_555
H108 C141 1_555 1_555
C142 C133 1_555 1_555
C143 C21 1_555 1_555
C144 C59 1_555 1_555
H109 C144 1_555 1_555
C145 C134 1_555 1_555
H110 C145 1_555 1_555
C146 C141 1_555 1_555
H111 C146 1_555 1_555
C147 H112 1_555 1_555
H113 C147 1_555 1_555
H114 C147 1_555 1_555
C148 C144 1_555 1_555
H115 C148 1_555 1_555
H116 C148 1_555 1_555
H117 C148 1_555 1_555
C149 H118 1_555 1_555
C150 C144 1_555 1_555
H119 C150 1_555 1_555
H120 C150 1_555 1_555
H121 C150 1_555 1_555
C151 C138 1_555 1_555
H122 C151 1_555 1_555
C152 C139 1_555 1_555
H123 C152 1_555 1_555
C153 C133 1_555 1_555
H124 C153 1_555 1_555
C154 C132 1_555 1_555
H125 C154 1_555 1_555
C155 C126 1_555 1_555
H126 C155 1_555 1_555
C156 C125 1_555 1_555
H127 C156 1_555 1_555
C157 C131 1_555 1_555
H128 C157 1_555 1_555
C158 C146 1_555 1_555
H129 C158 1_555 1_555
H130 C158 1_555 1_555
H131 C158 1_555 1_555
C159 C154 1_555 1_555
H132 C159 1_555 1_555
H133 C159 1_555 1_555
H134 C159 1_555 1_555
C160 N11 1_555 1_555
C161 C69 1_555 1_555
C162 N30 1_555 1_555
C163 C119 1_555 1_555
H135 C163 1_555 1_555
C164 N31 1_555 1_555
C165 N32 1_555 1_555
C166 N29 1_555 1_555
C167 C163 1_555 1_555
H136 C167 1_555 1_555
H137 C167 1_555 1_555
H138 C167 1_555 1_555
C168 C151 1_555 1_555
H139 C168 1_555 1_555
H140 C168 1_555 1_555
H141 C168 1_555 1_555
C169 C163 1_555 1_555
H142 C169 1_555 1_555
H143 C169 1_555 1_555
H144 C169 1_555 1_555
C170 C146 1_555 1_555
H145 C170 1_555 1_555
H146 C170 1_555 1_555
H147 C170 1_555 1_555
C171 C151 1_555 1_555
H148 C171 1_555 1_555
H149 C171 1_555 1_555
H150 C171 1_555 1_555
C172 C145 1_555 1_555
H151 C172 1_555 1_555
H152 C172 1_555 1_555
H153 C172 1_555 1_555
C173 C145 1_555 1_555
H154 C173 1_555 1_555
H155 C173 1_555 1_555
H156 C173 1_555 1_555
C174 C154 1_555 1_555
H157 C174 1_555 1_555
H158 C174 1_555 1_555
H159 C174 1_555 1_555
C175 H160 1_555 1_555
H161 C175 1_555 1_555
H162 C175 1_555 1_555
C176 C155 1_555 1_555
H163 C176 1_555 1_555
H164 C176 1_555 1_555
H165 C176 1_555 1_555
C177 C135 1_555 1_555
H166 C177 1_555 1_555
C178 C177 1_555 1_555
H167 C178 1_555 1_555
H168 C178 1_555 1_555
H169 C178 1_555 1_555
O27 C179 1_555 1_555
N33 H170 1_555 1_555
O28 C179 1_555 1_555
O29 C198 1_555 1_555
C179 N33 1_555 1_555
C180 H171 1_555 1_555
H172 C180 1_555 1_555
C181 C185 1_555 1_555
C182 H173 1_555 1_555
C183 C191 1_555 1_555
N34 H174 1_555 1_555
C184 H175 1_555 1_555
C185 C184 1_555 1_555
H176 C185 1_555 1_555
C186 C182 1_555 1_555
H177 C186 1_555 1_555
C187 C181 1_555 1_555
H178 C187 1_555 1_555
C188 O27 1_555 1_555
H179 C188 1_555 1_555
H180 C188 1_555 1_555
C189 N33 1_555 1_555
H181 C189 1_555 1_555
H182 C189 1_555 1_555
C190 H183 1_555 1_555
H184 C190 1_555 1_555
C191 H185 1_555 1_555
C192 C181 1_555 1_555
H186 C192 1_555 1_555
C193 H187 1_555 1_555
H188 C193 1_555 1_555
C194 H189 1_555 1_555
H190 C194 1_555 1_555
C195 N34 1_555 1_555
H191 C195 1_555 1_555
H192 C195 1_555 1_555
C196 C190 1_555 1_555
H193 C196 1_555 1_555
H194 C196 1_555 1_555
C197 C180 1_555 1_555
H195 C197 1_555 1_555
H196 C197 1_555 1_555
C198 C196 1_555 1_555
H197 C198 1_555 1_555
H198 C198 1_555 1_555
O30 C199 1_555 1_555
C199 O29 1_555 1_555
C200 H199 1_555 1_555
C201 C200 1_555 1_555
H200 C201 1_555 1_555
C202 C188 1_555 1_555
H201 C202 1_555 1_555
H202 C202 1_555 1_555
C203 H203 1_555 1_555
C204 C183 1_555 1_555
H204 C204 1_555 1_555
C205 C203 1_555 1_555
C206 C191 1_555 1_555
H205 C206 1_555 1_555
C207 C193 1_555 1_555
H206 C207 1_555 1_555
C208 C205 1_555 1_555
H207 C208 1_555 1_555
C209 C203 1_555 1_555
H208 C209 1_555 1_555
C210 C208 1_555 1_555
H209 C210 1_555 1_555
C211 C209 1_555 1_555
H210 C211 1_555 1_555
C212 C207 1_555 1_555
C213 C212 1_555 1_555
H211 C213 1_555 1_555
C214 C213 1_555 1_555
H212 C214 1_555 1_555
C215 C214 1_555 1_555
H213 C215 1_555 1_555
C216 C215 1_555 1_555
H214 C216 1_555 1_555
C217 C212 1_555 1_555
H215 C217 1_555 1_555
Cl1 C223 1_555 1_555
C218 H216 1_555 1_555
C219 C218 1_555 1_555
H217 C219 1_555 1_555
C220 C218 1_555 1_555
H218 C220 1_555 1_555
C221 C219 1_555 1_555
H219 C221 1_555 1_555
C222 C220 1_555 1_555
C223 C221 1_555 1_555
Cl2 C222 1_555 1_555
C224 H220 1_555 1_555
C225 C224 1_555 1_555
H221 C225 1_555 1_555
Cl3 C226 1_555 1_555
C226 C227 1_555 1_555
C227 C225 1_555 1_555
H222 C227 1_555 1_555
C228 C224 1_555 1_555
H223 C228 1_555 1_555
C229 C226 1_555 1_555
Cl4 C229 1_555 1_555
O31 C230 1_555 1_555
C2 C5 1_555 1_555
N12 C32 1_555 1_555
N15 C53 1_555 1_555
C13 C30 1_555 1_555
C16 C27 1_555 1_555
C22 C51 1_555 1_555
C24 C51 1_555 1_555
C24 C74 1_555 1_555
C26 C27 1_555 1_555
N22 C160 1_555 1_555
C29 C48 1_555 1_555
N25 C143 1_555 1_555
C35 C50 1_555 1_555
C40 C73 1_555 1_555
C42 C122 1_555 1_555
C42 C160 1_555 1_555
C45 C90 1_555 1_555
C46 C120 1_555 1_555
C58 C99 1_555 1_555
C62 C107 1_555 1_555
C64 C66 1_555 1_555
C65 C78 1_555 1_555
C71 C161 1_555 1_555
C72 C76 1_555 1_555
N28 C136 1_555 1_555
C75 C78 1_555 1_555
C75 C83 1_555 1_555
C79 C115 1_555 1_555
C81 C123 1_555 1_555
C82 C85 1_555 1_555
C84 C86 1_555 1_555
C84 C114 1_555 1_555
C88 C92 1_555 1_555
C89 C128 1_555 1_555
C91 C108 1_555 1_555
C93 C97 1_555 1_555
C94 C111 1_555 1_555
C95 C124 1_555 1_555
C96 C161 1_555 1_555
C101 C117 1_555 1_555
C104 C161 1_555 1_555
N32 C162 1_555 1_555
C109 C110 1_555 1_555
C112 C118 1_555 1_555
C112 C129 1_555 1_555
C116 C130 1_555 1_555
C139 C162 1_555 1_555
C140 C157 1_555 1_555
C142 C165 1_555 1_555
C147 C155 1_555 1_555
C149 C153 1_555 1_555
C149 C166 1_555 1_555
C152 C156 1_555 1_555
C164 C166 1_555 1_555
C175 C177 1_555 1_555
C180 C189 1_555 1_555
C182 C187 1_555 1_555
C183 C192 1_555 1_555
N34 C199 1_555 1_555
C184 C186 1_555 1_555
C190 C192 1_555 1_555
C193 C202 1_555 1_555
C194 C195 1_555 1_555
C194 C197 1_555 1_555
C200 C206 1_555 1_555
C201 C204 1_555 1_555
C205 C207 1_555 1_555
C210 C211 1_555 1_555
C216 C217 1_555 1_555
C222 C223 1_555 1_555
C228 C229 1_555 1_555

#END
