
#######################################################################
#
#                 Cambridge Crystallographic Data Centre
#                                CCDC 
#
#######################################################################
#
# If this CIF has been generated from an entry in the Cambridge 
# Structural Database, then it will include bibliographic, chemical, 
# crystal, experimental, refinement or atomic coordinate data resulting 
# from the CCDC's data processing and validation procedures.
#
#######################################################################

data_APUROT
_chemical_formula_moiety         
'C15 H30 N2 O4,C178 H169 F9 N32 O26,6(C6 H5 Cl1)'
_chemical_name_systematic        
"[2]-(Dibutyl pentane-1,5-diylbiscarbamate)-(N,N'-bis(2-((2-((2-((2-((6-((6-((6-(t-butylcarbonylamino)pyridin-2-yl)carbamoyl)pyridin-2-yl)carbonylamino)pyridin-2-yl)carbamoyl)-8-fluoro-4-isobutoxyquinolin-7-yl)carbamoyl)-8-fluoro-4-isobutoxyquinolin-7-yl)carbamoyl)-8-fluoro-4-isobutoxyquinolin-7-yl)carbamoyl)-8-fluoro-4-isobutoxyquinolin-7-yl)-10-fluoro-4,6-di-isobutoxypyrido[3,2-g]quinoline-2,8-dicarboxamide)-helical-pseudorotaxane chlorobenzene unknown solvate"
_symmetry_cell_setting           orthorhombic
_symmetry_space_group_name_H-M   'P n a 21'
_symmetry_Int_Tables_number      33
_space_group_name_Hall           'P 2c -2n'
loop_
_symmetry_equiv_pos_site_id
_symmetry_equiv_pos_as_xyz
1 x,y,z
2 -x,-y,1/2+z
3 1/2+x,1/2-y,z
4 1/2-x,1/2+y,1/2+z
_cell_length_a                   39.021(8)
_cell_length_b                   16.630(3)
_cell_length_c                   32.270(7)
_cell_angle_alpha                90
_cell_angle_beta                 90
_cell_angle_gamma                90
_cell_volume                     20940.6
_cell_formula_units_Z            4
loop_
_atom_site_label
_atom_site_type_symbol
_atom_site_fract_x
_atom_site_fract_y
_atom_site_fract_z
C1 C -0.03684(12) 1.2132(3) 0.11839(15)
C2 C 0.08232(11) 1.2456(3) 0.07230(14)
C3 C 0.05501(11) 1.2082(3) 0.09323(14)
C4 C 0.19449(12) 0.6863(3) 0.25179(15)
C5 C -0.03695(12) 1.1470(3) 0.29356(15)
C6 C -0.03657(12) 1.2141(3) 0.26304(15)
C7 C 0.23242(11) 1.0443(2) 0.16417(14)
C9 C 0.10703(14) 0.6992(3) 0.29015(15)
C10 C 0.07473(12) 1.3128(3) 0.04728(16)
C11 C 0.26427(12) 1.0512(3) 0.14451(16)
C12 C -0.01040(12) 1.0406(3) 0.32375(14)
C13 C 0.02082(12) 1.2347(3) 0.08926(16)
C14 C 0.21274(13) 0.7677(3) 0.19131(14)
C15 C -0.05338(12) 1.1622(3) 0.15059(15)
C17 C 0.20444(11) 1.0842(3) 0.14652(14)
C18 C 0.02242(13) 0.9323(3) 0.35719(14)
C19 C 0.07726(13) 0.7431(3) 0.28302(15)
C20 C 0.00413(11) 1.2829(3) 0.21568(14)
C21 C 0.16868(12) 0.8834(3) 0.30902(15)
C22 C 0.13488(14) 0.5904(3) 0.32850(15)
C23 C 0.20693(11) 1.1298(2) 0.11097(14)
C24 C 0.20103(12) 0.8191(3) 0.16076(15)
C25 C 0.15563(13) 1.0344(3) 0.01935(15)
C26 C 0.01471(13) 1.3003(3) 0.06274(16)
H5 H -0.0077 1.3180 0.0590
C27 C 0.10325(13) 0.8203(3) 0.37965(14)
C28 C 0.15145(12) 0.8431(3) 0.34158(13)
C29 C 0.10663(13) 1.3691(3) 0.15074(15)
C30 C 0.01814(11) 0.9896(3) 0.32686(14)
C32 C 0.14424(14) 1.3498(3) 0.15477(15)
C33 C 0.16432(13) 0.6082(3) 0.30641(15)
H6 H 0.1846 0.5802 0.3110
C34 C 0.16248(13) 0.6701(3) 0.27681(14)
C35 C -0.00344(14) 1.3938(3) 0.17035(18)
H7 H -0.0173 1.4319 0.1575
C36 C 0.10438(14) 0.6359(3) 0.32072(15)
C37 C -0.04455(12) 0.9404(3) 0.24224(17)
C38 C 0.09588(14) 1.0727(3) 0.00860(15)
C39 C 0.13960(11) 1.2535(3) 0.05912(15)
C40 C -0.03680(13) 1.0284(3) 0.35267(16)
C41 C -0.01300(14) 0.7784(3) 0.30806(17)
C42 C 0.02917(19) 0.5801(3) 0.23009(17)
C43 C -0.06541(13) 1.0808(3) 0.35058(17)
C44 C 0.22155(12) 0.8496(3) 0.12948(14)
C45 C -0.06540(12) 1.1410(3) 0.32090(16)
H8 H -0.0836 1.1768 0.3189
C46 C 0.04623(13) 0.7286(3) 0.30206(16)
C47 C 0.18814(14) 1.2830(3) 0.18646(17)
C48 C 0.0855(2) 0.5110(3) 0.23753(17)
C49 C -0.01840(13) 1.3385(3) 0.19757(17)
H9 H -0.0418 1.3386 0.2033
C50 C -0.09796(12) 1.0186(3) 0.23962(19)
H10 H -0.1200 1.0280 0.2494
C51 C -0.08351(13) 0.9499(3) 0.11321(18)
C52 C 0.22094(13) 0.8147(3) 0.32375(16)
H11 H 0.2439 0.8054 0.3178
C53 C 0.05087(13) 1.3358(3) 0.18232(15)
C54 C 0.26685(12) 1.0978(3) 0.10849(16)
H12 H 0.2880 1.1022 0.0953
C55 C 0.00362(14) 1.0988(3) 0.01712(17)
C56 C -0.03158(11) 0.9914(3) 0.21157(15)
C57 C 0.21253(14) 1.3148(4) 0.15947(18)
H13 H 0.2356 1.3017 0.1621
C58 C -0.02822(13) 1.0110(3) 0.06601(17)
C59 C 0.04487(15) 0.6654(3) 0.33190(19)
H14 H 0.0245 0.6542 0.3456
C60 C -0.05000(11) 1.0557(3) 0.19449(16)
C61 C 0.11904(13) 0.7624(3) 0.40450(15)
H15 H 0.1069 0.7355 0.4251
C62 C 0.04033(16) 1.1109(3) 0.00317(16)
C63 C 0.20198(13) 0.8711(3) 0.29928(15)
C64 C 0.11796(17) 0.7589(3) 0.04334(19)
C65 C -0.03337(14) 0.9681(3) 0.38272(15)
H16 H -0.0513 0.9591 0.4012
C66 C 0.15340(13) 0.7466(3) 0.39745(14)
C67 C 0.20604(13) 0.7750(3) 0.35529(16)
H17 H 0.2188 0.7385 0.3707
C68 C -0.06123(14) 1.0466(3) 0.06319(18)
H18 H -0.0647 1.0905 0.0459
C69 C 0.06586(15) 0.8413(3) 0.38697(15)
C70 C 0.10323(14) 1.3523(3) 0.02835(17)
C71 C 0.23949(12) 1.1368(3) 0.09226(16)
H19 H 0.2422 1.1683 0.0687
C72 C 0.18265(12) 1.1584(3) 0.28421(16)
C74 C 0.21259(14) 0.9745(3) 0.03607(15)
C75 C 0.12213(14) 1.0262(3) 0.02773(14)
C76 C 0.03074(13) 1.3934(3) 0.16219(17)
H21 H 0.0404 1.4302 0.1439
C77 C 0.20104(12) 1.2289(3) 0.22087(19)
C78 C 0.29227(12) 1.0098(3) 0.16284(17)
C79 C 0.25622(14) 0.8233(3) 0.12791(17)
C80 C 0.16589(17) 1.0915(3) -0.01011(17)
H22 H 0.1890 1.0968 -0.0165
C81 C 0.24887(12) 0.9149(3) 0.25341(17)
C82 C 0.16722(14) 1.3844(3) 0.12605(17)
H23 H 0.1593 1.4191 0.1056
C83 C 0.22840(13) 0.9219(3) 0.06960(16)
C84 C 0.17557(12) 1.2225(3) 0.06566(14)
C85 C -0.07903(12) 0.9537(3) 0.25558(17)
C86 C -0.03634(12) 0.8379(3) 0.28789(18)
C87 C -0.06313(17) 0.7510(3) 0.1916(2)
C88 C 0.21286(12) 1.1155(3) 0.29255(18)
H24 H 0.2314 1.1181 0.2744
C89 C 0.13540(12) 1.3214(3) 0.03355(16)
H25 H 0.1541 1.3447 0.0204
C90 C -0.08765(14) 1.0165(3) 0.08575(19)
H26 H -0.1092 1.0402 0.0832
C91 C 0.15719(14) 0.4716(3) 0.35949(17)
H27 H 0.1774 0.4928 0.3731
H28 H 0.1637 0.4539 0.3319
C92 C 0.24713(14) 0.7430(3) 0.18945(17)
H29 H 0.2556 0.7072 0.2091
C93 C 0.26829(14) 0.7709(3) 0.15906(18)
H30 H 0.2912 0.7551 0.1589
C94 C -0.05029(14) 0.9102(3) 0.11546(18)
C95 C 0.10690(17) 1.1317(3) -0.02088(16)
C96 C -0.01724(17) 0.6569(3) 0.21606(17)
C97 C 0.28775(13) 0.9665(3) 0.19785(17)
H31 H 0.3060 0.9397 0.2102
C98 C -0.08446(11) 1.0684(3) 0.20988(16)
C99 C 0.15761(13) 1.1083(3) 0.34318(16)
C100 C 0.07314(15) 0.6221(3) 0.34020(17)
H32 H 0.0717 0.5811 0.3598
C101 C 0.25459(12) 0.9633(3) 0.21507(16)
C103 C -0.06952(15) 0.8428(3) 0.3032(2)
H35 H -0.0768 0.8089 0.3244
C104 C -0.00412(14) 0.9216(3) 0.38561(16)
H36 H -0.0021 0.8832 0.4065
C105 C 0.04025(13) 1.3382(3) 0.04270(17)
H37 H 0.0352 1.3817 0.0256
C106 C -0.02461(14) 0.9464(3) 0.09236(18)
C107 C -0.08658(13) 1.1827(3) 0.16410(18)
H38 H -0.0979 1.2264 0.1525
C108 C 0.17080(13) 0.7883(3) 0.36530(14)
C109 C 0.18681(15) 1.0634(3) 0.35320(18)
H39 H 0.1876 1.0302 0.3764
C110 C 0.26279(14) 0.9007(3) 0.06561(17)
H40 H 0.2757 0.9187 0.0432
C112 C -0.10234(14) 0.8546(3) 0.1642(2)
H43 H -0.1191 0.8328 0.1813
C113 C 0.01156(19) 0.5351(4) 0.25878(18)
H44 H 0.0219 0.4924 0.2726
C114 C 0.27706(14) 0.8529(3) 0.09537(19)
C115 C 0.21467(14) 1.0716(4) 0.32626(19)
H45 H 0.2350 1.0451 0.3324
C116 C -0.11767(13) 1.1263(4) 0.37896(19)
H46 H -0.1279 1.1328 0.3518
H47 H -0.1088 1.1779 0.3879
C117 C 0.08819(15) 1.1026(3) 0.42661(18)
C119 C 0.15790(17) 0.6556(3) 0.45418(15)
H48 H 0.1394 0.6198 0.4462
H49 H 0.1488 0.6961 0.4727
C120 C 0.18611(17) 0.6086(4) 0.47547(18)
H50 H 0.1938 0.5664 0.4564
C122 C -0.06879(13) 0.8212(3) 0.16273(19)
C123 C 0.04734(17) 1.1704(3) -0.02604(18)
H53 H 0.0300 1.2022 -0.0370
C124 C 0.15034(15) 0.6948(3) 0.09120(19)
C125 C 0.17541(16) 0.6066(3) 0.1446(2)
C126 C 0.16458(15) 0.5590(3) 0.1807(2)
C127 C -0.0371(2) 0.6176(3) 0.2455(2)
H54 H -0.0596 0.6327 0.2509
C129 C 0.33221(15) 0.8506(4) 0.0635(2)
H57 H 0.3356 0.9084 0.0636
H58 H 0.3222 0.8353 0.0372
C131 C 0.20164(16) 1.3660(4) 0.12892(19)
H60 H 0.2172 1.3881 0.1103
C132 C 0.18821(19) 0.5101(4) 0.2013(2)
H61 H 0.2112 0.5122 0.1940
C133 C 0.12096(14) 1.0759(3) 0.40404(16)
C134 C 0.12117(19) 0.5105(3) 0.22357(19)
C135 C 0.35210(13) 0.9803(4) 0.1609(2)
H62 H 0.3495 0.9223 0.1607
H63 H 0.3547 0.9977 0.1895
C136 C -0.10192(12) 1.1384(3) 0.1941(2)
C137 C 0.05874(14) 1.1136(5) 0.3966(2)
H64 H 0.0541 1.0635 0.3828
H65 H 0.0647 1.1536 0.3764
H66 H 0.0387 1.1306 0.4114
C138 C -0.09177(13) 0.8993(3) 0.2862(2)
C139 C -0.10931(14) 0.9206(3) 0.1393(2)
C140 C 0.14578(18) 0.7881(4) 0.0222(2)
H67 H 0.1434 0.8227 -0.0002
C141 C 0.07246(17) 0.7876(4) -0.0089(2)
C142 C -0.0219(2) 0.5559(4) 0.2661(2)
H68 H -0.0345 0.5272 0.2856
C143 C 0.1443(3) 0.4580(3) 0.2429(2)
H69 H 0.1366 0.4222 0.2630
C144 C 0.14283(17) 1.1390(3) -0.02944(17)
H70 H 0.1503 1.1770 -0.0485
C145 C 0.17763(18) 0.7633(5) 0.0361(2)
H71 H 0.1972 0.7783 0.0215
C146 C 0.08104(19) 1.1800(3) -0.03803(17)
C147 C 0.0672(2) 1.2957(4) -0.0797(2)
C148 C 0.12510(17) 1.4721(4) -0.0034(3)
H72 H 0.1379 1.4480 -0.0260
H73 H 0.1403 1.4781 0.0201
C149 C 0.1712(2) 0.5679(4) 0.51328(19)
H74 H 0.1885 0.5351 0.5261
H75 H 0.1522 0.5348 0.5052
H76 H 0.1635 0.6079 0.5326
C150 C 0.14283(18) 0.4009(3) 0.3842(2)
H77 H 0.1188 0.3926 0.3763
C155 C 0.21636(19) 0.6581(4) 0.4865(2)
H85 H 0.2334 0.6248 0.4994
H86 H 0.2096 0.6998 0.5053
H87 H 0.2257 0.6819 0.4618
C156 C 0.38331(14) 1.0047(4) 0.1357(2)
H88 H 0.3801 0.9869 0.1070
C157 C -0.17067(16) 1.1594(5) 0.4162(2)
H89 H -0.1876 1.1397 0.4353
H90 H -0.1814 1.1723 0.3903
H91 H -0.1601 1.2067 0.4274
C161 C 0.36605(17) 0.8081(5) 0.0697(2)
H95 H 0.3743 0.8212 0.0976
C162 C -0.14563(15) 1.2332(4) 0.2083(3)
H96 H -0.1527 1.2429 0.1800
H97 H -0.1281 1.2722 0.2155
C163 C -0.14410(14) 1.0963(4) 0.4094(2)
H98 H -0.1326 1.0865 0.4359
C164 C 0.1777(2) 0.4590(4) 0.2325(3)
H99 H 0.1934 0.4259 0.2459
C165 C 0.38934(17) 1.0940(4) 0.1359(3)
H100 H 0.4101 1.1059 0.1212
H101 H 0.3913 1.1125 0.1640
H102 H 0.3704 1.1207 0.1227
C166 C -0.17599(15) 1.2418(4) 0.2373(3)
H103 H -0.1946 1.2070 0.2276
C168 C 0.03508(18) 0.8025(4) -0.0169(2)
C169 C 0.18084(15) 0.7163(4) 0.0713(2)
H105 H 0.2021 0.7000 0.0812
C170 C -0.14063(19) 0.8503(6) 0.3222(3)
H106 H -0.1314 0.7973 0.3164
H107 H -0.1344 0.8640 0.3504
C171 C 0.0781(2) 1.0378(8) 0.4572(3)
H108 H 0.0965 1.0292 0.4764
H109 H 0.0734 0.9888 0.4426
H110 H 0.0580 1.0544 0.4720
C172 C 0.3636(2) 0.7205(6) 0.0667(3)
H111 H 0.3472 0.7011 0.0864
H112 H 0.3856 0.6970 0.0724
H113 H 0.3564 0.7059 0.0392
C175 C 0.0246(3) 0.7556(7) -0.0553(4)
H116 H 0.0273 0.6991 -0.0502
H117 H 0.0388 0.7713 -0.0782
H118 H 0.0010 0.7668 -0.0617
C176 C -0.2116(2) 1.0090(6) 0.2142(4)
H119 H -0.1961 1.0104 0.2373
H120 H -0.2250 0.9606 0.2153
H121 H -0.2266 1.0548 0.2153
C177 C -0.16397(16) 0.9434(4) 0.1695(3)
H122 H -0.1528 0.9367 0.1961
H123 H -0.1755 0.8934 0.1628
C178 C -0.19063(16) 1.0111(5) 0.1727(4)
H124 H -0.1778 1.0617 0.1728
C179 C -0.15935(16) 1.0164(5) 0.3944(3)
H125 H -0.1765 0.9986 0.4137
H126 H -0.1415 0.9768 0.3926
H127 H -0.1696 1.0238 0.3677
C180 C 0.09564(18) 1.1794(6) 0.4486(3)
H128 H 0.1143 1.1714 0.4675
H129 H 0.0757 1.1962 0.4637
H130 H 0.1017 1.2200 0.4288
C182 C -0.18791(17) 1.3294(5) 0.2356(3)
H131 H -0.1943 1.3428 0.2077
H132 H -0.1696 1.3639 0.2445
H133 H -0.2073 1.3363 0.2535
C184 C -0.1765(2) 0.8460(7) 0.3197(3)
H134 H -0.1861 0.8991 0.3259
C185 C -0.1658(2) 1.2167(6) 0.2795(3)
H135 H -0.1853 1.2205 0.2977
H136 H -0.1479 1.2512 0.2894
H137 H -0.1578 1.1621 0.2788
C186 C 0.41457(16) 0.9618(5) 0.1538(3)
H138 H 0.4104 0.9049 0.1546
H139 H 0.4187 0.9810 0.1814
H140 H 0.4343 0.9725 0.1369
C188 C 0.16292(18) 0.3254(4) 0.3744(3)
H143 H 0.1537 0.2812 0.3900
H144 H 0.1865 0.3332 0.3818
H145 H 0.1612 0.3139 0.3453
C190 C 0.3925(2) 0.8402(5) 0.0384(3)
H149 H 0.3939 0.8977 0.0407
H150 H 0.3855 0.8260 0.0108
H151 H 0.4145 0.8170 0.0442
C192 C 0.0305(3) 0.8913(6) -0.0256(5)
H153 H 0.0373 0.9218 -0.0017
H154 H 0.0069 0.9020 -0.0318
H155 H 0.0445 0.9064 -0.0488
C197 C -0.1874(3) 0.8205(7) 0.2757(3)
H160 H -0.2119 0.8185 0.2741
H161 H -0.1782 0.7683 0.2696
H162 H -0.1789 0.8587 0.2559
C198 C -0.1907(3) 0.7842(8) 0.3512(4)
H163 H -0.2152 0.7836 0.3497
H164 H -0.1836 0.7990 0.3786
H165 H -0.1819 0.7317 0.3447
C199 C -0.2108(3) 1.0108(11) 0.1353(5)
H166 H -0.1959 1.0138 0.1117
H167 H -0.2259 1.0562 0.1353
H168 H -0.2240 0.9621 0.1339
C200 C 0.1117(2) 1.5513(6) -0.0161(5)
H169 H 0.1111 1.5736 0.0120
C201 C 0.1438(3) 1.6016(5) -0.0304(5)
H170 H 0.1619 1.5956 -0.0105
H171 H 0.1376 1.6573 -0.0325
H172 H 0.1514 1.5826 -0.0569
C202 C 0.0826(3) 1.5679(7) -0.0243(10)
H173 H 0.0805 1.6251 -0.0272
H174 H 0.0679 1.5496 -0.0024
H175 H 0.0762 1.5423 -0.0498
C203 C 0.0910(4) 1.3512(6) -0.1121(6)
H176 H 0.0930 1.3218 -0.1383
C204 C 0.1262(6) 1.3746(10) -0.0988(7)
H177 H 0.1407 1.3281 -0.0990
H178 H 0.1253 1.3965 -0.0712
H179 H 0.1351 1.4143 -0.1175
C205 C 0.0593(4) 1.4223(7) -0.1178(6)
H180 H 0.0400 1.3986 -0.1315
H181 H 0.0679 1.4662 -0.1341
H182 H 0.0525 1.4417 -0.0910
C206 C 0.1443(4) 0.4225(5) 0.4293(3)
H183 H 0.1351 0.3792 0.4455
H184 H 0.1312 0.4704 0.4341
H185 H 0.1677 0.4317 0.4373
C216 C 0.0117(2) 0.7706(7) 0.0178(3)
H196 H 0.0157 0.7141 0.0216
H197 H -0.0119 0.7791 0.0103
H198 H 0.0166 0.7985 0.0431
N1 N 0.12723(12) 1.1113(3) 0.36671(14)
H210 H 0.1107 1.1387 0.3563
N2 N 0.15574(10) 1.1543(2) 0.30880(13)
N3 N 0.17750(10) 1.2067(2) 0.24899(13)
H212 H 0.1570 1.2240 0.2450
N4 N 0.15516(11) 1.2987(3) 0.18347(13)
N5 N 0.03742(10) 1.2808(2) 0.20762(11)
N6 N -0.00658(10) 1.2229(2) 0.24336(13)
H215 H 0.0084 1.1863 0.2485
N7 N -0.00997(10) 1.0992(2) 0.29487(12)
N8 N 0.05383(10) 0.8922(2) 0.35868(12)
H217 H 0.0674 0.9018 0.3383
N9 N 0.11779(10) 0.8605(2) 0.34937(12)
N10 N 0.21607(11) 0.9108(2) 0.26566(13)
H219 H 0.2017 0.9365 0.2504
N11 N 0.22736(10) 1.0004(2) 0.19936(12)
N12 N 0.17755(9) 1.1668(2) 0.09597(12)
H221 H 0.1585 1.1527 0.1072
N13 N 0.11426(9) 1.2167(2) 0.07867(12)
N14 N -0.00314(10) 1.1963(2) 0.11242(13)
H223 H 0.0042 1.1546 0.1254
N15 N -0.03533(10) 1.1027(2) 0.16551(13)
N16 N -0.02402(11) 0.8831(2) 0.25825(14)
N17 N 0.01855(11) 0.7750(2) 0.29089(14)
H226 H 0.0218 0.8062 0.2700
N18 N 0.13579(11) 0.7146(2) 0.26874(12)
N19 N 0.18955(11) 0.7393(2) 0.22045(12)
H228 H 0.1691 0.7581 0.2183
N20 N 0.20782(11) 0.8990(2) 0.09957(12)
N21 N 0.17878(11) 0.9867(2) 0.04226(12)
H230 H 0.1701 0.9619 0.0632
N22 N 0.06269(11) 1.0638(2) 0.02042(12)
N23 N 0.00054(12) 1.0401(3) 0.04674(14)
H232 H 0.0195 1.0182 0.0544
N24 N -0.04423(12) 0.8468(2) 0.14064(15)
N25 N -0.03088(13) 0.7212(2) 0.19177(15)
H234 H -0.0167 0.7440 0.1751
N26 N 0.01467(13) 0.6401(2) 0.20858(14)
N27 N 0.06411(13) 0.5669(2) 0.22060(15)
H236 H 0.0729 0.5977 0.2020
N28 N 0.13130(15) 0.5586(2) 0.19264(15)
N29 N 0.14939(12) 0.6504(3) 0.12760(17)
H238 H 0.1303 0.6506 0.1409
N30 N 0.12032(12) 0.7165(3) 0.07731(16)
N31 N 0.08406(15) 0.7740(3) 0.02987(17)
H240 H 0.0687 0.7745 0.0490
N34 N 0.08619(10) 1.3294(2) 0.17807(12)
H243 H 0.0963 1.2964 0.1946
O1 O 0.14099(13) 1.0280(3) 0.41916(15)
O2 O 0.23118(9) 1.2091(3) 0.22173(14)
O3 O 0.09675(11) 1.4159(2) 0.12410(12)
O4 O -0.06183(9) 1.2581(2) 0.25768(12)
O5 O -0.09019(9) 1.0675(2) 0.37721(13)
O6 O 0.04979(12) 0.8125(3) 0.41612(13)
O7 O 0.17242(10) 0.6927(2) 0.41835(11)
O8 O 0.27272(9) 0.8834(3) 0.27176(14)
O9 O 0.32262(8) 1.0178(2) 0.14264(14)
O10 O 0.19977(8) 1.2488(2) 0.04585(12)
O11 O 0.09605(10) 1.4205(2) 0.00769(15)
O12 O -0.05256(9) 1.2672(2) 0.10034(12)
O13 O -0.13224(9) 1.1529(3) 0.21236(16)
O14 O -0.12489(10) 0.9063(3) 0.29501(16)
O15 O -0.02224(10) 0.7384(2) 0.33773(15)
O16 O 0.13157(11) 0.5322(2) 0.35677(12)
O17 O 0.22137(9) 0.6521(2) 0.25872(11)
O18 O 0.31002(10) 0.8273(3) 0.09705(13)
O19 O 0.22915(10) 0.9995(2) 0.00689(11)
O20 O 0.09192(13) 1.2362(3) -0.06538(15)
O21 O -0.02035(11) 1.1384(2) 0.00426(15)
O22 O -0.13867(10) 0.9605(2) 0.13842(18)
O23 O -0.08630(12) 0.7254(3) 0.21339(16)
O24 O 0.07503(17) 0.4605(3) 0.26350(15)
O25 O 0.20419(11) 0.6015(3) 0.13156(18)
O26 O 0.09288(15) 0.7924(4) -0.03854(17)
F1 F 0.04401(7) 0.99813(16) 0.29928(9)
F2 F 0.15007(7) 0.93548(17) 0.28549(9)
F3 F 0.17352(6) 1.07938(17) 0.16481(9)
F4 F 0.06095(6) 1.14625(15) 0.11788(9)
F5 F 0.00022(7) 0.97881(17) 0.19757(10)
F6 F 0.07888(8) 0.80517(17) 0.25637(9)
F7 F 0.16773(7) 0.84273(17) 0.16190(9)
F8 F 0.11177(8) 0.97172(18) 0.05609(9)
F9 F 0.00768(8) 0.91246(18) 0.09474(12)
C8 C 0.06705(14) -0.1382(3) 0.16994(16)
H1 H 0.0858 -0.1629 0.1851
H2 H 0.0508 -0.1172 0.1899
C16 C 0.08026(13) 0.0320(3) 0.20254(16)
H3 H 0.0598 0.0549 0.1902
H4 H 0.0732 -0.0070 0.2232
C31 C 0.08785(13) 0.2071(3) 0.27145(15)
C102 C 0.10088(12) 0.0979(3) 0.22322(17)
H33 H 0.1223 0.0758 0.2334
H34 H 0.1063 0.1393 0.2031
C111 C 0.08061(15) -0.0706(3) 0.14371(16)
H41 H 0.0616 -0.0431 0.1306
H42 H 0.0951 -0.0926 0.1220
C118 C 0.06119(13) -0.2751(3) 0.14156(17)
C121 C 0.10136(14) -0.0098(3) 0.16917(17)
H51 H 0.1204 -0.0374 0.1822
H52 H 0.1107 0.0305 0.1506
C128 C 0.05348(17) -0.3994(3) 0.1080(2)
H55 H 0.0774 -0.4042 0.1002
H56 H 0.0504 -0.4263 0.1344
C152 C 0.0327(2) -0.4368(4) 0.0776(2)
H79 H 0.0398 -0.4922 0.0743
H80 H 0.0360 -0.4098 0.0512
C153 C 0.07229(19) 0.3030(4) 0.3232(2)
H81 H 0.0886 0.3334 0.3068
H82 H 0.0809 0.3007 0.3514
C154 C 0.0122(2) 0.3067(4) 0.3472(2)
H83 H 0.0196 0.3020 0.3758
H84 H 0.0085 0.2528 0.3366
C160 C 0.0392(3) 0.3450(5) 0.3232(2)
H93 H 0.0427 0.3989 0.3339
H94 H 0.0315 0.3501 0.2948
C187 C -0.0054(3) -0.4348(5) 0.0886(4)
H141 H -0.0086 -0.4594 0.1156
H142 H -0.0128 -0.3792 0.0907
C189 C -0.0222(3) 0.3544(8) 0.3455(4)
H146 H -0.0394 0.3264 0.3612
H147 H -0.0296 0.3592 0.3172
H148 H -0.0189 0.4071 0.3570
C215 C -0.0270(5) -0.4764(9) 0.0584(8)
H193 H -0.0505 -0.4744 0.0673
H194 H -0.0199 -0.5315 0.0561
H195 H -0.0249 -0.4507 0.0319
N32 N 0.08182(11) 0.1337(3) 0.25774(14)
H241 H 0.0661 0.1057 0.2696
N33 N 0.05005(11) -0.1995(2) 0.14375(14)
H242 H 0.0324 -0.1858 0.1295
O27 O 0.10674(8) 0.2566(2) 0.25507(11)
O28 O 0.08365(10) -0.3047(2) 0.16357(12)
O29 O 0.07008(11) 0.2225(2) 0.30701(14)
O30 O 0.04470(10) -0.3160(2) 0.11218(13)
C73 C 0.24861(12) 0.4758(4) 0.40648(17)
H20 H 0.2471 0.4680 0.4350
C130 C 0.24736(15) 0.4981(4) 0.3195(2)
H59 H 0.2464 0.5070 0.2910
C158 C 0.24919(17) 0.4070(5) 0.3737(3)
H92 H 0.2508 0.3540 0.3826
C159 C 0.24743(18) 0.4222(5) 0.3333(2)
C173 C 0.25066(19) 0.5483(5) 0.3877(3)
H114 H 0.2537 0.5928 0.4049
C174 C 0.2487(2) 0.5631(5) 0.3454(3)
H115 H 0.2484 0.6153 0.3350
Cl5 Cl 0.24480(5) 0.34194(12) 0.29916(7)
C151 C 0.04802(18) 0.6645(4) 0.4782(3)
H78 H 0.0457 0.7194 0.4832
C193 C 0.0312(3) 0.6339(7) 0.4470(3)
H156 H 0.0212 0.6717 0.4296
C211 C 0.0683(3) 0.6222(6) 0.5036(8)
H190 H 0.0800 0.6416 0.5267
C212 C 0.0684(5) 0.5355(9) 0.4872(10)
H191 H 0.0830 0.4985 0.4998
C213 C 0.0487(3) 0.5103(8) 0.4559(5)
C214 C 0.0259(4) 0.5552(10) 0.4354(4)
H192 H 0.0095 0.5367 0.4167
Cl2 Cl 0.05254(17) 0.4030(3) 0.4439(2)
C167 C 0.2687(2) 0.6959(5) 1.0302(3)
H104 H 0.2523 0.7296 1.0420
C181 C 0.2813(2) 0.7158(5) 0.9907(3)
C191 C 0.2787(3) 0.6320(6) 1.0515(3)
H152 H 0.2710 0.6237 1.0784
C194 C 0.3012(3) 0.5764(7) 1.0324(4)
H157 H 0.3082 0.5299 1.0460
C195 C 0.3023(3) 0.6618(7) 0.9714(3)
H158 H 0.3098 0.6702 0.9444
C196 C 0.3123(3) 0.5934(6) 0.9936(4)
H159 H 0.3273 0.5577 0.9810
Cl1 Cl 0.26745(7) 0.80131(16) 0.96724(8)
C183 C 0.2245(3) 0.4660(7) -0.0097(4)
C207 C 0.2230(2) 0.3897(7) -0.0212(4)
H186 H 0.2185 0.3500 -0.0016
C208 C 0.2346(4) 0.4353(8) -0.0923(4)
H187 H 0.2361 0.4268 -0.1207
C209 C 0.2379(3) 0.5104(9) -0.0753(4)
H188 H 0.2455 0.5524 -0.0920
C210 C 0.2309(4) 0.5245(9) -0.0370(4)
H189 H 0.2301 0.5776 -0.0280
C229 C 0.2284(5) 0.3686(13) -0.0629(7)
H209 H 0.2280 0.3153 -0.0716
Cl3 Cl 0.21233(7) 0.49138(19) 0.04184(9)
C217 C 0.8356(5) 0.4417(12) 0.3419(7)
H199 H 0.8207 0.4251 0.3627
C218 C 0.8661(4) 0.4099(12) 0.3281(5)
C219 C 0.8902(4) 0.4279(10) 0.2978(5)
H200 H 0.9098 0.3963 0.2957
C220 C 0.8858(5) 0.4936(11) 0.2697(6)
H201 H 0.8985 0.5070 0.2463
C221 C 0.8574(3) 0.5319(9) 0.2863(4)
H202 H 0.8533 0.5836 0.2765
C222 C 0.8343(3) 0.5039(7) 0.3158(3)
H203 H 0.8143 0.5340 0.3176
Cl4 Cl 0.8798(5) 0.3394(12) 0.3678(8)
C223 C 0.3251(3) 0.3268(6) 0.0497(3)
C224 C 0.3576(3) 0.2955(8) 0.0568(4)
H204 H 0.3594 0.2677 0.0817
C225 C 0.3844(4) 0.2971(8) 0.0369(4)
H205 H 0.4043 0.2694 0.0440
C226 C 0.38108(18) 0.3418(4) 0.0054(2)
H206 H 0.4013 0.3520 -0.0089
C227 C 0.35288(18) 0.3773(4) -0.0110(3)
H207 H 0.3536 0.4031 -0.0365
C228 C 0.3225(3) 0.3734(5) 0.0125(5)
H208 H 0.3023 0.3990 0.0045
Cl6 Cl 0.3015(3) 0.2963(4) 0.0925(2)
H211? H 0.1373 1.1805 0.3030
H213? H 0.1408 1.2760 0.2000
H214? H 0.0502 1.2443 0.2186
H216? H 0.0070 1.1052 0.2782
H218? H 0.1068 0.8958 0.3352
H220? H 0.2075 0.9969 0.2108
H222? H 0.1179 1.1763 0.0947
H224? H -0.0148 1.0939 0.1571
H225? H -0.0035 0.8765 0.2493
H227? H 0.1366 0.7522 0.2505
H229? H 0.1868 0.9142 0.1005
H231? H 0.0568 1.0284 0.0385
H233? H -0.0244 0.8245 0.1416
H235? H 0.0261 0.6666 0.1904
H237? H 0.1167 0.5892 0.1804
H239? H 0.1021 0.7029 0.0905
loop_
_geom_bond_atom_site_label_1
_geom_bond_atom_site_label_2
_geom_bond_site_symmetry_1
_geom_bond_site_symmetry_2
C1 C15 1_555 1_555
C2 C3 1_555 1_555
C3 C13 1_555 1_555
C4 C34 1_555 1_555
C5 C6 1_555 1_555
C6 N6 1_555 1_555
C7 C11 1_555 1_555
C8 H1 1_555 1_555
H2 C8 1_555 1_555
C9 C19 1_555 1_555
C10 C2 1_555 1_555
C11 C54 1_555 1_555
C12 C30 1_555 1_555
C13 C26 1_555 1_555
C14 C24 1_555 1_555
C15 C107 1_555 1_555
C16 H3 1_555 1_555
H4 C16 1_555 1_555
C17 C7 1_555 1_555
C18 C30 1_555 1_555
C19 C46 1_555 1_555
C20 C49 1_555 1_555
C21 C28 1_555 1_555
C22 C33 1_555 1_555
C23 C17 1_555 1_555
C24 C44 1_555 1_555
C25 C75 1_555 1_555
C26 H5 1_555 1_555
C27 C61 1_555 1_555
C28 C108 1_555 1_555
C29 C32 1_555 1_555
C30 F1 1_555 1_555
C31 N32 1_555 1_555
C32 C82 1_555 1_555
C33 H6 1_555 1_555
C34 C33 1_555 1_555
C35 H7 1_555 1_555
C36 C9 1_555 1_555
C37 C56 1_555 1_555
C38 C75 1_555 1_555
C39 C84 1_555 1_555
C40 C12 1_555 1_555
C41 C86 1_555 1_555
C42 C113 1_555 1_555
C43 C40 1_555 1_555
C44 C79 1_555 1_555
C45 C5 1_555 1_555
H8 C45 1_555 1_555
C46 C59 1_555 1_555
C47 C57 1_555 1_555
C48 C134 1_555 1_555
C49 C35 1_555 1_555
H9 C49 1_555 1_555
C50 H10 1_555 1_555
C51 C90 1_555 1_555
C52 H11 1_555 1_555
C53 C76 1_555 1_555
C54 H12 1_555 1_555
C55 C62 1_555 1_555
C56 C60 1_555 1_555
C57 H13 1_555 1_555
C58 C68 1_555 1_555
C59 H14 1_555 1_555
C60 C98 1_555 1_555
C61 H15 1_555 1_555
C62 C123 1_555 1_555
C63 C21 1_555 1_555
C64 C140 1_555 1_555
C65 C40 1_555 1_555
H16 C65 1_555 1_555
C66 C61 1_555 1_555
C67 C52 1_555 1_555
H17 C67 1_555 1_555
C68 H18 1_555 1_555
C69 C27 1_555 1_555
C70 C10 1_555 1_555
C71 C23 1_555 1_555
H19 C71 1_555 1_555
C72 C88 1_555 1_555
C73 H20 1_555 1_555
C74 C83 1_555 1_555
C75 F8 1_555 1_555
C76 C35 1_555 1_555
H21 C76 1_555 1_555
C77 C47 1_555 1_555
C78 C11 1_555 1_555
C79 C93 1_555 1_555
C80 C25 1_555 1_555
H22 C80 1_555 1_555
C81 C101 1_555 1_555
C82 H23 1_555 1_555
C83 C110 1_555 1_555
C84 N12 1_555 1_555
C85 C37 1_555 1_555
C86 C103 1_555 1_555
C87 C122 1_555 1_555
C88 H24 1_555 1_555
C89 C39 1_555 1_555
H25 C89 1_555 1_555
C90 C68 1_555 1_555
H26 C90 1_555 1_555
C91 H27 1_555 1_555
H28 C91 1_555 1_555
C92 C14 1_555 1_555
H29 C92 1_555 1_555
C93 C92 1_555 1_555
H30 C93 1_555 1_555
C94 C51 1_555 1_555
C95 C38 1_555 1_555
C96 C127 1_555 1_555
C97 C78 1_555 1_555
H31 C97 1_555 1_555
C98 C50 1_555 1_555
C99 C109 1_555 1_555
C100 C36 1_555 1_555
H32 C100 1_555 1_555
C101 C97 1_555 1_555
C102 C16 1_555 1_555
H33 C102 1_555 1_555
H34 C102 1_555 1_555
C103 H35 1_555 1_555
C104 C18 1_555 1_555
H36 C104 1_555 1_555
C105 C10 1_555 1_555
H37 C105 1_555 1_555
C106 C58 1_555 1_555
C107 H38 1_555 1_555
C108 C66 1_555 1_555
C109 H39 1_555 1_555
C110 H40 1_555 1_555
C111 C8 1_555 1_555
H41 C111 1_555 1_555
H42 C111 1_555 1_555
C112 H43 1_555 1_555
C113 H44 1_555 1_555
C114 C79 1_555 1_555
C115 C88 1_555 1_555
H45 C115 1_555 1_555
C116 H46 1_555 1_555
H47 C116 1_555 1_555
C117 C133 1_555 1_555
C118 N33 1_555 1_555
C119 H48 1_555 1_555
H49 C119 1_555 1_555
C120 C119 1_555 1_555
H50 C120 1_555 1_555
C121 C16 1_555 1_555
H51 C121 1_555 1_555
H52 C121 1_555 1_555
C122 C112 1_555 1_555
C123 H53 1_555 1_555
C124 C169 1_555 1_555
C125 C126 1_555 1_555
C126 C132 1_555 1_555
C127 H54 1_555 1_555
C128 H55 1_555 1_555
H56 C128 1_555 1_555
C129 H57 1_555 1_555
H58 C129 1_555 1_555
C130 H59 1_555 1_555
C131 C57 1_555 1_555
H60 C131 1_555 1_555
C132 H61 1_555 1_555
C133 N1 1_555 1_555
C134 C143 1_555 1_555
C135 H62 1_555 1_555
H63 C135 1_555 1_555
C136 C98 1_555 1_555
C137 C117 1_555 1_555
H64 C137 1_555 1_555
H65 C137 1_555 1_555
H66 C137 1_555 1_555
C138 C85 1_555 1_555
C139 C51 1_555 1_555
C140 H67 1_555 1_555
C141 C168 1_555 1_555
C142 C113 1_555 1_555
H68 C142 1_555 1_555
C143 H69 1_555 1_555
C144 C80 1_555 1_555
H70 C144 1_555 1_555
C145 C140 1_555 1_555
H71 C145 1_555 1_555
C146 C95 1_555 1_555
C147 C203 1_555 1_555
C148 H72 1_555 1_555
H73 C148 1_555 1_555
C149 C120 1_555 1_555
H74 C149 1_555 1_555
H75 C149 1_555 1_555
H76 C149 1_555 1_555
C150 C91 1_555 1_555
H77 C150 1_555 1_555
C151 H78 1_555 1_555
C152 C128 1_555 1_555
H79 C152 1_555 1_555
H80 C152 1_555 1_555
C153 H81 1_555 1_555
H82 C153 1_555 1_555
C154 H83 1_555 1_555
H84 C154 1_555 1_555
C155 C120 1_555 1_555
H85 C155 1_555 1_555
H86 C155 1_555 1_555
H87 C155 1_555 1_555
C156 C135 1_555 1_555
H88 C156 1_555 1_555
C157 H89 1_555 1_555
H90 C157 1_555 1_555
H91 C157 1_555 1_555
C158 C73 1_555 1_555
H92 C158 1_555 1_555
C159 C130 1_555 1_555
C160 C153 1_555 1_555
H93 C160 1_555 1_555
H94 C160 1_555 1_555
C161 C129 1_555 1_555
H95 C161 1_555 1_555
C162 H96 1_555 1_555
H97 C162 1_555 1_555
C163 C116 1_555 1_555
H98 C163 1_555 1_555
C164 C132 1_555 1_555
H99 C164 1_555 1_555
C165 C156 1_555 1_555
H100 C165 1_555 1_555
H101 C165 1_555 1_555
H102 C165 1_555 1_555
C166 C162 1_555 1_555
H103 C166 1_555 1_555
C167 H104 1_555 1_555
C168 C175 1_555 1_555
C169 C145 1_555 1_555
H105 C169 1_555 1_555
C170 H106 1_555 1_555
H107 C170 1_555 1_555
C171 C117 1_555 1_555
H108 C171 1_555 1_555
H109 C171 1_555 1_555
H110 C171 1_555 1_555
C172 C161 1_555 1_555
H111 C172 1_555 1_555
H112 C172 1_555 1_555
H113 C172 1_555 1_555
C173 C73 1_555 1_555
H114 C173 1_555 1_555
C174 C130 1_555 1_555
H115 C174 1_555 1_555
C175 H116 1_555 1_555
H117 C175 1_555 1_555
H118 C175 1_555 1_555
C176 H119 1_555 1_555
H120 C176 1_555 1_555
H121 C176 1_555 1_555
C177 H122 1_555 1_555
H123 C177 1_555 1_555
C178 C176 1_555 1_555
H124 C178 1_555 1_555
C179 C163 1_555 1_555
H125 C179 1_555 1_555
H126 C179 1_555 1_555
H127 C179 1_555 1_555
C180 C117 1_555 1_555
H128 C180 1_555 1_555
H129 C180 1_555 1_555
H130 C180 1_555 1_555
C181 C167 1_555 1_555
C182 C166 1_555 1_555
H131 C182 1_555 1_555
H132 C182 1_555 1_555
H133 C182 1_555 1_555
C183 C207 1_555 1_555
C184 C170 1_555 1_555
H134 C184 1_555 1_555
C185 C166 1_555 1_555
H135 C185 1_555 1_555
H136 C185 1_555 1_555
H137 C185 1_555 1_555
C186 C156 1_555 1_555
H138 C186 1_555 1_555
H139 C186 1_555 1_555
H140 C186 1_555 1_555
C187 C152 1_555 1_555
H141 C187 1_555 1_555
H142 C187 1_555 1_555
C188 C150 1_555 1_555
H143 C188 1_555 1_555
H144 C188 1_555 1_555
H145 C188 1_555 1_555
C189 C154 1_555 1_555
H146 C189 1_555 1_555
H147 C189 1_555 1_555
H148 C189 1_555 1_555
C190 C161 1_555 1_555
H149 C190 1_555 1_555
H150 C190 1_555 1_555
H151 C190 1_555 1_555
C191 C167 1_555 1_555
H152 C191 1_555 1_555
C192 C168 1_555 1_555
H153 C192 1_555 1_555
H154 C192 1_555 1_555
H155 C192 1_555 1_555
C193 C151 1_555 1_555
H156 C193 1_555 1_555
C194 C191 1_555 1_555
H157 C194 1_555 1_555
C195 C181 1_555 1_555
H158 C195 1_555 1_555
C196 C194 1_555 1_555
H159 C196 1_555 1_555
C197 C184 1_555 1_555
H160 C197 1_555 1_555
H161 C197 1_555 1_555
H162 C197 1_555 1_555
C198 C184 1_555 1_555
H163 C198 1_555 1_555
H164 C198 1_555 1_555
H165 C198 1_555 1_555
C199 C178 1_555 1_555
H166 C199 1_555 1_555
H167 C199 1_555 1_555
H168 C199 1_555 1_555
C200 C148 1_555 1_555
H169 C200 1_555 1_555
C201 C200 1_555 1_555
H170 C201 1_555 1_555
H171 C201 1_555 1_555
H172 C201 1_555 1_555
C202 C200 1_555 1_555
H173 C202 1_555 1_555
H174 C202 1_555 1_555
H175 C202 1_555 1_555
C203 H176 1_555 1_555
C204 C203 1_555 1_555
H177 C204 1_555 1_555
H178 C204 1_555 1_555
H179 C204 1_555 1_555
C205 C203 1_555 1_555
H180 C205 1_555 1_555
H181 C205 1_555 1_555
H182 C205 1_555 1_555
C206 C150 1_555 1_555
H183 C206 1_555 1_555
H184 C206 1_555 1_555
H185 C206 1_555 1_555
C207 H186 1_555 1_555
C208 H187 1_555 1_555
C209 C208 1_555 1_555
H188 C209 1_555 1_555
C210 C183 1_555 1_555
H189 C210 1_555 1_555
C211 C151 1_555 1_555
H190 C211 1_555 1_555
C212 C211 1_555 1_555
H191 C212 1_555 1_555
C213 C212 1_555 1_555
C214 C193 1_555 1_555
H192 C214 1_555 1_555
C215 C187 1_555 1_555
H193 C215 1_555 1_555
H194 C215 1_555 1_555
H195 C215 1_555 1_555
C216 C168 1_555 1_555
H196 C216 1_555 1_555
H197 C216 1_555 1_555
H198 C216 1_555 1_555
C217 H199 1_555 1_555
C218 C217 1_555 1_555
C219 C218 1_555 1_555
H200 C219 1_555 1_555
C220 C219 1_555 1_555
H201 C220 1_555 1_555
C221 C220 1_555 1_555
H202 C221 1_555 1_555
C222 C217 1_555 1_555
H203 C222 1_555 1_555
C223 C224 1_555 1_555
C224 H204 1_555 1_555
C225 C224 1_555 1_555
H205 C225 1_555 1_555
C226 C225 1_555 1_555
H206 C226 1_555 1_555
C227 C226 1_555 1_555
H207 C227 1_555 1_555
C228 C223 1_555 1_555
H208 C228 1_555 1_555
C229 C207 1_555 1_555
H209 C229 1_555 1_555
N1 C99 1_555 1_555
H210 N1 1_555 1_555
N2 C72 1_555 1_555
N3 C72 1_555 1_555
H212 N3 1_555 1_555
N4 C32 1_555 1_555
N5 C20 1_555 1_555
N6 C20 1_555 1_555
H215 N6 1_555 1_555
N7 C5 1_555 1_555
N8 C18 1_555 1_555
H217 N8 1_555 1_555
N9 C27 1_555 1_555
N10 C63 1_555 1_555
H219 N10 1_555 1_555
N11 C7 1_555 1_555
N12 C23 1_555 1_555
H221 N12 1_555 1_555
N13 C2 1_555 1_555
N14 C1 1_555 1_555
H223 N14 1_555 1_555
N15 C15 1_555 1_555
N16 C37 1_555 1_555
N17 C41 1_555 1_555
H226 N17 1_555 1_555
N18 C9 1_555 1_555
N19 C4 1_555 1_555
H228 N19 1_555 1_555
N20 C44 1_555 1_555
N21 C25 1_555 1_555
H230 N21 1_555 1_555
N22 C38 1_555 1_555
N23 C55 1_555 1_555
H232 N23 1_555 1_555
N24 C94 1_555 1_555
N25 C87 1_555 1_555
H234 N25 1_555 1_555
N26 C42 1_555 1_555
N27 C42 1_555 1_555
H236 N27 1_555 1_555
N28 C126 1_555 1_555
N29 C124 1_555 1_555
H238 N29 1_555 1_555
N30 C64 1_555 1_555
N31 C64 1_555 1_555
H240 N31 1_555 1_555
N32 C102 1_555 1_555
H241 N32 1_555 1_555
N33 C8 1_555 1_555
H242 N33 1_555 1_555
N34 C29 1_555 1_555
H243 N34 1_555 1_555
O1 C133 1_555 1_555
O2 C77 1_555 1_555
O3 C29 1_555 1_555
O4 C6 1_555 1_555
O5 C43 1_555 1_555
O6 C69 1_555 1_555
O7 C66 1_555 1_555
O8 C81 1_555 1_555
O9 C78 1_555 1_555
O10 C84 1_555 1_555
O11 C70 1_555 1_555
O12 C1 1_555 1_555
O13 C136 1_555 1_555
O14 C138 1_555 1_555
O15 C41 1_555 1_555
O16 C22 1_555 1_555
O17 C4 1_555 1_555
O18 C114 1_555 1_555
O19 C74 1_555 1_555
O20 C146 1_555 1_555
O21 C55 1_555 1_555
O22 C139 1_555 1_555
O23 C87 1_555 1_555
O24 C48 1_555 1_555
O25 C125 1_555 1_555
O26 C141 1_555 1_555
O27 C31 1_555 1_555
O28 C118 1_555 1_555
O29 C31 1_555 1_555
O30 C118 1_555 1_555
F2 C21 1_555 1_555
F3 C17 1_555 1_555
F4 C3 1_555 1_555
F5 C56 1_555 1_555
F6 C19 1_555 1_555
F7 C24 1_555 1_555
F9 C106 1_555 1_555
Cl1 C181 1_555 1_555
Cl2 C213 1_555 1_555
Cl3 C183 1_555 1_555
Cl4 C218 1_555 1_555
Cl5 C159 1_555 1_555
Cl6 C223 1_555 1_555
C12 N7 1_555 1_555
C13 N14 1_555 1_555
C14 N19 1_555 1_555
C22 C36 1_555 1_555
C26 C105 1_555 1_555
C28 N9 1_555 1_555
C34 N18 1_555 1_555
C39 N13 1_555 1_555
C43 C45 1_555 1_555
C46 N17 1_555 1_555
C47 N4 1_555 1_555
C48 N27 1_555 1_555
C50 C85 1_555 1_555
C52 C63 1_555 1_555
C53 N5 1_555 1_555
C53 N34 1_555 1_555
C54 C71 1_555 1_555
C58 N23 1_555 1_555
C59 C100 1_555 1_555
C60 N15 1_555 1_555
C62 N22 1_555 1_555
C65 C104 1_555 1_555
C67 C108 1_555 1_555
C69 N8 1_555 1_555
C70 C89 1_555 1_555
C74 N21 1_555 1_555
C77 N3 1_555 1_555
C81 N10 1_555 1_555
C82 C131 1_555 1_555
C83 N20 1_555 1_555
C86 N16 1_555 1_555
C91 O16 1_555 1_555
C94 C106 1_555 1_555
C95 C144 1_555 1_555
C96 N25 1_555 1_555
C96 N26 1_555 1_555
C99 N2 1_555 1_555
C101 N11 1_555 1_555
C103 C138 1_555 1_555
C107 C136 1_555 1_555
C109 C115 1_555 1_555
C110 C114 1_555 1_555
C111 C121 1_555 1_555
C112 C139 1_555 1_555
C116 O5 1_555 1_555
C119 O7 1_555 1_555
C122 N24 1_555 1_555
C123 C146 1_555 1_555
C124 N30 1_555 1_555
C125 N29 1_555 1_555
C127 C142 1_555 1_555
C128 O30 1_555 1_555
C129 O18 1_555 1_555
C134 N28 1_555 1_555
C135 O9 1_555 1_555
C141 N31 1_555 1_555
C143 C164 1_555 1_555
C147 O20 1_555 1_555
C148 O11 1_555 1_555
C153 O29 1_555 1_555
C154 C160 1_555 1_555
C157 C163 1_555 1_555
C158 C159 1_555 1_555
C162 O13 1_555 1_555
C170 O14 1_555 1_555
C173 C174 1_555 1_555
C177 C178 1_555 1_555
C177 O22 1_555 1_555
C195 C196 1_555 1_555
C208 C229 1_555 1_555
C209 C210 1_555 1_555
C213 C214 1_555 1_555
C221 C222 1_555 1_555
C227 C228 1_555 1_555

#END
