
#######################################################################
#
#                 Cambridge Crystallographic Data Centre
#                                CCDC 
#
#######################################################################
#
# If this CIF has been generated from an entry in the Cambridge 
# Structural Database, then it will include bibliographic, chemical, 
# crystal, experimental, refinement or atomic coordinate data resulting 
# from the CCDC's data processing and validation procedures.
#
#######################################################################

data_APUROU
_chemical_formula_moiety         'C7 H6 F4 N2 O2'
_chemical_name_systematic        
'methyl 3-(1,2,2,2-tetrafluoroethyl)-1H-pyrazole-5-carboxylate'
_symmetry_cell_setting           monoclinic
_symmetry_space_group_name_H-M   'P 21'
_symmetry_Int_Tables_number      4
_space_group_name_Hall           'P 2yb'
loop_
_symmetry_equiv_pos_site_id
_symmetry_equiv_pos_as_xyz
1 x,y,z
2 -x,1/2+y,-z
_cell_length_a                   5.5997(9)
_cell_length_b                   6.6364(16)
_cell_length_c                   12.4079(17)
_cell_angle_alpha                90
_cell_angle_beta                 90.440(14)
_cell_angle_gamma                90
_cell_volume                     461.087
_exptl_crystal_colour            colorless
_exptl_crystal_description       stick
_cell_formula_units_Z            2
loop_
_atom_site_label
_atom_site_type_symbol
_atom_site_fract_x
_atom_site_fract_y
_atom_site_fract_z
F1 F 0.3100(9) -0.1600(5) 0.1109(4)
F2 F 0.2701(10) 0.3668(4) 0.1061(4)
F3 F 0.2309(7) 0.1245(13) -0.0278(2)
F4 F -0.0119(5) 0.1251(13) 0.1033(3)
O1 O -0.0639(6) 0.1033(10) 0.5457(3)
O2 O 0.3106(6) 0.1018(8) 0.6142(3)
N1 N 0.5060(6) 0.1118(4) 0.4155(3)
H1 H 0.6058 0.1289 0.4678
N2 N 0.5694(7) 0.0851(3) 0.3146(3)
C1 C 0.3608(10) 0.0663(4) 0.2595(4)
C2 C 0.1654(10) 0.0825(8) 0.3266(4)
H2 H 0.0042 0.0766 0.3082
C3 C 0.2676(8) 0.1094(7) 0.4276(4)
C4 C 0.1460(9) 0.1058(11) 0.5325(4)
C5 C 0.2106(12) 0.1035(18) 0.7236(4)
H3 H 0.3384 0.1004 0.7756
H4 H 0.1179 0.2237 0.7334
H5 H 0.1105 -0.0125 0.7331
C6 C 0.3825(7) 0.0304(4) 0.1410(3)
H6 H 0.5482 0.0519 0.1190
C7 C 0.2150(7) 0.1767(5) 0.0776(3)
loop_
_geom_bond_atom_site_label_1
_geom_bond_atom_site_label_2
_geom_bond_site_symmetry_1
_geom_bond_site_symmetry_2
F1 C6 1_555 1_555
F2 C7 1_555 1_555
F3 C7 1_555 1_555
F4 C7 1_555 1_555
O1 C4 1_555 1_555
O2 C4 1_555 1_555
N1 H1 1_555 1_555
N2 N1 1_555 1_555
C1 N2 1_555 1_555
C2 C1 1_555 1_555
H2 C2 1_555 1_555
C3 N1 1_555 1_555
C4 C3 1_555 1_555
C5 O2 1_555 1_555
H3 C5 1_555 1_555
H4 C5 1_555 1_555
H5 C5 1_555 1_555
C6 C1 1_555 1_555
H6 C6 1_555 1_555
C7 C6 1_555 1_555
C2 C3 1_555 1_555

#END
