
#######################################################################
#
#                 Cambridge Crystallographic Data Centre
#                                CCDC 
#
#######################################################################
#
# If this CIF has been generated from an entry in the Cambridge 
# Structural Database, then it will include bibliographic, chemical, 
# crystal, experimental, refinement or atomic coordinate data resulting 
# from the CCDC's data processing and validation procedures.
#
#######################################################################

data_APURIO
_chemical_formula_moiety         'C6 H2 F5 N3'
_chemical_name_systematic        
3-(pentafluoroethyl)-1H-pyrazole-4-carbonitrile
_symmetry_cell_setting           monoclinic
_symmetry_space_group_name_H-M   'C c'
_symmetry_Int_Tables_number      9
_space_group_name_Hall           'C -2yc'
loop_
_symmetry_equiv_pos_site_id
_symmetry_equiv_pos_as_xyz
1 x,y,z
2 x,-y,1/2+z
3 1/2+x,1/2+y,z
4 1/2+x,1/2-y,1/2+z
_cell_length_a                   22.198(4)
_cell_length_b                   12.8108(14)
_cell_length_c                   19.782(2)
_cell_angle_alpha                90
_cell_angle_beta                 118.557(15)
_cell_angle_gamma                90
_cell_volume                     4941.1
_cell_formula_units_Z            24
loop_
_atom_site_label
_atom_site_type_symbol
_atom_site_fract_x
_atom_site_fract_y
_atom_site_fract_z
F1 F 0.6109(2) 0.2528(3) 0.3296(3)
F2 F 0.6748(2) 0.3866(4) 0.3364(2)
F3 F 0.6469(3) 0.2738(4) 0.4791(3)
F4 F 0.7329(3) 0.2555(5) 0.4582(3)
F5 F 0.7093(2) 0.4079(5) 0.4879(2)
N1 N 0.4824(2) 0.4636(4) 0.3424(3)
H1 H 0.4422 0.4609 0.3389
N2 N 0.5211(3) 0.3776(4) 0.3491(3)
N3 N 0.6617(4) 0.6545(6) 0.3405(4)
C1 C 0.5793(3) 0.4168(5) 0.3525(3)
C2 C 0.5759(3) 0.5273(5) 0.3475(3)
C3 C 0.5135(3) 0.5520(5) 0.3420(3)
H2 H 0.4961 0.6189 0.3385
C4 C 0.6244(3) 0.5982(5) 0.3452(3)
C5 C 0.6350(3) 0.3428(5) 0.3637(3)
C6 C 0.6839(4) 0.3209(6) 0.4511(4)
F6 F 0.3554(2) 0.6241(3) 0.3155(2)
F7 F 0.2632(2) 0.6460(3) 0.3286(2)
F8 F 0.4309(2) 0.5887(4) 0.4674(3)
F9 F 0.3772(3) 0.7349(4) 0.4433(3)
F10 F 0.3427(3) 0.6047(4) 0.4845(2)
N4 N 0.3351(2) 0.3205(4) 0.3496(3)
H3 H 0.3565 0.2644 0.3498
N5 N 0.3595(3) 0.4176(4) 0.3506(3)
N6 N 0.1455(4) 0.4875(7) 0.3460(4)
C7 C 0.3113(3) 0.4808(4) 0.3510(3)
C8 C 0.2568(3) 0.4225(5) 0.3503(3)
C9 C 0.2747(3) 0.3211(5) 0.3483(3)
H4 H 0.2492 0.2626 0.3464
C10 C 0.1960(4) 0.4589(6) 0.3494(4)
C11 C 0.3244(4) 0.5949(5) 0.3574(4)
C12 C 0.3693(4) 0.6317(5) 0.4403(4)
F11 F 0.2999(2) 0.0711(4) 0.3258(2)
F12 F 0.3389(2) -0.0869(3) 0.3348(2)
F13 F 0.3860(3) 0.1066(4) 0.4757(3)
F14 F 0.3228(3) -0.0301(4) 0.4563(3)
F15 F 0.4287(2) -0.0492(4) 0.4887(2)
N7 N 0.4770(3) 0.1648(5) 0.3384(3)
H5 H 0.4936 0.2238 0.3345
N8 N 0.4197(3) 0.1553(4) 0.3470(3)
N9 N 0.4833(3) -0.2027(5) 0.3470(4)
C13 C 0.4131(3) 0.0517(5) 0.3509(3)
C14 C 0.4661(3) -0.0036(5) 0.3462(3)
C15 C 0.5046(4) 0.0727(5) 0.3368(4)
H6 H 0.5431 0.0623 0.3304
C16 C 0.4768(4) -0.1128(6) 0.3481(4)
C17 C 0.3561(3) 0.0108(5) 0.3639(4)
C18 C 0.3736(4) 0.0075(6) 0.4484(4)
F16 F 0.3899(2) 0.3773(3) 0.6827(2)
F17 F 0.32390(19) 0.2441(4) 0.6705(2)
F18 F 0.3533(2) 0.3693(4) 0.5328(2)
F19 F 0.2664(2) 0.3814(4) 0.5529(3)
F20 F 0.2889(2) 0.2351(4) 0.5162(2)
N10 N 0.5148(3) 0.1681(4) 0.6640(3)
H7 H 0.5554 0.1722 0.6687
N11 N 0.4754(2) 0.2536(4) 0.6567(3)
N12 N 0.3323(4) -0.0227(6) 0.6555(4)
C19 C 0.4193(3) 0.2138(5) 0.6530(3)
C20 C 0.4213(3) 0.1043(5) 0.6567(3)
C21 C 0.4853(3) 0.0798(5) 0.6630(4)
H8 H 0.5032 0.0133 0.6659
C22 C 0.3709(4) 0.0337(5) 0.6553(4)
C23 C 0.3636(3) 0.2890(6) 0.6441(4)
C24 C 0.3165(3) 0.3209(6) 0.5600(4)
F21 F 0.6320(2) 0.0066(3) 0.6730(2)
F22 F 0.7252(2) -0.0174(3) 0.6668(2)
F23 F 0.5657(3) 0.0617(4) 0.5237(3)
F24 F 0.6135(3) -0.0909(4) 0.5428(3)
F25 F 0.6573(3) 0.0399(4) 0.5147(2)
N13 N 0.6666(3) 0.3119(4) 0.6640(3)
H9 H 0.6475 0.3680 0.6682
N14 N 0.6389(3) 0.2174(4) 0.6558(3)
N15 N 0.8531(4) 0.1378(7) 0.6655(4)
C25 C 0.6846(3) 0.1521(5) 0.6518(3)
C26 C 0.7416(3) 0.2064(5) 0.6582(3)
C27 C 0.7261(3) 0.3105(5) 0.6650(3)
H10 H 0.7532 0.3683 0.6695
C28 C 0.8028(3) 0.1670(6) 0.6620(4)
C29 C 0.6683(4) 0.0372(5) 0.6392(4)
C30 C 0.6263(4) 0.0124(6) 0.5528(4)
F26 F 0.69794(19) 0.5669(4) 0.6845(2)
F27 F 0.6564(2) 0.7227(3) 0.6741(2)
F28 F 0.6191(3) 0.5344(4) 0.5328(3)
F29 F 0.6815(2) 0.6734(5) 0.5584(3)
F30 F 0.5741(3) 0.6846(4) 0.5196(3)
N16 N 0.5149(3) 0.4656(4) 0.6550(3)
H11 H 0.4977 0.4055 0.6553
N17 N 0.5752(3) 0.4790(4) 0.6533(3)
N18 N 0.5064(4) 0.8333(5) 0.6574(4)
C31 C 0.5824(3) 0.5820(5) 0.6523(3)
C32 C 0.5273(3) 0.6339(5) 0.6529(3)
C33 C 0.4856(3) 0.5566(5) 0.6563(4)
H12 H 0.4452 0.5657 0.6588
C34 C 0.5162(4) 0.7437(5) 0.6539(4)
C35 C 0.6415(3) 0.6247(5) 0.6450(4)
C36 C 0.6298(4) 0.6285(6) 0.5637(4)
loop_
_geom_bond_atom_site_label_1
_geom_bond_atom_site_label_2
_geom_bond_site_symmetry_1
_geom_bond_site_symmetry_2
F1 C5 1_555 1_555
F2 C5 1_555 1_555
F3 C6 1_555 1_555
F4 C6 1_555 1_555
F5 C6 1_555 1_555
N1 H1 1_555 1_555
N2 N1 1_555 1_555
N3 C4 1_555 1_555
C1 N2 1_555 1_555
C2 C1 1_555 1_555
C3 N1 1_555 1_555
H2 C3 1_555 1_555
C4 C2 1_555 1_555
C5 C1 1_555 1_555
C6 C5 1_555 1_555
F6 C11 1_555 1_555
F7 C11 1_555 1_555
F8 C12 1_555 1_555
F9 C12 1_555 1_555
F10 C12 1_555 1_555
N4 H3 1_555 1_555
N5 N4 1_555 1_555
N6 C10 1_555 1_555
C7 N5 1_555 1_555
C8 C7 1_555 1_555
C9 N4 1_555 1_555
H4 C9 1_555 1_555
C10 C8 1_555 1_555
C11 C7 1_555 1_555
C12 C11 1_555 1_555
F11 C17 1_555 1_555
F12 C17 1_555 1_555
F13 C18 1_555 1_555
F14 C18 1_555 1_555
F15 C18 1_555 1_555
N7 H5 1_555 1_555
N8 N7 1_555 1_555
N9 C16 1_555 1_555
C13 N8 1_555 1_555
C14 C13 1_555 1_555
C15 N7 1_555 1_555
H6 C15 1_555 1_555
C16 C14 1_555 1_555
C17 C13 1_555 1_555
C18 C17 1_555 1_555
F16 C23 1_555 1_555
F17 C23 1_555 1_555
F18 C24 1_555 1_555
F19 C24 1_555 1_555
F20 C24 1_555 1_555
N10 H7 1_555 1_555
N11 N10 1_555 1_555
N12 C22 1_555 1_555
C19 N11 1_555 1_555
C20 C19 1_555 1_555
C21 N10 1_555 1_555
H8 C21 1_555 1_555
C22 C20 1_555 1_555
C23 C19 1_555 1_555
C24 C23 1_555 1_555
F21 C29 1_555 1_555
F22 C29 1_555 1_555
F23 C30 1_555 1_555
F24 C30 1_555 1_555
F25 C30 1_555 1_555
N13 H9 1_555 1_555
N14 N13 1_555 1_555
N15 C28 1_555 1_555
C25 N14 1_555 1_555
C26 C25 1_555 1_555
C27 N13 1_555 1_555
H10 C27 1_555 1_555
C28 C26 1_555 1_555
C29 C25 1_555 1_555
C30 C29 1_555 1_555
F26 C35 1_555 1_555
F27 C35 1_555 1_555
F28 C36 1_555 1_555
F29 C36 1_555 1_555
F30 C36 1_555 1_555
N16 H11 1_555 1_555
N17 N16 1_555 1_555
N18 C34 1_555 1_555
C31 N17 1_555 1_555
C32 C31 1_555 1_555
C33 N16 1_555 1_555
H12 C33 1_555 1_555
C34 C32 1_555 1_555
C35 C31 1_555 1_555
C36 C35 1_555 1_555
C2 C3 1_555 1_555
C8 C9 1_555 1_555
C14 C15 1_555 1_555
C20 C21 1_555 1_555
C26 C27 1_555 1_555
C32 C33 1_555 1_555

#END
