
#######################################################################
#
#                 Cambridge Crystallographic Data Centre
#                                CCDC 
#
#######################################################################
#
# If this CIF has been generated from an entry in the Cambridge 
# Structural Database, then it will include bibliographic, chemical, 
# crystal, experimental, refinement or atomic coordinate data resulting 
# from the CCDC's data processing and validation procedures.
#
#######################################################################

data_APUTEK
_chemical_formula_moiety         'C28 H32 N4 P4'
_chemical_name_systematic        
2,cis-4,cis-6,trans-8-Tetramethyl-2,4,6,8-tetraphenylcyclotetraphosphazene
_symmetry_cell_setting           monoclinic
_symmetry_space_group_name_H-M   'P 21/c'
_symmetry_Int_Tables_number      14
_space_group_name_Hall           '-P 2ybc'
loop_
_symmetry_equiv_pos_site_id
_symmetry_equiv_pos_as_xyz
1 x,y,z
2 x,1/2-y,1/2+z
3 -x,-y,-z
4 -x,1/2+y,1/2-z
_cell_length_a                   13.3078(6)
_cell_length_b                   15.5628(7)
_cell_length_c                   14.3446(7)
_cell_angle_alpha                90
_cell_angle_beta                 105.967(4)
_cell_angle_gamma                90
_cell_volume                     2856.25
_exptl_crystal_colour            colorless
_exptl_crystal_description       rods
_chemical_melting_point          '152 deg.C'
_cell_formula_units_Z            4
_exptl_crystal_recrystallization_method 'ethyl acetate'
loop_
_atom_site_label
_atom_site_type_symbol
_atom_site_fract_x
_atom_site_fract_y
_atom_site_fract_z
P1 P 0.98039(5) 0.17339(4) 0.18415(4)
P2 P 0.90853(5) -0.00144(4) 0.13713(4)
P3 P 0.80462(5) 0.02078(4) 0.28775(4)
P4 P 0.78787(5) 0.20073(4) 0.23847(5)
N1 N 0.94032(15) 0.09370(13) 0.11423(14)
N2 N 0.88749(15) -0.02095(13) 0.23953(14)
N3 N 0.74391(16) 0.10613(13) 0.24387(16)
N4 N 0.90811(16) 0.21408(14) 0.24485(17)
C1 C 1.0119(2) 0.25564(19) 0.1087(2)
H1 H 1.0351 0.3063 0.1468
H2 H 0.9510 0.2690 0.0569
H3 H 1.0665 0.2355 0.0822
C2 C 1.0088(2) -0.07568(18) 0.1289(2)
H4 H 0.9871 -0.1331 0.1382
H5 H 1.0721 -0.0625 0.1779
H6 H 1.0207 -0.0711 0.0660
C3 C 0.8726(2) 0.0328(2) 0.41475(18)
H7 H 0.8248 0.0532 0.4491
H8 H 0.9286 0.0733 0.4218
H9 H 0.9005 -0.0218 0.4407
C4 C 0.7648(2) 0.26627(19) 0.3342(2)
H10 H 0.6924 0.2629 0.3328
H11 H 0.7827 0.3248 0.3251
H12 H 0.8071 0.2459 0.3957
C5 C 1.10332(17) 0.14834(15) 0.27312(17)
C6 C 1.1830(2) 0.10705(19) 0.2451(2)
H13 H 1.1741 0.0935 0.1802
C7 C 1.2754(2) 0.0860(2) 0.3132(3)
H14 H 1.3276 0.0574 0.2938
C8 C 1.2907(2) 0.1069(2) 0.4093(2)
H15 H 1.3534 0.0934 0.4544
C9 C 1.2132(2) 0.1478(2) 0.4382(2)
H16 H 1.2231 0.1616 0.5032
C10 C 1.1197(2) 0.16864(17) 0.37040(19)
H17 H 1.0675 0.1966 0.3905
C11 C 0.79488(19) -0.02882(15) 0.03889(17)
C12 C 0.7397(2) 0.03317(18) -0.02342(19)
H18 H 0.7650 0.0892 -0.0190
C13 C 0.6474(2) 0.0132(2) -0.0923(2)
H19 H 0.6109 0.0557 -0.1335
C14 C 0.6097(3) -0.0691(3) -0.0999(2)
H20 H 0.5473 -0.0824 -0.1458
C15 C 0.6639(3) -0.1322(2) -0.0396(2)
H21 H 0.6389 -0.1883 -0.0454
C16 C 0.7555(2) -0.11212(18) 0.0297(2)
H22 H 0.7915 -0.1549 0.0708
C17 C 0.70222(18) -0.05671(15) 0.28729(16)
C18 C 0.6126(2) -0.03023(19) 0.31146(19)
H23 H 0.6032 0.0276 0.3232
C19 C 0.5375(2) -0.0895(2) 0.3181(2)
H24 H 0.4783 -0.0715 0.3352
C20 C 0.5499(2) -0.1751(2) 0.2997(2)
H25 H 0.4994 -0.2149 0.3046
C21 C 0.6370(2) -0.20140(19) 0.2742(2)
H26 H 0.6448 -0.2590 0.2607
C22 C 0.7135(2) -0.14269(17) 0.2685(2)
H27 H 0.7727 -0.1613 0.2519
C23 C 0.70367(17) 0.24780(16) 0.12903(17)
C24 C 0.7166(2) 0.33303(18) 0.1049(2)
H28 H 0.7696 0.3658 0.1450
C25 C 0.6517(3) 0.3695(2) 0.0220(2)
H29 H 0.6613 0.4265 0.0068
C26 C 0.5732(3) 0.3217(2) -0.0377(2)
H30 H 0.5295 0.3464 -0.0931
C27 C 0.5593(2) 0.2376(2) -0.0157(2)
H31 H 0.5063 0.2054 -0.0565
C28 C 0.62368(19) 0.20027(19) 0.0672(2)
H32 H 0.6135 0.1432 0.0816
loop_
_geom_bond_atom_site_label_1
_geom_bond_atom_site_label_2
_geom_bond_site_symmetry_1
_geom_bond_site_symmetry_2
P1 N1 1_555 1_555
P2 N1 1_555 1_555
P3 N2 1_555 1_555
P4 N3 1_555 1_555
N2 P2 1_555 1_555
N3 P3 1_555 1_555
N4 P1 1_555 1_555
C1 P1 1_555 1_555
H1 C1 1_555 1_555
H2 C1 1_555 1_555
H3 C1 1_555 1_555
C2 P2 1_555 1_555
H4 C2 1_555 1_555
H5 C2 1_555 1_555
H6 C2 1_555 1_555
C3 P3 1_555 1_555
H7 C3 1_555 1_555
H8 C3 1_555 1_555
H9 C3 1_555 1_555
C4 P4 1_555 1_555
H10 C4 1_555 1_555
H11 C4 1_555 1_555
H12 C4 1_555 1_555
C5 P1 1_555 1_555
C6 C5 1_555 1_555
H13 C6 1_555 1_555
C7 C6 1_555 1_555
H14 C7 1_555 1_555
C8 C7 1_555 1_555
H15 C8 1_555 1_555
C9 C8 1_555 1_555
H16 C9 1_555 1_555
C10 C5 1_555 1_555
H17 C10 1_555 1_555
C11 P2 1_555 1_555
C12 C11 1_555 1_555
H18 C12 1_555 1_555
C13 C12 1_555 1_555
H19 C13 1_555 1_555
C14 C13 1_555 1_555
H20 C14 1_555 1_555
C15 C14 1_555 1_555
H21 C15 1_555 1_555
C16 C11 1_555 1_555
H22 C16 1_555 1_555
C17 P3 1_555 1_555
C18 C17 1_555 1_555
H23 C18 1_555 1_555
C19 C18 1_555 1_555
H24 C19 1_555 1_555
C20 C19 1_555 1_555
H25 C20 1_555 1_555
C21 C20 1_555 1_555
H26 C21 1_555 1_555
C22 C17 1_555 1_555
H27 C22 1_555 1_555
C23 P4 1_555 1_555
C24 C23 1_555 1_555
H28 C24 1_555 1_555
C25 C24 1_555 1_555
H29 C25 1_555 1_555
C26 C25 1_555 1_555
H30 C26 1_555 1_555
C27 C26 1_555 1_555
H31 C27 1_555 1_555
C28 C23 1_555 1_555
H32 C28 1_555 1_555
P4 N4 1_555 1_555
C9 C10 1_555 1_555
C15 C16 1_555 1_555
C21 C22 1_555 1_555
C27 C28 1_555 1_555

#END
