
#######################################################################
#
#                 Cambridge Crystallographic Data Centre
#                                CCDC 
#
#######################################################################
#
# If this CIF has been generated from an entry in the Cambridge 
# Structural Database, then it will include bibliographic, chemical, 
# crystal, experimental, refinement or atomic coordinate data resulting 
# from the CCDC's data processing and validation procedures.
#
#######################################################################

data_APUTIP
_chemical_name_common            'Cholic acid allyl acetate clathrate'
_chemical_formula_moiety         'C24 H40 O5,C5 H8 O2'
_chemical_name_systematic        
'3,7,12-Trihydroxycholan-24-oic acid allyl acetate clathrate'
_symmetry_cell_setting           monoclinic
_symmetry_space_group_name_H-M   'P 21'
_symmetry_Int_Tables_number      4
_space_group_name_Hall           'P 2yb'
loop_
_symmetry_equiv_pos_site_id
_symmetry_equiv_pos_as_xyz
1 x,y,z
2 -x,1/2+y,-z
_cell_length_a                   12.0608(4)
_cell_length_b                   7.6741(3)
_cell_length_c                   15.1088(5)
_cell_angle_alpha                90
_cell_angle_beta                 104.4474(14)
_cell_angle_gamma                90
_cell_volume                     1354.19
_exptl_crystal_colour            colorless
_cell_formula_units_Z            2
loop_
_atom_site_label
_atom_site_type_symbol
_atom_site_fract_x
_atom_site_fract_y
_atom_site_fract_z
O1 O 0.46608(6) 0.68362(9) -0.20737(4)
O2 O 0.51688(5) 0.43615(8) -0.12890(4)
H1 H 0.4737(15) 0.392(3) -0.1760(11)
O3 O 0.61174(4) 0.76521(6) 0.26889(3)
H2 H 0.5888(13) 0.798(2) 0.3072(10)
O4 O 0.66565(4) 0.20119(6) 0.38663(3)
H3 H 0.6466(12) 0.208(2) 0.3357(10)
O5 O 0.47616(4) 0.42710(6) 0.60413(4)
H4 H 0.4375(13) 0.514(2) 0.6024(10)
C1 C 0.51375(5) 0.60855(9) -0.13737(4)
C2 C 0.57413(6) 0.70101(9) -0.05087(4)
H5 H 0.5449(12) 0.660(2) -0.0034(10)
H6 H 0.5578(13) 0.823(2) -0.0597(10)
C3 C 0.70406(5) 0.67008(8) -0.02732(4)
H7 H 0.7344(11) 0.733(2) -0.0725(9)
H8 H 0.7186(12) 0.547(2) -0.0359(9)
C4 C 0.76760(5) 0.72385(7) 0.07084(4)
H9 H 0.8465(11) 0.7016(19) 0.0759(9)
C5 C 0.73094(5) 0.60670(7) 0.14146(3)
H10 H 0.6528(11) 0.6138(19) 0.1347(9)
C6 C 0.78659(4) 0.63451(6) 0.24562(3)
C7 C 0.73498(5) 0.77682(7) 0.29553(4)
H11 H 0.7577(11) 0.8916(19) 0.2785(9)
C8 C 0.77839(5) 0.75674(7) 0.40013(3)
H12 H 0.8592(11) 0.7854(19) 0.4163(9)
H13 H 0.7436(12) 0.8459(19) 0.4281(9)
C9 C 0.75580(4) 0.57607(6) 0.43690(3)
H14 H 0.6685(11) 0.5611(18) 0.4196(9)
C10 C 0.80622(4) 0.43358(7) 0.38618(3)
H15 H 0.8911(11) 0.4439(19) 0.4016(9)
C11 C 0.78422(5) 0.24857(6) 0.41645(4)
H16 H 0.8286(11) 0.1715(19) 0.3884(9)
C12 C 0.82290(5) 0.23098(7) 0.52016(4)
H17 H 0.9066(11) 0.234(2) 0.5378(9)
H18 H 0.8034(12) 0.114(2) 0.5386(9)
C13 C 0.77491(5) 0.37136(7) 0.57290(4)
H19 H 0.8165(11) 0.3617(19) 0.6381(9)
C14 C 0.64767(5) 0.33803(7) 0.56651(4)
H20 H 0.6061(12) 0.3404(19) 0.5049(9)
H21 H 0.6379(11) 0.218(2) 0.5881(9)
C15 C 0.59562(5) 0.47029(7) 0.61872(4)
H22 H 0.6283(12) 0.4662(19) 0.6819(9)
C16 C 0.61171(5) 0.65285(7) 0.58458(4)
H23 H 0.5803(11) 0.736(2) 0.6184(9)
H24 H 0.5696(12) 0.669(2) 0.5244(9)
C17 C 0.73888(5) 0.68890(7) 0.59413(4)
H25 H 0.7737(12) 0.682(2) 0.6584(9)
H26 H 0.7503(12) 0.8070(19) 0.5730(9)
C18 C 0.79886(4) 0.55904(7) 0.54288(3)
C19 C 0.92816(5) 0.59641(9) 0.57499(4)
H27 H 0.9449(13) 0.719(2) 0.5679(10)
H28 H 0.9772(13) 0.538(2) 0.5418(10)
H29 H 0.9580(13) 0.574(2) 0.6387(10)
C20 C 0.75863(4) 0.45694(6) 0.28343(3)
H30 H 0.6732(11) 0.4567(19) 0.2705(9)
C21 C 0.79322(6) 0.32360(7) 0.22040(4)
H31 H 0.7526(12) 0.214(2) 0.2209(9)
H32 H 0.8721(12) 0.300(2) 0.2391(10)
C22 C 0.75692(6) 0.41119(7) 0.12550(4)
H33 H 0.6904(12) 0.352(2) 0.0871(10)
H34 H 0.8165(12) 0.407(2) 0.0946(9)
C23 C 0.91629(5) 0.66498(8) 0.26117(4)
H35 H 0.9330(13) 0.781(2) 0.2453(10)
H36 H 0.9522(13) 0.589(2) 0.2246(10)
H37 H 0.9555(13) 0.645(2) 0.3221(10)
C24 C 0.75377(6) 0.91945(8) 0.08445(4)
H38 H 0.7756(13) 0.984(2) 0.0381(11)
H39 H 0.8024(13) 0.960(2) 0.1425(11)
H40 H 0.6786(13) 0.948(2) 0.0850(11)
O6 O 0.14194(6) 0.87029(8) 0.16136(4)
O7 O 0.03855(6) 0.93915(10) 0.02023(4)
C25 C 0.07361(6) 0.97550(10) 0.09996(5)
C26 C 0.04857(8) 1.14154(11) 0.14333(6)
H41 H 0.0037(15) 1.208(3) 0.0978(12)
H42 H 0.1239(15) 1.203(3) 0.1745(12)
H43 H 0.0142(15) 1.120(3) 0.1888(12)
C27 C 0.17386(8) 0.70770(11) 0.12485(6)
H44 H 0.2249(14) 0.738(3) 0.0879(11)
H45 H 0.1039(15) 0.648(3) 0.0924(11)
C28 C 0.24026(10) 0.60272(12) 0.20310(7)
H46 H 0.2050(15) 0.576(3) 0.2518(12)
C29 C 0.34732(12) 0.55216(16) 0.21061(10)
H47 H 0.3835(18) 0.587(3) 0.1660(15)
H48 H 0.3925(19) 0.478(3) 0.2683(14)
loop_
_geom_bond_atom_site_label_1
_geom_bond_atom_site_label_2
_geom_bond_site_symmetry_1
_geom_bond_site_symmetry_2
O1 C1 1_555 1_555
O2 H1 1_555 1_555
O3 H2 1_555 1_555
O4 H3 1_555 1_555
O5 H4 1_555 1_555
C1 O2 1_555 1_555
C2 C1 1_555 1_555
H5 C2 1_555 1_555
H6 C2 1_555 1_555
C3 C2 1_555 1_555
H7 C3 1_555 1_555
H8 C3 1_555 1_555
C4 C3 1_555 1_555
H9 C4 1_555 1_555
C5 C4 1_555 1_555
H10 C5 1_555 1_555
C6 C5 1_555 1_555
C7 O3 1_555 1_555
H11 C7 1_555 1_555
C8 C7 1_555 1_555
H12 C8 1_555 1_555
H13 C8 1_555 1_555
C9 C8 1_555 1_555
H14 C9 1_555 1_555
C10 C9 1_555 1_555
H15 C10 1_555 1_555
C11 O4 1_555 1_555
H16 C11 1_555 1_555
C12 C11 1_555 1_555
H17 C12 1_555 1_555
H18 C12 1_555 1_555
C13 C12 1_555 1_555
H19 C13 1_555 1_555
C14 C13 1_555 1_555
H20 C14 1_555 1_555
H21 C14 1_555 1_555
C15 O5 1_555 1_555
H22 C15 1_555 1_555
C16 C15 1_555 1_555
H23 C16 1_555 1_555
H24 C16 1_555 1_555
C17 C16 1_555 1_555
H25 C17 1_555 1_555
H26 C17 1_555 1_555
C18 C9 1_555 1_555
C19 C18 1_555 1_555
H27 C19 1_555 1_555
H28 C19 1_555 1_555
H29 C19 1_555 1_555
C20 C6 1_555 1_555
H30 C20 1_555 1_555
C21 C20 1_555 1_555
H31 C21 1_555 1_555
H32 C21 1_555 1_555
C22 C5 1_555 1_555
H33 C22 1_555 1_555
H34 C22 1_555 1_555
C23 C6 1_555 1_555
H35 C23 1_555 1_555
H36 C23 1_555 1_555
H37 C23 1_555 1_555
C24 C4 1_555 1_555
H38 C24 1_555 1_555
H39 C24 1_555 1_555
H40 C24 1_555 1_555
O6 C25 1_555 1_555
O7 C25 1_555 1_555
C25 C26 1_555 1_555
C26 H41 1_555 1_555
H42 C26 1_555 1_555
H43 C26 1_555 1_555
C27 O6 1_555 1_555
H44 C27 1_555 1_555
H45 C27 1_555 1_555
C28 C27 1_555 1_555
H46 C28 1_555 1_555
C29 C28 1_555 1_555
H47 C29 1_555 1_555
H48 C29 1_555 1_555
C6 C7 1_555 1_555
C10 C11 1_555 1_555
C10 C20 1_555 1_555
C13 C18 1_555 1_555
C14 C15 1_555 1_555
C17 C18 1_555 1_555
C21 C22 1_555 1_555

#END
