
#######################################################################
#
#                 Cambridge Crystallographic Data Centre
#                                CCDC 
#
#######################################################################
#
# If this CIF has been generated from an entry in the Cambridge 
# Structural Database, then it will include bibliographic, chemical, 
# crystal, experimental, refinement or atomic coordinate data resulting 
# from the CCDC's data processing and validation procedures.
#
#######################################################################

data_APUTIP01
_chemical_name_common            'Cholic acid allyl acetate clathrate'
_chemical_formula_moiety         'C24 H40 O5,C5 H8 O2'
_chemical_name_systematic        
'3,7,12-Trihydroxycholan-24-oic acid allyl acetate clathrate'
_symmetry_cell_setting           monoclinic
_symmetry_space_group_name_H-M   'P 21'
_symmetry_Int_Tables_number      4
_space_group_name_Hall           'P 2yb'
loop_
_symmetry_equiv_pos_site_id
_symmetry_equiv_pos_as_xyz
1 x,y,z
2 -x,1/2+y,-z
_cell_length_a                   12.0608(4)
_cell_length_b                   7.6741(3)
_cell_length_c                   15.1088(5)
_cell_angle_alpha                90
_cell_angle_beta                 104.4474(14)
_cell_angle_gamma                90
_cell_volume                     1354.19
_exptl_crystal_colour            colorless
_cell_formula_units_Z            2
loop_
_atom_site_label
_atom_site_type_symbol
_atom_site_fract_x
_atom_site_fract_y
_atom_site_fract_z
O1 O 0.46637(10) 0.68365 -0.20745(6)
O2 O 0.51693(8) 0.43611(17) -0.12895(6)
O3 O 0.61177(6) 0.76558(15) 0.26901(4)
O4 O 0.66579(6) 0.20132(15) 0.38647(4)
O5 O 0.47607(6) 0.42735(15) 0.60406(5)
C1 C 0.51381(6) 0.60863(16) -0.13730(4)
C2 C 0.57408(6) 0.70118(16) -0.05093(4)
C3 C 0.70403(5) 0.67020(15) -0.02735(4)
C4 C 0.76756(5) 0.72404(15) 0.07083(4)
C5 C 0.73091(5) 0.60693(15) 0.14142(3)
C6 C 0.78664(5) 0.63451(14) 0.24561(4)
C7 C 0.73489(5) 0.77706(15) 0.29549(4)
C8 C 0.77835(5) 0.75688(14) 0.40005(4)
C9 C 0.75576(5) 0.57614(14) 0.43682(3)
C10 C 0.80630(5) 0.43365(15) 0.38622(3)
C11 C 0.78417(5) 0.24869(15) 0.41637(4)
C12 C 0.82292(5) 0.23117(15) 0.52021(4)
C13 C 0.77502(5) 0.37147(15) 0.57296(4)
C14 C 0.64767(5) 0.33806(15) 0.56654(4)
C15 C 0.59552(5) 0.47040(15) 0.61870(4)
C16 C 0.61172(5) 0.65292(15) 0.58457(4)
C17 C 0.73891(5) 0.68888(15) 0.59416(4)
C18 C 0.79893(5) 0.55919(15) 0.54294(4)
C19 C 0.92822(5) 0.59656(15) 0.57508(4)
C20 C 0.75866(5) 0.45718(14) 0.28343(3)
C21 C 0.79324(6) 0.32368(15) 0.22039(4)
C22 C 0.75702(6) 0.41133(15) 0.12554(4)
C23 C 0.91629(5) 0.66515(15) 0.26125(4)
C24 C 0.75381(6) 0.91960(15) 0.08444(4)
H1 H 0.466896 0.386416 -0.184734
H2 H 0.582966 0.804939 0.321046
H3 H 0.642809 0.21047 0.319474
H4 H 0.428024 0.530902 0.603822
H5 H 0.539044 0.653456 0.003875
H6 H 0.555513 0.838987 -0.060363
H7 H 0.739966 0.735997 -0.077198
H8 H 0.721924 0.533821 -0.035979
H9 H 0.857638 0.700678 0.076572
H10 H 0.639043 0.613526 0.132301
H11 H 0.760266 0.904795 0.277225
H12 H 0.868684 0.78876 0.418202
H13 H 0.738026 0.857802 0.431244
H14 H 0.663623 0.560296 0.418727
H15 H 0.898616 0.446415 0.402728
H16 H 0.832539 0.158337 0.385589
H17 H 0.915582 0.235565 0.540126
H18 H 0.801767 0.103507 0.5418
H19 H 0.820906 0.360631 0.644139
H20 H 0.600922 0.34107 0.495343
H21 H 0.637336 0.208318 0.591528
H22 H 0.633911 0.467352 0.691578
H23 H 0.576503 0.748239 0.622864
H24 H 0.563668 0.669321 0.514264
H25 H 0.77815 0.681476 0.666813
H26 H 0.752335 0.819683 0.572012
H27 H 0.945177 0.733567 0.567348
H28 H 0.982612 0.531731 0.538101
H29 H 0.960684 0.568203 0.64713
H30 H 0.666166 0.455293 0.270037
H31 H 0.747588 0.202263 0.220769
H32 H 0.884238 0.297513 0.242083
H33 H 0.682379 0.347626 0.083076
H34 H 0.82379 0.405798 0.089178
H35 H 0.931883 0.797542 0.242649
H36 H 0.956863 0.582784 0.220296
H37 H 0.961957 0.642408 0.331645
H38 H 0.77855 0.99161 0.030761
H39 H 0.807226 0.96502 0.14894
H40 H 0.666536 0.953038 0.08432
O6 O 0.14192(10) 0.87026(18) 0.16118(6)
O7 O 0.03916(10) 0.93982(19) 0.01998(7)
C25 C 0.07372(7) 0.97595(16) 0.10013(5)
C26 C 0.04857(8) 1.14150(17) 0.14348(6)
C27 C 0.17385(9) 0.70818(17) 0.12473(6)
C28 C 0.24012(12) 0.60276(18) 0.20329(7)
C29 C 0.34758(15) 0.5521(2) 0.21109(11)
H41 H -0.001764 1.220608 0.088628
H42 H 0.127815 1.205208 0.177662
H43 H 0.006986 1.11073 0.197333
H44 H 0.229936 0.741001 0.081299
H45 H 0.097446 0.63803 0.090018
H46 H 0.202281 0.573813 0.259523
H47 H 0.391748 0.593222 0.160424
H48 H 0.39528 0.479116 0.269625
loop_
_geom_bond_atom_site_label_1
_geom_bond_atom_site_label_2
_geom_bond_site_symmetry_1
_geom_bond_site_symmetry_2
O1 C1 1_555 1_555
O2 C1 1_555 1_555
O3 C7 1_555 1_555
O4 C11 1_555 1_555
O5 C15 1_555 1_555
C1 C2 1_555 1_555
C2 C3 1_555 1_555
C3 C4 1_555 1_555
C4 C5 1_555 1_555
C5 C6 1_555 1_555
C6 C7 1_555 1_555
C7 C8 1_555 1_555
C8 C9 1_555 1_555
C9 C10 1_555 1_555
C10 C11 1_555 1_555
C11 C12 1_555 1_555
C12 C13 1_555 1_555
C13 C14 1_555 1_555
C14 C15 1_555 1_555
C15 C16 1_555 1_555
C16 C17 1_555 1_555
C17 C18 1_555 1_555
C18 C9 1_555 1_555
C19 C18 1_555 1_555
C20 C6 1_555 1_555
C21 C20 1_555 1_555
C22 C5 1_555 1_555
C23 C6 1_555 1_555
C24 C4 1_555 1_555
H1 O2 1_555 1_555
H2 O3 1_555 1_555
H3 O4 1_555 1_555
H4 O5 1_555 1_555
H5 C2 1_555 1_555
H6 C2 1_555 1_555
H7 C3 1_555 1_555
H8 C3 1_555 1_555
H9 C4 1_555 1_555
H10 C5 1_555 1_555
H11 C7 1_555 1_555
H12 C8 1_555 1_555
H13 C8 1_555 1_555
H14 C9 1_555 1_555
H15 C10 1_555 1_555
H16 C11 1_555 1_555
H17 C12 1_555 1_555
H18 C12 1_555 1_555
H19 C13 1_555 1_555
H20 C14 1_555 1_555
H21 C14 1_555 1_555
H22 C15 1_555 1_555
H23 C16 1_555 1_555
H24 C16 1_555 1_555
H25 C17 1_555 1_555
H26 C17 1_555 1_555
H27 C19 1_555 1_555
H28 C19 1_555 1_555
H29 C19 1_555 1_555
H30 C20 1_555 1_555
H31 C21 1_555 1_555
H32 C21 1_555 1_555
H33 C22 1_555 1_555
H34 C22 1_555 1_555
H35 C23 1_555 1_555
H36 C23 1_555 1_555
H37 C23 1_555 1_555
H38 C24 1_555 1_555
H39 C24 1_555 1_555
H40 C24 1_555 1_555
O6 C25 1_555 1_555
O7 C25 1_555 1_555
C25 C26 1_555 1_555
C26 H41 1_555 1_555
C27 O6 1_555 1_555
C28 C27 1_555 1_555
C29 C28 1_555 1_555
H42 C26 1_555 1_555
H43 C26 1_555 1_555
H44 C27 1_555 1_555
H45 C27 1_555 1_555
H46 C28 1_555 1_555
H47 C29 1_555 1_555
H48 C29 1_555 1_555
C10 C20 1_555 1_555
C13 C18 1_555 1_555
C21 C22 1_555 1_555

#END
