
#######################################################################
#
#                 Cambridge Crystallographic Data Centre
#                                CCDC 
#
#######################################################################
#
# If this CIF has been generated from an entry in the Cambridge 
# Structural Database, then it will include bibliographic, chemical, 
# crystal, experimental, refinement or atomic coordinate data resulting 
# from the CCDC's data processing and validation procedures.
#
#######################################################################

data_APUXIT
_chemical_formula_moiety         'C23 H30 Br1 N1 O2'
_chemical_name_systematic        
6-Bromo-4-isopropyl-9-methyl-1-(4-methyl-1-oxopentan-3-yl)-2,3,4,9-tetrahydro-1H-carbazole-3-carbaldehyde
_symmetry_cell_setting           orthorhombic
_symmetry_space_group_name_H-M   'P 21 21 21'
_symmetry_Int_Tables_number      19
_space_group_name_Hall           'P 2ac 2ab'
loop_
_symmetry_equiv_pos_site_id
_symmetry_equiv_pos_as_xyz
1 x,y,z
2 1/2-x,-y,1/2+z
3 1/2+x,1/2-y,-z
4 -x,1/2+y,1/2-z
_cell_length_a                   11.0100(10)
_cell_length_b                   14.6160(15)
_cell_length_c                   27.480(3)
_cell_angle_alpha                90
_cell_angle_beta                 90
_cell_angle_gamma                90
_cell_volume                     4422.14
_exptl_crystal_colour            colorless
_exptl_crystal_description       block
_cell_formula_units_Z            8
loop_
_atom_site_label
_atom_site_type_symbol
_atom_site_fract_x
_atom_site_fract_y
_atom_site_fract_z
Br1 Br 0.46043(6) -0.25058(5) 0.11175(2)
C1 C 0.6781(5) -0.0837(3) 0.19721(18)
C2 C 0.5861(5) -0.1425(3) 0.18181(18)
H1 H 0.5297 -0.1656 0.2038
C3 C 0.5803(5) -0.1659(3) 0.1327(2)
C4 C 0.6633(6) -0.1321(4) 0.10017(19)
H2 H 0.6582 -0.1499 0.0677
C5 C 0.7530(5) -0.0732(4) 0.11386(18)
H3 H 0.8062 -0.0487 0.0910
C6 C 0.7629(5) -0.0503(3) 0.16373(17)
C7 C 0.8176(5) -0.0015(3) 0.23714(18)
C8 C 0.7120(5) -0.0510(4) 0.24345(16)
C9 C 0.9571(5) 0.0368(4) 0.16577(18)
H4 H 0.9967 -0.0101 0.1471
H5 H 1.0110 0.0582 0.1908
H6 H 0.9357 0.0867 0.1448
C10 C 0.6601(5) -0.0701(4) 0.29270(17)
H7 H 0.6218 -0.1306 0.2912
C11 C 0.7730(6) -0.0787(5) 0.32669(18)
H8 H 0.7425 -0.0869 0.3599
C12 C 0.8496(5) 0.0071(4) 0.32659(18)
H9 H 0.9188 -0.0024 0.3478
H10 H 0.8019 0.0568 0.3402
C13 C 0.8968(4) 0.0369(4) 0.27595(18)
H11 H 0.9771 0.0090 0.2718
C14 C 0.5634(6) -0.0027(4) 0.3108(2)
H12 H 0.6055 0.0534 0.3206
C15 C 0.4725(5) 0.0231(4) 0.2723(2)
H13 H 0.4226 -0.0288 0.2648
H14 H 0.5145 0.0426 0.2435
H15 H 0.4223 0.0721 0.2840
C16 C 0.4987(5) -0.0399(4) 0.35549(19)
H16 H 0.4387 0.0034 0.3661
H17 H 0.5567 -0.0497 0.3810
H18 H 0.4599 -0.0967 0.3475
C17 C 0.8405(8) -0.1635(6) 0.3135(2)
H19 H 0.7970 -0.2152 0.3043
C18 C 0.9146(5) 0.1416(4) 0.2727(2)
H20 H 0.9533 0.1544 0.2413
C19 C 1.0022(7) 0.1766(5) 0.3130(3)
H21 H 0.9698 0.1533 0.3439
C20 C 1.0120(9) 0.2719(5) 0.3187(3)
H22 H 0.9621 0.2913 0.3454
H23 H 0.9856 0.3017 0.2894
H24 H 1.0951 0.2878 0.3251
C21 C 1.1272(7) 0.1360(5) 0.3079(3)
H25 H 1.1610 0.1533 0.2770
H26 H 1.1219 0.0705 0.3098
H27 H 1.1783 0.1582 0.3336
C22 C 0.7906(6) 0.1931(4) 0.2732(2)
H28 H 0.7292 0.1535 0.2592
H29 H 0.7679 0.2046 0.3067
C23 C 0.7902(7) 0.2801(5) 0.2468(3)
H30 H 0.8345 0.2837 0.2180
N1 N 0.8474(4) -0.0005(3) 0.18804(15)
O1 O 0.9491(6) -0.1672(4) 0.31457(19)
O2 O 0.7383(7) 0.3448(4) 0.2594(3)
Br2 Br -0.27625(4) -0.05928(4) -0.045142(19)
C24 C 0.0606(4) 0.0264(3) 0.00230(15)
C25 C -0.0323(4) -0.0241(3) -0.01960(14)
H31 H -0.0153 -0.0771 -0.0371
C26 C -0.1486(4) 0.0065(3) -0.01457(16)
C27 C -0.1761(4) 0.0832(3) 0.01282(16)
H32 H -0.2569 0.1009 0.0160
C28 C -0.0880(4) 0.1340(3) 0.03545(16)
H33 H -0.1069 0.1857 0.0537
C29 C 0.0318(4) 0.1042(3) 0.02981(15)
C30 C 0.2337(4) 0.0921(3) 0.02832(14)
C31 C 0.1905(4) 0.0192(3) 0.00261(15)
C32 C 0.1446(4) 0.2293(3) 0.07219(15)
H34 H 0.0750 0.2663 0.0648
H35 H 0.2172 0.2613 0.0629
H36 H 0.1467 0.2169 0.1065
C33 C 0.3647(3) 0.1189(3) 0.03456(15)
H37 H 0.3743 0.1806 0.0212
C34 C 0.4457(4) 0.0535(3) 0.00387(14)
H38 H 0.5161 0.0873 -0.0074
H39 H 0.4747 0.0048 0.0249
C35 C 0.3834(4) 0.0105(3) -0.04008(19)
H40 H 0.4413 -0.0323 -0.0547
C36 C 0.2698(4) -0.0454(3) -0.02517(15)
H41 H 0.2266 -0.0623 -0.0550
C37 C 0.3012(4) -0.1347(3) 0.00224(18)
H42 H 0.3535 -0.1191 0.0299
C38 C 0.3704(5) -0.2015(3) -0.0306(2)
H43 H 0.3872 -0.2567 -0.0129
H44 H 0.4455 -0.1740 -0.0407
H45 H 0.3221 -0.2155 -0.0587
C39 C 0.1879(4) -0.1818(3) 0.0219(2)
H46 H 0.1320 -0.1927 -0.0043
H47 H 0.1501 -0.1434 0.0459
H48 H 0.2101 -0.2391 0.0365
C40 C 0.3484(4) 0.0779(4) -0.07878(18)
H49 H 0.2993 0.0568 -0.1039
C41 C 0.4076(4) 0.1218(3) 0.08861(16)
H50 H 0.3594 0.1696 0.1045
C42 C 0.5420(4) 0.1503(3) 0.09453(15)
H51 H 0.5929 0.1014 0.0811
C43 C 0.5742(5) 0.1617(3) 0.14844(16)
H52 H 0.6587 0.1771 0.1515
H53 H 0.5586 0.1054 0.1654
H54 H 0.5257 0.2096 0.1623
C44 C 0.5702(4) 0.2377(3) 0.06718(15)
H55 H 0.5151 0.2849 0.0773
H56 H 0.5614 0.2274 0.0329
H57 H 0.6521 0.2563 0.0741
C45 C 0.3772(4) 0.0325(3) 0.11512(18)
H58 H 0.3359 -0.0077 0.0924
H59 H 0.4528 0.0030 0.1242
C46 C 0.3010(6) 0.0409(5) 0.1593(2)
H60 H 0.2889 -0.0120 0.1774
N2 N 0.1372(3) 0.1441(2) 0.04572(13)
O3 O 0.3775(3) 0.1548(3) -0.08000(12)
O4 O 0.2537(5) 0.1088(3) 0.17380(17)
loop_
_geom_bond_atom_site_label_1
_geom_bond_atom_site_label_2
_geom_bond_site_symmetry_1
_geom_bond_site_symmetry_2
Br1 C3 1_555 1_555
Br2 C26 1_555 1_555
C1 C2 1_555 1_555
C2 H1 1_555 1_555
C3 C2 1_555 1_555
C4 C3 1_555 1_555
H2 C4 1_555 1_555
C5 C4 1_555 1_555
H3 C5 1_555 1_555
C6 C1 1_555 1_555
C7 C8 1_555 1_555
C8 C1 1_555 1_555
C9 H4 1_555 1_555
H5 C9 1_555 1_555
H6 C9 1_555 1_555
C10 C8 1_555 1_555
H7 C10 1_555 1_555
C11 C10 1_555 1_555
H8 C11 1_555 1_555
C12 C11 1_555 1_555
H9 C12 1_555 1_555
H10 C12 1_555 1_555
C13 C7 1_555 1_555
H11 C13 1_555 1_555
C14 C10 1_555 1_555
H12 C14 1_555 1_555
C15 C14 1_555 1_555
H13 C15 1_555 1_555
H14 C15 1_555 1_555
H15 C15 1_555 1_555
C16 C14 1_555 1_555
H16 C16 1_555 1_555
H17 C16 1_555 1_555
H18 C16 1_555 1_555
C17 C11 1_555 1_555
H19 C17 1_555 1_555
C18 C13 1_555 1_555
H20 C18 1_555 1_555
C19 C18 1_555 1_555
H21 C19 1_555 1_555
C20 C19 1_555 1_555
H22 C20 1_555 1_555
H23 C20 1_555 1_555
H24 C20 1_555 1_555
C21 C19 1_555 1_555
H25 C21 1_555 1_555
H26 C21 1_555 1_555
H27 C21 1_555 1_555
C22 C18 1_555 1_555
H28 C22 1_555 1_555
H29 C22 1_555 1_555
C23 C22 1_555 1_555
H30 C23 1_555 1_555
C24 C25 1_555 1_555
C25 H31 1_555 1_555
C26 C25 1_555 1_555
C27 C26 1_555 1_555
H32 C27 1_555 1_555
C28 C27 1_555 1_555
H33 C28 1_555 1_555
C29 C24 1_555 1_555
C30 C31 1_555 1_555
C31 C24 1_555 1_555
C32 H34 1_555 1_555
H35 C32 1_555 1_555
H36 C32 1_555 1_555
C33 C30 1_555 1_555
H37 C33 1_555 1_555
C34 C33 1_555 1_555
H38 C34 1_555 1_555
H39 C34 1_555 1_555
C35 C34 1_555 1_555
H40 C35 1_555 1_555
C36 C31 1_555 1_555
H41 C36 1_555 1_555
C37 C36 1_555 1_555
H42 C37 1_555 1_555
C38 C37 1_555 1_555
H43 C38 1_555 1_555
H44 C38 1_555 1_555
H45 C38 1_555 1_555
C39 C37 1_555 1_555
H46 C39 1_555 1_555
H47 C39 1_555 1_555
H48 C39 1_555 1_555
C40 C35 1_555 1_555
H49 C40 1_555 1_555
C41 C33 1_555 1_555
H50 C41 1_555 1_555
C42 C41 1_555 1_555
H51 C42 1_555 1_555
C43 C42 1_555 1_555
H52 C43 1_555 1_555
H53 C43 1_555 1_555
H54 C43 1_555 1_555
C44 C42 1_555 1_555
H55 C44 1_555 1_555
H56 C44 1_555 1_555
H57 C44 1_555 1_555
C45 C41 1_555 1_555
H58 C45 1_555 1_555
H59 C45 1_555 1_555
C46 C45 1_555 1_555
H60 C46 1_555 1_555
N1 C6 1_555 1_555
N2 C29 1_555 1_555
O1 C17 1_555 1_555
O2 C23 1_555 1_555
O3 C40 1_555 1_555
O4 C46 1_555 1_555
C5 C6 1_555 1_555
C7 N1 1_555 1_555
C9 N1 1_555 1_555
C12 C13 1_555 1_555
C28 C29 1_555 1_555
C30 N2 1_555 1_555
C32 N2 1_555 1_555
C35 C36 1_555 1_555

#END
