
#######################################################################
#
#                 Cambridge Crystallographic Data Centre
#                                CCDC 
#
#######################################################################
#
# If this CIF has been generated from an entry in the Cambridge 
# Structural Database, then it will include bibliographic, chemical, 
# crystal, experimental, refinement or atomic coordinate data resulting 
# from the CCDC's data processing and validation procedures.
#
#######################################################################

data_APUXEP
_chemical_formula_moiety         'C16 H18 Br1 N1 O1'
_chemical_name_systematic        
6-Bromo-4-ethyl-9-methyl-2,3,4,9-tetrahydro-1H-carbazole-3-carbaldehyde
_symmetry_cell_setting           triclinic
_symmetry_space_group_name_H-M   'P -1'
_symmetry_Int_Tables_number      2
_space_group_name_Hall           '-P 1'
loop_
_symmetry_equiv_pos_site_id
_symmetry_equiv_pos_as_xyz
1 x,y,z
2 -x,-y,-z
_cell_length_a                   7.3098(2)
_cell_length_b                   8.9221(3)
_cell_length_c                   11.3611(4)
_cell_angle_alpha                102.6720(10)
_cell_angle_beta                 91.1320(10)
_cell_angle_gamma                91.7600(10)
_cell_volume                     722.301
_exptl_crystal_colour            colorless
_exptl_crystal_description       block
_cell_formula_units_Z            2
loop_
_atom_site_label
_atom_site_type_symbol
_atom_site_fract_x
_atom_site_fract_y
_atom_site_fract_z
C1 C 0.2296(3) 0.8271(3) 0.4429(3)
C2 C 0.1966(3) 0.7146(3) 0.5083(3)
H1 H 0.1834 0.6113 0.4701
C3 C 0.1839(4) 0.7616(4) 0.6320(3)
C4 C 0.2009(4) 0.9156(4) 0.6920(3)
H2 H 0.1897 0.9424 0.7753
C5 C 0.2337(4) 1.0272(4) 0.6296(3)
H3 H 0.2462 1.1299 0.6695
C6 C 0.2481(4) 0.9841(3) 0.5044(3)
C7 C 0.2804(4) 0.9735(3) 0.3075(3)
C8 C 0.3021(5) 1.2361(4) 0.4463(4)
H4 H 0.1996 1.2820 0.4901
H5 H 0.3111 1.2706 0.3722
H6 H 0.4124 1.2654 0.4941
C9 C 0.3078(5) 1.0228(3) 0.1921(3)
H7 H 0.4113 1.0955 0.2011
H8 H 0.2000 1.0738 0.1719
C10 C 0.3424(5) 0.8848(4) 0.0908(3)
H9 H 0.4692 0.8572 0.0960
H10 H 0.3228 0.9129 0.0139
C11 C 0.2178(4) 0.7446(4) 0.0955(3)
H11 H 0.2523 0.6610 0.0291
C12 C 0.2430(4) 0.6872(3) 0.2130(2)
H12 H 0.1336 0.6246 0.2215
C13 C 0.4100(4) 0.5852(3) 0.2114(3)
H13 H 0.5157 0.6367 0.1855
H14 H 0.4361 0.5733 0.2928
C14 C 0.3818(5) 0.4267(4) 0.1287(3)
H15 H 0.2754 0.3761 0.1523
H16 H 0.4872 0.3670 0.1346
H17 H 0.3651 0.4372 0.0469
C15 C 0.0185(6) 0.7752(5) 0.0734(4)
H18 H -0.0054 0.8373 0.0194
Br1 Br 0.13633(5) 0.60887(5) 0.72391(3)
N1 N 0.2765(3) 1.0695(3) 0.4194(3)
C16 C 0.2514(4) 0.8240(3) 0.3182(3)
O1 O -0.1094(7) 0.7281(8) 0.1180(5)
H19? H -0.0689 0.7005 0.0898
O2? O -0.0425(10) 0.8774(8) 0.0382(8)
loop_
_geom_bond_atom_site_label_1
_geom_bond_atom_site_label_2
_geom_bond_site_symmetry_1
_geom_bond_site_symmetry_2
C1 C2 1_555 1_555
C2 H1 1_555 1_555
C3 C2 1_555 1_555
C4 C3 1_555 1_555
H2 C4 1_555 1_555
C5 C4 1_555 1_555
H3 C5 1_555 1_555
C6 C1 1_555 1_555
C7 C9 1_555 1_555
C8 H4 1_555 1_555
H5 C8 1_555 1_555
H6 C8 1_555 1_555
C9 H7 1_555 1_555
H8 C9 1_555 1_555
C10 C9 1_555 1_555
H9 C10 1_555 1_555
H10 C10 1_555 1_555
C11 C10 1_555 1_555
H11 C11 1_555 1_555
C12 C11 1_555 1_555
H12 C12 1_555 1_555
C13 C12 1_555 1_555
H13 C13 1_555 1_555
H14 C13 1_555 1_555
C14 C13 1_555 1_555
H15 C14 1_555 1_555
H16 C14 1_555 1_555
H17 C14 1_555 1_555
C15 C11 1_555 1_555
H18 C15 1_555 1_555
Br1 C3 1_555 1_555
N1 C6 1_555 1_555
C16 C1 1_555 1_555
O1 C15 1_555 1_555
C5 C6 1_555 1_555
C7 N1 1_555 1_555
C7 C16 1_555 1_555
C8 N1 1_555 1_555
C12 C16 1_555 1_555

#END
