
#######################################################################
#
#                 Cambridge Crystallographic Data Centre
#                                CCDC 
#
#######################################################################
#
# If this CIF has been generated from an entry in the Cambridge 
# Structural Database, then it will include bibliographic, chemical, 
# crystal, experimental, refinement or atomic coordinate data resulting 
# from the CCDC's data processing and validation procedures.
#
#######################################################################

data_APUXAL
_chemical_formula_moiety         'C20 H18 Br1 F2 N1 O2'
_chemical_name_systematic        
5-(2-(4-Bromophenyl)-2,2-difluoro-1-((1-phenylethyl)amino)ethyl)furan-2(5H)-one
_symmetry_cell_setting           monoclinic
_symmetry_space_group_name_H-M   'P 21'
_symmetry_Int_Tables_number      4
_space_group_name_Hall           'P 2yb'
loop_
_symmetry_equiv_pos_site_id
_symmetry_equiv_pos_as_xyz
1 x,y,z
2 -x,1/2+y,-z
_cell_length_a                   9.2224(14)
_cell_length_b                   10.4748(16)
_cell_length_c                   10.2384(16)
_cell_angle_alpha                90
_cell_angle_beta                 104.482(3)
_cell_angle_gamma                90
_cell_volume                     957.632
_exptl_crystal_colour            colorless
_exptl_crystal_description       prismatic
_cell_formula_units_Z            2
loop_
_atom_site_label
_atom_site_type_symbol
_atom_site_fract_x
_atom_site_fract_y
_atom_site_fract_z
Br1 Br 1.45695(6) 0.68877(8) 0.98916(6)
F1 F 0.8816(3) 0.7582(3) 0.4378(3)
F2 F 0.9529(3) 0.5689(3) 0.3978(3)
O1 O 0.3513(5) 0.3971(4) 0.4245(4)
O2 O 0.5194(3) 0.5531(3) 0.4745(3)
N1 N 0.8160(4) 0.4571(3) 0.5824(3)
C1 C 0.4504(6) 0.4536(6) 0.3955(5)
C2 C 0.5240(7) 0.4370(6) 0.2878(5)
H1 H 0.4985 0.3764 0.2196
C3 C 0.6320(6) 0.5205(7) 0.3010(5)
H2 H 0.6943 0.5294 0.2428
C4 C 0.6398(5) 0.5982(4) 0.4222(5)
H3 H 0.6230 0.6881 0.3964
C5 C 0.7848(4) 0.5858(4) 0.5357(4)
H4 H 0.7702 0.6358 0.6123
C6 C 0.9204(6) 0.6408(4) 0.4975(4)
C7 C 1.0551(5) 0.6557(4) 0.6125(4)
C8 C 1.0498(5) 0.7384(4) 0.7154(5)
H5 H 0.9658 0.7893 0.7095
C9 C 1.1698(6) 0.7460(5) 0.8282(5)
H6 H 1.1642 0.7991 0.8995
C10 C 1.2943(5) 0.6769(6) 0.8347(5)
C11 C 1.3036(5) 0.5968(5) 0.7325(6)
H7 H 1.3906 0.5500 0.7375
C12 C 1.1835(6) 0.5852(5) 0.6214(5)
H8 H 1.1891 0.5295 0.5521
C13 C 0.7654(5) 0.4167(4) 0.6992(4)
H9 H 0.6702 0.4592 0.6969
C14 C 0.7385(6) 0.2715(4) 0.6886(5)
H10 H 0.6649 0.2524 0.6065
H11 H 0.7033 0.2428 0.7643
H12 H 0.8306 0.2288 0.6885
C15 C 0.8766(5) 0.4518(4) 0.8287(4)
C16 C 0.8357(7) 0.5284(5) 0.9238(5)
H13 H 0.7400 0.5632 0.9062
C17 C 0.9396(11) 0.5532(6) 1.0468(6)
H14 H 0.9126 0.6037 1.1116
C18 C 1.0785(11) 0.5037(7) 1.0710(7)
H15 H 1.1466 0.5210 1.1527
C19 C 1.1209(7) 0.4299(7) 0.9796(6)
H16 H 1.2172 0.3962 0.9980
C20 C 1.0195(6) 0.4048(4) 0.8582(5)
H17 H 1.0493 0.3545 0.7947
H18 H 0.814(5) 0.407(4) 0.515(3)
loop_
_geom_bond_atom_site_label_1
_geom_bond_atom_site_label_2
_geom_bond_site_symmetry_1
_geom_bond_site_symmetry_2
Br1 C10 1_555 1_555
F1 C6 1_555 1_555
F2 C6 1_555 1_555
O1 C1 1_555 1_555
O2 C1 1_555 1_555
N1 C5 1_555 1_555
C1 C2 1_555 1_555
C2 H1 1_555 1_555
C3 C2 1_555 1_555
H2 C3 1_555 1_555
C4 O2 1_555 1_555
H3 C4 1_555 1_555
C5 C4 1_555 1_555
H4 C5 1_555 1_555
C6 C5 1_555 1_555
C7 C6 1_555 1_555
C8 C7 1_555 1_555
H5 C8 1_555 1_555
C9 C8 1_555 1_555
H6 C9 1_555 1_555
C10 C9 1_555 1_555
C11 C10 1_555 1_555
H7 C11 1_555 1_555
C12 C7 1_555 1_555
H8 C12 1_555 1_555
C13 N1 1_555 1_555
H9 C13 1_555 1_555
C14 C13 1_555 1_555
H10 C14 1_555 1_555
H11 C14 1_555 1_555
H12 C14 1_555 1_555
C15 C13 1_555 1_555
C16 C15 1_555 1_555
H13 C16 1_555 1_555
C17 C16 1_555 1_555
H14 C17 1_555 1_555
C18 C17 1_555 1_555
H15 C18 1_555 1_555
C19 C18 1_555 1_555
H16 C19 1_555 1_555
C20 C15 1_555 1_555
H17 C20 1_555 1_555
H18 N1 1_555 1_555
C3 C4 1_555 1_555
C11 C12 1_555 1_555
C19 C20 1_555 1_555

#END
