
#######################################################################
#
#                 Cambridge Crystallographic Data Centre
#                                CCDC 
#
#######################################################################
#
# If this CIF has been generated from an entry in the Cambridge 
# Structural Database, then it will include bibliographic, chemical, 
# crystal, experimental, refinement or atomic coordinate data resulting 
# from the CCDC's data processing and validation procedures.
#
#######################################################################

data_AQADOM
_chemical_formula_moiety         'C13 H13 N1 O3'
_chemical_name_systematic        
1-(5-(Hydroxyimino)-2-methyl-4-phenyl-4,5-dihydrofuran-3-yl)ethanone
_symmetry_cell_setting           monoclinic
_symmetry_space_group_name_H-M   'P 21/n'
_symmetry_Int_Tables_number      14
_space_group_name_Hall           '-P 2yn'
loop_
_symmetry_equiv_pos_site_id
_symmetry_equiv_pos_as_xyz
1 x,y,z
2 1/2-x,1/2+y,1/2-z
3 -x,-y,-z
4 1/2+x,1/2-y,1/2+z
_cell_length_a                   10.905(3)
_cell_length_b                   9.222(3)
_cell_length_c                   11.873(4)
_cell_angle_alpha                90
_cell_angle_beta                 95.10(2)
_cell_angle_gamma                90
_cell_volume                     1189.29
_exptl_crystal_colour            colorless
_exptl_crystal_description       block
_cell_formula_units_Z            4
loop_
_atom_site_label
_atom_site_type_symbol
_atom_site_fract_x
_atom_site_fract_y
_atom_site_fract_z
O1 O 0.3624(2) 0.5415(2) 0.40424(17)
O2 O 0.3746(2) 0.8137(3) 0.3751(2)
H1 H 0.378(4) 0.903(5) 0.348(3)
O3 O 0.3679(2) 0.0981(2) 0.3234(2)
N1 N 0.4120(2) 0.7295(3) 0.2847(2)
C1 C 0.6608(3) 0.4069(4) 0.2712(3)
H2 H 0.6399 0.3532 0.3330
C2 C 0.7823(3) 0.4133(4) 0.2465(4)
H3 H 0.8425 0.3616 0.2900
C3 C 0.8133(4) 0.4950(4) 0.1586(4)
H4 H 0.8953 0.5005 0.1431
C4 C 0.7259(4) 0.5697(4) 0.0923(3)
H5 H 0.7479 0.6252 0.0318
C5 C 0.6040(3) 0.5615(3) 0.1164(3)
H6 H 0.5441 0.6123 0.0719
C6 C 0.5707(3) 0.4793(3) 0.2052(3)
C7 C 0.4369(3) 0.4750(3) 0.2303(2)
H7 H 0.3844 0.4812 0.1590
C8 C 0.4047(3) 0.5963(3) 0.3064(3)
C9 C 0.3572(3) 0.3927(3) 0.3925(3)
C10 C 0.3978(3) 0.3463(3) 0.2967(3)
C11 C 0.3066(4) 0.3194(4) 0.4883(3)
H8 H 0.2545 0.2409 0.4606
H9 H 0.2594 0.3873 0.5279
H10 H 0.3728 0.2822 0.5387
C12 C 0.3975(3) 0.1951(3) 0.2621(3)
C13 C 0.4343(3) 0.1607(4) 0.1461(3)
H11 H 0.4367 0.0574 0.1364
H12 H 0.5142 0.2007 0.1377
H13 H 0.3754 0.2019 0.0902
loop_
_geom_bond_atom_site_label_1
_geom_bond_atom_site_label_2
_geom_bond_site_symmetry_1
_geom_bond_site_symmetry_2
O1 C8 1_555 1_555
O2 H1 1_555 1_555
O3 C12 1_555 1_555
N1 O2 1_555 1_555
C1 H2 1_555 1_555
C2 C1 1_555 1_555
H3 C2 1_555 1_555
C3 C2 1_555 1_555
H4 C3 1_555 1_555
C4 C3 1_555 1_555
H5 C4 1_555 1_555
C5 C4 1_555 1_555
H6 C5 1_555 1_555
C6 C1 1_555 1_555
C7 C6 1_555 1_555
H7 C7 1_555 1_555
C8 N1 1_555 1_555
C9 O1 1_555 1_555
C10 C7 1_555 1_555
C11 C9 1_555 1_555
H8 C11 1_555 1_555
H9 C11 1_555 1_555
H10 C11 1_555 1_555
C12 C10 1_555 1_555
C13 C12 1_555 1_555
H11 C13 1_555 1_555
H12 C13 1_555 1_555
H13 C13 1_555 1_555
C5 C6 1_555 1_555
C7 C8 1_555 1_555
C9 C10 1_555 1_555

#END
