
#######################################################################
#
#                 Cambridge Crystallographic Data Centre
#                                CCDC 
#
#######################################################################
#
# If this CIF has been generated from an entry in the Cambridge 
# Structural Database, then it will include bibliographic, chemical, 
# crystal, experimental, refinement or atomic coordinate data resulting 
# from the CCDC's data processing and validation procedures.
#
#######################################################################

data_AQAMUC
_chemical_formula_moiety         'C21 H18 B1 F2 N3'
_chemical_name_systematic        
9,9-Difluoro-15,15-dimethyl-9,15-dihydro-3H-pyrrolizino[3',2':5,6]pyrrolo[1',2':3,4][1,3,2]diazaborepino[1,7-a]indol-10-ium-9-ide
_symmetry_cell_setting           monoclinic
_symmetry_space_group_name_H-M   'P 21/c'
_symmetry_Int_Tables_number      14
_space_group_name_Hall           '-P 2ybc'
loop_
_symmetry_equiv_pos_site_id
_symmetry_equiv_pos_as_xyz
1 x,y,z
2 -x,1/2+y,1/2-z
3 -x,-y,-z
4 x,1/2-y,1/2+z
_cell_length_a                   8.6155(16)
_cell_length_b                   16.752(3)
_cell_length_c                   12.460(2)
_cell_angle_alpha                90
_cell_angle_beta                 107.937(4)
_cell_angle_gamma                90
_cell_volume                     1710.91
_exptl_crystal_colour            colorless
_exptl_crystal_description       Prism
_chemical_melting_point          'above 200 deg.C'
_cell_formula_units_Z            4
loop_
_atom_site_label
_atom_site_type_symbol
_atom_site_fract_x
_atom_site_fract_y
_atom_site_fract_z
F1 F 0.99639(11) 0.15818(5) 0.77731(8)
F2 F 1.05855(11) 0.23971(5) 0.93079(7)
B1 B 0.9474(2) 0.22390(11) 0.82585(15)
N1 N 0.77679(15) 0.20562(7) 0.84563(10)
N2 N 0.93090(15) 0.29540(8) 0.74656(11)
N3 N 0.80338(16) 0.46452(8) 0.88950(11)
C1 C 0.69969(19) 0.12866(9) 0.83373(13)
C2 C 0.7444(2) 0.05737(10) 0.79371(14)
H1 H 0.8344 0.0549 0.7649
C3 C 0.6518(2) -0.01032(10) 0.79765(14)
H2 H 0.6797 -0.0598 0.7711
C4 C 0.5200(2) -0.00715(10) 0.83931(14)
H3 H 0.4591 -0.0542 0.8411
C5 C 0.4763(2) 0.06486(10) 0.87868(14)
H4 H 0.3865 0.0674 0.9076
C6 C 0.56681(18) 0.13247(9) 0.87460(13)
C7 C 0.54715(18) 0.21657(9) 0.91084(13)
C8 C 0.69688(18) 0.25639(9) 0.89171(12)
C9 C 0.5375(2) 0.21823(10) 1.03219(14)
H5 H 0.4529 0.1810 1.0385
H6 H 0.5104 0.2723 1.0505
H7 H 0.6430 0.2024 1.0849
C10 C 0.39238(19) 0.25461(10) 0.82826(14)
H8 H 0.3985 0.2514 0.7511
H9 H 0.3851 0.3107 0.8486
H10 H 0.2956 0.2258 0.8328
C11 C 0.73367(18) 0.33917(9) 0.91135(12)
C12 C 0.67657(19) 0.38990(9) 0.98494(14)
H11 H 0.6183 0.3734 1.0346
C13 C 0.72190(19) 0.46559(10) 0.96981(13)
C14 C 0.7248(2) 0.54749(10) 1.00855(15)
H12 H 0.6786 0.5659 1.0641
C15 C 0.8031(2) 0.59284(10) 0.95349(14)
H13 H 0.8213 0.6485 0.9654
C16 C 0.8586(2) 0.54461(9) 0.87039(14)
H14 H 0.8058 0.5628 0.7920
H15 H 0.9786 0.5467 0.8873
C17 C 0.81474(18) 0.38913(9) 0.85296(12)
C18 C 0.88436(18) 0.37213(9) 0.76457(13)
C19 C 0.9100(2) 0.42211(10) 0.68266(13)
H16 H 0.8892 0.4779 0.6753
C20 C 0.9725(2) 0.37442(10) 0.61273(14)
H17 H 1.0013 0.3919 0.5488
C21 C 0.98435(19) 0.29774(10) 0.65399(13)
H18 H 1.0237 0.2532 0.6229
loop_
_geom_bond_atom_site_label_1
_geom_bond_atom_site_label_2
_geom_bond_site_symmetry_1
_geom_bond_site_symmetry_2
F1 B1 1_555 1_555
F2 B1 1_555 1_555
B1 N1 1_555 1_555
N1 C1 1_555 1_555
N2 B1 1_555 1_555
N3 C13 1_555 1_555
C1 C2 1_555 1_555
C2 H1 1_555 1_555
C3 C2 1_555 1_555
H2 C3 1_555 1_555
C4 C3 1_555 1_555
H3 C4 1_555 1_555
C5 C4 1_555 1_555
H4 C5 1_555 1_555
C6 C1 1_555 1_555
C7 C6 1_555 1_555
C8 N1 1_555 1_555
C9 C7 1_555 1_555
H5 C9 1_555 1_555
H6 C9 1_555 1_555
H7 C9 1_555 1_555
C10 C7 1_555 1_555
H8 C10 1_555 1_555
H9 C10 1_555 1_555
H10 C10 1_555 1_555
C11 C8 1_555 1_555
C12 C11 1_555 1_555
H11 C12 1_555 1_555
C13 C12 1_555 1_555
C14 C13 1_555 1_555
H12 C14 1_555 1_555
C15 C14 1_555 1_555
H13 C15 1_555 1_555
C16 N3 1_555 1_555
H14 C16 1_555 1_555
H15 C16 1_555 1_555
C17 N3 1_555 1_555
C18 N2 1_555 1_555
C19 C18 1_555 1_555
H16 C19 1_555 1_555
C20 C19 1_555 1_555
H17 C20 1_555 1_555
C21 N2 1_555 1_555
H18 C21 1_555 1_555
C5 C6 1_555 1_555
C7 C8 1_555 1_555
C11 C17 1_555 1_555
C15 C16 1_555 1_555
C17 C18 1_555 1_555
C20 C21 1_555 1_555

#END
