
#######################################################################
#
#                 Cambridge Crystallographic Data Centre
#                                CCDC 
#
#######################################################################
#
# If this CIF has been generated from an entry in the Cambridge 
# Structural Database, then it will include bibliographic, chemical, 
# crystal, experimental, refinement or atomic coordinate data resulting 
# from the CCDC's data processing and validation procedures.
#
#######################################################################

data_AQAQOZ
_chemical_formula_moiety         'C13 H10 Cl2 N2 O1'
_chemical_name_systematic        
2,4-Dichloro-6-[(6-methylpyridin-2-ylimino)methyl]phenol
_symmetry_cell_setting           monoclinic
_symmetry_space_group_name_H-M   'P 2/c'
_symmetry_Int_Tables_number      13
_space_group_name_Hall           '-P 2yc'
loop_
_symmetry_equiv_pos_site_id
_symmetry_equiv_pos_as_xyz
1 x,y,z
2 -x,y,1/2-z
3 -x,-y,-z
4 x,-y,1/2+z
_cell_length_a                   14.603(3)
_cell_length_b                   4.323(2)
_cell_length_c                   20.445(3)
_cell_angle_alpha                90
_cell_angle_beta                 102.234(2)
_cell_angle_gamma                90
_cell_volume                     1261.36
_exptl_crystal_colour            yellow
_exptl_crystal_description       block
_cell_formula_units_Z            4
loop_
_atom_site_label
_atom_site_type_symbol
_atom_site_fract_x
_atom_site_fract_y
_atom_site_fract_z
Cl1 Cl 0.09187(4) 0.09943(17) 0.31694(3)
Cl2 Cl 0.46825(4) 0.04455(17) 0.39328(3)
N1 N 0.19457(12) 0.8035(4) 0.53578(8)
N2 N 0.27990(11) 1.1055(4) 0.62510(8)
O1 O 0.10474(10) 0.4870(4) 0.43531(7)
H1 H 0.1119 0.6082 0.4668
C1 C 0.27246(14) 0.4808(5) 0.47030(10)
C2 C 0.18807(14) 0.3935(5) 0.42637(10)
C3 C 0.19423(15) 0.2024(5) 0.37216(10)
C4 C 0.27896(15) 0.0959(5) 0.36185(10)
H2 H 0.2813 -0.0308 0.3255
C5 C 0.36088(14) 0.1803(5) 0.40645(11)
C6 C 0.35820(15) 0.3692(5) 0.45993(10)
H3 H 0.4136 0.4232 0.4894
C7 C 0.27143(15) 0.6893(5) 0.52527(10)
H4 H 0.3277 0.7422 0.5538
C8 C 0.19657(14) 1.0139(5) 0.58951(10)
C9 C 0.11171(16) 1.1140(5) 0.60180(11)
H5 H 0.0553 1.0466 0.5754
C10 C 0.11297(16) 1.3158(6) 0.65401(12)
H6 H 0.0573 1.3875 0.6637
C11 C 0.19801(17) 1.4098(5) 0.69159(11)
H7 H 0.2002 1.5446 0.7273
C12 C 0.28054(15) 1.3029(5) 0.67609(10)
C13 C 0.37506(16) 1.4038(6) 0.71425(12)
H8 H 0.4128 1.2250 0.7291
H9 H 0.3679 1.5239 0.7523
H10 H 0.4050 1.5270 0.6858
loop_
_geom_bond_atom_site_label_1
_geom_bond_atom_site_label_2
_geom_bond_site_symmetry_1
_geom_bond_site_symmetry_2
Cl1 C3 1_555 1_555
Cl2 C5 1_555 1_555
N1 C7 1_555 1_555
N2 C8 1_555 1_555
O1 H1 1_555 1_555
C1 C2 1_555 1_555
C2 O1 1_555 1_555
C3 C2 1_555 1_555
C4 C3 1_555 1_555
H2 C4 1_555 1_555
C5 C4 1_555 1_555
C6 C1 1_555 1_555
H3 C6 1_555 1_555
C7 C1 1_555 1_555
H4 C7 1_555 1_555
C8 N1 1_555 1_555
C9 C8 1_555 1_555
H5 C9 1_555 1_555
C10 C9 1_555 1_555
H6 C10 1_555 1_555
C11 C10 1_555 1_555
H7 C11 1_555 1_555
C12 N2 1_555 1_555
C13 C12 1_555 1_555
H8 C13 1_555 1_555
H9 C13 1_555 1_555
H10 C13 1_555 1_555
C5 C6 1_555 1_555
C11 C12 1_555 1_555

#END
