
#######################################################################
#
#                 Cambridge Crystallographic Data Centre
#                                CCDC 
#
#######################################################################
#
# If this CIF has been generated from an entry in the Cambridge 
# Structural Database, then it will include bibliographic, chemical, 
# crystal, experimental, refinement or atomic coordinate data resulting 
# from the CCDC's data processing and validation procedures.
#
#######################################################################

data_AQAROB
_chemical_formula_moiety         'C19 H14 N2 O1 S1'
_chemical_name_systematic        
N-(1,3-benzothiazol-2-yl)-2-(2-naphthyl)acetamide
_symmetry_cell_setting           triclinic
_symmetry_space_group_name_H-M   'P -1'
_symmetry_Int_Tables_number      2
_space_group_name_Hall           '-P 1'
loop_
_symmetry_equiv_pos_site_id
_symmetry_equiv_pos_as_xyz
1 x,y,z
2 -x,-y,-z
_cell_length_a                   5.7589(17)
_cell_length_b                   18.073(5)
_cell_length_c                   21.631(6)
_cell_angle_alpha                86.149(7)
_cell_angle_beta                 84.526(7)
_cell_angle_gamma                88.080(7)
_cell_volume                     2235.21
_exptl_crystal_colour            colorless
_exptl_crystal_description       Prism
_cell_formula_units_Z            6
loop_
_atom_site_label
_atom_site_type_symbol
_atom_site_fract_x
_atom_site_fract_y
_atom_site_fract_z
S1 S 0.57033(9) 0.02751(3) 0.41369(2)
O1 O 0.7952(3) 0.07123(10) 0.50578(7)
N1 N 0.8184(3) 0.08691(9) 0.31623(7)
N2 N 0.9550(3) 0.11300(9) 0.41101(7)
C1 C 0.6424(3) 0.04714(10) 0.29391(9)
C2 C 0.6147(4) 0.03841(11) 0.23140(9)
H1 H 0.7225 0.0592 0.1995
C3 C 0.4279(4) -0.00103(12) 0.21671(10)
H2 H 0.4068 -0.0064 0.1742
C4 C 0.2695(4) -0.03317(12) 0.26295(10)
H3 H 0.1407 -0.0591 0.2517
C5 C 0.3000(4) -0.02724(11) 0.32546(10)
H4 H 0.1958 -0.0500 0.3573
C6 C 0.4866(3) 0.01277(10) 0.34019(9)
C7 C 0.8002(3) 0.07978(10) 0.37677(9)
C8 C 0.9425(4) 0.10792(11) 0.47467(9)
C9 C 1.1240(4) 0.15107(12) 0.50250(9)
H5 H 1.2684 0.1200 0.5044
H6 H 1.1620 0.1959 0.4750
C10 C 1.0424(3) 0.17427(11) 0.56716(8)
C11 C 0.8217(4) 0.21028(11) 0.57830(9)
H7 H 0.7231 0.2176 0.5455
C12 C 0.7483(3) 0.23468(11) 0.63546(9)
H8 H 0.5997 0.2588 0.6418
C13 C 0.8904(3) 0.22460(10) 0.68564(9)
C14 C 0.8209(4) 0.25005(12) 0.74565(9)
H9 H 0.6757 0.2760 0.7529
C15 C 0.9614(4) 0.23738(12) 0.79293(9)
H10 H 0.9143 0.2553 0.8326
C16 C 1.1753(4) 0.19802(12) 0.78337(9)
H11 H 1.2697 0.1885 0.8169
C17 C 1.2484(4) 0.17324(11) 0.72599(9)
H12 H 1.3934 0.1468 0.7201
C18 C 1.1106(3) 0.18654(10) 0.67559(8)
C19 C 1.1821(3) 0.16242(11) 0.61521(9)
H13 H 1.3293 0.1376 0.6080
H14 H 1.066(4) 0.1394(15) 0.3893(12)
S2 S 0.31585(9) 0.34644(3) 0.25872(2)
O2 O 0.0103(3) 0.32057(8) 0.18007(7)
N3 N 0.2696(3) 0.23177(9) 0.33932(7)
N4 N 0.0148(3) 0.23301(10) 0.26045(7)
C20 C 0.4452(3) 0.27464(10) 0.35770(9)
C21 C 0.5728(3) 0.25865(12) 0.40921(9)
H15 H 0.5442 0.2150 0.4355
C22 C 0.7415(4) 0.30735(13) 0.42127(10)
H16 H 0.8280 0.2969 0.4562
C23 C 0.7866(4) 0.37167(13) 0.38289(10)
H17 H 0.9023 0.4044 0.3922
C24 C 0.6640(4) 0.38810(12) 0.33142(9)
H18 H 0.6957 0.4313 0.3048
C25 C 0.4933(3) 0.33971(11) 0.31969(8)
C26 C 0.1900(3) 0.26360(10) 0.28911(8)
C27 C -0.0680(4) 0.26377(11) 0.20655(9)
C28 C -0.2537(4) 0.22097(11) 0.18130(9)
H19 H -0.3841 0.2552 0.1709
H20 H -0.3154 0.1834 0.2135
C29 C -0.1572(4) 0.18280(11) 0.12360(9)
C30 C 0.0603(4) 0.14240(12) 0.12315(10)
H21 H 0.1439 0.1396 0.1591
C31 C 0.1493(4) 0.10766(12) 0.07148(10)
H22 H 0.2939 0.0808 0.0720
C32 C 0.0295(4) 0.11111(11) 0.01731(10)
C33 C 0.1166(5) 0.07568(13) -0.03737(11)
H23 H 0.2615 0.0489 -0.0382
C34 C -0.0061(5) 0.07983(14) -0.08865(11)
H24 H 0.0544 0.0559 -0.1248
C35 C -0.2206(5) 0.11907(14) -0.08830(11)
H25 H -0.3038 0.1216 -0.1243
C36 C -0.3115(4) 0.15385(13) -0.03645(10)
H26 H -0.4571 0.1801 -0.0366
C37 C -0.1879(4) 0.15048(11) 0.01737(9)
C38 C -0.2757(4) 0.18666(11) 0.07158(9)
H27 H -0.4195 0.2140 0.0716
H28 H -0.039(5) 0.1903(16) 0.2780(12)
S3 S 0.45717(8) 0.39523(3) 0.09328(2)
O3 O 0.6457(3) 0.46207(8) 0.17918(6)
N5 N 0.7316(3) 0.43253(9) -0.00721(7)
N6 N 0.8483(3) 0.47763(9) 0.08428(7)
C39 C 0.5562(3) 0.38862(10) -0.02534(8)
C40 C 0.5338(4) 0.36778(11) -0.08549(9)
H29 H 0.6424 0.3840 -0.1191
C41 C 0.3513(4) 0.32319(12) -0.09578(9)
H30 H 0.3373 0.3085 -0.1366
C42 C 0.1874(4) 0.29942(11) -0.04696(9)
H31 H 0.0629 0.2693 -0.0550
C43 C 0.2065(3) 0.31975(11) 0.01284(9)
H32 H 0.0960 0.3041 0.0462
C44 C 0.3914(3) 0.36376(10) 0.02301(8)
C45 C 0.6979(3) 0.43892(10) 0.05278(8)
C46 C 0.8143(3) 0.48671(11) 0.14726(8)
C47 C 1.0023(3) 0.53049(12) 0.17160(9)
H33 H 1.1495 0.5005 0.1695
H34 H 1.0291 0.5760 0.1441
C48 C 0.9439(3) 0.55214(10) 0.23747(9)
C49 C 0.7279(4) 0.58973(11) 0.25336(9)
H35 H 0.6217 0.5997 0.2226
C50 C 0.6709(4) 0.61174(11) 0.31206(9)
H36 H 0.5259 0.6370 0.3215
C51 C 0.8247(4) 0.59752(11) 0.35945(9)
C52 C 0.7686(4) 0.61920(13) 0.42101(10)
H37 H 0.6247 0.6448 0.4314
C53 C 0.9187(4) 0.60374(14) 0.46548(10)
H38 H 0.8799 0.6191 0.5064
C54 C 1.1307(4) 0.56515(14) 0.45110(10)
H39 H 1.2336 0.5544 0.4825
C55 C 1.1906(4) 0.54290(13) 0.39241(10)
H40 H 1.3340 0.5165 0.3835
C56 C 1.0398(4) 0.55905(11) 0.34460(9)
C57 C 1.0950(4) 0.53740(11) 0.28253(9)
H41 H 1.2395 0.5122 0.2721
H42 H 0.965(4) 0.4992(14) 0.0629(11)
loop_
_geom_bond_atom_site_label_1
_geom_bond_atom_site_label_2
_geom_bond_site_symmetry_1
_geom_bond_site_symmetry_2
S1 C6 1_555 1_555
O1 C8 1_555 1_555
N1 C1 1_555 1_555
N2 C7 1_555 1_555
C1 C2 1_555 1_555
C2 H1 1_555 1_555
C3 C2 1_555 1_555
H2 C3 1_555 1_555
C4 C3 1_555 1_555
H3 C4 1_555 1_555
C5 C4 1_555 1_555
H4 C5 1_555 1_555
C6 C1 1_555 1_555
C7 S1 1_555 1_555
C8 N2 1_555 1_555
C9 C8 1_555 1_555
H5 C9 1_555 1_555
H6 C9 1_555 1_555
C10 C9 1_555 1_555
C11 C10 1_555 1_555
H7 C11 1_555 1_555
C12 C11 1_555 1_555
H8 C12 1_555 1_555
C13 C12 1_555 1_555
C14 C13 1_555 1_555
H9 C14 1_555 1_555
C15 C14 1_555 1_555
H10 C15 1_555 1_555
C16 C15 1_555 1_555
H11 C16 1_555 1_555
C17 C16 1_555 1_555
H12 C17 1_555 1_555
C18 C13 1_555 1_555
C19 C10 1_555 1_555
H13 C19 1_555 1_555
H14 N2 1_555 1_555
S2 C25 1_555 1_555
O2 C27 1_555 1_555
N3 C20 1_555 1_555
N4 C26 1_555 1_555
C20 C21 1_555 1_555
C21 H15 1_555 1_555
C22 C21 1_555 1_555
H16 C22 1_555 1_555
C23 C22 1_555 1_555
H17 C23 1_555 1_555
C24 C23 1_555 1_555
H18 C24 1_555 1_555
C25 C20 1_555 1_555
C26 S2 1_555 1_555
C27 N4 1_555 1_555
C28 C27 1_555 1_555
H19 C28 1_555 1_555
H20 C28 1_555 1_555
C29 C28 1_555 1_555
C30 C29 1_555 1_555
H21 C30 1_555 1_555
C31 C30 1_555 1_555
H22 C31 1_555 1_555
C32 C31 1_555 1_555
C33 C32 1_555 1_555
H23 C33 1_555 1_555
C34 C33 1_555 1_555
H24 C34 1_555 1_555
C35 C34 1_555 1_555
H25 C35 1_555 1_555
C36 C35 1_555 1_555
H26 C36 1_555 1_555
C37 C32 1_555 1_555
C38 C29 1_555 1_555
H27 C38 1_555 1_555
H28 N4 1_555 1_555
S3 C44 1_555 1_555
O3 C46 1_555 1_555
N5 C39 1_555 1_555
N6 C45 1_555 1_555
C39 C40 1_555 1_555
C40 H29 1_555 1_555
C41 C40 1_555 1_555
H30 C41 1_555 1_555
C42 C41 1_555 1_555
H31 C42 1_555 1_555
C43 C42 1_555 1_555
H32 C43 1_555 1_555
C44 C39 1_555 1_555
C45 S3 1_555 1_555
C46 N6 1_555 1_555
C47 C46 1_555 1_555
H33 C47 1_555 1_555
H34 C47 1_555 1_555
C48 C47 1_555 1_555
C49 C48 1_555 1_555
H35 C49 1_555 1_555
C50 C49 1_555 1_555
H36 C50 1_555 1_555
C51 C50 1_555 1_555
C52 C51 1_555 1_555
H37 C52 1_555 1_555
C53 C52 1_555 1_555
H38 C53 1_555 1_555
C54 C53 1_555 1_555
H39 C54 1_555 1_555
C55 C54 1_555 1_555
H40 C55 1_555 1_555
C56 C51 1_555 1_555
C57 C48 1_555 1_555
H41 C57 1_555 1_555
H42 N6 1_555 1_555
N1 C7 1_555 1_555
C5 C6 1_555 1_555
C17 C18 1_555 1_555
C18 C19 1_555 1_555
N3 C26 1_555 1_555
C24 C25 1_555 1_555
C36 C37 1_555 1_555
C37 C38 1_555 1_555
N5 C45 1_555 1_555
C43 C44 1_555 1_555
C55 C56 1_555 1_555
C56 C57 1_555 1_555

#END
