
#######################################################################
#
#                 Cambridge Crystallographic Data Centre
#                                CCDC 
#
#######################################################################
#
# If this CIF has been generated from an entry in the Cambridge 
# Structural Database, then it will include bibliographic, chemical, 
# crystal, experimental, refinement or atomic coordinate data resulting 
# from the CCDC's data processing and validation procedures.
#
#######################################################################

data_AQARIU
_chemical_formula_moiety         'C13 H15 N3 O2 S1'
_chemical_name_systematic        
N-(2-Methyl-1-(5-thioxo-4,5-dihydro-1,3,4-oxadiazol-2-yl)propyl)benzamide
_symmetry_cell_setting           monoclinic
_symmetry_space_group_name_H-M   'P 21'
_symmetry_Int_Tables_number      4
_space_group_name_Hall           'P 2yb'
loop_
_symmetry_equiv_pos_site_id
_symmetry_equiv_pos_as_xyz
1 x,y,z
2 -x,1/2+y,-z
_cell_length_a                   9.0513(10)
_cell_length_b                   9.5851(12)
_cell_length_c                   9.1530(11)
_cell_angle_alpha                90
_cell_angle_beta                 114.4660(10)
_cell_angle_gamma                90
_cell_volume                     722.789
_exptl_crystal_colour            colorless
_exptl_crystal_description       needle
_cell_formula_units_Z            2
loop_
_atom_site_label
_atom_site_type_symbol
_atom_site_fract_x
_atom_site_fract_y
_atom_site_fract_z
N1 N 0.6797(3) 0.0992(3) 0.0521(3)
H1 H 0.6099 0.0498 -0.0235
N2 N 0.6964(3) 0.2415(3) 0.0405(3)
N3 N 0.8500(3) 0.4586(2) 0.3662(2)
H2 H 0.9242 0.4500 0.4620
O1 O 0.8726(2) 0.1605(2) 0.27371(19)
O2 O 0.5969(2) 0.5260(2) 0.2065(2)
S1 S 0.81023(10) -0.11287(10) 0.26314(9)
C1 C 0.7827(3) 0.0459(3) 0.1921(3)
C2 C 0.8135(3) 0.2742(4) 0.1736(3)
C3 C 0.8825(3) 0.4157(3) 0.2286(3)
H3 H 0.8251 0.4809 0.1408
C4 C 1.0643(3) 0.4247(3) 0.2651(3)
H4 H 1.1243 0.3625 0.3553
C5 C 1.1271(4) 0.5731(3) 0.3119(4)
H5 H 1.2392 0.5776 0.3295
H6 H 1.1167 0.5991 0.4085
H7 H 1.0649 0.6361 0.2271
C6 C 1.0913(3) 0.3759(4) 0.1183(3)
H8 H 1.0284 0.4329 0.0274
H9 H 1.0580 0.2804 0.0953
H10 H 1.2042 0.3840 0.1403
C7 C 0.7035(3) 0.5117(3) 0.3423(3)
C8 C 0.6766(3) 0.5461(3) 0.4886(3)
C9 C 0.7318(3) 0.4625(3) 0.6221(4)
H11 H 0.7978 0.3866 0.6273
C10 C 0.6907(4) 0.4896(5) 0.7500(4)
H12 H 0.7229 0.4291 0.8371
C11 C 0.6018(4) 0.6071(5) 0.7457(5)
H13 H 0.5762 0.6278 0.8317
C12 C 0.5509(4) 0.6939(5) 0.6149(5)
H14 H 0.4926 0.7741 0.6137
C13 C 0.5852(3) 0.6634(4) 0.4851(4)
H15 H 0.5473 0.7212 0.3955
loop_
_geom_bond_atom_site_label_1
_geom_bond_atom_site_label_2
_geom_bond_site_symmetry_1
_geom_bond_site_symmetry_2
N1 H1 1_555 1_555
N2 N1 1_555 1_555
N3 H2 1_555 1_555
O1 C1 1_555 1_555
O2 C7 1_555 1_555
S1 C1 1_555 1_555
C1 N1 1_555 1_555
C2 N2 1_555 1_555
C3 N3 1_555 1_555
H3 C3 1_555 1_555
C4 C3 1_555 1_555
H4 C4 1_555 1_555
C5 C4 1_555 1_555
H5 C5 1_555 1_555
H6 C5 1_555 1_555
H7 C5 1_555 1_555
C6 C4 1_555 1_555
H8 C6 1_555 1_555
H9 C6 1_555 1_555
H10 C6 1_555 1_555
C7 N3 1_555 1_555
C8 C7 1_555 1_555
C9 C8 1_555 1_555
H11 C9 1_555 1_555
C10 C9 1_555 1_555
H12 C10 1_555 1_555
C11 C10 1_555 1_555
H13 C11 1_555 1_555
C12 C11 1_555 1_555
H14 C12 1_555 1_555
C13 C8 1_555 1_555
H15 C13 1_555 1_555
O1 C2 1_555 1_555
C2 C3 1_555 1_555
C12 C13 1_555 1_555

#END
