
#######################################################################
#
#                 Cambridge Crystallographic Data Centre
#                                CCDC 
#
#######################################################################
#
# If this CIF has been generated from an entry in the Cambridge 
# Structural Database, then it will include bibliographic, chemical, 
# crystal, experimental, refinement or atomic coordinate data resulting 
# from the CCDC's data processing and validation procedures.
#
#######################################################################

data_AQAWUM
_chemical_formula_moiety         'C14 H22 S2 Si2'
_chemical_name_systematic        2,3'-bithiene-5,5'-diylbis(trimethylsilane)
_symmetry_cell_setting           orthorhombic
_symmetry_space_group_name_H-M   'P 21 21 21'
_symmetry_Int_Tables_number      19
_space_group_name_Hall           'P 2ac 2ab'
loop_
_symmetry_equiv_pos_site_id
_symmetry_equiv_pos_as_xyz
1 x,y,z
2 1/2-x,-y,1/2+z
3 -x,1/2+y,1/2-z
4 1/2+x,1/2-y,-z
_cell_length_a                   6.4284(9)
_cell_length_b                   14.765(2)
_cell_length_c                   19.116(3)
_cell_angle_alpha                90
_cell_angle_beta                 90
_cell_angle_gamma                90
_cell_volume                     1814.4
_exptl_crystal_colour            colorless
_exptl_crystal_description       block
_cell_formula_units_Z            4
loop_
_atom_site_label
_atom_site_type_symbol
_atom_site_fract_x
_atom_site_fract_y
_atom_site_fract_z
S1 S 0.82833(10) 1.28361(4) 0.13221(3)
S2 S 0.53533(11) 0.98513(4) 0.18148(4)
Si1 Si 1.06526(11) 1.46464(4) 0.09670(4)
Si2 Si 0.80509(10) 0.81236(4) 0.14854(3)
C1 C 1.0393(4) 1.33849(15) 0.09531(11)
C2 C 1.1730(4) 1.27578(17) 0.06835(13)
H1 H 1.2954 1.2912 0.0453
C3 C 1.1077(4) 1.18449(16) 0.07879(13)
H2 H 1.1846 1.1348 0.0638
C4 C 0.9223(3) 1.17672(14) 0.11281(10)
C5 C 0.8094(4) 1.09509(14) 0.13322(11)
C6 C 0.8911(4) 1.00528(14) 0.12552(11)
H3 H 1.0207 0.9937 0.1059
C7 C 0.7622(4) 0.93766(14) 0.14948(11)
C8 C 0.6150(4) 1.09288(16) 0.16275(14)
H4 H 0.5355 1.1442 0.1716
C9 C 0.9297(5) 1.51430(18) 0.02005(14)
H5 H 0.9438 1.5790 0.0211
H6 H 0.7850 1.4984 0.0217
H7 H 0.9904 1.4912 -0.0222
C10 C 0.9455(6) 1.50900(19) 0.17882(14)
H8 H 0.9582 1.5738 0.1800
H9 H 1.0156 1.4835 0.2185
H10 H 0.8011 1.4926 0.1802
C11 C 1.3480(5) 1.4915(2) 0.0914(2)
H11 H 1.3667 1.5560 0.0920
H12 H 1.4042 1.4672 0.0489
H13 H 1.4187 1.4652 0.1307
C12 C 0.6842(5) 0.76215(19) 0.22825(15)
H14 H 0.7055 0.6978 0.2282
H15 H 0.5377 0.7748 0.2284
H16 H 0.7470 0.7880 0.2692
C13 C 1.0917(4) 0.7927(2) 0.14636(18)
H17 H 1.1490 0.8195 0.1049
H18 H 1.1189 0.7288 0.1463
H19 H 1.1546 0.8197 0.1868
C14 C 0.6788(5) 0.76390(18) 0.06936(15)
H20 H 0.7407 0.7896 0.0282
H21 H 0.5329 0.7777 0.0701
H22 H 0.6977 0.6994 0.0689
loop_
_geom_bond_atom_site_label_1
_geom_bond_atom_site_label_2
_geom_bond_site_symmetry_1
_geom_bond_site_symmetry_2
S1 C1 1_555 1_555
S2 C7 1_555 1_555
Si1 C1 1_555 1_555
Si2 C7 1_555 1_555
C1 C2 1_555 1_555
C2 H1 1_555 1_555
C3 C2 1_555 1_555
H2 C3 1_555 1_555
C4 S1 1_555 1_555
C5 C4 1_555 1_555
C6 C5 1_555 1_555
H3 C6 1_555 1_555
C7 C6 1_555 1_555
C8 S2 1_555 1_555
H4 C8 1_555 1_555
C9 Si1 1_555 1_555
H5 C9 1_555 1_555
H6 C9 1_555 1_555
H7 C9 1_555 1_555
C10 Si1 1_555 1_555
H8 C10 1_555 1_555
H9 C10 1_555 1_555
H10 C10 1_555 1_555
C11 Si1 1_555 1_555
H11 C11 1_555 1_555
H12 C11 1_555 1_555
H13 C11 1_555 1_555
C12 Si2 1_555 1_555
H14 C12 1_555 1_555
H15 C12 1_555 1_555
H16 C12 1_555 1_555
C13 Si2 1_555 1_555
H17 C13 1_555 1_555
H18 C13 1_555 1_555
H19 C13 1_555 1_555
C14 Si2 1_555 1_555
H20 C14 1_555 1_555
H21 C14 1_555 1_555
H22 C14 1_555 1_555
C3 C4 1_555 1_555
C5 C8 1_555 1_555

#END
