
#######################################################################
#
#                 Cambridge Crystallographic Data Centre
#                                CCDC 
#
#######################################################################
#
# If this CIF has been generated from an entry in the Cambridge 
# Structural Database, then it will include bibliographic, chemical, 
# crystal, experimental, refinement or atomic coordinate data resulting 
# from the CCDC's data processing and validation procedures.
#
#######################################################################

data_AQEBIJ
_chemical_formula_moiety         'C35 H35 N1 O11 S1,2(C2 H6 O1 S1),H2 O1'
_chemical_name_systematic        
'2-(3-(2-carboxy-5-methylphenoxy)-2-((2-carboxy-5-methylphenoxy)methyl)-2-(((4-methylphenyl)sulfonyl)amino)propoxy)-4-methylbenzoic acid dimethyl sulfoxide solvate monohydrate'
_symmetry_cell_setting           triclinic
_symmetry_space_group_name_H-M   'P -1'
_symmetry_Int_Tables_number      2
_space_group_name_Hall           '-P 1'
loop_
_symmetry_equiv_pos_site_id
_symmetry_equiv_pos_as_xyz
1 x,y,z
2 -x,-y,-z
_cell_length_a                   10.8235(9)
_cell_length_b                   11.5062(9)
_cell_length_c                   17.3496(14)
_cell_angle_alpha                89.269(7)
_cell_angle_beta                 88.734(7)
_cell_angle_gamma                79.065(7)
_cell_volume                     2120.84
_exptl_crystal_colour            colorless
_exptl_crystal_description       plate
_cell_formula_units_Z            2
loop_
_atom_site_label
_atom_site_type_symbol
_atom_site_fract_x
_atom_site_fract_y
_atom_site_fract_z
S1 S 1.10574(11) -0.00178(11) 0.33124(7)
O1 O 0.8604(3) 0.2888(3) 0.46749(17)
O2 O 0.6404(3) 0.4386(3) 0.46803(19)
O3 O 0.5877(3) 0.5036(4) 0.5865(2)
H1 H 0.5174 0.5155 0.5679
O4 O 0.8454(3) 0.2963(3) 0.28082(18)
O5 O 1.0353(4) 0.4100(4) 0.1013(3)
H2 H 1.1041 0.3715 0.0883
O6 O 1.0282(4) 0.2507(4) 0.1708(3)
O7 O 0.7375(3) 0.0060(3) 0.36982(17)
O8 O 0.5931(4) 0.0228(4) 0.2431(2)
O9 O 0.5063(5) -0.1335(4) 0.2311(2)
H3 H 0.5048 -0.1122 0.1858
O10 O 1.0925(3) -0.0641(3) 0.40206(19)
O11 O 1.2017(3) 0.0685(3) 0.3249(2)
N1 N 0.9682(3) 0.0774(3) 0.3110(2)
H4 H 0.9763 0.1255 0.2736
C1 C 0.8815(4) 0.1401(4) 0.3710(2)
C2 C 0.9520(4) 0.2081(4) 0.4257(3)
H5 H 1.0028 0.1535 0.4607
H6 H 1.0070 0.2504 0.3963
C3 C 0.8976(4) 0.3539(4) 0.5237(2)
C4 C 0.8019(4) 0.4364(4) 0.5604(3)
C5 C 0.8361(4) 0.5007(4) 0.6210(3)
H7 H 0.7743 0.5550 0.6462
C6 C 0.9584(4) 0.4868(4) 0.6449(3)
H8 H 0.9783 0.5316 0.6855
C7 C 1.0521(4) 0.4060(4) 0.6084(3)
C8 C 1.0205(4) 0.3403(4) 0.5488(3)
H9 H 1.0831 0.2854 0.5247
C9 C 1.1857(4) 0.3878(5) 0.6354(3)
H10 H 1.1900 0.3552 0.6867
H11 H 1.2132 0.4624 0.6354
H12 H 1.2392 0.3342 0.6014
C10 C 0.6708(4) 0.4588(4) 0.5341(3)
C11 C 0.7797(4) 0.2254(4) 0.3283(3)
H13 H 0.7306 0.1822 0.2972
H14 H 0.7236 0.2742 0.3645
C12 C 0.7789(4) 0.3751(4) 0.2295(3)
C13 C 0.6553(4) 0.4288(4) 0.2433(3)
H15 H 0.6120 0.4060 0.2860
C14 C 0.5948(5) 0.5168(4) 0.1940(3)
C15 C 0.6620(6) 0.5480(5) 0.1313(3)
H16 H 0.6234 0.6074 0.0982
C16 C 0.7853(6) 0.4935(5) 0.1161(3)
H17 H 0.8277 0.5153 0.0727
C17 C 0.8461(5) 0.4059(4) 0.1658(3)
C18 C 0.4607(5) 0.5770(5) 0.2114(4)
H18 H 0.4044 0.5418 0.1813
H19 H 0.4506 0.6597 0.1987
H20 H 0.4419 0.5679 0.2652
C19 C 0.9774(5) 0.3459(5) 0.1480(3)
C20 C 0.8168(4) 0.0557(4) 0.4189(3)
H21 H 0.8793 -0.0066 0.4411
H22 H 0.7674 0.0983 0.4605
C21 C 0.6598(4) -0.0616(4) 0.4025(3)
C22 C 0.5730(4) -0.0991(4) 0.3537(3)
C23 C 0.4932(5) -0.1693(4) 0.3856(3)
H23 H 0.4354 -0.1950 0.3542
C24 C 0.4973(5) -0.2014(4) 0.4618(3)
H24 H 0.4429 -0.2487 0.4813
C25 C 0.5812(4) -0.1645(4) 0.5099(3)
C26 C 0.6629(4) -0.0950(4) 0.4793(3)
H25 H 0.7209 -0.0707 0.5112
C27 C 0.5849(5) -0.1969(5) 0.5944(3)
H26 H 0.6151 -0.2804 0.6003
H27 H 0.5017 -0.1763 0.6167
H28 H 0.6402 -0.1545 0.6200
C28 C 0.5609(5) -0.0637(5) 0.2716(3)
C29 C 1.1311(4) -0.1025(4) 0.2547(3)
C30 C 1.0941(6) -0.2103(4) 0.2619(3)
H29 H 1.0572 -0.2310 0.3077
C31 C 1.1124(6) -0.2875(5) 0.2005(3)
H30 H 1.0877 -0.3603 0.2058
C32 C 1.1655(5) -0.2597(5) 0.1325(3)
C33 C 1.2018(5) -0.1517(6) 0.1277(3)
H31 H 1.2381 -0.1306 0.0818
C34 C 1.1868(5) -0.0740(5) 0.1877(3)
H32 H 1.2143 -0.0023 0.1828
C35 C 1.1830(7) -0.3438(6) 0.0646(4)
H33 H 1.2267 -0.4203 0.0810
H34 H 1.2311 -0.3137 0.0245
H35 H 1.1021 -0.3506 0.0454
S2 S 0.82452(16) 0.94453(19) 0.04729(11)
O12 O 0.6928(4) 0.9959(4) 0.0242(2)
C36 C 0.8551(8) 1.0299(8) 0.1245(5)
H36 H 0.8572 1.1089 0.1067
H37 H 0.9349 0.9956 0.1460
H38 H 0.7900 1.0323 0.1633
C37 C 0.8145(8) 0.8104(8) 0.0963(6)
H39 H 0.7520 0.8258 0.1370
H40 H 0.8946 0.7774 0.1179
H41 H 0.7913 0.7554 0.0608
S3 S 0.3526(2) 0.22915(17) 0.11004(12)
O13 O 0.2702(4) 0.3289(5) 0.0700(3)
C38 C 0.5067(7) 0.2530(7) 0.0900(5)
H42 H 0.5274 0.2378 0.0366
H43 H 0.5652 0.2006 0.1213
H44 H 0.5111 0.3335 0.1014
C39 C 0.3451(8) 0.2600(7) 0.2079(4)
H45 H 0.3543 0.3404 0.2153
H46 H 0.4115 0.2075 0.2336
H47 H 0.2653 0.2491 0.2290
O14 O 0.4908(4) 0.9110(5) 0.0830(2)
H48 H 0.5528 0.9394 0.0653
H49 H 0.4242 0.9434 0.0602
loop_
_geom_bond_atom_site_label_1
_geom_bond_atom_site_label_2
_geom_bond_site_symmetry_1
_geom_bond_site_symmetry_2
S1 O10 1_555 1_555
O1 C2 1_555 1_555
O2 C10 1_555 1_555
O3 H1 1_555 1_555
O4 C11 1_555 1_555
O5 H2 1_555 1_555
O6 C19 1_555 1_555
O7 C20 1_555 1_555
O8 C28 1_555 1_555
O9 H3 1_555 1_555
O11 S1 1_555 1_555
N1 S1 1_555 1_555
H4 N1 1_555 1_555
C1 N1 1_555 1_555
C2 C1 1_555 1_555
H5 C2 1_555 1_555
H6 C2 1_555 1_555
C3 O1 1_555 1_555
C4 C3 1_555 1_555
C5 C4 1_555 1_555
H7 C5 1_555 1_555
C6 C5 1_555 1_555
H8 C6 1_555 1_555
C7 C6 1_555 1_555
C8 C3 1_555 1_555
H9 C8 1_555 1_555
C9 C7 1_555 1_555
H10 C9 1_555 1_555
H11 C9 1_555 1_555
H12 C9 1_555 1_555
C10 O3 1_555 1_555
C11 C1 1_555 1_555
H13 C11 1_555 1_555
H14 C11 1_555 1_555
C12 O4 1_555 1_555
C13 C12 1_555 1_555
H15 C13 1_555 1_555
C14 C13 1_555 1_555
C15 C14 1_555 1_555
H16 C15 1_555 1_555
C16 C15 1_555 1_555
H17 C16 1_555 1_555
C17 C12 1_555 1_555
C18 C14 1_555 1_555
H18 C18 1_555 1_555
H19 C18 1_555 1_555
H20 C18 1_555 1_555
C19 O5 1_555 1_555
C20 C1 1_555 1_555
H21 C20 1_555 1_555
H22 C20 1_555 1_555
C21 O7 1_555 1_555
C22 C21 1_555 1_555
C23 C22 1_555 1_555
H23 C23 1_555 1_555
C24 C23 1_555 1_555
H24 C24 1_555 1_555
C25 C24 1_555 1_555
C26 C21 1_555 1_555
H25 C26 1_555 1_555
C27 C25 1_555 1_555
H26 C27 1_555 1_555
H27 C27 1_555 1_555
H28 C27 1_555 1_555
C28 O9 1_555 1_555
C29 S1 1_555 1_555
C30 C29 1_555 1_555
H29 C30 1_555 1_555
C31 C30 1_555 1_555
H30 C31 1_555 1_555
C32 C31 1_555 1_555
C33 C32 1_555 1_555
H31 C33 1_555 1_555
C34 C29 1_555 1_555
H32 C34 1_555 1_555
C35 C32 1_555 1_555
H33 C35 1_555 1_555
H34 C35 1_555 1_555
H35 C35 1_555 1_555
S2 O12 1_555 1_555
C36 S2 1_555 1_555
H36 C36 1_555 1_555
H37 C36 1_555 1_555
H38 C36 1_555 1_555
C37 S2 1_555 1_555
H39 C37 1_555 1_555
H40 C37 1_555 1_555
H41 C37 1_555 1_555
S3 O13 1_555 1_555
C38 S3 1_555 1_555
H42 C38 1_555 1_555
H43 C38 1_555 1_555
H44 C38 1_555 1_555
C39 S3 1_555 1_555
H45 C39 1_555 1_555
H46 C39 1_555 1_555
H47 C39 1_555 1_555
O14 H48 1_555 1_555
H49 O14 1_555 1_555
C4 C10 1_555 1_555
C7 C8 1_555 1_555
C16 C17 1_555 1_555
C17 C19 1_555 1_555
C22 C28 1_555 1_555
C25 C26 1_555 1_555
C33 C34 1_555 1_555

#END
