
#######################################################################
#
#                 Cambridge Crystallographic Data Centre
#                                CCDC 
#
#######################################################################
#
# If this CIF has been generated from an entry in the Cambridge 
# Structural Database, then it will include bibliographic, chemical, 
# crystal, experimental, refinement or atomic coordinate data resulting 
# from the CCDC's data processing and validation procedures.
#
#######################################################################

data_AQEDIL
_chemical_formula_moiety         'C54 H46 S2'
_chemical_name_systematic        
2,6-bis((4-hexylphenyl)ethynyl)-4,8-bis(phenylethynyl)thieno[2,3-f][1]benzothiophene
_symmetry_cell_setting           monoclinic
_symmetry_space_group_name_H-M   'P 21/c'
_symmetry_Int_Tables_number      14
_space_group_name_Hall           '-P 2ybc'
loop_
_symmetry_equiv_pos_site_id
_symmetry_equiv_pos_as_xyz
1 x,y,z
2 -x,1/2+y,1/2-z
3 -x,-y,-z
4 x,1/2-y,1/2+z
_cell_length_a                   9.453(3)
_cell_length_b                   23.472(8)
_cell_length_c                   10.814(4)
_cell_angle_alpha                90
_cell_angle_beta                 115.077(6)
_cell_angle_gamma                90
_cell_volume                     2173.25
_exptl_crystal_colour            orange
_exptl_crystal_description       block
_cell_formula_units_Z            2
loop_
_atom_site_label
_atom_site_type_symbol
_atom_site_fract_x
_atom_site_fract_y
_atom_site_fract_z
S1 S 0.3817(2) 0.95293(8) 0.20679(17)
C1 C 0.4328(3) 1.07574(13) 0.1991(2)
H1 H 0.4412 1.1154 0.2183
C2 C 0.3274(6) 0.7390(2) 0.0577(5)
H2 H 0.2838 0.7606 0.1073
C3 C 0.3034(8) 0.6809(2) 0.0448(6)
H3 H 0.2436 0.6632 0.0860
C4 C 0.3645(7) 0.6479(3) -0.0265(6)
H4 H 0.3472 0.6079 -0.0348
C5 C 0.4522(7) 0.6746(3) -0.0863(7)
H5 H 0.4954 0.6523 -0.1352
C6 C 0.4770(7) 0.7324(2) -0.0757(5)
H6 H 0.5358 0.7496 -0.1183
C7 C 0.4157(6) 0.7667(2) -0.0018(5)
C8 C 0.4388(5) 0.8271(2) 0.0056(5)
C9 C 0.4570(6) 0.8780(2) 0.0055(5)
C10 C 0.4780(5) 0.9385(2) 0.0024(4)
C11 C 0.4473(5) 0.9771(2) 0.0914(4)
C12 C 0.4678(5) 1.0358(2) 0.0893(5)
C13 C 0.3780(5) 1.0208(2) 0.2627(4)
C14 C 0.3253(5) 1.0289(2) 0.3680(4)
C15 C 0.2762(5) 1.0341(2) 0.4542(4)
C16 C 0.2192(5) 1.0400(2) 0.5586(4)
C17 C 0.1873(5) 0.9917(2) 0.6187(4)
H7 H 0.2010 0.9547 0.5894
C18 C 0.1357(5) 0.9975(2) 0.7212(5)
H8 H 0.1172 0.9643 0.7622
C19 C 0.1105(5) 1.0510(2) 0.7650(4)
C20 C 0.1424(6) 1.0996(2) 0.7047(5)
H9 H 0.1281 1.1364 0.7339
C21 C 0.1950(6) 1.0940(2) 0.6020(5)
H10 H 0.2144 1.1272 0.5613
C22 C 0.0531(6) 1.0545(2) 0.8780(5)
H11 H -0.0552 1.0397 0.8411
H12 H 0.1186 1.0290 0.9535
C23 C 0.0552(6) 1.1139(2) 0.9369(5)
H13 H -0.0197 1.1386 0.8646
H14 H 0.1606 1.1305 0.9660
C24 C 0.0122(6) 1.1131(2) 1.0607(5)
H15 H -0.0994 1.1028 1.0281
H16 H 0.0747 1.0833 1.1257
C25 C 0.0405(7) 1.1699(2) 1.1351(5)
H17 H -0.0206 1.1998 1.0697
H18 H 0.1525 1.1799 1.1690
C26 C -0.0048(7) 1.1693(2) 1.2563(5)
H19 H -0.1175 1.1606 1.2221
H20 H 0.0540 1.1387 1.3205
C27 C 0.0290(8) 1.2261(3) 1.3323(6)
H21 H -0.0019 1.2238 1.4079
H22 H -0.0303 1.2564 1.2695
H23 H 0.1409 1.2344 1.3683
S1B S 0.6183(2) 1.04707(8) -0.20679(17)
C1B C 0.5672(3) 0.92426(13) -0.1991(2)
H1B H 0.5588 0.8846 -0.2183
C2B C 0.6726(6) 1.2610(2) -0.0577(5)
H2B H 0.7162 1.2394 -0.1073
C3B C 0.6966(8) 1.3191(2) -0.0448(6)
H3B H 0.7564 1.3368 -0.0860
C4B C 0.6355(7) 1.3521(3) 0.0265(6)
H4B H 0.6528 1.3921 0.0348
C5B C 0.5478(7) 1.3254(3) 0.0863(7)
H5B H 0.5046 1.3477 0.1352
C6B C 0.5230(7) 1.2676(2) 0.0757(5)
H6B H 0.4642 1.2504 0.1183
C7B C 0.5843(6) 1.2333(2) 0.0018(5)
C8B C 0.5612(5) 1.1729(2) -0.0056(5)
C9B C 0.5430(6) 1.1220(2) -0.0055(5)
C10B C 0.5220(5) 1.0615(2) -0.0024(4)
C11B C 0.5527(5) 1.0229(2) -0.0914(4)
C12B C 0.5322(5) 0.9642(2) -0.0893(5)
C13B C 0.6220(5) 0.9792(2) -0.2627(4)
C14B C 0.6747(5) 0.9711(2) -0.3680(4)
C15B C 0.7238(5) 0.9659(2) -0.4542(4)
C16B C 0.7808(5) 0.9600(2) -0.5586(4)
C17B C 0.8127(5) 1.0083(2) -0.6187(4)
H7B H 0.7990 1.0453 -0.5894
C18B C 0.8643(5) 1.0025(2) -0.7212(5)
H8B H 0.8828 1.0357 -0.7622
C19B C 0.8895(5) 0.9490(2) -0.7650(4)
C20B C 0.8576(6) 0.9004(2) -0.7047(5)
H9B H 0.8719 0.8636 -0.7339
C21B C 0.8050(6) 0.9060(2) -0.6020(5)
H10B H 0.7856 0.8728 -0.5613
C22B C 0.9469(6) 0.9455(2) -0.8780(5)
H11B H 1.0552 0.9603 -0.8411
H12B H 0.8814 0.9710 -0.9535
C23B C 0.9448(6) 0.8861(2) -0.9369(5)
H13B H 1.0197 0.8614 -0.8646
H14B H 0.8394 0.8695 -0.9660
C24B C 0.9878(6) 0.8869(2) -1.0607(5)
H15B H 1.0994 0.8972 -1.0281
H16B H 0.9253 0.9167 -1.1257
C25B C 0.9595(7) 0.8301(2) -1.1351(5)
H17B H 1.0206 0.8002 -1.0697
H18B H 0.8475 0.8201 -1.1690
C26B C 1.0048(7) 0.8307(2) -1.2563(5)
H19B H 1.1175 0.8394 -1.2221
H20B H 0.9460 0.8613 -1.3205
C27B C 0.9710(8) 0.7739(3) -1.3323(6)
H21B H 1.0019 0.7762 -1.4079
H22B H 1.0303 0.7436 -1.2695
H23B H 0.8591 0.7656 -1.3683
S2? S 0.4328(3) 1.07574(13) 0.1991(2)
C28? C 0.3817(2) 0.95293(8) 0.20679(17)
H24? H 0.3572 0.9165 0.2304
loop_
_geom_bond_atom_site_label_1
_geom_bond_atom_site_label_2
_geom_bond_site_symmetry_1
_geom_bond_site_symmetry_2
S1 C11 1_555 1_555
C1 H1 1_555 1_555
C2 H2 1_555 1_555
C3 C2 1_555 1_555
H3 C3 1_555 1_555
C4 C3 1_555 1_555
H4 C4 1_555 1_555
C5 C4 1_555 1_555
H5 C5 1_555 1_555
C6 C5 1_555 1_555
H6 C6 1_555 1_555
C7 C2 1_555 1_555
C8 C7 1_555 1_555
C9 C8 1_555 1_555
C10 C9 1_555 1_555
C11 C10 1_555 1_555
C12 C1 1_555 1_555
C13 S1 1_555 1_555
C14 C13 1_555 1_555
C15 C14 1_555 1_555
C16 C15 1_555 1_555
C17 C16 1_555 1_555
H7 C17 1_555 1_555
C18 C17 1_555 1_555
H8 C18 1_555 1_555
C19 C18 1_555 1_555
C20 C19 1_555 1_555
H9 C20 1_555 1_555
C21 C16 1_555 1_555
H10 C21 1_555 1_555
C22 C19 1_555 1_555
H11 C22 1_555 1_555
H12 C22 1_555 1_555
C23 C22 1_555 1_555
H13 C23 1_555 1_555
H14 C23 1_555 1_555
C24 C23 1_555 1_555
H15 C24 1_555 1_555
H16 C24 1_555 1_555
C25 C24 1_555 1_555
H17 C25 1_555 1_555
H18 C25 1_555 1_555
C26 C25 1_555 1_555
H19 C26 1_555 1_555
H20 C26 1_555 1_555
C27 C26 1_555 1_555
H21 C27 1_555 1_555
H22 C27 1_555 1_555
H23 C27 1_555 1_555
S1B C11B 1_555 1_555
C1B H1B 1_555 1_555
C2B H2B 1_555 1_555
C3B C2B 1_555 1_555
H3B C3B 1_555 1_555
C4B C3B 1_555 1_555
H4B C4B 1_555 1_555
C5B C4B 1_555 1_555
H5B C5B 1_555 1_555
C6B C5B 1_555 1_555
H6B C6B 1_555 1_555
C7B C2B 1_555 1_555
C8B C7B 1_555 1_555
C9B C8B 1_555 1_555
C10B C12 1_555 1_555
C11B C10B 1_555 1_555
C12B C10 1_555 1_555
C13B S1B 1_555 1_555
C14B C13B 1_555 1_555
C15B C14B 1_555 1_555
C16B C15B 1_555 1_555
C17B C16B 1_555 1_555
H7B C17B 1_555 1_555
C18B C17B 1_555 1_555
H8B C18B 1_555 1_555
C19B C18B 1_555 1_555
C20B C19B 1_555 1_555
H9B C20B 1_555 1_555
C21B C16B 1_555 1_555
H10B C21B 1_555 1_555
C22B C19B 1_555 1_555
H11B C22B 1_555 1_555
H12B C22B 1_555 1_555
C23B C22B 1_555 1_555
H13B C23B 1_555 1_555
H14B C23B 1_555 1_555
C24B C23B 1_555 1_555
H15B C24B 1_555 1_555
H16B C24B 1_555 1_555
C25B C24B 1_555 1_555
H17B C25B 1_555 1_555
H18B C25B 1_555 1_555
C26B C25B 1_555 1_555
H19B C26B 1_555 1_555
H20B C26B 1_555 1_555
C27B C26B 1_555 1_555
H21B C27B 1_555 1_555
H22B C27B 1_555 1_555
H23B C27B 1_555 1_555
C1 C13 1_555 1_555
C6 C7 1_555 1_555
C11 C12 1_555 1_555
C20 C21 1_555 1_555
C1B C12B 1_555 1_555
C1B C13B 1_555 1_555
C6B C7B 1_555 1_555
C9B C10B 1_555 1_555
C11B C12B 1_555 1_555
C20B C21B 1_555 1_555

#END
