
#######################################################################
#
#                 Cambridge Crystallographic Data Centre
#                                CCDC 
#
#######################################################################
#
# If this CIF has been generated from an entry in the Cambridge 
# Structural Database, then it will include bibliographic, chemical, 
# crystal, experimental, refinement or atomic coordinate data resulting 
# from the CCDC's data processing and validation procedures.
#
#######################################################################

data_AQEDOR
_chemical_formula_moiety         'C54 H46 S2'
_chemical_name_systematic        
4,8-bis((4-hexylphenyl)ethynyl)-2,6-bis(phenylethynyl)thieno[2,3-f][1]benzothiophene
_symmetry_cell_setting           monoclinic
_symmetry_space_group_name_H-M   'P 21/c'
_symmetry_Int_Tables_number      14
_space_group_name_Hall           '-P 2ybc'
loop_
_symmetry_equiv_pos_site_id
_symmetry_equiv_pos_as_xyz
1 x,y,z
2 -x,1/2+y,1/2-z
3 -x,-y,-z
4 x,1/2-y,1/2+z
_cell_length_a                   19.400(2)
_cell_length_b                   5.0590(6)
_cell_length_c                   22.602(3)
_cell_angle_alpha                90
_cell_angle_beta                 102.273(3)
_cell_angle_gamma                90
_cell_volume                     2167.57
_exptl_crystal_colour            yellow
_exptl_crystal_description       prismatic
_cell_formula_units_Z            2
loop_
_atom_site_label
_atom_site_type_symbol
_atom_site_fract_x
_atom_site_fract_y
_atom_site_fract_z
S1 S 0.37874(7) 0.6738(3) 0.42261(6)
C1 C 0.5084(4) 0.606(2) 0.4131(5)
H1 H 0.5477 0.5420 0.4002
C2 C 0.42094(18) -0.1429(6) 0.22882(14)
H2 H 0.4658 -0.0712 0.2328
C3 C 0.3993(2) -0.3400(7) 0.18733(15)
H3 H 0.4297 -0.4009 0.1636
C4 C 0.3344(2) -0.4461(8) 0.18077(15)
H4 H 0.3200 -0.5793 0.1525
C5 C 0.2896(2) -0.3577(8) 0.21579(17)
H5 H 0.2450 -0.4325 0.2114
C6 C 0.31023(18) -0.1571(7) 0.25785(15)
H6 H 0.2794 -0.0959 0.2811
C7 C 0.37680(16) -0.0495(6) 0.26482(12)
C8 C 0.39966(15) 0.1509(6) 0.30903(13)
C9 C 0.41855(16) 0.3174(6) 0.34643(13)
C10 C 0.44194(18) 0.5150(6) 0.39074(13)
C11 C 0.51303(15) 0.8125(5) 0.45894(11)
C12 C 0.44391(15) 0.8605(6) 0.46638(12)
C13 C 0.57055(15) 0.9522(6) 0.49261(12)
C14 C 0.64046(17) 0.8997(6) 0.48532(13)
C15 C 0.69808(17) 0.8422(7) 0.47814(14)
C16 C 0.76472(16) 0.7741(7) 0.46531(14)
C17 C 0.82487(18) 0.9126(9) 0.48876(18)
H7 H 0.8233 1.0518 0.5153
C18 C 0.8878(2) 0.8476(10) 0.4734(2)
H8 H 0.9282 0.9432 0.4901
C19 C 0.8924(2) 0.6457(10) 0.43394(19)
C20 C 0.8325(2) 0.5088(9) 0.4117(2)
H9 H 0.8343 0.3700 0.3851
C21 C 0.76961(19) 0.5660(8) 0.42675(19)
H10 H 0.7299 0.4647 0.4110
C22 C 0.9582(11) 0.547(6) 0.4130(12)
H11 H 0.9977 0.5396 0.4474
H12 H 0.9497 0.3697 0.3967
C23 C 0.9761(11) 0.728(6) 0.3651(11)
H13 H 0.9687 0.9076 0.3772
H14 H 0.9417 0.6947 0.3279
C24 C 1.0508(13) 0.718(3) 0.3490(11)
H15 H 1.0496 0.8158 0.3119
H16 H 1.0849 0.8025 0.3811
C25 C 1.0728(13) 0.446(4) 0.3414(13)
H17 H 1.0336 0.3508 0.3166
H18 H 1.0838 0.3609 0.3808
C26 C 1.1371(8) 0.424(6) 0.3121(9)
H19 H 1.1352 0.2576 0.2907
H20 H 1.1353 0.5656 0.2828
C27 C 1.2050(9) 0.441(6) 0.3576(8)
H21 H 1.2113 0.6176 0.3734
H22 H 1.2433 0.3968 0.3387
H23 H 1.2040 0.3195 0.3900
S1B S 0.62126(7) 1.3262(3) 0.57739(6)
C1B C 0.4916(4) 1.394(2) 0.5869(5)
H1B H 0.4523 1.4580 0.5998
C2B C 0.57906(18) 2.1429(6) 0.77118(14)
H2B H 0.5342 2.0712 0.7672
C3B C 0.6007(2) 2.3400(7) 0.81267(15)
H3B H 0.5703 2.4009 0.8364
C4B C 0.6656(2) 2.4461(8) 0.81923(15)
H4B H 0.6800 2.5793 0.8475
C5B C 0.7104(2) 2.3577(8) 0.78421(17)
H5B H 0.7550 2.4325 0.7886
C6B C 0.68977(18) 2.1571(7) 0.74215(15)
H6B H 0.7206 2.0959 0.7189
C7B C 0.62320(16) 2.0495(6) 0.73518(12)
C8B C 0.60034(15) 1.8491(6) 0.69097(13)
C9B C 0.58145(16) 1.6826(6) 0.65357(13)
C10B C 0.55806(18) 1.4850(6) 0.60926(13)
C11B C 0.48697(15) 1.1875(5) 0.54106(11)
C12B C 0.55609(15) 1.1395(6) 0.53362(12)
C13B C 0.42945(15) 1.0478(6) 0.50739(12)
C14B C 0.35954(17) 1.1003(6) 0.51468(13)
C15B C 0.30192(17) 1.1578(7) 0.52186(14)
C16B C 0.23528(16) 1.2259(7) 0.53469(14)
C17B C 0.17513(18) 1.0874(9) 0.51124(18)
H7B H 0.1767 0.9482 0.4847
C18B C 0.1122(2) 1.1524(10) 0.5266(2)
H8B H 0.0718 1.0568 0.5099
C19B C 0.1076(2) 1.3543(10) 0.56606(19)
C20B C 0.1675(2) 1.4912(9) 0.5883(2)
H9B H 0.1657 1.6300 0.6149
C21B C 0.23039(19) 1.4340(8) 0.57325(19)
H10B H 0.2701 1.5353 0.5890
C22B C 0.0418(11) 1.453(6) 0.5870(12)
H11B H 0.0023 1.4604 0.5526
H12B H 0.0503 1.6303 0.6033
C23B C 0.0239(11) 1.272(6) 0.6349(11)
H13B H 0.0313 1.0924 0.6228
H14B H 0.0583 1.3053 0.6721
C24B C -0.0508(13) 1.282(3) 0.6510(11)
H15B H -0.0496 1.1842 0.6881
H16B H -0.0849 1.1975 0.6189
C25B C -0.0728(13) 1.554(4) 0.6586(13)
H17B H -0.0336 1.6492 0.6834
H18B H -0.0838 1.6391 0.6192
C26B C -0.1371(8) 1.576(6) 0.6879(9)
H19B H -0.1352 1.7424 0.7093
H20B H -0.1353 1.4344 0.7172
C27B C -0.2050(9) 1.559(6) 0.6424(8)
H21B H -0.2113 1.3824 0.6266
H22B H -0.2433 1.6032 0.6613
H23B H -0.2040 1.6805 0.6100
S2? S 0.5329(3) 0.5876(13) 0.4082(3)
C28? C 0.4151(7) 0.656(4) 0.4251(8)
H24? H 0.3677 0.6219 0.4235
C29? C 0.9655(10) 0.604(6) 0.4189(10)
H25? H 0.9989 0.7302 0.4409
H26? H 0.9825 0.4270 0.4307
C30? C 0.9581(10) 0.641(5) 0.3514(9)
H27? H 0.9480 0.8258 0.3420
H28? H 0.9175 0.5398 0.3307
C31? C 1.0224(6) 0.560(5) 0.3248(7)
H29? H 1.0163 0.3763 0.3123
H30? H 1.0213 0.6641 0.2886
C32? C 1.0945(6) 0.588(5) 0.3649(8)
H31? H 1.1000 0.4494 0.3952
H32? H 1.0959 0.7553 0.3861
C33? C 1.1592(13) 0.578(4) 0.3353(16)
H33? H 1.1445 0.6247 0.2929
H34? H 1.1934 0.7079 0.3545
C34? C 1.1937(15) 0.313(4) 0.3400(14)
H35? H 1.1968 0.2435 0.3800
H36? H 1.2402 0.3294 0.3321
H37? H 1.1662 0.1952 0.3109
loop_
_geom_bond_atom_site_label_1
_geom_bond_atom_site_label_2
_geom_bond_site_symmetry_1
_geom_bond_site_symmetry_2
S1 C10 1_555 1_555
C1 H1 1_555 1_555
C2 H2 1_555 1_555
C3 C2 1_555 1_555
H3 C3 1_555 1_555
C4 C3 1_555 1_555
H4 C4 1_555 1_555
C5 C4 1_555 1_555
H5 C5 1_555 1_555
C6 C5 1_555 1_555
H6 C6 1_555 1_555
C7 C2 1_555 1_555
C8 C7 1_555 1_555
C9 C8 1_555 1_555
C10 C1 1_555 1_555
C11 C1 1_555 1_555
C12 S1 1_555 1_555
C13 C11 1_555 1_555
C14 C13 1_555 1_555
C15 C14 1_555 1_555
C16 C15 1_555 1_555
C17 C16 1_555 1_555
H7 C17 1_555 1_555
C18 C17 1_555 1_555
H8 C18 1_555 1_555
C19 C18 1_555 1_555
C20 C19 1_555 1_555
H9 C20 1_555 1_555
C21 C16 1_555 1_555
H10 C21 1_555 1_555
C22 C19 1_555 1_555
H11 C22 1_555 1_555
H12 C22 1_555 1_555
C23 C22 1_555 1_555
H13 C23 1_555 1_555
H14 C23 1_555 1_555
C24 C23 1_555 1_555
H15 C24 1_555 1_555
H16 C24 1_555 1_555
C25 C24 1_555 1_555
H17 C25 1_555 1_555
H18 C25 1_555 1_555
C26 C25 1_555 1_555
H19 C26 1_555 1_555
H20 C26 1_555 1_555
C27 C26 1_555 1_555
H21 C27 1_555 1_555
H22 C27 1_555 1_555
H23 C27 1_555 1_555
S1B C10B 1_555 1_555
C1B H1B 1_555 1_555
C2B H2B 1_555 1_555
C3B C2B 1_555 1_555
H3B C3B 1_555 1_555
C4B C3B 1_555 1_555
H4B C4B 1_555 1_555
C5B C4B 1_555 1_555
H5B C5B 1_555 1_555
C6B C5B 1_555 1_555
H6B C6B 1_555 1_555
C7B C2B 1_555 1_555
C8B C7B 1_555 1_555
C9B C8B 1_555 1_555
C10B C1B 1_555 1_555
C11B C1B 1_555 1_555
C12B C13 1_555 1_555
C13B C12 1_555 1_555
C14B C13B 1_555 1_555
C15B C14B 1_555 1_555
C16B C15B 1_555 1_555
C17B C16B 1_555 1_555
H7B C17B 1_555 1_555
C18B C17B 1_555 1_555
H8B C18B 1_555 1_555
C19B C18B 1_555 1_555
C20B C19B 1_555 1_555
H9B C20B 1_555 1_555
C21B C16B 1_555 1_555
H10B C21B 1_555 1_555
C22B C19B 1_555 1_555
H11B C22B 1_555 1_555
H12B C22B 1_555 1_555
C23B C22B 1_555 1_555
H13B C23B 1_555 1_555
H14B C23B 1_555 1_555
C24B C23B 1_555 1_555
H15B C24B 1_555 1_555
H16B C24B 1_555 1_555
C25B C24B 1_555 1_555
H17B C25B 1_555 1_555
H18B C25B 1_555 1_555
C26B C25B 1_555 1_555
H19B C26B 1_555 1_555
H20B C26B 1_555 1_555
C27B C26B 1_555 1_555
H21B C27B 1_555 1_555
H22B C27B 1_555 1_555
H23B C27B 1_555 1_555
C6 C7 1_555 1_555
C9 C10 1_555 1_555
C11 C12 1_555 1_555
C20 C21 1_555 1_555
S1B C12B 1_555 1_555
C6B C7B 1_555 1_555
C9B C10B 1_555 1_555
C11B C12B 1_555 1_555
C11B C13B 1_555 1_555
C20B C21B 1_555 1_555

#END
