
#######################################################################
#
#                 Cambridge Crystallographic Data Centre
#                                CCDC 
#
#######################################################################
#
# If this CIF has been generated from an entry in the Cambridge 
# Structural Database, then it will include bibliographic, chemical, 
# crystal, experimental, refinement or atomic coordinate data resulting 
# from the CCDC's data processing and validation procedures.
#
#######################################################################

data_AQEDEH
_chemical_formula_moiety         'C42 H22 S2'
_chemical_name_systematic        
2,4,6,8-tetrakis(phenylethynyl)thieno[2,3-f][1]benzothiophene
_symmetry_cell_setting           monoclinic
_symmetry_space_group_name_H-M   'P 21/n'
_symmetry_Int_Tables_number      14
_space_group_name_Hall           '-P 2yn'
loop_
_symmetry_equiv_pos_site_id
_symmetry_equiv_pos_as_xyz
1 x,y,z
2 1/2-x,1/2+y,1/2-z
3 -x,-y,-z
4 1/2+x,1/2-y,1/2+z
_cell_length_a                   3.926(2)
_cell_length_b                   29.897(15)
_cell_length_c                   12.602(7)
_cell_angle_alpha                90
_cell_angle_beta                 96.092(9)
_cell_angle_gamma                90
_cell_volume                     1470.81
_exptl_crystal_colour            yellow
_exptl_crystal_description       prism
_cell_formula_units_Z            2
loop_
_atom_site_label
_atom_site_type_symbol
_atom_site_fract_x
_atom_site_fract_y
_atom_site_fract_z
S1 S 0.2216(3) 0.90117(3) 0.03550(8)
C1 C 0.8402(10) 0.75399(13) -0.1260(3)
H1 H 0.8391 0.7605 -0.0522
C2 C 0.9808(10) 0.71409(13) -0.1583(4)
H2 H 1.0767 0.6935 -0.1061
C3 C 0.9827(10) 0.70417(13) -0.2648(4)
H3 H 1.0786 0.6768 -0.2860
C4 C 0.8442(11) 0.73424(14) -0.3407(4)
H4 H 0.8435 0.7274 -0.4144
C5 C 0.7064(10) 0.77421(13) -0.3101(3)
H5 H 0.6151 0.7949 -0.3630
C6 C 0.7004(9) 0.78444(12) -0.2030(3)
C7 C 0.5614(9) 0.82625(12) -0.1670(3)
C8 C 0.4538(9) 0.85985(13) -0.1355(3)
C9 C 0.3242(8) 0.90034(11) -0.0953(3)
C10 C 0.2695(8) 0.94155(10) -0.1565(3)
H6 H 0.3121 0.9469 -0.2282
C11 C 0.1294(8) 0.97382(11) -0.0795(3)
C12 C 0.0942(9) 0.95626(11) 0.0229(3)
C13 C -0.0348(9) 0.98120(11) 0.1038(3)
C14 C -0.0634(9) 0.96234(12) 0.2068(3)
C15 C -0.0819(9) 0.94584(12) 0.2920(3)
C16 C -0.0926(9) 0.92642(12) 0.3957(3)
C17 C -0.2202(9) 0.95150(12) 0.4767(3)
H7 H -0.3082 0.9807 0.4618
C18 C -0.2185(10) 0.93398(14) 0.5781(3)
H8 H -0.3001 0.9515 0.6330
C19 C -0.0983(10) 0.89091(14) 0.6004(3)
H9 H -0.1004 0.8788 0.6700
C20 C 0.0241(10) 0.86599(13) 0.5205(3)
H10 H 0.1072 0.8366 0.5358
C21 C 0.0281(10) 0.88309(12) 0.4180(3)
H11 H 0.1120 0.8655 0.3636
S1B S -0.2216(3) 1.09883(3) -0.03550(8)
C1B C -0.8402(10) 1.24601(13) 0.1260(3)
H1B H -0.8391 1.2395 0.0522
C2B C -0.9808(10) 1.28591(13) 0.1583(4)
H2B H -1.0767 1.3065 0.1061
C3B C -0.9827(10) 1.29583(13) 0.2648(4)
H3B H -1.0786 1.3232 0.2860
C4B C -0.8442(11) 1.26576(14) 0.3407(4)
H4B H -0.8435 1.2726 0.4144
C5B C -0.7064(10) 1.22579(13) 0.3101(3)
H5B H -0.6151 1.2051 0.3630
C6B C -0.7004(9) 1.21556(12) 0.2030(3)
C7B C -0.5614(9) 1.17375(12) 0.1670(3)
C8B C -0.4538(9) 1.14015(13) 0.1355(3)
C9B C -0.3242(8) 1.09966(11) 0.0953(3)
C10B C -0.2695(8) 1.05845(10) 0.1565(3)
H6B H -0.3121 1.0531 0.2282
C11B C -0.1294(8) 1.02618(11) 0.0795(3)
C12B C -0.0942(9) 1.04374(11) -0.0229(3)
C13B C 0.0348(9) 1.01880(11) -0.1038(3)
C14B C 0.0634(9) 1.03766(12) -0.2068(3)
C15B C 0.0819(9) 1.05416(12) -0.2920(3)
C16B C 0.0926(9) 1.07358(12) -0.3957(3)
C17B C 0.2202(9) 1.04850(12) -0.4767(3)
H7B H 0.3082 1.0193 -0.4618
C18B C 0.2185(10) 1.06602(14) -0.5781(3)
H8B H 0.3001 1.0485 -0.6330
C19B C 0.0983(10) 1.10909(14) -0.6004(3)
H9B H 0.1004 1.1212 -0.6700
C20B C -0.0241(10) 1.13401(13) -0.5205(3)
H10B H -0.1072 1.1634 -0.5358
C21B C -0.0281(10) 1.11691(12) -0.4180(3)
H11B H -0.1120 1.1345 -0.3636
loop_
_geom_bond_atom_site_label_1
_geom_bond_atom_site_label_2
_geom_bond_site_symmetry_1
_geom_bond_site_symmetry_2
S1 C9 1_555 1_555
C1 H1 1_555 1_555
C2 C1 1_555 1_555
H2 C2 1_555 1_555
C3 C2 1_555 1_555
H3 C3 1_555 1_555
C4 C3 1_555 1_555
H4 C4 1_555 1_555
C5 C4 1_555 1_555
H5 C5 1_555 1_555
C6 C1 1_555 1_555
C7 C6 1_555 1_555
C8 C7 1_555 1_555
C9 C8 1_555 1_555
C10 C9 1_555 1_555
H6 C10 1_555 1_555
C11 C10 1_555 1_555
C12 S1 1_555 1_555
C13 C12 1_555 1_555
C14 C13 1_555 1_555
C15 C14 1_555 1_555
C16 C15 1_555 1_555
C17 C16 1_555 1_555
H7 C17 1_555 1_555
C18 C17 1_555 1_555
H8 C18 1_555 1_555
C19 C18 1_555 1_555
H9 C19 1_555 1_555
C20 C19 1_555 1_555
H10 C20 1_555 1_555
C21 C16 1_555 1_555
H11 C21 1_555 1_555
S1B C9B 1_555 1_555
C1B H1B 1_555 1_555
C2B C1B 1_555 1_555
H2B C2B 1_555 1_555
C3B C2B 1_555 1_555
H3B C3B 1_555 1_555
C4B C3B 1_555 1_555
H4B C4B 1_555 1_555
C5B C4B 1_555 1_555
H5B C5B 1_555 1_555
C6B C1B 1_555 1_555
C7B C6B 1_555 1_555
C8B C7B 1_555 1_555
C9B C8B 1_555 1_555
C10B C9B 1_555 1_555
H6B C10B 1_555 1_555
C11B C13 1_555 1_555
C12B S1B 1_555 1_555
C13B C11 1_555 1_555
C14B C13B 1_555 1_555
C15B C14B 1_555 1_555
C16B C15B 1_555 1_555
C17B C16B 1_555 1_555
H7B C17B 1_555 1_555
C18B C17B 1_555 1_555
H8B C18B 1_555 1_555
C19B C18B 1_555 1_555
H9B C19B 1_555 1_555
C20B C19B 1_555 1_555
H10B C20B 1_555 1_555
C21B C16B 1_555 1_555
H11B C21B 1_555 1_555
C5 C6 1_555 1_555
C11 C12 1_555 1_555
C20 C21 1_555 1_555
C5B C6B 1_555 1_555
C10B C11B 1_555 1_555
C11B C12B 1_555 1_555
C12B C13B 1_555 1_555
C20B C21B 1_555 1_555

#END
