
#######################################################################
#
#                 Cambridge Crystallographic Data Centre
#                                CCDC 
#
#######################################################################
#
# If this CIF has been generated from an entry in the Cambridge 
# Structural Database, then it will include bibliographic, chemical, 
# crystal, experimental, refinement or atomic coordinate data resulting 
# from the CCDC's data processing and validation procedures.
#
#######################################################################

data_AQEHUB
_chemical_formula_moiety         'C14 H19 B1 Br2 O2'
_chemical_name_systematic        
2-(2,4-bis(bromomethyl)phenyl)-4,4,5,5-tetramethyl-1,3,2-dioxaborolane
_symmetry_cell_setting           monoclinic
_symmetry_space_group_name_H-M   'P 21/n'
_symmetry_Int_Tables_number      14
_space_group_name_Hall           '-P 2yn'
loop_
_symmetry_equiv_pos_site_id
_symmetry_equiv_pos_as_xyz
1 x,y,z
2 1/2-x,1/2+y,1/2-z
3 -x,-y,-z
4 1/2+x,1/2-y,1/2+z
_cell_length_a                   7.7199(3)
_cell_length_b                   20.8635(8)
_cell_length_c                   10.0650(3)
_cell_angle_alpha                90
_cell_angle_beta                 102.553(4)
_cell_angle_gamma                90
_cell_volume                     1582.36
_exptl_crystal_colour            colorless
_exptl_crystal_description       block
_cell_formula_units_Z            4
loop_
_atom_site_label
_atom_site_type_symbol
_atom_site_fract_x
_atom_site_fract_y
_atom_site_fract_z
Br1 Br 0.54245(4) 0.110041(13) 0.06955(3)
Br2 Br 0.70792(4) 0.044594(14) -0.55076(3)
O1 O 1.0141(3) 0.13896(8) 0.23149(17)
O2 O 1.0815(3) 0.21212(9) 0.08146(17)
C1 C 0.9652(3) 0.10542(11) -0.0248(2)
C2 C 0.8302(3) 0.05950(11) -0.0368(2)
C3 C 0.7788(3) 0.02410(12) -0.1567(2)
H1 H 0.6843 -0.0058 -0.1648
C4 C 0.8634(3) 0.03178(12) -0.2645(2)
C5 C 1.0018(3) 0.07577(12) -0.2510(3)
H2 H 1.0637 0.0806 -0.3222
C6 C 1.0497(3) 0.11261(12) -0.1339(3)
H3 H 1.1418 0.1434 -0.1276
C7 C 0.7365(3) 0.04714(12) 0.0764(3)
H4 H 0.8219 0.0505 0.1650
H5 H 0.6869 0.0032 0.0679
C8 C 0.8081(4) -0.00832(13) -0.3897(2)
H6 H 0.7183 -0.0399 -0.3753
H7 H 0.9121 -0.0322 -0.4063
C9 C 1.0453(4) 0.19996(12) 0.3067(2)
C10 C 1.1459(4) 0.24020(13) 0.2172(3)
C11 C 0.8640(4) 0.22599(14) 0.3141(3)
H8 H 0.7960 0.2350 0.2219
H9 H 0.8784 0.2656 0.3678
H10 H 0.8007 0.1942 0.3572
C12 C 1.1511(5) 0.18607(14) 0.4496(3)
H11 H 1.0806 0.1591 0.4975
H12 H 1.1800 0.2265 0.4991
H13 H 1.2610 0.1637 0.4443
C13 C 1.1025(4) 0.31109(13) 0.2098(3)
H14 H 1.1660 0.3322 0.1476
H15 H 1.1389 0.3301 0.3007
H16 H 0.9744 0.3169 0.1764
C14 C 1.3461(4) 0.23016(15) 0.2525(3)
H17 H 1.3722 0.1841 0.2559
H18 H 1.3959 0.2494 0.3414
H19 H 1.3990 0.2504 0.1829
B1 B 1.0208(4) 0.15225(14) 0.1002(3)
loop_
_geom_bond_atom_site_label_1
_geom_bond_atom_site_label_2
_geom_bond_site_symmetry_1
_geom_bond_site_symmetry_2
Br1 C7 1_555 1_555
Br2 C8 1_555 1_555
O1 C9 1_555 1_555
O2 C10 1_555 1_555
C1 C2 1_555 1_555
C2 C3 1_555 1_555
C3 H1 1_555 1_555
C4 C3 1_555 1_555
C5 C4 1_555 1_555
H2 C5 1_555 1_555
C6 C1 1_555 1_555
H3 C6 1_555 1_555
C7 C2 1_555 1_555
H4 C7 1_555 1_555
H5 C7 1_555 1_555
C8 C4 1_555 1_555
H6 C8 1_555 1_555
H7 C8 1_555 1_555
C9 C10 1_555 1_555
C10 C13 1_555 1_555
C11 C9 1_555 1_555
H8 C11 1_555 1_555
H9 C11 1_555 1_555
H10 C11 1_555 1_555
C12 C9 1_555 1_555
H11 C12 1_555 1_555
H12 C12 1_555 1_555
H13 C12 1_555 1_555
C13 H14 1_555 1_555
H15 C13 1_555 1_555
H16 C13 1_555 1_555
C14 C10 1_555 1_555
H17 C14 1_555 1_555
H18 C14 1_555 1_555
H19 C14 1_555 1_555
B1 O1 1_555 1_555
O2 B1 1_555 1_555
C1 B1 1_555 1_555
C5 C6 1_555 1_555

#END
