
#######################################################################
#
#                 Cambridge Crystallographic Data Centre
#                                CCDC 
#
#######################################################################
#
# If this CIF has been generated from an entry in the Cambridge 
# Structural Database, then it will include bibliographic, chemical, 
# crystal, experimental, refinement or atomic coordinate data resulting 
# from the CCDC's data processing and validation procedures.
#
#######################################################################

data_AQEHIP
_chemical_formula_moiety         'C20 H30 B2 Br2 O4'
_chemical_name_systematic        
2,2'-(2,5-bis(bromomethyl)-1,4-phenylene)bis(4,4,5,5-tetramethyl-1,3,2-dioxaborolane)
_symmetry_cell_setting           monoclinic
_symmetry_space_group_name_H-M   'P 21'
_symmetry_Int_Tables_number      4
_space_group_name_Hall           'P 2yb'
loop_
_symmetry_equiv_pos_site_id
_symmetry_equiv_pos_as_xyz
1 x,y,z
2 -x,1/2+y,-z
_cell_length_a                   6.9874(2)
_cell_length_b                   15.0838(6)
_cell_length_c                   10.7658(4)
_cell_angle_alpha                90
_cell_angle_beta                 92.493(3)
_cell_angle_gamma                90
_cell_volume                     1133.6
_exptl_crystal_colour            colorless
_exptl_crystal_description       block
_cell_formula_units_Z            2
loop_
_atom_site_label
_atom_site_type_symbol
_atom_site_fract_x
_atom_site_fract_y
_atom_site_fract_z
Br1 Br 0.50041(4) 0.558203(18) 0.41205(3)
Br2 Br 0.05160(4) 0.537318(18) 1.09388(2)
O1 O -0.0596(3) 0.73524(13) 0.58240(18)
O2 O 0.2270(3) 0.74302(13) 0.48711(18)
O3 O 0.5700(3) 0.40687(13) 0.96520(18)
O4 O 0.2732(3) 0.34208(13) 0.94992(19)
C1 C 0.1990(4) 0.62602(19) 0.6629(3)
C2 C 0.3843(4) 0.59012(18) 0.6615(2)
C3 C 0.4372(3) 0.52435(18) 0.7469(2)
H1 H 0.5640 0.5017 0.7465
C4 C 0.3135(4) 0.48998(18) 0.8331(2)
C5 C 0.1268(3) 0.52652(19) 0.8346(2)
C6 C 0.0756(4) 0.59386(18) 0.7512(3)
H2 H -0.0487 0.6191 0.7544
C7 C 0.5299(4) 0.6205(2) 0.5724(3)
H3 H 0.6601 0.6096 0.6092
H4 H 0.5157 0.6851 0.5585
C8 C -0.0154(4) 0.4942(2) 0.9245(2)
H5 H -0.0174 0.4285 0.9243
H6 H -0.1450 0.5154 0.8982
C9 C -0.0695(4) 0.81473(18) 0.5026(3)
C10 C 0.0915(4) 0.79604(18) 0.4109(3)
C11 C -0.0276(5) 0.8939(2) 0.5872(3)
H7 H -0.1126 0.8924 0.6572
H8 H -0.0492 0.9489 0.5401
H9 H 0.1061 0.8915 0.6187
C12 C -0.2698(4) 0.8223(2) 0.4424(3)
H10 H -0.3071 0.7653 0.4050
H11 H -0.2708 0.8681 0.3779
H12 H -0.3604 0.8383 0.5057
C13 C 0.1964(4) 0.8774(2) 0.3659(3)
H13 H 0.2615 0.9070 0.4369
H14 H 0.1042 0.9183 0.3254
H15 H 0.2911 0.8593 0.3063
C14 C 0.0269(5) 0.7370(2) 0.3015(3)
H16 H 0.1396 0.7140 0.2609
H17 H -0.0517 0.7717 0.2416
H18 H -0.0486 0.6873 0.3319
C15 C 0.5747(4) 0.33328(19) 1.0557(3)
C16 C 0.4030(4) 0.27584(18) 1.0078(3)
C17 C 0.7693(4) 0.2890(2) 1.0546(3)
H19 H 0.7978 0.2732 0.9691
H20 H 0.7685 0.2352 1.1058
H21 H 0.8675 0.3298 1.0883
C18 C 0.5454(4) 0.3758(2) 1.1822(3)
H22 H 0.6444 0.4208 1.1989
H23 H 0.5541 0.3302 1.2470
H24 H 0.4188 0.4038 1.1818
C19 C 0.4537(4) 0.2109(2) 0.9055(3)
H25 H 0.3359 0.1857 0.8674
H26 H 0.5335 0.1631 0.9414
H27 H 0.5242 0.2421 0.8421
C20 C 0.2952(4) 0.2284(2) 1.1076(3)
H28 H 0.2540 0.2716 1.1689
H29 H 0.3793 0.1844 1.1488
H30 H 0.1827 0.1986 1.0695
B1 B 0.1222(4) 0.7027(2) 0.5758(3)
B2 B 0.3850(4) 0.4124(2) 0.9196(3)
loop_
_geom_bond_atom_site_label_1
_geom_bond_atom_site_label_2
_geom_bond_site_symmetry_1
_geom_bond_site_symmetry_2
Br1 C7 1_555 1_555
Br2 C8 1_555 1_555
O1 C9 1_555 1_555
O2 C10 1_555 1_555
O3 C15 1_555 1_555
O4 C16 1_555 1_555
C1 C2 1_555 1_555
C2 C3 1_555 1_555
C3 H1 1_555 1_555
C4 C3 1_555 1_555
C5 C4 1_555 1_555
C6 C1 1_555 1_555
H2 C6 1_555 1_555
C7 C2 1_555 1_555
H3 C7 1_555 1_555
H4 C7 1_555 1_555
C8 C5 1_555 1_555
H5 C8 1_555 1_555
H6 C8 1_555 1_555
C9 C10 1_555 1_555
C10 C13 1_555 1_555
C11 C9 1_555 1_555
H7 C11 1_555 1_555
H8 C11 1_555 1_555
H9 C11 1_555 1_555
C12 C9 1_555 1_555
H10 C12 1_555 1_555
H11 C12 1_555 1_555
H12 C12 1_555 1_555
C13 H13 1_555 1_555
H14 C13 1_555 1_555
H15 C13 1_555 1_555
C14 C10 1_555 1_555
H16 C14 1_555 1_555
H17 C14 1_555 1_555
H18 C14 1_555 1_555
C15 C16 1_555 1_555
C16 C19 1_555 1_555
C17 C15 1_555 1_555
H19 C17 1_555 1_555
H20 C17 1_555 1_555
H21 C17 1_555 1_555
C18 C15 1_555 1_555
H22 C18 1_555 1_555
H23 C18 1_555 1_555
H24 C18 1_555 1_555
C19 H25 1_555 1_555
H26 C19 1_555 1_555
H27 C19 1_555 1_555
C20 C16 1_555 1_555
H28 C20 1_555 1_555
H29 C20 1_555 1_555
H30 C20 1_555 1_555
B1 O1 1_555 1_555
B2 O3 1_555 1_555
O2 B1 1_555 1_555
O4 B2 1_555 1_555
C1 B1 1_555 1_555
C4 B2 1_555 1_555
C5 C6 1_555 1_555

#END
