
#######################################################################
#
#                 Cambridge Crystallographic Data Centre
#                                CCDC 
#
#######################################################################
#
# If this CIF has been generated from an entry in the Cambridge 
# Structural Database, then it will include bibliographic, chemical, 
# crystal, experimental, refinement or atomic coordinate data resulting 
# from the CCDC's data processing and validation procedures.
#
#######################################################################

data_AQEKOY
_chemical_formula_moiety         'C22 H24 N6 O9'
_chemical_name_systematic        
"dimethyl 3,3'-((3-acetamido-4-((2,4-dinitrophenyl)diazenyl)phenyl)imino)dipropanoate"
_symmetry_cell_setting           monoclinic
_symmetry_space_group_name_H-M   'P 21/c'
_symmetry_Int_Tables_number      14
_space_group_name_Hall           '-P 2ybc'
loop_
_symmetry_equiv_pos_site_id
_symmetry_equiv_pos_as_xyz
1 x,y,z
2 -x,1/2+y,1/2-z
3 -x,-y,-z
4 x,1/2-y,1/2+z
_cell_length_a                   18.940(3)
_cell_length_b                   8.5392(14)
_cell_length_c                   15.646(3)
_cell_angle_alpha                90
_cell_angle_beta                 105.161(3)
_cell_angle_gamma                90
_cell_volume                     2442.39
_exptl_crystal_colour            red
_exptl_crystal_description       block
_cell_formula_units_Z            4
loop_
_atom_site_label
_atom_site_type_symbol
_atom_site_fract_x
_atom_site_fract_y
_atom_site_fract_z
C1 C -0.11353(15) 1.3933(4) -0.09683(18)
C2 C -0.09585(15) 1.3735(4) -0.00705(18)
H1 H -0.1251 1.4144 0.0269
C3 C -0.03327(15) 1.2908(4) 0.03115(16)
C4 C 0.01272(14) 1.2286(3) -0.01698(16)
C5 C -0.00947(15) 1.2513(4) -0.10875(17)
H2 H 0.0189 1.2102 -0.1437
C6 C -0.07136(16) 1.3319(4) -0.14820(18)
H3 H -0.0851 1.3453 -0.2093
C7 C 0.17488(14) 1.0112(3) 0.01311(16)
C8 C 0.20684(14) 0.9718(3) 0.10386(16)
C9 C 0.26740(15) 0.8756(4) 0.12503(17)
H4 H 0.2884 0.8513 0.1842
C10 C 0.29842(15) 0.8132(4) 0.06028(18)
C11 C 0.26768(16) 0.8554(4) -0.02922(18)
H5 H 0.2881 0.8184 -0.0733
C12 C 0.20845(16) 0.9499(4) -0.05009(18)
H6 H 0.1888 0.9759 -0.1093
C13 C 0.19270(17) 1.0011(4) 0.25692(18)
C14 C 0.15429(19) 1.1027(5) 0.30787(19)
H7 H 0.1041 1.0705 0.2966
H8 H 0.1564 1.2097 0.2898
H9 H 0.1776 1.0934 0.3700
C15 C 0.38940(17) 0.6452(5) 0.0167(2)
H10 H 0.4397 0.6156 0.0438
H11 H 0.3892 0.7212 -0.0294
C16 C 0.3461(2) 0.5032(4) -0.0228(2)
H12 H 0.3485 0.4264 0.0236
H13 H 0.2952 0.5329 -0.0460
C17 C 0.37266(19) 0.4288(5) -0.0957(2)
C18 C 0.3468(2) 0.2354(6) -0.2059(3)
H14 H 0.3431 0.3108 -0.2524
H15 H 0.3124 0.1524 -0.2264
H16 H 0.3955 0.1932 -0.1891
C19 C 0.38389(19) 0.6494(4) 0.1752(2)
H17 H 0.3439 0.6470 0.2033
H18 H 0.4005 0.5428 0.1718
C20 C 0.4442(2) 0.7439(5) 0.2293(2)
H19 H 0.4266 0.8486 0.2361
H20 H 0.4827 0.7524 0.1991
C21 C 0.4744(2) 0.6731(6) 0.3181(3)
C22 C 0.5685(4) 0.6223(8) 0.4427(4)
H21 H 0.5565 0.6861 0.4874
H22 H 0.6206 0.6081 0.4566
H23 H 0.5451 0.5222 0.4407
N1 N -0.17916(15) 1.4850(4) -0.1390(2)
N2 N 0.07655(12) 1.1504(3) 0.02864(13)
N3 N 0.11319(12) 1.0968(3) -0.02291(14)
N4 N 0.17632(12) 1.0342(3) 0.16787(13)
H24 H 0.1426 1.1028 0.1494
N5 N 0.35719(14) 0.7152(4) 0.08369(15)
N6 N -0.01672(18) 1.2664(5) 0.12739(18)
O1 O -0.19519(15) 1.4991(4) -0.21896(17)
O2 O -0.21505(14) 1.5394(3) -0.09230(18)
O3 O 0.23505(15) 0.8990(3) 0.29042(14)
O4 O 0.42480(14) 0.4729(3) -0.11968(17)
O5 O 0.33102(14) 0.3103(3) -0.13055(19)
O6 O 0.4397(2) 0.5983(5) 0.3583(2)
O7 O 0.54201(16) 0.7034(4) 0.3521(2)
O8 O -0.0624(5) 1.2643(17) 0.1601(5)
O9 O 0.0474(3) 1.3122(7) 0.1693(3)
O10? O -0.0239(7) 1.3614(9) 0.1750(5)
O11? O -0.0051(3) 1.1203(6) 0.1554(3)
loop_
_geom_bond_atom_site_label_1
_geom_bond_atom_site_label_2
_geom_bond_site_symmetry_1
_geom_bond_site_symmetry_2
C1 C2 1_555 1_555
C2 H1 1_555 1_555
C3 C2 1_555 1_555
C4 C3 1_555 1_555
C5 C4 1_555 1_555
H2 C5 1_555 1_555
C6 C1 1_555 1_555
H3 C6 1_555 1_555
C7 C8 1_555 1_555
C8 C9 1_555 1_555
C9 H4 1_555 1_555
C10 C9 1_555 1_555
C11 C10 1_555 1_555
H5 C11 1_555 1_555
C12 C7 1_555 1_555
H6 C12 1_555 1_555
C13 C14 1_555 1_555
C14 H7 1_555 1_555
H8 C14 1_555 1_555
H9 C14 1_555 1_555
C15 H10 1_555 1_555
H11 C15 1_555 1_555
C16 C15 1_555 1_555
H12 C16 1_555 1_555
H13 C16 1_555 1_555
C17 C16 1_555 1_555
C18 H14 1_555 1_555
H15 C18 1_555 1_555
H16 C18 1_555 1_555
C19 H17 1_555 1_555
H18 C19 1_555 1_555
C20 C19 1_555 1_555
H19 C20 1_555 1_555
H20 C20 1_555 1_555
C21 C20 1_555 1_555
C22 H21 1_555 1_555
H22 C22 1_555 1_555
H23 C22 1_555 1_555
N1 C1 1_555 1_555
N2 C4 1_555 1_555
N3 C7 1_555 1_555
N4 C8 1_555 1_555
H24 N4 1_555 1_555
N5 C10 1_555 1_555
N6 C3 1_555 1_555
O1 N1 1_555 1_555
O2 N1 1_555 1_555
O3 C13 1_555 1_555
O4 C17 1_555 1_555
O5 C17 1_555 1_555
O6 C21 1_555 1_555
O7 C21 1_555 1_555
O8 N6 1_555 1_555
O9 N6 1_555 1_555
C5 C6 1_555 1_555
C11 C12 1_555 1_555
C13 N4 1_555 1_555
C15 N5 1_555 1_555
C18 O5 1_555 1_555
C19 N5 1_555 1_555
C22 O7 1_555 1_555
N2 N3 1_555 1_555

#END
