
#######################################################################
#
#                 Cambridge Crystallographic Data Centre
#                                CCDC 
#
#######################################################################
#
# If this CIF has been generated from an entry in the Cambridge 
# Structural Database, then it will include bibliographic, chemical, 
# crystal, experimental, refinement or atomic coordinate data resulting 
# from the CCDC's data processing and validation procedures.
#
#######################################################################

data_AQEKEO
_chemical_formula_moiety         'C16 H15 Br1 Cl2 N4 O4'
_chemical_name_systematic        
2,2'-((4-((2-bromo-6-chloro-4-nitrophenyl)diazenyl)-3-chlorophenyl)imino)diethanol
_symmetry_cell_setting           orthorhombic
_symmetry_space_group_name_H-M   'F d d 2'
_symmetry_Int_Tables_number      43
_space_group_name_Hall           'F 2 -2d'
loop_
_symmetry_equiv_pos_site_id
_symmetry_equiv_pos_as_xyz
1 x,y,z
2 -x,-y,z
3 1/4+x,1/4-y,1/4+z
4 1/4-x,1/4+y,1/4+z
5 x,1/2+y,1/2+z
6 -x,1/2-y,1/2+z
7 1/4+x,3/4-y,3/4+z
8 1/4-x,3/4+y,3/4+z
9 1/2+x,y,1/2+z
10 1/2-x,-y,1/2+z
11 3/4+x,1/4-y,3/4+z
12 3/4-x,1/4+y,3/4+z
13 1/2+x,1/2+y,z
14 1/2-x,1/2-y,z
15 3/4+x,3/4-y,1/4+z
16 3/4-x,3/4+y,1/4+z
_cell_length_a                   31.136(9)
_cell_length_b                   32.320(9)
_cell_length_c                   7.399(2)
_cell_angle_alpha                90
_cell_angle_beta                 90
_cell_angle_gamma                90
_cell_volume                     7445.73
_exptl_crystal_colour            brown
_exptl_crystal_description       block
_cell_formula_units_Z            16
loop_
_atom_site_label
_atom_site_type_symbol
_atom_site_fract_x
_atom_site_fract_y
_atom_site_fract_z
Br1 Br 0.09044(11) -0.08836(9) 1.1135(4)
C1 C 0.0681(3) -0.1585(3) 0.6824(16)
C2 C 0.0799(3) -0.1470(3) 0.8581(18)
H1 H 0.0904 -0.1664 0.9402
C3 C 0.0752(3) -0.1052(3) 0.9051(17)
C4 C 0.0577(3) -0.0769(3) 0.7810(14)
C5 C 0.0449(3) -0.0921(3) 0.6125(15)
C6 C 0.0497(3) -0.1334(3) 0.5661(14)
H2 H 0.0402 -0.1432 0.4549
C7 C 0.0676(3) 0.0317(2) 0.7796(13)
C8 C 0.0818(3) 0.0601(3) 0.6582(11)
C9 C 0.0822(3) 0.1027(3) 0.7027(14)
H3 H 0.0922 0.1214 0.6173
C10 C 0.0687(3) 0.1172(2) 0.8624(13)
C11 C 0.0515(3) 0.0866(3) 0.9939(13)
H4 H 0.0406 0.0953 1.1045
C12 C 0.0521(3) 0.0455(3) 0.9498(14)
H5 H 0.0421 0.0261 1.0330
C13 C 0.0877(3) 0.1878(3) 0.7825(16)
H6 H 0.1143 0.1765 0.7357
H7 H 0.0948 0.2128 0.8482
C14 C 0.0595(4) 0.1993(3) 0.6245(15)
H8 H 0.0738 0.2199 0.5503
H9 H 0.0540 0.1751 0.5505
C15 C 0.0590(3) 0.1715(3) 1.0947(12)
H10 H 0.0695 0.1507 1.1784
H11 H 0.0739 0.1972 1.1209
C16 C 0.0128(4) 0.1775(3) 1.1263(15)
H12 H -0.0021 0.1524 1.0918
H13 H 0.0083 0.1815 1.2549
Cl1 Cl 0.01876(10) -0.05966(9) 0.4582(4)
Cl2 Cl 0.09902(10) 0.04514(8) 0.4442(4)
N1 N 0.0743(3) -0.2026(3) 0.6308(19)
N2 N 0.0530(3) -0.0359(2) 0.8440(12)
N3 N 0.0692(3) -0.0103(2) 0.7241(11)
N4 N 0.0698(2) 0.1584(2) 0.9082(10)
O1 O 0.0675(3) -0.2136(3) 0.4874(18)
O2 O 0.0892(3) -0.2258(3) 0.7450(18)
O3 O 0.0195(2) 0.2157(2) 0.6934(12)
H14 H 0.0033 0.2217 0.6045
O4 O -0.0063(2) 0.2110(2) 1.0338(11)
H15 H -0.0028 0.2084 0.9203
loop_
_geom_bond_atom_site_label_1
_geom_bond_atom_site_label_2
_geom_bond_site_symmetry_1
_geom_bond_site_symmetry_2
Br1 C3 1_555 1_555
C1 C2 1_555 1_555
C2 H1 1_555 1_555
C3 C2 1_555 1_555
C4 C3 1_555 1_555
C5 C4 1_555 1_555
C6 C1 1_555 1_555
H2 C6 1_555 1_555
C7 C8 1_555 1_555
C8 C9 1_555 1_555
C9 H3 1_555 1_555
C10 C9 1_555 1_555
C11 C10 1_555 1_555
H4 C11 1_555 1_555
C12 C7 1_555 1_555
H5 C12 1_555 1_555
C13 H6 1_555 1_555
H7 C13 1_555 1_555
C14 C13 1_555 1_555
H8 C14 1_555 1_555
H9 C14 1_555 1_555
C15 H10 1_555 1_555
H11 C15 1_555 1_555
C16 C15 1_555 1_555
H12 C16 1_555 1_555
H13 C16 1_555 1_555
Cl1 C5 1_555 1_555
Cl2 C8 1_555 1_555
N1 C1 1_555 1_555
N2 C4 1_555 1_555
N3 C7 1_555 1_555
N4 C10 1_555 1_555
O1 N1 1_555 1_555
O2 N1 1_555 1_555
O3 C14 1_555 1_555
H14 O3 1_555 1_555
O4 C16 1_555 1_555
H15 O4 1_555 1_555
C5 C6 1_555 1_555
C11 C12 1_555 1_555
C13 N4 1_555 1_555
C15 N4 1_555 1_555
N2 N3 1_555 1_555

#END
