
#######################################################################
#
#                 Cambridge Crystallographic Data Centre
#                                CCDC 
#
#######################################################################
#
# If this CIF has been generated from an entry in the Cambridge 
# Structural Database, then it will include bibliographic, chemical, 
# crystal, experimental, refinement or atomic coordinate data resulting 
# from the CCDC's data processing and validation procedures.
#
#######################################################################

data_AQENUH
_chemical_formula_moiety         'C105 H105 N5,x(C1 H4 O1)'
_chemical_name_systematic        
'6,13,20,27,34-pentakis(2,6-diisopropylphenyl)hexacyclo[30.3.1.1^4,8^.1^11,15^.1^18,22^.1^25,29^]tetraconta-1(36),2,4(40),5,7,9,11(39),12,14,16,18(38),19,21,23,25(37),26,28,30,32,34-icosaene-2,9,16,23,30-pentacarbonitrile methanol unknown solvate'
_symmetry_cell_setting           orthorhombic
_symmetry_space_group_name_H-M   'P b c a'
_symmetry_Int_Tables_number      61
_space_group_name_Hall           '-P 2ac 2ab'
loop_
_symmetry_equiv_pos_site_id
_symmetry_equiv_pos_as_xyz
1 x,y,z
2 1/2-x,-y,1/2+z
3 -x,1/2+y,1/2-z
4 1/2+x,1/2-y,-z
5 -x,-y,-z
6 1/2+x,y,1/2-z
7 x,1/2-y,1/2+z
8 1/2-x,1/2+y,z
_cell_length_a                   32.7165(18)
_cell_length_b                   16.1948(8)
_cell_length_c                   39.103(2)
_cell_angle_alpha                90
_cell_angle_beta                 90
_cell_angle_gamma                90
_cell_volume                     20718.2
_cell_formula_units_Z            8
_exptl_crystal_recrystallization_method chloroform/methanol
loop_
_atom_site_label
_atom_site_type_symbol
_atom_site_fract_x
_atom_site_fract_y
_atom_site_fract_z
C1 C 0.6311(2) 0.8220(6) 0.4439(2)
H1 H 0.6363 0.8013 0.4216
C2 C 0.5922(2) 0.8235(7) 0.4518(2)
C3 C 0.5773(5) 0.859(3) 0.4831(5)
N1 N 0.5599(7) 0.8922(10) 0.5039(3)
C4 C 0.5589(2) 0.7886(5) 0.42937(18)
C5 C 0.5180(2) 0.7860(8) 0.4404(2)
H2 H 0.5109 0.8094 0.4619
C6 C 0.4879(2) 0.7499(9) 0.4204(2)
C7 C 0.4975(2) 0.7178(7) 0.3886(2)
H3 H 0.4766 0.6957 0.3744
C8 C 0.5388(2) 0.7180(5) 0.37707(18)
C9 C 0.5682(2) 0.7548(5) 0.39733(19)
H4 H 0.5956 0.7574 0.3893
C10 C 0.4432(4) 0.7472(12) 0.4306(6)
C11 C 0.4179(4) 0.8129(12) 0.4221(8)
C12 C 0.3769(4) 0.8087(10) 0.4309(6)
H5 H 0.3591 0.8528 0.4249
C13 C 0.3614(4) 0.7418(9) 0.4483(5)
H6 H 0.3332 0.7398 0.4539
C14 C 0.3866(4) 0.6785(11) 0.4574(6)
H7 H 0.3758 0.6329 0.4698
C15 C 0.4276(4) 0.6796(15) 0.4490(7)
C16 C 0.4322(11) 0.8866(12) 0.4034(5)
H8 H 0.4628 0.8862 0.4020
C17 C 0.4138(5) 0.8849(8) 0.3672(3)
H9 H 0.4231 0.9336 0.3544
H10 H 0.4228 0.8348 0.3553
H11 H 0.3839 0.8854 0.3687
C18 C 0.4177(3) 0.9655(8) 0.4213(3)
H12 H 0.4275 1.0138 0.4085
H13 H 0.3878 0.9661 0.4221
H14 H 0.4287 0.9671 0.4446
C19 C 0.4555(5) 0.6093(8) 0.4625(3)
H15 H 0.4844 0.6261 0.4578
C20 C 0.4477(5) 0.5285(9) 0.4427(3)
H16 H 0.4497 0.5392 0.4180
H17 H 0.4682 0.4873 0.4492
H18 H 0.4204 0.5077 0.4481
C21 C 0.4523(4) 0.5923(10) 0.5012(3)
H19 H 0.4573 0.6435 0.5139
H20 H 0.4250 0.5714 0.5066
H21 H 0.4728 0.5510 0.5078
C22 C 0.5529(2) 0.6825(4) 0.34478(16)
H22 H 0.5788 0.7017 0.3373
C23 C 0.5355(2) 0.6286(6) 0.3245(2)
C24 C 0.4957(5) 0.5957(17) 0.3313(5)
N2 N 0.4669(3) 0.5587(8) 0.3373(3)
C25 C 0.5556(2) 0.5940(5) 0.29285(17)
C26 C 0.5322(2) 0.5643(9) 0.2662(2)
H23 H 0.5032 0.5669 0.2678
C27 C 0.5499(3) 0.5310(10) 0.2373(3)
C28 C 0.5921(3) 0.5257(9) 0.2351(2)
H24 H 0.6044 0.5009 0.2156
C29 C 0.6169(2) 0.5574(5) 0.2620(2)
C30 C 0.5973(2) 0.5895(5) 0.29025(17)
H25 H 0.6135 0.6093 0.3087
C31 C 0.5254(6) 0.5031(10) 0.2064(4)
C32 C 0.5190(7) 0.5604(10) 0.1799(5)
C33 C 0.4948(6) 0.5363(8) 0.1521(4)
H26 H 0.4903 0.5735 0.1337
C34 C 0.4775(6) 0.4579(7) 0.1513(4)
H27 H 0.4617 0.4415 0.1320
C35 C 0.4827(7) 0.4050(9) 0.1774(4)
H28 H 0.4692 0.3531 0.1768
C36 C 0.5074(9) 0.4245(11) 0.2054(5)
C37 C 0.5385(5) 0.6455(10) 0.1791(5)
H29 H 0.5500 0.6584 0.2022
C38 C 0.5731(7) 0.6413(17) 0.1534(7)
H30 H 0.5925 0.5982 0.1602
H31 H 0.5620 0.6283 0.1308
H32 H 0.5872 0.6946 0.1526
C39 C 0.5079(5) 0.7118(11) 0.1694(7)
H33 H 0.4859 0.7134 0.1863
H34 H 0.5216 0.7656 0.1686
H35 H 0.4964 0.6993 0.1468
C40 C 0.5140(5) 0.3630(9) 0.2337(4)
H36 H 0.5281 0.3926 0.2528
C41 C 0.5422(5) 0.2902(8) 0.2224(4)
H37 H 0.5457 0.2517 0.2415
H38 H 0.5298 0.2613 0.2030
H39 H 0.5690 0.3120 0.2156
C42 C 0.4743(5) 0.3246(9) 0.2485(4)
H40 H 0.4814 0.2855 0.2667
H41 H 0.4570 0.3685 0.2579
H42 H 0.4595 0.2957 0.2304
C43 C 0.6617(2) 0.5545(5) 0.26163(18)
H43 H 0.6739 0.5814 0.2806
C44 C 0.6881(2) 0.5225(6) 0.2404(2)
C45 C 0.6765(3) 0.4585(6) 0.2158(2)
N3 N 0.6741(4) 0.4128(8) 0.1941(3)
C46 C 0.7338(2) 0.5289(6) 0.24437(19)
C47 C 0.7595(3) 0.5042(12) 0.2180(3)
H44 H 0.7479 0.4855 0.1971
C48 C 0.8017(3) 0.5063(13) 0.2214(3)
C49 C 0.8182(3) 0.5368(11) 0.2509(3)
H45 H 0.8471 0.5391 0.2534
C50 C 0.7929(2) 0.5651(6) 0.2781(2)
C51 C 0.7513(2) 0.5587(6) 0.2742(2)
H46 H 0.7340 0.5752 0.2924
C52 C 0.8291(7) 0.4811(10) 0.1922(4)
C53 C 0.8384(8) 0.3960(10) 0.1878(5)
C54 C 0.8594(6) 0.3731(9) 0.1583(3)
H47 H 0.8659 0.3166 0.1547
C55 C 0.8709(5) 0.4305(8) 0.1344(3)
H48 H 0.8846 0.4132 0.1142
C56 C 0.8630(7) 0.5113(8) 0.1394(4)
H49 H 0.8730 0.5503 0.1233
C57 C 0.8403(7) 0.5397(10) 0.1676(5)
C58 C 0.8258(4) 0.3335(9) 0.2142(4)
H50 H 0.8090 0.3673 0.2303
C59 C 0.8587(6) 0.2951(13) 0.2386(4)
H51 H 0.8456 0.2558 0.2542
H52 H 0.8795 0.2665 0.2250
H53 H 0.8717 0.3392 0.2520
C60 C 0.7959(7) 0.2639(12) 0.2040(7)
H54 H 0.7907 0.2284 0.2238
H55 H 0.7701 0.2883 0.1962
H56 H 0.8078 0.2310 0.1855
C61 C 0.8308(4) 0.6281(8) 0.1715(3)
H57 H 0.8123 0.6361 0.1916
C62 C 0.8698(5) 0.6782(11) 0.1767(4)
H58 H 0.8629 0.7367 0.1792
H59 H 0.8840 0.6590 0.1973
H60 H 0.8877 0.6711 0.1568
C63 C 0.8093(5) 0.6558(12) 0.1391(3)
H61 H 0.8025 0.7146 0.1409
H62 H 0.8273 0.6469 0.1194
H63 H 0.7841 0.6237 0.1361
C64 C 0.8077(2) 0.5993(6) 0.30993(19)
H64 H 0.7878 0.5983 0.3277
C65 C 0.8429(2) 0.6318(7) 0.3196(2)
C66 C 0.8792(5) 0.6246(19) 0.2988(6)
N4 N 0.9101(4) 0.6172(9) 0.2853(4)
C67 C 0.8496(2) 0.6749(6) 0.35353(18)
C68 C 0.8895(2) 0.6908(8) 0.3649(2)
H65 H 0.9123 0.6724 0.3520
C69 C 0.8957(2) 0.7338(9) 0.3955(3)
C70 C 0.8629(2) 0.7550(6) 0.4150(2)
H66 H 0.8673 0.7803 0.4366
C71 C 0.8226(2) 0.7401(5) 0.40399(19)
C72 C 0.8169(2) 0.7005(6) 0.37338(19)
H67 H 0.7899 0.6904 0.3656
C73 C 0.9378(3) 0.7518(11) 0.4085(6)
C74 C 0.9579(5) 0.6906(14) 0.4280(9)
C75 C 0.9990(4) 0.7016(8) 0.4356(5)
H68 H 1.0131 0.6605 0.4483
C76 C 1.0195(3) 0.7704(6) 0.4252(4)
H69 H 1.0479 0.7758 0.4300
C77 C 0.9996(3) 0.8317(8) 0.4079(4)
H70 H 1.0140 0.8807 0.4021
C78 C 0.9589(4) 0.8238(11) 0.3986(6)
C79 C 0.9371(4) 0.6159(8) 0.4415(3)
H71 H 0.9122 0.6026 0.4278
C80 C 0.9678(4) 0.5419(7) 0.4415(3)
H72 H 0.9542 0.4925 0.4504
H73 H 0.9771 0.5314 0.4181
H74 H 0.9913 0.5553 0.4560
C81 C 0.9259(5) 0.6360(12) 0.4788(3)
H75 H 0.9120 0.5885 0.4890
H76 H 0.9508 0.6482 0.4917
H77 H 0.9077 0.6841 0.4793
C82 C 0.9363(4) 0.8915(8) 0.3792(3)
H78 H 0.9068 0.8772 0.3821
C83 C 0.9430(6) 0.8918(15) 0.3408(4)
H79 H 0.9274 0.9372 0.3306
H80 H 0.9721 0.8993 0.3359
H81 H 0.9337 0.8392 0.3312
C84 C 0.9405(5) 0.9778(10) 0.3959(5)
H82 H 0.9359 0.9733 0.4206
H83 H 0.9680 0.9995 0.3917
H84 H 0.9202 1.0153 0.3859
C85 C 0.7871(2) 0.7662(5) 0.42299(18)
H85 H 0.7632 0.7346 0.4185
C86 C 0.7817(2) 0.8252(6) 0.4451(2)
C87 C 0.8150(3) 0.8781(9) 0.4547(6)
N5 N 0.8385(3) 0.9265(7) 0.4624(3)
C88 C 0.7417(2) 0.8449(5) 0.46242(18)
C89 C 0.7417(2) 0.8824(8) 0.4943(3)
H86 H 0.7669 0.8922 0.5058
C90 C 0.7053(3) 0.9057(9) 0.5094(3)
C91 C 0.6688(2) 0.8879(9) 0.4942(3)
H87 H 0.6440 0.9038 0.5049
C92 C 0.6676(2) 0.8455(6) 0.46216(19)
C93 C 0.7049(2) 0.8272(6) 0.4472(2)
H88 H 0.7051 0.8013 0.4254
C94 C 0.7049(6) 0.9563(7) 0.5416(2)
C95 C 0.7181(6) 1.0396(7) 0.5400(3)
C96 C 0.7210(5) 1.0815(7) 0.5709(2)
H89 H 0.7294 1.1377 0.5711
C97 C 0.7119(4) 1.0422(6) 0.6016(3)
H90 H 0.7144 1.0722 0.6224
C98 C 0.6995(4) 0.9625(7) 0.6027(3)
H91 H 0.6938 0.9374 0.6241
C99 C 0.6950(5) 0.9172(6) 0.5728(3)
C100 C 0.7260(6) 1.0795(11) 0.5058(4)
H92 H 0.7415 1.0417 0.4903
C101 C 0.6844(6) 1.1032(17) 0.4905(7)
H93 H 0.6886 1.1294 0.4682
H94 H 0.6677 1.0535 0.4877
H95 H 0.6705 1.1420 0.5058
C102 C 0.7508(5) 1.1586(10) 0.5139(6)
H96 H 0.7570 1.1878 0.4925
H97 H 0.7348 1.1947 0.5289
H98 H 0.7764 1.1435 0.5254
C103 C 0.6829(4) 0.8272(7) 0.5752(3)
H99 H 0.6849 0.8076 0.5510
C104 C 0.6375(4) 0.8166(8) 0.5836(6)
H100 H 0.6310 0.7576 0.5849
H101 H 0.6316 0.8427 0.6057
H102 H 0.6210 0.8425 0.5657
C105 C 0.7067(6) 0.7605(10) 0.5956(6)
H103 H 0.6929 0.7071 0.5932
H104 H 0.7347 0.7562 0.5867
H105 H 0.7077 0.7760 0.6198
C106? C 0.5958(4) 0.7990(12) 0.4272(4)
H106? H 0.6179 0.7970 0.4115
C107? C 0.6050(4) 0.8309(16) 0.4567(4)
C108? C 0.5751(10) 0.849(6) 0.4830(10)
N6? N 0.5667(15) 0.862(2) 0.5110(6)
C109? C 0.6480(4) 0.8496(12) 0.4681(4)
C110? C 0.6554(5) 0.892(2) 0.4984(5)
H107? H 0.6329 0.9119 0.5114
C111? C 0.6946(5) 0.9057(19) 0.5101(5)
C112? C 0.7266(5) 0.8744(16) 0.4913(5)
H108? H 0.7537 0.8843 0.4989
C113? C 0.7206(4) 0.8278(11) 0.4608(4)
C114? C 0.6804(4) 0.8136(12) 0.4508(4)
H109? H 0.6751 0.7786 0.4318
C115? C 0.7049(11) 0.9395(14) 0.5452(4)
C116? C 0.7186(12) 1.0225(14) 0.5485(5)
C117? C 0.7189(10) 1.0573(13) 0.5814(5)
H110? H 0.7298 1.1111 0.5848
C118? C 0.7037(9) 1.0142(14) 0.6086(5)
H111? H 0.7020 1.0406 0.6303
C119? C 0.6909(10) 0.9350(14) 0.6056(5)
H112? H 0.6798 0.9072 0.6248
C120? C 0.6939(11) 0.8941(14) 0.5746(5)
C121? C 0.7322(13) 1.075(2) 0.5150(9)
H113? H 0.7415 1.0296 0.4995
C122? C 0.6971(12) 1.113(3) 0.4933(14)
H114? H 0.6732 1.0763 0.4943
H115? H 0.6898 1.1671 0.5024
H116? H 0.7060 1.1184 0.4695
C123? C 0.7692(10) 1.133(2) 0.5129(14)
H117? H 0.7917 1.1106 0.5265
H118? H 0.7778 1.1389 0.4891
H119? H 0.7616 1.1877 0.5220
C124? C 0.6820(8) 0.8019(15) 0.5706(7)
H120? H 0.6885 0.7781 0.5476
C125? C 0.6391(8) 0.781(2) 0.5836(13)
H121? H 0.6190 0.7925 0.5658
H122? H 0.6380 0.7217 0.5895
H123? H 0.6330 0.8136 0.6040
C126? C 0.7143(11) 0.784(2) 0.5982(12)
H124? H 0.7415 0.7976 0.5895
H125? H 0.7085 0.8167 0.6186
H126? H 0.7135 0.7248 0.6042
C127? C 0.7529(4) 0.7961(10) 0.4402(4)
H127? H 0.7456 0.7505 0.4262
C128? C 0.7912(4) 0.8193(13) 0.4374(5)
C129? C 0.8054(8) 0.893(2) 0.4543(13)
N7? N 0.8210(5) 0.9443(15) 0.4691(8)
C130? C 0.8220(4) 0.7797(10) 0.4144(3)
C131? C 0.8633(4) 0.7847(14) 0.4219(5)
H128? H 0.8721 0.8171 0.4408
C132? C 0.8918(4) 0.7430(18) 0.4024(6)
C133? C 0.8796(5) 0.7052(17) 0.3727(5)
H129? H 0.8995 0.6844 0.3572
C134? C 0.8369(5) 0.6971(11) 0.3649(4)
C135? C 0.8101(4) 0.7334(11) 0.3865(4)
H130? H 0.7817 0.7268 0.3822
C136? C 0.9372(6) 0.755(2) 0.4073(11)
C137? C 0.9597(9) 0.701(3) 0.4287(18)
C138? C 1.0007(8) 0.7246(17) 0.4344(10)
H131? H 1.0181 0.6894 0.4472
C139? C 1.0158(7) 0.7974(15) 0.4220(9)
H132? H 1.0431 0.8125 0.4275
C140? C 0.9933(7) 0.8492(17) 0.4018(9)
H133? H 1.0052 0.8980 0.3927
C141? C 0.9531(8) 0.830(2) 0.3949(12)
C142? C 0.9359(7) 0.6308(18) 0.4450(7)
H134? H 0.9420 0.5778 0.4329
C143? C 0.8914(6) 0.6553(14) 0.4388(5)
H135? H 0.8733 0.6133 0.4485
H136? H 0.8860 0.7087 0.4497
H137? H 0.8864 0.6597 0.4141
C144? C 0.9402(11) 0.618(3) 0.4843(6)
H138? H 0.9234 0.5716 0.4915
H139? H 0.9689 0.6075 0.4899
H140? H 0.9312 0.6685 0.4961
C145? C 0.9274(9) 0.8865(17) 0.3719(6)
H141? H 0.9002 0.8628 0.3657
C146? C 0.9551(13) 0.903(3) 0.3409(9)
H142? H 0.9573 0.8530 0.3270
H143? H 0.9434 0.9477 0.3271
H144? H 0.9824 0.9195 0.3489
C147? C 0.9246(11) 0.966(2) 0.3933(10)
H145? H 0.9070 0.9567 0.4132
H146? H 0.9519 0.9823 0.4010
H147? H 0.9129 1.0105 0.3792
C148? C 0.8202(5) 0.6546(10) 0.3350(3)
H148? H 0.7912 0.6521 0.3354
C149? C 0.8358(4) 0.6192(14) 0.3077(4)
C150? C 0.8768(9) 0.642(4) 0.2972(12)
N8? N 0.9033(8) 0.671(2) 0.2826(10)
C151? C 0.8110(4) 0.5810(13) 0.2789(4)
C152? C 0.8302(6) 0.549(2) 0.2504(6)
H149? H 0.8591 0.5527 0.2485
C153? C 0.8080(6) 0.512(3) 0.2245(7)
C154? C 0.7662(6) 0.514(2) 0.2259(6)
H150? H 0.7508 0.4907 0.2076
C155? C 0.7452(4) 0.5491(13) 0.2544(5)
C156? C 0.7691(4) 0.5826(12) 0.2800(4)
H151? H 0.7560 0.6077 0.2991
C157? C 0.8277(13) 0.4729(18) 0.1935(8)
C158? C 0.8358(15) 0.3869(19) 0.1941(10)
C159? C 0.8623(13) 0.3551(17) 0.1698(8)
H152? H 0.8686 0.2978 0.1702
C160? C 0.8796(12) 0.4048(17) 0.1453(7)
H153? H 0.8987 0.3822 0.1295
C161? C 0.8695(14) 0.4862(17) 0.1434(9)
H154? H 0.8795 0.5184 0.1249
C162? C 0.8447(15) 0.5238(17) 0.1682(9)
C163? C 0.8171(9) 0.3271(19) 0.2209(9)
H155? H 0.8074 0.3508 0.2431
C164? C 0.8570(10) 0.276(3) 0.2210(10)
H156? H 0.8768 0.3009 0.2366
H157? H 0.8510 0.2192 0.2285
H158? H 0.8685 0.2743 0.1978
C165? C 0.7850(13) 0.290(3) 0.1966(14)
H159? H 0.7601 0.3233 0.1971
H160? H 0.7959 0.2883 0.1733
H161? H 0.7785 0.2333 0.2040
C166? C 0.8343(8) 0.6115(18) 0.1651(8)
H162? H 0.8320 0.6250 0.1899
C167? C 0.8659(9) 0.678(2) 0.1548(9)
H163? H 0.8525 0.7323 0.1543
H164? H 0.8881 0.6790 0.1716
H165? H 0.8769 0.6654 0.1322
C168? C 0.7919(7) 0.641(2) 0.1535(9)
H166? H 0.7914 0.7017 0.1532
H167? H 0.7861 0.6201 0.1305
H168? H 0.7711 0.6209 0.1695
C169? C 0.7025(4) 0.5549(10) 0.2580(3)
H169? H 0.6944 0.5911 0.2759
C170? C 0.6716(4) 0.5211(14) 0.2421(4)
C171? C 0.6774(7) 0.5000(16) 0.2063(4)
N9? N 0.6699(8) 0.4791(17) 0.1793(4)
C172? C 0.6269(3) 0.5363(11) 0.2497(4)
C173? C 0.5979(5) 0.5096(19) 0.2262(5)
H170? H 0.6061 0.4799 0.2063
C174? C 0.5568(5) 0.527(2) 0.2318(6)
C175? C 0.5442(5) 0.5693(19) 0.2602(5)
H171? H 0.5160 0.5813 0.2635
C176? C 0.5737(4) 0.5954(10) 0.2845(4)
C177? C 0.6144(4) 0.5814(10) 0.2777(4)
H172? H 0.6345 0.6036 0.2927
C178? C 0.5240(12) 0.497(2) 0.2073(8)
C179? C 0.5145(15) 0.548(2) 0.1793(9)
C180? C 0.4906(13) 0.5148(18) 0.1530(8)
H173? H 0.4820 0.5485 0.1344
C181? C 0.4795(13) 0.4320(17) 0.1542(8)
H174? H 0.4667 0.4074 0.1349
C182? C 0.4868(14) 0.3861(18) 0.1822(9)
H175? H 0.4765 0.3313 0.1831
C183? C 0.5089(17) 0.416(2) 0.2099(9)
C184? C 0.5299(11) 0.635(2) 0.1789(11)
H176? H 0.5394 0.6452 0.2029
C185? C 0.5669(14) 0.657(3) 0.1568(14)
H177? H 0.5732 0.7155 0.1592
H178? H 0.5905 0.6238 0.1641
H179? H 0.5607 0.6446 0.1328
C186? C 0.4958(11) 0.698(2) 0.1734(14)
H180? H 0.5075 0.7542 0.1734
H181? H 0.4824 0.6879 0.1515
H182? H 0.4757 0.6938 0.1919
C187? C 0.5135(10) 0.3644(16) 0.2415(9)
H183? H 0.5340 0.3888 0.2576
C188? C 0.5222(10) 0.2716(15) 0.2352(7)
H184? H 0.5246 0.2430 0.2572
H185? H 0.4997 0.2475 0.2220
H186? H 0.5477 0.2657 0.2224
C189? C 0.4698(10) 0.3723(17) 0.2559(9)
H187? H 0.4676 0.3408 0.2772
H188? H 0.4637 0.4305 0.2604
H189? H 0.4502 0.3505 0.2392
C190? C 0.5643(4) 0.6393(9) 0.3164(3)
H190? H 0.5864 0.6695 0.3259
C191? C 0.5302(4) 0.6432(13) 0.3336(4)
C192? C 0.4963(9) 0.591(3) 0.3244(10)
N10? N 0.4651(6) 0.5673(18) 0.3158(6)
C193? C 0.5251(4) 0.6865(10) 0.3675(3)
C194? C 0.4872(4) 0.6933(15) 0.3827(5)
H191? H 0.4640 0.6671 0.3729
C195? C 0.4832(5) 0.7389(18) 0.4128(5)
C196? C 0.5163(5) 0.7725(16) 0.4287(4)
H192? H 0.5132 0.8009 0.4498
C197? C 0.5562(4) 0.7647(11) 0.4132(4)
C198? C 0.5589(4) 0.7221(10) 0.3831(4)
H193? H 0.5848 0.7168 0.3724
C199? C 0.4426(7) 0.743(2) 0.4312(11)
C200? C 0.4138(9) 0.804(2) 0.4231(15)
C201? C 0.3739(8) 0.792(2) 0.4349(12)
H194? H 0.3538 0.8328 0.4305
C202? C 0.3633(8) 0.722(2) 0.4527(11)
H195? H 0.3355 0.7125 0.4587
C203? C 0.3920(8) 0.665(2) 0.4618(13)
H196? H 0.3845 0.6192 0.4754
C204? C 0.4319(8) 0.675(3) 0.4515(15)
C205? C 0.429(2) 0.885(2) 0.4024(11)
H197? H 0.4565 0.8708 0.3937
C206? C 0.4046(11) 0.9142(18) 0.3707(7)
H198? H 0.4002 0.8675 0.3551
H199? H 0.3781 0.9364 0.3779
H200? H 0.4201 0.9573 0.3589
C207? C 0.4347(8) 0.9597(18) 0.4260(7)
H201? H 0.4499 0.9427 0.4464
H202? H 0.4501 1.0025 0.4138
H203? H 0.4080 0.9816 0.4328
C208? C 0.4623(10) 0.6013(16) 0.4568(6)
H204? H 0.4875 0.6039 0.4424
C209? C 0.4369(12) 0.522(2) 0.4524(8)
H205? H 0.4316 0.5122 0.4281
H206? H 0.4521 0.4748 0.4619
H207? H 0.4108 0.5276 0.4646
C210? C 0.4698(10) 0.614(2) 0.4953(6)
H208? H 0.4859 0.6640 0.4989
H209? H 0.4435 0.6189 0.5071
H210? H 0.4847 0.5661 0.5044
loop_
_geom_bond_atom_site_label_1
_geom_bond_atom_site_label_2
_geom_bond_site_symmetry_1
_geom_bond_site_symmetry_2
C1 H1 1_555 1_555
C2 C1 1_555 1_555
C3 C2 1_555 1_555
N1 C3 1_555 1_555
C4 C2 1_555 1_555
C5 C4 1_555 1_555
H2 C5 1_555 1_555
C6 C5 1_555 1_555
C7 C6 1_555 1_555
H3 C7 1_555 1_555
C8 C7 1_555 1_555
C9 C4 1_555 1_555
H4 C9 1_555 1_555
C10 C6 1_555 1_555
C11 C10 1_555 1_555
C12 C11 1_555 1_555
H5 C12 1_555 1_555
C13 C12 1_555 1_555
H6 C13 1_555 1_555
C14 C13 1_555 1_555
H7 C14 1_555 1_555
C15 C10 1_555 1_555
C16 C11 1_555 1_555
H8 C16 1_555 1_555
C17 C16 1_555 1_555
H9 C17 1_555 1_555
H10 C17 1_555 1_555
H11 C17 1_555 1_555
C18 C16 1_555 1_555
H12 C18 1_555 1_555
H13 C18 1_555 1_555
H14 C18 1_555 1_555
C19 C15 1_555 1_555
H15 C19 1_555 1_555
C20 C19 1_555 1_555
H16 C20 1_555 1_555
H17 C20 1_555 1_555
H18 C20 1_555 1_555
C21 C19 1_555 1_555
H19 C21 1_555 1_555
H20 C21 1_555 1_555
H21 C21 1_555 1_555
C22 C8 1_555 1_555
H22 C22 1_555 1_555
C23 C22 1_555 1_555
C24 C23 1_555 1_555
N2 C24 1_555 1_555
C25 C23 1_555 1_555
C26 C25 1_555 1_555
H23 C26 1_555 1_555
C27 C26 1_555 1_555
C28 C27 1_555 1_555
H24 C28 1_555 1_555
C29 C28 1_555 1_555
C30 C25 1_555 1_555
H25 C30 1_555 1_555
C31 C27 1_555 1_555
C32 C31 1_555 1_555
C33 C32 1_555 1_555
H26 C33 1_555 1_555
C34 C33 1_555 1_555
H27 C34 1_555 1_555
C35 C34 1_555 1_555
H28 C35 1_555 1_555
C36 C31 1_555 1_555
C37 C32 1_555 1_555
H29 C37 1_555 1_555
C38 C37 1_555 1_555
H30 C38 1_555 1_555
H31 C38 1_555 1_555
H32 C38 1_555 1_555
C39 C37 1_555 1_555
H33 C39 1_555 1_555
H34 C39 1_555 1_555
H35 C39 1_555 1_555
C40 C36 1_555 1_555
H36 C40 1_555 1_555
C41 C40 1_555 1_555
H37 C41 1_555 1_555
H38 C41 1_555 1_555
H39 C41 1_555 1_555
C42 C40 1_555 1_555
H40 C42 1_555 1_555
H41 C42 1_555 1_555
H42 C42 1_555 1_555
C43 C29 1_555 1_555
H43 C43 1_555 1_555
C44 C43 1_555 1_555
C45 C44 1_555 1_555
N3 C45 1_555 1_555
C46 C44 1_555 1_555
C47 C46 1_555 1_555
H44 C47 1_555 1_555
C48 C47 1_555 1_555
C49 C48 1_555 1_555
H45 C49 1_555 1_555
C50 C49 1_555 1_555
C51 C46 1_555 1_555
H46 C51 1_555 1_555
C52 C48 1_555 1_555
C53 C52 1_555 1_555
C54 C53 1_555 1_555
H47 C54 1_555 1_555
C55 C54 1_555 1_555
H48 C55 1_555 1_555
C56 C55 1_555 1_555
H49 C56 1_555 1_555
C57 C52 1_555 1_555
C58 C53 1_555 1_555
H50 C58 1_555 1_555
C59 C58 1_555 1_555
H51 C59 1_555 1_555
H52 C59 1_555 1_555
H53 C59 1_555 1_555
C60 C58 1_555 1_555
H54 C60 1_555 1_555
H55 C60 1_555 1_555
H56 C60 1_555 1_555
C61 C57 1_555 1_555
H57 C61 1_555 1_555
C62 C61 1_555 1_555
H58 C62 1_555 1_555
H59 C62 1_555 1_555
H60 C62 1_555 1_555
C63 C61 1_555 1_555
H61 C63 1_555 1_555
H62 C63 1_555 1_555
H63 C63 1_555 1_555
C64 C50 1_555 1_555
H64 C64 1_555 1_555
C65 C64 1_555 1_555
C66 C65 1_555 1_555
N4 C66 1_555 1_555
C67 C65 1_555 1_555
C68 C67 1_555 1_555
H65 C68 1_555 1_555
C69 C68 1_555 1_555
C70 C69 1_555 1_555
H66 C70 1_555 1_555
C71 C70 1_555 1_555
C72 C67 1_555 1_555
H67 C72 1_555 1_555
C73 C69 1_555 1_555
C74 C73 1_555 1_555
C75 C74 1_555 1_555
H68 C75 1_555 1_555
C76 C75 1_555 1_555
H69 C76 1_555 1_555
C77 C76 1_555 1_555
H70 C77 1_555 1_555
C78 C73 1_555 1_555
C79 C74 1_555 1_555
H71 C79 1_555 1_555
C80 C79 1_555 1_555
H72 C80 1_555 1_555
H73 C80 1_555 1_555
H74 C80 1_555 1_555
C81 C79 1_555 1_555
H75 C81 1_555 1_555
H76 C81 1_555 1_555
H77 C81 1_555 1_555
C82 C78 1_555 1_555
H78 C82 1_555 1_555
C83 C82 1_555 1_555
H79 C83 1_555 1_555
H80 C83 1_555 1_555
H81 C83 1_555 1_555
C84 C82 1_555 1_555
H82 C84 1_555 1_555
H83 C84 1_555 1_555
H84 C84 1_555 1_555
C85 C71 1_555 1_555
H85 C85 1_555 1_555
C86 C85 1_555 1_555
C87 C86 1_555 1_555
N5 C87 1_555 1_555
C88 C86 1_555 1_555
C89 C88 1_555 1_555
H86 C89 1_555 1_555
C90 C89 1_555 1_555
C91 C90 1_555 1_555
H87 C91 1_555 1_555
C92 C1 1_555 1_555
C93 C88 1_555 1_555
H88 C93 1_555 1_555
C94 C90 1_555 1_555
C95 C94 1_555 1_555
C96 C95 1_555 1_555
H89 C96 1_555 1_555
C97 C96 1_555 1_555
H90 C97 1_555 1_555
C98 C97 1_555 1_555
H91 C98 1_555 1_555
C99 C94 1_555 1_555
C100 C95 1_555 1_555
H92 C100 1_555 1_555
C101 C100 1_555 1_555
H93 C101 1_555 1_555
H94 C101 1_555 1_555
H95 C101 1_555 1_555
C102 C100 1_555 1_555
H96 C102 1_555 1_555
H97 C102 1_555 1_555
H98 C102 1_555 1_555
C103 C99 1_555 1_555
H99 C103 1_555 1_555
C104 C103 1_555 1_555
H100 C104 1_555 1_555
H101 C104 1_555 1_555
H102 C104 1_555 1_555
C105 C103 1_555 1_555
H103 C105 1_555 1_555
H104 C105 1_555 1_555
H105 C105 1_555 1_555
C8 C9 1_555 1_555
C14 C15 1_555 1_555
C29 C30 1_555 1_555
C35 C36 1_555 1_555
C50 C51 1_555 1_555
C56 C57 1_555 1_555
C71 C72 1_555 1_555
C77 C78 1_555 1_555
C91 C92 1_555 1_555
C92 C93 1_555 1_555
C98 C99 1_555 1_555

#END
