
#######################################################################
#
#                 Cambridge Crystallographic Data Centre
#                                CCDC 
#
#######################################################################
#
# If this CIF has been generated from an entry in the Cambridge 
# Structural Database, then it will include bibliographic, chemical, 
# crystal, experimental, refinement or atomic coordinate data resulting 
# from the CCDC's data processing and validation procedures.
#
#######################################################################

data_AQEPUI
_chemical_formula_moiety         'C13 H12 N4'
_chemical_name_systematic        
1-(4,6-Dimethylpyrimidin-2-yl)-1H-benzimidazole
_symmetry_cell_setting           monoclinic
_symmetry_space_group_name_H-M   'P 21/c'
_symmetry_Int_Tables_number      14
_space_group_name_Hall           '-P 2ybc'
loop_
_symmetry_equiv_pos_site_id
_symmetry_equiv_pos_as_xyz
1 x,y,z
2 -x,1/2+y,1/2-z
3 -x,-y,-z
4 x,1/2-y,1/2+z
_cell_length_a                   8.6824(14)
_cell_length_b                   17.542(3)
_cell_length_c                   7.5710(12)
_cell_angle_alpha                90
_cell_angle_beta                 90.649(2)
_cell_angle_gamma                90
_cell_volume                     1153.04
_exptl_crystal_colour            yellow
_exptl_crystal_description       block
_cell_formula_units_Z            4
_exptl_crystal_recrystallization_method 'dichloromethane/petroleum ether'
loop_
_atom_site_label
_atom_site_type_symbol
_atom_site_fract_x
_atom_site_fract_y
_atom_site_fract_z
C1 C -0.0056(2) 0.34236(11) 0.5758(3)
H1 H -0.1120 0.3435 0.5880
C2 C 0.2208(2) 0.30652(10) 0.5139(2)
C3 C 0.3491(3) 0.26648(12) 0.4577(3)
H2 H 0.3388 0.2192 0.4031
C4 C 0.4913(3) 0.29852(13) 0.4848(3)
H3 H 0.5788 0.2723 0.4493
C5 C 0.5075(2) 0.36971(13) 0.5648(3)
H4 H 0.6055 0.3900 0.5816
C6 C 0.3809(2) 0.41084(12) 0.6198(3)
H5 H 0.3915 0.4585 0.6722
C7 C 0.2381(2) 0.37794(10) 0.5934(2)
C8 C 0.0378(2) 0.46944(9) 0.7121(2)
C9 C -0.1603(2) 0.53861(10) 0.8165(2)
C10 C -0.0567(2) 0.59446(10) 0.8635(2)
H6 H -0.0903 0.6391 0.9169
C11 C 0.0970(2) 0.58356(10) 0.8310(2)
C12 C -0.3290(2) 0.54583(12) 0.8510(3)
H7 H -0.3814 0.5011 0.8087
H8 H -0.3689 0.5899 0.7908
H9 H -0.3451 0.5511 0.9757
C13 C 0.2167(2) 0.64076(11) 0.8815(3)
H10 H 0.3163 0.6225 0.8476
H11 H 0.2153 0.6485 1.0070
H12 H 0.1955 0.6881 0.8225
N1 N 0.08850(16) 0.40104(8) 0.63249(19)
N2 N 0.0658(2) 0.28553(9) 0.5043(2)
N3 N -0.11325(16) 0.47413(8) 0.73766(19)
N4 N 0.14687(16) 0.51916(8) 0.7526(2)
H13? H -0.3489 0.5937 0.9081
H14? H -0.3614 0.5048 0.9260
H15? H -0.3851 0.5436 0.7411
H16? H 0.1685 0.6836 0.9372
H17? H 0.2694 0.6575 0.7778
H18? H 0.2892 0.6180 0.9623
loop_
_geom_bond_atom_site_label_1
_geom_bond_atom_site_label_2
_geom_bond_site_symmetry_1
_geom_bond_site_symmetry_2
C1 H1 1_555 1_555
C2 C3 1_555 1_555
C3 H2 1_555 1_555
C4 C3 1_555 1_555
H3 C4 1_555 1_555
C5 C4 1_555 1_555
H4 C5 1_555 1_555
C6 C5 1_555 1_555
H5 C6 1_555 1_555
C7 C2 1_555 1_555
C8 N1 1_555 1_555
C9 C10 1_555 1_555
C10 H6 1_555 1_555
C11 C10 1_555 1_555
C12 C9 1_555 1_555
H7 C12 1_555 1_555
H8 C12 1_555 1_555
H9 C12 1_555 1_555
C13 C11 1_555 1_555
H10 C13 1_555 1_555
H11 C13 1_555 1_555
H12 C13 1_555 1_555
N1 C1 1_555 1_555
N2 C1 1_555 1_555
N3 C8 1_555 1_555
N4 C8 1_555 1_555
C2 N2 1_555 1_555
C6 C7 1_555 1_555
C7 N1 1_555 1_555
C9 N3 1_555 1_555
C11 N4 1_555 1_555

#END
