
#######################################################################
#
#                 Cambridge Crystallographic Data Centre
#                                CCDC 
#
#######################################################################
#
# If this CIF has been generated from an entry in the Cambridge 
# Structural Database, then it will include bibliographic, chemical, 
# crystal, experimental, refinement or atomic coordinate data resulting 
# from the CCDC's data processing and validation procedures.
#
#######################################################################

data_AQEQOD
_chemical_formula_moiety         'C30 H26 N2 O2'
_chemical_name_systematic        
3,3'-(Naphthalene-1,5-diyldiimino)bis(1-phenylbut-2-en-1-one)
_symmetry_cell_setting           monoclinic
_symmetry_space_group_name_H-M   'P 21/c'
_symmetry_Int_Tables_number      14
_space_group_name_Hall           '-P 2ybc'
loop_
_symmetry_equiv_pos_site_id
_symmetry_equiv_pos_as_xyz
1 x,y,z
2 -x,1/2+y,1/2-z
3 -x,-y,-z
4 x,1/2-y,1/2+z
_cell_length_a                   7.462(2)
_cell_length_b                   16.556(6)
_cell_length_c                   9.607(3)
_cell_angle_alpha                90
_cell_angle_beta                 104.205(4)
_cell_angle_gamma                90
_cell_volume                     1150.57
_exptl_crystal_colour            yellow
_exptl_crystal_description       block
_cell_formula_units_Z            2
_exptl_crystal_recrystallization_method dichloromethane
loop_
_atom_site_label
_atom_site_type_symbol
_atom_site_fract_x
_atom_site_fract_y
_atom_site_fract_z
C1 C 0.5009(2) 0.23857(11) 0.45313(18)
H1 H 0.4837 0.2737 0.3714
H2 H 0.4797 0.1837 0.4211
H3 H 0.6249 0.2440 0.5110
C2 C 0.3674(2) 0.26092(10) 0.54009(16)
C3 C 0.2378(2) 0.20656(10) 0.56142(17)
H4 H 0.2412 0.1545 0.5260
C4 C 0.0988(2) 0.22522(10) 0.63452(16)
C5 C -0.0406(2) 0.16181(10) 0.64382(16)
C6 C -0.0927(2) 0.10225(11) 0.53913(18)
H5 H -0.0379 0.1007 0.4621
C7 C -0.2247(2) 0.04565(11) 0.5486(2)
H6 H -0.2597 0.0067 0.4774
C8 C -0.3048(2) 0.04669(12) 0.6636(2)
H7 H -0.3921 0.0079 0.6709
C9 C -0.2551(2) 0.10549(11) 0.76805(19)
H8 H -0.3095 0.1064 0.8454
C10 C -0.1249(2) 0.16297(11) 0.75786(17)
H9 H -0.0932 0.2028 0.8279
C11 C 0.2482(2) 0.47883(10) 0.42918(16)
H10 H 0.1634 0.4380 0.4316
C12 C 0.4360(2) 0.46846(10) 0.50276(15)
C13 C 0.5013(2) 0.39800(10) 0.58296(16)
C14 C 0.6840(2) 0.39008(11) 0.65223(17)
H11 H 0.7251 0.3434 0.7043
C15 C 0.8094(2) 0.45215(11) 0.64496(17)
H12 H 0.9336 0.4460 0.6915
N1 N 0.37211(18) 0.33621(8) 0.59298(14)
H13 H 0.2777 0.3474 0.6378
O1 O 0.08749(15) 0.29252(7) 0.69204(12)
C1B C 0.4991(2) 0.76143(11) 0.54687(18)
H1B H 0.5163 0.7263 0.6286
H2B H 0.5203 0.8163 0.5789
H3B H 0.3751 0.7560 0.4890
C2B C 0.6326(2) 0.73908(10) 0.45991(16)
C3B C 0.7622(2) 0.79344(10) 0.43858(17)
H4B H 0.7588 0.8455 0.4740
C4B C 0.9012(2) 0.77478(10) 0.36548(16)
C5B C 1.0406(2) 0.83819(10) 0.35618(16)
C6B C 1.0927(2) 0.89775(11) 0.46087(18)
H5B H 1.0379 0.8993 0.5379
C7B C 1.2247(2) 0.95435(11) 0.4514(2)
H6B H 1.2597 0.9933 0.5226
C8B C 1.3048(2) 0.95331(12) 0.3364(2)
H7B H 1.3921 0.9921 0.3291
C9B C 1.2551(2) 0.89451(11) 0.23195(19)
H8B H 1.3095 0.8936 0.1546
C10B C 1.1249(2) 0.83703(11) 0.24214(17)
H9B H 1.0932 0.7972 0.1721
C11B C 0.7518(2) 0.52117(10) 0.57082(16)
H10B H 0.8366 0.5620 0.5684
C12B C 0.5640(2) 0.53154(10) 0.49724(15)
C13B C 0.4987(2) 0.60200(10) 0.41704(16)
C14B C 0.3160(2) 0.60992(11) 0.34777(17)
H11B H 0.2749 0.6566 0.2957
C15B C 0.1906(2) 0.54785(11) 0.35504(17)
H12B H 0.0664 0.5540 0.3085
N1B N 0.62789(18) 0.66379(8) 0.40702(14)
H13B H 0.7223 0.6526 0.3622
O1B O 0.91251(15) 0.70748(7) 0.30796(12)
loop_
_geom_bond_atom_site_label_1
_geom_bond_atom_site_label_2
_geom_bond_site_symmetry_1
_geom_bond_site_symmetry_2
C1 H1 1_555 1_555
H2 C1 1_555 1_555
H3 C1 1_555 1_555
C2 C1 1_555 1_555
C3 C2 1_555 1_555
H4 C3 1_555 1_555
C4 C3 1_555 1_555
C5 C4 1_555 1_555
C6 C5 1_555 1_555
H5 C6 1_555 1_555
C7 C6 1_555 1_555
H6 C7 1_555 1_555
C8 C7 1_555 1_555
H7 C8 1_555 1_555
C9 C8 1_555 1_555
H8 C9 1_555 1_555
C10 C5 1_555 1_555
H9 C10 1_555 1_555
C11 H10 1_555 1_555
C12 C11 1_555 1_555
C13 C12 1_555 1_555
C14 C13 1_555 1_555
H11 C14 1_555 1_555
C15 C14 1_555 1_555
H12 C15 1_555 1_555
N1 C2 1_555 1_555
H13 N1 1_555 1_555
O1 C4 1_555 1_555
C1B H1B 1_555 1_555
H2B C1B 1_555 1_555
H3B C1B 1_555 1_555
C2B C1B 1_555 1_555
C3B C2B 1_555 1_555
H4B C3B 1_555 1_555
C4B C3B 1_555 1_555
C5B C4B 1_555 1_555
C6B C5B 1_555 1_555
H5B C6B 1_555 1_555
C7B C6B 1_555 1_555
H6B C7B 1_555 1_555
C8B C7B 1_555 1_555
H7B C8B 1_555 1_555
C9B C8B 1_555 1_555
H8B C9B 1_555 1_555
C10B C5B 1_555 1_555
H9B C10B 1_555 1_555
C11B C15 1_555 1_555
H10B C11B 1_555 1_555
C12B C12 1_555 1_555
C13B C12B 1_555 1_555
C14B C13B 1_555 1_555
H11B C14B 1_555 1_555
C15B C11 1_555 1_555
H12B C15B 1_555 1_555
N1B C2B 1_555 1_555
H13B N1B 1_555 1_555
O1B C4B 1_555 1_555
C9 C10 1_555 1_555
C13 N1 1_555 1_555
C9B C10B 1_555 1_555
C11B C12B 1_555 1_555
C13B N1B 1_555 1_555
C14B C15B 1_555 1_555

#END
