
#######################################################################
#
#                 Cambridge Crystallographic Data Centre
#                                CCDC 
#
#######################################################################
#
# If this CIF has been generated from an entry in the Cambridge 
# Structural Database, then it will include bibliographic, chemical, 
# crystal, experimental, refinement or atomic coordinate data resulting 
# from the CCDC's data processing and validation procedures.
#
#######################################################################

data_AQESOF
_chemical_formula_moiety         'C23 H34 O7'
_chemical_name_systematic        
1,3-bis(2-Methoxy-2-methyl-1,3-dioxaspiro[4.5]dec-4-ylidene)acetone
_symmetry_cell_setting           monoclinic
_symmetry_space_group_name_H-M   'P 21/c'
_symmetry_Int_Tables_number      14
_space_group_name_Hall           '-P 2ybc'
loop_
_symmetry_equiv_pos_site_id
_symmetry_equiv_pos_as_xyz
1 x,y,z
2 -x,1/2+y,1/2-z
3 -x,-y,-z
4 x,1/2-y,1/2+z
_cell_length_a                   6.2722(15)
_cell_length_b                   23.910(6)
_cell_length_c                   15.208(4)
_cell_angle_alpha                90
_cell_angle_beta                 101.479(3)
_cell_angle_gamma                90
_cell_volume                     2235.1
_exptl_crystal_colour            colorless
_exptl_crystal_description       needle
_cell_formula_units_Z            4
loop_
_atom_site_label
_atom_site_type_symbol
_atom_site_fract_x
_atom_site_fract_y
_atom_site_fract_z
C1 C 0.2719(4) 0.69330(9) 0.29975(16)
C2 C 0.2061(4) 0.74117(9) 0.34877(16)
H1 H 0.2524 0.7406 0.4122
C3 C 0.0880(4) 0.78559(8) 0.31416(13)
C4 C -0.0265(3) 0.80129(8) 0.22006(13)
C5 C 0.1350(4) 0.81624(10) 0.15964(16)
H2 H 0.2311 0.8469 0.1876
H3 H 0.2272 0.7834 0.1540
C6 C 0.0149(5) 0.83443(12) 0.06620(17)
H4 H -0.0649 0.8697 0.0711
H5 H 0.1217 0.8416 0.0275
C7 C -0.1442(5) 0.78954(13) 0.02372(17)
H6 H -0.0632 0.7550 0.0155
H7 H -0.2213 0.8023 -0.0361
C8 C -0.3102(4) 0.77667(12) 0.08212(17)
H8 H -0.4095 0.7467 0.0538
H9 H -0.3983 0.8104 0.0871
C9 C -0.1944(4) 0.75805(10) 0.17577(16)
H10 H -0.1206 0.7219 0.1712
H11 H -0.3034 0.7523 0.2139
C10 C -0.0644(7) 0.8736(2) 0.3234(3)
C11 C 0.0588(19) 0.9275(4) 0.3281(10)
H12 H -0.0363 0.9568 0.2966
H13 H 0.1848 0.9228 0.2996
H14 H 0.1086 0.9382 0.3910
C12 C -0.3696(18) 0.8360(4) 0.3692(10)
H15 H -0.4884 0.8461 0.3994
H16 H -0.2830 0.8059 0.4026
H17 H -0.4302 0.8232 0.3081
C13 C 0.3779(4) 0.64837(9) 0.35764(15)
H18 H 0.3840 0.6528 0.4202
C14 C 0.4681(4) 0.60125(8) 0.33236(13)
C15 C 0.4986(4) 0.57874(8) 0.24254(13)
C16 C 0.6136(6) 0.51205(19) 0.3563(3)
C17 C 0.482(2) 0.4612(5) 0.3671(12)
H19 H 0.4839 0.4549 0.4310
H20 H 0.5433 0.4286 0.3421
H21 H 0.3312 0.4668 0.3353
C18 C 0.9732(19) 0.5485(5) 0.3972(13)
H22 H 1.1172 0.5382 0.4314
H23 H 0.9226 0.5824 0.4229
H24 H 0.9823 0.5555 0.3345
C19 C 0.6356(4) 0.61696(10) 0.19506(16)
H25 H 0.7794 0.6231 0.2346
H26 H 0.5628 0.6537 0.1836
C20 C 0.6675(4) 0.59168(12) 0.10611(17)
H27 H 0.7478 0.6184 0.0751
H28 H 0.7550 0.5570 0.1180
C21 C 0.4482(4) 0.57830(11) 0.04621(17)
H29 H 0.3660 0.6134 0.0303
H30 H 0.4719 0.5607 -0.0100
C22 C 0.3157(5) 0.53894(11) 0.09310(17)
H31 H 0.1727 0.5319 0.0535
H32 H 0.3924 0.5027 0.1047
C23 C 0.2815(4) 0.56375(10) 0.18144(15)
H33 H 0.2032 0.5364 0.2123
H34 H 0.1904 0.5978 0.1692
O1 O 0.2423(3) 0.69135(7) 0.21749(11)
O2 O 0.0710(16) 0.8293(3) 0.3696(3)
O3 O -0.1550(14) 0.8491(3) 0.2368(4)
O4 O -0.2349(6) 0.88343(15) 0.3657(2)
O5 O 0.5249(11) 0.56020(18) 0.3945(2)
O6 O 0.6303(17) 0.5291(3) 0.2665(3)
O7 O 0.8244(5) 0.50413(15) 0.4010(2)
C24? C -0.1381(11) 0.85999(18) 0.3266(4)
C25? C 0.7145(8) 0.52823(14) 0.3627(3)
C26? C -0.349(2) 0.8490(6) 0.3559(12)
C27? C 0.9491(18) 0.5451(7) 0.3854(14)
C28? C 0.099(2) 0.9335(6) 0.3146(12)
C29? C 0.4837(18) 0.4512(6) 0.3771(13)
H35? H -0.4608 0.8744 0.3240
H36? H -0.3295 0.8554 0.4206
H37? H -0.3932 0.8102 0.3422
H38? H 0.9990 0.5449 0.4507
H39? H 0.9657 0.5827 0.3622
H40? H 1.0362 0.5186 0.3582
H41? H 0.1294 0.9727 0.3318
H42? H 0.0693 0.9303 0.2491
H43? H 0.2261 0.9105 0.3400
H44? H 0.4880 0.4144 0.4059
H45? H 0.4390 0.4468 0.3119
H46? H 0.3794 0.4752 0.3992
O8? O 0.035(2) 0.8239(4) 0.3723(4)
O9? O 0.5802(10) 0.5682(2) 0.3985(2)
O10? O -0.1297(18) 0.8542(3) 0.2324(5)
O11? O 0.6088(18) 0.5263(3) 0.2689(3)
O12? O -0.0844(8) 0.91469(15) 0.3481(3)
O13? O 0.6939(6) 0.47598(12) 0.3976(2)
loop_
_geom_bond_atom_site_label_1
_geom_bond_atom_site_label_2
_geom_bond_site_symmetry_1
_geom_bond_site_symmetry_2
C1 C2 1_555 1_555
C2 H1 1_555 1_555
C3 C2 1_555 1_555
C4 C3 1_555 1_555
C5 C4 1_555 1_555
H2 C5 1_555 1_555
H3 C5 1_555 1_555
C6 C5 1_555 1_555
H4 C6 1_555 1_555
H5 C6 1_555 1_555
C7 C6 1_555 1_555
H6 C7 1_555 1_555
H7 C7 1_555 1_555
C8 C7 1_555 1_555
H8 C8 1_555 1_555
H9 C8 1_555 1_555
C9 C4 1_555 1_555
H10 C9 1_555 1_555
H11 C9 1_555 1_555
C10 C11 1_555 1_555
C11 H12 1_555 1_555
H13 C11 1_555 1_555
H14 C11 1_555 1_555
C12 H15 1_555 1_555
H16 C12 1_555 1_555
H17 C12 1_555 1_555
C13 C1 1_555 1_555
H18 C13 1_555 1_555
C14 C13 1_555 1_555
C15 C14 1_555 1_555
C16 C17 1_555 1_555
C17 H19 1_555 1_555
H20 C17 1_555 1_555
H21 C17 1_555 1_555
C18 H22 1_555 1_555
H23 C18 1_555 1_555
H24 C18 1_555 1_555
C19 C15 1_555 1_555
H25 C19 1_555 1_555
H26 C19 1_555 1_555
C20 C19 1_555 1_555
H27 C20 1_555 1_555
H28 C20 1_555 1_555
C21 C20 1_555 1_555
H29 C21 1_555 1_555
H30 C21 1_555 1_555
C22 C21 1_555 1_555
H31 C22 1_555 1_555
H32 C22 1_555 1_555
C23 C15 1_555 1_555
H33 C23 1_555 1_555
H34 C23 1_555 1_555
O1 C1 1_555 1_555
O2 C3 1_555 1_555
O3 C4 1_555 1_555
O4 C10 1_555 1_555
O5 C14 1_555 1_555
O6 C15 1_555 1_555
O7 C16 1_555 1_555
C8 C9 1_555 1_555
C10 O2 1_555 1_555
C10 O3 1_555 1_555
C12 O4 1_555 1_555
C16 O5 1_555 1_555
C16 O6 1_555 1_555
C18 O7 1_555 1_555
C22 C23 1_555 1_555

#END
