
#######################################################################
#
#                 Cambridge Crystallographic Data Centre
#                                CCDC 
#
#######################################################################
#
# If this CIF has been generated from an entry in the Cambridge 
# Structural Database, then it will include bibliographic, chemical, 
# crystal, experimental, refinement or atomic coordinate data resulting 
# from the CCDC's data processing and validation procedures.
#
#######################################################################

data_AQETAS
_chemical_formula_moiety         'C22 H37 N1 O4'
_chemical_name_systematic        
'tert-Butyl 1-allyl-5-hydroxy-3-methyl-14-oxo-10-azaspiro[5.8]tetradecane-10-carboxylate'
_symmetry_cell_setting           monoclinic
_symmetry_space_group_name_H-M   'P 21/c'
_symmetry_Int_Tables_number      14
_space_group_name_Hall           '-P 2ybc'
loop_
_symmetry_equiv_pos_site_id
_symmetry_equiv_pos_as_xyz
1 x,y,z
2 -x,1/2+y,1/2-z
3 -x,-y,-z
4 x,1/2-y,1/2+z
_cell_length_a                   12.823(17)
_cell_length_b                   14.486(19)
_cell_length_c                   11.782(16)
_cell_angle_alpha                90
_cell_angle_beta                 94.06(3)
_cell_angle_gamma                90
_cell_volume                     2183.06
_cell_formula_units_Z            4
loop_
_atom_site_label
_atom_site_type_symbol
_atom_site_fract_x
_atom_site_fract_y
_atom_site_fract_z
C1 C -0.1064(7) 0.8059(6) 0.1556(7)
H1 H -0.1768 0.7849 0.1338
H2 H -0.0583 0.7614 0.1268
C2 C -0.0900(7) 0.8962(6) 0.0997(7)
H3 H -0.1548 0.9309 0.0981
H4 H -0.0747 0.8848 0.0214
C3 C -0.0023(7) 0.9560(6) 0.1561(7)
H5 H -0.0048 1.0166 0.1209
H6 H -0.0143 0.9638 0.2359
C4 C 0.1059(7) 0.9150(6) 0.1465(8)
C5 C 0.1867(7) 0.9183(6) 0.2459(8)
C6 C 0.1443(7) 0.8543(6) 0.3392(8)
H7 H 0.2011 0.8419 0.3959
H8 H 0.0911 0.8881 0.3767
C7 C 0.0966(7) 0.7599(6) 0.2978(8)
H9 H 0.0947 0.7575 0.2154
H10 H 0.1415 0.7104 0.3274
C8 C -0.0118(7) 0.7446(6) 0.3346(8)
H11 H -0.0322 0.6814 0.3170
H12 H -0.0104 0.7519 0.4165
C9 C 0.1998(7) 1.0172(6) 0.2994(7)
H13 H 0.2513 1.0118 0.3646
C10 C 0.2424(7) 1.0858(6) 0.2191(8)
H14 H 0.2502 1.1452 0.2570
H15 H 0.1928 1.0934 0.1537
C11 C 0.3474(8) 1.0565(6) 0.1786(8)
H16 H 0.3983 1.0573 0.2447
C12 C 0.3425(8) 0.9597(7) 0.1335(8)
H17 H 0.4123 0.9400 0.1178
H18 H 0.2996 0.9588 0.0623
C13 C 0.2973(7) 0.8910(6) 0.2165(8)
H19 H 0.3415 0.8959 0.2876
C14 C -0.1523(7) 0.8529(6) 0.3448(9)
C15 C -0.2924(9) 0.9687(8) 0.3235(8)
C16 C -0.2201(10) 1.0418(7) 0.3758(9)
H20 H -0.1789 1.0160 0.4393
H21 H -0.2607 1.0924 0.4015
H22 H -0.1748 1.0634 0.3201
C17 C -0.3519(10) 1.0048(11) 0.2171(10)
H23 H -0.3042 1.0343 0.1694
H24 H -0.4034 1.0486 0.2378
H25 H -0.3859 0.9544 0.1766
C18 C -0.3650(10) 0.9302(9) 0.4064(11)
H26 H -0.4033 0.8792 0.3721
H27 H -0.4131 0.9774 0.4264
H28 H -0.3251 0.9095 0.4737
C19 C 0.3856(9) 1.1233(7) 0.0910(9)
H29 H 0.4563 1.1085 0.0764
H30 H 0.3826 1.1852 0.1196
H31 H 0.3418 1.1183 0.0216
C20 C 0.3109(8) 0.7919(6) 0.1739(9)
H32 H 0.2734 0.7503 0.2209
H33 H 0.2798 0.7873 0.0967
C21 C 0.4224(10) 0.7618(7) 0.1757(12)
H34 H 0.4618 0.7648 0.2450
C22 C 0.4684(12) 0.7321(9) 0.0899(15)
H35 H 0.4318 0.7280 0.0190
H36 H 0.5383 0.7147 0.0984
N1 N -0.0918(6) 0.8068(5) 0.2817(6)
O1 O -0.1452(5) 0.8552(4) 0.4488(5)
O2 O -0.2302(5) 0.8937(4) 0.2801(5)
O3 O 0.1263(5) 0.8844(4) 0.0527(5)
O4 O 0.1053(5) 1.0493(4) 0.3424(5)
H37 H 0.1183 1.0924 0.3862
loop_
_geom_bond_atom_site_label_1
_geom_bond_atom_site_label_2
_geom_bond_site_symmetry_1
_geom_bond_site_symmetry_2
C1 H1 1_555 1_555
H2 C1 1_555 1_555
C2 C1 1_555 1_555
H3 C2 1_555 1_555
H4 C2 1_555 1_555
C3 C2 1_555 1_555
H5 C3 1_555 1_555
H6 C3 1_555 1_555
C4 C3 1_555 1_555
C5 C4 1_555 1_555
C6 C5 1_555 1_555
H7 C6 1_555 1_555
H8 C6 1_555 1_555
C7 C6 1_555 1_555
H9 C7 1_555 1_555
H10 C7 1_555 1_555
C8 C7 1_555 1_555
H11 C8 1_555 1_555
H12 C8 1_555 1_555
C9 C5 1_555 1_555
H13 C9 1_555 1_555
C10 C9 1_555 1_555
H14 C10 1_555 1_555
H15 C10 1_555 1_555
C11 C10 1_555 1_555
H16 C11 1_555 1_555
C12 C11 1_555 1_555
H17 C12 1_555 1_555
H18 C12 1_555 1_555
C13 C5 1_555 1_555
H19 C13 1_555 1_555
C14 N1 1_555 1_555
C15 C16 1_555 1_555
C16 H20 1_555 1_555
H21 C16 1_555 1_555
H22 C16 1_555 1_555
C17 C15 1_555 1_555
H23 C17 1_555 1_555
H24 C17 1_555 1_555
H25 C17 1_555 1_555
C18 C15 1_555 1_555
H26 C18 1_555 1_555
H27 C18 1_555 1_555
H28 C18 1_555 1_555
C19 C11 1_555 1_555
H29 C19 1_555 1_555
H30 C19 1_555 1_555
H31 C19 1_555 1_555
C20 C13 1_555 1_555
H32 C20 1_555 1_555
H33 C20 1_555 1_555
C21 C20 1_555 1_555
H34 C21 1_555 1_555
C22 C21 1_555 1_555
H35 C22 1_555 1_555
H36 C22 1_555 1_555
N1 C1 1_555 1_555
O1 C14 1_555 1_555
O2 C14 1_555 1_555
O3 C4 1_555 1_555
O4 C9 1_555 1_555
H37 O4 1_555 1_555
C8 N1 1_555 1_555
C12 C13 1_555 1_555
C15 O2 1_555 1_555

#END
