
#######################################################################
#
#                 Cambridge Crystallographic Data Centre
#                                CCDC 
#
#######################################################################
#
# If this CIF has been generated from an entry in the Cambridge 
# Structural Database, then it will include bibliographic, chemical, 
# crystal, experimental, refinement or atomic coordinate data resulting 
# from the CCDC's data processing and validation procedures.
#
#######################################################################

data_AQETEW
_chemical_formula_moiety         'C23 H41 N1 O6'
_chemical_name_systematic        
't-Butyl 7a,8-dihydroxy-13-(methoxymethoxy)-11-methyldodecahydro-1H-indeno[1,7a-e]azonine-4(5H)-carboxylate'
_symmetry_cell_setting           monoclinic
_symmetry_space_group_name_H-M   'C 2/c'
_symmetry_Int_Tables_number      15
_space_group_name_Hall           '-C 2yn'
loop_
_symmetry_equiv_pos_site_id
_symmetry_equiv_pos_as_xyz
1 x,y,z
2 -x,y,1/2-z
3 1/2+x,1/2+y,z
4 1/2-x,1/2+y,1/2-z
5 -x,-y,-z
6 x,-y,1/2+z
7 1/2-x,1/2-y,-z
8 1/2+x,1/2-y,1/2+z
_cell_length_a                   26.326(14)
_cell_length_b                   11.382(6)
_cell_length_c                   18.769(10)
_cell_angle_alpha                90
_cell_angle_beta                 121.197(5)
_cell_angle_gamma                90
_cell_volume                     4810.71
_exptl_crystal_colour            colorless
_exptl_crystal_description       block
_cell_formula_units_Z            8
loop_
_atom_site_label
_atom_site_type_symbol
_atom_site_fract_x
_atom_site_fract_y
_atom_site_fract_z
C1 C 0.21518(9) 0.75853(18) 0.14334(13)
H1 H 0.2336 0.8348 0.1631
H2 H 0.1814 0.7548 0.1509
C2 C 0.19210(9) 0.75085(17) 0.05048(12)
H3 H 0.2263 0.7487 0.0438
H4 H 0.1709 0.8231 0.0250
C3 C 0.15167(9) 0.64902(17) 0.00079(12)
H5 H 0.1271 0.6745 -0.0566
H6 H 0.1254 0.6340 0.0216
C4 C 0.18104(8) 0.53034(16) 0.00072(11)
C5 C 0.16767(8) 0.42217(16) 0.03882(11)
C6 C 0.20586(8) 0.41942(17) 0.13485(11)
H7 H 0.2039 0.3406 0.1529
H8 H 0.2468 0.4333 0.1509
C7 C 0.19020(8) 0.50614(19) 0.18332(12)
H9 H 0.1565 0.5531 0.1438
H10 H 0.1782 0.4619 0.2163
C8 C 0.24043(9) 0.58768(19) 0.24038(12)
H11 H 0.2285 0.6331 0.2730
H12 H 0.2746 0.5409 0.2787
C9 C 0.16255(9) 0.48935(17) -0.08918(12)
H13 H 0.1223 0.5165 -0.1294
C10 C 0.16442(9) 0.35621(17) -0.08658(12)
H14 H 0.1912 0.3272 -0.1035
H15 H 0.1252 0.3243 -0.1240
C11 C 0.18614(8) 0.31971(16) 0.00290(11)
H16 H 0.2296 0.3188 0.0329
C12 C 0.16627(9) 0.19881(17) 0.01241(12)
H17 H 0.1899 0.1754 0.0704
H18 H 0.1740 0.1432 -0.0200
C13 C 0.10098(9) 0.19180(18) -0.01507(13)
H19 H 0.0775 0.2046 -0.0754
C14 C 0.08601(9) 0.28834(19) 0.02658(13)
H20 H 0.1071 0.2735 0.0861
H21 H 0.0438 0.2853 0.0062
C15 C 0.10144(8) 0.41072(17) 0.01197(11)
H22 H 0.0934 0.4663 0.0449
C16 C 0.31180(9) 0.67176(19) 0.20558(12)
C17 C 0.40321(10) 0.5611(2) 0.25655(15)
C18 C 0.42150(14) 0.4448(3) 0.3022(2)
H23 H 0.4259 0.4537 0.3560
H24 H 0.4586 0.4201 0.3088
H25 H 0.3916 0.3869 0.2707
C19 C 0.39369(12) 0.5467(3) 0.17071(17)
H26 H 0.3618 0.4923 0.1394
H27 H 0.4294 0.5173 0.1751
H28 H 0.3838 0.6214 0.1429
C20 C 0.44695(11) 0.6561(3) 0.30676(18)
H29 H 0.4337 0.7295 0.2775
H30 H 0.4851 0.6367 0.3150
H31 H 0.4500 0.6629 0.3598
C21 C 0.08528(12) 0.0712(2) 0.00315(16)
H32 H 0.1094 0.0551 0.0617
H33 H 0.0923 0.0125 -0.0275
H34 H 0.0441 0.0700 -0.0133
C22 C 0.01373(9) 0.5063(2) -0.09570(15)
H35 H 0.0228 0.5605 -0.0507
H36 H 0.0028 0.5525 -0.1450
C23 C -0.05731(13) 0.3731(3) -0.1839(2)
H37 H -0.0716 0.4251 -0.2307
H38 H -0.0895 0.3255 -0.1902
H39 H -0.0268 0.3234 -0.1810
N1 N 0.25781(7) 0.66861(15) 0.19587(10)
O1 O 0.32813(7) 0.74834(13) 0.17627(10)
O2 O 0.34610(6) 0.58240(13) 0.25079(9)
O3 O 0.24412(5) 0.54298(12) 0.04496(8)
H40 H 0.2551 0.5525 0.0117
O4 O 0.20334(7) 0.53193(13) -0.11179(10)
H41 H 0.1941 0.5990 -0.1301
O5 O 0.06475(5) 0.44221(12) -0.07472(8)
O6 O -0.03409(7) 0.43893(17) -0.11069(11)
loop_
_geom_bond_atom_site_label_1
_geom_bond_atom_site_label_2
_geom_bond_site_symmetry_1
_geom_bond_site_symmetry_2
C1 H1 1_555 1_555
H2 C1 1_555 1_555
C2 C1 1_555 1_555
H3 C2 1_555 1_555
H4 C2 1_555 1_555
C3 C2 1_555 1_555
H5 C3 1_555 1_555
H6 C3 1_555 1_555
C4 C3 1_555 1_555
C5 C4 1_555 1_555
C6 C5 1_555 1_555
H7 C6 1_555 1_555
H8 C6 1_555 1_555
C7 C6 1_555 1_555
H9 C7 1_555 1_555
H10 C7 1_555 1_555
C8 C7 1_555 1_555
H11 C8 1_555 1_555
H12 C8 1_555 1_555
C9 C4 1_555 1_555
H13 C9 1_555 1_555
C10 C9 1_555 1_555
H14 C10 1_555 1_555
H15 C10 1_555 1_555
C11 C5 1_555 1_555
H16 C11 1_555 1_555
C12 C11 1_555 1_555
H17 C12 1_555 1_555
H18 C12 1_555 1_555
C13 C12 1_555 1_555
H19 C13 1_555 1_555
C14 C13 1_555 1_555
H20 C14 1_555 1_555
H21 C14 1_555 1_555
C15 C5 1_555 1_555
H22 C15 1_555 1_555
C16 N1 1_555 1_555
C17 C18 1_555 1_555
C18 H23 1_555 1_555
H24 C18 1_555 1_555
H25 C18 1_555 1_555
C19 C17 1_555 1_555
H26 C19 1_555 1_555
H27 C19 1_555 1_555
H28 C19 1_555 1_555
C20 C17 1_555 1_555
H29 C20 1_555 1_555
H30 C20 1_555 1_555
H31 C20 1_555 1_555
C21 C13 1_555 1_555
H32 C21 1_555 1_555
H33 C21 1_555 1_555
H34 C21 1_555 1_555
C22 H35 1_555 1_555
H36 C22 1_555 1_555
C23 H37 1_555 1_555
H38 C23 1_555 1_555
H39 C23 1_555 1_555
N1 C1 1_555 1_555
O1 C16 1_555 1_555
O2 C16 1_555 1_555
O3 C4 1_555 1_555
H40 O3 1_555 1_555
O4 C9 1_555 1_555
H41 O4 1_555 1_555
O5 C15 1_555 1_555
O6 C22 1_555 1_555
C8 N1 1_555 1_555
C10 C11 1_555 1_555
C14 C15 1_555 1_555
C17 O2 1_555 1_555
C22 O5 1_555 1_555
C23 O6 1_555 1_555

#END
