
#######################################################################
#
#                 Cambridge Crystallographic Data Centre
#                                CCDC 
#
#######################################################################
#
# If this CIF has been generated from an entry in the Cambridge 
# Structural Database, then it will include bibliographic, chemical, 
# crystal, experimental, refinement or atomic coordinate data resulting 
# from the CCDC's data processing and validation procedures.
#
#######################################################################

data_AQIHEN
_chemical_formula_moiety         'C17 H26 O4'
_chemical_name_systematic        
(3aR,4S,4aS,5R,7S,7aS,8R,8aS)-3a,4a,5,6,7,7a,8,8a-octahydro-2,2,4,6,6-pentamethyl-4,8-etheno-4H-indeno[5,6-d]-1,3-dioxole-5,7-diol
_symmetry_cell_setting           monoclinic
_symmetry_space_group_name_H-M   'P 21'
_symmetry_Int_Tables_number      4
_space_group_name_Hall           'P 2yb'
loop_
_symmetry_equiv_pos_site_id
_symmetry_equiv_pos_as_xyz
1 x,y,z
2 -x,1/2+y,-z
_cell_length_a                   9.2853(2)
_cell_length_b                   8.2538(2)
_cell_length_c                   10.7776(3)
_cell_angle_alpha                90
_cell_angle_beta                 107.9399(10)
_cell_angle_gamma                90
_cell_volume                     785.825
_exptl_crystal_colour            colorless
_exptl_crystal_description       prism
_chemical_melting_point          'sublimes at 106-107 deg.C'
_cell_formula_units_Z            2
loop_
_atom_site_label
_atom_site_type_symbol
_atom_site_fract_x
_atom_site_fract_y
_atom_site_fract_z
O1 O 0.54297(19) 0.2866(2) 0.91343(18)
O2 O 0.56679(19) -0.0479(2) 0.91516(18)
O3 O 0.94122(19) -0.0024(2) 0.66528(19)
O4 O 0.93385(17) 0.2715(2) 0.66632(18)
C1 C 0.7058(2) 0.2744(3) 0.9576(2)
C2 C 0.75803(17) 0.1342(4) 1.05694(15)
C3 C 0.7260(3) -0.0136(3) 0.9650(2)
C4 C 0.7008(3) -0.0295(3) 0.7145(3)
C5 C 0.7839(3) 0.0360(3) 0.6212(3)
C6 C 0.7789(3) 0.2235(3) 0.6198(2)
C7 C 0.6877(2) 0.2882(3) 0.7085(2)
C8 C 0.5370(3) 0.2019(4) 0.6583(3)
C9 C 0.5437(3) 0.0397(4) 0.6629(3)
C10 C 1.0226(2) 0.1381(3) 0.64801(17)
C11 C 0.9288(2) 0.1466(4) 1.12748(18)
C12 C 0.6754(2) 0.1299(4) 1.15965(16)
C13 C 0.7834(3) 0.0402(3) 0.8513(2)
C14 C 0.7721(2) 0.2282(3) 0.8478(2)
C15 C 0.6737(2) 0.4729(3) 0.7014(2)
C16 C 1.1719(2) 0.1404(4) 0.7545(2)
C17 C 1.0383(3) 0.1392(5) 0.5118(2)
H1 H 0.509(3) 0.184(4) 0.892(3)
H2 H 0.544(3) -0.102(4) 0.974(3)
H3 H 0.7413(2) 0.3835(3) 0.9949(2)
H4 H 0.7764(3) -0.1155(3) 1.0115(2)
H5 H 0.6982(3) -0.1503(3) 0.7205(3)
H6 H 0.7330(3) -0.0132(3) 0.5339(3)
H7 H 0.7265(3) 0.2689(3) 0.5313(2)
H8 H 0.4391(3) 0.2618(4) 0.6244(3)
H9 H 0.4514(3) -0.0302(4) 0.6341(3)
H10 H 0.9604(2) 0.0555(4) 1.19133(18)
H11 H 0.9519(2) 0.2523(4) 1.17480(18)
H12 H 0.9852(2) 0.1394(4) 1.06221(18)
H13 H 0.7145(2) 0.0373(4) 1.22058(16)
H14 H 0.6931(2) 0.2338(4) 1.20988(16)
H15 H 0.5644(2) 0.1154(4) 1.11557(16)
H16 H 0.8882(3) -0.0035(3) 0.8686(2)
H17 H 0.8712(2) 0.2861(3) 0.8668(2)
H18 H 0.6145(2) 0.5101(3) 0.7595(2)
H19 H 0.7769(2) 0.5226(3) 0.7307(2)
H20 H 0.6203(2) 0.5066(3) 0.6096(2)
H21 H 1.2311(2) 0.2380(4) 0.7444(2)
H22 H 1.2301(2) 0.0403(4) 0.7486(2)
H23 H 1.1540(2) 0.1441(4) 0.8413(2)
H24 H 1.0955(3) 0.2380(5) 0.5008(2)
H25 H 1.0942(3) 0.0402(5) 0.4992(2)
H26 H 0.9354(3) 0.1404(5) 0.4458(2)
loop_
_geom_bond_atom_site_label_1
_geom_bond_atom_site_label_2
_geom_bond_site_symmetry_1
_geom_bond_site_symmetry_2
O1 C1 1_555 1_555
O2 C3 1_555 1_555
O3 C5 1_555 1_555
O4 C6 1_555 1_555
C1 C2 1_555 1_555
C2 C3 1_555 1_555
C3 C13 1_555 1_555
C4 C5 1_555 1_555
C5 C6 1_555 1_555
C6 C7 1_555 1_555
C7 C8 1_555 1_555
C8 C9 1_555 1_555
C9 C4 1_555 1_555
C10 O3 1_555 1_555
C11 C2 1_555 1_555
C12 C2 1_555 1_555
C13 C4 1_555 1_555
C14 C1 1_555 1_555
C15 C7 1_555 1_555
C16 C10 1_555 1_555
C17 C10 1_555 1_555
H1 O1 1_555 1_555
H2 O2 1_555 1_555
H3 C1 1_555 1_555
H4 C3 1_555 1_555
H5 C4 1_555 1_555
H6 C5 1_555 1_555
H7 C6 1_555 1_555
H8 C8 1_555 1_555
H9 C9 1_555 1_555
H10 C11 1_555 1_555
H11 C11 1_555 1_555
H12 C11 1_555 1_555
H13 C12 1_555 1_555
H14 C12 1_555 1_555
H15 C12 1_555 1_555
H16 C13 1_555 1_555
H17 C14 1_555 1_555
H18 C15 1_555 1_555
H19 C15 1_555 1_555
H20 C15 1_555 1_555
H21 C16 1_555 1_555
H22 C16 1_555 1_555
H23 C16 1_555 1_555
H24 C17 1_555 1_555
H25 C17 1_555 1_555
H26 C17 1_555 1_555
O4 C10 1_555 1_555
C7 C14 1_555 1_555
C13 C14 1_555 1_555

#END
