
#######################################################################
#
#                 Cambridge Crystallographic Data Centre
#                                CCDC 
#
#######################################################################
#
# If this CIF has been generated from an entry in the Cambridge 
# Structural Database, then it will include bibliographic, chemical, 
# crystal, experimental, refinement or atomic coordinate data resulting 
# from the CCDC's data processing and validation procedures.
#
#######################################################################

data_AQIJIV
_chemical_formula_moiety         'C38 H18 N4'
_chemical_name_systematic        
phenanthro[4,5-abc]phenanthro[4',5':5,6,7,8]quinoxalino[2,3-i]phenazine
_symmetry_cell_setting           monoclinic
_symmetry_space_group_name_H-M   'P 21/n'
_symmetry_Int_Tables_number      14
_space_group_name_Hall           '-P 2yn'
loop_
_symmetry_equiv_pos_site_id
_symmetry_equiv_pos_as_xyz
1 x,y,z
2 1/2-x,1/2+y,1/2-z
3 -x,-y,-z
4 1/2+x,1/2-y,1/2+z
_cell_length_a                   24.2945(12)
_cell_length_b                   3.8517(2)
_cell_length_c                   25.4884(15)
_cell_angle_alpha                90
_cell_angle_beta                 99.407(3)
_cell_angle_gamma                90
_cell_volume                     2353.01
_exptl_crystal_colour            red
_exptl_crystal_description       needle
_cell_formula_units_Z            4
loop_
_atom_site_label
_atom_site_type_symbol
_atom_site_fract_x
_atom_site_fract_y
_atom_site_fract_z
C1 C 0.55672(9) 0.4145(6) 0.13784(10)
C2 C 0.53633(9) 0.4156(6) 0.04670(10)
C3 C 0.57810(10) 0.4156(7) 0.23621(10)
C4 C 0.59363(9) 0.3260(6) 0.18693(10)
C5 C 0.48476(9) 0.5863(6) 0.04901(9)
C6 C 0.55055(8) 0.3304(6) -0.00224(9)
H1 H 0.5840 0.2166 -0.0037
H2 H 0.6204 0.3645 0.3652
H3 H 0.5405 0.6481 0.3684
H4 H 0.6541 0.1002 0.1536
H5 H 0.4157 0.9070 0.1641
H6 H 0.4518 0.9076 0.3226
H7 H 0.6880 0.1028 0.3121
H8 H 0.3922 1.0411 0.2462
H9 H 0.7131 -0.0329 0.2317
C7 C 0.48947(9) 0.6794(6) 0.19159(10)
C8 C 0.51180(11) 0.6797(7) 0.28831(10)
C9 C 0.50444(9) 0.5895(6) 0.14001(10)
C10 C 0.52630(10) 0.5908(6) 0.23847(9)
C11 C 0.61406(11) 0.3298(7) 0.28410(10)
C12 C 0.59731(12) 0.4225(8) 0.33357(11)
C13 C 0.54956(13) 0.5891(8) 0.33548(11)
C14 C 0.64385(10) 0.1594(7) 0.18619(10)
C15 C 0.43989(10) 0.8483(7) 0.19517(10)
C16 C 0.46142(12) 0.8490(7) 0.28989(11)
C17 C 0.66422(11) 0.1608(7) 0.28094(11)
C18 C 0.42595(11) 0.9305(7) 0.24438(11)
C19 C 0.67920(10) 0.0782(7) 0.23300(12)
N1 N 0.57189(7) 0.3300(5) 0.09222(8)
N2 N 0.46956(7) 0.6726(5) 0.09666(8)
C1B C 0.44328(9) 0.5855(6) -0.13784(10)
C2B C 0.46367(9) 0.5844(6) -0.04670(10)
C3B C 0.42190(10) 0.5844(7) -0.23621(10)
C4B C 0.40637(9) 0.6740(6) -0.18693(10)
C5B C 0.51524(9) 0.4137(6) -0.04901(9)
C6B C 0.44945(8) 0.6696(6) 0.00224(9)
H1B H 0.4160 0.7834 0.0037
H2B H 0.3796 0.6355 -0.3652
H3B H 0.4595 0.3519 -0.3684
H4B H 0.3459 0.8998 -0.1536
H5B H 0.5843 0.0930 -0.1641
H6B H 0.5482 0.0924 -0.3226
H7B H 0.3120 0.8972 -0.3121
H8B H 0.6078 -0.0411 -0.2462
H9B H 0.2869 1.0329 -0.2317
C7B C 0.51053(9) 0.3206(6) -0.19159(10)
C8B C 0.48820(11) 0.3203(7) -0.28831(10)
C9B C 0.49556(9) 0.4105(6) -0.14001(10)
C10B C 0.47370(10) 0.4092(6) -0.23847(9)
C11B C 0.38594(11) 0.6702(7) -0.28410(10)
C12B C 0.40269(12) 0.5775(8) -0.33357(11)
C13B C 0.45044(13) 0.4109(8) -0.33548(11)
C14B C 0.35615(10) 0.8406(7) -0.18619(10)
C15B C 0.56011(10) 0.1517(7) -0.19517(10)
C16B C 0.53858(12) 0.1510(7) -0.28989(11)
C17B C 0.33578(11) 0.8392(7) -0.28094(11)
C18B C 0.57405(11) 0.0695(7) -0.24438(11)
C19B C 0.32080(10) 0.9218(7) -0.23300(12)
N1B N 0.42811(7) 0.6700(5) -0.09222(8)
N2B N 0.53044(7) 0.3274(5) -0.09666(8)
H10 H 0.8207 1.3303 0.0831
H11 H 1.0185 1.3334 -0.0833
H12 H 0.7105 0.5934 -0.1949
H13 H 0.6682 0.9225 0.0478
H14 H 0.8661 0.9600 -0.1598
H15 H 0.6487 0.5837 -0.1260
H16 H 0.6342 0.6949 -0.0430
H17 H 0.7363 1.1848 0.1075
H18 H 0.7950 0.7147 -0.2198
C20 C 0.76274(9) 0.9910(6) -0.02906(10)
C21 C 0.80435(9) 1.1495(6) 0.00829(10)
C22 C 0.85830(9) 1.2323(6) -0.00694(10)
C23 C 0.82416(9) 0.9877(6) -0.09799(10)
C24 C 0.77226(9) 0.9147(6) -0.08185(10)
C25 C 0.86888(9) 1.1421(6) -0.05958(9)
C26 C 0.95836(9) 1.3437(6) -0.03728(9)
C27 C 0.94725(9) 1.4443(6) 0.01388(9)
C28 C 0.79345(9) 1.2223(7) 0.05870(11)
C29 C 1.01102(9) 1.4006(6) -0.05001(9)
C30 C 0.73885(11) 0.6921(7) -0.17033(12)
C31 C 0.70213(10) 0.9809(8) 0.03762(12)
C32 C 0.83189(10) 0.9119(7) -0.14920(11)
C33 C 0.72923(10) 0.7630(7) -0.11905(11)
C34 C 0.67723(10) 0.6846(7) -0.10187(13)
C35 C 0.66852(10) 0.7514(8) -0.05257(13)
C36 C 0.71067(10) 0.9076(7) -0.01410(11)
C37 C 0.74278(10) 1.1364(8) 0.07325(11)
C38 C 0.78925(12) 0.7649(8) -0.18522(11)
N3 N 0.91772(7) 1.1953(5) -0.07394(8)
N4 N 0.89630(7) 1.3838(5) 0.02831(8)
H10B H 1.1793 1.6697 -0.0831
H11B H 0.9815 1.6666 0.0833
H12B H 1.2895 2.4066 0.1949
H13B H 1.3318 2.0775 -0.0478
H14B H 1.1339 2.0400 0.1598
H15B H 1.3513 2.4163 0.1260
H16B H 1.3658 2.3051 0.0430
H17B H 1.2637 1.8152 -0.1075
H18B H 1.2050 2.2853 0.2198
C20B C 1.23726(9) 2.0090(6) 0.02906(10)
C21B C 1.19565(9) 1.8505(6) -0.00829(10)
C22B C 1.14170(9) 1.7677(6) 0.00694(10)
C23B C 1.17584(9) 2.0123(6) 0.09799(10)
C24B C 1.22774(9) 2.0853(6) 0.08185(10)
C25B C 1.13112(9) 1.8579(6) 0.05958(9)
C26B C 1.04164(9) 1.6563(6) 0.03728(9)
C27B C 1.05275(9) 1.5557(6) -0.01388(9)
C28B C 1.20655(9) 1.7777(7) -0.05870(11)
C29B C 0.98898(9) 1.5994(6) 0.05001(9)
C30B C 1.26115(11) 2.3079(7) 0.17033(12)
C31B C 1.29787(10) 2.0191(8) -0.03762(12)
C32B C 1.16811(10) 2.0881(7) 0.14920(11)
C33B C 1.27077(10) 2.2370(7) 0.11905(11)
C34B C 1.32277(10) 2.3154(7) 0.10187(13)
C35B C 1.33148(10) 2.2486(8) 0.05257(13)
C36B C 1.28933(10) 2.0924(7) 0.01410(11)
C37B C 1.25722(10) 1.8636(8) -0.07325(11)
C38B C 1.21075(12) 2.2351(8) 0.18522(11)
N3B N 1.08228(7) 1.8047(5) 0.07394(8)
N4B N 1.10370(7) 1.6162(5) -0.02831(8)
loop_
_geom_bond_atom_site_label_1
_geom_bond_atom_site_label_2
_geom_bond_site_symmetry_1
_geom_bond_site_symmetry_2
C1 C4 1_555 1_555
C2 C5 1_555 1_555
C3 C4 1_555 1_555
C4 C14 1_555 1_555
C5 N2 1_555 1_555
C6 C2 1_555 1_555
H1 C6 1_555 1_555
H2 C12 1_555 1_555
H3 C13 1_555 1_555
H4 C14 1_555 1_555
H5 C15 1_555 1_555
H6 C16 1_555 1_555
H7 C17 1_555 1_555
H8 C18 1_555 1_555
H9 C19 1_555 1_555
C7 C9 1_555 1_555
C8 C10 1_555 1_555
C9 C1 1_555 1_555
C10 C3 1_555 1_555
C11 C3 1_555 1_555
C12 C11 1_555 1_555
C13 C8 1_555 1_555
C14 C19 1_555 1_555
C15 C7 1_555 1_555
C16 C8 1_555 1_555
C17 C11 1_555 1_555
C18 C15 1_555 1_555
C19 C17 1_555 1_555
N1 C1 1_555 1_555
N2 C9 1_555 1_555
H10 C28 1_555 1_555
H11 C29 1_555 1_555
H12 C30 1_555 1_555
H13 C31 1_555 1_555
H14 C32 1_555 1_555
H15 C34 1_555 1_555
H16 C35 1_555 1_555
H17 C37 1_555 1_555
H18 C38 1_555 1_555
C20 C21 1_555 1_555
C21 C22 1_555 1_555
C22 C25 1_555 1_555
C23 C24 1_555 1_555
C24 C20 1_555 1_555
C25 C23 1_555 1_555
C26 C27 1_555 1_555
C27 N4 1_555 1_555
C28 C21 1_555 1_555
C29 C26 1_555 1_555
C30 C33 1_555 1_555
C31 C36 1_555 1_555
C32 C23 1_555 1_555
C33 C24 1_555 1_555
C34 C33 1_555 1_555
C35 C34 1_555 1_555
C36 C20 1_555 1_555
C37 C28 1_555 1_555
C38 C30 1_555 1_555
N3 C25 1_555 1_555
N4 C22 1_555 1_555
C1B C4B 1_555 1_555
C2B C5B 1_555 1_555
C3B C4B 1_555 1_555
C4B C14B 1_555 1_555
C5B C6 1_555 1_555
C6B C5 1_555 1_555
H1B C6B 1_555 1_555
H2B C12B 1_555 1_555
H3B C13B 1_555 1_555
H4B C14B 1_555 1_555
H5B C15B 1_555 1_555
H6B C16B 1_555 1_555
H7B C17B 1_555 1_555
H8B C18B 1_555 1_555
H9B C19B 1_555 1_555
C7B C9B 1_555 1_555
C8B C10B 1_555 1_555
C9B C1B 1_555 1_555
C10B C3B 1_555 1_555
C11B C3B 1_555 1_555
C12B C11B 1_555 1_555
C13B C8B 1_555 1_555
C14B C19B 1_555 1_555
C15B C7B 1_555 1_555
C16B C8B 1_555 1_555
C17B C11B 1_555 1_555
C18B C15B 1_555 1_555
C19B C17B 1_555 1_555
N1B C1B 1_555 1_555
N2B C5B 1_555 1_555
H10B C28B 1_555 1_555
H11B C29B 1_555 1_555
H12B C30B 1_555 1_555
H13B C31B 1_555 1_555
H14B C32B 1_555 1_555
H15B C34B 1_555 1_555
H16B C35B 1_555 1_555
H17B C37B 1_555 1_555
H18B C38B 1_555 1_555
C20B C21B 1_555 1_555
C21B C22B 1_555 1_555
C22B C25B 1_555 1_555
C23B C24B 1_555 1_555
C24B C20B 1_555 1_555
C25B C23B 1_555 1_555
C26B C27B 1_555 1_555
C27B C29 1_555 1_555
C28B C21B 1_555 1_555
C29B C27 1_555 1_555
C30B C33B 1_555 1_555
C31B C36B 1_555 1_555
C32B C23B 1_555 1_555
C33B C24B 1_555 1_555
C34B C33B 1_555 1_555
C35B C34B 1_555 1_555
C36B C20B 1_555 1_555
C37B C28B 1_555 1_555
C38B C30B 1_555 1_555
N3B C25B 1_555 1_555
N4B C22B 1_555 1_555
C2 N1 1_555 1_555
C7 C10 1_555 1_555
C12 C13 1_555 1_555
C16 C18 1_555 1_555
C26 N3 1_555 1_555
C31 C37 1_555 1_555
C32 C38 1_555 1_555
C35 C36 1_555 1_555
C2B C6B 1_555 1_555
C2B N1B 1_555 1_555
C7B C10B 1_555 1_555
C9B N2B 1_555 1_555
C12B C13B 1_555 1_555
C16B C18B 1_555 1_555
C26B C29B 1_555 1_555
C26B N3B 1_555 1_555
C27B N4B 1_555 1_555
C31B C37B 1_555 1_555
C32B C38B 1_555 1_555
C35B C36B 1_555 1_555

#END
