
#######################################################################
#
#                 Cambridge Crystallographic Data Centre
#                                CCDC 
#
#######################################################################
#
# If this CIF has been generated from an entry in the Cambridge 
# Structural Database, then it will include bibliographic, chemical, 
# crystal, experimental, refinement or atomic coordinate data resulting 
# from the CCDC's data processing and validation procedures.
#
#######################################################################

data_AQOFAP
_chemical_formula_moiety         'C26 H34 O3 Si1'
_chemical_name_systematic        
'methyl 2-(biphenyl-4-yl)-4-((t-butyl(dimethyl)silyl)oxy)-4-methylhexa-2,5-dienoate'
_symmetry_cell_setting           triclinic
_symmetry_space_group_name_H-M   'P -1'
_symmetry_Int_Tables_number      2
_space_group_name_Hall           '-P 1'
loop_
_symmetry_equiv_pos_site_id
_symmetry_equiv_pos_as_xyz
1 x,y,z
2 -x,-y,-z
_cell_length_a                   7.3339(9)
_cell_length_b                   9.4346(9)
_cell_length_c                   19.065(2)
_cell_angle_alpha                97.209(8)
_cell_angle_beta                 93.599(10)
_cell_angle_gamma                110.142(10)
_cell_volume                     1220.71
_cell_formula_units_Z            2
loop_
_atom_site_label
_atom_site_type_symbol
_atom_site_fract_x
_atom_site_fract_y
_atom_site_fract_z
C1 C 0.8194(5) 0.2997(3) 0.66664(15)
C2 C 1.0156(5) 0.3527(3) 0.65421(16)
H1 H 1.0829 0.4594 0.6564
C3 C 1.1133(5) 0.2535(3) 0.63882(16)
H2 H 1.2460 0.2924 0.6299
C4 C 1.0204(5) 0.0977(3) 0.63623(15)
C5 C 0.8261(5) 0.0433(3) 0.64946(16)
H3 H 0.7609 -0.0631 0.6490
C6 C 0.7264(5) 0.1432(3) 0.66337(16)
H4 H 0.5924 0.1039 0.6708
C7 C 1.1270(5) -0.0093(3) 0.61962(16)
C8 C 1.2088(5) -0.0169(3) 0.55622(17)
H5 H 1.2001 0.0491 0.5234
C9 C 1.3030(5) -0.1196(4) 0.54006(19)
H6 H 1.3540 -0.1261 0.4957
C10 C 1.3229(5) -0.2117(4) 0.5879(2)
H7 H 1.3906 -0.2800 0.5775
C11 C 1.2437(6) -0.2044(4) 0.6516(2)
H8 H 1.2581 -0.2676 0.6850
C12 C 1.1438(5) -0.1063(3) 0.66714(17)
H9 H 1.0863 -0.1049 0.7104
C13 C 0.7098(5) 0.4047(3) 0.68042(15)
C14 C 0.6921(5) 0.5010(4) 0.62496(16)
C15 C 0.8010(5) 0.5882(4) 0.51949(17)
H10 H 0.6719 0.5584 0.4925
H11 H 0.8968 0.5813 0.4869
H12 H 0.8396 0.6936 0.5441
C16 C 0.6234(5) 0.4260(4) 0.73823(16)
H13 H 0.5520 0.4923 0.7344
C17 C 0.6151(5) 0.3671(4) 0.80876(16)
C18 C 0.7913(6) 0.3262(4) 0.83369(18)
H14 H 0.9123 0.4114 0.8311
H15 H 0.7902 0.2344 0.8030
H16 H 0.7837 0.3067 0.8829
C19 C 0.4288(6) 0.2308(4) 0.80371(18)
H17 H 0.4260 0.1372 0.7777
C20 C 0.2726(7) 0.2302(5) 0.8318(2)
H18 H 0.2690 0.3213 0.8583
H19 H 0.1613 0.1387 0.8259
C21 C 0.9370(6) 0.7392(4) 0.8313(2)
H20 H 1.0160 0.6744 0.8244
H21 H 1.0218 0.8432 0.8524
H22 H 0.8714 0.7414 0.7853
C22 C 0.8756(6) 0.6591(4) 0.97878(19)
H23 H 0.7778 0.6183 1.0108
H24 H 0.9598 0.7636 0.9994
H25 H 0.9551 0.5947 0.9723
C23 C 0.5938(6) 0.7814(4) 0.90191(19)
C24 C 0.4290(7) 0.7099(5) 0.9469(2)
H26 H 0.3508 0.7754 0.9540
H27 H 0.4858 0.7004 0.9932
H28 H 0.3453 0.6085 0.9222
C25 C 0.7174(7) 0.9436(4) 0.9385(3)
H29 H 0.8263 0.9873 0.9111
H30 H 0.7689 0.9400 0.9867
H31 H 0.6362 1.0072 0.9411
C26 C 0.5015(7) 0.7882(5) 0.8291(2)
H32 H 0.4174 0.8492 0.8349
H33 H 0.4231 0.6844 0.8055
H34 H 0.6046 0.8354 0.8000
O1 O 0.5990(4) 0.5837(3) 0.62882(14)
O2 O 0.7933(3) 0.4875(2) 0.57092(11)
O3 O 0.5998(3) 0.4865(2) 0.86045(11)
Si1 Si 0.75091(14) 0.66080(10) 0.89172(5)
loop_
_geom_bond_atom_site_label_1
_geom_bond_atom_site_label_2
_geom_bond_site_symmetry_1
_geom_bond_site_symmetry_2
C1 C2 1_555 1_555
C2 H1 1_555 1_555
C3 C2 1_555 1_555
H2 C3 1_555 1_555
C4 C3 1_555 1_555
C5 C4 1_555 1_555
H3 C5 1_555 1_555
C6 C1 1_555 1_555
H4 C6 1_555 1_555
C7 C4 1_555 1_555
C8 C7 1_555 1_555
H5 C8 1_555 1_555
C9 C8 1_555 1_555
H6 C9 1_555 1_555
C10 C9 1_555 1_555
H7 C10 1_555 1_555
C11 C10 1_555 1_555
H8 C11 1_555 1_555
C12 C7 1_555 1_555
H9 C12 1_555 1_555
C13 C1 1_555 1_555
C14 C13 1_555 1_555
C15 H10 1_555 1_555
H11 C15 1_555 1_555
H12 C15 1_555 1_555
C16 C13 1_555 1_555
H13 C16 1_555 1_555
C17 C16 1_555 1_555
C18 C17 1_555 1_555
H14 C18 1_555 1_555
H15 C18 1_555 1_555
H16 C18 1_555 1_555
C19 C17 1_555 1_555
H17 C19 1_555 1_555
C20 C19 1_555 1_555
H18 C20 1_555 1_555
H19 C20 1_555 1_555
C21 H20 1_555 1_555
H21 C21 1_555 1_555
H22 C21 1_555 1_555
C22 H23 1_555 1_555
H24 C22 1_555 1_555
H25 C22 1_555 1_555
C23 C24 1_555 1_555
C24 H26 1_555 1_555
H27 C24 1_555 1_555
H28 C24 1_555 1_555
C25 C23 1_555 1_555
H29 C25 1_555 1_555
H30 C25 1_555 1_555
H31 C25 1_555 1_555
C26 C23 1_555 1_555
H32 C26 1_555 1_555
H33 C26 1_555 1_555
H34 C26 1_555 1_555
O1 C14 1_555 1_555
O2 C14 1_555 1_555
O3 C17 1_555 1_555
Si1 C21 1_555 1_555
C5 C6 1_555 1_555
C11 C12 1_555 1_555
C15 O2 1_555 1_555
C22 Si1 1_555 1_555
C23 Si1 1_555 1_555
O3 Si1 1_555 1_555

#END
