
#######################################################################
#
#                 Cambridge Crystallographic Data Centre
#                                CCDC 
#
#######################################################################
#
# If this CIF has been generated from an entry in the Cambridge 
# Structural Database, then it will include bibliographic, chemical, 
# crystal, experimental, refinement or atomic coordinate data resulting 
# from the CCDC's data processing and validation procedures.
#
#######################################################################

data_AQOMUQ
_chemical_formula_moiety         'C37 H27 Cl2 N1 O6,C1 H2 Cl2'
_chemical_name_systematic        
"dimethyl 1',4'-bis(4-chlorophenyl)-1,3-dioxo-2'-(2-phenylvinyl)-1,1',3,4'-tetrahydro-2'H-spiro[indene-2,3'-pyridine]-5',6'-dicarboxylate dichloromethane solvate"
_symmetry_cell_setting           monoclinic
_symmetry_space_group_name_H-M   'P 21/c'
_symmetry_Int_Tables_number      14
_space_group_name_Hall           '-P 2ybc'
loop_
_symmetry_equiv_pos_site_id
_symmetry_equiv_pos_as_xyz
1 x,y,z
2 -x,1/2+y,1/2-z
3 -x,-y,-z
4 x,1/2-y,1/2+z
_cell_length_a                   13.010(4)
_cell_length_b                   13.170(4)
_cell_length_c                   22.769(6)
_cell_angle_alpha                90
_cell_angle_beta                 114.624(16)
_cell_angle_gamma                90
_cell_volume                     3546.5
_exptl_crystal_colour            colorless
_exptl_crystal_description       block
_cell_formula_units_Z            4
loop_
_atom_site_label
_atom_site_type_symbol
_atom_site_fract_x
_atom_site_fract_y
_atom_site_fract_z
C1 C 0.7282(4) 0.9548(4) 0.6389(2)
H1 H 0.6857 1.0119 0.6383
C2 C 0.8064(5) 0.9614(5) 0.6124(3)
H2 H 0.8129 1.0212 0.5926
C3 C 0.8722(6) 0.8823(6) 0.6151(4)
H3 H 0.9246 0.8864 0.5972
C4 C 0.8615(9) 0.7969(7) 0.6441(6)
H4 H 0.9096 0.7425 0.6480
C5 C 0.7797(8) 0.7877(6) 0.6685(5)
H5 H 0.7719 0.7265 0.6866
C6 C 0.7113(4) 0.8671(3) 0.6661(2)
C7 C 0.6268(4) 0.8640(3) 0.6930(2)
H6 H 0.5882 0.9241 0.6914
C8 C 0.5997(4) 0.7844(3) 0.7196(2)
H7 H 0.6389 0.7240 0.7232
C9 C 0.5095(3) 0.7872(3) 0.7439(2)
H8 H 0.4899 0.8584 0.7465
C10 C 0.6610(3) 0.7146(3) 0.8464(2)
C11 C 0.6912(4) 0.6142(3) 0.8637(2)
H9 H 0.6362 0.5637 0.8497
C12 C 0.8021(4) 0.5889(4) 0.9017(2)
H10 H 0.8221 0.5223 0.9153
C13 C 0.8829(4) 0.6645(4) 0.9191(2)
C14 C 0.8547(4) 0.7644(4) 0.9012(2)
H11 H 0.9105 0.8141 0.9131
C15 C 0.7429(4) 0.7896(3) 0.8655(2)
H12 H 0.7226 0.8569 0.8544
C16 C 0.3633(3) 0.7750(3) 0.6292(2)
C17 C 0.3696(3) 0.6955(3) 0.5860(2)
C18 C 0.3454(4) 0.6999(4) 0.5205(2)
H13 H 0.3223 0.7603 0.4976
C19 C 0.3566(5) 0.6115(4) 0.4906(3)
H14 H 0.3425 0.6129 0.4470
C20 C 0.3883(5) 0.5214(4) 0.5245(3)
H15 H 0.3929 0.4628 0.5030
C21 C 0.4130(4) 0.5160(3) 0.5888(2)
H16 H 0.4358 0.4553 0.6114
C22 C 0.4032(3) 0.6043(3) 0.6197(2)
C23 C 0.4249(3) 0.6188(3) 0.6881(2)
C24 C 0.4004(3) 0.7310(3) 0.69712(18)
C25 C 0.3058(3) 0.7458(3) 0.72107(18)
H17 H 0.2803 0.8164 0.7124
C26 C 0.2047(3) 0.6779(3) 0.68085(19)
C27 C 0.1238(4) 0.7144(4) 0.6232(2)
H18 H 0.1289 0.7806 0.6106
C28 C 0.0355(4) 0.6529(4) 0.5843(2)
H19 H -0.0182 0.6775 0.5453
C29 C 0.0274(4) 0.5568(4) 0.6033(2)
C30 C 0.1066(4) 0.5182(4) 0.6610(2)
H20 H 0.1001 0.4525 0.6740
C31 C 0.1945(4) 0.5792(3) 0.6984(2)
H21 H 0.2491 0.5536 0.7367
C32 C 0.3503(3) 0.7293(3) 0.79311(19)
C33 C 0.2738(4) 0.7300(3) 0.8256(2)
C34 C 0.0883(5) 0.7587(6) 0.8153(3)
H22 H 0.0848 0.6928 0.8324
H23 H 0.0148 0.7770 0.7834
H24 H 0.1125 0.8077 0.8497
C35 C 0.4630(3) 0.7218(3) 0.83026(19)
C36 C 0.5087(4) 0.6967(4) 0.9016(2)
C37 C 0.6078(13) 0.7364(11) 1.0092(5)
H25 H 0.5522 0.7230 1.0257
H26 H 0.6572 0.7897 1.0340
H27 H 0.6511 0.6760 1.0124
Cl1 Cl 1.02472(11) 0.63395(13) 0.96472(8)
Cl2 Cl -0.08478(13) 0.47911(14) 0.55449(9)
N1 N 0.5449(3) 0.7412(3) 0.80906(16)
O1 O 0.3315(3) 0.8621(2) 0.61483(16)
O2 O 0.4588(3) 0.5551(2) 0.72986(14)
O3 O 0.2994(3) 0.7127(3) 0.88166(16)
O4 O 0.1679(3) 0.7566(3) 0.78598(16)
O5 O 0.5083(3) 0.6043(3) 0.91611(16)
O6 O 0.5503(3) 0.7681(3) 0.94046(15)
C39 C 0.8530(12) 0.5153(10) 0.7685(6)
H31 H 0.8576 0.5718 0.7968
H32 H 0.8761 0.4537 0.7939
Cl3 Cl 0.7002(2) 0.50200(19) 0.6997(2)
Cl4 Cl 0.9309(3) 0.5359(3) 0.7283(3)
C38? C 0.5515(14) 0.5834(12) 0.9821(6)
H28? H 0.6318 0.5733 0.9985
H29? H 0.5166 0.5232 0.9890
H30? H 0.5361 0.6395 1.0041
loop_
_geom_bond_atom_site_label_1
_geom_bond_atom_site_label_2
_geom_bond_site_symmetry_1
_geom_bond_site_symmetry_2
C1 H1 1_555 1_555
C2 C1 1_555 1_555
H2 C2 1_555 1_555
C3 C2 1_555 1_555
H3 C3 1_555 1_555
C4 C3 1_555 1_555
H4 C4 1_555 1_555
C5 C4 1_555 1_555
H5 C5 1_555 1_555
C6 C1 1_555 1_555
C7 C6 1_555 1_555
H6 C7 1_555 1_555
C8 C7 1_555 1_555
H7 C8 1_555 1_555
C9 C8 1_555 1_555
H8 C9 1_555 1_555
C10 C11 1_555 1_555
C11 H9 1_555 1_555
C12 C11 1_555 1_555
H10 C12 1_555 1_555
C13 C12 1_555 1_555
C14 C13 1_555 1_555
H11 C14 1_555 1_555
C15 C10 1_555 1_555
H12 C15 1_555 1_555
C16 C17 1_555 1_555
C17 C18 1_555 1_555
C18 H13 1_555 1_555
C19 C18 1_555 1_555
H14 C19 1_555 1_555
C20 C19 1_555 1_555
H15 C20 1_555 1_555
C21 C20 1_555 1_555
H16 C21 1_555 1_555
C22 C17 1_555 1_555
C23 C22 1_555 1_555
C24 C9 1_555 1_555
C25 C24 1_555 1_555
H17 C25 1_555 1_555
C26 C25 1_555 1_555
C27 C26 1_555 1_555
H18 C27 1_555 1_555
C28 C27 1_555 1_555
H19 C28 1_555 1_555
C29 C28 1_555 1_555
C30 C29 1_555 1_555
H20 C30 1_555 1_555
C31 C26 1_555 1_555
H21 C31 1_555 1_555
C32 C25 1_555 1_555
C33 C32 1_555 1_555
C34 H22 1_555 1_555
H23 C34 1_555 1_555
H24 C34 1_555 1_555
C35 C32 1_555 1_555
C36 C35 1_555 1_555
C37 H25 1_555 1_555
H26 C37 1_555 1_555
H27 C37 1_555 1_555
Cl1 C13 1_555 1_555
Cl2 C29 1_555 1_555
N1 C9 1_555 1_555
O1 C16 1_555 1_555
O2 C23 1_555 1_555
O3 C33 1_555 1_555
O4 C33 1_555 1_555
O5 C36 1_555 1_555
O6 C36 1_555 1_555
C39 H31 1_555 1_555
H32 C39 1_555 1_555
Cl3 C39 1_555 1_555
Cl4 C39 1_555 1_555
C5 C6 1_555 1_555
C10 N1 1_555 1_555
C14 C15 1_555 1_555
C16 C24 1_555 1_555
C21 C22 1_555 1_555
C23 C24 1_555 1_555
C30 C31 1_555 1_555
C34 O4 1_555 1_555
C35 N1 1_555 1_555
C37 O6 1_555 1_555

#END
