
#######################################################################
#
#                 Cambridge Crystallographic Data Centre
#                                CCDC 
#
#######################################################################
#
# If this CIF has been generated from an entry in the Cambridge 
# Structural Database, then it will include bibliographic, chemical, 
# crystal, experimental, refinement or atomic coordinate data resulting 
# from the CCDC's data processing and validation procedures.
#
#######################################################################

data_AQOMOK
_chemical_formula_moiety         'C38 H30 Br1 N1 O7'
_chemical_name_systematic        
"dimethyl 4'-(4-bromophenyl)-1'-(4-methoxyphenyl)-1,3-dioxo-2'-(2-phenylvinyl)-1,1',3,4'-tetrahydro-2'H-spiro[indene-2,3'-pyridine]-5',6'-dicarboxylate"
_symmetry_cell_setting           monoclinic
_symmetry_space_group_name_H-M   'C 2/c'
_symmetry_Int_Tables_number      15
_space_group_name_Hall           '-C 2yn'
loop_
_symmetry_equiv_pos_site_id
_symmetry_equiv_pos_as_xyz
1 x,y,z
2 -x,y,1/2-z
3 1/2+x,1/2+y,z
4 1/2-x,1/2+y,1/2-z
5 -x,-y,-z
6 x,-y,1/2+z
7 1/2-x,1/2-y,-z
8 1/2+x,1/2-y,1/2+z
_cell_length_a                   34.675(4)
_cell_length_b                   9.5355(10)
_cell_length_c                   24.915(3)
_cell_angle_alpha                90
_cell_angle_beta                 126.294(3)
_cell_angle_gamma                90
_cell_volume                     6639.73
_exptl_crystal_colour            colorless
_exptl_crystal_description       BLOCK
_cell_formula_units_Z            8
loop_
_atom_site_label
_atom_site_type_symbol
_atom_site_fract_x
_atom_site_fract_y
_atom_site_fract_z
Br1 Br 0.20331(16) 0.1963(3) 1.3341(2)
C1 C 0.15804(8) 0.5623(2) 1.00122(11)
C2 C 0.20382(7) 0.5113(2) 1.01631(11)
C3 C 0.23040(10) 0.5652(3) 0.99619(14)
H1 H 0.2198 0.6423 0.9679
C4 C 0.27325(12) 0.5007(4) 1.01955(19)
H2 H 0.2917 0.5343 1.0065
C5 C 0.28922(11) 0.3876(4) 1.06175(19)
H3 H 0.3188 0.3485 1.0778
C6 C 0.26262(10) 0.3304(3) 1.08097(16)
H4 H 0.2732 0.2520 1.1084
C7 C 0.21918(7) 0.3951(2) 1.05760(11)
C8 C 0.18368(8) 0.3554(2) 1.06935(11)
C9 C 0.14533(7) 0.4717(2) 1.03966(10)
C10 C 0.20908(9) 0.4785(3) 1.21231(12)
H5 H 0.2319 0.5342 1.2144
C11 C 0.22219(9) 0.3960(3) 1.26687(13)
H6 H 0.2536 0.3964 1.3052
C12 C 0.18839(10) 0.3149(3) 1.26332(13)
C13 C 0.14202(10) 0.3152(2) 1.20853(13)
H7 H 0.1193 0.2608 1.2073
C14 C 0.12915(8) 0.3980(2) 1.15433(11)
H8 H 0.0975 0.3991 1.1168
C15 C 0.16268(7) 0.4788(2) 1.15531(10)
C16 C 0.15059(7) 0.5638(2) 1.09539(10)
H9 H 0.1776 0.6272 1.1113
C17 C 0.10670(7) 0.6548(2) 1.06602(10)
C18 C 0.10871(8) 0.7750(2) 1.10359(12)
C19 C 0.15789(12) 0.9139(4) 1.2001(2)
H10 H 0.1554 1.0015 1.1793
H11 H 0.1884 0.9084 1.2428
H12 H 0.1328 0.9078 1.2058
C20 C 0.06569(7) 0.6293(2) 1.00534(10)
C21 C 0.02305(8) 0.7277(2) 0.97393(10)
C22 C -0.00808(11) 0.9421(3) 0.91668(16)
H13 H -0.0383 0.8944 0.8909
H14 H -0.0050 1.0003 0.8879
H15 H -0.0063 0.9993 0.9498
C23 C 0.06482(10) 0.1603(3) 0.81873(13)
H16 H 0.0548 0.2533 0.8098
C24 C 0.06217(12) 0.0804(3) 0.77049(15)
H17 H 0.0502 0.1194 0.7292
C25 C 0.07720(12) -0.0572(3) 0.78352(15)
H18 H 0.0763 -0.1101 0.7514
C26 C 0.09342(10) -0.1157(3) 0.84331(14)
H19 H 0.1029 -0.2092 0.8515
C27 C 0.09590(9) -0.0376(2) 0.89161(13)
H20 H 0.1067 -0.0788 0.9321
C28 C 0.08231(8) 0.1031(2) 0.88024(11)
C29 C 0.08702(8) 0.1866(2) 0.93358(11)
H21 H 0.0884 0.1379 0.9670
C30 C 0.08948(7) 0.3244(2) 0.93799(11)
H22 H 0.0877 0.3744 0.9046
C31 C 0.09495(7) 0.4052(2) 0.99365(10)
H23 H 0.0904 0.3409 1.0201
C32 C 0.01612(7) 0.5072(2) 0.89921(10)
C33 C -0.01812(8) 0.4094(2) 0.88227(11)
H24 H -0.0141 0.3479 0.9142
C34 C -0.05919(8) 0.4024(3) 0.81662(13)
H25 H -0.0828 0.3363 0.8045
C35 C -0.06448(9) 0.4942(3) 0.76995(12)
C36 C -0.14265(11) 0.4146(4) 0.68476(18)
H26 H -0.1339 0.3180 0.6876
H27 H -0.1689 0.4365 0.6397
H28 H -0.1520 0.4308 0.7136
C37 C -0.02996(10) 0.5901(3) 0.78704(12)
H29 H -0.0338 0.6511 0.7551
C38 C 0.01065(9) 0.5971(3) 0.85163(12)
H30 H 0.0344 0.6622 0.8632
N1 N 0.05846(6) 0.51686(17) 0.96693(8)
O1 O 0.13522(7) 0.6591(2) 0.96525(10)
O2 O 0.18337(7) 0.24908(18) 1.09528(10)
O3 O 0.07540(6) 0.84523(19) 1.09064(10)
O4 O 0.15333(6) 0.7992(2) 1.15858(10)
O5 O -0.01255(6) 0.70238(17) 0.96924(8)
O6 O 0.03038(6) 0.83983(16) 0.94910(8)
O7 O -0.10403(8) 0.4989(3) 0.70411(10)
Br2? Br 0.2124(6) 0.2131(11) 1.3438(6)
loop_
_geom_bond_atom_site_label_1
_geom_bond_atom_site_label_2
_geom_bond_site_symmetry_1
_geom_bond_site_symmetry_2
Br1 C12 1_555 1_555
C1 C2 1_555 1_555
C2 C3 1_555 1_555
C3 H1 1_555 1_555
C4 C3 1_555 1_555
H2 C4 1_555 1_555
C5 C4 1_555 1_555
H3 C5 1_555 1_555
C6 C5 1_555 1_555
H4 C6 1_555 1_555
C7 C2 1_555 1_555
C8 C7 1_555 1_555
C9 C1 1_555 1_555
C10 H5 1_555 1_555
C11 C10 1_555 1_555
H6 C11 1_555 1_555
C12 C11 1_555 1_555
C13 C12 1_555 1_555
H7 C13 1_555 1_555
C14 C13 1_555 1_555
H8 C14 1_555 1_555
C15 C10 1_555 1_555
C16 C9 1_555 1_555
H9 C16 1_555 1_555
C17 C16 1_555 1_555
C18 C17 1_555 1_555
C19 H10 1_555 1_555
H11 C19 1_555 1_555
H12 C19 1_555 1_555
C20 C17 1_555 1_555
C21 C20 1_555 1_555
C22 H13 1_555 1_555
H14 C22 1_555 1_555
H15 C22 1_555 1_555
C23 H16 1_555 1_555
C24 C23 1_555 1_555
H17 C24 1_555 1_555
C25 C24 1_555 1_555
H18 C25 1_555 1_555
C26 C25 1_555 1_555
H19 C26 1_555 1_555
C27 C26 1_555 1_555
H20 C27 1_555 1_555
C28 C23 1_555 1_555
C29 C28 1_555 1_555
H21 C29 1_555 1_555
C30 C29 1_555 1_555
H22 C30 1_555 1_555
C31 C9 1_555 1_555
H23 C31 1_555 1_555
C32 C33 1_555 1_555
C33 H24 1_555 1_555
C34 C33 1_555 1_555
H25 C34 1_555 1_555
C35 C34 1_555 1_555
C36 H26 1_555 1_555
H27 C36 1_555 1_555
H28 C36 1_555 1_555
C37 C35 1_555 1_555
H29 C37 1_555 1_555
C38 C32 1_555 1_555
H30 C38 1_555 1_555
N1 C20 1_555 1_555
O1 C1 1_555 1_555
O2 C8 1_555 1_555
O3 C18 1_555 1_555
O4 C18 1_555 1_555
O5 C21 1_555 1_555
O6 C21 1_555 1_555
O7 C35 1_555 1_555
C6 C7 1_555 1_555
C8 C9 1_555 1_555
C14 C15 1_555 1_555
C15 C16 1_555 1_555
C19 O4 1_555 1_555
C22 O6 1_555 1_555
C27 C28 1_555 1_555
C30 C31 1_555 1_555
C31 N1 1_555 1_555
C32 N1 1_555 1_555
C36 O7 1_555 1_555
C37 C38 1_555 1_555

#END
