
#######################################################################
#
#                 Cambridge Crystallographic Data Centre
#                                CCDC 
#
#######################################################################
#
# If this CIF has been generated from an entry in the Cambridge 
# Structural Database, then it will include bibliographic, chemical, 
# crystal, experimental, refinement or atomic coordinate data resulting 
# from the CCDC's data processing and validation procedures.
#
#######################################################################

data_AQOQAZ
_chemical_formula_moiety         'C15 H26 N2 O2,2(H2 O1)'
_chemical_name_systematic        
'(1-Decyl-1H-imidazol-3-ium-3-yl)acetate dihydrate'
_symmetry_cell_setting           monoclinic
_symmetry_space_group_name_H-M   'C 2/c'
_symmetry_Int_Tables_number      15
_space_group_name_Hall           '-C 2yn'
loop_
_symmetry_equiv_pos_site_id
_symmetry_equiv_pos_as_xyz
1 x,y,z
2 -x,y,1/2-z
3 1/2+x,1/2+y,z
4 1/2-x,1/2+y,1/2-z
5 -x,-y,-z
6 x,-y,1/2+z
7 1/2-x,1/2-y,-z
8 1/2+x,1/2-y,1/2+z
_cell_length_a                   45.265(4)
_cell_length_b                   8.3038(8)
_cell_length_c                   9.1833(9)
_cell_angle_alpha                90
_cell_angle_beta                 98.583(2)
_cell_angle_gamma                90
_cell_volume                     3413.08
_exptl_crystal_colour            colorless
_exptl_crystal_description       columnar
_chemical_melting_point          '38.5 deg.C'
_cell_formula_units_Z            8
_exptl_crystal_recrystallization_method methanol/ether
loop_
_atom_site_label
_atom_site_type_symbol
_atom_site_fract_x
_atom_site_fract_y
_atom_site_fract_z
O1 O 0.23158(2) 0.66383(13) 0.19828(12)
O2 O 0.27930(2) 0.71850(14) 0.18304(12)
N1 N 0.28500(3) 0.44449(15) 0.01730(13)
N2 N 0.32656(3) 0.45646(15) -0.07020(13)
C1 C 0.30002(3) 0.30301(18) 0.05510(16)
H5 H 0.2934 0.2167 0.1098
C2 C 0.32590(3) 0.30988(18) 0.00011(16)
H6 H 0.3409 0.2290 0.0081
C3 C 0.30143(3) 0.53487(19) -0.05883(16)
H7 H 0.2961 0.6383 -0.0985
C4 C 0.25570(3) 0.48848(19) 0.05505(17)
H8 H 0.2477 0.3959 0.1049
H9 H 0.2419 0.5093 -0.0371
C5 C 0.25619(3) 0.63712(18) 0.15507(16)
C6 C 0.35128(3) 0.5164(2) -0.14207(17)
H10 H 0.3452 0.6184 -0.1938
H11 H 0.3557 0.4371 -0.2163
C7 C 0.37921(3) 0.54491(19) -0.03100(17)
H12 H 0.3846 0.4444 0.0247
H13 H 0.3751 0.6288 0.0399
C8 C 0.40543(3) 0.5981(2) -0.10639(17)
H14 H 0.4100 0.5122 -0.1745
H15 H 0.3996 0.6957 -0.1657
C9 C 0.43342(3) 0.6342(2) 0.00245(18)
H16 H 0.4390 0.5369 0.0624
H17 H 0.4289 0.7207 0.0699
C10 C 0.45993(3) 0.6860(2) -0.07128(17)
H18 H 0.4645 0.5992 -0.1383
H19 H 0.4542 0.7829 -0.1319
C11 C 0.48798(3) 0.7236(2) 0.03686(17)
H20 H 0.4833 0.8094 0.1048
H21 H 0.4939 0.6263 0.0964
C12 C 0.51415(3) 0.7774(2) -0.03752(17)
H22 H 0.5081 0.8740 -0.0978
H23 H 0.5188 0.6912 -0.1050
C13 C 0.54233(3) 0.8167(2) 0.06925(18)
H24 H 0.5376 0.9013 0.1381
H25 H 0.5487 0.7194 0.1280
C14 C 0.56816(4) 0.8739(2) -0.0063(2)
H26 H 0.5618 0.9706 -0.0658
H27 H 0.5730 0.7888 -0.0743
C15 C 0.59615(4) 0.9146(2) 0.1008(2)
H28 H 0.6119 0.9507 0.0457
H29 H 0.6030 0.8187 0.1584
H30 H 0.5916 1.0005 0.1673
O3 O 0.32771(3) 1.08037(14) 0.36914(12)
H1 H 0.3312 1.0022 0.3002
H2 H 0.3073 1.0812 0.3483
O4 O 0.33571(3) 0.83558(15) 0.16780(12)
H3 H 0.3174 0.7908 0.1663
H4 H 0.3363 0.8714 0.0746
loop_
_geom_bond_atom_site_label_1
_geom_bond_atom_site_label_2
_geom_bond_site_symmetry_1
_geom_bond_site_symmetry_2
O1 C5 1_555 1_555
O2 C5 1_555 1_555
O3 H1 1_555 1_555
H2 O3 1_555 1_555
O4 H3 1_555 1_555
H4 O4 1_555 1_555
N1 C1 1_555 1_555
N2 C2 1_555 1_555
C1 H5 1_555 1_555
C2 C1 1_555 1_555
H6 C2 1_555 1_555
C3 N1 1_555 1_555
H7 C3 1_555 1_555
C4 N1 1_555 1_555
H8 C4 1_555 1_555
H9 C4 1_555 1_555
C5 C4 1_555 1_555
C6 N2 1_555 1_555
H10 C6 1_555 1_555
H11 C6 1_555 1_555
C7 C6 1_555 1_555
H12 C7 1_555 1_555
H13 C7 1_555 1_555
C8 C7 1_555 1_555
H14 C8 1_555 1_555
H15 C8 1_555 1_555
C9 C8 1_555 1_555
H16 C9 1_555 1_555
H17 C9 1_555 1_555
C10 C9 1_555 1_555
H18 C10 1_555 1_555
H19 C10 1_555 1_555
C11 C10 1_555 1_555
H20 C11 1_555 1_555
H21 C11 1_555 1_555
C12 C11 1_555 1_555
H22 C12 1_555 1_555
H23 C12 1_555 1_555
C13 C12 1_555 1_555
H24 C13 1_555 1_555
H25 C13 1_555 1_555
C14 C13 1_555 1_555
H26 C14 1_555 1_555
H27 C14 1_555 1_555
C15 C14 1_555 1_555
H28 C15 1_555 1_555
H29 C15 1_555 1_555
H30 C15 1_555 1_555
N2 C3 1_555 1_555

#END
