
#######################################################################
#
#                 Cambridge Crystallographic Data Centre
#                                CCDC 
#
#######################################################################
#
# If this CIF has been generated from an entry in the Cambridge 
# Structural Database, then it will include bibliographic, chemical, 
# crystal, experimental, refinement or atomic coordinate data resulting 
# from the CCDC's data processing and validation procedures.
#
#######################################################################

data_AQOQON
_chemical_formula_moiety         'C39 H30 N2 S1'
_chemical_name_systematic        
1-(4-t-Butylphenyl)-2-(5-(1-naphthyl)-2-thienyl)-1H-phenanthro[9,10-d]imidazole
_symmetry_cell_setting           triclinic
_symmetry_space_group_name_H-M   'P -1'
_symmetry_Int_Tables_number      2
_space_group_name_Hall           '-P 1'
loop_
_symmetry_equiv_pos_site_id
_symmetry_equiv_pos_as_xyz
1 x,y,z
2 -x,-y,-z
_cell_length_a                   9.4051(8)
_cell_length_b                   11.1593(10)
_cell_length_c                   14.8250(13)
_cell_angle_alpha                106.358(1)
_cell_angle_beta                 97.975(1)
_cell_angle_gamma                101.611(1)
_cell_volume                     1430.45
_exptl_crystal_colour            yellow
_exptl_crystal_description       block
_chemical_melting_point          '232 deg.C'
_cell_formula_units_Z            2
_exptl_crystal_recrystallization_method dichloromethane/n-hexane
loop_
_atom_site_label
_atom_site_type_symbol
_atom_site_fract_x
_atom_site_fract_y
_atom_site_fract_z
S1 S 0.47104(5) 0.56369(4) 0.29344(3)
N1 N 0.39321(15) 0.69215(13) 0.55969(9)
N2 N 0.30907(15) 0.50601(13) 0.43779(9)
C1 C 0.64706(18) 0.62522(16) 0.16995(11)
C2 C 0.23374(17) 0.50091(15) 0.51029(11)
C3 C 0.40371(17) 0.62079(15) 0.46924(11)
C4 C 0.28131(17) 0.61444(16) 0.58603(11)
C5 C 0.50420(17) 0.80326(15) 0.62461(11)
C6 C 0.61417(19) 0.78214(16) 0.68563(12)
H1 H 0.6155 0.6986 0.6843
C7 C 0.63592(17) 0.70001(16) 0.10640(11)
C8 C 0.12066(18) 0.39495(16) 0.51225(12)
C9 C 0.21140(18) 0.64110(17) 0.66691(11)
C10 C 0.09090(19) 0.54123(18) 0.66648(12)
C11 C 0.50011(18) 0.66472(15) 0.41007(11)
C12 C 0.61005(18) 0.66550(16) 0.26638(12)
C13 C 0.05111(18) 0.41474(17) 0.59170(12)
C14 C 0.72445(19) 1.01311(16) 0.75272(11)
C15 C 0.67340(19) 0.65659(17) 0.01513(12)
C16 C 0.6125(2) 1.03062(17) 0.69004(13)
H2 H 0.6110 1.1139 0.6905
C17 C 0.7219(2) 0.88602(18) 0.74860(12)
H3 H 0.7955 0.8711 0.7897
C18 C 0.5027(2) 0.92697(17) 0.62663(12)
H4 H 0.4283 0.9411 0.5856
C19 C 0.0811(2) 0.27479(17) 0.44030(13)
H5 H 0.1254 0.2634 0.3872
C20 C 0.6737(2) 0.77182(18) 0.34410(13)
H6 H 0.7504 0.8385 0.3435
C21 C 0.6904(2) 0.51314(18) 0.14073(13)
H7 H 0.6950 0.4634 0.1814
C22 C 0.7213(2) 0.54194(19) -0.00980(13)
H8 H 0.7485 0.5143 -0.0687
C23 C 0.2478(2) 0.76020(19) 0.74120(12)
H9 H 0.3280 0.8255 0.7427
C24 C 0.5867(2) 0.81403(18) 0.12926(14)
H10 H 0.5628 0.8451 0.1888
C25 C -0.0556(2) 0.3087(2) 0.59520(14)
H11 H -0.1040 0.3189 0.6464
C26 C 0.61267(19) 0.77178(17) 0.42576(12)
H12 H 0.6456 0.8378 0.4843
C27 C 0.0096(2) 0.5680(2) 0.73901(13)
H13 H -0.0713 0.5044 0.7390
C28 C 0.8509(2) 1.12421(19) 0.82083(13)
C29 C 0.6590(2) 0.7275(2) -0.04922(14)
H14 H 0.6835 0.6993 -0.1089
C30 C -0.0225(2) 0.17349(19) 0.44730(15)
H15 H -0.0470 0.0936 0.3996
C31 C -0.0901(2) 0.1907(2) 0.52532(16)
H16 H -0.1594 0.1219 0.5305
C32 C 0.0461(2) 0.6848(2) 0.80960(14)
H17 H -0.0100 0.6998 0.8567
C33 C 0.7282(2) 0.4714(2) 0.05090(14)
H18 H 0.7582 0.3951 0.0329
C34 C 0.1663(2) 0.7810(2) 0.81135(14)
H19 H 0.1919 0.8598 0.8603
C35 C 0.6102(3) 0.8354(2) -0.02545(17)
H20 H 0.6007 0.8809 -0.0688
C36 C 0.8186(3) 1.2560(2) 0.82945(17)
H21 H 0.7308 1.2604 0.8550
H22 H 0.8039 1.2668 0.7671
H23 H 0.9010 1.3232 0.8716
C37 C 0.9900(2) 1.1200(3) 0.77958(18)
H24 H 1.0688 1.1938 0.8175
H25 H 0.9701 1.1208 0.7145
H26 H 1.0189 1.0426 0.7807
C38 C 0.5740(3) 0.8792(2) 0.06423(17)
H27 H 0.5406 0.9540 0.0800
C39 C 0.8746(4) 1.1130(3) 0.92178(16)
H28 H 0.9511 1.1857 0.9640
H29 H 0.9036 1.0348 0.9200
H30 H 0.7840 1.1115 0.9448
loop_
_geom_bond_atom_site_label_1
_geom_bond_atom_site_label_2
_geom_bond_site_symmetry_1
_geom_bond_site_symmetry_2
S1 C11 1_555 1_555
N1 C3 1_555 1_555
N2 C2 1_555 1_555
C1 C7 1_555 1_555
C2 C4 1_555 1_555
C3 N2 1_555 1_555
C4 N1 1_555 1_555
C5 N1 1_555 1_555
C6 C5 1_555 1_555
H1 C6 1_555 1_555
C7 C15 1_555 1_555
C8 C2 1_555 1_555
C9 C4 1_555 1_555
C10 C9 1_555 1_555
C11 C3 1_555 1_555
C12 S1 1_555 1_555
C13 C8 1_555 1_555
C14 C16 1_555 1_555
C15 C22 1_555 1_555
C16 H2 1_555 1_555
C17 C6 1_555 1_555
H3 C17 1_555 1_555
C18 C5 1_555 1_555
H4 C18 1_555 1_555
C19 C8 1_555 1_555
H5 C19 1_555 1_555
C20 C12 1_555 1_555
H6 C20 1_555 1_555
C21 C1 1_555 1_555
H7 C21 1_555 1_555
C22 H8 1_555 1_555
C23 C9 1_555 1_555
H9 C23 1_555 1_555
C24 C7 1_555 1_555
H10 C24 1_555 1_555
C25 C13 1_555 1_555
H11 C25 1_555 1_555
C26 C11 1_555 1_555
H12 C26 1_555 1_555
C27 C10 1_555 1_555
H13 C27 1_555 1_555
C28 C14 1_555 1_555
C29 C15 1_555 1_555
H14 C29 1_555 1_555
C30 C19 1_555 1_555
H15 C30 1_555 1_555
C31 C25 1_555 1_555
H16 C31 1_555 1_555
C32 C27 1_555 1_555
H17 C32 1_555 1_555
C33 C21 1_555 1_555
H18 C33 1_555 1_555
C34 C23 1_555 1_555
H19 C34 1_555 1_555
C35 C29 1_555 1_555
H20 C35 1_555 1_555
C36 C28 1_555 1_555
H21 C36 1_555 1_555
H22 C36 1_555 1_555
H23 C36 1_555 1_555
C37 C28 1_555 1_555
H24 C37 1_555 1_555
H25 C37 1_555 1_555
H26 C37 1_555 1_555
C38 C24 1_555 1_555
H27 C38 1_555 1_555
C39 C28 1_555 1_555
H28 C39 1_555 1_555
H29 C39 1_555 1_555
H30 C39 1_555 1_555
C1 C12 1_555 1_555
C10 C13 1_555 1_555
C14 C17 1_555 1_555
C16 C18 1_555 1_555
C20 C26 1_555 1_555
C22 C33 1_555 1_555
C30 C31 1_555 1_555
C32 C34 1_555 1_555
C35 C38 1_555 1_555

#END
