
#######################################################################
#
#                 Cambridge Crystallographic Data Centre
#                                CCDC 
#
#######################################################################
#
# If this CIF has been generated from an entry in the Cambridge 
# Structural Database, then it will include bibliographic, chemical, 
# crystal, experimental, refinement or atomic coordinate data resulting 
# from the CCDC's data processing and validation procedures.
#
#######################################################################

data_AQORII
_chemical_formula_moiety         'C22 H48 N1 O2 1+,Br1 1-'
_chemical_name_systematic        
'3-(Hexadecyloxy)-2-hydroxy-N,N,N-trimethylpropan-1-aminium bromide'
_symmetry_cell_setting           monoclinic
_symmetry_space_group_name_H-M   'P 21'
_symmetry_Int_Tables_number      4
_space_group_name_Hall           'P 2yb'
loop_
_symmetry_equiv_pos_site_id
_symmetry_equiv_pos_as_xyz
1 x,y,z
2 -x,1/2+y,-z
_cell_length_a                   5.9075(10)
_cell_length_b                   7.3979(13)
_cell_length_c                   28.899(3)
_cell_angle_alpha                90
_cell_angle_beta                 90.592(1)
_cell_angle_gamma                90
_cell_volume                     1262.91
_cell_formula_units_Z            2
loop_
_atom_site_label
_atom_site_type_symbol
_atom_site_fract_x
_atom_site_fract_y
_atom_site_fract_z
Br1 Br 0.68627(13) 0.3025(4) 0.93038(3)
N1 N 0.9258(10) 0.289(2) 0.0709(2)
O1 O 0.9655(8) 0.299(2) 0.21668(18)
O2 O 1.3472(10) 0.4322(9) 0.1249(2)
H1 H 1.3427 0.5269 0.1102
C1 C 1.0060(14) 0.260(3) 0.1193(3)
H2 H 0.8736 0.2311 0.1375
H3 H 1.0998 0.1521 0.1192
C2 C 1.1331(16) 0.3994(15) 0.1450(3)
H4 H 1.0452 0.5115 0.1465
C3 C 1.1737(14) 0.322(4) 0.1937(3)
H5 H 1.2506 0.2066 0.1915
H6 H 1.2699 0.4036 0.2114
C4 C 1.1172(10) 0.308(3) 0.0383(2)
H7 H 1.0606 0.3465 0.0087
H8 H 1.1924 0.1937 0.0351
H9 H 1.2223 0.3961 0.0501
C5 C 0.801(2) 0.454(3) 0.0636(4)
H10 H 0.8946 0.5557 0.0719
H11 H 0.6682 0.4538 0.0825
H12 H 0.7571 0.4636 0.0316
C6 C 0.770(2) 0.138(2) 0.0604(5)
H13 H 0.6728 0.1179 0.0863
H14 H 0.8556 0.0306 0.0543
H15 H 0.6793 0.1677 0.0336
C7 C 0.9807(14) 0.338(3) 0.2631(3)
H16 H 1.0208 0.4646 0.2666
H17 H 1.1024 0.2670 0.2766
C8 C 0.7734(13) 0.303(3) 0.2890(3)
H18 H 0.6507 0.3646 0.2728
H19 H 0.7429 0.1749 0.2869
C9 C 0.7603(15) 0.353(2) 0.3367(3)
H20 H 0.7747 0.4835 0.3382
H21 H 0.8930 0.3031 0.3521
C10 C 0.5637(12) 0.303(3) 0.3646(2)
H22 H 0.4306 0.3505 0.3488
H23 H 0.5519 0.1727 0.3639
C11 C 0.5487(15) 0.359(2) 0.4131(3)
H24 H 0.6816 0.3108 0.4289
H25 H 0.5625 0.4893 0.4138
C12 C 0.3547(12) 0.312(3) 0.4413(3)
H26 H 0.2224 0.3622 0.4257
H27 H 0.3393 0.1820 0.4400
C13 C 0.3384(13) 0.3623(17) 0.4889(3)
H28 H 0.3497 0.4930 0.4903
H29 H 0.4719 0.3147 0.5045
C14 C 0.1433(12) 0.311(3) 0.5169(3)
H30 H 0.0101 0.3581 0.5011
H31 H 0.1324 0.1802 0.5154
C15 C 0.1241(14) 0.360(2) 0.5649(3)
H32 H 0.1350 0.4911 0.5662
H33 H 0.2579 0.3135 0.5805
C16 C -0.0683(12) 0.310(3) 0.5932(2)
H34 H -0.2014 0.3572 0.5774
H35 H -0.0791 0.1794 0.5915
C17 C -0.0928(14) 0.356(2) 0.6405(3)
H36 H -0.0797 0.4861 0.6421
H37 H 0.0398 0.3073 0.6562
C18 C -0.2842(13) 0.308(3) 0.6690(2)
H38 H -0.4156 0.3584 0.6532
H39 H -0.2986 0.1780 0.6665
C19 C -0.3145(15) 0.348(3) 0.7166(3)
H40 H -0.1882 0.2916 0.7327
H41 H -0.2922 0.4774 0.7195
C20 C -0.5072(14) 0.308(3) 0.7429(3)
H42 H -0.6275 0.3801 0.7293
H43 H -0.5437 0.1832 0.7352
C21 C -0.5374(15) 0.320(4) 0.7897(3)
H44 H -0.4388 0.4187 0.7992
H45 H -0.4676 0.2115 0.8020
C22 C -0.7286(16) 0.343(3) 0.8161(3)
H46 H -0.8599 0.3088 0.7984
H47 H -0.7412 0.4674 0.8252
H48 H -0.7176 0.2685 0.8433
loop_
_geom_bond_atom_site_label_1
_geom_bond_atom_site_label_2
_geom_bond_site_symmetry_1
_geom_bond_site_symmetry_2
N1 C1 1_555 1_555
O1 C3 1_555 1_555
O2 H1 1_555 1_555
C1 H2 1_555 1_555
H3 C1 1_555 1_555
C2 O2 1_555 1_555
H4 C2 1_555 1_555
C3 C2 1_555 1_555
H5 C3 1_555 1_555
H6 C3 1_555 1_555
C4 N1 1_555 1_555
H7 C4 1_555 1_555
H8 C4 1_555 1_555
H9 C4 1_555 1_555
C5 N1 1_555 1_555
H10 C5 1_555 1_555
H11 C5 1_555 1_555
H12 C5 1_555 1_555
C6 N1 1_555 1_555
H13 C6 1_555 1_555
H14 C6 1_555 1_555
H15 C6 1_555 1_555
C7 O1 1_555 1_555
H16 C7 1_555 1_555
H17 C7 1_555 1_555
C8 C7 1_555 1_555
H18 C8 1_555 1_555
H19 C8 1_555 1_555
C9 C8 1_555 1_555
H20 C9 1_555 1_555
H21 C9 1_555 1_555
C10 C9 1_555 1_555
H22 C10 1_555 1_555
H23 C10 1_555 1_555
C11 C10 1_555 1_555
H24 C11 1_555 1_555
H25 C11 1_555 1_555
C12 C11 1_555 1_555
H26 C12 1_555 1_555
H27 C12 1_555 1_555
C13 C12 1_555 1_555
H28 C13 1_555 1_555
H29 C13 1_555 1_555
C14 C13 1_555 1_555
H30 C14 1_555 1_555
H31 C14 1_555 1_555
C15 C14 1_555 1_555
H32 C15 1_555 1_555
H33 C15 1_555 1_555
C16 C15 1_555 1_555
H34 C16 1_555 1_555
H35 C16 1_555 1_555
C17 C16 1_555 1_555
H36 C17 1_555 1_555
H37 C17 1_555 1_555
C18 C17 1_555 1_555
H38 C18 1_555 1_555
H39 C18 1_555 1_555
C19 C18 1_555 1_555
H40 C19 1_555 1_555
H41 C19 1_555 1_555
C20 C19 1_555 1_555
H42 C20 1_555 1_555
H43 C20 1_555 1_555
C21 C20 1_555 1_555
H44 C21 1_555 1_555
H45 C21 1_555 1_555
C22 C21 1_555 1_555
H46 C22 1_555 1_555
H47 C22 1_555 1_555
H48 C22 1_555 1_555
C1 C2 1_555 1_555

#END
