
#######################################################################
#
#                 Cambridge Crystallographic Data Centre
#                                CCDC 
#
#######################################################################
#
# If this CIF has been generated from an entry in the Cambridge 
# Structural Database, then it will include bibliographic, chemical, 
# crystal, experimental, refinement or atomic coordinate data resulting 
# from the CCDC's data processing and validation procedures.
#
#######################################################################

data_AQOZIR
_chemical_formula_moiety         'C18 H36 Li1 N5 O9,2(H2 O1)'
_chemical_name_systematic        
'triaqua-(1-(3-((bis(dimethylamino)methylene)azaniumyl)-3-(carboxy)propanoyl)prolyl-2-methylalaninato)-lithium dihydrate'
_symmetry_cell_setting           monoclinic
_symmetry_space_group_name_H-M   'P 21'
_symmetry_Int_Tables_number      4
_space_group_name_Hall           'P 2yb'
loop_
_symmetry_equiv_pos_site_id
_symmetry_equiv_pos_as_xyz
1 x,y,z
2 -x,1/2+y,-z
_cell_length_a                   11.5430(8)
_cell_length_b                   7.5993(5)
_cell_length_c                   14.3503(10)
_cell_angle_alpha                90
_cell_angle_beta                 99.189(4)
_cell_angle_gamma                90
_cell_volume                     1242.64
_exptl_crystal_colour            colorless
_exptl_crystal_description       Prism
_cell_formula_units_Z            2
loop_
_atom_site_label
_atom_site_type_symbol
_atom_site_fract_x
_atom_site_fract_y
_atom_site_fract_z
O1 O 0.09374(15) 0.9130(2) 0.77123(11)
O2 O 0.15480(15) 0.6591(2) 0.71738(11)
O3 O 0.28820(16) 0.5468(2) 0.92172(11)
O4 O 0.49121(15) 0.2103(2) 0.76852(11)
O5 O 0.20176(15) 0.2096(2) 0.49942(11)
O6 O 0.22865(15) 0.49761(19) 0.48252(11)
O7 O 0.00003(19) 0.0639(2) 0.60149(13)
H1 H 0.030(3) 0.008(4) 0.658(2)
H2 H -0.072(4) 0.032(5) 0.582(2)
O8 O 0.20306(16) -0.1752(3) 0.56176(14)
H3 H 0.185(3) -0.225(5) 0.617(3)
H4 H 0.208(3) -0.272(5) 0.527(2)
O9 O 0.01226(18) -0.0666(3) 0.39282(12)
H5 H -0.049(4) -0.016(5) 0.360(3)
H6 H -0.001(3) -0.170(5) 0.384(2)
N1 N 0.09951(19) 0.4718(3) 0.86426(14)
H7 H 0.054(2) 0.382(3) 0.8417(17)
N2 N 0.35991(17) 0.2111(3) 0.86922(12)
N3 N 0.3836(2) 0.5256(3) 0.64324(14)
H8 H 0.331(3) 0.598(4) 0.663(2)
N4 N 0.53308(18) 0.6974(3) 0.71992(13)
N5 N 0.57323(18) 0.4872(2) 0.61169(14)
C1 C 0.1072(2) 0.7488(3) 0.77459(16)
C2 C 0.0510(2) 0.6509(3) 0.85070(16)
C3 C 0.0644(2) 0.7520(3) 0.94370(16)
H9 H 0.0346 0.6801 0.9914
H10 H 0.0197 0.8619 0.9345
H11 H 0.1475 0.7787 0.9649
C4 C -0.0788(2) 0.6299(3) 0.80956(18)
H12 H -0.1157 0.7461 0.8009
H13 H -0.1179 0.5602 0.8529
H14 H -0.0861 0.5697 0.7485
C5 C 0.2122(2) 0.4360(3) 0.89384(15)
C6 C 0.2427(2) 0.2400(3) 0.89416(16)
H15 H 0.1820 0.1737 0.8503
C7 C 0.2536(2) 0.1652(3) 0.99519(17)
H16 H 0.2659 0.2609 1.0426
H17 H 0.1822 0.0986 1.0035
C8 C 0.3606(2) 0.0437(3) 1.00467(17)
H18 H 0.3965 0.0287 1.0716
H19 H 0.3395 -0.0732 0.9766
C9 C 0.4421(2) 0.1419(3) 0.94973(17)
H20 H 0.4838 0.2382 0.9877
H21 H 0.5004 0.0617 0.9286
C10 C 0.3890(2) 0.2310(3) 0.78284(16)
C11 C 0.2896(2) 0.2705(3) 0.70158(16)
H22 H 0.2467 0.1605 0.6819
H23 H 0.2338 0.3540 0.7233
C12 C 0.3373(2) 0.3494(3) 0.61739(16)
H24 H 0.4045 0.2745 0.6052
C13 C 0.4970(2) 0.5686(3) 0.65785(15)
C14 C 0.4595(2) 0.7559(4) 0.78743(18)
H25 H 0.4015 0.8407 0.7570
H26 H 0.5085 0.8120 0.8413
H27 H 0.4190 0.6545 0.8094
C15 C 0.6287(2) 0.8171(3) 0.70685(17)
H28 H 0.6630 0.7798 0.6518
H29 H 0.6891 0.8145 0.7632
H30 H 0.5980 0.9370 0.6968
C16 C 0.6918(2) 0.4392(4) 0.65851(17)
H31 H 0.7500 0.5085 0.6316
H32 H 0.7052 0.3137 0.6488
H33 H 0.6991 0.4635 0.7263
C17 C 0.5424(2) 0.4281(4) 0.51404(16)
H34 H 0.5419 0.2992 0.5121
H35 H 0.6003 0.4728 0.4769
H36 H 0.4644 0.4727 0.4876
C18 C 0.2465(2) 0.3543(3) 0.52551(16)
Li1 Li 0.1034(4) 0.0178(5) 0.5079(3)
O10 O -0.0580(2) 1.1781(3) 0.81776(13)
H37 H -0.128(3) 1.161(4) 0.836(2)
H38 H -0.033(3) 1.081(5) 0.803(2)
O11 O 0.71759(19) 0.1283(3) 0.87395(16)
H39 H 0.713(3) 0.121(4) 0.937(3)
H40 H 0.649(3) 0.163(5) 0.844(2)
loop_
_geom_bond_atom_site_label_1
_geom_bond_atom_site_label_2
_geom_bond_site_symmetry_1
_geom_bond_site_symmetry_2
O1 C1 1_555 1_555
O2 C1 1_555 1_555
O3 C5 1_555 1_555
O4 C10 1_555 1_555
O5 C18 1_555 1_555
O6 C18 1_555 1_555
O7 H1 1_555 1_555
H2 O7 1_555 1_555
O8 H3 1_555 1_555
H4 O8 1_555 1_555
O9 H5 1_555 1_555
H6 O9 1_555 1_555
N1 H7 1_555 1_555
N2 C6 1_555 1_555
N3 H8 1_555 1_555
N4 C13 1_555 1_555
N5 C13 1_555 1_555
C1 C2 1_555 1_555
C2 N1 1_555 1_555
C3 C2 1_555 1_555
H9 C3 1_555 1_555
H10 C3 1_555 1_555
H11 C3 1_555 1_555
C4 C2 1_555 1_555
H12 C4 1_555 1_555
H13 C4 1_555 1_555
H14 C4 1_555 1_555
C5 N1 1_555 1_555
C6 C5 1_555 1_555
H15 C6 1_555 1_555
C7 C6 1_555 1_555
H16 C7 1_555 1_555
H17 C7 1_555 1_555
C8 C7 1_555 1_555
H18 C8 1_555 1_555
H19 C8 1_555 1_555
C9 N2 1_555 1_555
H20 C9 1_555 1_555
H21 C9 1_555 1_555
C10 N2 1_555 1_555
C11 C10 1_555 1_555
H22 C11 1_555 1_555
H23 C11 1_555 1_555
C12 N3 1_555 1_555
H24 C12 1_555 1_555
C13 N3 1_555 1_555
C14 N4 1_555 1_555
H25 C14 1_555 1_555
H26 C14 1_555 1_555
H27 C14 1_555 1_555
C15 N4 1_555 1_555
H28 C15 1_555 1_555
H29 C15 1_555 1_555
H30 C15 1_555 1_555
C16 N5 1_555 1_555
H31 C16 1_555 1_555
H32 C16 1_555 1_555
H33 C16 1_555 1_555
C17 N5 1_555 1_555
H34 C17 1_555 1_555
H35 C17 1_555 1_555
H36 C17 1_555 1_555
C18 C12 1_555 1_555
Li1 O5 1_555 1_555
O10 H37 1_555 1_555
H38 O10 1_555 1_555
O11 H39 1_555 1_555
H40 O11 1_555 1_555
O7 Li1 1_555 1_555
O8 Li1 1_555 1_555
O9 Li1 1_555 1_555
C8 C9 1_555 1_555
C11 C12 1_555 1_555

#END
