
#######################################################################
#
#                 Cambridge Crystallographic Data Centre
#                                CCDC 
#
#######################################################################
#
# If this CIF has been generated from an entry in the Cambridge 
# Structural Database, then it will include bibliographic, chemical, 
# crystal, experimental, refinement or atomic coordinate data resulting 
# from the CCDC's data processing and validation procedures.
#
#######################################################################

data_AQUDUN
_chemical_formula_moiety         'C18 H14 O2'
_chemical_name_systematic        1-hydroxy-4-methyl-3-phenyl-2-naphthaldehyde
_symmetry_cell_setting           orthorhombic
_symmetry_space_group_name_H-M   'P b c a'
_symmetry_Int_Tables_number      61
_space_group_name_Hall           '-P 2ac 2ab'
loop_
_symmetry_equiv_pos_site_id
_symmetry_equiv_pos_as_xyz
1 x,y,z
2 1/2-x,-y,1/2+z
3 1/2+x,1/2-y,-z
4 -x,1/2+y,1/2-z
5 -x,-y,-z
6 1/2+x,y,1/2-z
7 1/2-x,1/2+y,z
8 x,1/2-y,1/2+z
_cell_length_a                   17.8146(2)
_cell_length_b                   7.0651(2)
_cell_length_c                   21.4223(3)
_cell_angle_alpha                90
_cell_angle_beta                 90
_cell_angle_gamma                90
_cell_volume                     2696.25
_exptl_crystal_colour            colorless
_exptl_crystal_description       block
_cell_formula_units_Z            8
loop_
_atom_site_label
_atom_site_type_symbol
_atom_site_fract_x
_atom_site_fract_y
_atom_site_fract_z
O1 O 0.74955(7) 0.1358(2) 0.51224(6)
O2 O 0.66918(5) 0.20587(15) 0.60797(5)
H1 H 0.6785 0.1735 0.5720
C1 C 0.80296(7) 0.2113(2) 0.61031(6)
C2 C 0.73356(7) 0.22802(19) 0.63956(7)
C3 C 0.72854(7) 0.27019(19) 0.70402(6)
C4 C 0.65834(8) 0.2859(2) 0.73433(7)
H2 H 0.6143 0.2688 0.7117
C5 C 0.65455(9) 0.3256(2) 0.79611(8)
H3 H 0.6081 0.3347 0.8157
C6 C 0.72002(9) 0.3529(2) 0.83027(8)
H4 H 0.7170 0.3815 0.8726
C7 C 0.78871(8) 0.3382(2) 0.80241(7)
H5 H 0.8318 0.3569 0.8261
C8 C 0.79569(7) 0.29515(19) 0.73833(6)
C9 C 0.86763(7) 0.27709(19) 0.70840(6)
C10 C 0.87065(7) 0.23730(19) 0.64586(6)
C11 C 0.94464(7) 0.2176(2) 0.61303(6)
C12 C 0.97783(8) 0.0418(3) 0.60598(7)
H6 H 0.9535 -0.0654 0.6210
C13 C 1.04676(9) 0.0234(3) 0.57695(8)
H7 H 1.0687 -0.0954 0.5730
C14 C 1.08304(9) 0.1806(3) 0.55396(7)
H8 H 1.1295 0.1684 0.5345
C15 C 1.05058(10) 0.3540(3) 0.55989(8)
H9 H 1.0749 0.4601 0.5440
C16 C 0.98154(9) 0.3747(3) 0.58943(8)
H10 H 0.9601 0.4941 0.5933
C17 C 0.80508(9) 0.1671(2) 0.54499(7)
H11 H 0.8519 0.1616 0.5259
C18 C 0.93758(8) 0.2999(2) 0.74708(7)
H12 H 0.9809 0.2840 0.7210
H13 H 0.9381 0.2064 0.7796
H14 H 0.9383 0.4240 0.7653
loop_
_geom_bond_atom_site_label_1
_geom_bond_atom_site_label_2
_geom_bond_site_symmetry_1
_geom_bond_site_symmetry_2
O1 C17 1_555 1_555
O2 H1 1_555 1_555
C1 C2 1_555 1_555
C2 O2 1_555 1_555
C3 C2 1_555 1_555
C4 C3 1_555 1_555
H2 C4 1_555 1_555
C5 C4 1_555 1_555
H3 C5 1_555 1_555
C6 C5 1_555 1_555
H4 C6 1_555 1_555
C7 C6 1_555 1_555
H5 C7 1_555 1_555
C8 C3 1_555 1_555
C9 C8 1_555 1_555
C10 C1 1_555 1_555
C11 C10 1_555 1_555
C12 C11 1_555 1_555
H6 C12 1_555 1_555
C13 C12 1_555 1_555
H7 C13 1_555 1_555
C14 C13 1_555 1_555
H8 C14 1_555 1_555
C15 C14 1_555 1_555
H9 C15 1_555 1_555
C16 C11 1_555 1_555
H10 C16 1_555 1_555
C17 C1 1_555 1_555
H11 C17 1_555 1_555
C18 C9 1_555 1_555
H12 C18 1_555 1_555
H13 C18 1_555 1_555
H14 C18 1_555 1_555
C7 C8 1_555 1_555
C9 C10 1_555 1_555
C15 C16 1_555 1_555

#END
