
#######################################################################
#
#                 Cambridge Crystallographic Data Centre
#                                CCDC 
#
#######################################################################
#
# If this CIF has been generated from an entry in the Cambridge 
# Structural Database, then it will include bibliographic, chemical, 
# crystal, experimental, refinement or atomic coordinate data resulting 
# from the CCDC's data processing and validation procedures.
#
#######################################################################

data_AQUMEG01
_chemical_formula_moiety         'C22 H29 N2 O1 1+,Br1 1-'
_chemical_name_systematic        
'6-(3-formyl-9H-carbazol-9-yl)-N,N,N-trimethylhexan-1-aminium bromide'
_symmetry_cell_setting           orthorhombic
_symmetry_space_group_name_H-M   'P b c a'
_symmetry_Int_Tables_number      61
_space_group_name_Hall           '-P 2ac 2ab'
loop_
_symmetry_equiv_pos_site_id
_symmetry_equiv_pos_as_xyz
1 x,y,z
2 1/2-x,-y,1/2+z
3 1/2+x,1/2-y,-z
4 -x,1/2+y,1/2-z
5 -x,-y,-z
6 1/2+x,y,1/2-z
7 1/2-x,1/2+y,z
8 x,1/2-y,1/2+z
_cell_length_a                   9.046(5)
_cell_length_b                   13.976(5)
_cell_length_c                   34.055(5)
_cell_angle_alpha                90
_cell_angle_beta                 90
_cell_angle_gamma                90
_cell_volume                     4305.47
_exptl_crystal_colour            'light yellow'
_exptl_crystal_description       stick-like
_cell_formula_units_Z            8
loop_
_atom_site_label
_atom_site_type_symbol
_atom_site_fract_x
_atom_site_fract_y
_atom_site_fract_z
Br1 Br 0.73020(12) 0.60591(8) 0.02609(3)
N1 N 0.3075(6) 0.1336(4) 0.03618(15)
C1 C 0.3167(8) 0.2248(4) 0.05995(19)
H1 H 0.2666 0.2750 0.0455
H2 H 0.2626 0.2152 0.0842
N2 N 0.6841(8) 0.6270(4) 0.16367(18)
C2 C 0.5759(9) 0.4864(5) 0.1310(2)
H3 H 0.4982 0.5267 0.1205
H4 H 0.5429 0.4628 0.1564
C3 C 0.3800(8) 0.0515(4) 0.05692(19)
H5 H 0.3401 0.0458 0.0829
H6 H 0.4846 0.0625 0.0584
H7 H 0.3616 -0.0066 0.0426
C4 C 0.3777(8) 0.1450(5) -0.00357(17)
H8 H 0.3583 0.0891 -0.0191
H9 H 0.4826 0.1529 -0.0006
H10 H 0.3372 0.2002 -0.0164
C5 C 0.6935(10) 0.6219(6) 0.2043(2)
C6 C 0.7135(9) 0.5464(5) 0.1369(2)
H11 H 0.7916 0.5068 0.1477
H12 H 0.7468 0.5708 0.1118
C7 C 0.6249(10) 0.7043(5) 0.2202(2)
C8 C 0.6066(8) 0.7089(5) 0.1535(2)
C9 C 0.4551(8) 0.3538(5) 0.0928(2)
H13 H 0.3973 0.3981 0.0772
H14 H 0.4005 0.3415 0.1168
C10 C 0.4701(8) 0.2599(5) 0.0702(2)
H15 H 0.5271 0.2700 0.0464
H16 H 0.5208 0.2127 0.0861
C11 C 0.1450(8) 0.1118(6) 0.0305(3)
H17 H 0.0998 0.1003 0.0556
H18 H 0.1345 0.0561 0.0143
H19 H 0.0976 0.1653 0.0180
C12 C 0.5992(9) 0.4011(5) 0.1034(2)
H20 H 0.6478 0.4229 0.0796
H21 H 0.6634 0.3547 0.1160
C13 C 0.5675(9) 0.7588(5) 0.1879(2)
C14 C 0.6234(12) 0.7146(6) 0.2610(2)
H22 H 0.5783 0.7676 0.2724
C15 C 0.4865(11) 0.8441(6) 0.1842(3)
H23 H 0.4588 0.8784 0.2064
C16 C 0.5692(9) 0.7427(6) 0.1163(2)
H24 H 0.5960 0.7096 0.0937
C17 C 0.4909(10) 0.8273(6) 0.1143(3)
H25 H 0.4658 0.8520 0.0898
O1 O 0.7358(11) 0.6034(7) 0.3510(2)
C18 C 0.7560(12) 0.5517(7) 0.2271(3)
H26 H 0.7976 0.4975 0.2157
C19 C 0.4488(11) 0.8763(6) 0.1475(3)
H27 H 0.3937 0.9321 0.1450
C20 C 0.7557(13) 0.5633(8) 0.2680(3)
H28 H 0.7989 0.5175 0.2842
C21 C 0.6890(13) 0.6458(7) 0.2846(2)
C22 C 0.6898(18) 0.6579(9) 0.3277(3)
H29 H 0.6498 0.7144 0.3374
loop_
_geom_bond_atom_site_label_1
_geom_bond_atom_site_label_2
_geom_bond_site_symmetry_1
_geom_bond_site_symmetry_2
N1 C1 1_555 1_555
C1 H1 1_555 1_555
H2 C1 1_555 1_555
N2 C5 1_555 1_555
C2 H3 1_555 1_555
H4 C2 1_555 1_555
C3 N1 1_555 1_555
H5 C3 1_555 1_555
H6 C3 1_555 1_555
H7 C3 1_555 1_555
C4 N1 1_555 1_555
H8 C4 1_555 1_555
H9 C4 1_555 1_555
H10 C4 1_555 1_555
C5 C7 1_555 1_555
C6 N2 1_555 1_555
H11 C6 1_555 1_555
H12 C6 1_555 1_555
C7 C13 1_555 1_555
C8 N2 1_555 1_555
C9 H13 1_555 1_555
H14 C9 1_555 1_555
C10 C1 1_555 1_555
H15 C10 1_555 1_555
H16 C10 1_555 1_555
C11 N1 1_555 1_555
H17 C11 1_555 1_555
H18 C11 1_555 1_555
H19 C11 1_555 1_555
C12 C2 1_555 1_555
H20 C12 1_555 1_555
H21 C12 1_555 1_555
C13 C8 1_555 1_555
C14 C7 1_555 1_555
H22 C14 1_555 1_555
C15 C13 1_555 1_555
H23 C15 1_555 1_555
C16 C8 1_555 1_555
H24 C16 1_555 1_555
C17 C16 1_555 1_555
H25 C17 1_555 1_555
O1 C22 1_555 1_555
C18 C5 1_555 1_555
H26 C18 1_555 1_555
C19 C15 1_555 1_555
H27 C19 1_555 1_555
C20 C18 1_555 1_555
H28 C20 1_555 1_555
C21 C14 1_555 1_555
C22 C21 1_555 1_555
H29 C22 1_555 1_555
C2 C6 1_555 1_555
C9 C10 1_555 1_555
C9 C12 1_555 1_555
C17 C19 1_555 1_555
C20 C21 1_555 1_555

#END
