
#######################################################################
#
#                 Cambridge Crystallographic Data Centre
#                                CCDC 
#
#######################################################################
#
# If this CIF has been generated from an entry in the Cambridge 
# Structural Database, then it will include bibliographic, chemical, 
# crystal, experimental, refinement or atomic coordinate data resulting 
# from the CCDC's data processing and validation procedures.
#
#######################################################################

data_AQUPIL
_chemical_formula_moiety         'C17 H28 O9'
_chemical_name_systematic        
DL-(2'S*,3'S*,2''R*,3''S*)-4,5-O-(2',3'-Dimethoxybutane-2',3'-diyl)-1,2,3-O-(2''-methoxybutane-2''-yl-ylidene)-myo-inositol
_symmetry_cell_setting           monoclinic
_symmetry_space_group_name_H-M   'P 21/c'
_symmetry_Int_Tables_number      14
_space_group_name_Hall           '-P 2ybc'
loop_
_symmetry_equiv_pos_site_id
_symmetry_equiv_pos_as_xyz
1 x,y,z
2 x,1/2-y,1/2+z
3 -x,-y,-z
4 -x,1/2+y,1/2-z
_cell_length_a                   11.840(2)
_cell_length_b                   12.176(2)
_cell_length_c                   13.606(2)
_cell_angle_alpha                90
_cell_angle_beta                 113.63(2)
_cell_angle_gamma                90
_cell_volume                     1797.03
_exptl_crystal_colour            colorless
_exptl_crystal_description       needles
_cell_formula_units_Z            4
_exptl_crystal_recrystallization_method acetonitrile
loop_
_atom_site_label
_atom_site_type_symbol
_atom_site_fract_x
_atom_site_fract_y
_atom_site_fract_z
O1 O -0.06633(10) 0.34425(10) 0.50920(9)
O2 O -0.22073(10) 0.20139(10) 0.56089(9)
O3 O -0.07107(10) 0.27653(10) 0.70596(9)
O4 O 0.20270(10) 0.18544(10) 0.77918(9)
O5 O 0.25923(10) 0.19263(10) 0.59867(9)
O6 O 0.03275(11) 0.10875(10) 0.40614(9)
H1 H -0.0003 0.1301 0.3439
O7 O 0.33807(11) 0.32699(10) 0.78728(10)
O8 O -0.27102(11) 0.40067(10) 0.45606(9)
O9 O 0.35583(11) 0.04910(10) 0.71573(10)
C1 C -0.07815(15) 0.23085(14) 0.47749(13)
H2 H -0.1435 0.2222 0.4056
C2 C -0.10729(15) 0.16367(14) 0.55804(14)
H3 H -0.1105 0.0850 0.5419
C3 C -0.01354(15) 0.18836(14) 0.67195(13)
H4 H -0.0055 0.1240 0.7175
C4 C 0.11223(15) 0.22013(15) 0.67706(12)
H5 H 0.1165 0.3000 0.6703
C5 C 0.13757(15) 0.16429(15) 0.58851(13)
H6 H 0.1327 0.0845 0.5958
C6 C 0.04678(15) 0.19864(14) 0.47708(13)
H7 H 0.0807 0.2616 0.4530
C7 C -0.15748(15) 0.38635(14) 0.54390(13)
C8 C -0.10125(17) 0.49138(15) 0.60191(15)
H8 H -0.0725 0.5349 0.5578
H9 H -0.0332 0.4741 0.6681
H10 H -0.1622 0.5318 0.6168
C9 C -0.27466(19) 0.48729(18) 0.38430(16)
H11 H -0.2649 0.5565 0.4205
H12 H -0.3524 0.4860 0.3235
H13 H -0.2091 0.4776 0.3606
C10 C -0.18456(15) 0.30237(14) 0.61643(13)
C11 C -0.27861(17) 0.33870(17) 0.65769(14)
H14 H -0.3534 0.3587 0.5984
H15 H -0.2476 0.4009 0.7041
H16 H -0.2950 0.2797 0.6970
C12 C 0.32579(15) 0.21234(15) 0.79401(14)
C13 C 0.31925(19) 0.38950(17) 0.86773(15)
H17 H 0.2493 0.3611 0.8783
H18 H 0.3045 0.4648 0.8455
H19 H 0.3912 0.3848 0.9337
C14 C 0.40793(17) 0.16552(17) 0.90247(14)
H20 H 0.4917 0.1872 0.9199
H21 H 0.4023 0.0868 0.9000
H22 H 0.3818 0.1928 0.9561
C15 C 0.35364(15) 0.16420(15) 0.70020(13)
C16 C 0.37311(17) -0.01642(16) 0.63615(16)
H23 H 0.3194 0.0090 0.5662
H24 H 0.3544 -0.0916 0.6446
H25 H 0.4572 -0.0108 0.6441
C17 C 0.47151(16) 0.20862(17) 0.69786(15)
H26 H 0.5388 0.1941 0.7653
H27 H 0.4638 0.2864 0.6856
H28 H 0.4870 0.1736 0.6412
loop_
_geom_bond_atom_site_label_1
_geom_bond_atom_site_label_2
_geom_bond_site_symmetry_1
_geom_bond_site_symmetry_2
O1 C1 1_555 1_555
O2 C2 1_555 1_555
O3 C3 1_555 1_555
O4 C4 1_555 1_555
O5 C5 1_555 1_555
O6 H1 1_555 1_555
O7 C12 1_555 1_555
O8 C7 1_555 1_555
O9 C15 1_555 1_555
C1 H2 1_555 1_555
C2 C1 1_555 1_555
H3 C2 1_555 1_555
C3 C2 1_555 1_555
H4 C3 1_555 1_555
C4 C3 1_555 1_555
H5 C4 1_555 1_555
C5 C4 1_555 1_555
H6 C5 1_555 1_555
C6 O6 1_555 1_555
H7 C6 1_555 1_555
C7 O1 1_555 1_555
C8 C7 1_555 1_555
H8 C8 1_555 1_555
H9 C8 1_555 1_555
H10 C8 1_555 1_555
C9 O8 1_555 1_555
H11 C9 1_555 1_555
H12 C9 1_555 1_555
H13 C9 1_555 1_555
C10 O2 1_555 1_555
C11 C10 1_555 1_555
H14 C11 1_555 1_555
H15 C11 1_555 1_555
H16 C11 1_555 1_555
C12 O4 1_555 1_555
C13 O7 1_555 1_555
H17 C13 1_555 1_555
H18 C13 1_555 1_555
H19 C13 1_555 1_555
C14 C12 1_555 1_555
H20 C14 1_555 1_555
H21 C14 1_555 1_555
H22 C14 1_555 1_555
C15 O5 1_555 1_555
C16 O9 1_555 1_555
H23 C16 1_555 1_555
H24 C16 1_555 1_555
H25 C16 1_555 1_555
C17 C15 1_555 1_555
H26 C17 1_555 1_555
H27 C17 1_555 1_555
H28 C17 1_555 1_555
O3 C10 1_555 1_555
C1 C6 1_555 1_555
C5 C6 1_555 1_555
C7 C10 1_555 1_555
C12 C15 1_555 1_555

#END
