
#######################################################################
#
#                 Cambridge Crystallographic Data Centre
#                                CCDC 
#
#######################################################################
#
# If this CIF has been generated from an entry in the Cambridge 
# Structural Database, then it will include bibliographic, chemical, 
# crystal, experimental, refinement or atomic coordinate data resulting 
# from the CCDC's data processing and validation procedures.
#
#######################################################################

data_AQUYER
_chemical_formula_moiety         'C82 H128 N4 Na4 O8'
_chemical_name_systematic        
bis(\m~3~-2,2'-(propane-1,3-diylbis(iminomethylene))bis(4,6-di-t-butylphenolato))-tetrahydrofuran-tetra-sodium
_symmetry_cell_setting           monoclinic
_symmetry_space_group_name_H-M   'P 21/c'
_symmetry_Int_Tables_number      14
_space_group_name_Hall           '-P 2ybc'
loop_
_symmetry_equiv_pos_site_id
_symmetry_equiv_pos_as_xyz
1 x,y,z
2 -x,1/2+y,1/2-z
3 -x,-y,-z
4 x,1/2-y,1/2+z
_cell_length_a                   15.6346(8)
_cell_length_b                   15.6405(8)
_cell_length_c                   18.6679(9)
_cell_angle_alpha                90
_cell_angle_beta                 108.033(2)
_cell_angle_gamma                90
_cell_volume                     4340.68
_exptl_crystal_colour            yellow
_exptl_crystal_description       block
_cell_formula_units_Z            2
loop_
_atom_site_label
_atom_site_type_symbol
_atom_site_fract_x
_atom_site_fract_y
_atom_site_fract_z
Na1 Na 1.03611(9) 0.85537(9) 0.48387(7)
O1 O 0.90023(16) 0.84392(15) 0.50289(12)
O2 O 1.16465(15) 0.88866(16) 0.57727(12)
O3 O 0.6814(2) 0.9421(3) 0.4246(3)
O4 O 1.0601(2) 0.7175(2) 0.4455(2)
N1 N 0.9214(2) 0.9164(2) 0.36848(15)
N2 N 1.1405(2) 0.9338(2) 0.42422(15)
C1 C 0.8538(2) 0.7844(2) 0.45958(17)
C2 C 0.8379(2) 0.7864(2) 0.38019(18)
C3 C 0.7857(3) 0.7229(3) 0.3340(2)
H1 H 0.7759 0.7266 0.2823
C4 C 0.7484(3) 0.6560(3) 0.3605(2)
C5 C 0.7637(3) 0.6552(2) 0.4388(2)
H2 H 0.7377 0.6111 0.4584
C6 C 0.8140(2) 0.7145(2) 0.48860(18)
C7 C 1.2313(2) 0.8421(2) 0.57274(18)
C8 C 1.2865(2) 0.7945(2) 0.63511(18)
C9 C 1.3549(2) 0.7441(3) 0.6259(2)
H3 H 1.3896 0.7135 0.6674
C10 C 1.3760(2) 0.7358(3) 0.5583(2)
C11 C 1.3234(3) 0.7825(3) 0.4992(2)
H4 H 1.3351 0.7791 0.4534
C12 C 1.2526(2) 0.8354(2) 0.50376(18)
C13 C 1.2066(3) 0.8832(3) 0.4363(2)
H5 H 1.2035 0.8501 0.3910
C14 C 1.1113(3) 0.9764(3) 0.3505(2)
H6 H 1.1050 0.9340 0.3113
H7 H 1.1573 1.0167 0.3476
C15 C 1.0217(5) 1.0239(4) 0.3363(4)
H8 H 1.0236 1.0538 0.3823
H9 H 1.0183 1.0671 0.2982
C16 C 0.9401(3) 0.9754(3) 0.3130(2)
H10 H 0.9403 0.9421 0.2692
H11 H 0.8904 1.0154 0.2968
C17 C 0.8710(3) 0.8534(2) 0.34145(19)
H12 H 0.8866 0.8298 0.2997
C18 C 0.6896(4) 0.5884(4) 0.3111(3)
C19 C 0.8259(3) 0.7083(3) 0.57282(19)
C20 C 1.2702(3) 0.8003(3) 0.7121(2)
C21 C 1.4499(3) 0.6784(4) 0.5505(3)
C22 C 0.6870(6) 0.5958(5) 0.2296(3)
H13 H 0.7471 0.5921 0.2265
H14 H 0.6611 0.6497 0.2096
H15 H 0.6513 0.5502 0.2009
C23 C 0.5947(4) 0.5937(5) 0.3169(4)
H16 H 0.5696 0.6489 0.3000
H17 H 0.5967 0.5855 0.3684
H18 H 0.5580 0.5501 0.2861
C24 C 0.7245(6) 0.5013(5) 0.3371(5)
H19 H 0.7840 0.4951 0.3333
H20 H 0.6856 0.4590 0.3062
H21 H 0.7263 0.4937 0.3886
C25 C 0.7853(4) 0.7870(3) 0.5976(2)
H22 H 0.7225 0.7907 0.5694
H23 H 0.8157 0.8373 0.5885
H24 H 0.7919 0.7829 0.6503
C26 C 0.7797(3) 0.6307(3) 0.5929(2)
H25 H 0.7164 0.6331 0.5663
H26 H 0.7887 0.6303 0.6462
H27 H 0.8047 0.5796 0.5790
C27 C 0.9261(3) 0.7023(4) 0.6180(2)
H28 H 0.9572 0.7510 0.6070
H29 H 0.9509 0.6510 0.6045
H30 H 0.9327 0.7013 0.6709
C28 C 1.1746(3) 0.7704(4) 0.7054(2)
H31 H 1.1671 0.7122 0.6881
H32 H 1.1318 0.8061 0.6700
H33 H 1.1652 0.7741 0.7537
C29 C 1.3357(3) 0.7443(4) 0.7725(2)
H34 H 1.3964 0.7619 0.7786
H35 H 1.3282 0.6855 0.7570
H36 H 1.3233 0.7506 0.8194
C30 C 1.2843(3) 0.8937(3) 0.7403(2)
H37 H 1.3444 0.9115 0.7444
H38 H 1.2752 0.8975 0.7888
H39 H 1.2420 0.9301 0.7053
C31 C 1.4021(6) 0.6011(5) 0.4965(6)
H40 H 1.3664 0.5685 0.5203
H41 H 1.4472 0.5648 0.4873
H42 H 1.3643 0.6236 0.4496
C32 C 1.5048(5) 0.6393(6) 0.6194(4)
H43 H 1.5354 0.6830 0.6540
H44 H 1.5482 0.6023 0.6086
H45 H 1.4673 0.6067 0.6414
C33 C 1.5019(5) 0.7190(5) 0.5041(4)
H46 H 1.5351 0.7670 0.5308
H47 H 1.4610 0.7380 0.4570
H48 H 1.5429 0.6780 0.4947
C34 C 1.0522(7) 0.6837(6) 0.3762(4)
H49 H 1.0982 0.7071 0.3569
H50 H 0.9937 0.6974 0.3410
C35 C 1.0625(12) 0.5933(7) 0.3846(6)
H51 H 1.0069 0.5646 0.3573
H52 H 1.1099 0.5735 0.3653
C36 C 1.0840(13) 0.5770(6) 0.4602(7)
H53 H 1.0393 0.5396 0.4700
H54 H 1.1421 0.5490 0.4781
C37 C 1.0864(7) 0.6507(5) 0.4953(4)
H55 H 1.1471 0.6610 0.5281
H56 H 1.0471 0.6477 0.5265
C38 C 0.6194(5) 0.9707(6) 0.4584(6)
H57 H 0.6272 0.9405 0.5054
H58 H 0.6274 1.0313 0.4691
C39 C 0.5357(6) 0.9554(9) 0.4097(6)
H59 H 0.5068 1.0090 0.3900
H60 H 0.4990 0.9267 0.4358
C40 C 0.5434(6) 0.9037(8) 0.3500(6)
H61 H 0.5123 0.8497 0.3488
H62 H 0.5178 0.9324 0.3020
C41 C 0.6346(5) 0.8904(6) 0.3643(5)
H63 H 0.6517 0.9046 0.3200
H64 H 0.6491 0.8308 0.3765
Na2 Na 0.83526(9) 0.97293(9) 0.45945(8)
Na1B Na 0.96389(9) 1.14463(9) 0.51613(7)
O1B O 1.09977(16) 1.15608(15) 0.49711(12)
O2B O 0.83535(15) 1.11134(16) 0.42273(12)
O3B O 1.3186(2) 1.0579(3) 0.5754(3)
O4B O 0.9399(2) 1.2825(2) 0.5545(2)
N1B N 1.0786(2) 1.0836(2) 0.63152(15)
N2B N 0.8595(2) 1.0662(2) 0.57578(15)
C1B C 1.1462(2) 1.2156(2) 0.54042(17)
C2B C 1.1621(2) 1.2136(2) 0.61981(18)
C3B C 1.2143(3) 1.2771(3) 0.6660(2)
H1B H 1.2241 1.2734 0.7177
C4B C 1.2516(3) 1.3440(3) 0.6395(2)
C5B C 1.2363(3) 1.3448(2) 0.5612(2)
H2B H 1.2623 1.3889 0.5416
C6B C 1.1860(2) 1.2855(2) 0.51140(18)
C7B C 0.7687(2) 1.1579(2) 0.42726(18)
C8B C 0.7135(2) 1.2055(2) 0.36489(18)
C9B C 0.6451(2) 1.2559(3) 0.3741(2)
H3B H 0.6104 1.2865 0.3326
C10B C 0.6240(2) 1.2642(3) 0.4417(2)
C11B C 0.6766(3) 1.2175(3) 0.5008(2)
H4B H 0.6649 1.2209 0.5466
C12B C 0.7474(2) 1.1646(2) 0.49624(18)
C13B C 0.7934(3) 1.1168(3) 0.5637(2)
H5B H 0.7965 1.1499 0.6090
C14B C 0.8887(3) 1.0236(3) 0.6495(2)
H6B H 0.8950 1.0660 0.6887
H7B H 0.8427 0.9833 0.6524
C15B C 0.9783(5) 0.9761(4) 0.6637(4)
H8B H 0.9764 0.9462 0.6177
H9B H 0.9817 0.9329 0.7018
C16B C 1.0599(3) 1.0246(3) 0.6870(2)
H10B H 1.0597 1.0579 0.7308
H11B H 1.1096 0.9846 0.7032
C17B C 1.1290(3) 1.1466(2) 0.65855(19)
H12B H 1.1134 1.1702 0.7003
C18B C 1.3104(4) 1.4116(4) 0.6889(3)
C19B C 1.1741(3) 1.2917(3) 0.42718(19)
C20B C 0.7298(3) 1.1997(3) 0.2879(2)
C21B C 0.5501(3) 1.3216(4) 0.4495(3)
C22B C 1.3130(6) 1.4042(5) 0.7704(3)
H13B H 1.2529 1.4079 0.7735
H14B H 1.3389 1.3503 0.7904
H15B H 1.3487 1.4498 0.7991
C23B C 1.4053(4) 1.4063(5) 0.6831(4)
H16B H 1.4304 1.3511 0.7000
H17B H 1.4033 1.4145 0.6316
H18B H 1.4420 1.4499 0.7139
C24B C 1.2755(6) 1.4987(5) 0.6629(5)
H19B H 1.2160 1.5049 0.6667
H20B H 1.3144 1.5410 0.6938
H21B H 1.2737 1.5063 0.6114
C25B C 1.2147(4) 1.2130(3) 0.4024(2)
H22B H 1.2775 1.2093 0.4306
H23B H 1.1843 1.1627 0.4115
H24B H 1.2081 1.2171 0.3497
C26B C 1.2203(3) 1.3693(3) 0.4071(2)
H25B H 1.2836 1.3669 0.4337
H26B H 1.2113 1.3697 0.3538
H27B H 1.1953 1.4204 0.4210
C27B C 1.0739(3) 1.2977(4) 0.3820(2)
H28B H 1.0428 1.2490 0.3930
H29B H 1.0491 1.3490 0.3955
H30B H 1.0673 1.2987 0.3291
C28B C 0.8254(3) 1.2296(4) 0.2946(2)
H31B H 0.8329 1.2878 0.3119
H32B H 0.8682 1.1939 0.3300
H33B H 0.8348 1.2259 0.2463
C29B C 0.6643(3) 1.2557(4) 0.2275(2)
H34B H 0.6036 1.2381 0.2214
H35B H 0.6718 1.3145 0.2430
H36B H 0.6767 1.2494 0.1806
C30B C 0.7157(3) 1.1063(3) 0.2597(2)
H37B H 0.6556 1.0885 0.2556
H38B H 0.7248 1.1025 0.2112
H39B H 0.7580 1.0699 0.2947
C31B C 0.5979(6) 1.3989(5) 0.5035(6)
H40B H 0.6336 1.4315 0.4797
H41B H 0.5528 1.4352 0.5127
H42B H 0.6357 1.3764 0.5504
C32B C 0.4952(5) 1.3607(6) 0.3806(4)
H43B H 0.4646 1.3170 0.3460
H44B H 0.4518 1.3977 0.3914
H45B H 0.5327 1.3933 0.3586
C33B C 0.4981(5) 1.2810(5) 0.4959(4)
H46B H 0.4649 1.2330 0.4692
H47B H 0.5390 1.2620 0.5430
H48B H 0.4571 1.3220 0.5053
C34B C 0.9478(7) 1.3163(6) 0.6238(4)
H49B H 0.9018 1.2929 0.6431
H50B H 1.0063 1.3026 0.6590
C35B C 0.9375(12) 1.4067(7) 0.6154(6)
H51B H 0.9931 1.4354 0.6427
H52B H 0.8901 1.4265 0.6347
C36B C 0.9160(13) 1.4230(6) 0.5398(7)
H53B H 0.9607 1.4604 0.5300
H54B H 0.8579 1.4510 0.5219
C37B C 0.9136(7) 1.3493(5) 0.5047(4)
H55B H 0.8529 1.3390 0.4719
H56B H 0.9529 1.3523 0.4735
C38B C 1.3806(5) 1.0293(6) 0.5416(6)
H57B H 1.3728 1.0595 0.4946
H58B H 1.3726 0.9687 0.5309
C39B C 1.4643(6) 1.0446(9) 0.5903(6)
H59B H 1.4932 0.9910 0.6100
H60B H 1.5010 1.0733 0.5642
C40B C 1.4566(6) 1.0963(8) 0.6500(6)
H61B H 1.4877 1.1503 0.6512
H62B H 1.4822 1.0676 0.6980
C41B C 1.3654(5) 1.1096(6) 0.6357(5)
H63B H 1.3483 1.0954 0.6800
H64B H 1.3509 1.1692 0.6235
Na2B Na 1.16474(9) 1.02707(9) 0.54055(8)
C42? C 1.0308(6) 0.9468(6) 0.2984(4)
H65? H 1.0325 0.8848 0.2979
H66? H 1.0290 0.9663 0.2486
loop_
_geom_bond_atom_site_label_1
_geom_bond_atom_site_label_2
_geom_bond_site_symmetry_1
_geom_bond_site_symmetry_2
Na1 O1 1_555 1_555
O1 C1 1_555 1_555
O2 Na1 1_555 1_555
O3 C38 1_555 1_555
O4 Na1 1_555 1_555
N1 Na1 1_555 1_555
N2 Na1 1_555 1_555
C1 C2 1_555 1_555
C2 C3 1_555 1_555
C3 H1 1_555 1_555
C4 C3 1_555 1_555
C5 C4 1_555 1_555
H2 C5 1_555 1_555
C6 C1 1_555 1_555
C7 O2 1_555 1_555
C8 C7 1_555 1_555
C9 C8 1_555 1_555
H3 C9 1_555 1_555
C10 C9 1_555 1_555
C11 C10 1_555 1_555
H4 C11 1_555 1_555
C12 C7 1_555 1_555
C13 N2 1_555 1_555
H5 C13 1_555 1_555
C14 N2 1_555 1_555
H6 C14 1_555 1_555
H7 C14 1_555 1_555
C15 C14 1_555 1_555
H8 C15 1_555 1_555
H9 C15 1_555 1_555
C16 N1 1_555 1_555
H10 C16 1_555 1_555
H11 C16 1_555 1_555
C17 N1 1_555 1_555
H12 C17 1_555 1_555
C18 C4 1_555 1_555
C19 C6 1_555 1_555
C20 C8 1_555 1_555
C21 C10 1_555 1_555
C22 C18 1_555 1_555
H13 C22 1_555 1_555
H14 C22 1_555 1_555
H15 C22 1_555 1_555
C23 C18 1_555 1_555
H16 C23 1_555 1_555
H17 C23 1_555 1_555
H18 C23 1_555 1_555
C24 C18 1_555 1_555
H19 C24 1_555 1_555
H20 C24 1_555 1_555
H21 C24 1_555 1_555
C25 C19 1_555 1_555
H22 C25 1_555 1_555
H23 C25 1_555 1_555
H24 C25 1_555 1_555
C26 C19 1_555 1_555
H25 C26 1_555 1_555
H26 C26 1_555 1_555
H27 C26 1_555 1_555
C27 C19 1_555 1_555
H28 C27 1_555 1_555
H29 C27 1_555 1_555
H30 C27 1_555 1_555
C28 C20 1_555 1_555
H31 C28 1_555 1_555
H32 C28 1_555 1_555
H33 C28 1_555 1_555
C29 C20 1_555 1_555
H34 C29 1_555 1_555
H35 C29 1_555 1_555
H36 C29 1_555 1_555
C30 C20 1_555 1_555
H37 C30 1_555 1_555
H38 C30 1_555 1_555
H39 C30 1_555 1_555
C31 C21 1_555 1_555
H40 C31 1_555 1_555
H41 C31 1_555 1_555
H42 C31 1_555 1_555
C32 C21 1_555 1_555
H43 C32 1_555 1_555
H44 C32 1_555 1_555
H45 C32 1_555 1_555
C33 C21 1_555 1_555
H46 C33 1_555 1_555
H47 C33 1_555 1_555
H48 C33 1_555 1_555
C34 O4 1_555 1_555
H49 C34 1_555 1_555
H50 C34 1_555 1_555
C35 C34 1_555 1_555
H51 C35 1_555 1_555
H52 C35 1_555 1_555
C36 C35 1_555 1_555
H53 C36 1_555 1_555
H54 C36 1_555 1_555
C37 O4 1_555 1_555
H55 C37 1_555 1_555
H56 C37 1_555 1_555
C38 H57 1_555 1_555
H58 C38 1_555 1_555
C39 C38 1_555 1_555
H59 C39 1_555 1_555
H60 C39 1_555 1_555
C40 C39 1_555 1_555
H61 C40 1_555 1_555
H62 C40 1_555 1_555
C41 O3 1_555 1_555
H63 C41 1_555 1_555
H64 C41 1_555 1_555
Na2 O1 1_555 1_555
Na1B O1B 1_555 1_555
O1B C1B 1_555 1_555
O2B Na2 1_555 1_555
O3B C38B 1_555 1_555
O4B Na1B 1_555 1_555
N1B Na1B 1_555 1_555
N2B Na2 1_555 1_555
C1B C2B 1_555 1_555
C2B C3B 1_555 1_555
C3B H1B 1_555 1_555
C4B C3B 1_555 1_555
C5B C4B 1_555 1_555
H2B C5B 1_555 1_555
C6B C1B 1_555 1_555
C7B O2B 1_555 1_555
C8B C7B 1_555 1_555
C9B C8B 1_555 1_555
H3B C9B 1_555 1_555
C10B C9B 1_555 1_555
C11B C10B 1_555 1_555
H4B C11B 1_555 1_555
C12B C7B 1_555 1_555
C13B N2B 1_555 1_555
H5B C13B 1_555 1_555
C14B N2B 1_555 1_555
H6B C14B 1_555 1_555
H7B C14B 1_555 1_555
C15B C14B 1_555 1_555
H8B C15B 1_555 1_555
H9B C15B 1_555 1_555
C16B N1B 1_555 1_555
H10B C16B 1_555 1_555
H11B C16B 1_555 1_555
C17B N1B 1_555 1_555
H12B C17B 1_555 1_555
C18B C4B 1_555 1_555
C19B C6B 1_555 1_555
C20B C8B 1_555 1_555
C21B C10B 1_555 1_555
C22B C18B 1_555 1_555
H13B C22B 1_555 1_555
H14B C22B 1_555 1_555
H15B C22B 1_555 1_555
C23B C18B 1_555 1_555
H16B C23B 1_555 1_555
H17B C23B 1_555 1_555
H18B C23B 1_555 1_555
C24B C18B 1_555 1_555
H19B C24B 1_555 1_555
H20B C24B 1_555 1_555
H21B C24B 1_555 1_555
C25B C19B 1_555 1_555
H22B C25B 1_555 1_555
H23B C25B 1_555 1_555
H24B C25B 1_555 1_555
C26B C19B 1_555 1_555
H25B C26B 1_555 1_555
H26B C26B 1_555 1_555
H27B C26B 1_555 1_555
C27B C19B 1_555 1_555
H28B C27B 1_555 1_555
H29B C27B 1_555 1_555
H30B C27B 1_555 1_555
C28B C20B 1_555 1_555
H31B C28B 1_555 1_555
H32B C28B 1_555 1_555
H33B C28B 1_555 1_555
C29B C20B 1_555 1_555
H34B C29B 1_555 1_555
H35B C29B 1_555 1_555
H36B C29B 1_555 1_555
C30B C20B 1_555 1_555
H37B C30B 1_555 1_555
H38B C30B 1_555 1_555
H39B C30B 1_555 1_555
C31B C21B 1_555 1_555
H40B C31B 1_555 1_555
H41B C31B 1_555 1_555
H42B C31B 1_555 1_555
C32B C21B 1_555 1_555
H43B C32B 1_555 1_555
H44B C32B 1_555 1_555
H45B C32B 1_555 1_555
C33B C21B 1_555 1_555
H46B C33B 1_555 1_555
H47B C33B 1_555 1_555
H48B C33B 1_555 1_555
C34B O4B 1_555 1_555
H49B C34B 1_555 1_555
H50B C34B 1_555 1_555
C35B C34B 1_555 1_555
H51B C35B 1_555 1_555
H52B C35B 1_555 1_555
C36B C35B 1_555 1_555
H53B C36B 1_555 1_555
H54B C36B 1_555 1_555
C37B O4B 1_555 1_555
H55B C37B 1_555 1_555
H56B C37B 1_555 1_555
C38B H57B 1_555 1_555
H58B C38B 1_555 1_555
C39B C38B 1_555 1_555
H59B C39B 1_555 1_555
H60B C39B 1_555 1_555
C40B C39B 1_555 1_555
H61B C40B 1_555 1_555
H62B C40B 1_555 1_555
C41B O3B 1_555 1_555
H63B C41B 1_555 1_555
H64B C41B 1_555 1_555
Na2B O2 1_555 1_555
O3 Na2 1_555 1_555
N1 Na2 1_555 1_555
N2 Na2B 1_555 1_555
C2 C17 1_555 1_555
C5 C6 1_555 1_555
C11 C12 1_555 1_555
C12 C13 1_555 1_555
C15 C16 1_555 1_555
C36 C37 1_555 1_555
C40 C41 1_555 1_555
Na1B O2B 1_555 1_555
Na1B N2B 1_555 1_555
O1B Na2B 1_555 1_555
O3B Na2B 1_555 1_555
N1B Na2B 1_555 1_555
C2B C17B 1_555 1_555
C5B C6B 1_555 1_555
C11B C12B 1_555 1_555
C12B C13B 1_555 1_555
C15B C16B 1_555 1_555
C36B C37B 1_555 1_555
C40B C41B 1_555 1_555

#END
