
#######################################################################
#
#                 Cambridge Crystallographic Data Centre
#                                CCDC 
#
#######################################################################
#
# If this CIF has been generated from an entry in the Cambridge 
# Structural Database, then it will include bibliographic, chemical, 
# crystal, experimental, refinement or atomic coordinate data resulting 
# from the CCDC's data processing and validation procedures.
#
#######################################################################

data_AQUYIW
_chemical_formula_moiety         'C29 H36 N2 O1 S2,C2 H4 O2'
_chemical_name_systematic        
'2-(4,5-bis(2,5-dimethyl-3-thienyl)-1H-imidazol-2-yl)-4,6-di-t-butylphenol acetic acid solvate'
_symmetry_cell_setting           monoclinic
_symmetry_space_group_name_H-M   'P 21/n'
_symmetry_Int_Tables_number      14
_space_group_name_Hall           '-P 2yn'
loop_
_symmetry_equiv_pos_site_id
_symmetry_equiv_pos_as_xyz
1 x,y,z
2 1/2-x,1/2+y,1/2-z
3 -x,-y,-z
4 1/2+x,1/2-y,1/2+z
_cell_length_a                   11.1823(6)
_cell_length_b                   26.5152(14)
_cell_length_c                   11.5015(6)
_cell_angle_alpha                90
_cell_angle_beta                 114.4590(10)
_cell_angle_gamma                90
_cell_volume                     3104.17
_exptl_crystal_colour            'light yellow'
_exptl_crystal_description       'needle like'
_cell_formula_units_Z            4
loop_
_atom_site_label
_atom_site_type_symbol
_atom_site_fract_x
_atom_site_fract_y
_atom_site_fract_z
S1 S 0.66115(8) -0.04586(3) 0.60228(8)
S2 S 1.13878(8) 0.04785(3) 0.59325(7)
O1 O 1.0860(2) 0.21218(8) 1.0232(2)
H1 H 1.0799 0.1867 0.9763
N1 N 1.0074(2) 0.12704(8) 0.9123(2)
N2 N 0.8564(2) 0.08229(8) 0.9404(2)
H2 H 0.8020 0.0725 0.9711
C1 C 1.0076(3) 0.20560(11) 1.0861(3)
C2 C 1.0042(3) 0.24356(11) 1.1696(3)
C3 C 0.9191(3) 0.23681(11) 1.2279(3)
H3 H 0.9151 0.2621 1.2823
C4 C 0.8387(3) 0.19454(11) 1.2103(3)
C5 C 0.8478(3) 0.15720(11) 1.1303(3)
H4 H 0.7971 0.1282 1.1177
C6 C 0.9310(3) 0.16195(10) 1.0679(2)
C7 C 1.0868(4) 0.29173(13) 1.1889(4)
C8 C 1.2332(4) 0.27894(18) 1.2394(5)
H5 H 1.2476 0.2568 1.1804
H6 H 1.2827 0.3094 1.2485
H7 H 1.2610 0.2626 1.3209
C9 C 1.0407(5) 0.32023(14) 1.0626(4)
H8 H 1.0499 0.2990 0.9991
H9 H 0.9502 0.3296 1.0354
H10 H 1.0931 0.3500 1.0738
C10 C 1.0703(5) 0.32703(17) 1.2869(5)
H11 H 0.9794 0.3360 1.2585
H12 H 1.0998 0.3102 1.3679
H13 H 1.1215 0.3570 1.2955
C11 C 0.7412(4) 0.19113(13) 1.2720(3)
C12 C 0.7795(7) 0.2240(2) 1.3879(6)
H14 H 0.7899 0.2581 1.3657
H15 H 0.7122 0.2227 1.4193
H16 H 0.8609 0.2123 1.4530
C13 C 0.6068(5) 0.2087(2) 1.1743(6)
H17 H 0.5802 0.1881 1.0990
H18 H 0.5435 0.2057 1.2103
H19 H 0.6123 0.2432 1.1521
C14 C 0.7259(5) 0.13853(17) 1.3099(5)
H20 H 0.7014 0.1167 1.2370
H21 H 0.8076 0.1273 1.3754
H22 H 0.6590 0.1377 1.3417
C15 C 0.9330(3) 0.12365(10) 0.9769(3)
C16 C 0.8796(3) 0.05826(10) 0.8455(3)
C17 C 0.9756(3) 0.08661(10) 0.8294(3)
C18 C 0.7237(3) 0.05090(12) 0.5497(3)
H23 H 0.6697 0.0381 0.4662
H24 H 0.6842 0.0807 0.5656
H25 H 0.8092 0.0590 0.5541
C19 C 0.7364(3) 0.01195(10) 0.6476(3)
C20 C 0.8041(3) 0.01393(10) 0.7783(3)
C21 C 0.7931(3) -0.03132(11) 0.8392(3)
H26 H 0.8328 -0.0358 0.9273
C22 C 0.7193(3) -0.06749(12) 0.7573(3)
C23 C 0.6885(4) -0.12012(14) 0.7859(4)
H27 H 0.6336 -0.1367 0.7076
H28 H 0.7687 -0.1387 0.8273
H29 H 0.6434 -0.1185 0.8410
C24 C 1.0784(3) -0.01570(12) 0.7541(3)
H30 H 1.1124 -0.0384 0.7101
H31 H 1.1332 -0.0168 0.8441
H32 H 0.9907 -0.0256 0.7393
C25 C 1.0767(3) 0.03661(11) 0.7058(3)
C26 C 1.0372(3) 0.08076(10) 0.7394(3)
C27 C 1.0602(3) 0.12335(12) 0.6754(3)
H33 H 1.0395 0.1561 0.6894
C28 C 1.1142(3) 0.11250(13) 0.5928(3)
C29 C 1.1481(4) 0.14631(17) 0.5087(4)
H34 H 1.1853 0.1269 0.4615
H35 H 1.0702 0.1631 0.4504
H36 H 1.2108 0.1710 0.5597
O2 O 0.6335(2) 0.05689(11) 0.9883(2)
O3 O 0.4901(4) 0.03216(18) 0.7947(4)
H37 H 0.4065 0.0359 0.7475
C30 C 0.5200(4) 0.05403(14) 0.9094(4)
C31 C 0.4095(4) 0.07415(17) 0.9329(4)
H38 H 0.3288 0.0682 0.8595
H39 H 0.4064 0.0577 1.0059
H40 H 0.4211 0.1098 0.9487
loop_
_geom_bond_atom_site_label_1
_geom_bond_atom_site_label_2
_geom_bond_site_symmetry_1
_geom_bond_site_symmetry_2
S1 C19 1_555 1_555
S2 C25 1_555 1_555
O1 H1 1_555 1_555
N1 C15 1_555 1_555
N2 H2 1_555 1_555
C1 O1 1_555 1_555
C2 C1 1_555 1_555
C3 C2 1_555 1_555
H3 C3 1_555 1_555
C4 C3 1_555 1_555
C5 C4 1_555 1_555
H4 C5 1_555 1_555
C6 C1 1_555 1_555
C7 C2 1_555 1_555
C8 C7 1_555 1_555
H5 C8 1_555 1_555
H6 C8 1_555 1_555
H7 C8 1_555 1_555
C9 C7 1_555 1_555
H8 C9 1_555 1_555
H9 C9 1_555 1_555
H10 C9 1_555 1_555
C10 C7 1_555 1_555
H11 C10 1_555 1_555
H12 C10 1_555 1_555
H13 C10 1_555 1_555
C11 C4 1_555 1_555
C12 C11 1_555 1_555
H14 C12 1_555 1_555
H15 C12 1_555 1_555
H16 C12 1_555 1_555
C13 C11 1_555 1_555
H17 C13 1_555 1_555
H18 C13 1_555 1_555
H19 C13 1_555 1_555
C14 C11 1_555 1_555
H20 C14 1_555 1_555
H21 C14 1_555 1_555
H22 C14 1_555 1_555
C15 N2 1_555 1_555
C16 N2 1_555 1_555
C17 N1 1_555 1_555
C18 H23 1_555 1_555
H24 C18 1_555 1_555
H25 C18 1_555 1_555
C19 C18 1_555 1_555
C20 C16 1_555 1_555
C21 C20 1_555 1_555
H26 C21 1_555 1_555
C22 S1 1_555 1_555
C23 C22 1_555 1_555
H27 C23 1_555 1_555
H28 C23 1_555 1_555
H29 C23 1_555 1_555
C24 H30 1_555 1_555
H31 C24 1_555 1_555
H32 C24 1_555 1_555
C25 C24 1_555 1_555
C26 C17 1_555 1_555
C27 C26 1_555 1_555
H33 C27 1_555 1_555
C28 S2 1_555 1_555
C29 C28 1_555 1_555
H34 C29 1_555 1_555
H35 C29 1_555 1_555
H36 C29 1_555 1_555
O2 C30 1_555 1_555
O3 H37 1_555 1_555
C30 O3 1_555 1_555
C31 C30 1_555 1_555
H38 C31 1_555 1_555
H39 C31 1_555 1_555
H40 C31 1_555 1_555
C5 C6 1_555 1_555
C6 C15 1_555 1_555
C16 C17 1_555 1_555
C19 C20 1_555 1_555
C21 C22 1_555 1_555
C25 C26 1_555 1_555
C27 C28 1_555 1_555

#END
