
#######################################################################
#
#                 Cambridge Crystallographic Data Centre
#                                CCDC 
#
#######################################################################
#
# If this CIF has been generated from an entry in the Cambridge 
# Structural Database, then it will include bibliographic, chemical, 
# crystal, experimental, refinement or atomic coordinate data resulting 
# from the CCDC's data processing and validation procedures.
#
#######################################################################

data_ARADUT
_chemical_formula_moiety         'C27 H24 Br1 N1 O2'
_chemical_name_systematic        
4-(4-Bromophenyl)-6-methoxy-9-methyl-2-phenyl-2,3,4,9-tetrahydro-1H-carbazole-3-carbaldehyde
_symmetry_cell_setting           orthorhombic
_symmetry_space_group_name_H-M   'P 21 21 21'
_symmetry_Int_Tables_number      19
_space_group_name_Hall           'P 2ac 2ab'
loop_
_symmetry_equiv_pos_site_id
_symmetry_equiv_pos_as_xyz
1 x,y,z
2 1/2-x,-y,1/2+z
3 -x,1/2+y,1/2-z
4 1/2+x,1/2-y,-z
_cell_length_a                   7.3514(14)
_cell_length_b                   11.984(2)
_cell_length_c                   25.500(5)
_cell_angle_alpha                90
_cell_angle_beta                 90
_cell_angle_gamma                90
_cell_volume                     2246.53
_exptl_crystal_colour            colorless
_exptl_crystal_description       block
_cell_formula_units_Z            4
loop_
_atom_site_label
_atom_site_type_symbol
_atom_site_fract_x
_atom_site_fract_y
_atom_site_fract_z
Br1 Br -0.53116(6) 0.91520(4) 0.938942(18)
O1 O 0.4787(5) 0.5318(4) 0.92988(18)
O2 O 0.3289(4) 1.0185(3) 0.73711(11)
N1 N 0.2220(4) 0.5645(3) 0.74019(10)
C1 C -0.1081(6) 0.3364(4) 0.93567(17)
H1 H -0.1765 0.4002 0.9422
C2 C -0.1504(9) 0.2377(5) 0.96179(19)
H2 H -0.2456 0.2357 0.9858
C3 C -0.0510(13) 0.1442(5) 0.9518(2)
H3 H -0.0795 0.0777 0.9688
C4 C 0.0878(12) 0.1472(5) 0.9177(2)
H4 H 0.1556 0.0831 0.9114
C5 C 0.1312(8) 0.2456(5) 0.89151(18)
H5 H 0.2274 0.2462 0.8678
C6 C 0.0347(6) 0.3410(3) 0.90007(14)
C7 C 0.0664(5) 0.4496(3) 0.87066(12)
H6 H -0.0542 0.4824 0.8650
C8 C 0.1759(5) 0.5369(3) 0.90256(12)
H7 H 0.1196 0.5414 0.9373
C9 C 0.3671(7) 0.4989(5) 0.91046(18)
H8 H 0.3915 0.4308 0.8945
C10 C 0.1639(5) 0.6548(3) 0.87790(13)
H9 H 0.2651 0.6985 0.8922
C11 C -0.0094(4) 0.7155(3) 0.89231(11)
C12 C -0.0152(4) 0.7786(3) 0.93813(12)
H10 H 0.0873 0.7824 0.9594
C13 C -0.1708(5) 0.8359(3) 0.95248(13)
H11 H -0.1734 0.8780 0.9831
C14 C -0.3221(5) 0.8297(3) 0.92066(14)
C15 C -0.3223(5) 0.7656(3) 0.87639(13)
H12 H -0.4266 0.7597 0.8559
C16 C -0.1653(5) 0.7096(3) 0.86239(13)
H13 H -0.1648 0.6669 0.8320
C17 C 0.1955(5) 0.6450(3) 0.81956(13)
C18 C 0.1879(5) 0.5464(3) 0.79314(12)
C19 C 0.1506(5) 0.4347(3) 0.81591(13)
H14 H 0.2629 0.3925 0.8185
H15 H 0.0674 0.3939 0.7935
C20 C 0.2366(6) 0.4790(4) 0.70039(14)
H16 H 0.1985 0.5088 0.6672
H17 H 0.1604 0.4170 0.7096
H18 H 0.3606 0.4545 0.6979
C21 C 0.2543(5) 0.6763(3) 0.73334(13)
C22 C 0.3014(5) 0.7358(4) 0.68813(14)
H19 H 0.3168 0.6996 0.6562
C23 C 0.3243(5) 0.8487(4) 0.69226(15)
H20 H 0.3548 0.8893 0.6625
C24 C 0.3033(5) 0.9047(4) 0.73996(14)
C25 C 0.2786(6) 1.0839(4) 0.78056(18)
H21 H 0.1502 1.0768 0.7865
H22 H 0.3080 1.1606 0.7738
H23 H 0.3434 1.0588 0.8110
C26 C 0.2584(5) 0.8468(3) 0.78496(14)
H24 H 0.2434 0.8843 0.8166
C27 C 0.2359(4) 0.7309(3) 0.78238(13)
loop_
_geom_bond_atom_site_label_1
_geom_bond_atom_site_label_2
_geom_bond_site_symmetry_1
_geom_bond_site_symmetry_2
Br1 C14 1_555 1_555
O1 C9 1_555 1_555
O2 C24 1_555 1_555
N1 C18 1_555 1_555
C1 H1 1_555 1_555
C2 C1 1_555 1_555
H2 C2 1_555 1_555
C3 C2 1_555 1_555
H3 C3 1_555 1_555
C4 C3 1_555 1_555
H4 C4 1_555 1_555
C5 C4 1_555 1_555
H5 C5 1_555 1_555
C6 C1 1_555 1_555
C7 C6 1_555 1_555
H6 C7 1_555 1_555
C8 C7 1_555 1_555
H7 C8 1_555 1_555
C9 C8 1_555 1_555
H8 C9 1_555 1_555
C10 C8 1_555 1_555
H9 C10 1_555 1_555
C11 C10 1_555 1_555
C12 C11 1_555 1_555
H10 C12 1_555 1_555
C13 C12 1_555 1_555
H11 C13 1_555 1_555
C14 C13 1_555 1_555
C15 C14 1_555 1_555
H12 C15 1_555 1_555
C16 C11 1_555 1_555
H13 C16 1_555 1_555
C17 C10 1_555 1_555
C18 C17 1_555 1_555
C19 C7 1_555 1_555
H14 C19 1_555 1_555
H15 C19 1_555 1_555
C20 N1 1_555 1_555
H16 C20 1_555 1_555
H17 C20 1_555 1_555
H18 C20 1_555 1_555
C21 N1 1_555 1_555
C22 C21 1_555 1_555
H19 C22 1_555 1_555
C23 C22 1_555 1_555
H20 C23 1_555 1_555
C24 C23 1_555 1_555
C25 O2 1_555 1_555
H21 C25 1_555 1_555
H22 C25 1_555 1_555
H23 C25 1_555 1_555
C26 C24 1_555 1_555
H24 C26 1_555 1_555
C27 C17 1_555 1_555
C5 C6 1_555 1_555
C15 C16 1_555 1_555
C18 C19 1_555 1_555
C21 C27 1_555 1_555
C26 C27 1_555 1_555

#END
