
#######################################################################
#
#                 Cambridge Crystallographic Data Centre
#                                CCDC 
#
#######################################################################
#
# If this CIF has been generated from an entry in the Cambridge 
# Structural Database, then it will include bibliographic, chemical, 
# crystal, experimental, refinement or atomic coordinate data resulting 
# from the CCDC's data processing and validation procedures.
#
#######################################################################

data_ARAJOS
_chemical_formula_moiety         'C64 H56 N8 O24,6(C4 H8 O1)'
_chemical_name_systematic        
'5,11,17,23,29,35,41,47-Octanitro-49,50,51,52,53,54,55,56-octamethoxycalix(8)arene tetrahydrofuran solvate'
_symmetry_cell_setting           triclinic
_symmetry_space_group_name_H-M   'P -1'
_symmetry_Int_Tables_number      2
_space_group_name_Hall           '-P 1'
loop_
_symmetry_equiv_pos_site_id
_symmetry_equiv_pos_as_xyz
1 x,y,z
2 -x,-y,-z
_cell_length_a                   8.8453(16)
_cell_length_b                   16.744(4)
_cell_length_c                   17.400(4)
_cell_angle_alpha                61.504(15)
_cell_angle_beta                 80.507(16)
_cell_angle_gamma                74.966(16)
_cell_volume                     2184.74
_exptl_crystal_colour            'light yellow'
_exptl_crystal_description       block
_cell_formula_units_Z            1
loop_
_atom_site_label
_atom_site_type_symbol
_atom_site_fract_x
_atom_site_fract_y
_atom_site_fract_z
C1 C 0.5843(12) 0.0739(7) 0.8762(6)
H1 H 0.6167 0.0260 0.9356
H2 H 0.6536 0.1191 0.8541
C2 C 0.2034(13) 0.3468(6) 0.8900(6)
H3 H 0.2793 0.3451 0.9269
H4 H 0.0976 0.3568 0.9174
C3 C 0.1351(12) 0.6944(6) 0.7070(6)
H5 H 0.0321 0.7014 0.7382
H6 H 0.2139 0.6980 0.7390
C4 C 0.4179(11) 0.8925(7) 0.4282(6)
H7 H 0.4664 0.9243 0.4501
H8 H 0.4904 0.8328 0.4381
C5 C 0.4217(11) 0.1229(6) 0.8834(6)
C6 C 0.3871(11) 0.2075(6) 0.8865(6)
C7 C 0.2353(12) 0.2561(6) 0.8916(6)
C8 C 0.1139(13) 0.2141(7) 0.8973(6)
H9 H 0.0086 0.2442 0.9026
C9 C 0.1430(12) 0.1306(7) 0.8954(7)
C10 C 0.2980(12) 0.0830(7) 0.8889(6)
H10 H 0.3174 0.0248 0.8883
O1 O 0.5080(8) 0.2509(5) 0.8761(4)
C11 C 0.5847(13) 0.2205(8) 0.9563(6)
H11 H 0.5077 0.2326 0.9989
H12 H 0.6680 0.2545 0.9433
H13 H 0.6299 0.1537 0.9807
N1 N 0.0141(14) 0.0924(9) 0.8960(8)
O2 O -0.1160(11) 0.1403(9) 0.8880(10)
O3 O 0.0454(11) 0.0118(8) 0.9046(8)
C12 C 0.2111(12) 0.4305(6) 0.8001(6)
C13 C 0.1658(12) 0.5205(7) 0.7905(6)
C14 C 0.1754(11) 0.5986(6) 0.7110(6)
C15 C 0.2194(12) 0.5857(7) 0.6370(7)
H14 H 0.2193 0.6376 0.5807
C16 C 0.2626(12) 0.4983(7) 0.6457(6)
C17 C 0.2585(12) 0.4186(7) 0.7248(6)
H15 H 0.2868 0.3586 0.7277
O4 O 0.1209(8) 0.5310(5) 0.8659(4)
C18 C -0.0490(15) 0.5408(8) 0.8882(7)
H16 H -0.1048 0.6001 0.8443
H17 H -0.0701 0.5391 0.9460
H18 H -0.0849 0.4896 0.8892
N2 N 0.3123(10) 0.4840(6) 0.5659(5)
O5 O 0.3138(10) 0.5540(5) 0.4947(5)
O6 O 0.3570(10) 0.4047(5) 0.5750(4)
C19 C 0.1283(12) 0.7747(6) 0.6165(5)
C20 C 0.2621(11) 0.8004(6) 0.5667(6)
C21 C 0.2628(10) 0.8729(6) 0.4802(6)
C22 C 0.1136(12) 0.9205(6) 0.4466(6)
H19 H 0.1045 0.9675 0.3876
C23 C -0.0195(11) 0.8990(6) 0.4994(5)
C24 C -0.0108(12) 0.8271(7) 0.5786(7)
H20 H -0.1056 0.8113 0.6106
O7 O 0.4032(8) 0.7466(4) 0.6037(4)
C25 C 0.4838(12) 0.7910(8) 0.6365(6)
H21 H 0.5088 0.8482 0.5876
H22 H 0.5807 0.7483 0.6634
H23 H 0.4150 0.8059 0.6802
N3 N -0.1698(10) 0.9559(6) 0.4615(6)
O8 O -0.1715(7) 1.0147(5) 0.3842(4)
O9 O -0.2901(8) 0.9445(5) 0.5097(4)
C26 C 0.3963(10) 0.9520(6) 0.3311(6)
C27 C 0.4160(10) 0.9146(6) 0.2729(6)
C28 C 0.6104(11) 0.0275(7) 0.8171(6)
C29 C 0.6550(11) -0.0646(7) 0.8474(6)
H24 H 0.6762 -0.1039 0.9073
C30 C 0.6700(11) -0.1025(6) 0.7886(6)
C31 C 0.3534(10) 1.0486(6) 0.2976(6)
H25 H 0.3408 1.0763 0.3355
O10 O 0.4603(8) 0.8207(4) 0.3040(4)
C32 C 0.3331(13) 0.7706(7) 0.3372(7)
H26 H 0.2790 0.7787 0.3878
H27 H 0.3757 0.7044 0.3551
H28 H 0.2589 0.7950 0.2912
N4 N 0.7211(9) -0.2054(6) 0.8213(6)
O11 O 0.7364(8) -0.2359(5) 0.7704(4)
O12 O 0.7463(8) -0.2528(5) 0.9007(4)
C28A C 0.3896(11) 0.9725(7) 0.1829(6)
C1A C 0.4157(12) 0.9261(7) 0.1238(6)
H1A H 0.3833 0.9740 0.0644
H2A H 0.3464 0.8809 0.1459
C5A C 0.5783(11) 0.8771(6) 0.1166(6)
C6A C 0.6129(11) 0.7925(6) 0.1135(6)
C7A C 0.7647(12) 0.7439(6) 0.1084(6)
C2A C 0.7966(13) 0.6532(6) 0.1100(6)
H3A H 0.7207 0.6549 0.0731
H4A H 0.9024 0.6432 0.0826
C12A C 0.7889(12) 0.5695(6) 0.1999(6)
C13A C 0.8342(12) 0.4795(7) 0.2095(6)
C14A C 0.8246(11) 0.4014(6) 0.2890(6)
C3A C 0.8649(12) 0.3056(6) 0.2930(6)
H5A H 0.9679 0.2986 0.2618
H6A H 0.7861 0.3020 0.2610
C19A C 0.8717(12) 0.2253(6) 0.3835(5)
C20A C 0.7379(11) 0.1996(6) 0.4333(6)
C21A C 0.7372(10) 0.1271(6) 0.5198(6)
C4A C 0.5821(11) 0.1075(7) 0.5718(6)
H7A H 0.5336 0.0757 0.5499
H8A H 0.5096 0.1672 0.5619
C26A C 0.6037(10) 0.0480(6) 0.6689(6)
C27A C 0.5840(10) 0.0854(6) 0.7271(6)
C31A C 0.6466(10) -0.0486(6) 0.7024(6)
H25A H 0.6592 -0.0763 0.6645
O10A O 0.5397(8) 0.1793(4) 0.6960(4)
C32A C 0.6669(13) 0.2294(7) 0.6628(7)
H26A H 0.7210 0.2213 0.6122
H27A H 0.6243 0.2956 0.6449
H28A H 0.7411 0.2050 0.7088
C22A C 0.8864(12) 0.0795(6) 0.5534(6)
H19A H 0.8955 0.0325 0.6124
C23A C 1.0195(11) 0.1010(6) 0.5006(5)
C24A C 1.0108(12) 0.1729(7) 0.4214(7)
H20A H 1.1056 0.1887 0.3894
N3A N 1.1698(10) 0.0441(6) 0.5385(6)
O8A O 1.1715(7) -0.0147(5) 0.6158(4)
O9A O 1.2901(8) 0.0555(5) 0.4903(4)
O7A O 0.5968(8) 0.2534(4) 0.3963(4)
C25A C 0.5162(12) 0.2090(8) 0.3635(6)
H21A H 0.4912 0.1518 0.4124
H22A H 0.4193 0.2517 0.3366
H23A H 0.5850 0.1941 0.3198
C15A C 0.7806(12) 0.4143(7) 0.3630(7)
H14A H 0.7807 0.3624 0.4193
C16A C 0.7374(12) 0.5017(7) 0.3543(6)
C17A C 0.7415(12) 0.5814(7) 0.2752(6)
H15A H 0.7132 0.6414 0.2723
N2A N 0.6877(10) 0.5160(6) 0.4341(5)
O5A O 0.6862(10) 0.4460(5) 0.5053(5)
O6A O 0.6430(10) 0.5953(5) 0.4250(4)
O4A O 0.8791(8) 0.4690(5) 0.1341(4)
C18A C 1.0490(15) 0.4592(8) 0.1118(7)
H16A H 1.1048 0.3999 0.1557
H17A H 1.0701 0.4609 0.0540
H18A H 1.0849 0.5104 0.1108
C8A C 0.8861(13) 0.7859(7) 0.1027(6)
H9A H 0.9914 0.7558 0.0974
C9A C 0.8570(12) 0.8694(7) 0.1046(7)
C10A C 0.7020(12) 0.9170(7) 0.1111(6)
H10A H 0.6826 0.9752 0.1117
N1A N 0.9859(14) 0.9076(9) 0.1040(8)
O2A O 1.1160(11) 0.8597(9) 0.1120(10)
O3A O 0.9546(11) 0.9882(8) 0.0954(8)
O1A O 0.4920(8) 0.7491(5) 0.1239(4)
C11A C 0.4153(13) 0.7795(8) 0.0437(6)
H11A H 0.4923 0.7674 0.0011
H12A H 0.3320 0.7455 0.0567
H13A H 0.3701 0.8463 0.0193
C29A C 0.3450(11) 1.0646(7) 0.1526(6)
H24A H 0.3238 1.1039 0.0927
C30A C 0.3300(11) 1.1025(6) 0.2114(6)
N4A N 0.2789(9) 1.2054(6) 0.1787(6)
O11A O 0.2636(8) 1.2359(5) 0.2296(4)
O12A O 0.2537(8) 1.2528(5) 0.0993(4)
O13 O 0.2258(11) 0.5971(6) 0.1596(6)
C33 C 0.197(2) 0.5992(12) 0.2399(11)
H29 H 0.0828 0.6099 0.2550
H30 H 0.2397 0.6488 0.2387
C34 C 0.279(4) 0.5048(19) 0.3043(14)
H31 H 0.3467 0.5106 0.3405
H32 H 0.2018 0.4675 0.3434
C35 C 0.373(3) 0.4613(15) 0.2511(13)
H33 H 0.4824 0.4357 0.2700
H34 H 0.3285 0.4103 0.2566
C36 C 0.3687(18) 0.5336(13) 0.1627(14)
H35 H 0.4589 0.5640 0.1479
H36 H 0.3710 0.5084 0.1212
O14 O 0.6153(10) 0.2117(6) 0.1499(5)
C37 C 0.7432(13) 0.1347(8) 0.1709(9)
H37 H 0.7501 0.1058 0.1320
H38 H 0.7313 0.0874 0.2323
C38 C 0.8855(15) 0.1727(12) 0.1577(11)
H39 H 0.9770 0.1392 0.1360
H40 H 0.9112 0.1694 0.2125
C39 C 0.8361(18) 0.2713(10) 0.0901(8)
H41 H 0.8593 0.2769 0.0304
H42 H 0.8906 0.3125 0.0963
C40 C 0.6593(16) 0.2962(9) 0.1082(8)
H43 H 0.6359 0.3273 0.1463
H44 H 0.6048 0.3374 0.0530
O15 O 0.7991(10) 0.8141(6) 0.4292(6)
C41 C 0.8547(15) 0.8387(10) 0.3394(9)
H45 H 0.9502 0.8644 0.3258
H46 H 0.7734 0.8857 0.2987
C42 C 0.8904(19) 0.7502(11) 0.3308(10)
H47 H 0.9737 0.7513 0.2849
H48 H 0.7957 0.7387 0.3176
C43 C 0.9476(16) 0.6756(10) 0.4247(11)
H49 H 0.9368 0.6126 0.4387
H50 H 1.0570 0.6742 0.4319
C44 C 0.8290(16) 0.7164(11) 0.4790(9)
H51 H 0.7307 0.6936 0.4913
H52 H 0.8728 0.6976 0.5354
loop_
_geom_bond_atom_site_label_1
_geom_bond_atom_site_label_2
_geom_bond_site_symmetry_1
_geom_bond_site_symmetry_2
C1 H1 1_555 1_555
H2 C1 1_555 1_555
C2 H3 1_555 1_555
H4 C2 1_555 1_555
C3 H5 1_555 1_555
H6 C3 1_555 1_555
C4 H7 1_555 1_555
H8 C4 1_555 1_555
C5 C1 1_555 1_555
C6 C5 1_555 1_555
C7 C2 1_555 1_555
C8 C7 1_555 1_555
H9 C8 1_555 1_555
C9 C8 1_555 1_555
C10 C5 1_555 1_555
H10 C10 1_555 1_555
O1 C6 1_555 1_555
C11 O1 1_555 1_555
H11 C11 1_555 1_555
H12 C11 1_555 1_555
H13 C11 1_555 1_555
N1 C9 1_555 1_555
O2 N1 1_555 1_555
O3 N1 1_555 1_555
C12 C2 1_555 1_555
C13 C12 1_555 1_555
C14 C3 1_555 1_555
C15 C14 1_555 1_555
H14 C15 1_555 1_555
C16 C15 1_555 1_555
C17 C12 1_555 1_555
H15 C17 1_555 1_555
O4 C13 1_555 1_555
C18 O4 1_555 1_555
H16 C18 1_555 1_555
H17 C18 1_555 1_555
H18 C18 1_555 1_555
N2 C16 1_555 1_555
O5 N2 1_555 1_555
O6 N2 1_555 1_555
C19 C3 1_555 1_555
C20 C19 1_555 1_555
C21 C4 1_555 1_555
C22 C21 1_555 1_555
H19 C22 1_555 1_555
C23 C22 1_555 1_555
C24 C19 1_555 1_555
H20 C24 1_555 1_555
O7 C20 1_555 1_555
C25 O7 1_555 1_555
H21 C25 1_555 1_555
H22 C25 1_555 1_555
H23 C25 1_555 1_555
N3 C23 1_555 1_555
O8 N3 1_555 1_555
O9 N3 1_555 1_555
C26 C4 1_555 1_555
C27 C26 1_555 1_555
C28 C1 1_555 1_555
C29 C28 1_555 1_555
H24 C29 1_555 1_555
C30 C29 1_555 1_555
C31 C26 1_555 1_555
H25 C31 1_555 1_555
O10 C27 1_555 1_555
C32 O10 1_555 1_555
H26 C32 1_555 1_555
H27 C32 1_555 1_555
H28 C32 1_555 1_555
N4 C30 1_555 1_555
O11 N4 1_555 1_555
O12 N4 1_555 1_555
O13 C33 1_555 1_555
C33 H29 1_555 1_555
H30 C33 1_555 1_555
C34 C33 1_555 1_555
H31 C34 1_555 1_555
H32 C34 1_555 1_555
C35 C34 1_555 1_555
H33 C35 1_555 1_555
H34 C35 1_555 1_555
C36 O13 1_555 1_555
H35 C36 1_555 1_555
H36 C36 1_555 1_555
O14 C37 1_555 1_555
C37 H37 1_555 1_555
H38 C37 1_555 1_555
C38 C37 1_555 1_555
H39 C38 1_555 1_555
H40 C38 1_555 1_555
C39 C38 1_555 1_555
H41 C39 1_555 1_555
H42 C39 1_555 1_555
C40 O14 1_555 1_555
H43 C40 1_555 1_555
H44 C40 1_555 1_555
O15 C41 1_555 1_555
C41 H45 1_555 1_555
H46 C41 1_555 1_555
C42 C41 1_555 1_555
H47 C42 1_555 1_555
H48 C42 1_555 1_555
C43 C42 1_555 1_555
H49 C43 1_555 1_555
H50 C43 1_555 1_555
C44 O15 1_555 1_555
H51 C44 1_555 1_555
H52 C44 1_555 1_555
C28A C27 1_555 1_555
C1A C28A 1_555 1_555
H1A C1A 1_555 1_555
H2A C1A 1_555 1_555
C5A C1A 1_555 1_555
C6A C5A 1_555 1_555
C7A C6A 1_555 1_555
C2A C7A 1_555 1_555
H3A C2A 1_555 1_555
H4A C2A 1_555 1_555
C12A C2A 1_555 1_555
C13A C12A 1_555 1_555
C14A C13A 1_555 1_555
C3A C14A 1_555 1_555
H5A C3A 1_555 1_555
H6A C3A 1_555 1_555
C19A C3A 1_555 1_555
C20A C19A 1_555 1_555
C21A C20A 1_555 1_555
C4A C21A 1_555 1_555
H7A C4A 1_555 1_555
H8A C4A 1_555 1_555
C26A C4A 1_555 1_555
C27A C28 1_555 1_555
C31A C30 1_555 1_555
H25A C31A 1_555 1_555
O10A C27A 1_555 1_555
C32A O10A 1_555 1_555
H26A C32A 1_555 1_555
H27A C32A 1_555 1_555
H28A C32A 1_555 1_555
C22A C21A 1_555 1_555
H19A C22A 1_555 1_555
C23A C22A 1_555 1_555
C24A C19A 1_555 1_555
H20A C24A 1_555 1_555
N3A C23A 1_555 1_555
O8A N3A 1_555 1_555
O9A N3A 1_555 1_555
O7A C20A 1_555 1_555
C25A O7A 1_555 1_555
H21A C25A 1_555 1_555
H22A C25A 1_555 1_555
H23A C25A 1_555 1_555
C15A C14A 1_555 1_555
H14A C15A 1_555 1_555
C16A C15A 1_555 1_555
C17A C12A 1_555 1_555
H15A C17A 1_555 1_555
N2A C16A 1_555 1_555
O5A N2A 1_555 1_555
O6A N2A 1_555 1_555
O4A C13A 1_555 1_555
C18A O4A 1_555 1_555
H16A C18A 1_555 1_555
H17A C18A 1_555 1_555
H18A C18A 1_555 1_555
C8A C7A 1_555 1_555
H9A C8A 1_555 1_555
C9A C8A 1_555 1_555
C10A C5A 1_555 1_555
H10A C10A 1_555 1_555
N1A C9A 1_555 1_555
O2A N1A 1_555 1_555
O3A N1A 1_555 1_555
O1A C6A 1_555 1_555
C11A O1A 1_555 1_555
H11A C11A 1_555 1_555
H12A C11A 1_555 1_555
H13A C11A 1_555 1_555
C29A C28A 1_555 1_555
H24A C29A 1_555 1_555
C30A C31 1_555 1_555
N4A C30A 1_555 1_555
O11A N4A 1_555 1_555
O12A N4A 1_555 1_555
C6 C7 1_555 1_555
C9 C10 1_555 1_555
C13 C14 1_555 1_555
C16 C17 1_555 1_555
C20 C21 1_555 1_555
C23 C24 1_555 1_555
C35 C36 1_555 1_555
C39 C40 1_555 1_555
C43 C44 1_555 1_555
C26A C27A 1_555 1_555
C26A C31A 1_555 1_555
C23A C24A 1_555 1_555
C16A C17A 1_555 1_555
C9A C10A 1_555 1_555
C29A C30A 1_555 1_555

#END
