
#######################################################################
#
#                 Cambridge Crystallographic Data Centre
#                                CCDC 
#
#######################################################################
#
# If this CIF has been generated from an entry in the Cambridge 
# Structural Database, then it will include bibliographic, chemical, 
# crystal, experimental, refinement or atomic coordinate data resulting 
# from the CCDC's data processing and validation procedures.
#
#######################################################################

data_ARAMAJ
_chemical_formula_moiety         'C17 H18 N2 O1'
_chemical_name_systematic        
1-(2,3-dihydro-1H-indol-1-yl)-2-(methylamino)-2-phenylethanone
_symmetry_cell_setting           monoclinic
_symmetry_space_group_name_H-M   'P 21/c'
_symmetry_Int_Tables_number      14
_space_group_name_Hall           '-P 2ybc'
loop_
_symmetry_equiv_pos_site_id
_symmetry_equiv_pos_as_xyz
1 x,y,z
2 -x,1/2+y,1/2-z
3 -x,-y,-z
4 x,1/2-y,1/2+z
_cell_length_a                   7.5225(10)
_cell_length_b                   16.146(3)
_cell_length_c                   11.6628(17)
_cell_angle_alpha                90
_cell_angle_beta                 103.779(10)
_cell_angle_gamma                90
_cell_volume                     1375.78
_exptl_crystal_colour            colorless
_exptl_crystal_description       block
_chemical_melting_point          '424-426 K'
_cell_formula_units_Z            4
loop_
_atom_site_label
_atom_site_type_symbol
_atom_site_fract_x
_atom_site_fract_y
_atom_site_fract_z
O1 O 0.74217(14) 0.28557(6) 0.30634(9)
N1 N 0.75117(16) 0.35796(7) 0.47467(11)
N2 N 0.68826(17) 0.14089(7) 0.40682(12)
C1 C 0.74588(19) 0.43932(8) 0.42683(13)
C2 C 0.7412(2) 0.46305(9) 0.31217(14)
H1 H 0.7408 0.4230 0.2524
C3 C 0.7370(2) 0.54762(9) 0.28705(15)
H2 H 0.7322 0.5654 0.2087
C4 C 0.7399(2) 0.60608(10) 0.37440(16)
H3 H 0.7376 0.6634 0.3557
C5 C 0.7462(2) 0.58106(9) 0.48894(16)
H4 H 0.7492 0.6211 0.5491
C6 C 0.7482(2) 0.49736(9) 0.51526(14)
C7 C 0.7512(2) 0.45538(9) 0.63081(14)
H5 H 0.6378 0.4672 0.6569
H6 H 0.8579 0.4737 0.6930
C8 C 0.7653(2) 0.36225(9) 0.60351(13)
H7 H 0.8837 0.3393 0.6481
H8 H 0.6647 0.3308 0.6246
C9 C 0.75508(19) 0.28675(8) 0.41334(13)
C10 C 0.78580(19) 0.20590(8) 0.48374(13)
H9 H 0.7312 0.2115 0.5536
C11 C 0.99250(19) 0.19249(8) 0.52765(13)
C12 C 1.1058(2) 0.19439(9) 0.44900(14)
H10 H 1.0543 0.2040 0.3675
C13 C 1.2929(2) 0.18237(9) 0.48831(14)
H11 H 1.3691 0.1842 0.4340
C14 C 1.3686(2) 0.16772(9) 0.60713(14)
H12 H 1.4969 0.1598 0.6343
C15 C 1.2578(2) 0.16463(9) 0.68585(14)
H13 H 1.3098 0.1541 0.7671
C16 C 1.0701(2) 0.17696(9) 0.64653(14)
H14 H 0.9944 0.1748 0.7011
C17 C 0.7199(2) 0.05715(9) 0.45459(15)
H15 H 0.6517 0.0174 0.3971
H16 H 0.6783 0.0534 0.5279
H17 H 0.8509 0.0444 0.4709
H18 H 0.710(3) 0.1464(12) 0.3373(19)
loop_
_geom_bond_atom_site_label_1
_geom_bond_atom_site_label_2
_geom_bond_site_symmetry_1
_geom_bond_site_symmetry_2
O1 C9 1_555 1_555
N1 C1 1_555 1_555
N2 C10 1_555 1_555
C1 C2 1_555 1_555
C2 H1 1_555 1_555
C3 C2 1_555 1_555
H2 C3 1_555 1_555
C4 C3 1_555 1_555
H3 C4 1_555 1_555
C5 C4 1_555 1_555
H4 C5 1_555 1_555
C6 C1 1_555 1_555
C7 C6 1_555 1_555
H5 C7 1_555 1_555
H6 C7 1_555 1_555
C8 N1 1_555 1_555
H7 C8 1_555 1_555
H8 C8 1_555 1_555
C9 N1 1_555 1_555
C10 C9 1_555 1_555
H9 C10 1_555 1_555
C11 C10 1_555 1_555
C12 C11 1_555 1_555
H10 C12 1_555 1_555
C13 C12 1_555 1_555
H11 C13 1_555 1_555
C14 C13 1_555 1_555
H12 C14 1_555 1_555
C15 C14 1_555 1_555
H13 C15 1_555 1_555
C16 C11 1_555 1_555
H14 C16 1_555 1_555
C17 N2 1_555 1_555
H15 C17 1_555 1_555
H16 C17 1_555 1_555
H17 C17 1_555 1_555
H18 N2 1_555 1_555
C5 C6 1_555 1_555
C7 C8 1_555 1_555
C15 C16 1_555 1_555

#END
