
#######################################################################
#
#                 Cambridge Crystallographic Data Centre
#                                CCDC 
#
#######################################################################
#
# If this CIF has been generated from an entry in the Cambridge 
# Structural Database, then it will include bibliographic, chemical, 
# crystal, experimental, refinement or atomic coordinate data resulting 
# from the CCDC's data processing and validation procedures.
#
#######################################################################

data_ARAMEN
_chemical_formula_moiety         'C19 H22 N2 O1'
_chemical_name_systematic        
2-methyl-1-phenyl-1,4,5,6,7,8-hexahydro-2,4-benzodiazecin-3(2H)-one
_symmetry_cell_setting           orthorhombic
_symmetry_space_group_name_H-M   'F d d 2'
_symmetry_Int_Tables_number      43
_space_group_name_Hall           'F 2 -2d'
loop_
_symmetry_equiv_pos_site_id
_symmetry_equiv_pos_as_xyz
1 x,y,z
2 -x,-y,z
3 1/4-x,1/4+y,1/4+z
4 1/4+x,1/4-y,1/4+z
5 x,1/2+y,1/2+z
6 -x,1/2-y,1/2+z
7 1/4-x,3/4+y,3/4+z
8 1/4+x,3/4-y,3/4+z
9 1/2+x,y,1/2+z
10 1/2-x,-y,1/2+z
11 3/4-x,1/4+y,3/4+z
12 3/4+x,1/4-y,3/4+z
13 1/2+x,1/2+y,z
14 1/2-x,1/2-y,z
15 3/4-x,3/4+y,1/4+z
16 3/4+x,3/4-y,1/4+z
_cell_length_a                   18.2387(5)
_cell_length_b                   36.1019(11)
_cell_length_c                   9.4070(3)
_cell_angle_alpha                90
_cell_angle_beta                 90
_cell_angle_gamma                90
_cell_volume                     6194.06
_exptl_crystal_colour            colorless
_exptl_crystal_description       block
_chemical_melting_point          '502-503 K'
_cell_formula_units_Z            16
loop_
_atom_site_label
_atom_site_type_symbol
_atom_site_fract_x
_atom_site_fract_y
_atom_site_fract_z
O1 O 0.55252(7) 0.62809(4) 0.30966(15)
N1 N 0.47055(8) 0.58246(4) 0.25184(17)
N2 N 0.44174(9) 0.64519(4) 0.22200(17)
H1 H 0.4098 0.6401 0.1577
C1 C 0.49104(10) 0.61940(5) 0.26412(19)
C2 C 0.39365(10) 0.57214(5) 0.2869(2)
H2 H 0.3624 0.5911 0.2433
C3 C 0.37997(10) 0.57435(5) 0.4470(2)
C4 C 0.34274(10) 0.60426(5) 0.5109(2)
C5 C 0.30667(10) 0.63595(5) 0.4307(2)
H3 H 0.2545 0.6356 0.4503
H4 H 0.3131 0.6319 0.3295
C6 C 0.33731(11) 0.67443(5) 0.4691(2)
H5 H 0.3100 0.6928 0.4155
H6 H 0.3274 0.6788 0.5690
C7 C 0.41922(11) 0.68139(5) 0.4435(2)
H7 H 0.4321 0.7050 0.4861
H8 H 0.4468 0.6623 0.4927
C8 C 0.44365(10) 0.68190(5) 0.2877(2)
H9 H 0.4119 0.6984 0.2346
H10 H 0.4932 0.6916 0.2822
C9 C 0.52796(10) 0.55641(5) 0.2937(2)
H11 H 0.5729 0.5628 0.2466
H12 H 0.5137 0.5317 0.2673
H13 H 0.5350 0.5576 0.3948
C10 C 0.37259(10) 0.53538(5) 0.2174(2)
C11 C 0.40040(11) 0.52617(5) 0.0833(2)
H14 H 0.4355 0.5412 0.0410
C12 C 0.37596(12) 0.49472(5) 0.0130(2)
H15 H 0.3954 0.4887 -0.0755
C13 C 0.32302(12) 0.47216(5) 0.0732(2)
H16 H 0.3066 0.4512 0.0251
C14 C 0.29479(11) 0.48099(5) 0.2051(2)
H17 H 0.2591 0.4660 0.2460
C15 C 0.31978(10) 0.51234(5) 0.2773(2)
H18 H 0.3009 0.5179 0.3666
C16 C 0.40780(11) 0.54622(5) 0.5350(2)
H19 H 0.4311 0.5260 0.4936
C17 C 0.40144(11) 0.54776(6) 0.6815(2)
H20 H 0.4212 0.5290 0.7374
C18 C 0.36553(11) 0.57736(6) 0.7448(2)
H21 H 0.3614 0.5788 0.8432
C19 C 0.33607(11) 0.60469(6) 0.6596(2)
H22 H 0.3108 0.6241 0.7023
loop_
_geom_bond_atom_site_label_1
_geom_bond_atom_site_label_2
_geom_bond_site_symmetry_1
_geom_bond_site_symmetry_2
O1 C1 1_555 1_555
N1 C1 1_555 1_555
N2 H1 1_555 1_555
C1 N2 1_555 1_555
C2 N1 1_555 1_555
H2 C2 1_555 1_555
C3 C2 1_555 1_555
C4 C3 1_555 1_555
C5 C4 1_555 1_555
H3 C5 1_555 1_555
H4 C5 1_555 1_555
C6 C5 1_555 1_555
H5 C6 1_555 1_555
H6 C6 1_555 1_555
C7 C6 1_555 1_555
H7 C7 1_555 1_555
H8 C7 1_555 1_555
C8 N2 1_555 1_555
H9 C8 1_555 1_555
H10 C8 1_555 1_555
C9 N1 1_555 1_555
H11 C9 1_555 1_555
H12 C9 1_555 1_555
H13 C9 1_555 1_555
C10 C2 1_555 1_555
C11 C10 1_555 1_555
H14 C11 1_555 1_555
C12 C11 1_555 1_555
H15 C12 1_555 1_555
C13 C12 1_555 1_555
H16 C13 1_555 1_555
C14 C13 1_555 1_555
H17 C14 1_555 1_555
C15 C10 1_555 1_555
H18 C15 1_555 1_555
C16 C3 1_555 1_555
H19 C16 1_555 1_555
C17 C16 1_555 1_555
H20 C17 1_555 1_555
C18 C17 1_555 1_555
H21 C18 1_555 1_555
C19 C4 1_555 1_555
H22 C19 1_555 1_555
C7 C8 1_555 1_555
C14 C15 1_555 1_555
C18 C19 1_555 1_555

#END
