
#######################################################################
#
#                 Cambridge Crystallographic Data Centre
#                                CCDC 
#
#######################################################################
#
# If this CIF has been generated from an entry in the Cambridge 
# Structural Database, then it will include bibliographic, chemical, 
# crystal, experimental, refinement or atomic coordinate data resulting 
# from the CCDC's data processing and validation procedures.
#
#######################################################################

data_ARAPEQ
_chemical_formula_moiety         'C20 H13 B1 F2 N4 O1'
_chemical_name_systematic        
1,1-difluoro-3-phenyl-9-(pyridin-2-yl)-1H-11,1-[1,3,5,2]oxadiazaborinino[3,4-a][1,8]naphthyridine
_symmetry_cell_setting           monoclinic
_symmetry_space_group_name_H-M   'P 21/n'
_symmetry_Int_Tables_number      14
_space_group_name_Hall           '-P 2yn'
loop_
_symmetry_equiv_pos_site_id
_symmetry_equiv_pos_as_xyz
1 x,y,z
2 1/2-x,1/2+y,1/2-z
3 -x,-y,-z
4 1/2+x,1/2-y,1/2+z
_cell_length_a                   10.144(2)
_cell_length_b                   16.276(3)
_cell_length_c                   10.491(2)
_cell_angle_alpha                90
_cell_angle_beta                 101.27(3)
_cell_angle_gamma                90
_cell_volume                     1698.7
_exptl_crystal_colour            yellow
_exptl_crystal_description       block
_cell_formula_units_Z            4
loop_
_atom_site_label
_atom_site_type_symbol
_atom_site_fract_x
_atom_site_fract_y
_atom_site_fract_z
B1 B 0.3307(4) 0.1319(2) 0.8391(4)
F1 F 0.27253(19) 0.09215(12) 0.9281(2)
F2 F 0.3042(2) 0.09408(11) 0.7184(2)
N1 N 0.5098(3) 0.27104(16) 0.9010(3)
N2 N 0.2844(3) 0.22483(15) 0.8257(2)
N3 N 0.0659(3) 0.17947(15) 0.7507(3)
N4 N -0.0920(3) 0.0434(2) 0.6740(4)
O1 O 0.4774(2) 0.13081(12) 0.8848(3)
C1 C 0.7405(3) 0.0970(2) 0.9777(4)
H1 H 0.6790 0.0543 0.9577
C2 C 0.8750(4) 0.0794(2) 1.0225(4)
H2 H 0.9042 0.0252 1.0326
C3 C 0.9666(4) 0.1439(3) 1.0526(4)
H3 H 1.0572 0.1324 1.0819
C4 C 0.9246(4) 0.2231(3) 1.0396(4)
H4 H 0.9865 0.2655 1.0605
C5 C 0.7901(3) 0.2411(2) 0.9953(3)
H5 H 0.7618 0.2955 0.9876
C6 C 0.6967(3) 0.17794(19) 0.9622(3)
C7 C 0.5527(3) 0.19527(19) 0.9122(3)
C8 C 0.3758(4) 0.28545(19) 0.8567(3)
C9 C 0.3336(4) 0.36894(19) 0.8446(4)
H6 H 0.3962 0.4106 0.8687
C10 C 0.2031(4) 0.3884(2) 0.7983(3)
H7 H 0.1771 0.4432 0.7895
C11 C 0.1074(3) 0.32651(18) 0.7638(3)
C12 C -0.0303(4) 0.3392(2) 0.7114(3)
H8 H -0.0628 0.3924 0.6957
C13 C -0.1156(4) 0.2745(2) 0.6837(3)
H9 H -0.2067 0.2828 0.6516
C14 C -0.0629(3) 0.1947(2) 0.7048(3)
C15 C 0.1487(3) 0.24382(18) 0.7802(3)
C16 C -0.1497(3) 0.1216(2) 0.6737(3)
C17 C -0.2834(3) 0.1330(2) 0.6458(3)
H10 H -0.3203 0.1853 0.6456
C18 C -0.3609(4) 0.0675(3) 0.6185(4)
H11 H -0.4535 0.0753 0.6016
C19 C -0.3142(4) -0.0101(3) 0.6137(4)
H12 H -0.3731 -0.0538 0.5910
C20 C -0.1784(4) -0.0228(2) 0.6429(5)
H13 H -0.1440 -0.0757 0.6419
loop_
_geom_bond_atom_site_label_1
_geom_bond_atom_site_label_2
_geom_bond_site_symmetry_1
_geom_bond_site_symmetry_2
B1 F1 1_555 1_555
F2 B1 1_555 1_555
N1 C7 1_555 1_555
N2 B1 1_555 1_555
N3 C14 1_555 1_555
N4 C16 1_555 1_555
O1 B1 1_555 1_555
C1 H1 1_555 1_555
C2 C1 1_555 1_555
H2 C2 1_555 1_555
C3 C2 1_555 1_555
H3 C3 1_555 1_555
C4 C3 1_555 1_555
H4 C4 1_555 1_555
C5 C4 1_555 1_555
H5 C5 1_555 1_555
C6 C1 1_555 1_555
C7 O1 1_555 1_555
C8 N1 1_555 1_555
C9 C8 1_555 1_555
H6 C9 1_555 1_555
C10 C9 1_555 1_555
H7 C10 1_555 1_555
C11 C10 1_555 1_555
C12 C11 1_555 1_555
H8 C12 1_555 1_555
C13 C12 1_555 1_555
H9 C13 1_555 1_555
C14 C13 1_555 1_555
C15 N2 1_555 1_555
C16 C14 1_555 1_555
C17 C16 1_555 1_555
H10 C17 1_555 1_555
C18 C17 1_555 1_555
H11 C18 1_555 1_555
C19 C18 1_555 1_555
H12 C19 1_555 1_555
C20 N4 1_555 1_555
H13 C20 1_555 1_555
N2 C8 1_555 1_555
N3 C15 1_555 1_555
C5 C6 1_555 1_555
C6 C7 1_555 1_555
C11 C15 1_555 1_555
C19 C20 1_555 1_555

#END
