
#######################################################################
#
#                 Cambridge Crystallographic Data Centre
#                                CCDC 
#
#######################################################################
#
# If this CIF has been generated from an entry in the Cambridge 
# Structural Database, then it will include bibliographic, chemical, 
# crystal, experimental, refinement or atomic coordinate data resulting 
# from the CCDC's data processing and validation procedures.
#
#######################################################################

data_ARCLAM01
_chemical_name_common            'PDB Chemical Component code: 1HC'
_chemical_formula_moiety         'C3 H5 N1 O1'
_chemical_name_systematic        Acrylamide
_symmetry_cell_setting           monoclinic
_symmetry_space_group_name_H-M   'P 21/n'
_symmetry_Int_Tables_number      14
_space_group_name_Hall           '-P 2yn'
loop_
_symmetry_equiv_pos_site_id
_symmetry_equiv_pos_as_xyz
1 x,y,z
2 1/2-x,1/2+y,1/2-z
3 -x,-y,-z
4 1/2+x,1/2-y,1/2+z
_cell_length_a                   8.2062(16)
_cell_length_b                   5.7480(11)
_cell_length_c                   9.0527(18)
_cell_angle_alpha                90
_cell_angle_beta                 111.37(3)
_cell_angle_gamma                90
_cell_volume                     397.651
_exptl_crystal_colour            colorless
_exptl_crystal_description       block
_cell_formula_units_Z            4
_exptl_crystal_recrystallization_method chloroform
loop_
_atom_site_label
_atom_site_type_symbol
_atom_site_fract_x
_atom_site_fract_y
_atom_site_fract_z
O1 O 0.01963(11) 0.26267(14) 0.86873(9)
N1 N 0.21481(13) 0.36721(18) 1.10725(11)
C1 C 0.15782(14) 0.2263(2) 0.98265(12)
C2 C 0.26969(15) 0.0222(2) 0.98707(13)
H1 H 0.3754 0.0058 1.0719
C3 C 0.22422(19) -0.1360(2) 0.87512(16)
H2 H 0.1189 -0.1220 0.7896
H3 H 0.2972 -0.2623 0.8812
H4 H 0.3147(13) 0.344(2) 1.1876(13)
H5 H 0.1520(16) 0.492(2) 1.1129(17)
loop_
_geom_bond_atom_site_label_1
_geom_bond_atom_site_label_2
_geom_bond_site_symmetry_1
_geom_bond_site_symmetry_2
O1 C1 1_555 1_555
N1 C1 1_555 1_555
C1 C2 1_555 1_555
C2 H1 1_555 1_555
C3 C2 1_555 1_555
H2 C3 1_555 1_555
H3 C3 1_555 1_555
H4 N1 1_555 1_555
H5 N1 1_555 1_555

#END
