
#######################################################################
#
#                 Cambridge Crystallographic Data Centre
#                                CCDC 
#
#######################################################################
#
# If this CIF has been generated from an entry in the Cambridge 
# Structural Database, then it will include bibliographic, chemical, 
# crystal, experimental, refinement or atomic coordinate data resulting 
# from the CCDC's data processing and validation procedures.
#
#######################################################################

data_ARCMPH
_chemical_formula_moiety         'C9 H14 N3 O8 P1,3(H2 O1)'
_chemical_name_systematic        
"1-\b-D-Arabinofuranosyl-cytosine-5'-monophosphate trihydrate"
_symmetry_cell_setting           orthorhombic
_symmetry_space_group_name_H-M   'P 21 21 21'
_symmetry_Int_Tables_number      19
_space_group_name_Hall           'P 2ac 2ab'
loop_
_symmetry_equiv_pos_site_id
_symmetry_equiv_pos_as_xyz
1 x,y,z
2 1/2+x,1/2-y,-z
3 -x,1/2+y,1/2-z
4 1/2-x,-y,1/2+z
_cell_length_a                   17.498(4)
_cell_length_b                   18.225(5)
_cell_length_c                   4.812(1)
_cell_angle_alpha                90
_cell_angle_beta                 90
_cell_angle_gamma                90
_cell_volume                     1534.55
_exptl_crystal_colour            colorless
_cell_formula_units_Z            4
loop_
_atom_site_label
_atom_site_type_symbol
_atom_site_fract_x
_atom_site_fract_y
_atom_site_fract_z
N1 N 0.03237 0.34528 0.79810
C1 C 0.10301 0.31709 0.73600
O1 O 0.16221 0.33755 0.84830
N2 N 0.10481 0.26082 0.54180
C2 C 0.04309 0.23586 0.41550
N3 N 0.04838 0.18562 0.21800
C3 C -0.02880 0.26555 0.48980
C4 C -0.03076 0.31819 0.67920
P1 P -0.24436 0.34548 0.88540
O2 O -0.18621 0.41011 0.81600
O3 O -0.25007 0.30109 0.62650
O4 O -0.31775 0.37604 0.99720
O5 O -0.20264 0.29790 1.10980
C5 C 0.02996 0.41059 0.98400
O6 O -0.04177 0.41105 1.12420
C6 C 0.03703 0.48174 0.82610
O7 O 0.07819 0.47868 0.57670
C7 C -0.04710 0.50271 0.77830
O8 O -0.05521 0.57823 0.73530
C8 C -0.08172 0.47759 1.04290
C9 C -0.16778 0.45979 1.04290
O9 O 0.31526 0.34269 0.39200
O10 O 0.23092 0.46705 0.50340
O11 O 0.39420 0.37322 0.90780
loop_
_geom_bond_atom_site_label_1
_geom_bond_atom_site_label_2
_geom_bond_site_symmetry_1
_geom_bond_site_symmetry_2
N1 C1 1_555 1_555
C1 O1 1_555 1_555
N2 C1 1_555 1_555
C2 N2 1_555 1_555
N3 C2 1_555 1_555
C3 C2 1_555 1_555
C4 N1 1_555 1_555
P1 O2 1_555 1_555
O2 C9 1_555 1_555
O3 P1 1_555 1_555
O4 P1 1_555 1_555
O5 P1 1_555 1_555
C5 N1 1_555 1_555
O6 C5 1_555 1_555
C6 C5 1_555 1_555
O7 C6 1_555 1_555
C7 C6 1_555 1_555
O8 C7 1_555 1_555
C8 O6 1_555 1_555
C9 C8 1_555 1_555
C3 C4 1_555 1_555
C7 C8 1_555 1_555

#END
