
#######################################################################
#
#                 Cambridge Crystallographic Data Centre
#                                CCDC 
#
#######################################################################
#
# If this CIF has been generated from an entry in the Cambridge 
# Structural Database, then it will include bibliographic, chemical, 
# crystal, experimental, refinement or atomic coordinate data resulting 
# from the CCDC's data processing and validation procedures.
#
#######################################################################

data_ARCMPH01
_chemical_name_common            'PDB Chemical Component code: CAR'
_chemical_formula_moiety         'C9 H14 N3 O8 P1,3(H2 O1)'
_chemical_name_systematic        
"1-\b-D-Arabinofuranosyl-cytosine-5'-monophosphate trihydrate"
_symmetry_cell_setting           orthorhombic
_symmetry_space_group_name_H-M   'P 21 21 21'
_symmetry_Int_Tables_number      19
_space_group_name_Hall           'P 2ac 2ab'
loop_
_symmetry_equiv_pos_site_id
_symmetry_equiv_pos_as_xyz
1 x,y,z
2 1/2+x,1/2-y,-z
3 -x,1/2+y,1/2-z
4 1/2-x,-y,1/2+z
_cell_length_a                   17.531(3)
_cell_length_b                   18.252(4)
_cell_length_c                   4.816(1)
_cell_angle_alpha                90
_cell_angle_beta                 90
_cell_angle_gamma                90
_cell_volume                     1541
_exptl_crystal_colour            colorless
_cell_formula_units_Z            4
loop_
_atom_site_label
_atom_site_type_symbol
_atom_site_fract_x
_atom_site_fract_y
_atom_site_fract_z
N1 N 0.03215 0.34607 0.79370
C1 C 0.10348 0.31695 0.73960
O1 O 0.16136 0.33744 0.84910
N2 N 0.10357 0.26174 0.54040
C2 C 0.04133 0.23550 0.40930
N3 N 0.04885 0.18621 0.21370
C3 C -0.03005 0.26549 0.48320
C4 C -0.03145 0.31970 0.67110
P1 P -0.24472 0.34556 0.88100
O2 O -0.18626 0.41016 0.81440
O3 O -0.24964 0.30119 0.62090
O4 O -0.31694 0.37620 0.98870
O5 O -0.20247 0.29873 1.10550
C5 C 0.02848 0.41043 0.98210
O6 O -0.04260 0.41129 1.11560
C6 C 0.03560 0.48357 0.82470
O7 O 0.07674 0.47845 0.57360
C7 C -0.04784 0.50304 0.77630
O8 O -0.05522 0.57879 0.73270
C8 C -0.08460 0.47706 1.04180
C9 C -0.16831 0.46096 1.03650
O9 O 0.31673 0.34259 0.40290
O10 O 0.23258 0.46555 0.50330
O11 O 0.39610 0.37423 0.91200
loop_
_geom_bond_atom_site_label_1
_geom_bond_atom_site_label_2
_geom_bond_site_symmetry_1
_geom_bond_site_symmetry_2
N1 C1 1_555 1_555
C1 O1 1_555 1_555
N2 C1 1_555 1_555
C2 N2 1_555 1_555
N3 C2 1_555 1_555
C3 C2 1_555 1_555
C4 N1 1_555 1_555
P1 O2 1_555 1_555
O2 C9 1_555 1_555
O3 P1 1_555 1_555
O4 P1 1_555 1_555
O5 P1 1_555 1_555
C5 N1 1_555 1_555
O6 C5 1_555 1_555
C6 C5 1_555 1_555
O7 C6 1_555 1_555
C7 C6 1_555 1_555
O8 C7 1_555 1_555
C8 O6 1_555 1_555
C9 C8 1_555 1_555
C3 C4 1_555 1_555
C7 C8 1_555 1_555

#END
