
#######################################################################
#
#                 Cambridge Crystallographic Data Centre
#                                CCDC 
#
#######################################################################
#
# If this CIF has been generated from an entry in the Cambridge 
# Structural Database, then it will include bibliographic, chemical, 
# crystal, experimental, refinement or atomic coordinate data resulting 
# from the CCDC's data processing and validation procedures.
#
#######################################################################

data_AREDUY
_chemical_formula_moiety         'C48 H34 N4'
_chemical_name_systematic        
2,2'-(1,4-phenylene)bis(3-(4-(diphenylamino)phenyl)acrylonitrile)
_symmetry_cell_setting           triclinic
_symmetry_space_group_name_H-M   'P -1'
_symmetry_Int_Tables_number      2
_space_group_name_Hall           '-P 1'
loop_
_symmetry_equiv_pos_site_id
_symmetry_equiv_pos_as_xyz
1 x,y,z
2 -x,-y,-z
_cell_length_a                   9.5046(19)
_cell_length_b                   9.874(2)
_cell_length_c                   19.372(4)
_cell_angle_alpha                81.04(3)
_cell_angle_beta                 81.10(3)
_cell_angle_gamma                89.66(3)
_cell_volume                     1773.92
_exptl_crystal_colour            yellow
_exptl_crystal_description       block
_cell_formula_units_Z            2
loop_
_atom_site_label
_atom_site_type_symbol
_atom_site_fract_x
_atom_site_fract_y
_atom_site_fract_z
C1 C 0.2890(7) 0.5786(6) 0.4846(3)
H1 H 0.3382 0.6613 0.4682
C2 C 0.2112(7) 0.5219(6) 0.4406(3)
H2 H 0.2082 0.5686 0.3953
C3 C 0.1385(7) 0.3984(6) 0.4622(3)
C4 C 0.0567(7) 0.3389(6) 0.4147(3)
C5 C 0.0631(7) 0.4168(6) 0.3454(3)
C6 C -0.0208(7) 0.2228(6) 0.4331(3)
H3 H -0.0244 0.1832 0.4801
C7 C -0.1006(7) 0.1472(6) 0.3927(3)
C8 C -0.0732(8) 0.1585(6) 0.3190(3)
H4 H -0.0026 0.2184 0.2928
C9 C -0.1519(8) 0.0798(7) 0.2860(3)
H5 H -0.1329 0.0889 0.2369
C10 C -0.2559(8) -0.0104(6) 0.3207(3)
C11 C -0.2825(7) -0.0229(6) 0.3936(3)
H6 H -0.3530 -0.0832 0.4196
C12 C -0.2034(7) 0.0551(6) 0.4273(3)
H7 H -0.2214 0.0442 0.4764
C13 C -0.2533(7) -0.1415(6) 0.2242(3)
C14 C -0.1261(8) -0.2099(6) 0.2288(3)
H8 H -0.0902 -0.2235 0.2714
C15 C -0.0549(8) -0.2564(7) 0.1722(4)
H9 H 0.0284 -0.3047 0.1764
C16 C -0.1026(10) -0.2342(8) 0.1075(4)
H10 H -0.0518 -0.2656 0.0682
C17 C -0.2244(10) -0.1662(8) 0.1028(3)
H11 H -0.2573 -0.1509 0.0596
C18 C -0.3024(8) -0.1179(7) 0.1599(3)
H12 H -0.3862 -0.0707 0.1552
C19 C -0.4810(9) -0.1023(6) 0.2974(3)
C20 C -0.5512(9) -0.2097(7) 0.2808(3)
H13 H -0.4985 -0.2793 0.2626
C21 C -0.6975(11) -0.2187(8) 0.2901(4)
H14 H -0.7431 -0.2920 0.2774
C22 C -0.7752(10) -0.1170(10) 0.3186(5)
H15 H -0.8742 -0.1203 0.3250
C23 C -0.7066(10) -0.0128(9) 0.3371(5)
H16 H -0.7598 0.0541 0.3576
C24 C -0.5581(9) -0.0016(8) 0.3266(4)
H17 H -0.5127 0.0721 0.3391
C25 C 0.1474(8) 0.3309(6) 0.5295(3)
H18 H 0.0998 0.2473 0.5459
C26 C 0.2268(7) 0.3875(6) 0.5726(3)
H19 H 0.2350 0.3383 0.6167
C27 C 0.2935(7) 0.5128(6) 0.5525(3)
C28 C 0.3682(6) 0.5731(5) 0.6019(3)
C29 C 0.4643(7) 0.6826(7) 0.5713(3)
C30 C 0.3372(7) 0.5351(6) 0.6728(3)
H20 H 0.2627 0.4717 0.6881
C31 C 0.4042(6) 0.5798(6) 0.7286(3)
C32 C 0.5400(7) 0.6288(6) 0.7219(3)
H21 H 0.5980 0.6374 0.6781
C33 C 0.5936(8) 0.6661(7) 0.7790(3)
H22 H 0.6870 0.6987 0.7732
C34 C 0.5085(6) 0.6553(6) 0.8452(3)
C35 C 0.3726(7) 0.6040(6) 0.8523(3)
H23 H 0.3148 0.5957 0.8962
C36 C 0.3194(7) 0.5642(6) 0.7962(3)
H24 H 0.2277 0.5272 0.8027
C37 C 0.7134(7) 0.7109(6) 0.8996(3)
C38 C 0.8034(8) 0.6015(7) 0.9002(4)
H25 H 0.7681 0.5141 0.8995
C39 C 0.9437(9) 0.6211(10) 0.9020(5)
H26 H 1.0024 0.5455 0.9059
C40 C 1.0008(9) 0.7477(10) 0.8982(4)
H27 H 1.0984 0.7597 0.8959
C41 C 0.9139(10) 0.8560(9) 0.8977(4)
H28 H 0.9507 0.9429 0.8981
C42 C 0.7724(9) 0.8382(7) 0.8968(3)
H29 H 0.7143 0.9144 0.8941
C43 C 0.4749(7) 0.7238(6) 0.9640(3)
C44 C 0.5104(8) 0.6754(6) 1.0287(3)
H30 H 0.5882 0.6185 1.0322
C45 C 0.4319(8) 0.7102(7) 1.0890(3)
H31 H 0.4570 0.6773 1.1330
C46 C 0.3196(8) 0.7912(8) 1.0845(4)
H32 H 0.2660 0.8149 1.1251
C47 C 0.2843(8) 0.8389(8) 1.0189(4)
H33 H 0.2058 0.8949 1.0160
C48 C 0.3597(9) 0.8072(7) 0.9582(3)
H34 H 0.3343 0.8407 0.9143
N1 N 0.0689(7) 0.4828(6) 0.2913(3)
N2 N 0.5410(7) 0.7734(6) 0.5469(3)
N3 N -0.3320(6) -0.0924(5) 0.2850(3)
N4 N 0.5653(5) 0.6921(5) 0.9022(2)
loop_
_geom_bond_atom_site_label_1
_geom_bond_atom_site_label_2
_geom_bond_site_symmetry_1
_geom_bond_site_symmetry_2
C1 H1 1_555 1_555
C2 C1 1_555 1_555
H2 C2 1_555 1_555
C3 C2 1_555 1_555
C4 C3 1_555 1_555
C5 C4 1_555 1_555
C6 C4 1_555 1_555
H3 C6 1_555 1_555
C7 C6 1_555 1_555
C8 C7 1_555 1_555
H4 C8 1_555 1_555
C9 C8 1_555 1_555
H5 C9 1_555 1_555
C10 C9 1_555 1_555
C11 C10 1_555 1_555
H6 C11 1_555 1_555
C12 C7 1_555 1_555
H7 C12 1_555 1_555
C13 C14 1_555 1_555
C14 H8 1_555 1_555
C15 C14 1_555 1_555
H9 C15 1_555 1_555
C16 C15 1_555 1_555
H10 C16 1_555 1_555
C17 C16 1_555 1_555
H11 C17 1_555 1_555
C18 C13 1_555 1_555
H12 C18 1_555 1_555
C19 C20 1_555 1_555
C20 H13 1_555 1_555
C21 C20 1_555 1_555
H14 C21 1_555 1_555
C22 C21 1_555 1_555
H15 C22 1_555 1_555
C23 C22 1_555 1_555
H16 C23 1_555 1_555
C24 C19 1_555 1_555
H17 C24 1_555 1_555
C25 C3 1_555 1_555
H18 C25 1_555 1_555
C26 C25 1_555 1_555
H19 C26 1_555 1_555
C27 C1 1_555 1_555
C28 C27 1_555 1_555
C29 C28 1_555 1_555
C30 C28 1_555 1_555
H20 C30 1_555 1_555
C31 C30 1_555 1_555
C32 C31 1_555 1_555
H21 C32 1_555 1_555
C33 C32 1_555 1_555
H22 C33 1_555 1_555
C34 C33 1_555 1_555
C35 C34 1_555 1_555
H23 C35 1_555 1_555
C36 C31 1_555 1_555
H24 C36 1_555 1_555
C37 C38 1_555 1_555
C38 H25 1_555 1_555
C39 C38 1_555 1_555
H26 C39 1_555 1_555
C40 C39 1_555 1_555
H27 C40 1_555 1_555
C41 C40 1_555 1_555
H28 C41 1_555 1_555
C42 C37 1_555 1_555
H29 C42 1_555 1_555
C43 C44 1_555 1_555
C44 H30 1_555 1_555
C45 C44 1_555 1_555
H31 C45 1_555 1_555
C46 C45 1_555 1_555
H32 C46 1_555 1_555
C47 C46 1_555 1_555
H33 C47 1_555 1_555
C48 C43 1_555 1_555
H34 C48 1_555 1_555
N1 C5 1_555 1_555
N2 C29 1_555 1_555
N3 C10 1_555 1_555
N4 C34 1_555 1_555
C11 C12 1_555 1_555
C13 N3 1_555 1_555
C17 C18 1_555 1_555
C19 N3 1_555 1_555
C23 C24 1_555 1_555
C26 C27 1_555 1_555
C35 C36 1_555 1_555
C37 N4 1_555 1_555
C41 C42 1_555 1_555
C43 N4 1_555 1_555
C47 C48 1_555 1_555

#END
