
#######################################################################
#
#                 Cambridge Crystallographic Data Centre
#                                CCDC 
#
#######################################################################
#
# If this CIF has been generated from an entry in the Cambridge 
# Structural Database, then it will include bibliographic, chemical, 
# crystal, experimental, refinement or atomic coordinate data resulting 
# from the CCDC's data processing and validation procedures.
#
#######################################################################

data_AREDAE
_chemical_formula_moiety         'C9 H8 Br1 N1 O1'
_chemical_name_systematic        3-bromo-1-methyl-1,3-dihydro-2H-indol-2-one
_symmetry_cell_setting           monoclinic
_symmetry_space_group_name_H-M   'P 21/c'
_symmetry_Int_Tables_number      14
_space_group_name_Hall           '-P 2ybc'
loop_
_symmetry_equiv_pos_site_id
_symmetry_equiv_pos_as_xyz
1 x,y,z
2 -x,1/2+y,1/2-z
3 -x,-y,-z
4 x,1/2-y,1/2+z
_cell_length_a                   12.9498(4)
_cell_length_b                   8.2018(3)
_cell_length_c                   16.5817(5)
_cell_angle_alpha                90
_cell_angle_beta                 97.327(3)
_cell_angle_gamma                90
_cell_volume                     1746.79
_exptl_crystal_colour            colorless
_exptl_crystal_description       block
_cell_formula_units_Z            8
loop_
_atom_site_label
_atom_site_type_symbol
_atom_site_fract_x
_atom_site_fract_y
_atom_site_fract_z
Br1 Br 0.32304(3) 0.45365(5) 0.15798(2)
O1 O 0.1024(2) 0.4579(3) 0.23548(14)
N1 N 0.0443(2) 0.3237(3) 0.11703(15)
C1 C 0.1062(3) 0.4299(4) 0.16405(19)
C2 C 0.1810(3) 0.5048(4) 0.1102(2)
H1 H 0.1710 0.6243 0.1063
C3 C 0.1502(2) 0.4267(4) 0.02938(18)
C4 C 0.1867(3) 0.4451(5) -0.0449(2)
H2 H 0.2422 0.5163 -0.0507
C5 C 0.1393(3) 0.3558(5) -0.1112(2)
H3 H 0.1628 0.3668 -0.1622
C6 C 0.0585(3) 0.2518(5) -0.1020(2)
H4 H 0.0279 0.1923 -0.1473
C7 C 0.0208(3) 0.2318(4) -0.02830(19)
H5 H -0.0348 0.1607 -0.0227
C8 C 0.0685(2) 0.3210(4) 0.03684(17)
C9 C -0.0355(3) 0.2249(5) 0.1480(2)
H6 H -0.0430 0.2586 0.2030
H7 H -0.0154 0.1110 0.1480
H8 H -0.1012 0.2394 0.1135
Br2 Br 0.23145(3) 0.94609(5) 0.18893(2)
O2 O 0.4762(2) 0.8573(4) 0.25011(14)
N2 N 0.4846(2) 0.7943(3) 0.11643(16)
C10 C 0.4457(3) 0.8721(4) 0.1781(2)
C11 C 0.3582(3) 0.9840(4) 0.1398(2)
H9 H 0.3798 1.0992 0.1480
C12 C 0.3490(3) 0.9434(4) 0.0512(2)
C13 C 0.2830(3) 0.9992(5) -0.0143(2)
H10 H 0.2298 1.0739 -0.0072
C14 C 0.2963(3) 0.9429(5) -0.0912(2)
H11 H 0.2517 0.9795 -0.1367
C15 C 0.3740(3) 0.8343(5) -0.1013(2)
H12 H 0.3817 0.7978 -0.1539
C16 C 0.4418(3) 0.7769(5) -0.0356(2)
H13 H 0.4951 0.7024 -0.0428
C17 C 0.4277(3) 0.8337(4) 0.04031(19)
C18 C 0.5724(3) 0.6827(5) 0.1284(3)
H14 H 0.6050 0.6892 0.1843
H15 H 0.6226 0.7121 0.0921
H16 H 0.5481 0.5723 0.1166
loop_
_geom_bond_atom_site_label_1
_geom_bond_atom_site_label_2
_geom_bond_site_symmetry_1
_geom_bond_site_symmetry_2
Br1 C2 1_555 1_555
O1 C1 1_555 1_555
N1 C1 1_555 1_555
C1 C2 1_555 1_555
C2 H1 1_555 1_555
C3 C2 1_555 1_555
C4 C3 1_555 1_555
H2 C4 1_555 1_555
C5 C4 1_555 1_555
H3 C5 1_555 1_555
C6 C5 1_555 1_555
H4 C6 1_555 1_555
C7 C6 1_555 1_555
H5 C7 1_555 1_555
C8 N1 1_555 1_555
C9 N1 1_555 1_555
H6 C9 1_555 1_555
H7 C9 1_555 1_555
H8 C9 1_555 1_555
Br2 C11 1_555 1_555
O2 C10 1_555 1_555
N2 C10 1_555 1_555
C10 C11 1_555 1_555
C11 H9 1_555 1_555
C12 C11 1_555 1_555
C13 C12 1_555 1_555
H10 C13 1_555 1_555
C14 C13 1_555 1_555
H11 C14 1_555 1_555
C15 C14 1_555 1_555
H12 C15 1_555 1_555
C16 C15 1_555 1_555
H13 C16 1_555 1_555
C17 N2 1_555 1_555
C18 N2 1_555 1_555
H14 C18 1_555 1_555
H15 C18 1_555 1_555
H16 C18 1_555 1_555
C3 C8 1_555 1_555
C7 C8 1_555 1_555
C12 C17 1_555 1_555
C16 C17 1_555 1_555

#END
