
#######################################################################
#
#                 Cambridge Crystallographic Data Centre
#                                CCDC 
#
#######################################################################
#
# If this CIF has been generated from an entry in the Cambridge 
# Structural Database, then it will include bibliographic, chemical, 
# crystal, experimental, refinement or atomic coordinate data resulting 
# from the CCDC's data processing and validation procedures.
#
#######################################################################

data_ARENES
_chemical_formula_moiety         'C32 H38 O2 Si2'
_chemical_name_systematic        
3,3'-bis(diethyl(vinyl)silyl)-1,1'-binaphthalene-2,2'-diol
_symmetry_cell_setting           monoclinic
_symmetry_space_group_name_H-M   'C 2/c'
_symmetry_Int_Tables_number      15
_space_group_name_Hall           '-C 2yn'
loop_
_symmetry_equiv_pos_site_id
_symmetry_equiv_pos_as_xyz
1 x,y,z
2 -x,y,1/2-z
3 1/2+x,1/2+y,z
4 1/2-x,1/2+y,1/2-z
5 -x,-y,-z
6 x,-y,1/2+z
7 1/2-x,1/2-y,-z
8 1/2+x,1/2-y,1/2+z
_cell_length_a                   26.3946(14)
_cell_length_b                   11.3169(6)
_cell_length_c                   21.4863(12)
_cell_angle_alpha                90
_cell_angle_beta                 115.3270(10)
_cell_angle_gamma                90
_cell_volume                     5801.17
_exptl_crystal_colour            colorless
_exptl_crystal_description       needle
_cell_formula_units_Z            8
loop_
_atom_site_label
_atom_site_type_symbol
_atom_site_fract_x
_atom_site_fract_y
_atom_site_fract_z
Si1 Si 0.63031(2) 0.22886(2) 0.67551(2)
O1 O 0.51618(3) 0.21746(7) 0.67629(4)
H1 H 0.4830 0.2078 0.6708
C1 C 0.60679(4) 0.13502(8) 0.73092(5)
C2 C 0.64322(4) 0.06008(8) 0.78041(5)
H2 H 0.6813 0.0582 0.7875
C3 C 0.62626(3) -0.01452(8) 0.82128(4)
C4 C 0.66483(4) -0.08919(9) 0.87260(5)
H3 H 0.7033 -0.0874 0.8814
C5 C 0.64738(4) -0.16415(9) 0.90990(5)
H4 H 0.6737 -0.2138 0.9442
C6 C 0.59029(4) -0.16716(9) 0.89706(5)
H5 H 0.5783 -0.2192 0.9229
C7 C 0.55169(4) -0.09552(9) 0.84753(5)
H6 H 0.5134 -0.0990 0.8393
C8 C 0.56873(3) -0.01644(8) 0.80869(4)
C9 C 0.53040(3) 0.06070(8) 0.75765(4)
C10 C 0.55013(4) 0.13592(8) 0.72250(5)
C11 C 0.70186(5) 0.17623(10) 0.68995(6)
H7 H 0.7279 0.1895 0.7388
H8 H 0.7002 0.0901 0.6813
C12 C 0.72529(6) 0.23722(14) 0.64449(9)
H9 H 0.7028 0.2153 0.5963
H10 H 0.7642 0.2125 0.6585
H11 H 0.7239 0.3231 0.6495
C13 C 0.63374(6) 0.38853(10) 0.70003(7)
H12 H 0.6019 0.4362 0.6747
C14 C 0.67738(8) 0.43994(15) 0.75014(10)
H13 H 0.7100 0.3951 0.7766
H14 H 0.6760 0.5216 0.7596
C15 C 0.58037(5) 0.21540(13) 0.58300(6)
H15 H 0.5459 0.2597 0.5753
H16 H 0.5973 0.2534 0.5549
C16 C 0.56416(10) 0.08953(17) 0.55748(8)
H17 H 0.5979 0.0447 0.5643
H18 H 0.5385 0.0907 0.5084
H19 H 0.5456 0.0520 0.5833
Si1A Si 0.36969(2) 0.22886(2) 0.82449(2)
O1A O 0.48382(3) 0.21746(7) 0.82371(4)
H1A H 0.5170 0.2078 0.8292
C1A C 0.39321(4) 0.13502(8) 0.76908(5)
C2A C 0.35678(4) 0.06008(8) 0.71959(5)
H2A H 0.3187 0.0582 0.7125
C3A C 0.37374(3) -0.01452(8) 0.67872(4)
C4A C 0.33517(4) -0.08919(9) 0.62740(5)
H3A H 0.2967 -0.0874 0.6186
C5A C 0.35262(4) -0.16415(9) 0.59010(5)
H4A H 0.3263 -0.2138 0.5558
C6A C 0.40971(4) -0.16716(9) 0.60294(5)
H5A H 0.4217 -0.2192 0.5771
C7A C 0.44831(4) -0.09552(9) 0.65247(5)
H6A H 0.4866 -0.0990 0.6607
C8A C 0.43127(3) -0.01644(8) 0.69131(4)
C9A C 0.46960(3) 0.06070(8) 0.74235(4)
C10A C 0.44987(4) 0.13592(8) 0.77750(5)
C11A C 0.29814(5) 0.17623(10) 0.81005(6)
H7A H 0.2721 0.1895 0.7612
H8A H 0.2998 0.0901 0.8187
C12A C 0.27471(6) 0.23722(14) 0.85551(9)
H9A H 0.2972 0.2153 0.9037
H10A H 0.2358 0.2125 0.8415
H11A H 0.2761 0.3231 0.8505
C13A C 0.36626(6) 0.38853(10) 0.79997(7)
H12A H 0.3981 0.4362 0.8253
C14A C 0.32262(8) 0.43994(15) 0.74986(10)
H13A H 0.2900 0.3951 0.7234
H14A H 0.3240 0.5216 0.7404
C15A C 0.41963(5) 0.21540(13) 0.91700(6)
H15A H 0.4541 0.2597 0.9247
H16A H 0.4027 0.2534 0.9451
C16A C 0.43584(10) 0.08953(17) 0.94252(8)
H17A H 0.4021 0.0447 0.9357
H18A H 0.4615 0.0907 0.9916
H19A H 0.4544 0.0520 0.9167
Si2 Si 0.37154(2) 0.37601(2) 0.53369(2)
O2 O 0.42526(4) 0.37755(7) 0.68938(4)
H20 H 0.4366 0.3836 0.7322
C17 C 0.43375(4) 0.46373(8) 0.59435(4)
C18 C 0.46238(4) 0.53863(9) 0.57002(4)
H21 H 0.4514 0.5427 0.5218
C19 C 0.50776(4) 0.60994(8) 0.61438(4)
C20 C 0.53690(4) 0.68545(9) 0.58804(5)
H22 H 0.5262 0.6879 0.5399
C21 C 0.58027(5) 0.75490(10) 0.63125(6)
H23 H 0.5996 0.8049 0.6131
C22 C 0.59615(5) 0.75182(10) 0.70303(6)
H24 H 0.6266 0.7990 0.7330
C23 C 0.56797(4) 0.68107(9) 0.73005(5)
H25 H 0.5787 0.6811 0.7783
C24 C 0.52307(4) 0.60823(8) 0.68648(4)
C25 C 0.49353(4) 0.53143(8) 0.71261(4)
C26 C 0.45200(4) 0.45920(8) 0.66709(5)
C27 C 0.34829(5) 0.44390(11) 0.44595(5)
H26 H 0.3400 0.5285 0.4487
H27 H 0.3796 0.4393 0.4322
C28 C 0.29731(5) 0.38597(13) 0.39092(6)
H28 H 0.3057 0.3031 0.3860
H29 H 0.2871 0.4272 0.3471
H30 H 0.2660 0.3900 0.4040
C29 C 0.39270(5) 0.21952(10) 0.53106(5)
H31 H 0.4275 0.2048 0.5294
C30 C 0.36199(7) 0.12899(11) 0.53138(9)
H32 H 0.3270 0.1413 0.5330
H33 H 0.3747 0.0509 0.5300
C31 C 0.31195(5) 0.38165(11) 0.55918(6)
H34 H 0.2794 0.3397 0.5240
H35 H 0.3231 0.3391 0.6033
C32 C 0.29397(6) 0.50737(14) 0.56718(8)
H36 H 0.3250 0.5476 0.6045
H37 H 0.2615 0.5039 0.5780
H38 H 0.2839 0.5510 0.5241
Si2A Si 0.62846(2) 0.37601(2) 0.96631(2)
O2A O 0.57474(4) 0.37755(7) 0.81062(4)
H20A H 0.5634 0.3836 0.7678
C17A C 0.56625(4) 0.46373(8) 0.90565(4)
C18A C 0.53762(4) 0.53863(9) 0.92998(4)
H21A H 0.5486 0.5427 0.9782
C19A C 0.49224(4) 0.60994(8) 0.88562(4)
C20A C 0.46310(4) 0.68545(9) 0.91196(5)
H22A H 0.4738 0.6879 0.9601
C21A C 0.41973(5) 0.75490(10) 0.86875(6)
H23A H 0.4004 0.8049 0.8869
C22A C 0.40385(5) 0.75182(10) 0.79697(6)
H24A H 0.3734 0.7990 0.7670
C23A C 0.43203(4) 0.68107(9) 0.76995(5)
H25A H 0.4213 0.6811 0.7217
C24A C 0.47693(4) 0.60823(8) 0.81352(4)
C25A C 0.50647(4) 0.53143(8) 0.78739(4)
C26A C 0.54800(4) 0.45920(8) 0.83291(5)
C27A C 0.65171(5) 0.44390(11) 1.05405(5)
H26A H 0.6600 0.5285 1.0513
H27A H 0.6204 0.4393 1.0678
C28A C 0.70269(5) 0.38597(13) 1.10908(6)
H28A H 0.6943 0.3031 1.1140
H29A H 0.7129 0.4272 1.1529
H30A H 0.7340 0.3900 1.0960
C29A C 0.60730(5) 0.21952(10) 0.96894(5)
H31A H 0.5725 0.2048 0.9706
C30A C 0.63801(7) 0.12899(11) 0.96862(9)
H32A H 0.6730 0.1413 0.9670
H33A H 0.6253 0.0509 0.9700
C31A C 0.68805(5) 0.38165(11) 0.94082(6)
H34A H 0.7206 0.3397 0.9760
H35A H 0.6769 0.3391 0.8967
C32A C 0.70603(6) 0.50737(14) 0.93282(8)
H36A H 0.6750 0.5476 0.8955
H37A H 0.7385 0.5039 0.9220
H38A H 0.7161 0.5510 0.9759
loop_
_geom_bond_atom_site_label_1
_geom_bond_atom_site_label_2
_geom_bond_site_symmetry_1
_geom_bond_site_symmetry_2
Si1 C1 1_555 1_555
O1 H1 1_555 1_555
C1 C2 1_555 1_555
C2 H2 1_555 1_555
C3 C2 1_555 1_555
C4 C3 1_555 1_555
H3 C4 1_555 1_555
C5 C4 1_555 1_555
H4 C5 1_555 1_555
C6 C5 1_555 1_555
H5 C6 1_555 1_555
C7 C6 1_555 1_555
H6 C7 1_555 1_555
C8 C3 1_555 1_555
C9 C8 1_555 1_555
C10 O1 1_555 1_555
C11 Si1 1_555 1_555
H7 C11 1_555 1_555
H8 C11 1_555 1_555
C12 C11 1_555 1_555
H9 C12 1_555 1_555
H10 C12 1_555 1_555
H11 C12 1_555 1_555
C13 Si1 1_555 1_555
H12 C13 1_555 1_555
C14 C13 1_555 1_555
H13 C14 1_555 1_555
H14 C14 1_555 1_555
C15 Si1 1_555 1_555
H15 C15 1_555 1_555
H16 C15 1_555 1_555
C16 C15 1_555 1_555
H17 C16 1_555 1_555
H18 C16 1_555 1_555
H19 C16 1_555 1_555
Si2 C17 1_555 1_555
O2 H20 1_555 1_555
C17 C18 1_555 1_555
C18 H21 1_555 1_555
C19 C18 1_555 1_555
C20 C19 1_555 1_555
H22 C20 1_555 1_555
C21 C20 1_555 1_555
H23 C21 1_555 1_555
C22 C21 1_555 1_555
H24 C22 1_555 1_555
C23 C22 1_555 1_555
H25 C23 1_555 1_555
C24 C19 1_555 1_555
C25 C24 1_555 1_555
C26 O2 1_555 1_555
C27 Si2 1_555 1_555
H26 C27 1_555 1_555
H27 C27 1_555 1_555
C28 C27 1_555 1_555
H28 C28 1_555 1_555
H29 C28 1_555 1_555
H30 C28 1_555 1_555
C29 Si2 1_555 1_555
H31 C29 1_555 1_555
C30 C29 1_555 1_555
H32 C30 1_555 1_555
H33 C30 1_555 1_555
C31 Si2 1_555 1_555
H34 C31 1_555 1_555
H35 C31 1_555 1_555
C32 C31 1_555 1_555
H36 C32 1_555 1_555
H37 C32 1_555 1_555
H38 C32 1_555 1_555
Si1A C1A 1_555 1_555
O1A H1A 1_555 1_555
C1A C2A 1_555 1_555
C2A H2A 1_555 1_555
C3A C2A 1_555 1_555
C4A C3A 1_555 1_555
H3A C4A 1_555 1_555
C5A C4A 1_555 1_555
H4A C5A 1_555 1_555
C6A C5A 1_555 1_555
H5A C6A 1_555 1_555
C7A C6A 1_555 1_555
H6A C7A 1_555 1_555
C8A C3A 1_555 1_555
C9A C9 1_555 1_555
C10A O1A 1_555 1_555
C11A Si1A 1_555 1_555
H7A C11A 1_555 1_555
H8A C11A 1_555 1_555
C12A C11A 1_555 1_555
H9A C12A 1_555 1_555
H10A C12A 1_555 1_555
H11A C12A 1_555 1_555
C13A Si1A 1_555 1_555
H12A C13A 1_555 1_555
C14A C13A 1_555 1_555
H13A C14A 1_555 1_555
H14A C14A 1_555 1_555
C15A Si1A 1_555 1_555
H15A C15A 1_555 1_555
H16A C15A 1_555 1_555
C16A C15A 1_555 1_555
H17A C16A 1_555 1_555
H18A C16A 1_555 1_555
H19A C16A 1_555 1_555
Si2A C17A 1_555 1_555
O2A H20A 1_555 1_555
C17A C18A 1_555 1_555
C18A H21A 1_555 1_555
C19A C18A 1_555 1_555
C20A C19A 1_555 1_555
H22A C20A 1_555 1_555
C21A C20A 1_555 1_555
H23A C21A 1_555 1_555
C22A C21A 1_555 1_555
H24A C22A 1_555 1_555
C23A C22A 1_555 1_555
H25A C23A 1_555 1_555
C24A C19A 1_555 1_555
C25A C25 1_555 1_555
C26A O2A 1_555 1_555
C27A Si2A 1_555 1_555
H26A C27A 1_555 1_555
H27A C27A 1_555 1_555
C28A C27A 1_555 1_555
H28A C28A 1_555 1_555
H29A C28A 1_555 1_555
H30A C28A 1_555 1_555
C29A Si2A 1_555 1_555
H31A C29A 1_555 1_555
C30A C29A 1_555 1_555
H32A C30A 1_555 1_555
H33A C30A 1_555 1_555
C31A Si2A 1_555 1_555
H34A C31A 1_555 1_555
H35A C31A 1_555 1_555
C32A C31A 1_555 1_555
H36A C32A 1_555 1_555
H37A C32A 1_555 1_555
H38A C32A 1_555 1_555
C1 C10 1_555 1_555
C7 C8 1_555 1_555
C9 C10 1_555 1_555
C17 C26 1_555 1_555
C23 C24 1_555 1_555
C25 C26 1_555 1_555
C1A C10A 1_555 1_555
C7A C8A 1_555 1_555
C8A C9A 1_555 1_555
C9A C10A 1_555 1_555
C17A C26A 1_555 1_555
C23A C24A 1_555 1_555
C24A C25A 1_555 1_555
C25A C26A 1_555 1_555

#END
