
#######################################################################
#
#                 Cambridge Crystallographic Data Centre
#                                CCDC 
#
#######################################################################
#
# If this CIF has been generated from an entry in the Cambridge 
# Structural Database, then it will include bibliographic, chemical, 
# crystal, experimental, refinement or atomic coordinate data resulting 
# from the CCDC's data processing and validation procedures.
#
#######################################################################

data_AREYIH
_chemical_formula_moiety         'C32 H32 B2 N4 Si1'
_chemical_name_systematic        
5-(diphenylsilyl)-1,6-dimethyl-5,10-diphenyl-1,5,6,10-tetrahydro-4,9,5,10-diimidazo[2,1-c:2',1'-f][1,4,2,5]diazadiborinine
_symmetry_cell_setting           monoclinic
_symmetry_space_group_name_H-M   'P 21/c'
_symmetry_Int_Tables_number      14
_space_group_name_Hall           '-P 2ybc'
loop_
_symmetry_equiv_pos_site_id
_symmetry_equiv_pos_as_xyz
1 x,y,z
2 -x,1/2+y,1/2-z
3 -x,-y,-z
4 x,1/2-y,1/2+z
_cell_length_a                   20.534(8)
_cell_length_b                   18.455(7)
_cell_length_c                   7.417(3)
_cell_angle_alpha                90
_cell_angle_beta                 94.979(9)
_cell_angle_gamma                90
_cell_volume                     2800.1
_exptl_crystal_colour            colorless
_exptl_crystal_description       plate
_cell_formula_units_Z            4
loop_
_atom_site_label
_atom_site_type_symbol
_atom_site_fract_x
_atom_site_fract_y
_atom_site_fract_z
B1 B 0.3284(2) 0.3802(3) 0.4291(7)
H1 H 0.3044(16) 0.3292(18) 0.330(5)
B2 B 0.2428(2) 0.5182(2) 0.5445(6)
C1 C 0.4038(2) 0.3649(2) 0.4998(6)
C2 C 0.4411(2) 0.4168(2) 0.5975(6)
H2 H 0.4221 0.4628 0.616
C3 C 0.5044(2) 0.4044(3) 0.6687(6)
H3 H 0.5278 0.4413 0.7359
C4 C 0.5336(2) 0.3388(2) 0.6426(6)
H4 H 0.5772 0.33 0.6916
C5 C 0.4990(2) 0.2858(3) 0.5444(6)
H5 H 0.5187 0.2402 0.5252
C6 C 0.4353(2) 0.2993(2) 0.4737(6)
H6 H 0.4124 0.2625 0.405
C7 C 0.31774(18) 0.4535(2) 0.3245(5)
C8 C 0.3885(2) 0.4274(2) 0.0734(6)
H7 H 0.3825 0.4382 -0.0564
H8 H 0.3783 0.3763 0.0935
H9 H 0.434 0.4371 0.1184
C9 C 0.3264(2) 0.5422(2) 0.1211(6)
H10 H 0.3388 0.5684 0.0192
C10 C 0.28788(19) 0.5653(2) 0.2439(5)
H11 H 0.2677 0.6116 0.2451
C11 C 0.25360(18) 0.4428(2) 0.6516(5)
C12 C 0.1843(2) 0.4631(2) 0.9092(6)
H12 H 0.1854 0.514 0.8717
H13 H 0.1988 0.4593 1.0383
H14 H 0.1395 0.4446 0.8882
C13 C 0.2441(2) 0.3502(2) 0.8407(6)
H15 H 0.2318 0.3224 0.94
C14 C 0.2805(2) 0.3272(2) 0.7136(6)
H16 H 0.2986 0.2801 0.7044
C15 C 0.27144(18) 0.5885(2) 0.6573(5)
C16 C 0.33753(18) 0.6064(2) 0.6574(5)
H17 H 0.3643 0.578 0.5865
C17 C 0.3660(2) 0.6639(2) 0.7566(5)
H18 H 0.4112 0.674 0.7535
C18 C 0.3277(2) 0.7063(2) 0.8604(6)
H19 H 0.3466 0.7455 0.9297
C19 C 0.2623(2) 0.6911(2) 0.8619(6)
H20 H 0.2357 0.7199 0.9324
C20 C 0.2350(2) 0.6340(2) 0.7610(5)
H21 H 0.1894 0.6253 0.7621
C21 C 0.11660(18) 0.5793(2) 0.2660(5)
C22 C 0.13552(19) 0.6528(2) 0.2624(5)
H22 H 0.163 0.6717 0.3608
C23 C 0.11530(19) 0.6978(2) 0.1201(6)
H23 H 0.1292 0.7469 0.121
C24 C 0.07499(19) 0.6717(2) -0.0234(6)
H24 H 0.0609 0.7027 -0.1213
C25 C 0.05519(19) 0.6000(2) -0.0240(6)
H25 H 0.0277 0.5816 -0.123
C26 C 0.07557(18) 0.5549(2) 0.1202(5)
H26 H 0.061 0.5061 0.1188
C27 C 0.10849(18) 0.4285(2) 0.4366(5)
C28 C 0.14004(19) 0.3745(2) 0.3431(5)
H27 H 0.1801 0.3857 0.2941
C29 C 0.11434(19) 0.3052(2) 0.3202(5)
H28 H 0.1362 0.2703 0.2532
C30 C 0.05725(19) 0.2868(2) 0.3942(6)
H29 H 0.0399 0.2393 0.3795
C31 C 0.0254(2) 0.3384(2) 0.4901(6)
H30 H -0.0139 0.3261 0.5418
C32 C 0.05054(18) 0.4079(2) 0.5110(5)
H31 H 0.0281 0.4425 0.5774
N1 N 0.34480(15) 0.47332(19) 0.1701(4)
N2 N 0.28180(14) 0.51072(16) 0.3704(4)
N3 N 0.22722(16) 0.42093(18) 0.8052(4)
N4 N 0.28702(16) 0.38488(17) 0.5962(4)
Si1 Si 0.14294(5) 0.52205(6) 0.46990(15)
H32 H 0.1054(15) 0.5548(15) 0.609(4)
loop_
_geom_bond_atom_site_label_1
_geom_bond_atom_site_label_2
_geom_bond_site_symmetry_1
_geom_bond_site_symmetry_2
B1 H1 1_555 1_555
B2 C11 1_555 1_555
C1 B1 1_555 1_555
C2 C1 1_555 1_555
H2 C2 1_555 1_555
C3 C2 1_555 1_555
H3 C3 1_555 1_555
C4 C3 1_555 1_555
H4 C4 1_555 1_555
C5 C4 1_555 1_555
H5 C5 1_555 1_555
C6 C1 1_555 1_555
H6 C6 1_555 1_555
C7 B1 1_555 1_555
C8 H7 1_555 1_555
H8 C8 1_555 1_555
H9 C8 1_555 1_555
C9 H10 1_555 1_555
C10 C9 1_555 1_555
H11 C10 1_555 1_555
C11 N3 1_555 1_555
C12 H12 1_555 1_555
H13 C12 1_555 1_555
H14 C12 1_555 1_555
C13 H15 1_555 1_555
C14 C13 1_555 1_555
H16 C14 1_555 1_555
C15 B2 1_555 1_555
C16 C15 1_555 1_555
H17 C16 1_555 1_555
C17 C16 1_555 1_555
H18 C17 1_555 1_555
C18 C17 1_555 1_555
H19 C18 1_555 1_555
C19 C18 1_555 1_555
H20 C19 1_555 1_555
C20 C15 1_555 1_555
H21 C20 1_555 1_555
C21 C22 1_555 1_555
C22 H22 1_555 1_555
C23 C22 1_555 1_555
H23 C23 1_555 1_555
C24 C23 1_555 1_555
H24 C24 1_555 1_555
C25 C24 1_555 1_555
H25 C25 1_555 1_555
C26 C21 1_555 1_555
H26 C26 1_555 1_555
C27 C28 1_555 1_555
C28 H27 1_555 1_555
C29 C28 1_555 1_555
H28 C29 1_555 1_555
C30 C29 1_555 1_555
H29 C30 1_555 1_555
C31 C30 1_555 1_555
H30 C31 1_555 1_555
C32 C27 1_555 1_555
H31 C32 1_555 1_555
N1 C7 1_555 1_555
N2 B2 1_555 1_555
N3 C12 1_555 1_555
N4 B1 1_555 1_555
Si1 B2 1_555 1_555
H32 Si1 1_555 1_555
C5 C6 1_555 1_555
C7 N2 1_555 1_555
C8 N1 1_555 1_555
C9 N1 1_555 1_555
C10 N2 1_555 1_555
C11 N4 1_555 1_555
C13 N3 1_555 1_555
C14 N4 1_555 1_555
C19 C20 1_555 1_555
C21 Si1 1_555 1_555
C25 C26 1_555 1_555
C27 Si1 1_555 1_555
C31 C32 1_555 1_555

#END
