
#######################################################################
#
#                 Cambridge Crystallographic Data Centre
#                                CCDC 
#
#######################################################################
#
# If this CIF has been generated from an entry in the Cambridge 
# Structural Database, then it will include bibliographic, chemical, 
# crystal, experimental, refinement or atomic coordinate data resulting 
# from the CCDC's data processing and validation procedures.
#
#######################################################################

data_AREZOO
_chemical_formula_moiety         'C27 H24 B2 Cl1 N5,C4 H8 O1'
_chemical_name_systematic        
'14-(4-chlorophenyl)-5,11-dimethyl-1,7-diphenyl-2,5,8,11,13-pentaaza-1,7-diboratetracyclo[5.5.2.0^2,6^.0^8,12^]tetradeca-2(6),3,8(12),9,13-pentaene tetrahydrofuran solvate'
_symmetry_cell_setting           monoclinic
_symmetry_space_group_name_H-M   'P 21/c'
_symmetry_Int_Tables_number      14
_space_group_name_Hall           '-P 2ybc'
loop_
_symmetry_equiv_pos_site_id
_symmetry_equiv_pos_as_xyz
1 x,y,z
2 -x,1/2+y,1/2-z
3 -x,-y,-z
4 x,1/2-y,1/2+z
_cell_length_a                   7.5717(11)
_cell_length_b                   13.808(2)
_cell_length_c                   27.350(4)
_cell_angle_alpha                90
_cell_angle_beta                 96.647(5)
_cell_angle_gamma                90
_cell_volume                     2840.22
_exptl_crystal_colour            colorless
_exptl_crystal_description       plate
_cell_formula_units_Z            4
loop_
_atom_site_label
_atom_site_type_symbol
_atom_site_fract_x
_atom_site_fract_y
_atom_site_fract_z
B1 B -0.0771(5) 0.5063(3) 0.21601(15)
B2 B 0.0457(5) 0.5348(3) 0.31360(16)
C1 C -0.1843(4) 0.4893(3) 0.16287(13)
C2 C -0.2104(4) 0.5610(3) 0.12616(14)
H1 H -0.1504 0.6212 0.1312
C3 C -0.3221(5) 0.5458(3) 0.08254(15)
H2 H -0.3346 0.5949 0.0581
C4 C -0.4151(5) 0.4597(3) 0.07457(15)
H3 H -0.491 0.4497 0.0449
C5 C -0.3960(5) 0.3888(3) 0.11031(15)
H4 H -0.4608 0.33 0.1057
C6 C -0.2820(5) 0.4038(3) 0.15298(14)
H5 H -0.2692 0.3535 0.1768
C7 C -0.4041(4) 0.5432(3) 0.24437(14)
H6 H -0.4769 0.5379 0.2138
C8 C -0.4579(4) 0.5686(3) 0.28737(14)
H7 H -0.5758 0.5852 0.2929
C9 C -0.1678(4) 0.5404(2) 0.30027(13)
C10 C -0.3144(5) 0.5877(3) 0.37472(14)
H8 H -0.3733 0.5347 0.3903
H9 H -0.3794 0.6482 0.3783
H10 H -0.1922 0.5945 0.3906
C11 C 0.0399(4) 0.4188(2) 0.24294(13)
C12 C 0.2312(4) 0.3025(3) 0.26906(14)
H11 H 0.3048 0.2467 0.2695
C13 C 0.2102(4) 0.3593(3) 0.30782(14)
H12 H 0.2666 0.3514 0.3405
C14 C 0.1247(5) 0.3023(3) 0.17893(13)
H13 H 0.054 0.2428 0.1755
H14 H 0.2464 0.2885 0.1721
H15 H 0.0716 0.3509 0.1556
C15 C 0.1244(4) 0.5450(3) 0.36990(13)
C16 C 0.0947(5) 0.4750(3) 0.40502(14)
H16 H 0.0282 0.4187 0.3948
C17 C 0.1596(6) 0.4855(3) 0.45432(16)
H17 H 0.1367 0.4366 0.4772
C18 C 0.2566(6) 0.5660(3) 0.47037(16)
H18 H 0.3019 0.5728 0.5041
C19 C 0.2872(5) 0.6367(3) 0.43673(14)
H19 H 0.3526 0.693 0.4474
C20 C 0.2233(4) 0.6262(3) 0.38752(14)
H20 H 0.2471 0.6755 0.365
C21 C 0.0695(4) 0.5952(2) 0.23214(13)
C22 C 0.1633(4) 0.6507(2) 0.19561(13)
C23 C 0.2057(4) 0.6060(3) 0.15285(13)
H21 H 0.17 0.5409 0.1463
C24 C 0.2991(5) 0.6545(3) 0.11956(13)
H22 H 0.3296 0.6227 0.0909
C25 C 0.3469(4) 0.7499(3) 0.12889(14)
C26 C 0.3101(4) 0.7964(3) 0.17148(14)
H23 H 0.3468 0.8614 0.1779
C27 C 0.2194(4) 0.7464(3) 0.20434(14)
H24 H 0.1943 0.7777 0.2337
Cl1 Cl 0.46081(13) 0.81202(8) 0.08627(4)
N1 N -0.2233(4) 0.5263(2) 0.25248(11)
N2 N -0.3117(4) 0.5662(2) 0.32230(11)
N3 N 0.0908(3) 0.4317(2) 0.29132(11)
N4 N 0.1278(4) 0.3391(2) 0.22873(11)
N5 N 0.1182(3) 0.60980(19) 0.27790(11)
C28 C 0.9483(8) 0.8692(4) 0.44963(19)
H25 H 0.914 0.9375 0.4429
H26 H 1.0313 0.8493 0.426
C29 C 1.0373(7) 0.8596(4) 0.50123(17)
H27 H 1.0108 0.9161 0.5215
H28 H 1.1678 0.8535 0.5017
C30 C 0.9577(6) 0.7681(3) 0.51953(16)
H29 H 1.0449 0.7144 0.5218
H30 H 0.9166 0.7783 0.5522
C31 C 0.8054(8) 0.7476(4) 0.48153(19)
H31 H 0.8167 0.6811 0.4687
H32 H 0.693 0.7512 0.4967
O1 O 0.7998(5) 0.8114(3) 0.44400(14)
loop_
_geom_bond_atom_site_label_1
_geom_bond_atom_site_label_2
_geom_bond_site_symmetry_1
_geom_bond_site_symmetry_2
B1 C1 1_555 1_555
B2 C9 1_555 1_555
C1 C2 1_555 1_555
C2 H1 1_555 1_555
C3 C2 1_555 1_555
H2 C3 1_555 1_555
C4 C3 1_555 1_555
H3 C4 1_555 1_555
C5 C4 1_555 1_555
H4 C5 1_555 1_555
C6 C1 1_555 1_555
H5 C6 1_555 1_555
C7 H6 1_555 1_555
C8 C7 1_555 1_555
H7 C8 1_555 1_555
C9 N1 1_555 1_555
C10 H8 1_555 1_555
H9 C10 1_555 1_555
H10 C10 1_555 1_555
C11 B1 1_555 1_555
C12 H11 1_555 1_555
C13 C12 1_555 1_555
H12 C13 1_555 1_555
C14 H13 1_555 1_555
H14 C14 1_555 1_555
H15 C14 1_555 1_555
C15 B2 1_555 1_555
C16 C15 1_555 1_555
H16 C16 1_555 1_555
C17 C16 1_555 1_555
H17 C17 1_555 1_555
C18 C17 1_555 1_555
H18 C18 1_555 1_555
C19 C18 1_555 1_555
H19 C19 1_555 1_555
C20 C15 1_555 1_555
H20 C20 1_555 1_555
C21 B1 1_555 1_555
C22 C21 1_555 1_555
C23 C22 1_555 1_555
H21 C23 1_555 1_555
C24 C23 1_555 1_555
H22 C24 1_555 1_555
C25 C24 1_555 1_555
C26 C25 1_555 1_555
H23 C26 1_555 1_555
C27 C22 1_555 1_555
H24 C27 1_555 1_555
Cl1 C25 1_555 1_555
N1 B1 1_555 1_555
N2 C8 1_555 1_555
N3 B2 1_555 1_555
N4 C11 1_555 1_555
N5 B2 1_555 1_555
C28 H25 1_555 1_555
H26 C28 1_555 1_555
C29 C28 1_555 1_555
H27 C29 1_555 1_555
H28 C29 1_555 1_555
C30 C29 1_555 1_555
H29 C30 1_555 1_555
H30 C30 1_555 1_555
C31 C30 1_555 1_555
H31 C31 1_555 1_555
H32 C31 1_555 1_555
O1 C28 1_555 1_555
C5 C6 1_555 1_555
C7 N1 1_555 1_555
C9 N2 1_555 1_555
C10 N2 1_555 1_555
C11 N3 1_555 1_555
C12 N4 1_555 1_555
C13 N3 1_555 1_555
C14 N4 1_555 1_555
C19 C20 1_555 1_555
C21 N5 1_555 1_555
C26 C27 1_555 1_555
C31 O1 1_555 1_555

#END
