
#######################################################################
#
#                 Cambridge Crystallographic Data Centre
#                                CCDC 
#
#######################################################################
#
# If this CIF has been generated from an entry in the Cambridge 
# Structural Database, then it will include bibliographic, chemical, 
# crystal, experimental, refinement or atomic coordinate data resulting 
# from the CCDC's data processing and validation procedures.
#
#######################################################################

data_AREZAA
_chemical_formula_moiety         'C28 H28 B2 N4'
_chemical_name_systematic        
5,11-dimethyl-1,7,13-triphenyl-2,5,8,11-tetraaza-1,7-diboratetracyclo[5.5.2.0^2,6^.0^8,12^]tetradeca-2(6),3,8(12),9-tetraene
_symmetry_cell_setting           monoclinic
_symmetry_space_group_name_H-M   'P 21/n'
_symmetry_Int_Tables_number      14
_space_group_name_Hall           '-P 2yn'
loop_
_symmetry_equiv_pos_site_id
_symmetry_equiv_pos_as_xyz
1 x,y,z
2 1/2-x,1/2+y,1/2-z
3 -x,-y,-z
4 1/2+x,1/2-y,1/2+z
_cell_length_a                   8.2613(14)
_cell_length_b                   23.616(4)
_cell_length_c                   12.724(3)
_cell_angle_alpha                90
_cell_angle_beta                 106.778(5)
_cell_angle_gamma                90
_cell_volume                     2376.76
_exptl_crystal_colour            colorless
_exptl_crystal_description       block
_cell_formula_units_Z            4
loop_
_atom_site_label
_atom_site_type_symbol
_atom_site_fract_x
_atom_site_fract_y
_atom_site_fract_z
B1 B 0.6476(4) 0.59532(13) 0.5576(3)
B2 B 0.4101(4) 0.65698(14) 0.3954(3)
C1 C 0.7897(3) 0.56575(11) 0.6556(2)
C2 C 0.8606(3) 0.51363(12) 0.6414(2)
H1 H 0.8258 0.496 0.5714
C3 C 0.9801(3) 0.48681(13) 0.7262(3)
H2 H 1.0255 0.4513 0.7137
C4 C 1.0330(3) 0.51156(14) 0.8285(3)
H3 H 1.1146 0.4932 0.8867
C5 C 0.9663(4) 0.56357(13) 0.8459(3)
H4 H 1.002 0.5811 0.9161
C6 C 0.8472(3) 0.58966(12) 0.7603(2)
H5 H 0.8028 0.6253 0.7732
C7 C 0.4624(3) 0.60349(11) 0.5747(2)
C8 C 0.4425(3) 0.54964(12) 0.7406(2)
H6 H 0.5459 0.5303 0.7372
H7 H 0.3583 0.5215 0.7462
H8 H 0.4683 0.5745 0.805
C9 C 0.2089(3) 0.59995(12) 0.6040(2)
H9 H 0.1213 0.5912 0.636
C10 C 0.1940(3) 0.63107(12) 0.5128(2)
H10 H 0.0935 0.6483 0.4686
C11 C 0.5894(3) 0.68717(11) 0.4553(2)
C12 C 0.6068(4) 0.77798(14) 0.3558(3)
H11 H 0.4918 0.768 0.3122
H12 H 0.6806 0.7798 0.3078
H13 H 0.6054 0.8149 0.3906
C13 C 0.8300(3) 0.73589(12) 0.5129(2)
H14 H 0.9125 0.7648 0.5201
C14 C 0.8470(3) 0.68821(12) 0.5715(2)
H15 H 0.9448 0.6769 0.6277
C15 C 0.6045(3) 0.56563(11) 0.4365(2)
H16 H 0.7093 0.5641 0.4137
H17 H 0.5673 0.5262 0.4422
C16 C 0.4644(3) 0.59701(12) 0.3450(2)
H18 H 0.3622 0.5721 0.3283
C17 C 0.5119(3) 0.60187(12) 0.2396(2)
C18 C 0.4127(4) 0.57668(13) 0.1423(2)
H19 H 0.3109 0.5579 0.1422
C19 C 0.4603(4) 0.57860(15) 0.0461(3)
H20 H 0.3921 0.5609 -0.0186
C20 C 0.6058(4) 0.60610(14) 0.0449(3)
H21 H 0.6384 0.6073 -0.0208
C21 C 0.7045(4) 0.63184(14) 0.1379(3)
H22 H 0.8049 0.651 0.1363
C22 C 0.6580(4) 0.62995(12) 0.2346(3)
H23 H 0.7271 0.6481 0.2984
C23 C 0.2626(3) 0.69680(12) 0.3229(2)
C24 C 0.1816(3) 0.68873(13) 0.2124(2)
H24 H 0.2171 0.6586 0.1749
C25 C 0.0500(4) 0.72335(15) 0.1547(3)
H25 H -0.0017 0.7166 0.0788
C26 C -0.0064(4) 0.76721(14) 0.2056(3)
H26 H -0.0978 0.7903 0.1659
C27 C 0.0711(3) 0.77711(13) 0.3147(3)
H27 H 0.0346 0.8075 0.3512
C28 C 0.2036(3) 0.74247(12) 0.3718(3)
H28 H 0.2564 0.7501 0.4473
N1 N 0.3515(3) 0.63323(9) 0.49559(18)
N2 N 0.3759(3) 0.58317(9) 0.64200(18)
N3 N 0.6700(3) 0.73520(10) 0.4399(2)
N4 N 0.6981(3) 0.65829(9) 0.53629(18)
loop_
_geom_bond_atom_site_label_1
_geom_bond_atom_site_label_2
_geom_bond_site_symmetry_1
_geom_bond_site_symmetry_2
B1 C1 1_555 1_555
B2 C11 1_555 1_555
C1 C2 1_555 1_555
C2 H1 1_555 1_555
C3 C2 1_555 1_555
H2 C3 1_555 1_555
C4 C3 1_555 1_555
H3 C4 1_555 1_555
C5 C4 1_555 1_555
H4 C5 1_555 1_555
C6 C1 1_555 1_555
H5 C6 1_555 1_555
C7 B1 1_555 1_555
C8 H6 1_555 1_555
H7 C8 1_555 1_555
H8 C8 1_555 1_555
C9 H9 1_555 1_555
C10 C9 1_555 1_555
H10 C10 1_555 1_555
C11 N3 1_555 1_555
C12 H11 1_555 1_555
H12 C12 1_555 1_555
H13 C12 1_555 1_555
C13 H14 1_555 1_555
C14 C13 1_555 1_555
H15 C14 1_555 1_555
C15 B1 1_555 1_555
H16 C15 1_555 1_555
H17 C15 1_555 1_555
C16 B2 1_555 1_555
H18 C16 1_555 1_555
C17 C16 1_555 1_555
C18 C17 1_555 1_555
H19 C18 1_555 1_555
C19 C18 1_555 1_555
H20 C19 1_555 1_555
C20 C19 1_555 1_555
H21 C20 1_555 1_555
C21 C20 1_555 1_555
H22 C21 1_555 1_555
C22 C17 1_555 1_555
H23 C22 1_555 1_555
C23 B2 1_555 1_555
C24 C23 1_555 1_555
H24 C24 1_555 1_555
C25 C24 1_555 1_555
H25 C25 1_555 1_555
C26 C25 1_555 1_555
H26 C26 1_555 1_555
C27 C26 1_555 1_555
H27 C27 1_555 1_555
C28 C23 1_555 1_555
H28 C28 1_555 1_555
N1 B2 1_555 1_555
N2 C7 1_555 1_555
N3 C12 1_555 1_555
N4 B1 1_555 1_555
C5 C6 1_555 1_555
C7 N1 1_555 1_555
C8 N2 1_555 1_555
C9 N2 1_555 1_555
C10 N1 1_555 1_555
C11 N4 1_555 1_555
C13 N3 1_555 1_555
C14 N4 1_555 1_555
C15 C16 1_555 1_555
C21 C22 1_555 1_555
C27 C28 1_555 1_555

#END
