
#######################################################################
#
#                 Cambridge Crystallographic Data Centre
#                                CCDC 
#
#######################################################################
#
# If this CIF has been generated from an entry in the Cambridge 
# Structural Database, then it will include bibliographic, chemical, 
# crystal, experimental, refinement or atomic coordinate data resulting 
# from the CCDC's data processing and validation procedures.
#
#######################################################################

data_ARFUAD
_chemical_name_common            'Vidarabine hydrochloride'
_chemical_formula_moiety         'C10 H14 N5 O4 1+,Cl1 1-'
_chemical_name_systematic        '9-\b-D-Arabinofuranosyl-adenine hydrochloride'
_chemical_properties_biological  'derivative of antiviral agent'
_symmetry_cell_setting           monoclinic
_symmetry_space_group_name_H-M   'P 21'
_symmetry_Int_Tables_number      4
_space_group_name_Hall           'P 2yb'
loop_
_symmetry_equiv_pos_site_id
_symmetry_equiv_pos_as_xyz
1 x,y,z
2 -x,1/2+y,-z
_cell_length_a                   6.475(3)
_cell_length_b                   15.587(3)
_cell_length_c                   7.510(3)
_cell_angle_alpha                90
_cell_angle_beta                 121.62(2)
_cell_angle_gamma                90
_cell_volume                     645.43
_cell_formula_units_Z            2
loop_
_atom_site_label
_atom_site_type_symbol
_atom_site_fract_x
_atom_site_fract_y
_atom_site_fract_z
Cl1 Cl 0.47860 0.00000 -0.01490
C1 C -0.03130 0.23860 -0.49410
C2 C -0.54570 0.39590 -0.43990
C3 C -0.03030 0.15330 -0.39320
C4 C -0.01820 0.08890 -0.53900
C5 C -0.42390 0.31680 -0.61120
C6 C 0.15460 0.13270 -0.58810
C7 C -0.63850 0.32530 -0.80010
C8 C 0.13410 0.10600 -0.79000
C9 C -0.82250 0.37430 -0.80510
C10 C -0.41350 0.24830 -0.86100
H1 H -0.86700 0.44200 -0.61200
H2 H 0.06500 0.28200 -0.37400
H3 H -0.57300 0.41700 -0.32500
H4 H 0.13900 0.16100 -0.25100
H5 H -0.14100 0.13200 -0.20500
H6 H 0.21300 -0.00100 -0.32000
H7 H -0.19600 0.08300 -0.66300
H8 H 0.33700 0.11200 -0.46300
H9 H 0.19900 0.05100 -0.77700
H10 H 0.21400 0.14900 -0.80900
H11 H -0.18300 0.06300 -0.96800
H12 H -1.16300 0.42300 -0.96200
H13 H -1.08400 0.36200 -1.11100
H14 H -0.37100 0.21600 -0.94500
N1 N -0.76130 0.40810 -0.61810
N2 N -0.36660 0.35040 -0.42400
N3 N -1.04120 0.38780 -0.97330
N4 N -0.63180 0.28230 -0.95750
N5 N -0.27780 0.26820 -0.65100
O1 O 0.09650 0.22380 -0.59700
O2 O -0.23650 0.14120 -0.37650
O3 O 0.06060 0.00500 -0.45480
O4 O -0.10600 0.11500 -0.97160
loop_
_geom_bond_atom_site_label_1
_geom_bond_atom_site_label_2
_geom_bond_site_symmetry_1
_geom_bond_site_symmetry_2
C1 C3 1_555 1_555
C2 H3 1_555 1_555
C3 C4 1_555 1_555
C4 C6 1_555 1_555
C5 C7 1_555 1_555
C6 C8 1_555 1_555
C7 C9 1_555 1_555
C8 H9 1_555 1_555
C9 N1 1_555 1_555
C10 H14 1_555 1_555
H1 N1 1_555 1_555
H2 C1 1_555 1_555
H4 C3 1_555 1_555
H5 O2 1_555 1_555
H6 O3 1_555 1_555
H7 C4 1_555 1_555
H8 C6 1_555 1_555
H10 C8 1_555 1_555
H11 O4 1_555 1_555
H12 N3 1_555 1_555
H13 N3 1_555 1_555
N1 C2 1_555 1_555
N2 C2 1_555 1_555
N3 C9 1_555 1_555
N4 C7 1_555 1_555
N5 C1 1_555 1_555
O1 C1 1_555 1_555
O2 C3 1_555 1_555
O3 C4 1_555 1_555
O4 C8 1_555 1_555
C5 N2 1_555 1_555
C5 N5 1_555 1_555
C6 O1 1_555 1_555
C10 N4 1_555 1_555
C10 N5 1_555 1_555

#END
