
#######################################################################
#
#                 Cambridge Crystallographic Data Centre
#                                CCDC 
#
#######################################################################
#
# If this CIF has been generated from an entry in the Cambridge 
# Structural Database, then it will include bibliographic, chemical, 
# crystal, experimental, refinement or atomic coordinate data resulting 
# from the CCDC's data processing and validation procedures.
#
#######################################################################

data_ARICEL
_chemical_formula_moiety         'C26 H28 O2'
_chemical_name_systematic        
5-benzoyl-3-butyl-4-methyl-6-phenyl-4,5,6,6a-tetrahydropentalen-2(1H)-one
_symmetry_cell_setting           monoclinic
_symmetry_space_group_name_H-M   'P 21/c'
_symmetry_Int_Tables_number      14
_space_group_name_Hall           '-P 2ybc'
loop_
_symmetry_equiv_pos_site_id
_symmetry_equiv_pos_as_xyz
1 x,y,z
2 -x,1/2+y,1/2-z
3 -x,-y,-z
4 x,1/2-y,1/2+z
_cell_length_a                   12.7892(10)
_cell_length_b                   7.8407(6)
_cell_length_c                   20.1647(16)
_cell_angle_alpha                90
_cell_angle_beta                 98.8890(10)
_cell_angle_gamma                90
_cell_volume                     1997.76
_exptl_crystal_colour            colorless
_exptl_crystal_description       block
_cell_formula_units_Z            4
loop_
_atom_site_label
_atom_site_type_symbol
_atom_site_fract_x
_atom_site_fract_y
_atom_site_fract_z
O1 O -0.33246(6) 0.28244(11) 0.10070(5)
O2 O 0.13060(6) 0.12213(12) 0.25532(4)
C1 C -0.23871(8) 0.24705(14) 0.11228(5)
C2 C -0.14768(8) 0.37435(14) 0.11491(6)
H1 H -0.1401 0.4146 0.0694
H2 H -0.1587 0.4739 0.1432
C3 C -0.05121(8) 0.27153(13) 0.14587(5)
H3 H -0.0319 0.3015 0.1944
C4 C 0.04831(8) 0.26734(13) 0.11259(5)
H4 H 0.0242 0.2575 0.0631
C5 C 0.09974(8) 0.09104(13) 0.13675(5)
H5 H 0.1419 0.0462 0.1027
C6 C 0.00423(8) -0.03036(13) 0.14176(5)
H6 H 0.0159 -0.0908 0.1860
C7 C -0.08802(8) 0.08928(13) 0.13911(5)
C8 C -0.19356(8) 0.07361(14) 0.12316(5)
C9 C -0.26231(8) -0.08174(14) 0.11370(5)
H7 H -0.3248 -0.0638 0.1364
H8 H -0.2224 -0.1803 0.1354
C10 C -0.29993(9) -0.12370(15) 0.03968(5)
H9 H -0.3413 -0.0261 0.0183
H10 H -0.2374 -0.1386 0.0168
C11 C -0.36794(9) -0.28439(15) 0.02946(6)
H11 H -0.3781 -0.3155 -0.0187
H12 H -0.3294 -0.3791 0.0549
C12 C -0.47565(10) -0.26579(19) 0.05143(7)
H13 H -0.5162 -0.1772 0.0245
H14 H -0.4665 -0.2338 0.0990
H15 H -0.5138 -0.3744 0.0450
C13 C -0.01138(9) -0.16123(14) 0.08475(6)
H16 H -0.0694 -0.2385 0.0909
H17 H 0.0539 -0.2270 0.0852
H18 H -0.0286 -0.1020 0.0417
C14 C 0.17051(8) 0.10912(13) 0.20436(5)
C15 C 0.28774(8) 0.10647(13) 0.20767(5)
C16 C 0.33713(9) 0.14016(15) 0.15214(6)
H19 H 0.2956 0.1688 0.1104
C17 C 0.44664(9) 0.13219(17) 0.15739(7)
H20 H 0.4801 0.1579 0.1197
C18 C 0.50660(9) 0.08665(18) 0.21768(7)
H21 H 0.5814 0.0794 0.2211
C19 C 0.45856(9) 0.05154(18) 0.27310(6)
H22 H 0.5003 0.0191 0.3143
C20 C 0.34976(9) 0.06363(15) 0.26855(6)
H23 H 0.3171 0.0427 0.3070
C21 C 0.12211(8) 0.41870(13) 0.12314(5)
C22 C 0.17652(8) 0.46794(14) 0.07160(5)
H24 H 0.1629 0.4106 0.0296
C23 C 0.25045(9) 0.59932(14) 0.08026(6)
H25 H 0.2871 0.6306 0.0445
C24 C 0.27049(9) 0.68441(15) 0.14108(6)
H26 H 0.3218 0.7729 0.1476
C25 C 0.21524(9) 0.63951(15) 0.19232(6)
H27 H 0.2278 0.6991 0.2338
C26 C 0.14157(9) 0.50803(14) 0.18355(5)
H28 H 0.1041 0.4787 0.2191
loop_
_geom_bond_atom_site_label_1
_geom_bond_atom_site_label_2
_geom_bond_site_symmetry_1
_geom_bond_site_symmetry_2
O1 C1 1_555 1_555
O2 C14 1_555 1_555
C1 C2 1_555 1_555
C2 H1 1_555 1_555
H2 C2 1_555 1_555
C3 C2 1_555 1_555
H3 C3 1_555 1_555
C4 C3 1_555 1_555
H4 C4 1_555 1_555
C5 C4 1_555 1_555
H5 C5 1_555 1_555
C6 C5 1_555 1_555
H6 C6 1_555 1_555
C7 C3 1_555 1_555
C8 C1 1_555 1_555
C9 C8 1_555 1_555
H7 C9 1_555 1_555
H8 C9 1_555 1_555
C10 C9 1_555 1_555
H9 C10 1_555 1_555
H10 C10 1_555 1_555
C11 C10 1_555 1_555
H11 C11 1_555 1_555
H12 C11 1_555 1_555
C12 C11 1_555 1_555
H13 C12 1_555 1_555
H14 C12 1_555 1_555
H15 C12 1_555 1_555
C13 C6 1_555 1_555
H16 C13 1_555 1_555
H17 C13 1_555 1_555
H18 C13 1_555 1_555
C14 C5 1_555 1_555
C15 C14 1_555 1_555
C16 C15 1_555 1_555
H19 C16 1_555 1_555
C17 C16 1_555 1_555
H20 C17 1_555 1_555
C18 C17 1_555 1_555
H21 C18 1_555 1_555
C19 C18 1_555 1_555
H22 C19 1_555 1_555
C20 C15 1_555 1_555
H23 C20 1_555 1_555
C21 C4 1_555 1_555
C22 C21 1_555 1_555
H24 C22 1_555 1_555
C23 C22 1_555 1_555
H25 C23 1_555 1_555
C24 C23 1_555 1_555
H26 C24 1_555 1_555
C25 C24 1_555 1_555
H27 C25 1_555 1_555
C26 C21 1_555 1_555
H28 C26 1_555 1_555
C6 C7 1_555 1_555
C7 C8 1_555 1_555
C19 C20 1_555 1_555
C25 C26 1_555 1_555

#END
