
#######################################################################
#
#                 Cambridge Crystallographic Data Centre
#                                CCDC 
#
#######################################################################
#
# If this CIF has been generated from an entry in the Cambridge 
# Structural Database, then it will include bibliographic, chemical, 
# crystal, experimental, refinement or atomic coordinate data resulting 
# from the CCDC's data processing and validation procedures.
#
#######################################################################

data_ARIDIP
_chemical_formula_moiety         'C52 H38 N4 S3'
_chemical_name_systematic        
4,4'-(2,1,3-Benzothiadiazole-4,7-diyldithiene-5,2-diyl)bis(N-(4-methylphenyl)-N-phenylaniline)
_symmetry_cell_setting           monoclinic
_symmetry_space_group_name_H-M   'P 21/c'
_symmetry_Int_Tables_number      14
_space_group_name_Hall           '-P 2ybc'
loop_
_symmetry_equiv_pos_site_id
_symmetry_equiv_pos_as_xyz
1 x,y,z
2 -x,1/2+y,1/2-z
3 -x,-y,-z
4 x,1/2-y,1/2+z
_cell_length_a                   11.2608(7)
_cell_length_b                   17.8234(11)
_cell_length_c                   20.1891(13)
_cell_angle_alpha                90
_cell_angle_beta                 98.705(1)
_cell_angle_gamma                90
_cell_volume                     4005.39
_exptl_crystal_colour            red-brown
_exptl_crystal_description       block
_cell_formula_units_Z            4
_exptl_crystal_recrystallization_method dichloromethane/hexane
loop_
_atom_site_label
_atom_site_type_symbol
_atom_site_fract_x
_atom_site_fract_y
_atom_site_fract_z
C1 C 1.4784(3) 0.1928(2) 0.15588(15)
H1 H 1.4533 0.1658 0.1157
C2 C 1.5993(3) 0.2115(2) 0.17508(17)
H2 H 1.6567 0.1970 0.1475
C3 C 1.6368(3) 0.25087(19) 0.23384(16)
H3 H 1.7193 0.2627 0.2467
C4 C 1.5547(3) 0.27228(17) 0.27279(16)
H4 H 1.5801 0.3002 0.3125
C5 C 1.4336(2) 0.25392(16) 0.25548(15)
H5 H 1.3773 0.2683 0.2837
C6 C 1.3957(2) 0.21451(16) 0.19661(14)
C7 C 1.2382(2) 0.12018(16) 0.16397(14)
C8 C 1.1472(3) 0.10026(17) 0.11266(15)
H6 H 1.1075 0.1380 0.0843
C9 C 1.1139(3) 0.02646(18) 0.10253(16)
H7 H 1.0507 0.0139 0.0676
C10 C 1.1728(3) -0.03132(17) 0.14365(17)
C11 C 1.2665(3) -0.01029(19) 0.19149(16)
H8 H 1.3103 -0.0480 0.2180
C12 C 1.2993(3) 0.06330(17) 0.20248(15)
H9 H 1.3642 0.0756 0.2366
C13 C 1.1339(4) -0.11121(19) 0.1366(2)
H10 H 1.1855 -0.1419 0.1694
H11 H 1.1402 -0.1288 0.0912
H12 H 1.0504 -0.1154 0.1444
C14 C 1.1836(2) 0.25327(16) 0.17675(13)
C15 C 1.2130(2) 0.32802(16) 0.16767(13)
H13 H 1.2938 0.3409 0.1644
C16 C 1.1275(2) 0.38377(16) 0.16329(13)
H14 H 1.1504 0.4342 0.1568
C17 C 1.0070(2) 0.36762(15) 0.16817(12)
C18 C 0.9794(2) 0.29293(16) 0.17948(13)
H15 H 0.8991 0.2802 0.1840
C19 C 1.0644(2) 0.23680(15) 0.18440(14)
H16 H 1.0424 0.1867 0.1930
C20 C 0.9152(2) 0.42644(15) 0.15769(13)
C21 C 0.9293(2) 0.50303(16) 0.15690(14)
H17 H 1.0045 0.5281 0.1656
C22 C 0.8154(2) 0.53998(16) 0.14122(13)
H18 H 0.8074 0.5930 0.1397
C23 C 0.7249(2) 0.49532(14) 0.12940(12)
C24 C 0.5941(2) 0.51736(14) 0.11374(13)
C25 C 0.5555(2) 0.58896(14) 0.12801(13)
H19 H 0.6132 0.6239 0.1486
C26 C 0.4349(2) 0.61179(14) 0.11329(13)
H20 H 0.4151 0.6614 0.1250
C27 C 0.3436(2) 0.56623(13) 0.08278(12)
C28 C 0.3792(2) 0.49144(14) 0.06794(11)
C29 C 0.5032(2) 0.46856(14) 0.08397(12)
C30 C 0.2156(2) 0.59196(13) 0.06539(11)
C31 C 0.1310(2) 0.56684(15) 0.01841(13)
H21 H 0.1412 0.5250 -0.0094
C32 C 0.0233(2) 0.60880(15) 0.01369(13)
H22 H -0.0462 0.5982 -0.0178
C33 C 0.0297(2) 0.66618(14) 0.05915(12)
C34 C -0.06365(19) 0.72009(13) 0.07031(12)
C35 C -0.0747(2) 0.74592(14) 0.13439(12)
H23 H -0.0195 0.7290 0.1717
C36 C -0.1644(2) 0.79561(15) 0.14451(12)
H24 H -0.1704 0.8124 0.1885
C37 C -0.2465(2) 0.82129(14) 0.09037(12)
C38 C -0.2355(2) 0.79674(15) 0.02607(12)
H25 H -0.2897 0.8145 -0.0113
C39 C -0.1456(2) 0.74649(14) 0.01648(12)
H26 H -0.1396 0.7297 -0.0276
C40 C -0.4570(2) 0.86249(14) 0.06627(12)
C41 C -0.5017(2) 0.79141(15) 0.04941(13)
H27 H -0.4528 0.7488 0.0618
C42 C -0.6163(2) 0.78164(17) 0.01479(13)
H28 H -0.6438 0.7323 0.0029
C43 C -0.6922(2) 0.84188(18) -0.00300(14)
C44 C -0.6479(3) 0.91296(18) 0.01473(15)
H29 H -0.6981 0.9553 0.0034
C45 C -0.5321(2) 0.92398(16) 0.04866(14)
H30 H -0.5041 0.9733 0.0598
C46 C -0.8183(3) 0.8299(2) -0.03994(17)
H31 H -0.8586 0.8785 -0.0482
H32 H -0.8637 0.7985 -0.0127
H33 H -0.8143 0.8050 -0.0828
C47 C -0.3097(2) 0.93254(14) 0.14636(13)
C48 C -0.3868(3) 0.95331(19) 0.19097(15)
H34 H -0.4607 0.9276 0.1909
C49 C -0.3550(4) 1.0117(2) 0.23548(17)
H35 H -0.4078 1.0260 0.2658
C50 C -0.2486(4) 1.0488(2) 0.23629(19)
H36 H -0.2282 1.0890 0.2667
C51 C -0.1713(3) 1.02811(18) 0.19332(18)
H37 H -0.0965 1.0532 0.1949
C52 C -0.2014(3) 0.97074(16) 0.14748(15)
H38 H -0.1485 0.9575 0.1169
N1 N 1.2710(2) 0.19663(13) 0.17748(12)
N2 N 0.51930(19) 0.39589(12) 0.06680(11)
N3 N 0.30563(19) 0.43668(12) 0.03997(11)
N4 N -0.33880(18) 0.87222(12) 0.10127(11)
S1 S 0.76502(5) 0.40224(4) 0.13635(4)
S2 S 0.38953(6) 0.36415(4) 0.03493(4)
S3 S 0.17054(5) 0.66931(4) 0.10704(3)
loop_
_geom_bond_atom_site_label_1
_geom_bond_atom_site_label_2
_geom_bond_site_symmetry_1
_geom_bond_site_symmetry_2
C1 H1 1_555 1_555
C2 C1 1_555 1_555
H2 C2 1_555 1_555
C3 C2 1_555 1_555
H3 C3 1_555 1_555
C4 C3 1_555 1_555
H4 C4 1_555 1_555
C5 C4 1_555 1_555
H5 C5 1_555 1_555
C6 C1 1_555 1_555
C7 C8 1_555 1_555
C8 H6 1_555 1_555
C9 C8 1_555 1_555
H7 C9 1_555 1_555
C10 C9 1_555 1_555
C11 C10 1_555 1_555
H8 C11 1_555 1_555
C12 C7 1_555 1_555
H9 C12 1_555 1_555
C13 C10 1_555 1_555
H10 C13 1_555 1_555
H11 C13 1_555 1_555
H12 C13 1_555 1_555
C14 C15 1_555 1_555
C15 H13 1_555 1_555
C16 C15 1_555 1_555
H14 C16 1_555 1_555
C17 C16 1_555 1_555
C18 C17 1_555 1_555
H15 C18 1_555 1_555
C19 C14 1_555 1_555
H16 C19 1_555 1_555
C20 C17 1_555 1_555
C21 C20 1_555 1_555
H17 C21 1_555 1_555
C22 C21 1_555 1_555
H18 C22 1_555 1_555
C23 C22 1_555 1_555
C24 C23 1_555 1_555
C25 C24 1_555 1_555
H19 C25 1_555 1_555
C26 C25 1_555 1_555
H20 C26 1_555 1_555
C27 C26 1_555 1_555
C28 C27 1_555 1_555
C29 C24 1_555 1_555
C30 C27 1_555 1_555
C31 C30 1_555 1_555
H21 C31 1_555 1_555
C32 C31 1_555 1_555
H22 C32 1_555 1_555
C33 C32 1_555 1_555
C34 C33 1_555 1_555
C35 C34 1_555 1_555
H23 C35 1_555 1_555
C36 C35 1_555 1_555
H24 C36 1_555 1_555
C37 C36 1_555 1_555
C38 C37 1_555 1_555
H25 C38 1_555 1_555
C39 C34 1_555 1_555
H26 C39 1_555 1_555
C40 C41 1_555 1_555
C41 H27 1_555 1_555
C42 C41 1_555 1_555
H28 C42 1_555 1_555
C43 C42 1_555 1_555
C44 C43 1_555 1_555
H29 C44 1_555 1_555
C45 C40 1_555 1_555
H30 C45 1_555 1_555
C46 C43 1_555 1_555
H31 C46 1_555 1_555
H32 C46 1_555 1_555
H33 C46 1_555 1_555
C47 C48 1_555 1_555
C48 H34 1_555 1_555
C49 C48 1_555 1_555
H35 C49 1_555 1_555
C50 C49 1_555 1_555
H36 C50 1_555 1_555
C51 C50 1_555 1_555
H37 C51 1_555 1_555
C52 C47 1_555 1_555
H38 C52 1_555 1_555
N1 C6 1_555 1_555
N2 C29 1_555 1_555
N3 C28 1_555 1_555
N4 C37 1_555 1_555
S1 C20 1_555 1_555
S2 N2 1_555 1_555
S3 C30 1_555 1_555
C5 C6 1_555 1_555
C7 N1 1_555 1_555
C11 C12 1_555 1_555
C14 N1 1_555 1_555
C18 C19 1_555 1_555
C23 S1 1_555 1_555
C28 C29 1_555 1_555
C33 S3 1_555 1_555
C38 C39 1_555 1_555
C40 N4 1_555 1_555
C44 C45 1_555 1_555
C47 N4 1_555 1_555
C51 C52 1_555 1_555
N3 S2 1_555 1_555

#END
