
#######################################################################
#
#                 Cambridge Crystallographic Data Centre
#                                CCDC 
#
#######################################################################
#
# If this CIF has been generated from an entry in the Cambridge 
# Structural Database, then it will include bibliographic, chemical, 
# crystal, experimental, refinement or atomic coordinate data resulting 
# from the CCDC's data processing and validation procedures.
#
#######################################################################

data_ARIFIR
_chemical_name_common            
2,2'-(Biphenyl-4,4'-diyldiethene-2,1-diyl)dithiophene
_chemical_formula_moiety         'C24 H18 S2'
_chemical_name_systematic        4,4'-bis(2-Thienylvinyl)biphenyl
_symmetry_cell_setting           monoclinic
_symmetry_space_group_name_H-M   'P 21'
_symmetry_Int_Tables_number      4
_space_group_name_Hall           'P 2yb'
loop_
_symmetry_equiv_pos_site_id
_symmetry_equiv_pos_as_xyz
1 x,y,z
2 -x,1/2+y,-z
_cell_length_a                   6.0725(7)
_cell_length_b                   7.4958(10)
_cell_length_c                   19.872(3)
_cell_angle_alpha                90
_cell_angle_beta                 90.00
_cell_angle_gamma                90
_cell_volume                     904.539
_exptl_crystal_colour            yellow
_exptl_crystal_description       plate
_cell_formula_units_Z            2
_exptl_crystal_recrystallization_method sublimation
loop_
_atom_site_label
_atom_site_type_symbol
_atom_site_fract_x
_atom_site_fract_y
_atom_site_fract_z
S1 S 0.35013(15) 0.62708(16) 0.43203(5)
S2 S -0.63927(15) 0.45437(15) -0.33156(5)
C1 C -0.5141(5) 0.5934(5) -0.05729(17)
H1 H -0.6492 0.6492 -0.0639
C2 C 0.1815(5) 0.4445(5) 0.16290(18)
H2 H 0.3180 0.3909 0.1693
C3 C -0.1195(5) 0.5124(4) 0.08735(17)
C4 C -0.4220(5) 0.5929(5) 0.00560(18)
H3 H -0.4975 0.6479 0.0406
C5 C -0.2182(5) 0.5127(4) 0.01918(17)
C6 C -0.2081(5) 0.4324(5) -0.09855(18)
H4 H -0.1331 0.3767 -0.1335
C7 C -0.2218(5) 0.5942(5) 0.14164(18)
H5 H -0.3611 0.6434 0.1358
C8 C -0.1153(5) 0.4331(5) -0.03556(18)
H6 H 0.0207 0.3786 -0.0293
C9 C 0.0850(5) 0.4357(5) 0.10056(18)
H7 H 0.1583 0.3766 0.0660
C10 C -0.6899(5) 0.5718(4) -0.20076(18)
H8 H -0.7711 0.6385 -0.1701
C11 C -0.9952(5) 0.5960(5) -0.28854(17)
H9 H -1.0997 0.6520 -0.2616
C12 C -0.4091(5) 0.5117(4) -0.11187(17)
C13 C -0.1224(5) 0.6048(5) 0.20410(19)
H10 H -0.1951 0.6633 0.2389
C14 C -0.5018(5) 0.5044(4) -0.17924(17)
H11 H -0.4179 0.4448 -0.2113
C15 C -0.7817(5) 0.5514(5) -0.26768(17)
C16 C 0.0828(5) 0.5304(4) 0.21630(17)
C17 C 0.4732(5) 0.5046(5) 0.36919(17)
C18 C 0.1847(6) 0.5482(5) 0.28246(18)
H12 H 0.1074 0.6162 0.3137
C19 C 0.3723(5) 0.4801(5) 0.30357(18)
H13 H 0.4484 0.4086 0.2732
C20 C 0.6767(5) 0.4491(6) 0.38923(18)
H14 H 0.7705 0.3822 0.3622
C21 C -0.8541(6) 0.4672(7) -0.38473(19)
H15 H -0.8511 0.4256 -0.4288
C22 C 0.5711(6) 0.6013(6) 0.4841(2)
H16 H 0.5809 0.6487 0.5272
C23 C 0.7301(6) 0.5027(6) 0.4543(2)
H17 H 0.8622 0.4735 0.4753
C24 C -1.0300(6) 0.5443(6) -0.3562(2)
H18 H -1.1624 0.5621 -0.3788
loop_
_geom_bond_atom_site_label_1
_geom_bond_atom_site_label_2
_geom_bond_site_symmetry_1
_geom_bond_site_symmetry_2
S1 C17 1_555 1_555
S2 C15 1_555 1_555
C1 H1 1_555 1_555
C2 H2 1_555 1_555
C3 C5 1_555 1_555
C4 C1 1_555 1_555
H3 C4 1_555 1_555
C5 C4 1_555 1_555
C6 H4 1_555 1_555
C7 C3 1_555 1_555
H5 C7 1_555 1_555
C8 C5 1_555 1_555
H6 C8 1_555 1_555
C9 C2 1_555 1_555
H7 C9 1_555 1_555
C10 H8 1_555 1_555
C11 H9 1_555 1_555
C12 C1 1_555 1_555
C13 C7 1_555 1_555
H10 C13 1_555 1_555
C14 C10 1_555 1_555
H11 C14 1_555 1_555
C15 C10 1_555 1_555
C16 C2 1_555 1_555
C17 C19 1_555 1_555
C18 C16 1_555 1_555
H12 C18 1_555 1_555
C19 C18 1_555 1_555
H13 C19 1_555 1_555
C20 C17 1_555 1_555
H14 C20 1_555 1_555
C21 S2 1_555 1_555
H15 C21 1_555 1_555
C22 S1 1_555 1_555
H16 C22 1_555 1_555
C23 C20 1_555 1_555
H17 C23 1_555 1_555
C24 C11 1_555 1_555
H18 C24 1_555 1_555
C3 C9 1_555 1_555
C6 C8 1_555 1_555
C6 C12 1_555 1_555
C11 C15 1_555 1_555
C12 C14 1_555 1_555
C13 C16 1_555 1_555
C21 C24 1_555 1_555
C22 C23 1_555 1_555

#END
