
#######################################################################
#
#                 Cambridge Crystallographic Data Centre
#                                CCDC 
#
#######################################################################
#
# If this CIF has been generated from an entry in the Cambridge 
# Structural Database, then it will include bibliographic, chemical, 
# crystal, experimental, refinement or atomic coordinate data resulting 
# from the CCDC's data processing and validation procedures.
#
#######################################################################

data_ARIGOZ
_chemical_formula_moiety         'C30 H28 O8,0.5(C4 H10 O1)'
_chemical_name_systematic        
'2-(bis(3,4-dimethoxyphenyl)methyl)-2-ethynyl-5,6-dimethoxy-1H-indene-1,3(2H)-dione diethyl ether solvate'
_symmetry_cell_setting           triclinic
_symmetry_space_group_name_H-M   'P -1'
_symmetry_Int_Tables_number      2
_space_group_name_Hall           '-P 1'
loop_
_symmetry_equiv_pos_site_id
_symmetry_equiv_pos_as_xyz
1 x,y,z
2 -x,-y,-z
_cell_length_a                   10.6280(4)
_cell_length_b                   11.3725(4)
_cell_length_c                   13.4594(5)
_cell_angle_alpha                74.4890(10)
_cell_angle_beta                 88.2680(10)
_cell_angle_gamma                65.9900(10)
_cell_volume                     1426.2
_exptl_crystal_colour            yellow
_exptl_crystal_description       block
_cell_formula_units_Z            2
loop_
_atom_site_label
_atom_site_type_symbol
_atom_site_fract_x
_atom_site_fract_y
_atom_site_fract_z
C1 C 0.26531(13) 0.43614(12) 0.15739(10)
H1 H 0.2659 0.3569 0.1462
C2 C 0.26459(12) 0.53520(12) 0.17139(9)
C3 C 0.26265(12) 0.65699(11) 0.19041(9)
C4 C 0.23421(12) 0.65419(11) 0.30522(9)
C5 C 0.10265(12) 0.76864(11) 0.30511(9)
C6 C 0.03648(12) 0.80383(12) 0.39066(9)
H2 H 0.0773 0.7544 0.4591
C7 C -0.09039(12) 0.91284(12) 0.37260(9)
C8 C -0.15172(12) 0.98728(12) 0.26877(9)
C9 C -0.08400(12) 0.95173(12) 0.18490(9)
H3 H -0.1230 1.0011 0.1160
C10 C 0.04379(12) 0.84074(11) 0.20485(9)
C11 C 0.13245(12) 0.78094(11) 0.13001(9)
C12 C -0.10368(14) 0.89327(15) 0.55196(10)
H4 H -0.1621 0.9410 0.5987
H5 H -0.0124 0.8945 0.5562
H6 H -0.0937 0.8003 0.5721
C13 C -0.34472(13) 1.16647(13) 0.16115(9)
H7 H -0.4280 1.2440 0.1665
H8 H -0.3707 1.1102 0.1297
H9 H -0.2822 1.1975 0.1181
C14 C 0.39325(12) 0.68174(11) 0.15104(9)
H10 H 0.3769 0.7127 0.0738
C15 C 0.53096(12) 0.55999(11) 0.17520(9)
C16 C 0.57517(12) 0.46909(12) 0.27400(9)
H11 H 0.5134 0.4767 0.3268
C17 C 0.70768(12) 0.36845(12) 0.29550(9)
C18 C 0.79940(12) 0.35529(12) 0.21726(10)
C19 C 0.75454(13) 0.44189(13) 0.11892(10)
H12 H 0.8148 0.4321 0.0652
C20 C 0.62077(13) 0.54386(12) 0.09811(9)
H13 H 0.5910 0.6029 0.0302
C21 C 0.66091(13) 0.26931(13) 0.46243(9)
H14 H 0.7075 0.1961 0.5249
H15 H 0.5905 0.2517 0.4313
H16 H 0.6167 0.3540 0.4807
C22 C 1.02418(14) 0.23852(16) 0.17039(11)
H17 H 1.1122 0.1629 0.2004
H18 H 1.0387 0.3210 0.1467
H19 H 0.9882 0.2223 0.1116
C23 C 0.39977(12) 0.79852(12) 0.18293(9)
C24 C 0.35163(12) 0.92601(12) 0.11098(9)
H20 H 0.3172 0.9377 0.0431
C25 C 0.35359(12) 1.03485(12) 0.13748(9)
C26 C 0.40046(12) 1.01901(12) 0.23921(10)
C27 C 0.45187(13) 0.89294(13) 0.30910(9)
H21 H 0.4875 0.8808 0.3768
C28 C 0.45188(13) 0.78328(12) 0.28101(9)
H22 H 0.4881 0.6971 0.3297
C29 C 0.25942(15) 1.18333(13) -0.03086(10)
H23 H 0.2313 1.2777 -0.0695
H24 H 0.1796 1.1605 -0.0288
H25 H 0.3323 1.1264 -0.0650
C30 C 0.43153(14) 1.12483(14) 0.36219(10)
H26 H 0.4093 1.2149 0.3684
H27 H 0.5315 1.0711 0.3761
H28 H 0.3833 1.0821 0.4123
O1 O 0.30461(9) 0.56931(8) 0.38132(6)
O2 O 0.11153(9) 0.81920(9) 0.03636(6)
O3 O -0.16667(9) 0.95795(9) 0.44744(6)
O4 O -0.27628(9) 1.08982(9) 0.26266(6)
O5 O 0.75959(9) 0.27814(9) 0.39036(6)
O6 O 0.92733(9) 0.25214(10) 0.24665(7)
O7 O 0.31058(9) 1.16202(8) 0.07251(7)
O8 O 0.38834(9) 1.13404(9) 0.25984(7)
O9? O 0.0170(3) 0.4936(3) 0.4669(2)
C31? C -0.1344(5) 0.5927(5) 0.3119(4)
H29? H -0.2329 0.6381 0.2873
H30? H -0.0940 0.5058 0.2967
H31? H -0.0868 0.6480 0.2769
C32? C -0.1180(5) 0.5708(5) 0.4300(3)
H32? H -0.1487 0.6585 0.4450
H33? H -0.1766 0.5260 0.4649
C33? C 0.0430(5) 0.4821(5) 0.5733(3)
H34? H -0.0197 0.4486 0.6155
H35? H 0.0260 0.5710 0.5818
C34? C 0.1895(5) 0.3872(5) 0.6078(4)
H36? H 0.2023 0.3588 0.6836
H37? H 0.2502 0.4317 0.5804
H38? H 0.2124 0.3086 0.5821
loop_
_geom_bond_atom_site_label_1
_geom_bond_atom_site_label_2
_geom_bond_site_symmetry_1
_geom_bond_site_symmetry_2
C1 H1 1_555 1_555
C2 C1 1_555 1_555
C3 C2 1_555 1_555
C4 C3 1_555 1_555
C5 C4 1_555 1_555
C6 C5 1_555 1_555
H2 C6 1_555 1_555
C7 C6 1_555 1_555
C8 C7 1_555 1_555
C9 C8 1_555 1_555
H3 C9 1_555 1_555
C10 C5 1_555 1_555
C11 C3 1_555 1_555
C12 H4 1_555 1_555
H5 C12 1_555 1_555
H6 C12 1_555 1_555
C13 H7 1_555 1_555
H8 C13 1_555 1_555
H9 C13 1_555 1_555
C14 C3 1_555 1_555
H10 C14 1_555 1_555
C15 C14 1_555 1_555
C16 C15 1_555 1_555
H11 C16 1_555 1_555
C17 C16 1_555 1_555
C18 C17 1_555 1_555
C19 C18 1_555 1_555
H12 C19 1_555 1_555
C20 C15 1_555 1_555
H13 C20 1_555 1_555
C21 H14 1_555 1_555
H15 C21 1_555 1_555
H16 C21 1_555 1_555
C22 H17 1_555 1_555
H18 C22 1_555 1_555
H19 C22 1_555 1_555
C23 C14 1_555 1_555
C24 C23 1_555 1_555
H20 C24 1_555 1_555
C25 C24 1_555 1_555
C26 C25 1_555 1_555
C27 C26 1_555 1_555
H21 C27 1_555 1_555
C28 C23 1_555 1_555
H22 C28 1_555 1_555
C29 H23 1_555 1_555
H24 C29 1_555 1_555
H25 C29 1_555 1_555
C30 H26 1_555 1_555
H27 C30 1_555 1_555
H28 C30 1_555 1_555
O1 C4 1_555 1_555
O2 C11 1_555 1_555
O3 C7 1_555 1_555
O4 C8 1_555 1_555
O5 C17 1_555 1_555
O6 C18 1_555 1_555
O7 C25 1_555 1_555
O8 C26 1_555 1_555
C9 C10 1_555 1_555
C10 C11 1_555 1_555
C12 O3 1_555 1_555
C13 O4 1_555 1_555
C19 C20 1_555 1_555
C21 O5 1_555 1_555
C22 O6 1_555 1_555
C27 C28 1_555 1_555
C29 O7 1_555 1_555
C30 O8 1_555 1_555

#END
