
#######################################################################
#
#                 Cambridge Crystallographic Data Centre
#                                CCDC 
#
#######################################################################
#
# If this CIF has been generated from an entry in the Cambridge 
# Structural Database, then it will include bibliographic, chemical, 
# crystal, experimental, refinement or atomic coordinate data resulting 
# from the CCDC's data processing and validation procedures.
#
#######################################################################

data_ARIGUF
_chemical_formula_moiety         'C30 H28 O6'
_chemical_name_systematic        
12d-ethynyl-2,3,6,7,10,11-hexamethoxy-4b,8b,12b,12d-tetrahydrodibenzo[2,3:4,5]pentaleno[1,6-ab]indene
_symmetry_cell_setting           tetragonal
_symmetry_space_group_name_H-M   'I 41/a'
_symmetry_Int_Tables_number      88
_space_group_name_Hall           '-I 4ad'
loop_
_symmetry_equiv_pos_site_id
_symmetry_equiv_pos_as_xyz
1 x,y,z
2 1/2-x,-y,1/2+z
3 3/4-y,1/4+x,1/4+z
4 3/4+y,3/4-x,3/4+z
5 1/2+x,1/2+y,1/2+z
6 -x,1/2-y,z
7 1/4-y,3/4+x,3/4+z
8 1/4+y,1/4-x,1/4+z
9 -x,-y,-z
10 1/2+x,y,1/2-z
11 1/4+y,3/4-x,3/4-z
12 1/4-y,1/4+x,1/4-z
13 1/2-x,1/2-y,1/2-z
14 x,1/2+y,-z
15 3/4+y,1/4-x,1/4-z
16 3/4-y,3/4+x,3/4-z
_cell_length_a                   31.7190(10)
_cell_length_b                   31.7190(10)
_cell_length_c                   10.8097(4)
_cell_angle_alpha                90
_cell_angle_beta                 90
_cell_angle_gamma                90
_cell_volume                     10875.6
_exptl_crystal_colour            colorless
_exptl_crystal_description       block
_cell_formula_units_Z            16
loop_
_atom_site_label
_atom_site_type_symbol
_atom_site_fract_x
_atom_site_fract_y
_atom_site_fract_z
C1 C 0.25276(4) 0.32743(3) 0.81013(10)
C2 C 0.28422(4) 0.33279(4) 0.71997(10)
H1 H 0.2865 0.3136 0.6528
C3 C 0.31186(4) 0.36655(4) 0.73057(10)
C4 C 0.30870(4) 0.39453(4) 0.83206(11)
C5 C 0.27854(4) 0.38801(3) 0.92251(10)
H2 H 0.2770 0.4062 0.9922
C6 C 0.25037(3) 0.35435(3) 0.91028(10)
C7 C 0.21473(4) 0.34346(3) 0.99735(10)
H3 H 0.2253 0.3381 1.0831
C8 C 0.17894(4) 0.37502(3) 0.99724(10)
C9 C 0.18072(4) 0.41752(4) 1.03264(10)
C10 C 0.14603(4) 0.44313(3) 1.01155(10)
C11 C 0.10921(4) 0.42624(4) 0.95699(10)
C12 C 0.10712(4) 0.38387(4) 0.92793(10)
H4 H 0.0820 0.3722 0.8949
C13 C 0.14252(4) 0.35846(3) 0.94770(10)
C14 C 0.14750(4) 0.31296(3) 0.90850(11)
H5 H 0.1275 0.2939 0.9529
C15 C 0.14449(4) 0.30819(3) 0.76965(11)
C16 C 0.10830(4) 0.31340(4) 0.69803(11)
H6 H 0.0817 0.3178 0.7362
C17 C 0.11174(4) 0.31204(4) 0.57042(11)
C18 C 0.15154(4) 0.30560(4) 0.51497(11)
C19 C 0.18698(4) 0.29941(4) 0.58682(11)
H7 H 0.2136 0.2943 0.5492
C20 C 0.18331(4) 0.30070(3) 0.71587(11)
C21 C 0.21771(4) 0.29506(4) 0.81163(10)
C22 C 0.19474(4) 0.30248(4) 0.93942(10)
C23 C 0.19919(4) 0.26587(4) 1.02088(11)
C24 C 0.20377(4) 0.23623(4) 1.08696(12)
C25 C 0.34871(4) 0.34873(5) 0.54634(12)
H8 H 0.3230 0.3485 0.4959
H9 H 0.3545 0.3202 0.5768
H10 H 0.3725 0.3584 0.4960
C26 C 0.33354(4) 0.45654(4) 0.92970(12)
H11 H 0.3542 0.4791 0.9179
H12 H 0.3390 0.4422 1.0084
H13 H 0.3051 0.4686 0.9309
C27 C 0.17939(4) 0.50342(4) 1.09927(15)
H14 H 0.1839 0.4890 1.1783
H15 H 0.1741 0.5334 1.1144
H16 H 0.2045 0.5003 1.0474
C28 C 0.04379(4) 0.43991(4) 0.85672(13)
H17 H 0.0248 0.4635 0.8381
H18 H 0.0280 0.4174 0.8981
H19 H 0.0559 0.4291 0.7796
C29 C 0.03943(5) 0.32974(6) 0.53958(14)
H20 H 0.0432 0.3564 0.5842
H21 H 0.0288 0.3082 0.5967
H22 H 0.0191 0.3338 0.4723
C30 C 0.18844(4) 0.32182(4) 0.32997(12)
H23 H 0.1822 0.3289 0.2436
H24 H 0.2108 0.3005 0.3328
H25 H 0.1978 0.3472 0.3736
H26 H 0.2064(4) 0.4290(4) 1.0683(12)
H27 H 0.2294(4) 0.2657(4) 0.8077(13)
H28 H 0.2072(6) 0.2126(6) 1.1442(17)
O1 O 0.34308(3) 0.37646(3) 0.64853(8)
O2 O 0.33681(3) 0.42710(3) 0.83092(8)
O3 O 0.14411(3) 0.48541(3) 1.03798(8)
O4 O 0.07710(3) 0.45428(3) 0.93647(8)
O5 O 0.07884(3) 0.31644(3) 0.48951(8)
O6 O 0.15138(3) 0.30569(3) 0.38805(8)
loop_
_geom_bond_atom_site_label_1
_geom_bond_atom_site_label_2
_geom_bond_site_symmetry_1
_geom_bond_site_symmetry_2
C1 C2 1_555 1_555
C2 H1 1_555 1_555
C3 C2 1_555 1_555
C4 C3 1_555 1_555
C5 C4 1_555 1_555
H2 C5 1_555 1_555
C6 C1 1_555 1_555
C7 C6 1_555 1_555
H3 C7 1_555 1_555
C8 C7 1_555 1_555
C9 C8 1_555 1_555
C10 C9 1_555 1_555
C11 C10 1_555 1_555
C12 C11 1_555 1_555
H4 C12 1_555 1_555
C13 C8 1_555 1_555
C14 C13 1_555 1_555
H5 C14 1_555 1_555
C15 C14 1_555 1_555
C16 C15 1_555 1_555
H6 C16 1_555 1_555
C17 C16 1_555 1_555
C18 C17 1_555 1_555
C19 C18 1_555 1_555
H7 C19 1_555 1_555
C20 C15 1_555 1_555
C21 C1 1_555 1_555
C22 C7 1_555 1_555
C23 C22 1_555 1_555
C24 C23 1_555 1_555
C25 H8 1_555 1_555
H9 C25 1_555 1_555
H10 C25 1_555 1_555
C26 H11 1_555 1_555
H12 C26 1_555 1_555
H13 C26 1_555 1_555
C27 H14 1_555 1_555
H15 C27 1_555 1_555
H16 C27 1_555 1_555
C28 H17 1_555 1_555
H18 C28 1_555 1_555
H19 C28 1_555 1_555
C29 H20 1_555 1_555
H21 C29 1_555 1_555
H22 C29 1_555 1_555
C30 H23 1_555 1_555
H24 C30 1_555 1_555
H25 C30 1_555 1_555
H26 C9 1_555 1_555
H27 C21 1_555 1_555
H28 C24 1_555 1_555
O1 C3 1_555 1_555
O2 C4 1_555 1_555
O3 C10 1_555 1_555
O4 C11 1_555 1_555
O5 C17 1_555 1_555
O6 C18 1_555 1_555
C5 C6 1_555 1_555
C12 C13 1_555 1_555
C14 C22 1_555 1_555
C19 C20 1_555 1_555
C20 C21 1_555 1_555
C21 C22 1_555 1_555
C25 O1 1_555 1_555
C26 O2 1_555 1_555
C27 O3 1_555 1_555
C28 O4 1_555 1_555
C29 O5 1_555 1_555
C30 O6 1_555 1_555

#END
