
#######################################################################
#
#                 Cambridge Crystallographic Data Centre
#                                CCDC 
#
#######################################################################
#
# If this CIF has been generated from an entry in the Cambridge 
# Structural Database, then it will include bibliographic, chemical, 
# crystal, experimental, refinement or atomic coordinate data resulting 
# from the CCDC's data processing and validation procedures.
#
#######################################################################

data_ARIQOH
_chemical_formula_moiety         'C30 H36 N2 O3 Si2'
_chemical_name_systematic        
meso-1,3-bis(2-(Dimethylaminomethyl)phenyl)-1,3-diphenyldisiloxane-1,3-diol
_symmetry_cell_setting           triclinic
_symmetry_space_group_name_H-M   'P -1'
_symmetry_Int_Tables_number      2
_space_group_name_Hall           '-P 1'
loop_
_symmetry_equiv_pos_site_id
_symmetry_equiv_pos_as_xyz
1 x,y,z
2 -x,-y,-z
_cell_length_a                   9.5536(19)
_cell_length_b                   9.931(2)
_cell_length_c                   15.931(3)
_cell_angle_alpha                86.994(4)
_cell_angle_beta                 86.635(4)
_cell_angle_gamma                76.943(4)
_cell_volume                     1468.67
_exptl_crystal_colour            colorless
_chemical_melting_point          137-138deg.C
_cell_formula_units_Z            2
_exptl_crystal_recrystallization_method 'diethyl ether'
loop_
_atom_site_label
_atom_site_type_symbol
_atom_site_fract_x
_atom_site_fract_y
_atom_site_fract_z
Si1 Si 0.10654(9) 0.29672(8) 0.26446(5)
Si2 Si -0.17506(9) 0.18455(8) 0.25427(5)
O1 O -0.02806(19) 0.23847(19) 0.23508(12)
O2 O 0.0576(2) 0.4171(2) 0.33077(15)
O3 O -0.1536(2) 0.0556(2) 0.32217(13)
C1 C 0.2423(3) 0.1520(3) 0.3118(2)
C2 C -0.2266(3) 0.1275(3) 0.15298(18)
N1 N -0.0117(3) -0.1503(3) 0.21950(16)
C3 C 0.1815(3) 0.3717(3) 0.16750(19)
C4 C -0.1430(3) 0.0136(3) 0.11085(19)
C5 C 0.2888(3) 0.4456(3) 0.1720(2)
H1 H 0.3261 0.4530 0.2237
C6 C 0.2263(4) 0.0949(3) 0.3935(2)
N2 N 0.0648(3) 0.2784(3) 0.48078(17)
C7 C -0.3128(3) 0.3294(3) 0.29755(19)
C8 C -0.0008(3) -0.0650(3) 0.1423(2)
H2 H 0.0494 -0.1243 0.0985
H3 H 0.0570 0.0006 0.1527
C9 C 0.3678(4) 0.0972(3) 0.2640(2)
H4 H 0.3790 0.1327 0.2095
C10 C -0.3553(3) 0.1947(3) 0.1181(2)
H5 H -0.4123 0.2702 0.1450
C11 C -0.4018(4) 0.1538(4) 0.0452(2)
H6 H -0.4883 0.2012 0.0235
C12 C -0.3188(4) 0.4648(4) 0.2673(2)
H7 H -0.2528 0.4810 0.2250
C13 C -0.1918(4) -0.0263(4) 0.0379(2)
H8 H -0.1367 -0.1019 0.0103
C14 C 0.1314(4) 0.3624(4) 0.0891(2)
H9 H 0.0600 0.3138 0.0839
C15 C 0.3401(4) 0.5076(4) 0.1013(3)
H10 H 0.4106 0.5574 0.1058
C16 C 0.0908(4) 0.1376(4) 0.4476(2)
H11 H 0.0098 0.1322 0.4150
H12 H 0.0938 0.0714 0.4948
C17 C -0.4145(4) 0.3120(4) 0.3595(2)
H13 H -0.4156 0.2233 0.3810
C18 C 0.4754(4) -0.0071(4) 0.2945(4)
H14 H 0.5577 -0.0406 0.2610
C19 C -0.0800(4) -0.2634(3) 0.2033(2)
H15 H -0.1748 -0.2260 0.1841
H16 H -0.0863 -0.3182 0.2543
H17 H -0.0236 -0.3202 0.1611
C20 C -0.3194(4) 0.0429(4) 0.0053(2)
H18 H -0.3496 0.0143 -0.0439
C21 C -0.5168(4) 0.5531(5) 0.3605(3)
H19 H -0.5841 0.6276 0.3820
C22 C 0.2892(5) 0.4968(4) 0.0252(3)
H20 H 0.3247 0.5389 -0.0223
C23 C 0.1706(4) 0.2861(4) 0.5419(2)
H21 H 0.1524 0.3783 0.5619
H22 H 0.2655 0.2630 0.5156
H23 H 0.1634 0.2222 0.5884
C24 C 0.1844(5) 0.4231(4) 0.0181(2)
H24 H 0.1498 0.4145 -0.0343
C25 C 0.1341(4) -0.2056(4) 0.2484(2)
H25 H 0.1292 -0.2621 0.2987
H26 H 0.1772 -0.1305 0.2598
H27 H 0.1911 -0.2604 0.2054
C26 C -0.4192(4) 0.5749(4) 0.2982(3)
H28 H -0.4206 0.6641 0.2767
C27 C -0.5158(4) 0.4239(5) 0.3908(3)
H29 H -0.5831 0.4093 0.4329
C28 C 0.4606(6) -0.0612(4) 0.3741(4)
H30 H 0.5330 -0.1318 0.3951
C29 C 0.3376(6) -0.0109(4) 0.4239(3)
H31 H 0.3287 -0.0479 0.4783
C30 C -0.0823(4) 0.3137(5) 0.5191(2)
H32 H -0.1005 0.4048 0.5408
H33 H -0.0921 0.2480 0.5642
H34 H -0.1502 0.3114 0.4774
H35 H -0.115(3) -0.026(4) 0.293(2)
H36 H 0.064(3) 0.377(3) 0.3815(13)
loop_
_geom_bond_atom_site_label_1
_geom_bond_atom_site_label_2
_geom_bond_site_symmetry_1
_geom_bond_site_symmetry_2
Si1 O1 1_555 1_555
Si2 O1 1_555 1_555
O2 Si1 1_555 1_555
O3 Si2 1_555 1_555
C1 Si1 1_555 1_555
C2 Si2 1_555 1_555
N1 C8 1_555 1_555
C3 Si1 1_555 1_555
C4 C2 1_555 1_555
C5 C3 1_555 1_555
H1 C5 1_555 1_555
C6 C1 1_555 1_555
N2 C16 1_555 1_555
C7 Si2 1_555 1_555
C8 C4 1_555 1_555
H2 C8 1_555 1_555
H3 C8 1_555 1_555
C9 C1 1_555 1_555
H4 C9 1_555 1_555
C10 C2 1_555 1_555
H5 C10 1_555 1_555
C11 C10 1_555 1_555
H6 C11 1_555 1_555
C12 C7 1_555 1_555
H7 C12 1_555 1_555
C13 C4 1_555 1_555
H8 C13 1_555 1_555
C14 C3 1_555 1_555
H9 C14 1_555 1_555
C15 C5 1_555 1_555
H10 C15 1_555 1_555
C16 C6 1_555 1_555
H11 C16 1_555 1_555
H12 C16 1_555 1_555
C17 C7 1_555 1_555
H13 C17 1_555 1_555
C18 C9 1_555 1_555
H14 C18 1_555 1_555
C19 N1 1_555 1_555
H15 C19 1_555 1_555
H16 C19 1_555 1_555
H17 C19 1_555 1_555
C20 C11 1_555 1_555
H18 C20 1_555 1_555
C21 H19 1_555 1_555
C22 C15 1_555 1_555
H20 C22 1_555 1_555
C23 N2 1_555 1_555
H21 C23 1_555 1_555
H22 C23 1_555 1_555
H23 C23 1_555 1_555
C24 C14 1_555 1_555
H24 C24 1_555 1_555
C25 N1 1_555 1_555
H25 C25 1_555 1_555
H26 C25 1_555 1_555
H27 C25 1_555 1_555
C26 C12 1_555 1_555
H28 C26 1_555 1_555
C27 C17 1_555 1_555
H29 C27 1_555 1_555
C28 C18 1_555 1_555
H30 C28 1_555 1_555
C29 C6 1_555 1_555
H31 C29 1_555 1_555
C30 N2 1_555 1_555
H32 C30 1_555 1_555
H33 C30 1_555 1_555
H34 C30 1_555 1_555
H35 O3 1_555 1_555
H36 O2 1_555 1_555
C13 C20 1_555 1_555
C21 C26 1_555 1_555
C21 C27 1_555 1_555
C22 C24 1_555 1_555
C28 C29 1_555 1_555

#END
