
#######################################################################
#
#                 Cambridge Crystallographic Data Centre
#                                CCDC 
#
#######################################################################
#
# If this CIF has been generated from an entry in the Cambridge 
# Structural Database, then it will include bibliographic, chemical, 
# crystal, experimental, refinement or atomic coordinate data resulting 
# from the CCDC's data processing and validation procedures.
#
#######################################################################

data_ARIREY
_chemical_formula_moiety         'C36 H50 N4 O3 Si2'
_chemical_name_systematic        
1,1,3,3-tetrakis(2-(Dimethylaminomethyl)phenyl)disiloxane-1,3-diol
_symmetry_cell_setting           triclinic
_symmetry_space_group_name_H-M   'P -1'
_symmetry_Int_Tables_number      2
_space_group_name_Hall           '-P 1'
loop_
_symmetry_equiv_pos_site_id
_symmetry_equiv_pos_as_xyz
1 x,y,z
2 -x,-y,-z
_cell_length_a                   9.3020(10)
_cell_length_b                   13.878(2)
_cell_length_c                   15.505(2)
_cell_angle_alpha                106.40(2)
_cell_angle_beta                 100.200(10)
_cell_angle_gamma                93.020(10)
_cell_volume                     1878.6
_exptl_crystal_colour            colorless
_chemical_melting_point          111-112deg.C
_cell_formula_units_Z            2
loop_
_atom_site_label
_atom_site_type_symbol
_atom_site_fract_x
_atom_site_fract_y
_atom_site_fract_z
Si1 Si 0.67347(14) 0.88215(9) 0.26044(9)
Si2 Si 0.47320(14) 0.68724(10) 0.26669(9)
O1 O 0.7584(4) 0.9409(3) 0.3646(2)
H1 H 0.835(6) 0.925(4) 0.375(4)
O2 O 0.5686(4) 0.7846(2) 0.2587(2)
O3 O 0.3497(4) 0.7249(3) 0.3267(2)
H2 H 0.389(6) 0.739(4) 0.380(4)
C1 C 0.5522(5) 0.9688(4) 0.2175(3)
N1 N 0.8152(7) 1.1843(5) 0.2188(6)
C2 C 0.8086(5) 0.8376(3) 0.1851(3)
N2 N 1.0160(4) 0.8686(3) 0.3834(3)
C3 C 0.3823(5) 0.6165(3) 0.1457(3)
N3 N 0.2890(5) 0.4852(3) 0.2554(3)
C4 C 0.6096(5) 0.6196(3) 0.3261(3)
N4 N 0.5077(4) 0.7679(3) 0.5017(3)
C5 C 0.4009(6) 0.9380(4) 0.1877(4)
H3 H 0.3649 0.8738 0.1867
C6 C 0.3047(7) 1.0004(5) 0.1599(5)
H4 H 0.2053 0.9777 0.1388
C7 C 0.3558(9) 1.0968(6) 0.1632(5)
H5 H 0.2904 1.1403 0.1472
C8 C 0.5045(8) 1.1284(5) 0.1904(5)
H6 H 0.5391 1.1923 0.1899
C9 C 0.6030(6) 1.0665(4) 0.2182(3)
C10 C 0.7642(6) 1.1068(4) 0.2536(5)
H7 H 0.7813 1.1328 0.3200
H8 H 0.8227 1.0508 0.2385
C11 C 0.9598(10) 1.2328(7) 0.2736(10)
H9 H 0.9528 1.2595 0.3368
H10 H 0.9917 1.2867 0.2515
H11 H 1.0295 1.1839 0.2683
C12 C 0.8221(15) 1.1428(9) 0.1229(8)
H12 H 0.7266 1.1117 0.0885
H13 H 0.8908 1.0933 0.1168
H14 H 0.8535 1.1961 0.0998
C13 C 0.7851(6) 0.8463(4) 0.0965(4)
H15 H 0.7016 0.8741 0.0761
C14 C 0.8816(7) 0.8152(5) 0.0370(4)
H16 H 0.8627 0.8233 -0.0214
C15 C 1.0041(7) 0.7726(4) 0.0651(4)
H17 H 1.0686 0.7507 0.0260
C16 C 1.0299(6) 0.7629(4) 0.1524(4)
H18 H 1.1137 0.7348 0.1718
C17 C 0.9362(5) 0.7931(3) 0.2120(3)
C18 C 0.9736(5) 0.7754(3) 0.3046(3)
H19 H 0.8893 0.7380 0.3137
H20 H 1.0539 0.7336 0.3045
C19 C 1.1387(6) 0.9325(4) 0.3728(4)
H21 H 1.1622 0.9920 0.4247
H22 H 1.1112 0.9516 0.3178
H23 H 1.2230 0.8956 0.3690
C20 C 1.0548(6) 0.8399(5) 0.4680(4)
H24 H 1.0831 0.8997 0.5194
H25 H 1.1352 0.7993 0.4639
H26 H 0.9715 0.8019 0.4761
C21 C 0.4372(6) 0.6409(4) 0.0755(3)
H27 H 0.5192 0.6884 0.0912
C22 C 0.3749(7) 0.5976(5) -0.0168(4)
H28 H 0.4132 0.6168 -0.0617
C23 C 0.2557(7) 0.5258(5) -0.0407(4)
H29 H 0.2138 0.4950 -0.1022
C24 C 0.1985(6) 0.4998(4) 0.0264(4)
H30 H 0.1180 0.4510 0.0093
C25 C 0.2580(5) 0.5447(4) 0.1199(3)
C26 C 0.1855(6) 0.5183(4) 0.1910(4)
H31 H 0.1442 0.5770 0.2241
H32 H 0.1057 0.4650 0.1607
C27 C 0.3225(8) 0.3821(5) 0.2131(6)
H33 H 0.3920 0.3620 0.2566
H34 H 0.3634 0.3806 0.1602
H35 H 0.2339 0.3365 0.1950
C28 C 0.2404(8) 0.4931(5) 0.3392(5)
H36 H 0.2195 0.5610 0.3652
H37 H 0.3159 0.4760 0.3816
H38 H 0.1531 0.4474 0.3273
C29 C 0.6452(6) 0.5273(4) 0.2755(4)
H39 H 0.6016 0.5018 0.2136
C30 C 0.7439(7) 0.4719(5) 0.3143(5)
H40 H 0.7656 0.4105 0.2786
C31 C 0.8088(7) 0.5083(5) 0.4052(5)
H41 H 0.8734 0.4713 0.4323
C32 C 0.7772(6) 0.6002(5) 0.4561(4)
H42 H 0.8236 0.6255 0.5175
C33 C 0.6778(5) 0.6571(4) 0.4189(3)
C34 C 0.6557(6) 0.7593(4) 0.4799(3)
H43 H 0.7272 0.7747 0.5370
H44 H 0.6758 0.8099 0.4502
C35 C 0.4984(7) 0.8740(4) 0.5504(4)
H45 H 0.4029 0.8809 0.5655
H46 H 0.5138 0.9153 0.5119
H47 H 0.5722 0.8951 0.6057
C36 C 0.4772(7) 0.7020(5) 0.5555(4)
H48 H 0.4845 0.6334 0.5221
H49 H 0.3798 0.7082 0.5675
H50 H 0.5471 0.7210 0.6125
loop_
_geom_bond_atom_site_label_1
_geom_bond_atom_site_label_2
_geom_bond_site_symmetry_1
_geom_bond_site_symmetry_2
Si1 O1 1_555 1_555
Si2 O2 1_555 1_555
O1 H1 1_555 1_555
O2 Si1 1_555 1_555
O3 Si2 1_555 1_555
H2 O3 1_555 1_555
C1 Si1 1_555 1_555
N1 C10 1_555 1_555
C2 Si1 1_555 1_555
N2 C18 1_555 1_555
C3 Si2 1_555 1_555
N3 C26 1_555 1_555
C4 Si2 1_555 1_555
N4 C34 1_555 1_555
C5 C1 1_555 1_555
H3 C5 1_555 1_555
C6 C5 1_555 1_555
H4 C6 1_555 1_555
C7 C6 1_555 1_555
H5 C7 1_555 1_555
C8 C7 1_555 1_555
H6 C8 1_555 1_555
C9 C1 1_555 1_555
C10 C9 1_555 1_555
H7 C10 1_555 1_555
H8 C10 1_555 1_555
C11 N1 1_555 1_555
H9 C11 1_555 1_555
H10 C11 1_555 1_555
H11 C11 1_555 1_555
C12 N1 1_555 1_555
H12 C12 1_555 1_555
H13 C12 1_555 1_555
H14 C12 1_555 1_555
C13 C2 1_555 1_555
H15 C13 1_555 1_555
C14 C13 1_555 1_555
H16 C14 1_555 1_555
C15 C14 1_555 1_555
H17 C15 1_555 1_555
C16 C15 1_555 1_555
H18 C16 1_555 1_555
C17 C2 1_555 1_555
C18 C17 1_555 1_555
H19 C18 1_555 1_555
H20 C18 1_555 1_555
C19 N2 1_555 1_555
H21 C19 1_555 1_555
H22 C19 1_555 1_555
H23 C19 1_555 1_555
C20 N2 1_555 1_555
H24 C20 1_555 1_555
H25 C20 1_555 1_555
H26 C20 1_555 1_555
C21 C3 1_555 1_555
H27 C21 1_555 1_555
C22 C21 1_555 1_555
H28 C22 1_555 1_555
C23 C22 1_555 1_555
H29 C23 1_555 1_555
C24 C23 1_555 1_555
H30 C24 1_555 1_555
C25 C3 1_555 1_555
C26 C25 1_555 1_555
H31 C26 1_555 1_555
H32 C26 1_555 1_555
C27 N3 1_555 1_555
H33 C27 1_555 1_555
H34 C27 1_555 1_555
H35 C27 1_555 1_555
C28 N3 1_555 1_555
H36 C28 1_555 1_555
H37 C28 1_555 1_555
H38 C28 1_555 1_555
C29 C4 1_555 1_555
H39 C29 1_555 1_555
C30 C29 1_555 1_555
H40 C30 1_555 1_555
C31 C30 1_555 1_555
H41 C31 1_555 1_555
C32 C31 1_555 1_555
H42 C32 1_555 1_555
C33 C4 1_555 1_555
C34 C33 1_555 1_555
H43 C34 1_555 1_555
H44 C34 1_555 1_555
C35 N4 1_555 1_555
H45 C35 1_555 1_555
H46 C35 1_555 1_555
H47 C35 1_555 1_555
C36 N4 1_555 1_555
H48 C36 1_555 1_555
H49 C36 1_555 1_555
H50 C36 1_555 1_555
C8 C9 1_555 1_555
C16 C17 1_555 1_555
C24 C25 1_555 1_555
C32 C33 1_555 1_555

#END
