
#######################################################################
#
#                 Cambridge Crystallographic Data Centre
#                                CCDC 
#
#######################################################################
#
# If this CIF has been generated from an entry in the Cambridge 
# Structural Database, then it will include bibliographic, chemical, 
# crystal, experimental, refinement or atomic coordinate data resulting 
# from the CCDC's data processing and validation procedures.
#
#######################################################################

data_ARIREZ
_chemical_formula_moiety         'C19 H24 N2 Si1'
_chemical_name_systematic        
1-(9H-Fluoren-9-ylidene)-N,N-dimethyl-N'-(trimethylsilyl)methanediamine
_symmetry_cell_setting           monoclinic
_symmetry_space_group_name_H-M   'P 21/n'
_symmetry_Int_Tables_number      14
_space_group_name_Hall           '-P 2yn'
loop_
_symmetry_equiv_pos_site_id
_symmetry_equiv_pos_as_xyz
1 x,y,z
2 1/2-x,1/2+y,1/2-z
3 -x,-y,-z
4 1/2+x,1/2-y,1/2+z
_cell_length_a                   9.806(3)
_cell_length_b                   12.642(4)
_cell_length_c                   14.213(5)
_cell_angle_alpha                90
_cell_angle_beta                 100.879(4)
_cell_angle_gamma                90
_cell_volume                     1730.28
_exptl_crystal_colour            colorless
_exptl_crystal_description       block
_cell_formula_units_Z            4
loop_
_atom_site_label
_atom_site_type_symbol
_atom_site_fract_x
_atom_site_fract_y
_atom_site_fract_z
Si1 Si 0.42311(12) 1.08754(8) 0.23826(8)
N1 N 0.7339(4) 1.0433(3) 0.1986(2)
N2 N 0.4966(3) 1.0414(2) 0.1419(2)
H1 H 0.4471 1.0504 0.0857
C1 C 0.6340(4) 0.8978(3) 0.0971(3)
C2 C 0.5273(4) 0.8176(3) 0.0719(3)
C3 C 0.3926(4) 0.8081(3) 0.0914(3)
H2 H 0.3556 0.8611 0.1244
C4 C 0.3159(4) 0.7185(3) 0.0608(3)
H3 H 0.2269 0.7118 0.0738
C5 C 0.3683(5) 0.6386(3) 0.0110(3)
H4 H 0.3139 0.5798 -0.0098
C6 C 0.4998(5) 0.6460(3) -0.0075(3)
H5 H 0.5354 0.5921 -0.0403
C7 C 0.5803(4) 0.7348(3) 0.0230(3)
C8 C 0.7204(4) 0.7613(3) 0.0150(3)
C9 C 0.8153(4) 0.7080(3) -0.0299(3)
H6 H 0.7927 0.6428 -0.0589
C10 C 0.9422(5) 0.7533(4) -0.0305(3)
H7 H 1.0063 0.7184 -0.0601
C11 C 0.9759(5) 0.8509(3) 0.0129(3)
H8 H 1.0624 0.8804 0.0117
C12 C 0.8838(4) 0.9045(3) 0.0574(3)
H9 H 0.9076 0.9701 0.0854
C13 C 0.7543(4) 0.8598(3) 0.0604(3)
C14 C 0.6223(4) 0.9931(3) 0.1451(3)
C15 C 0.8443(5) 0.9853(4) 0.2604(3)
H10 H 0.8208 0.9115 0.2596
H11 H 0.8551 1.0118 0.3247
H12 H 0.9297 0.9942 0.2375
C16 C 0.7468(5) 1.1578(3) 0.2054(4)
H13 H 0.6800 1.1899 0.1555
H14 H 0.8386 1.1783 0.1986
H15 H 0.7302 1.1807 0.2667
C17 C 0.5176(5) 1.0230(4) 0.3493(3)
H16 H 0.5222 0.9481 0.3390
H17 H 0.4693 1.0363 0.4010
H18 H 0.6099 1.0512 0.3653
C18 C 0.4291(5) 1.2342(3) 0.2497(3)
H19 H 0.5052 1.2542 0.2995
H20 H 0.3437 1.2592 0.2653
H21 H 0.4416 1.2649 0.1901
C19 C 0.2394(5) 1.0440(4) 0.2138(4)
H22 H 0.1953 1.0674 0.1512
H23 H 0.1921 1.0738 0.2609
H24 H 0.2355 0.9682 0.2167
loop_
_geom_bond_atom_site_label_1
_geom_bond_atom_site_label_2
_geom_bond_site_symmetry_1
_geom_bond_site_symmetry_2
Si1 N2 1_555 1_555
N1 C14 1_555 1_555
N2 H1 1_555 1_555
C1 C2 1_555 1_555
C2 C3 1_555 1_555
C3 H2 1_555 1_555
C4 C3 1_555 1_555
H3 C4 1_555 1_555
C5 C4 1_555 1_555
H4 C5 1_555 1_555
C6 C5 1_555 1_555
H5 C6 1_555 1_555
C7 C2 1_555 1_555
C8 C7 1_555 1_555
C9 C8 1_555 1_555
H6 C9 1_555 1_555
C10 C9 1_555 1_555
H7 C10 1_555 1_555
C11 C10 1_555 1_555
H8 C11 1_555 1_555
C12 C11 1_555 1_555
H9 C12 1_555 1_555
C13 C1 1_555 1_555
C14 N2 1_555 1_555
C15 N1 1_555 1_555
H10 C15 1_555 1_555
H11 C15 1_555 1_555
H12 C15 1_555 1_555
C16 N1 1_555 1_555
H13 C16 1_555 1_555
H14 C16 1_555 1_555
H15 C16 1_555 1_555
C17 Si1 1_555 1_555
H16 C17 1_555 1_555
H17 C17 1_555 1_555
H18 C17 1_555 1_555
C18 Si1 1_555 1_555
H19 C18 1_555 1_555
H20 C18 1_555 1_555
H21 C18 1_555 1_555
C19 Si1 1_555 1_555
H22 C19 1_555 1_555
H23 C19 1_555 1_555
H24 C19 1_555 1_555
C1 C14 1_555 1_555
C6 C7 1_555 1_555
C8 C13 1_555 1_555
C12 C13 1_555 1_555

#END
