
#######################################################################
#
#                 Cambridge Crystallographic Data Centre
#                                CCDC 
#
#######################################################################
#
# If this CIF has been generated from an entry in the Cambridge 
# Structural Database, then it will include bibliographic, chemical, 
# crystal, experimental, refinement or atomic coordinate data resulting 
# from the CCDC's data processing and validation procedures.
#
#######################################################################

data_ARIRAV
_chemical_formula_moiety         'C16 H16 N2'
_chemical_name_systematic        
1-(9H-Fluoren-9-ylidene)-N,N-dimethylmethanediamine
_symmetry_cell_setting           triclinic
_symmetry_space_group_name_H-M   'P -1'
_symmetry_Int_Tables_number      2
_space_group_name_Hall           '-P 1'
loop_
_symmetry_equiv_pos_site_id
_symmetry_equiv_pos_as_xyz
1 x,y,z
2 -x,-y,-z
_cell_length_a                   12.997(2)
_cell_length_b                   14.947(3)
_cell_length_c                   17.849(3)
_cell_angle_alpha                100.922(3)
_cell_angle_beta                 104.302(3)
_cell_angle_gamma                95.863(3)
_cell_volume                     3258.45
_exptl_crystal_colour            yellow
_exptl_crystal_description       plant
_cell_formula_units_Z            10
loop_
_atom_site_label
_atom_site_type_symbol
_atom_site_fract_x
_atom_site_fract_y
_atom_site_fract_z
N1 N -0.1162(3) 0.0786(3) 0.4827(2)
N2 N 0.0039(2) 0.20568(19) 0.48466(16)
C1 C -0.0459(2) -0.0299(2) 0.35170(17)
C2 C -0.1501(3) -0.0764(2) 0.3302(2)
H1 H -0.1994 -0.0543 0.3561
C3 C -0.1811(3) -0.1555(3) 0.2704(2)
H2 H -0.2513 -0.1863 0.2567
C4 C -0.1105(4) -0.1893(3) 0.2311(2)
H3 H -0.1334 -0.2422 0.1906
C5 C -0.0056(4) -0.1456(3) 0.2508(2)
H4 H 0.0422 -0.1686 0.2239
C6 C 0.0277(3) -0.0665(2) 0.31173(19)
C7 C 0.1311(3) -0.0074(2) 0.3458(2)
C8 C 0.2290(3) -0.0167(3) 0.3307(3)
H5 H 0.2335 -0.0640 0.2901
C9 C 0.3165(4) 0.0414(4) 0.3736(4)
H6 H 0.3819 0.0352 0.3624
C10 C 0.3114(3) 0.1127(4) 0.4363(3)
H7 H 0.3738 0.1517 0.4674
C11 C 0.2114(3) 0.1251(3) 0.4519(2)
H8 H 0.2073 0.1719 0.4932
C12 C 0.1202(2) 0.0661(2) 0.40460(19)
C13 C 0.0101(2) 0.0559(2) 0.40841(17)
C14 C -0.0344(2) 0.1144(2) 0.45843(17)
C15 C -0.0102(4) 0.2571(3) 0.5584(2)
H9 H -0.0315 0.2148 0.5881
H10 H -0.0647 0.2951 0.5466
H11 H 0.0564 0.2954 0.5891
C16 C 0.0363(4) 0.2602(3) 0.4334(3)
H12 H 0.0431 0.2201 0.3866
H13 H 0.1042 0.2984 0.4608
H14 H -0.0168 0.2985 0.4186
H15 H -0.147(2) 0.101(2) 0.4932(18)
N3 N 0.0100(3) 0.9963(3) 0.8836(2)
N4 N -0.0259(3) 0.8362(3) 0.83710(18)
C17 C 0.1777(3) 0.9673(3) 1.0230(2)
C18 C 0.2247(4) 1.0551(3) 1.0213(3)
H16 H 0.1955 1.0837 0.9808
C19 C 0.3151(5) 1.0982(3) 1.0808(4)
H17 H 0.3461 1.1567 1.0798
C20 C 0.3621(4) 1.0581(4) 1.1422(3)
H18 H 0.4233 1.0893 1.1814
C21 C 0.3169(3) 0.9721(3) 1.1444(2)
H19 H 0.3482 0.9444 1.1850
C22 C 0.2243(3) 0.9257(3) 1.0859(2)
C23 C 0.1615(3) 0.8381(2) 1.07601(18)
C24 C 0.1690(3) 0.7713(3) 1.1223(2)
H20 H 0.2267 0.7790 1.1670
C25 C 0.0926(4) 0.6959(3) 1.1021(2)
H21 H 0.0980 0.6520 1.1329
C26 C 0.0054(4) 0.6837(3) 1.0351(2)
H22 H -0.0477 0.6325 1.0228
C27 C -0.0034(3) 0.7456(3) 0.9872(2)
H23 H -0.0617 0.7361 0.9426
C28 C 0.0752(3) 0.8228(2) 1.00557(19)
C29 C 0.0857(3) 0.9016(2) 0.9694(2)
C30 C 0.0231(3) 0.9107(3) 0.8968(2)
C31 C -0.1214(5) 0.8396(4) 0.7753(3)
H24 H -0.1516 0.8937 0.7913
H25 H -0.1733 0.7856 0.7669
H26 H -0.1023 0.8417 0.7270
C32 C 0.0271(4) 0.7569(3) 0.8195(2)
H27 H 0.0896 0.7600 0.8625
H28 H 0.0483 0.7570 0.7716
H29 H -0.0215 0.7013 0.8126
H30 H -0.009(3) 1.005(3) 0.840(2)
N5 N 0.5420(3) 0.4249(3) 0.3118(2)
N6 N 0.4127(3) 0.3688(2) 0.3674(2)
C33 C 0.3071(3) 0.5363(3) 0.33072(17)
C34 C 0.2123(3) 0.4770(3) 0.3202(2)
H31 H 0.2138 0.4161 0.3245
C35 C 0.1148(3) 0.5111(4) 0.3031(2)
H32 H 0.0509 0.4716 0.2945
C36 C 0.1115(4) 0.6008(4) 0.2988(2)
H33 H 0.0459 0.6225 0.2901
C37 C 0.2048(5) 0.6602(4) 0.3072(2)
H34 H 0.2014 0.7208 0.3025
C38 C 0.3024(3) 0.6293(3) 0.32258(18)
C39 C 0.4093(4) 0.6733(3) 0.3299(2)
C40 C 0.4483(5) 0.7631(3) 0.3259(3)
H35 H 0.4019 0.8058 0.3173
C41 C 0.5572(7) 0.7865(4) 0.3349(3)
H36 H 0.5838 0.8451 0.3311
C42 C 0.6266(5) 0.7244(4) 0.3495(3)
H37 H 0.6996 0.7422 0.3563
C43 C 0.5908(3) 0.6376(3) 0.3541(2)
H38 H 0.6393 0.5971 0.3654
C44 C 0.4800(3) 0.6088(3) 0.34176(18)
C45 C 0.4181(3) 0.5223(2) 0.34257(18)
C46 C 0.4591(3) 0.4405(3) 0.3435(2)
C47 C 0.3749(4) 0.3880(4) 0.4397(3)
H39 H 0.3642 0.4513 0.4507
H40 H 0.4277 0.3769 0.4836
H41 H 0.3083 0.3484 0.4315
C48 C 0.4334(4) 0.2749(3) 0.3434(4)
H42 H 0.4578 0.2695 0.2964
H43 H 0.3684 0.2322 0.3327
H44 H 0.4876 0.2614 0.3852
H45 H 0.580(4) 0.399(3) 0.335(3)
N7 N 0.6355(3) 0.2492(2) 0.1621(2)
N8 N 0.6665(2) 0.10097(19) 0.16844(15)
C49 C 0.6750(2) 0.1689(2) 0.34688(16)
C50 C 0.6238(2) 0.0797(2) 0.34083(19)
H46 H 0.6034 0.0376 0.2922
C51 C 0.6038(3) 0.0543(3) 0.4065(2)
H47 H 0.5722 -0.0059 0.4020
C52 C 0.6295(3) 0.1160(3) 0.4791(2)
H48 H 0.6138 0.0975 0.5225
C53 C 0.6775(3) 0.2035(3) 0.48710(18)
H49 H 0.6942 0.2452 0.5358
C54 C 0.7021(2) 0.2311(2) 0.42183(16)
C55 C 0.7495(2) 0.3192(2) 0.41338(18)
C56 C 0.7914(3) 0.4015(3) 0.4687(2)
H50 H 0.7904 0.4066 0.5212
C57 C 0.8344(4) 0.4754(3) 0.4449(3)
H51 H 0.8636 0.5306 0.4818
C58 C 0.8347(3) 0.4684(3) 0.3642(3)
H52 H 0.8637 0.5193 0.3490
C59 C 0.7931(3) 0.3878(2) 0.3089(2)
H53 H 0.7945 0.3836 0.2566
C60 C 0.7478(2) 0.3109(2) 0.33213(18)
C61 C 0.7010(2) 0.2183(2) 0.28967(16)
C62 C 0.6695(3) 0.1884(2) 0.20648(18)
C63 C 0.7417(3) 0.0440(3) 0.1999(2)
H54 H 0.7736 0.0693 0.2555
H55 H 0.7969 0.0420 0.1727
H56 H 0.7047 -0.0174 0.1925
C64 C 0.6108(3) 0.0701(3) 0.08262(19)
H57 H 0.5627 0.1121 0.0672
H58 H 0.5707 0.0094 0.0724
H59 H 0.6629 0.0688 0.0527
H60 H 0.635(4) 0.253(3) 0.118(3)
N9 N 0.4761(4) 0.5845(2) 0.1445(2)
N10 N 0.3467(2) 0.4540(2) 0.11730(16)
C65 C 0.4901(3) 0.3570(2) 0.02510(16)
C66 C 0.3915(3) 0.3057(2) -0.02292(18)
H61 H 0.3270 0.3239 -0.0172
C67 C 0.3914(3) 0.2281(3) -0.0786(2)
H62 H 0.3261 0.1931 -0.1093
C68 C 0.4860(4) 0.2008(3) -0.0900(2)
H63 H 0.4835 0.1477 -0.1276
C69 C 0.5831(3) 0.2516(3) -0.0463(2)
H64 H 0.6467 0.2339 -0.0543
C70 C 0.5851(3) 0.3305(2) 0.01060(17)
C71 C 0.6757(3) 0.3989(2) 0.06185(19)
C72 C 0.7850(3) 0.4038(3) 0.0699(2)
H65 H 0.8110 0.3585 0.0394
C73 C 0.8542(4) 0.4757(4) 0.1233(3)
H66 H 0.9279 0.4796 0.1297
C74 C 0.8144(4) 0.5428(3) 0.1676(3)
H67 H 0.8624 0.5921 0.2028
C75 C 0.7057(3) 0.5394(3) 0.1616(2)
H68 H 0.6813 0.5848 0.1932
C76 C 0.6336(3) 0.4666(2) 0.10731(18)
C77 C 0.5164(3) 0.4404(2) 0.08710(17)
C78 C 0.4452(3) 0.4915(2) 0.11622(17)
C79 C 0.3264(3) 0.3649(3) 0.1357(2)
H69 H 0.3872 0.3336 0.1347
H70 H 0.2637 0.3288 0.0972
H71 H 0.3150 0.3730 0.1875
C80 C 0.2598(3) 0.5093(3) 0.1171(2)
H72 H 0.2798 0.5669 0.1042
H73 H 0.2472 0.5207 0.1686
H74 H 0.1954 0.4764 0.0783
H75 H 0.445(4) 0.604(4) 0.171(3)
loop_
_geom_bond_atom_site_label_1
_geom_bond_atom_site_label_2
_geom_bond_site_symmetry_1
_geom_bond_site_symmetry_2
N1 C14 1_555 1_555
N2 C14 1_555 1_555
C1 C2 1_555 1_555
C2 H1 1_555 1_555
C3 C2 1_555 1_555
H2 C3 1_555 1_555
C4 C3 1_555 1_555
H3 C4 1_555 1_555
C5 C4 1_555 1_555
H4 C5 1_555 1_555
C6 C1 1_555 1_555
C7 C6 1_555 1_555
C8 C7 1_555 1_555
H5 C8 1_555 1_555
C9 C8 1_555 1_555
H6 C9 1_555 1_555
C10 C9 1_555 1_555
H7 C10 1_555 1_555
C11 C10 1_555 1_555
H8 C11 1_555 1_555
C12 C7 1_555 1_555
C13 C1 1_555 1_555
C14 C13 1_555 1_555
C15 N2 1_555 1_555
H9 C15 1_555 1_555
H10 C15 1_555 1_555
H11 C15 1_555 1_555
C16 N2 1_555 1_555
H12 C16 1_555 1_555
H13 C16 1_555 1_555
H14 C16 1_555 1_555
H15 N1 1_555 1_555
N3 C30 1_555 1_555
N4 C30 1_555 1_555
C17 C18 1_555 1_555
C18 H16 1_555 1_555
C19 C18 1_555 1_555
H17 C19 1_555 1_555
C20 C19 1_555 1_555
H18 C20 1_555 1_555
C21 C20 1_555 1_555
H19 C21 1_555 1_555
C22 C17 1_555 1_555
C23 C22 1_555 1_555
C24 C23 1_555 1_555
H20 C24 1_555 1_555
C25 C24 1_555 1_555
H21 C25 1_555 1_555
C26 C25 1_555 1_555
H22 C26 1_555 1_555
C27 C26 1_555 1_555
H23 C27 1_555 1_555
C28 C23 1_555 1_555
C29 C17 1_555 1_555
C30 C29 1_555 1_555
C31 N4 1_555 1_555
H24 C31 1_555 1_555
H25 C31 1_555 1_555
H26 C31 1_555 1_555
C32 N4 1_555 1_555
H27 C32 1_555 1_555
H28 C32 1_555 1_555
H29 C32 1_555 1_555
H30 N3 1_555 1_555
N5 C46 1_555 1_555
N6 C46 1_555 1_555
C33 C34 1_555 1_555
C34 H31 1_555 1_555
C35 C34 1_555 1_555
H32 C35 1_555 1_555
C36 C35 1_555 1_555
H33 C36 1_555 1_555
C37 C36 1_555 1_555
H34 C37 1_555 1_555
C38 C33 1_555 1_555
C39 C38 1_555 1_555
C40 C39 1_555 1_555
H35 C40 1_555 1_555
C41 C40 1_555 1_555
H36 C41 1_555 1_555
C42 C41 1_555 1_555
H37 C42 1_555 1_555
C43 C42 1_555 1_555
H38 C43 1_555 1_555
C44 C39 1_555 1_555
C45 C33 1_555 1_555
C46 C45 1_555 1_555
C47 N6 1_555 1_555
H39 C47 1_555 1_555
H40 C47 1_555 1_555
H41 C47 1_555 1_555
C48 N6 1_555 1_555
H42 C48 1_555 1_555
H43 C48 1_555 1_555
H44 C48 1_555 1_555
H45 N5 1_555 1_555
N7 C62 1_555 1_555
N8 C62 1_555 1_555
C49 C50 1_555 1_555
C50 H46 1_555 1_555
C51 C50 1_555 1_555
H47 C51 1_555 1_555
C52 C51 1_555 1_555
H48 C52 1_555 1_555
C53 C52 1_555 1_555
H49 C53 1_555 1_555
C54 C49 1_555 1_555
C55 C54 1_555 1_555
C56 C55 1_555 1_555
H50 C56 1_555 1_555
C57 C56 1_555 1_555
H51 C57 1_555 1_555
C58 C57 1_555 1_555
H52 C58 1_555 1_555
C59 C58 1_555 1_555
H53 C59 1_555 1_555
C60 C55 1_555 1_555
C61 C49 1_555 1_555
C62 C61 1_555 1_555
C63 N8 1_555 1_555
H54 C63 1_555 1_555
H55 C63 1_555 1_555
H56 C63 1_555 1_555
C64 N8 1_555 1_555
H57 C64 1_555 1_555
H58 C64 1_555 1_555
H59 C64 1_555 1_555
H60 N7 1_555 1_555
N9 C78 1_555 1_555
N10 C78 1_555 1_555
C65 C66 1_555 1_555
C66 H61 1_555 1_555
C67 C66 1_555 1_555
H62 C67 1_555 1_555
C68 C67 1_555 1_555
H63 C68 1_555 1_555
C69 C68 1_555 1_555
H64 C69 1_555 1_555
C70 C65 1_555 1_555
C71 C70 1_555 1_555
C72 C71 1_555 1_555
H65 C72 1_555 1_555
C73 C72 1_555 1_555
H66 C73 1_555 1_555
C74 C73 1_555 1_555
H67 C74 1_555 1_555
C75 C74 1_555 1_555
H68 C75 1_555 1_555
C76 C71 1_555 1_555
C77 C65 1_555 1_555
C78 C77 1_555 1_555
C79 N10 1_555 1_555
H69 C79 1_555 1_555
H70 C79 1_555 1_555
H71 C79 1_555 1_555
C80 N10 1_555 1_555
H72 C80 1_555 1_555
H73 C80 1_555 1_555
H74 C80 1_555 1_555
H75 N9 1_555 1_555
C5 C6 1_555 1_555
C11 C12 1_555 1_555
C12 C13 1_555 1_555
C21 C22 1_555 1_555
C27 C28 1_555 1_555
C28 C29 1_555 1_555
C37 C38 1_555 1_555
C43 C44 1_555 1_555
C44 C45 1_555 1_555
C53 C54 1_555 1_555
C59 C60 1_555 1_555
C60 C61 1_555 1_555
C69 C70 1_555 1_555
C75 C76 1_555 1_555
C76 C77 1_555 1_555

#END
