
#######################################################################
#
#                 Cambridge Crystallographic Data Centre
#                                CCDC 
#
#######################################################################
#
# If this CIF has been generated from an entry in the Cambridge 
# Structural Database, then it will include bibliographic, chemical, 
# crystal, experimental, refinement or atomic coordinate data resulting 
# from the CCDC's data processing and validation procedures.
#
#######################################################################

data_ARIVUS
_chemical_formula_moiety         'C18 H20 O1'
_chemical_name_systematic        
9-Ethoxy-9-(2-methylphenyl)bicyclo[4.2.1]nona-2,4,7-triene
_symmetry_cell_setting           monoclinic
_symmetry_space_group_name_H-M   'P 21'
_symmetry_Int_Tables_number      4
_space_group_name_Hall           'P 2yb'
loop_
_symmetry_equiv_pos_site_id
_symmetry_equiv_pos_as_xyz
1 x,y,z
2 -x,1/2+y,-z
_cell_length_a                   12.864(2)
_cell_length_b                   7.629(3)
_cell_length_c                   14.550(5)
_cell_angle_alpha                90
_cell_angle_beta                 94.91(2)
_cell_angle_gamma                90
_cell_volume                     1422.69
_exptl_crystal_colour            colorless
_exptl_crystal_description       prismatic
_chemical_melting_point          80deg.C
_cell_formula_units_Z            4
_exptl_crystal_recrystallization_method 'petroleum ether/dichloromethane'
loop_
_atom_site_label
_atom_site_type_symbol
_atom_site_fract_x
_atom_site_fract_y
_atom_site_fract_z
O1 O 0.7062(1) 0.3987 0.9371(1)
C1 C 0.7707(2) 0.4042(5) 1.0221(2)
C2 C 0.8893(2) 0.3903(5) 1.0070(2)
C3 C 0.9375(2) 0.4967(5) 1.0868(2)
C4 C 0.8703(3) 0.6036(5) 1.1194(2)
C5 C 0.7643(2) 0.5902(5) 1.0644(2)
C6 C 0.7581(2) 0.7382(5) 0.9962(2)
C7 C 0.8100(2) 0.7503(6) 0.9205(2)
C8 C 0.8828(3) 0.6284(6) 0.8849(2)
C9 C 0.9178(2) 0.4753(6) 0.9197(2)
C10 C 0.7345(2) 0.2663(5) 1.0891(2)
C11 C 0.8070(3) 0.1642(5) 1.1428(2)
C12 C 0.7752(4) 0.0370(6) 1.2030(2)
C13 C 0.6705(4) 0.0068(6) 1.2095(3)
C14 C 0.5987(3) 0.1076(6) 1.1576(3)
C15 C 0.6276(3) 0.2413(6) 1.0990(2)
C16 C 0.5397(3) 0.3473(7) 1.0499(3)
C17 C 0.7133(3) 0.2386(5) 0.8875(2)
C18 C 0.6393(3) 0.2499(7) 0.8027(3)
H1 H 0.9091 0.2652 1.0074
H2 H 1.0088 0.4843 1.1032
H3 H 0.8820 0.6939 1.1622
H4 H 0.7113 0.5962 1.1019
H5 H 0.7240 0.8401 1.0034
H6 H 0.7945 0.8605 0.8840
H7 H 0.9041 0.6589 0.8287
H8 H 0.9675 0.4228 0.8900
H9 H 0.8881 0.1843 1.1314
H10 H 0.8243 -0.0392 1.2358
H11 H 0.6501 -0.0957 1.2561
H12 H 0.5232 0.0835 1.1660
H13 H 0.4645 0.3469 1.0851
H14 H 0.5331 0.2991 0.9842
H15 H 0.5492 0.4599 1.0560
H16 H 0.7089 0.1389 0.9257
H17 H 0.7907 0.2273 0.8664
H18 H 0.5698 0.2451 0.8191
H19 H 0.6517 0.1535 0.7631
H20 H 0.6506 0.3562 0.7713
O2 O 0.2952(1) 0.4039(4) 0.4032(1)
C19 C 0.2317(2) 0.4047(5) 0.4784(2)
C20 C 0.1140(2) 0.3775(5) 0.4466(2)
C21 C 0.0631(2) 0.4743(6) 0.5211(2)
C22 C 0.1272(2) 0.5917(5) 0.5621(2)
C23 C 0.2326(2) 0.5904(5) 0.5224(2)
C24 C 0.2315(2) 0.7400(5) 0.4552(2)
C25 C 0.1765(3) 0.7517(6) 0.3727(2)
C26 C 0.1063(3) 0.6231(6) 0.3271(2)
C27 C 0.0796(2) 0.4663(6) 0.3558(2)
C28 C 0.2723(2) 0.2708(5) 0.5521(2)
C29 C 0.2052(2) 0.1631(5) 0.5957(2)
C30 C 0.2396(3) 0.0377(5) 0.6602(2)
C31 C 0.3463(3) 0.0164(6) 0.6809(2)
C32 C 0.4140(3) 0.1222(5) 0.6401(2)
C33 C 0.3807(2) 0.2540(5) 0.5768(2)
C34 C 0.4626(2) 0.3680(6) 0.5408(3)
C35 C 0.2930(2) 0.2426(5) 0.3530(2)
C36 C 0.3728(3) 0.2501(6) 0.2854(3)
H21 H 0.0965 0.2549 0.4423
H22 H -0.0117 0.4542 0.5313
H23 H 0.1113 0.6668 0.6067
H24 H 0.3033 0.6028 0.5639
H25 H 0.2642 0.8358 0.4718
H26 H 0.1965 0.8625 0.3357
H27 H 0.0835 0.6695 0.2591
H28 H 0.0346 0.4016 0.3191
H29 H 0.1325 0.1771 0.5842
H30 H 0.1919 -0.0227 0.6897
H31 H 0.3643 -0.0752 0.7223
H32 H 0.4937 0.1104 0.6431
H33 H 0.5170 0.3937 0.5780
H34 H 0.5095 0.2766 0.5315
H35 H 0.4488 0.5014 0.5206
H36 H 0.3127 0.1426 0.3980
H37 H 0.2313 0.2081 0.3244
H38 H 0.4376 0.2718 0.3229
H39 H 0.3729 0.3608 0.2489
H40 H 0.3566 0.1335 0.2433
loop_
_geom_bond_atom_site_label_1
_geom_bond_atom_site_label_2
_geom_bond_site_symmetry_1
_geom_bond_site_symmetry_2
O1 C1 1_555 1_555
O2 C19 1_555 1_555
C1 C2 1_555 1_555
C2 C3 1_555 1_555
C3 C4 1_555 1_555
C4 C5 1_555 1_555
C5 C1 1_555 1_555
C6 C5 1_555 1_555
C7 C6 1_555 1_555
C8 C7 1_555 1_555
C9 C2 1_555 1_555
C10 C1 1_555 1_555
C11 C10 1_555 1_555
C12 C11 1_555 1_555
C13 C12 1_555 1_555
C14 C13 1_555 1_555
C15 C10 1_555 1_555
C16 C15 1_555 1_555
C17 O1 1_555 1_555
C18 C17 1_555 1_555
C19 C20 1_555 1_555
C20 C21 1_555 1_555
C21 C22 1_555 1_555
C22 C23 1_555 1_555
C23 C19 1_555 1_555
C24 C23 1_555 1_555
C25 C24 1_555 1_555
C26 C25 1_555 1_555
C27 C20 1_555 1_555
C28 C19 1_555 1_555
C29 C28 1_555 1_555
C30 C29 1_555 1_555
C31 C30 1_555 1_555
C32 C31 1_555 1_555
C33 C28 1_555 1_555
C34 C33 1_555 1_555
C35 O2 1_555 1_555
C36 C35 1_555 1_555
H1 C2 1_555 1_555
H2 C3 1_555 1_555
H3 C4 1_555 1_555
H4 C5 1_555 1_555
H5 C6 1_555 1_555
H6 C7 1_555 1_555
H7 C8 1_555 1_555
H8 C9 1_555 1_555
H9 C11 1_555 1_555
H10 C12 1_555 1_555
H11 C13 1_555 1_555
H12 C14 1_555 1_555
H13 C16 1_555 1_555
H14 C16 1_555 1_555
H15 C16 1_555 1_555
H16 C17 1_555 1_555
H17 C17 1_555 1_555
H18 C18 1_555 1_555
H19 C18 1_555 1_555
H20 C18 1_555 1_555
H21 C20 1_555 1_555
H22 C21 1_555 1_555
H23 C22 1_555 1_555
H24 C23 1_555 1_555
H25 C24 1_555 1_555
H26 C25 1_555 1_555
H27 C26 1_555 1_555
H28 C27 1_555 1_555
H29 C29 1_555 1_555
H30 C30 1_555 1_555
H31 C31 1_555 1_555
H32 C32 1_555 1_555
H33 C34 1_555 1_555
H34 C34 1_555 1_555
H35 C34 1_555 1_555
H36 C35 1_555 1_555
H37 C35 1_555 1_555
H38 C36 1_555 1_555
H39 C36 1_555 1_555
H40 C36 1_555 1_555
C8 C9 1_555 1_555
C14 C15 1_555 1_555
C26 C27 1_555 1_555
C32 C33 1_555 1_555

#END
