
#######################################################################
#
#                 Cambridge Crystallographic Data Centre
#                                CCDC 
#
#######################################################################
#
# If this CIF has been generated from an entry in the Cambridge 
# Structural Database, then it will include bibliographic, chemical, 
# crystal, experimental, refinement or atomic coordinate data resulting 
# from the CCDC's data processing and validation procedures.
#
#######################################################################

data_ARIWAZ
_chemical_formula_moiety         'C18 H20 O1'
_chemical_name_systematic        
2-Ethoxy-9-(4-methylphenyl)bicyclo[4.2.1]nona-2,4,7-triene
_symmetry_cell_setting           monoclinic
_symmetry_space_group_name_H-M   'P 21/n'
_symmetry_Int_Tables_number      14
_space_group_name_Hall           '-P 2yn'
loop_
_symmetry_equiv_pos_site_id
_symmetry_equiv_pos_as_xyz
1 x,y,z
2 1/2+x,1/2-y,1/2+z
3 -x,-y,-z
4 1/2-x,1/2+y,1/2-z
_cell_length_a                   13.282(3)
_cell_length_b                   6.162(5)
_cell_length_c                   17.551(7)
_cell_angle_alpha                90
_cell_angle_beta                 96.49(3)
_cell_angle_gamma                90
_cell_volume                     1427.23
_exptl_crystal_colour            colorless
_exptl_crystal_description       prismatic
_chemical_melting_point          86deg.C
_cell_formula_units_Z            4
_exptl_crystal_recrystallization_method 'petroleum ether/dichloromethane'
loop_
_atom_site_label
_atom_site_type_symbol
_atom_site_fract_x
_atom_site_fract_y
_atom_site_fract_z
O1 O 0.6116(5) 0.160(1) 0.8337(4)
C1 C 0.4404(7) 0.130(2) 0.6580(5)
C2 C 0.4828(9) 0.241(2) 0.5897(5)
C3 C 0.5831(9) 0.144(2) 0.5745(6)
C4 C 0.6555(8) 0.078(2) 0.6276(7)
C5 C 0.6655(7) 0.076(2) 0.7099(6)
C6 C 0.5974(8) 0.156(2) 0.7539(6)
C7 C 0.4942(8) 0.255(2) 0.7277(5)
C8 C 0.5126(7) 0.477(2) 0.6953(6)
C9 C 0.5043(8) 0.467(2) 0.6187(6)
C10 C 0.3250(7) 0.135(2) 0.6510(5)
C11 C 0.2739(8) -0.041(2) 0.6185(6)
C12 C 0.1684(9) -0.041(2) 0.6045(5)
C13 C 0.1143(8) 0.138(2) 0.6239(6)
C14 C 0.1659(9) 0.316(2) 0.6602(6)
C15 C 0.2720(8) 0.314(2) 0.6741(6)
C16 C 0.0001(8) 0.150(2) 0.6050(6)
C17 C 0.7020(8) 0.066(2) 0.8701(6)
C18 C 0.7016(8) 0.087(2) 0.9557(6)
H1 H 0.4655 -0.0216 0.6592
H2 H 0.4303 0.2369 0.5428
H3 H 0.5930 0.1263 0.5177
H4 H 0.7165 0.0233 0.6043
H5 H 0.7461 -0.0164 0.7435
H6 H 0.4679 0.2830 0.7895
H7 H 0.5291 0.6072 0.7240
H8 H 0.5086 0.5896 0.5849
H9 H 0.3259 -0.2121 0.6154
H10 H 0.1308 -0.1733 0.5785
H11 H 0.1205 0.4786 0.6756
H12 H 0.3268 0.4597 0.7041
H13 H -0.0167 0.2954 0.5828
H14 H -0.0273 0.0466 0.5712
H15 H -0.0319 0.1465 0.6519
H16 H 0.7055 -0.0938 0.8590
H17 H 0.7632 0.1241 0.8554
H18 H 0.7606 0.0188 0.9826
H19 H 0.7029 0.2362 0.9674
H20 H 0.6430 0.0209 0.9706
loop_
_geom_bond_atom_site_label_1
_geom_bond_atom_site_label_2
_geom_bond_site_symmetry_1
_geom_bond_site_symmetry_2
O1 C6 1_555 1_555
C1 C2 1_555 1_555
C2 C3 1_555 1_555
C3 C4 1_555 1_555
C4 C5 1_555 1_555
C5 C6 1_555 1_555
C6 C7 1_555 1_555
C7 C1 1_555 1_555
C8 C7 1_555 1_555
C9 C2 1_555 1_555
C10 C1 1_555 1_555
C11 C10 1_555 1_555
C12 C11 1_555 1_555
C13 C12 1_555 1_555
C14 C13 1_555 1_555
C15 C10 1_555 1_555
C16 C13 1_555 1_555
C17 O1 1_555 1_555
C18 C17 1_555 1_555
H1 C1 1_555 1_555
H2 C2 1_555 1_555
H3 C3 1_555 1_555
H4 C4 1_555 1_555
H5 C5 1_555 1_555
H6 C7 1_555 1_555
H7 C8 1_555 1_555
H8 C9 1_555 1_555
H9 C11 1_555 1_555
H10 C12 1_555 1_555
H11 C14 1_555 1_555
H12 C15 1_555 1_555
H13 C16 1_555 1_555
H14 C16 1_555 1_555
H15 C16 1_555 1_555
H16 C17 1_555 1_555
H17 C17 1_555 1_555
H18 C18 1_555 1_555
H19 C18 1_555 1_555
H20 C18 1_555 1_555
C8 C9 1_555 1_555
C14 C15 1_555 1_555

#END
