
#######################################################################
#
#                 Cambridge Crystallographic Data Centre
#                                CCDC 
#
#######################################################################
#
# If this CIF has been generated from an entry in the Cambridge 
# Structural Database, then it will include bibliographic, chemical, 
# crystal, experimental, refinement or atomic coordinate data resulting 
# from the CCDC's data processing and validation procedures.
#
#######################################################################

data_AROCER
_chemical_formula_moiety         
'C36 H32 N4 2+,C22 H28 N3 2+,4(F6 P1 1-),1.5(C2 H3 N1)'
_chemical_name_systematic        
'1,6(1,4)-dibenzena-3,8(1,4)-dipyridinia-4,9(4,1)-dipyridinacyclodecaphane diradical 1-(2-(3,5-dimethylpyridinium-1-yl)ethyl)-4-(1-(n-propyl)pyridin-4-yl)pyridinium radical tetrakis(hexafluorophosphate) acetonitrile unknown solvate'
_symmetry_cell_setting           triclinic
_symmetry_space_group_name_H-M   'P -1'
_symmetry_Int_Tables_number      2
_space_group_name_Hall           '-P 1'
loop_
_symmetry_equiv_pos_site_id
_symmetry_equiv_pos_as_xyz
1 x,y,z
2 -x,-y,-z
_cell_length_a                   13.8924(9)
_cell_length_b                   19.3041(11)
_cell_length_c                   28.5592(17)
_cell_angle_alpha                87.962(4)
_cell_angle_beta                 83.733(4)
_cell_angle_gamma                75.084(4)
_cell_volume                     7356.49
_exptl_crystal_colour            colorless
_exptl_crystal_description       block
_cell_formula_units_Z            4
loop_
_atom_site_label
_atom_site_type_symbol
_atom_site_fract_x
_atom_site_fract_y
_atom_site_fract_z
N1 N -0.3743(8) -0.3946(4) -0.1730(3)
N2 N 0.1490(7) -0.4923(4) -0.1693(3)
N3 N 0.1470(7) -0.1621(4) -0.1932(4)
N4 N -0.3758(7) -0.0655(4) -0.2003(4)
C1 C -0.3356(9) -0.4008(5) -0.1311(4)
H1 H -0.3790 -0.3916 -0.1027
C2 C -0.2358(9) -0.4199(5) -0.1299(4)
H2 H -0.2104 -0.4249 -0.1000
C3 C -0.1672(9) -0.4330(5) -0.1705(4)
C4 C -0.2123(9) -0.4285(5) -0.2150(4)
H3 H -0.1715 -0.4398 -0.2440
C5 C -0.3134(9) -0.4078(5) -0.2138(4)
H4 H -0.3427 -0.4025 -0.2427
C6 C -0.0617(9) -0.4532(5) -0.1706(4)
C7 C -0.0133(9) -0.4600(5) -0.1273(4)
H5 H -0.0531 -0.4511 -0.0979
C8 C 0.0872(9) -0.4786(5) -0.1286(4)
H6 H 0.1163 -0.4825 -0.0997
C9 C 0.1054(9) -0.4867(5) -0.2117(4)
H7 H 0.1476 -0.4960 -0.2405
C10 C 0.0075(9) -0.4691(5) -0.2129(4)
H8 H -0.0185 -0.4666 -0.2425
C11 C 0.2561(8) -0.4966(5) -0.1707(4)
H9 H 0.2934 -0.5268 -0.1974
H10 H 0.2818 -0.5185 -0.1412
C12 C 0.2708(9) -0.4223(6) -0.1765(4)
C13 C 0.2840(9) -0.3926(5) -0.2212(4)
H11 H 0.2940 -0.4215 -0.2484
C14 C 0.2823(9) -0.3205(5) -0.2255(4)
H12 H 0.2914 -0.3005 -0.2560
C15 C 0.2679(9) -0.2773(6) -0.1867(4)
C16 C 0.2565(8) -0.3068(5) -0.1425(4)
H13 H 0.2470 -0.2773 -0.1156
C17 C 0.2586(9) -0.3803(6) -0.1365(4)
H14 H 0.2519 -0.4005 -0.1058
C18 C 0.2529(9) -0.1962(5) -0.1921(5)
H15 H 0.2782 -0.1775 -0.1654
H16 H 0.2908 -0.1852 -0.2217
C19 C 0.0836(9) -0.1560(5) -0.1537(4)
H17 H 0.1112 -0.1671 -0.1246
C20 C -0.0172(9) -0.1351(5) -0.1530(4)
H18 H -0.0584 -0.1313 -0.1239
C21 C -0.0622(10) -0.1185(5) -0.1968(4)
C22 C 0.0076(9) -0.1240(5) -0.2374(4)
H19 H -0.0169 -0.1120 -0.2672
C23 C 0.1064(10) -0.1455(5) -0.2354(4)
H20 H 0.1499 -0.1494 -0.2638
C24 C -0.1668(9) -0.1009(5) -0.1969(4)
C25 C -0.2355(9) -0.0930(5) -0.1563(4)
H21 H -0.2100 -0.0996 -0.1264
C26 C -0.3362(10) -0.0763(5) -0.1574(4)
H22 H -0.3794 -0.0721 -0.1289
C27 C -0.3161(10) -0.0702(5) -0.2404(5)
H23 H -0.3451 -0.0623 -0.2694
C28 C -0.2141(10) -0.0860(5) -0.2411(4)
H24 H -0.1737 -0.0874 -0.2703
C29 C -0.4860(10) -0.0609(5) -0.2001(5)
H25 H -0.5248 -0.0309 -0.1736
H26 H -0.5104 -0.0390 -0.2299
C30 C -0.4986(8) -0.1359(5) -0.1950(4)
C31 C -0.5172(9) -0.1633(6) -0.1508(4)
H27 H -0.5312 -0.1325 -0.1244
C32 C -0.5161(10) -0.2349(6) -0.1442(4)
H28 H -0.5286 -0.2527 -0.1133
C33 C -0.4966(9) -0.2814(6) -0.1827(4)
C34 C -0.4829(9) -0.2524(6) -0.2271(4)
H29 H -0.4733 -0.2821 -0.2539
C35 C -0.4828(8) -0.1803(5) -0.2335(4)
H30 H -0.4720 -0.1618 -0.2643
C36 C -0.4823(9) -0.3612(5) -0.1763(4)
H31 H -0.5223 -0.3712 -0.1472
H32 H -0.5047 -0.3812 -0.2033
N5 N -0.3791(7) 0.4329(4) -0.2096(3)
N6 N 0.1433(7) 0.3366(4) -0.1989(3)
N7 N 0.1478(7) 0.0065(4) -0.1735(3)
N8 N -0.3757(8) 0.1032(4) -0.1826(4)
C37 C -0.3179(10) 0.4196(5) -0.2492(4)
H33 H -0.3451 0.4221 -0.2785
C38 C -0.2165(9) 0.4024(5) -0.2482(4)
H34 H -0.1747 0.3954 -0.2772
C39 C -0.1712(9) 0.3947(4) -0.2055(4)
C40 C -0.2421(9) 0.4088(5) -0.1637(4)
H35 H -0.2174 0.4040 -0.1337
C41 C -0.3408(9) 0.4282(5) -0.1659(4)
H36 H -0.3851 0.4390 -0.1379
C42 C -0.0665(9) 0.3746(5) -0.2036(4)
C43 C 0.0047(9) 0.3629(5) -0.2440(4)
H37 H -0.0185 0.3689 -0.2743
C44 C 0.1036(10) 0.3438(5) -0.2409(4)
H38 H 0.1478 0.3348 -0.2691
C45 C 0.0783(9) 0.3470(5) -0.1585(4)
H39 H 0.1043 0.3403 -0.1288
C46 C -0.0224(9) 0.3665(5) -0.1601(4)
H40 H -0.0650 0.3751 -0.1314
C47 C 0.2494(9) 0.3031(6) -0.1955(5)
H41 H 0.2719 0.3235 -0.1686
H42 H 0.2895 0.3129 -0.2246
C48 C 0.2654(8) 0.2236(5) -0.1887(4)
C49 C 0.2517(8) 0.1947(6) -0.1446(4)
H43 H 0.2412 0.2242 -0.1176
C50 C 0.2533(9) 0.1220(6) -0.1391(4)
H44 H 0.2420 0.1028 -0.1085
C51 C 0.2709(9) 0.0785(6) -0.1773(4)
C52 C 0.2845(9) 0.1076(5) -0.2222(4)
H45 H 0.2949 0.0779 -0.2491
C53 C 0.2830(9) 0.1794(5) -0.2280(4)
H46 H 0.2940 0.1985 -0.2586
C54 C 0.2544(9) 0.0045(5) -0.1732(4)
H47 H 0.2939 -0.0250 -0.1998
H48 H 0.2784 -0.0182 -0.1435
C55 C 0.1071(10) 0.0166(5) -0.2162(4)
H49 H 0.1503 0.0114 -0.2448
C56 C 0.0082(9) 0.0336(5) -0.2178(4)
H50 H -0.0169 0.0411 -0.2477
C57 C -0.0618(9) 0.0411(4) -0.1766(4)
C58 C -0.0160(9) 0.0288(5) -0.1336(4)
H51 H -0.0573 0.0315 -0.1046
C59 C 0.0845(9) 0.0134(5) -0.1330(4)
H52 H 0.1117 0.0071 -0.1035
C60 C -0.1676(9) 0.0611(5) -0.1775(4)
C61 C -0.2098(9) 0.0729(5) -0.2218(4)
H53 H -0.1669 0.0655 -0.2504
C62 C -0.3106(10) 0.0947(5) -0.2228(5)
H54 H -0.3367 0.1044 -0.2524
C63 C -0.3357(10) 0.0905(5) -0.1398(4)
H55 H -0.3796 0.0968 -0.1115
C64 C -0.2349(9) 0.0692(5) -0.1373(4)
H56 H -0.2103 0.0598 -0.1073
C65 C -0.4828(9) 0.1365(6) -0.1848(5)
H57 H -0.5219 0.1257 -0.1557
H58 H -0.5064 0.1174 -0.2119
C66 C -0.4969(9) 0.2181(5) -0.1905(4)
C67 C -0.4908(9) 0.2478(6) -0.2349(4)
H59 H -0.4858 0.2189 -0.2617
C68 C -0.4921(8) 0.3182(6) -0.2408(4)
H60 H -0.4860 0.3374 -0.2717
C69 C -0.5021(9) 0.3634(6) -0.2019(4)
C70 C -0.5131(9) 0.3328(6) -0.1576(4)
H61 H -0.5225 0.3619 -0.1305
C71 C -0.5108(9) 0.2618(6) -0.1520(4)
H62 H -0.5189 0.2424 -0.1213
C72 C -0.4874(9) 0.4377(5) -0.2081(4)
H63 H -0.5130 0.4593 -0.2377
H64 H -0.5246 0.4683 -0.1815
N9 N -0.0364(10) -0.1790(5) -0.4097(4)
N10 N -0.0586(9) -0.2888(5) -0.2995(4)
N11 N -0.1577(9) -0.2838(5) -0.0529(4)
C73 C 0.0556(14) -0.1874(7) -0.4307(5)
H65 H 0.1121 -0.2078 -0.4142
C74 C 0.0680(14) -0.1654(7) -0.4786(5)
C75 C -0.0208(15) -0.1357(7) -0.4995(6)
H66 H -0.0154 -0.1194 -0.5312
C76 C -0.1128(15) -0.1293(8) -0.4770(6)
C77 C -0.1193(13) -0.1504(8) -0.4308(5)
H67 H -0.1833 -0.1448 -0.4135
C78 C 0.1711(15) -0.1727(10) -0.5023(6)
H68 H 0.2198 -0.1884 -0.4793
H69 H 0.1766 -0.1263 -0.5158
H70 H 0.1846 -0.2081 -0.5275
C79 C -0.2084(17) -0.0934(12) -0.5013(7)
H71 H -0.2586 -0.1208 -0.4938
H72 H -0.1912 -0.0925 -0.5354
H73 H -0.2357 -0.0442 -0.4898
C80 C -0.0461(13) -0.1974(6) -0.3580(4)
H74 H -0.1112 -0.1691 -0.3429
H75 H 0.0079 -0.1852 -0.3428
C81 C -0.0393(11) -0.2787(6) -0.3514(5)
H76 H -0.0902 -0.2925 -0.3682
H77 H 0.0279 -0.3078 -0.3635
C82 C 0.0201(11) -0.3049(6) -0.2720(5)
H78 H 0.0870 -0.3143 -0.2864
C83 C 0.0020(10) -0.3071(6) -0.2246(5)
H79 H 0.0571 -0.3218 -0.2063
C84 C -0.0981(9) -0.2879(5) -0.2007(4)
C85 C -0.1761(10) -0.2735(5) -0.2314(5)
H80 H -0.2442 -0.2629 -0.2184
C86 C -0.1529(11) -0.2749(6) -0.2799(5)
H81 H -0.2056 -0.2656 -0.2996
C87 C -0.1188(9) -0.2840(5) -0.1515(4)
C88 C -0.0395(10) -0.2983(5) -0.1205(4)
H82 H 0.0289 -0.3079 -0.1329
C89 C -0.0666(11) -0.2976(5) -0.0732(5)
H83 H -0.0141 -0.3082 -0.0533
C90 C -0.2348(12) -0.2653(6) -0.0805(5)
H84 H -0.3018 -0.2525 -0.0662
C91 C -0.2172(9) -0.2650(5) -0.1274(4)
H85 H -0.2726 -0.2515 -0.1455
C92 C -0.1798(11) -0.2957(6) -0.0020(4)
H86 H -0.2358 -0.2560 0.0110
H87 H -0.1203 -0.2960 0.0143
C93 C -0.2084(13) -0.3682(6) 0.0070(4)
H88 H -0.2635 -0.3698 -0.0119
H89 H -0.1500 -0.4082 -0.0030
C94 C -0.2412(16) -0.3766(7) 0.0590(5)
H90 H -0.2670 -0.4194 0.0635
H91 H -0.2939 -0.3342 0.0697
H92 H -0.1839 -0.3818 0.0771
N12 N -0.0316(9) 0.3271(5) -0.4289(3)
N13 N -0.0806(9) 0.2199(4) -0.3208(3)
N14 N -0.1444(9) 0.2202(4) -0.0730(3)
C95 C 0.0606(12) 0.3282(6) -0.4458(5)
H93 H 0.1134 0.3149 -0.4262
C96 C 0.0804(11) 0.3488(7) -0.4923(5)
C97 C 0.0016(12) 0.3655(6) -0.5186(5)
H94 H 0.0119 0.3809 -0.5503
C98 C -0.0893(12) 0.3609(6) -0.5013(5)
C99 C -0.1048(12) 0.3421(6) -0.4552(5)
H95 H -0.1699 0.3400 -0.4422
C100 C 0.1871(13) 0.3531(10) -0.5100(5)
H96 H 0.2284 0.3448 -0.4836
H97 H 0.1850 0.4008 -0.5236
H98 H 0.2160 0.3166 -0.5341
C101 C -0.1762(13) 0.3805(8) -0.5307(6)
H99 H -0.2353 0.3700 -0.5128
H100 H -0.1594 0.3524 -0.5597
H101 H -0.1906 0.4317 -0.5386
C102 C -0.0492(11) 0.3078(6) -0.3776(4)
H102 H -0.1095 0.3424 -0.3628
H103 H 0.0087 0.3112 -0.3613
C103 C -0.0635(12) 0.2314(6) -0.3717(4)
H104 H -0.1217 0.2271 -0.3875
H105 H -0.0031 0.1958 -0.3854
C104 C 0.0006(11) 0.2019(5) -0.2967(4)
H106 H 0.0658 0.1881 -0.3131
C105 C -0.0114(10) 0.2037(5) -0.2479(4)
H107 H 0.0460 0.1919 -0.2310
C106 C -0.1095(10) 0.2230(5) -0.2224(4)
C107 C -0.1901(9) 0.2374(5) -0.2490(4)
H108 H -0.2565 0.2484 -0.2338
C108 C -0.1744(11) 0.2358(5) -0.2974(4)
H109 H -0.2306 0.2461 -0.3151
C109 C -0.1194(9) 0.2253(5) -0.1716(4)
C110 C -0.0358(10) 0.2081(5) -0.1437(4)
H110 H 0.0309 0.1983 -0.1586
C111 C -0.0530(11) 0.2059(5) -0.0966(5)
H111 H 0.0032 0.1934 -0.0789
C112 C -0.2275(11) 0.2388(5) -0.0966(4)
H112 H -0.2924 0.2489 -0.0798
C113 C -0.2165(10) 0.2427(5) -0.1449(4)
H113 H -0.2745 0.2574 -0.1612
C114 C -0.1581(12) 0.2085(6) -0.0217(4)
H114 H -0.2149 0.2467 -0.0077
H115 H -0.0971 0.2117 -0.0078
C115 C -0.1783(13) 0.1351(6) -0.0096(4)
H116 H -0.1210 0.0969 -0.0232
H117 H -0.2387 0.1316 -0.0239
C116 C -0.1939(18) 0.1239(8) 0.0439(5)
H118 H -0.2557 0.1085 0.0519
H119 H -0.1991 0.1689 0.0599
H120 H -0.1370 0.0870 0.0539
N15 N 0.3052(9) 0.4317(6) -0.2854(4)
C117 C 0.3023(10) 0.4268(8) -0.3238(6)
C118 C 0.2978(12) 0.4160(10) -0.3742(5)
H121 H 0.3659 0.3992 -0.3898
H122 H 0.2640 0.4614 -0.3885
H123 H 0.2605 0.3801 -0.3777
N16 N -0.4691(10) 0.0630(7) -0.2991(5)
C119 C -0.4445(15) 0.0855(11) -0.3341(7)
C120 C -0.413(2) 0.1161(14) -0.3817(7)
H124 H -0.3575 0.0805 -0.3982
H125 H -0.3916 0.1595 -0.3768
H126 H -0.4699 0.1278 -0.4006
N17 N -0.4721(11) 0.5802(6) -0.2985(4)
C121 C -0.3348(15) 0.5617(12) -0.3719(7)
H127 H -0.3532 0.5351 -0.3966
H128 H -0.2705 0.5348 -0.3617
H129 H -0.3289 0.6087 -0.3843
C122 C -0.4139(13) 0.5719(7) -0.3308(6)
P1 P -0.1488(3) 0.40843(16) -0.01265(12)
F1 F -0.0746(7) 0.4369(4) 0.0163(3)
F2 F -0.1588(8) 0.3519(4) 0.0288(3)
F3 F -0.2200(6) 0.3795(3) -0.0424(3)
F4 F -0.1364(6) 0.4630(3) -0.0539(3)
F5 F -0.0575(6) 0.3499(3) -0.0369(3)
F6 F -0.2405(7) 0.4658(4) 0.0130(3)
P2 P -0.0170(3) 0.50480(16) -0.36252(12)
F7 F 0.0482(8) 0.5383(4) -0.3318(4)
F8 F -0.0891(7) 0.5004(5) -0.3173(3)
F9 F -0.0748(7) 0.4698(4) -0.3937(3)
F10 F 0.0602(8) 0.5098(5) -0.4061(3)
F11 F 0.0516(6) 0.4267(3) -0.3512(2)
F12 F -0.0853(7) 0.5812(3) -0.3745(3)
P3 P -0.3825(3) 0.3486(2) -0.38790(15)
F13 F -0.2927(6) 0.3636(4) -0.3618(3)
F14 F -0.3954(8) 0.2915(5) -0.3485(3)
F15 F -0.4690(9) 0.3329(7) -0.4135(4)
F16 F -0.3642(8) 0.4060(5) -0.4274(3)
F17 F -0.3014(8) 0.2864(5) -0.4156(3)
F18 F -0.4584(6) 0.4116(5) -0.3579(3)
P4 P 0.1476(4) 0.09340(17) 0.00677(13)
F19 F 0.2147(9) 0.1228(4) 0.0372(3)
F20 F 0.1439(10) 0.0349(4) 0.0435(3)
F21 F 0.0753(9) 0.0662(5) -0.0216(3)
F22 F 0.1418(9) 0.1551(4) -0.0306(3)
F23 F 0.2350(9) 0.0421(5) -0.0261(4)
F24 F 0.0576(9) 0.1467(5) 0.0361(3)
P5 P 0.2695(3) 0.19566(19) -0.37569(13)
F25 F 0.3587(7) 0.2103(4) -0.3507(3)
F26 F 0.2528(7) 0.1392(4) -0.3346(3)
F27 F 0.1749(7) 0.1824(4) -0.3997(3)
F28 F 0.2836(6) 0.2514(4) -0.4156(3)
F29 F 0.3428(7) 0.1319(4) -0.4052(3)
F30 F 0.1921(6) 0.2593(4) -0.3457(3)
P6 P -0.1239(6) 0.0293(3) -0.3714(2)
F31 F -0.0437(10) -0.0320(5) -0.3994(4)
F32 F -0.1800(10) -0.0309(5) -0.3526(4)
F33 F -0.2078(9) 0.0862(5) -0.3414(4)
F34 F -0.0692(11) 0.0869(5) -0.3921(4)
F35 F -0.0627(10) 0.0145(6) -0.3267(4)
F36 F -0.1907(10) 0.0370(5) -0.4145(4)
P8 P -0.3614(5) -0.2208(4) -0.3749(2)
F43 F -0.2515(8) -0.2560(5) -0.3961(3)
F44 F -0.3509(10) -0.2767(8) -0.3321(4)
F45 F -0.4674(10) -0.1862(9) -0.3538(5)
F46 F -0.3712(9) -0.1649(7) -0.4148(4)
F47 F -0.3996(10) -0.2738(8) -0.4060(4)
F48 F -0.3183(8) -0.1669(5) -0.3464(4)
P9 P -0.4890(8) 0.2455(9) -0.0049(3)
F49 F -0.5573(13) 0.3028(11) 0.0307(5)
F50 F -0.5006(14) 0.1850(11) 0.0342(5)
F51 F -0.4221(12) 0.1862(13) -0.0396(6)
F52 F -0.4774(15) 0.3056(13) -0.0427(5)
F53 F -0.3914(11) 0.2511(13) 0.0175(6)
F54 F -0.5864(12) 0.2390(12) -0.0264(6)
P7? P -0.0452(10) 0.0171(5) -0.3690(4)
F37? F 0.0341(14) -0.0507(8) -0.3545(7)
F38? F -0.1203(15) -0.0265(9) -0.3509(7)
F39? F -0.1294(15) 0.0858(9) -0.3847(7)
F40? F 0.0362(15) 0.0583(9) -0.3813(6)
F41? F -0.0640(16) 0.0544(9) -0.3220(6)
F42? F -0.0369(17) -0.0049(9) -0.4194(6)
P10? P -0.4838(16) 0.219(2) -0.0030(7)
F55? F -0.561(3) 0.292(2) 0.0199(13)
F56? F -0.538(3) 0.171(2) 0.0352(11)
F57? F -0.406(3) 0.145(3) -0.0251(13)
F58? F -0.434(3) 0.268(3) -0.0409(11)
F59? F -0.404(2) 0.223(3) 0.0349(14)
F60? F -0.563(3) 0.213(3) -0.0402(12)
loop_
_geom_bond_atom_site_label_1
_geom_bond_atom_site_label_2
_geom_bond_site_symmetry_1
_geom_bond_site_symmetry_2
N1 C1 1_555 1_555
N2 C8 1_555 1_555
N3 C18 1_555 1_555
N4 C26 1_555 1_555
C1 H1 1_555 1_555
C2 C1 1_555 1_555
H2 C2 1_555 1_555
C3 C2 1_555 1_555
C4 C3 1_555 1_555
H3 C4 1_555 1_555
C5 N1 1_555 1_555
H4 C5 1_555 1_555
C6 C3 1_555 1_555
C7 C6 1_555 1_555
H5 C7 1_555 1_555
C8 C7 1_555 1_555
H6 C8 1_555 1_555
C9 N2 1_555 1_555
H7 C9 1_555 1_555
C10 C6 1_555 1_555
H8 C10 1_555 1_555
C11 N2 1_555 1_555
H9 C11 1_555 1_555
H10 C11 1_555 1_555
C12 C11 1_555 1_555
C13 C12 1_555 1_555
H11 C13 1_555 1_555
C14 C13 1_555 1_555
H12 C14 1_555 1_555
C15 C14 1_555 1_555
C16 C15 1_555 1_555
H13 C16 1_555 1_555
C17 C12 1_555 1_555
H14 C17 1_555 1_555
C18 C15 1_555 1_555
H15 C18 1_555 1_555
H16 C18 1_555 1_555
C19 N3 1_555 1_555
H17 C19 1_555 1_555
C20 C19 1_555 1_555
H18 C20 1_555 1_555
C21 C20 1_555 1_555
C22 C21 1_555 1_555
H19 C22 1_555 1_555
C23 N3 1_555 1_555
H20 C23 1_555 1_555
C24 C21 1_555 1_555
C25 C24 1_555 1_555
H21 C25 1_555 1_555
C26 C25 1_555 1_555
H22 C26 1_555 1_555
C27 N4 1_555 1_555
H23 C27 1_555 1_555
C28 C24 1_555 1_555
H24 C28 1_555 1_555
C29 N4 1_555 1_555
H25 C29 1_555 1_555
H26 C29 1_555 1_555
C30 C29 1_555 1_555
C31 C30 1_555 1_555
H27 C31 1_555 1_555
C32 C31 1_555 1_555
H28 C32 1_555 1_555
C33 C32 1_555 1_555
C34 C33 1_555 1_555
H29 C34 1_555 1_555
C35 C30 1_555 1_555
H30 C35 1_555 1_555
C36 N1 1_555 1_555
H31 C36 1_555 1_555
H32 C36 1_555 1_555
N5 C37 1_555 1_555
N6 C44 1_555 1_555
N7 C54 1_555 1_555
N8 C62 1_555 1_555
C37 H33 1_555 1_555
C38 C37 1_555 1_555
H34 C38 1_555 1_555
C39 C38 1_555 1_555
C40 C39 1_555 1_555
H35 C40 1_555 1_555
C41 N5 1_555 1_555
H36 C41 1_555 1_555
C42 C39 1_555 1_555
C43 C42 1_555 1_555
H37 C43 1_555 1_555
C44 C43 1_555 1_555
H38 C44 1_555 1_555
C45 N6 1_555 1_555
H39 C45 1_555 1_555
C46 C42 1_555 1_555
H40 C46 1_555 1_555
C47 N6 1_555 1_555
H41 C47 1_555 1_555
H42 C47 1_555 1_555
C48 C47 1_555 1_555
C49 C48 1_555 1_555
H43 C49 1_555 1_555
C50 C49 1_555 1_555
H44 C50 1_555 1_555
C51 C50 1_555 1_555
C52 C51 1_555 1_555
H45 C52 1_555 1_555
C53 C48 1_555 1_555
H46 C53 1_555 1_555
C54 C51 1_555 1_555
H47 C54 1_555 1_555
H48 C54 1_555 1_555
C55 N7 1_555 1_555
H49 C55 1_555 1_555
C56 C55 1_555 1_555
H50 C56 1_555 1_555
C57 C56 1_555 1_555
C58 C57 1_555 1_555
H51 C58 1_555 1_555
C59 N7 1_555 1_555
H52 C59 1_555 1_555
C60 C57 1_555 1_555
C61 C60 1_555 1_555
H53 C61 1_555 1_555
C62 C61 1_555 1_555
H54 C62 1_555 1_555
C63 N8 1_555 1_555
H55 C63 1_555 1_555
C64 C60 1_555 1_555
H56 C64 1_555 1_555
C65 N8 1_555 1_555
H57 C65 1_555 1_555
H58 C65 1_555 1_555
C66 C65 1_555 1_555
C67 C66 1_555 1_555
H59 C67 1_555 1_555
C68 C67 1_555 1_555
H60 C68 1_555 1_555
C69 C68 1_555 1_555
C70 C69 1_555 1_555
H61 C70 1_555 1_555
C71 C66 1_555 1_555
H62 C71 1_555 1_555
C72 N5 1_555 1_555
H63 C72 1_555 1_555
H64 C72 1_555 1_555
N9 C73 1_555 1_555
N10 C81 1_555 1_555
N11 C89 1_555 1_555
C73 H65 1_555 1_555
C74 C73 1_555 1_555
C75 C74 1_555 1_555
H66 C75 1_555 1_555
C76 C75 1_555 1_555
C77 N9 1_555 1_555
H67 C77 1_555 1_555
C78 C74 1_555 1_555
H68 C78 1_555 1_555
H69 C78 1_555 1_555
H70 C78 1_555 1_555
C79 C76 1_555 1_555
H71 C79 1_555 1_555
H72 C79 1_555 1_555
H73 C79 1_555 1_555
C80 N9 1_555 1_555
H74 C80 1_555 1_555
H75 C80 1_555 1_555
C81 C80 1_555 1_555
H76 C81 1_555 1_555
H77 C81 1_555 1_555
C82 N10 1_555 1_555
H78 C82 1_555 1_555
C83 C82 1_555 1_555
H79 C83 1_555 1_555
C84 C83 1_555 1_555
C85 C84 1_555 1_555
H80 C85 1_555 1_555
C86 N10 1_555 1_555
H81 C86 1_555 1_555
C87 C84 1_555 1_555
C88 C87 1_555 1_555
H82 C88 1_555 1_555
C89 C88 1_555 1_555
H83 C89 1_555 1_555
C90 N11 1_555 1_555
H84 C90 1_555 1_555
C91 C87 1_555 1_555
H85 C91 1_555 1_555
C92 N11 1_555 1_555
H86 C92 1_555 1_555
H87 C92 1_555 1_555
C93 C92 1_555 1_555
H88 C93 1_555 1_555
H89 C93 1_555 1_555
C94 C93 1_555 1_555
H90 C94 1_555 1_555
H91 C94 1_555 1_555
H92 C94 1_555 1_555
N12 C95 1_555 1_555
N13 C103 1_555 1_555
N14 C111 1_555 1_555
C95 H93 1_555 1_555
C96 C95 1_555 1_555
C97 C96 1_555 1_555
H94 C97 1_555 1_555
C98 C97 1_555 1_555
C99 N12 1_555 1_555
H95 C99 1_555 1_555
C100 C96 1_555 1_555
H96 C100 1_555 1_555
H97 C100 1_555 1_555
H98 C100 1_555 1_555
C101 C98 1_555 1_555
H99 C101 1_555 1_555
H100 C101 1_555 1_555
H101 C101 1_555 1_555
C102 N12 1_555 1_555
H102 C102 1_555 1_555
H103 C102 1_555 1_555
C103 C102 1_555 1_555
H104 C103 1_555 1_555
H105 C103 1_555 1_555
C104 N13 1_555 1_555
H106 C104 1_555 1_555
C105 C104 1_555 1_555
H107 C105 1_555 1_555
C106 C105 1_555 1_555
C107 C106 1_555 1_555
H108 C107 1_555 1_555
C108 N13 1_555 1_555
H109 C108 1_555 1_555
C109 C106 1_555 1_555
C110 C109 1_555 1_555
H110 C110 1_555 1_555
C111 C110 1_555 1_555
H111 C111 1_555 1_555
C112 N14 1_555 1_555
H112 C112 1_555 1_555
C113 C109 1_555 1_555
H113 C113 1_555 1_555
C114 N14 1_555 1_555
H114 C114 1_555 1_555
H115 C114 1_555 1_555
C115 C114 1_555 1_555
H116 C115 1_555 1_555
H117 C115 1_555 1_555
C116 C115 1_555 1_555
H118 C116 1_555 1_555
H119 C116 1_555 1_555
H120 C116 1_555 1_555
N15 C117 1_555 1_555
C117 C118 1_555 1_555
C118 H121 1_555 1_555
H122 C118 1_555 1_555
H123 C118 1_555 1_555
N16 C119 1_555 1_555
C119 C120 1_555 1_555
C120 H124 1_555 1_555
H125 C120 1_555 1_555
H126 C120 1_555 1_555
N17 C122 1_555 1_555
C121 H127 1_555 1_555
H128 C121 1_555 1_555
H129 C121 1_555 1_555
C122 C121 1_555 1_555
P1 F1 1_555 1_555
F2 P1 1_555 1_555
F3 P1 1_555 1_555
F4 P1 1_555 1_555
F5 P1 1_555 1_555
F6 P1 1_555 1_555
P2 F7 1_555 1_555
F8 P2 1_555 1_555
F9 P2 1_555 1_555
F10 P2 1_555 1_555
F11 P2 1_555 1_555
F12 P2 1_555 1_555
P3 F13 1_555 1_555
F14 P3 1_555 1_555
F15 P3 1_555 1_555
F16 P3 1_555 1_555
F17 P3 1_555 1_555
F18 P3 1_555 1_555
P4 F19 1_555 1_555
F20 P4 1_555 1_555
F21 P4 1_555 1_555
F22 P4 1_555 1_555
F23 P4 1_555 1_555
F24 P4 1_555 1_555
P5 F25 1_555 1_555
F26 P5 1_555 1_555
F27 P5 1_555 1_555
F28 P5 1_555 1_555
F29 P5 1_555 1_555
F30 P5 1_555 1_555
P6 F31 1_555 1_555
F32 P6 1_555 1_555
F33 P6 1_555 1_555
F34 P6 1_555 1_555
F35 P6 1_555 1_555
F36 P6 1_555 1_555
P8 F43 1_555 1_555
F44 P8 1_555 1_555
F45 P8 1_555 1_555
F46 P8 1_555 1_555
F47 P8 1_555 1_555
F48 P8 1_555 1_555
P9 F49 1_555 1_555
F50 P9 1_555 1_555
F51 P9 1_555 1_555
F52 P9 1_555 1_555
F53 P9 1_555 1_555
F54 P9 1_555 1_555
C4 C5 1_555 1_555
C9 C10 1_555 1_555
C16 C17 1_555 1_555
C22 C23 1_555 1_555
C27 C28 1_555 1_555
C33 C36 1_555 1_555
C34 C35 1_555 1_555
C40 C41 1_555 1_555
C45 C46 1_555 1_555
C52 C53 1_555 1_555
C58 C59 1_555 1_555
C63 C64 1_555 1_555
C69 C72 1_555 1_555
C70 C71 1_555 1_555
C76 C77 1_555 1_555
C85 C86 1_555 1_555
C90 C91 1_555 1_555
C98 C99 1_555 1_555
C107 C108 1_555 1_555
C112 C113 1_555 1_555

#END
