
#######################################################################
#
#                 Cambridge Crystallographic Data Centre
#                                CCDC 
#
#######################################################################
#
# If this CIF has been generated from an entry in the Cambridge 
# Structural Database, then it will include bibliographic, chemical, 
# crystal, experimental, refinement or atomic coordinate data resulting 
# from the CCDC's data processing and validation procedures.
#
#######################################################################

data_ARODIW
_chemical_formula_moiety         'C20 H21 Cl2 F3 N2 O2 S1'
_chemical_name_systematic        
((2-((3-chlorobenzyl)aminio)cyclohexyl)sulfonyl)(4-chloro-2-(trifluoromethyl)phenyl)amide
_chemical_properties_biological  
'In vitro fungicidal activities of tested against nine pathogenic fungi at 50 mg/L.'
_symmetry_cell_setting           monoclinic
_symmetry_space_group_name_H-M   'P 21/c'
_symmetry_Int_Tables_number      14
_space_group_name_Hall           '-P 2ybc'
loop_
_symmetry_equiv_pos_site_id
_symmetry_equiv_pos_as_xyz
1 x,y,z
2 -x,1/2+y,1/2-z
3 -x,-y,-z
4 x,1/2-y,1/2+z
_cell_length_a                   12.689(3)
_cell_length_b                   11.004(2)
_cell_length_c                   15.383(3)
_cell_angle_alpha                90
_cell_angle_beta                 93.30(3)
_cell_angle_gamma                90
_cell_volume                     2144.36
_exptl_crystal_colour            colorless
_exptl_crystal_description       block
_cell_formula_units_Z            4
loop_
_atom_site_label
_atom_site_type_symbol
_atom_site_fract_x
_atom_site_fract_y
_atom_site_fract_z
S1 S 0.47053(3) 0.20554(4) 0.38981(3)
Cl1 Cl 0.04816(5) 0.12892(8) 0.14200(5)
Cl2 Cl -0.07128(5) 0.16764(7) 0.41647(8)
F1 F 0.30119(10) -0.10018(10) 0.27137(8)
F2 F 0.31606(11) -0.14260(11) 0.40667(8)
F3 F 0.17147(10) -0.17887(11) 0.33383(10)
O1 O 0.47799(11) 0.23343(12) 0.48162(8)
O2 O 0.46705(10) 0.31383(11) 0.33414(8)
N1 N 0.50117(12) 0.05236(13) 0.22237(9)
N2 N 0.38432(12) 0.10826(13) 0.36154(9)
C1 C 0.58759(13) 0.12586(15) 0.36307(11)
H1 H 0.6484 0.1767 0.3858
C2 C 0.59741(14) 0.11654(15) 0.26434(11)
H2 H 0.5991 0.2009 0.2403
C3 C 0.70077(15) 0.05382(18) 0.24444(12)
H3 H 0.7000 0.0371 0.1812
H4 H 0.7600 0.1101 0.2590
C4 C 0.72089(15) -0.06521(18) 0.29381(12)
H5 H 0.7936 -0.0932 0.2848
H6 H 0.6714 -0.1279 0.2698
C5 C 0.70713(14) -0.05190(17) 0.39157(12)
H7 H 0.7136 -0.1327 0.4197
H8 H 0.7638 0.0008 0.4176
C6 C 0.59981(14) 0.00296(16) 0.40874(11)
H9 H 0.5938 0.0136 0.4722
H10 H 0.5429 -0.0526 0.3868
C7 C 0.45714(16) 0.11808(18) 0.14292(12)
H11 H 0.5081 0.1131 0.0967
H12 H 0.4474 0.2049 0.1572
C8 C 0.35296(15) 0.06535(17) 0.10942(11)
C9 C 0.26020(16) 0.11341(17) 0.13812(12)
H13 H 0.2624 0.1785 0.1787
C10 C 0.16413(17) 0.0658(2) 0.10712(14)
C11 C 0.15863(18) -0.0296(2) 0.04919(14)
H14 H 0.0923 -0.0618 0.0287
C12 C 0.2514(2) -0.07746(19) 0.02158(14)
H15 H 0.2488 -0.1435 -0.0183
C13 C 0.34823(17) -0.03085(18) 0.05099(12)
H16 H 0.4114 -0.0647 0.0312
C14 C 0.27841(14) 0.12685(16) 0.37579(11)
C15 C 0.20871(15) 0.02684(16) 0.36619(12)
C16 C 0.10215(17) 0.0395(2) 0.37874(16)
H17 H 0.0563 -0.0286 0.3722
C17 C 0.06297(17) 0.1515(2) 0.40078(18)
C18 C 0.12889(17) 0.25129(19) 0.41071(15)
H18 H 0.1010 0.3281 0.4257
C19 C 0.23472(15) 0.23875(17) 0.39874(12)
H19 H 0.2795 0.3076 0.4062
C20 C 0.24891(15) -0.09669(17) 0.34476(13)
H20 H 0.5176(16) -0.023(2) 0.2077(13)
H21 H 0.4473(18) 0.051(2) 0.2628(14)
loop_
_geom_bond_atom_site_label_1
_geom_bond_atom_site_label_2
_geom_bond_site_symmetry_1
_geom_bond_site_symmetry_2
S1 O1 1_555 1_555
Cl1 C10 1_555 1_555
Cl2 C17 1_555 1_555
F1 C20 1_555 1_555
F2 C20 1_555 1_555
F3 C20 1_555 1_555
O2 S1 1_555 1_555
N1 C2 1_555 1_555
N2 S1 1_555 1_555
C1 S1 1_555 1_555
H1 C1 1_555 1_555
C2 C1 1_555 1_555
H2 C2 1_555 1_555
C3 C2 1_555 1_555
H3 C3 1_555 1_555
H4 C3 1_555 1_555
C4 C3 1_555 1_555
H5 C4 1_555 1_555
H6 C4 1_555 1_555
C5 C4 1_555 1_555
H7 C5 1_555 1_555
H8 C5 1_555 1_555
C6 C1 1_555 1_555
H9 C6 1_555 1_555
H10 C6 1_555 1_555
C7 N1 1_555 1_555
H11 C7 1_555 1_555
H12 C7 1_555 1_555
C8 C7 1_555 1_555
C9 C8 1_555 1_555
H13 C9 1_555 1_555
C10 C9 1_555 1_555
C11 C10 1_555 1_555
H14 C11 1_555 1_555
C12 C11 1_555 1_555
H15 C12 1_555 1_555
C13 C8 1_555 1_555
H16 C13 1_555 1_555
C14 N2 1_555 1_555
C15 C14 1_555 1_555
C16 C15 1_555 1_555
H17 C16 1_555 1_555
C17 C16 1_555 1_555
C18 C17 1_555 1_555
H18 C18 1_555 1_555
C19 C14 1_555 1_555
H19 C19 1_555 1_555
C20 C15 1_555 1_555
H20 N1 1_555 1_555
H21 N1 1_555 1_555
C5 C6 1_555 1_555
C12 C13 1_555 1_555
C18 C19 1_555 1_555

#END
