
#######################################################################
#
#                 Cambridge Crystallographic Data Centre
#                                CCDC 
#
#######################################################################
#
# If this CIF has been generated from an entry in the Cambridge 
# Structural Database, then it will include bibliographic, chemical, 
# crystal, experimental, refinement or atomic coordinate data resulting 
# from the CCDC's data processing and validation procedures.
#
#######################################################################

data_ARONOM
_chemical_formula_moiety         'C41 H32 N2'
_chemical_name_systematic        
2-(4-t-butylphenyl)-1-(4-(2-naphthyl)phenyl)-1H-phenanthro[9,10-d]imidazole
_symmetry_cell_setting           triclinic
_symmetry_space_group_name_H-M   'P -1'
_symmetry_Int_Tables_number      2
_space_group_name_Hall           '-P 1'
loop_
_symmetry_equiv_pos_site_id
_symmetry_equiv_pos_as_xyz
1 x,y,z
2 -x,-y,-z
_cell_length_a                   10.2626(5)
_cell_length_b                   11.9048(6)
_cell_length_c                   12.5710(6)
_cell_angle_alpha                80.9050(10)
_cell_angle_beta                 88.5920(10)
_cell_angle_gamma                81.8320(10)
_cell_volume                     1501.15
_exptl_crystal_colour            colorless
_exptl_crystal_description       cylinder
_cell_formula_units_Z            2
loop_
_atom_site_label
_atom_site_type_symbol
_atom_site_fract_x
_atom_site_fract_y
_atom_site_fract_z
N1 N 0.20875(15) 0.86593(13) 0.62808(12)
N2 N 0.10779(16) 0.75287(13) 0.54014(12)
C1 C 0.08315(19) 0.59891(15) 0.69760(15)
C2 C 0.38137(18) 1.15370(16) 0.68241(15)
C3 C 0.10904(19) 0.56398(16) 0.80836(15)
C4 C 0.18589(18) 0.77150(16) 0.70344(15)
C5 C 0.22102(19) 0.73810(17) 0.81534(15)
C6 C 0.45632(18) 1.06135(16) 0.64401(16)
H1 H 0.5454 1.0635 0.6298
C7 C 0.26872(18) 0.96275(15) 0.64754(14)
C8 C 0.18011(19) 0.63372(17) 0.86721(15)
C9 C 0.12347(18) 0.70475(15) 0.64678(14)
C10 C 0.16799(17) 0.92487(15) 0.42695(14)
C11 C 0.40073(18) 0.96664(15) 0.62667(15)
H2 H 0.4522 0.9057 0.6010
C12 C 0.1964(2) 0.93624(16) 0.23427(15)
H3 H 0.2065 0.8991 0.1742
C13 C 0.1733(2) 1.10657(16) 0.31201(16)
H4 H 0.1666 1.1861 0.3050
C14 C 0.16086(19) 1.04346(16) 0.41400(15)
H5 H 0.1477 1.0810 0.4737
C15 C 0.18293(19) 0.87241(16) 0.33490(15)
H6 H 0.1839 0.7934 0.3413
C16 C 0.19524(18) 1.05502(15) 0.22080(15)
C17 C 0.43722(19) 1.25928(16) 0.69593(17)
C18 C 0.24882(19) 1.14644(17) 0.70459(17)
H7 H 0.1971 1.2066 0.7311
C19 C 0.15913(18) 0.84923(15) 0.53144(14)
C20 C 0.5270(2) 1.30283(17) 0.62403(18)
H8 H 0.5597 1.2612 0.5702
C21 C 0.2192(2) 1.12197(17) 0.10916(16)
C22 C 0.19272(19) 1.05213(18) 0.68819(17)
H9 H 0.1043 1.0485 0.7043
C23 C 0.0655(2) 0.46084(18) 0.85659(18)
H10 H 0.0783 0.4366 0.9301
C24 C 0.2944(2) 0.7991(2) 0.87415(17)
H11 H 0.3212 0.8676 0.8410
C25 C 0.0050(2) 0.39509(18) 0.7984(2)
H12 H -0.0216 0.3269 0.8327
C26 C 0.0206(2) 0.53054(18) 0.63946(18)
H13 H 0.0045 0.5544 0.5663
C27 C 0.2141(2) 0.5974(2) 0.97612(17)
H14 H 0.1872 0.5300 1.0119
C28 C 0.5218(2) 1.4710(2) 0.7120(2)
C29 C 0.5715(2) 1.40951(18) 0.6292(2)
C30 C -0.0172(2) 0.42918(19) 0.6889(2)
H15 H -0.0573 0.3837 0.6495
C31 C 0.2855(3) 0.6584(2) 1.03096(19)
H16 H 0.3062 0.6322 1.1030
C32 C 0.3266(3) 0.7581(2) 0.97989(19)
H17 H 0.3766 0.7982 1.0173
C33 C 0.6584(2) 1.4573(2) 0.5517(2)
H18 H 0.6925 1.4164 0.4978
C34 C 0.3917(2) 1.3214(2) 0.7797(2)
H19 H 0.3324 1.2922 0.8302
C35 C 0.4333(3) 1.4231(2) 0.7877(2)
H20 H 0.4028 1.4618 0.8441
C36 C 0.6429(3) 1.6253(3) 0.6359(4)
H21 H 0.6662 1.6978 0.6370
C37 C 0.3524(3) 1.0730(3) 0.0673(3)
H22 H 0.4200 1.0780 0.1171
H23 H 0.3695 1.1160 -0.0016
H24 H 0.3516 0.9940 0.0600
C38 C 0.6925(3) 1.5631(2) 0.5556(3)
H25 H 0.7495 1.5940 0.5040
C39 C 0.5605(3) 1.5811(2) 0.7133(3)
H26 H 0.5293 1.6232 0.7672
C40 C 0.1119(4) 1.1114(3) 0.0325(2)
H27 H 0.1140 1.0322 0.0247
H28 H 0.1258 1.1557 -0.0365
H29 H 0.0278 1.1395 0.0606
C41 C 0.2217(4) 1.2489(2) 0.1117(2)
H30 H 0.1388 1.2823 0.1378
H31 H 0.2372 1.2872 0.0404
H32 H 0.2909 1.2575 0.1586
loop_
_geom_bond_atom_site_label_1
_geom_bond_atom_site_label_2
_geom_bond_site_symmetry_1
_geom_bond_site_symmetry_2
N1 C4 1_555 1_555
N2 C9 1_555 1_555
C1 C3 1_555 1_555
C2 C6 1_555 1_555
C3 C8 1_555 1_555
C4 C5 1_555 1_555
C5 C8 1_555 1_555
C6 H1 1_555 1_555
C7 N1 1_555 1_555
C8 C27 1_555 1_555
C9 C1 1_555 1_555
C10 C14 1_555 1_555
C11 C6 1_555 1_555
H2 C11 1_555 1_555
C12 H3 1_555 1_555
C13 H4 1_555 1_555
C14 C13 1_555 1_555
H5 C14 1_555 1_555
C15 C10 1_555 1_555
H6 C15 1_555 1_555
C16 C12 1_555 1_555
C17 C2 1_555 1_555
C18 C2 1_555 1_555
H7 C18 1_555 1_555
C19 N1 1_555 1_555
C20 C17 1_555 1_555
H8 C20 1_555 1_555
C21 C16 1_555 1_555
C22 C7 1_555 1_555
H9 C22 1_555 1_555
C23 C3 1_555 1_555
H10 C23 1_555 1_555
C24 C5 1_555 1_555
H11 C24 1_555 1_555
C25 C23 1_555 1_555
H12 C25 1_555 1_555
C26 C1 1_555 1_555
H13 C26 1_555 1_555
C27 H14 1_555 1_555
C28 C29 1_555 1_555
C29 C20 1_555 1_555
C30 C25 1_555 1_555
H15 C30 1_555 1_555
C31 C27 1_555 1_555
H16 C31 1_555 1_555
C32 C24 1_555 1_555
H17 C32 1_555 1_555
C33 C29 1_555 1_555
H18 C33 1_555 1_555
C34 C17 1_555 1_555
H19 C34 1_555 1_555
C35 C28 1_555 1_555
H20 C35 1_555 1_555
C36 H21 1_555 1_555
C37 C21 1_555 1_555
H22 C37 1_555 1_555
H23 C37 1_555 1_555
H24 C37 1_555 1_555
C38 C33 1_555 1_555
H25 C38 1_555 1_555
C39 C28 1_555 1_555
H26 C39 1_555 1_555
C40 C21 1_555 1_555
H27 C40 1_555 1_555
H28 C40 1_555 1_555
H29 C40 1_555 1_555
C41 C21 1_555 1_555
H30 C41 1_555 1_555
H31 C41 1_555 1_555
H32 C41 1_555 1_555
N2 C19 1_555 1_555
C4 C9 1_555 1_555
C7 C11 1_555 1_555
C10 C19 1_555 1_555
C12 C15 1_555 1_555
C13 C16 1_555 1_555
C18 C22 1_555 1_555
C26 C30 1_555 1_555
C31 C32 1_555 1_555
C34 C35 1_555 1_555
C36 C38 1_555 1_555
C36 C39 1_555 1_555

#END
