
#######################################################################
#
#                 Cambridge Crystallographic Data Centre
#                                CCDC 
#
#######################################################################
#
# If this CIF has been generated from an entry in the Cambridge 
# Structural Database, then it will include bibliographic, chemical, 
# crystal, experimental, refinement or atomic coordinate data resulting 
# from the CCDC's data processing and validation procedures.
#
#######################################################################

data_ARONUS
_chemical_formula_moiety         'C35 H28 N2'
_chemical_name_systematic        
1-(4-t-butylphenyl)-2-(2-naphthyl)-1H-phenanthro[9,10-d]imidazole
_symmetry_cell_setting           triclinic
_symmetry_space_group_name_H-M   'P -1'
_symmetry_Int_Tables_number      2
_space_group_name_Hall           '-P 1'
loop_
_symmetry_equiv_pos_site_id
_symmetry_equiv_pos_as_xyz
1 x,y,z
2 -x,-y,-z
_cell_length_a                   9.1648(6)
_cell_length_b                   11.4806(6)
_cell_length_c                   12.7298(6)
_cell_angle_alpha                95.203(4)
_cell_angle_beta                 97.220(5)
_cell_angle_gamma                102.374(5)
_cell_volume                     1288.31
_exptl_crystal_colour            colorless
_exptl_crystal_description       cylinder
_cell_formula_units_Z            2
loop_
_atom_site_label
_atom_site_type_symbol
_atom_site_fract_x
_atom_site_fract_y
_atom_site_fract_z
N1 N 0.30916(15) 0.41246(11) 0.49688(9)
C1 C 0.26446(18) 0.40133(13) 0.38851(11)
N2 N 0.43227(15) 0.29155(11) 0.41509(10)
C2 C 0.15630(18) 0.45611(13) 0.33383(12)
C3 C 0.48306(17) 0.33550(13) 0.61860(12)
C4 C 0.76094(18) 0.10312(13) 0.33626(12)
C5 C 0.30958(19) 0.29647(14) 0.22146(13)
C6 C 0.12450(19) 0.42965(15) 0.22111(12)
C7 C 0.33790(18) 0.32723(13) 0.33579(12)
C8 C 0.8781(2) 0.03832(15) 0.29969(14)
C9 C 0.78724(19) 0.22842(14) 0.34312(13)
H1 H 0.8786 0.2715 0.3278
C10 C 0.6441(2) 0.25798(14) 0.74885(14)
C11 C 0.54639(18) 0.22765(13) 0.39462(12)
C12 C 0.40978(18) 0.34704(13) 0.51128(12)
C13 C 0.5179(2) 0.10437(14) 0.39057(14)
H2 H 0.4269 0.0621 0.4071
C14 C 0.6239(2) 0.04392(14) 0.36206(14)
H3 H 0.6032 -0.0392 0.3600
C15 C 0.68250(19) 0.28945(13) 0.37171(13)
H4 H 0.7034 0.3728 0.3757
C16 C 0.58405(19) 0.26647(14) 0.64248(13)
H5 H 0.6144 0.2235 0.5870
C17 C 0.08294(19) 0.53331(15) 0.38698(13)
H6 H 0.1061 0.5514 0.4607
C18 C 0.20256(19) 0.35027(15) 0.16570(12)
C19 C 0.4415(2) 0.40254(15) 0.70495(13)
H7 H 0.3732 0.4505 0.6907
C20 C 0.6011(2) 0.32563(15) 0.83320(13)
C21 C -0.0220(2) 0.58247(17) 0.33258(15)
H8 H -0.0700 0.6335 0.3690
C22 C 0.4990(2) 0.39817(16) 0.80735(14)
H9 H 0.4705 0.4440 0.8618
C23 C 0.0161(2) 0.48217(18) 0.16854(14)
H10 H -0.0074 0.4666 0.0947
C24 C 0.3778(2) 0.21775(17) 0.16437(14)
H11 H 0.4471 0.1816 0.2009
C25 C -0.0566(2) 0.55579(19) 0.22248(15)
H12 H -0.1294 0.5880 0.1852
C26 C 0.7431(2) 0.18307(18) 0.77389(17)
H13 H 0.7728 0.1384 0.7192
C27 C 0.8319(2) -0.09737(15) 0.30275(17)
H14 H 0.8223 -0.1132 0.3746
H15 H 0.9075 -0.1346 0.2779
H16 H 0.7369 -0.1294 0.2577
C28 C 0.1732(2) 0.32347(18) 0.05369(14)
H17 H 0.1049 0.3588 0.0151
C29 C 0.6610(3) 0.3166(2) 0.93883(16)
H18 H 0.6351 0.3618 0.9950
C30 C 0.2418(3) 0.2476(2) 0.00047(16)
H19 H 0.2202 0.2319 -0.0735
C31 C 0.7560(3) 0.2431(2) 0.95997(19)
H20 H 0.7944 0.2383 1.0302
C32 C 0.3437(3) 0.1936(2) 0.05576(16)
H21 H 0.3890 0.1407 0.0190
C33 C 1.0297(2) 0.08746(19) 0.3713(2)
H22 H 1.0629 0.1718 0.3666
H23 H 1.1030 0.0461 0.3484
H24 H 1.0186 0.0754 0.4437
C34 C 0.7960(3) 0.1750(2) 0.8773(2)
H25 H 0.8595 0.1235 0.8926
C35 C 0.8959(3) 0.0619(2) 0.18460(17)
H26 H 0.8004 0.0326 0.1394
H27 H 0.9688 0.0212 0.1601
H28 H 0.9296 0.1467 0.1823
loop_
_geom_bond_atom_site_label_1
_geom_bond_atom_site_label_2
_geom_bond_site_symmetry_1
_geom_bond_site_symmetry_2
N1 C1 1_555 1_555
C1 C2 1_555 1_555
N2 C7 1_555 1_555
C2 C6 1_555 1_555
C3 C12 1_555 1_555
C4 C8 1_555 1_555
C5 C7 1_555 1_555
C6 C18 1_555 1_555
C7 C1 1_555 1_555
C8 C27 1_555 1_555
C9 C4 1_555 1_555
H1 C9 1_555 1_555
C10 C16 1_555 1_555
C11 N2 1_555 1_555
C12 N1 1_555 1_555
C13 C11 1_555 1_555
H2 C13 1_555 1_555
C14 C4 1_555 1_555
H3 C14 1_555 1_555
C15 C9 1_555 1_555
H4 C15 1_555 1_555
C16 C3 1_555 1_555
H5 C16 1_555 1_555
C17 C2 1_555 1_555
H6 C17 1_555 1_555
C18 C5 1_555 1_555
C19 C3 1_555 1_555
H7 C19 1_555 1_555
C20 C10 1_555 1_555
C21 C17 1_555 1_555
H8 C21 1_555 1_555
C22 C19 1_555 1_555
H9 C22 1_555 1_555
C23 C6 1_555 1_555
H10 C23 1_555 1_555
C24 C5 1_555 1_555
H11 C24 1_555 1_555
C25 C21 1_555 1_555
H12 C25 1_555 1_555
C26 C10 1_555 1_555
H13 C26 1_555 1_555
C27 H14 1_555 1_555
H15 C27 1_555 1_555
H16 C27 1_555 1_555
C28 C18 1_555 1_555
H17 C28 1_555 1_555
C29 C20 1_555 1_555
H18 C29 1_555 1_555
C30 C28 1_555 1_555
H19 C30 1_555 1_555
C31 C29 1_555 1_555
H20 C31 1_555 1_555
C32 C24 1_555 1_555
H21 C32 1_555 1_555
C33 C8 1_555 1_555
H22 C33 1_555 1_555
H23 C33 1_555 1_555
H24 C33 1_555 1_555
C34 C26 1_555 1_555
H25 C34 1_555 1_555
C35 C8 1_555 1_555
H26 C35 1_555 1_555
H27 C35 1_555 1_555
H28 C35 1_555 1_555
N2 C12 1_555 1_555
C11 C15 1_555 1_555
C13 C14 1_555 1_555
C20 C22 1_555 1_555
C23 C25 1_555 1_555
C30 C32 1_555 1_555
C31 C34 1_555 1_555

#END
