
#######################################################################
#
#                 Cambridge Crystallographic Data Centre
#                                CCDC 
#
#######################################################################
#
# If this CIF has been generated from an entry in the Cambridge 
# Structural Database, then it will include bibliographic, chemical, 
# crystal, experimental, refinement or atomic coordinate data resulting 
# from the CCDC's data processing and validation procedures.
#
#######################################################################

data_AROPUT
_chemical_formula_moiety         'C26 H20 N4 O2'
_chemical_name_systematic        
1,4-bis((pyridin-3-ylmethyl)amino)-9,10-anthraquinone
_symmetry_cell_setting           triclinic
_symmetry_space_group_name_H-M   'P -1'
_symmetry_Int_Tables_number      2
_space_group_name_Hall           '-P 1'
loop_
_symmetry_equiv_pos_site_id
_symmetry_equiv_pos_as_xyz
1 x,y,z
2 -x,-y,-z
_cell_length_a                   11.3845(5)
_cell_length_b                   13.6381(5)
_cell_length_c                   13.7772(4)
_cell_angle_alpha                94.236(2)
_cell_angle_beta                 92.655(2)
_cell_angle_gamma                110.176(2)
_cell_volume                     1996.45
_exptl_crystal_colour            blue
_exptl_crystal_description       plate
_cell_formula_units_Z            4
loop_
_atom_site_label
_atom_site_type_symbol
_atom_site_fract_x
_atom_site_fract_y
_atom_site_fract_z
C1 C 0.9970(3) 0.4107(3) 0.1313(2)
C2 C 0.9245(3) 0.3662(3) 0.0385(2)
C3 C 0.7917(3) 0.3281(3) 0.0340(2)
C4 C 0.7231(3) 0.2836(3) -0.0569(2)
H1 H 0.6340 0.2562 -0.0600
C5 C 0.7826(3) 0.2793(3) -0.1397(2)
H2 H 0.7339 0.2495 -0.1995
C6 C 0.9157(3) 0.3185(3) -0.1390(2)
C7 C 0.9874(3) 0.3618(3) -0.0493(2)
C8 C 1.1238(3) 0.4012(3) -0.0460(2)
C9 C 1.1963(3) 0.4429(3) 0.0495(2)
C10 C 1.3274(4) 0.4773(3) 0.0548(3)
H3 H 1.3693 0.4740 -0.0028
C11 C 1.3963(4) 0.5159(3) 0.1429(3)
H4 H 1.4854 0.5396 0.1458
C12 C 1.3354(4) 0.5204(3) 0.2280(3)
H5 H 1.3829 0.5470 0.2887
C13 C 1.2055(4) 0.4858(3) 0.2236(3)
H6 H 1.1641 0.4885 0.2815
C14 C 1.1350(3) 0.4469(3) 0.1342(2)
C15 C 0.5954(4) 0.3132(3) 0.1150(3)
H7 H 0.5487 0.2375 0.0971
H8 H 0.5703 0.3530 0.0658
C16 C 0.5627(4) 0.3452(3) 0.2149(3)
C17 C 0.6432(5) 0.4229(4) 0.2795(4)
H9 H 0.7267 0.4593 0.2643
C18 C 0.6011(5) 0.4474(5) 0.3667(4)
H10 H 0.6553 0.5016 0.4123
C19 C 0.4815(5) 0.3934(4) 0.3873(4)
H11 H 0.4551 0.4108 0.4486
C20 C 0.4410(4) 0.2955(3) 0.2418(3)
H12 H 0.3839 0.2424 0.1968
C21 C 0.9015(4) 0.2784(3) -0.3191(2)
H13 H 0.8446 0.3181 -0.3301
H14 H 0.8498 0.2031 -0.3211
C22 C 0.9902(4) 0.2941(3) -0.3980(3)
C23 C 1.0373(4) 0.2182(4) -0.4298(3)
H15 H 1.0149 0.1538 -0.4010
C24 C 1.1179(4) 0.2364(5) -0.5043(3)
H16 H 1.1510 0.1846 -0.5275
C25 C 1.1483(4) 0.3290(5) -0.5432(3)
H17 H 1.2037 0.3405 -0.5941
C26 C 1.0285(4) 0.3873(4) -0.4423(3)
H18 H 0.9984 0.4412 -0.4200
N1 N 0.7294(3) 0.3336(2) 0.1153(2)
H37 H 0.7736 0.3508 0.1720
N2 N 0.3999(4) 0.3183(3) 0.3271(3)
N3 N 0.9703(3) 0.3141(2) -0.22383(19)
H38 H 1.0527 0.3341 -0.2211
N4 N 1.1061(4) 0.4053(4) -0.5151(3)
O1 O 0.9464(2) 0.4167(2) 0.20938(17)
O2 O 1.1833(2) 0.4003(2) -0.12006(17)
C27 C 0.9231(3) 0.0554(3) 0.8219(2)
C28 C 0.9784(3) 0.0980(3) 0.9201(2)
C29 C 1.1111(3) 0.1447(3) 0.9367(2)
C30 C 1.1631(3) 0.1856(3) 1.0331(2)
H19 H 1.2516 0.2165 1.0451
C31 C 1.0900(3) 0.1818(3) 1.1087(2)
H20 H 1.1286 0.2103 1.1721
C32 C 0.9558(3) 0.1359(3) 1.0955(2)
C33 C 0.9007(3) 0.0945(3) 1.0002(2)
C34 C 0.7647(3) 0.0495(3) 0.9839(2)
C35 C 0.7080(3) 0.0103(3) 0.8825(2)
C36 C 0.5776(3) -0.0272(3) 0.8646(3)
H21 H 0.5256 -0.0285 0.9168
C37 C 0.5244(4) -0.0624(3) 0.7703(3)
H22 H 0.4358 -0.0881 0.7579
C38 C 0.6003(4) -0.0601(3) 0.6940(3)
H23 H 0.5635 -0.0843 0.6294
C39 C 0.7288(3) -0.0229(3) 0.7116(3)
H24 H 0.7802 -0.0219 0.6591
C40 C 0.7841(3) 0.0133(3) 0.8057(2)
C41 C 1.3230(3) 0.2041(3) 0.8760(3)
H25 H 1.3615 0.1636 0.9154
H26 H 1.3422 0.2743 0.9116
C42 C 1.3780(3) 0.2158(3) 0.7790(3)
C43 C 1.3449(4) 0.2727(4) 0.7114(3)
H27 H 1.2839 0.3040 0.7244
C44 C 1.4010(4) 0.2838(4) 0.6246(3)
H28 H 1.3787 0.3227 0.5772
C45 C 1.4877(4) 0.2392(4) 0.6070(3)
H29 H 1.5247 0.2470 0.5463
C46 C 1.4673(4) 0.1732(3) 0.7544(3)
H30 H 1.4908 0.1328 0.7997
C47 C 0.9437(3) 0.1737(3) 1.2720(2)
H31 H 0.9842 0.2509 1.2751
H32 H 1.0091 0.1439 1.2885
C48 C 0.8463(3) 0.1466(3) 1.3448(2)
C49 C 0.8092(4) 0.0502(4) 1.3813(3)
H33 H 0.8427 -0.0016 1.3589
C50 C 0.7231(4) 0.0300(4) 1.4507(3)
H34 H 0.6964 -0.0361 1.4768
C51 C 0.6773(4) 0.1035(6) 1.4809(3)
H35 H 0.6187 0.0880 1.5294
C52 C 0.7943(4) 0.2194(4) 1.3789(3)
H36 H 0.8192 0.2860 1.3539
N5 N 1.1884(3) 0.1507(2) 0.8639(2)
H39 H 1.1548 0.1203 0.8057
N6 N 1.5232(4) 0.1854(4) 0.6701(3)
N7 N 0.8879(3) 0.1330(2) 1.17377(19)
H40 H 0.8056 0.1050 1.1648
N8 N 0.7088(4) 0.1983(5) 1.4472(3)
O3 O 0.9868(2) 0.0533(2) 0.75110(16)
O4 O 0.6931(2) 0.0425(2) 1.05105(17)
loop_
_geom_bond_atom_site_label_1
_geom_bond_atom_site_label_2
_geom_bond_site_symmetry_1
_geom_bond_site_symmetry_2
C1 C2 1_555 1_555
C2 C3 1_555 1_555
C3 C4 1_555 1_555
C4 H1 1_555 1_555
C5 C4 1_555 1_555
H2 C5 1_555 1_555
C6 C5 1_555 1_555
C7 C2 1_555 1_555
C8 C7 1_555 1_555
C9 C8 1_555 1_555
C10 C9 1_555 1_555
H3 C10 1_555 1_555
C11 C10 1_555 1_555
H4 C11 1_555 1_555
C12 C11 1_555 1_555
H5 C12 1_555 1_555
C13 C12 1_555 1_555
H6 C13 1_555 1_555
C14 C1 1_555 1_555
C15 H7 1_555 1_555
H8 C15 1_555 1_555
C16 C15 1_555 1_555
C17 C16 1_555 1_555
H9 C17 1_555 1_555
C18 C17 1_555 1_555
H10 C18 1_555 1_555
C19 C18 1_555 1_555
H11 C19 1_555 1_555
C20 C16 1_555 1_555
H12 C20 1_555 1_555
C21 H13 1_555 1_555
H14 C21 1_555 1_555
C22 C21 1_555 1_555
C23 C22 1_555 1_555
H15 C23 1_555 1_555
C24 C23 1_555 1_555
H16 C24 1_555 1_555
C25 C24 1_555 1_555
H17 C25 1_555 1_555
C26 C22 1_555 1_555
H18 C26 1_555 1_555
C27 C28 1_555 1_555
C28 C29 1_555 1_555
C29 C30 1_555 1_555
C30 H19 1_555 1_555
C31 C30 1_555 1_555
H20 C31 1_555 1_555
C32 C31 1_555 1_555
C33 C28 1_555 1_555
C34 C33 1_555 1_555
C35 C34 1_555 1_555
C36 C35 1_555 1_555
H21 C36 1_555 1_555
C37 C36 1_555 1_555
H22 C37 1_555 1_555
C38 C37 1_555 1_555
H23 C38 1_555 1_555
C39 C38 1_555 1_555
H24 C39 1_555 1_555
C40 C27 1_555 1_555
C41 H25 1_555 1_555
H26 C41 1_555 1_555
C42 C41 1_555 1_555
C43 C42 1_555 1_555
H27 C43 1_555 1_555
C44 C43 1_555 1_555
H28 C44 1_555 1_555
C45 C44 1_555 1_555
H29 C45 1_555 1_555
C46 C42 1_555 1_555
H30 C46 1_555 1_555
C47 H31 1_555 1_555
H32 C47 1_555 1_555
C48 C47 1_555 1_555
C49 C48 1_555 1_555
H33 C49 1_555 1_555
C50 C49 1_555 1_555
H34 C50 1_555 1_555
C51 C50 1_555 1_555
H35 C51 1_555 1_555
C52 C48 1_555 1_555
H36 C52 1_555 1_555
N1 C3 1_555 1_555
H37 N1 1_555 1_555
N2 C19 1_555 1_555
N3 C6 1_555 1_555
H38 N3 1_555 1_555
N4 C25 1_555 1_555
N5 C29 1_555 1_555
H39 N5 1_555 1_555
N6 C45 1_555 1_555
N7 C32 1_555 1_555
H40 N7 1_555 1_555
N8 C51 1_555 1_555
O1 C1 1_555 1_555
O2 C8 1_555 1_555
O3 C27 1_555 1_555
O4 C34 1_555 1_555
C6 C7 1_555 1_555
C9 C14 1_555 1_555
C13 C14 1_555 1_555
C15 N1 1_555 1_555
C20 N2 1_555 1_555
C21 N3 1_555 1_555
C26 N4 1_555 1_555
C32 C33 1_555 1_555
C35 C40 1_555 1_555
C39 C40 1_555 1_555
C41 N5 1_555 1_555
C46 N6 1_555 1_555
C47 N7 1_555 1_555
C52 N8 1_555 1_555

#END
