
#######################################################################
#
#                 Cambridge Crystallographic Data Centre
#                                CCDC 
#
#######################################################################
#
# If this CIF has been generated from an entry in the Cambridge 
# Structural Database, then it will include bibliographic, chemical, 
# crystal, experimental, refinement or atomic coordinate data resulting 
# from the CCDC's data processing and validation procedures.
#
#######################################################################

data_ARORAA
_chemical_name_common            
1,2-bis(1,2-Dicarba-closo-dodecaboranyl)-1,1,2,2-tetramethyl-1,2-disilane
_chemical_formula_moiety         'C8 H34 B20 Si2'
_chemical_name_systematic        
1,2-bis(o-Carboranyl)-1,1,2,2-tetramethyl-1,2-disilane
_symmetry_cell_setting           monoclinic
_symmetry_space_group_name_H-M   'P 21/n'
_symmetry_Int_Tables_number      14
_space_group_name_Hall           '-P 2yn'
loop_
_symmetry_equiv_pos_site_id
_symmetry_equiv_pos_as_xyz
1 x,y,z
2 1/2+x,1/2-y,1/2+z
3 -x,-y,-z
4 1/2-x,1/2+y,1/2-z
_cell_length_a                   7.0029(6)
_cell_length_b                   15.1842(9)
_cell_length_c                   11.5040(8)
_cell_angle_alpha                90
_cell_angle_beta                 91.296(6)
_cell_angle_gamma                90
_cell_volume                     1222.95
_exptl_crystal_colour            colorless
_exptl_crystal_description       block
_cell_formula_units_Z            2
_exptl_crystal_recrystallization_method toluene
loop_
_atom_site_label
_atom_site_type_symbol
_atom_site_fract_x
_atom_site_fract_y
_atom_site_fract_z
Si1 Si 0.03591(10) 0.95412(4) 0.92034(6)
C1 C -0.0079(3) 0.83379(15) 0.9675(2)
C2 C -0.0956(4) 0.76363(17) 0.8681(2)
H1 H -0.1267 0.7862 0.7788
B1 B 0.1365(4) 0.75322(19) 0.9112(3)
H2 H 0.2579 0.7675 0.8552
B2 B 0.1435(4) 0.7784(2) 1.0605(3)
H3 H 0.2694 0.8089 1.1029
B3 B -0.0921(4) 0.80528(19) 1.1013(2)
H4 H -0.1191 0.8529 1.1711
B4 B -0.2424(4) 0.79891(19) 0.9759(2)
H5 H -0.3659 0.8428 0.9623
B5 B -0.0088(5) 0.6601(2) 0.8872(3)
H6 H 0.0178 0.6134 0.8163
B6 B 0.1425(5) 0.6668(2) 1.0129(3)
H7 H 0.2681 0.6239 1.0249
B7 B -0.0001(5) 0.6987(2) 1.1310(3)
H8 H 0.0329 0.6765 1.2202
B8 B -0.2406(5) 0.7119(2) 1.0780(3)
H9 H -0.3643 0.6984 1.1324
B9 B -0.2454(5) 0.6877(2) 0.9271(3)
H10 H -0.3712 0.6591 0.8823
B10 B -0.0948(5) 0.6257(2) 1.0242(3)
H11 H -0.1235 0.5561 1.0439
C3 C 0.2918(4) 0.96322(18) 0.8832(3)
H12 H 0.3152 0.9294 0.8144
H13 H 0.3696 0.9411 0.9465
H14 H 0.3229 1.0238 0.8693
C4 C -0.1240(5) 0.97594(18) 0.7917(2)
H15 H -0.1147 1.0368 0.7701
H16 H -0.2535 0.9625 0.8108
H17 H -0.0860 0.9397 0.7279
Si1B Si -0.03591(10) 1.04588(4) 1.07966(6)
C1B C 0.0079(3) 1.16621(15) 1.0325(2)
C2B C 0.0956(4) 1.23637(17) 1.1319(2)
H1B H 0.1267 1.2138 1.2212
B1B B -0.1365(4) 1.24678(19) 1.0888(3)
B2B B -0.1435(4) 1.2216(2) 0.9395(3)
H2B H -0.2579 1.2325 1.1448
B5B B 0.0088(5) 1.3399(2) 1.1128(3)
B4B B 0.2424(4) 1.20109(19) 1.0241(2)
B3B B 0.0921(4) 1.19472(19) 0.8987(2)
H3B H -0.2694 1.1911 0.8971
B6B B -0.1425(5) 1.3332(2) 0.9871(3)
H6B H -0.0178 1.3866 1.1837
B9B B 0.2454(5) 1.3123(2) 1.0729(3)
H4B H 0.1191 1.1471 0.8289
B7B B 0.0001(5) 1.3013(2) 0.8690(3)
H7B H -0.2681 1.3761 0.9751
B10B B 0.0948(5) 1.3743(2) 0.9758(3)
H8B H -0.0329 1.3235 0.7798
B8B B 0.2406(5) 1.2881(2) 0.9220(3)
H5B H 0.3659 1.1572 1.0377
H9B H 0.3643 1.3016 0.8676
H10B H 0.3712 1.3409 1.1177
H11B H 0.1235 1.4439 0.9561
C3B C -0.2918(4) 1.03678(18) 1.1168(3)
H12B H -0.3152 1.0706 1.1856
H13B H -0.3696 1.0589 1.0535
H14B H -0.3229 0.9762 1.1307
C4B C 0.1240(5) 1.02406(18) 1.2083(2)
H15B H 0.1147 0.9632 1.2299
H16B H 0.2535 1.0375 1.1892
H17B H 0.0860 1.0603 1.2721
loop_
_geom_bond_atom_site_label_1
_geom_bond_atom_site_label_2
_geom_bond_site_symmetry_1
_geom_bond_site_symmetry_2
Si1 C1 1_555 1_555
C1 C2 1_555 1_555
C2 H1 1_555 1_555
B1 C1 1_555 1_555
H2 B1 1_555 1_555
B2 C1 1_555 1_555
H3 B2 1_555 1_555
B3 C1 1_555 1_555
H4 B3 1_555 1_555
B4 C1 1_555 1_555
H5 B4 1_555 1_555
B5 C2 1_555 1_555
H6 B5 1_555 1_555
B6 B1 1_555 1_555
H7 B6 1_555 1_555
B7 B2 1_555 1_555
H8 B7 1_555 1_555
B8 B3 1_555 1_555
H9 B8 1_555 1_555
B9 C2 1_555 1_555
H10 B9 1_555 1_555
B10 B5 1_555 1_555
H11 B10 1_555 1_555
C3 Si1 1_555 1_555
H12 C3 1_555 1_555
H13 C3 1_555 1_555
H14 C3 1_555 1_555
C4 Si1 1_555 1_555
H15 C4 1_555 1_555
H16 C4 1_555 1_555
H17 C4 1_555 1_555
Si1B Si1 1_555 1_555
C1B Si1B 1_555 1_555
C2B C1B 1_555 1_555
H1B C2B 1_555 1_555
B1B C1B 1_555 1_555
B2B C1B 1_555 1_555
H2B B1B 1_555 1_555
B5B C2B 1_555 1_555
B4B C1B 1_555 1_555
B3B C1B 1_555 1_555
H3B B2B 1_555 1_555
B6B B1B 1_555 1_555
H6B B5B 1_555 1_555
B9B C2B 1_555 1_555
H4B B3B 1_555 1_555
B7B B2B 1_555 1_555
H7B B6B 1_555 1_555
B10B B5B 1_555 1_555
H8B B7B 1_555 1_555
B8B B4B 1_555 1_555
H5B B4B 1_555 1_555
H9B B8B 1_555 1_555
H10B B9B 1_555 1_555
H11B B10B 1_555 1_555
C3B Si1B 1_555 1_555
H12B C3B 1_555 1_555
H13B C3B 1_555 1_555
H14B C3B 1_555 1_555
C4B Si1B 1_555 1_555
H15B C4B 1_555 1_555
H16B C4B 1_555 1_555
H17B C4B 1_555 1_555
C2 B1 1_555 1_555
C2 B4 1_555 1_555
B1 B5 1_555 1_555
B1 B2 1_555 1_555
B2 B6 1_555 1_555
B2 B3 1_555 1_555
B3 B7 1_555 1_555
B3 B4 1_555 1_555
B4 B9 1_555 1_555
B4 B8 1_555 1_555
B5 B9 1_555 1_555
B5 B6 1_555 1_555
B6 B10 1_555 1_555
B6 B7 1_555 1_555
B7 B8 1_555 1_555
B7 B10 1_555 1_555
B8 B9 1_555 1_555
B8 B10 1_555 1_555
B9 B10 1_555 1_555
C2B B1B 1_555 1_555
C2B B4B 1_555 1_555
B1B B5B 1_555 1_555
B1B B2B 1_555 1_555
B2B B6B 1_555 1_555
B2B B3B 1_555 1_555
B5B B9B 1_555 1_555
B5B B6B 1_555 1_555
B4B B9B 1_555 1_555
B4B B3B 1_555 1_555
B3B B7B 1_555 1_555
B3B B8B 1_555 1_555
B6B B10B 1_555 1_555
B6B B7B 1_555 1_555
B9B B8B 1_555 1_555
B9B B10B 1_555 1_555
B7B B8B 1_555 1_555
B7B B10B 1_555 1_555
B10B B8B 1_555 1_555

#END
