
#######################################################################
#
#                 Cambridge Crystallographic Data Centre
#                                CCDC 
#
#######################################################################
#
# If this CIF has been generated from an entry in the Cambridge 
# Structural Database, then it will include bibliographic, chemical, 
# crystal, experimental, refinement or atomic coordinate data resulting 
# from the CCDC's data processing and validation procedures.
#
#######################################################################

data_ARORUU
_chemical_name_common            
4,5-(1,2-Dicarba-closo-dodecaborane-1,2-diyl)-1,1,2,2,3,3-hexamethyl-1,2,3-trisilacyclopentane
_chemical_formula_moiety         'C8 H28 B10 Si3'
_chemical_name_systematic        
4,5-(o-Carboranylene)-1,1,2,2,3,3-hexamethyl-1,2,3-trisilacyclopentane
_symmetry_cell_setting           triclinic
_symmetry_space_group_name_H-M   'P -1'
_symmetry_Int_Tables_number      2
_space_group_name_Hall           '-P 1'
loop_
_symmetry_equiv_pos_site_id
_symmetry_equiv_pos_as_xyz
1 x,y,z
2 -x,-y,-z
_cell_length_a                   9.4518(16)
_cell_length_b                   13.8412(8)
_cell_length_c                   16.7537(13)
_cell_angle_alpha                100.523(5)
_cell_angle_beta                 105.372(9)
_cell_angle_gamma                106.040(8)
_cell_volume                     1952.14
_exptl_crystal_colour            colorless
_exptl_crystal_description       block
_cell_formula_units_Z            4
_exptl_crystal_recrystallization_method toluene
loop_
_atom_site_label
_atom_site_type_symbol
_atom_site_fract_x
_atom_site_fract_y
_atom_site_fract_z
Si1 Si 0.24127(12) 0.50038(8) 0.31526(7)
Si2 Si 0.10724(13) 0.48209(9) 0.17107(7)
Si3 Si 0.30117(13) 0.46217(10) 0.11408(7)
C1 C 0.4478(4) 0.5088(3) 0.3137(2)
C2 C 0.4757(4) 0.4887(3) 0.2150(2)
C3 C 0.1610(5) 0.3842(4) 0.3514(3)
H1 H 0.2271 0.3917 0.4083
H2 H 0.1566 0.3223 0.3125
H3 H 0.0578 0.3785 0.3521
C4 C 0.2639(5) 0.6232(3) 0.3938(3)
H4 H 0.1627 0.6272 0.3902
H5 H 0.3235 0.6826 0.3804
H6 H 0.3171 0.6228 0.4511
C5 C -0.0715(5) 0.3614(4) 0.1226(3)
H7 H -0.1483 0.3689 0.1487
H8 H -0.0442 0.3017 0.1326
H9 H -0.1134 0.3518 0.0618
C6 C 0.0605(6) 0.6018(4) 0.1537(4)
H10 H 0.0226 0.5949 0.0930
H11 H 0.1531 0.6625 0.1808
H12 H -0.0181 0.6092 0.1783
C7 C 0.2514(6) 0.3273(4) 0.0468(3)
H13 H 0.1619 0.3117 -0.0033
H14 H 0.2280 0.2785 0.0795
H15 H 0.3383 0.3218 0.0292
C8 C 0.3615(6) 0.5614(5) 0.0565(3)
H16 H 0.4499 0.5548 0.0411
H17 H 0.3890 0.6303 0.0934
H18 H 0.2765 0.5502 0.0053
B1 B 0.5499(5) 0.6112(4) 0.2854(3)
H19 H 0.5059 0.6747 0.2730
B2 B 0.6150(6) 0.5957(4) 0.3908(3)
H20 H 0.6172 0.6505 0.4480
B3 B 0.5641(5) 0.4602(4) 0.3799(3)
H21 H 0.5325 0.4263 0.4299
B4 B 0.4699(5) 0.3933(4) 0.2684(3)
H22 H 0.3752 0.3170 0.2454
B5 B 0.6601(5) 0.5639(4) 0.2266(3)
H23 H 0.6918 0.5983 0.1769
B6 B 0.7508(6) 0.6314(4) 0.3369(3)
H24 H 0.8410 0.7095 0.3587
B7 B 0.7583(6) 0.5362(5) 0.3949(3)
H25 H 0.8548 0.5523 0.4548
B8 B 0.6679(6) 0.4094(4) 0.3195(3)
H26 H 0.7044 0.3426 0.3302
B9 B 0.6080(5) 0.4270(4) 0.2154(3)
H27 H 0.6050 0.3717 0.1582
B10 B 0.7860(6) 0.5158(4) 0.2938(3)
H28 H 0.9002 0.5184 0.2881
Si4 Si 0.74100(13) 0.04179(9) 0.39032(6)
Si5 Si 0.47850(12) 0.02432(8) 0.33333(7)
Si6 Si 0.45758(13) -0.00507(8) 0.18770(7)
C9 C 0.7983(4) 0.0134(3) 0.2889(2)
C10 C 0.6618(4) -0.0094(3) 0.1906(2)
C11 C 0.7666(6) -0.0593(4) 0.4475(3)
H29 H 0.8684 -0.0640 0.4543
H30 H 0.6883 -0.1258 0.4145
H31 H 0.7562 -0.0401 0.5031
C12 C 0.8697(6) 0.1755(4) 0.4585(3)
H32 H 0.8423 0.1915 0.5093
H33 H 0.8568 0.2253 0.4267
H34 H 0.9766 0.1787 0.4747
C13 C 0.3531(6) -0.0935(4) 0.3542(3)
H35 H 0.3745 -0.0823 0.4152
H36 H 0.3760 -0.1541 0.3316
H37 H 0.2450 -0.1041 0.3267
C14 C 0.4422(6) 0.1465(4) 0.3774(3)
H38 H 0.3344 0.1379 0.3512
H39 H 0.5070 0.2045 0.3650
H40 H 0.4665 0.1595 0.4387
C15 C 0.3113(5) -0.1330(4) 0.1171(3)
H41 H 0.2084 -0.1338 0.1151
H42 H 0.3324 -0.1883 0.1397
H43 H 0.3174 -0.1427 0.0601
C16 C 0.4277(6) 0.1043(4) 0.1433(3)
H44 H 0.4284 0.0909 0.0852
H45 H 0.5101 0.1685 0.1778
H46 H 0.3291 0.1100 0.1440
B11 B 0.8160(5) 0.1057(3) 0.2335(3)
H47 H 0.8029 0.1817 0.2552
B12 B 0.9797(5) 0.0751(4) 0.2873(3)
H48 H 1.0752 0.1322 0.3435
B13 B 0.9147(6) -0.0600(4) 0.2801(3)
H49 H 0.9679 -0.0912 0.3316
B14 B 0.7118(6) -0.1113(3) 0.2220(3)
H50 H 0.6313 -0.1747 0.2362
B15 B 0.7514(6) 0.0348(4) 0.1221(3)
H51 H 0.6980 0.0656 0.0703
B16 B 0.9525(6) 0.0879(4) 0.1818(3)
H52 H 1.0308 0.1540 0.1691
B17 B 1.0133(6) -0.0148(4) 0.2108(3)
H53 H 1.1314 -0.0163 0.2167
B18 B 0.8468(6) -0.1317(4) 0.1707(3)
H54 H 0.8552 -0.2096 0.1507
B19 B 0.6857(6) -0.0994(4) 0.1154(3)
H55 H 0.5891 -0.1564 0.0595
B20 B 0.8733(6) -0.0390(4) 0.1093(3)
H56 H 0.9004 -0.0563 0.0495
loop_
_geom_bond_atom_site_label_1
_geom_bond_atom_site_label_2
_geom_bond_site_symmetry_1
_geom_bond_site_symmetry_2
Si1 Si2 1_555 1_555
Si2 Si3 1_555 1_555
Si3 C2 1_555 1_555
C1 Si1 1_555 1_555
C2 C1 1_555 1_555
C3 Si1 1_555 1_555
H1 C3 1_555 1_555
H2 C3 1_555 1_555
H3 C3 1_555 1_555
C4 Si1 1_555 1_555
H4 C4 1_555 1_555
H5 C4 1_555 1_555
H6 C4 1_555 1_555
C5 Si2 1_555 1_555
H7 C5 1_555 1_555
H8 C5 1_555 1_555
H9 C5 1_555 1_555
C6 Si2 1_555 1_555
H10 C6 1_555 1_555
H11 C6 1_555 1_555
H12 C6 1_555 1_555
C7 Si3 1_555 1_555
H13 C7 1_555 1_555
H14 C7 1_555 1_555
H15 C7 1_555 1_555
C8 Si3 1_555 1_555
H16 C8 1_555 1_555
H17 C8 1_555 1_555
H18 C8 1_555 1_555
B1 C1 1_555 1_555
H19 B1 1_555 1_555
B2 C1 1_555 1_555
H20 B2 1_555 1_555
B3 C1 1_555 1_555
H21 B3 1_555 1_555
B4 C1 1_555 1_555
H22 B4 1_555 1_555
B5 C2 1_555 1_555
H23 B5 1_555 1_555
B6 B1 1_555 1_555
H24 B6 1_555 1_555
B7 B2 1_555 1_555
H25 B7 1_555 1_555
B8 B3 1_555 1_555
H26 B8 1_555 1_555
B9 C2 1_555 1_555
H27 B9 1_555 1_555
B10 B5 1_555 1_555
H28 B10 1_555 1_555
Si4 Si5 1_555 1_555
Si5 Si6 1_555 1_555
Si6 C10 1_555 1_555
C9 Si4 1_555 1_555
C10 C9 1_555 1_555
C11 Si4 1_555 1_555
H29 C11 1_555 1_555
H30 C11 1_555 1_555
H31 C11 1_555 1_555
C12 Si4 1_555 1_555
H32 C12 1_555 1_555
H33 C12 1_555 1_555
H34 C12 1_555 1_555
C13 Si5 1_555 1_555
H35 C13 1_555 1_555
H36 C13 1_555 1_555
H37 C13 1_555 1_555
C14 Si5 1_555 1_555
H38 C14 1_555 1_555
H39 C14 1_555 1_555
H40 C14 1_555 1_555
C15 Si6 1_555 1_555
H41 C15 1_555 1_555
H42 C15 1_555 1_555
H43 C15 1_555 1_555
C16 Si6 1_555 1_555
H44 C16 1_555 1_555
H45 C16 1_555 1_555
H46 C16 1_555 1_555
B11 C9 1_555 1_555
H47 B11 1_555 1_555
B12 C9 1_555 1_555
H48 B12 1_555 1_555
B13 C9 1_555 1_555
H49 B13 1_555 1_555
B14 C9 1_555 1_555
H50 B14 1_555 1_555
B15 C10 1_555 1_555
H51 B15 1_555 1_555
B16 B11 1_555 1_555
H52 B16 1_555 1_555
B17 B12 1_555 1_555
H53 B17 1_555 1_555
B18 B13 1_555 1_555
H54 B18 1_555 1_555
B19 C10 1_555 1_555
H55 B19 1_555 1_555
B20 B15 1_555 1_555
H56 B20 1_555 1_555
C2 B1 1_555 1_555
C2 B4 1_555 1_555
B1 B5 1_555 1_555
B1 B2 1_555 1_555
B2 B6 1_555 1_555
B2 B3 1_555 1_555
B3 B4 1_555 1_555
B3 B7 1_555 1_555
B4 B9 1_555 1_555
B4 B8 1_555 1_555
B5 B6 1_555 1_555
B5 B9 1_555 1_555
B6 B10 1_555 1_555
B6 B7 1_555 1_555
B7 B10 1_555 1_555
B7 B8 1_555 1_555
B8 B9 1_555 1_555
B8 B10 1_555 1_555
B9 B10 1_555 1_555
C10 B11 1_555 1_555
C10 B14 1_555 1_555
B11 B15 1_555 1_555
B11 B12 1_555 1_555
B12 B16 1_555 1_555
B12 B13 1_555 1_555
B13 B14 1_555 1_555
B13 B17 1_555 1_555
B14 B19 1_555 1_555
B14 B18 1_555 1_555
B15 B16 1_555 1_555
B15 B19 1_555 1_555
B16 B20 1_555 1_555
B16 B17 1_555 1_555
B17 B20 1_555 1_555
B17 B18 1_555 1_555
B18 B19 1_555 1_555
B18 B20 1_555 1_555
B19 B20 1_555 1_555

#END
