
#######################################################################
#
#                 Cambridge Crystallographic Data Centre
#                                CCDC 
#
#######################################################################
#
# If this CIF has been generated from an entry in the Cambridge 
# Structural Database, then it will include bibliographic, chemical, 
# crystal, experimental, refinement or atomic coordinate data resulting 
# from the CCDC's data processing and validation procedures.
#
#######################################################################

data_AROREE
_chemical_name_common            
1,2-bis(2-Methyl-1,2-dicarba-closo-dodecaboran-1-yl)-1,1,2,2-tetramethyl-1,2-disilane
_chemical_formula_moiety         'C10 H38 B20 Si2'
_chemical_name_systematic        
1,2-bis(1'-Methyl-o-carboranyl)-1,1,2,2-tetramethyl-1,2-disilane
_symmetry_cell_setting           monoclinic
_symmetry_space_group_name_H-M   'P 21/c'
_symmetry_Int_Tables_number      14
_space_group_name_Hall           '-P 2ybc'
loop_
_symmetry_equiv_pos_site_id
_symmetry_equiv_pos_as_xyz
1 x,y,z
2 x,1/2-y,1/2+z
3 -x,-y,-z
4 -x,1/2+y,1/2-z
_cell_length_a                   8.1440(6)
_cell_length_b                   12.5958(6)
_cell_length_c                   13.4148(9)
_cell_angle_alpha                90
_cell_angle_beta                 106.940(6)
_cell_angle_gamma                90
_cell_volume                     1316.38
_exptl_crystal_colour            colorless
_exptl_crystal_description       block
_cell_formula_units_Z            2
_exptl_crystal_recrystallization_method toluene
loop_
_atom_site_label
_atom_site_type_symbol
_atom_site_fract_x
_atom_site_fract_y
_atom_site_fract_z
Si1 Si 0.03319(10) 0.03914(6) 0.08452(5)
C1 C 0.1637(3) 0.16903(19) 0.08898(19)
C2 C 0.0765(4) 0.2856(2) 0.0365(2)
C3 C -0.1143(4) 0.2921(3) -0.0170(3)
H1 H -0.1556 0.2240 -0.0456
H2 H -0.1358 0.3437 -0.0719
H3 H -0.1726 0.3128 0.0327
C4 C -0.1639(4) 0.0676(3) 0.1233(3)
H4 H -0.2166 0.0019 0.1337
H5 H -0.2428 0.1077 0.0693
H6 H -0.1340 0.1077 0.1869
C5 C 0.1772(4) -0.0466(2) 0.1856(2)
H7 H 0.1962 -0.0143 0.2528
H8 H 0.2850 -0.0549 0.1708
H9 H 0.1249 -0.1149 0.1854
B1 B 0.1432(5) 0.2713(3) 0.1704(3)
H10 H 0.0554 0.2677 0.2190
B2 B 0.3328(5) 0.1952(3) 0.1987(3)
H11 H 0.3708 0.1425 0.2670
B3 B 0.3685(4) 0.1603(3) 0.0789(3)
H12 H 0.4292 0.0845 0.0691
B4 B 0.2031(4) 0.2166(3) -0.0229(2)
H13 H 0.1542 0.1777 -0.0993
B5 B 0.1793(5) 0.3899(3) 0.1100(3)
H14 H 0.1155 0.4644 0.1200
B6 B 0.3449(5) 0.3343(3) 0.2114(3)
H15 H 0.3909 0.3728 0.2881
B7 B 0.4858(5) 0.2656(3) 0.1547(3)
H16 H 0.6242 0.2592 0.1942
B8 B 0.4047(5) 0.2788(3) 0.0169(3)
H17 H 0.4897 0.2807 -0.0336
B9 B 0.2173(5) 0.3559(3) -0.0101(3)
H18 H 0.1786 0.4086 -0.0784
B10 B 0.3919(5) 0.3876(3) 0.0999(3)
H19 H 0.4682 0.4604 0.1037
Si1B Si -0.03319(10) -0.03914(6) -0.08452(5)
C1B C -0.1637(3) -0.16903(19) -0.08898(19)
C2B C -0.0765(4) -0.2856(2) -0.0365(2)
C3B C 0.1143(4) -0.2921(3) 0.0170(3)
H1B H 0.1556 -0.2240 0.0456
H2B H 0.1358 -0.3437 0.0719
H3B H 0.1726 -0.3128 -0.0327
B1B B -0.1432(5) -0.2713(3) -0.1704(3)
B2B B -0.3328(5) -0.1952(3) -0.1987(3)
H10B H -0.0554 -0.2677 -0.2190
B5B B -0.1793(5) -0.3899(3) -0.1100(3)
B4B B -0.2031(4) -0.2166(3) 0.0229(2)
B3B B -0.3685(4) -0.1603(3) -0.0789(3)
H11B H -0.3708 -0.1425 -0.2670
B6B B -0.3449(5) -0.3343(3) -0.2114(3)
H14B H -0.1155 -0.4644 -0.1200
B9B B -0.2173(5) -0.3559(3) 0.0101(3)
H12B H -0.4292 -0.0845 -0.0691
B7B B -0.4858(5) -0.2656(3) -0.1547(3)
H15B H -0.3909 -0.3728 -0.2881
B10B B -0.3919(5) -0.3876(3) -0.0999(3)
H16B H -0.6242 -0.2592 -0.1942
B8B B -0.4047(5) -0.2788(3) -0.0169(3)
H13B H -0.1542 -0.1777 0.0993
H17B H -0.4897 -0.2807 0.0336
H18B H -0.1786 -0.4086 0.0784
H19B H -0.4682 -0.4604 -0.1037
C4B C 0.1639(4) -0.0676(3) -0.1233(3)
H4B H 0.2166 -0.0019 -0.1337
H5B H 0.2428 -0.1077 -0.0693
H6B H 0.1340 -0.1077 -0.1869
C5B C -0.1772(4) 0.0466(2) -0.1856(2)
H7B H -0.1962 0.0143 -0.2528
H8B H -0.2850 0.0549 -0.1708
H9B H -0.1249 0.1149 -0.1854
loop_
_geom_bond_atom_site_label_1
_geom_bond_atom_site_label_2
_geom_bond_site_symmetry_1
_geom_bond_site_symmetry_2
Si1 C1 1_555 1_555
C1 C2 1_555 1_555
C2 C3 1_555 1_555
C3 H1 1_555 1_555
H2 C3 1_555 1_555
H3 C3 1_555 1_555
C4 Si1 1_555 1_555
H4 C4 1_555 1_555
H5 C4 1_555 1_555
H6 C4 1_555 1_555
C5 Si1 1_555 1_555
H7 C5 1_555 1_555
H8 C5 1_555 1_555
H9 C5 1_555 1_555
B1 C1 1_555 1_555
H10 B1 1_555 1_555
B2 C1 1_555 1_555
H11 B2 1_555 1_555
B3 C1 1_555 1_555
H12 B3 1_555 1_555
B4 C1 1_555 1_555
H13 B4 1_555 1_555
B5 C2 1_555 1_555
H14 B5 1_555 1_555
B6 B1 1_555 1_555
H15 B6 1_555 1_555
B7 B2 1_555 1_555
H16 B7 1_555 1_555
B8 B3 1_555 1_555
H17 B8 1_555 1_555
B9 C2 1_555 1_555
H18 B9 1_555 1_555
B10 B5 1_555 1_555
H19 B10 1_555 1_555
Si1B Si1 1_555 1_555
C1B Si1B 1_555 1_555
C2B C1B 1_555 1_555
C3B C2B 1_555 1_555
H1B C3B 1_555 1_555
H2B C3B 1_555 1_555
H3B C3B 1_555 1_555
B1B C1B 1_555 1_555
B2B C1B 1_555 1_555
H10B B1B 1_555 1_555
B5B C2B 1_555 1_555
B4B C1B 1_555 1_555
B3B C1B 1_555 1_555
H11B B2B 1_555 1_555
B6B B1B 1_555 1_555
H14B B5B 1_555 1_555
B9B C2B 1_555 1_555
H12B B3B 1_555 1_555
B7B B2B 1_555 1_555
H15B B6B 1_555 1_555
B10B B5B 1_555 1_555
H16B B7B 1_555 1_555
B8B B4B 1_555 1_555
H13B B4B 1_555 1_555
H17B B8B 1_555 1_555
H18B B9B 1_555 1_555
H19B B10B 1_555 1_555
C4B Si1B 1_555 1_555
H4B C4B 1_555 1_555
H5B C4B 1_555 1_555
H6B C4B 1_555 1_555
C5B Si1B 1_555 1_555
H7B C5B 1_555 1_555
H8B C5B 1_555 1_555
H9B C5B 1_555 1_555
C2 B1 1_555 1_555
C2 B4 1_555 1_555
B1 B5 1_555 1_555
B1 B2 1_555 1_555
B2 B6 1_555 1_555
B2 B3 1_555 1_555
B3 B7 1_555 1_555
B3 B4 1_555 1_555
B4 B9 1_555 1_555
B4 B8 1_555 1_555
B5 B9 1_555 1_555
B5 B6 1_555 1_555
B6 B10 1_555 1_555
B6 B7 1_555 1_555
B7 B8 1_555 1_555
B7 B10 1_555 1_555
B8 B9 1_555 1_555
B8 B10 1_555 1_555
B9 B10 1_555 1_555
C2B B1B 1_555 1_555
C2B B4B 1_555 1_555
B1B B5B 1_555 1_555
B1B B2B 1_555 1_555
B2B B6B 1_555 1_555
B2B B3B 1_555 1_555
B5B B9B 1_555 1_555
B5B B6B 1_555 1_555
B4B B9B 1_555 1_555
B4B B3B 1_555 1_555
B3B B7B 1_555 1_555
B3B B8B 1_555 1_555
B6B B10B 1_555 1_555
B6B B7B 1_555 1_555
B9B B8B 1_555 1_555
B9B B10B 1_555 1_555
B7B B8B 1_555 1_555
B7B B10B 1_555 1_555
B10B B8B 1_555 1_555

#END
