
#######################################################################
#
#                 Cambridge Crystallographic Data Centre
#                                CCDC 
#
#######################################################################
#
# If this CIF has been generated from an entry in the Cambridge 
# Structural Database, then it will include bibliographic, chemical, 
# crystal, experimental, refinement or atomic coordinate data resulting 
# from the CCDC's data processing and validation procedures.
#
#######################################################################

data_AROZAI
_chemical_formula_moiety         'C11 H14 Br1 N1 O2'
_chemical_name_systematic        
3-Bromo-N-(2-hydroxy-1,1-dimethylethyl)benzamide
_symmetry_cell_setting           triclinic
_symmetry_space_group_name_H-M   'P -1'
_symmetry_Int_Tables_number      2
_space_group_name_Hall           '-P 1'
loop_
_symmetry_equiv_pos_site_id
_symmetry_equiv_pos_as_xyz
1 x,y,z
2 -x,-y,-z
_cell_length_a                   7.2713(10)
_cell_length_b                   8.5860(9)
_cell_length_c                   9.8424(14)
_cell_angle_alpha                77.123(11)
_cell_angle_beta                 77.785(12)
_cell_angle_gamma                79.825(10)
_cell_volume                     580.026
_exptl_crystal_colour            colorless
_exptl_crystal_description       prism
_cell_formula_units_Z            2
_exptl_crystal_recrystallization_method dichloromethane
loop_
_atom_site_label
_atom_site_type_symbol
_atom_site_fract_x
_atom_site_fract_y
_atom_site_fract_z
Br1 Br 1.28291(7) 0.12781(7) 0.59471(6)
O1 O 0.5476(4) 0.6258(4) 0.7915(3)
O2 O 0.7493(4) 0.5503(4) 1.1278(3)
H1 H 0.6706 0.4874 1.1568
N1 N 0.8426(4) 0.6318(4) 0.8265(3)
H2 H 0.9604 0.5927 0.8076
C1 C 0.7960(5) 0.4455(5) 0.6864(4)
C2 C 0.9795(5) 0.3619(5) 0.6807(4)
H3 H 1.0616 0.3824 0.7334
C3 C 1.0367(5) 0.2489(5) 0.5961(4)
C4 C 0.9226(6) 0.2183(5) 0.5123(4)
H4 H 0.9662 0.1443 0.4527
C5 C 0.7407(6) 0.3018(5) 0.5200(5)
H5 H 0.6600 0.2827 0.4655
C6 C 0.6781(6) 0.4115(5) 0.6060(5)
H6 H 0.5544 0.4645 0.6110
C7 C 0.7194(5) 0.5740(5) 0.7734(4)
C8 C 0.7938(6) 0.7563(5) 0.9142(4)
C9 C 0.6649(6) 0.6969(5) 1.0544(5)
H7 H 0.6403 0.7778 1.1132
H8 H 0.5443 0.6817 1.0355
C10 C 0.9824(7) 0.7873(6) 0.9423(5)
H9 H 1.0622 0.8238 0.8538
H10 H 1.0448 0.6893 0.9910
H11 H 0.9583 0.8683 0.9996
C11 C 0.6925(8) 0.9129(6) 0.8360(5)
H12 H 0.5752 0.8924 0.8179
H13 H 0.7723 0.9502 0.7478
H14 H 0.6667 0.9937 0.8936
loop_
_geom_bond_atom_site_label_1
_geom_bond_atom_site_label_2
_geom_bond_site_symmetry_1
_geom_bond_site_symmetry_2
Br1 C3 1_555 1_555
O1 C7 1_555 1_555
O2 H1 1_555 1_555
N1 H2 1_555 1_555
C1 C2 1_555 1_555
C2 H3 1_555 1_555
C3 C2 1_555 1_555
C4 C3 1_555 1_555
H4 C4 1_555 1_555
C5 C4 1_555 1_555
H5 C5 1_555 1_555
C6 C1 1_555 1_555
H6 C6 1_555 1_555
C7 N1 1_555 1_555
C8 N1 1_555 1_555
C9 O2 1_555 1_555
H7 C9 1_555 1_555
H8 C9 1_555 1_555
C10 C8 1_555 1_555
H9 C10 1_555 1_555
H10 C10 1_555 1_555
H11 C10 1_555 1_555
C11 C8 1_555 1_555
H12 C11 1_555 1_555
H13 C11 1_555 1_555
H14 C11 1_555 1_555
C1 C7 1_555 1_555
C5 C6 1_555 1_555
C8 C9 1_555 1_555

#END
