
#######################################################################
#
#                 Cambridge Crystallographic Data Centre
#                                CCDC 
#
#######################################################################
#
# If this CIF has been generated from an entry in the Cambridge 
# Structural Database, then it will include bibliographic, chemical, 
# crystal, experimental, refinement or atomic coordinate data resulting 
# from the CCDC's data processing and validation procedures.
#
#######################################################################

data_ARUPEJ
_chemical_formula_moiety         'C22 H16 O8 S2'
_chemical_name_systematic        
"Tetramethyl thieno[3',2':3,4]naphtho[1,2-b]thiophene-7,8,9,10-tetracarboxylate"
_symmetry_cell_setting           monoclinic
_symmetry_space_group_name_H-M   'P 21/c'
_symmetry_Int_Tables_number      14
_space_group_name_Hall           '-P 2ybc'
loop_
_symmetry_equiv_pos_site_id
_symmetry_equiv_pos_as_xyz
1 x,y,z
2 -x,1/2+y,1/2-z
3 -x,-y,-z
4 x,1/2-y,1/2+z
_cell_length_a                   9.0718(3)
_cell_length_b                   19.0514(9)
_cell_length_c                   11.6545(4)
_cell_angle_alpha                90
_cell_angle_beta                 91.567(4)
_cell_angle_gamma                90
_cell_volume                     2013.5
_cell_formula_units_Z            4
loop_
_atom_site_label
_atom_site_type_symbol
_atom_site_fract_x
_atom_site_fract_y
_atom_site_fract_z
S1 S 0.47107(12) 0.62655(6) 0.54217(8)
S2 S 0.03740(12) 0.37509(6) 0.56864(9)
O1 O 0.3024(3) 0.68395(16) 0.3267(2)
O2 O 0.5085(3) 0.63110(16) 0.2689(3)
O3 O 0.3125(4) 0.51804(18) 0.0101(2)
O4 O 0.2725(4) 0.62336(17) 0.0889(2)
O5 O 0.0467(5) 0.4266(3) 0.0508(3)
O6 O 0.2439(6) 0.36350(19) 0.0986(3)
O7 O 0.1726(4) 0.30582(17) 0.3417(3)
O8 O -0.0430(3) 0.35812(16) 0.3019(3)
C1 C 0.4811(5) 0.6146(2) 0.6884(4)
H1 H 0.5433 0.6414 0.7385
C2 C 0.3918(5) 0.5631(2) 0.7244(3)
H2 H 0.3824 0.5501 0.8026
C3 C 0.3125(4) 0.5304(2) 0.6309(3)
C4 C 0.2112(4) 0.4743(2) 0.6383(3)
C5 C 0.1477(5) 0.4453(2) 0.7386(3)
H3 H 0.1694 0.4612 0.8144
C6 C 0.0533(5) 0.3925(2) 0.7129(4)
H4 H 0.0007 0.3675 0.7692
C7 C 0.1605(4) 0.4417(2) 0.5369(3)
C8 C 0.2020(4) 0.4668(2) 0.4261(3)
C9 C 0.1651(4) 0.4304(2) 0.3222(3)
C10 C 0.1964(5) 0.4581(2) 0.2157(3)
C11 C 0.2620(5) 0.5245(2) 0.2088(3)
C12 C 0.3068(4) 0.5590(2) 0.3093(3)
C13 C 0.2850(4) 0.5289(2) 0.4195(3)
C14 C 0.3440(4) 0.5589(2) 0.5252(3)
C15 C 0.3697(5) 0.6315(2) 0.3013(3)
C16 C 0.5767(6) 0.7001(3) 0.2623(5)
H5 H 0.6788 0.6950 0.2380
H6 H 0.5759 0.7226 0.3379
H7 H 0.5215 0.7291 0.2065
C17 C 0.2866(5) 0.5533(2) 0.0924(3)
C18 C 0.3011(7) 0.6553(3) -0.0207(4)
H8 H 0.2881 0.7062 -0.0151
H9 H 0.2322 0.6365 -0.0791
H10 H 0.4025 0.6449 -0.0422
C19 C 0.1520(6) 0.4164(3) 0.1106(4)
C20 C 0.2043(12) 0.3157(4) 0.0050(5)
H11 H 0.2776 0.2780 0.0017
H12 H 0.2018 0.3415 -0.0678
H13 H 0.1069 0.2954 0.0181
C21 C 0.1012(5) 0.3579(2) 0.3240(3)
C22 C -0.1135(6) 0.2902(3) 0.3011(5)
H14 H -0.2191 0.2958 0.2839
H15 H -0.0994 0.2680 0.3765
H16 H -0.0696 0.2605 0.2423
loop_
_geom_bond_atom_site_label_1
_geom_bond_atom_site_label_2
_geom_bond_site_symmetry_1
_geom_bond_site_symmetry_2
S1 C1 1_555 1_555
S2 C6 1_555 1_555
O1 C15 1_555 1_555
O2 C15 1_555 1_555
O3 C17 1_555 1_555
O4 C17 1_555 1_555
O5 C19 1_555 1_555
O6 C19 1_555 1_555
O7 C21 1_555 1_555
O8 C21 1_555 1_555
C1 H1 1_555 1_555
C2 C1 1_555 1_555
H2 C2 1_555 1_555
C3 C2 1_555 1_555
C4 C3 1_555 1_555
C5 C4 1_555 1_555
H3 C5 1_555 1_555
C6 C5 1_555 1_555
H4 C6 1_555 1_555
C7 S2 1_555 1_555
C8 C7 1_555 1_555
C9 C8 1_555 1_555
C10 C9 1_555 1_555
C11 C10 1_555 1_555
C12 C11 1_555 1_555
C13 C8 1_555 1_555
C14 S1 1_555 1_555
C15 C12 1_555 1_555
C16 O2 1_555 1_555
H5 C16 1_555 1_555
H6 C16 1_555 1_555
H7 C16 1_555 1_555
C17 C11 1_555 1_555
C18 O4 1_555 1_555
H8 C18 1_555 1_555
H9 C18 1_555 1_555
H10 C18 1_555 1_555
C19 C10 1_555 1_555
C20 O6 1_555 1_555
H11 C20 1_555 1_555
H12 C20 1_555 1_555
H13 C20 1_555 1_555
C21 C9 1_555 1_555
C22 O8 1_555 1_555
H14 C22 1_555 1_555
H15 C22 1_555 1_555
H16 C22 1_555 1_555
C3 C14 1_555 1_555
C4 C7 1_555 1_555
C12 C13 1_555 1_555
C13 C14 1_555 1_555

#END
