
#######################################################################
#
#                 Cambridge Crystallographic Data Centre
#                                CCDC 
#
#######################################################################
#
# If this CIF has been generated from an entry in the Cambridge 
# Structural Database, then it will include bibliographic, chemical, 
# crystal, experimental, refinement or atomic coordinate data resulting 
# from the CCDC's data processing and validation procedures.
#
#######################################################################

data_ARUQOU
_chemical_formula_moiety         
'C50 H52 N16,H1 O7 P2 3-,3(H2 O1),3(C16 H36 N1 1+),5(C1 H1 Cl3)'
_chemical_name_systematic        
'21,43-Di-t-butyl-10,10,32,32-tetramethyl-2,3,4,16,17,18,24,25,26,38,39,40,47,48,52,53-hexadecaazaundecacyclo[39.3.1.1^2,5 ^.1^6,9^.1^11,14^.1^15,18^.1^19,23^.1^24,27^.1^28,31^.1^33,36^.1^37,40^]tetrapentaconta-1(45),3,5(54),6,8,11,13,15(51),16,19(50),20,22,25,27(49),28,30,33,35,37(46),38,4 1,43-d ocosaene tris(tetra-n-butylammonium) hydrogen diphosphate chloroform solvate trihydrate'
_symmetry_cell_setting           monoclinic
_symmetry_space_group_name_H-M   'P 21/c'
_symmetry_Int_Tables_number      14
_space_group_name_Hall           '-P 2ybc'
loop_
_symmetry_equiv_pos_site_id
_symmetry_equiv_pos_as_xyz
1 x,y,z
2 -x,1/2+y,1/2-z
3 -x,-y,-z
4 x,1/2-y,1/2+z
_cell_length_a                   17.507(4)
_cell_length_b                   39.237(8)
_cell_length_c                   24.684(5)
_cell_angle_alpha                90
_cell_angle_beta                 131.52(3)
_cell_angle_gamma                90
_cell_volume                     12695.4
_exptl_crystal_colour            yellow
_exptl_crystal_description       prism
_cell_formula_units_Z            4
loop_
_atom_site_label
_atom_site_type_symbol
_atom_site_fract_x
_atom_site_fract_y
_atom_site_fract_z
N1 N 0.2019(2) 0.77753(7) 0.25390(16)
N2 N 0.1324(3) 0.79492(8) 0.19115(17)
N3 N 0.0603(3) 0.77327(8) 0.14285(18)
N4 N 0.0321(2) 0.68103(8) 0.16006(17)
H1 H 0.0815 0.6754 0.2044
N5 N 0.1297(3) 0.59784(8) 0.17947(18)
H2 H 0.1600 0.6062 0.2216
N6 N 0.3099(4) 0.54088(14) 0.1988(3)
N7 N 0.4092(4) 0.53617(14) 0.2505(3)
N8 N 0.4443(3) 0.56019(10) 0.2989(2)
N9 N 0.7335(3) 0.58399(9) 0.5538(2)
N10 N 0.8369(3) 0.58024(10) 0.6133(3)
N11 N 0.8543(3) 0.59219(10) 0.6700(3)
N12 N 0.6832(3) 0.63241(10) 0.6888(2)
H3 H 0.6255 0.6361 0.6461
N13 N 0.5766(3) 0.71212(11) 0.67519(18)
H4 H 0.5373 0.7012 0.6349
N14 N 0.5268(3) 0.80212(10) 0.6254(2)
N15 N 0.4778(3) 0.81784(10) 0.5625(2)
N16 N 0.4592(2) 0.79368(9) 0.51577(18)
C1 C 0.3942(3) 0.84630(10) 0.3647(2)
C2 C 0.4378(3) 0.83444(10) 0.4332(2)
H5 H 0.4879 0.8475 0.4736
C3 C 0.4090(3) 0.80412(10) 0.4428(2)
C4 C 0.3324(3) 0.78413(10) 0.3848(2)
H6 H 0.3126 0.7637 0.3915
C5 C 0.2870(3) 0.79592(9) 0.3167(2)
C6 C 0.3180(3) 0.82585(10) 0.3063(2)
H7 H 0.2874 0.8324 0.2596
C7 C 0.4956(3) 0.76299(10) 0.5486(2)
H8 H 0.4915 0.7425 0.5280
C8 C 0.5399(3) 0.76873(11) 0.6193(2)
C9 C 0.5928(3) 0.74618(12) 0.6813(2)
C10 C 0.6604(3) 0.75421(13) 0.7541(2)
H9 H 0.6858 0.7758 0.7740
C11 C 0.6840(3) 0.72363(13) 0.7928(2)
H10 H 0.7267 0.7215 0.8428
C12 C 0.6316(3) 0.69734(13) 0.7423(2)
C13 C 0.6314(4) 0.66020(13) 0.7539(2)
C14 C 0.6641(5) 0.65490(16) 0.8290(3)
H11 H 0.7311 0.6642 0.8659
H12 H 0.6650 0.6310 0.8375
H13 H 0.6166 0.6662 0.8302
C15 C 0.5224(4) 0.64473(14) 0.6965(3)
H14 H 0.4997 0.6474 0.6491
H15 H 0.4762 0.6563 0.6987
H16 H 0.5242 0.6209 0.7063
C16 C 0.7057(3) 0.64190(13) 0.7524(2)
C17 C 0.8032(4) 0.63241(13) 0.8082(3)
H17 H 0.8389 0.6357 0.8571
C18 C 0.8404(4) 0.61680(13) 0.7790(3)
H18 H 0.9058 0.6079 0.8058
C19 C 0.7642(3) 0.61652(12) 0.7025(3)
C20 C 0.7660(3) 0.60362(10) 0.6501(3)
C21 C 0.6878(3) 0.59850(12) 0.5761(3)
H19 H 0.6191 0.6038 0.5479
C22 C 0.6929(3) 0.57123(11) 0.4861(3)
C23 C 0.7569(4) 0.55717(15) 0.4792(3)
H20 H 0.8267 0.5575 0.5187
C24 C 0.7212(4) 0.54232(15) 0.4152(3)
C25 C 0.6144(4) 0.54404(13) 0.3534(3)
H21 H 0.5882 0.5350 0.3092
C26 C 0.5511(3) 0.55954(11) 0.3610(3)
C27 C 0.5876(3) 0.57349(11) 0.4263(3)
H22 H 0.5438 0.5840 0.4302
C28 C 0.3663(3) 0.57918(11) 0.2797(2)
H23 H 0.3700 0.5965 0.3071
C29 C 0.2811(3) 0.56894(12) 0.2134(3)
C30 C 0.1743(3) 0.57915(10) 0.1613(3)
C31 C 0.1017(4) 0.57014(12) 0.0892(2)
H24 H 0.1120 0.5572 0.0629
C32 C 0.0089(4) 0.58437(12) 0.0634(3)
H25 H -0.0537 0.5825 0.0165
C33 C 0.0265(3) 0.60135(10) 0.1189(2)
C34 C -0.0455(3) 0.62178(10) 0.1207(2)
C35 C -0.0222(3) 0.61660(10) 0.1918(2)
H26 H 0.0458 0.6243 0.2313
H27 H -0.0278 0.5928 0.1979
H28 H -0.0699 0.6294 0.1907
C36 C -0.1562(3) 0.60888(11) 0.0592(2)
H29 H -0.1604 0.5852 0.0665
H30 H -0.1741 0.6119 0.0134
H31 H -0.2025 0.6216 0.0598
C37 C -0.0428(3) 0.65954(9) 0.1068(2)
C38 C -0.1070(3) 0.67834(10) 0.0440(2)
H32 H -0.1645 0.6702 -0.0010
C39 C -0.0701(3) 0.71179(10) 0.0599(2)
H33 H -0.0990 0.7299 0.0276
C40 C 0.0164(3) 0.71307(10) 0.1318(2)
C41 C 0.0844(3) 0.74162(9) 0.17515(19)
C42 C 0.1744(3) 0.74451(10) 0.2461(2)
H34 H 0.2087 0.7274 0.2810
C43 C 0.4295(4) 0.87921(11) 0.3557(3)
C44 C 0.3927(6) 0.90895(17) 0.3723(5)
H35 H 0.3195 0.9089 0.3391
H36 H 0.4159 0.9299 0.3673
H37 H 0.4193 0.9069 0.4209
C45 C 0.5493(5) 0.88072(17) 0.4115(4)
H38 H 0.5755 0.8621 0.4027
H39 H 0.5745 0.8791 0.4597
H40 H 0.5711 0.9019 0.4060
C46 C 0.3987(6) 0.88276(17) 0.2834(3)
H41 H 0.3257 0.8820 0.2464
H42 H 0.4277 0.8645 0.2763
H43 H 0.4230 0.9041 0.2809
C47 C 0.7935(4) 0.52699(19) 0.4072(3)
C48 C 0.8588(8) 0.5538(3) 0.4130(6)
H44 H 0.8164 0.5705 0.3758
H45 H 0.9031 0.5436 0.4074
H46 H 0.8991 0.5645 0.4595
C49 C 0.7415(10) 0.5059(4) 0.3424(7)
H47 H 0.6955 0.5198 0.3001
H48 H 0.7038 0.4883 0.3426
H49 H 0.7910 0.4959 0.3419
C50 C 0.8652(8) 0.4987(3) 0.4703(6)
H50 H 0.9110 0.4890 0.4657
H51 H 0.8232 0.4811 0.4657
H52 H 0.9039 0.5094 0.5169
N17 N 0.3913(2) 0.70982(8) 0.21888(17)
C51 C 0.4264(3) 0.72398(10) 0.2893(2)
H53 H 0.4276 0.7055 0.3159
H54 H 0.3761 0.7404 0.2780
C52 C 0.5305(3) 0.74116(11) 0.3386(2)
H55 H 0.5830 0.7243 0.3565
H56 H 0.5334 0.7580 0.3113
C53 C 0.5501(3) 0.75815(11) 0.4015(2)
H57 H 0.5423 0.7414 0.4265
H58 H 0.4993 0.7758 0.3833
C54 C 0.6560(3) 0.77403(13) 0.4554(2)
H59 H 0.6640 0.7844 0.4942
H60 H 0.6638 0.7910 0.4314
H61 H 0.7068 0.7567 0.4746
C55 C 0.3787(3) 0.73878(10) 0.1714(2)
H62 H 0.4460 0.7469 0.1930
H63 H 0.3474 0.7294 0.1243
C56 C 0.3155(3) 0.76918(11) 0.1604(2)
H64 H 0.2513 0.7614 0.1453
H65 H 0.3520 0.7817 0.2054
C57 C 0.2957(4) 0.79220(11) 0.1027(3)
H66 H 0.3604 0.7982 0.1165
H67 H 0.2559 0.7798 0.0573
C58 C 0.2398(5) 0.82433(14) 0.0916(3)
H68 H 0.2288 0.8379 0.0546
H69 H 0.2796 0.8370 0.1360
H70 H 0.1752 0.8185 0.0771
C59 C 0.4700(3) 0.68552(10) 0.2314(2)
H71 H 0.4451 0.6778 0.1848
H72 H 0.5327 0.6981 0.2547
C60 C 0.4943(3) 0.65450(12) 0.2772(2)
H73 H 0.4396 0.6380 0.2484
H74 H 0.5004 0.6611 0.3177
C61 C 0.5967(5) 0.63827(14) 0.3055(3)
H75 H 0.6493 0.6557 0.3303
H76 H 0.6170 0.6207 0.3405
C62 C 0.5904(6) 0.6231(2) 0.2475(4)
H77 H 0.6554 0.6136 0.2684
H78 H 0.5721 0.6405 0.2133
H79 H 0.5396 0.6055 0.2234
C63 C 0.2905(3) 0.69161(10) 0.1814(2)
H80 H 0.2417 0.7081 0.1719
H81 H 0.3008 0.6748 0.2145
C64 C 0.2438(3) 0.67377(12) 0.1105(2)
H82 H 0.2425 0.6893 0.0793
H83 H 0.2853 0.6543 0.1202
C65 C 0.1370(3) 0.66215(12) 0.0729(2)
H84 H 0.0963 0.6816 0.0649
H85 H 0.1388 0.6460 0.1035
C66 C 0.0872(4) 0.64520(15) -0.0001(3)
H86 H 0.0192 0.6381 -0.0231
H87 H 0.1267 0.6257 0.0078
H88 H 0.0848 0.6612 -0.0307
N18 N 0.8503(4) 0.48910(12) 0.6918(3)
C83 C 0.8293(6) 0.45408(18) 0.6607(6)
H125 H 0.8918 0.4409 0.6920
H126 H 0.7798 0.4432 0.6610
C84 C 0.7910(6) 0.45258(17) 0.5870(6)
H127 H 0.7200 0.4596 0.5522
H128 H 0.8307 0.4673 0.5822
C85 C 0.8018(8) 0.4171(2) 0.5762(6)
H129 H 0.7749 0.4021 0.5914
H130 H 0.8729 0.4115 0.6034
C86 C 0.7397(10) 0.4136(3) 0.4942(8)
H131 H 0.7432 0.3906 0.4831
H132 H 0.7674 0.4286 0.4802
H133 H 0.6698 0.4196 0.4681
C87 C 0.7530(4) 0.51080(13) 0.6445(3)
H134 H 0.7702 0.5336 0.6648
H135 H 0.7312 0.5126 0.5968
C88 C 0.6626(4) 0.49827(12) 0.6354(3)
H136 H 0.6846 0.4937 0.6825
H137 H 0.6367 0.4772 0.6078
C89 C 0.5781(4) 0.52524(13) 0.5960(3)
H138 H 0.6063 0.5464 0.6230
H139 H 0.5566 0.5293 0.5488
C90 C 0.4874(6) 0.5164(2) 0.5859(4)
H140 H 0.4386 0.5346 0.5610
H141 H 0.5073 0.5129 0.6323
H142 H 0.4574 0.4958 0.5579
C91 C 0.9286(5) 0.50786(18) 0.6922(4)
H143 H 0.9451 0.5297 0.7162
H144 H 0.8978 0.5122 0.6426
C92 C 1.0291(6) 0.4870(2) 0.7312(5)
H145 H 1.0703 0.4887 0.7831
H146 H 1.0119 0.4632 0.7179
C93 C 1.0886(10) 0.4988(3) 0.7131(8)
H147 H 1.1494 0.4850 0.7370
H148 H 1.0487 0.4980 0.6613
C94 C 1.1150(7) 0.5336(3) 0.7394(7)
H149 H 1.1555 0.5433 0.7299
H150 H 1.1533 0.5337 0.7906
H151 H 1.0538 0.5467 0.7152
C95 C 0.8896(6) 0.4868(2) 0.7694(5)
H152 H 0.8389 0.4745 0.7664
H153 H 0.9509 0.4730 0.7980
C96 C 0.9140(9) 0.5195(3) 0.8113(5)
H154 H 0.8529 0.5334 0.7811
H155 H 0.9654 0.5313 0.8143
C97 C 0.9511(11) 0.5204(4) 0.8883(6)
H156 H 0.9309 0.5416 0.8959
H157 H 0.9218 0.5016 0.8948
C98 C 1.0644(13) 0.5175(8) 0.9401(14)
H158 H 1.0907 0.5180 0.9887
H159 H 1.0922 0.5362 0.9328
H160 H 1.0833 0.4964 0.9320
N19 N -0.0865(3) 0.77997(9) 0.2459(2)
C67 C 0.0163(3) 0.79605(11) 0.2772(3)
H89 H 0.0716 0.7822 0.3173
H90 H 0.0212 0.7958 0.2403
C68 C 0.0296(3) 0.83256(11) 0.3035(3)
H91 H -0.0274 0.8463 0.2644
H92 H 0.0300 0.8328 0.3429
C69 C 0.1288(3) 0.84786(12) 0.3291(3)
H93 H 0.1862 0.8352 0.3707
H94 H 0.1309 0.8460 0.2909
C70 C 0.1377(5) 0.88489(15) 0.3494(4)
H95 H 0.2008 0.8940 0.3655
H96 H 0.1364 0.8867 0.3875
H97 H 0.0816 0.8975 0.3079
C71 C -0.1763(3) 0.80047(12) 0.1820(3)
H98 H -0.2388 0.7889 0.1628
H99 H -0.1765 0.8225 0.1996
C72 C -0.1780(4) 0.80617(13) 0.1210(3)
H100 H -0.1557 0.7857 0.1130
H101 H -0.1315 0.8245 0.1335
C73 C -0.2860(4) 0.81538(13) 0.0521(3)
H102 H -0.3290 0.7954 0.0353
H103 H -0.3128 0.8327 0.0636
C74 C -0.2923(5) 0.82808(15) -0.0072(3)
H104 H -0.3619 0.8334 -0.0485
H105 H -0.2676 0.8109 -0.0200
H106 H -0.2513 0.8482 0.0085
C75 C -0.0978(4) 0.77934(12) 0.3012(3)
H107 H -0.1043 0.8026 0.3108
H108 H -0.1608 0.7676 0.2804
C76 C -0.0123(4) 0.76262(13) 0.3721(3)
H109 H 0.0504 0.7753 0.3957
H110 H -0.0023 0.7396 0.3633
C77 C -0.0354(4) 0.76131(14) 0.4215(3)
H111 H -0.0455 0.7843 0.4302
H112 H -0.0982 0.7487 0.3977
C78 C 0.0465(4) 0.74521(17) 0.4902(3)
H113 H 0.0293 0.7448 0.5199
H114 H 0.1084 0.7579 0.5143
H115 H 0.0559 0.7223 0.4818
C79 C -0.0873(4) 0.74402(11) 0.2216(3)
H116 H -0.0342 0.7307 0.2640
H117 H -0.0709 0.7454 0.1911
C80 C -0.1897(4) 0.72516(12) 0.1799(3)
H118 H -0.2083 0.7241 0.2091
H119 H -0.2429 0.7374 0.1357
C81 C -0.1799(4) 0.69006(12) 0.1621(3)
H120 H -0.1238 0.6785 0.2064
H121 H -0.1637 0.6915 0.1314
C82 C -0.2762(3) 0.66919(11) 0.1240(2)
H122 H -0.2661 0.6469 0.1137
H123 H -0.3317 0.6802 0.0795
H124 H -0.2918 0.6673 0.1545
O8 O 0.2482(3) 0.72890(9) 0.4351(2)
O9 O 0.4234(2) 0.58141(8) 0.44656(17)
O10 O 0.2420(3) 0.79066(11) 0.4846(2)
P1 P 0.27694(9) 0.65269(3) 0.34425(6)
P2 P 0.43718(8) 0.66693(3) 0.50033(5)
O1 O 0.1828(2) 0.67405(8) 0.30734(17)
O2 O 0.3565(3) 0.66872(12) 0.34456(19)
O3 O 0.2547(2) 0.61586(8) 0.32166(15)
O4 O 0.4761(2) 0.68939(7) 0.47035(15)
O5 O 0.4165(2) 0.68917(7) 0.53863(14)
O6 O 0.5064(2) 0.63710(8) 0.54327(15)
O7 O 0.33038(19) 0.65229(7) 0.42935(13)
loop_
_geom_bond_atom_site_label_1
_geom_bond_atom_site_label_2
_geom_bond_site_symmetry_1
_geom_bond_site_symmetry_2
P1 O1 1_555 1_555
P2 O4 1_555 1_555
O2 P1 1_555 1_555
O3 P1 1_555 1_555
O5 P2 1_555 1_555
O6 P2 1_555 1_555
O7 P1 1_555 1_555
N1 N2 1_555 1_555
N2 N3 1_555 1_555
N3 C41 1_555 1_555
N4 H1 1_555 1_555
N5 H2 1_555 1_555
N6 N7 1_555 1_555
N7 N8 1_555 1_555
N8 C26 1_555 1_555
N9 N10 1_555 1_555
N10 N11 1_555 1_555
N11 C20 1_555 1_555
N12 H3 1_555 1_555
N13 H4 1_555 1_555
N14 N15 1_555 1_555
N15 N16 1_555 1_555
N16 C3 1_555 1_555
N17 C51 1_555 1_555
N18 C83 1_555 1_555
N19 C67 1_555 1_555
C1 C2 1_555 1_555
C2 H5 1_555 1_555
C3 C2 1_555 1_555
C4 C3 1_555 1_555
H6 C4 1_555 1_555
C5 N1 1_555 1_555
C6 C1 1_555 1_555
H7 C6 1_555 1_555
C7 N16 1_555 1_555
H8 C7 1_555 1_555
C8 N14 1_555 1_555
C9 N13 1_555 1_555
C10 C9 1_555 1_555
H9 C10 1_555 1_555
C11 C10 1_555 1_555
H10 C11 1_555 1_555
C12 N13 1_555 1_555
C13 C12 1_555 1_555
C14 C13 1_555 1_555
H11 C14 1_555 1_555
H12 C14 1_555 1_555
H13 C14 1_555 1_555
C15 C13 1_555 1_555
H14 C15 1_555 1_555
H15 C15 1_555 1_555
H16 C15 1_555 1_555
C16 N12 1_555 1_555
C17 C16 1_555 1_555
H17 C17 1_555 1_555
C18 C17 1_555 1_555
H18 C18 1_555 1_555
C19 N12 1_555 1_555
C20 C19 1_555 1_555
C21 N9 1_555 1_555
H19 C21 1_555 1_555
C22 N9 1_555 1_555
C23 C22 1_555 1_555
H20 C23 1_555 1_555
C24 C23 1_555 1_555
C25 C24 1_555 1_555
H21 C25 1_555 1_555
C26 C25 1_555 1_555
C27 C22 1_555 1_555
H22 C27 1_555 1_555
C28 N8 1_555 1_555
H23 C28 1_555 1_555
C29 N6 1_555 1_555
C30 N5 1_555 1_555
C31 C30 1_555 1_555
H24 C31 1_555 1_555
C32 C31 1_555 1_555
H25 C32 1_555 1_555
C33 N5 1_555 1_555
C34 C33 1_555 1_555
C35 C34 1_555 1_555
H26 C35 1_555 1_555
H27 C35 1_555 1_555
H28 C35 1_555 1_555
C36 C34 1_555 1_555
H29 C36 1_555 1_555
H30 C36 1_555 1_555
H31 C36 1_555 1_555
C37 N4 1_555 1_555
C38 C37 1_555 1_555
H32 C38 1_555 1_555
C39 C38 1_555 1_555
H33 C39 1_555 1_555
C40 N4 1_555 1_555
C41 C40 1_555 1_555
C42 N1 1_555 1_555
H34 C42 1_555 1_555
C43 C1 1_555 1_555
C44 C43 1_555 1_555
H35 C44 1_555 1_555
H36 C44 1_555 1_555
H37 C44 1_555 1_555
C45 C43 1_555 1_555
H38 C45 1_555 1_555
H39 C45 1_555 1_555
H40 C45 1_555 1_555
C46 C43 1_555 1_555
H41 C46 1_555 1_555
H42 C46 1_555 1_555
H43 C46 1_555 1_555
C47 C24 1_555 1_555
C48 C47 1_555 1_555
H44 C48 1_555 1_555
H45 C48 1_555 1_555
H46 C48 1_555 1_555
C49 C47 1_555 1_555
H47 C49 1_555 1_555
H48 C49 1_555 1_555
H49 C49 1_555 1_555
C50 C47 1_555 1_555
H50 C50 1_555 1_555
H51 C50 1_555 1_555
H52 C50 1_555 1_555
C51 H53 1_555 1_555
H54 C51 1_555 1_555
C52 C51 1_555 1_555
H55 C52 1_555 1_555
H56 C52 1_555 1_555
C53 C52 1_555 1_555
H57 C53 1_555 1_555
H58 C53 1_555 1_555
C54 C53 1_555 1_555
H59 C54 1_555 1_555
H60 C54 1_555 1_555
H61 C54 1_555 1_555
C55 N17 1_555 1_555
H62 C55 1_555 1_555
H63 C55 1_555 1_555
C56 C55 1_555 1_555
H64 C56 1_555 1_555
H65 C56 1_555 1_555
C57 C56 1_555 1_555
H66 C57 1_555 1_555
H67 C57 1_555 1_555
C58 C57 1_555 1_555
H68 C58 1_555 1_555
H69 C58 1_555 1_555
H70 C58 1_555 1_555
C59 N17 1_555 1_555
H71 C59 1_555 1_555
H72 C59 1_555 1_555
C60 C59 1_555 1_555
H73 C60 1_555 1_555
H74 C60 1_555 1_555
C61 C60 1_555 1_555
H75 C61 1_555 1_555
H76 C61 1_555 1_555
C62 C61 1_555 1_555
H77 C62 1_555 1_555
H78 C62 1_555 1_555
H79 C62 1_555 1_555
C63 N17 1_555 1_555
H80 C63 1_555 1_555
H81 C63 1_555 1_555
C64 C63 1_555 1_555
H82 C64 1_555 1_555
H83 C64 1_555 1_555
C65 C64 1_555 1_555
H84 C65 1_555 1_555
H85 C65 1_555 1_555
C66 C65 1_555 1_555
H86 C66 1_555 1_555
H87 C66 1_555 1_555
H88 C66 1_555 1_555
C67 H89 1_555 1_555
H90 C67 1_555 1_555
C68 C67 1_555 1_555
H91 C68 1_555 1_555
H92 C68 1_555 1_555
C69 C68 1_555 1_555
H93 C69 1_555 1_555
H94 C69 1_555 1_555
C70 C69 1_555 1_555
H95 C70 1_555 1_555
H96 C70 1_555 1_555
H97 C70 1_555 1_555
C71 N19 1_555 1_555
H98 C71 1_555 1_555
H99 C71 1_555 1_555
C72 C71 1_555 1_555
H100 C72 1_555 1_555
H101 C72 1_555 1_555
C73 C72 1_555 1_555
H102 C73 1_555 1_555
H103 C73 1_555 1_555
C74 C73 1_555 1_555
H104 C74 1_555 1_555
H105 C74 1_555 1_555
H106 C74 1_555 1_555
C75 N19 1_555 1_555
H107 C75 1_555 1_555
H108 C75 1_555 1_555
C76 C75 1_555 1_555
H109 C76 1_555 1_555
H110 C76 1_555 1_555
C77 C76 1_555 1_555
H111 C77 1_555 1_555
H112 C77 1_555 1_555
C78 C77 1_555 1_555
H113 C78 1_555 1_555
H114 C78 1_555 1_555
H115 C78 1_555 1_555
C79 N19 1_555 1_555
H116 C79 1_555 1_555
H117 C79 1_555 1_555
C80 C79 1_555 1_555
H118 C80 1_555 1_555
H119 C80 1_555 1_555
C81 C80 1_555 1_555
H120 C81 1_555 1_555
H121 C81 1_555 1_555
C82 C81 1_555 1_555
H122 C82 1_555 1_555
H123 C82 1_555 1_555
H124 C82 1_555 1_555
C83 H125 1_555 1_555
H126 C83 1_555 1_555
C84 C83 1_555 1_555
H127 C84 1_555 1_555
H128 C84 1_555 1_555
C85 C84 1_555 1_555
H129 C85 1_555 1_555
H130 C85 1_555 1_555
C86 C85 1_555 1_555
H131 C86 1_555 1_555
H132 C86 1_555 1_555
H133 C86 1_555 1_555
C87 N18 1_555 1_555
H134 C87 1_555 1_555
H135 C87 1_555 1_555
C88 C87 1_555 1_555
H136 C88 1_555 1_555
H137 C88 1_555 1_555
C89 C88 1_555 1_555
H138 C89 1_555 1_555
H139 C89 1_555 1_555
C90 C89 1_555 1_555
H140 C90 1_555 1_555
H141 C90 1_555 1_555
H142 C90 1_555 1_555
C91 N18 1_555 1_555
H143 C91 1_555 1_555
H144 C91 1_555 1_555
C92 C91 1_555 1_555
H145 C92 1_555 1_555
H146 C92 1_555 1_555
C93 C92 1_555 1_555
H147 C93 1_555 1_555
H148 C93 1_555 1_555
C94 C93 1_555 1_555
H149 C94 1_555 1_555
H150 C94 1_555 1_555
H151 C94 1_555 1_555
C95 N18 1_555 1_555
H152 C95 1_555 1_555
H153 C95 1_555 1_555
C96 C95 1_555 1_555
H154 C96 1_555 1_555
H155 C96 1_555 1_555
C97 C96 1_555 1_555
H156 C97 1_555 1_555
H157 C97 1_555 1_555
C98 C97 1_555 1_555
H158 C98 1_555 1_555
H159 C98 1_555 1_555
H160 C98 1_555 1_555
P2 O7 1_555 1_555
C4 C5 1_555 1_555
C5 C6 1_555 1_555
C7 C8 1_555 1_555
C8 C9 1_555 1_555
C11 C12 1_555 1_555
C13 C16 1_555 1_555
C18 C19 1_555 1_555
C20 C21 1_555 1_555
C26 C27 1_555 1_555
C28 C29 1_555 1_555
C29 C30 1_555 1_555
C32 C33 1_555 1_555
C34 C37 1_555 1_555
C39 C40 1_555 1_555
C41 C42 1_555 1_555

#END
