
#######################################################################
#
#                 Cambridge Crystallographic Data Centre
#                                CCDC 
#
#######################################################################
#
# If this CIF has been generated from an entry in the Cambridge 
# Structural Database, then it will include bibliographic, chemical, 
# crystal, experimental, refinement or atomic coordinate data resulting 
# from the CCDC's data processing and validation procedures.
#
#######################################################################

data_ARURAI
_chemical_formula_moiety         'C47 H34 N6 O3'
_chemical_name_systematic        
20,22-dimethyl-2,7,12,17-tetraphenyl-20,22,24,25,26,27-hexaazapentacyclo[16.5.1.1^3,6^.1^8,11^.1^13,16^]heptacosa-1(24),2,4,6,8(26),9,11,13,15,17-decaene-19,21,23-trione
_symmetry_cell_setting           orthorhombic
_symmetry_space_group_name_H-M   'P c a 21'
_symmetry_Int_Tables_number      29
_space_group_name_Hall           'P 2c -2ac'
loop_
_symmetry_equiv_pos_site_id
_symmetry_equiv_pos_as_xyz
1 x,y,z
2 -x,-y,1/2+z
3 1/2-x,y,1/2+z
4 1/2+x,-y,z
_cell_length_a                   26.853(2)
_cell_length_b                   10.1988(10)
_cell_length_c                   27.005(3)
_cell_angle_alpha                90
_cell_angle_beta                 90
_cell_angle_gamma                90
_cell_volume                     7395.82
_exptl_crystal_colour            purple
_exptl_crystal_description       plate
_cell_formula_units_Z            8
loop_
_atom_site_label
_atom_site_type_symbol
_atom_site_fract_x
_atom_site_fract_y
_atom_site_fract_z
O1 O 0.9557(6) -0.0522(17) 0.6081(6)
O2 O 0.7976(6) -0.0148(14) 0.6139(7)
O3 O 0.8243(6) 0.3348(15) 0.5345(7)
N1 N 0.9360(6) 0.2186(16) 0.5485(7)
N2 N 0.9907(6) 0.4493(16) 0.5771(8)
H1 H 0.9898 0.3999 0.5503
N3 N 1.0487(7) 0.4233(18) 0.4894(8)
N4 N 0.9989(6) 0.1866(16) 0.4634(7)
H2 H 0.9966 0.2462 0.4868
N5 N 0.8800(6) 0.0240(19) 0.6181(8)
N6 N 0.8274(7) 0.1218(17) 0.5566(7)
C1 C 0.9322(8) 0.080(2) 0.5441(11)
C2 C 0.9205(10) 0.0087(19) 0.5905(9)
C3 C 0.8327(8) 0.031(3) 0.5975(8)
C4 C 0.8475(8) 0.247(2) 0.5553(10)
C5 C 0.8991(9) 0.2791(19) 0.5757(10)
C6 C 0.9065(8) 0.3936(18) 0.6033(9)
C7 C 0.9528(8) 0.4505(17) 0.6141(12)
C8 C 0.9653(8) 0.5485(18) 0.6441(12)
H3 H 0.9438 0.5854 0.6683
C9 C 1.0135(8) 0.590(2) 0.6355(11)
H4 H 1.0333 0.6444 0.6562
C10 C 1.0277(10) 0.532(2) 0.5878(10)
C11 C 1.0686(7) 0.565(2) 0.5600(10)
C12 C 1.0734(8) 0.520(2) 0.5073(11)
C13 C 1.1068(8) 0.581(2) 0.4756(10)
H5 H 1.1286 0.6522 0.4830
C14 C 1.1008(8) 0.513(2) 0.4281(9)
H6 H 1.1160 0.5307 0.3970
C15 C 1.0654(8) 0.411(2) 0.4414(12)
C16 C 1.0553(8) 0.309(2) 0.4063(10)
C17 C 1.0251(8) 0.202(2) 0.4181(9)
C18 C 1.0190(8) 0.0831(18) 0.3923(9)
H7 H 1.0325 0.0637 0.3606
C19 C 0.9916(8) 0.0027(18) 0.4193(11)
H8 H 0.9822 -0.0835 0.4097
C20 C 0.9779(8) 0.064(2) 0.4650(9)
C21 C 0.9482(7) 0.0081(18) 0.5039(7)
C22 C 0.8805(9) -0.021(3) 0.6712(9)
H9 H 0.8503 0.0098 0.6880
H10 H 0.9098 0.0146 0.6880
H11 H 0.8816 -0.1172 0.6723
C23 C 0.7821(8) 0.103(2) 0.5265(9)
H12 H 0.7545 0.1524 0.5412
H13 H 0.7735 0.0096 0.5255
H14 H 0.7881 0.1345 0.4927
C24 C 0.8612(7) 0.4486(19) 0.6310(8)
C25 C 0.8310(7) 0.378(2) 0.6591(9)
H15 H 0.8375 0.2865 0.6621
C26 C 0.7884(8) 0.431(2) 0.6857(8)
H16 H 0.7669 0.3761 0.7045
C27 C 0.7808(7) 0.564(2) 0.6822(9)
H17 H 0.7552 0.6072 0.7002
C28 C 0.8129(9) 0.631(2) 0.6507(10)
H18 H 0.8073 0.7218 0.6451
C29 C 0.8531(8) 0.571(2) 0.6267(9)
H19 H 0.8748 0.6224 0.6069
C30 C 1.1052(7) 0.665(2) 0.5782(9)
C31 C 1.0945(9) 0.790(2) 0.5859(10)
H20 H 1.0622 0.8210 0.5775
C32 C 1.1303(11) 0.882(2) 0.6066(11)
H21 H 1.1217 0.9688 0.6154
C33 C 1.1792(9) 0.831(3) 0.6127(9)
H22 H 1.2050 0.8882 0.6231
C34 C 1.1898(9) 0.710(3) 0.6045(10)
H23 H 1.2224 0.6789 0.6115
C35 C 1.1541(8) 0.623(2) 0.5855(9)
H24 H 1.1633 0.5353 0.5776
C36 C 1.0811(9) 0.307(2) 0.3574(9)
C37 C 1.1333(8) 0.308(2) 0.3534(10)
H25 H 1.1531 0.3185 0.3822
C38 C 1.1564(9) 0.2942(19) 0.3065(12)
H26 H 1.1917 0.2918 0.3035
C39 C 1.1278(11) 0.285(3) 0.2676(10)
H27 H 1.1433 0.2771 0.2360
C40 C 1.0762(10) 0.285(2) 0.2695(11)
H28 H 1.0572 0.2799 0.2398
C41 C 1.0527(9) 0.292(2) 0.3142(10)
H29 H 1.0175 0.2879 0.3160
C42 C 0.9347(8) -0.131(2) 0.5002(9)
C43 C 0.9677(8) -0.231(2) 0.4921(10)
H30 H 1.0022 -0.2130 0.4884
C44 C 0.9503(9) -0.358(2) 0.4893(9)
H31 H 0.9735 -0.4285 0.4867
C45 C 0.9000(9) -0.386(2) 0.4904(10)
H32 H 0.8882 -0.4730 0.4868
C46 C 0.8674(8) -0.283(2) 0.4969(10)
H33 H 0.8328 -0.3017 0.4999
C47 C 0.8834(8) -0.1549(19) 0.4992(9)
H34 H 0.8602 -0.0846 0.5001
O4 O 0.5729(6) 0.8252(15) 0.8509(7)
O5 O 0.5440(6) 0.4841(14) 0.7642(7)
O6 O 0.7027(6) 0.4413(16) 0.7737(7)
N7 N 0.6835(6) 0.7136(15) 0.8326(8)
N8 N 0.7372(6) 0.9460(19) 0.8076(8)
H35 H 0.7373 0.8915 0.8328
N9 N 0.7948(6) 0.9171(15) 0.8949(8)
N10 N 0.7455(6) 0.6825(15) 0.9203(8)
H36 H 0.7425 0.7420 0.8969
N11 N 0.5743(7) 0.6188(16) 0.8252(7)
N12 N 0.6260(8) 0.523(2) 0.7594(8)
C48 C 0.6467(7) 0.7788(19) 0.8082(8)
C49 C 0.5950(8) 0.744(2) 0.8268(9)
C50 C 0.5779(10) 0.540(3) 0.7782(14)
C51 C 0.6708(8) 0.5046(18) 0.7900(10)
C52 C 0.6793(7) 0.581(2) 0.8386(10)
C53 C 0.6999(9) 0.5043(18) 0.8796(12)
C54 C 0.7249(7) 0.558(2) 0.9181(10)
C55 C 0.7358(8) 0.4970(18) 0.9650(7)
H37 H 0.7252 0.4124 0.9753
C56 C 0.7633(9) 0.579(2) 0.9913(11)
H38 H 0.7760 0.5611 1.0234
C57 C 0.7715(7) 0.701(2) 0.9646(10)
C58 C 0.8005(8) 0.806(2) 0.9753(10)
C59 C 0.8144(8) 0.910(2) 0.9428(11)
C60 C 0.8499(11) 1.006(2) 0.9503(11)
H39 H 0.8670 1.0220 0.9805
C61 C 0.8561(8) 1.069(2) 0.9103(12)
H40 H 0.8782 1.1404 0.9054
C62 C 0.8232(8) 1.012(2) 0.8731(10)
C63 C 0.8146(9) 1.060(2) 0.8257(10)
C64 C 0.7752(7) 1.024(2) 0.7930(9)
C65 C 0.7603(8) 1.089(2) 0.7494(9)
H41 H 0.7782 1.1551 0.7322
C66 C 0.7156(9) 1.038(3) 0.7369(10)
H42 H 0.6989 1.0505 0.7062
C67 C 0.6988(8) 0.968(3) 0.7755(8)
C68 C 0.6517(8) 0.8915(19) 0.7812(10)
C69 C 0.5283(8) 0.595(2) 0.8539(10)
H43 H 0.5006 0.6435 0.8390
H44 H 0.5331 0.6242 0.8881
H45 H 0.5206 0.5009 0.8537
C70 C 0.6304(10) 0.482(2) 0.7112(11)
H46 H 0.6036 0.5215 0.6914
H47 H 0.6279 0.3867 0.7097
H48 H 0.6627 0.5103 0.6980
C71 C 0.6811(8) 0.3691(19) 0.8800(10)
C72 C 0.6305(9) 0.338(2) 0.8810(9)
H49 H 0.6066 0.4066 0.8785
C73 C 0.6140(9) 0.208(2) 0.8856(9)
H50 H 0.5795 0.1890 0.8844
C74 C 0.6480(8) 0.110(2) 0.8917(9)
H51 H 0.6369 0.0219 0.8947
C75 C 0.6979(9) 0.136(2) 0.8936(9)
H52 H 0.7209 0.0672 0.8990
C76 C 0.7151(8) 0.264(2) 0.8878(9)
H53 H 0.7498 0.2812 0.8890
C77 C 0.8237(9) 0.801(2) 1.0276(10)
C78 C 0.7950(9) 0.796(2) 1.0697(11)
H54 H 0.7598 0.8028 1.0672
C79 C 0.8167(10) 0.781(3) 1.1150(9)
H55 H 0.7964 0.7797 1.1438
C80 C 0.8681(11) 0.7687(19) 1.1200(13)
H56 H 0.8828 0.7574 1.1517
C81 C 0.8971(9) 0.773(2) 1.0781(9)
H57 H 0.9323 0.7652 1.0805
C82 C 0.8749(9) 0.788(2) 1.0326(11)
H58 H 0.8951 0.7907 1.0038
C83 C 0.8530(7) 1.1537(19) 0.8052(9)
C84 C 0.8418(8) 1.2868(18) 0.7964(10)
H59 H 0.8094 1.3202 0.8026
C85 C 0.8788(8) 1.367(2) 0.7786(9)
H60 H 0.8716 1.4562 0.7709
C86 C 0.9263(10) 1.319(2) 0.7717(10)
H61 H 0.9519 1.3765 0.7608
C87 C 0.9372(8) 1.190(2) 0.7806(11)
H62 H 0.9702 1.1578 0.7760
C88 C 0.9008(9) 1.108(2) 0.7958(9)
H63 H 0.9080 1.0174 0.8001
C89 C 0.6064(7) 0.940(2) 0.7573(8)
C90 C 0.5991(7) 1.0853(16) 0.7602(7)
H64 H 0.6214 1.1393 0.7783
C91 C 0.5587(7) 1.1380(17) 0.7353(8)
H65 H 0.5522 1.2293 0.7380
C92 C 0.5287(7) 1.064(2) 0.7077(8)
H66 H 0.5025 1.1042 0.6894
C93 C 0.5354(8) 0.9318(18) 0.7053(8)
H67 H 0.5132 0.8814 0.6856
C94 C 0.5722(9) 0.869(2) 0.7300(11)
H68 H 0.5745 0.7763 0.7286
loop_
_geom_bond_atom_site_label_1
_geom_bond_atom_site_label_2
_geom_bond_site_symmetry_1
_geom_bond_site_symmetry_2
O1 C2 1_555 1_555
O2 C3 1_555 1_555
O3 C4 1_555 1_555
N1 C1 1_555 1_555
N2 H1 1_555 1_555
N3 C12 1_555 1_555
N4 H2 1_555 1_555
N5 C2 1_555 1_555
N6 C3 1_555 1_555
C1 C2 1_555 1_555
C3 N5 1_555 1_555
C4 N6 1_555 1_555
C5 N1 1_555 1_555
C6 C5 1_555 1_555
C7 N2 1_555 1_555
C8 C7 1_555 1_555
H3 C8 1_555 1_555
C9 C8 1_555 1_555
H4 C9 1_555 1_555
C10 N2 1_555 1_555
C11 C10 1_555 1_555
C12 C11 1_555 1_555
C13 C12 1_555 1_555
H5 C13 1_555 1_555
C14 C13 1_555 1_555
H6 C14 1_555 1_555
C15 N3 1_555 1_555
C16 C15 1_555 1_555
C17 N4 1_555 1_555
C18 C17 1_555 1_555
H7 C18 1_555 1_555
C19 C18 1_555 1_555
H8 C19 1_555 1_555
C20 N4 1_555 1_555
C21 C1 1_555 1_555
C22 N5 1_555 1_555
H9 C22 1_555 1_555
H10 C22 1_555 1_555
H11 C22 1_555 1_555
C23 N6 1_555 1_555
H12 C23 1_555 1_555
H13 C23 1_555 1_555
H14 C23 1_555 1_555
C24 C6 1_555 1_555
C25 C24 1_555 1_555
H15 C25 1_555 1_555
C26 C25 1_555 1_555
H16 C26 1_555 1_555
C27 C26 1_555 1_555
H17 C27 1_555 1_555
C28 C27 1_555 1_555
H18 C28 1_555 1_555
C29 C24 1_555 1_555
H19 C29 1_555 1_555
C30 C11 1_555 1_555
C31 C30 1_555 1_555
H20 C31 1_555 1_555
C32 C31 1_555 1_555
H21 C32 1_555 1_555
C33 C32 1_555 1_555
H22 C33 1_555 1_555
C34 C33 1_555 1_555
H23 C34 1_555 1_555
C35 C30 1_555 1_555
H24 C35 1_555 1_555
C36 C16 1_555 1_555
C37 C36 1_555 1_555
H25 C37 1_555 1_555
C38 C37 1_555 1_555
H26 C38 1_555 1_555
C39 C38 1_555 1_555
H27 C39 1_555 1_555
C40 C39 1_555 1_555
H28 C40 1_555 1_555
C41 C36 1_555 1_555
H29 C41 1_555 1_555
C42 C21 1_555 1_555
C43 C42 1_555 1_555
H30 C43 1_555 1_555
C44 C43 1_555 1_555
H31 C44 1_555 1_555
C45 C44 1_555 1_555
H32 C45 1_555 1_555
C46 C45 1_555 1_555
H33 C46 1_555 1_555
C47 C42 1_555 1_555
H34 C47 1_555 1_555
O4 C49 1_555 1_555
O5 C50 1_555 1_555
O6 C51 1_555 1_555
N7 C48 1_555 1_555
N8 H35 1_555 1_555
N9 C59 1_555 1_555
N10 H36 1_555 1_555
N11 C49 1_555 1_555
N12 C50 1_555 1_555
C48 C49 1_555 1_555
C50 N11 1_555 1_555
C51 N12 1_555 1_555
C52 N7 1_555 1_555
C53 C52 1_555 1_555
C54 N10 1_555 1_555
C55 C54 1_555 1_555
H37 C55 1_555 1_555
C56 C55 1_555 1_555
H38 C56 1_555 1_555
C57 N10 1_555 1_555
C58 C57 1_555 1_555
C59 C58 1_555 1_555
C60 C59 1_555 1_555
H39 C60 1_555 1_555
C61 C60 1_555 1_555
H40 C61 1_555 1_555
C62 N9 1_555 1_555
C63 C62 1_555 1_555
C64 N8 1_555 1_555
C65 C64 1_555 1_555
H41 C65 1_555 1_555
C66 C65 1_555 1_555
H42 C66 1_555 1_555
C67 N8 1_555 1_555
C68 C48 1_555 1_555
C69 N11 1_555 1_555
H43 C69 1_555 1_555
H44 C69 1_555 1_555
H45 C69 1_555 1_555
C70 N12 1_555 1_555
H46 C70 1_555 1_555
H47 C70 1_555 1_555
H48 C70 1_555 1_555
C71 C53 1_555 1_555
C72 C71 1_555 1_555
H49 C72 1_555 1_555
C73 C72 1_555 1_555
H50 C73 1_555 1_555
C74 C73 1_555 1_555
H51 C74 1_555 1_555
C75 C74 1_555 1_555
H52 C75 1_555 1_555
C76 C71 1_555 1_555
H53 C76 1_555 1_555
C77 C58 1_555 1_555
C78 C77 1_555 1_555
H54 C78 1_555 1_555
C79 C78 1_555 1_555
H55 C79 1_555 1_555
C80 C79 1_555 1_555
H56 C80 1_555 1_555
C81 C80 1_555 1_555
H57 C81 1_555 1_555
C82 C77 1_555 1_555
H58 C82 1_555 1_555
C83 C63 1_555 1_555
C84 C83 1_555 1_555
H59 C84 1_555 1_555
C85 C84 1_555 1_555
H60 C85 1_555 1_555
C86 C85 1_555 1_555
H61 C86 1_555 1_555
C87 C86 1_555 1_555
H62 C87 1_555 1_555
C88 C83 1_555 1_555
H63 C88 1_555 1_555
C89 C68 1_555 1_555
C90 C89 1_555 1_555
H64 C90 1_555 1_555
C91 C90 1_555 1_555
H65 C91 1_555 1_555
C92 C91 1_555 1_555
H66 C92 1_555 1_555
C93 C92 1_555 1_555
H67 C93 1_555 1_555
C94 C89 1_555 1_555
H68 C94 1_555 1_555
C4 C5 1_555 1_555
C6 C7 1_555 1_555
C9 C10 1_555 1_555
C14 C15 1_555 1_555
C16 C17 1_555 1_555
C19 C20 1_555 1_555
C20 C21 1_555 1_555
C28 C29 1_555 1_555
C34 C35 1_555 1_555
C40 C41 1_555 1_555
C46 C47 1_555 1_555
C51 C52 1_555 1_555
C53 C54 1_555 1_555
C56 C57 1_555 1_555
C61 C62 1_555 1_555
C63 C64 1_555 1_555
C66 C67 1_555 1_555
C67 C68 1_555 1_555
C75 C76 1_555 1_555
C81 C82 1_555 1_555
C87 C88 1_555 1_555
C93 C94 1_555 1_555

#END
