
#######################################################################
#
#                 Cambridge Crystallographic Data Centre
#                                CCDC 
#
#######################################################################
#
# If this CIF has been generated from an entry in the Cambridge 
# Structural Database, then it will include bibliographic, chemical, 
# crystal, experimental, refinement or atomic coordinate data resulting 
# from the CCDC's data processing and validation procedures.
#
#######################################################################

data_ASAKIO
_chemical_formula_moiety         'C10 F8,C12 H10'
_chemical_name_systematic        'Octafluoronaphthalene biphenyl'
_symmetry_cell_setting           monoclinic
_symmetry_space_group_name_H-M   'P 21/n'
_symmetry_Int_Tables_number      14
_space_group_name_Hall           '-P 2yn'
loop_
_symmetry_equiv_pos_site_id
_symmetry_equiv_pos_as_xyz
1 x,y,z
2 1/2+x,1/2-y,1/2+z
3 -x,-y,-z
4 1/2-x,1/2+y,1/2-z
_cell_length_a                   7.3564(2)
_cell_length_b                   6.2253(2)
_cell_length_c                   18.6804(6)
_cell_angle_alpha                90
_cell_angle_beta                 97.946(1)
_cell_angle_gamma                90
_cell_volume                     847.27
_exptl_crystal_colour            colorless
_exptl_crystal_description       plate
_chemical_melting_point          '369-371 K'
_cell_formula_units_Z            2
loop_
_atom_site_label
_atom_site_type_symbol
_atom_site_fract_x
_atom_site_fract_y
_atom_site_fract_z
F1 F 0.17125(13) 0.16902(14) 1.16989(5)
F2 F 0.17830(11) 0.06556(12) 1.03048(5)
F3 F 0.09522(12) 0.16125(13) 0.89489(5)
F4 F 0.04130(13) 0.55287(15) 1.20671(4)
C1 C 0.10585(19) 0.3066(2) 1.11725(7)
C2 C 0.10653(18) 0.2556(2) 1.04645(7)
C3 C 0.03553(17) 0.39828(19) 0.99016(7)
C4 C 0.03097(18) 0.3507(2) 0.91577(7)
C5 C 0.03714(19) 0.5060(2) 1.13637(7)
C3B C -0.03553(17) 0.60172(19) 1.00984(7)
C2B C -0.10653(18) 0.7444(2) 0.95355(7)
F2B F -0.17830(11) 0.93444(12) 0.96952(5)
C1B C -0.10585(19) 0.6934(2) 0.88275(7)
F1B F -0.17125(13) 0.83098(14) 0.83011(5)
C5B C -0.03714(19) 0.4940(2) 0.86363(7)
F4B F -0.04130(13) 0.44713(15) 0.79329(4)
C4B C -0.03097(18) 0.6493(2) 1.08423(7)
F3B F -0.09522(12) 0.83875(13) 1.10511(5)
C6 C 0.01606(17) 0.0120(2) 0.54034(7)
C7 C -0.0210(2) -0.1566(2) 0.58601(8)
C8 C 0.0071(3) -0.1335(3) 0.66100(9)
C9 C 0.0731(2) 0.0579(3) 0.69224(8)
C10 C 0.1120(2) 0.2261(3) 0.64804(9)
C11 C 0.0845(2) 0.2041(2) 0.57328(8)
H1 H -0.064(3) -0.287(3) 0.5658(10)
H2 H -0.017(3) -0.252(4) 0.6917(11)
H3 H 0.091(3) 0.072(3) 0.7442(11)
H4 H 0.159(3) 0.359(3) 0.6717(10)
H5 H 0.108(3) 0.325(3) 0.5437(10)
C6B C -0.01606(17) -0.0120(2) 0.45966(7)
C7B C 0.0210(2) 0.1566(2) 0.41399(8)
C8B C -0.0071(3) 0.1335(3) 0.33900(9)
C9B C -0.0731(2) -0.0579(3) 0.30776(8)
C10B C -0.1120(2) -0.2261(3) 0.35196(9)
C11B C -0.0845(2) -0.2041(2) 0.42672(8)
H5B H -0.108(3) -0.325(3) 0.4563(10)
H4B H -0.159(3) -0.359(3) 0.3283(10)
H3B H -0.091(3) -0.072(3) 0.2558(11)
H2B H 0.017(3) 0.252(4) 0.3083(11)
H1B H 0.064(3) 0.287(3) 0.4342(10)
loop_
_geom_bond_atom_site_label_1
_geom_bond_atom_site_label_2
_geom_bond_site_symmetry_1
_geom_bond_site_symmetry_2
F1 C1 1_555 1_555
F2 C2 1_555 1_555
F3 C4 1_555 1_555
F4 C5 1_555 1_555
C1 C2 1_555 1_555
C2 C3 1_555 1_555
C3 C4 1_555 1_555
C4 C5B 1_555 1_555
C5 C1 1_555 1_555
C6 C7 1_555 1_555
C7 C8 1_555 1_555
C8 C9 1_555 1_555
C9 C10 1_555 1_555
C10 C11 1_555 1_555
C11 C6 1_555 1_555
H1 C7 1_555 1_555
H2 C8 1_555 1_555
H3 C9 1_555 1_555
H4 C10 1_555 1_555
H5 C11 1_555 1_555
C3B C3 1_555 1_555
C2B C3B 1_555 1_555
F2B C2B 1_555 1_555
C1B C2B 1_555 1_555
F1B C1B 1_555 1_555
C5B C1B 1_555 1_555
F4B C5B 1_555 1_555
C4B C5 1_555 1_555
F3B C4B 1_555 1_555
C6B C6 1_555 1_555
C7B C6B 1_555 1_555
C8B C7B 1_555 1_555
C9B C8B 1_555 1_555
C10B C9B 1_555 1_555
C11B C6B 1_555 1_555
H5B C11B 1_555 1_555
H4B C10B 1_555 1_555
H3B C9B 1_555 1_555
H2B C8B 1_555 1_555
H1B C7B 1_555 1_555
C3B C4B 1_555 1_555
C10B C11B 1_555 1_555

#END
