
#######################################################################
#
#                 Cambridge Crystallographic Data Centre
#                                CCDC 
#
#######################################################################
#
# If this CIF has been generated from an entry in the Cambridge 
# Structural Database, then it will include bibliographic, chemical, 
# crystal, experimental, refinement or atomic coordinate data resulting 
# from the CCDC's data processing and validation procedures.
#
#######################################################################

data_ASAMAI
_chemical_formula_moiety         'C40 H36 N2,C1 H2 Cl2'
_chemical_name_systematic        
"N,N'-Diphenyl-N,N'-bis(2,4-dimethylphenyl)-1,1'-biphenyl-4,4'-diamine dichloromethane solvate"
_symmetry_cell_setting           monoclinic
_symmetry_space_group_name_H-M   'C 2/c'
_symmetry_Int_Tables_number      15
_space_group_name_Hall           '-C 2yn'
loop_
_symmetry_equiv_pos_site_id
_symmetry_equiv_pos_as_xyz
1 x,y,z
2 1/2+x,1/2+y,z
3 x,-y,1/2+z
4 1/2+x,1/2-y,1/2+z
5 -x,-y,-z
6 1/2-x,1/2-y,-z
7 -x,y,1/2-z
8 1/2-x,1/2+y,1/2-z
_cell_length_a                   26.379(2)
_cell_length_b                   9.3319(6)
_cell_length_c                   15.022(1)
_cell_angle_alpha                90
_cell_angle_beta                 111.07(3)
_cell_angle_gamma                90
_cell_volume                     3450.67
_exptl_crystal_colour            colorless
_exptl_crystal_description       prism
_cell_formula_units_Z            4
_exptl_crystal_recrystallization_method dichloromethane/hexane
loop_
_atom_site_label
_atom_site_type_symbol
_atom_site_fract_x
_atom_site_fract_y
_atom_site_fract_z
Cl1 Cl 0.2006(3) 0.3325(7) -0.0136(5)
C21 C 0.2440(11) 0.207(3) 0.0526(19)
Cl1E Cl 0.2994(3) 0.1675(7) 0.0136(5)
C21E C 0.2560(11) 0.293(3) -0.0526(19)
N1 N 0.13114(12) 0.8080(4) 0.0794(2)
C1 C 0.01918(15) 0.7899(4) 0.2240(3)
C2 C 0.07417(15) 0.7517(4) 0.2699(3)
H1 H 0.0864 0.7215 0.3346
C3 C 0.11090(15) 0.7572(4) 0.2227(3)
H2 H 0.1476 0.7295 0.2552
C4 C 0.09413(15) 0.8031(4) 0.1281(3)
C5 C 0.03958(15) 0.8404(4) 0.0813(3)
H3 H 0.0274 0.8710 0.0167
C6 C 0.00322(15) 0.8331(4) 0.1288(3)
H4 H -0.0337 0.8583 0.0955
C7 C 0.18616(15) 0.8488(4) 0.1254(3)
C8 C 0.20136(18) 0.9515(5) 0.1969(4)
H5 H 0.1744 0.9970 0.2153
C9 C 0.25550(19) 0.9884(6) 0.2416(4)
H6 H 0.2654 1.0571 0.2916
C10 C 0.29545(18) 0.9264(6) 0.2145(3)
H7 H 0.3325 0.9527 0.2450
C11 C 0.28039(15) 0.8256(5) 0.1423(3)
H8 H 0.3073 0.7825 0.1226
C12 C 0.22649(15) 0.7870(4) 0.0985(3)
H9 H 0.2168 0.7171 0.0492
C13 C 0.11128(14) 0.7873(4) -0.0224(3)
C14 C 0.08968(14) 0.6551(4) -0.0626(3)
C15 C 0.07256(15) 0.6408(4) -0.1619(3)
H10 H 0.0581 0.5514 -0.1899
C16 C 0.07587(15) 0.7510(5) -0.2206(3)
C17 C 0.09673(15) 0.8821(5) -0.1791(3)
H11 H 0.0990 0.9599 -0.2182
C18 C 0.11409(15) 0.8997(4) -0.0814(3)
H12 H 0.1281 0.9898 -0.0540
C19 C 0.08464(18) 0.5307(5) -0.0012(3)
H13 H 0.0690 0.4478 -0.0418
H14 H 0.0610 0.5583 0.0335
H15 H 0.1207 0.5056 0.0445
C20 C 0.05774(18) 0.7325(6) -0.3281(3)
H16 H 0.0442 0.6347 -0.3454
H17 H 0.0886 0.7496 -0.3484
H18 H 0.0287 0.8011 -0.3597
C1F C -0.01918(15) 0.7899(4) 0.2760(3)
C2F C -0.07417(15) 0.7517(4) 0.2301(3)
H1F H -0.0864 0.7215 0.1654
C3F C -0.11090(15) 0.7572(4) 0.2773(3)
H2F H -0.1476 0.7295 0.2448
C4F C -0.09413(15) 0.8031(4) 0.3719(3)
N1F N -0.13114(12) 0.8080(4) 0.4206(2)
C7F C -0.18616(15) 0.8488(4) 0.3746(3)
C8F C -0.20136(18) 0.9515(5) 0.3031(4)
H5F H -0.1744 0.9970 0.2847
C9F C -0.25550(19) 0.9884(6) 0.2584(4)
H6F H -0.2654 1.0571 0.2084
C10F C -0.29545(18) 0.9264(6) 0.2855(3)
H7F H -0.3325 0.9527 0.2550
C11F C -0.28039(15) 0.8256(5) 0.3577(3)
H8F H -0.3073 0.7825 0.3774
C12F C -0.22649(15) 0.7870(4) 0.4015(3)
H9F H -0.2168 0.7171 0.4508
C13F C -0.11128(14) 0.7873(4) 0.5224(3)
C14F C -0.08968(14) 0.6551(4) 0.5626(3)
C15F C -0.07256(15) 0.6408(4) 0.6619(3)
H10F H -0.0581 0.5514 0.6899
C16F C -0.07587(15) 0.7510(5) 0.7206(3)
C17F C -0.09673(15) 0.8821(5) 0.6791(3)
H11F H -0.0990 0.9599 0.7182
C18F C -0.11409(15) 0.8997(4) 0.5814(3)
H12F H -0.1281 0.9898 0.5540
C20F C -0.05774(18) 0.7325(6) 0.8281(3)
H16F H -0.0442 0.6347 0.8454
H17F H -0.0886 0.7496 0.8484
H18F H -0.0287 0.8011 0.8597
C19F C -0.08464(18) 0.5307(5) 0.5012(3)
H13F H -0.0690 0.4478 0.5418
H14F H -0.0610 0.5583 0.4665
H15F H -0.1207 0.5056 0.4555
C5F C -0.03958(15) 0.8404(4) 0.4187(3)
H3F H -0.0274 0.8710 0.4833
C6F C -0.00322(15) 0.8331(4) 0.3712(3)
H4F H 0.0337 0.8583 0.4045
Cl2? Cl 0.19485(18) 0.2843(5) 0.0015(3)
C22? C 0.2355(10) 0.150(3) -0.0199(18)
loop_
_geom_bond_atom_site_label_1
_geom_bond_atom_site_label_2
_geom_bond_site_symmetry_1
_geom_bond_site_symmetry_2
N1 C4 1_555 1_555
C1 C2 1_555 1_555
C2 H1 1_555 1_555
C3 C2 1_555 1_555
H2 C3 1_555 1_555
C4 C3 1_555 1_555
C5 C4 1_555 1_555
H3 C5 1_555 1_555
C6 C1 1_555 1_555
H4 C6 1_555 1_555
C7 N1 1_555 1_555
C8 C7 1_555 1_555
H5 C8 1_555 1_555
C9 C8 1_555 1_555
H6 C9 1_555 1_555
C10 C9 1_555 1_555
H7 C10 1_555 1_555
C11 C10 1_555 1_555
H8 C11 1_555 1_555
C12 C7 1_555 1_555
H9 C12 1_555 1_555
C13 N1 1_555 1_555
C14 C13 1_555 1_555
C15 C14 1_555 1_555
H10 C15 1_555 1_555
C16 C15 1_555 1_555
C17 C16 1_555 1_555
H11 C17 1_555 1_555
C18 C13 1_555 1_555
H12 C18 1_555 1_555
C19 C14 1_555 1_555
H13 C19 1_555 1_555
H14 C19 1_555 1_555
H15 C19 1_555 1_555
C20 C16 1_555 1_555
H16 C20 1_555 1_555
H17 C20 1_555 1_555
H18 C20 1_555 1_555
Cl1 C21 1_555 1_555
C21 Cl1E 1_555 1_555
C1F C1 1_555 1_555
C2F C1F 1_555 1_555
H1F C2F 1_555 1_555
C3F C2F 1_555 1_555
H2F C3F 1_555 1_555
C4F C3F 1_555 1_555
N1F C4F 1_555 1_555
C7F N1F 1_555 1_555
C8F C7F 1_555 1_555
H5F C8F 1_555 1_555
C9F C8F 1_555 1_555
H6F C9F 1_555 1_555
C10F C9F 1_555 1_555
H7F C10F 1_555 1_555
C11F C10F 1_555 1_555
H8F C11F 1_555 1_555
C12F C7F 1_555 1_555
H9F C12F 1_555 1_555
C13F N1F 1_555 1_555
C14F C13F 1_555 1_555
C15F C14F 1_555 1_555
H10F C15F 1_555 1_555
C16F C15F 1_555 1_555
C17F C16F 1_555 1_555
H11F C17F 1_555 1_555
C18F C13F 1_555 1_555
H12F C18F 1_555 1_555
C20F C16F 1_555 1_555
H16F C20F 1_555 1_555
H17F C20F 1_555 1_555
H18F C20F 1_555 1_555
C19F C14F 1_555 1_555
H13F C19F 1_555 1_555
H14F C19F 1_555 1_555
H15F C19F 1_555 1_555
C5F C4F 1_555 1_555
H3F C5F 1_555 1_555
C6F C1F 1_555 1_555
H4F C6F 1_555 1_555
Cl1E C21E 1_555 1_555
C21E Cl1 1_555 1_555
C5 C6 1_555 1_555
C11 C12 1_555 1_555
C17 C18 1_555 1_555
C11F C12F 1_555 1_555
C17F C18F 1_555 1_555
C5F C6F 1_555 1_555

#END
