
#######################################################################
#
#                 Cambridge Crystallographic Data Centre
#                                CCDC 
#
#######################################################################
#
# If this CIF has been generated from an entry in the Cambridge 
# Structural Database, then it will include bibliographic, chemical, 
# crystal, experimental, refinement or atomic coordinate data resulting 
# from the CCDC's data processing and validation procedures.
#
#######################################################################

data_ASASOD
_chemical_formula_moiety         'C25 H29 N1 Si1'
_chemical_name_systematic        
5-t-Butyl-2,2-dimethyl-3-(4-methylphenyl)-4-((4-methylphenyl)ethynyl)-2H-1,2-azasilole
_symmetry_cell_setting           monoclinic
_symmetry_space_group_name_H-M   'P 21/n'
_symmetry_Int_Tables_number      14
_space_group_name_Hall           '-P 2yn'
loop_
_symmetry_equiv_pos_site_id
_symmetry_equiv_pos_as_xyz
1 x,y,z
2 1/2-x,1/2+y,1/2-z
3 -x,-y,-z
4 1/2+x,1/2-y,1/2+z
_cell_length_a                   14.593(3)
_cell_length_b                   8.5806(17)
_cell_length_c                   17.839(4)
_cell_angle_alpha                90
_cell_angle_beta                 91.89(3)
_cell_angle_gamma                90
_cell_volume                     2232.53
_cell_formula_units_Z            4
loop_
_atom_site_label
_atom_site_type_symbol
_atom_site_fract_x
_atom_site_fract_y
_atom_site_fract_z
C1 C 1.0155(2) 0.8044(4) 0.22461(16)
C2 C 0.9500(2) 0.8984(4) 0.17310(16)
C3 C 0.9907(2) 1.0260(4) 0.14250(16)
C4 C 1.1500(2) 1.1907(4) 0.23441(17)
H1 H 1.1062 1.2072 0.2726
H2 H 1.1526 1.2815 0.2031
H3 H 1.2093 1.1717 0.2574
C5 C 1.1998(2) 0.9843(4) 0.10184(16)
H4 H 1.2549 0.9412 0.1242
H5 H 1.2136 1.0811 0.0777
H6 H 1.1744 0.9126 0.0654
C6 C 0.9826(2) 0.6601(4) 0.26723(18)
C7 C 1.0611(2) 0.5961(4) 0.31663(18)
H7 H 1.1117 0.5698 0.2860
H8 H 1.0409 0.5046 0.3423
H9 H 1.0802 0.6735 0.3527
C8 C 0.9509(2) 0.5332(4) 0.21112(19)
H10 H 1.0012 0.5038 0.1808
H11 H 0.9017 0.5729 0.1796
H12 H 0.9301 0.4438 0.2380
C9 C 0.9029(2) 0.7052(4) 0.31789(18)
H13 H 0.8827 0.6146 0.3443
H14 H 0.8530 0.7462 0.2875
H15 H 0.9236 0.7828 0.3534
C10 C 0.8566(2) 0.8543(4) 0.15581(17)
C11 C 0.7810(2) 0.8182(4) 0.13717(18)
C12 C 0.6893(2) 0.7763(4) 0.11568(18)
C13 C 0.6417(2) 0.6671(4) 0.15544(18)
H16 H 0.6691 0.6189 0.1971
C14 C 0.5530(2) 0.6296(4) 0.1331(2)
H17 H 0.5216 0.5560 0.1605
C15 C 0.5097(2) 0.6964(5) 0.0722(2)
C16 C 0.5570(2) 0.8044(5) 0.03279(18)
H18 H 0.5290 0.8515 -0.0090
C17 C 0.6459(2) 0.8451(4) 0.05393(19)
H19 H 0.6768 0.9193 0.0264
C18 C 0.4124(2) 0.6530(5) 0.0477(2)
H20 H 0.3760 0.7458 0.0428
H21 H 0.3867 0.5859 0.0846
H22 H 0.4131 0.6000 0.0004
C19 C 0.9444(2) 1.1428(4) 0.09463(16)
C20 C 0.8583(2) 1.2044(4) 0.10926(17)
H23 H 0.8268 1.1664 0.1499
C21 C 0.8187(2) 1.3198(4) 0.06544(19)
H24 H 0.7612 1.3579 0.0770
C22 C 0.8628(2) 1.3795(4) 0.0048(2)
C23 C 0.9493(2) 1.3202(4) -0.01149(18)
H25 H 0.9802 1.3587 -0.0523
C24 C 0.9891(2) 1.2043(4) 0.03301(17)
H26 H 1.0467 1.1665 0.0216
C25 C 0.8201(2) 1.5068(4) -0.04402(19)
H27 H 0.7863 1.4605 -0.0854
H28 H 0.8676 1.5723 -0.0627
H29 H 0.7794 1.5682 -0.0148
N1 N 1.09878(18) 0.8515(3) 0.23107(13)
Si1 Si 1.11469(6) 1.01938(11) 0.17640(5)
loop_
_geom_bond_atom_site_label_1
_geom_bond_atom_site_label_2
_geom_bond_site_symmetry_1
_geom_bond_site_symmetry_2
C1 C2 1_555 1_555
C2 C3 1_555 1_555
C3 C19 1_555 1_555
C4 H1 1_555 1_555
H2 C4 1_555 1_555
H3 C4 1_555 1_555
C5 H4 1_555 1_555
H5 C5 1_555 1_555
H6 C5 1_555 1_555
C6 C1 1_555 1_555
C7 C6 1_555 1_555
H7 C7 1_555 1_555
H8 C7 1_555 1_555
H9 C7 1_555 1_555
C8 C6 1_555 1_555
H10 C8 1_555 1_555
H11 C8 1_555 1_555
H12 C8 1_555 1_555
C9 C6 1_555 1_555
H13 C9 1_555 1_555
H14 C9 1_555 1_555
H15 C9 1_555 1_555
C10 C2 1_555 1_555
C11 C10 1_555 1_555
C12 C11 1_555 1_555
C13 C12 1_555 1_555
H16 C13 1_555 1_555
C14 C13 1_555 1_555
H17 C14 1_555 1_555
C15 C14 1_555 1_555
C16 C15 1_555 1_555
H18 C16 1_555 1_555
C17 C12 1_555 1_555
H19 C17 1_555 1_555
C18 C15 1_555 1_555
H20 C18 1_555 1_555
H21 C18 1_555 1_555
H22 C18 1_555 1_555
C19 C20 1_555 1_555
C20 H23 1_555 1_555
C21 C20 1_555 1_555
H24 C21 1_555 1_555
C22 C21 1_555 1_555
C23 C22 1_555 1_555
H25 C23 1_555 1_555
C24 C19 1_555 1_555
H26 C24 1_555 1_555
C25 C22 1_555 1_555
H27 C25 1_555 1_555
H28 C25 1_555 1_555
H29 C25 1_555 1_555
N1 C1 1_555 1_555
Si1 C3 1_555 1_555
C4 Si1 1_555 1_555
C5 Si1 1_555 1_555
C16 C17 1_555 1_555
C23 C24 1_555 1_555
N1 Si1 1_555 1_555

#END
