
#######################################################################
#
#                 Cambridge Crystallographic Data Centre
#                                CCDC 
#
#######################################################################
#
# If this CIF has been generated from an entry in the Cambridge 
# Structural Database, then it will include bibliographic, chemical, 
# crystal, experimental, refinement or atomic coordinate data resulting 
# from the CCDC's data processing and validation procedures.
#
#######################################################################

data_ASAXEX
_chemical_formula_moiety         'C24 H20 N2 O7'
_chemical_name_systematic        
((3R,3'R)-1,1'-Diacetyl-1,1',3,3-tetrahydro-3-(2-butenoyl)-3'-hydroxy-(3,3'-bi-2H-indole)-2,2'-dione)
_symmetry_cell_setting           monoclinic
_symmetry_space_group_name_H-M   'P 21/c'
_symmetry_Int_Tables_number      14
_space_group_name_Hall           '-P 2ybc'
loop_
_symmetry_equiv_pos_site_id
_symmetry_equiv_pos_as_xyz
1 x,y,z
2 x,1/2-y,1/2+z
3 -x,-y,-z
4 -x,1/2+y,1/2-z
_cell_length_a                   7.6033(15)
_cell_length_b                   35.579(7)
_cell_length_c                   8.1527(16)
_cell_angle_alpha                90
_cell_angle_beta                 104.19(3)
_cell_angle_gamma                90
_cell_volume                     2138.16
_exptl_crystal_colour            colorless
_exptl_crystal_description       prisms
_chemical_melting_point          130-131deg.C
_cell_formula_units_Z            4
_exptl_crystal_recrystallization_method 'petroleum ether/ethyl acetate'
loop_
_atom_site_label
_atom_site_type_symbol
_atom_site_fract_x
_atom_site_fract_y
_atom_site_fract_z
O1 O 0.3241(13) 0.16885(19) 0.6888(8)
O2 O 0.3755(11) 0.19519(16) 0.2036(8)
O3 O 0.3329(11) 0.12695(16) 0.0151(6)
H1 H 0.3591 0.1075 -0.0271
O4 O 0.6718(10) 0.15648(15) 0.0924(6)
O5 O 0.9739(12) 0.14728(18) 0.1956(8)
O6 O 0.7534(11) 0.15799(16) 0.4662(7)
O7 O 0.9133(13) 0.04939(18) 0.6347(7)
N1 N 0.3498(12) 0.15567(18) 0.4262(8)
N2 N 0.8192(12) 0.09407(18) 0.4362(7)
C1 C 0.3003(18) 0.2208(3) 0.5028(14)
H2 H 0.2866 0.2354 0.5981
H3 H 0.1949 0.2240 0.4109
H4 H 0.4058 0.2292 0.4684
C2 C 0.3215(15) 0.1806(3) 0.5507(13)
C3 C 0.3467(13) 0.1153(2) 0.4418(10)
C4 C 0.3207(14) 0.0934(3) 0.5738(11)
H5 H 0.3033 0.1041 0.6727
C5 C 0.3219(14) 0.0553(3) 0.5525(12)
H6 H 0.3087 0.0402 0.6418
C6 C 0.3410(14) 0.0381(3) 0.4090(11)
H7 H 0.3360 0.0121 0.3987
C7 C 0.3683(13) 0.0605(2) 0.2784(11)
H8 H 0.3835 0.0496 0.1790
C8 C 0.3728(12) 0.0990(2) 0.2971(9)
C9 C 0.3919(13) 0.1647(3) 0.2659(11)
C10 C 0.4241(12) 0.1283(2) 0.1841(9)
C11 C 0.6358(14) 0.1259(2) 0.1957(10)
C12 C 0.8502(16) 0.1642(3) 0.1046(12)
C13 C 0.8781(17) 0.1919(3) -0.0212(13)
H9 H 0.9969 0.1969 -0.0256
C14 C 0.7591(17) 0.2085(3) -0.1183(13)
H10 H 0.6388 0.2038 -0.1183
C15 C 0.8030(19) 0.2373(4) -0.2419(16)
H11 H 0.6922 0.2477 -0.3093
H12 H 0.8682 0.2252 -0.3142
H13 H 0.8761 0.2571 -0.1796
C16 C 0.7373(14) 0.1299(3) 0.3812(11)
C17 C 0.8772(14) 0.0818(3) 0.6041(12)
C18 C 0.9107(15) 0.1119(2) 0.7374(11)
H14 H 0.9544 0.1006 0.8468
H15 H 0.7996 0.1250 0.7338
H16 H 0.9996 0.1292 0.7167
C19 C 0.7934(12) 0.0696(2) 0.2880(10)
C20 C 0.6928(13) 0.0887(2) 0.1486(10)
C21 C 0.6553(13) 0.0710(2) -0.0108(10)
H17 H 0.5877 0.0829 -0.1074
C22 C 0.7237(14) 0.0350(3) -0.0170(12)
H18 H 0.7045 0.0231 -0.1214
C23 C 0.8156(14) 0.0170(3) 0.1202(11)
H19 H 0.8572 -0.0073 0.1093
C24 C 0.8505(14) 0.0333(2) 0.2785(12)
H20 H 0.9104 0.0203 0.3748
loop_
_geom_bond_atom_site_label_1
_geom_bond_atom_site_label_2
_geom_bond_site_symmetry_1
_geom_bond_site_symmetry_2
O1 C2 1_555 1_555
O2 C9 1_555 1_555
O3 H1 1_555 1_555
O4 C11 1_555 1_555
O5 C12 1_555 1_555
O6 C16 1_555 1_555
O7 C17 1_555 1_555
N1 C2 1_555 1_555
N2 C16 1_555 1_555
C1 H2 1_555 1_555
H3 C1 1_555 1_555
H4 C1 1_555 1_555
C2 C1 1_555 1_555
C3 N1 1_555 1_555
C4 C3 1_555 1_555
H5 C4 1_555 1_555
C5 C4 1_555 1_555
H6 C5 1_555 1_555
C6 C5 1_555 1_555
H7 C6 1_555 1_555
C7 C6 1_555 1_555
H8 C7 1_555 1_555
C8 C3 1_555 1_555
C9 N1 1_555 1_555
C10 O3 1_555 1_555
C11 C10 1_555 1_555
C12 O4 1_555 1_555
C13 C12 1_555 1_555
H9 C13 1_555 1_555
C14 C13 1_555 1_555
H10 C14 1_555 1_555
C15 C14 1_555 1_555
H11 C15 1_555 1_555
H12 C15 1_555 1_555
H13 C15 1_555 1_555
C16 C11 1_555 1_555
C17 N2 1_555 1_555
C18 C17 1_555 1_555
H14 C18 1_555 1_555
H15 C18 1_555 1_555
H16 C18 1_555 1_555
C19 N2 1_555 1_555
C20 C11 1_555 1_555
C21 C20 1_555 1_555
H17 C21 1_555 1_555
C22 C21 1_555 1_555
H18 C22 1_555 1_555
C23 C22 1_555 1_555
H19 C23 1_555 1_555
C24 C19 1_555 1_555
H20 C24 1_555 1_555
C7 C8 1_555 1_555
C8 C10 1_555 1_555
C9 C10 1_555 1_555
C19 C20 1_555 1_555
C23 C24 1_555 1_555

#END
