
#######################################################################
#
#                 Cambridge Crystallographic Data Centre
#                                CCDC 
#
#######################################################################
#
# If this CIF has been generated from an entry in the Cambridge 
# Structural Database, then it will include bibliographic, chemical, 
# crystal, experimental, refinement or atomic coordinate data resulting 
# from the CCDC's data processing and validation procedures.
#
#######################################################################

data_ASAXUP
_chemical_formula_moiety         'C21 H30 N4 O1 S1'
_chemical_name_systematic        
N-(4-(2-(4-(1,2-benzothiazol-3-yl)piperazin-1-yl)ethyl)cyclohexyl)acetamide
_symmetry_cell_setting           orthorhombic
_symmetry_space_group_name_H-M   'P c a 21'
_symmetry_Int_Tables_number      29
_space_group_name_Hall           'P 2c -2ac'
loop_
_symmetry_equiv_pos_site_id
_symmetry_equiv_pos_as_xyz
1 x,y,z
2 -x,-y,1/2+z
3 1/2+x,-y,z
4 1/2-x,y,1/2+z
_cell_length_a                   12.311(3)
_cell_length_b                   4.8281(10)
_cell_length_c                   34.787(7)
_cell_angle_alpha                90
_cell_angle_beta                 90
_cell_angle_gamma                90
_cell_volume                     2067.7
_exptl_crystal_colour            colorless
_exptl_crystal_description       block
_chemical_melting_point          '222-223 deg.C'
_cell_formula_units_Z            4
loop_
_atom_site_label
_atom_site_type_symbol
_atom_site_fract_x
_atom_site_fract_y
_atom_site_fract_z
S1 S 0.13855(6) 0.54498(18) 0.66924(3)
N1 N 0.4899(2) 0.7362(6) 0.53158(8)
N2 N 0.34683(18) 0.7944(6) 0.59643(6)
N3 N 0.2010(2) 0.5692(6) 0.62651(8)
N4 N 0.85689(18) 0.7732(4) 0.33929(6)
H1 H 0.8692 0.9468 0.3359
O1 O 0.8953(2) 0.3432(4) 0.31899(7)
C1 C 0.6243(2) 0.8037(6) 0.43189(8)
H2 H 0.6228 1.0065 0.4311
C2 C 0.7411(3) 0.7129(8) 0.44004(8)
H3 H 0.7434 0.5129 0.4426
H4 H 0.7647 0.7925 0.4643
C3 C 0.8196(3) 0.8025(7) 0.40818(8)
H5 H 0.8231 1.0031 0.4072
H6 H 0.8918 0.7333 0.4138
C4 C 0.7825(2) 0.6920(5) 0.36966(7)
H7 H 0.7823 0.4892 0.3711
C5 C 0.6679(3) 0.7863(8) 0.36091(8)
H8 H 0.6447 0.7080 0.3366
H9 H 0.6666 0.9864 0.3586
C6 C 0.5895(3) 0.6965(8) 0.39256(9)
H10 H 0.5174 0.7656 0.3867
H11 H 0.5859 0.4959 0.3933
C7 C 0.5428(3) 0.7079(7) 0.46248(9)
H12 H 0.4697 0.7486 0.4537
H13 H 0.5487 0.5088 0.4656
C8 C 0.5609(3) 0.8465(7) 0.50125(9)
H14 H 0.6360 0.8211 0.5088
H15 H 0.5480 1.0438 0.4987
C9 C 0.3761(3) 0.8041(9) 0.52721(9)
H16 H 0.3501 0.7315 0.5029
H17 H 0.3677 1.0038 0.5267
C10 C 0.3079(3) 0.6846(9) 0.55986(9)
H18 H 0.2322 0.7341 0.5562
H19 H 0.3134 0.4841 0.5599
C11 C 0.4621(2) 0.7292(7) 0.60114(9)
H20 H 0.4714 0.5298 0.6022
H21 H 0.4880 0.8064 0.6252
C12 C 0.5286(3) 0.8451(9) 0.56827(9)
H22 H 0.5232 1.0456 0.5682
H23 H 0.6043 0.7959 0.5718
C13 C 0.2829(2) 0.7385(6) 0.62851(8)
C14 C 0.30057(18) 0.8702(6) 0.66523(7)
C15 C 0.3743(2) 1.0727(8) 0.67672(9)
H24 H 0.4245 1.1432 0.6593
C16 C 0.3724(3) 1.1676(9) 0.71389(10)
H25 H 0.4217 1.3027 0.7215
C17 C 0.2977(3) 1.0650(9) 0.74047(9)
H26 H 0.2985 1.1306 0.7656
C18 C 0.2231(3) 0.8689(7) 0.72997(8)
H27 H 0.1733 0.7999 0.7476
C19 C 0.2239(2) 0.7753(6) 0.69193(8)
C20 C 0.9073(2) 0.5918(5) 0.31635(7)
C21 C 0.9828(3) 0.7162(6) 0.28691(9)
H28 H 1.0152 0.5709 0.2720
H29 H 1.0387 0.8194 0.2997
H30 H 0.9426 0.8373 0.2703
loop_
_geom_bond_atom_site_label_1
_geom_bond_atom_site_label_2
_geom_bond_site_symmetry_1
_geom_bond_site_symmetry_2
S1 N3 1_555 1_555
N1 C8 1_555 1_555
N2 C10 1_555 1_555
N3 C13 1_555 1_555
N4 H1 1_555 1_555
O1 C20 1_555 1_555
C1 H2 1_555 1_555
C2 C1 1_555 1_555
H3 C2 1_555 1_555
H4 C2 1_555 1_555
C3 C2 1_555 1_555
H5 C3 1_555 1_555
H6 C3 1_555 1_555
C4 N4 1_555 1_555
H7 C4 1_555 1_555
C5 C4 1_555 1_555
H8 C5 1_555 1_555
H9 C5 1_555 1_555
C6 C1 1_555 1_555
H10 C6 1_555 1_555
H11 C6 1_555 1_555
C7 C1 1_555 1_555
H12 C7 1_555 1_555
H13 C7 1_555 1_555
C8 C7 1_555 1_555
H14 C8 1_555 1_555
H15 C8 1_555 1_555
C9 N1 1_555 1_555
H16 C9 1_555 1_555
H17 C9 1_555 1_555
C10 C9 1_555 1_555
H18 C10 1_555 1_555
H19 C10 1_555 1_555
C11 N2 1_555 1_555
H20 C11 1_555 1_555
H21 C11 1_555 1_555
C12 N1 1_555 1_555
H22 C12 1_555 1_555
H23 C12 1_555 1_555
C13 N2 1_555 1_555
C14 C13 1_555 1_555
C15 C14 1_555 1_555
H24 C15 1_555 1_555
C16 C15 1_555 1_555
H25 C16 1_555 1_555
C17 C16 1_555 1_555
H26 C17 1_555 1_555
C18 C17 1_555 1_555
H27 C18 1_555 1_555
C19 S1 1_555 1_555
C20 N4 1_555 1_555
C21 C20 1_555 1_555
H28 C21 1_555 1_555
H29 C21 1_555 1_555
H30 C21 1_555 1_555
C3 C4 1_555 1_555
C5 C6 1_555 1_555
C11 C12 1_555 1_555
C14 C19 1_555 1_555
C18 C19 1_555 1_555

#END
