
#######################################################################
#
#                 Cambridge Crystallographic Data Centre
#                                CCDC 
#
#######################################################################
#
# If this CIF has been generated from an entry in the Cambridge 
# Structural Database, then it will include bibliographic, chemical, 
# crystal, experimental, refinement or atomic coordinate data resulting 
# from the CCDC's data processing and validation procedures.
#
#######################################################################

data_ASELOB
_chemical_formula_moiety         'C30 H16 B2 O4,C1 H1 Cl3'
_chemical_name_systematic        
'9,10,19,20-tetraoxa-9a,19a-diboratetrabenzo[a,f,j,o]perylene chloroform solvate'
_symmetry_cell_setting           triclinic
_symmetry_space_group_name_H-M   'P -1'
_symmetry_Int_Tables_number      2
_space_group_name_Hall           '-P 1'
loop_
_symmetry_equiv_pos_site_id
_symmetry_equiv_pos_as_xyz
1 x,y,z
2 -x,-y,-z
_cell_length_a                   7.0696(7)
_cell_length_b                   10.6921(10)
_cell_length_c                   16.9433(16)
_cell_angle_alpha                105.252(8)
_cell_angle_beta                 91.082(8)
_cell_angle_gamma                103.892(8)
_cell_volume                     1194.86
_exptl_crystal_colour            yellow
_exptl_crystal_description       needle
_cell_formula_units_Z            2
loop_
_atom_site_label
_atom_site_type_symbol
_atom_site_fract_x
_atom_site_fract_y
_atom_site_fract_z
B1 B 0.7161(7) 0.5133(5) 0.4688(3)
O1 O 0.6604(4) 0.6296(3) 0.47299(17)
C1 C 0.6157(6) 0.6545(4) 0.3994(2)
C2 C 0.6058(6) 0.7853(4) 0.4058(3)
H1 H 0.6182 0.8481 0.4583
C3 C 0.5778(6) 0.8230(4) 0.3356(3)
H2 H 0.5682 0.9116 0.3396
C4 C 0.5636(7) 0.7316(4) 0.2591(3)
H3 H 0.5499 0.7585 0.2106
C5 C 0.5695(7) 0.6010(4) 0.2538(3)
H4 H 0.5593 0.5393 0.2011
C6 C 0.5902(6) 0.5573(4) 0.3239(3)
C7 C 0.6087(6) 0.4207(4) 0.3189(2)
C8 C 0.6959(6) 0.4042(4) 0.3892(2)
C9 C 0.7727(6) 0.2938(4) 0.3902(2)
C10 C 0.8208(6) 0.2781(4) 0.4715(2)
C11 C 0.8455(6) 0.1565(4) 0.4832(3)
H5 H 0.8300 0.0810 0.4367
C12 C 0.8910(6) 0.1442(4) 0.5592(3)
H6 H 0.9047 0.0608 0.5651
C13 C 0.9171(7) 0.2543(4) 0.6282(3)
H7 H 0.9571 0.2481 0.6806
C14 C 0.8844(6) 0.3715(4) 0.6195(2)
H8 H 0.8986 0.4460 0.6665
C15 C 0.8311(6) 0.3823(4) 0.5435(2)
O2 O 0.7895(4) 0.5019(3) 0.54173(16)
B2 B 0.6453(8) 0.0998(5) 0.1674(3)
O3 O 0.5179(5) 0.0875(3) 0.10254(17)
C16 C 0.3892(7) 0.1681(4) 0.1126(3)
C17 C 0.2390(8) 0.1348(5) 0.0511(3)
H9 H 0.2361 0.0647 0.0027
C18 C 0.0946(8) 0.2016(5) 0.0591(3)
H10 H -0.0058 0.1798 0.0160
C19 C 0.0964(7) 0.3025(4) 0.1316(3)
H11 H -0.0064 0.3465 0.1390
C20 C 0.2475(6) 0.3374(4) 0.1918(3)
H12 H 0.2472 0.4062 0.2404
C21 C 0.4018(7) 0.2749(4) 0.1840(2)
C22 C 0.5593(6) 0.3058(4) 0.2491(2)
C23 C 0.6677(6) 0.2119(4) 0.2461(2)
C24 C 0.7906(6) 0.2093(4) 0.3113(2)
C25 C 0.9315(6) 0.1265(4) 0.2919(2)
C26 C 1.1054(6) 0.1488(4) 0.3408(3)
H13 H 1.1315 0.2178 0.3911
C27 C 1.2397(7) 0.0738(4) 0.3184(3)
H14 H 1.3558 0.0916 0.3530
C28 C 1.2052(7) -0.0279(4) 0.2449(3)
H15 H 1.2953 -0.0814 0.2299
C29 C 1.0381(7) -0.0501(4) 0.1941(3)
H16 H 1.0133 -0.1192 0.1439
C30 C 0.9066(7) 0.0278(4) 0.2159(3)
O4 O 0.7523(5) 0.0064(3) 0.15754(18)
loop_
_geom_bond_atom_site_label_1
_geom_bond_atom_site_label_2
_geom_bond_site_symmetry_1
_geom_bond_site_symmetry_2
B1 O1 1_555 1_555
O1 C1 1_555 1_555
C1 C2 1_555 1_555
C2 H1 1_555 1_555
C3 C2 1_555 1_555
H2 C3 1_555 1_555
C4 C3 1_555 1_555
H3 C4 1_555 1_555
C5 C4 1_555 1_555
H4 C5 1_555 1_555
C6 C1 1_555 1_555
C7 C6 1_555 1_555
C8 B1 1_555 1_555
C9 C8 1_555 1_555
C10 C9 1_555 1_555
C11 C10 1_555 1_555
H5 C11 1_555 1_555
C12 C11 1_555 1_555
H6 C12 1_555 1_555
C13 C12 1_555 1_555
H7 C13 1_555 1_555
C14 C13 1_555 1_555
H8 C14 1_555 1_555
C15 C10 1_555 1_555
O2 B1 1_555 1_555
B2 O3 1_555 1_555
O3 C16 1_555 1_555
C16 C17 1_555 1_555
C17 H9 1_555 1_555
C18 C17 1_555 1_555
H10 C18 1_555 1_555
C19 C18 1_555 1_555
H11 C19 1_555 1_555
C20 C19 1_555 1_555
H12 C20 1_555 1_555
C21 C16 1_555 1_555
C22 C7 1_555 1_555
C23 B2 1_555 1_555
C24 C9 1_555 1_555
C25 C24 1_555 1_555
C26 C25 1_555 1_555
H13 C26 1_555 1_555
C27 C26 1_555 1_555
H14 C27 1_555 1_555
C28 C27 1_555 1_555
H15 C28 1_555 1_555
C29 C28 1_555 1_555
H16 C29 1_555 1_555
C30 C25 1_555 1_555
O4 B2 1_555 1_555
C5 C6 1_555 1_555
C7 C8 1_555 1_555
C14 C15 1_555 1_555
C15 O2 1_555 1_555
C20 C21 1_555 1_555
C21 C22 1_555 1_555
C22 C23 1_555 1_555
C23 C24 1_555 1_555
C29 C30 1_555 1_555
C30 O4 1_555 1_555

#END
