
#######################################################################
#
#                 Cambridge Crystallographic Data Centre
#                                CCDC 
#
#######################################################################
#
# If this CIF has been generated from an entry in the Cambridge 
# Structural Database, then it will include bibliographic, chemical, 
# crystal, experimental, refinement or atomic coordinate data resulting 
# from the CCDC's data processing and validation procedures.
#
#######################################################################

data_ASESCB02
_chemical_formula_moiety         'C15 H30 As1 N3 S6'
_chemical_name_systematic        
tris(N,N-Diethyldithiocarbamato-S,S')-arsenic(iii)
_symmetry_cell_setting           monoclinic
_symmetry_space_group_name_H-M   'P 21/c'
_symmetry_Int_Tables_number      14
_space_group_name_Hall           '-P 2ybc'
loop_
_symmetry_equiv_pos_site_id
_symmetry_equiv_pos_as_xyz
1 x,y,z
2 -x,1/2+y,1/2-z
3 -x,-y,-z
4 x,1/2-y,1/2+z
_cell_length_a                   15.868(5)
_cell_length_b                   8.389(3)
_cell_length_c                   18.548(6)
_cell_angle_alpha                90
_cell_angle_beta                 100.990(4)
_cell_angle_gamma                90
_cell_volume                     2423.77
_exptl_crystal_colour            orange-red
_exptl_crystal_description       block
_chemical_melting_point          '402 K'
_cell_formula_units_Z            4
_exptl_crystal_recrystallization_method ethanol
loop_
_atom_site_label
_atom_site_type_symbol
_atom_site_fract_x
_atom_site_fract_y
_atom_site_fract_z
As1 As 0.25896(2) 0.80445(4) 0.878817(18)
N1 N 0.45510(17) 0.4362(3) 0.89791(15)
N2 N 0.03384(17) 0.7385(3) 0.70982(14)
N3 N 0.25087(18) 1.0919(3) 1.06807(14)
S1 S 0.29442(6) 0.53203(11) 0.88517(5)
S2 S 0.44218(7) 0.75214(13) 0.89367(7)
S3 S 0.11414(5) 0.73081(11) 0.84921(5)
S4 S 0.19631(6) 0.83642(13) 0.72657(5)
S5 S 0.25468(6) 0.80706(11) 1.00515(5)
S6 S 0.21377(6) 1.10783(11) 0.92238(5)
C1 C 0.4053(2) 0.5643(4) 0.89273(18)
C2 C 0.5487(2) 0.4508(5) 0.9053(2)
H1 H 0.5761 0.3635 0.9352
H2 H 0.5673 0.5494 0.9308
C3 C 0.5776(3) 0.4496(6) 0.8328(2)
H3 H 0.5539 0.3583 0.8049
H4 H 0.6392 0.4445 0.8411
H5 H 0.5584 0.5450 0.8062
C4 C 0.4210(3) 0.2726(5) 0.8998(2)
H6 H 0.4650 0.2054 0.9281
H7 H 0.3726 0.2744 0.9247
C5 C 0.3936(3) 0.2026(6) 0.8271(3)
H8 H 0.3467 0.2634 0.8000
H9 H 0.3754 0.0947 0.8320
H10 H 0.4406 0.2037 0.8013
C6 C 0.1087(2) 0.7665(4) 0.75464(17)
C7 C 0.0218(2) 0.7745(5) 0.63068(18)
H11 H 0.0609 0.8591 0.6231
H12 H -0.0363 0.8123 0.6135
C8 C 0.0377(3) 0.6305(6) 0.5860(2)
H13 H 0.0934 0.5873 0.6054
H14 H 0.0350 0.6615 0.5358
H15 H -0.0053 0.5512 0.5884
C9 C -0.0411(2) 0.6705(4) 0.73433(19)
H16 H -0.0219 0.6126 0.7798
H17 H -0.0689 0.5951 0.6978
C10 C -0.1058(3) 0.7959(5) 0.7466(2)
H18 H -0.0799 0.8663 0.7854
H19 H -0.1548 0.7448 0.7600
H20 H -0.1237 0.8560 0.7023
C11 C 0.24018(19) 1.0152(4) 1.00431(18)
C12 C 0.2768(2) 1.0100(5) 1.13914(19)
H21 H 0.2554 0.9015 1.1346
H22 H 0.2508 1.0636 1.1758
C13 C 0.3729(3) 1.0067(6) 1.1649(2)
H23 H 0.3989 0.9507 1.1296
H24 H 0.3865 0.9535 1.2114
H25 H 0.3944 1.1139 1.1699
C14 C 0.2447(3) 1.2667(5) 1.0699(2)
H26 H 0.2694 1.3107 1.0303
H27 H 0.2784 1.3050 1.1158
C15 C 0.1545(3) 1.3265(6) 1.0628(3)
H28 H 0.1225 1.3006 1.0149
H29 H 0.1552 1.4401 1.0693
H30 H 0.1280 1.2773 1.0996
loop_
_geom_bond_atom_site_label_1
_geom_bond_atom_site_label_2
_geom_bond_site_symmetry_1
_geom_bond_site_symmetry_2
As1 S1 1_555 1_555
N1 C1 1_555 1_555
N2 C6 1_555 1_555
N3 C11 1_555 1_555
S1 C1 1_555 1_555
S2 As1 1_555 1_555
S3 As1 1_555 1_555
S4 As1 1_555 1_555
S5 As1 1_555 1_555
S6 As1 1_555 1_555
C1 S2 1_555 1_555
C2 N1 1_555 1_555
H1 C2 1_555 1_555
H2 C2 1_555 1_555
C3 C2 1_555 1_555
H3 C3 1_555 1_555
H4 C3 1_555 1_555
H5 C3 1_555 1_555
C4 N1 1_555 1_555
H6 C4 1_555 1_555
H7 C4 1_555 1_555
C5 C4 1_555 1_555
H8 C5 1_555 1_555
H9 C5 1_555 1_555
H10 C5 1_555 1_555
C6 S3 1_555 1_555
C7 N2 1_555 1_555
H11 C7 1_555 1_555
H12 C7 1_555 1_555
C8 C7 1_555 1_555
H13 C8 1_555 1_555
H14 C8 1_555 1_555
H15 C8 1_555 1_555
C9 N2 1_555 1_555
H16 C9 1_555 1_555
H17 C9 1_555 1_555
C10 C9 1_555 1_555
H18 C10 1_555 1_555
H19 C10 1_555 1_555
H20 C10 1_555 1_555
C11 S5 1_555 1_555
C12 N3 1_555 1_555
H21 C12 1_555 1_555
H22 C12 1_555 1_555
C13 C12 1_555 1_555
H23 C13 1_555 1_555
H24 C13 1_555 1_555
H25 C13 1_555 1_555
C14 N3 1_555 1_555
H26 C14 1_555 1_555
H27 C14 1_555 1_555
C15 C14 1_555 1_555
H28 C15 1_555 1_555
H29 C15 1_555 1_555
H30 C15 1_555 1_555
S4 C6 1_555 1_555
S6 C11 1_555 1_555

#END
