
#######################################################################
#
#                 Cambridge Crystallographic Data Centre
#                                CCDC 
#
#######################################################################
#
# If this CIF has been generated from an entry in the Cambridge 
# Structural Database, then it will include bibliographic, chemical, 
# crystal, experimental, refinement or atomic coordinate data resulting 
# from the CCDC's data processing and validation procedures.
#
#######################################################################

data_ASEVUP
_chemical_formula_moiety         'C62 H76 N4 O4 S2,C2 H3 N1,H2 O1'
_chemical_name_systematic        
'5,11,17,23-Tetra-t-butyl-25,27-bis(2-(3-phenyl-thioureido)ethoxy)-26,28-dihydroxycalix(4)arene acetonitrile solvate monohydrate'
_symmetry_cell_setting           triclinic
_symmetry_space_group_name_H-M   'P -1'
_symmetry_Int_Tables_number      2
_space_group_name_Hall           '-P 1'
loop_
_symmetry_equiv_pos_site_id
_symmetry_equiv_pos_as_xyz
1 x,y,z
2 -x,-y,-z
_cell_length_a                   12.082(4)
_cell_length_b                   16.478(6)
_cell_length_c                   18.362(6)
_cell_angle_alpha                85.147(7)
_cell_angle_beta                 72.438(7)
_cell_angle_gamma                75.758(7)
_cell_volume                     3377.92
_chemical_melting_point          'above 280 deg.C'
_cell_formula_units_Z            2
loop_
_atom_site_label
_atom_site_type_symbol
_atom_site_fract_x
_atom_site_fract_y
_atom_site_fract_z
C1 C 0.4264(4) 0.8561(3) 0.0702(3)
C2 C 0.4859(5) 0.7764(4) 0.0427(3)
H1 H 0.4610 0.7543 0.0070
C3 C 0.5821(5) 0.7275(3) 0.0665(3)
C4 C 0.6169(5) 0.7643(4) 0.1193(3)
H2 H 0.6800 0.7337 0.1365
C5 C 0.5618(4) 0.8441(4) 0.1470(3)
C6 C 0.5986(5) 0.8783(4) 0.2098(3)
H3 H 0.6847 0.8621 0.1988
H4 H 0.5749 0.9390 0.2094
C7 C 0.5417(5) 0.8457(4) 0.2880(3)
C8 C 0.5996(5) 0.7723(4) 0.3162(3)
H5 H 0.6752 0.7455 0.2868
C9 C 0.5507(5) 0.7367(4) 0.3857(4)
C10 C 0.4405(5) 0.7798(4) 0.4295(3)
H6 H 0.4073 0.7587 0.4776
C11 C 0.3772(4) 0.8538(3) 0.4042(3)
C12 C 0.2531(4) 0.8947(3) 0.4517(3)
H7 H 0.2464 0.8850 0.5056
H8 H 0.2371 0.9546 0.4422
C13 C 0.1642(4) 0.8580(3) 0.4308(3)
C14 C 0.1495(5) 0.7784(3) 0.4578(3)
H9 H 0.1888 0.7522 0.4930
C15 C 0.0807(5) 0.7367(3) 0.4355(3)
C16 C 0.0215(5) 0.7775(4) 0.3831(3)
H10 H -0.0257 0.7504 0.3668
C17 C 0.0307(4) 0.8572(3) 0.3547(3)
C18 C -0.0251(4) 0.8961(4) 0.2927(3)
H11 H -0.1037 0.8848 0.3039
H12 H -0.0349 0.9564 0.2926
C19 C 0.0494(4) 0.8630(3) 0.2145(3)
C20 C 0.0328(5) 0.7898(4) 0.1877(3)
H13 H -0.0280 0.7657 0.2179
C21 C 0.1016(5) 0.7531(3) 0.1200(3)
C22 C 0.1899(5) 0.7922(3) 0.0752(3)
H14 H 0.2360 0.7697 0.0279
C23 C 0.2117(4) 0.8636(3) 0.0986(3)
C24 C 0.3143(5) 0.8990(4) 0.0499(3)
H15 H 0.3250 0.8905 -0.0037
H16 H 0.2971 0.9587 0.0583
C25 C 0.4686(4) 0.8902(3) 0.1201(3)
C26 C 0.1409(4) 0.8976(3) 0.1682(3)
C27 C 0.1004(4) 0.8974(3) 0.3811(3)
C28 C 0.4296(4) 0.8862(3) 0.3334(3)
C29 C 0.6455(6) 0.6408(4) 0.0338(4)
C30 C 0.6950(17) 0.5854(7) 0.0948(11)
H17 H 0.7349 0.5306 0.0746
H18 H 0.6303 0.5813 0.1396
H19 H 0.7505 0.6103 0.1078
C31 C 0.7451(13) 0.6473(7) -0.0331(8)
H20 H 0.7855 0.5925 -0.0532
H21 H 0.7996 0.6721 -0.0190
H22 H 0.7157 0.6817 -0.0713
C32 C 0.5616(10) 0.5953(7) 0.0203(11)
H23 H 0.6048 0.5408 0.0006
H24 H 0.5238 0.6262 -0.0160
H25 H 0.5020 0.5897 0.0675
C33 C 0.6139(6) 0.6537(5) 0.4153(4)
C34 C 0.6196(16) 0.6644(8) 0.4929(8)
H26 H 0.6594 0.6123 0.5108
H27 H 0.5401 0.6815 0.5266
H28 H 0.6629 0.7063 0.4918
C35 C 0.7388(11) 0.6241(10) 0.3657(10)
H29 H 0.7755 0.5722 0.3856
H30 H 0.7834 0.6652 0.3648
H31 H 0.7379 0.6160 0.3147
C36 C 0.5490(14) 0.5909(6) 0.4182(12)
H32 H 0.5894 0.5390 0.4362
H33 H 0.5443 0.5834 0.3680
H34 H 0.4699 0.6081 0.4523
C37 C 0.0682(6) 0.6493(4) 0.4664(4)
C38 C 0.0456(14) 0.5989(6) 0.4077(8)
H35 H 0.0383 0.5443 0.4283
H36 H 0.1112 0.5934 0.3617
H37 H -0.0268 0.6276 0.3963
C39 C -0.0394(12) 0.6571(6) 0.5326(7)
H38 H -0.0316 0.6883 0.5719
H39 H -0.0484 0.6023 0.5518
H40 H -0.1082 0.6857 0.5171
C40 C 0.1765(12) 0.6012(7) 0.4852(11)
H41 H 0.1928 0.6315 0.5217
H42 H 0.2429 0.5931 0.4397
H43 H 0.1643 0.5477 0.5065
C41 C 0.0872(6) 0.6711(4) 0.0960(4)
C42 C 0.1751(12) 0.5998(6) 0.1197(8)
H44 H 0.1669 0.5477 0.1048
H45 H 0.1596 0.6001 0.1741
H46 H 0.2548 0.6063 0.0953
C43 C -0.0332(10) 0.6550(8) 0.1364(9)
H47 H -0.0938 0.6990 0.1243
H48 H -0.0449 0.6532 0.1906
H49 H -0.0381 0.6024 0.1203
C44 C 0.1103(16) 0.6687(7) 0.0107(6)
H50 H 0.0547 0.7139 -0.0048
H51 H 0.1007 0.6164 -0.0029
H52 H 0.1902 0.6743 -0.0145
C45 C 0.0204(5) 1.0437(3) 0.3951(3)
H53 H 0.0311 1.0487 0.4447
H54 H -0.0572 1.0317 0.4031
C46 C 0.0271(5) 1.1244(3) 0.3501(3)
H55 H -0.0275 1.1708 0.3811
H56 H 0.1072 1.1331 0.3387
C47 C -0.1099(5) 1.1592(3) 0.2696(3)
C48 C -0.0249(5) 1.1466(4) 0.1280(3)
C49 C -0.0445(5) 1.1076(4) 0.0702(3)
H57 H -0.1158 1.0912 0.0789
C50 C 0.0405(6) 1.0930(4) 0.0002(4)
H58 H 0.0255 1.0690 -0.0389
C51 C 0.1482(7) 1.1143(4) -0.0113(4)
H59 H 0.2072 1.1022 -0.0577
C52 C 0.1691(5) 1.1528(4) 0.0446(3)
H60 H 0.2414 1.1677 0.0361
C53 C 0.0825(5) 1.1694(4) 0.1135(3)
H61 H 0.0965 1.1965 0.1511
C54 C 0.4625(5) 1.0365(3) 0.1060(3)
H62 H 0.4479 1.0442 0.0565
H63 H 0.5481 1.0221 0.0981
C55 C 0.4066(5) 1.1155(4) 0.1513(3)
H64 H 0.4302 1.1622 0.1198
H65 H 0.3205 1.1252 0.1640
C56 C 0.5214(5) 1.1521(4) 0.2290(3)
C57 C 0.4453(5) 1.1400(4) 0.3727(3)
C58 C 0.3225(5) 1.1581(4) 0.3860(3)
H66 H 0.2896 1.1812 0.3471
C59 C 0.2495(6) 1.1423(4) 0.4561(3)
H67 H 0.1677 1.1520 0.4637
C60 C 0.2956(6) 1.1126(5) 0.5147(4)
H68 H 0.2450 1.1030 0.5623
C61 C 0.4167(7) 1.0966(5) 0.5040(4)
H69 H 0.4478 1.0776 0.5445
C62 C 0.4911(6) 1.1088(4) 0.4331(3)
H70 H 0.5732 1.0960 0.4253
N1 N 0.5273(4) 1.1559(3) 0.3013(2)
H74 H 0.5896 1.1699 0.3048
N2 N 0.4393(4) 1.1136(3) 0.2205(2)
H75 H 0.4045 1.0862 0.2589
N3 N -0.1175(4) 1.1634(3) 0.1970(2)
H76 H -0.1886 1.1784 0.1926
N4 N -0.0025(4) 1.1242(3) 0.2792(2)
H77 H 0.0527 1.0999 0.2405
O1 O 0.4104(3) 0.9706(2) 0.14816(18)
O2 O 0.3685(3) 0.9591(2) 0.30725(19)
H78 H 0.3852 0.9578 0.2606
O3 O 0.1125(3) 0.9775(2) 0.35296(18)
O4 O 0.1612(3) 0.9678(2) 0.19263(19)
H79 H 0.1453 0.9664 0.2393
S1 S 0.61311(15) 1.19242(13) 0.15673(9)
S2 S -0.23055(13) 1.19646(12) 0.34210(8)
C63 C 0.3319(7) 0.7236(5) 0.2495(4)
H71 H 0.3665 0.7479 0.2804
H72 H 0.2464 0.7408 0.2680
H73 H 0.3584 0.7420 0.1975
C64 C 0.3673(11) 0.6362(8) 0.2534(6)
N5 N 0.3890(16) 0.5665(9) 0.2544(9)
O5 O 0.1876(8) 0.2889(7) 0.2481(4)
loop_
_geom_bond_atom_site_label_1
_geom_bond_atom_site_label_2
_geom_bond_site_symmetry_1
_geom_bond_site_symmetry_2
C1 C2 1_555 1_555
C2 H1 1_555 1_555
C3 C2 1_555 1_555
C4 C3 1_555 1_555
H2 C4 1_555 1_555
C5 C4 1_555 1_555
C6 C5 1_555 1_555
H3 C6 1_555 1_555
H4 C6 1_555 1_555
C7 C6 1_555 1_555
C8 C7 1_555 1_555
H5 C8 1_555 1_555
C9 C8 1_555 1_555
C10 C9 1_555 1_555
H6 C10 1_555 1_555
C11 C10 1_555 1_555
C12 C11 1_555 1_555
H7 C12 1_555 1_555
H8 C12 1_555 1_555
C13 C12 1_555 1_555
C14 C13 1_555 1_555
H9 C14 1_555 1_555
C15 C14 1_555 1_555
C16 C15 1_555 1_555
H10 C16 1_555 1_555
C17 C16 1_555 1_555
C18 C17 1_555 1_555
H11 C18 1_555 1_555
H12 C18 1_555 1_555
C19 C18 1_555 1_555
C20 C19 1_555 1_555
H13 C20 1_555 1_555
C21 C20 1_555 1_555
C22 C21 1_555 1_555
H14 C22 1_555 1_555
C23 C22 1_555 1_555
C24 C1 1_555 1_555
H15 C24 1_555 1_555
H16 C24 1_555 1_555
C25 C1 1_555 1_555
C26 C19 1_555 1_555
C27 C13 1_555 1_555
C28 C7 1_555 1_555
C29 C3 1_555 1_555
C30 C29 1_555 1_555
H17 C30 1_555 1_555
H18 C30 1_555 1_555
H19 C30 1_555 1_555
C31 C29 1_555 1_555
H20 C31 1_555 1_555
H21 C31 1_555 1_555
H22 C31 1_555 1_555
C32 C29 1_555 1_555
H23 C32 1_555 1_555
H24 C32 1_555 1_555
H25 C32 1_555 1_555
C33 C9 1_555 1_555
C34 C33 1_555 1_555
H26 C34 1_555 1_555
H27 C34 1_555 1_555
H28 C34 1_555 1_555
C35 C33 1_555 1_555
H29 C35 1_555 1_555
H30 C35 1_555 1_555
H31 C35 1_555 1_555
C36 C33 1_555 1_555
H32 C36 1_555 1_555
H33 C36 1_555 1_555
H34 C36 1_555 1_555
C37 C15 1_555 1_555
C38 C37 1_555 1_555
H35 C38 1_555 1_555
H36 C38 1_555 1_555
H37 C38 1_555 1_555
C39 C37 1_555 1_555
H38 C39 1_555 1_555
H39 C39 1_555 1_555
H40 C39 1_555 1_555
C40 C37 1_555 1_555
H41 C40 1_555 1_555
H42 C40 1_555 1_555
H43 C40 1_555 1_555
C41 C21 1_555 1_555
C42 C41 1_555 1_555
H44 C42 1_555 1_555
H45 C42 1_555 1_555
H46 C42 1_555 1_555
C43 C41 1_555 1_555
H47 C43 1_555 1_555
H48 C43 1_555 1_555
H49 C43 1_555 1_555
C44 C41 1_555 1_555
H50 C44 1_555 1_555
H51 C44 1_555 1_555
H52 C44 1_555 1_555
C45 H53 1_555 1_555
H54 C45 1_555 1_555
C46 C45 1_555 1_555
H55 C46 1_555 1_555
H56 C46 1_555 1_555
C47 N3 1_555 1_555
C48 C49 1_555 1_555
C49 H57 1_555 1_555
C50 C49 1_555 1_555
H58 C50 1_555 1_555
C51 C50 1_555 1_555
H59 C51 1_555 1_555
C52 C51 1_555 1_555
H60 C52 1_555 1_555
C53 C48 1_555 1_555
H61 C53 1_555 1_555
C54 H62 1_555 1_555
H63 C54 1_555 1_555
C55 C54 1_555 1_555
H64 C55 1_555 1_555
H65 C55 1_555 1_555
C56 N1 1_555 1_555
C57 C58 1_555 1_555
C58 H66 1_555 1_555
C59 C58 1_555 1_555
H67 C59 1_555 1_555
C60 C59 1_555 1_555
H68 C60 1_555 1_555
C61 C60 1_555 1_555
H69 C61 1_555 1_555
C62 C57 1_555 1_555
H70 C62 1_555 1_555
C63 H71 1_555 1_555
H72 C63 1_555 1_555
H73 C63 1_555 1_555
C64 C63 1_555 1_555
N1 C57 1_555 1_555
H74 N1 1_555 1_555
N2 C55 1_555 1_555
H75 N2 1_555 1_555
N3 C48 1_555 1_555
H76 N3 1_555 1_555
N4 C46 1_555 1_555
H77 N4 1_555 1_555
N5 C64 1_555 1_555
O1 C25 1_555 1_555
O2 C28 1_555 1_555
H78 O2 1_555 1_555
O3 C27 1_555 1_555
O4 C26 1_555 1_555
H79 O4 1_555 1_555
S1 C56 1_555 1_555
S2 C47 1_555 1_555
C5 C25 1_555 1_555
C11 C28 1_555 1_555
C17 C27 1_555 1_555
C23 C24 1_555 1_555
C23 C26 1_555 1_555
C45 O3 1_555 1_555
C47 N4 1_555 1_555
C52 C53 1_555 1_555
C54 O1 1_555 1_555
C56 N2 1_555 1_555
C61 C62 1_555 1_555

#END
