
#######################################################################
#
#                 Cambridge Crystallographic Data Centre
#                                CCDC 
#
#######################################################################
#
# If this CIF has been generated from an entry in the Cambridge 
# Structural Database, then it will include bibliographic, chemical, 
# crystal, experimental, refinement or atomic coordinate data resulting 
# from the CCDC's data processing and validation procedures.
#
#######################################################################

data_ASEWUR
_chemical_formula_moiety         'C24 H33 N5 O4'
_chemical_name_systematic        
'(5aR,10bS)-Ethyl 9-(4-(ethoxycarbonyl)-2,3-dihydro-1H-1,2,3-triazol-1-yl)-10b-ethyl-3,6-dimethyl-1,2,3,5a,6,10b-hexahydroazepino[4,5-b]indole-5-carboxylate'
_symmetry_cell_setting           monoclinic
_symmetry_space_group_name_H-M   'P 21'
_symmetry_Int_Tables_number      4
_space_group_name_Hall           'P 2yb'
loop_
_symmetry_equiv_pos_site_id
_symmetry_equiv_pos_as_xyz
1 x,y,z
2 -x,1/2+y,-z
_cell_length_a                   11.8051(14)
_cell_length_b                   7.9617(10)
_cell_length_c                   13.6154(16)
_cell_angle_alpha                90
_cell_angle_beta                 108.214(2)
_cell_angle_gamma                90
_cell_volume                     1215.58
_chemical_melting_point          '167-168 deg.C'
_cell_formula_units_Z            2
loop_
_atom_site_label
_atom_site_type_symbol
_atom_site_fract_x
_atom_site_fract_y
_atom_site_fract_z
O1 O 0.0002(3) 0.6849(4) -0.3984(2)
O2 O 0.1552(2) -0.2996(4) 0.32035(17)
O3 O 0.1863(3) 0.7869(4) -0.3591(2)
O4 O 0.3120(2) -0.4710(3) 0.38331(17)
N1 N 0.1838(2) -0.2607(3) 0.04228(18)
N2 N 0.4540(2) -0.4081(4) 0.1581(2)
N3 N 0.1825(2) 0.3362(4) -0.17048(19)
N4 N 0.2824(2) 0.4323(4) -0.1401(2)
H1 H 0.3458 0.4110 -0.0897
N5 N 0.2651(2) 0.5619(4) -0.2007(2)
H2 H 0.3159 0.6408 -0.1976
C1 C 0.1723(2) -0.1215(4) -0.0213(2)
C2 C 0.2422(2) 0.0117(4) 0.0329(2)
C3 C 0.3075(2) -0.0454(4) 0.1416(2)
C4 C 0.2319(2) -0.1997(4) 0.1512(2)
H3 H 0.1644 -0.1586 0.1717
C5 C 0.2938(2) -0.3315(4) 0.2273(2)
C6 C 0.3885(3) -0.4248(4) 0.2217(2)
H4 H 0.4106 -0.5127 0.2688
C7 C 0.4506(3) -0.2577(5) 0.0948(2)
H5 H 0.3848 -0.2677 0.0311
H6 H 0.5238 -0.2517 0.0768
C8 C 0.4363(3) -0.0969(4) 0.1492(3)
H7 H 0.4717 -0.0061 0.1214
H8 H 0.4817 -0.1080 0.2219
C9 C 0.2457(3) -0.3632(4) 0.3117(2)
C10 C 0.2711(4) -0.5117(7) 0.4698(3)
H9 H 0.2108 -0.5989 0.4504
H10 H 0.2364 -0.4133 0.4911
C11 C 0.3733(5) -0.5698(12) 0.5543(4)
H11 H 0.4259 -0.4772 0.5811
H12 H 0.4150 -0.6548 0.5293
H13 H 0.3462 -0.6158 0.6082
C12 C 0.3139(3) 0.0859(5) 0.2257(3)
H14 H 0.3485 0.0329 0.2926
H15 H 0.3681 0.1742 0.2199
C13 C 0.1974(3) 0.1664(6) 0.2242(3)
H16 H 0.1450 0.0822 0.2362
H17 H 0.1610 0.2180 0.1581
H18 H 0.2123 0.2502 0.2775
C14 C 0.2464(2) 0.1639(4) -0.0148(2)
H19 H 0.2928 0.2521 0.0211
C15 C 0.1786(3) 0.1809(4) -0.1190(2)
C16 C 0.1090(3) 0.0496(4) -0.1731(2)
H20 H 0.0651 0.0636 -0.2424
C17 C 0.1047(3) -0.1024(4) -0.1243(2)
H21 H 0.0573 -0.1900 -0.1600
C18 C 0.1008(3) 0.4095(4) -0.2500(2)
H22 H 0.0242 0.3718 -0.2848
C19 C 0.1556(3) 0.5530(5) -0.2688(2)
C20 C 0.1045(4) 0.6804(5) -0.3489(3)
C21 C 0.1441(5) 0.9166(6) -0.4389(4)
H23 H 0.1055 0.8656 -0.5057
H24 H 0.0875 0.9904 -0.4219
C22 C 0.2486(8) 1.0094(12) -0.4408(7)
H25 H 0.3062 0.9333 -0.4525
H26 H 0.2826 1.0654 -0.3758
H27 H 0.2266 1.0910 -0.4954
C23 C 0.0926(3) -0.3883(4) 0.0198(3)
H28 H 0.0768 -0.4263 -0.0501
H29 H 0.0211 -0.3425 0.0284
H30 H 0.1193 -0.4811 0.0663
C24 C 0.5360(3) -0.5410(5) 0.1508(3)
H31 H 0.5379 -0.6265 0.2010
H32 H 0.6145 -0.4949 0.1638
H33 H 0.5097 -0.5890 0.0827
loop_
_geom_bond_atom_site_label_1
_geom_bond_atom_site_label_2
_geom_bond_site_symmetry_1
_geom_bond_site_symmetry_2
O1 C20 1_555 1_555
O2 C9 1_555 1_555
O3 C20 1_555 1_555
O4 C9 1_555 1_555
N1 C1 1_555 1_555
N2 C6 1_555 1_555
N3 N4 1_555 1_555
N4 H1 1_555 1_555
N5 N4 1_555 1_555
H2 N5 1_555 1_555
C1 C2 1_555 1_555
C2 C3 1_555 1_555
C3 C4 1_555 1_555
C4 N1 1_555 1_555
H3 C4 1_555 1_555
C5 C4 1_555 1_555
C6 C5 1_555 1_555
H4 C6 1_555 1_555
C7 N2 1_555 1_555
H5 C7 1_555 1_555
H6 C7 1_555 1_555
C8 C3 1_555 1_555
H7 C8 1_555 1_555
H8 C8 1_555 1_555
C9 C5 1_555 1_555
C10 O4 1_555 1_555
H9 C10 1_555 1_555
H10 C10 1_555 1_555
C11 C10 1_555 1_555
H11 C11 1_555 1_555
H12 C11 1_555 1_555
H13 C11 1_555 1_555
C12 C3 1_555 1_555
H14 C12 1_555 1_555
H15 C12 1_555 1_555
C13 C12 1_555 1_555
H16 C13 1_555 1_555
H17 C13 1_555 1_555
H18 C13 1_555 1_555
C14 C2 1_555 1_555
H19 C14 1_555 1_555
C15 N3 1_555 1_555
C16 C15 1_555 1_555
H20 C16 1_555 1_555
C17 C1 1_555 1_555
H21 C17 1_555 1_555
C18 N3 1_555 1_555
H22 C18 1_555 1_555
C19 N5 1_555 1_555
C20 C19 1_555 1_555
C21 O3 1_555 1_555
H23 C21 1_555 1_555
H24 C21 1_555 1_555
C22 C21 1_555 1_555
H25 C22 1_555 1_555
H26 C22 1_555 1_555
H27 C22 1_555 1_555
C23 N1 1_555 1_555
H28 C23 1_555 1_555
H29 C23 1_555 1_555
H30 C23 1_555 1_555
C24 N2 1_555 1_555
H31 C24 1_555 1_555
H32 C24 1_555 1_555
H33 C24 1_555 1_555
C7 C8 1_555 1_555
C14 C15 1_555 1_555
C16 C17 1_555 1_555
C18 C19 1_555 1_555

#END
