
#######################################################################
#
#                 Cambridge Crystallographic Data Centre
#                                CCDC 
#
#######################################################################
#
# If this CIF has been generated from an entry in the Cambridge 
# Structural Database, then it will include bibliographic, chemical, 
# crystal, experimental, refinement or atomic coordinate data resulting 
# from the CCDC's data processing and validation procedures.
#
#######################################################################

data_ASGPRS
_chemical_formula_moiety         'C12 H21 N3 O8,x(H2 O1)'
_chemical_name_systematic        
'2-Acetamido-1-N-(L-aspart-4-oyl)-2-deoxy-\b-D-glucopyranosylamine hydrate'
_symmetry_cell_setting           monoclinic
_symmetry_space_group_name_H-M   'P 21'
_symmetry_Int_Tables_number      4
_space_group_name_Hall           'P 2yb'
loop_
_symmetry_equiv_pos_site_id
_symmetry_equiv_pos_as_xyz
1 x,y,z
2 -x,1/2+y,-z
_cell_length_a                   4.932(2)
_cell_length_b                   24.218(8)
_cell_length_c                   7.788(3)
_cell_angle_alpha                90
_cell_angle_beta                 97.718(5)
_cell_angle_gamma                90
_cell_volume                     921.797
_cell_formula_units_Z            2
loop_
_atom_site_label
_atom_site_type_symbol
_atom_site_fract_x
_atom_site_fract_y
_atom_site_fract_z
N1 N 0.07520 -0.39440 0.28540
N2 N 0.00070 -0.33330 -0.04010
N3 N 0.44970 -0.55490 0.24710
C1 C 0.17930 -0.33910 0.26990
C2 C 0.00280 -0.30690 0.12720
C3 C 0.11300 -0.24800 0.12010
C4 C 0.12810 -0.22080 0.30090
C5 C 0.29080 -0.25820 0.43890
C6 C 0.28170 -0.23680 0.62320
C7 C -0.22300 -0.35580 -0.12460
C8 C -0.19480 -0.37780 -0.30410
C9 C 0.24280 -0.43840 0.31690
C10 C 0.08670 -0.49240 0.32790
C11 C 0.27600 -0.53990 0.38740
C12 C 0.11980 -0.59290 0.43310
O1 O 0.49250 -0.43610 0.32820
O2 O -0.44080 -0.35920 -0.06520
O3 O -0.06380 -0.21630 0.00130
O4 O 0.26610 -0.16920 0.29230
O5 O 0.17240 -0.31260 0.43290
O6 O 0.01190 -0.23370 0.66430
O7 O -0.08980 -0.58690 0.49900
O8 O 0.22760 -0.63740 0.40300
H1 H -0.13000 -0.39500 0.27300
H2 H 0.17400 -0.33500 -0.07500
H3 H 0.63500 -0.56900 0.28000
H4 H 0.39400 -0.59200 0.16200
H5 H 0.51600 -0.52800 0.20000
H6 H 0.38600 -0.34200 0.23500
H7 H -0.18900 -0.30300 0.15300
H8 H 0.30900 -0.24500 0.07300
H9 H -0.08700 -0.21700 0.30200
H10 H 0.49100 -0.26600 0.43000
H11 H 0.37000 -0.20600 0.64000
H12 H 0.38700 -0.26000 0.71400
H13 H -0.34700 -0.39800 -0.35300
H14 H -0.04600 -0.40200 -0.31400
H15 H -0.06600 -0.49200 0.37700
H16 H 0.03300 -0.50000 0.23000
H17 H 0.40000 -0.53000 0.49900
H18 H -0.04400 -0.22600 -0.10200
H19 H -0.03400 -0.20400 0.63600
O9 O 0.43640 -0.47800 0.94020
H20 H 0.43500 -0.44500 0.88800
O10 O 0.10080 -0.01940 0.20450
H21 H -0.08700 -0.03800 0.23500
O11 O 0.08800 -0.09830 0.94070
O12 O 0.64270 -0.12180 0.06410
loop_
_geom_bond_atom_site_label_1
_geom_bond_atom_site_label_2
_geom_bond_site_symmetry_1
_geom_bond_site_symmetry_2
N1 C1 1_555 1_555
N2 C2 1_555 1_555
N3 C11 1_555 1_555
C1 C2 1_555 1_555
C2 C3 1_555 1_555
C3 C4 1_555 1_555
C4 C5 1_555 1_555
C5 C6 1_555 1_555
C6 O6 1_555 1_555
C7 N2 1_555 1_555
C8 C7 1_555 1_555
C9 N1 1_555 1_555
C10 C9 1_555 1_555
C11 C10 1_555 1_555
C12 C11 1_555 1_555
O1 C9 1_555 1_555
O2 C7 1_555 1_555
O3 C3 1_555 1_555
O4 C4 1_555 1_555
O5 C1 1_555 1_555
O6 H19 1_555 1_555
O7 C12 1_555 1_555
O8 C12 1_555 1_555
O9 H20 1_555 1_555
O10 H21 1_555 1_555
H1 N1 1_555 1_555
H2 N2 1_555 1_555
H3 N3 1_555 1_555
H4 N3 1_555 1_555
H5 N3 1_555 1_555
H6 C1 1_555 1_555
H7 C2 1_555 1_555
H8 C3 1_555 1_555
H9 C4 1_555 1_555
H10 C5 1_555 1_555
H11 C6 1_555 1_555
H12 C6 1_555 1_555
H13 C8 1_555 1_555
H14 C8 1_555 1_555
H15 C10 1_555 1_555
H16 C10 1_555 1_555
H17 C11 1_555 1_555
H18 O3 1_555 1_555
C5 O5 1_555 1_555

#END
