
#######################################################################
#
#                 Cambridge Crystallographic Data Centre
#                                CCDC 
#
#######################################################################
#
# If this CIF has been generated from an entry in the Cambridge 
# Structural Database, then it will include bibliographic, chemical, 
# crystal, experimental, refinement or atomic coordinate data resulting 
# from the CCDC's data processing and validation procedures.
#
#######################################################################

data_ASIGOA
_chemical_compound_source        'leaves of Myrtus communis L. (Myrtaceae)'
_chemical_formula_moiety         'C29 H44 O3'
_chemical_name_systematic        
(2aR,4aR,10S,10aS,13aS)-10-isopropyl-2,2,4a,6,6,8,8-heptamethyl-13-methylene-2,2a,3,4,4a,6,10,10a,11,12,13,13a-dodecahydrocyclobuta[6,7]cyclonona[1,2-b]chromene-7,9(1H,8H)-dione
_symmetry_cell_setting           monoclinic
_symmetry_space_group_name_H-M   'P 21'
_symmetry_Int_Tables_number      4
_space_group_name_Hall           'P 2yb'
loop_
_symmetry_equiv_pos_site_id
_symmetry_equiv_pos_as_xyz
1 x,y,z
2 -x,1/2+y,-z
_cell_length_a                   10.7392(3)
_cell_length_b                   9.6056(4)
_cell_length_c                   12.9349(4)
_cell_angle_alpha                90
_cell_angle_beta                 91.623(3)
_cell_angle_gamma                90
_cell_volume                     1333.78
_exptl_crystal_colour            colorless
_exptl_crystal_description       blocks
_chemical_melting_point          '187-188 deg.C'
_cell_formula_units_Z            2
loop_
_atom_site_label
_atom_site_type_symbol
_atom_site_fract_x
_atom_site_fract_y
_atom_site_fract_z
O1 O 0.75170(9) 1.06734(12) 0.25820(8)
O2 O 1.17197(11) 1.03453(16) 0.17729(9)
O3 O 1.04847(12) 1.37195(15) 0.40563(11)
C1 C 0.54713(14) 0.7386(2) 0.24726(12)
H1 H 0.6323 0.7140 0.2695
C2 C 0.53124(16) 0.8952(2) 0.25838(17)
H2 H 0.4436 0.9137 0.2683
H3 H 0.5758 0.9238 0.3211
C3 C 0.57384(16) 0.9872(2) 0.17098(16)
H4 H 0.5360 1.0780 0.1798
H5 H 0.5395 0.9489 0.1069
C4 C 0.71361(14) 1.01015(18) 0.15654(12)
C5 C 0.79188(13) 0.87940(17) 0.13426(11)
H6 H 0.7639 0.8060 0.1809
C6 C 0.77317(15) 0.82415(19) 0.02290(11)
H7 H 0.7854 0.9013 -0.0241
H8 H 0.8386 0.7570 0.0107
C7 C 0.64767(16) 0.7552(2) -0.00677(12)
H9 H 0.5827 0.8253 -0.0058
H10 H 0.6515 0.7200 -0.0769
C8 C 0.61280(14) 0.63701(18) 0.06399(11)
C9 C 0.51563(14) 0.66241(19) 0.14338(12)
H11 H 0.4444 0.7093 0.1095
C10 C 0.46646(16) 0.5402(2) 0.20803(13)
H12 H 0.3873 0.5034 0.1824
H13 H 0.5267 0.4660 0.2190
C11 C 0.45485(14) 0.6381(2) 0.30156(13)
C12 C 0.7322(2) 1.1246(2) 0.07714(14)
H14 H 0.6933 1.2087 0.1000
H15 H 0.6953 1.0967 0.0119
H16 H 0.8197 1.1405 0.0694
C13 C 0.66545(16) 0.5140(2) 0.05188(13)
H17 H 0.6427 0.4395 0.0932
H18 H 0.7252 0.5019 0.0020
C14 C 0.49839(19) 0.5803(3) 0.40628(15)
H19 H 0.5062 0.6551 0.4553
H20 H 0.5777 0.5356 0.3996
H21 H 0.4387 0.5140 0.4299
C15 C 0.32272(16) 0.6948(2) 0.30752(17)
H22 H 0.2671 0.6209 0.3253
H23 H 0.2974 0.7331 0.2417
H24 H 0.3204 0.7663 0.3593
C16 C 0.96242(13) 1.02954(18) 0.22401(10)
C17 C 1.09209(14) 1.07607(19) 0.23535(12)
C18 C 1.12990(14) 1.1703(2) 0.32616(12)
C19 C 1.02481(15) 1.26374(19) 0.36215(12)
C20 C 0.88893(14) 1.21918(18) 0.34718(11)
C21 C 0.87351(13) 1.09955(16) 0.27309(11)
C22 C 0.93329(13) 0.90264(17) 0.15860(11)
H25 H 0.9742 0.9151 0.0925
C23 C 0.99490(14) 0.77422(19) 0.21353(14)
H26 H 1.0815 0.8005 0.2294
C24 C 0.93776(17) 0.7389(2) 0.31625(14)
H27 H 0.8553 0.7026 0.3042
H28 H 0.9336 0.8214 0.3579
H29 H 0.9882 0.6704 0.3516
C25 C 1.00042(19) 0.6442(2) 0.14603(18)
H30 H 1.0508 0.5748 0.1804
H31 H 1.0361 0.6675 0.0811
H32 H 0.9178 0.6085 0.1341
C26 C 1.16329(17) 1.0721(2) 0.41736(14)
H33 H 1.1885 1.1264 0.4767
H34 H 1.2303 1.0119 0.3985
H35 H 1.0918 1.0171 0.4336
C27 C 1.24318(18) 1.2588(3) 0.30003(17)
H36 H 1.2217 1.3201 0.2437
H37 H 1.3103 1.1991 0.2806
H38 H 1.2686 1.3127 0.3594
C28 C 0.83991(16) 1.1751(2) 0.45330(12)
H39 H 0.7523 1.1559 0.4468
H40 H 0.8538 1.2490 0.5022
H41 H 0.8831 1.0930 0.4768
C29 C 0.81432(18) 1.3454(2) 0.30736(15)
H42 H 0.8424 1.3712 0.2402
H43 H 0.8264 1.4220 0.3543
H44 H 0.7274 1.3219 0.3027
loop_
_geom_bond_atom_site_label_1
_geom_bond_atom_site_label_2
_geom_bond_site_symmetry_1
_geom_bond_site_symmetry_2
O1 C4 1_555 1_555
O2 C17 1_555 1_555
O3 C19 1_555 1_555
C1 H1 1_555 1_555
C2 C1 1_555 1_555
H2 C2 1_555 1_555
H3 C2 1_555 1_555
C3 C2 1_555 1_555
H4 C3 1_555 1_555
H5 C3 1_555 1_555
C4 C3 1_555 1_555
C5 C4 1_555 1_555
H6 C5 1_555 1_555
C6 C5 1_555 1_555
H7 C6 1_555 1_555
H8 C6 1_555 1_555
C7 C6 1_555 1_555
H9 C7 1_555 1_555
H10 C7 1_555 1_555
C8 C7 1_555 1_555
C9 C1 1_555 1_555
H11 C9 1_555 1_555
C10 C9 1_555 1_555
H12 C10 1_555 1_555
H13 C10 1_555 1_555
C11 C1 1_555 1_555
C12 C4 1_555 1_555
H14 C12 1_555 1_555
H15 C12 1_555 1_555
H16 C12 1_555 1_555
C13 C8 1_555 1_555
H17 C13 1_555 1_555
H18 C13 1_555 1_555
C14 C11 1_555 1_555
H19 C14 1_555 1_555
H20 C14 1_555 1_555
H21 C14 1_555 1_555
C15 C11 1_555 1_555
H22 C15 1_555 1_555
H23 C15 1_555 1_555
H24 C15 1_555 1_555
C16 C17 1_555 1_555
C17 C18 1_555 1_555
C18 C19 1_555 1_555
C19 C20 1_555 1_555
C20 C21 1_555 1_555
C21 O1 1_555 1_555
C22 C5 1_555 1_555
H25 C22 1_555 1_555
C23 C22 1_555 1_555
H26 C23 1_555 1_555
C24 C23 1_555 1_555
H27 C24 1_555 1_555
H28 C24 1_555 1_555
H29 C24 1_555 1_555
C25 C23 1_555 1_555
H30 C25 1_555 1_555
H31 C25 1_555 1_555
H32 C25 1_555 1_555
C26 C18 1_555 1_555
H33 C26 1_555 1_555
H34 C26 1_555 1_555
H35 C26 1_555 1_555
C27 C18 1_555 1_555
H36 C27 1_555 1_555
H37 C27 1_555 1_555
H38 C27 1_555 1_555
C28 C20 1_555 1_555
H39 C28 1_555 1_555
H40 C28 1_555 1_555
H41 C28 1_555 1_555
C29 C20 1_555 1_555
H42 C29 1_555 1_555
H43 C29 1_555 1_555
H44 C29 1_555 1_555
C8 C9 1_555 1_555
C10 C11 1_555 1_555
C16 C21 1_555 1_555
C16 C22 1_555 1_555

#END
