
#######################################################################
#
#                 Cambridge Crystallographic Data Centre
#                                CCDC 
#
#######################################################################
#
# If this CIF has been generated from an entry in the Cambridge 
# Structural Database, then it will include bibliographic, chemical, 
# crystal, experimental, refinement or atomic coordinate data resulting 
# from the CCDC's data processing and validation procedures.
#
#######################################################################

data_ASIGUG01
_chemical_name_common            'myrtucommulone K'
_chemical_formula_moiety         'C29 H44 O3'
_chemical_name_systematic        
2,2,4a,6,6,8,8-heptamethyl-13-methylidene-10-(propan-2-yl)-2,2a,3,4,4a,6,10,10a,11,12,13,13a-dodecahydrobenzo[b]cyclobuta[5,6]cyclonona[1,2-e]pyran-7,9(1H,8H)-dione
_symmetry_cell_setting           orthorhombic
_symmetry_space_group_name_H-M   'P 21 21 21'
_symmetry_Int_Tables_number      19
_space_group_name_Hall           'P 2ac 2ab'
loop_
_symmetry_equiv_pos_site_id
_symmetry_equiv_pos_as_xyz
1 x,y,z
2 1/2-x,-y,1/2+z
3 1/2+x,1/2-y,-z
4 -x,1/2+y,1/2-z
_cell_length_a                   8.4428(12)
_cell_length_b                   16.3662(14)
_cell_length_c                   19.2535(12)
_cell_angle_alpha                90
_cell_angle_beta                 90
_cell_angle_gamma                90
_cell_volume                     2660.38
_exptl_crystal_colour            colorless
_exptl_crystal_description       block
_cell_formula_units_Z            4
loop_
_atom_site_label
_atom_site_type_symbol
_atom_site_fract_x
_atom_site_fract_y
_atom_site_fract_z
O1 O -0.7630(5) 0.00663(18) -0.07668(13)
C1 C -0.5040(7) 0.0396(3) -0.0396(2)
C2 C -0.6593(7) 0.0316(3) -0.0281(2)
C3 C -0.4303(7) 0.0184(3) -0.10859(19)
H1 H -0.3353 -0.0131 -0.0970
C4 C -0.5401(7) -0.0427(3) -0.14710(19)
H2 H -0.5393 -0.0929 -0.1193
C5 C -0.3681(7) 0.0934(3) -0.1515(2)
H3 H -0.4221 0.0918 -0.1966
C6 C -0.7132(7) -0.0137(3) -0.14856(19)
C7 C -0.3998(8) 0.0638(3) 0.0170(3)
O2 O -0.2555(6) 0.0617(3) 0.01037(19)
C8 C -0.7481(8) 0.0477(3) 0.0385(2)
C9 C -0.4695(8) 0.0966(3) 0.0848(2)
C10 C -0.6349(9) 0.0664(3) 0.0978(2)
C11 C -0.5036(9) -0.2216(3) -0.2042(2)
C12 C -0.8363(7) -0.0774(3) -0.1701(2)
H4 H -0.9361 -0.0490 -0.1762
H5 H -0.8054 -0.0978 -0.2154
C13 C -0.4020(9) 0.1773(3) -0.1197(2)
H6 H -0.3397 0.1841 -0.0784
H7 H -0.5124 0.1812 -0.1082
H8 H -0.3751 0.2193 -0.1525
C14 C -0.7404(8) -0.2153(3) -0.1133(2)
H9 H -0.6603 -0.1927 -0.0818
C15 C -0.1915(8) 0.0861(4) -0.1661(3)
H10 H -0.1720 0.0383 -0.1936
H11 H -0.1350 0.0819 -0.1230
H12 H -0.1562 0.1337 -0.1909
C16 C -0.5157(8) -0.1477(3) -0.25098(19)
H13 H -0.6240 -0.1435 -0.2674
H14 H -0.4488 -0.1567 -0.2912
C17 C -0.8689(8) -0.1516(3) -0.1244(2)
H15 H -0.8998 -0.1314 -0.0790
H16 H -0.9602 -0.1795 -0.1437
C18 C -0.7410(8) 0.0642(3) -0.1911(2)
H17 H -0.6787 0.1079 -0.1722
H18 H -0.8511 0.0786 -0.1893
H19 H -0.7105 0.0548 -0.2385
C19 C -0.4693(8) -0.0660(3) -0.2181(2)
H20 H -0.4972 -0.0231 -0.2507
H21 H -0.3549 -0.0653 -0.2135
C20 C -0.6546(8) -0.2566(3) -0.1761(2)
H22 H -0.7303 -0.2625 -0.2143
C21 C -0.7873(9) -0.3030(3) -0.0872(3)
O3 O -0.6820(7) 0.0573(3) 0.15671(16)
C22 C -0.8605(8) 0.1206(3) 0.0292(3)
H23 H -0.9431 0.1062 -0.0028
H24 H -0.8024 0.1664 0.0113
H25 H -0.9063 0.1348 0.0732
C23 C -0.3636(10) -0.2533(4) -0.1920(3)
H26 H -0.3546 -0.3000 -0.1647
H27 H -0.2734 -0.2292 -0.2107
C24 C -0.8473(9) -0.0279(4) 0.0585(3)
H28 H -0.7811 -0.0756 0.0582
H29 H -0.9319 -0.0348 0.0257
H30 H -0.8909 -0.0204 0.1041
C25 C -0.6535(9) -0.3360(3) -0.1335(3)
H31 H -0.5551 -0.3452 -0.1088
H32 H -0.6833 -0.3839 -0.1601
C26 C -0.4749(11) 0.1911(3) 0.0777(3)
H33 H -0.5454 0.2058 0.0406
H34 H -0.3706 0.2113 0.0676
H35 H -0.5120 0.2146 0.1203
C27 C -0.9492(9) -0.3309(4) -0.1118(4)
H36 H -0.9557 -0.3254 -0.1613
H37 H -1.0295 -0.2980 -0.0904
H38 H -0.9648 -0.3871 -0.0992
C28 C -0.7731(11) -0.3172(4) -0.0095(3)
H39 H -0.8468 -0.2827 0.0145
H40 H -0.6673 -0.3047 0.0053
H41 H -0.7962 -0.3734 0.0008
C29 C -0.3615(9) 0.0742(4) 0.1458(2)
H42 H -0.2558 0.0929 0.1365
H43 H -0.3607 0.0160 0.1518
H44 H -0.4002 0.0997 0.1874
loop_
_geom_bond_atom_site_label_1
_geom_bond_atom_site_label_2
_geom_bond_site_symmetry_1
_geom_bond_site_symmetry_2
O1 C2 1_555 1_555
C1 C2 1_555 1_555
C2 C8 1_555 1_555
C3 C1 1_555 1_555
H1 C3 1_555 1_555
C4 C3 1_555 1_555
H2 C4 1_555 1_555
C5 C3 1_555 1_555
H3 C5 1_555 1_555
C6 O1 1_555 1_555
C7 C1 1_555 1_555
O2 C7 1_555 1_555
C8 C10 1_555 1_555
C9 C7 1_555 1_555
C10 C9 1_555 1_555
C11 C16 1_555 1_555
C12 C6 1_555 1_555
H4 C12 1_555 1_555
H5 C12 1_555 1_555
C13 C5 1_555 1_555
H6 C13 1_555 1_555
H7 C13 1_555 1_555
H8 C13 1_555 1_555
C14 H9 1_555 1_555
C15 C5 1_555 1_555
H10 C15 1_555 1_555
H11 C15 1_555 1_555
H12 C15 1_555 1_555
C16 H13 1_555 1_555
H14 C16 1_555 1_555
C17 C12 1_555 1_555
H15 C17 1_555 1_555
H16 C17 1_555 1_555
C18 C6 1_555 1_555
H17 C18 1_555 1_555
H18 C18 1_555 1_555
H19 C18 1_555 1_555
C19 C4 1_555 1_555
H20 C19 1_555 1_555
H21 C19 1_555 1_555
C20 C11 1_555 1_555
H22 C20 1_555 1_555
C21 C14 1_555 1_555
O3 C10 1_555 1_555
C22 C8 1_555 1_555
H23 C22 1_555 1_555
H24 C22 1_555 1_555
H25 C22 1_555 1_555
C23 C11 1_555 1_555
H26 C23 1_555 1_555
H27 C23 1_555 1_555
C24 C8 1_555 1_555
H28 C24 1_555 1_555
H29 C24 1_555 1_555
H30 C24 1_555 1_555
C25 C20 1_555 1_555
H31 C25 1_555 1_555
H32 C25 1_555 1_555
C26 C9 1_555 1_555
H33 C26 1_555 1_555
H34 C26 1_555 1_555
H35 C26 1_555 1_555
C27 C21 1_555 1_555
H36 C27 1_555 1_555
H37 C27 1_555 1_555
H38 C27 1_555 1_555
C28 C21 1_555 1_555
H39 C28 1_555 1_555
H40 C28 1_555 1_555
H41 C28 1_555 1_555
C29 C9 1_555 1_555
H42 C29 1_555 1_555
H43 C29 1_555 1_555
H44 C29 1_555 1_555
C4 C6 1_555 1_555
C14 C17 1_555 1_555
C14 C20 1_555 1_555
C16 C19 1_555 1_555
C21 C25 1_555 1_555

#END
