
#######################################################################
#
#                 Cambridge Crystallographic Data Centre
#                                CCDC 
#
#######################################################################
#
# If this CIF has been generated from an entry in the Cambridge 
# Structural Database, then it will include bibliographic, chemical, 
# crystal, experimental, refinement or atomic coordinate data resulting 
# from the CCDC's data processing and validation procedures.
#
#######################################################################

data_ASIGUG
_chemical_compound_source        'leaves of Myrtus communis L. (Myrtaceae)'
_chemical_formula_moiety         'C29 H44 O3'
_chemical_name_systematic        
(2aR,4aR,10R,10aS,13aS)-10-isopropyl-2,2,4a,6,6,8,8-heptamethyl-13-methylene-2,2a,3,4,4a,6,10,10a,11,12,13,13a-dodecahydrocyclobuta[6,7]cyclonona[1,2-b]chromene-7,9(1H,8H)-dione
_symmetry_cell_setting           orthorhombic
_symmetry_space_group_name_H-M   'P 21 21 21'
_symmetry_Int_Tables_number      19
_space_group_name_Hall           'P 2ac 2ab'
loop_
_symmetry_equiv_pos_site_id
_symmetry_equiv_pos_as_xyz
1 x,y,z
2 1/2-x,-y,1/2+z
3 1/2+x,1/2-y,-z
4 -x,1/2+y,1/2-z
_cell_length_a                   8.35689(13)
_cell_length_b                   16.2511(2)
_cell_length_c                   19.1684(3)
_cell_angle_alpha                90
_cell_angle_beta                 90
_cell_angle_gamma                90
_cell_volume                     2603.23
_exptl_crystal_colour            colorless
_exptl_crystal_description       blocks
_chemical_melting_point          '181-182 deg.C'
_cell_formula_units_Z            4
loop_
_atom_site_label
_atom_site_type_symbol
_atom_site_fract_x
_atom_site_fract_y
_atom_site_fract_z
O1 O 0.23017(11) -0.00669(5) 0.57816(4)
O2 O 0.74531(12) -0.06127(7) 0.49050(5)
O3 O 0.31575(15) -0.05414(8) 0.34267(5)
C1 C 0.25272(17) 0.21656(8) 0.61306(7)
H1 H 0.3334 0.1936 0.5815
C2 C 0.12366(17) 0.15266(8) 0.62447(7)
H2 H 0.0934 0.1315 0.5790
H3 H 0.0309 0.1809 0.6432
C3 C 0.15704(16) 0.07849(8) 0.67161(7)
H4 H 0.1895 0.0997 0.7168
H5 H 0.0563 0.0500 0.6785
C4 C 0.28086(15) 0.01401(7) 0.64984(6)
C5 C 0.45647(15) 0.04335(7) 0.64833(6)
H6 H 0.4570 0.0938 0.6203
C6 C 0.52801(17) 0.06726(8) 0.71951(7)
H7 H 0.5011 0.0241 0.7524
H8 H 0.6436 0.0674 0.7147
C7 C 0.47861(18) 0.14981(8) 0.75229(7)
H9 H 0.3684 0.1455 0.7678
H10 H 0.5443 0.1593 0.7932
C8 C 0.49292(17) 0.22380(8) 0.70467(7)
C9 C 0.34052(17) 0.25869(8) 0.67572(7)
H11 H 0.2640 0.2652 0.7141
C10 C 0.34187(19) 0.33848(9) 0.63249(9)
H12 H 0.4411 0.3475 0.6074
H13 H 0.3122 0.3870 0.6590
C11 C 0.20549(18) 0.30469(9) 0.58638(8)
C12 C 0.25335(17) -0.06377(8) 0.69305(7)
H14 H 0.1435 -0.0804 0.6890
H15 H 0.2777 -0.0527 0.7411
H16 H 0.3215 -0.1070 0.6762
C13 C 0.6355(2) 0.25644(10) 0.69190(9)
H17 H 0.6440 0.3030 0.6639
H18 H 0.7270 0.2328 0.7109
C14 C 0.0420(2) 0.33363(9) 0.61119(10)
H19 H 0.0341 0.3264 0.6608
H20 H -0.0399 0.3019 0.5886
H21 H 0.0285 0.3908 0.5999
C15 C 0.2207(3) 0.31806(11) 0.50820(9)
H22 H 0.1428 0.2850 0.4843
H23 H 0.3261 0.3026 0.4933
H24 H 0.2028 0.3751 0.4976
C16 C 0.49380(16) -0.03931(7) 0.54037(6)
C17 C 0.59972(16) -0.06346(8) 0.48370(7)
C18 C 0.52918(18) -0.09653(8) 0.41543(7)
C19 C 0.36156(18) -0.06451(8) 0.40207(7)
C20 C 0.24673(17) -0.04723(8) 0.46200(6)
C21 C 0.33501(16) -0.03138(7) 0.52952(6)
C22 C 0.56794(15) -0.01776(7) 0.60986(6)
H25 H 0.6644 0.0138 0.5986
C23 C 0.62874(16) -0.09407(8) 0.65333(6)
H26 H 0.5727 -0.0931 0.6982
C24 C 0.59703(19) -0.17759(8) 0.62026(7)
H27 H 0.6584 -0.1826 0.5781
H28 H 0.4852 -0.1826 0.6096
H29 H 0.6275 -0.2203 0.6522
C25 C 0.80747(17) -0.08609(10) 0.66864(8)
H30 H 0.8428 -0.1331 0.6948
H31 H 0.8263 -0.0370 0.6953
H32 H 0.8656 -0.0831 0.6255
C26 C 0.6385(2) -0.07584(11) 0.35372(8)
H33 H 0.6010 -0.1038 0.3127
H34 H 0.7457 -0.0932 0.3640
H35 H 0.6372 -0.0175 0.3457
C27 C 0.5196(2) -0.19137(9) 0.42304(9)
H36 H 0.4584 -0.2050 0.4638
H37 H 0.6256 -0.2135 0.4275
H38 H 0.4689 -0.2143 0.3825
C28 C 0.13679(19) -0.12298(9) 0.47089(8)
H39 H 0.1996 -0.1695 0.4852
H40 H 0.0852 -0.1350 0.4273
H41 H 0.0573 -0.1115 0.5057
C29 C 0.1416(2) 0.02710(9) 0.44299(8)
H42 H 0.0603 0.0342 0.4779
H43 H 0.0922 0.0178 0.3985
H44 H 0.2067 0.0757 0.4408
loop_
_geom_bond_atom_site_label_1
_geom_bond_atom_site_label_2
_geom_bond_site_symmetry_1
_geom_bond_site_symmetry_2
O1 C4 1_555 1_555
O2 C17 1_555 1_555
O3 C19 1_555 1_555
C1 H1 1_555 1_555
C2 C1 1_555 1_555
H2 C2 1_555 1_555
H3 C2 1_555 1_555
C3 C2 1_555 1_555
H4 C3 1_555 1_555
H5 C3 1_555 1_555
C4 C3 1_555 1_555
C5 C4 1_555 1_555
H6 C5 1_555 1_555
C6 C5 1_555 1_555
H7 C6 1_555 1_555
H8 C6 1_555 1_555
C7 C6 1_555 1_555
H9 C7 1_555 1_555
H10 C7 1_555 1_555
C8 C7 1_555 1_555
C9 C1 1_555 1_555
H11 C9 1_555 1_555
C10 C9 1_555 1_555
H12 C10 1_555 1_555
H13 C10 1_555 1_555
C11 C1 1_555 1_555
C12 C4 1_555 1_555
H14 C12 1_555 1_555
H15 C12 1_555 1_555
H16 C12 1_555 1_555
C13 C8 1_555 1_555
H17 C13 1_555 1_555
H18 C13 1_555 1_555
C14 C11 1_555 1_555
H19 C14 1_555 1_555
H20 C14 1_555 1_555
H21 C14 1_555 1_555
C15 C11 1_555 1_555
H22 C15 1_555 1_555
H23 C15 1_555 1_555
H24 C15 1_555 1_555
C16 C17 1_555 1_555
C17 C18 1_555 1_555
C18 C19 1_555 1_555
C19 C20 1_555 1_555
C20 C21 1_555 1_555
C21 O1 1_555 1_555
C22 C5 1_555 1_555
H25 C22 1_555 1_555
C23 C22 1_555 1_555
H26 C23 1_555 1_555
C24 C23 1_555 1_555
H27 C24 1_555 1_555
H28 C24 1_555 1_555
H29 C24 1_555 1_555
C25 C23 1_555 1_555
H30 C25 1_555 1_555
H31 C25 1_555 1_555
H32 C25 1_555 1_555
C26 C18 1_555 1_555
H33 C26 1_555 1_555
H34 C26 1_555 1_555
H35 C26 1_555 1_555
C27 C18 1_555 1_555
H36 C27 1_555 1_555
H37 C27 1_555 1_555
H38 C27 1_555 1_555
C28 C20 1_555 1_555
H39 C28 1_555 1_555
H40 C28 1_555 1_555
H41 C28 1_555 1_555
C29 C20 1_555 1_555
H42 C29 1_555 1_555
H43 C29 1_555 1_555
H44 C29 1_555 1_555
C8 C9 1_555 1_555
C10 C11 1_555 1_555
C16 C21 1_555 1_555
C16 C22 1_555 1_555

#END
