
#######################################################################
#
#                 Cambridge Crystallographic Data Centre
#                                CCDC 
#
#######################################################################
#
# If this CIF has been generated from an entry in the Cambridge 
# Structural Database, then it will include bibliographic, chemical, 
# crystal, experimental, refinement or atomic coordinate data resulting 
# from the CCDC's data processing and validation procedures.
#
#######################################################################

data_ASIKIW
_chemical_formula_moiety         'C21 H12 F4 O1'
_chemical_name_systematic        
1-(4-Benzoxytetrafluorophenyl)-2-phenylacetylene
_symmetry_cell_setting           monoclinic
_symmetry_space_group_name_H-M   'P c'
_symmetry_Int_Tables_number      7
_space_group_name_Hall           'P -2yc'
loop_
_symmetry_equiv_pos_site_id
_symmetry_equiv_pos_as_xyz
1 x,y,z
2 x,-y,1/2+z
_cell_length_a                   7.905(1)
_cell_length_b                   5.8404(5)
_cell_length_c                   17.931(2)
_cell_angle_alpha                90
_cell_angle_beta                 95.381(4)
_cell_angle_gamma                90
_cell_volume                     824.197
_exptl_crystal_colour            colorless
_exptl_crystal_description       block
_chemical_melting_point          '399.5-401.0 K'
_cell_formula_units_Z            2
loop_
_atom_site_label
_atom_site_type_symbol
_atom_site_fract_x
_atom_site_fract_y
_atom_site_fract_z
F1 F 0.6735(4) 1.1211(5) 0.1593(2)
F2 F 0.9398(4) 1.1022(5) 0.0768(2)
F3 F 1.1082(4) 0.3979(5) 0.19091(19)
F4 F 0.8453(4) 0.4190(5) 0.2752(2)
O1 O 0.6221(6) 0.7973(8) 0.2668(3)
C1 C 0.7521(7) 0.7712(9) 0.2200(3)
C2 C 0.7807(7) 0.9424(8) 0.1680(3)
C3 C 0.9163(7) 0.9324(8) 0.1261(3)
C4 C 1.0328(7) 0.7495(8) 0.1317(3)
C5 C 0.9990(7) 0.5782(8) 0.1829(3)
C6 C 0.8656(7) 0.5879(9) 0.2255(3)
C8 C 1.1786(6) 0.7377(8) 0.0882(3)
C9 C 1.3006(9) 0.7437(13) 0.0620(3)
C11 C 1.4560(5) 0.7463(10) 0.0249(2)
C12 C 1.4997(6) 0.9156(8) -0.0246(3)
H1 H 1.4340 1.0473 -0.0315
C13 C 1.6421(6) 0.8861(9) -0.0641(3)
H2 H 1.6717 0.9988 -0.0971
C14 C 1.7399(5) 0.6910(10) -0.0527(3)
H3 H 1.8342 0.6699 -0.0793
C15 C 1.6981(6) 0.5236(9) -0.0026(3)
H4 H 1.7648 0.3931 0.0052
C16 C 1.5563(6) 0.5536(9) 0.0362(3)
H5 H 1.5284 0.4417 0.0698
C18 C 0.4868(8) 0.6286(15) 0.2631(4)
H8 H 0.5302 0.4857 0.2848
H9 H 0.4421 0.6005 0.2116
C19 C 0.3495(5) 0.7217(9) 0.3088(2)
C20 C 0.2988(6) 0.5786(8) 0.3640(3)
H10 H 0.3548 0.4402 0.3736
C21 C 0.1663(6) 0.6391(9) 0.4040(3)
H11 H 0.1342 0.5433 0.4417
C22 C 0.0808(6) 0.8431(10) 0.3896(3)
H12 H -0.0101 0.8814 0.4166
C23 C 0.1305(6) 0.9880(8) 0.3349(3)
H13 H 0.0740 1.1264 0.3258
C24 C 0.2636(6) 0.9289(9) 0.2945(3)
H14 H 0.2971 1.0254 0.2573
O2? O 1.1786(6) 0.7377(8) 0.0882(3)
C7? C 0.6221(6) 0.7973(8) 0.2668(3)
C10? C 0.517(3) 0.767(3) 0.2714(10)
C17? C 1.319(2) 0.880(4) 0.0713(9)
H6? H 1.3773 0.9376 0.1188
H7? H 1.2742 1.0134 0.0417
loop_
_geom_bond_atom_site_label_1
_geom_bond_atom_site_label_2
_geom_bond_site_symmetry_1
_geom_bond_site_symmetry_2
F1 C2 1_555 1_555
F2 C3 1_555 1_555
F3 C5 1_555 1_555
F4 C6 1_555 1_555
O1 C1 1_555 1_555
C1 C2 1_555 1_555
C2 C3 1_555 1_555
C3 C4 1_555 1_555
C4 C5 1_555 1_555
C5 C6 1_555 1_555
C6 C1 1_555 1_555
C8 C4 1_555 1_555
C9 C8 1_555 1_555
C11 C9 1_555 1_555
C12 C11 1_555 1_555
H1 C12 1_555 1_555
C13 C12 1_555 1_555
H2 C13 1_555 1_555
C14 C13 1_555 1_555
H3 C14 1_555 1_555
C15 C14 1_555 1_555
H4 C15 1_555 1_555
C16 C11 1_555 1_555
H5 C16 1_555 1_555
C18 O1 1_555 1_555
H8 C18 1_555 1_555
H9 C18 1_555 1_555
C19 C18 1_555 1_555
C20 C19 1_555 1_555
H10 C20 1_555 1_555
C21 C20 1_555 1_555
H11 C21 1_555 1_555
C22 C21 1_555 1_555
H12 C22 1_555 1_555
C23 C22 1_555 1_555
H13 C23 1_555 1_555
C24 C19 1_555 1_555
H14 C24 1_555 1_555
C15 C16 1_555 1_555
C23 C24 1_555 1_555

#END
