
#######################################################################
#
#                 Cambridge Crystallographic Data Centre
#                                CCDC 
#
#######################################################################
#
# If this CIF has been generated from an entry in the Cambridge 
# Structural Database, then it will include bibliographic, chemical, 
# crystal, experimental, refinement or atomic coordinate data resulting 
# from the CCDC's data processing and validation procedures.
#
#######################################################################

data_ASIKES
_chemical_formula_moiety         'C19 H16 F4 O1'
_chemical_name_systematic        
1-(4-n-Pentoxytetrafluorophenyl)-2-phenylacetylene
_symmetry_cell_setting           triclinic
_symmetry_space_group_name_H-M   'P -1'
_symmetry_Int_Tables_number      2
_space_group_name_Hall           '-P 1'
loop_
_symmetry_equiv_pos_site_id
_symmetry_equiv_pos_as_xyz
1 x,y,z
2 -x,-y,-z
_cell_length_a                   8.514(1)
_cell_length_b                   10.454(2)
_cell_length_c                   10.600(2)
_cell_angle_alpha                63.225(2)
_cell_angle_beta                 76.621(3)
_cell_angle_gamma                85.017(3)
_cell_volume                     819.278
_exptl_crystal_colour            colorless
_chemical_melting_point          '300.0-300.5 K'
_cell_formula_units_Z            2
loop_
_atom_site_label
_atom_site_type_symbol
_atom_site_fract_x
_atom_site_fract_y
_atom_site_fract_z
O1 O 0.51465(17) 0.81398(14) 0.40293(15)
F1 F 0.45636(13) 0.62315(12) 0.67385(12)
F2 F 0.62099(15) 0.37910(12) 0.77183(12)
F3 F 0.92822(14) 0.51008(13) 0.29639(13)
F4 F 0.76814(15) 0.75225(13) 0.19751(12)
C1 C 0.6070(2) 0.69674(19) 0.4345(2)
C2 C 0.5758(2) 0.59659(19) 0.5800(2)
C3 C 0.6600(2) 0.47147(19) 0.6300(2)
C4 C 0.7820(2) 0.43635(19) 0.5376(2)
C5 C 0.8122(2) 0.5360(2) 0.3924(2)
C6 C 0.7287(2) 0.6628(2) 0.3407(2)
C7 C 0.8680(2) 0.3051(2) 0.5911(2)
C8 C 0.9367(2) 0.1943(2) 0.6414(2)
C9 C 1.0170(2) 0.0591(2) 0.6987(2)
C10 C 0.9882(2) -0.0302(2) 0.8480(2)
H1 H 0.910(3) -0.003(2) 0.912(2)
C11 C 1.0640(2) -0.1613(2) 0.9007(2)
H2 H 1.047(3) -0.222(2) 1.000(3)
C12 C 1.1680(2) -0.2052(2) 0.8057(2)
H3 H 1.218(3) -0.299(2) 0.845(2)
C13 C 1.1977(2) -0.1170(2) 0.6577(2)
H4 H 1.271(3) -0.148(3) 0.591(3)
C14 C 1.1244(2) 0.0150(2) 0.6036(2)
H5 H 1.141(3) 0.074(2) 0.502(3)
C15 C 0.5300(2) 0.9312(2) 0.2572(2)
H6 H 0.641(3) 0.968(2) 0.221(2)
H7 H 0.496(3) 0.897(2) 0.197(2)
C16 C 0.4142(2) 1.0427(2) 0.2775(2)
H8 H 0.304(3) 0.993(2) 0.325(2)
H9 H 0.443(2) 1.068(2) 0.347(2)
C17 C 0.4035(3) 1.1767(2) 0.1374(2)
H10 H 0.512(3) 1.228(3) 0.091(3)
H11 H 0.369(3) 1.151(2) 0.067(3)
C18 C 0.2807(3) 1.2803(2) 0.1704(2)
H12 H 0.172(3) 1.223(3) 0.222(3)
H13 H 0.314(3) 1.301(2) 0.243(2)
C19 C 0.2614(3) 1.4176(2) 0.0367(3)
H14 H 0.367(4) 1.474(3) -0.011(3)
H15 H 0.220(3) 1.396(3) -0.034(3)
H16 H 0.185(4) 1.479(3) 0.063(3)
loop_
_geom_bond_atom_site_label_1
_geom_bond_atom_site_label_2
_geom_bond_site_symmetry_1
_geom_bond_site_symmetry_2
O1 C1 1_555 1_555
F1 C2 1_555 1_555
F2 C3 1_555 1_555
F3 C5 1_555 1_555
F4 C6 1_555 1_555
C1 C2 1_555 1_555
C2 C3 1_555 1_555
C3 C4 1_555 1_555
C4 C5 1_555 1_555
C5 C6 1_555 1_555
C6 C1 1_555 1_555
C7 C4 1_555 1_555
C8 C7 1_555 1_555
C9 C8 1_555 1_555
C10 C9 1_555 1_555
H1 C10 1_555 1_555
C11 C10 1_555 1_555
H2 C11 1_555 1_555
C12 C11 1_555 1_555
H3 C12 1_555 1_555
C13 C12 1_555 1_555
H4 C13 1_555 1_555
C14 C9 1_555 1_555
H5 C14 1_555 1_555
C15 O1 1_555 1_555
H6 C15 1_555 1_555
H7 C15 1_555 1_555
C16 C15 1_555 1_555
H8 C16 1_555 1_555
H9 C16 1_555 1_555
C17 C16 1_555 1_555
H10 C17 1_555 1_555
H11 C17 1_555 1_555
C18 C17 1_555 1_555
H12 C18 1_555 1_555
H13 C18 1_555 1_555
C19 C18 1_555 1_555
H14 C19 1_555 1_555
H15 C19 1_555 1_555
H16 C19 1_555 1_555
C13 C14 1_555 1_555

#END
