
#######################################################################
#
#                 Cambridge Crystallographic Data Centre
#                                CCDC 
#
#######################################################################
#
# If this CIF has been generated from an entry in the Cambridge 
# Structural Database, then it will include bibliographic, chemical, 
# crystal, experimental, refinement or atomic coordinate data resulting 
# from the CCDC's data processing and validation procedures.
#
#######################################################################

data_ASIMAS
_chemical_formula_moiety         'C35 H23 N3 O3,2(C1 H4 O1)'
_chemical_name_systematic        
'5-(12,17-bis(6-oxo-1,6-dihydropyridin-3-yl)pentacyclo[6.6.6.0^2,7^.0^9,14^.0^15,20^]icosa-2,4,6,9,11,13,15,17,19-nonaen-4-yl)pyridin-2(1H)-one methanol solvate'
_symmetry_cell_setting           orthorhombic
_symmetry_space_group_name_H-M   'P c a 21'
_symmetry_Int_Tables_number      29
_space_group_name_Hall           'P 2c -2ac'
loop_
_symmetry_equiv_pos_site_id
_symmetry_equiv_pos_as_xyz
1 x,y,z
2 -x,-y,1/2+z
3 1/2+x,-y,z
4 1/2-x,y,1/2+z
_cell_length_a                   26.628(2)
_cell_length_b                   12.1545(9)
_cell_length_c                   9.0915(7)
_cell_angle_alpha                90
_cell_angle_beta                 90
_cell_angle_gamma                90
_cell_volume                     2942.46
_exptl_crystal_colour            colorless
_exptl_crystal_description       needle
_cell_formula_units_Z            4
loop_
_atom_site_label
_atom_site_type_symbol
_atom_site_fract_x
_atom_site_fract_y
_atom_site_fract_z
C1 C 0.63651(18) 0.3082(4) 0.5605(6)
H1 H 0.6244 0.2532 0.4869
C2 C 0.6685(2) 0.4512(4) 0.7516(6)
H2 H 0.6808 0.5065 0.8247
C3 C 0.63014(18) 0.4266(4) 0.5095(5)
C4 C 0.64727(19) 0.5038(4) 0.6123(6)
C5 C 0.6428(2) 0.6158(4) 0.5816(6)
H3 H 0.6553 0.6689 0.6489
C6 C 0.6199(2) 0.6489(5) 0.4520(6)
H4 H 0.6164 0.7252 0.4321
C7 C 0.60186(19) 0.5728(4) 0.3503(6)
C8 C 0.60771(18) 0.4599(4) 0.3807(6)
H5 H 0.5961 0.4066 0.3122
C9 C 0.60932(19) 0.3004(4) 0.7086(6)
C10 C 0.62732(19) 0.3775(4) 0.8120(6)
C11 C 0.6070(2) 0.3782(5) 0.9518(6)
H6 H 0.6188 0.4291 1.0232
C12 C 0.5695(2) 0.3046(5) 0.9871(6)
H7 H 0.5562 0.3050 1.0841
C13 C 0.5503(2) 0.2295(4) 0.8856(6)
C14 C 0.57129(19) 0.2293(4) 0.7434(5)
H8 H 0.5590 0.1795 0.6713
C15 C 0.69235(19) 0.2962(4) 0.5963(5)
C16 C 0.70980(19) 0.3732(4) 0.6980(5)
C17 C 0.75980(19) 0.3719(4) 0.7413(6)
H9 H 0.7720 0.4249 0.8093
C18 C 0.7917(2) 0.2930(4) 0.6845(6)
H10 H 0.8259 0.2919 0.7149
C19 C 0.7748(2) 0.2143(4) 0.5828(6)
C20 C 0.72440(18) 0.2178(4) 0.5398(5)
H11 H 0.7121 0.1656 0.4708
C21 C 0.57317(19) 0.6060(4) 0.2171(6)
C22 C 0.5867(2) 0.6925(5) 0.1330(6)
H12 H 0.6156 0.7338 0.1591
N1 N 0.56000(19) 0.7222(4) 0.0117(5)
H13 H 0.5702 0.7801 -0.0380
O1 O 0.49623(17) 0.6992(3) -0.1519(5)
C23 C 0.5183(2) 0.6679(5) -0.0380(6)
C24 C 0.5040(2) 0.5768(5) 0.0506(6)
H14 H 0.4752 0.5353 0.0239
C25 C 0.53029(19) 0.5472(4) 0.1723(6)
H15 H 0.5195 0.4856 0.2283
C26 C 0.5081(2) 0.1552(4) 0.9223(6)
C27 C 0.4958(3) 0.0606(5) 0.8389(7)
H16 H 0.5165 0.0423 0.7573
C28 C 0.4564(3) -0.0045(5) 0.8691(7)
H17 H 0.4510 -0.0685 0.8113
O2 O 0.38298(17) -0.0296(4) 1.0164(5)
C29 C 0.4226(2) 0.0202(5) 0.9860(7)
N2 N 0.43761(17) 0.1065(4) 1.0683(5)
H18 H 0.4197 0.1215 1.1471
C30 C 0.4776(2) 0.1722(5) 1.0412(6)
H19 H 0.4845 0.2315 1.1061
C31 C 0.80891(19) 0.1307(4) 0.5244(6)
C32 C 0.8107(2) 0.1082(5) 0.3796(7)
H20 H 0.7902 0.1496 0.3143
N3 N 0.8409(2) 0.0273(4) 0.3235(6)
H21 H 0.8410 0.0176 0.2276
O3 O 0.89501(18) -0.1146(4) 0.3452(5)
C33 C 0.8702(2) -0.0378(5) 0.4048(7)
C34 C 0.8719(3) -0.0105(6) 0.5556(8)
H22 H 0.8939 -0.0505 0.6183
C35 C 0.8433(2) 0.0707(5) 0.6142(7)
H23 H 0.8461 0.0878 0.7159
C36 C 0.7226(6) 0.6558(18) 0.131(4)
O4 O 0.7170(6) 0.7680(12) 0.1505(18)
C37 C 0.7475(8) 0.8345(15) -0.092(3)
O5 O 0.7901(4) 0.9035(8) -0.0530(18)
loop_
_geom_bond_atom_site_label_1
_geom_bond_atom_site_label_2
_geom_bond_site_symmetry_1
_geom_bond_site_symmetry_2
C1 H1 1_555 1_555
C2 H2 1_555 1_555
C3 C1 1_555 1_555
C4 C2 1_555 1_555
C5 C4 1_555 1_555
H3 C5 1_555 1_555
C6 C5 1_555 1_555
H4 C6 1_555 1_555
C7 C6 1_555 1_555
C8 C3 1_555 1_555
H5 C8 1_555 1_555
C9 C1 1_555 1_555
C10 C2 1_555 1_555
C11 C10 1_555 1_555
H6 C11 1_555 1_555
C12 C11 1_555 1_555
H7 C12 1_555 1_555
C13 C12 1_555 1_555
C14 C9 1_555 1_555
H8 C14 1_555 1_555
C15 C1 1_555 1_555
C16 C2 1_555 1_555
C17 C16 1_555 1_555
H9 C17 1_555 1_555
C18 C17 1_555 1_555
H10 C18 1_555 1_555
C19 C18 1_555 1_555
C20 C15 1_555 1_555
H11 C20 1_555 1_555
C21 C7 1_555 1_555
C22 C21 1_555 1_555
H12 C22 1_555 1_555
N1 C22 1_555 1_555
H13 N1 1_555 1_555
O1 C23 1_555 1_555
C23 N1 1_555 1_555
C24 C23 1_555 1_555
H14 C24 1_555 1_555
C25 C21 1_555 1_555
H15 C25 1_555 1_555
C26 C13 1_555 1_555
C27 C26 1_555 1_555
H16 C27 1_555 1_555
C28 C27 1_555 1_555
H17 C28 1_555 1_555
O2 C29 1_555 1_555
C29 C28 1_555 1_555
N2 C29 1_555 1_555
H18 N2 1_555 1_555
C30 C26 1_555 1_555
H19 C30 1_555 1_555
C31 C19 1_555 1_555
C32 C31 1_555 1_555
H20 C32 1_555 1_555
N3 C32 1_555 1_555
H21 N3 1_555 1_555
O3 C33 1_555 1_555
C33 N3 1_555 1_555
C34 C33 1_555 1_555
H22 C34 1_555 1_555
C35 C31 1_555 1_555
H23 C35 1_555 1_555
C36 O4 1_555 1_555
C37 O5 1_555 1_555
C3 C4 1_555 1_555
C7 C8 1_555 1_555
C9 C10 1_555 1_555
C13 C14 1_555 1_555
C15 C16 1_555 1_555
C19 C20 1_555 1_555
C24 C25 1_555 1_555
N2 C30 1_555 1_555
C34 C35 1_555 1_555

#END
