
#######################################################################
#
#                 Cambridge Crystallographic Data Centre
#                                CCDC 
#
#######################################################################
#
# If this CIF has been generated from an entry in the Cambridge 
# Structural Database, then it will include bibliographic, chemical, 
# crystal, experimental, refinement or atomic coordinate data resulting 
# from the CCDC's data processing and validation procedures.
#
#######################################################################

data_ASIQID
_chemical_formula_moiety         'C28 H48 O6'
_chemical_name_systematic        
'(2-((2-Isobutyl-1,3-dioxolan-2-yl)methyl)-1-(methoxymethoxy)-5,5-dimethyl-1,2,3,4,4a,5,6,7-octahydronaphthalen-2-yl)methyl pivalate'
_symmetry_cell_setting           monoclinic
_symmetry_space_group_name_H-M   'P 21'
_symmetry_Int_Tables_number      4
_space_group_name_Hall           'P 2yb'
loop_
_symmetry_equiv_pos_site_id
_symmetry_equiv_pos_as_xyz
1 x,y,z
2 -x,1/2+y,-z
_cell_length_a                   11.193(9)
_cell_length_b                   10.374(8)
_cell_length_c                   13.163(10)
_cell_angle_alpha                90
_cell_angle_beta                 106.797(7)
_cell_angle_gamma                90
_cell_volume                     1463.23
_exptl_crystal_colour            colorless
_exptl_crystal_description       block
_chemical_melting_point          '48-52 deg.C'
_cell_formula_units_Z            2
loop_
_atom_site_label
_atom_site_type_symbol
_atom_site_fract_x
_atom_site_fract_y
_atom_site_fract_z
C1 C 0.5523(4) 0.5549(4) 0.3140(3)
C2 C 0.5262(4) 0.4555(4) 0.3911(3)
H1 H 0.4644 0.4911 0.4220
H2 H 0.6022 0.4421 0.4483
C3 C 0.4792(4) 0.3240(5) 0.3416(4)
H3 H 0.4696 0.2661 0.3965
H4 H 0.3981 0.3348 0.2901
C4 C 0.5696(4) 0.2642(4) 0.2869(4)
H5 H 0.6496 0.2535 0.3416
C5 C 0.5330(5) 0.1284(5) 0.2352(4)
C6 C 0.4373(5) 0.1495(6) 0.1255(5)
H6 H 0.4091 0.0663 0.0939
H7 H 0.3654 0.1948 0.1348
C7 C 0.4899(6) 0.2246(7) 0.0518(4)
H8 H 0.4233 0.2475 -0.0111
H9 H 0.5496 0.1718 0.0299
C8 C 0.5535(4) 0.3457(5) 0.1046(4)
H10 H 0.5672 0.4120 0.0618
C9 C 0.5907(4) 0.3625(4) 0.2090(3)
C10 C 0.6435(4) 0.4886(4) 0.2602(3)
H11 H 0.7219 0.4704 0.3151
C11 C 0.4362(4) 0.5987(5) 0.2239(3)
H12 H 0.4629 0.6690 0.1869
H13 H 0.4136 0.5278 0.1740
C12 C 0.3175(4) 0.6425(5) 0.2475(3)
C13 C 0.2011(5) 0.5888(6) 0.3589(5)
H14 H 0.2136 0.5334 0.4204
H15 H 0.1122 0.5975 0.3248
C14 C 0.2582(7) 0.7150(8) 0.3897(6)
H16 H 0.2420 0.7710 0.4393
C15 C 0.2272(5) 0.7064(8) 0.1505(5)
H17 H 0.1529 0.7309 0.1697
H18 H 0.2658 0.7853 0.1360
C16 C 0.1869(8) 0.6314(11) 0.0504(6)
H19 H 0.2627 0.6023 0.0342
C17 C 0.1160(11) 0.7168(17) -0.0410(8)
H20 H 0.0281 0.7011 -0.0561
H21 H 0.1420 0.6977 -0.1028
H22 H 0.1332 0.8057 -0.0220
C18 C 0.1187(13) 0.5244(16) 0.0561(11)
H23 H 0.1620 0.4492 0.0432
H24 H 0.0388 0.5298 0.0036
H25 H 0.1071 0.5189 0.1254
C19 C 0.4821(7) 0.0416(6) 0.3045(6)
H26 H 0.4662 -0.0423 0.2728
H27 H 0.4057 0.0771 0.3116
H28 H 0.5418 0.0347 0.3733
C20 C 0.6516(6) 0.0654(6) 0.2210(6)
H29 H 0.7048 0.0389 0.2889
H30 H 0.6950 0.1263 0.1897
H31 H 0.6289 -0.0085 0.1755
C21 C 0.7884(4) 0.5643(6) 0.1714(5)
H32 H 0.8125 0.4742 0.1781
H33 H 0.7848 0.5920 0.1002
C22 C 0.8677(7) 0.7659(7) 0.2278(8)
H34 H 0.8802 0.7866 0.1605
H35 H 0.9299 0.8086 0.2834
H36 H 0.7863 0.7940 0.2285
C23 C 0.6131(4) 0.6746(5) 0.3734(4)
H37 H 0.6336 0.7349 0.3246
H38 H 0.5562 0.7167 0.4061
C24 C 0.8055(4) 0.7296(5) 0.5008(4)
C25 C 0.9164(4) 0.6789(5) 0.5835(4)
C26 C 0.8789(10) 0.6159(13) 0.6666(8)
H39 H 0.9345 0.6399 0.7342
H40 H 0.8817 0.5241 0.6578
H41 H 0.7954 0.6414 0.6632
C27 C 1.0025(10) 0.7817(9) 0.6349(9)
H42 H 0.9615 0.8385 0.6717
H43 H 1.0279 0.8293 0.5821
H44 H 1.0746 0.7445 0.6845
C28 C 0.9774(10) 0.5689(12) 0.5364(8)
H45 H 1.0312 0.5195 0.5930
H46 H 1.0252 0.6051 0.4934
H47 H 0.9135 0.5140 0.4935
O1 O 0.2624(3) 0.5375(3) 0.2867(3)
O2 O 0.3426(3) 0.7352(3) 0.3298(3)
O3 O 0.6693(3) 0.5770(3) 0.1859(2)
O4 O 0.8774(3) 0.6353(4) 0.2434(4)
O5 O 0.7257(3) 0.6356(3) 0.4542(3)
O6 O 0.7870(5) 0.8390(4) 0.4740(4)
loop_
_geom_bond_atom_site_label_1
_geom_bond_atom_site_label_2
_geom_bond_site_symmetry_1
_geom_bond_site_symmetry_2
C1 C2 1_555 1_555
C2 H1 1_555 1_555
H2 C2 1_555 1_555
C3 C2 1_555 1_555
H3 C3 1_555 1_555
H4 C3 1_555 1_555
C4 C3 1_555 1_555
H5 C4 1_555 1_555
C5 C4 1_555 1_555
C6 C5 1_555 1_555
H6 C6 1_555 1_555
H7 C6 1_555 1_555
C7 C6 1_555 1_555
H8 C7 1_555 1_555
H9 C7 1_555 1_555
C8 C7 1_555 1_555
H10 C8 1_555 1_555
C9 C4 1_555 1_555
C10 C1 1_555 1_555
H11 C10 1_555 1_555
C11 C1 1_555 1_555
H12 C11 1_555 1_555
H13 C11 1_555 1_555
C12 C11 1_555 1_555
C13 H14 1_555 1_555
H15 C13 1_555 1_555
C14 C13 1_555 1_555
H16 C14 1_555 1_555
C15 C12 1_555 1_555
H17 C15 1_555 1_555
H18 C15 1_555 1_555
C16 C15 1_555 1_555
H19 C16 1_555 1_555
C17 C16 1_555 1_555
H20 C17 1_555 1_555
H21 C17 1_555 1_555
H22 C17 1_555 1_555
C18 C16 1_555 1_555
H23 C18 1_555 1_555
H24 C18 1_555 1_555
H25 C18 1_555 1_555
C19 C5 1_555 1_555
H26 C19 1_555 1_555
H27 C19 1_555 1_555
H28 C19 1_555 1_555
C20 C5 1_555 1_555
H29 C20 1_555 1_555
H30 C20 1_555 1_555
H31 C20 1_555 1_555
C21 H32 1_555 1_555
H33 C21 1_555 1_555
C22 H34 1_555 1_555
H35 C22 1_555 1_555
H36 C22 1_555 1_555
C23 C1 1_555 1_555
H37 C23 1_555 1_555
H38 C23 1_555 1_555
C24 C25 1_555 1_555
C25 C26 1_555 1_555
C26 H39 1_555 1_555
H40 C26 1_555 1_555
H41 C26 1_555 1_555
C27 C25 1_555 1_555
H42 C27 1_555 1_555
H43 C27 1_555 1_555
H44 C27 1_555 1_555
C28 C25 1_555 1_555
H45 C28 1_555 1_555
H46 C28 1_555 1_555
H47 C28 1_555 1_555
O1 C12 1_555 1_555
O2 C12 1_555 1_555
O3 C10 1_555 1_555
O4 C21 1_555 1_555
O5 C23 1_555 1_555
O6 C24 1_555 1_555
C8 C9 1_555 1_555
C9 C10 1_555 1_555
C13 O1 1_555 1_555
C14 O2 1_555 1_555
C21 O3 1_555 1_555
C22 O4 1_555 1_555
C24 O5 1_555 1_555

#END
