
#######################################################################
#
#                 Cambridge Crystallographic Data Centre
#                                CCDC 
#
#######################################################################
#
# If this CIF has been generated from an entry in the Cambridge 
# Structural Database, then it will include bibliographic, chemical, 
# crystal, experimental, refinement or atomic coordinate data resulting 
# from the CCDC's data processing and validation procedures.
#
#######################################################################

data_ASIQEZ
_chemical_formula_moiety         'C29 H26 O2'
_chemical_name_systematic        
11-Methoxy-7,7-dimethyl-14-phenyl-8,9-dihydrobenzo[6,7]cycloocta[1,2-a]naphthalen-5(7H)-one
_symmetry_cell_setting           orthorhombic
_symmetry_space_group_name_H-M   'P 21 21 21'
_symmetry_Int_Tables_number      19
_space_group_name_Hall           'P 2ac 2ab'
loop_
_symmetry_equiv_pos_site_id
_symmetry_equiv_pos_as_xyz
1 x,y,z
2 1/2-x,-y,1/2+z
3 -x,1/2+y,1/2-z
4 1/2+x,1/2-y,-z
_cell_length_a                   6.1374(4)
_cell_length_b                   11.8458(7)
_cell_length_c                   30.2363(18)
_cell_angle_alpha                90
_cell_angle_beta                 90
_cell_angle_gamma                90
_cell_volume                     2198.25
_exptl_crystal_colour            yellow
_chemical_melting_point          '80-81 deg.C'
_cell_formula_units_Z            4
_exptl_crystal_recrystallization_method 'diethyl ether/hexanes'
loop_
_atom_site_label
_atom_site_type_symbol
_atom_site_fract_x
_atom_site_fract_y
_atom_site_fract_z
O1 O 0.1010(2) 0.74272(14) 0.17517(6)
O2 O 0.8354(2) 0.01133(10) 0.16897(5)
C1 C 0.2656(2) 0.69589(14) 0.16154(6)
C2 C 0.3966(2) 0.62552(12) 0.19065(5)
H1 H 0.3704 0.6309 0.2209
C3 C 0.5536(2) 0.55284(11) 0.17724(4)
C4 C 0.6803(2) 0.48776(12) 0.21331(4)
C5 C 0.9243(2) 0.46437(14) 0.20252(5)
H2 H 1.0004 0.5359 0.2049
H3 H 0.9801 0.4163 0.2259
C6 C 0.9938(2) 0.41099(13) 0.15850(5)
H4 H 0.9849 0.4672 0.1352
H5 H 1.1442 0.3864 0.1606
C7 C 0.8528(2) 0.31222(12) 0.14671(4)
C8 C 0.9059(2) 0.20405(13) 0.16045(5)
H6 H 1.0378 0.1918 0.1748
C9 C 0.7661(2) 0.11329(13) 0.15325(5)
C10 C 0.5696(2) 0.13045(12) 0.13140(5)
H7 H 0.4737 0.0708 0.1268
C11 C 0.5190(2) 0.23804(12) 0.11652(5)
H8 H 0.3901 0.2490 0.1009
C12 C 0.6547(2) 0.33043(11) 0.12416(4)
C13 C 0.5984(2) 0.44253(11) 0.10519(4)
C14 C 0.5761(2) 0.54104(11) 0.12783(4)
C15 C 0.5254(2) 0.64646(11) 0.10253(5)
C16 C 0.6375(3) 0.67817(14) 0.06430(5)
H9 H 0.7560 0.6356 0.0548
C17 C 0.5744(4) 0.77225(15) 0.04036(6)
H10 H 0.6530 0.7934 0.0154
C18 C 0.3950(4) 0.83522(15) 0.05325(6)
H11 H 0.3476 0.8953 0.0359
C19 C 0.2871(3) 0.80849(15) 0.09183(6)
H12 H 0.1693 0.8519 0.1011
C20 C 0.3552(2) 0.71581(12) 0.11712(5)
C21 C 0.5545(2) 0.38035(13) 0.22658(5)
H13 H 0.4133 0.4009 0.2376
H14 H 0.6337 0.3409 0.2492
H15 H 0.5382 0.3323 0.2012
C22 C 0.6932(3) 0.56094(17) 0.25596(5)
H16 H 0.5507 0.5672 0.2688
H17 H 0.7464 0.6348 0.2486
H18 H 0.7902 0.5259 0.2767
C23 C 0.7102(3) -0.08569(14) 0.15835(7)
H19 H 0.5662 -0.0777 0.1703
H20 H 0.7782 -0.1514 0.1708
H21 H 0.7016 -0.0936 0.1268
C24 C 0.5602(2) 0.43259(12) 0.05604(5)
C25 C 0.3639(3) 0.46331(14) 0.03630(6)
H22 H 0.2536 0.4956 0.0532
C26 C 0.3334(4) 0.44557(18) -0.00863(7)
H23 H 0.2016 0.4655 -0.0216
C27 C 0.4953(5) 0.39889(17) -0.03428(6)
H24 H 0.4737 0.3887 -0.0645
C28 C 0.6889(4) 0.36743(18) -0.01512(6)
H25 H 0.7987 0.3358 -0.0323
C29 C 0.7205(3) 0.38297(14) 0.02992(5)
H26 H 0.8506 0.3599 0.0428
loop_
_geom_bond_atom_site_label_1
_geom_bond_atom_site_label_2
_geom_bond_site_symmetry_1
_geom_bond_site_symmetry_2
O1 C1 1_555 1_555
O2 C9 1_555 1_555
C1 C2 1_555 1_555
C2 H1 1_555 1_555
C3 C2 1_555 1_555
C4 C3 1_555 1_555
C5 C4 1_555 1_555
H2 C5 1_555 1_555
H3 C5 1_555 1_555
C6 C5 1_555 1_555
H4 C6 1_555 1_555
H5 C6 1_555 1_555
C7 C6 1_555 1_555
C8 C7 1_555 1_555
H6 C8 1_555 1_555
C9 C8 1_555 1_555
C10 C9 1_555 1_555
H7 C10 1_555 1_555
C11 C10 1_555 1_555
H8 C11 1_555 1_555
C12 C7 1_555 1_555
C13 C12 1_555 1_555
C14 C3 1_555 1_555
C15 C14 1_555 1_555
C16 C15 1_555 1_555
H9 C16 1_555 1_555
C17 C16 1_555 1_555
H10 C17 1_555 1_555
C18 C17 1_555 1_555
H11 C18 1_555 1_555
C19 C18 1_555 1_555
H12 C19 1_555 1_555
C20 C1 1_555 1_555
C21 C4 1_555 1_555
H13 C21 1_555 1_555
H14 C21 1_555 1_555
H15 C21 1_555 1_555
C22 C4 1_555 1_555
H16 C22 1_555 1_555
H17 C22 1_555 1_555
H18 C22 1_555 1_555
C23 O2 1_555 1_555
H19 C23 1_555 1_555
H20 C23 1_555 1_555
H21 C23 1_555 1_555
C24 C13 1_555 1_555
C25 C24 1_555 1_555
H22 C25 1_555 1_555
C26 C25 1_555 1_555
H23 C26 1_555 1_555
C27 C26 1_555 1_555
H24 C27 1_555 1_555
C28 C27 1_555 1_555
H25 C28 1_555 1_555
C29 C24 1_555 1_555
H26 C29 1_555 1_555
C11 C12 1_555 1_555
C13 C14 1_555 1_555
C15 C20 1_555 1_555
C19 C20 1_555 1_555
C28 C29 1_555 1_555

#END
