
#######################################################################
#
#                 Cambridge Crystallographic Data Centre
#                                CCDC 
#
#######################################################################
#
# If this CIF has been generated from an entry in the Cambridge 
# Structural Database, then it will include bibliographic, chemical, 
# crystal, experimental, refinement or atomic coordinate data resulting 
# from the CCDC's data processing and validation procedures.
#
#######################################################################

data_ASIRUP
_chemical_formula_moiety         'C12 H22 N2,1.5(H2 O1)'
_chemical_name_systematic        
'4,4,7a-Trimethyloctahydo-1H-indenone hydrazone sesquihydrate'
_symmetry_cell_setting           monoclinic
_symmetry_space_group_name_H-M   'C 2'
_symmetry_Int_Tables_number      5
_space_group_name_Hall           'C 2y'
loop_
_symmetry_equiv_pos_site_id
_symmetry_equiv_pos_as_xyz
1 x,y,z
2 -x,y,-z
3 1/2+x,1/2+y,z
4 1/2-x,1/2+y,-z
_cell_length_a                   12.4846(18)
_cell_length_b                   6.1310(8)
_cell_length_c                   16.967(2)
_cell_angle_alpha                90
_cell_angle_beta                 95.713(4)
_cell_angle_gamma                90
_cell_volume                     1292.26
_exptl_crystal_colour            colorless
_cell_formula_units_Z            4
loop_
_atom_site_label
_atom_site_type_symbol
_atom_site_fract_x
_atom_site_fract_y
_atom_site_fract_z
O1 O 0.5000 -0.0220(3) 0.5000
H1 H 0.5367(16) -0.106(4) 0.4756(13)
H1A H 0.4633(16) -0.106(4) 0.5244(13)
O2 O 0.39910(10) 0.6240(2) 0.57592(8)
H2 H 0.380(2) 0.542(5) 0.5369(17)
H3 H 0.465(2) 0.557(5) 0.5972(15)
N1 N 0.38160(10) 0.4691(2) 0.37497(7)
N2 N 0.34757(12) 0.3527(2) 0.43958(8)
H4 H 0.3899(17) 0.248(4) 0.4517(14)
H5 H 0.2741(18) 0.301(4) 0.4264(13)
C1 C 0.30950(11) 0.5725(2) 0.33209(9)
C2 C 0.18981(12) 0.5777(3) 0.33948(9)
H6 H 0.1750 0.6464 0.3894
H7 H 0.1599 0.4298 0.3375
C3 C 0.14176(11) 0.7124(3) 0.26854(10)
H8 H 0.0729 0.6514 0.2459
H9 H 0.1310 0.8646 0.2835
C4 C 0.22734(10) 0.6934(2) 0.21092(8)
H10 H 0.2254 0.5380 0.1949
C5 C 0.21828(11) 0.8188(3) 0.13292(9)
C6 C 0.31595(13) 0.7501(3) 0.09015(9)
H11 H 0.3064 0.5979 0.0731
H12 H 0.3178 0.8397 0.0425
C7 C 0.42354(12) 0.7712(4) 0.14016(11)
H13 H 0.4381 0.9258 0.1513
H14 H 0.4806 0.7157 0.1099
C8 C 0.42655(11) 0.6471(3) 0.21850(10)
H15 H 0.4214 0.4901 0.2079
H16 H 0.4952 0.6750 0.2501
C9 C 0.33420(10) 0.7173(3) 0.26483(8)
C10 C 0.35565(13) 0.9443(3) 0.30087(10)
H17 H 0.4243 0.9442 0.3331
H18 H 0.2989 0.9816 0.3336
H19 H 0.3573 1.0509 0.2588
C11 C 0.21375(13) 1.0670(3) 0.14104(10)
H20 H 0.2082 1.1331 0.0889
H21 H 0.2787 1.1181 0.1716
H22 H 0.1515 1.1072 0.1678
C12 C 0.11533(14) 0.7460(4) 0.08297(10)
H23 H 0.1090 0.8233 0.0328
H24 H 0.0534 0.7783 0.1112
H25 H 0.1186 0.5903 0.0733
loop_
_geom_bond_atom_site_label_1
_geom_bond_atom_site_label_2
_geom_bond_site_symmetry_1
_geom_bond_site_symmetry_2
O1 H1 1_555 1_555
O2 H2 1_555 1_555
H3 O2 1_555 1_555
N1 N2 1_555 1_555
N2 H4 1_555 1_555
H5 N2 1_555 1_555
C1 N1 1_555 1_555
C2 C1 1_555 1_555
H6 C2 1_555 1_555
H7 C2 1_555 1_555
C3 C2 1_555 1_555
H8 C3 1_555 1_555
H9 C3 1_555 1_555
C4 C3 1_555 1_555
H10 C4 1_555 1_555
C5 C4 1_555 1_555
C6 C5 1_555 1_555
H11 C6 1_555 1_555
H12 C6 1_555 1_555
C7 C6 1_555 1_555
H13 C7 1_555 1_555
H14 C7 1_555 1_555
C8 C7 1_555 1_555
H15 C8 1_555 1_555
H16 C8 1_555 1_555
C9 C1 1_555 1_555
C10 C9 1_555 1_555
H17 C10 1_555 1_555
H18 C10 1_555 1_555
H19 C10 1_555 1_555
C11 C5 1_555 1_555
H20 C11 1_555 1_555
H21 C11 1_555 1_555
H22 C11 1_555 1_555
C12 C5 1_555 1_555
H23 C12 1_555 1_555
H24 C12 1_555 1_555
H25 C12 1_555 1_555
H1A O1 1_555 1_555
C4 C9 1_555 1_555
C8 C9 1_555 1_555

#END
