
#######################################################################
#
#                 Cambridge Crystallographic Data Centre
#                                CCDC 
#
#######################################################################
#
# If this CIF has been generated from an entry in the Cambridge 
# Structural Database, then it will include bibliographic, chemical, 
# crystal, experimental, refinement or atomic coordinate data resulting 
# from the CCDC's data processing and validation procedures.
#
#######################################################################

data_ASISAW
_chemical_formula_moiety         'C25 H32 O5 Si1'
_chemical_name_systematic        
2-(t-Butyldiphenylsiloxymethyl)-3-formyl-6-methoxy-2,8-dioxabicyclo(3.3.0)octane
_symmetry_cell_setting           triclinic
_symmetry_space_group_name_H-M   'P -1'
_symmetry_Int_Tables_number      2
_space_group_name_Hall           '-P 1'
loop_
_symmetry_equiv_pos_site_id
_symmetry_equiv_pos_as_xyz
1 x,y,z
2 -x,-y,-z
_cell_length_a                   7.838(3)
_cell_length_b                   9.817(3)
_cell_length_c                   16.515(6)
_cell_angle_alpha                78.421(6)
_cell_angle_beta                 82.548(6)
_cell_angle_gamma                74.420(5)
_cell_volume                     1195.28
_cell_formula_units_Z            2
loop_
_atom_site_label
_atom_site_type_symbol
_atom_site_fract_x
_atom_site_fract_y
_atom_site_fract_z
Si1 Si 0.84564(10) 0.26853(8) 0.31147(5)
O1 O 1.0062(2) 0.2706(2) 0.23805(12)
O2 O 1.2962(2) 0.0688(2) 0.16264(12)
O3 O 1.5666(3) -0.0217(2) 0.09333(13)
O4 O 1.8525(3) 0.0091(2) 0.08735(13)
O5 O 1.2217(5) 0.4889(3) 0.0292(2)
C1 C 0.9491(4) 0.2802(3) 0.40536(18)
C2 C 1.1100(4) 0.1518(4) 0.4202(2)
H1 H 1.1654 0.1565 0.4692
H2 H 1.1963 0.1541 0.3717
H3 H 1.0714 0.0625 0.4294
C3 C 0.8189(5) 0.2780(4) 0.4828(2)
H4 H 0.8775 0.2842 0.5303
H5 H 0.7805 0.1884 0.4937
H6 H 0.7153 0.3599 0.4739
C4 C 1.0127(5) 0.4180(4) 0.3905(2)
H7 H 1.0666 0.4233 0.4398
H8 H 0.9114 0.5012 0.3796
H9 H 1.1009 0.4178 0.3427
C5 C 1.0207(4) 0.2483(3) 0.15453(18)
H10 H 0.9559 0.3364 0.1195
H11 H 0.9665 0.1692 0.1519
C6 C 1.2125(4) 0.2114(3) 0.12258(18)
H12 H 1.2205 0.2137 0.0614
C7 C 1.3261(4) 0.3035(3) 0.14040(18)
H13 H 1.2943 0.3201 0.1989
C8 C 1.3100(5) 0.4450(4) 0.0855(3)
H14 H 1.3771 0.5054 0.0970
C9 C 1.4801(4) 0.0539(3) 0.15855(18)
H15 H 1.5284 0.0031 0.2127
C10 C 1.5162(4) 0.2036(3) 0.13538(18)
H16 H 1.5917 0.2193 0.1753
C11 C 1.6109(4) 0.2051(3) 0.04837(18)
H17 H 1.5257 0.2461 0.0052
H18 H 1.7024 0.2603 0.0398
C12 C 1.6936(4) 0.0477(3) 0.04818(19)
H19 H 1.7167 0.0275 -0.0098
C13 C 1.9409(4) -0.1387(4) 0.0936(2)
H20 H 2.0502 -0.1581 0.1214
H21 H 1.9705 -0.1632 0.0380
H22 H 1.8630 -0.1967 0.1258
C14 C 0.7782(4) 0.0956(3) 0.32795(17)
C15 C 0.8978(4) -0.0275(3) 0.30435(19)
H23 H 1.0099 -0.0198 0.2768
C16 C 0.8577(4) -0.1578(3) 0.3198(2)
H24 H 0.9420 -0.2386 0.3028
C17 C 0.6973(4) -0.1739(3) 0.3594(2)
H25 H 0.6694 -0.2645 0.3694
C18 C 0.5776(4) -0.0559(3) 0.3845(2)
H26 H 0.4671 -0.0656 0.4131
C19 C 0.6168(4) 0.0753(3) 0.36842(19)
H27 H 0.5312 0.1553 0.3854
C20 C 0.6593(4) 0.4309(3) 0.28403(18)
C21 C 0.6832(4) 0.5338(3) 0.2151(2)
H28 H 0.7919 0.5167 0.1814
C22 C 0.5551(5) 0.6597(3) 0.1936(2)
H29 H 0.5753 0.7265 0.1454
C23 C 0.3991(5) 0.6876(4) 0.2424(3)
H30 H 0.3112 0.7745 0.2285
C24 C 0.3699(4) 0.5909(4) 0.3107(2)
H31 H 0.2617 0.6104 0.3446
C25 C 0.4978(4) 0.4638(3) 0.3311(2)
H32 H 0.4744 0.3969 0.3787
loop_
_geom_bond_atom_site_label_1
_geom_bond_atom_site_label_2
_geom_bond_site_symmetry_1
_geom_bond_site_symmetry_2
Si1 O1 1_555 1_555
O1 C5 1_555 1_555
O2 C6 1_555 1_555
O3 C9 1_555 1_555
O4 C12 1_555 1_555
O5 C8 1_555 1_555
C1 Si1 1_555 1_555
C2 C1 1_555 1_555
H1 C2 1_555 1_555
H2 C2 1_555 1_555
H3 C2 1_555 1_555
C3 C1 1_555 1_555
H4 C3 1_555 1_555
H5 C3 1_555 1_555
H6 C3 1_555 1_555
C4 C1 1_555 1_555
H7 C4 1_555 1_555
H8 C4 1_555 1_555
H9 C4 1_555 1_555
C5 H10 1_555 1_555
H11 C5 1_555 1_555
C6 C5 1_555 1_555
H12 C6 1_555 1_555
C7 C6 1_555 1_555
H13 C7 1_555 1_555
C8 C7 1_555 1_555
H14 C8 1_555 1_555
C9 O2 1_555 1_555
H15 C9 1_555 1_555
C10 C7 1_555 1_555
H16 C10 1_555 1_555
C11 C10 1_555 1_555
H17 C11 1_555 1_555
H18 C11 1_555 1_555
C12 O3 1_555 1_555
H19 C12 1_555 1_555
C13 O4 1_555 1_555
H20 C13 1_555 1_555
H21 C13 1_555 1_555
H22 C13 1_555 1_555
C14 Si1 1_555 1_555
C15 C14 1_555 1_555
H23 C15 1_555 1_555
C16 C15 1_555 1_555
H24 C16 1_555 1_555
C17 C16 1_555 1_555
H25 C17 1_555 1_555
C18 C17 1_555 1_555
H26 C18 1_555 1_555
C19 C14 1_555 1_555
H27 C19 1_555 1_555
C20 Si1 1_555 1_555
C21 C20 1_555 1_555
H28 C21 1_555 1_555
C22 C21 1_555 1_555
H29 C22 1_555 1_555
C23 C22 1_555 1_555
H30 C23 1_555 1_555
C24 C23 1_555 1_555
H31 C24 1_555 1_555
C25 C20 1_555 1_555
H32 C25 1_555 1_555
C9 C10 1_555 1_555
C11 C12 1_555 1_555
C18 C19 1_555 1_555
C24 C25 1_555 1_555

#END
