
#######################################################################
#
#                 Cambridge Crystallographic Data Centre
#                                CCDC 
#
#######################################################################
#
# If this CIF has been generated from an entry in the Cambridge 
# Structural Database, then it will include bibliographic, chemical, 
# crystal, experimental, refinement or atomic coordinate data resulting 
# from the CCDC's data processing and validation procedures.
#
#######################################################################

data_ASIVUU
_chemical_formula_moiety         'C42 H42 B1 N1'
_chemical_name_systematic        
4-(8-(4-(Dimesitylboryl)phenyl)-1-naphthyl)-N,N-dimethylaniline
_symmetry_cell_setting           orthorhombic
_symmetry_space_group_name_H-M   'P c a 21'
_symmetry_Int_Tables_number      29
_space_group_name_Hall           'P 2c -2ac'
loop_
_symmetry_equiv_pos_site_id
_symmetry_equiv_pos_as_xyz
1 x,y,z
2 -x,-y,1/2+z
3 1/2+x,-y,z
4 1/2-x,y,1/2+z
_cell_length_a                   23.245(5)
_cell_length_b                   11.539(3)
_cell_length_c                   12.288(2)
_cell_angle_alpha                90
_cell_angle_beta                 90
_cell_angle_gamma                90
_cell_volume                     3295.94
_exptl_crystal_colour            'light yellow'
_exptl_crystal_description       'thin plate'
_cell_formula_units_Z            4
loop_
_atom_site_label
_atom_site_type_symbol
_atom_site_fract_x
_atom_site_fract_y
_atom_site_fract_z
B1 B 0.1705(3) -0.1023(6) 0.4333(6)
N1 N 0.1064(2) 0.3525(5) 0.3439(4)
C1 C 0.3776(3) 0.1834(5) 0.4531(5)
C2 C 0.4181(3) 0.1385(5) 0.5198(4)
H1 H 0.4076 0.0775 0.5677
C3 C 0.4739(3) 0.1774(6) 0.5213(5)
H2 H 0.5006 0.1456 0.5716
C4 C 0.4913(3) 0.2624(5) 0.4498(5)
H3 H 0.5302 0.2878 0.4494
C5 C 0.4503(3) 0.3128(5) 0.3755(4)
C6 C 0.4704(3) 0.3937(6) 0.2996(5)
H4 H 0.5102 0.4114 0.2947
C7 C 0.4319(3) 0.4459(6) 0.2336(5)
H5 H 0.4447 0.4999 0.1805
C8 C 0.3729(3) 0.4210(5) 0.2432(5)
H6 H 0.3467 0.4605 0.1970
C9 C 0.3515(3) 0.3424(5) 0.3160(4)
C10 C 0.3915(3) 0.2799(5) 0.3820(4)
C11 C 0.2888(3) 0.3393(5) 0.3265(5)
C12 C 0.2534(3) 0.3220(5) 0.2360(5)
H7 H 0.2708 0.3053 0.1679
C13 C 0.1946(3) 0.3278(6) 0.2412(5)
H8 H 0.1725 0.3160 0.1771
C14 C 0.1660(3) 0.3514(6) 0.3418(5)
C15 C 0.2015(3) 0.3688(5) 0.4292(5)
H9 H 0.1845 0.3867 0.4974
C16 C 0.2603(3) 0.3617(5) 0.4236(5)
H10 H 0.2822 0.3724 0.4881
C17 C 0.3226(3) 0.1187(5) 0.4470(5)
C18 C 0.3003(3) 0.0796(5) 0.3475(5)
H11 H 0.3191 0.1015 0.2820
C19 C 0.2521(3) 0.0104(5) 0.3417(5)
H12 H 0.2383 -0.0134 0.2725
C20 C 0.2230(3) -0.0256(5) 0.4362(5)
C21 C 0.2461(3) 0.0129(5) 0.5354(5)
H13 H 0.2282 -0.0103 0.6014
C22 C 0.2934(3) 0.0826(5) 0.5396(5)
H14 H 0.3069 0.1076 0.6087
C23 C 0.0723(3) 0.3433(6) 0.2483(5)
H15 H 0.0813 0.2707 0.2108
H16 H 0.0806 0.4089 0.2001
H17 H 0.0314 0.3442 0.2682
C24 C 0.0781(3) 0.3962(5) 0.4393(5)
H18 H 0.0921 0.3545 0.5036
H19 H 0.0364 0.3849 0.4323
H20 H 0.0864 0.4790 0.4472
C25 C 0.1317(3) -0.1128(5) 0.5394(4)
C26 C 0.1274(3) -0.2174(6) 0.5948(5)
C27 C 0.1028(3) -0.2196(6) 0.7006(5)
H21 H 0.1017 -0.2907 0.7394
C28 C 0.0809(3) -0.1232(6) 0.7476(5)
C29 C 0.0837(3) -0.0184(6) 0.6923(5)
H22 H 0.0688 0.0498 0.7252
C30 C 0.1090(3) -0.0121(6) 0.5856(5)
C31 C 0.1084(3) 0.1075(5) 0.5330(4)
H23 H 0.1321 0.1063 0.4671
H24 H 0.1240 0.1646 0.5842
H25 H 0.0688 0.1285 0.5139
C32 C 0.1528(3) -0.3289(5) 0.5550(4)
H26 H 0.1476 -0.3347 0.4760
H27 H 0.1334 -0.3942 0.5906
H28 H 0.1939 -0.3309 0.5723
C33 C 0.0566(3) -0.1260(5) 0.8638(4)
H29 H 0.0534 -0.2065 0.8883
H30 H 0.0185 -0.0897 0.8647
H31 H 0.0824 -0.0834 0.9126
C34 C 0.1572(3) -0.1782(6) 0.3223(5)
C35 C 0.1967(3) -0.2650(6) 0.2888(5)
C36 C 0.1829(3) -0.3336(6) 0.1960(5)
H32 H 0.2080 -0.3939 0.1730
C37 C 0.1324(4) -0.3113(6) 0.1398(5)
C38 C 0.0956(3) -0.2257(7) 0.1700(5)
H33 H 0.0617 -0.2120 0.1289
C39 C 0.1076(3) -0.1575(6) 0.2618(5)
C40 C 0.2533(3) -0.2926(5) 0.3439(5)
H34 H 0.2564 -0.2482 0.4116
H35 H 0.2852 -0.2719 0.2954
H36 H 0.2550 -0.3756 0.3604
C41 C 0.0691(3) -0.0586(6) 0.2897(4)
H37 H 0.0349 -0.0607 0.2430
H38 H 0.0897 0.0145 0.2785
H39 H 0.0573 -0.0648 0.3661
C42 C 0.1189(4) -0.3904(6) 0.0409(5)
H40 H 0.0772 -0.3923 0.0288
H41 H 0.1328 -0.4690 0.0556
H42 H 0.1381 -0.3598 -0.0240
loop_
_geom_bond_atom_site_label_1
_geom_bond_atom_site_label_2
_geom_bond_site_symmetry_1
_geom_bond_site_symmetry_2
B1 C20 1_555 1_555
N1 C14 1_555 1_555
C1 C2 1_555 1_555
C2 H1 1_555 1_555
C3 C2 1_555 1_555
H2 C3 1_555 1_555
C4 C3 1_555 1_555
H3 C4 1_555 1_555
C5 C4 1_555 1_555
C6 C5 1_555 1_555
H4 C6 1_555 1_555
C7 C6 1_555 1_555
H5 C7 1_555 1_555
C8 C7 1_555 1_555
H6 C8 1_555 1_555
C9 C8 1_555 1_555
C10 C1 1_555 1_555
C11 C9 1_555 1_555
C12 C11 1_555 1_555
H7 C12 1_555 1_555
C13 C12 1_555 1_555
H8 C13 1_555 1_555
C14 C13 1_555 1_555
C15 C14 1_555 1_555
H9 C15 1_555 1_555
C16 C11 1_555 1_555
H10 C16 1_555 1_555
C17 C1 1_555 1_555
C18 C17 1_555 1_555
H11 C18 1_555 1_555
C19 C18 1_555 1_555
H12 C19 1_555 1_555
C20 C19 1_555 1_555
C21 C20 1_555 1_555
H13 C21 1_555 1_555
C22 C17 1_555 1_555
H14 C22 1_555 1_555
C23 N1 1_555 1_555
H15 C23 1_555 1_555
H16 C23 1_555 1_555
H17 C23 1_555 1_555
C24 N1 1_555 1_555
H18 C24 1_555 1_555
H19 C24 1_555 1_555
H20 C24 1_555 1_555
C25 B1 1_555 1_555
C26 C25 1_555 1_555
C27 C26 1_555 1_555
H21 C27 1_555 1_555
C28 C27 1_555 1_555
C29 C28 1_555 1_555
H22 C29 1_555 1_555
C30 C25 1_555 1_555
C31 C30 1_555 1_555
H23 C31 1_555 1_555
H24 C31 1_555 1_555
H25 C31 1_555 1_555
C32 C26 1_555 1_555
H26 C32 1_555 1_555
H27 C32 1_555 1_555
H28 C32 1_555 1_555
C33 C28 1_555 1_555
H29 C33 1_555 1_555
H30 C33 1_555 1_555
H31 C33 1_555 1_555
C34 B1 1_555 1_555
C35 C34 1_555 1_555
C36 C35 1_555 1_555
H32 C36 1_555 1_555
C37 C36 1_555 1_555
C38 C37 1_555 1_555
H33 C38 1_555 1_555
C39 C34 1_555 1_555
C40 C35 1_555 1_555
H34 C40 1_555 1_555
H35 C40 1_555 1_555
H36 C40 1_555 1_555
C41 C39 1_555 1_555
H37 C41 1_555 1_555
H38 C41 1_555 1_555
H39 C41 1_555 1_555
C42 C37 1_555 1_555
H40 C42 1_555 1_555
H41 C42 1_555 1_555
H42 C42 1_555 1_555
C5 C10 1_555 1_555
C9 C10 1_555 1_555
C15 C16 1_555 1_555
C21 C22 1_555 1_555
C29 C30 1_555 1_555
C38 C39 1_555 1_555

#END
