
#######################################################################
#
#                 Cambridge Crystallographic Data Centre
#                                CCDC 
#
#######################################################################
#
# If this CIF has been generated from an entry in the Cambridge 
# Structural Database, then it will include bibliographic, chemical, 
# crystal, experimental, refinement or atomic coordinate data resulting 
# from the CCDC's data processing and validation procedures.
#
#######################################################################

data_ASIYAE
_chemical_formula_moiety         'C26 H23 Br2 N1 O4 S3'
_chemical_name_systematic        
N-(2,3-bis((2-bromophenyl)sulfinyl)prop-2-en-1-yl)-N-(but-2-yn-1-yl)-4-methylbenzenesulfonamide
_symmetry_cell_setting           monoclinic
_symmetry_space_group_name_H-M   'P 21/n'
_symmetry_Int_Tables_number      14
_space_group_name_Hall           '-P 2yn'
loop_
_symmetry_equiv_pos_site_id
_symmetry_equiv_pos_as_xyz
1 x,y,z
2 1/2-x,1/2+y,1/2-z
3 -x,-y,-z
4 1/2+x,1/2-y,1/2+z
_cell_length_a                   9.7486(9)
_cell_length_b                   24.083(2)
_cell_length_c                   23.718(2)
_cell_angle_alpha                90
_cell_angle_beta                 94.165(2)
_cell_angle_gamma                90
_cell_volume                     5553.7
_exptl_crystal_colour            colorless
_exptl_crystal_description       prismatic
_cell_formula_units_Z            8
loop_
_atom_site_label
_atom_site_type_symbol
_atom_site_fract_x
_atom_site_fract_y
_atom_site_fract_z
Br1 Br 0.55827(9) 0.26041(3) 0.41074(4)
Br2 Br 0.17618(6) 0.05512(3) 0.41284(3)
S1 S 0.48444(13) 0.12961(5) 0.37961(5)
S2 S 0.25344(13) 0.18359(5) 0.45083(5)
S3 S 0.58872(12) 0.10115(5) 0.62566(5)
N1 N 0.4809(4) 0.09446(15) 0.56948(14)
O1 O 0.4899(4) 0.07090(15) 0.36187(15)
O2 O 0.2573(4) 0.23968(14) 0.47664(16)
O3 O 0.6539(4) 0.15330(15) 0.61974(14)
O4 O 0.6697(3) 0.05149(16) 0.62829(14)
C1 C 0.4929(5) 0.12764(19) 0.45472(18)
H1 H 0.5713 0.1124 0.4733
C2 C 0.3969(5) 0.14609(17) 0.48576(18)
C3 C 0.4024(5) 0.14371(18) 0.54950(18)
H2 H 0.4460 0.1770 0.5653
H3 H 0.3098 0.1418 0.5619
C4 C 0.4006(5) 0.0421(2) 0.5643(2)
H4 H 0.3780 0.0346 0.5245
H5 H 0.4578 0.0119 0.5794
C5 C 0.2743(6) 0.0430(2) 0.5931(2)
C6 C 0.1766(6) 0.0481(2) 0.6204(2)
C7 C 0.0606(6) 0.0546(3) 0.6556(3)
H6 H 0.0920 0.0712 0.6910
H7 H 0.0215 0.0188 0.6623
H8 H -0.0077 0.0780 0.6366
C8 C 0.6551(5) 0.1562(2) 0.37348(19)
C9 C 0.6889(6) 0.2114(2) 0.3840(2)
C10 C 0.8202(8) 0.2296(3) 0.3766(3)
H9 H 0.8443 0.2662 0.3852
C11 C 0.9160(7) 0.1942(4) 0.3566(3)
H10 H 1.0049 0.2066 0.3521
C12 C 0.8796(7) 0.1405(3) 0.3434(3)
H11 H 0.9431 0.1171 0.3282
C13 C 0.7493(6) 0.1206(3) 0.3525(2)
H12 H 0.7262 0.0838 0.3445
C14 C 0.1135(5) 0.1476(2) 0.4805(2)
C15 C 0.0378(6) 0.1772(2) 0.5178(2)
H13 H 0.0653 0.2126 0.5296
C16 C -0.0797(6) 0.1532(3) 0.5373(3)
H14 H -0.1314 0.1724 0.5623
C17 C -0.1188(6) 0.1011(3) 0.5193(3)
H15 H -0.1969 0.0850 0.5327
C18 C -0.0443(6) 0.0722(3) 0.4819(2)
H16 H -0.0726 0.0372 0.4694
C19 C 0.0712(5) 0.0956(2) 0.4635(2)
C20 C 0.4935(4) 0.10268(18) 0.68545(17)
C21 C 0.4567(5) 0.0545(2) 0.71088(18)
H17 H 0.4862 0.0204 0.6979
C22 C 0.3746(5) 0.0572(2) 0.75642(19)
H18 H 0.3510 0.0244 0.7741
C23 C 0.3284(5) 0.1060(2) 0.77561(18)
C24 C 0.3673(5) 0.1549(2) 0.7496(2)
H19 H 0.3383 0.1889 0.7630
C25 C 0.4488(5) 0.1532(2) 0.70413(18)
H20 H 0.4730 0.1859 0.6864
C26 C 0.2394(6) 0.1087(3) 0.8252(2)
H21 H 0.1616 0.0845 0.8183
H22 H 0.2081 0.1461 0.8298
H23 H 0.2921 0.0970 0.8589
Br3 Br 0.55334(9) 0.26844(3) 0.19089(4)
Br4 Br 0.90812(7) 0.05853(3) 0.18690(3)
S4 S 0.60213(15) 0.13392(6) 0.21362(5)
S5 S 0.84653(14) 0.18852(5) 0.14749(5)
S6 S 0.50703(12) 0.11525(5) -0.03043(5)
N2 N 0.6195(4) 0.10790(14) 0.02369(14)
O5 O 0.5818(5) 0.07452(17) 0.22555(18)
O6 O 0.8547(4) 0.24481(14) 0.12224(17)
O7 O 0.4530(3) 0.17014(14) -0.02656(15)
O8 O 0.4169(4) 0.06893(15) -0.02928(16)
C27 C 0.5991(5) 0.13734(19) 0.13816(19)
H24 H 0.5197 0.1253 0.1176
C28 C 0.7002(5) 0.15547(17) 0.10976(18)
C29 C 0.6988(5) 0.15617(18) 0.04574(17)
H25 H 0.6568 0.1902 0.0310
H26 H 0.7921 0.1543 0.0341
C30 C 0.6993(5) 0.05592(17) 0.0267(2)
H27 H 0.7252 0.0477 0.0660
H28 H 0.6408 0.0260 0.0118
C31 C 0.8222(6) 0.0573(2) -0.0040(2)
C32 C 0.9212(6) 0.0622(2) -0.0299(2)
C33 C 1.0410(6) 0.0688(3) -0.0635(2)
H29 H 1.0105 0.0776 -0.1018
H30 H 1.0926 0.0348 -0.0627
H31 H 1.0983 0.0982 -0.0478
C34 C 0.4363(5) 0.1653(2) 0.2207(2)
C35 C 0.3331(7) 0.1322(3) 0.2393(2)
H32 H 0.3491 0.0946 0.2457
C36 C 0.2069(7) 0.1545(3) 0.2486(3)
H33 H 0.1380 0.1320 0.2611
C37 C 0.1826(7) 0.2095(4) 0.2394(3)
H34 H 0.0968 0.2242 0.2456
C38 C 0.2860(8) 0.2445(3) 0.2205(3)
H35 H 0.2696 0.2821 0.2138
C39 C 0.4115(6) 0.2211(2) 0.2125(2)
C40 C 0.9817(5) 0.1490(2) 0.1183(2)
C41 C 1.0635(6) 0.1763(3) 0.0819(2)
H36 H 1.0435 0.2127 0.0712
C42 C 1.1744(7) 0.1495(4) 0.0614(3)
H37 H 1.2302 0.1678 0.0372
C43 C 1.2019(6) 0.0954(3) 0.0770(3)
H38 H 1.2751 0.0769 0.0623
C44 C 1.1236(6) 0.0682(3) 0.1140(3)
H39 H 1.1448 0.0320 0.1251
C45 C 1.0132(5) 0.0952(2) 0.1344(2)
C46 C 0.5954(5) 0.1096(2) -0.09185(19)
C47 C 0.5944(6) 0.0602(2) -0.1210(2)
H40 H 0.5415 0.0305 -0.1099
C48 C 0.6730(7) 0.0552(3) -0.1669(2)
H41 H 0.6717 0.0220 -0.1869
C49 C 0.7527(6) 0.0981(3) -0.1836(2)
C50 C 0.7514(6) 0.1469(3) -0.1547(2)
H42 H 0.8045 0.1765 -0.1659
C51 C 0.6726(6) 0.1533(2) -0.1090(2)
H43 H 0.6717 0.1870 -0.0900
C52 C 0.8409(7) 0.0905(4) -0.2330(3)
H44 H 0.8450 0.1248 -0.2535
H45 H 0.8016 0.0622 -0.2577
H46 H 0.9320 0.0797 -0.2193
loop_
_geom_bond_atom_site_label_1
_geom_bond_atom_site_label_2
_geom_bond_site_symmetry_1
_geom_bond_site_symmetry_2
Br1 C9 1_555 1_555
Br2 C19 1_555 1_555
S1 O1 1_555 1_555
S2 O2 1_555 1_555
S3 N1 1_555 1_555
N1 C3 1_555 1_555
O3 S3 1_555 1_555
O4 S3 1_555 1_555
C1 S1 1_555 1_555
H1 C1 1_555 1_555
C2 S2 1_555 1_555
C3 C2 1_555 1_555
H2 C3 1_555 1_555
H3 C3 1_555 1_555
C4 N1 1_555 1_555
H4 C4 1_555 1_555
H5 C4 1_555 1_555
C5 C4 1_555 1_555
C6 C5 1_555 1_555
C7 C6 1_555 1_555
H6 C7 1_555 1_555
H7 C7 1_555 1_555
H8 C7 1_555 1_555
C8 S1 1_555 1_555
C9 C8 1_555 1_555
C10 C9 1_555 1_555
H9 C10 1_555 1_555
C11 C10 1_555 1_555
H10 C11 1_555 1_555
C12 C11 1_555 1_555
H11 C12 1_555 1_555
C13 C8 1_555 1_555
H12 C13 1_555 1_555
C14 S2 1_555 1_555
C15 C14 1_555 1_555
H13 C15 1_555 1_555
C16 C15 1_555 1_555
H14 C16 1_555 1_555
C17 C16 1_555 1_555
H15 C17 1_555 1_555
C18 C17 1_555 1_555
H16 C18 1_555 1_555
C19 C14 1_555 1_555
C20 S3 1_555 1_555
C21 C20 1_555 1_555
H17 C21 1_555 1_555
C22 C21 1_555 1_555
H18 C22 1_555 1_555
C23 C22 1_555 1_555
C24 C23 1_555 1_555
H19 C24 1_555 1_555
C25 C20 1_555 1_555
H20 C25 1_555 1_555
C26 C23 1_555 1_555
H21 C26 1_555 1_555
H22 C26 1_555 1_555
H23 C26 1_555 1_555
Br3 C39 1_555 1_555
Br4 C45 1_555 1_555
S4 O5 1_555 1_555
S5 O6 1_555 1_555
S6 N2 1_555 1_555
N2 C29 1_555 1_555
O7 S6 1_555 1_555
O8 S6 1_555 1_555
C27 S4 1_555 1_555
H24 C27 1_555 1_555
C28 S5 1_555 1_555
C29 C28 1_555 1_555
H25 C29 1_555 1_555
H26 C29 1_555 1_555
C30 N2 1_555 1_555
H27 C30 1_555 1_555
H28 C30 1_555 1_555
C31 C30 1_555 1_555
C32 C31 1_555 1_555
C33 C32 1_555 1_555
H29 C33 1_555 1_555
H30 C33 1_555 1_555
H31 C33 1_555 1_555
C34 S4 1_555 1_555
C35 C34 1_555 1_555
H32 C35 1_555 1_555
C36 C35 1_555 1_555
H33 C36 1_555 1_555
C37 C36 1_555 1_555
H34 C37 1_555 1_555
C38 C37 1_555 1_555
H35 C38 1_555 1_555
C39 C34 1_555 1_555
C40 S5 1_555 1_555
C41 C40 1_555 1_555
H36 C41 1_555 1_555
C42 C41 1_555 1_555
H37 C42 1_555 1_555
C43 C42 1_555 1_555
H38 C43 1_555 1_555
C44 C43 1_555 1_555
H39 C44 1_555 1_555
C45 C40 1_555 1_555
C46 S6 1_555 1_555
C47 C46 1_555 1_555
H40 C47 1_555 1_555
C48 C47 1_555 1_555
H41 C48 1_555 1_555
C49 C48 1_555 1_555
C50 C49 1_555 1_555
H42 C50 1_555 1_555
C51 C46 1_555 1_555
H43 C51 1_555 1_555
C52 C49 1_555 1_555
H44 C52 1_555 1_555
H45 C52 1_555 1_555
H46 C52 1_555 1_555
C1 C2 1_555 1_555
C12 C13 1_555 1_555
C18 C19 1_555 1_555
C24 C25 1_555 1_555
C27 C28 1_555 1_555
C38 C39 1_555 1_555
C44 C45 1_555 1_555
C50 C51 1_555 1_555

#END
