
#######################################################################
#
#                 Cambridge Crystallographic Data Centre
#                                CCDC 
#
#######################################################################
#
# If this CIF has been generated from an entry in the Cambridge 
# Structural Database, then it will include bibliographic, chemical, 
# crystal, experimental, refinement or atomic coordinate data resulting 
# from the CCDC's data processing and validation procedures.
#
#######################################################################

data_ASIYUY
_chemical_formula_moiety         'C16 H12 Br1 F3 O1'
_chemical_name_systematic        
2-(4-bromophenyl)-2-methyl-3-phenyl-3-(trifluoromethyl)oxirane
_symmetry_cell_setting           monoclinic
_symmetry_space_group_name_H-M   'P 21/n'
_symmetry_Int_Tables_number      14
_space_group_name_Hall           '-P 2yn'
loop_
_symmetry_equiv_pos_site_id
_symmetry_equiv_pos_as_xyz
1 x,y,z
2 1/2-x,1/2+y,1/2-z
3 -x,-y,-z
4 1/2+x,1/2-y,1/2+z
_cell_length_a                   15.924(3)
_cell_length_b                   5.6656(11)
_cell_length_c                   18.306(4)
_cell_angle_alpha                90
_cell_angle_beta                 114.74(3)
_cell_angle_gamma                90
_cell_volume                     1499.96
_cell_formula_units_Z            4
loop_
_atom_site_label
_atom_site_type_symbol
_atom_site_fract_x
_atom_site_fract_y
_atom_site_fract_z
Br1 Br 0.53894(4) 1.03917(15) 0.10630(4)
O1 O 0.7810(2) 0.6482(6) 0.49628(19)
C1 C 0.6079(4) 0.9911(10) 0.2183(3)
C2 C 0.7089(4) 0.9223(9) 0.3806(3)
C3 C 0.6596(4) 0.7896(10) 0.2443(3)
H1 H 0.6611 0.6780 0.2076
C4 C 0.7702(4) 0.8895(9) 0.4681(3)
C5 C 0.7092(4) 0.7555(10) 0.3256(3)
H2 H 0.7436 0.6180 0.3439
C6 C 0.7363(3) 0.8105(10) 0.5280(3)
C7 C 0.8560(4) 0.7267(11) 0.6652(3)
H3 H 0.8687 0.5867 0.6452
C8 C 0.6573(4) 1.1242(10) 0.3522(4)
H4 H 0.6575 1.2394 0.3884
C9 C 0.6060(4) 1.1581(11) 0.2718(4)
H5 H 0.5700 1.2932 0.2535
C10 C 0.9062(5) 0.7846(14) 0.7451(3)
H6 H 0.9521 0.6830 0.7786
C11 C 0.7878(4) 0.8733(10) 0.6148(3)
C12 C 0.7685(5) 1.0758(11) 0.6451(4)
H7 H 0.7215 1.1751 0.6120
C13 C 0.8887(5) 0.9907(14) 0.7753(4)
H8 H 0.9236 1.0326 0.8287
C14 C 0.8193(5) 1.1335(14) 0.7258(4)
H9 H 0.8056 1.2715 0.7461
F1 F 0.5948(2) 0.6587(8) 0.4306(2)
F2 F 0.5887(3) 0.9457(10) 0.5000(4)
C15 C 0.8586(4) 1.0319(11) 0.4962(4)
H10 H 0.8949 1.0037 0.5524
H11 H 0.8438 1.1967 0.4876
H12 H 0.8931 0.9855 0.4664
F3 F 0.6237(3) 0.6066(11) 0.5524(3)
C16 C 0.6363(4) 0.7548(13) 0.5019(4)
loop_
_geom_bond_atom_site_label_1
_geom_bond_atom_site_label_2
_geom_bond_site_symmetry_1
_geom_bond_site_symmetry_2
Br1 C1 1_555 1_555
O1 C4 1_555 1_555
C1 C3 1_555 1_555
C2 C4 1_555 1_555
C3 H1 1_555 1_555
C4 C6 1_555 1_555
C5 C2 1_555 1_555
H2 C5 1_555 1_555
C6 O1 1_555 1_555
C7 H3 1_555 1_555
C8 C2 1_555 1_555
H4 C8 1_555 1_555
C9 C1 1_555 1_555
H5 C9 1_555 1_555
C10 C7 1_555 1_555
H6 C10 1_555 1_555
C11 C6 1_555 1_555
C12 C11 1_555 1_555
H7 C12 1_555 1_555
C13 C10 1_555 1_555
H8 C13 1_555 1_555
C14 C12 1_555 1_555
H9 C14 1_555 1_555
F1 C16 1_555 1_555
F2 C16 1_555 1_555
C15 C4 1_555 1_555
H10 C15 1_555 1_555
H11 C15 1_555 1_555
H12 C15 1_555 1_555
F3 C16 1_555 1_555
C16 C6 1_555 1_555
C3 C5 1_555 1_555
C7 C11 1_555 1_555
C8 C9 1_555 1_555
C13 C14 1_555 1_555

#END
