
#######################################################################
#
#                 Cambridge Crystallographic Data Centre
#                                CCDC 
#
#######################################################################
#
# If this CIF has been generated from an entry in the Cambridge 
# Structural Database, then it will include bibliographic, chemical, 
# crystal, experimental, refinement or atomic coordinate data resulting 
# from the CCDC's data processing and validation procedures.
#
#######################################################################

data_ASODUI
_chemical_formula_moiety         'C39 H41 B1'
_chemical_name_systematic        
Dimesityl(2'',4'',6''-trimethyl-1,1':4',1''-terphenyl-4-yl)borane
_symmetry_cell_setting           monoclinic
_symmetry_space_group_name_H-M   'P 21/c'
_symmetry_Int_Tables_number      14
_space_group_name_Hall           '-P 2ybc'
loop_
_symmetry_equiv_pos_site_id
_symmetry_equiv_pos_as_xyz
1 x,y,z
2 -x,1/2+y,1/2-z
3 -x,-y,-z
4 x,1/2-y,1/2+z
_cell_length_a                   18.0451(9)
_cell_length_b                   8.3350(4)
_cell_length_c                   20.4276(10)
_cell_angle_alpha                90
_cell_angle_beta                 93.244(4)
_cell_angle_gamma                90
_cell_volume                     3067.51
_exptl_crystal_colour            colorless
_exptl_crystal_description       block
_cell_formula_units_Z            4
loop_
_atom_site_label
_atom_site_type_symbol
_atom_site_fract_x
_atom_site_fract_y
_atom_site_fract_z
B1 B 0.69192(17) 0.7061(4) 0.50384(16)
C1 C 1.21162(15) 1.5743(4) 0.71604(14)
H1 H 1.2574 1.5465 0.7384
C2 C 1.19582(15) 1.7349(4) 0.70429(14)
C3 C 1.12834(15) 1.7724(4) 0.67264(13)
H2 H 1.1167 1.8816 0.6637
C4 C 1.07729(15) 1.6555(4) 0.65364(13)
C5 C 1.09462(15) 1.4934(3) 0.66481(13)
C6 C 1.16275(15) 1.4529(4) 0.69628(13)
C7 C 1.00306(17) 1.7030(4) 0.62171(17)
H3 H 1.0019 1.8193 0.6147
H4 H 0.9635 1.6726 0.6503
H5 H 0.9955 1.6480 0.5795
C8 C 1.18373(16) 1.2794(4) 0.70816(16)
H6 H 1.2310 1.2741 0.7341
H7 H 1.1888 1.2254 0.6660
H8 H 1.1450 1.2263 0.7320
C9 C 1.25072(18) 1.8634(4) 0.72544(16)
H9 H 1.2579 1.9362 0.6886
H10 H 1.2982 1.8137 0.7394
H11 H 1.2318 1.9240 0.7621
C10 C 1.04169(15) 1.2986(4) 0.58098(15)
H12 H 1.0794 1.3294 0.5529
C11 C 0.98941(15) 1.1869(4) 0.55933(14)
H13 H 0.9918 1.1425 0.5167
C12 C 0.93309(14) 1.1379(3) 0.59896(13)
C13 C 0.93329(15) 1.2026(4) 0.66156(14)
H14 H 0.8968 1.1690 0.6904
C14 C 0.98562(16) 1.3152(4) 0.68277(14)
H15 H 0.9839 1.3579 0.7258
C15 C 1.04035(15) 1.3670(3) 0.64299(14)
C16 C 0.85156(15) 1.0185(3) 0.50799(14)
H16 H 0.8762 1.0829 0.4776
C17 C 0.79404(15) 0.9197(3) 0.48566(14)
H17 H 0.7798 0.9187 0.4402
C18 C 0.75610(14) 0.8208(3) 0.52813(13)
C19 C 0.78063(15) 0.8268(3) 0.59439(13)
H18 H 0.7572 0.7597 0.6247
C20 C 0.83751(14) 0.9264(3) 0.61743(13)
H19 H 0.8518 0.9274 0.6629
C21 C 0.87431(14) 1.0256(3) 0.57469(13)
C22 C 0.61867(19) 1.0262(4) 0.46724(16)
H20 H 0.5694 1.0762 0.4640
H21 H 0.6564 1.1066 0.4582
H22 H 0.6285 0.9832 0.5115
C23 C 0.66493(17) 0.4452(4) 0.40100(15)
H23 H 0.6534 0.3797 0.3619
H24 H 0.6381 0.4033 0.4377
H25 H 0.7184 0.4415 0.4122
C24 C 0.5580(2) 0.8394(5) 0.23816(16)
H26 H 0.5307 0.9411 0.2379
H27 H 0.5246 0.7530 0.2227
H28 H 0.5993 0.8479 0.2091
C25 C 0.64975(14) 0.7382(3) 0.43553(14)
C26 C 0.64158(15) 0.6170(4) 0.38739(14)
C27 C 0.61236(16) 0.6511(4) 0.32471(15)
H29 H 0.6089 0.5675 0.2931
C28 C 0.58804(16) 0.8030(5) 0.30690(16)
C29 C 0.59119(16) 0.9203(4) 0.35458(16)
H30 H 0.5722 1.0240 0.3440
C30 C 0.62134(16) 0.8918(4) 0.41794(15)
C31 C 0.80549(15) 0.4494(4) 0.53859(17)
H31 H 0.8201 0.3467 0.5198
H32 H 0.8395 0.4761 0.5761
H33 H 0.8075 0.5337 0.5053
C32 C 0.54158(15) 0.6578(4) 0.55658(14)
H34 H 0.4971 0.6262 0.5788
H35 H 0.5293 0.6680 0.5094
H36 H 0.5597 0.7610 0.5740
C33 C 0.61650(17) 0.1207(4) 0.64856(16)
H37 H 0.5725 0.0727 0.6260
H38 H 0.6059 0.1453 0.6940
H39 H 0.6581 0.0450 0.6482
C34 C 0.67311(14) 0.5562(3) 0.54652(13)
C35 C 0.60104(14) 0.5319(3) 0.56813(13)
C36 C 0.58451(15) 0.3927(3) 0.60126(13)
H40 H 0.5358 0.3789 0.6158
C37 C 0.63656(15) 0.2726(3) 0.61401(13)
C38 C 0.70764(15) 0.2981(3) 0.59361(14)
H41 H 0.7443 0.2178 0.6022
C39 C 0.72700(14) 0.4365(4) 0.56115(14)
loop_
_geom_bond_atom_site_label_1
_geom_bond_atom_site_label_2
_geom_bond_site_symmetry_1
_geom_bond_site_symmetry_2
B1 C18 1_555 1_555
C1 H1 1_555 1_555
C2 C1 1_555 1_555
C3 C2 1_555 1_555
H2 C3 1_555 1_555
C4 C3 1_555 1_555
C5 C4 1_555 1_555
C6 C1 1_555 1_555
C7 C4 1_555 1_555
H3 C7 1_555 1_555
H4 C7 1_555 1_555
H5 C7 1_555 1_555
C8 C6 1_555 1_555
H6 C8 1_555 1_555
H7 C8 1_555 1_555
H8 C8 1_555 1_555
C9 C2 1_555 1_555
H9 C9 1_555 1_555
H10 C9 1_555 1_555
H11 C9 1_555 1_555
C10 H12 1_555 1_555
C11 C10 1_555 1_555
H13 C11 1_555 1_555
C12 C11 1_555 1_555
C13 C12 1_555 1_555
H14 C13 1_555 1_555
C14 C13 1_555 1_555
H15 C14 1_555 1_555
C15 C5 1_555 1_555
C16 H16 1_555 1_555
C17 C16 1_555 1_555
H17 C17 1_555 1_555
C18 C17 1_555 1_555
C19 C18 1_555 1_555
H18 C19 1_555 1_555
C20 C19 1_555 1_555
H19 C20 1_555 1_555
C21 C12 1_555 1_555
C22 H20 1_555 1_555
H21 C22 1_555 1_555
H22 C22 1_555 1_555
C23 H23 1_555 1_555
H24 C23 1_555 1_555
H25 C23 1_555 1_555
C24 H26 1_555 1_555
H27 C24 1_555 1_555
H28 C24 1_555 1_555
C25 B1 1_555 1_555
C26 C23 1_555 1_555
C27 C26 1_555 1_555
H29 C27 1_555 1_555
C28 C24 1_555 1_555
C29 C28 1_555 1_555
H30 C29 1_555 1_555
C30 C22 1_555 1_555
C31 H31 1_555 1_555
H32 C31 1_555 1_555
H33 C31 1_555 1_555
C32 H34 1_555 1_555
H35 C32 1_555 1_555
H36 C32 1_555 1_555
C33 H37 1_555 1_555
H38 C33 1_555 1_555
H39 C33 1_555 1_555
C34 B1 1_555 1_555
C35 C32 1_555 1_555
C36 C35 1_555 1_555
H40 C36 1_555 1_555
C37 C33 1_555 1_555
C38 C37 1_555 1_555
H41 C38 1_555 1_555
C39 C31 1_555 1_555
C5 C6 1_555 1_555
C10 C15 1_555 1_555
C14 C15 1_555 1_555
C16 C21 1_555 1_555
C20 C21 1_555 1_555
C25 C26 1_555 1_555
C25 C30 1_555 1_555
C27 C28 1_555 1_555
C29 C30 1_555 1_555
C34 C35 1_555 1_555
C34 C39 1_555 1_555
C36 C37 1_555 1_555
C38 C39 1_555 1_555

#END
