
#######################################################################
#
#                 Cambridge Crystallographic Data Centre
#                                CCDC 
#
#######################################################################
#
# If this CIF has been generated from an entry in the Cambridge 
# Structural Database, then it will include bibliographic, chemical, 
# crystal, experimental, refinement or atomic coordinate data resulting 
# from the CCDC's data processing and validation procedures.
#
#######################################################################

data_ASODOC
_chemical_formula_moiety         'C33 H37 B1'
_chemical_name_systematic        
Dimesityl(2',4',6'-trimethylbiphenyl-4-yl)borane
_symmetry_cell_setting           triclinic
_symmetry_space_group_name_H-M   'P -1'
_symmetry_Int_Tables_number      2
_space_group_name_Hall           '-P 1'
loop_
_symmetry_equiv_pos_site_id
_symmetry_equiv_pos_as_xyz
1 x,y,z
2 -x,-y,-z
_cell_length_a                   12.395(2)
_cell_length_b                   14.662(2)
_cell_length_c                   15.449(3)
_cell_angle_alpha                83.122(4)
_cell_angle_beta                 81.769(3)
_cell_angle_gamma                86.749(4)
_cell_volume                     2756.48
_exptl_crystal_colour            colorless
_exptl_crystal_description       block
_cell_formula_units_Z            4
loop_
_atom_site_label
_atom_site_type_symbol
_atom_site_fract_x
_atom_site_fract_y
_atom_site_fract_z
C1 C 0.4416(3) 0.09980(18) 0.8568(3)
C3 C 0.3709(3) 0.13177(18) 0.9265(3)
H1 H 0.3628 0.0955 0.9821
C5 C 0.3119(3) 0.21572(17) 0.9169(3)
C7 C 0.3269(3) 0.26826(16) 0.8340(3)
C10 C 0.3964(3) 0.23683(17) 0.7626(2)
C12 C 0.4530(3) 0.15200(17) 0.7778(3)
H4 H 0.5014 0.1303 0.7306
C13 C 0.2386(4) 0.2478(2) 0.9930(3)
H5 H 0.2446 0.2044 1.0456
H6 H 0.1631 0.2516 0.9804
H7 H 0.2597 0.3087 1.0031
C15 C 0.4106(4) 0.29072(19) 0.6730(3)
H11 H 0.4211 0.3553 0.6788
H12 H 0.3454 0.2862 0.6448
H13 H 0.4745 0.2658 0.6369
C17 C 0.5042(4) 0.0078(2) 0.8688(3)
H17 H 0.5157 -0.0194 0.8131
H18 H 0.4623 -0.0337 0.9141
H19 H 0.5750 0.0172 0.8869
C19 C 0.2649(3) 0.35942(16) 0.8190(2)
C21 C 0.1683(3) 0.36501(16) 0.7865(3)
H23 H 0.1380 0.3102 0.7752
C23 C 0.1119(3) 0.44962(16) 0.7690(3)
H25 H 0.0446 0.4519 0.7460
C25 C 0.1565(3) 0.53133(15) 0.7861(3)
C27 C 0.2533(3) 0.52424(16) 0.8197(2)
H27 H 0.2828 0.5785 0.8329
C29 C 0.3108(3) 0.43982(16) 0.8356(3)
H29 H 0.3792 0.4373 0.8570
C31 C 0.1139(3) 0.70778(15) 0.8197(3)
C34 C 0.1571(3) 0.79189(17) 0.7763(3)
C36 C 0.1812(4) 0.85831(18) 0.8280(3)
H32 H 0.2108 0.9141 0.7992
C38 C 0.1641(4) 0.8465(2) 0.9176(3)
C40 C 0.1198(3) 0.7650(2) 0.9602(3)
H34 H 0.1072 0.7558 1.0227
C42 C 0.0936(3) 0.69642(17) 0.9114(3)
C44 C 0.1821(5) 0.8113(2) 0.6790(3)
H38 H 0.1961 0.8767 0.6631
H39 H 0.1198 0.7956 0.6518
H40 H 0.2468 0.7743 0.6579
C46 C 0.0415(3) 0.61173(17) 0.9639(3)
H44 H 0.0181 0.6241 1.0249
H45 H 0.0947 0.5597 0.9630
H46 H -0.0219 0.5969 0.9377
C47 C 0.1931(5) 0.9197(3) 0.9711(3)
H47 H 0.2366 0.9658 0.9323
H48 H 0.2353 0.8912 1.0169
H49 H 0.1260 0.9492 0.9985
C49 C 0.1926(4) 0.5940(2) 0.5788(3)
H53 H 0.2111 0.5919 0.5152
H54 H 0.2108 0.5341 0.6099
H55 H 0.2342 0.6415 0.5972
C51 C -0.1459(3) 0.66848(19) 0.7933(3)
H59 H -0.2212 0.6911 0.7898
H60 H -0.1075 0.7129 0.8191
H61 H -0.1460 0.6093 0.8303
C53 C -0.1710(5) 0.6551(3) 0.4734(3)
H65 H -0.2488 0.6512 0.4960
H66 H -0.1487 0.6058 0.4362
H67 H -0.1579 0.7148 0.4386
C55 C 0.0253(3) 0.63523(15) 0.6865(2)
C57 C -0.0880(3) 0.65611(15) 0.7011(2)
C59 C -0.1514(3) 0.66111(17) 0.6331(3)
H71 H -0.2274 0.6757 0.6450
C61 C -0.1066(4) 0.6453(2) 0.5483(3)
C63 C 0.0056(4) 0.62158(19) 0.5352(3)
H73 H 0.0380 0.6084 0.4783
C65 C 0.0710(3) 0.61649(16) 0.6007(3)
B1 B 0.0956(4) 0.62715(18) 0.7628(3)
C2 C 0.4777(4) 0.35750(19) 0.1545(4)
C4 C 0.4707(3) 0.38208(19) 0.2394(3)
H2 H 0.5074 0.3446 0.2815
C6 C 0.4107(3) 0.46088(17) 0.2642(3)
C8 C 0.3580(3) 0.51592(16) 0.2009(3)
C9 C 0.3632(3) 0.49199(19) 0.1168(3)
C11 C 0.4258(4) 0.4121(2) 0.0954(3)
H3 H 0.4315 0.3962 0.0370
C14 C 0.4079(5) 0.4853(2) 0.3559(3)
H8 H 0.4309 0.5485 0.3536
H9 H 0.4573 0.4431 0.3870
H10 H 0.3334 0.4803 0.3871
C16 C 0.3057(4) 0.5480(2) 0.0487(3)
H14 H 0.2281 0.5555 0.0713
H15 H 0.3137 0.5167 -0.0046
H16 H 0.3376 0.6086 0.0347
C18 C 0.5445(4) 0.2707(2) 0.1289(4)
H20 H 0.5533 0.2289 0.1821
H21 H 0.6164 0.2881 0.0982
H22 H 0.5062 0.2399 0.0900
C20 C 0.2945(3) 0.60236(17) 0.2259(3)
C22 C 0.3442(3) 0.68715(17) 0.2000(3)
H24 H 0.4144 0.6897 0.1660
C24 C 0.2887(3) 0.76742(17) 0.2251(3)
H26 H 0.3232 0.8243 0.2086
C26 C 0.1855(3) 0.76742(16) 0.2729(3)
C28 C 0.1344(3) 0.68195(16) 0.2942(3)
H28 H 0.0619 0.6795 0.3240
C30 C 0.1914(4) 0.60112(17) 0.2709(3)
H30 H 0.1573 0.5440 0.2869
C32 C 0.0026(3) 0.87021(16) 0.3314(2)
C33 C -0.0659(3) 0.87216(17) 0.2657(2)
C35 C -0.1756(3) 0.89684(17) 0.2816(3)
H31 H -0.2190 0.8997 0.2353
C37 C -0.2241(3) 0.91782(17) 0.3654(3)
C39 C -0.1580(3) 0.91206(16) 0.4311(3)
H33 H -0.1897 0.9249 0.4883
C41 C -0.0466(3) 0.88814(15) 0.4168(2)
C43 C 0.0160(3) 0.87966(18) 0.4937(3)
H35 H 0.0458 0.8165 0.5038
H36 H -0.0328 0.8947 0.5463
H37 H 0.0759 0.9222 0.4814
C45 C -0.0184(4) 0.8568(2) 0.1709(3)
H41 H -0.0775 0.8446 0.1385
H42 H 0.0340 0.8042 0.1718
H43 H 0.0187 0.9119 0.1419
C48 C -0.3414(4) 0.9492(2) 0.3809(3)
H50 H -0.3501 0.9969 0.4210
H51 H -0.3856 0.8970 0.4072
H52 H -0.3653 0.9743 0.3248
C50 C 0.3056(3) 0.81649(18) 0.4324(3)
H56 H 0.2346 0.7944 0.4609
H57 H 0.3528 0.8213 0.4773
H58 H 0.3395 0.7732 0.3919
C52 C 0.1140(4) 1.05386(19) 0.2270(3)
H62 H 0.1170 1.1203 0.2096
H63 H 0.0412 1.0393 0.2578
H64 H 0.1290 1.0214 0.1744
C54 C 0.4275(4) 1.1407(2) 0.3692(3)
H68 H 0.5025 1.1149 0.3626
H69 H 0.4079 1.1588 0.4286
H70 H 0.4220 1.1947 0.3258
C56 C 0.2086(3) 0.93233(17) 0.3277(2)
C58 C 0.1976(3) 1.02416(17) 0.2868(3)
C60 C 0.2706(3) 1.08891(17) 0.3009(3)
H72 H 0.2650 1.1496 0.2722
C62 C 0.3492(3) 1.06805(18) 0.3542(3)
C64 C 0.3601(3) 0.97834(18) 0.3944(3)
H74 H 0.4154 0.9626 0.4309
C66 C 0.2897(3) 0.91116(17) 0.3810(2)
B2 B 0.1283(4) 0.85616(19) 0.3109(3)
loop_
_geom_bond_atom_site_label_1
_geom_bond_atom_site_label_2
_geom_bond_site_symmetry_1
_geom_bond_site_symmetry_2
C1 C3 1_555 1_555
C2 C4 1_555 1_555
C3 H1 1_555 1_555
C4 H2 1_555 1_555
C5 C3 1_555 1_555
C6 C4 1_555 1_555
C7 C5 1_555 1_555
C8 C6 1_555 1_555
C9 C8 1_555 1_555
C10 C7 1_555 1_555
C11 C2 1_555 1_555
H3 C11 1_555 1_555
C12 C1 1_555 1_555
H4 C12 1_555 1_555
C13 C5 1_555 1_555
H5 C13 1_555 1_555
H6 C13 1_555 1_555
H7 C13 1_555 1_555
C14 C6 1_555 1_555
H8 C14 1_555 1_555
H9 C14 1_555 1_555
H10 C14 1_555 1_555
C15 C10 1_555 1_555
H11 C15 1_555 1_555
H12 C15 1_555 1_555
H13 C15 1_555 1_555
C16 C9 1_555 1_555
H14 C16 1_555 1_555
H15 C16 1_555 1_555
H16 C16 1_555 1_555
C17 C1 1_555 1_555
H17 C17 1_555 1_555
H18 C17 1_555 1_555
H19 C17 1_555 1_555
C18 C2 1_555 1_555
H20 C18 1_555 1_555
H21 C18 1_555 1_555
H22 C18 1_555 1_555
C19 C7 1_555 1_555
C20 C8 1_555 1_555
C21 C19 1_555 1_555
H23 C21 1_555 1_555
C22 C20 1_555 1_555
H24 C22 1_555 1_555
C23 C21 1_555 1_555
H25 C23 1_555 1_555
C24 C22 1_555 1_555
H26 C24 1_555 1_555
C25 C23 1_555 1_555
C26 C24 1_555 1_555
C27 C25 1_555 1_555
H27 C27 1_555 1_555
C28 C26 1_555 1_555
H28 C28 1_555 1_555
C29 C19 1_555 1_555
H29 C29 1_555 1_555
C30 C20 1_555 1_555
H30 C30 1_555 1_555
C31 C34 1_555 1_555
C32 C33 1_555 1_555
C33 C35 1_555 1_555
C34 C36 1_555 1_555
C35 H31 1_555 1_555
C36 H32 1_555 1_555
C37 C35 1_555 1_555
C38 C36 1_555 1_555
C39 C37 1_555 1_555
H33 C39 1_555 1_555
C40 C38 1_555 1_555
H34 C40 1_555 1_555
C41 C32 1_555 1_555
C42 C31 1_555 1_555
C43 C41 1_555 1_555
H35 C43 1_555 1_555
H36 C43 1_555 1_555
H37 C43 1_555 1_555
C44 C34 1_555 1_555
H38 C44 1_555 1_555
H39 C44 1_555 1_555
H40 C44 1_555 1_555
C45 C33 1_555 1_555
H41 C45 1_555 1_555
H42 C45 1_555 1_555
H43 C45 1_555 1_555
C46 C42 1_555 1_555
H44 C46 1_555 1_555
H45 C46 1_555 1_555
H46 C46 1_555 1_555
C47 C38 1_555 1_555
H47 C47 1_555 1_555
H48 C47 1_555 1_555
H49 C47 1_555 1_555
C48 C37 1_555 1_555
H50 C48 1_555 1_555
H51 C48 1_555 1_555
H52 C48 1_555 1_555
C49 H53 1_555 1_555
H54 C49 1_555 1_555
H55 C49 1_555 1_555
C50 H56 1_555 1_555
H57 C50 1_555 1_555
H58 C50 1_555 1_555
C51 H59 1_555 1_555
H60 C51 1_555 1_555
H61 C51 1_555 1_555
C52 H62 1_555 1_555
H63 C52 1_555 1_555
H64 C52 1_555 1_555
C53 H65 1_555 1_555
H66 C53 1_555 1_555
H67 C53 1_555 1_555
C54 H68 1_555 1_555
H69 C54 1_555 1_555
H70 C54 1_555 1_555
C55 C57 1_555 1_555
C56 C58 1_555 1_555
C57 C51 1_555 1_555
C58 C52 1_555 1_555
C59 C57 1_555 1_555
H71 C59 1_555 1_555
C60 C58 1_555 1_555
H72 C60 1_555 1_555
C61 C53 1_555 1_555
C62 C54 1_555 1_555
C63 C61 1_555 1_555
H73 C63 1_555 1_555
C64 C62 1_555 1_555
H74 C64 1_555 1_555
C65 C49 1_555 1_555
C66 C50 1_555 1_555
B1 C25 1_555 1_555
B2 C26 1_555 1_555
C9 C11 1_555 1_555
C10 C12 1_555 1_555
C27 C29 1_555 1_555
C28 C30 1_555 1_555
C31 B1 1_555 1_555
C32 B2 1_555 1_555
C39 C41 1_555 1_555
C40 C42 1_555 1_555
C55 C65 1_555 1_555
C55 B1 1_555 1_555
C56 C66 1_555 1_555
C56 B2 1_555 1_555
C59 C61 1_555 1_555
C60 C62 1_555 1_555
C63 C65 1_555 1_555
C64 C66 1_555 1_555

#END
