
#######################################################################
#
#                 Cambridge Crystallographic Data Centre
#                                CCDC 
#
#######################################################################
#
# If this CIF has been generated from an entry in the Cambridge 
# Structural Database, then it will include bibliographic, chemical, 
# crystal, experimental, refinement or atomic coordinate data resulting 
# from the CCDC's data processing and validation procedures.
#
#######################################################################

data_ASOJEZ
_chemical_formula_moiety         'C10 H9 N3 O2'
_chemical_name_systematic        
2-cyano-N'-[(2-hydroxyphenyl)methylidene]acetohydrazide
_symmetry_cell_setting           monoclinic
_symmetry_space_group_name_H-M   'P 21/n'
_symmetry_Int_Tables_number      14
_space_group_name_Hall           '-P 2yn'
loop_
_symmetry_equiv_pos_site_id
_symmetry_equiv_pos_as_xyz
1 x,y,z
2 1/2-x,1/2+y,1/2-z
3 -x,-y,-z
4 1/2+x,1/2-y,1/2+z
_cell_length_a                   4.5944(3)
_cell_length_b                   9.3525(4)
_cell_length_c                   22.972(3)
_cell_angle_alpha                90
_cell_angle_beta                 94.883(2)
_cell_angle_gamma                90
_cell_volume                     983.504
_exptl_crystal_colour            colorless
_exptl_crystal_description       plate
_cell_formula_units_Z            4
loop_
_atom_site_label
_atom_site_type_symbol
_atom_site_fract_x
_atom_site_fract_y
_atom_site_fract_z
N1 N -0.4833(15) 0.1706(8) 0.4030(3)
N2 N -0.0784(3) 0.30874(13) 0.23103(5)
N3 N 0.0966(3) 0.24665(12) 0.19212(5)
O1 O 0.3487(3) 0.03251(11) 0.14426(5)
C1 C -0.2025(3) 0.22658(14) 0.26983(6)
O2 O -0.1771(3) 0.09792(11) 0.27274(5)
C2 C -0.3756(4) 0.31414(17) 0.31010(8)
C3 C 0.2103(3) 0.33053(16) 0.15653(7)
C4 C 0.3990(3) 0.27708(16) 0.11426(6)
C5 C 0.6369(4) 0.0851(2) 0.06695(7)
C6 C 0.4598(3) 0.13160(16) 0.10901(6)
C7 C -0.4301(8) 0.2295(3) 0.36364(16)
C8 C 0.5233(4) 0.3727(2) 0.07693(8)
C9 C 0.7531(4) 0.1816(2) 0.03062(8)
C10 C 0.6989(4) 0.3253(2) 0.03555(8)
H1 H -0.256(5) 0.391(3) 0.3244(10)
H2 H -0.537(6) 0.360(3) 0.2882(11)
H3 H 0.236(4) 0.084(2) 0.1678(9)
H4 H -0.114(4) 0.403(2) 0.2273(8)
H5 H 0.671(4) -0.017(2) 0.0621(8)
H6 H 0.876(4) 0.151(2) 0.0012(9)
H7 H 0.774(4) 0.391(2) 0.0086(9)
H8 H 0.475(4) 0.473(2) 0.0823(8)
H9 H 0.176(3) 0.4345(19) 0.1568(7)
N4? N -0.6377(14) 0.1782(7) 0.3840(3)
C11? C -0.5225(8) 0.2386(3) 0.35037(15)
loop_
_geom_bond_atom_site_label_1
_geom_bond_atom_site_label_2
_geom_bond_site_symmetry_1
_geom_bond_site_symmetry_2
N1 C7 1_555 1_555
N2 N3 1_555 1_555
N3 C3 1_555 1_555
O1 C6 1_555 1_555
C1 N2 1_555 1_555
O2 C1 1_555 1_555
C2 C1 1_555 1_555
C3 C4 1_555 1_555
C4 C6 1_555 1_555
C5 C6 1_555 1_555
C7 C2 1_555 1_555
C8 C4 1_555 1_555
C9 C5 1_555 1_555
C10 C8 1_555 1_555
H1 C2 1_555 1_555
H2 C2 1_555 1_555
H3 O1 1_555 1_555
H4 N2 1_555 1_555
H5 C5 1_555 1_555
H6 C9 1_555 1_555
H7 C10 1_555 1_555
H8 C8 1_555 1_555
H9 C3 1_555 1_555
C9 C10 1_555 1_555

#END
