
#######################################################################
#
#                 Cambridge Crystallographic Data Centre
#                                CCDC 
#
#######################################################################
#
# If this CIF has been generated from an entry in the Cambridge 
# Structural Database, then it will include bibliographic, chemical, 
# crystal, experimental, refinement or atomic coordinate data resulting 
# from the CCDC's data processing and validation procedures.
#
#######################################################################

data_ASOLAX
_chemical_formula_moiety         'C16 H13 N1 O2 S1'
_chemical_name_systematic        2-((4-methylphenyl)sulfonyl)quinoline
_symmetry_cell_setting           monoclinic
_symmetry_space_group_name_H-M   'P 21/c'
_symmetry_Int_Tables_number      14
_space_group_name_Hall           '-P 2ybc'
loop_
_symmetry_equiv_pos_site_id
_symmetry_equiv_pos_as_xyz
1 x,y,z
2 -x,1/2+y,1/2-z
3 -x,-y,-z
4 x,1/2-y,1/2+z
_cell_length_a                   9.6089(5)
_cell_length_b                   9.7376(6)
_cell_length_c                   14.4701(8)
_cell_angle_alpha                90
_cell_angle_beta                 96.693(2)
_cell_angle_gamma                90
_cell_volume                     1344.71
_exptl_crystal_colour            colorless
_exptl_crystal_description       block
_cell_formula_units_Z            4
loop_
_atom_site_label
_atom_site_type_symbol
_atom_site_fract_x
_atom_site_fract_y
_atom_site_fract_z
C1 C 0.62691(15) 0.56618(16) 0.17857(10)
C2 C 0.52634(16) 0.66823(16) 0.17584(11)
H1 H 0.5496 0.7557 0.1983
C3 C 0.39028(16) 0.63771(17) 0.13900(11)
H2 H 0.3228 0.7066 0.1354
C4 C 0.35204(16) 0.50668(17) 0.10734(10)
C5 C 0.45533(18) 0.40619(18) 0.11146(12)
H3 H 0.4317 0.3178 0.0909
C6 C 0.59273(17) 0.43540(18) 0.14559(12)
H4 H 0.6614 0.3680 0.1464
C7 C 0.20296(17) 0.4731(2) 0.07069(12)
H5 H 0.1801 0.5152 0.0109
H6 H 0.1413 0.5073 0.1130
H7 H 0.1924 0.3753 0.0648
C8 C 0.82475(15) 0.50498(15) 0.33218(10)
C9 C 0.92567(15) 0.39978(15) 0.34277(10)
H8 H 0.9767 0.3753 0.2945
C10 C 0.94538(15) 0.33509(15) 0.42724(11)
H9 H 1.0108 0.2647 0.4374
C11 C 0.86610(15) 0.37559(15) 0.49892(10)
C12 C 0.88419(16) 0.31773(16) 0.58949(11)
H10 H 0.9484 0.2471 0.6032
C13 C 0.80779(18) 0.36531(17) 0.65655(11)
H11 H 0.8224 0.3286 0.7162
C14 C 0.70694(18) 0.46951(17) 0.63646(11)
H12 H 0.6545 0.4995 0.6827
C15 C 0.68547(17) 0.52694(17) 0.54975(11)
H13 H 0.6182 0.5952 0.5370
C16 C 0.76569(15) 0.48243(15) 0.47949(10)
N1 N 0.74569(13) 0.54650(13) 0.39473(8)
O1 O 0.81328(12) 0.74433(12) 0.24737(8)
O2 O 0.89480(11) 0.54099(14) 0.16549(8)
S1 S 0.80111(4) 0.60072(4) 0.22515(2)
loop_
_geom_bond_atom_site_label_1
_geom_bond_atom_site_label_2
_geom_bond_site_symmetry_1
_geom_bond_site_symmetry_2
C1 C2 1_555 1_555
C2 H1 1_555 1_555
C3 C2 1_555 1_555
H2 C3 1_555 1_555
C4 C3 1_555 1_555
C5 C4 1_555 1_555
H3 C5 1_555 1_555
C6 C1 1_555 1_555
H4 C6 1_555 1_555
C7 C4 1_555 1_555
H5 C7 1_555 1_555
H6 C7 1_555 1_555
H7 C7 1_555 1_555
C8 C9 1_555 1_555
C9 H8 1_555 1_555
C10 C9 1_555 1_555
H9 C10 1_555 1_555
C11 C10 1_555 1_555
C12 C11 1_555 1_555
H10 C12 1_555 1_555
C13 C12 1_555 1_555
H11 C13 1_555 1_555
C14 C13 1_555 1_555
H12 C14 1_555 1_555
C15 C14 1_555 1_555
H13 C15 1_555 1_555
C16 C11 1_555 1_555
N1 C8 1_555 1_555
O1 S1 1_555 1_555
O2 S1 1_555 1_555
S1 C1 1_555 1_555
C5 C6 1_555 1_555
C8 S1 1_555 1_555
C15 C16 1_555 1_555
C16 N1 1_555 1_555

#END
