
#######################################################################
#
#                 Cambridge Crystallographic Data Centre
#                                CCDC 
#
#######################################################################
#
# If this CIF has been generated from an entry in the Cambridge 
# Structural Database, then it will include bibliographic, chemical, 
# crystal, experimental, refinement or atomic coordinate data resulting 
# from the CCDC's data processing and validation procedures.
#
#######################################################################

data_ASOMAY
_chemical_formula_moiety         'C35 H28 N2,1.5(C1 H4 O1)'
_chemical_name_systematic        
'5,6-dimethyl-2-(4-(triphenylvinyl)phenyl)-1H-benzimidazole methanol solvate'
_symmetry_cell_setting           triclinic
_symmetry_space_group_name_H-M   'P -1'
_symmetry_Int_Tables_number      2
_space_group_name_Hall           '-P 1'
loop_
_symmetry_equiv_pos_site_id
_symmetry_equiv_pos_as_xyz
1 x,y,z
2 -x,-y,-z
_cell_length_a                   7.275(2)
_cell_length_b                   9.280(3)
_cell_length_c                   23.640(7)
_cell_angle_alpha                83.829(6)
_cell_angle_beta                 88.466(6)
_cell_angle_gamma                79.361(6)
_cell_volume                     1559.42
_exptl_crystal_colour            white
_exptl_crystal_description       block
_cell_formula_units_Z            2
loop_
_atom_site_label
_atom_site_type_symbol
_atom_site_fract_x
_atom_site_fract_y
_atom_site_fract_z
N1 N 0.4680(5) 1.0610(4) 0.07615(13)
H1 H 0.3592 1.0503 0.0891
N2 N 0.7775(5) 1.0256(4) 0.06715(14)
C1 C 0.6326(6) 0.9832(4) 0.09562(17)
C2 C 0.6484(6) 0.8711(5) 0.14406(17)
C3 C 0.4938(6) 0.8340(5) 0.17158(17)
H2 H 0.3754 0.8813 0.1593
C4 C 0.5116(6) 0.7258(5) 0.21800(17)
H3 H 0.4046 0.7001 0.2356
C5 C 0.6852(7) 0.6563(5) 0.23813(17)
C6 C 0.8398(6) 0.6934(5) 0.20931(17)
H4 H 0.9586 0.6467 0.2215
C7 C 0.8223(6) 0.7978(5) 0.16302(17)
H5 H 0.9292 0.8195 0.1441
C8 C 0.6996(6) 0.5494(5) 0.29044(18)
C9 C 0.7924(6) 0.5680(5) 0.33618(19)
C10 C 0.8843(7) 0.6984(5) 0.33775(17)
C11 C 1.0726(8) 0.6742(6) 0.34868(19)
H6 H 1.1379 0.5781 0.3556
C12 C 1.1671(9) 0.7913(9) 0.3495(2)
H7 H 1.2947 0.7740 0.3568
C13 C 1.0683(12) 0.9341(8) 0.3392(3)
H8 H 1.1290 1.0140 0.3388
C14 C 0.8797(11) 0.9556(7) 0.3296(3)
H9 H 0.8121 1.0513 0.3238
C15 C 0.7905(8) 0.8418(6) 0.3284(2)
H10 H 0.6629 0.8601 0.3210
C16 C 0.8189(6) 0.4613(5) 0.38861(19)
C17 C 0.7684(8) 0.5122(6) 0.4408(2)
H11 H 0.7132 0.6103 0.4426
C18 C 0.8000(9) 0.4172(8) 0.4902(2)
H12 H 0.7660 0.4521 0.5251
C19 C 0.8799(9) 0.2737(8) 0.4883(3)
H13 H 0.9028 0.2105 0.5217
C20 C 0.9261(8) 0.2235(6) 0.4366(3)
H14 H 0.9773 0.1245 0.4349
C21 C 0.8987(6) 0.3159(6) 0.38745(19)
H15 H 0.9344 0.2798 0.3528
C22 C 0.6004(6) 0.4233(5) 0.2861(2)
C23 C 0.4829(7) 0.3748(6) 0.3288(2)
H16 H 0.4656 0.4205 0.3622
C24 C 0.3918(8) 0.2597(7) 0.3219(3)
H17 H 0.3129 0.2295 0.3506
C25 C 0.4163(9) 0.1901(7) 0.2737(3)
H18 H 0.3567 0.1111 0.2700
C26 C 0.5280(9) 0.2361(7) 0.2309(3)
H19 H 0.5432 0.1898 0.1977
C27 C 0.6195(7) 0.3528(6) 0.2373(2)
H20 H 0.6951 0.3838 0.2078
C28 C 0.6976(6) 1.1366(5) 0.02612(17)
C29 C 0.5049(6) 1.1607(4) 0.03181(16)
C30 C 0.3901(6) 1.2680(5) -0.00260(17)
H21 H 0.2607 1.2818 0.0014
C31 C 0.4731(7) 1.3539(5) -0.04300(17)
C32 C 0.6699(7) 1.3319(5) -0.04945(17)
C33 C 0.7820(6) 1.2225(5) -0.01551(17)
H22 H 0.9112 1.2059 -0.0201
C34 C 0.7592(7) 1.4290(5) -0.09363(18)
H23 H 0.8928 1.4009 -0.0917
H24 H 0.7231 1.5302 -0.0863
H25 H 0.7181 1.4174 -0.1309
C35 C 0.3500(7) 1.4751(5) -0.08025(18)
H26 H 0.2215 1.4784 -0.0692
H27 H 0.3658 1.4555 -0.1193
H28 H 0.3848 1.5681 -0.0759
O1 O 0.1050(4) 0.0650(4) 0.11253(14)
H29 H 0.0192 0.0485 0.0938
C36 C 0.0354(9) 0.1660(8) 0.1507(3)
H30 H -0.0213 0.1171 0.1825
H31 H -0.0564 0.2431 0.1321
H32 H 0.1358 0.2077 0.1638
O2? O 0.5889(15) 0.9162(16) 0.5282(6)
C37? C 0.5173(19) 0.9399(16) 0.4628(5)
H33? H 0.6173 0.9432 0.4349
H34? H 0.4402 0.8702 0.4542
loop_
_geom_bond_atom_site_label_1
_geom_bond_atom_site_label_2
_geom_bond_site_symmetry_1
_geom_bond_site_symmetry_2
N1 H1 1_555 1_555
N2 C1 1_555 1_555
C1 N1 1_555 1_555
C2 C1 1_555 1_555
C3 C2 1_555 1_555
H2 C3 1_555 1_555
C4 C3 1_555 1_555
H3 C4 1_555 1_555
C5 C4 1_555 1_555
C6 C5 1_555 1_555
H4 C6 1_555 1_555
C7 C2 1_555 1_555
H5 C7 1_555 1_555
C8 C5 1_555 1_555
C9 C8 1_555 1_555
C10 C9 1_555 1_555
C11 C10 1_555 1_555
H6 C11 1_555 1_555
C12 C11 1_555 1_555
H7 C12 1_555 1_555
C13 C12 1_555 1_555
H8 C13 1_555 1_555
C14 C13 1_555 1_555
H9 C14 1_555 1_555
C15 C10 1_555 1_555
H10 C15 1_555 1_555
C16 C9 1_555 1_555
C17 C16 1_555 1_555
H11 C17 1_555 1_555
C18 C17 1_555 1_555
H12 C18 1_555 1_555
C19 C18 1_555 1_555
H13 C19 1_555 1_555
C20 C19 1_555 1_555
H14 C20 1_555 1_555
C21 C16 1_555 1_555
H15 C21 1_555 1_555
C22 C8 1_555 1_555
C23 C22 1_555 1_555
H16 C23 1_555 1_555
C24 C23 1_555 1_555
H17 C24 1_555 1_555
C25 C24 1_555 1_555
H18 C25 1_555 1_555
C26 C25 1_555 1_555
H19 C26 1_555 1_555
C27 C22 1_555 1_555
H20 C27 1_555 1_555
C28 N2 1_555 1_555
C29 N1 1_555 1_555
C30 C29 1_555 1_555
H21 C30 1_555 1_555
C31 C30 1_555 1_555
C32 C31 1_555 1_555
C33 C28 1_555 1_555
H22 C33 1_555 1_555
C34 C32 1_555 1_555
H23 C34 1_555 1_555
H24 C34 1_555 1_555
H25 C34 1_555 1_555
C35 C31 1_555 1_555
H26 C35 1_555 1_555
H27 C35 1_555 1_555
H28 C35 1_555 1_555
O1 H29 1_555 1_555
C36 O1 1_555 1_555
H30 C36 1_555 1_555
H31 C36 1_555 1_555
H32 C36 1_555 1_555
C6 C7 1_555 1_555
C14 C15 1_555 1_555
C20 C21 1_555 1_555
C26 C27 1_555 1_555
C28 C29 1_555 1_555
C32 C33 1_555 1_555

#END
