
#######################################################################
#
#                 Cambridge Crystallographic Data Centre
#                                CCDC 
#
#######################################################################
#
# If this CIF has been generated from an entry in the Cambridge 
# Structural Database, then it will include bibliographic, chemical, 
# crystal, experimental, refinement or atomic coordinate data resulting 
# from the CCDC's data processing and validation procedures.
#
#######################################################################

data_ASONEC
_chemical_formula_moiety         'C32 H23 N1'
_chemical_name_systematic        
3-(4-Methylphenyl)-1,4-diphenylbenzo[g]isoquinoline
_symmetry_cell_setting           orthorhombic
_symmetry_space_group_name_H-M   'P n a 21'
_symmetry_Int_Tables_number      33
_space_group_name_Hall           'P 2c -2n'
loop_
_symmetry_equiv_pos_site_id
_symmetry_equiv_pos_as_xyz
1 x,y,z
2 -x,-y,1/2+z
3 1/2+x,1/2-y,z
4 1/2-x,1/2+y,1/2+z
_cell_length_a                   17.827(4)
_cell_length_b                   11.746(2)
_cell_length_c                   11.045(2)
_cell_angle_alpha                90
_cell_angle_beta                 90
_cell_angle_gamma                90
_cell_volume                     2312.78
_exptl_crystal_colour            colorless
_exptl_crystal_description       block
_cell_formula_units_Z            4
loop_
_atom_site_label
_atom_site_type_symbol
_atom_site_fract_x
_atom_site_fract_y
_atom_site_fract_z
N1 N 0.12657(10) 0.95938(15) 0.34659(16)
C1 C 0.12328(11) 1.02345(19) 0.5539(2)
C2 C 0.10894(12) 1.0910(2) 0.7614(2)
C3 C 0.13768(13) 0.8917(2) 0.7212(2)
H1 H 0.1476 0.8188 0.7498
C4 C 0.14328(11) 0.82086(17) 0.5071(2)
C5 C 0.12134(11) 1.04265(17) 0.4254(2)
C6 C 0.12476(13) 0.9794(2) 0.8039(2)
C7 C 0.13693(11) 0.84946(17) 0.3868(2)
C8 C 0.10924(12) 1.11089(19) 0.6375(2)
H2 H 0.0999 1.1841 0.6091
C9 C 0.13600(11) 0.91126(19) 0.5960(2)
C10 C 0.13993(11) 0.76567(17) 0.2849(2)
C11 C 0.11229(12) 1.15922(18) 0.3758(2)
C12 C 0.14226(15) 0.61366(19) 0.0882(2)
C13 C 0.09178(19) 1.3775(2) 0.2865(3)
H3 H 0.0846 1.4509 0.2571
C14 C 0.19463(12) 0.68244(18) 0.2758(2)
H4 H 0.2310 0.6761 0.3358
C15 C 0.08755(15) 0.6968(2) 0.0971(2)
H5 H 0.0507 0.7019 0.0378
C16 C 0.19556(14) 0.6086(2) 0.1780(2)
H6 H 0.2333 0.5541 0.1730
C17 C 0.1431(2) 0.5307(3) -0.0163(3)
H7 H 0.1901 0.4907 -0.0173
H8 H 0.1370 0.5715 -0.0910
H9 H 0.1028 0.4772 -0.0071
C18 C 0.03775(17) 1.2952(2) 0.2682(3)
H10 H -0.0062 1.3132 0.2272
C19 C 0.16618(14) 1.2427(2) 0.3937(3)
H11 H 0.2096 1.2257 0.4368
C20 C 0.15577(17) 1.3507(2) 0.3481(3)
H12 H 0.1926 1.4058 0.3593
C21 C 0.04902(15) 1.1863(2) 0.3107(2)
H13 H 0.0134 1.1304 0.2952
C22 C 0.08697(13) 0.77210(19) 0.1927(2)
H14 H 0.0504 0.8285 0.1957
C23 C 0.09103(17) 1.1551(3) 0.9673(2)
H15 H 0.0795 1.2127 1.0221
C24 C 0.09286(15) 1.1783(2) 0.8478(2)
H16 H 0.0835 1.2521 0.8212
C25 C 0.12344(16) 0.9602(2) 0.9324(2)
H17 H 0.1346 0.8881 0.9622
C26 C 0.10655(17) 1.0438(3) 1.0102(2)
H18 H 0.1050 1.0287 1.0928
C27 C 0.09360(14) 0.6244(2) 0.5334(2)
H19 H 0.0510 0.6462 0.4908
C28 C 0.21447(14) 0.6656(2) 0.6131(2)
H20 H 0.2539 0.7160 0.6256
C29 C 0.15109(13) 0.70180(17) 0.54983(19)
C30 C 0.21946(18) 0.5559(2) 0.6576(3)
H21 H 0.2625 0.5325 0.6983
C31 C 0.1611(2) 0.4816(2) 0.6417(3)
H22 H 0.1639 0.4083 0.6732
C32 C 0.09835(18) 0.5156(2) 0.5791(3)
H23 H 0.0589 0.4649 0.5675
loop_
_geom_bond_atom_site_label_1
_geom_bond_atom_site_label_2
_geom_bond_site_symmetry_1
_geom_bond_site_symmetry_2
N1 C5 1_555 1_555
C1 C5 1_555 1_555
C2 C6 1_555 1_555
C3 H1 1_555 1_555
C4 C7 1_555 1_555
C5 C11 1_555 1_555
C6 C3 1_555 1_555
C7 N1 1_555 1_555
C8 C1 1_555 1_555
H2 C8 1_555 1_555
C9 C1 1_555 1_555
C10 C7 1_555 1_555
C11 C19 1_555 1_555
C12 C15 1_555 1_555
C13 H3 1_555 1_555
C14 C10 1_555 1_555
H4 C14 1_555 1_555
C15 H5 1_555 1_555
C16 C12 1_555 1_555
H6 C16 1_555 1_555
C17 C12 1_555 1_555
H7 C17 1_555 1_555
H8 C17 1_555 1_555
H9 C17 1_555 1_555
C18 C13 1_555 1_555
H10 C18 1_555 1_555
C19 H11 1_555 1_555
C20 C13 1_555 1_555
H12 C20 1_555 1_555
C21 C11 1_555 1_555
H13 C21 1_555 1_555
C22 C10 1_555 1_555
H14 C22 1_555 1_555
C23 H15 1_555 1_555
C24 C2 1_555 1_555
H16 C24 1_555 1_555
C25 C6 1_555 1_555
H17 C25 1_555 1_555
C26 C23 1_555 1_555
H18 C26 1_555 1_555
C27 H19 1_555 1_555
C28 H20 1_555 1_555
C29 C4 1_555 1_555
C30 C28 1_555 1_555
H21 C30 1_555 1_555
C31 C30 1_555 1_555
H22 C31 1_555 1_555
C32 C27 1_555 1_555
H23 C32 1_555 1_555
C2 C8 1_555 1_555
C3 C9 1_555 1_555
C4 C9 1_555 1_555
C14 C16 1_555 1_555
C15 C22 1_555 1_555
C18 C21 1_555 1_555
C19 C20 1_555 1_555
C23 C24 1_555 1_555
C25 C26 1_555 1_555
C27 C29 1_555 1_555
C28 C29 1_555 1_555
C31 C32 1_555 1_555

#END
