
#######################################################################
#
#                 Cambridge Crystallographic Data Centre
#                                CCDC 
#
#######################################################################
#
# If this CIF has been generated from an entry in the Cambridge 
# Structural Database, then it will include bibliographic, chemical, 
# crystal, experimental, refinement or atomic coordinate data resulting 
# from the CCDC's data processing and validation procedures.
#
#######################################################################

data_ASONON
_chemical_formula_moiety         'C14 H12 S6,C1 S2'
_chemical_name_systematic        
"1,3,6,8-tetramethylthieno[3,4-b]thieno[3',4':5,6][1,4]dithiino[2,3-e][1,4]dithiine carbon disulfide"
_symmetry_cell_setting           monoclinic
_symmetry_space_group_name_H-M   'P 21/c'
_symmetry_Int_Tables_number      14
_space_group_name_Hall           '-P 2ybc'
loop_
_symmetry_equiv_pos_site_id
_symmetry_equiv_pos_as_xyz
1 x,y,z
2 -x,1/2+y,1/2-z
3 -x,-y,-z
4 x,1/2-y,1/2+z
_cell_length_a                   8.8305(6)
_cell_length_b                   7.1569(5)
_cell_length_c                   15.0030(9)
_cell_angle_alpha                90
_cell_angle_beta                 91.764(6)
_cell_angle_gamma                90
_cell_volume                     947.725
_exptl_crystal_colour            white
_exptl_crystal_description       block
_chemical_melting_point          '567.7 K'
_cell_formula_units_Z            2
loop_
_atom_site_label
_atom_site_type_symbol
_atom_site_fract_x
_atom_site_fract_y
_atom_site_fract_z
S1 S 0.72301(7) 0.63645(9) 0.51737(4)
S2 S 0.61117(7) 0.34902(10) 0.39183(4)
S3 S 0.24911(8) 0.38763(10) 0.19893(4)
C1 C 0.9874(3) 0.6044(5) 0.6791(2)
H1 H 1.0333 0.7222 0.6945
H2 H 1.0034 0.5776 0.6174
H3 H 1.0323 0.5076 0.7155
C2 C 0.8202(3) 0.6136(4) 0.69473(17)
C3 C 0.7027(3) 0.6254(3) 0.63411(17)
C4 C 0.5683(3) 0.4967(3) 0.48166(15)
C5 C 0.4418(3) 0.3696(3) 0.32711(16)
C6 C 0.4363(3) 0.3779(3) 0.23640(17)
C7 C 0.5645(4) 0.3768(4) 0.17314(18)
H4 H 0.6029 0.2519 0.1678
H5 H 0.6438 0.4575 0.1954
H6 H 0.5289 0.4201 0.1157
S1B S 0.27699(7) 0.36355(9) 0.48263(4)
S2B S 0.38883(7) 0.65098(10) 0.60817(4)
S3B S 0.75089(8) 0.61237(10) 0.80107(4)
C1B C 0.0126(3) 0.3956(5) 0.3209(2)
H1B H -0.0333 0.2778 0.3055
H2B H -0.0034 0.4224 0.3826
H3B H -0.0323 0.4924 0.2845
C2B C 0.1798(3) 0.3864(4) 0.30527(17)
C3B C 0.2973(3) 0.3746(3) 0.36589(17)
C4B C 0.4317(3) 0.5033(3) 0.51834(15)
C5B C 0.5582(3) 0.6304(3) 0.67289(16)
C6B C 0.5637(3) 0.6221(3) 0.76360(17)
C7B C 0.4355(4) 0.6232(4) 0.82686(18)
H4B H 0.3971 0.7481 0.8322
H5B H 0.3562 0.5425 0.8046
H6B H 0.4711 0.5799 0.8843
S4 S 0.10977(13) 0.87485(16) 0.45030(8)
C8 C 0.0000 1.0000 0.5000
S4B S -0.10977(13) 1.12515(16) 0.54970(8)
loop_
_geom_bond_atom_site_label_1
_geom_bond_atom_site_label_2
_geom_bond_site_symmetry_1
_geom_bond_site_symmetry_2
S1 C3 1_555 1_555
S2 C4 1_555 1_555
S3 C6 1_555 1_555
C1 H1 1_555 1_555
H2 C1 1_555 1_555
H3 C1 1_555 1_555
C2 C1 1_555 1_555
C3 C2 1_555 1_555
C4 S1 1_555 1_555
C5 S2 1_555 1_555
C6 C5 1_555 1_555
C7 C6 1_555 1_555
H4 C7 1_555 1_555
H5 C7 1_555 1_555
H6 C7 1_555 1_555
S4 C8 1_555 1_555
C8 S4B 1_555 1_555
S1B C3B 1_555 1_555
S2B C4B 1_555 1_555
S3B C2 1_555 1_555
C1B H1B 1_555 1_555
H2B C1B 1_555 1_555
H3B C1B 1_555 1_555
C2B S3 1_555 1_555
C3B C5 1_555 1_555
C4B C4 1_555 1_555
C5B C3 1_555 1_555
C6B S3B 1_555 1_555
C7B C6B 1_555 1_555
H4B C7B 1_555 1_555
H5B C7B 1_555 1_555
H6B C7B 1_555 1_555
S1B C4B 1_555 1_555
S2B C5B 1_555 1_555
C1B C2B 1_555 1_555
C2B C3B 1_555 1_555
C5B C6B 1_555 1_555

#END
