
#######################################################################
#
#                 Cambridge Crystallographic Data Centre
#                                CCDC 
#
#######################################################################
#
# If this CIF has been generated from an entry in the Cambridge 
# Structural Database, then it will include bibliographic, chemical, 
# crystal, experimental, refinement or atomic coordinate data resulting 
# from the CCDC's data processing and validation procedures.
#
#######################################################################

data_ASONUT
_chemical_formula_moiety         'C14 F8 S4'
_chemical_name_systematic        
1,2,3,4,7,8,9,10-octafluoro[1,4]benzodithiino[2,3-b][1,4]benzodithiine
_symmetry_cell_setting           monoclinic
_symmetry_space_group_name_H-M   'P 21/c'
_symmetry_Int_Tables_number      14
_space_group_name_Hall           '-P 2ybc'
loop_
_symmetry_equiv_pos_site_id
_symmetry_equiv_pos_as_xyz
1 x,y,z
2 -x,1/2+y,1/2-z
3 -x,-y,-z
4 x,1/2-y,1/2+z
_cell_length_a                   12.361(19)
_cell_length_b                   3.954(6)
_cell_length_c                   15.05(2)
_cell_angle_alpha                90
_cell_angle_beta                 97.159(15)
_cell_angle_gamma                90
_cell_volume                     729.84
_exptl_crystal_colour            white
_exptl_crystal_description       platelet
_chemical_melting_point          '499 K'
_cell_formula_units_Z            2
loop_
_atom_site_label
_atom_site_type_symbol
_atom_site_fract_x
_atom_site_fract_y
_atom_site_fract_z
S1 S 0.35250(7) 0.6838(2) 0.04943(5)
S2 S 0.45012(7) 0.6440(2) -0.13912(5)
F1 F 0.29617(17) 0.3234(6) -0.27796(12)
C1 C 0.2772(2) 0.5066(8) -0.04577(19)
C2 C 0.3198(2) 0.4909(8) -0.12760(19)
F2 F 0.09763(16) 0.0787(6) -0.26353(15)
F3 F 0.01689(16) 0.1071(6) -0.10541(15)
F4 F 0.13450(16) 0.3828(6) 0.03756(13)
C3 C 0.1147(3) 0.2354(9) -0.1129(3)
C4 C 0.4792(2) 0.5086(8) 0.03886(18)
C5 C 0.1560(3) 0.2211(9) -0.1926(2)
C6 C 0.2574(3) 0.3452(9) -0.1997(2)
C7 C 0.1757(3) 0.3749(9) -0.0402(2)
S1B S 0.64750(7) 0.3162(2) -0.04943(5)
S2B S 0.54988(7) 0.3560(2) 0.13912(5)
F1B F 0.70383(17) 0.6766(6) 0.27796(12)
C1B C 0.7228(2) 0.4934(8) 0.04577(19)
C2B C 0.6802(2) 0.5091(8) 0.12760(19)
F2B F 0.90237(16) 0.9213(6) 0.26353(15)
F3B F 0.98311(16) 0.8929(6) 0.10541(15)
F4B F 0.86550(16) 0.6172(6) -0.03756(13)
C3B C 0.8853(3) 0.7646(9) 0.1129(3)
C4B C 0.5208(2) 0.4914(8) -0.03886(18)
C5B C 0.8440(3) 0.7789(9) 0.1926(2)
C6B C 0.7426(3) 0.6548(9) 0.1997(2)
C7B C 0.8243(3) 0.6251(9) 0.0402(2)
loop_
_geom_bond_atom_site_label_1
_geom_bond_atom_site_label_2
_geom_bond_site_symmetry_1
_geom_bond_site_symmetry_2
S1 C1 1_555 1_555
S2 C2 1_555 1_555
F1 C6 1_555 1_555
C1 C2 1_555 1_555
C2 C6 1_555 1_555
F2 C5 1_555 1_555
F3 C3 1_555 1_555
F4 C7 1_555 1_555
C3 C5 1_555 1_555
C4 S1 1_555 1_555
C5 C6 1_555 1_555
C7 C1 1_555 1_555
S1B C1B 1_555 1_555
S2B C4 1_555 1_555
F1B C6B 1_555 1_555
C1B C2B 1_555 1_555
C2B S2B 1_555 1_555
F2B C5B 1_555 1_555
F3B C3B 1_555 1_555
F4B C7B 1_555 1_555
C3B C5B 1_555 1_555
C4B S2 1_555 1_555
C5B C6B 1_555 1_555
C6B C2B 1_555 1_555
C7B C1B 1_555 1_555
C3 C7 1_555 1_555
C4 C4B 1_555 1_555
S1B C4B 1_555 1_555
C3B C7B 1_555 1_555

#END
