
#######################################################################
#
#                 Cambridge Crystallographic Data Centre
#                                CCDC 
#
#######################################################################
#
# If this CIF has been generated from an entry in the Cambridge 
# Structural Database, then it will include bibliographic, chemical, 
# crystal, experimental, refinement or atomic coordinate data resulting 
# from the CCDC's data processing and validation procedures.
#
#######################################################################

data_ASONUS
_chemical_formula_moiety         'C26 H25 Br1 N2 O6'
_chemical_name_systematic        
6-(2-Bromobenzoyl)-6-(1H-indol-3-yl)-4-(methoxymethyl)-2,2-dimethyltetrahydro[1,3]dioxolo[3,4]furo[2,3-c]pyrrol-8(5aH)-one
_symmetry_cell_setting           monoclinic
_symmetry_space_group_name_H-M   'P 21'
_symmetry_Int_Tables_number      4
_space_group_name_Hall           'P 2yb'
loop_
_symmetry_equiv_pos_site_id
_symmetry_equiv_pos_as_xyz
1 x,y,z
2 -x,1/2+y,-z
_cell_length_a                   8.2080(3)
_cell_length_b                   14.4061(5)
_cell_length_c                   10.6072(4)
_cell_angle_alpha                90
_cell_angle_beta                 109.6910(10)
_cell_angle_gamma                90
_cell_volume                     1180.91
_exptl_crystal_colour            colorless
_exptl_crystal_description       block
_cell_formula_units_Z            2
loop_
_atom_site_label
_atom_site_type_symbol
_atom_site_fract_x
_atom_site_fract_y
_atom_site_fract_z
Br1 Br 1.02167(2) 0.249404(14) 1.199019(17)
O1 O 0.77497(16) 0.19639(10) 0.80268(13)
O2 O 0.44671(19) 0.28787(11) 0.83550(15)
N1 N 1.1566(2) -0.08529(13) 0.65400(17)
H1 H 1.1305 -0.1322 0.5977
O3 O 0.53975(16) 0.20763(11) 0.45391(13)
O4 O 0.78064(17) 0.11866(11) 0.48591(14)
O5 O 1.01094(18) 0.28639(11) 0.54201(14)
C1 C 1.0646(2) 0.08488(15) 1.05279(19)
C2 C 0.9941(3) -0.03379(17) 1.2381(2)
H2 H 0.9700 -0.0739 1.3007
C3 C 0.9956(3) 0.06209(17) 1.2564(2)
H3 H 0.9719 0.0873 1.3312
C4 C 1.0316(2) 0.12017(16) 1.1658(2)
C5 C 1.0495(2) 0.12813(14) 0.80506(19)
C6 C 0.8508(2) 0.13044(14) 0.73862(19)
H4 H 0.7970 0.0675 0.7318
C7 C 0.6106(2) 0.22012(14) 0.7024(2)
H5 H 0.5303 0.1659 0.6869
C8 C 0.5258(3) 0.30443(16) 0.7380(2)
H6 H 0.6142 0.3536 0.7714
H7 H 0.4370 0.3281 0.6557
C9 C 0.5659(3) 0.29387(18) 0.9699(2)
H8 H 0.6616 0.2504 0.9812
H9 H 0.5061 0.2781 1.0329
H10 H 0.6114 0.3572 0.9874
C10 C 1.0279(3) -0.07094(16) 1.1280(2)
H11 H 1.0268 -0.1362 1.1151
C11 C 1.0631(2) -0.01150(16) 1.0373(2)
H12 H 1.0868 -0.0371 0.9628
C12 C 1.1244(2) 0.04087(14) 0.76871(18)
C13 C 1.3061(2) 0.01769(13) 0.81005(18)
C14 C 1.3195(3) -0.06205(15) 0.7354(2)
C15 C 1.4793(3) -0.10363(16) 0.7500(2)
H13 H 1.4873 -0.1558 0.6977
C16 C 1.6247(3) -0.06569(17) 0.8436(2)
H14 H 1.7347 -0.0927 0.8564
C17 C 1.6131(3) 0.01197(15) 0.9204(2)
H15 H 1.7154 0.0358 0.9847
C18 C 1.4563(3) 0.05448(14) 0.9044(2)
H16 H 1.4504 0.1074 0.9561
C19 C 1.0406(2) -0.02407(15) 0.6740(2)
H17 H 0.9192 -0.0261 0.6288
C20 C 0.8207(2) 0.17546(15) 0.60017(19)
C21 C 0.6603(2) 0.23699(15) 0.57725(19)
H18 H 0.6908 0.3037 0.5719
C22 C 0.5963(3) 0.12095(16) 0.4164(2)
C23 C 0.5650(3) 0.1229(2) 0.2673(2)
H19 H 0.4414 0.1322 0.2186
H20 H 0.6023 0.0639 0.2399
H21 H 0.6310 0.1739 0.2468
C24 C 0.5080(3) 0.03979(19) 0.4583(2)
H22 H 0.5304 0.0427 0.5550
H23 H 0.5536 -0.0186 0.4363
H24 H 0.3830 0.0429 0.4106
C25 C 0.9893(2) 0.23010(13) 0.62048(19)
N2 N 1.1016(2) 0.20793(12) 0.74049(15)
H25 H 1.1987 0.2385 0.7780
C26 C 1.1125(2) 0.14818(15) 0.95872(19)
O6 O 1.20371(19) 0.21447(11) 0.99960(14)
loop_
_geom_bond_atom_site_label_1
_geom_bond_atom_site_label_2
_geom_bond_site_symmetry_1
_geom_bond_site_symmetry_2
Br1 C4 1_555 1_555
O1 C6 1_555 1_555
O2 C8 1_555 1_555
N1 H1 1_555 1_555
O3 C21 1_555 1_555
O4 C20 1_555 1_555
O5 C25 1_555 1_555
C1 C4 1_555 1_555
C2 H2 1_555 1_555
C3 C2 1_555 1_555
H3 C3 1_555 1_555
C4 C3 1_555 1_555
C5 C6 1_555 1_555
C6 H4 1_555 1_555
C7 O1 1_555 1_555
H5 C7 1_555 1_555
C8 C7 1_555 1_555
H6 C8 1_555 1_555
H7 C8 1_555 1_555
C9 O2 1_555 1_555
H8 C9 1_555 1_555
H9 C9 1_555 1_555
H10 C9 1_555 1_555
C10 C2 1_555 1_555
H11 C10 1_555 1_555
C11 C1 1_555 1_555
H12 C11 1_555 1_555
C12 C5 1_555 1_555
C13 C12 1_555 1_555
C14 N1 1_555 1_555
C15 C14 1_555 1_555
H13 C15 1_555 1_555
C16 C15 1_555 1_555
H14 C16 1_555 1_555
C17 C16 1_555 1_555
H15 C17 1_555 1_555
C18 C13 1_555 1_555
H16 C18 1_555 1_555
C19 N1 1_555 1_555
H17 C19 1_555 1_555
C20 C6 1_555 1_555
C21 C7 1_555 1_555
H18 C21 1_555 1_555
C22 O3 1_555 1_555
C23 C22 1_555 1_555
H19 C23 1_555 1_555
H20 C23 1_555 1_555
H21 C23 1_555 1_555
C24 C22 1_555 1_555
H22 C24 1_555 1_555
H23 C24 1_555 1_555
H24 C24 1_555 1_555
C25 C20 1_555 1_555
N2 C5 1_555 1_555
H25 N2 1_555 1_555
C26 C1 1_555 1_555
O6 C26 1_555 1_555
O4 C22 1_555 1_555
C5 C26 1_555 1_555
C10 C11 1_555 1_555
C12 C19 1_555 1_555
C13 C14 1_555 1_555
C17 C18 1_555 1_555
C20 C21 1_555 1_555
C25 N2 1_555 1_555

#END
