
#######################################################################
#
#                 Cambridge Crystallographic Data Centre
#                                CCDC 
#
#######################################################################
#
# If this CIF has been generated from an entry in the Cambridge 
# Structural Database, then it will include bibliographic, chemical, 
# crystal, experimental, refinement or atomic coordinate data resulting 
# from the CCDC's data processing and validation procedures.
#
#######################################################################

data_ASOPIJ
_chemical_formula_moiety         'C18 H12 O4 S4'
_chemical_name_systematic        
2,3,10,11-tetrahydro[1,4]dioxino[2'',3'':6',7'][1,4]benzodithiino[2',3':5,6][1,4]dithiino[2,3-g][1,4]benzodioxine
_symmetry_cell_setting           monoclinic
_symmetry_space_group_name_H-M   'P 21/n'
_symmetry_Int_Tables_number      14
_space_group_name_Hall           '-P 2yn'
loop_
_symmetry_equiv_pos_site_id
_symmetry_equiv_pos_as_xyz
1 x,y,z
2 1/2-x,1/2+y,1/2-z
3 -x,-y,-z
4 1/2+x,1/2-y,1/2+z
_cell_length_a                   7.8871(15)
_cell_length_b                   11.518(2)
_cell_length_c                   18.586(3)
_cell_angle_alpha                90
_cell_angle_beta                 90.00
_cell_angle_gamma                90
_cell_volume                     1688.42
_exptl_crystal_colour            white
_exptl_crystal_description       platelet
_chemical_melting_point          '583 K'
_cell_formula_units_Z            4
loop_
_atom_site_label
_atom_site_type_symbol
_atom_site_fract_x
_atom_site_fract_y
_atom_site_fract_z
S1 S 0.31826(13) 0.88978(9) 0.45332(5)
S2 S 0.00738(12) 0.65664(9) 0.58400(5)
S3 S 0.08243(14) 0.93072(9) 0.57605(5)
S4 S 0.24072(14) 0.61822(9) 0.46137(5)
C1 C 0.1469(4) 0.7169(3) 0.52111(18)
O1 O 0.1399(4) 0.8772(2) 0.18933(13)
O2 O 0.2236(4) 0.9179(2) 0.84318(14)
C2 C 0.1791(5) 0.8317(3) 0.51745(18)
O3 O 0.1574(3) 0.6741(2) 0.85032(13)
C3 C 0.2140(6) 0.8564(4) 0.9095(2)
H1 H 0.0990 0.8613 0.9278
H2 H 0.2882 0.8934 0.9442
C4 C 0.0858(5) 0.6942(4) 0.1300(2)
H3 H 0.0131 0.6565 0.0950
H4 H 0.2012 0.6912 0.1120
O4 O 0.0765(4) 0.6327(3) 0.19676(14)
C5 C 0.1532(5) 0.9130(4) 0.7199(2)
H5 H 0.1771 0.9920 0.7174
C6 C 0.0889(4) 0.6766(3) 0.72720(18)
H6 H 0.0678 0.5973 0.7298
C7 C 0.2154(5) 0.8738(3) 0.31278(18)
H7 H 0.2330 0.9536 0.3109
C8 C 0.1396(4) 0.7358(3) 0.78782(19)
C9 C 0.1015(4) 0.8552(3) 0.65857(19)
C10 C 0.1606(4) 0.8152(3) 0.25185(18)
C11 C 0.2622(5) 0.7323(4) 0.9027(2)
H8 H 0.3801 0.7268 0.8883
H9 H 0.2500 0.6944 0.9490
C12 C 0.1699(5) 0.8558(3) 0.78475(19)
C13 C 0.0692(4) 0.7345(3) 0.6621(2)
C14 C 0.1569(4) 0.6364(3) 0.31898(19)
H10 H 0.1354 0.5572 0.3215
C15 C 0.2124(4) 0.6948(3) 0.37910(19)
C16 C 0.1326(4) 0.6953(3) 0.25455(19)
C17 C 0.0331(5) 0.8180(4) 0.1378(2)
H11 H 0.0407 0.8566 0.0916
H12 H -0.0840 0.8214 0.1537
C18 C 0.2439(4) 0.8149(3) 0.37598(18)
loop_
_geom_bond_atom_site_label_1
_geom_bond_atom_site_label_2
_geom_bond_site_symmetry_1
_geom_bond_site_symmetry_2
S1 C2 1_555 1_555
S2 C1 1_555 1_555
S3 C2 1_555 1_555
S4 C1 1_555 1_555
C1 C2 1_555 1_555
O1 C10 1_555 1_555
O2 C3 1_555 1_555
O3 C8 1_555 1_555
C3 H1 1_555 1_555
H2 C3 1_555 1_555
C4 H3 1_555 1_555
H4 C4 1_555 1_555
O4 C4 1_555 1_555
C5 H5 1_555 1_555
C6 H6 1_555 1_555
C7 H7 1_555 1_555
C8 C6 1_555 1_555
C9 S3 1_555 1_555
C10 C7 1_555 1_555
C11 O3 1_555 1_555
H8 C11 1_555 1_555
H9 C11 1_555 1_555
C12 O2 1_555 1_555
C13 S2 1_555 1_555
C14 H10 1_555 1_555
C15 S4 1_555 1_555
C16 O4 1_555 1_555
C17 O1 1_555 1_555
H11 C17 1_555 1_555
H12 C17 1_555 1_555
C18 S1 1_555 1_555
C3 C11 1_555 1_555
C4 C17 1_555 1_555
C5 C9 1_555 1_555
C5 C12 1_555 1_555
C6 C13 1_555 1_555
C7 C18 1_555 1_555
C8 C12 1_555 1_555
C9 C13 1_555 1_555
C10 C16 1_555 1_555
C14 C15 1_555 1_555
C14 C16 1_555 1_555
C15 C18 1_555 1_555

#END
