
#######################################################################
#
#                 Cambridge Crystallographic Data Centre
#                                CCDC 
#
#######################################################################
#
# If this CIF has been generated from an entry in the Cambridge 
# Structural Database, then it will include bibliographic, chemical, 
# crystal, experimental, refinement or atomic coordinate data resulting 
# from the CCDC's data processing and validation procedures.
#
#######################################################################

data_ASOPUU
_chemical_formula_moiety         'C17 H19 N1 O3 S1'
_chemical_name_systematic        
1-(3,5-Dimethylphenyl)-3-(4-oxotetrahydro-2H-thiopyran-3-yl)pyrrolidine-2,5-dione
_symmetry_cell_setting           monoclinic
_symmetry_space_group_name_H-M   'P 21'
_symmetry_Int_Tables_number      4
_space_group_name_Hall           'P 2yb'
loop_
_symmetry_equiv_pos_site_id
_symmetry_equiv_pos_as_xyz
1 x,y,z
2 -x,1/2+y,-z
_cell_length_a                   12.0070(6)
_cell_length_b                   9.6603(5)
_cell_length_c                   13.4765(6)
_cell_angle_alpha                90
_cell_angle_beta                 90.972(3)
_cell_angle_gamma                90
_cell_volume                     1562.93
_exptl_crystal_colour            colorless
_exptl_crystal_description       plate
_cell_formula_units_Z            4
loop_
_atom_site_label
_atom_site_type_symbol
_atom_site_fract_x
_atom_site_fract_y
_atom_site_fract_z
S1 S 0.24448(12) 0.22182(18) 0.41107(9)
O1 O 0.5253(3) 0.0273(4) 0.5573(2)
O2 O 0.5789(3) 0.2850(3) 0.7056(3)
O3 O 0.4587(3) -0.1103(5) 0.8510(3)
N1 N 0.5388(3) 0.0875(4) 0.7939(2)
C1 C 0.4641(4) 0.1120(6) 0.5173(3)
C2 C 0.4602(5) 0.1313(10) 0.4056(3)
H1 H 0.4853 0.2251 0.3898
H2 H 0.5119 0.0659 0.3753
C3 C 0.3489(5) 0.1101(7) 0.3625(3)
H3 H 0.3266 0.0139 0.3739
H4 H 0.3523 0.1241 0.2906
C4 C 0.2662(4) 0.1855(6) 0.5410(3)
H5 H 0.2185 0.2467 0.5798
H6 H 0.2435 0.0899 0.5543
C5 C 0.3873(3) 0.2048(4) 0.5755(3)
H7 H 0.4088 0.3022 0.5634
C6 C 0.5150(4) 0.1946(5) 0.7263(3)
C7 C 0.3972(4) 0.1764(5) 0.6883(3)
H8 H 0.3506 0.2459 0.7222
C8 C 0.3631(4) 0.0334(6) 0.7268(3)
H9 H 0.2917 0.0385 0.7608
H10 H 0.3561 -0.0328 0.6719
C9 C 0.4556(4) -0.0095(6) 0.7982(4)
C10 C 0.6452(3) 0.0760(4) 0.8441(3)
C11 C 0.6733(4) 0.1700(4) 0.9161(3)
H11 H 0.6235 0.2408 0.9332
C12 C 0.7778(4) 0.1593(5) 0.9641(3)
C13 C 0.8485(3) 0.0551(5) 0.9365(3)
H12 H 0.9186 0.0481 0.9684
C14 C 0.8199(4) -0.0418(5) 0.8623(3)
C15 C 0.7168(4) -0.0288(4) 0.8165(3)
H13 H 0.6952 -0.0913 0.7663
C16 C 0.8117(4) 0.2590(5) 1.0441(4)
H14 H 0.8584 0.3306 1.0164
H15 H 0.8528 0.2101 1.0958
H16 H 0.7457 0.3007 1.0720
C17 C 0.8991(4) -0.1543(6) 0.8322(4)
H17 H 0.9737 -0.1166 0.8280
H18 H 0.8761 -0.1911 0.7681
H19 H 0.8984 -0.2279 0.8812
S2 S -0.23820(14) 0.1258(2) 0.42279(10)
O4 O 0.0172(3) 0.3747(4) 0.5689(3)
O5 O 0.0530(3) 0.1175(4) 0.7047(3)
O6 O -0.0328(3) 0.5066(4) 0.8740(3)
N2 N 0.0329(3) 0.3065(4) 0.8007(2)
C18 C -0.0582(4) 0.3149(6) 0.5287(3)
C19 C -0.0698(7) 0.3183(8) 0.4185(4)
H20 H -0.1187 0.3958 0.4003
H21 H 0.0036 0.3376 0.3910
C20 C -0.1129(6) 0.1954(8) 0.3722(4)
H22 H -0.0552 0.1237 0.3760
H23 H -0.1268 0.2154 0.3018
C21 C -0.1930(7) 0.1245(9) 0.5506(4)
H24 H -0.2568 0.0985 0.5910
H25 H -0.1368 0.0516 0.5588
C22 C -0.1479(5) 0.2484(7) 0.5897(3)
H26 H -0.2107 0.3145 0.5836
C23 C -0.0029(4) 0.2136(5) 0.7311(3)
C24 C -0.1207(4) 0.2491(6) 0.7004(3)
H27 H -0.1704 0.1811 0.7322
C25 C -0.1426(4) 0.3901(6) 0.7479(4)
H28 H -0.1476 0.4628 0.6973
H29 H -0.2120 0.3887 0.7852
C26 C -0.0452(4) 0.4131(5) 0.8153(4)
C27 C 0.1421(3) 0.3097(4) 0.8474(3)
C28 C 0.1716(3) 0.2127(5) 0.9188(3)
H30 H 0.1221 0.1413 0.9356
C29 C 0.2759(3) 0.2227(5) 0.9653(3)
C30 C 0.3472(3) 0.3270(5) 0.9383(3)
H31 H 0.4175 0.3335 0.9699
C31 C 0.3183(4) 0.4228(5) 0.8657(3)
C32 C 0.2139(4) 0.4121(4) 0.8201(3)
H32 H 0.1926 0.4756 0.7704
C33 C 0.3098(5) 0.1190(6) 1.0456(4)
H33 H 0.3480 0.0415 1.0156
H34 H 0.2439 0.0860 1.0789
H35 H 0.3593 0.1637 1.0935
C34 C 0.3994(4) 0.5346(6) 0.8372(4)
H36 H 0.3615 0.6027 0.7960
H37 H 0.4601 0.4939 0.8006
H38 H 0.4288 0.5790 0.8967
loop_
_geom_bond_atom_site_label_1
_geom_bond_atom_site_label_2
_geom_bond_site_symmetry_1
_geom_bond_site_symmetry_2
S1 C3 1_555 1_555
O1 C1 1_555 1_555
O2 C6 1_555 1_555
O3 C9 1_555 1_555
N1 C6 1_555 1_555
C1 C2 1_555 1_555
C2 H1 1_555 1_555
H2 C2 1_555 1_555
C3 C2 1_555 1_555
H3 C3 1_555 1_555
H4 C3 1_555 1_555
C4 S1 1_555 1_555
H5 C4 1_555 1_555
H6 C4 1_555 1_555
C5 C1 1_555 1_555
H7 C5 1_555 1_555
C6 C7 1_555 1_555
C7 C5 1_555 1_555
H8 C7 1_555 1_555
C8 C7 1_555 1_555
H9 C8 1_555 1_555
H10 C8 1_555 1_555
C9 N1 1_555 1_555
C10 N1 1_555 1_555
C11 C10 1_555 1_555
H11 C11 1_555 1_555
C12 C11 1_555 1_555
C13 C12 1_555 1_555
H12 C13 1_555 1_555
C14 C13 1_555 1_555
C15 C10 1_555 1_555
H13 C15 1_555 1_555
C16 C12 1_555 1_555
H14 C16 1_555 1_555
H15 C16 1_555 1_555
H16 C16 1_555 1_555
C17 C14 1_555 1_555
H17 C17 1_555 1_555
H18 C17 1_555 1_555
H19 C17 1_555 1_555
S2 C20 1_555 1_555
O4 C18 1_555 1_555
O5 C23 1_555 1_555
O6 C26 1_555 1_555
N2 C23 1_555 1_555
C18 C19 1_555 1_555
C19 H20 1_555 1_555
H21 C19 1_555 1_555
C20 C19 1_555 1_555
H22 C20 1_555 1_555
H23 C20 1_555 1_555
C21 S2 1_555 1_555
H24 C21 1_555 1_555
H25 C21 1_555 1_555
C22 C18 1_555 1_555
H26 C22 1_555 1_555
C23 C24 1_555 1_555
C24 C22 1_555 1_555
H27 C24 1_555 1_555
C25 C24 1_555 1_555
H28 C25 1_555 1_555
H29 C25 1_555 1_555
C26 N2 1_555 1_555
C27 N2 1_555 1_555
C28 C27 1_555 1_555
H30 C28 1_555 1_555
C29 C28 1_555 1_555
C30 C29 1_555 1_555
H31 C30 1_555 1_555
C31 C30 1_555 1_555
C32 C27 1_555 1_555
H32 C32 1_555 1_555
C33 C29 1_555 1_555
H33 C33 1_555 1_555
H34 C33 1_555 1_555
H35 C33 1_555 1_555
C34 C31 1_555 1_555
H36 C34 1_555 1_555
H37 C34 1_555 1_555
H38 C34 1_555 1_555
C4 C5 1_555 1_555
C8 C9 1_555 1_555
C14 C15 1_555 1_555
C21 C22 1_555 1_555
C25 C26 1_555 1_555
C31 C32 1_555 1_555

#END
