
#######################################################################
#
#                 Cambridge Crystallographic Data Centre
#                                CCDC 
#
#######################################################################
#
# If this CIF has been generated from an entry in the Cambridge 
# Structural Database, then it will include bibliographic, chemical, 
# crystal, experimental, refinement or atomic coordinate data resulting 
# from the CCDC's data processing and validation procedures.
#
#######################################################################

data_ASOQAC
_chemical_formula_moiety         'C70,C14 H12 S6,C1 S2'
_chemical_name_systematic        
"1,3,6,8-tetramethylthieno[3,4-b]thieno[3',4':5,6][1,4]dithiino[2,3-e][1,4]dithiine C70fullerene carbon disulfide"
_symmetry_cell_setting           triclinic
_symmetry_space_group_name_H-M   'P -1'
_symmetry_Int_Tables_number      2
_space_group_name_Hall           '-P 1'
loop_
_symmetry_equiv_pos_site_id
_symmetry_equiv_pos_as_xyz
1 x,y,z
2 -x,-y,-z
_cell_length_a                   10.0905(3)
_cell_length_b                   13.6277(3)
_cell_length_c                   18.3146(6)
_cell_angle_alpha                86.280(2)
_cell_angle_beta                 77.027(3)
_cell_angle_gamma                87.191(2)
_cell_volume                     2447.46
_exptl_crystal_colour            black
_exptl_crystal_description       block
_chemical_melting_point          '546 K'
_cell_formula_units_Z            2
loop_
_atom_site_label
_atom_site_type_symbol
_atom_site_fract_x
_atom_site_fract_y
_atom_site_fract_z
C1 C 0.1315(2) 0.35425(14) 0.36792(11)
C2 C 0.2368(2) 0.30404(14) 0.32374(11)
C3 C 0.2299(2) 0.30744(14) 0.24660(11)
C4 C 0.1200(2) 0.36086(14) 0.23196(12)
C5 C 0.50832(19) 0.25447(13) 0.28184(11)
C6 C 0.5005(2) 0.25718(13) 0.20927(11)
C7 C 0.8938(2) 0.15729(14) 0.25881(12)
C8 C 0.7809(2) 0.20801(14) 0.24463(11)
C9 C 0.7731(2) 0.21032(14) 0.16751(11)
C10 C 0.8794(2) 0.16132(14) 0.12308(12)
C11 C 0.1034(2) 0.36900(16) 0.45078(12)
H1 H 0.0678 0.3100 0.4781
H2 H 0.0381 0.4225 0.4626
H3 H 0.1863 0.3839 0.4645
C12 C 0.0792(2) 0.38289(16) 0.15851(13)
H4 H 0.1556 0.3701 0.1180
H5 H 0.0500 0.4508 0.1548
H6 H 0.0060 0.3419 0.1557
C13 C 0.9354(2) 0.13603(16) 0.33210(13)
H7 H 1.0047 0.1802 0.3358
H8 H 0.9703 0.0694 0.3346
H9 H 0.8579 0.1450 0.3727
C14 C 0.9027(2) 0.14450(17) 0.04089(12)
H10 H 0.8180 0.1302 0.0289
H11 H 0.9662 0.0900 0.0290
H12 H 0.9387 0.2025 0.0122
S1 S 0.02148(5) 0.40404(4) 0.31423(3)
S2 S 0.36667(5) 0.23726(3) 0.35766(3)
S3 S 0.34904(5) 0.24442(3) 0.17846(3)
S4 S 0.65895(5) 0.26715(3) 0.31359(3)
S5 S 0.64101(5) 0.27338(3) 0.13294(3)
S6 S 0.99251(5) 0.11520(4) 0.17606(3)
C15 C 0.4842(3) 0.1558(2) 0.96697(12)
C16 C 0.6235(3) 0.1858(2) 0.94216(13)
C17 C 0.6239(3) 0.2922(2) 0.93692(14)
C18 C 0.4831(3) 0.3286(2) 0.95829(14)
C19 C 0.3976(3) 0.2442(3) 0.97696(13)
C20 C 0.4422(3) 0.0748(2) 0.93734(13)
C21 C 0.5362(3) 0.01992(18) 0.88172(14)
C22 C 0.4649(3) -0.01087(16) 0.82746(14)
C23 C 0.3272(2) 0.02490(17) 0.84824(14)
C24 C 0.3121(3) 0.0781(2) 0.91570(13)
C25 C 0.7143(3) 0.1323(2) 0.88937(13)
C26 C 0.8073(2) 0.1832(2) 0.82925(13)
C27 C 0.8208(2) 0.12943(17) 0.76213(13)
C28 C 0.7364(2) 0.04662(16) 0.77990(13)
C29 C 0.6695(2) 0.04807(18) 0.85860(13)
C30 C 0.7133(3) 0.3408(2) 0.87876(15)
C31 C 0.8073(2) 0.2848(2) 0.82377(15)
C32 C 0.8199(2) 0.33693(19) 0.75159(16)
C33 C 0.7347(2) 0.42417(18) 0.76085(17)
C34 C 0.6687(3) 0.42726(19) 0.83886(17)
C35 C 0.4407(3) 0.4119(2) 0.92008(16)
C36 C 0.5346(3) 0.46170(19) 0.85951(18)
C37 C 0.4623(3) 0.49472(17) 0.80138(19)
C38 C 0.3247(3) 0.46537(18) 0.82644(17)
C39 C 0.3104(3) 0.4134(2) 0.89859(16)
C40 C 0.2725(3) 0.2463(2) 0.95673(12)
C41 C 0.2293(3) 0.3327(2) 0.91655(14)
C42 C 0.1575(2) 0.30115(19) 0.86241(13)
C43 C 0.1580(2) 0.19634(19) 0.86767(13)
C44 C 0.2299(2) 0.1622(2) 0.92525(12)
C45 C 0.5615(3) 0.2904(2) 0.51339(12)
C46 C 0.4218(3) 0.3272(2) 0.53489(12)
C47 C 0.3359(2) 0.24303(19) 0.55352(12)
C48 C 0.4226(2) 0.1548(2) 0.54369(12)
C49 C 0.5620(3) 0.1844(2) 0.51885(12)
C50 C 0.6634(3) 0.3399(2) 0.53471(13)
C51 C 0.6306(3) 0.4251(2) 0.57807(16)
C52 C 0.7167(3) 0.42369(18) 0.63198(16)
C53 C 0.8021(2) 0.3364(2) 0.62217(15)
C54 C 0.7695(2) 0.2844(2) 0.56307(13)
C55 C 0.3904(3) 0.41011(19) 0.57600(14)
C56 C 0.2726(2) 0.41315(17) 0.63838(15)
C57 C 0.3057(3) 0.46488(16) 0.69776(16)
C58 C 0.4441(3) 0.49417(16) 0.67274(18)
C59 C 0.4962(3) 0.46046(18) 0.59885(16)
C60 C 0.2227(2) 0.24650(17) 0.61275(12)
C61 C 0.1921(2) 0.16219(17) 0.66464(13)
C62 C 0.14032(19) 0.19686(16) 0.73871(13)
C63 C 0.13980(19) 0.30146(17) 0.73367(13)
C64 C 0.1909(2) 0.33280(17) 0.65589(13)
C65 C 0.3919(2) 0.07389(18) 0.59354(13)
C66 C 0.2745(2) 0.07780(16) 0.65542(13)
C67 C 0.3082(2) 0.02514(15) 0.71994(14)
C68 C 0.4466(2) -0.01083(15) 0.69894(14)
C69 C 0.4987(3) 0.01968(17) 0.62134(14)
C70 C 0.6645(2) 0.1317(2) 0.54589(12)
C71 C 0.6313(2) 0.04814(18) 0.59818(13)
C72 C 0.7176(2) 0.04665(17) 0.65155(13)
C73 C 0.8018(2) 0.12977(18) 0.63345(12)
C74 C 0.7689(2) 0.1831(2) 0.56855(13)
C75 C 0.6705(3) 0.46269(17) 0.70304(18)
C76 C 0.5286(3) 0.49957(16) 0.72443(18)
C77 C 0.8436(2) 0.28627(18) 0.68440(14)
C78 C 0.8438(2) 0.17860(18) 0.69009(13)
C79 C 0.6720(2) 0.01042(15) 0.72642(13)
C80 C 0.5310(2) -0.01942(14) 0.75100(14)
C81 C 0.2516(2) 0.05305(15) 0.79360(13)
C82 C 0.1637(2) 0.14230(17) 0.80354(13)
C83 C 0.1623(2) 0.35529(17) 0.79314(14)
C84 C 0.2490(2) 0.44062(16) 0.77403(16)
C85 C 1.0000 0.0000 0.5000
S7 S 1.09979(6) 0.08340(4) 0.49769(3)
S7A S 0.90021(6) -0.08340(4) 0.50231(3)
C86 C 1.0000 0.5000 0.0000
S8 S 0.89884(6) 0.41797(4) 0.00116(3)
S8A S 1.10116(6) 0.58203(4) -0.00116(3)
loop_
_geom_bond_atom_site_label_1
_geom_bond_atom_site_label_2
_geom_bond_site_symmetry_1
_geom_bond_site_symmetry_2
C1 C2 1_555 1_555
C2 C3 1_555 1_555
C3 C4 1_555 1_555
C4 C12 1_555 1_555
C5 C6 1_555 1_555
C6 S3 1_555 1_555
C7 C8 1_555 1_555
C8 C9 1_555 1_555
C9 C10 1_555 1_555
C10 C14 1_555 1_555
C11 C1 1_555 1_555
H1 C11 1_555 1_555
H2 C11 1_555 1_555
H3 C11 1_555 1_555
C12 H4 1_555 1_555
H5 C12 1_555 1_555
H6 C12 1_555 1_555
C13 C7 1_555 1_555
H7 C13 1_555 1_555
H8 C13 1_555 1_555
H9 C13 1_555 1_555
C14 H10 1_555 1_555
H11 C14 1_555 1_555
H12 C14 1_555 1_555
S1 C1 1_555 1_555
S2 C2 1_555 1_555
S3 C3 1_555 1_555
S4 C5 1_555 1_555
S5 C6 1_555 1_555
S6 C7 1_555 1_555
C15 C16 1_555 1_555
C16 C17 1_555 1_555
C17 C18 1_555 1_555
C18 C19 1_555 1_555
C19 C15 1_555 1_555
C20 C15 1_555 1_555
C21 C20 1_555 1_555
C22 C21 1_555 1_555
C23 C22 1_555 1_555
C24 C20 1_555 1_555
C25 C16 1_555 1_555
C26 C25 1_555 1_555
C27 C26 1_555 1_555
C28 C27 1_555 1_555
C29 C21 1_555 1_555
C30 C17 1_555 1_555
C31 C26 1_555 1_555
C32 C31 1_555 1_555
C33 C32 1_555 1_555
C34 C30 1_555 1_555
C35 C18 1_555 1_555
C36 C34 1_555 1_555
C37 C36 1_555 1_555
C38 C37 1_555 1_555
C39 C35 1_555 1_555
C40 C19 1_555 1_555
C41 C39 1_555 1_555
C42 C41 1_555 1_555
C43 C42 1_555 1_555
C44 C24 1_555 1_555
C45 C46 1_555 1_555
C46 C47 1_555 1_555
C47 C48 1_555 1_555
C48 C49 1_555 1_555
C49 C45 1_555 1_555
C50 C45 1_555 1_555
C51 C50 1_555 1_555
C52 C51 1_555 1_555
C53 C52 1_555 1_555
C54 C50 1_555 1_555
C55 C46 1_555 1_555
C56 C55 1_555 1_555
C57 C56 1_555 1_555
C58 C57 1_555 1_555
C59 C51 1_555 1_555
C60 C47 1_555 1_555
C61 C60 1_555 1_555
C62 C61 1_555 1_555
C63 C62 1_555 1_555
C64 C56 1_555 1_555
C65 C48 1_555 1_555
C66 C61 1_555 1_555
C67 C66 1_555 1_555
C68 C67 1_555 1_555
C69 C65 1_555 1_555
C70 C49 1_555 1_555
C71 C69 1_555 1_555
C72 C71 1_555 1_555
C73 C72 1_555 1_555
C74 C54 1_555 1_555
C75 C33 1_555 1_555
C76 C37 1_555 1_555
C77 C32 1_555 1_555
C78 C27 1_555 1_555
C79 C28 1_555 1_555
C80 C22 1_555 1_555
C81 C23 1_555 1_555
C82 C43 1_555 1_555
C83 C42 1_555 1_555
C84 C38 1_555 1_555
C85 S7 1_555 1_555
C86 S8 1_555 1_555
S7A C85 1_555 1_555
S8A C86 1_555 1_555
C4 S1 1_555 1_555
C5 S2 1_555 1_555
C8 S4 1_555 1_555
C9 S5 1_555 1_555
C10 S6 1_555 1_555
C23 C24 1_555 1_555
C25 C29 1_555 1_555
C28 C29 1_555 1_555
C30 C31 1_555 1_555
C33 C34 1_555 1_555
C35 C36 1_555 1_555
C38 C39 1_555 1_555
C40 C41 1_555 1_555
C40 C44 1_555 1_555
C43 C44 1_555 1_555
C52 C75 1_555 1_555
C53 C54 1_555 1_555
C53 C77 1_555 1_555
C55 C59 1_555 1_555
C57 C84 1_555 1_555
C58 C59 1_555 1_555
C58 C76 1_555 1_555
C60 C64 1_555 1_555
C62 C82 1_555 1_555
C63 C64 1_555 1_555
C63 C83 1_555 1_555
C65 C66 1_555 1_555
C67 C81 1_555 1_555
C68 C69 1_555 1_555
C68 C80 1_555 1_555
C70 C71 1_555 1_555
C70 C74 1_555 1_555
C72 C79 1_555 1_555
C73 C74 1_555 1_555
C73 C78 1_555 1_555
C75 C76 1_555 1_555
C77 C78 1_555 1_555
C79 C80 1_555 1_555
C81 C82 1_555 1_555
C83 C84 1_555 1_555

#END
