
#######################################################################
#
#                 Cambridge Crystallographic Data Centre
#                                CCDC 
#
#######################################################################
#
# If this CIF has been generated from an entry in the Cambridge 
# Structural Database, then it will include bibliographic, chemical, 
# crystal, experimental, refinement or atomic coordinate data resulting 
# from the CCDC's data processing and validation procedures.
#
#######################################################################

data_ASOQOQ
_chemical_formula_moiety         'C60,2(C14 H10 S5)'
_chemical_name_systematic        
"1,3-dimethylthieno[3',4':5,6][1,4]dithiino[2,3-b][1,4]benzodithiine C60fullerene"
_symmetry_cell_setting           monoclinic
_symmetry_space_group_name_H-M   'P 21/c'
_symmetry_Int_Tables_number      14
_space_group_name_Hall           '-P 2ybc'
loop_
_symmetry_equiv_pos_site_id
_symmetry_equiv_pos_as_xyz
1 x,y,z
2 -x,1/2+y,1/2-z
3 -x,-y,-z
4 x,1/2-y,1/2+z
_cell_length_a                   17.97(4)
_cell_length_b                   9.81(2)
_cell_length_c                   17.28(6)
_cell_angle_alpha                90
_cell_angle_beta                 116.4(3)
_cell_angle_gamma                90
_cell_volume                     2728.53
_exptl_crystal_colour            'light black'
_exptl_crystal_description       block
_chemical_melting_point          '573 K'
_cell_formula_units_Z            2
loop_
_atom_site_label
_atom_site_type_symbol
_atom_site_fract_x
_atom_site_fract_y
_atom_site_fract_z
C1 C 0.1589(4) 0.5524(7) 0.5762(5)
C2 C 0.1204(4) 0.4921(7) 0.4990(5)
C3 C 0.1578(4) 0.7949(8) 0.5010(5)
C4 C 0.1160(4) 0.7313(8) 0.4187(5)
C5 C 0.1234(4) 0.7997(8) 0.3546(5)
C6 C 0.1985(4) 0.9115(8) 0.4998(5)
C7 C 0.1519(4) 0.3155(8) 0.6556(5)
C8 C 0.1134(5) 0.2535(8) 0.5761(6)
C9 C 0.0655(5) 0.1377(8) 0.5667(6)
H1 H 0.0377 0.0970 0.5127
C10 C 0.0592(5) 0.0836(9) 0.6361(6)
H2 H 0.0288 0.0041 0.6296
C11 C 0.0974(5) 0.1458(9) 0.7158(6)
H3 H 0.0924 0.1087 0.7628
C12 C 0.1432(4) 0.2634(8) 0.7257(5)
H4 H 0.1679 0.3072 0.7789
C13 C 0.0893(6) 0.7648(9) 0.2611(6)
H5 H 0.1122 0.6794 0.2548
H6 H 0.1039 0.8349 0.2316
H7 H 0.0299 0.7574 0.2368
C14 C 0.2544(5) 0.9971(8) 0.5745(6)
H8 H 0.2342 0.9977 0.6175
H9 H 0.2552 1.0885 0.5551
H10 H 0.3095 0.9600 0.5989
S1 S 0.15649(12) 0.72768(19) 0.59476(12)
S2 S 0.05875(11) 0.5787(2) 0.40263(12)
S3 S 0.21810(11) 0.45977(19) 0.67160(12)
S4 S 0.12434(11) 0.31594(19) 0.48544(13)
S5 S 0.18102(12) 0.9469(2) 0.39589(13)
C15 C 0.5823(5) 0.3643(8) 0.7111(5)
C16 C 0.5469(4) 0.4924(8) 0.7210(4)
C17 C 0.4570(4) 0.4796(8) 0.6800(5)
C18 C 0.4349(4) 0.3460(8) 0.6440(5)
C19 C 0.5111(5) 0.2716(8) 0.6625(5)
C20 C 0.6512(5) 0.3633(9) 0.6963(5)
C21 C 0.6891(4) 0.4898(9) 0.6904(5)
C22 C 0.7186(5) 0.4747(10) 0.6238(6)
C23 C 0.6966(4) 0.3370(8) 0.5878(5)
C24 C 0.6568(5) 0.2704(8) 0.6335(5)
C25 C 0.5835(5) 0.6144(8) 0.7159(5)
C26 C 0.6565(5) 0.6131(9) 0.7008(5)
C27 C 0.6499(5) 0.7270(8) 0.6451(5)
C28 C 0.5747(5) 0.7956(8) 0.6263(5)
C29 C 0.5312(5) 0.7277(8) 0.6699(5)
C30 C 0.4090(4) 0.5905(8) 0.6366(5)
C31 C 0.3359(5) 0.5705(8) 0.5538(5)
C32 C 0.3153(5) 0.4405(8) 0.5206(5)
C33 C 0.3655(5) 0.3259(8) 0.5656(5)
C34 C 0.3689(5) 0.2342(9) 0.5035(5)
C35 C 0.4438(5) 0.1626(9) 0.5209(6)
C36 C 0.5158(5) 0.1841(7) 0.6028(5)
C37 C 0.5894(5) 0.1815(8) 0.5890(5)
C38 C 0.5624(5) 0.1608(8) 0.4967(5)
C39 C 0.6008(5) 0.2257(8) 0.4542(5)
C40 C 0.6698(5) 0.3155(8) 0.5009(5)
C41 C 0.7128(4) 0.5809(10) 0.5727(5)
C42 C 0.6787(4) 0.7094(8) 0.5830(5)
C43 C 0.5290(5) 0.8512(9) 0.5445(5)
C44 C 0.4487(6) 0.7179(8) 0.6316(6)
C15B C 0.4177(5) 0.6357(8) 0.2889(5)
C16B C 0.4531(4) 0.5076(8) 0.2790(4)
C17B C 0.5430(4) 0.5204(8) 0.3200(5)
C18B C 0.5651(4) 0.6540(8) 0.3560(5)
C19B C 0.4889(5) 0.7284(8) 0.3375(5)
C20B C 0.3488(5) 0.6367(9) 0.3037(5)
C21B C 0.3109(4) 0.5102(9) 0.3096(5)
C22B C 0.2814(5) 0.5253(10) 0.3762(6)
C23B C 0.3034(4) 0.6630(8) 0.4122(5)
C24B C 0.3432(5) 0.7296(8) 0.3665(5)
C25B C 0.4165(5) 0.3856(8) 0.2841(5)
C26B C 0.3435(5) 0.3869(9) 0.2992(5)
C27B C 0.3501(5) 0.2730(8) 0.3549(5)
C28B C 0.4253(5) 0.2044(8) 0.3737(5)
C29B C 0.4688(5) 0.2723(8) 0.3301(5)
C30B C 0.5910(4) 0.4095(8) 0.3634(5)
C31B C 0.6641(5) 0.4295(8) 0.4462(5)
C32B C 0.6847(5) 0.5595(8) 0.4794(5)
C33B C 0.6345(5) 0.6741(8) 0.4344(5)
C34B C 0.6311(5) 0.7658(9) 0.4965(5)
C35B C 0.5562(5) 0.8374(9) 0.4791(6)
C36B C 0.4842(5) 0.8159(7) 0.3972(5)
C37B C 0.4106(5) 0.8185(8) 0.4110(5)
C38B C 0.4376(5) 0.8392(8) 0.5033(5)
C39B C 0.3992(5) 0.7743(8) 0.5458(5)
C40B C 0.3302(5) 0.6845(8) 0.4991(5)
C41B C 0.2872(4) 0.4191(10) 0.4273(5)
C42B C 0.3213(4) 0.2906(8) 0.4170(5)
C43B C 0.4710(5) 0.1488(9) 0.4555(5)
C44B C 0.5513(6) 0.2821(8) 0.3684(6)
loop_
_geom_bond_atom_site_label_1
_geom_bond_atom_site_label_2
_geom_bond_site_symmetry_1
_geom_bond_site_symmetry_2
C1 C2 1_555 1_555
C2 S2 1_555 1_555
C3 C4 1_555 1_555
C4 C5 1_555 1_555
C5 C13 1_555 1_555
C6 C3 1_555 1_555
C7 C8 1_555 1_555
C8 C9 1_555 1_555
C9 H1 1_555 1_555
C10 C9 1_555 1_555
H2 C10 1_555 1_555
C11 C10 1_555 1_555
H3 C11 1_555 1_555
C12 C7 1_555 1_555
H4 C12 1_555 1_555
C13 H5 1_555 1_555
H6 C13 1_555 1_555
H7 C13 1_555 1_555
C14 C6 1_555 1_555
H8 C14 1_555 1_555
H9 C14 1_555 1_555
H10 C14 1_555 1_555
S1 C1 1_555 1_555
S2 C4 1_555 1_555
S3 C1 1_555 1_555
S4 C2 1_555 1_555
S5 C5 1_555 1_555
C15 C16 1_555 1_555
C16 C17 1_555 1_555
C17 C18 1_555 1_555
C18 C19 1_555 1_555
C19 C15 1_555 1_555
C20 C15 1_555 1_555
C21 C20 1_555 1_555
C22 C21 1_555 1_555
C23 C22 1_555 1_555
C24 C20 1_555 1_555
C25 C16 1_555 1_555
C26 C21 1_555 1_555
C27 C26 1_555 1_555
C28 C27 1_555 1_555
C29 C25 1_555 1_555
C30 C17 1_555 1_555
C31 C30 1_555 1_555
C32 C31 1_555 1_555
C33 C18 1_555 1_555
C34 C33 1_555 1_555
C35 C34 1_555 1_555
C36 C19 1_555 1_555
C37 C24 1_555 1_555
C38 C37 1_555 1_555
C39 C38 1_555 1_555
C40 C23 1_555 1_555
C41 C22 1_555 1_555
C42 C27 1_555 1_555
C43 C28 1_555 1_555
C44 C29 1_555 1_555
C15B C16B 1_555 1_555
C16B C17B 1_555 1_555
C17B C18B 1_555 1_555
C18B C19B 1_555 1_555
C19B C15B 1_555 1_555
C20B C15B 1_555 1_555
C21B C20B 1_555 1_555
C22B C21B 1_555 1_555
C23B C22B 1_555 1_555
C24B C20B 1_555 1_555
C25B C16B 1_555 1_555
C26B C21B 1_555 1_555
C27B C26B 1_555 1_555
C28B C27B 1_555 1_555
C29B C25B 1_555 1_555
C30B C17B 1_555 1_555
C31B C40 1_555 1_555
C32B C41 1_555 1_555
C33B C18B 1_555 1_555
C34B C42 1_555 1_555
C35B C43 1_555 1_555
C36B C19B 1_555 1_555
C37B C24B 1_555 1_555
C38B C43 1_555 1_555
C39B C44 1_555 1_555
C40B C31 1_555 1_555
C41B C32 1_555 1_555
C42B C34 1_555 1_555
C43B C35 1_555 1_555
C44B C39 1_555 1_555
C3 S1 1_555 1_555
C6 S5 1_555 1_555
C7 S3 1_555 1_555
C8 S4 1_555 1_555
C11 C12 1_555 1_555
C23 C24 1_555 1_555
C25 C26 1_555 1_555
C28 C29 1_555 1_555
C30 C44 1_555 1_555
C32 C33 1_555 1_555
C35 C36 1_555 1_555
C36 C37 1_555 1_555
C38 C43B 1_555 1_555
C39 C40 1_555 1_555
C41 C42 1_555 1_555
C22B C41B 1_555 1_555
C23B C24B 1_555 1_555
C23B C40B 1_555 1_555
C25B C26B 1_555 1_555
C27B C42B 1_555 1_555
C28B C29B 1_555 1_555
C28B C43B 1_555 1_555
C29B C44B 1_555 1_555
C30B C31B 1_555 1_555
C30B C44B 1_555 1_555
C31B C32B 1_555 1_555
C32B C33B 1_555 1_555
C33B C34B 1_555 1_555
C34B C35B 1_555 1_555
C35B C36B 1_555 1_555
C36B C37B 1_555 1_555
C37B C38B 1_555 1_555
C38B C39B 1_555 1_555
C39B C40B 1_555 1_555
C41B C42B 1_555 1_555

#END
