
#######################################################################
#
#                 Cambridge Crystallographic Data Centre
#                                CCDC 
#
#######################################################################
#
# If this CIF has been generated from an entry in the Cambridge 
# Structural Database, then it will include bibliographic, chemical, 
# crystal, experimental, refinement or atomic coordinate data resulting 
# from the CCDC's data processing and validation procedures.
#
#######################################################################

data_ASOQIK
_chemical_formula_moiety         'C60,C18 H16 O4 S4'
_chemical_name_systematic        
'2,3,8,9-tetramethoxy[1,4]benzodithiino[2,3-b][1,4]benzodithiine C60fullerene'
_symmetry_cell_setting           monoclinic
_symmetry_space_group_name_H-M   'I 2/a'
_symmetry_Int_Tables_number      15
_space_group_name_Hall           '-I 2ya'
loop_
_symmetry_equiv_pos_site_id
_symmetry_equiv_pos_as_xyz
1 x,y,z
2 1/2-x,y,-z
3 1/2+x,1/2+y,1/2+z
4 -x,1/2+y,1/2-z
5 -x,-y,-z
6 1/2+x,-y,z
7 1/2-x,1/2-y,1/2-z
8 x,1/2-y,1/2+z
_cell_length_a                   14.7684(5)
_cell_length_b                   13.5962(4)
_cell_length_c                   22.7333(10)
_cell_angle_alpha                90
_cell_angle_beta                 103.105(4)
_cell_angle_gamma                90
_cell_volume                     4445.83
_exptl_crystal_colour            black
_exptl_crystal_description       platelet
_chemical_melting_point          '569 K'
_cell_formula_units_Z            4
loop_
_atom_site_label
_atom_site_type_symbol
_atom_site_fract_x
_atom_site_fract_y
_atom_site_fract_z
C1 C -0.0888(2) 0.3159(3) 0.00088(16)
C2 C -0.1317(2) 0.3769(3) 0.03475(16)
C3 C -0.1781(2) 0.3379(3) 0.07635(16)
H1 H -0.2049 0.3804 0.1010
C4 C -0.1850(2) 0.2375(3) 0.08166(16)
C5 C -0.1438(2) 0.1740(3) 0.04571(16)
C6 C -0.0938(2) 0.2133(3) 0.00657(16)
H2 H -0.0633 0.1713 -0.0162
C7 C 0.0213(2) 0.4707(3) -0.01601(16)
C8 C -0.1208(4) 0.0090(3) 0.0173(2)
H3 H -0.1435 0.0266 -0.0253
H4 H -0.1415 -0.0577 0.0241
H5 H -0.0527 0.0115 0.0278
C9 C -0.2610(3) 0.2500(3) 0.16304(18)
H6 H -0.2083 0.2851 0.1883
H7 H -0.2903 0.2083 0.1886
H8 H -0.3065 0.2977 0.1416
O1 O -0.2290(2) 0.1902(2) 0.12030(12)
O2 O -0.1567(2) 0.0764(2) 0.05404(13)
S1 S -0.03007(6) 0.36385(7) -0.05320(4)
S2 S 0.13580(6) 0.49349(6) -0.02356(4)
C1D C 0.0888(2) 0.6841(3) -0.00088(16)
C2D C 0.1317(2) 0.6231(3) -0.03475(16)
C3D C 0.1781(2) 0.6621(3) -0.07635(16)
H1D H 0.2049 0.6196 -0.1010
C4D C 0.1850(2) 0.7625(3) -0.08166(16)
C5D C 0.1438(2) 0.8260(3) -0.04571(16)
C6D C 0.0938(2) 0.7867(3) -0.00657(16)
H2D H 0.0633 0.8287 0.0162
C7D C -0.0213(2) 0.5293(3) 0.01601(16)
C8D C 0.1208(4) 0.9910(3) -0.0173(2)
H3D H 0.1435 0.9734 0.0253
H4D H 0.1415 1.0577 -0.0241
H5D H 0.0527 0.9885 -0.0278
C9D C 0.2610(3) 0.7500(3) -0.16304(18)
H6D H 0.2083 0.7149 -0.1883
H7D H 0.2903 0.7917 -0.1886
H8D H 0.3065 0.7023 -0.1416
O1D O 0.2290(2) 0.8098(2) -0.12030(12)
O2D O 0.1567(2) 0.9236(2) -0.05404(13)
S1D S 0.03007(6) 0.63615(7) 0.05320(4)
S2D S -0.13580(6) 0.50651(6) 0.02356(4)
C10 C 0.0148(3) 0.2030(4) 0.2515(2)
C11 C 0.0386(3) 0.1167(3) 0.2200(2)
C12 C 0.0445(3) 0.1476(3) 0.16003(19)
C13 C 0.0249(3) 0.2516(3) 0.15421(18)
C14 C 0.0066(3) 0.2863(4) 0.2110(2)
C15 C 0.0536(3) 0.2154(4) 0.3125(2)
C16 C 0.1174(3) 0.1431(4) 0.34476(19)
C17 C 0.1900(3) 0.1947(4) 0.38815(17)
C18 C 0.1703(3) 0.2986(4) 0.38277(18)
C19 C 0.0858(3) 0.3123(4) 0.3357(2)
C20 C 0.1006(3) 0.0477(3) 0.2515(2)
C21 C 0.1407(3) 0.0609(3) 0.3148(2)
C22 C 0.2363(3) 0.0266(3) 0.3270(2)
C23 C 0.2549(4) -0.0083(3) 0.2701(2)
C24 C 0.1704(3) 0.0046(3) 0.2238(2)
C25 C 0.0370(3) 0.3781(4) 0.2324(2)
C26 C 0.0782(3) 0.3911(4) 0.2972(2)
C27 C 0.1534(3) 0.4615(3) 0.3026(2)
C28 C 0.1591(3) 0.4918(3) 0.2428(2)
C29 C 0.0871(3) 0.4405(3) 0.1993(2)
C30 C 0.1621(3) 0.1691(3) 0.09982(17)
C31 C 0.1438(3) 0.2691(3) 0.09430(17)
C32 C 0.1112(3) 0.1064(3) 0.13345(19)
C33 C 0.1762(3) 0.0336(3) 0.1658(2)
C34 C 0.3048(3) 0.0757(3) 0.36817(19)
C35 C 0.2807(3) 0.1614(3) 0.39926(17)
C36 C 0.2428(3) 0.3655(3) 0.38808(18)
C37 C 0.2347(3) 0.4496(3) 0.3475(2)
C38 C 0.1048(3) 0.4076(3) 0.1455(2)
C39 C 0.0729(3) 0.3118(3) 0.12225(17)
C10F C 0.4852(3) 0.2970(4) 0.2485(2)
C11F C 0.4614(3) 0.3833(3) 0.2800(2)
C12F C 0.4555(3) 0.3524(3) 0.33997(19)
C13F C 0.4751(3) 0.2484(3) 0.34579(18)
C14F C 0.4934(3) 0.2137(4) 0.2890(2)
C15F C 0.4464(3) 0.2846(4) 0.1875(2)
C16F C 0.3826(3) 0.3569(4) 0.15524(19)
C17F C 0.3100(3) 0.3053(4) 0.11185(17)
C18F C 0.3297(3) 0.2014(4) 0.11723(18)
C19F C 0.4142(3) 0.1877(4) 0.1643(2)
C20F C 0.3994(3) 0.4523(3) 0.2485(2)
C21F C 0.3593(3) 0.4391(3) 0.1852(2)
C22F C 0.2637(3) 0.4734(3) 0.1730(2)
C23F C 0.2451(4) 0.5083(3) 0.2299(2)
C24F C 0.3296(3) 0.4954(3) 0.2762(2)
C25F C 0.4630(3) 0.1219(4) 0.2676(2)
C26F C 0.4218(3) 0.1089(4) 0.2028(2)
C27F C 0.3466(3) 0.0385(3) 0.1974(2)
C28F C 0.3409(3) 0.0082(3) 0.2572(2)
C29F C 0.4129(3) 0.0595(3) 0.3007(2)
C30F C 0.3379(3) 0.3309(3) 0.40018(17)
C31F C 0.3562(3) 0.2309(3) 0.40570(17)
C32F C 0.3888(3) 0.3936(3) 0.36655(19)
C33F C 0.3238(3) 0.4664(3) 0.3342(2)
C34F C 0.1952(3) 0.4243(3) 0.13183(19)
C35F C 0.2193(3) 0.3386(3) 0.10074(17)
C36F C 0.2572(3) 0.1345(3) 0.11192(18)
C37F C 0.2653(3) 0.0504(3) 0.1525(2)
C38F C 0.3952(3) 0.0924(3) 0.3545(2)
C39F C 0.4271(3) 0.1882(3) 0.37775(17)
loop_
_geom_bond_atom_site_label_1
_geom_bond_atom_site_label_2
_geom_bond_site_symmetry_1
_geom_bond_site_symmetry_2
C1 C2 1_555 1_555
C2 C3 1_555 1_555
C3 H1 1_555 1_555
C4 C3 1_555 1_555
C5 C4 1_555 1_555
C6 C1 1_555 1_555
H2 C6 1_555 1_555
C7 S1 1_555 1_555
C8 H3 1_555 1_555
H4 C8 1_555 1_555
H5 C8 1_555 1_555
C9 H6 1_555 1_555
H7 C9 1_555 1_555
H8 C9 1_555 1_555
O1 C4 1_555 1_555
O2 C5 1_555 1_555
S1 C1 1_555 1_555
S2 C7 1_555 1_555
C10 C11 1_555 1_555
C11 C12 1_555 1_555
C12 C13 1_555 1_555
C13 C14 1_555 1_555
C14 C10 1_555 1_555
C15 C10 1_555 1_555
C16 C15 1_555 1_555
C17 C16 1_555 1_555
C18 C17 1_555 1_555
C19 C15 1_555 1_555
C20 C11 1_555 1_555
C21 C16 1_555 1_555
C22 C21 1_555 1_555
C23 C22 1_555 1_555
C24 C20 1_555 1_555
C25 C14 1_555 1_555
C26 C19 1_555 1_555
C27 C26 1_555 1_555
C28 C27 1_555 1_555
C29 C25 1_555 1_555
C30 C31 1_555 1_555
C31 C39 1_555 1_555
C32 C12 1_555 1_555
C33 C24 1_555 1_555
C34 C22 1_555 1_555
C35 C17 1_555 1_555
C36 C18 1_555 1_555
C37 C27 1_555 1_555
C38 C29 1_555 1_555
C39 C13 1_555 1_555
C1D C2D 1_555 1_555
C2D S2 1_555 1_555
C3D C2D 1_555 1_555
H1D C3D 1_555 1_555
C4D C3D 1_555 1_555
C5D C4D 1_555 1_555
C6D C1D 1_555 1_555
H2D C6D 1_555 1_555
C7D C7 1_555 1_555
C8D H3D 1_555 1_555
H4D C8D 1_555 1_555
H5D C8D 1_555 1_555
C9D H6D 1_555 1_555
H7D C9D 1_555 1_555
H8D C9D 1_555 1_555
O1D C4D 1_555 1_555
O2D C5D 1_555 1_555
S1D C1D 1_555 1_555
S2D C2 1_555 1_555
C10F C11F 1_555 1_555
C11F C12F 1_555 1_555
C12F C13F 1_555 1_555
C13F C14F 1_555 1_555
C14F C10F 1_555 1_555
C15F C10F 1_555 1_555
C16F C15F 1_555 1_555
C17F C16F 1_555 1_555
C18F C17F 1_555 1_555
C19F C15F 1_555 1_555
C20F C11F 1_555 1_555
C21F C16F 1_555 1_555
C22F C21F 1_555 1_555
C23F C28 1_555 1_555
C24F C20F 1_555 1_555
C25F C14F 1_555 1_555
C26F C19F 1_555 1_555
C27F C26F 1_555 1_555
C28F C23 1_555 1_555
C29F C25F 1_555 1_555
C30F C36 1_555 1_555
C31F C35 1_555 1_555
C32F C12F 1_555 1_555
C33F C37 1_555 1_555
C34F C38 1_555 1_555
C35F C31 1_555 1_555
C36F C30 1_555 1_555
C37F C33 1_555 1_555
C38F C34 1_555 1_555
C39F C13F 1_555 1_555
C5 C6 1_555 1_555
C8 O2 1_555 1_555
C9 O1 1_555 1_555
C18 C19 1_555 1_555
C20 C21 1_555 1_555
C23 C24 1_555 1_555
C25 C26 1_555 1_555
C28 C29 1_555 1_555
C30 C32 1_555 1_555
C32 C33 1_555 1_555
C34 C35 1_555 1_555
C36 C37 1_555 1_555
C38 C39 1_555 1_555
C5D C6D 1_555 1_555
C7D S1D 1_555 1_555
C7D S2D 1_555 1_555
C8D O2D 1_555 1_555
C9D O1D 1_555 1_555
C17F C35F 1_555 1_555
C18F C19F 1_555 1_555
C18F C36F 1_555 1_555
C20F C21F 1_555 1_555
C22F C23F 1_555 1_555
C22F C34F 1_555 1_555
C23F C24F 1_555 1_555
C24F C33F 1_555 1_555
C25F C26F 1_555 1_555
C27F C28F 1_555 1_555
C27F C37F 1_555 1_555
C28F C29F 1_555 1_555
C29F C38F 1_555 1_555
C30F C31F 1_555 1_555
C30F C32F 1_555 1_555
C31F C39F 1_555 1_555
C32F C33F 1_555 1_555
C34F C35F 1_555 1_555
C36F C37F 1_555 1_555
C38F C39F 1_555 1_555

#END
