
#######################################################################
#
#                 Cambridge Crystallographic Data Centre
#                                CCDC 
#
#######################################################################
#
# If this CIF has been generated from an entry in the Cambridge 
# Structural Database, then it will include bibliographic, chemical, 
# crystal, experimental, refinement or atomic coordinate data resulting 
# from the CCDC's data processing and validation procedures.
#
#######################################################################

data_ASOVIP
_chemical_formula_moiety         'C18 H12 N2 O6,2(C5 H9 N1 O1)'
_chemical_name_systematic        
'4-((2-((4-carboxyphenyl)amino)-3,4-dioxocyclobut-1-en-1-yl)amino)benzoic acid 1-methylpyrrolidin-2-one solvate'
_symmetry_cell_setting           triclinic
_symmetry_space_group_name_H-M   'P -1'
_symmetry_Int_Tables_number      2
_space_group_name_Hall           '-P 1'
loop_
_symmetry_equiv_pos_site_id
_symmetry_equiv_pos_as_xyz
1 x,y,z
2 -x,-y,-z
_cell_length_a                   6.98900(10)
_cell_length_b                   11.5447(2)
_cell_length_c                   17.1361(3)
_cell_angle_alpha                87.1034(13)
_cell_angle_beta                 87.0287(14)
_cell_angle_gamma                73.1174(13)
_cell_volume                     1320.36
_exptl_crystal_colour            yellow
_exptl_crystal_description       Prism
_cell_formula_units_Z            2
loop_
_atom_site_label
_atom_site_type_symbol
_atom_site_fract_x
_atom_site_fract_y
_atom_site_fract_z
O1 O 0.4979(2) 0.35773(14) 0.29953(8)
N1 N 0.7966(2) 0.47717(15) -0.04604(9)
H1 H 0.8346 0.4061 -0.0676
O2 O 1.3717(2) 0.33624(15) -0.55219(8)
H2 H 1.4228 0.3426 -0.5971
O3 O 0.4496(2) 0.55839(14) 0.30201(8)
H3 H 0.4077 0.5477 0.3479
O4 O 1.3174(2) 0.53785(14) -0.55721(8)
C1 C 0.5868(3) 0.46209(19) 0.18632(11)
O5 O 0.7233(3) 0.78228(14) -0.04224(9)
O6 O 0.8639(2) 0.78185(14) -0.22251(9)
N2 N 0.9406(2) 0.47462(15) -0.21828(9)
H4 H 0.9243 0.4062 -0.1984
C2 C 0.6702(3) 0.58004(19) 0.07611(11)
H5 H 0.6801 0.6553 0.0539
C3 C 0.7260(3) 0.47670(18) 0.03182(11)
C4 C 1.1422(3) 0.5610(2) -0.40861(12)
H6 H 1.1592 0.6308 -0.4365
C5 C 0.7129(3) 0.36591(19) 0.06512(11)
H7 H 0.7507 0.2955 0.0349
C6 C 0.8145(3) 0.57138(18) -0.09278(11)
C7 C 0.6005(3) 0.57227(19) 0.15256(12)
H8 H 0.5612 0.6429 0.1826
C8 C 0.6449(3) 0.35881(19) 0.14191(11)
H9 H 0.6377 0.2833 0.1645
C9 C 1.0513(3) 0.5726(2) -0.33478(12)
H10 H 1.0064 0.6496 -0.3118
C10 C 1.0264(3) 0.47002(19) -0.29447(11)
C11 C 0.8802(3) 0.56986(19) -0.17176(11)
C12 C 1.2092(3) 0.4489(2) -0.44292(11)
C13 C 0.5088(3) 0.45411(19) 0.26749(11)
C14 C 1.1821(3) 0.3463(2) -0.40240(12)
H11 H 1.2265 0.2694 -0.4254
C15 C 1.0898(3) 0.3574(2) -0.32836(12)
H12 H 1.0700 0.2881 -0.3008
C16 C 0.7801(3) 0.70305(19) -0.08960(12)
C17 C 1.3038(3) 0.4449(2) -0.52216(11)
C18 C 0.8483(3) 0.70307(19) -0.17523(12)
O7 O 0.8935(2) 0.26744(13) -0.13452(8)
N3 N 0.9305(3) 0.06624(19) -0.11579(18)
C19 C 1.2246(3) 0.1177(2) -0.14006(14)
H13 H 1.2863 0.1394 -0.0943
H14 H 1.2721 0.1542 -0.1880
C20 C 1.0021(3) 0.16003(19) -0.13146(13)
C21 C 1.2768(4) -0.0201(3) -0.1454(2)
H15 H 1.3905 -0.0614 -0.1123
H16 H 1.3117 -0.0448 -0.2000
C22 C 0.7213(4) 0.0746(3) -0.1043(3)
H17 H 0.6436 0.1598 -0.0997
H18 H 0.7012 0.0288 -0.0564
H19 H 0.6767 0.0410 -0.1491
C23 C 1.0846(4) -0.0502(3) -0.1153(3)
H20 H 1.0509 -0.1067 -0.1501
H21 H 1.1003 -0.0872 -0.0617
C24 C 0.7880(16) 0.9388(13) -0.4095(7)
H22 H 0.7796 0.8677 -0.4329
N4 N 0.9623(9) 0.9620(7) -0.3850(3)
C25 C 1.1660(15) 0.8816(13) -0.3970(9)
H23 H 1.1843 0.8538 -0.4507
H24 H 1.1871 0.8117 -0.3602
H25 H 1.2629 0.9258 -0.3881
C26 C 0.6156(12) 1.0509(9) -0.3909(6)
H26 H 0.4921 1.0291 -0.3746
H27 H 0.5880 1.1090 -0.4363
C27 C 0.9265(19) 1.0539(8) -0.3347(5)
O8 O 1.048(2) 1.0815(15) -0.3008(8)
C28 C 0.6953(17) 1.1028(10) -0.3233(8)
H28 H 0.6494 1.0743 -0.2723
H29 H 0.6509 1.1925 -0.3263
N5? N 0.8069(13) 1.0603(5) -0.3632(4)
C29? C 0.8974(15) 0.8812(7) -0.4311(4)
H30? H 0.9123 0.9013 -0.4875
H31? H 0.8852 0.7979 -0.4250
C30? C 1.0050(18) 1.0143(11) -0.3551(7)
O9? O 1.107(2) 1.0758(17) -0.3253(10)
C31? C 0.714(2) 0.9715(13) -0.3944(8)
H32? H 0.6146 1.0101 -0.4339
H33? H 0.6499 0.9326 -0.3521
C32? C 0.6865(14) 1.1749(9) -0.3379(7)
H34? H 0.6402 1.2285 -0.3835
H35? H 0.7655 1.2107 -0.3060
H36? H 0.5708 1.1645 -0.3066
C33? C 1.0777(19) 0.8919(10) -0.3873(6)
H37? H 1.1139 0.8287 -0.3450
H38? H 1.1954 0.8851 -0.4234
loop_
_geom_bond_atom_site_label_1
_geom_bond_atom_site_label_2
_geom_bond_site_symmetry_1
_geom_bond_site_symmetry_2
O1 C13 1_555 1_555
N1 H1 1_555 1_555
O2 H2 1_555 1_555
O3 H3 1_555 1_555
O4 C17 1_555 1_555
C1 C7 1_555 1_555
O5 C16 1_555 1_555
O6 C18 1_555 1_555
N2 H4 1_555 1_555
C2 H5 1_555 1_555
C3 N1 1_555 1_555
C4 H6 1_555 1_555
C5 C3 1_555 1_555
H7 C5 1_555 1_555
C6 N1 1_555 1_555
C7 C2 1_555 1_555
H8 C7 1_555 1_555
C8 C1 1_555 1_555
H9 C8 1_555 1_555
C9 C4 1_555 1_555
H10 C9 1_555 1_555
C10 N2 1_555 1_555
C11 N2 1_555 1_555
C12 C4 1_555 1_555
C13 O3 1_555 1_555
C14 C12 1_555 1_555
H11 C14 1_555 1_555
C15 C10 1_555 1_555
H12 C15 1_555 1_555
C16 C6 1_555 1_555
C17 O2 1_555 1_555
C18 C11 1_555 1_555
O7 C20 1_555 1_555
N3 C20 1_555 1_555
C19 H13 1_555 1_555
H14 C19 1_555 1_555
C20 C19 1_555 1_555
C21 C19 1_555 1_555
H15 C21 1_555 1_555
H16 C21 1_555 1_555
C22 N3 1_555 1_555
H17 C22 1_555 1_555
H18 C22 1_555 1_555
H19 C22 1_555 1_555
C23 N3 1_555 1_555
H20 C23 1_555 1_555
H21 C23 1_555 1_555
C24 H22 1_555 1_555
N4 C24 1_555 1_555
C25 N4 1_555 1_555
H23 C25 1_555 1_555
H24 C25 1_555 1_555
H25 C25 1_555 1_555
C26 C24 1_555 1_555
H26 C26 1_555 1_555
H27 C26 1_555 1_555
C27 N4 1_555 1_555
O8 C27 1_555 1_555
C28 C26 1_555 1_555
H28 C28 1_555 1_555
H29 C28 1_555 1_555
C1 C13 1_555 1_555
C2 C3 1_555 1_555
C5 C8 1_555 1_555
C6 C11 1_555 1_555
C9 C10 1_555 1_555
C12 C17 1_555 1_555
C14 C15 1_555 1_555
C16 C18 1_555 1_555
C21 C23 1_555 1_555
C27 C28 1_555 1_555

#END
