
#######################################################################
#
#                 Cambridge Crystallographic Data Centre
#                                CCDC 
#
#######################################################################
#
# If this CIF has been generated from an entry in the Cambridge 
# Structural Database, then it will include bibliographic, chemical, 
# crystal, experimental, refinement or atomic coordinate data resulting 
# from the CCDC's data processing and validation procedures.
#
#######################################################################

data_ASOWAI
_chemical_name_common            
'tetra-n-butylammonium cis-2,12-bis(3,5-dinitrophenyl)-2,7,7,12,17,17-hexamethylcalix[4]pyrrole bromide'
_chemical_formula_moiety         'C38 H36 N8 O8,Br1 1-,C16 H36 N1 1+'
_chemical_name_systematic        
'tetra-n-butylammonium 5,15-bis(3,5-dinitrophenyl)-5,10,10,15,20,20-hexamethyl-5,10,15,20,22,24-hexahydroporphyrin bromide'
_symmetry_cell_setting           monoclinic
_symmetry_space_group_name_H-M   'P 21/n'
_symmetry_Int_Tables_number      14
_space_group_name_Hall           '-P 2yn'
loop_
_symmetry_equiv_pos_site_id
_symmetry_equiv_pos_as_xyz
1 x,y,z
2 1/2-x,1/2+y,1/2-z
3 -x,-y,-z
4 1/2+x,1/2-y,1/2+z
_cell_length_a                   12.865(3)
_cell_length_b                   18.623(5)
_cell_length_c                   22.483(6)
_cell_angle_alpha                90
_cell_angle_beta                 90.143(4)
_cell_angle_gamma                90
_cell_volume                     5386.57
_exptl_crystal_colour            orange
_exptl_crystal_description       Block
_cell_formula_units_Z            4
loop_
_atom_site_label
_atom_site_type_symbol
_atom_site_fract_x
_atom_site_fract_y
_atom_site_fract_z
Br1 Br 0.95802(8) 0.75814(6) 0.13111(5)
C1 C 0.8714(4) 0.6645(3) 0.2950(2)
C2 C 0.7984(4) 0.6608(3) 0.3396(2)
H1 H 0.7928 0.6243 0.3689
C3 C 0.7325(4) 0.7224(3) 0.3336(2)
H2 H 0.6750 0.7338 0.3583
C4 C 0.7662(4) 0.7619(3) 0.2865(2)
C5 C 0.7203(4) 0.8275(3) 0.2564(2)
C6 C 0.6842(4) 0.8075(3) 0.1921(2)
H3 H 0.7449 0.7957 0.1678
H4 H 0.6473 0.8483 0.1744
H5 H 0.6376 0.7659 0.1938
C7 C 0.6245(4) 0.8511(3) 0.2926(3)
H6 H 0.5744 0.8115 0.2942
H7 H 0.5921 0.8928 0.2734
H8 H 0.6461 0.8639 0.3330
C8 C 0.7959(4) 0.8888(3) 0.2539(2)
C9 C 0.7952(5) 0.9537(3) 0.2832(3)
H9 H 0.7473 0.9678 0.3131
C10 C 0.8788(5) 0.9963(3) 0.2610(3)
H10 H 0.8958 1.0439 0.2729
C11 C 0.9290(4) 0.9567(3) 0.2200(2)
C12 C 1.0227(4) 0.9747(3) 0.1804(2)
C13 C 1.0411(5) 1.0557(3) 0.1805(2)
H11 H 0.9792 1.0802 0.1651
H12 H 1.1009 1.0670 0.1553
H13 H 1.0549 1.0719 0.2213
C14 C 0.9968(4) 0.9520(3) 0.1156(2)
C15 C 0.8953(4) 0.9608(3) 0.0936(2)
H14 H 0.8428 0.9814 0.1179
C16 C 0.8727(4) 0.9390(3) 0.0363(2)
C17 C 0.9443(5) 0.9094(3) -0.0010(2)
H15 H 0.9264 0.8940 -0.0400
C18 C 1.0457(4) 0.9030(3) 0.0214(2)
C19 C 1.0727(4) 0.9238(3) 0.0787(2)
H16 H 1.1422 0.9187 0.0925
C20 C 1.1192(4) 0.9360(3) 0.2022(2)
C21 C 1.2119(4) 0.9622(3) 0.2243(3)
H17 H 1.2285 1.0113 0.2307
C22 C 1.2778(4) 0.9033(3) 0.2355(3)
H18 H 1.3463 0.9059 0.2513
C23 C 1.2262(4) 0.8412(3) 0.2199(2)
C24 C 1.2622(4) 0.7643(3) 0.2173(3)
C25 C 1.3780(5) 0.7610(4) 0.2370(3)
H19 H 1.3834 0.7738 0.2792
H20 H 1.4188 0.7948 0.2133
H21 H 1.4046 0.7122 0.2311
C26 C 1.2566(5) 0.7372(3) 0.1520(3)
H22 H 1.2848 0.6883 0.1498
H23 H 1.2975 0.7690 0.1265
H24 H 1.1841 0.7370 0.1386
C27 C 1.2003(4) 0.7144(3) 0.2557(2)
C28 C 1.2267(5) 0.6770(3) 0.3071(3)
H25 H 1.2913 0.6798 0.3276
C29 C 1.1415(4) 0.6344(3) 0.3235(2)
H26 H 1.1385 0.6034 0.3570
C30 C 1.0627(4) 0.6452(3) 0.2827(2)
C31 C 0.9550(4) 0.6119(3) 0.2773(2)
C32 C 0.9488(5) 0.5447(3) 0.3178(2)
H27 H 1.0016 0.5099 0.3056
H28 H 0.8796 0.5230 0.3142
H29 H 0.9611 0.5588 0.3592
C33 C 0.9385(4) 0.5863(3) 0.2130(2)
C34 C 0.8443(4) 0.5975(3) 0.1825(2)
H30 H 0.7887 0.6224 0.2010
C35 C 0.8337(4) 0.5718(3) 0.1255(2)
C36 C 0.9091(4) 0.5341(3) 0.0955(2)
H31 H 0.8993 0.5171 0.0560
C37 C 1.0014(4) 0.5226(3) 0.1273(2)
C38 C 1.0164(4) 0.5486(3) 0.1844(2)
H32 H 1.0807 0.5404 0.2042
N1 N 0.8523(3) 0.7263(2) 0.26335(19)
H33 H 0.8892 0.7413 0.2329
N2 N 0.8798(3) 0.8907(2) 0.21576(18)
H34 H 0.8990 0.8554 0.1923
N3 N 1.1290(3) 0.8618(2) 0.19959(19)
H35 H 1.0805 0.8321 0.1869
N4 N 1.0988(3) 0.6944(2) 0.24231(19)
H36 H 1.0626 0.7110 0.2120
N5 N 1.0837(4) 0.4826(3) 0.0979(2)
N6 N 0.7316(4) 0.5824(3) 0.09539(19)
N7 N 0.7656(4) 0.9459(3) 0.0142(2)
N8 N 1.1242(4) 0.8687(3) -0.0166(2)
O1 O 1.0698(4) 0.4604(3) 0.04747(18)
O2 O 1.1642(4) 0.4713(4) 0.1253(2)
O3 O 0.6711(3) 0.6259(2) 0.11706(18)
O4 O 0.7137(3) 0.5474(2) 0.05056(19)
O5 O 0.7007(4) 0.9754(3) 0.0469(2)
O6 O 0.7449(4) 0.9225(3) -0.0355(2)
O7 O 1.2082(4) 0.8536(4) 0.0064(2)
O8 O 1.1015(4) 0.8570(3) -0.0680(2)
C39 C 0.4403(5) 0.6553(3) 0.9831(3)
H37 H 0.4558 0.6034 0.9796
H38 H 0.4509 0.6689 1.0252
C40 C 0.3267(5) 0.6665(4) 0.9678(3)
H39 H 0.3131 0.6494 0.9269
H40 H 0.3101 0.7183 0.9696
C41 C 0.2579(5) 0.6257(3) 1.0113(3)
H41 H 0.2782 0.6380 1.0526
H42 H 0.2681 0.5734 1.0058
C42 C 0.1438(6) 0.6443(4) 1.0016(3)
H43 H 0.1328 0.6954 1.0098
H44 H 0.1007 0.6155 1.0285
H45 H 0.1244 0.6339 0.9603
C43 C 0.4913(5) 0.7754(3) 0.9459(3)
H46 H 0.4243 0.7818 0.9248
H47 H 0.5450 0.8017 0.9231
C44 C 0.4826(5) 0.8095(4) 1.0074(3)
H48 H 0.5487 0.8024 1.0293
H49 H 0.4268 0.7852 1.0300
C45 C 0.4586(5) 0.8898(3) 1.0037(3)
H50 H 0.5178 0.9148 0.9847
H51 H 0.3965 0.8972 0.9784
C46 C 0.4392(6) 0.9221(4) 1.0649(3)
H52 H 0.3798 0.8980 1.0834
H53 H 0.4242 0.9734 1.0608
H54 H 0.5011 0.9156 1.0898
C47 C 0.6247(5) 0.6839(3) 0.9732(3)
H55 H 0.6393 0.6317 0.9730
H56 H 0.6223 0.6996 1.0152
C48 C 0.7146(5) 0.7225(3) 0.9427(3)
H57 H 0.7172 0.7082 0.9003
H58 H 0.7032 0.7750 0.9445
C49 C 0.8163(5) 0.7042(4) 0.9723(3)
H59 H 0.8196 0.6518 0.9793
H60 H 0.8200 0.7286 1.0114
C50 C 0.9091(6) 0.7270(5) 0.9345(5)
H61 H 0.9099 0.6991 0.8976
H62 H 0.9736 0.7184 0.9567
H63 H 0.9034 0.7783 0.9250
C51 C 0.5164(5) 0.6707(3) 0.8804(2)
H64 H 0.4427 0.6664 0.8681
H65 H 0.5481 0.7088 0.8557
C52 C 0.5707(5) 0.6000(4) 0.8659(3)
H66 H 0.5698 0.5945 0.8221
H67 H 0.6444 0.6051 0.8779
C53 C 0.5311(6) 0.5305(3) 0.8921(3)
H68 H 0.4549 0.5278 0.8862
H69 H 0.5448 0.5305 0.9355
C54 C 0.5814(6) 0.4648(4) 0.8645(3)
H70 H 0.5697 0.4651 0.8215
H71 H 0.5507 0.4213 0.8817
H72 H 0.6563 0.4654 0.8727
N9 N 0.5186(4) 0.6962(3) 0.9456(2)
loop_
_geom_bond_atom_site_label_1
_geom_bond_atom_site_label_2
_geom_bond_site_symmetry_1
_geom_bond_site_symmetry_2
C1 C2 1_555 1_555
C2 H1 1_555 1_555
C3 C2 1_555 1_555
H2 C3 1_555 1_555
C4 C3 1_555 1_555
C5 C4 1_555 1_555
C6 C5 1_555 1_555
H3 C6 1_555 1_555
H4 C6 1_555 1_555
H5 C6 1_555 1_555
C7 C5 1_555 1_555
H6 C7 1_555 1_555
H7 C7 1_555 1_555
H8 C7 1_555 1_555
C8 C5 1_555 1_555
C9 C8 1_555 1_555
H9 C9 1_555 1_555
C10 C9 1_555 1_555
H10 C10 1_555 1_555
C11 C10 1_555 1_555
C12 C11 1_555 1_555
C13 C12 1_555 1_555
H11 C13 1_555 1_555
H12 C13 1_555 1_555
H13 C13 1_555 1_555
C14 C12 1_555 1_555
C15 C14 1_555 1_555
H14 C15 1_555 1_555
C16 C15 1_555 1_555
C17 C16 1_555 1_555
H15 C17 1_555 1_555
C18 C17 1_555 1_555
C19 C14 1_555 1_555
H16 C19 1_555 1_555
C20 C12 1_555 1_555
C21 C20 1_555 1_555
H17 C21 1_555 1_555
C22 C21 1_555 1_555
H18 C22 1_555 1_555
C23 C22 1_555 1_555
C24 C23 1_555 1_555
C25 C24 1_555 1_555
H19 C25 1_555 1_555
H20 C25 1_555 1_555
H21 C25 1_555 1_555
C26 C24 1_555 1_555
H22 C26 1_555 1_555
H23 C26 1_555 1_555
H24 C26 1_555 1_555
C27 C24 1_555 1_555
C28 C27 1_555 1_555
H25 C28 1_555 1_555
C29 C28 1_555 1_555
H26 C29 1_555 1_555
C30 C29 1_555 1_555
C31 C1 1_555 1_555
C32 C31 1_555 1_555
H27 C32 1_555 1_555
H28 C32 1_555 1_555
H29 C32 1_555 1_555
C33 C31 1_555 1_555
C34 C33 1_555 1_555
H30 C34 1_555 1_555
C35 C34 1_555 1_555
C36 C35 1_555 1_555
H31 C36 1_555 1_555
C37 C36 1_555 1_555
C38 C33 1_555 1_555
H32 C38 1_555 1_555
N1 C1 1_555 1_555
H33 N1 1_555 1_555
N2 C8 1_555 1_555
H34 N2 1_555 1_555
N3 C20 1_555 1_555
H35 N3 1_555 1_555
N4 C27 1_555 1_555
H36 N4 1_555 1_555
N5 C37 1_555 1_555
N6 C35 1_555 1_555
N7 C16 1_555 1_555
N8 C18 1_555 1_555
O1 N5 1_555 1_555
O2 N5 1_555 1_555
O3 N6 1_555 1_555
O4 N6 1_555 1_555
O5 N7 1_555 1_555
O6 N7 1_555 1_555
O7 N8 1_555 1_555
O8 N8 1_555 1_555
C39 H37 1_555 1_555
H38 C39 1_555 1_555
C40 C39 1_555 1_555
H39 C40 1_555 1_555
H40 C40 1_555 1_555
C41 C40 1_555 1_555
H41 C41 1_555 1_555
H42 C41 1_555 1_555
C42 C41 1_555 1_555
H43 C42 1_555 1_555
H44 C42 1_555 1_555
H45 C42 1_555 1_555
C43 H46 1_555 1_555
H47 C43 1_555 1_555
C44 C43 1_555 1_555
H48 C44 1_555 1_555
H49 C44 1_555 1_555
C45 C44 1_555 1_555
H50 C45 1_555 1_555
H51 C45 1_555 1_555
C46 C45 1_555 1_555
H52 C46 1_555 1_555
H53 C46 1_555 1_555
H54 C46 1_555 1_555
C47 H55 1_555 1_555
H56 C47 1_555 1_555
C48 C47 1_555 1_555
H57 C48 1_555 1_555
H58 C48 1_555 1_555
C49 C48 1_555 1_555
H59 C49 1_555 1_555
H60 C49 1_555 1_555
C50 C49 1_555 1_555
H61 C50 1_555 1_555
H62 C50 1_555 1_555
H63 C50 1_555 1_555
C51 H64 1_555 1_555
H65 C51 1_555 1_555
C52 C51 1_555 1_555
H66 C52 1_555 1_555
H67 C52 1_555 1_555
C53 C52 1_555 1_555
H68 C53 1_555 1_555
H69 C53 1_555 1_555
C54 C53 1_555 1_555
H70 C54 1_555 1_555
H71 C54 1_555 1_555
H72 C54 1_555 1_555
N9 C39 1_555 1_555
C4 N1 1_555 1_555
C11 N2 1_555 1_555
C18 C19 1_555 1_555
C23 N3 1_555 1_555
C30 C31 1_555 1_555
C30 N4 1_555 1_555
C37 C38 1_555 1_555
C43 N9 1_555 1_555
C47 N9 1_555 1_555
C51 N9 1_555 1_555

#END
