
#######################################################################
#
#                 Cambridge Crystallographic Data Centre
#                                CCDC 
#
#######################################################################
#
# If this CIF has been generated from an entry in the Cambridge 
# Structural Database, then it will include bibliographic, chemical, 
# crystal, experimental, refinement or atomic coordinate data resulting 
# from the CCDC's data processing and validation procedures.
#
#######################################################################

data_ASOWIQ
_chemical_name_common            
'tetra-n-butylammonium cis-2,12-bis(3,5-dinitrophenyl)-2,7,7,12,17,17-hexamethylcalix[4]pyrrole iodide diethyl ether solvate'
_chemical_formula_moiety         
'C38 H36 N8 O8,I1 1-,C16 H36 N1 1+,x(C4 H10 O1)'
_chemical_name_systematic        
'tetra-n-butylammonium 5,15-bis(3,5-dinitrophenyl)-5,10,10,15,20,20-hexamethyl-5,10,15,20,22,24-hexahydroporphyrin iodide diethyl ether solvate'
_symmetry_cell_setting           orthorhombic
_symmetry_space_group_name_H-M   'P c a 21'
_symmetry_Int_Tables_number      29
_space_group_name_Hall           'P 2c -2ac'
loop_
_symmetry_equiv_pos_site_id
_symmetry_equiv_pos_as_xyz
1 x,y,z
2 -x,-y,1/2+z
3 1/2-x,y,1/2+z
4 1/2+x,-y,z
_cell_length_a                   21.335(12)
_cell_length_b                   15.168(8)
_cell_length_c                   37.948(19)
_cell_angle_alpha                90
_cell_angle_beta                 90
_cell_angle_gamma                90
_cell_volume                     12280.3
_exptl_crystal_colour            orange
_exptl_crystal_description       Block
_cell_formula_units_Z            8
loop_
_atom_site_label
_atom_site_type_symbol
_atom_site_fract_x
_atom_site_fract_y
_atom_site_fract_z
I1 I 0.48697(3) 0.23054(3) 0.409978(13)
C39 C 0.3324(5) 0.5210(8) 0.2307(3)
C40 C 0.3272(5) 0.4820(8) 0.2621(3)
H37 H 0.3608 0.4575 0.2748
C41 C 0.2639(7) 0.4826(9) 0.2737(3)
H38 H 0.2486 0.4608 0.2952
C42 C 0.2296(5) 0.5213(7) 0.2473(3)
C43 C 0.1604(4) 0.5413(6) 0.2433(2)
C44 C 0.1264(7) 0.5029(8) 0.2753(4)
H39 H 0.1381 0.4415 0.2781
H40 H 0.0815 0.5072 0.2717
H41 H 0.1381 0.5356 0.2962
C45 C 0.1471(4) 0.6396(6) 0.2427(2)
C46 C 0.0886(5) 0.6723(6) 0.2330(3)
H42 H 0.0558 0.6340 0.2267
C47 C 0.0800(6) 0.7646(7) 0.2329(3)
C48 C 0.1240(5) 0.8251(7) 0.2405(3)
H43 H 0.1155 0.8859 0.2397
C49 C 0.1806(5) 0.7940(8) 0.2492(3)
C50 C 0.1309(6) 0.4955(6) 0.2113(3)
C51 C 0.1050(5) 0.4153(7) 0.2074(3)
H44 H 0.0991 0.3727 0.2251
C52 C 0.0883(4) 0.4074(6) 0.1715(3)
H45 H 0.0687 0.3581 0.1613
C53 C 0.1048(5) 0.4815(7) 0.1542(3)
C54 C 0.0968(6) 0.5076(7) 0.1162(4)
C55 C 0.0428(4) 0.4566(8) 0.0998(3)
H46 H 0.0366 0.4761 0.0758
H47 H 0.0049 0.4670 0.1133
H48 H 0.0525 0.3941 0.1000
C56 C 0.0814(5) 0.6105(6) 0.1135(3)
H49 H 0.1183 0.6443 0.1200
H50 H 0.0473 0.6248 0.1294
H51 H 0.0695 0.6250 0.0896
C57 C 0.1528(6) 0.4911(7) 0.0941(3)
C58 C 0.1608(5) 0.4481(8) 0.0624(3)
H52 H 0.1287 0.4201 0.0496
C59 C 0.2261(5) 0.4523(9) 0.0516(3)
H53 H 0.2433 0.4272 0.0311
C60 C 0.2582(7) 0.4996(5) 0.0768(3)
C61 C 0.3254(5) 0.5235(8) 0.0789(3)
C62 C 0.3606(6) 0.4877(7) 0.0494(3)
H54 H 0.3647 0.4244 0.0521
H55 H 0.4020 0.5143 0.0487
H56 H 0.3387 0.5005 0.0275
C63 C 0.3313(4) 0.6302(5) 0.0760(2)
C64 C 0.2825(4) 0.6795(6) 0.0643(2)
H57 H 0.2452 0.6522 0.0570
C65 C 0.2882(5) 0.7729(5) 0.0631(3)
C66 C 0.3404(5) 0.8138(6) 0.0733(2)
H58 H 0.3430 0.8757 0.0735
C67 C 0.3907(4) 0.7619(7) 0.0836(3)
C68 C 0.3866(4) 0.6695(6) 0.0850(3)
H59 H 0.4212 0.6354 0.0920
C69 C 0.3561(7) 0.4956(7) 0.1146(4)
C70 C 0.3903(5) 0.4205(7) 0.1197(3)
H60 H 0.4002 0.3767 0.1031
C71 C 0.4076(4) 0.4240(7) 0.1563(3)
H61 H 0.4322 0.3816 0.1679
C72 C 0.3831(6) 0.4977(6) 0.1717(3)
C73 C 0.3898(4) 0.5369(8) 0.2074(3)
C74 C 0.4007(5) 0.6362(7) 0.2067(3)
H62 H 0.4366 0.6494 0.1920
H63 H 0.4084 0.6573 0.2304
H64 H 0.3638 0.6653 0.1972
C75 C 0.4458(6) 0.4954(9) 0.2268(3)
H65 H 0.4393 0.4323 0.2289
H66 H 0.4494 0.5212 0.2501
H67 H 0.4839 0.5065 0.2136
C76 C 0.1926(5) 0.7066(7) 0.2513(2)
H68 H 0.2327 0.6886 0.2586
N9 N 0.2725(4) 0.5422(5) 0.2206(2)
H69 H 0.2625 0.5653 0.2004
N10 N 0.3507(3) 0.5420(5) 0.14500(19)
H70 H 0.3303 0.5913 0.1475
N11 N 0.2138(4) 0.5221(6) 0.1022(2)
H71 H 0.2226 0.5522 0.1211
N12 N 0.1352(4) 0.5355(5) 0.1790(2)
H72 H 0.1535 0.5856 0.1746
N13 N 0.2329(4) 0.8258(7) 0.0547(3)
N14 N 0.4498(4) 0.8034(6) 0.0942(3)
N15 N 0.0150(6) 0.7944(8) 0.2225(3)
N16 N 0.2305(6) 0.8567(7) 0.2552(3)
O9 O 0.2787(5) 0.8267(6) 0.2657(4)
O10 O 0.2223(5) 0.9329(6) 0.2485(3)
O11 O -0.0292(6) 0.7391(7) 0.2220(4)
O12 O 0.0078(5) 0.8735(6) 0.2169(3)
O13 O 0.4935(6) 0.7614(6) 0.1049(5)
O14 O 0.4517(4) 0.8844(6) 0.0931(3)
O15 O 0.2370(4) 0.9035(5) 0.0553(3)
O16 O 0.1860(6) 0.7868(7) 0.0442(4)
I2 I 0.23695(3) 0.72857(3) 0.157749(13)
N17 N 0.4020(5) 0.5487(6) 0.4289(2)
C77 C 0.3768(6) 0.4548(7) 0.4291(4)
H73 H 0.3820 0.4305 0.4054
H74 H 0.4033 0.4198 0.4450
C78 C 0.3098(5) 0.4414(8) 0.4400(4)
H75 H 0.2823 0.4620 0.4210
H76 H 0.3012 0.4773 0.4609
C79 C 0.2938(6) 0.3419(9) 0.4485(5)
H77 H 0.3095 0.3047 0.4293
H78 H 0.3158 0.3246 0.4701
C80 C 0.2273(6) 0.3256(11) 0.4530(5)
H79 H 0.2119 0.3595 0.4729
H80 H 0.2204 0.2633 0.4573
H81 H 0.2051 0.3431 0.4318
C81 C 0.3556(5) 0.6108(7) 0.4103(4)
H82 H 0.3166 0.6119 0.4240
H83 H 0.3731 0.6705 0.4107
C82 C 0.3397(8) 0.5880(10) 0.3728(4)
H84 H 0.3150 0.5336 0.3729
H85 H 0.3788 0.5758 0.3602
C83 C 0.3015(11) 0.6617(16) 0.3512(7)
H86 H 0.3198 0.7202 0.3551
H87 H 0.3027 0.6488 0.3259
C84 C 0.2396(14) 0.659(3) 0.3636(10)
H88 H 0.2395 0.6410 0.3881
H89 H 0.2156 0.6174 0.3498
H90 H 0.2210 0.7172 0.3616
C85 C 0.4636(5) 0.5496(9) 0.4079(4)
H91 H 0.4556 0.5248 0.3845
H92 H 0.4768 0.6109 0.4047
C86 C 0.5168(7) 0.4994(10) 0.4245(4)
H93 H 0.5083 0.4360 0.4261
H94 H 0.5282 0.5225 0.4477
C87 C 0.5701(13) 0.524(2) 0.3936(7)
H95 H 0.5554 0.5050 0.3703
H96 H 0.5782 0.5871 0.3931
C88 C 0.6258(15) 0.477(2) 0.4030(9)
H97 H 0.6231 0.4165 0.3944
H98 H 0.6302 0.4761 0.4285
H99 H 0.6619 0.5054 0.3926
C89 C 0.4124(8) 0.5768(9) 0.4669(3)
H100 H 0.3725 0.5732 0.4796
H101 H 0.4417 0.5355 0.4781
C90 C 0.4379(10) 0.6682(12) 0.4702(5)
H102 H 0.4093 0.7094 0.4585
H103 H 0.4785 0.6713 0.4582
C91 C 0.4468(9) 0.6979(15) 0.5110(5)
H104 H 0.4424 0.7619 0.5135
H105 H 0.4162 0.6686 0.5262
C92 C 0.5081(9) 0.6706(15) 0.5190(6)
H106 H 0.5261 0.6409 0.4987
H107 H 0.5072 0.6305 0.5389
H108 H 0.5334 0.7217 0.5248
N18 N 0.1475(5) 0.0425(6) 0.1386(3)
C93 C 0.1210(6) -0.0498(7) 0.1391(4)
H109 H 0.1215 -0.0708 0.1635
H110 H 0.1493 -0.0878 0.1256
C94 C 0.0549(7) -0.0622(8) 0.1246(4)
H111 H 0.0527 -0.0374 0.1008
H112 H 0.0252 -0.0297 0.1395
C95 C 0.0355(8) -0.1593(9) 0.1233(5)
H113 H 0.0622 -0.1897 0.1062
H114 H 0.0435 -0.1857 0.1465
C96 C -0.0268(9) -0.1741(17) 0.1144(9)
H115 H -0.0507 -0.1869 0.1355
H116 H -0.0294 -0.2238 0.0984
H117 H -0.0438 -0.1220 0.1031
C97 C 0.2089(6) 0.0475(8) 0.1586(4)
H118 H 0.2208 0.1095 0.1612
H119 H 0.2027 0.0232 0.1823
C98 C 0.2618(8) -0.0012(12) 0.1412(6)
H120 H 0.2723 0.0299 0.1194
H121 H 0.2465 -0.0598 0.1346
C99 C 0.3242(8) -0.0133(13) 0.1632(5)
H122 H 0.3159 -0.0521 0.1833
H123 H 0.3559 -0.0418 0.1484
C100 C 0.3468(14) 0.0639(17) 0.1751(9)
H124 H 0.3787 0.0530 0.1927
H125 H 0.3130 0.0980 0.1854
H126 H 0.3649 0.0966 0.1556
C101 C 0.1527(7) 0.0744(9) 0.1010(3)
H127 H 0.1110 0.0701 0.0903
H128 H 0.1798 0.0329 0.0883
C102 C 0.1776(11) 0.1681(11) 0.0938(4)
H129 H 0.2119 0.1795 0.1104
H130 H 0.1440 0.2100 0.0993
C103 C 0.2024(13) 0.189(2) 0.0550(6)
H131 H 0.1694 0.1725 0.0384
H132 H 0.2078 0.2532 0.0532
C104 C 0.2569(15) 0.150(2) 0.0440(10)
H133 H 0.2821 0.1347 0.0643
H134 H 0.2801 0.1914 0.0293
H135 H 0.2472 0.0978 0.0305
C105 C 0.1033(7) 0.1086(8) 0.1571(3)
H136 H 0.1231 0.1670 0.1564
H137 H 0.0645 0.1122 0.1434
C106 C 0.0862(8) 0.0880(10) 0.1953(4)
H138 H 0.1232 0.0932 0.2105
H139 H 0.0697 0.0280 0.1973
C107 C 0.0350(8) 0.1572(12) 0.2063(5)
H140 H 0.0370 0.1673 0.2318
H141 H 0.0429 0.2134 0.1944
C108 C -0.0242(10) 0.1263(14) 0.1973(6)
H142 H -0.0222 0.0976 0.1745
H143 H -0.0533 0.1754 0.1962
H144 H -0.0383 0.0844 0.2149
C1 C 0.3841(6) 0.0014(6) 0.3538(4)
C2 C 0.3518(5) -0.0790(7) 0.3582(3)
H1 H 0.3423 -0.1189 0.3400
C3 C 0.3361(5) -0.0904(7) 0.3932(3)
H2 H 0.3154 -0.1393 0.4031
C4 C 0.3565(5) -0.0161(6) 0.4113(4)
C5 C 0.3469(6) 0.0090(7) 0.4496(3)
C6 C 0.3287(5) 0.1095(7) 0.4520(3)
H3 H 0.3638 0.1453 0.4442
H4 H 0.3184 0.1243 0.4761
H5 H 0.2927 0.1208 0.4370
C7 C 0.2899(4) -0.0410(7) 0.4650(3)
H6 H 0.2983 -0.1039 0.4648
H7 H 0.2531 -0.0288 0.4509
H8 H 0.2826 -0.0217 0.4891
C8 C 0.4071(6) -0.0089(7) 0.4724(4)
C9 C 0.4120(5) -0.0527(8) 0.5034(3)
H9 H 0.3799 -0.0809 0.5161
C10 C 0.4754(5) -0.0469(8) 0.5125(3)
H10 H 0.4937 -0.0720 0.5326
C11 C 0.5053(6) -0.0008(7) 0.4883(3)
C12 C 0.5750(4) 0.0288(7) 0.4863(2)
C13 C 0.6116(6) -0.0129(7) 0.5190(3)
H11 H 0.5925 0.0071 0.5408
H12 H 0.6551 0.0056 0.5184
H13 H 0.6094 -0.0767 0.5178
C14 C 0.5818(4) 0.1269(6) 0.4891(2)
C15 C 0.6378(4) 0.1692(6) 0.4792(2)
H14 H 0.6722 0.1359 0.4713
C16 C 0.6421(5) 0.2610(7) 0.4812(3)
C17 C 0.5944(4) 0.3158(6) 0.4925(2)
H15 H 0.5984 0.3774 0.4933
C18 C 0.5387(5) 0.2714(6) 0.5027(3)
C19 C 0.5304(4) 0.1817(6) 0.5013(3)
H16 H 0.4921 0.1562 0.5081
C20 C 0.6042(6) -0.0030(5) 0.4530(3)
C21 C 0.6389(4) -0.0774(7) 0.4439(3)
H17 H 0.6501 -0.1230 0.4595
C22 C 0.6549(5) -0.0741(6) 0.4078(3)
H18 H 0.6785 -0.1167 0.3956
C23 C 0.6306(6) 0.0005(6) 0.3938(4)
C24 C 0.6380(5) 0.0363(7) 0.3564(3)
C25 C 0.6967(7) -0.0050(8) 0.3410(4)
H19 H 0.6927 -0.0687 0.3414
H20 H 0.7328 0.0124 0.3549
H21 H 0.7022 0.0149 0.3169
C26 C 0.5802(6) 0.0196(7) 0.3354(3)
C27 C 0.5746(8) -0.0131(8) 0.3005(3)
H22 H 0.6071 -0.0348 0.2863
C28 C 0.5100(7) -0.0065(8) 0.2914(4)
H23 H 0.4924 -0.0237 0.2698
C29 C 0.4783(5) 0.0280(8) 0.3186(3)
C30 C 0.4095(5) 0.0476(6) 0.3216(3)
C31 C 0.3732(7) 0.0131(8) 0.2877(3)
H24 H 0.3925 0.0372 0.2667
H25 H 0.3297 0.0317 0.2889
H26 H 0.3751 -0.0508 0.2869
C32 C 0.3963(4) 0.1471(6) 0.3249(2)
C33 C 0.4431(6) 0.2078(8) 0.3185(3)
H27 H 0.4838 0.1895 0.3123
C34 C 0.4283(6) 0.2974(7) 0.3215(3)
C35 C 0.3701(6) 0.3284(7) 0.3323(2)
H28 H 0.3625 0.3890 0.3353
C36 C 0.3249(5) 0.2679(6) 0.3383(3)
N1 N 0.3850(3) 0.0377(5) 0.3875(2)
H29 H 0.4018 0.0884 0.3927
N2 N 0.4631(4) 0.0218(6) 0.4624(2)
H30 H 0.4713 0.0507 0.4432
N3 N 0.5995(3) 0.0431(5) 0.42043(19)
H31 H 0.5793 0.0924 0.4178
N4 N 0.5207(3) 0.0454(5) 0.34490(18)
H32 H 0.5111 0.0695 0.3650
N5 N 0.2636(5) 0.2959(7) 0.3498(3)
N6 N 0.4792(5) 0.3635(8) 0.3166(3)
N7 N 0.4854(5) 0.3286(9) 0.5122(3)
N8 N 0.7021(4) 0.3033(7) 0.4707(3)
O1 O 0.2237(5) 0.2435(6) 0.3563(4)
O2 O 0.2557(5) 0.3752(5) 0.3550(3)
O3 O 0.4673(5) 0.4414(6) 0.3217(3)
O4 O 0.5316(5) 0.3353(7) 0.3067(3)
O5 O 0.4360(5) 0.2901(8) 0.5200(4)
O6 O 0.4902(5) 0.4088(6) 0.5108(3)
O7 O 0.7082(5) 0.3815(5) 0.4744(3)
O8 O 0.7422(6) 0.2573(7) 0.4598(5)
C37 C 0.3370(4) 0.1786(6) 0.3348(2)
H33 H 0.3046 0.1380 0.3392
C38 C 0.6509(5) 0.1382(7) 0.3590(3)
H34 H 0.6562 0.1622 0.3355
H35 H 0.6888 0.1482 0.3726
H36 H 0.6158 0.1669 0.3705
loop_
_geom_bond_atom_site_label_1
_geom_bond_atom_site_label_2
_geom_bond_site_symmetry_1
_geom_bond_site_symmetry_2
C1 C2 1_555 1_555
C2 H1 1_555 1_555
C3 C2 1_555 1_555
H2 C3 1_555 1_555
C4 C3 1_555 1_555
C5 C4 1_555 1_555
C6 C5 1_555 1_555
H3 C6 1_555 1_555
H4 C6 1_555 1_555
H5 C6 1_555 1_555
C7 C5 1_555 1_555
H6 C7 1_555 1_555
H7 C7 1_555 1_555
H8 C7 1_555 1_555
C8 C5 1_555 1_555
C9 C8 1_555 1_555
H9 C9 1_555 1_555
C10 C9 1_555 1_555
H10 C10 1_555 1_555
C11 C10 1_555 1_555
C12 C11 1_555 1_555
C13 C12 1_555 1_555
H11 C13 1_555 1_555
H12 C13 1_555 1_555
H13 C13 1_555 1_555
C14 C12 1_555 1_555
C15 C14 1_555 1_555
H14 C15 1_555 1_555
C16 C15 1_555 1_555
C17 C16 1_555 1_555
H15 C17 1_555 1_555
C18 C17 1_555 1_555
C19 C14 1_555 1_555
H16 C19 1_555 1_555
C20 C12 1_555 1_555
C21 C20 1_555 1_555
H17 C21 1_555 1_555
C22 C21 1_555 1_555
H18 C22 1_555 1_555
C23 C22 1_555 1_555
C24 C23 1_555 1_555
C25 C24 1_555 1_555
H19 C25 1_555 1_555
H20 C25 1_555 1_555
H21 C25 1_555 1_555
C26 C24 1_555 1_555
C27 C26 1_555 1_555
H22 C27 1_555 1_555
C28 C27 1_555 1_555
H23 C28 1_555 1_555
C29 C28 1_555 1_555
C30 C1 1_555 1_555
C31 C30 1_555 1_555
H24 C31 1_555 1_555
H25 C31 1_555 1_555
H26 C31 1_555 1_555
C32 C30 1_555 1_555
C33 C32 1_555 1_555
H27 C33 1_555 1_555
C34 C33 1_555 1_555
C35 C34 1_555 1_555
H28 C35 1_555 1_555
C36 C35 1_555 1_555
N1 C1 1_555 1_555
H29 N1 1_555 1_555
N2 C8 1_555 1_555
H30 N2 1_555 1_555
N3 C20 1_555 1_555
H31 N3 1_555 1_555
N4 C26 1_555 1_555
H32 N4 1_555 1_555
N5 C36 1_555 1_555
N6 C34 1_555 1_555
N7 C18 1_555 1_555
N8 C16 1_555 1_555
O1 N5 1_555 1_555
O2 N5 1_555 1_555
O3 N6 1_555 1_555
O4 N6 1_555 1_555
O5 N7 1_555 1_555
O6 N7 1_555 1_555
O7 N8 1_555 1_555
O8 N8 1_555 1_555
C37 C32 1_555 1_555
H33 C37 1_555 1_555
C38 C24 1_555 1_555
H34 C38 1_555 1_555
H35 C38 1_555 1_555
H36 C38 1_555 1_555
C39 C40 1_555 1_555
C40 H37 1_555 1_555
C41 C40 1_555 1_555
H38 C41 1_555 1_555
C42 C41 1_555 1_555
C43 C42 1_555 1_555
C44 C43 1_555 1_555
H39 C44 1_555 1_555
H40 C44 1_555 1_555
H41 C44 1_555 1_555
C45 C43 1_555 1_555
C46 C45 1_555 1_555
H42 C46 1_555 1_555
C47 C46 1_555 1_555
C48 C47 1_555 1_555
H43 C48 1_555 1_555
C49 C48 1_555 1_555
C50 C43 1_555 1_555
C51 C50 1_555 1_555
H44 C51 1_555 1_555
C52 C51 1_555 1_555
H45 C52 1_555 1_555
C53 C52 1_555 1_555
C54 C53 1_555 1_555
C55 C54 1_555 1_555
H46 C55 1_555 1_555
H47 C55 1_555 1_555
H48 C55 1_555 1_555
C56 C54 1_555 1_555
H49 C56 1_555 1_555
H50 C56 1_555 1_555
H51 C56 1_555 1_555
C57 C54 1_555 1_555
C58 C57 1_555 1_555
H52 C58 1_555 1_555
C59 C58 1_555 1_555
H53 C59 1_555 1_555
C60 C59 1_555 1_555
C61 C60 1_555 1_555
C62 C61 1_555 1_555
H54 C62 1_555 1_555
H55 C62 1_555 1_555
H56 C62 1_555 1_555
C63 C61 1_555 1_555
C64 C63 1_555 1_555
H57 C64 1_555 1_555
C65 C64 1_555 1_555
C66 C65 1_555 1_555
H58 C66 1_555 1_555
C67 C66 1_555 1_555
C68 C63 1_555 1_555
H59 C68 1_555 1_555
C69 C61 1_555 1_555
C70 C69 1_555 1_555
H60 C70 1_555 1_555
C71 C70 1_555 1_555
H61 C71 1_555 1_555
C72 C71 1_555 1_555
C73 C39 1_555 1_555
C74 C73 1_555 1_555
H62 C74 1_555 1_555
H63 C74 1_555 1_555
H64 C74 1_555 1_555
C75 C73 1_555 1_555
H65 C75 1_555 1_555
H66 C75 1_555 1_555
H67 C75 1_555 1_555
C76 C45 1_555 1_555
H68 C76 1_555 1_555
N9 C39 1_555 1_555
H69 N9 1_555 1_555
N10 C69 1_555 1_555
H70 N10 1_555 1_555
N11 C57 1_555 1_555
H71 N11 1_555 1_555
N12 C50 1_555 1_555
H72 N12 1_555 1_555
N13 C65 1_555 1_555
N14 C67 1_555 1_555
N15 C47 1_555 1_555
N16 C49 1_555 1_555
O9 N16 1_555 1_555
O10 N16 1_555 1_555
O11 N15 1_555 1_555
O12 N15 1_555 1_555
O13 N14 1_555 1_555
O14 N14 1_555 1_555
O15 N13 1_555 1_555
O16 N13 1_555 1_555
N17 C77 1_555 1_555
C77 H73 1_555 1_555
H74 C77 1_555 1_555
C78 C77 1_555 1_555
H75 C78 1_555 1_555
H76 C78 1_555 1_555
C79 C78 1_555 1_555
H77 C79 1_555 1_555
H78 C79 1_555 1_555
C80 C79 1_555 1_555
H79 C80 1_555 1_555
H80 C80 1_555 1_555
H81 C80 1_555 1_555
C81 N17 1_555 1_555
H82 C81 1_555 1_555
H83 C81 1_555 1_555
C82 C81 1_555 1_555
H84 C82 1_555 1_555
H85 C82 1_555 1_555
C83 C82 1_555 1_555
H86 C83 1_555 1_555
H87 C83 1_555 1_555
C84 C83 1_555 1_555
H88 C84 1_555 1_555
H89 C84 1_555 1_555
H90 C84 1_555 1_555
C85 N17 1_555 1_555
H91 C85 1_555 1_555
H92 C85 1_555 1_555
C86 C85 1_555 1_555
H93 C86 1_555 1_555
H94 C86 1_555 1_555
C87 C86 1_555 1_555
H95 C87 1_555 1_555
H96 C87 1_555 1_555
C88 C87 1_555 1_555
H97 C88 1_555 1_555
H98 C88 1_555 1_555
H99 C88 1_555 1_555
C89 N17 1_555 1_555
H100 C89 1_555 1_555
H101 C89 1_555 1_555
C90 C89 1_555 1_555
H102 C90 1_555 1_555
H103 C90 1_555 1_555
C91 C90 1_555 1_555
H104 C91 1_555 1_555
H105 C91 1_555 1_555
C92 C91 1_555 1_555
H106 C92 1_555 1_555
H107 C92 1_555 1_555
H108 C92 1_555 1_555
N18 C93 1_555 1_555
C93 H109 1_555 1_555
H110 C93 1_555 1_555
C94 C93 1_555 1_555
H111 C94 1_555 1_555
H112 C94 1_555 1_555
C95 C94 1_555 1_555
H113 C95 1_555 1_555
H114 C95 1_555 1_555
C96 C95 1_555 1_555
H115 C96 1_555 1_555
H116 C96 1_555 1_555
H117 C96 1_555 1_555
C97 N18 1_555 1_555
H118 C97 1_555 1_555
H119 C97 1_555 1_555
C98 C97 1_555 1_555
H120 C98 1_555 1_555
H121 C98 1_555 1_555
C99 C98 1_555 1_555
H122 C99 1_555 1_555
H123 C99 1_555 1_555
C100 C99 1_555 1_555
H124 C100 1_555 1_555
H125 C100 1_555 1_555
H126 C100 1_555 1_555
C101 N18 1_555 1_555
H127 C101 1_555 1_555
H128 C101 1_555 1_555
C102 C101 1_555 1_555
H129 C102 1_555 1_555
H130 C102 1_555 1_555
C103 C102 1_555 1_555
H131 C103 1_555 1_555
H132 C103 1_555 1_555
C104 C103 1_555 1_555
H133 C104 1_555 1_555
H134 C104 1_555 1_555
H135 C104 1_555 1_555
C105 N18 1_555 1_555
H136 C105 1_555 1_555
H137 C105 1_555 1_555
C106 C105 1_555 1_555
H138 C106 1_555 1_555
H139 C106 1_555 1_555
C107 C106 1_555 1_555
H140 C107 1_555 1_555
H141 C107 1_555 1_555
C108 C107 1_555 1_555
H142 C108 1_555 1_555
H143 C108 1_555 1_555
H144 C108 1_555 1_555
C4 N1 1_555 1_555
C11 N2 1_555 1_555
C18 C19 1_555 1_555
C23 N3 1_555 1_555
C29 C30 1_555 1_555
C29 N4 1_555 1_555
C36 C37 1_555 1_555
C42 N9 1_555 1_555
C49 C76 1_555 1_555
C53 N12 1_555 1_555
C60 N11 1_555 1_555
C67 C68 1_555 1_555
C72 C73 1_555 1_555
C72 N10 1_555 1_555

#END
