
#######################################################################
#
#                 Cambridge Crystallographic Data Centre
#                                CCDC 
#
#######################################################################
#
# If this CIF has been generated from an entry in the Cambridge 
# Structural Database, then it will include bibliographic, chemical, 
# crystal, experimental, refinement or atomic coordinate data resulting 
# from the CCDC's data processing and validation procedures.
#
#######################################################################

data_ASOWEM
_chemical_name_common            
'tetra-n-butylammonium cis-2,12-bis(3,5-dinitrophenyl)-2,7,7,12,17,17-hexamethylcalix[4]pyrrole chloride'
_chemical_formula_moiety         'C38 H36 N8 O8,C16 H36 N1 1+,Cl1 1-'
_chemical_name_systematic        
'tetra-n-butylammonium 5,15-bis(3,5-dinitrophenyl)-5,10,10,15,20,20-hexamethyl-5,10,15,20,22,24-hexahydroporphyrin chloride'
_symmetry_cell_setting           monoclinic
_symmetry_space_group_name_H-M   'P 21/n'
_symmetry_Int_Tables_number      14
_space_group_name_Hall           '-P 2yn'
loop_
_symmetry_equiv_pos_site_id
_symmetry_equiv_pos_as_xyz
1 x,y,z
2 1/2-x,1/2+y,1/2-z
3 -x,-y,-z
4 1/2+x,1/2-y,1/2+z
_cell_length_a                   13.0109(16)
_cell_length_b                   18.833(2)
_cell_length_c                   22.702(3)
_cell_angle_alpha                90
_cell_angle_beta                 90.423(3)
_cell_angle_gamma                90
_cell_volume                     5562.62
_exptl_crystal_colour            orange
_exptl_crystal_description       Prism
_cell_formula_units_Z            4
loop_
_atom_site_label
_atom_site_type_symbol
_atom_site_fract_x
_atom_site_fract_y
_atom_site_fract_z
C1 C 0.1879(2) 0.80725(16) 0.18947(13)
H1 H 0.2470 0.7915 0.1672
H2 H 0.1571 0.8481 0.1702
H3 H 0.1379 0.7691 0.1915
C2 C 0.4515(2) 0.90761(14) -0.00234(12)
H4 H 0.4352 0.8929 -0.0409
C3 C 0.6207(2) 0.93434(13) 0.20135(11)
C4 C 0.7112(2) 0.95997(16) 0.22383(14)
H5 H 0.7270 1.0081 0.2303
C5 C 0.7769(2) 0.90177(17) 0.23568(15)
H6 H 0.8436 0.9045 0.2516
C6 C 0.72635(19) 0.84056(15) 0.21983(12)
C7 C 0.7623(2) 0.76369(16) 0.21801(13)
C8 C 0.7568(2) 0.73653(17) 0.15336(14)
H7 H 0.6866 0.7399 0.1390
H8 H 0.7792 0.6874 0.1519
H9 H 0.8012 0.7653 0.1289
C9 C 0.8756(2) 0.7609(2) 0.23913(18)
H10 H 0.9176 0.7896 0.2132
H11 H 0.8997 0.7122 0.2384
H12 H 0.8805 0.7793 0.2790
C10 C 0.69913(19) 0.71474(14) 0.25719(12)
C11 C 0.7251(2) 0.67786(15) 0.30718(13)
H13 H 0.7886 0.6803 0.3271
C12 C 0.6401(2) 0.63538(15) 0.32370(12)
H14 H 0.6370 0.6050 0.3565
C13 C 0.5627(2) 0.64685(12) 0.28292(10)
C14 C 0.4556(2) 0.61513(12) 0.27705(10)
C15 C 0.4483(3) 0.54882(14) 0.31760(12)
H15 H 0.5028 0.5158 0.3079
H16 H 0.3821 0.5260 0.3117
H17 H 0.4553 0.5633 0.3584
C16 C 0.4387(2) 0.58867(12) 0.21293(10)
C17 C 0.3453(2) 0.59834(12) 0.18326(10)
H18 H 0.2911 0.6227 0.2015
C18 C 0.3331(2) 0.57164(13) 0.12645(11)
C19 C 0.4086(2) 0.53526(13) 0.09728(11)
H19 H 0.3986 0.5175 0.0590
C20 C 0.5004(2) 0.52621(14) 0.12765(11)
C21 C 0.5165(2) 0.55189(13) 0.18439(11)
H20 H 0.5800 0.5444 0.2035
C22 C 0.37257(19) 0.66745(13) 0.29408(10)
C23 C 0.3001(2) 0.66532(15) 0.33777(11)
H21 H 0.2942 0.6301 0.3668
C24 C 0.2363(2) 0.72542(16) 0.33131(12)
H22 H 0.1807 0.7372 0.3557
C25 C 0.26859(19) 0.76368(13) 0.28374(11)
C26 C 0.22289(19) 0.82826(14) 0.25310(12)
C27 C 0.1274(2) 0.85224(17) 0.28784(15)
H23 H 0.0793 0.8131 0.2907
H24 H 0.0948 0.8917 0.2676
H25 H 0.1482 0.8670 0.3271
C28 C 0.29775(19) 0.88998(13) 0.24985(11)
C29 C 0.2940(2) 0.95544(15) 0.27584(14)
H26 H 0.2446 0.9705 0.3032
C30 C 0.3769(2) 0.99674(14) 0.25465(13)
H27 H 0.3918 1.0439 0.2652
C31 C 0.4313(2) 0.95576(12) 0.21625(11)
C32 C 0.5247(2) 0.97177(12) 0.17881(11)
C33 C 0.5444(2) 1.05314(13) 0.17862(13)
H28 H 0.5609 1.0688 0.2183
H29 H 0.4832 1.0776 0.1647
H30 H 0.6014 1.0638 0.1528
C34 C 0.5004(2) 0.94980(12) 0.11409(11)
C35 C 0.4014(2) 0.95868(13) 0.09156(11)
H31 H 0.3497 0.9788 0.1150
C36 C 0.3795(2) 0.93736(14) 0.03387(12)
C37 C 0.5491(2) 0.90049(14) 0.02098(12)
C38 C 0.5756(2) 0.92096(14) 0.07782(11)
H32 H 0.6434 0.9154 0.0917
N1 N 0.63019(16) 0.86095(11) 0.19983(9)
H33 H 0.5824 0.8319 0.1880
N2 N 0.59914(15) 0.69570(11) 0.24287(9)
H34 H 0.5644 0.7122 0.2130
N3 N 0.35379(15) 0.72865(10) 0.26183(8)
H35 H 0.3902 0.7430 0.2321
N4 N 0.38266(15) 0.89042(10) 0.21419(8)
H36 H 0.4031 0.8545 0.1932
N5 N 0.6281(2) 0.86691(15) -0.01608(13)
N6 N 0.2730(2) 0.94554(16) 0.01148(13)
N7 N 0.5844(2) 0.48679(15) 0.09846(11)
N8 N 0.2319(2) 0.58097(13) 0.09696(10)
O1 O 0.7112(2) 0.85207(19) 0.00670(14)
O2 O 0.6064(2) 0.85388(16) -0.06717(11)
O3 O 0.2531(2) 0.92221(16) -0.03813(11)
O4 O 0.2099(2) 0.97520(19) 0.04298(13)
O5 O 0.6643(2) 0.4791(2) 0.12507(13)
O6 O 0.5691(2) 0.46353(14) 0.04945(10)
O7 O 0.21372(17) 0.54544(12) 0.05258(10)
O8 O 0.17106(17) 0.62363(13) 0.11825(10)
N9 N 0.01851(19) 0.69761(13) 0.94781(10)
C39 C 0.1236(3) 0.68453(18) 0.97555(14)
H37 H 0.1356 0.6332 0.9769
H38 H 0.1222 0.7017 1.0163
C40 C 0.2151(3) 0.71948(19) 0.94433(17)
H39 H 0.2178 0.7027 0.9035
H40 H 0.2051 0.7711 0.9435
C41 C 0.3150(3) 0.7027(2) 0.9748(2)
H41 H 0.3166 0.7262 1.0133
H42 H 0.3193 0.6514 0.9815
C42 C 0.4063(3) 0.7262(3) 0.9397(3)
H43 H 0.4138 0.6957 0.9056
H44 H 0.4677 0.7233 0.9641
H45 H 0.3963 0.7748 0.9269
C43 C -0.0056(3) 0.77724(16) 0.94879(14)
H46 H -0.0708 0.7850 0.9279
H47 H 0.0481 0.8021 0.9268
C44 C -0.0134(3) 0.81112(18) 1.01002(15)
H48 H -0.0678 0.7874 1.0322
H49 H 0.0516 0.8042 1.0314
C45 C -0.0366(3) 0.88962(17) 1.00627(16)
H50 H 0.0205 0.9138 0.9867
H51 H -0.0986 0.8967 0.9822
C46 C -0.0589(3) 0.65759(17) 0.98495(14)
H52 H -0.0497 0.6720 1.0261
H53 H -0.0432 0.6068 0.9826
C47 C -0.1715(3) 0.6682(2) 0.96806(16)
H54 H -0.1883 0.7189 0.9695
H55 H -0.1830 0.6516 0.9276
C48 C -0.2410(3) 0.62788(19) 1.00934(16)
H56 H -0.2232 0.6401 1.0501
H57 H -0.2298 0.5768 1.0042
C49 C -0.3529(3) 0.6446(2) 0.9983(2)
H58 H -0.3656 0.6943 1.0068
H59 H -0.3951 0.6152 1.0235
H60 H -0.3698 0.6350 0.9573
C50 C 0.0159(3) 0.67408(18) 0.88307(13)
H61 H 0.0523 0.7099 0.8599
H62 H -0.0559 0.6743 0.8698
C51 C 0.0343(5) 0.5346(3) 0.8903(2)
H63 H -0.0407 0.5313 0.8871
H64 H 0.0515 0.5345 0.9324
C52 C 0.0783(3) 0.4691(2) 0.86411(17)
H65 H 0.0678 0.4698 0.8218
H66 H 0.0445 0.4279 0.8806
H67 H 0.1513 0.4669 0.8728
C53 C -0.0526(4) 0.9225(2) 1.06586(18)
H68 H -0.1114 0.9006 1.0845
H69 H -0.0648 0.9730 1.0614
H70 H 0.0082 0.9150 1.0901
C54 C 0.0630(5) 0.5992(2) 0.86789(17)
H71 H 0.0567 0.5945 0.8250
H72 H 0.1368 0.6033 0.8763
Cl1 Cl 0.46142(5) 0.75845(3) 0.13257(3)
loop_
_geom_bond_atom_site_label_1
_geom_bond_atom_site_label_2
_geom_bond_site_symmetry_1
_geom_bond_site_symmetry_2
C1 H1 1_555 1_555
H2 C1 1_555 1_555
H3 C1 1_555 1_555
C2 H4 1_555 1_555
C3 C4 1_555 1_555
C4 H5 1_555 1_555
C5 C4 1_555 1_555
H6 C5 1_555 1_555
C6 C5 1_555 1_555
C7 C6 1_555 1_555
C8 C7 1_555 1_555
H7 C8 1_555 1_555
H8 C8 1_555 1_555
H9 C8 1_555 1_555
C9 C7 1_555 1_555
H10 C9 1_555 1_555
H11 C9 1_555 1_555
H12 C9 1_555 1_555
C10 C7 1_555 1_555
C11 C10 1_555 1_555
H13 C11 1_555 1_555
C12 C11 1_555 1_555
H14 C12 1_555 1_555
C13 C12 1_555 1_555
C14 C13 1_555 1_555
C15 C14 1_555 1_555
H15 C15 1_555 1_555
H16 C15 1_555 1_555
H17 C15 1_555 1_555
C16 C14 1_555 1_555
C17 C16 1_555 1_555
H18 C17 1_555 1_555
C18 C17 1_555 1_555
C19 C18 1_555 1_555
H19 C19 1_555 1_555
C20 C19 1_555 1_555
C21 C16 1_555 1_555
H20 C21 1_555 1_555
C22 C14 1_555 1_555
C23 C22 1_555 1_555
H21 C23 1_555 1_555
C24 C23 1_555 1_555
H22 C24 1_555 1_555
C25 C24 1_555 1_555
C26 C1 1_555 1_555
C27 C26 1_555 1_555
H23 C27 1_555 1_555
H24 C27 1_555 1_555
H25 C27 1_555 1_555
C28 C26 1_555 1_555
C29 C28 1_555 1_555
H26 C29 1_555 1_555
C30 C29 1_555 1_555
H27 C30 1_555 1_555
C31 C30 1_555 1_555
C32 C3 1_555 1_555
C33 C32 1_555 1_555
H28 C33 1_555 1_555
H29 C33 1_555 1_555
H30 C33 1_555 1_555
C34 C32 1_555 1_555
C35 C34 1_555 1_555
H31 C35 1_555 1_555
C36 C2 1_555 1_555
C37 C2 1_555 1_555
C38 C34 1_555 1_555
H32 C38 1_555 1_555
N1 C3 1_555 1_555
H33 N1 1_555 1_555
N2 C10 1_555 1_555
H34 N2 1_555 1_555
N3 C22 1_555 1_555
H35 N3 1_555 1_555
N4 C28 1_555 1_555
H36 N4 1_555 1_555
N5 C37 1_555 1_555
N6 C36 1_555 1_555
N7 C20 1_555 1_555
N8 C18 1_555 1_555
O1 N5 1_555 1_555
O2 N5 1_555 1_555
O3 N6 1_555 1_555
O4 N6 1_555 1_555
O5 N7 1_555 1_555
O6 N7 1_555 1_555
O7 N8 1_555 1_555
O8 N8 1_555 1_555
N9 C39 1_555 1_555
C39 H37 1_555 1_555
H38 C39 1_555 1_555
C40 C39 1_555 1_555
H39 C40 1_555 1_555
H40 C40 1_555 1_555
C41 C40 1_555 1_555
H41 C41 1_555 1_555
H42 C41 1_555 1_555
C42 C41 1_555 1_555
H43 C42 1_555 1_555
H44 C42 1_555 1_555
H45 C42 1_555 1_555
C43 N9 1_555 1_555
H46 C43 1_555 1_555
H47 C43 1_555 1_555
C44 C43 1_555 1_555
H48 C44 1_555 1_555
H49 C44 1_555 1_555
C45 C44 1_555 1_555
H50 C45 1_555 1_555
H51 C45 1_555 1_555
C46 N9 1_555 1_555
H52 C46 1_555 1_555
H53 C46 1_555 1_555
C47 C46 1_555 1_555
H54 C47 1_555 1_555
H55 C47 1_555 1_555
C48 C47 1_555 1_555
H56 C48 1_555 1_555
H57 C48 1_555 1_555
C49 C48 1_555 1_555
H58 C49 1_555 1_555
H59 C49 1_555 1_555
H60 C49 1_555 1_555
C50 N9 1_555 1_555
H61 C50 1_555 1_555
H62 C50 1_555 1_555
C51 H63 1_555 1_555
H64 C51 1_555 1_555
C52 C51 1_555 1_555
H65 C52 1_555 1_555
H66 C52 1_555 1_555
H67 C52 1_555 1_555
C53 C45 1_555 1_555
H68 C53 1_555 1_555
H69 C53 1_555 1_555
H70 C53 1_555 1_555
C54 C50 1_555 1_555
H71 C54 1_555 1_555
H72 C54 1_555 1_555
C6 N1 1_555 1_555
C13 N2 1_555 1_555
C20 C21 1_555 1_555
C25 C26 1_555 1_555
C25 N3 1_555 1_555
C31 C32 1_555 1_555
C31 N4 1_555 1_555
C35 C36 1_555 1_555
C37 C38 1_555 1_555
C51 C54 1_555 1_555

#END
