
#######################################################################
#
#                 Cambridge Crystallographic Data Centre
#                                CCDC 
#
#######################################################################
#
# If this CIF has been generated from an entry in the Cambridge 
# Structural Database, then it will include bibliographic, chemical, 
# crystal, experimental, refinement or atomic coordinate data resulting 
# from the CCDC's data processing and validation procedures.
#
#######################################################################

data_ASOWOW
_chemical_name_common            
'tetra-n-butylammonium cis-2,12-bis(3,5-dinitrophenyl)-2,7,7,12,17,17-hexamethylcalix[4]pyrrole chloride fluoride'
_chemical_formula_moiety         
'C38 H36 N8 O8,0.63(Cl1 1-),C16 H36 N1 1+,0.37(F1 1-)'
_chemical_name_systematic        
'tetra-n-butylammonium 5,15-bis(3,5-dinitrophenyl)-5,10,10,15,20,20-hexamethyl-5,10,15,20,22,24-hexahydroporphyrin chloride fluoride'
_symmetry_cell_setting           monoclinic
_symmetry_space_group_name_H-M   'P 21/n'
_symmetry_Int_Tables_number      14
_space_group_name_Hall           '-P 2yn'
loop_
_symmetry_equiv_pos_site_id
_symmetry_equiv_pos_as_xyz
1 x,y,z
2 1/2-x,1/2+y,1/2-z
3 -x,-y,-z
4 1/2+x,1/2-y,1/2+z
_cell_length_a                   12.9168(7)
_cell_length_b                   18.9009(10)
_cell_length_c                   22.5896(12)
_cell_angle_alpha                90
_cell_angle_beta                 90.650(3)
_cell_angle_gamma                90
_cell_volume                     5514.65
_exptl_crystal_colour            orange
_exptl_crystal_description       Prism
_cell_formula_units_Z            4
loop_
_atom_site_label
_atom_site_type_symbol
_atom_site_fract_x
_atom_site_fract_y
_atom_site_fract_z
C1 C 0.7001(2) 0.71424(16) 0.25636(15)
C2 C 0.7270(3) 0.67635(18) 0.30620(16)
H1 H 0.7915 0.6781 0.3258
C3 C 0.6415(3) 0.63414(17) 0.32324(15)
H2 H 0.6391 0.6031 0.3557
C4 C 0.5631(2) 0.64722(15) 0.28329(13)
C5 C 0.4550(2) 0.61576(15) 0.27744(12)
C6 C 0.4471(3) 0.54986(16) 0.31824(14)
H3 H 0.4547 0.5644 0.3592
H4 H 0.5014 0.5166 0.3085
H5 H 0.3801 0.5275 0.3124
C7 C 0.4369(2) 0.58961(14) 0.21322(13)
C8 C 0.5155(3) 0.55281(16) 0.18493(14)
H6 H 0.5797 0.5457 0.2040
C9 C 0.4981(3) 0.52670(17) 0.12820(15)
C10 C 0.4062(3) 0.53558(16) 0.09764(14)
H7 H 0.3960 0.5179 0.0591
C11 C 0.3304(3) 0.57194(15) 0.12699(14)
C12 C 0.3437(2) 0.59905(15) 0.18365(13)
H8 H 0.2895 0.6237 0.2019
C13 C 0.3718(2) 0.66822(15) 0.29458(13)
C14 C 0.2986(3) 0.66605(18) 0.33765(14)
H9 H 0.2919 0.6307 0.3666
C15 C 0.2347(3) 0.72606(19) 0.33106(15)
H10 H 0.1785 0.7378 0.3552
C16 C 0.2685(2) 0.76449(16) 0.28340(14)
C17 C 0.2229(2) 0.82876(16) 0.25227(15)
C18 C 0.1269(3) 0.8528(2) 0.28640(18)
H11 H 0.0777 0.8142 0.2884
H12 H 0.0951 0.8927 0.2662
H13 H 0.1473 0.8668 0.3262
C19 C 0.1886(3) 0.80747(19) 0.18859(16)
H14 H 0.2484 0.7919 0.1665
H15 H 0.1574 0.8479 0.1689
H16 H 0.1385 0.7693 0.1906
C20 C 0.2982(2) 0.88999(15) 0.24929(14)
C21 C 0.2928(3) 0.95576(18) 0.27396(17)
H17 H 0.2421 0.9714 0.3005
C22 C 0.3762(3) 0.99634(18) 0.25286(16)
H18 H 0.3903 1.0438 0.2625
C23 C 0.4330(2) 0.95458(14) 0.21601(13)
C24 C 0.5264(2) 0.96995(15) 0.17846(14)
C25 C 0.5470(3) 1.05067(16) 0.17818(16)
H19 H 0.4860 1.0752 0.1634
H20 H 0.6052 1.0609 0.1528
H21 H 0.5626 1.0665 0.2182
C26 C 0.5013(3) 0.94841(15) 0.11400(13)
C27 C 0.5759(3) 0.91852(16) 0.07732(14)
H22 H 0.6441 0.9119 0.0912
C28 C 0.5481(3) 0.89875(17) 0.02016(15)
C29 C 0.4499(3) 0.90746(17) -0.00259(15)
H23 H 0.4326 0.8929 -0.0412
C30 C 0.3778(3) 0.93834(16) 0.03344(15)
C31 C 0.4016(3) 0.95872(15) 0.09098(14)
H24 H 0.3505 0.9796 0.1146
C32 C 0.6234(2) 0.93188(16) 0.20092(14)
C33 C 0.7155(3) 0.95718(18) 0.22243(16)
H25 H 0.7324 1.0050 0.2286
C34 C 0.7806(3) 0.8987(2) 0.23376(18)
H26 H 0.8486 0.9010 0.2489
C35 C 0.7282(2) 0.83812(18) 0.21916(15)
C36 C 0.7629(2) 0.76182(18) 0.21692(17)
C37 C 0.7549(3) 0.7344(2) 0.15222(18)
H27 H 0.6833 0.7366 0.1388
H28 H 0.7791 0.6859 0.1506
H29 H 0.7972 0.7637 0.1269
C38 C 0.8776(3) 0.7580(2) 0.2364(2)
H30 H 0.9192 0.7857 0.2095
H31 H 0.9005 0.7091 0.2359
H32 H 0.8851 0.7768 0.2762
N1 N 0.59924(19) 0.69562(12) 0.24323(11)
H33 H 0.5633 0.7123 0.2135
N2 N 0.35342(18) 0.72914(12) 0.26200(11)
H34 H 0.3903 0.7431 0.2322
N3 N 0.38412(19) 0.88974(12) 0.21451(10)
H35 H 0.4052 0.8535 0.1942
N4 N 0.63161(19) 0.85927(13) 0.19950(11)
H36 H 0.5827 0.8307 0.1878
N5 N 0.6265(3) 0.86463(19) -0.01708(17)
N6 N 0.2715(3) 0.94867(19) 0.01097(16)
N7 N 0.5823(3) 0.48772(19) 0.09885(16)
N8 N 0.2282(3) 0.58128(16) 0.09710(14)
O1 O 0.7103(3) 0.8496(2) 0.00536(17)
O2 O 0.6028(3) 0.8504(2) -0.06728(15)
O3 O 0.2499(2) 0.92575(19) -0.03847(14)
O4 O 0.2093(3) 0.9789(2) 0.04238(16)
O5 O 0.2105(2) 0.54602(15) 0.05259(12)
O6 O 0.1667(2) 0.62289(16) 0.11835(12)
O7 O 0.5688(3) 0.46521(17) 0.04992(13)
O8 O 0.6632(3) 0.4809(3) 0.12491(18)
N9 N 0.0222(3) 0.69910(16) 0.94738(13)
C39 C -0.0029(3) 0.77821(19) 0.94906(17)
H37 H 0.0503 0.8035 0.9268
H38 H -0.0691 0.7857 0.9284
C40 C -0.0097(4) 0.8111(2) 1.00982(18)
H39 H -0.0634 0.7868 1.0324
H40 H 0.0564 0.8048 1.0308
C41 C -0.0350(3) 0.8890(2) 1.0064(2)
H41 H 0.0211 0.9137 0.9862
H42 H -0.0985 0.8954 0.9828
C42 C -0.0498(4) 0.9214(2) 1.0665(2)
H43 H -0.1084 0.8994 1.0856
H44 H -0.0625 0.9718 1.0622
H45 H 0.0121 0.9141 1.0905
C43 C 0.1278(4) 0.6862(2) 0.97518(18)
H46 H 0.1407 0.6351 0.9755
H47 H 0.1260 0.7020 1.0165
C44 C 0.2187(4) 0.7223(3) 0.9451(2)
H48 H 0.2225 0.7070 0.9037
H49 H 0.2092 0.7737 0.9458
C45 C 0.3167(5) 0.7029(3) 0.9773(3)
H50 H 0.3192 0.7267 1.0158
H51 H 0.3188 0.6517 0.9840
C46 C 0.4030(6) 0.7239(4) 0.9429(5)
H52 H 0.4083 0.6933 0.9086
H53 H 0.4657 0.7202 0.9667
H54 H 0.3938 0.7724 0.9300
C47 C 0.0197(4) 0.6761(2) 0.88282(17)
H55 H 0.0577 0.7114 0.8599
H56 H -0.0525 0.6773 0.8690
C48 C 0.0653(6) 0.6008(3) 0.8677(2)
H57 H 0.0582 0.5963 0.8246
H58 H 0.1398 0.6045 0.8759
C49 C 0.0371(6) 0.5371(3) 0.8896(3)
H59 H -0.0385 0.5338 0.8861
H60 H 0.0541 0.5371 0.9319
C50 C 0.0805(4) 0.4719(3) 0.8641(2)
H61 H 0.0730 0.4732 0.8213
H62 H 0.0437 0.4312 0.8795
H63 H 0.1532 0.4683 0.8747
C51 C -0.0546(4) 0.6590(2) 0.98384(18)
H64 H -0.0454 0.6730 1.0253
H65 H -0.0385 0.6084 0.9811
C52 C -0.1683(4) 0.6694(3) 0.9666(2)
H66 H -0.1856 0.7198 0.9689
H67 H -0.1794 0.6539 0.9257
C53 C -0.2377(5) 0.6285(3) 1.0065(2)
H68 H -0.2213 0.6406 1.0477
H69 H -0.2244 0.5778 1.0013
C54 C -0.3498(5) 0.6429(3) 0.9945(3)
H70 H -0.3633 0.6930 0.9994
H71 H -0.3916 0.6162 1.0220
H72 H -0.3672 0.6289 0.9543
Cl1 Cl 0.46102(10) 0.75802(6) 0.13220(6)
F1 F 0.4712(4) 0.7701(2) 0.1691(2)
loop_
_geom_bond_atom_site_label_1
_geom_bond_atom_site_label_2
_geom_bond_site_symmetry_1
_geom_bond_site_symmetry_2
C1 C2 1_555 1_555
C2 H1 1_555 1_555
C3 C2 1_555 1_555
H2 C3 1_555 1_555
C4 C3 1_555 1_555
C5 C4 1_555 1_555
C6 C5 1_555 1_555
H3 C6 1_555 1_555
H4 C6 1_555 1_555
H5 C6 1_555 1_555
C7 C5 1_555 1_555
C8 C7 1_555 1_555
H6 C8 1_555 1_555
C9 C8 1_555 1_555
C10 C9 1_555 1_555
H7 C10 1_555 1_555
C11 C10 1_555 1_555
C12 C7 1_555 1_555
H8 C12 1_555 1_555
C13 C5 1_555 1_555
C14 C13 1_555 1_555
H9 C14 1_555 1_555
C15 C14 1_555 1_555
H10 C15 1_555 1_555
C16 C15 1_555 1_555
C17 C16 1_555 1_555
C18 C17 1_555 1_555
H11 C18 1_555 1_555
H12 C18 1_555 1_555
H13 C18 1_555 1_555
C19 C17 1_555 1_555
H14 C19 1_555 1_555
H15 C19 1_555 1_555
H16 C19 1_555 1_555
C20 C17 1_555 1_555
C21 C20 1_555 1_555
H17 C21 1_555 1_555
C22 C21 1_555 1_555
H18 C22 1_555 1_555
C23 C22 1_555 1_555
C24 C23 1_555 1_555
C25 C24 1_555 1_555
H19 C25 1_555 1_555
H20 C25 1_555 1_555
H21 C25 1_555 1_555
C26 C24 1_555 1_555
C27 C26 1_555 1_555
H22 C27 1_555 1_555
C28 C27 1_555 1_555
C29 C28 1_555 1_555
H23 C29 1_555 1_555
C30 C29 1_555 1_555
C31 C26 1_555 1_555
H24 C31 1_555 1_555
C32 C24 1_555 1_555
C33 C32 1_555 1_555
H25 C33 1_555 1_555
C34 C33 1_555 1_555
H26 C34 1_555 1_555
C35 C34 1_555 1_555
C36 C1 1_555 1_555
C37 C36 1_555 1_555
H27 C37 1_555 1_555
H28 C37 1_555 1_555
H29 C37 1_555 1_555
C38 C36 1_555 1_555
H30 C38 1_555 1_555
H31 C38 1_555 1_555
H32 C38 1_555 1_555
N1 C1 1_555 1_555
H33 N1 1_555 1_555
N2 C13 1_555 1_555
H34 N2 1_555 1_555
N3 C20 1_555 1_555
H35 N3 1_555 1_555
N4 C32 1_555 1_555
H36 N4 1_555 1_555
N5 C28 1_555 1_555
N6 C30 1_555 1_555
N7 C9 1_555 1_555
N8 C11 1_555 1_555
O1 N5 1_555 1_555
O2 N5 1_555 1_555
O3 N6 1_555 1_555
O4 N6 1_555 1_555
O5 N8 1_555 1_555
O6 N8 1_555 1_555
O7 N7 1_555 1_555
O8 N7 1_555 1_555
N9 C39 1_555 1_555
C39 H37 1_555 1_555
H38 C39 1_555 1_555
C40 C39 1_555 1_555
H39 C40 1_555 1_555
H40 C40 1_555 1_555
C41 C40 1_555 1_555
H41 C41 1_555 1_555
H42 C41 1_555 1_555
C42 C41 1_555 1_555
H43 C42 1_555 1_555
H44 C42 1_555 1_555
H45 C42 1_555 1_555
C43 N9 1_555 1_555
H46 C43 1_555 1_555
H47 C43 1_555 1_555
C44 C43 1_555 1_555
H48 C44 1_555 1_555
H49 C44 1_555 1_555
C45 C44 1_555 1_555
H50 C45 1_555 1_555
H51 C45 1_555 1_555
C46 C45 1_555 1_555
H52 C46 1_555 1_555
H53 C46 1_555 1_555
H54 C46 1_555 1_555
C47 N9 1_555 1_555
H55 C47 1_555 1_555
H56 C47 1_555 1_555
C48 C47 1_555 1_555
H57 C48 1_555 1_555
H58 C48 1_555 1_555
C49 C48 1_555 1_555
H59 C49 1_555 1_555
H60 C49 1_555 1_555
C50 C49 1_555 1_555
H61 C50 1_555 1_555
H62 C50 1_555 1_555
H63 C50 1_555 1_555
C51 N9 1_555 1_555
H64 C51 1_555 1_555
H65 C51 1_555 1_555
C52 C51 1_555 1_555
H66 C52 1_555 1_555
H67 C52 1_555 1_555
C53 C52 1_555 1_555
H68 C53 1_555 1_555
H69 C53 1_555 1_555
C54 C53 1_555 1_555
H70 C54 1_555 1_555
H71 C54 1_555 1_555
H72 C54 1_555 1_555
C4 N1 1_555 1_555
C11 C12 1_555 1_555
C16 N2 1_555 1_555
C23 N3 1_555 1_555
C30 C31 1_555 1_555
C35 C36 1_555 1_555
C35 N4 1_555 1_555

#END
