
#######################################################################
#
#                 Cambridge Crystallographic Data Centre
#                                CCDC 
#
#######################################################################
#
# If this CIF has been generated from an entry in the Cambridge 
# Structural Database, then it will include bibliographic, chemical, 
# crystal, experimental, refinement or atomic coordinate data resulting 
# from the CCDC's data processing and validation procedures.
#
#######################################################################

data_ASOXIR
_chemical_name_common            
'tetra-n-butylammonium cis-2,12-bis(3,5-dinitrophenyl)-2,7,7,12,17,17-hexamethylcalix[4]pyrrole nitrate'
_chemical_formula_moiety         'C38 H36 N8 O8,C16 H36 N1 1+,N1 O3 1-'
_chemical_name_systematic        
'tetra-n-butylammonium 5,15-bis(3,5-dinitrophenyl)-5,10,10,15,20,20-hexamethyl-5,10,15,20,22,24-hexahydroporphyrin nitrate'
_symmetry_cell_setting           monoclinic
_symmetry_space_group_name_H-M   'P 21/n'
_symmetry_Int_Tables_number      14
_space_group_name_Hall           '-P 2yn'
loop_
_symmetry_equiv_pos_site_id
_symmetry_equiv_pos_as_xyz
1 x,y,z
2 1/2-x,1/2+y,1/2-z
3 -x,-y,-z
4 1/2+x,1/2-y,1/2+z
_cell_length_a                   12.8705(12)
_cell_length_b                   18.6776(18)
_cell_length_c                   23.141(2)
_cell_angle_alpha                90
_cell_angle_beta                 90.418(2)
_cell_angle_gamma                90
_cell_volume                     5562.72
_exptl_crystal_colour            orange
_exptl_crystal_description       Prism
_cell_formula_units_Z            4
loop_
_atom_site_label
_atom_site_type_symbol
_atom_site_fract_x
_atom_site_fract_y
_atom_site_fract_z
C1 C 0.43118(19) 0.04075(12) 0.21376(10)
C2 C 0.3813(2) -0.00165(15) 0.25279(13)
H1 H 0.3987 -0.0492 0.2621
C3 C 0.2987(2) 0.03822(15) 0.27682(14)
H2 H 0.2524 0.0219 0.3052
C4 C 0.29754(19) 0.10424(13) 0.25187(11)
C5 C 0.22080(18) 0.16479(14) 0.25855(11)
C6 C 0.1780(2) 0.18598(16) 0.19803(12)
H3 H 0.2344 0.2037 0.1744
H4 H 0.1258 0.2231 0.2022
H5 H 0.1470 0.1444 0.1796
C7 C 0.1286(2) 0.13889(17) 0.29524(13)
H6 H 0.0982 0.0966 0.2776
H7 H 0.0767 0.1764 0.2973
H8 H 0.1529 0.1273 0.3339
C8 C 0.26717(19) 0.23003(14) 0.28742(11)
C9 C 0.2361(2) 0.26946(16) 0.33393(12)
H9 H 0.1817 0.2575 0.3590
C10 C 0.2991(2) 0.33109(15) 0.33809(11)
H10 H 0.2937 0.3674 0.3660
C11 C 0.36973(19) 0.32858(13) 0.29415(10)
C12 C 0.4517(2) 0.38170(12) 0.27579(10)
C13 C 0.4433(2) 0.44933(14) 0.31419(12)
H11 H 0.4531 0.4361 0.3544
H12 H 0.3753 0.4708 0.3091
H13 H 0.4964 0.4835 0.3032
C14 C 0.4334(2) 0.40596(12) 0.21246(10)
C15 C 0.3398(2) 0.39399(13) 0.18344(10)
H14 H 0.2855 0.3691 0.2015
C16 C 0.3278(2) 0.41926(13) 0.12754(11)
C17 C 0.4032(2) 0.45579(14) 0.09820(11)
H15 H 0.3931 0.4721 0.0601
C18 C 0.4949(2) 0.46716(14) 0.12807(11)
C19 C 0.5115(2) 0.44334(13) 0.18374(11)
H16 H 0.5754 0.4522 0.2024
C20 C 0.56091(19) 0.35133(13) 0.28100(10)
C21 C 0.6399(2) 0.36433(14) 0.31946(11)
H17 H 0.6376 0.3953 0.3515
C22 C 0.7255(2) 0.32259(15) 0.30213(12)
H18 H 0.7904 0.3211 0.3210
C23 C 0.69968(19) 0.28480(14) 0.25386(11)
C24 C 0.76207(19) 0.23658(15) 0.21480(13)
C25 C 0.8776(2) 0.23995(18) 0.23341(16)
H19 H 0.8848 0.2231 0.2729
H20 H 0.9020 0.2890 0.2310
H21 H 0.9186 0.2099 0.2080
C26 C 0.7539(2) 0.26378(16) 0.15168(13)
H22 H 0.7964 0.2339 0.1269
H23 H 0.7782 0.3129 0.1498
H24 H 0.6821 0.2616 0.1388
C27 C 0.72737(18) 0.15885(14) 0.21729(11)
C28 C 0.7784(2) 0.09770(16) 0.23140(13)
H25 H 0.8462 0.0950 0.2466
C29 C 0.7130(2) 0.03875(15) 0.21964(13)
H26 H 0.7299 -0.0097 0.2253
C30 C 0.62122(19) 0.06440(13) 0.19857(10)
C31 C 0.5247(2) 0.02714(12) 0.17607(11)
C32 C 0.5458(2) -0.05460(13) 0.17352(12)
H27 H 0.6042 -0.0638 0.1483
H28 H 0.4847 -0.0790 0.1586
H29 H 0.5617 -0.0722 0.2120
C33 C 0.5010(2) 0.05141(13) 0.11340(10)
C34 C 0.4017(2) 0.04136(13) 0.08997(11)
H30 H 0.3493 0.0201 0.1122
C35 C 0.3812(2) 0.06284(14) 0.03399(12)
C36 C 0.4542(2) 0.09416(14) -0.00055(12)
H31 H 0.4386 0.1091 -0.0384
N1 N 0.37924(15) 0.10526(10) 0.21409(8)
H32 H 0.3961 0.1420 0.1930
N2 N 0.35026(15) 0.26644(10) 0.26402(8)
H33 H 0.3855 0.2520 0.2343
N3 N 0.59813(15) 0.30247(10) 0.24143(9)
H34 H 0.5623 0.2852 0.2126
N4 N 0.63049(15) 0.13824(11) 0.19823(9)
H35 H 0.5816 0.1676 0.1874
N5 N 0.5790(2) 0.50657(15) 0.09908(12)
N6 N 0.2264(2) 0.40828(14) 0.09854(11)
N7 N 0.2752(2) 0.05278(17) 0.01024(13)
N8 N 0.6323(2) 0.13694(16) -0.01221(13)
O1 O 0.6584(2) 0.51720(19) 0.12552(13)
O2 O 0.5647(2) 0.52692(13) 0.05013(10)
O3 O 0.20816(17) 0.44283(12) 0.05461(9)
O4 O 0.16532(17) 0.36608(14) 0.11977(10)
O5 O 0.25618(19) 0.07648(15) -0.03783(11)
O6 O 0.2125(2) 0.02077(18) 0.03996(13)
O7 O 0.7129(2) 0.15535(16) 0.01148(12)
O8 O 0.6139(2) 0.14717(15) -0.06279(11)
C37 C 0.5520(2) 0.10263(15) 0.02320(12)
C38 C 0.5770(2) 0.08172(13) 0.07885(11)
H36 H 0.6449 0.0879 0.0932
N9 N 0.43909(18) 0.24620(11) 0.10770(10)
O9 O 0.46321(13) 0.23159(9) 0.15749(7)
O10 O 0.4980(2) 0.27816(17) 0.07623(11)
O11 O 0.35313(18) 0.22910(16) 0.08812(10)
N10 N 0.03200(19) 0.30458(13) 0.94218(10)
C39 C 0.0053(2) 0.22431(17) 0.94462(14)
H37 H -0.0617 0.2170 0.9250
H38 H 0.0579 0.1979 0.9228
C40 C -0.0011(3) 0.19234(18) 1.00464(15)
H39 H -0.0535 0.2183 1.0269
H40 H 0.0660 0.1981 1.0244
C41 C -0.0293(3) 0.11346(18) 1.00274(17)
H41 H 0.0259 0.0871 0.9830
H42 H -0.0935 0.1075 0.9802
C42 C -0.0445(3) 0.0817(2) 1.06266(19)
H43 H 0.0187 0.0876 1.0852
H44 H -0.0607 0.0312 1.0592
H45 H -0.1013 0.1061 1.0817
C43 C -0.0428(3) 0.34594(18) 0.97981(13)
H46 H -0.0249 0.3969 0.9776
H47 H -0.0324 0.3308 1.0200
C44 C -0.1571(3) 0.3377(2) 0.96475(16)
H48 H -0.1692 0.3556 0.9255
H49 H -0.1751 0.2867 0.9652
C45 C -0.2265(3) 0.3769(2) 1.00547(15)
H50 H -0.2106 0.4281 1.0039
H51 H -0.2127 0.3603 1.0450
C46 C -0.3390(3) 0.3658(2) 0.99127(19)
H52 H -0.3542 0.3859 0.9535
H53 H -0.3813 0.3894 1.0201
H54 H -0.3544 0.3149 0.9910
C47 C 0.0250(3) 0.32735(19) 0.87904(13)
H55 H -0.0486 0.3282 0.8679
H56 H 0.0586 0.2903 0.8557
C48 C 0.0742(4) 0.4024(2) 0.86209(16)
H57 H 0.1482 0.3998 0.8721
H58 H 0.0700 0.4060 0.8199
C49 C 0.0369(4) 0.4689(3) 0.88447(19)
H59 H 0.0509 0.4703 0.9261
H60 H -0.0386 0.4708 0.8790
C50 C 0.0839(3) 0.5340(2) 0.85735(17)
H61 H 0.1584 0.5338 0.8639
H62 H 0.0541 0.5767 0.8745
H63 H 0.0696 0.5338 0.8161
C51 C 0.1409(3) 0.31662(18) 0.96620(14)
H64 H 0.1544 0.3683 0.9670
H65 H 0.1429 0.2995 1.0062
C52 C 0.2280(3) 0.2806(2) 0.93329(17)
H66 H 0.2236 0.2287 0.9387
H67 H 0.2198 0.2907 0.8919
C53 C 0.3308(3) 0.3058(2) 0.95299(17)
H68 H 0.3412 0.2909 0.9932
H69 H 0.3312 0.3583 0.9521
C54 C 0.4197(3) 0.2791(3) 0.9181(2)
H70 H 0.4136 0.2277 0.9131
H71 H 0.4845 0.2900 0.9379
H72 H 0.4189 0.3021 0.8805
loop_
_geom_bond_atom_site_label_1
_geom_bond_atom_site_label_2
_geom_bond_site_symmetry_1
_geom_bond_site_symmetry_2
C1 C2 1_555 1_555
C2 H1 1_555 1_555
C3 C2 1_555 1_555
H2 C3 1_555 1_555
C4 C3 1_555 1_555
C5 C4 1_555 1_555
C6 C5 1_555 1_555
H3 C6 1_555 1_555
H4 C6 1_555 1_555
H5 C6 1_555 1_555
C7 C5 1_555 1_555
H6 C7 1_555 1_555
H7 C7 1_555 1_555
H8 C7 1_555 1_555
C8 C5 1_555 1_555
C9 C8 1_555 1_555
H9 C9 1_555 1_555
C10 C9 1_555 1_555
H10 C10 1_555 1_555
C11 C10 1_555 1_555
C12 C11 1_555 1_555
C13 C12 1_555 1_555
H11 C13 1_555 1_555
H12 C13 1_555 1_555
H13 C13 1_555 1_555
C14 C12 1_555 1_555
C15 C14 1_555 1_555
H14 C15 1_555 1_555
C16 C15 1_555 1_555
C17 C16 1_555 1_555
H15 C17 1_555 1_555
C18 C17 1_555 1_555
C19 C14 1_555 1_555
H16 C19 1_555 1_555
C20 C12 1_555 1_555
C21 C20 1_555 1_555
H17 C21 1_555 1_555
C22 C21 1_555 1_555
H18 C22 1_555 1_555
C23 C22 1_555 1_555
C24 C23 1_555 1_555
C25 C24 1_555 1_555
H19 C25 1_555 1_555
H20 C25 1_555 1_555
H21 C25 1_555 1_555
C26 C24 1_555 1_555
H22 C26 1_555 1_555
H23 C26 1_555 1_555
H24 C26 1_555 1_555
C27 C24 1_555 1_555
C28 C27 1_555 1_555
H25 C28 1_555 1_555
C29 C28 1_555 1_555
H26 C29 1_555 1_555
C30 C29 1_555 1_555
C31 C1 1_555 1_555
C32 C31 1_555 1_555
H27 C32 1_555 1_555
H28 C32 1_555 1_555
H29 C32 1_555 1_555
C33 C31 1_555 1_555
C34 C33 1_555 1_555
H30 C34 1_555 1_555
C35 C34 1_555 1_555
C36 C35 1_555 1_555
H31 C36 1_555 1_555
N1 C1 1_555 1_555
H32 N1 1_555 1_555
N2 C8 1_555 1_555
H33 N2 1_555 1_555
N3 C20 1_555 1_555
H34 N3 1_555 1_555
N4 C27 1_555 1_555
H35 N4 1_555 1_555
N5 C18 1_555 1_555
N6 C16 1_555 1_555
N7 C35 1_555 1_555
N8 O7 1_555 1_555
O1 N5 1_555 1_555
O2 N5 1_555 1_555
O3 N6 1_555 1_555
O4 N6 1_555 1_555
O5 N7 1_555 1_555
O6 N7 1_555 1_555
O8 N8 1_555 1_555
C37 C36 1_555 1_555
C38 C33 1_555 1_555
H36 C38 1_555 1_555
N9 O9 1_555 1_555
O10 N9 1_555 1_555
O11 N9 1_555 1_555
N10 C39 1_555 1_555
C39 H37 1_555 1_555
H38 C39 1_555 1_555
C40 C39 1_555 1_555
H39 C40 1_555 1_555
H40 C40 1_555 1_555
C41 C40 1_555 1_555
H41 C41 1_555 1_555
H42 C41 1_555 1_555
C42 C41 1_555 1_555
H43 C42 1_555 1_555
H44 C42 1_555 1_555
H45 C42 1_555 1_555
C43 N10 1_555 1_555
H46 C43 1_555 1_555
H47 C43 1_555 1_555
C44 C43 1_555 1_555
H48 C44 1_555 1_555
H49 C44 1_555 1_555
C45 C44 1_555 1_555
H50 C45 1_555 1_555
H51 C45 1_555 1_555
C46 C45 1_555 1_555
H52 C46 1_555 1_555
H53 C46 1_555 1_555
H54 C46 1_555 1_555
C47 N10 1_555 1_555
H55 C47 1_555 1_555
H56 C47 1_555 1_555
C48 C47 1_555 1_555
H57 C48 1_555 1_555
H58 C48 1_555 1_555
C49 C48 1_555 1_555
H59 C49 1_555 1_555
H60 C49 1_555 1_555
C50 C49 1_555 1_555
H61 C50 1_555 1_555
H62 C50 1_555 1_555
H63 C50 1_555 1_555
C51 N10 1_555 1_555
H64 C51 1_555 1_555
H65 C51 1_555 1_555
C52 C51 1_555 1_555
H66 C52 1_555 1_555
H67 C52 1_555 1_555
C53 C52 1_555 1_555
H68 C53 1_555 1_555
H69 C53 1_555 1_555
C54 C53 1_555 1_555
H70 C54 1_555 1_555
H71 C54 1_555 1_555
H72 C54 1_555 1_555
C4 N1 1_555 1_555
C11 N2 1_555 1_555
C18 C19 1_555 1_555
C23 N3 1_555 1_555
C30 C31 1_555 1_555
C30 N4 1_555 1_555
N8 C37 1_555 1_555
C37 C38 1_555 1_555

#END
