
#######################################################################
#
#                 Cambridge Crystallographic Data Centre
#                                CCDC 
#
#######################################################################
#
# If this CIF has been generated from an entry in the Cambridge 
# Structural Database, then it will include bibliographic, chemical, 
# crystal, experimental, refinement or atomic coordinate data resulting 
# from the CCDC's data processing and validation procedures.
#
#######################################################################

data_ASOXAJ
_chemical_name_common            
'bis(tetraethylammonium) cis-2,12-bis(3,5-dinitrophenyl)-2,7,7,12,17,17-hexamethylcalix[4]pyrrole bis(hydrogen carbonate) chloroform solvate'
_chemical_formula_moiety         
'C38 H36 N8 O8,2(C8 H20 N1 1+),2(C1 H1 O3 1-),2(C1 H1 Cl3)'
_chemical_name_systematic        
'bis(tetraethylammonium) 5,15-bis(3,5-dinitrophenyl)-5,10,10,15,20,20-hexamethyl-5,10,15,20,22,24-hexahydroporphyrin bis(hydrogen carbonate) chloroform solvate'
_symmetry_cell_setting           triclinic
_symmetry_space_group_name_H-M   'P -1'
_symmetry_Int_Tables_number      2
_space_group_name_Hall           '-P 1'
loop_
_symmetry_equiv_pos_site_id
_symmetry_equiv_pos_as_xyz
1 x,y,z
2 -x,-y,-z
_cell_length_a                   11.224(6)
_cell_length_b                   13.636(8)
_cell_length_c                   22.374(13)
_cell_angle_alpha                101.011(8)
_cell_angle_beta                 98.751(9)
_cell_angle_gamma                91.381(11)
_cell_volume                     3317.19
_exptl_crystal_colour            orange
_exptl_crystal_description       Prism
_cell_formula_units_Z            2
loop_
_atom_site_label
_atom_site_type_symbol
_atom_site_fract_x
_atom_site_fract_y
_atom_site_fract_z
C1 C 0.8230(4) 0.8420(3) 0.6152(2)
C2 C 0.8903(4) 0.9088(3) 0.5945(2)
H1 H 0.9353 0.8939 0.5615
C3 C 0.8811(4) 1.0054(3) 0.6311(2)
H2 H 0.9195 1.0660 0.6270
C4 C 0.8079(4) 0.9954(3) 0.6729(2)
C5 C 0.7748(4) 1.0714(3) 0.7268(2)
C6 C 0.8177(4) 1.0353(3) 0.7882(2)
H3 H 0.8009 1.0855 0.8231
H4 H 0.9046 1.0259 0.7925
H5 H 0.7745 0.9717 0.7877
C7 C 0.8411(4) 1.1723(3) 0.7299(2)
H6 H 0.8174 1.1953 0.6911
H7 H 0.9285 1.1646 0.7365
H8 H 0.8200 1.2215 0.7642
C8 C 0.6404(4) 1.0862(3) 0.72047(19)
C9 C 0.5753(4) 1.1690(3) 0.7133(2)
H9 H 0.6077 1.2319 0.7092
C10 C 0.4518(4) 1.1438(3) 0.7130(2)
H10 H 0.3871 1.1870 0.7091
C11 C 0.4428(4) 1.0458(3) 0.7195(2)
C12 C 0.3326(4) 0.9788(3) 0.7215(2)
C13 C 0.2240(4) 1.0457(4) 0.7321(3)
H11 H 0.2025 1.0783 0.6968
H12 H 0.2465 1.0968 0.7697
H13 H 0.1546 1.0041 0.7364
C14 C 0.3557(4) 0.9218(3) 0.7740(2)
C15 C 0.4365(4) 0.9598(3) 0.8282(2)
H14 H 0.4786 1.0229 0.8332
C16 C 0.4543(5) 0.9047(4) 0.8744(3)
C17 C 0.3980(5) 0.8106(4) 0.8701(3)
H15 H 0.4132 0.7732 0.9019
C18 C 0.3192(5) 0.7759(4) 0.8167(3)
C19 C 0.2955(4) 0.8292(4) 0.7699(3)
H16 H 0.2376 0.8026 0.7345
C20 C 0.2990(4) 0.9044(3) 0.6612(2)
C21 C 0.2011(4) 0.8976(3) 0.6154(2)
H17 H 0.1399 0.9443 0.6133
C22 C 0.2075(4) 0.8082(3) 0.5717(2)
H18 H 0.1520 0.7850 0.5348
C23 C 0.3085(4) 0.7610(3) 0.5923(2)
C24 C 0.3537(4) 0.6581(3) 0.5682(2)
C25 C 0.3628(4) 0.5959(3) 0.6194(2)
H19 H 0.3899 0.5295 0.6038
H20 H 0.2834 0.5891 0.6318
H21 H 0.4208 0.6298 0.6550
C26 C 0.2629(4) 0.6047(4) 0.5128(2)
H22 H 0.2571 0.6436 0.4800
H23 H 0.1836 0.5982 0.5253
H24 H 0.2899 0.5380 0.4976
C27 C 0.4762(4) 0.6676(3) 0.5481(2)
C28 C 0.5116(4) 0.6407(3) 0.4913(2)
H25 H 0.4601 0.6144 0.4536
C29 C 0.6386(4) 0.6594(3) 0.4990(2)
H26 H 0.6873 0.6474 0.4674
C30 C 0.6785(4) 0.6984(3) 0.5610(2)
C31 C 0.8048(4) 0.7285(3) 0.5964(2)
C32 C 0.8979(4) 0.6889(3) 0.5545(2)
H27 H 0.8864 0.6160 0.5420
H28 H 0.9797 0.7067 0.5771
H29 H 0.8865 0.7190 0.5177
C33 C 0.8260(4) 0.6804(3) 0.6538(2)
C34 C 0.9029(4) 0.7280(3) 0.7074(2)
H30 H 0.9440 0.7903 0.7087
C35 C 0.9181(4) 0.6830(3) 0.7584(2)
C36 C 0.8640(4) 0.5909(3) 0.7595(2)
H31 H 0.8747 0.5617 0.7951
C37 C 0.7930(4) 0.5449(3) 0.7045(2)
C38 C 0.7726(4) 0.5868(3) 0.6528(2)
H32 H 0.7223 0.5519 0.6166
N1 N 0.7710(3) 0.8955(2) 0.66298(17)
H33 H 0.7220 0.8696 0.6837
N2 N 0.5784(3) 0.7037(2) 0.59048(17)
H34 H 0.5795 0.7266 0.6301
N3 N 0.3645(3) 0.8214(2) 0.64638(17)
H35 H 0.4324 0.8088 0.6683
N4 N 0.5577(3) 1.0107(2) 0.72360(16)
H36 H 0.5757 0.9496 0.7276
N5 N 0.5424(5) 0.9452(4) 0.9301(2)
N6 N 0.2600(5) 0.6730(4) 0.8054(3)
N7 N 0.9929(4) 0.7360(3) 0.8160(2)
N8 N 0.7338(4) 0.4459(3) 0.7027(2)
O1 O 0.1977(4) 0.6402(3) 0.7559(2)
O2 O 0.2822(5) 0.6268(4) 0.8474(3)
O3 O 0.5487(5) 0.9004(4) 0.9735(2)
O4 O 0.6040(4) 1.0202(3) 0.9303(2)
O5 O 0.6716(5) 0.4042(3) 0.6546(2)
O6 O 0.7496(4) 0.4109(3) 0.74950(18)
O7 O 1.0091(5) 0.6958(3) 0.8597(2)
O8 O 1.0369(3) 0.8207(3) 0.81613(18)
C39 C 0.6224(4) 0.7694(3) 0.7673(2)
O9 O 0.5976(2) 0.8021(2) 0.71779(14)
O10 O 0.5634(3) 0.6832(2) 0.76820(15)
H37 H 0.5847 0.6666 0.8024
O11 O 0.6966(3) 0.8111(2) 0.81350(15)
C40 C 0.6621(6) 0.6829(4) 0.9247(3)
O12 O 0.5898(4) 0.6456(3) 0.8772(2)
O13 O 0.7408(4) 0.7574(3) 0.9216(2)
H38 H 0.7281 0.7711 0.8862
O14 O 0.6711(5) 0.6530(4) 0.9750(2)
N9 N 0.4429(6) 0.6495(4) 0.1053(3)
C41 C 0.3198(6) 0.6565(5) 0.1255(3)
H39 H 0.3314 0.6800 0.1708
H40 H 0.2756 0.7076 0.1064
C42 C 0.2421(7) 0.5594(6) 0.1091(3)
H41 H 0.2371 0.5314 0.0650
H42 H 0.1609 0.5726 0.1185
H43 H 0.2782 0.5116 0.1332
C43 C 0.5200(7) 0.5739(5) 0.1340(4)
H44 H 0.4794 0.5066 0.1185
H45 H 0.5984 0.5730 0.1188
C44 C 0.5448(7) 0.5911(5) 0.2027(4)
H46 H 0.5868 0.6568 0.2189
H47 H 0.5955 0.5390 0.2156
H48 H 0.4684 0.5889 0.2186
C45 C 0.4988(8) 0.7544(5) 0.1244(3)
H49 H 0.4983 0.7776 0.1691
H50 H 0.4483 0.7987 0.1022
C46 C 0.6283(9) 0.7649(6) 0.1119(4)
H51 H 0.6793 0.7216 0.1340
H52 H 0.6590 0.8346 0.1263
H53 H 0.6294 0.7451 0.0676
C47 C 0.4274(12) 0.6137(7) 0.0353(4)
H54 H 0.5085 0.6085 0.0232
H55 H 0.3877 0.5456 0.0249
C48 C 0.3589(14) 0.6753(8) -0.0010(4)
H56 H 0.2746 0.6729 0.0056
H57 H 0.3627 0.6506 -0.0448
H58 H 0.3926 0.7445 0.0113
C49 C 0.8721(5) 0.5882(5) 0.3235(3)
H59 H 0.8223 0.5250 0.3046
Cl1 Cl 0.7744(2) 0.67591(19) 0.35383(10)
Cl2 Cl 0.9330(2) 0.62720(15) 0.26476(11)
Cl3 Cl 0.9756(3) 0.5622(3) 0.38320(12)
C50 C 0.8980(9) 0.6393(7) 0.0598(4)
H60 H 0.8214 0.6665 0.0421
Cl4 Cl 0.9839(3) 0.6198(3) 0.00266(13)
Cl5 Cl 0.8546(2) 0.53364(17) 0.08889(10)
Cl6 Cl 0.9666(2) 0.73314(19) 0.12316(10)
C51? C 0.5688(8) 0.9868(6) 0.4423(4)
C52? C 0.4445(8) 0.8993(6) 0.5051(4)
C53? C -0.0244(11) 0.9975(11) 0.0636(5)
C54? C 0.1221(11) 1.0485(12) -0.0020(8)
N10? N 0.5000 1.0000 0.5000
C55? C 0.5968(7) 0.9257(6) 0.5138(4)
C56? C 0.6686(5) 0.9061(5) 0.4539(3)
C57? C 0.4127(8) 0.9608(6) 0.4416(4)
C58? C 0.3530(5) 0.8530(4) 0.4428(3)
N11? N 0.0000 1.0000 0.0000
C59? C 0.1048(11) 0.9810(10) 0.0457(6)
C60? C -0.0199(12) 1.1167(9) 0.0307(7)
C61? C 0.1351(9) 0.8636(11) 0.0188(7)
C62? C -0.1569(8) 0.9535(7) 0.0647(4)
loop_
_geom_bond_atom_site_label_1
_geom_bond_atom_site_label_2
_geom_bond_site_symmetry_1
_geom_bond_site_symmetry_2
C1 C2 1_555 1_555
C2 H1 1_555 1_555
C3 C2 1_555 1_555
H2 C3 1_555 1_555
C4 C3 1_555 1_555
C5 C4 1_555 1_555
C6 C5 1_555 1_555
H3 C6 1_555 1_555
H4 C6 1_555 1_555
H5 C6 1_555 1_555
C7 C5 1_555 1_555
H6 C7 1_555 1_555
H7 C7 1_555 1_555
H8 C7 1_555 1_555
C8 C5 1_555 1_555
C9 C8 1_555 1_555
H9 C9 1_555 1_555
C10 C9 1_555 1_555
H10 C10 1_555 1_555
C11 C10 1_555 1_555
C12 C11 1_555 1_555
C13 C12 1_555 1_555
H11 C13 1_555 1_555
H12 C13 1_555 1_555
H13 C13 1_555 1_555
C14 C12 1_555 1_555
C15 C14 1_555 1_555
H14 C15 1_555 1_555
C16 C15 1_555 1_555
C17 C16 1_555 1_555
H15 C17 1_555 1_555
C18 C17 1_555 1_555
C19 C14 1_555 1_555
H16 C19 1_555 1_555
C20 C12 1_555 1_555
C21 C20 1_555 1_555
H17 C21 1_555 1_555
C22 C21 1_555 1_555
H18 C22 1_555 1_555
C23 C22 1_555 1_555
C24 C23 1_555 1_555
C25 C24 1_555 1_555
H19 C25 1_555 1_555
H20 C25 1_555 1_555
H21 C25 1_555 1_555
C26 C24 1_555 1_555
H22 C26 1_555 1_555
H23 C26 1_555 1_555
H24 C26 1_555 1_555
C27 C24 1_555 1_555
C28 C27 1_555 1_555
H25 C28 1_555 1_555
C29 C28 1_555 1_555
H26 C29 1_555 1_555
C30 C29 1_555 1_555
C31 C1 1_555 1_555
C32 C31 1_555 1_555
H27 C32 1_555 1_555
H28 C32 1_555 1_555
H29 C32 1_555 1_555
C33 C31 1_555 1_555
C34 C33 1_555 1_555
H30 C34 1_555 1_555
C35 C34 1_555 1_555
C36 C35 1_555 1_555
H31 C36 1_555 1_555
C37 C36 1_555 1_555
C38 C33 1_555 1_555
H32 C38 1_555 1_555
N1 C1 1_555 1_555
H33 N1 1_555 1_555
N2 C27 1_555 1_555
H34 N2 1_555 1_555
N3 C20 1_555 1_555
H35 N3 1_555 1_555
N4 C8 1_555 1_555
H36 N4 1_555 1_555
N5 C16 1_555 1_555
N6 C18 1_555 1_555
N7 C35 1_555 1_555
N8 C37 1_555 1_555
O1 N6 1_555 1_555
O2 N6 1_555 1_555
O3 N5 1_555 1_555
O4 N5 1_555 1_555
O5 N8 1_555 1_555
O6 N8 1_555 1_555
O7 N7 1_555 1_555
O8 N7 1_555 1_555
C39 O9 1_555 1_555
O10 C39 1_555 1_555
H37 O10 1_555 1_555
O11 C39 1_555 1_555
C40 O12 1_555 1_555
O13 C40 1_555 1_555
H38 O13 1_555 1_555
O14 C40 1_555 1_555
N9 C41 1_555 1_555
C41 H39 1_555 1_555
H40 C41 1_555 1_555
C42 C41 1_555 1_555
H41 C42 1_555 1_555
H42 C42 1_555 1_555
H43 C42 1_555 1_555
C43 N9 1_555 1_555
H44 C43 1_555 1_555
H45 C43 1_555 1_555
C44 C43 1_555 1_555
H46 C44 1_555 1_555
H47 C44 1_555 1_555
H48 C44 1_555 1_555
C45 N9 1_555 1_555
H49 C45 1_555 1_555
H50 C45 1_555 1_555
C46 C45 1_555 1_555
H51 C46 1_555 1_555
H52 C46 1_555 1_555
H53 C46 1_555 1_555
C47 N9 1_555 1_555
H54 C47 1_555 1_555
H55 C47 1_555 1_555
C48 C47 1_555 1_555
H56 C48 1_555 1_555
H57 C48 1_555 1_555
H58 C48 1_555 1_555
C49 H59 1_555 1_555
Cl1 C49 1_555 1_555
Cl2 C49 1_555 1_555
Cl3 C49 1_555 1_555
C50 H60 1_555 1_555
Cl4 C50 1_555 1_555
Cl5 C50 1_555 1_555
Cl6 C50 1_555 1_555
C4 N1 1_555 1_555
C11 N4 1_555 1_555
C18 C19 1_555 1_555
C23 N3 1_555 1_555
C30 C31 1_555 1_555
C30 N2 1_555 1_555
C37 C38 1_555 1_555

#END
