
#######################################################################
#
#                 Cambridge Crystallographic Data Centre
#                                CCDC 
#
#######################################################################
#
# If this CIF has been generated from an entry in the Cambridge 
# Structural Database, then it will include bibliographic, chemical, 
# crystal, experimental, refinement or atomic coordinate data resulting 
# from the CCDC's data processing and validation procedures.
#
#######################################################################

data_ASPARM05
_chemical_formula_moiety         'C4 H8 N2 O3,H2 O1'
_chemical_name_systematic        'L-Asparagine monohydrate'
_symmetry_cell_setting           orthorhombic
_symmetry_space_group_name_H-M   'P 21 21 21'
_symmetry_Int_Tables_number      19
_space_group_name_Hall           'P 2ac 2ab'
loop_
_symmetry_equiv_pos_site_id
_symmetry_equiv_pos_as_xyz
1 x,y,z
2 1/2+x,1/2-y,-z
3 -x,1/2+y,1/2-z
4 1/2-x,-y,1/2+z
_cell_length_a                   5.584(1)
_cell_length_b                   9.735(1)
_cell_length_c                   11.701(2)
_cell_angle_alpha                90
_cell_angle_beta                 90
_cell_angle_gamma                90
_cell_volume                     636.069
_cell_formula_units_Z            4
loop_
_atom_site_label
_atom_site_type_symbol
_atom_site_fract_x
_atom_site_fract_y
_atom_site_fract_z
C1 C -0.1277(1) -0.0569(1) 0.0349(1)
C2 C -0.3094(1) -0.0262(1) 0.1300(1)
C3 C -0.2095(1) 0.0594(1) 0.2277(1)
C4 C 0.0165(1) -0.0006(1) 0.2793(1)
N1 N -0.4182(1) -0.1561(1) 0.1732(1)
N2 N 0.1069(1) 0.0649(1) 0.3695(1)
O1 O -0.0090(1) 0.0448(1) -0.0015(1)
O2 O -0.1215(1) -0.1759(1) -0.0046(1)
O3 O 0.1093(1) -0.1055(1) 0.2379(1)
H1 H -0.3156(24) -0.1986(14) 0.2252(11)
H2 H -0.4472(28) -0.2163(13) 0.1104(9)
H3 H -0.5702(17) -0.1407(16) 0.2042(12)
H4 H 0.2347(20) 0.0268(14) 0.4093(10)
H5 H 0.0312(27) 0.1389(12) 0.4023(12)
H6 H -0.4369(24) 0.0203(12) 0.0919(10)
H7 H -0.1720(28) 0.1517(10) 0.1935(1)
H8 H -0.3350(21) 0.0603(15) 0.2871(10)
O4 O 0.2984(1) 0.2275(1) 0.1129(1)
H9 H 0.2079(32) 0.1776(17) 0.0805(3)
H10 H 0.3395(35) 0.2954(16) 0.0715(13)
loop_
_geom_bond_atom_site_label_1
_geom_bond_atom_site_label_2
_geom_bond_site_symmetry_1
_geom_bond_site_symmetry_2
C1 C2 1_555 1_555
C2 C3 1_555 1_555
C3 C4 1_555 1_555
C4 N2 1_555 1_555
N1 C2 1_555 1_555
N2 H4 1_555 1_555
O1 C1 1_555 1_555
O2 C1 1_555 1_555
O3 C4 1_555 1_555
H1 N1 1_555 1_555
H2 N1 1_555 1_555
H3 N1 1_555 1_555
H5 N2 1_555 1_555
H6 C2 1_555 1_555
H7 C3 1_555 1_555
H8 C3 1_555 1_555
O4 H9 1_555 1_555
H10 O4 1_555 1_555

#END
