
#######################################################################
#
#                 Cambridge Crystallographic Data Centre
#                                CCDC 
#
#######################################################################
#
# If this CIF has been generated from an entry in the Cambridge 
# Structural Database, then it will include bibliographic, chemical, 
# crystal, experimental, refinement or atomic coordinate data resulting 
# from the CCDC's data processing and validation procedures.
#
#######################################################################

data_ASUJII
_chemical_formula_moiety         'C36 H30 N2 O8'
_chemical_name_systematic        
'Ethyl 2-(2,4-bis(4-nitrobenzoyl)-3,5-diphenylcyclopentyl)acrylate'
_symmetry_cell_setting           monoclinic
_symmetry_space_group_name_H-M   'P 21/c'
_symmetry_Int_Tables_number      14
_space_group_name_Hall           '-P 2ybc'
loop_
_symmetry_equiv_pos_site_id
_symmetry_equiv_pos_as_xyz
1 x,y,z
2 -x,1/2+y,1/2-z
3 -x,-y,-z
4 x,1/2-y,1/2+z
_cell_length_a                   11.6425(19)
_cell_length_b                   22.489(4)
_cell_length_c                   11.6436(18)
_cell_angle_alpha                90
_cell_angle_beta                 93.811(4)
_cell_angle_gamma                90
_cell_volume                     3041.88
_exptl_crystal_colour            colorless
_exptl_crystal_description       prism
_chemical_melting_point          '161-162 deg.C'
_cell_formula_units_Z            4
loop_
_atom_site_label
_atom_site_type_symbol
_atom_site_fract_x
_atom_site_fract_y
_atom_site_fract_z
O1 O 0.92132(12) -0.21384(5) 0.33405(9)
O2 O 0.85835(10) -0.26464(5) 0.47381(9)
O3 O 0.89696(8) 0.04348(4) 0.64666(8)
O4 O 0.89477(9) 0.12090(4) 1.07729(8)
O5 O 0.81323(11) 0.42022(5) 0.88632(9)
O6 O 0.69625(9) 0.40864(5) 1.02184(9)
O7 O 0.62130(9) 0.17985(5) 0.77729(9)
O8 O 0.53238(9) 0.18475(4) 0.94182(8)
N1 N 0.88774(11) -0.21772(5) 0.43125(10)
N2 N 0.76649(11) 0.38963(5) 0.95649(10)
C1 C 0.88817(12) -0.05801(6) 0.51268(11)
H1 H 0.8885 -0.0202 0.4762
C2 C 0.88917(12) -0.10899(6) 0.44670(12)
H2 H 0.8933 -0.1067 0.3656
C3 C 0.88409(12) -0.16331(6) 0.50125(11)
C4 C 0.87874(12) -0.16846(6) 0.61945(11)
H3 H 0.8728 -0.2063 0.6548
C5 C 0.88236(12) -0.11700(6) 0.68434(11)
H4 H 0.8819 -0.1196 0.7657
C6 C 0.88673(11) -0.06123(6) 0.63208(11)
C7 C 0.89157(11) -0.00338(6) 0.69806(11)
C8 C 0.88704(11) -0.00361(6) 0.82810(11)
H5 H 0.9166 -0.0422 0.8610
C9 C 0.76184(12) 0.00783(6) 0.86218(11)
H6 H 0.7608 -0.0004 0.9465
C10 C 0.74530(11) 0.07516(6) 0.84618(11)
H7 H 0.7249 0.0822 0.7625
C11 C 0.86934(11) 0.10293(6) 0.87432(11)
H8 H 0.8909 0.1276 0.8076
C12 C 0.95110(11) 0.04914(6) 0.88791(11)
H9 H 0.9561 0.0394 0.9719
C13 C 1.07389(12) 0.06039(6) 0.85783(11)
C14 C 1.12516(12) 0.11559(7) 0.88031(12)
H10 H 1.0815 0.1465 0.9118
C15 C 1.23886(13) 0.12611(7) 0.85750(13)
H11 H 1.2723 0.1639 0.8740
C16 C 1.30377(13) 0.08174(7) 0.81087(12)
H12 H 1.3815 0.0890 0.7948
C17 C 1.25417(12) 0.02676(7) 0.78797(12)
H13 H 1.2980 -0.0039 0.7557
C18 C 1.14071(12) 0.01601(6) 0.81179(11)
H14 H 1.1082 -0.0221 0.7965
C19 C 0.87263(12) 0.14148(6) 0.98174(11)
C20 C 0.84376(12) 0.20642(6) 0.97020(11)
C21 C 0.79030(12) 0.23376(6) 1.06002(12)
H15 H 0.7717 0.2108 1.1248
C22 C 0.76393(12) 0.29373(7) 1.05629(12)
H16 H 0.7262 0.3122 1.1168
C23 C 0.79417(12) 0.32591(6) 0.96198(12)
C24 C 0.84761(12) 0.30063(6) 0.87159(12)
H17 H 0.8680 0.3241 0.8083
C25 C 0.87082(12) 0.24032(6) 0.87517(12)
H18 H 0.9053 0.2218 0.8127
C26 C 0.64796(12) 0.10035(6) 0.91155(12)
C27 C 0.60055(14) 0.07337(7) 0.99751(13)
H19 H 0.5368 0.0910 1.0314
H20 H 0.6302 0.0363 1.0254
C28 C 0.60070(12) 0.15829(6) 0.86878(12)
C29 C 0.48856(14) 0.24262(7) 0.90727(14)
H21 H 0.4310 0.2387 0.8412
H22 H 0.5521 0.2682 0.8838
C30 C 0.43374(15) 0.26966(8) 1.00846(15)
H23 H 0.3712 0.2439 1.0311
H24 H 0.4028 0.3089 0.9871
H25 H 0.4916 0.2737 1.0731
C31 C 0.67031(12) -0.03112(6) 0.80203(11)
C32 C 0.65758(12) -0.08923(7) 0.83944(12)
H26 H 0.7046 -0.1033 0.9035
C33 C 0.57694(13) -0.12721(7) 0.78455(13)
H27 H 0.5700 -0.1670 0.8105
C34 C 0.50742(13) -0.10690(7) 0.69266(13)
H28 H 0.4518 -0.1326 0.6555
C35 C 0.51859(14) -0.04924(7) 0.65461(14)
H29 H 0.4707 -0.0353 0.5910
C36 C 0.59951(13) -0.01161(7) 0.70886(13)
H30 H 0.6066 0.0280 0.6820
loop_
_geom_bond_atom_site_label_1
_geom_bond_atom_site_label_2
_geom_bond_site_symmetry_1
_geom_bond_site_symmetry_2
O1 N1 1_555 1_555
O2 N1 1_555 1_555
O3 C7 1_555 1_555
O4 C19 1_555 1_555
O5 N2 1_555 1_555
O6 N2 1_555 1_555
O7 C28 1_555 1_555
O8 C28 1_555 1_555
N1 C3 1_555 1_555
N2 C23 1_555 1_555
C1 H1 1_555 1_555
C2 C1 1_555 1_555
H2 C2 1_555 1_555
C3 C2 1_555 1_555
C4 C3 1_555 1_555
H3 C4 1_555 1_555
C5 C4 1_555 1_555
H4 C5 1_555 1_555
C6 C1 1_555 1_555
C7 C6 1_555 1_555
C8 C7 1_555 1_555
H5 C8 1_555 1_555
C9 C8 1_555 1_555
H6 C9 1_555 1_555
C10 C9 1_555 1_555
H7 C10 1_555 1_555
C11 C10 1_555 1_555
H8 C11 1_555 1_555
C12 C8 1_555 1_555
H9 C12 1_555 1_555
C13 C12 1_555 1_555
C14 C13 1_555 1_555
H10 C14 1_555 1_555
C15 C14 1_555 1_555
H11 C15 1_555 1_555
C16 C15 1_555 1_555
H12 C16 1_555 1_555
C17 C16 1_555 1_555
H13 C17 1_555 1_555
C18 C13 1_555 1_555
H14 C18 1_555 1_555
C19 C11 1_555 1_555
C20 C19 1_555 1_555
C21 C20 1_555 1_555
H15 C21 1_555 1_555
C22 C21 1_555 1_555
H16 C22 1_555 1_555
C23 C22 1_555 1_555
C24 C23 1_555 1_555
H17 C24 1_555 1_555
C25 C20 1_555 1_555
H18 C25 1_555 1_555
C26 C10 1_555 1_555
C27 C26 1_555 1_555
H19 C27 1_555 1_555
H20 C27 1_555 1_555
C28 C26 1_555 1_555
C29 O8 1_555 1_555
H21 C29 1_555 1_555
H22 C29 1_555 1_555
C30 C29 1_555 1_555
H23 C30 1_555 1_555
H24 C30 1_555 1_555
H25 C30 1_555 1_555
C31 C9 1_555 1_555
C32 C31 1_555 1_555
H26 C32 1_555 1_555
C33 C32 1_555 1_555
H27 C33 1_555 1_555
C34 C33 1_555 1_555
H28 C34 1_555 1_555
C35 C34 1_555 1_555
H29 C35 1_555 1_555
C36 C31 1_555 1_555
H30 C36 1_555 1_555
C5 C6 1_555 1_555
C11 C12 1_555 1_555
C17 C18 1_555 1_555
C24 C25 1_555 1_555
C35 C36 1_555 1_555

#END
