
#######################################################################
#
#                 Cambridge Crystallographic Data Centre
#                                CCDC 
#
#######################################################################
#
# If this CIF has been generated from an entry in the Cambridge 
# Structural Database, then it will include bibliographic, chemical, 
# crystal, experimental, refinement or atomic coordinate data resulting 
# from the CCDC's data processing and validation procedures.
#
#######################################################################

data_ASUJAA
_chemical_formula_moiety         'C21 H20 Br1 N1 O4'
_chemical_name_systematic        
'Methyl (2R,3S,4aR)-3-(4-bromophenyl)-4a-methyl-1-oxo-2,3,4,4a-tetrahydro-1H,6H-pyrido[1,2-a][3,1]benzoxazine-2-carboxylate'
_symmetry_cell_setting           orthorhombic
_symmetry_space_group_name_H-M   'P 21 21 21'
_symmetry_Int_Tables_number      19
_space_group_name_Hall           'P 2ac 2ab'
loop_
_symmetry_equiv_pos_site_id
_symmetry_equiv_pos_as_xyz
1 x,y,z
2 1/2-x,-y,1/2+z
3 -x,1/2+y,1/2-z
4 1/2+x,1/2-y,-z
_cell_length_a                   7.5957(13)
_cell_length_b                   11.494(2)
_cell_length_c                   21.526(4)
_cell_angle_alpha                90
_cell_angle_beta                 90
_cell_angle_gamma                90
_cell_volume                     1879.33
_exptl_crystal_colour            colorless
_exptl_crystal_description       prismatic
_chemical_melting_point          '189-191 deg.C'
_cell_formula_units_Z            4
_exptl_crystal_recrystallization_method dichloromethane
loop_
_atom_site_label
_atom_site_type_symbol
_atom_site_fract_x
_atom_site_fract_y
_atom_site_fract_z
Br1 Br -0.15775(7) -0.25221(4) -0.03792(2)
O1 O 0.3156(4) 0.3262(2) 0.21541(13)
O2 O -0.1914(3) 0.4529(2) 0.14942(13)
O3 O 0.4485(4) 0.1768(3) 0.09289(16)
O4 O 0.3691(4) 0.0522(2) 0.16653(12)
N1 N 0.1109(4) 0.4148(2) 0.15512(13)
C1 C 0.2057(5) 0.3207(3) 0.17452(18)
C2 C 0.1722(5) 0.2040(3) 0.14380(16)
H1 H 0.1069 0.1556 0.1734
C3 C 0.0637(5) 0.2116(3) 0.08440(16)
H2 H 0.1337 0.2538 0.0535
C4 C -0.0964(5) 0.2846(3) 0.09917(18)
H3 H -0.1580 0.2505 0.1342
H4 H -0.1756 0.2837 0.0638
C5 C -0.0488(5) 0.4097(3) 0.11454(17)
C6 C -0.1771(6) 0.5721(3) 0.1649(2)
H5 H -0.2576 0.5892 0.1986
H6 H -0.2124 0.6184 0.1294
C7 C 0.0045(5) 0.6067(3) 0.18381(17)
C8 C 0.1438(5) 0.5294(3) 0.18019(15)
C9 C 0.3126(6) 0.5657(3) 0.19692(16)
H7 H 0.4077 0.5152 0.1933
C10 C 0.3369(6) 0.6775(3) 0.21896(18)
H8 H 0.4484 0.7007 0.2318
C11 C 0.2001(7) 0.7549(4) 0.22229(17)
H9 H 0.2192 0.8302 0.2366
C12 C 0.0332(6) 0.7203(3) 0.20420(18)
H10 H -0.0598 0.7728 0.2057
C13 C -0.0153(5) 0.4803(3) 0.05539(17)
H11 H -0.1243 0.4914 0.0336
H12 H 0.0659 0.4392 0.0292
H13 H 0.0334 0.5546 0.0663
C14 C 0.3451(6) 0.1457(3) 0.13143(19)
C15 C 0.5278(6) -0.0132(4) 0.1550(2)
H14 H 0.5274 -0.0409 0.1129
H15 H 0.5334 -0.0781 0.1830
H16 H 0.6283 0.0361 0.1614
C16 C 0.0134(5) 0.0942(3) 0.05643(16)
C17 C 0.0001(5) 0.0852(3) -0.00701(17)
H17 H 0.0243 0.1499 -0.0315
C18 C -0.0481(5) -0.0170(3) -0.03509(19)
H18 H -0.0544 -0.0218 -0.0782
C19 C -0.0868(5) -0.1117(3) 0.00062(19)
C20 C -0.0760(6) -0.1044(4) 0.0630(2)
H19 H -0.1030 -0.1687 0.0874
C21 C -0.0251(6) -0.0024(3) 0.09032(19)
H20 H -0.0166 0.0010 0.1334
loop_
_geom_bond_atom_site_label_1
_geom_bond_atom_site_label_2
_geom_bond_site_symmetry_1
_geom_bond_site_symmetry_2
Br1 C19 1_555 1_555
O1 C1 1_555 1_555
O2 C5 1_555 1_555
O3 C14 1_555 1_555
O4 C14 1_555 1_555
N1 C1 1_555 1_555
C1 C2 1_555 1_555
C2 H1 1_555 1_555
C3 C2 1_555 1_555
H2 C3 1_555 1_555
C4 C3 1_555 1_555
H3 C4 1_555 1_555
H4 C4 1_555 1_555
C5 N1 1_555 1_555
C6 O2 1_555 1_555
H5 C6 1_555 1_555
H6 C6 1_555 1_555
C7 C6 1_555 1_555
C8 N1 1_555 1_555
C9 C8 1_555 1_555
H7 C9 1_555 1_555
C10 C9 1_555 1_555
H8 C10 1_555 1_555
C11 C10 1_555 1_555
H9 C11 1_555 1_555
C12 C7 1_555 1_555
H10 C12 1_555 1_555
C13 C5 1_555 1_555
H11 C13 1_555 1_555
H12 C13 1_555 1_555
H13 C13 1_555 1_555
C14 C2 1_555 1_555
C15 O4 1_555 1_555
H14 C15 1_555 1_555
H15 C15 1_555 1_555
H16 C15 1_555 1_555
C16 C3 1_555 1_555
C17 C16 1_555 1_555
H17 C17 1_555 1_555
C18 C17 1_555 1_555
H18 C18 1_555 1_555
C19 C18 1_555 1_555
C20 C19 1_555 1_555
H19 C20 1_555 1_555
C21 C16 1_555 1_555
H20 C21 1_555 1_555
C4 C5 1_555 1_555
C7 C8 1_555 1_555
C11 C12 1_555 1_555
C20 C21 1_555 1_555

#END
