
#######################################################################
#
#                 Cambridge Crystallographic Data Centre
#                                CCDC 
#
#######################################################################
#
# If this CIF has been generated from an entry in the Cambridge 
# Structural Database, then it will include bibliographic, chemical, 
# crystal, experimental, refinement or atomic coordinate data resulting 
# from the CCDC's data processing and validation procedures.
#
#######################################################################

data_ASUKIJ
_chemical_formula_moiety         'C18 H13 F1'
_chemical_name_systematic        
6-Fluoro-3-phenyl-1,2-dihydrocyclopenta[a]indene
_symmetry_cell_setting           monoclinic
_symmetry_space_group_name_H-M   'P 21/c'
_symmetry_Int_Tables_number      14
_space_group_name_Hall           '-P 2ybc'
loop_
_symmetry_equiv_pos_site_id
_symmetry_equiv_pos_as_xyz
1 x,y,z
2 -x,1/2+y,1/2-z
3 -x,-y,-z
4 x,1/2-y,1/2+z
_cell_length_a                   9.2851(9)
_cell_length_b                   18.4728(17)
_cell_length_c                   16.5041(19)
_cell_angle_alpha                90
_cell_angle_beta                 113.808(8)
_cell_angle_gamma                90
_cell_volume                     2589.92
_exptl_crystal_colour            yellow
_exptl_crystal_description       plate
_cell_formula_units_Z            8
loop_
_atom_site_label
_atom_site_type_symbol
_atom_site_fract_x
_atom_site_fract_y
_atom_site_fract_z
F1 F 0.06025(14) 1.18330(8) 0.42021(9)
C1 C 0.2499(3) 0.75421(14) 0.31769(16)
H1 H 0.3104 0.7512 0.2846
C2 C 0.2705(3) 0.70391(14) 0.38284(18)
H2 H 0.3462 0.6679 0.3943
C3 C 0.1791(3) 0.70652(14) 0.43140(16)
H3 H 0.1943 0.6730 0.4762
C4 C 0.0663(3) 0.75888(15) 0.41286(17)
H4 H 0.0021 0.7597 0.4439
C5 C 0.0460(2) 0.81063(13) 0.34877(16)
H5 H -0.0303 0.8463 0.3376
C6 C 0.1401(3) 0.80949(13) 0.30057(15)
C7 C 0.1233(2) 0.86606(14) 0.23522(15)
C8 C 0.1418(3) 0.84890(13) 0.14928(15)
H6 H 0.0679 0.8117 0.1159
H7 H 0.2479 0.8324 0.1616
C9 C 0.1069(3) 0.92148(13) 0.09715(17)
H8 H 0.1927 0.9345 0.0807
H9 H 0.0105 0.9182 0.0440
C10 C 0.0904(3) 0.97576(15) 0.16099(16)
C11 C 0.0977(2) 0.93725(13) 0.23999(16)
C12 C 0.0762(3) 1.04643(14) 0.16891(16)
H10 H 0.0691 1.0814 0.1269
C13 C 0.0739(2) 1.05944(14) 0.25566(16)
C14 C 0.0864(2) 0.99275(12) 0.29987(16)
C15 C 0.0955(2) 0.99131(13) 0.38581(15)
H11 H 0.1061 0.9476 0.4157
C16 C 0.0885(2) 1.05713(15) 0.42690(17)
H12 H 0.0945 1.0580 0.4845
C17 C 0.0726(3) 1.11986(15) 0.37990(19)
C18 C 0.0673(2) 1.12429(14) 0.29588(17)
H13 H 0.0597 1.1685 0.2674
F2 F 0.67806(16) 0.63694(8) 0.41962(10)
C19 C 0.5004(2) 1.00936(14) 0.34849(16)
H14 H 0.4382 0.9680 0.3366
C20 C 0.4976(3) 1.05867(16) 0.41097(17)
H15 H 0.4327 1.0502 0.4406
C21 C 0.5896(3) 1.12010(15) 0.42987(17)
H16 H 0.5890 1.1523 0.4730
C22 C 0.6825(3) 1.13327(15) 0.38421(19)
H17 H 0.7446 1.1747 0.3964
C23 C 0.6838(3) 1.08539(15) 0.32069(17)
H18 H 0.7441 1.0959 0.2888
C24 C 0.5972(3) 1.02182(14) 0.30326(16)
C25 C 0.6039(2) 0.96974(16) 0.23804(16)
C26 C 0.6126(3) 0.99572(14) 0.15216(17)
H19 H 0.7103 1.0215 0.1645
H20 H 0.5251 1.0276 0.1198
C27 C 0.6046(3) 0.92571(15) 0.09832(18)
H21 H 0.5074 0.9239 0.0454
H22 H 0.6928 0.9231 0.0812
C28 C 0.6113(3) 0.86465(16) 0.16126(18)
C29 C 0.6067(3) 0.89693(15) 0.24156(17)
C30 C 0.6182(2) 0.83603(14) 0.29981(17)
C31 C 0.6272(3) 0.77251(15) 0.25389(17)
C32 C 0.6206(3) 0.79307(15) 0.16739(17)
H23 H 0.6225 0.7615 0.1239
C33 C 0.6464(2) 0.70477(14) 0.29312(18)
H24 H 0.6513 0.6628 0.2631
C34 C 0.6579(3) 0.70305(16) 0.3786(2)
C35 C 0.6516(3) 0.76288(17) 0.42566(17)
H25 H 0.6612 0.7581 0.4837
C36 C 0.6307(2) 0.83100(15) 0.38665(17)
H26 H 0.6253 0.8722 0.4177
loop_
_geom_bond_atom_site_label_1
_geom_bond_atom_site_label_2
_geom_bond_site_symmetry_1
_geom_bond_site_symmetry_2
F1 C17 1_555 1_555
C1 H1 1_555 1_555
C2 C1 1_555 1_555
H2 C2 1_555 1_555
C3 C2 1_555 1_555
H3 C3 1_555 1_555
C4 C3 1_555 1_555
H4 C4 1_555 1_555
C5 C4 1_555 1_555
H5 C5 1_555 1_555
C6 C1 1_555 1_555
C7 C6 1_555 1_555
C8 C7 1_555 1_555
H6 C8 1_555 1_555
H7 C8 1_555 1_555
C9 C8 1_555 1_555
H8 C9 1_555 1_555
H9 C9 1_555 1_555
C10 C9 1_555 1_555
C11 C7 1_555 1_555
C12 C10 1_555 1_555
H10 C12 1_555 1_555
C13 C12 1_555 1_555
C14 C11 1_555 1_555
C15 C14 1_555 1_555
H11 C15 1_555 1_555
C16 C15 1_555 1_555
H12 C16 1_555 1_555
C17 C16 1_555 1_555
C18 C13 1_555 1_555
H13 C18 1_555 1_555
F2 C34 1_555 1_555
C19 H14 1_555 1_555
C20 C19 1_555 1_555
H15 C20 1_555 1_555
C21 C20 1_555 1_555
H16 C21 1_555 1_555
C22 C21 1_555 1_555
H17 C22 1_555 1_555
C23 C22 1_555 1_555
H18 C23 1_555 1_555
C24 C19 1_555 1_555
C25 C24 1_555 1_555
C26 C25 1_555 1_555
H19 C26 1_555 1_555
H20 C26 1_555 1_555
C27 C26 1_555 1_555
H21 C27 1_555 1_555
H22 C27 1_555 1_555
C28 C27 1_555 1_555
C29 C25 1_555 1_555
C30 C29 1_555 1_555
C31 C30 1_555 1_555
C32 C28 1_555 1_555
H23 C32 1_555 1_555
C33 C31 1_555 1_555
H24 C33 1_555 1_555
C34 C33 1_555 1_555
C35 C34 1_555 1_555
H25 C35 1_555 1_555
C36 C30 1_555 1_555
H26 C36 1_555 1_555
C5 C6 1_555 1_555
C10 C11 1_555 1_555
C13 C14 1_555 1_555
C17 C18 1_555 1_555
C23 C24 1_555 1_555
C28 C29 1_555 1_555
C31 C32 1_555 1_555
C35 C36 1_555 1_555

#END
