
#######################################################################
#
#                 Cambridge Crystallographic Data Centre
#                                CCDC 
#
#######################################################################
#
# If this CIF has been generated from an entry in the Cambridge 
# Structural Database, then it will include bibliographic, chemical, 
# crystal, experimental, refinement or atomic coordinate data resulting 
# from the CCDC's data processing and validation procedures.
#
#######################################################################

data_ASULAC
_chemical_formula_moiety         'C33 H25 N1 O8'
_chemical_name_systematic        
'Dimethyl 5-(4-nitrophenyl)-4-oxo-2,3-diphenyl-4,8-dihydro-3H-naphtho[1,8-bc]furan-7,7(6H)-dicarboxylate'
_symmetry_cell_setting           monoclinic
_symmetry_space_group_name_H-M   'P 21/n'
_symmetry_Int_Tables_number      14
_space_group_name_Hall           '-P 2yn'
loop_
_symmetry_equiv_pos_site_id
_symmetry_equiv_pos_as_xyz
1 x,y,z
2 1/2-x,1/2+y,1/2-z
3 -x,-y,-z
4 1/2+x,1/2-y,1/2+z
_cell_length_a                   11.4787(9)
_cell_length_b                   9.9688(8)
_cell_length_c                   24.0837(18)
_cell_angle_alpha                90
_cell_angle_beta                 90.213(1)
_cell_angle_gamma                90
_cell_volume                     2755.85
_exptl_crystal_colour            yellow
_exptl_crystal_description       block
_cell_formula_units_Z            4
loop_
_atom_site_label
_atom_site_type_symbol
_atom_site_fract_x
_atom_site_fract_y
_atom_site_fract_z
O1 O 0.17506(11) 0.87007(12) 0.05309(6)
O2 O 0.32438(15) 0.41674(16) 0.18460(7)
O3 O -0.18233(16) 0.86180(16) 0.10547(7)
O4 O -0.11064(12) 0.67088(13) 0.13768(6)
O5 O -0.0711(2) 1.08581(19) 0.21541(9)
O6 O -0.18571(18) 0.9107(2) 0.23060(8)
O7 O 0.0012(2) 0.3941(2) 0.44005(9)
O8 O -0.02294(17) 0.2077(2) 0.39585(9)
N1 N 0.00670(18) 0.3252(2) 0.39849(11)
C1 C 0.1399(2) 0.5737(2) 0.30161(9)
H1 H 0.1704 0.6601 0.3031
C2 C 0.0987(2) 0.5144(2) 0.34972(10)
H2 H 0.1009 0.5607 0.3832
C3 C 0.05476(19) 0.3871(2) 0.34726(10)
C4 C 0.0532(2) 0.3157(2) 0.29868(11)
H3 H 0.0246 0.2284 0.2979
C5 C 0.0947(2) 0.3751(2) 0.25083(10)
H4 H 0.0948 0.3267 0.2178
C6 C 0.13640(18) 0.50636(19) 0.25134(9)
C7 C 0.17179(18) 0.57101(19) 0.19827(8)
C8 C 0.26177(18) 0.50295(19) 0.16446(9)
C9 C 0.27541(17) 0.53268(18) 0.10198(8)
H5 H 0.3582 0.5270 0.0925
C10 C 0.23217(15) 0.67098(18) 0.08751(8)
C11 C 0.16248(16) 0.73917(17) 0.12713(8)
C12 C 0.12705(16) 0.68975(18) 0.18005(8)
C13 C 0.04244(18) 0.77946(19) 0.21036(8)
H6 H 0.0852 0.8330 0.2372
H7 H -0.0121 0.7239 0.2307
C14 C -0.02722(17) 0.87484(18) 0.17144(8)
C15 C 0.05220(19) 0.95598(19) 0.13197(9)
H8 H 0.0059 1.0028 0.1043
H9 H 0.0973 1.0214 0.1527
C16 C 0.12990(17) 0.85730(18) 0.10516(8)
C17 C 0.23843(16) 0.75264(18) 0.04236(9)
C18 C 0.29092(16) 0.74451(19) -0.01240(9)
C19 C 0.35592(17) 0.6324(2) -0.02763(10)
H10 H 0.3670 0.5629 -0.0024
C20 C 0.40393(19) 0.6240(2) -0.08001(11)
H11 H 0.4471 0.5487 -0.0897
C21 C 0.3888(2) 0.7251(3) -0.11777(11)
H12 H 0.4215 0.7187 -0.1529
C22 C 0.3248(2) 0.8364(3) -0.10332(11)
H13 H 0.3144 0.9055 -0.1288
C23 C 0.2759(2) 0.8457(2) -0.05130(10)
H14 H 0.2322 0.9210 -0.0421
C24 C 0.21092(17) 0.41989(18) 0.07231(8)
C25 C 0.2702(2) 0.30694(19) 0.05496(10)
H15 H 0.3506 0.3024 0.0595
C26 C 0.2118(3) 0.2011(2) 0.03097(10)
H16 H 0.2530 0.1262 0.0190
C27 C 0.0938(3) 0.2058(2) 0.02473(10)
H17 H 0.0543 0.1334 0.0093
C28 C 0.0338(2) 0.3172(3) 0.04125(11)
H18 H -0.0466 0.3209 0.0366
C29 C 0.09238(19) 0.4246(2) 0.06498(10)
H19 H 0.0511 0.5003 0.0760
C30 C -0.11669(18) 0.8024(2) 0.13481(8)
C31 C -0.1890(2) 0.5991(2) 0.10022(10)
H20 H -0.1788 0.5042 0.1051
H21 H -0.1716 0.6229 0.0625
H22 H -0.2681 0.6229 0.1084
C32 C -0.0955(2) 0.9719(2) 0.20810(9)
C33 C -0.2607(3) 0.9917(4) 0.26563(14)
H23 H -0.3226 0.9371 0.2799
H24 H -0.2931 1.0640 0.2442
H25 H -0.2161 1.0277 0.2960
loop_
_geom_bond_atom_site_label_1
_geom_bond_atom_site_label_2
_geom_bond_site_symmetry_1
_geom_bond_site_symmetry_2
O1 C16 1_555 1_555
O2 C8 1_555 1_555
O3 C30 1_555 1_555
O4 C30 1_555 1_555
O5 C32 1_555 1_555
O6 C32 1_555 1_555
O7 N1 1_555 1_555
O8 N1 1_555 1_555
N1 C3 1_555 1_555
C1 H1 1_555 1_555
C2 C1 1_555 1_555
H2 C2 1_555 1_555
C3 C2 1_555 1_555
C4 C3 1_555 1_555
H3 C4 1_555 1_555
C5 C4 1_555 1_555
H4 C5 1_555 1_555
C6 C1 1_555 1_555
C7 C6 1_555 1_555
C8 C7 1_555 1_555
C9 C8 1_555 1_555
H5 C9 1_555 1_555
C10 C9 1_555 1_555
C11 C10 1_555 1_555
C12 C7 1_555 1_555
C13 C12 1_555 1_555
H6 C13 1_555 1_555
H7 C13 1_555 1_555
C14 C13 1_555 1_555
C15 C14 1_555 1_555
H8 C15 1_555 1_555
H9 C15 1_555 1_555
C16 C11 1_555 1_555
C17 O1 1_555 1_555
C18 C17 1_555 1_555
C19 C18 1_555 1_555
H10 C19 1_555 1_555
C20 C19 1_555 1_555
H11 C20 1_555 1_555
C21 C20 1_555 1_555
H12 C21 1_555 1_555
C22 C21 1_555 1_555
H13 C22 1_555 1_555
C23 C18 1_555 1_555
H14 C23 1_555 1_555
C24 C9 1_555 1_555
C25 C24 1_555 1_555
H15 C25 1_555 1_555
C26 C25 1_555 1_555
H16 C26 1_555 1_555
C27 C26 1_555 1_555
H17 C27 1_555 1_555
C28 C27 1_555 1_555
H18 C28 1_555 1_555
C29 C24 1_555 1_555
H19 C29 1_555 1_555
C30 C14 1_555 1_555
C31 O4 1_555 1_555
H20 C31 1_555 1_555
H21 C31 1_555 1_555
H22 C31 1_555 1_555
C32 C14 1_555 1_555
C33 O6 1_555 1_555
H23 C33 1_555 1_555
H24 C33 1_555 1_555
H25 C33 1_555 1_555
C5 C6 1_555 1_555
C10 C17 1_555 1_555
C11 C12 1_555 1_555
C15 C16 1_555 1_555
C22 C23 1_555 1_555
C28 C29 1_555 1_555

#END
