
#######################################################################
#
#                 Cambridge Crystallographic Data Centre
#                                CCDC 
#
#######################################################################
#
# If this CIF has been generated from an entry in the Cambridge 
# Structural Database, then it will include bibliographic, chemical, 
# crystal, experimental, refinement or atomic coordinate data resulting 
# from the CCDC's data processing and validation procedures.
#
#######################################################################

data_ASUMEG
_chemical_formula_moiety         'C20 H15 Br1 N2 O2 S1'
_chemical_name_systematic        
4-Bromo-N-(2-phenyl-1H-indol-7-yl)benzenesulfonamide
_chemical_properties_biological  'potential bioactive inhibitor'
_symmetry_cell_setting           monoclinic
_symmetry_space_group_name_H-M   'C 2/c'
_symmetry_Int_Tables_number      15
_space_group_name_Hall           '-C 2yn'
loop_
_symmetry_equiv_pos_site_id
_symmetry_equiv_pos_as_xyz
1 x,y,z
2 1/2+x,1/2+y,z
3 x,-y,1/2+z
4 1/2+x,1/2-y,1/2+z
5 -x,-y,-z
6 1/2-x,1/2-y,-z
7 -x,y,1/2-z
8 1/2-x,1/2+y,1/2-z
_cell_length_a                   30.764(14)
_cell_length_b                   4.922(2)
_cell_length_c                   26.335(13)
_cell_angle_alpha                90
_cell_angle_beta                 114.332(8)
_cell_angle_gamma                90
_cell_volume                     3633.45
_exptl_crystal_colour            colorless
_exptl_crystal_description       bar
_cell_formula_units_Z            8
_exptl_crystal_recrystallization_method 'ethyl acetate'
loop_
_atom_site_label
_atom_site_type_symbol
_atom_site_fract_x
_atom_site_fract_y
_atom_site_fract_z
Br1 Br 0.035975(15) -0.16015(11) 0.185976(17)
S1 S 0.20783(3) 0.18035(16) 0.41436(3)
O1 O 0.19605(7) 0.0927(5) 0.45857(9)
O2 O 0.21876(8) 0.4562(4) 0.40998(9)
N1 N 0.25367(8) 0.0034(5) 0.41938(9)
H1 H 0.2466 -0.1745 0.4182
N2 N 0.33162(8) 0.4082(5) 0.44433(10)
H2 H 0.3196 0.4275 0.4700
C1 C 0.08611(11) -0.0514(8) 0.25395(13)
C2 C 0.09056(12) -0.1726(8) 0.30264(15)
H3 H 0.0686 -0.3029 0.3025
C3 C 0.12774(11) -0.1001(7) 0.35179(14)
H4 H 0.1312 -0.1814 0.3851
C4 C 0.15975(10) 0.0937(6) 0.35122(12)
C5 C 0.15456(12) 0.2150(8) 0.30206(14)
H5 H 0.1761 0.3474 0.3021
C6 C 0.11761(13) 0.1418(8) 0.25276(15)
H6 H 0.1141 0.2220 0.2193
C7 C 0.31332(10) 0.2441(6) 0.39825(12)
C8 C 0.27683(10) 0.0553(6) 0.38262(12)
C9 C 0.26606(12) -0.0899(6) 0.33427(13)
H7 H 0.2418 -0.2185 0.3232
C10 C 0.29172(12) -0.0441(7) 0.30159(13)
H8 H 0.2836 -0.1399 0.2685
C11 C 0.32828(13) 0.1385(7) 0.31756(14)
H9 H 0.3451 0.1658 0.2956
C12 C 0.34029(11) 0.2835(7) 0.36681(13)
C13 C 0.37682(11) 0.4699(7) 0.39809(13)
H10 H 0.4006 0.5339 0.3880
C14 C 0.37140(10) 0.5387(6) 0.44461(13)
C15 C 0.39993(11) 0.7197(6) 0.49081(13)
C16 C 0.44886(12) 0.7380(8) 0.50572(15)
H11 H 0.4625 0.6369 0.4863
C17 C 0.47709(13) 0.9019(9) 0.54840(16)
H12 H 0.5098 0.9094 0.5582
C18 C 0.45725(14) 1.0559(9) 0.57699(15)
H13 H 0.4763 1.1691 0.6059
C19 C 0.40928(13) 1.0413(7) 0.56263(14)
H14 H 0.3957 1.1460 0.5817
C20 C 0.38083(12) 0.8720(6) 0.52002(13)
H15 H 0.3483 0.8615 0.5111
loop_
_geom_bond_atom_site_label_1
_geom_bond_atom_site_label_2
_geom_bond_site_symmetry_1
_geom_bond_site_symmetry_2
Br1 C1 1_555 1_555
S1 O1 1_555 1_555
O2 S1 1_555 1_555
N1 S1 1_555 1_555
H1 N1 1_555 1_555
N2 H2 1_555 1_555
C1 C2 1_555 1_555
C2 H3 1_555 1_555
C3 C2 1_555 1_555
H4 C3 1_555 1_555
C4 S1 1_555 1_555
C5 C4 1_555 1_555
H5 C5 1_555 1_555
C6 C1 1_555 1_555
H6 C6 1_555 1_555
C7 N2 1_555 1_555
C8 N1 1_555 1_555
C9 C8 1_555 1_555
H7 C9 1_555 1_555
C10 C9 1_555 1_555
H8 C10 1_555 1_555
C11 C10 1_555 1_555
H9 C11 1_555 1_555
C12 C7 1_555 1_555
C13 C12 1_555 1_555
H10 C13 1_555 1_555
C14 N2 1_555 1_555
C15 C14 1_555 1_555
C16 C15 1_555 1_555
H11 C16 1_555 1_555
C17 C16 1_555 1_555
H12 C17 1_555 1_555
C18 C17 1_555 1_555
H13 C18 1_555 1_555
C19 C18 1_555 1_555
H14 C19 1_555 1_555
C20 C15 1_555 1_555
H15 C20 1_555 1_555
C3 C4 1_555 1_555
C5 C6 1_555 1_555
C7 C8 1_555 1_555
C11 C12 1_555 1_555
C13 C14 1_555 1_555
C19 C20 1_555 1_555

#END
