
#######################################################################
#
#                 Cambridge Crystallographic Data Centre
#                                CCDC 
#
#######################################################################
#
# If this CIF has been generated from an entry in the Cambridge 
# Structural Database, then it will include bibliographic, chemical, 
# crystal, experimental, refinement or atomic coordinate data resulting 
# from the CCDC's data processing and validation procedures.
#
#######################################################################

data_ASUMIL
_chemical_formula_moiety         'C12 H17 N1 O2'
_chemical_name_systematic        
Hexahydro-1H-cyclopenta[b]pyrrolo[1,2-a]azepine-5,10(6H,11H)-dione
_symmetry_cell_setting           monoclinic
_symmetry_space_group_name_H-M   'P 21/n'
_symmetry_Int_Tables_number      14
_space_group_name_Hall           '-P 2yn'
loop_
_symmetry_equiv_pos_site_id
_symmetry_equiv_pos_as_xyz
1 x,y,z
2 1/2-x,1/2+y,1/2-z
3 -x,-y,-z
4 1/2+x,1/2-y,1/2+z
_cell_length_a                   6.200(3)
_cell_length_b                   11.695(6)
_cell_length_c                   15.337(7)
_cell_angle_alpha                90
_cell_angle_beta                 91.527(7)
_cell_angle_gamma                90
_cell_volume                     1111.68
_exptl_crystal_colour            colorless
_exptl_crystal_description       stick
_chemical_melting_point          '157-159 deg.C'
_cell_formula_units_Z            4
loop_
_atom_site_label
_atom_site_type_symbol
_atom_site_fract_x
_atom_site_fract_y
_atom_site_fract_z
C1 C 0.8680(10) 0.1527(6) 0.3070(5)
C2 C 0.6778(10) 0.1841(6) 0.3574(6)
H1 H 0.5768 0.2310 0.3226
C3 C 0.7371(12) 0.2440(6) 0.4496(5)
H2 H 0.6021 0.2595 0.4779
H3 H 0.8132 0.1876 0.4852
C4 C 0.8627(18) 0.3477(7) 0.4535(6)
H4 H 0.8698 0.3737 0.5136
H5 H 0.7871 0.4058 0.4195
C5 C 1.0857(14) 0.3386(6) 0.4218(5)
H6 H 1.1564 0.2771 0.4540
H7 H 1.1603 0.4087 0.4379
C6 C 1.1212(14) 0.3184(8) 0.3274(7)
C7 C 0.9683(9) 0.0508(5) 0.3581(5)
H8 H 1.0451 -0.0001 0.3198
H9 H 1.0662 0.0770 0.4043
C8 C 0.7748(9) -0.0062(6) 0.3942(4)
C9 C 0.5804(10) 0.0645(6) 0.3770(5)
H10 H 0.4896 0.0671 0.4275
H11 H 0.4967 0.0357 0.3274
C10 C 0.7799(11) 0.1138(6) 0.2125(4)
H12 H 0.7345 0.0345 0.2133
H13 H 0.6586 0.1608 0.1936
C11 C 0.9632(14) 0.1294(7) 0.1545(5)
H14 H 1.0497 0.0604 0.1531
H15 H 0.9115 0.1462 0.0956
C12 C 1.0929(11) 0.2254(7) 0.1892(4)
H16 H 1.0634 0.2941 0.1555
H17 H 1.2455 0.2081 0.1860
N1 N 1.0329(9) 0.2426(5) 0.2813(4)
O1 O 1.2576(9) 0.3842(5) 0.2855(4)
O2 O 0.7731(8) -0.0986(4) 0.4319(4)
loop_
_geom_bond_atom_site_label_1
_geom_bond_atom_site_label_2
_geom_bond_site_symmetry_1
_geom_bond_site_symmetry_2
C1 C2 1_555 1_555
C2 H1 1_555 1_555
C3 C2 1_555 1_555
H2 C3 1_555 1_555
H3 C3 1_555 1_555
C4 C3 1_555 1_555
H4 C4 1_555 1_555
H5 C4 1_555 1_555
C5 C4 1_555 1_555
H6 C5 1_555 1_555
H7 C5 1_555 1_555
C6 C5 1_555 1_555
C7 C1 1_555 1_555
H8 C7 1_555 1_555
H9 C7 1_555 1_555
C8 C7 1_555 1_555
C9 C2 1_555 1_555
H10 C9 1_555 1_555
H11 C9 1_555 1_555
C10 C1 1_555 1_555
H12 C10 1_555 1_555
H13 C10 1_555 1_555
C11 C10 1_555 1_555
H14 C11 1_555 1_555
H15 C11 1_555 1_555
C12 C11 1_555 1_555
H16 C12 1_555 1_555
H17 C12 1_555 1_555
N1 C1 1_555 1_555
O1 C6 1_555 1_555
O2 C8 1_555 1_555
C6 N1 1_555 1_555
C8 C9 1_555 1_555
C12 N1 1_555 1_555

#END
