
#######################################################################
#
#                 Cambridge Crystallographic Data Centre
#                                CCDC 
#
#######################################################################
#
# If this CIF has been generated from an entry in the Cambridge 
# Structural Database, then it will include bibliographic, chemical, 
# crystal, experimental, refinement or atomic coordinate data resulting 
# from the CCDC's data processing and validation procedures.
#
#######################################################################

data_ASUWOC
_chemical_formula_moiety         'C25 H23 N3 O4'
_chemical_name_systematic        
2-((2,2-dimethyl-2,3-dihydro-1-benzofuran-7-yl)oxy)-N-(3-(2-furyl)-1-phenyl-1H-pyrazol-5-yl)acetamide
_symmetry_cell_setting           monoclinic
_symmetry_space_group_name_H-M   'P 21/c'
_symmetry_Int_Tables_number      14
_space_group_name_Hall           '-P 2ybc'
loop_
_symmetry_equiv_pos_site_id
_symmetry_equiv_pos_as_xyz
1 x,y,z
2 -x,1/2+y,1/2-z
3 -x,-y,-z
4 x,1/2-y,1/2+z
_cell_length_a                   20.6205(18)
_cell_length_b                   5.2930(5)
_cell_length_c                   18.9282(17)
_cell_angle_alpha                90
_cell_angle_beta                 94.089(2)
_cell_angle_gamma                90
_cell_volume                     2060.65
_exptl_crystal_colour            colorless
_exptl_crystal_description       Prism
_cell_formula_units_Z            4
loop_
_atom_site_label
_atom_site_type_symbol
_atom_site_fract_x
_atom_site_fract_y
_atom_site_fract_z
O1 O 0.31680(3) 0.41489(14) 0.29280(4)
O2 O 0.35836(3) 0.09144(15) 0.40504(4)
O3 O 0.34395(4) -0.38508(18) 0.53503(4)
O4 O 0.14626(4) -0.97471(15) 0.58001(4)
N1 N 0.27347(4) -0.23342(18) 0.44664(4)
N2 N 0.15776(4) -0.30867(17) 0.43328(4)
N3 N 0.11120(4) -0.46038(17) 0.45938(4)
C1 C 0.37789(5) 0.4269(2) 0.32620(5)
C2 C 0.40036(5) 0.2717(2) 0.38217(5)
C3 C 0.46403(5) 0.3103(2) 0.41086(6)
H1 H 0.4807 0.2081 0.4492
C4 C 0.50336(5) 0.4965(2) 0.38401(6)
H2 H 0.5465 0.5194 0.4042
C5 C 0.48016(5) 0.6489(2) 0.32797(6)
H3 H 0.5069 0.7755 0.3096
C6 C 0.41695(5) 0.6118(2) 0.29950(5)
C7 C 0.37726(5) 0.7477(2) 0.24162(6)
H4 H 0.4019 0.7680 0.1989
H5 H 0.3634 0.9161 0.2576
C8 C 0.31860(5) 0.5702(2) 0.22711(5)
C9 C 0.32920(7) 0.3881(2) 0.16709(6)
H6 H 0.3708 0.3009 0.1766
H7 H 0.3297 0.4820 0.1225
H8 H 0.2939 0.2638 0.1634
C10 C 0.25487(6) 0.7072(3) 0.21591(7)
H9 H 0.2193 0.5842 0.2108
H10 H 0.2549 0.8105 0.1729
H11 H 0.2488 0.8164 0.2567
C11 C 0.38321(5) -0.0644(2) 0.46205(5)
H12 H 0.3983 0.0432 0.5027
H13 H 0.4210 -0.1614 0.4472
C12 C 0.33183(5) -0.2457(2) 0.48465(5)
C13 C 0.21813(5) -0.3622(2) 0.46496(5)
C14 C 0.21090(5) -0.5501(2) 0.51380(5)
H14 H 0.2437 -0.6271 0.5444
C15 C 0.14355(5) -0.6028(2) 0.50812(5)
C16 C 0.10867(5) -0.7877(2) 0.54735(5)
C17 C 0.04507(5) -0.8256(2) 0.55759(5)
H15 H 0.0095 -0.7220 0.5411
C18 C 0.04219(5) -1.0526(2) 0.59809(5)
H16 H 0.0042 -1.1308 0.6135
C19 C 0.10383(5) -1.1343(2) 0.61025(5)
H17 H 0.1162 -1.2823 0.6362
C20 C 0.13949(5) -0.1519(2) 0.37386(5)
C21 C 0.17137(5) 0.0740(2) 0.36239(5)
H18 H 0.2047 0.1324 0.3957
C22 C 0.15418(5) 0.2138(2) 0.30183(6)
H19 H 0.1771 0.3648 0.2929
C23 C 0.10401(6) 0.1358(2) 0.25421(6)
H20 H 0.0927 0.2319 0.2128
C24 C 0.07057(5) -0.0843(2) 0.26781(5)
H21 H 0.0352 -0.1356 0.2362
C25 C 0.08817(5) -0.2306(2) 0.32696(5)
H22 H 0.0655 -0.3826 0.3354
H23 H 0.2723(7) -0.129(2) 0.4100(6)
loop_
_geom_bond_atom_site_label_1
_geom_bond_atom_site_label_2
_geom_bond_site_symmetry_1
_geom_bond_site_symmetry_2
O1 C1 1_555 1_555
O2 C2 1_555 1_555
O3 C12 1_555 1_555
O4 C16 1_555 1_555
N1 C12 1_555 1_555
N2 N3 1_555 1_555
N3 C15 1_555 1_555
C1 C2 1_555 1_555
C2 C3 1_555 1_555
C3 H1 1_555 1_555
C4 C3 1_555 1_555
H2 C4 1_555 1_555
C5 C4 1_555 1_555
H3 C5 1_555 1_555
C6 C1 1_555 1_555
C7 C6 1_555 1_555
H4 C7 1_555 1_555
H5 C7 1_555 1_555
C8 O1 1_555 1_555
C9 C8 1_555 1_555
H6 C9 1_555 1_555
H7 C9 1_555 1_555
H8 C9 1_555 1_555
C10 C8 1_555 1_555
H9 C10 1_555 1_555
H10 C10 1_555 1_555
H11 C10 1_555 1_555
C11 O2 1_555 1_555
H12 C11 1_555 1_555
H13 C11 1_555 1_555
C12 C11 1_555 1_555
C13 N1 1_555 1_555
C14 C13 1_555 1_555
H14 C14 1_555 1_555
C15 C14 1_555 1_555
C16 C15 1_555 1_555
C17 C16 1_555 1_555
H15 C17 1_555 1_555
C18 C17 1_555 1_555
H16 C18 1_555 1_555
C19 O4 1_555 1_555
H17 C19 1_555 1_555
C20 N2 1_555 1_555
C21 C20 1_555 1_555
H18 C21 1_555 1_555
C22 C21 1_555 1_555
H19 C22 1_555 1_555
C23 C22 1_555 1_555
H20 C23 1_555 1_555
C24 C23 1_555 1_555
H21 C24 1_555 1_555
C25 C20 1_555 1_555
H22 C25 1_555 1_555
H23 N1 1_555 1_555
N2 C13 1_555 1_555
C5 C6 1_555 1_555
C7 C8 1_555 1_555
C18 C19 1_555 1_555
C24 C25 1_555 1_555

#END
