
#######################################################################
#
#                 Cambridge Crystallographic Data Centre
#                                CCDC 
#
#######################################################################
#
# If this CIF has been generated from an entry in the Cambridge 
# Structural Database, then it will include bibliographic, chemical, 
# crystal, experimental, refinement or atomic coordinate data resulting 
# from the CCDC's data processing and validation procedures.
#
#######################################################################

data_ASUWUG
_chemical_formula_moiety         'C24 H22 N2 O2 S1'
_chemical_name_systematic        
3-p-Tosyl-2-phenyl-3a,4,5,9b-tetrahydro-3H-naphtho(1,2-d)imidazole
_symmetry_cell_setting           monoclinic
_symmetry_space_group_name_H-M   'P 21/n'
_symmetry_Int_Tables_number      14
_space_group_name_Hall           '-P 2yn'
loop_
_symmetry_equiv_pos_site_id
_symmetry_equiv_pos_as_xyz
1 x,y,z
2 1/2+x,1/2-y,1/2+z
3 -x,-y,-z
4 1/2-x,1/2+y,1/2-z
_cell_length_a                   11.497(5)
_cell_length_b                   10.691(5)
_cell_length_c                   16.431(5)
_cell_angle_alpha                90
_cell_angle_beta                 92.002(5)
_cell_angle_gamma                90
_cell_volume                     2018.37
_cell_formula_units_Z            4
loop_
_atom_site_label
_atom_site_type_symbol
_atom_site_fract_x
_atom_site_fract_y
_atom_site_fract_z
S1 S 0.81847(14) 0.26244(14) 0.29710(9)
O1 O 0.7383(3) 0.2557(3) 0.22886(19)
O2 O 0.8719(3) 0.1509(3) 0.3291(2)
N1 N 0.7437(3) 0.3262(4) 0.3715(2)
N2 N 0.7857(4) 0.4693(4) 0.4732(3)
C1 C 0.5292(5) 0.6378(5) 0.4056(3)
C2 C 0.4576(5) 0.7372(6) 0.4270(3)
H1 H 0.3807 0.7407 0.4076
C3 C 0.5024(6) 0.8303(6) 0.4771(4)
H2 H 0.4554 0.8969 0.4915
C4 C 0.6151(6) 0.8254(6) 0.5056(3)
H3 H 0.6444 0.8889 0.5390
C5 C 0.6841(5) 0.7294(5) 0.4858(3)
H4 H 0.7600 0.7255 0.5071
C6 C 0.6424(5) 0.6356(5) 0.4335(3)
C7 C 0.7264(5) 0.5388(5) 0.4056(3)
H5 H 0.7866 0.5823 0.3757
C8 C 0.6727(5) 0.4391(4) 0.3484(3)
H6 H 0.6852 0.4617 0.2916
C9 C 0.5477(5) 0.4168(5) 0.3605(3)
H7 H 0.5371 0.3841 0.4149
H8 H 0.5185 0.3552 0.3216
C10 C 0.4798(4) 0.5375(5) 0.3496(3)
H9 H 0.4833 0.5653 0.2936
H10 H 0.3988 0.5231 0.3614
C11 C 0.7968(5) 0.3565(6) 0.4493(3)
C12 C 0.8591(4) 0.2605(5) 0.4999(3)
C13 C 0.9512(5) 0.2959(5) 0.5509(3)
H11 H 0.9771 0.3782 0.5502
C14 C 1.0046(6) 0.2125(6) 0.6020(4)
H12 H 1.0676 0.2372 0.6352
C15 C 0.9649(6) 0.0914(7) 0.6045(4)
H13 H 1.0000 0.0346 0.6405
C16 C 0.8750(6) 0.0542(5) 0.5546(4)
H14 H 0.8496 -0.0283 0.5562
C17 C 0.8209(5) 0.1371(5) 0.5018(3)
H15 H 0.7594 0.1110 0.4676
C18 C 0.9283(5) 0.3686(5) 0.2757(3)
C19 C 1.0292(6) 0.3698(6) 0.3219(4)
H16 H 1.0409 0.3105 0.3628
C20 C 1.1135(5) 0.4577(7) 0.3088(4)
H17 H 1.1827 0.4551 0.3397
C21 C 1.0977(6) 0.5498(6) 0.2506(4)
C22 C 0.9960(6) 0.5470(6) 0.2059(4)
H18 H 0.9840 0.6075 0.1658
C23 C 0.9093(5) 0.4594(6) 0.2167(3)
H19 H 0.8404 0.4615 0.1853
C24 C 1.1892(5) 0.6486(6) 0.2388(3)
H20 H 1.2539 0.6342 0.2761
H21 H 1.1567 0.7297 0.2487
H22 H 1.2153 0.6448 0.1839
loop_
_geom_bond_atom_site_label_1
_geom_bond_atom_site_label_2
_geom_bond_site_symmetry_1
_geom_bond_site_symmetry_2
S1 O1 1_555 1_555
O2 S1 1_555 1_555
N1 S1 1_555 1_555
N2 C7 1_555 1_555
C1 C2 1_555 1_555
C2 H1 1_555 1_555
C3 C2 1_555 1_555
H2 C3 1_555 1_555
C4 C3 1_555 1_555
H3 C4 1_555 1_555
C5 C4 1_555 1_555
H4 C5 1_555 1_555
C6 C1 1_555 1_555
C7 C6 1_555 1_555
H5 C7 1_555 1_555
C8 N1 1_555 1_555
H6 C8 1_555 1_555
C9 C8 1_555 1_555
H7 C9 1_555 1_555
H8 C9 1_555 1_555
C10 C1 1_555 1_555
H9 C10 1_555 1_555
H10 C10 1_555 1_555
C11 N1 1_555 1_555
C12 C11 1_555 1_555
C13 C12 1_555 1_555
H11 C13 1_555 1_555
C14 C13 1_555 1_555
H12 C14 1_555 1_555
C15 C14 1_555 1_555
H13 C15 1_555 1_555
C16 C15 1_555 1_555
H14 C16 1_555 1_555
C17 C12 1_555 1_555
H15 C17 1_555 1_555
C18 S1 1_555 1_555
C19 C18 1_555 1_555
H16 C19 1_555 1_555
C20 C19 1_555 1_555
H17 C20 1_555 1_555
C21 C20 1_555 1_555
C22 C21 1_555 1_555
H18 C22 1_555 1_555
C23 C18 1_555 1_555
H19 C23 1_555 1_555
C24 C21 1_555 1_555
H20 C24 1_555 1_555
H21 C24 1_555 1_555
H22 C24 1_555 1_555
N2 C11 1_555 1_555
C5 C6 1_555 1_555
C7 C8 1_555 1_555
C9 C10 1_555 1_555
C16 C17 1_555 1_555
C22 C23 1_555 1_555

#END
