
#######################################################################
#
#                 Cambridge Crystallographic Data Centre
#                                CCDC 
#
#######################################################################
#
# If this CIF has been generated from an entry in the Cambridge 
# Structural Database, then it will include bibliographic, chemical, 
# crystal, experimental, refinement or atomic coordinate data resulting 
# from the CCDC's data processing and validation procedures.
#
#######################################################################

data_ASUXOC
_chemical_formula_moiety         'C16 H12 O2 S1'
_chemical_name_systematic        
5,12-Dihydronaphtho[2,3-f]thieno[3,4-b][1,4]dioxocine
_symmetry_cell_setting           monoclinic
_symmetry_space_group_name_H-M   'P 21/c'
_symmetry_Int_Tables_number      14
_space_group_name_Hall           '-P 2ybc'
loop_
_symmetry_equiv_pos_site_id
_symmetry_equiv_pos_as_xyz
1 x,y,z
2 -x,1/2+y,1/2-z
3 -x,-y,-z
4 x,1/2-y,1/2+z
_cell_length_a                   46.884(9)
_cell_length_b                   6.2310(12)
_cell_length_c                   8.6408(16)
_cell_angle_alpha                90
_cell_angle_beta                 95.29
_cell_angle_gamma                90
_cell_volume                     2513.52
_exptl_crystal_colour            colorless
_exptl_crystal_description       plate
_cell_formula_units_Z            8
loop_
_atom_site_label
_atom_site_type_symbol
_atom_site_fract_x
_atom_site_fract_y
_atom_site_fract_z
S1 S 0.231850(13) 0.74075(17) -0.07449(7)
O1 O 0.16709(3) 1.1007(3) 0.00395(16)
O2 O 0.16034(3) 0.6587(2) 0.10945(17)
C1 C 0.20616(5) 0.5996(4) 0.0110(3)
H1 H 0.2074 0.4543 0.0352
C2 C 0.18380(5) 0.7267(5) 0.0388(2)
C3 C 0.18770(5) 0.9434(4) -0.0088(3)
C4 C 0.21246(5) 0.9738(5) -0.0717(3)
H2 H 0.2184 1.1048 -0.1091
C5 C 0.15748(5) 1.1235(4) 0.1582(2)
H3 H 0.1599 1.2718 0.1909
H4 H 0.1695 1.0359 0.2303
C6 C 0.12660(5) 1.0592(4) 0.1671(2)
C7 C 0.10921(5) 1.1918(4) 0.2429(2)
H5 H 0.1162 1.3250 0.2770
C8 C 0.08083(5) 1.1339(4) 0.2717(2)
C9 C 0.06334(5) 1.2667(5) 0.3560(2)
H6 H 0.0702 1.3994 0.3921
C10 C 0.03646(6) 1.2021(6) 0.3849(3)
H7 H 0.0252 1.2905 0.4412
C11 C 0.02576(6) 1.0024(6) 0.3299(3)
H8 H 0.0074 0.9595 0.3498
C12 C 0.04210(5) 0.8716(5) 0.2478(3)
H9 H 0.0347 0.7405 0.2114
C13 C 0.07021(5) 0.9327(4) 0.2168(3)
C14 C 0.08817(5) 0.7999(4) 0.1360(2)
H10 H 0.0811 0.6682 0.0988
C15 C 0.11558(5) 0.8572(4) 0.1101(2)
C16 C 0.13312(5) 0.7072(4) 0.0224(2)
H11 H 0.1225 0.5750 0.0011
H12 H 0.1366 0.7716 -0.0764
S2 S 0.268166(13) 0.25038(17) 0.19799(7)
O3 O 0.33300(3) 0.6054(3) 0.34198(17)
O4 O 0.33940(3) 0.1631(2) 0.45278(17)
C17 C 0.29371(5) 0.1064(5) 0.3081(3)
H13 H 0.2924 -0.0394 0.3297
C18 C 0.31596(5) 0.2335(5) 0.3593(3)
C19 C 0.31251(5) 0.4495(5) 0.3105(3)
C20 C 0.28776(5) 0.4816(5) 0.2203(3)
H14 H 0.2821 0.6127 0.1761
C21 C 0.34262(5) 0.6287(4) 0.5062(2)
H15 H 0.3305 0.5422 0.5667
H16 H 0.3404 0.7774 0.5362
C22 C 0.37347(5) 0.5622(4) 0.5447(2)
C23 C 0.39092(5) 0.6940(4) 0.6383(2)
H17 H 0.3840 0.8270 0.6665
C24 C 0.41926(5) 0.6328(4) 0.6933(3)
C25 C 0.43691(5) 0.7645(5) 0.7955(2)
H18 H 0.4302 0.8970 0.8257
C26 C 0.46368(6) 0.6986(5) 0.8502(3)
H19 H 0.4750 0.7862 0.9180
C27 C 0.47431(6) 0.5016(6) 0.8057(3)
H20 H 0.4927 0.4594 0.8431
C28 C 0.45774(5) 0.3689(5) 0.7066(3)
H21 H 0.4649 0.2372 0.6777
C29 C 0.42976(5) 0.4323(4) 0.6487(3)
C30 C 0.41162(5) 0.3003(4) 0.5497(2)
H22 H 0.4184 0.1682 0.5191
C31 C 0.38441(5) 0.3605(4) 0.4974(2)
C32 C 0.36650(5) 0.2100(4) 0.3921(2)
H23 H 0.3630 0.2743 0.2899
H24 H 0.3769 0.0773 0.3812
loop_
_geom_bond_atom_site_label_1
_geom_bond_atom_site_label_2
_geom_bond_site_symmetry_1
_geom_bond_site_symmetry_2
S1 C1 1_555 1_555
O1 C3 1_555 1_555
O2 C2 1_555 1_555
C1 H1 1_555 1_555
C2 C1 1_555 1_555
C3 C2 1_555 1_555
C4 S1 1_555 1_555
H2 C4 1_555 1_555
C5 O1 1_555 1_555
H3 C5 1_555 1_555
H4 C5 1_555 1_555
C6 C5 1_555 1_555
C7 C6 1_555 1_555
H5 C7 1_555 1_555
C8 C7 1_555 1_555
C9 C8 1_555 1_555
H6 C9 1_555 1_555
C10 C9 1_555 1_555
H7 C10 1_555 1_555
C11 C10 1_555 1_555
H8 C11 1_555 1_555
C12 C11 1_555 1_555
H9 C12 1_555 1_555
C13 C8 1_555 1_555
C14 C13 1_555 1_555
H10 C14 1_555 1_555
C15 C6 1_555 1_555
C16 O2 1_555 1_555
H11 C16 1_555 1_555
H12 C16 1_555 1_555
S2 C17 1_555 1_555
O3 C19 1_555 1_555
O4 C18 1_555 1_555
C17 H13 1_555 1_555
C18 C17 1_555 1_555
C19 C18 1_555 1_555
C20 S2 1_555 1_555
H14 C20 1_555 1_555
C21 O3 1_555 1_555
H15 C21 1_555 1_555
H16 C21 1_555 1_555
C22 C21 1_555 1_555
C23 C22 1_555 1_555
H17 C23 1_555 1_555
C24 C23 1_555 1_555
C25 C24 1_555 1_555
H18 C25 1_555 1_555
C26 C25 1_555 1_555
H19 C26 1_555 1_555
C27 C26 1_555 1_555
H20 C27 1_555 1_555
C28 C27 1_555 1_555
H21 C28 1_555 1_555
C29 C24 1_555 1_555
C30 C29 1_555 1_555
H22 C30 1_555 1_555
C31 C22 1_555 1_555
C32 O4 1_555 1_555
H23 C32 1_555 1_555
H24 C32 1_555 1_555
C3 C4 1_555 1_555
C12 C13 1_555 1_555
C14 C15 1_555 1_555
C15 C16 1_555 1_555
C19 C20 1_555 1_555
C28 C29 1_555 1_555
C30 C31 1_555 1_555
C31 C32 1_555 1_555

#END
