
#######################################################################
#
#                 Cambridge Crystallographic Data Centre
#                                CCDC 
#
#######################################################################
#
# If this CIF has been generated from an entry in the Cambridge 
# Structural Database, then it will include bibliographic, chemical, 
# crystal, experimental, refinement or atomic coordinate data resulting 
# from the CCDC's data processing and validation procedures.
#
#######################################################################

data_ATAGOT
_chemical_formula_moiety         'C23 H28 N2 O2 S3'
_chemical_name_systematic        
2-(4-(1,4-dioxa-7,13-dithia-10-azacyclopentadecan-10-yl)phenyl)-1,3-benzothiazole
_symmetry_cell_setting           monoclinic
_symmetry_space_group_name_H-M   'P 21/n'
_symmetry_Int_Tables_number      14
_space_group_name_Hall           '-P 2yn'
loop_
_symmetry_equiv_pos_site_id
_symmetry_equiv_pos_as_xyz
1 x,y,z
2 1/2-x,1/2+y,1/2-z
3 -x,-y,-z
4 1/2+x,1/2-y,1/2+z
_cell_length_a                   9.6129(14)
_cell_length_b                   16.501(3)
_cell_length_c                   28.666(4)
_cell_angle_alpha                90
_cell_angle_beta                 99.044(4)
_cell_angle_gamma                90
_cell_volume                     4490.54
_exptl_crystal_colour            colorless
_exptl_crystal_description       block
_cell_formula_units_Z            8
loop_
_atom_site_label
_atom_site_type_symbol
_atom_site_fract_x
_atom_site_fract_y
_atom_site_fract_z
S1 S 0.52359(11) 0.45095(6) 0.08057(3)
S2 S 0.32397(10) 0.23778(5) 0.29383(3)
S3 S 0.35352(9) -0.06383(5) 0.01367(3)
O1 O 0.4613(2) 0.51154(14) 0.19275(8)
O2 O 0.4132(3) 0.41973(13) 0.27423(8)
N1 N 0.4193(3) 0.26061(16) 0.16019(9)
N2 N 0.3309(3) -0.11453(16) 0.09770(9)
C1 C 0.4041(4) 0.33621(19) 0.13338(12)
H1 H 0.3663 0.3786 0.1524
H2 H 0.3355 0.3281 0.1042
C2 C 0.5442(4) 0.3651(2) 0.12026(13)
H3 H 0.5883 0.3200 0.1052
H4 H 0.6084 0.3802 0.1494
C3 C 0.5484(4) 0.5370(2) 0.12005(13)
H5 H 0.6377 0.5289 0.1420
H6 H 0.5604 0.5858 0.1009
C4 C 0.4346(4) 0.5548(2) 0.14922(13)
H7 H 0.4318 0.6137 0.1556
H8 H 0.3420 0.5385 0.1315
C5 C 0.3559(4) 0.5286(2) 0.22080(14)
H9 H 0.2689 0.4985 0.2083
H10 H 0.3338 0.5872 0.2191
C6 C 0.4037(4) 0.5050(2) 0.27093(13)
H11 H 0.4969 0.5294 0.2824
H12 H 0.3360 0.5252 0.2909
C7 C 0.4296(4) 0.3918(2) 0.32171(12)
H13 H 0.3418 0.4015 0.3349
H14 H 0.5070 0.4218 0.3412
C8 C 0.4625(4) 0.3030(2) 0.32278(11)
H15 H 0.4861 0.2858 0.3562
H16 H 0.5474 0.2945 0.3078
C9 C 0.3057(4) 0.2641(2) 0.23169(11)
H17 H 0.2429 0.2239 0.2133
H18 H 0.2594 0.3177 0.2270
C10 C 0.4436(3) 0.2672(2) 0.21187(11)
H19 H 0.4924 0.3189 0.2212
H20 H 0.5054 0.2223 0.2254
C11 C 0.4029(3) 0.1862(2) 0.13866(11)
C12 C 0.3880(3) 0.1771(2) 0.08912(11)
H21 H 0.3884 0.2237 0.0697
C13 C 0.3729(3) 0.1022(2) 0.06884(11)
H22 H 0.3637 0.0983 0.0354
C14 C 0.3703(3) 0.03073(19) 0.09518(11)
C15 C 0.3859(3) 0.0394(2) 0.14431(11)
H23 H 0.3857 -0.0076 0.1635
C16 C 0.4014(3) 0.11433(19) 0.16544(11)
H24 H 0.4114 0.1179 0.1989
C17 C 0.3516(3) -0.0496(2) 0.07415(10)
C18 C 0.3240(3) -0.1661(2) 0.02083(11)
C19 C 0.3154(3) -0.1816(2) 0.06849(11)
C20 C 0.2955(4) -0.2610(2) 0.08295(12)
H25 H 0.2885 -0.2725 0.1150
C21 C 0.2863(4) -0.3224(2) 0.04993(12)
H26 H 0.2722 -0.3766 0.0594
C22 C 0.2973(4) -0.3063(2) 0.00288(12)
H27 H 0.2923 -0.3498 -0.0190
C23 C 0.3155(4) -0.2281(2) -0.01244(12)
H28 H 0.3219 -0.2170 -0.0446
S4 S 1.05003(11) 0.44280(6) 0.08411(4)
S5 S 0.82974(11) 0.23274(6) 0.29418(3)
S6 S 0.98116(10) -0.08843(6) 0.03887(3)
O3 O 0.9018(3) 0.51508(14) 0.16826(9)
O4 O 0.8916(3) 0.43407(16) 0.26257(9)
N3 N 0.9119(4) 0.25799(19) 0.15953(11)
N4 N 0.7511(3) -0.09918(17) 0.07511(9)
C24 C 1.0061(4) 0.3210(2) 0.14694(12)
H29 H 1.0976 0.2967 0.1429
H30 H 1.0235 0.3616 0.1727
C25 C 0.9417(4) 0.3619(2) 0.10180(12)
H31 H 0.8489 0.3845 0.1058
H32 H 0.9257 0.3210 0.0763
C26 C 0.9418(4) 0.5306(2) 0.08838(14)
H33 H 0.9651 0.5719 0.0658
H34 H 0.8420 0.5151 0.0786
C27 C 0.9565(4) 0.5684(2) 0.13628(14)
H35 H 1.0571 0.5796 0.1480
H36 H 0.9047 0.6204 0.1344
C28 C 0.9213(4) 0.5499(2) 0.21429(13)
H37 H 0.8975 0.6082 0.2119
H38 H 1.0215 0.5449 0.2287
C29 C 0.8313(4) 0.5091(2) 0.24508(14)
H39 H 0.8205 0.5450 0.2719
H40 H 0.7366 0.4992 0.2268
C30 C 0.8203(5) 0.4036(3) 0.29843(16)
H41 H 0.7214 0.3915 0.2848
H42 H 0.8195 0.4455 0.3231
C31 C 0.8889(5) 0.3284(3) 0.32040(14)
H43 H 0.8754 0.3273 0.3539
H44 H 0.9914 0.3328 0.3200
C32 C 0.9161(4) 0.2269(2) 0.24306(12)
H45 H 1.0126 0.2489 0.2514
H46 H 0.9244 0.1692 0.2345
C33 C 0.8412(4) 0.2725(2) 0.20015(12)
H47 H 0.7421 0.2541 0.1929
H48 H 0.8412 0.3312 0.2071
C34 C 0.8980(4) 0.1841(2) 0.13629(11)
C35 C 0.9981(4) 0.1559(2) 0.10953(12)
H49 H 1.0766 0.1890 0.1060
C36 C 0.9846(4) 0.0806(2) 0.08816(11)
H50 H 1.0557 0.0622 0.0712
C37 C 0.8684(3) 0.03131(19) 0.09104(10)
C38 C 0.7659(4) 0.0609(2) 0.11549(11)
H51 H 0.6835 0.0296 0.1167
C39 C 0.7810(4) 0.1350(2) 0.13819(12)
H52 H 0.7102 0.1528 0.1555
C40 C 0.8538(3) -0.0500(2) 0.07080(11)
C41 C 0.8876(4) -0.1787(2) 0.03132(12)
C42 C 0.7669(3) -0.1727(2) 0.05271(11)
C43 C 0.6741(4) -0.2378(2) 0.05013(12)
H53 H 0.5921 -0.2349 0.0648
C44 C 0.7030(4) -0.3066(2) 0.02591(12)
H54 H 0.6396 -0.3511 0.0237
C45 C 0.8227(4) -0.3119(2) 0.00477(12)
H55 H 0.8401 -0.3599 -0.0117
C46 C 0.9175(4) -0.2480(2) 0.00733(12)
H56 H 1.0002 -0.2516 -0.0069
loop_
_geom_bond_atom_site_label_1
_geom_bond_atom_site_label_2
_geom_bond_site_symmetry_1
_geom_bond_site_symmetry_2
S1 C2 1_555 1_555
S2 C8 1_555 1_555
S3 C17 1_555 1_555
O1 C4 1_555 1_555
O2 C6 1_555 1_555
N1 C1 1_555 1_555
N2 C17 1_555 1_555
C1 H1 1_555 1_555
H2 C1 1_555 1_555
C2 C1 1_555 1_555
H3 C2 1_555 1_555
H4 C2 1_555 1_555
C3 S1 1_555 1_555
H5 C3 1_555 1_555
H6 C3 1_555 1_555
C4 C3 1_555 1_555
H7 C4 1_555 1_555
H8 C4 1_555 1_555
C5 O1 1_555 1_555
H9 C5 1_555 1_555
H10 C5 1_555 1_555
C6 C5 1_555 1_555
H11 C6 1_555 1_555
H12 C6 1_555 1_555
C7 O2 1_555 1_555
H13 C7 1_555 1_555
H14 C7 1_555 1_555
C8 C7 1_555 1_555
H15 C8 1_555 1_555
H16 C8 1_555 1_555
C9 S2 1_555 1_555
H17 C9 1_555 1_555
H18 C9 1_555 1_555
C10 N1 1_555 1_555
H19 C10 1_555 1_555
H20 C10 1_555 1_555
C11 N1 1_555 1_555
C12 C11 1_555 1_555
H21 C12 1_555 1_555
C13 C12 1_555 1_555
H22 C13 1_555 1_555
C14 C13 1_555 1_555
C15 C14 1_555 1_555
H23 C15 1_555 1_555
C16 C11 1_555 1_555
H24 C16 1_555 1_555
C17 C14 1_555 1_555
C18 S3 1_555 1_555
C19 N2 1_555 1_555
C20 C19 1_555 1_555
H25 C20 1_555 1_555
C21 C20 1_555 1_555
H26 C21 1_555 1_555
C22 C21 1_555 1_555
H27 C22 1_555 1_555
C23 C18 1_555 1_555
H28 C23 1_555 1_555
S4 C25 1_555 1_555
S5 C31 1_555 1_555
S6 C40 1_555 1_555
O3 C27 1_555 1_555
O4 C29 1_555 1_555
N3 C24 1_555 1_555
N4 C40 1_555 1_555
C24 H29 1_555 1_555
H30 C24 1_555 1_555
C25 C24 1_555 1_555
H31 C25 1_555 1_555
H32 C25 1_555 1_555
C26 S4 1_555 1_555
H33 C26 1_555 1_555
H34 C26 1_555 1_555
C27 C26 1_555 1_555
H35 C27 1_555 1_555
H36 C27 1_555 1_555
C28 O3 1_555 1_555
H37 C28 1_555 1_555
H38 C28 1_555 1_555
C29 C28 1_555 1_555
H39 C29 1_555 1_555
H40 C29 1_555 1_555
C30 O4 1_555 1_555
H41 C30 1_555 1_555
H42 C30 1_555 1_555
C31 C30 1_555 1_555
H43 C31 1_555 1_555
H44 C31 1_555 1_555
C32 S5 1_555 1_555
H45 C32 1_555 1_555
H46 C32 1_555 1_555
C33 N3 1_555 1_555
H47 C33 1_555 1_555
H48 C33 1_555 1_555
C34 N3 1_555 1_555
C35 C34 1_555 1_555
H49 C35 1_555 1_555
C36 C35 1_555 1_555
H50 C36 1_555 1_555
C37 C36 1_555 1_555
C38 C37 1_555 1_555
H51 C38 1_555 1_555
C39 C34 1_555 1_555
H52 C39 1_555 1_555
C40 C37 1_555 1_555
C41 S6 1_555 1_555
C42 N4 1_555 1_555
C43 C42 1_555 1_555
H53 C43 1_555 1_555
C44 C43 1_555 1_555
H54 C44 1_555 1_555
C45 C44 1_555 1_555
H55 C45 1_555 1_555
C46 C41 1_555 1_555
H56 C46 1_555 1_555
C9 C10 1_555 1_555
C15 C16 1_555 1_555
C18 C19 1_555 1_555
C22 C23 1_555 1_555
C32 C33 1_555 1_555
C38 C39 1_555 1_555
C41 C42 1_555 1_555
C45 C46 1_555 1_555

#END
