
#######################################################################
#
#                 Cambridge Crystallographic Data Centre
#                                CCDC 
#
#######################################################################
#
# If this CIF has been generated from an entry in the Cambridge 
# Structural Database, then it will include bibliographic, chemical, 
# crystal, experimental, refinement or atomic coordinate data resulting 
# from the CCDC's data processing and validation procedures.
#
#######################################################################

data_ATAMAK
_chemical_formula_moiety         'C32 H32 N1 O3 P1'
_chemical_name_systematic        
'Diethyl (4-methylphenyl)(triphenylpropadienyl)phosphoramidate'
_symmetry_cell_setting           monoclinic
_symmetry_space_group_name_H-M   'C 2/c'
_symmetry_Int_Tables_number      15
_space_group_name_Hall           '-C 2yn'
loop_
_symmetry_equiv_pos_site_id
_symmetry_equiv_pos_as_xyz
1 x,y,z
2 -x,y,1/2-z
3 1/2+x,1/2+y,z
4 1/2-x,1/2+y,1/2-z
5 -x,-y,-z
6 x,-y,1/2+z
7 1/2-x,1/2-y,-z
8 1/2+x,1/2-y,1/2+z
_cell_length_a                   42.662(5)
_cell_length_b                   9.5733(6)
_cell_length_c                   33.755(4)
_cell_angle_alpha                90
_cell_angle_beta                 125.507(17)
_cell_angle_gamma                90
_cell_volume                     11222.5
_exptl_crystal_colour            colorless
_exptl_crystal_description       block
_cell_formula_units_Z            16
loop_
_atom_site_label
_atom_site_type_symbol
_atom_site_fract_x
_atom_site_fract_y
_atom_site_fract_z
P1 P 0.051168(19) 0.70225(6) 0.58391(2)
O1 O 0.01154(4) 0.68764(16) 0.56856(5)
O2 O 0.05911(4) 0.65909(16) 0.54576(5)
O3 O 0.08162(4) 0.61120(16) 0.62938(5)
N1 N 0.06737(5) 0.86502(17) 0.59961(6)
C1 C 0.02052(9) 1.2266(3) 0.69305(11)
H1 H 0.0427 1.2527 0.7246
H2 H 0.0018 1.1831 0.6963
H3 H 0.0095 1.3084 0.6730
C2 C 0.03250(8) 1.1249(3) 0.66973(10)
C3 C 0.00596(7) 1.0714(3) 0.62391(9)
H4 H -0.0199 1.0939 0.6080
C4 C 0.01681(7) 0.9848(2) 0.60085(8)
H5 H -0.0017 0.9498 0.5700
C5 C 0.05515(6) 0.9506(2) 0.62377(7)
C6 C 0.08186(7) 1.0018(2) 0.66957(8)
H6 H 0.1077 0.9786 0.6856
C7 C 0.07038(8) 1.0885(3) 0.69211(9)
H7 H 0.0888 1.1226 0.7231
C8 C 0.10294(6) 0.9077(2) 0.60784(7)
C9 C 0.10410(6) 1.0526(2) 0.59251(7)
C10 C 0.13872(7) 1.1242(2) 0.61461(8)
H8 H 0.1613 1.0833 0.6404
C11 C 0.13988(8) 1.2552(3) 0.59872(10)
H9 H 0.1633 1.3013 0.6134
C12 C 0.10688(8) 1.3183(3) 0.56152(10)
H10 H 0.1078 1.4075 0.5513
C13 C 0.07257(7) 1.2493(3) 0.53950(8)
H11 H 0.0501 1.2915 0.5140
C14 C 0.07104(6) 1.1174(2) 0.55478(7)
H12 H 0.0475 1.0717 0.5395
C15 C 0.13299(6) 0.8250(2) 0.62629(7)
C16 C 0.16448(6) 0.7517(2) 0.64287(7)
C17 C 0.19479(6) 0.7480(2) 0.69704(7)
C18 C 0.18967(7) 0.6651(2) 0.72630(8)
H13 H 0.1672 0.6133 0.7127
C19 C 0.21802(9) 0.6590(3) 0.77609(9)
H14 H 0.2147 0.6016 0.7956
C20 C 0.25057(8) 0.7364(3) 0.79634(9)
H15 H 0.2695 0.7319 0.8297
C21 C 0.25565(7) 0.8202(3) 0.76813(9)
H16 H 0.2779 0.8737 0.7823
C22 C 0.22789(7) 0.8265(3) 0.71835(8)
H17 H 0.2316 0.8840 0.6992
C23 C 0.17156(6) 0.6713(2) 0.61117(7)
C24 C 0.20394(6) 0.5875(2) 0.63066(8)
H18 H 0.2213 0.5801 0.6643
C25 C 0.21073(7) 0.5152(2) 0.60097(9)
H19 H 0.2327 0.4606 0.6146
C26 C 0.18512(8) 0.5237(3) 0.55142(10)
H20 H 0.1896 0.4739 0.5315
C27 C 0.15283(8) 0.6057(3) 0.53108(8)
H21 H 0.1355 0.6117 0.4974
C28 C 0.14608(7) 0.6791(3) 0.56060(8)
H22 H 0.1242 0.7347 0.5466
C29 C 0.03357(10) 0.7049(4) 0.49617(10)
H23 H 0.0379 0.8035 0.4944
H24 H 0.0072 0.6940 0.4857
C30 C 0.03862(8) 0.6289(3) 0.46329(9)
H25 H 0.0211 0.6643 0.4309
H26 H 0.0335 0.5316 0.4640
H27 H 0.0646 0.6402 0.4732
C31 C 0.07249(9) 0.4681(3) 0.63335(10)
H28 H 0.0626 0.4187 0.6032
H29 H 0.0529 0.4671 0.6394
C32 C 0.10772(10) 0.3986(3) 0.67377(11)
H30 H 0.1020 0.3033 0.6761
H31 H 0.1170 0.4463 0.7037
H32 H 0.1271 0.4011 0.6678
P2 P -0.10722(2) 0.24536(7) 0.61502(2)
O4 O -0.09117(5) 0.23444(17) 0.58708(6)
O5 O -0.08519(6) 0.16739(19) 0.66563(6)
O6 O -0.14784(6) 0.1776(2) 0.59023(7)
N2 N -0.10774(5) 0.40763(17) 0.63143(6)
C33 C -0.09681(9) 0.8906(3) 0.53781(9)
H33 H -0.1197 0.9459 0.5239
H34 H -0.0940 0.8631 0.5127
H35 H -0.0748 0.9445 0.5619
C34 C -0.09987(8) 0.7618(3) 0.56129(8)
C35 C -0.07073(8) 0.6645(3) 0.58422(9)
H36 H -0.0490 0.6773 0.5844
C36 C -0.07280(7) 0.5480(3) 0.60698(8)
H37 H -0.0525 0.4845 0.6224
C37 C -0.10478(7) 0.5261(2) 0.60679(7)
C38 C -0.13440(7) 0.6209(3) 0.58330(8)
H38 H -0.1565 0.6066 0.5821
C39 C -0.13151(8) 0.7380(3) 0.56134(8)
H39 H -0.1516 0.8021 0.5462
C40 C -0.12150(7) 0.4418(2) 0.66065(7)
C41 C -0.09609(7) 0.5335(2) 0.70363(7)
C42 C -0.05676(8) 0.5368(2) 0.72732(8)
H40 H -0.0457 0.4836 0.7154
C43 C -0.03330(8) 0.6181(3) 0.76874(9)
H41 H -0.0068 0.6186 0.7844
C44 C -0.04946(10) 0.6974(3) 0.78625(10)
H42 H -0.0339 0.7518 0.8139
C45 C -0.08810(10) 0.6964(3) 0.76322(11)
H43 H -0.0990 0.7509 0.7751
C46 C -0.11139(8) 0.6153(3) 0.72243(9)
H44 H -0.1379 0.6154 0.7072
C47 C -0.15417(7) 0.3973(2) 0.65090(7)
C48 C -0.18522(7) 0.3626(2) 0.64809(7)
C49 C -0.22065(7) 0.4525(2) 0.62124(7)
C50 C -0.21916(8) 0.5885(3) 0.60801(8)
H45 H -0.1959 0.6234 0.6156
C51 C -0.25138(9) 0.6729(3) 0.58380(9)
H46 H -0.2497 0.7631 0.5749
C52 C -0.28589(8) 0.6240(3) 0.57279(9)
H47 H -0.3076 0.6811 0.5570
C53 C -0.28797(8) 0.4902(3) 0.58545(9)
H48 H -0.3113 0.4564 0.5780
C54 C -0.25581(7) 0.4046(3) 0.60921(8)
H49 H -0.2579 0.3137 0.6172
C55 C -0.18477(6) 0.2327(2) 0.67297(7)
C56 C -0.19163(7) 0.2395(3) 0.70810(8)
H50 H -0.1977 0.3249 0.7152
C57 C -0.18954(8) 0.1214(4) 0.73294(9)
H51 H -0.1942 0.1278 0.7566
C58 C -0.18087(7) -0.0030(3) 0.72306(10)
H52 H -0.1795 -0.0823 0.7400
C59 C -0.17411(8) -0.0131(3) 0.68834(11)
H53 H -0.1683 -0.0993 0.6814
C60 C -0.17587(8) 0.1054(3) 0.66341(9)
H54 H -0.1710 0.0983 0.6400
C61 C -0.08284(16) 0.0173(5) 0.67047(17)
H55 H -0.0943 -0.0053 0.6875
H56 H -0.1004 -0.0183 0.6377
C62 C -0.05613(19) -0.0513(6) 0.6878(2)
H57 H -0.0633 -0.1474 0.6857
H58 H -0.0382 -0.0257 0.7214
H59 H -0.0444 -0.0385 0.6710
C63 C -0.17703(10) 0.1908(4) 0.53971(11)
H60 H -0.1672 0.1611 0.5213
H61 H -0.1849 0.2878 0.5318
C64 C -0.21032(11) 0.1038(5) 0.52659(13)
H62 H -0.2300 0.1114 0.4923
H63 H -0.2203 0.1351 0.5443
H64 H -0.2023 0.0081 0.5347
loop_
_geom_bond_atom_site_label_1
_geom_bond_atom_site_label_2
_geom_bond_site_symmetry_1
_geom_bond_site_symmetry_2
P1 O1 1_555 1_555
P2 O4 1_555 1_555
O2 P1 1_555 1_555
O3 P1 1_555 1_555
O5 P2 1_555 1_555
O6 P2 1_555 1_555
N1 P1 1_555 1_555
N2 P2 1_555 1_555
C1 H1 1_555 1_555
H2 C1 1_555 1_555
H3 C1 1_555 1_555
C2 C1 1_555 1_555
C3 C2 1_555 1_555
H4 C3 1_555 1_555
C4 C3 1_555 1_555
H5 C4 1_555 1_555
C5 N1 1_555 1_555
C6 C5 1_555 1_555
H6 C6 1_555 1_555
C7 C2 1_555 1_555
H7 C7 1_555 1_555
C8 N1 1_555 1_555
C9 C8 1_555 1_555
C10 C9 1_555 1_555
H8 C10 1_555 1_555
C11 C10 1_555 1_555
H9 C11 1_555 1_555
C12 C11 1_555 1_555
H10 C12 1_555 1_555
C13 C12 1_555 1_555
H11 C13 1_555 1_555
C14 C9 1_555 1_555
H12 C14 1_555 1_555
C15 C8 1_555 1_555
C16 C15 1_555 1_555
C17 C16 1_555 1_555
C18 C17 1_555 1_555
H13 C18 1_555 1_555
C19 C18 1_555 1_555
H14 C19 1_555 1_555
C20 C19 1_555 1_555
H15 C20 1_555 1_555
C21 C20 1_555 1_555
H16 C21 1_555 1_555
C22 C17 1_555 1_555
H17 C22 1_555 1_555
C23 C16 1_555 1_555
C24 C23 1_555 1_555
H18 C24 1_555 1_555
C25 C24 1_555 1_555
H19 C25 1_555 1_555
C26 C25 1_555 1_555
H20 C26 1_555 1_555
C27 C26 1_555 1_555
H21 C27 1_555 1_555
C28 C23 1_555 1_555
H22 C28 1_555 1_555
C29 O2 1_555 1_555
H23 C29 1_555 1_555
H24 C29 1_555 1_555
C30 C29 1_555 1_555
H25 C30 1_555 1_555
H26 C30 1_555 1_555
H27 C30 1_555 1_555
C31 O3 1_555 1_555
H28 C31 1_555 1_555
H29 C31 1_555 1_555
C32 C31 1_555 1_555
H30 C32 1_555 1_555
H31 C32 1_555 1_555
H32 C32 1_555 1_555
C33 H33 1_555 1_555
H34 C33 1_555 1_555
H35 C33 1_555 1_555
C34 C33 1_555 1_555
C35 C34 1_555 1_555
H36 C35 1_555 1_555
C36 C35 1_555 1_555
H37 C36 1_555 1_555
C37 N2 1_555 1_555
C38 C37 1_555 1_555
H38 C38 1_555 1_555
C39 C34 1_555 1_555
H39 C39 1_555 1_555
C40 N2 1_555 1_555
C41 C40 1_555 1_555
C42 C41 1_555 1_555
H40 C42 1_555 1_555
C43 C42 1_555 1_555
H41 C43 1_555 1_555
C44 C43 1_555 1_555
H42 C44 1_555 1_555
C45 C44 1_555 1_555
H43 C45 1_555 1_555
C46 C41 1_555 1_555
H44 C46 1_555 1_555
C47 C40 1_555 1_555
C48 C47 1_555 1_555
C49 C48 1_555 1_555
C50 C49 1_555 1_555
H45 C50 1_555 1_555
C51 C50 1_555 1_555
H46 C51 1_555 1_555
C52 C51 1_555 1_555
H47 C52 1_555 1_555
C53 C52 1_555 1_555
H48 C53 1_555 1_555
C54 C49 1_555 1_555
H49 C54 1_555 1_555
C55 C48 1_555 1_555
C56 C55 1_555 1_555
H50 C56 1_555 1_555
C57 C56 1_555 1_555
H51 C57 1_555 1_555
C58 C57 1_555 1_555
H52 C58 1_555 1_555
C59 C58 1_555 1_555
H53 C59 1_555 1_555
C60 C55 1_555 1_555
H54 C60 1_555 1_555
C61 O5 1_555 1_555
H55 C61 1_555 1_555
H56 C61 1_555 1_555
C62 C61 1_555 1_555
H57 C62 1_555 1_555
H58 C62 1_555 1_555
H59 C62 1_555 1_555
C63 O6 1_555 1_555
H60 C63 1_555 1_555
H61 C63 1_555 1_555
C64 C63 1_555 1_555
H62 C64 1_555 1_555
H63 C64 1_555 1_555
H64 C64 1_555 1_555
C4 C5 1_555 1_555
C6 C7 1_555 1_555
C13 C14 1_555 1_555
C21 C22 1_555 1_555
C27 C28 1_555 1_555
C36 C37 1_555 1_555
C38 C39 1_555 1_555
C45 C46 1_555 1_555
C53 C54 1_555 1_555
C59 C60 1_555 1_555

#END
