
#######################################################################
#
#                 Cambridge Crystallographic Data Centre
#                                CCDC 
#
#######################################################################
#
# If this CIF has been generated from an entry in the Cambridge 
# Structural Database, then it will include bibliographic, chemical, 
# crystal, experimental, refinement or atomic coordinate data resulting 
# from the CCDC's data processing and validation procedures.
#
#######################################################################

data_ATAMIR
_chemical_formula_moiety         'C12 H16 O1 S2'
_chemical_name_systematic        
6-Oxa-3,9-dithiabicyclo(9.2.2)pentadeca-1(15),11,13-triene
_symmetry_cell_setting           orthorhombic
_symmetry_space_group_name_H-M   'P 21 21 21'
_symmetry_Int_Tables_number      19
_space_group_name_Hall           'P 2ac 2ab'
loop_
_symmetry_equiv_pos_site_id
_symmetry_equiv_pos_as_xyz
1 x,y,z
2 1/2-x,-y,1/2+z
3 1/2+x,1/2-y,-z
4 -x,1/2+y,1/2-z
_cell_length_a                   7.5115(5)
_cell_length_b                   10.2160(7)
_cell_length_c                   32.683(2)
_cell_angle_alpha                90
_cell_angle_beta                 90
_cell_angle_gamma                90
_cell_volume                     2508.01
_exptl_crystal_colour            colorless
_exptl_crystal_description       plates
_cell_formula_units_Z            8
_exptl_crystal_recrystallization_method methanol
loop_
_atom_site_label
_atom_site_type_symbol
_atom_site_fract_x
_atom_site_fract_y
_atom_site_fract_z
S1 S 0.1614(1) -0.6225(1) -0.0248(1)
S2 S -0.0277(1) -0.6906(1) -0.2260(1)
O1 O -0.1713(2) -0.5244(2) -0.1179(1)
C1 C 0.3829(3) -0.6681(3) -0.1250(1)
C2 C 0.3270(3) -0.6989(3) -0.1642(1)
C3 C 0.2111(3) -0.8015(3) -0.1710(1)
C4 C 0.1634(3) -0.8799(3) -0.1383(1)
C5 C 0.2197(3) -0.8502(3) -0.0992(1)
C6 C 0.3234(3) -0.7408(3) -0.0920(1)
C7 C 0.3570(4) -0.6934(4) -0.0490(1)
C8 C 0.0577(4) -0.5270(3) -0.0647(1)
C9 C -0.0941(4) -0.5986(3) -0.0857(1)
C10 C -0.0844(4) -0.5414(3) -0.1560(1)
C11 C -0.1496(3) -0.6614(3) -0.1787(1)
C12 C 0.1274(4) -0.8221(3) -0.2122(1)
H1 H 0.4632 -0.5963 -0.1208
H2 H 0.3693 -0.6482 -0.1869
H3 H 0.0904 -0.9556 -0.1428
H4 H 0.1866 -0.9060 -0.0768
H5 H 0.4500 -0.6290 -0.0496
H6 H 0.3979 -0.7656 -0.0327
H7 H 0.0131 -0.4471 -0.0531
H8 H 0.1459 -0.5044 -0.0848
H9 H -0.0505 -0.6799 -0.0965
H10 H -0.1842 -0.6187 -0.0658
H11 H 0.0414 -0.5491 -0.1515
H12 H -0.1042 -0.4654 -0.1727
H13 H -0.2737 -0.6509 -0.1849
H14 H -0.1376 -0.7365 -0.1612
H15 H 0.0648 -0.9040 -0.2122
H16 H 0.2195 -0.8271 -0.2326
S3 S 0.3720(1) -0.7092(1) -0.4733(1)
S4 S 0.5203(1) -0.6532(1) -0.2704(1)
O2 O 0.6826(3) -0.8171(2) -0.3771(1)
C13 C 0.1243(3) -0.6746(3) -0.3750(1)
C14 C 0.1718(3) -0.6455(2) -0.3353(1)
C15 C 0.2868(3) -0.5427(2) -0.3269(1)
C16 C 0.3415(3) -0.4640(3) -0.3590(1)
C17 C 0.2930(3) -0.4921(3) -0.3987(1)
C18 C 0.1920(3) -0.6016(3) -0.4076(1)
C19 C 0.1671(4) -0.6480(3) -0.4508(1)
C20 C 0.4665(4) -0.8109(3) -0.4334(1)
C21 C 0.6131(4) -0.7417(3) -0.4102(1)
C22 C 0.5883(4) -0.8006(3) -0.3399(1)
C23 C 0.6475(3) -0.6803(3) -0.3167(1)
C24 C 0.3648(3) -0.5240(3) -0.2849(1)
H17 H 0.0439 -0.7456 -0.3803
H18 H 0.1249 -0.6971 -0.3132
H19 H 0.4143 -0.3887 -0.3535
H20 H 0.3298 -0.4350 -0.4204
H21 H 0.1232 -0.5769 -0.4671
H22 H 0.0793 -0.7162 -0.4511
H23 H 0.3743 -0.8357 -0.4146
H24 H 0.5135 -0.8893 -0.4454
H25 H 0.7081 -0.7214 -0.4288
H26 H 0.5676 -0.6606 -0.3997
H27 H 0.6060 -0.8764 -0.3230
H28 H 0.4634 -0.7938 -0.3457
H29 H 0.6359 -0.6052 -0.3342
H30 H 0.7711 -0.6892 -0.3097
H31 H 0.2698 -0.5211 -0.2653
H32 H 0.4254 -0.4413 -0.2841
loop_
_geom_bond_atom_site_label_1
_geom_bond_atom_site_label_2
_geom_bond_site_symmetry_1
_geom_bond_site_symmetry_2
S1 C7 1_555 1_555
S2 C11 1_555 1_555
S3 C19 1_555 1_555
S4 C23 1_555 1_555
O1 C9 1_555 1_555
O2 C21 1_555 1_555
C1 C2 1_555 1_555
C2 C3 1_555 1_555
C3 C4 1_555 1_555
C4 C5 1_555 1_555
C5 C6 1_555 1_555
C6 C1 1_555 1_555
C7 C6 1_555 1_555
C8 S1 1_555 1_555
C9 C8 1_555 1_555
C10 O1 1_555 1_555
C11 C10 1_555 1_555
C12 S2 1_555 1_555
C13 C14 1_555 1_555
C14 C15 1_555 1_555
C15 C16 1_555 1_555
C16 C17 1_555 1_555
C17 C18 1_555 1_555
C18 C13 1_555 1_555
C19 C18 1_555 1_555
C20 S3 1_555 1_555
C21 C20 1_555 1_555
C22 O2 1_555 1_555
C23 C22 1_555 1_555
C24 S4 1_555 1_555
H1 C1 1_555 1_555
H2 C2 1_555 1_555
H3 C4 1_555 1_555
H4 C5 1_555 1_555
H5 C7 1_555 1_555
H6 C7 1_555 1_555
H7 C8 1_555 1_555
H8 C8 1_555 1_555
H9 C9 1_555 1_555
H10 C9 1_555 1_555
H11 C10 1_555 1_555
H12 C10 1_555 1_555
H13 C11 1_555 1_555
H14 C11 1_555 1_555
H15 C12 1_555 1_555
H16 C12 1_555 1_555
H17 C13 1_555 1_555
H18 C14 1_555 1_555
H19 C16 1_555 1_555
H20 C17 1_555 1_555
H21 C19 1_555 1_555
H22 C19 1_555 1_555
H23 C20 1_555 1_555
H24 C20 1_555 1_555
H25 C21 1_555 1_555
H26 C21 1_555 1_555
H27 C22 1_555 1_555
H28 C22 1_555 1_555
H29 C23 1_555 1_555
H30 C23 1_555 1_555
H31 C24 1_555 1_555
H32 C24 1_555 1_555
C3 C12 1_555 1_555
C15 C24 1_555 1_555

#END
