
#######################################################################
#
#                 Cambridge Crystallographic Data Centre
#                                CCDC 
#
#######################################################################
#
# If this CIF has been generated from an entry in the Cambridge 
# Structural Database, then it will include bibliographic, chemical, 
# crystal, experimental, refinement or atomic coordinate data resulting 
# from the CCDC's data processing and validation procedures.
#
#######################################################################

data_ATAMEO
_chemical_formula_moiety         'C32 H32 N1 O3 P1'
_chemical_name_systematic        
'Diethyl (6-methyl-2,2,4-triphenylquinolin-1(2H)-yl)phosphonate'
_symmetry_cell_setting           monoclinic
_symmetry_space_group_name_H-M   'P 21/n'
_symmetry_Int_Tables_number      14
_space_group_name_Hall           '-P 2yn'
loop_
_symmetry_equiv_pos_site_id
_symmetry_equiv_pos_as_xyz
1 x,y,z
2 1/2-x,1/2+y,1/2-z
3 -x,-y,-z
4 1/2+x,1/2-y,1/2+z
_cell_length_a                   8.0069(3)
_cell_length_b                   15.2932(7)
_cell_length_c                   22.1829(11)
_cell_angle_alpha                90
_cell_angle_beta                 97.728(4)
_cell_angle_gamma                90
_cell_volume                     2691.65
_exptl_crystal_colour            colorless
_exptl_crystal_description       block
_cell_formula_units_Z            4
loop_
_atom_site_label
_atom_site_type_symbol
_atom_site_fract_x
_atom_site_fract_y
_atom_site_fract_z
P1 P 0.51082(7) 1.43612(4) 0.63317(3)
O1 O 0.34417(18) 1.40116(10) 0.61172(8)
O2 O 0.5356(2) 1.46643(11) 0.70145(7)
O3 O 0.55754(18) 1.51700(10) 0.59636(8)
N1 N 0.66406(19) 1.36318(10) 0.63213(7)
C1 C 0.4910(4) 0.99796(17) 0.60672(16)
H1 H 0.5671 0.9695 0.5831
H2 H 0.3781 0.9937 0.5860
H3 H 0.4972 0.9703 0.6458
C2 C 0.5396(3) 1.09362(15) 0.61507(12)
C3 C 0.4498(3) 1.14930(16) 0.64745(11)
H4 H 0.3600 1.1273 0.6653
C4 C 0.4897(3) 1.23702(15) 0.65410(10)
H5 H 0.4280 1.2728 0.6768
C5 C 0.6213(2) 1.27200(13) 0.62700(9)
C6 C 0.7174(2) 1.21664(14) 0.59503(9)
C7 C 0.6734(3) 1.12826(14) 0.59001(10)
H6 H 0.7372 1.0913 0.5689
C8 C 0.8664(2) 1.25305(13) 0.57153(9)
C9 C 0.9491(3) 1.20492(13) 0.52491(10)
C10 C 1.1232(3) 1.20073(15) 0.52972(11)
H7 H 1.1884 1.2278 0.5623
C11 C 1.2016(3) 1.15660(18) 0.48657(13)
H8 H 1.3186 1.1544 0.4904
C12 C 1.1070(4) 1.11646(17) 0.43854(13)
H9 H 1.1597 1.0861 0.4100
C13 C 0.9346(3) 1.12090(15) 0.43242(12)
H10 H 0.8702 1.0946 0.3993
C14 C 0.8572(3) 1.16445(14) 0.47549(11)
H11 H 0.7401 1.1666 0.4712
C15 C 0.9289(2) 1.32825(13) 0.59477(9)
H12 H 1.0243 1.3508 0.5807
C16 C 0.8524(2) 1.37927(13) 0.64320(9)
C17 C 0.9286(3) 1.34312(13) 0.70601(9)
C18 C 0.8342(3) 1.31958(15) 0.75103(10)
H13 H 0.7174 1.3250 0.7442
C19 C 0.9117(3) 1.28798(16) 0.80630(11)
H14 H 0.8464 1.2719 0.8361
C20 C 1.0825(3) 1.28023(15) 0.81748(11)
H15 H 1.1335 1.2585 0.8546
C21 C 1.1790(3) 1.30474(17) 0.77358(12)
H16 H 1.2958 1.3004 0.7811
C22 C 1.1021(3) 1.33589(15) 0.71820(11)
H17 H 1.1681 1.3523 0.6887
C23 C 0.8954(2) 1.47695(13) 0.63920(10)
C24 C 0.9105(3) 1.53007(15) 0.68979(11)
H18 H 0.8953 1.5066 0.7273
C25 C 0.9482(3) 1.61835(16) 0.68536(13)
H19 H 0.9555 1.6537 0.7197
C26 C 0.9749(3) 1.65378(17) 0.63061(15)
H20 H 1.0011 1.7127 0.6277
C27 C 0.9624(3) 1.60103(17) 0.58017(13)
H21 H 0.9802 1.6244 0.5428
C28 C 0.9235(3) 1.51365(15) 0.58453(11)
H22 H 0.9161 1.4787 0.5500
C29 C 0.4337(4) 1.5687(2) 0.56012(15)
H23 H 0.3464 1.5851 0.5843
H24 H 0.3818 1.5341 0.5260
C30 C 0.5054(4) 1.64663(17) 0.53754(13)
H25 H 0.4182 1.6799 0.5139
H26 H 0.5893 1.6306 0.5125
H27 H 0.5564 1.6813 0.5712
C31 C 0.4476(5) 1.5374(2) 0.72288(16)
H28 H 0.3277 1.5251 0.7157
H29 H 0.4680 1.5892 0.6998
C32 C 0.4945(5) 1.5549(3) 0.78570(16)
H30 H 0.4312 1.6039 0.7974
H31 H 0.6127 1.5681 0.7931
H32 H 0.4714 1.5045 0.8090
loop_
_geom_bond_atom_site_label_1
_geom_bond_atom_site_label_2
_geom_bond_site_symmetry_1
_geom_bond_site_symmetry_2
P1 O1 1_555 1_555
O2 P1 1_555 1_555
O3 P1 1_555 1_555
N1 P1 1_555 1_555
C1 H1 1_555 1_555
H2 C1 1_555 1_555
H3 C1 1_555 1_555
C2 C1 1_555 1_555
C3 C2 1_555 1_555
H4 C3 1_555 1_555
C4 C3 1_555 1_555
H5 C4 1_555 1_555
C5 N1 1_555 1_555
C6 C5 1_555 1_555
C7 C2 1_555 1_555
H6 C7 1_555 1_555
C8 C6 1_555 1_555
C9 C8 1_555 1_555
C10 C9 1_555 1_555
H7 C10 1_555 1_555
C11 C10 1_555 1_555
H8 C11 1_555 1_555
C12 C11 1_555 1_555
H9 C12 1_555 1_555
C13 C12 1_555 1_555
H10 C13 1_555 1_555
C14 C9 1_555 1_555
H11 C14 1_555 1_555
C15 C8 1_555 1_555
H12 C15 1_555 1_555
C16 N1 1_555 1_555
C17 C16 1_555 1_555
C18 C17 1_555 1_555
H13 C18 1_555 1_555
C19 C18 1_555 1_555
H14 C19 1_555 1_555
C20 C19 1_555 1_555
H15 C20 1_555 1_555
C21 C20 1_555 1_555
H16 C21 1_555 1_555
C22 C17 1_555 1_555
H17 C22 1_555 1_555
C23 C16 1_555 1_555
C24 C23 1_555 1_555
H18 C24 1_555 1_555
C25 C24 1_555 1_555
H19 C25 1_555 1_555
C26 C25 1_555 1_555
H20 C26 1_555 1_555
C27 C26 1_555 1_555
H21 C27 1_555 1_555
C28 C23 1_555 1_555
H22 C28 1_555 1_555
C29 O3 1_555 1_555
H23 C29 1_555 1_555
H24 C29 1_555 1_555
C30 C29 1_555 1_555
H25 C30 1_555 1_555
H26 C30 1_555 1_555
H27 C30 1_555 1_555
C31 O2 1_555 1_555
H28 C31 1_555 1_555
H29 C31 1_555 1_555
C32 C31 1_555 1_555
H30 C32 1_555 1_555
H31 C32 1_555 1_555
H32 C32 1_555 1_555
C4 C5 1_555 1_555
C6 C7 1_555 1_555
C13 C14 1_555 1_555
C15 C16 1_555 1_555
C21 C22 1_555 1_555
C27 C28 1_555 1_555

#END
