
#######################################################################
#
#                 Cambridge Crystallographic Data Centre
#                                CCDC 
#
#######################################################################
#
# If this CIF has been generated from an entry in the Cambridge 
# Structural Database, then it will include bibliographic, chemical, 
# crystal, experimental, refinement or atomic coordinate data resulting 
# from the CCDC's data processing and validation procedures.
#
#######################################################################

data_ATAVOH
_chemical_formula_moiety         'C19 H13 N3 O2 S1'
_chemical_name_systematic        
3-((4-Nitrophenyl)sulfanyl)-2-phenylimidazo[1,2-a]pyridine
_symmetry_cell_setting           monoclinic
_symmetry_space_group_name_H-M   'P 21/n'
_symmetry_Int_Tables_number      14
_space_group_name_Hall           '-P 2yn'
loop_
_symmetry_equiv_pos_site_id
_symmetry_equiv_pos_as_xyz
1 x,y,z
2 1/2-x,1/2+y,1/2-z
3 -x,-y,-z
4 1/2+x,1/2-y,1/2+z
_cell_length_a                   10.1076(18)
_cell_length_b                   9.9414(18)
_cell_length_c                   16.409(3)
_cell_angle_alpha                90
_cell_angle_beta                 103.167(2)
_cell_angle_gamma                90
_cell_volume                     1605.49
_exptl_crystal_colour            yellow
_exptl_crystal_description       needle
_cell_formula_units_Z            4
loop_
_atom_site_label
_atom_site_type_symbol
_atom_site_fract_x
_atom_site_fract_y
_atom_site_fract_z
C1 C 0.91261(16) 0.31149(16) 0.46298(10)
C2 C 0.9109(2) 0.37771(19) 0.53913(11)
H1 H 0.9706 0.3521 0.5886
C3 C 0.8210(2) 0.4789(2) 0.53889(13)
H2 H 0.8207 0.5239 0.5886
C4 C 0.7285(2) 0.5173(2) 0.46525(15)
H3 H 0.6665 0.5859 0.4667
C5 C 0.72908(19) 0.45491(19) 0.39221(12)
H4 H 0.6677 0.4797 0.3432
C6 C 0.84953(16) 0.28036(16) 0.32532(10)
C7 C 0.95657(15) 0.19723(15) 0.36159(9)
C8 C 1.02994(15) 0.10225(16) 0.31922(10)
C9 C 1.05529(17) 0.13182(17) 0.24130(11)
H5 H 1.0231 0.2118 0.2146
C10 C 1.12773(18) 0.04374(19) 0.20315(12)
H6 H 1.1428 0.0639 0.1507
C11 C 1.17790(18) -0.07418(19) 0.24273(12)
H7 H 1.2279 -0.1329 0.2174
C12 C 1.15379(18) -0.10463(18) 0.31985(12)
H8 H 1.1877 -0.1840 0.3466
C13 C 1.07944(17) -0.01787(17) 0.35778(10)
H9 H 1.0624 -0.0400 0.4095
C14 C 0.82473(15) 0.41691(16) 0.17567(10)
C15 C 0.77191(17) 0.43533(19) 0.09063(10)
H10 H 0.6987 0.3838 0.0628
C16 C 0.82834(18) 0.5301(2) 0.04764(11)
H11 H 0.7928 0.5436 -0.0092
C17 C 0.93736(18) 0.60461(17) 0.08914(11)
C18 C 0.9909(2) 0.58780(18) 0.17324(11)
H12 H 1.0649 0.6388 0.2005
C19 C 0.93345(18) 0.49445(17) 0.21651(10)
H13 H 0.9679 0.4833 0.2737
N1 N 0.82173(13) 0.35442(13) 0.39160(8)
N2 N 0.99353(14) 0.21557(13) 0.44607(8)
N3 N 0.9999(2) 0.70202(16) 0.04206(11)
O1 O 1.1086(2) 0.7507(2) 0.07639(11)
O2 O 0.94286(19) 0.72677(18) -0.02984(10)
S1 S 0.74838(4) 0.28942(5) 0.22509(3)
loop_
_geom_bond_atom_site_label_1
_geom_bond_atom_site_label_2
_geom_bond_site_symmetry_1
_geom_bond_site_symmetry_2
C1 C2 1_555 1_555
C2 H1 1_555 1_555
C3 C2 1_555 1_555
H2 C3 1_555 1_555
C4 C3 1_555 1_555
H3 C4 1_555 1_555
C5 C4 1_555 1_555
H4 C5 1_555 1_555
C6 C7 1_555 1_555
C7 C8 1_555 1_555
C8 C9 1_555 1_555
C9 H5 1_555 1_555
C10 C9 1_555 1_555
H6 C10 1_555 1_555
C11 C10 1_555 1_555
H7 C11 1_555 1_555
C12 C11 1_555 1_555
H8 C12 1_555 1_555
C13 C8 1_555 1_555
H9 C13 1_555 1_555
C14 C15 1_555 1_555
C15 H10 1_555 1_555
C16 C15 1_555 1_555
H11 C16 1_555 1_555
C17 C16 1_555 1_555
C18 C17 1_555 1_555
H12 C18 1_555 1_555
C19 C14 1_555 1_555
H13 C19 1_555 1_555
N1 C1 1_555 1_555
N2 C1 1_555 1_555
N3 C17 1_555 1_555
O1 N3 1_555 1_555
O2 N3 1_555 1_555
S1 C6 1_555 1_555
C5 N1 1_555 1_555
C6 N1 1_555 1_555
C7 N2 1_555 1_555
C12 C13 1_555 1_555
C14 S1 1_555 1_555
C18 C19 1_555 1_555

#END
