
#######################################################################
#
#                 Cambridge Crystallographic Data Centre
#                                CCDC 
#
#######################################################################
#
# If this CIF has been generated from an entry in the Cambridge 
# Structural Database, then it will include bibliographic, chemical, 
# crystal, experimental, refinement or atomic coordinate data resulting 
# from the CCDC's data processing and validation procedures.
#
#######################################################################

data_ATAVUN
_chemical_formula_moiety         'C21 H16 F1 N1 S1'
_chemical_name_systematic        
1-Benzyl-6-fluoro-3-(phenylsulfanyl)-1H-indole
_symmetry_cell_setting           orthorhombic
_symmetry_space_group_name_H-M   'P 21 21 21'
_symmetry_Int_Tables_number      19
_space_group_name_Hall           'P 2ac 2ab'
loop_
_symmetry_equiv_pos_site_id
_symmetry_equiv_pos_as_xyz
1 x,y,z
2 1/2-x,-y,1/2+z
3 -x,1/2+y,1/2-z
4 1/2+x,1/2-y,-z
_cell_length_a                   5.9880(16)
_cell_length_b                   8.409(2)
_cell_length_c                   33.800(9)
_cell_angle_alpha                90
_cell_angle_beta                 90
_cell_angle_gamma                90
_cell_volume                     1701.93
_exptl_crystal_colour            colorless
_exptl_crystal_description       prism
_cell_formula_units_Z            4
loop_
_atom_site_label
_atom_site_type_symbol
_atom_site_fract_x
_atom_site_fract_y
_atom_site_fract_z
S1 S 0.54947(19) 0.25903(17) 0.14471(3)
N1 N 1.0846(5) 0.1131(3) 0.08868(7)
F1 F 1.1782(7) -0.4271(3) 0.13240(9)
C1 C 0.9260(8) 0.2227(4) 0.09920(10)
H1 H 0.9205 0.3265 0.0897
C2 C 0.7783(7) 0.1596(4) 0.12523(10)
C3 C 0.7672(7) -0.1285(5) 0.15489(10)
H2 H 0.6390 -0.1170 0.1702
C4 C 0.8817(9) -0.2692(5) 0.15456(12)
H3 H 0.8312 -0.3549 0.1695
C5 C 1.0706(9) -0.2833(5) 0.13216(12)
C6 C 1.1566(7) -0.1678(4) 0.10901(11)
H4 H 1.2856 -0.1828 0.0942
C7 C 1.0396(6) -0.0248(4) 0.10879(9)
C8 C 0.8469(6) -0.0009(4) 0.13159(9)
C9 C 1.2701(8) 0.1396(5) 0.06186(11)
H5 H 1.4074 0.1089 0.0750
H6 H 1.2795 0.2524 0.0561
C10 C 1.2520(7) 0.0493(4) 0.02338(10)
C11 C 1.0641(7) 0.0577(4) 0.00011(11)
H7 H 0.9421 0.1172 0.0085
C12 C 1.0550(8) -0.0219(5) -0.03582(11)
H8 H 0.9275 -0.0145 -0.0514
C13 C 1.2318(8) -0.1112(5) -0.04847(11)
H9 H 1.2259 -0.1642 -0.0726
C14 C 1.4171(8) -0.1212(5) -0.02516(12)
H10 H 1.5373 -0.1830 -0.0334
C15 C 1.4293(7) -0.0413(5) 0.01040(11)
H11 H 1.5579 -0.0485 0.0257
C16 C 0.6428(6) 0.3310(4) 0.19086(9)
C17 C 0.4964(6) 0.4276(5) 0.21110(10)
H12 H 0.3598 0.4547 0.1999
C18 C 0.5525(8) 0.4840(5) 0.24800(13)
H13 H 0.4529 0.5482 0.2618
C19 C 0.7545(9) 0.4460(6) 0.26450(13)
H14 H 0.7918 0.4846 0.2894
C20 C 0.9005(7) 0.3518(5) 0.24446(11)
H15 H 1.0368 0.3250 0.2558
C21 C 0.8472(6) 0.2966(5) 0.20753(10)
H16 H 0.9497 0.2353 0.1936
loop_
_geom_bond_atom_site_label_1
_geom_bond_atom_site_label_2
_geom_bond_site_symmetry_1
_geom_bond_site_symmetry_2
S1 C2 1_555 1_555
N1 C1 1_555 1_555
F1 C5 1_555 1_555
C1 H1 1_555 1_555
C2 C1 1_555 1_555
C3 H2 1_555 1_555
C4 C3 1_555 1_555
H3 C4 1_555 1_555
C5 C4 1_555 1_555
C6 C5 1_555 1_555
H4 C6 1_555 1_555
C7 N1 1_555 1_555
C8 C2 1_555 1_555
C9 N1 1_555 1_555
H5 C9 1_555 1_555
H6 C9 1_555 1_555
C10 C9 1_555 1_555
C11 C10 1_555 1_555
H7 C11 1_555 1_555
C12 C11 1_555 1_555
H8 C12 1_555 1_555
C13 C12 1_555 1_555
H9 C13 1_555 1_555
C14 C13 1_555 1_555
H10 C14 1_555 1_555
C15 C10 1_555 1_555
H11 C15 1_555 1_555
C16 S1 1_555 1_555
C17 C16 1_555 1_555
H12 C17 1_555 1_555
C18 C17 1_555 1_555
H13 C18 1_555 1_555
C19 C18 1_555 1_555
H14 C19 1_555 1_555
C20 C19 1_555 1_555
H15 C20 1_555 1_555
C21 C16 1_555 1_555
H16 C21 1_555 1_555
C3 C8 1_555 1_555
C6 C7 1_555 1_555
C7 C8 1_555 1_555
C14 C15 1_555 1_555
C20 C21 1_555 1_555

#END
