
#######################################################################
#
#                 Cambridge Crystallographic Data Centre
#                                CCDC 
#
#######################################################################
#
# If this CIF has been generated from an entry in the Cambridge 
# Structural Database, then it will include bibliographic, chemical, 
# crystal, experimental, refinement or atomic coordinate data resulting 
# from the CCDC's data processing and validation procedures.
#
#######################################################################

data_ATAYAW
_chemical_formula_moiety         'C16 H17 Cl1 O5,C1 H1 Cl3'
_chemical_name_systematic        
'3-Chloro-2-(hexa-2,4-diyn-1-ylidene)-4-hydroxy-1,6-dioxaspiro[4.5]dec-8-yl acetate chloroform solvate'
_symmetry_cell_setting           monoclinic
_symmetry_space_group_name_H-M   'P 21'
_symmetry_Int_Tables_number      4
_space_group_name_Hall           'P 2yb'
loop_
_symmetry_equiv_pos_site_id
_symmetry_equiv_pos_as_xyz
1 x,y,z
2 -x,1/2+y,-z
_cell_length_a                   6.1287(9)
_cell_length_b                   19.323(3)
_cell_length_c                   8.8061(13)
_cell_angle_alpha                90
_cell_angle_beta                 98.870(3)
_cell_angle_gamma                90
_cell_volume                     1030.39
_exptl_crystal_colour            colorless
_exptl_crystal_description       prismatic
_cell_formula_units_Z            2
loop_
_atom_site_label
_atom_site_type_symbol
_atom_site_fract_x
_atom_site_fract_y
_atom_site_fract_z
Cl1 Cl 0.2089(2) 0.04439(7) 0.06557(11)
O1 O 0.4483(4) 0.09402(12) 0.5695(3)
O2 O 0.4426(4) -0.01819(13) 0.4726(3)
O3 O 0.5451(5) 0.14495(14) 0.3086(3)
O4 O 0.8143(5) 0.12901(14) 0.8166(3)
O5 O 0.6995(8) 0.1577(2) 1.0336(4)
C1 C 0.4578(6) 0.0756(2) 0.7288(4)
H1 H 0.3749 0.0332 0.7358
H2 H 0.3886 0.1118 0.7810
C2 C 0.6913(7) 0.0653(2) 0.8083(4)
H3 H 0.6895 0.0475 0.9123
C3 C 0.8142(7) 0.0148(2) 0.7194(5)
H4 H 0.9690 0.0137 0.7645
H5 H 0.7542 -0.0314 0.7265
C4 C 0.7937(6) 0.0357(2) 0.5534(4)
H6 H 0.8554 -0.0004 0.4963
H7 H 0.8780 0.0776 0.5453
C5 C 0.5567(6) 0.04794(19) 0.4836(4)
C6 C 0.5134(6) 0.0736(2) 0.3180(4)
H8 H 0.6109 0.0494 0.2573
C7 C 0.2770(6) 0.0495(2) 0.2695(4)
H9 H 0.1760 0.0817 0.3094
C8 C 0.2760(6) -0.0182(2) 0.3515(4)
C9 C 0.1443(7) -0.0730(2) 0.3264(5)
H10 H 0.1756 -0.1104 0.3925
C10 C -0.0380(7) -0.0794(2) 0.2090(5)
C11 C -0.2034(8) -0.0894(2) 0.1168(5)
C12 C -0.3887(9) -0.1030(2) 0.0133(5)
C13 C -0.5477(8) -0.1139(2) -0.0756(6)
C14 C -0.7506(8) -0.1272(4) -0.1823(7)
H11 H -0.7506 -0.1742 -0.2178
H12 H -0.7587 -0.0963 -0.2684
H13 H -0.8758 -0.1199 -0.1308
C15 C 0.8082(9) 0.1693(3) 0.9384(5)
C16 C 0.9591(15) 0.2302(4) 0.9364(8)
H14 H 0.8730 0.2716 0.9162
H15 H 1.0492 0.2238 0.8575
H16 H 1.0519 0.2341 1.0344
H18 H 0.593(10) 0.153(3) 0.227(7)
Cl2 Cl 0.3083(4) 0.31312(12) 0.3526(3)
Cl3 Cl 0.0224(3) 0.22362(10) 0.4848(3)
Cl4 Cl 0.4090(4) 0.27843(13) 0.6731(3)
C17 C 0.2963(9) 0.2503(2) 0.4920(6)
H17 H 0.3823 0.2104 0.4666
loop_
_geom_bond_atom_site_label_1
_geom_bond_atom_site_label_2
_geom_bond_site_symmetry_1
_geom_bond_site_symmetry_2
Cl1 C7 1_555 1_555
Cl2 C17 1_555 1_555
Cl3 C17 1_555 1_555
Cl4 C17 1_555 1_555
O1 C1 1_555 1_555
O2 C5 1_555 1_555
O3 C6 1_555 1_555
O4 C2 1_555 1_555
O5 C15 1_555 1_555
C1 H1 1_555 1_555
H2 C1 1_555 1_555
C2 C1 1_555 1_555
H3 C2 1_555 1_555
C3 C2 1_555 1_555
H4 C3 1_555 1_555
H5 C3 1_555 1_555
C4 C3 1_555 1_555
H6 C4 1_555 1_555
H7 C4 1_555 1_555
C5 O1 1_555 1_555
C6 C5 1_555 1_555
H8 C6 1_555 1_555
C7 C6 1_555 1_555
H9 C7 1_555 1_555
C8 O2 1_555 1_555
C9 C8 1_555 1_555
H10 C9 1_555 1_555
C10 C9 1_555 1_555
C11 C10 1_555 1_555
C12 C11 1_555 1_555
C13 C12 1_555 1_555
C14 C13 1_555 1_555
H11 C14 1_555 1_555
H12 C14 1_555 1_555
H13 C14 1_555 1_555
C15 O4 1_555 1_555
C16 C15 1_555 1_555
H14 C16 1_555 1_555
H15 C16 1_555 1_555
H16 C16 1_555 1_555
C17 H17 1_555 1_555
H18 O3 1_555 1_555
C4 C5 1_555 1_555
C7 C8 1_555 1_555

#END
