
#######################################################################
#
#                 Cambridge Crystallographic Data Centre
#                                CCDC 
#
#######################################################################
#
# If this CIF has been generated from an entry in the Cambridge 
# Structural Database, then it will include bibliographic, chemical, 
# crystal, experimental, refinement or atomic coordinate data resulting 
# from the CCDC's data processing and validation procedures.
#
#######################################################################

data_ATAZAX
_chemical_formula_moiety         'C13 H16 N2 O2'
_chemical_name_systematic        
1-Hydroxy-9,9,9a-trimethyl-9,9a-dihydro-1H-imidazo[1,2-a]indol-2(3H)-one
_symmetry_cell_setting           monoclinic
_symmetry_space_group_name_H-M   'P 21/a'
_symmetry_Int_Tables_number      14
_space_group_name_Hall           '-P 2yab'
loop_
_symmetry_equiv_pos_site_id
_symmetry_equiv_pos_as_xyz
1 x,y,z
2 1/2-x,1/2+y,-z
3 -x,-y,-z
4 1/2+x,1/2-y,z
_cell_length_a                   7.39860(10)
_cell_length_b                   18.9176(2)
_cell_length_c                   9.3134(5)
_cell_angle_alpha                90
_cell_angle_beta                 108.3289(11)
_cell_angle_gamma                90
_cell_volume                     1237.41
_exptl_crystal_colour            colorless
_exptl_crystal_description       prism
_cell_formula_units_Z            4
loop_
_atom_site_label
_atom_site_type_symbol
_atom_site_fract_x
_atom_site_fract_y
_atom_site_fract_z
O1 O 0.82978(18) 0.26099(9) 0.03058(15)
O2 O 0.58126(18) 0.14906(9) -0.01486(14)
N1 N 0.99141(18) 0.12939(8) 0.31611(16)
C1 C 1.0457(3) 0.18443(9) 0.5714(2)
N2 N 0.73337(19) 0.15933(9) 0.11780(16)
C2 C 0.9425(2) 0.14380(8) 0.44911(18)
C3 C 1.0411(2) 0.19177(11) 0.2417(2)
C4 C 0.7022(2) 0.06563(9) 0.3046(2)
C5 C 0.7786(2) 0.10861(8) 0.4485(2)
C6 C 0.7141(3) 0.11372(10) 0.5727(2)
C7 C 0.8607(2) 0.21017(11) 0.1174(2)
C8 C 0.8214(2) 0.09616(10) 0.2069(2)
C9 C 0.8782(3) 0.04447(14) 0.1029(3)
C10 C 0.9786(3) 0.18871(11) 0.6949(2)
C11 C 0.8153(4) 0.15378(12) 0.6955(2)
C12 C 0.4863(3) 0.07434(13) 0.2331(3)
C13 C 0.7498(3) -0.01296(10) 0.3417(3)
H1 H 0.4880 0.1815 -0.0077
H2 H 1.1701 0.2061 0.5594
H3 H 1.0888 0.2341 0.3157
H4 H 1.1447 0.1807 0.2039
H5 H 0.5941 0.0860 0.5627
H6 H 0.7661 0.0238 0.0335
H7 H 0.9566 0.0079 0.1628
H8 H 0.9482 0.0691 0.0473
H9 H 1.0472 0.2161 0.7818
H10 H 0.7880 0.1642 0.7907
H11 H 0.4051 0.0525 0.2963
H12 H 0.4544 0.1297 0.2250
H13 H 0.4477 0.0460 0.1365
H14 H 0.6767 -0.0415 0.2399
H15 H 0.8945 -0.0180 0.3876
H16 H 0.6770 -0.0252 0.4105
loop_
_geom_bond_atom_site_label_1
_geom_bond_atom_site_label_2
_geom_bond_site_symmetry_1
_geom_bond_site_symmetry_2
O1 C7 1_555 1_555
O2 N2 1_555 1_555
N1 C2 1_555 1_555
C1 C2 1_555 1_555
N2 C7 1_555 1_555
C2 C5 1_555 1_555
C3 N1 1_555 1_555
C4 C5 1_555 1_555
C5 C6 1_555 1_555
C6 C11 1_555 1_555
C7 C3 1_555 1_555
C8 N1 1_555 1_555
C9 C8 1_555 1_555
C10 C1 1_555 1_555
C11 C10 1_555 1_555
C12 C4 1_555 1_555
C13 C4 1_555 1_555
H1 O2 1_555 1_555
H2 C1 1_555 1_555
H3 C3 1_555 1_555
H4 C3 1_555 1_555
H5 C6 1_555 1_555
H6 C9 1_555 1_555
H7 C9 1_555 1_555
H8 C9 1_555 1_555
H9 C10 1_555 1_555
H10 C11 1_555 1_555
H11 C12 1_555 1_555
H12 C12 1_555 1_555
H13 C12 1_555 1_555
H14 C13 1_555 1_555
H15 C13 1_555 1_555
H16 C13 1_555 1_555
N2 C8 1_555 1_555
C4 C8 1_555 1_555

#END
