
#######################################################################
#
#                 Cambridge Crystallographic Data Centre
#                                CCDC 
#
#######################################################################
#
# If this CIF has been generated from an entry in the Cambridge 
# Structural Database, then it will include bibliographic, chemical, 
# crystal, experimental, refinement or atomic coordinate data resulting 
# from the CCDC's data processing and validation procedures.
#
#######################################################################

data_ATAZEB
_chemical_formula_moiety         'C13 H17 N2 O2 1+,Cl1 O4 1-'
_chemical_name_systematic        
'1-(2-(Hydroxyamino)-2-oxoethyl)-2,3,3-trimethyl-3H-indolium perchlorate'
_symmetry_cell_setting           triclinic
_symmetry_space_group_name_H-M   'P -1'
_symmetry_Int_Tables_number      2
_space_group_name_Hall           '-P 1'
loop_
_symmetry_equiv_pos_site_id
_symmetry_equiv_pos_as_xyz
1 x,y,z
2 -x,-y,-z
_cell_length_a                   10.1033(2)
_cell_length_b                   11.7548(2)
_cell_length_c                   13.3390(3)
_cell_angle_alpha                93.4872(8)
_cell_angle_beta                 97.5743(8)
_cell_angle_gamma                96.1956(8)
_cell_volume                     1556.64
_exptl_crystal_colour            pink
_exptl_crystal_description       prism
_cell_formula_units_Z            4
loop_
_atom_site_label
_atom_site_type_symbol
_atom_site_fract_x
_atom_site_fract_y
_atom_site_fract_z
Cl1 Cl 0.42833(8) 0.68049(7) 0.85725(6)
O1 O 0.3248(3) 0.6042(3) 0.7949(2)
O2 O 0.4881(3) 0.6198(3) 0.9348(2)
O3 O 0.5228(4) 0.7210(3) 0.7926(2)
O4 O 0.3718(6) 0.7729(4) 0.9006(4)
Cl2 Cl 0.03673(10) 0.19608(8) 0.70943(8)
O7 O 0.1466(3) 0.2783(3) 0.7602(3)
O8 O 0.0338(4) 0.2259(3) 0.6037(3)
O9 O -0.0830(4) 0.2216(4) 0.7446(4)
O10 O 0.0685(6) 0.0866(3) 0.7186(5)
N1 N 0.0032(2) 0.6222(2) 0.77922(19)
O5 O -0.1507(2) 0.6055(2) 0.59735(19)
O6 O -0.2015(2) 0.4050(2) 0.47919(17)
C1 C -0.0721(3) 0.5864(2) 0.8585(2)
N2 N -0.1065(3) 0.4228(2) 0.5665(2)
C2 C -0.1163(3) 0.4764(3) 0.8784(2)
C3 C -0.0935(3) 0.6842(3) 0.9143(2)
C4 C -0.0863(3) 0.5252(3) 0.6159(2)
C5 C -0.0347(3) 0.7879(3) 0.8684(3)
C6 C 0.0332(3) 0.5406(3) 0.7009(2)
C7 C -0.1874(3) 0.4669(3) 0.9609(3)
C8 C 0.0253(3) 0.7338(2) 0.7816(2)
C9 C -0.1629(4) 0.6731(3) 0.9958(3)
C10 C -0.2097(3) 0.5625(3) 1.0191(3)
C11 C 0.0746(4) 0.8634(3) 0.9423(3)
C12 C -0.1449(4) 0.8600(3) 0.8244(4)
C13 C 0.0959(4) 0.7976(3) 0.7083(3)
H1 H -0.058119 0.365006 0.581201
H2 H -0.262319 0.550451 1.077371
H3 H 0.050452 0.466752 0.731975
H4 H 0.109762 0.572622 0.676255
H5 H -0.173465 0.742665 1.037004
H6 H -0.103588 0.411664 0.834170
H7 H 0.109637 0.928114 0.909280
H8 H 0.146057 0.818893 0.963810
H9 H 0.036087 0.889804 1.000201
H10 H -0.104472 0.925429 0.795126
H11 H -0.193022 0.885349 0.877416
H12 H -0.206042 0.813319 0.773016
H13 H -0.276675 0.388309 0.502366
H14 H -0.221875 0.392558 0.978575
H20 H 0.031050 0.781147 0.642041
H21 H 0.110212 0.877804 0.730340
H22 H 0.181003 0.769514 0.704442
O11 O 0.4826(3) 0.5857(2) 0.61734(17)
N3 N 0.6135(2) 0.7685(2) 0.34089(19)
O12 O 0.4144(2) 0.6532(2) 0.42973(18)
N4 N 0.5783(3) 0.6252(3) 0.5572(2)
C14 C 0.5518(3) 0.7644(3) 0.2492(3)
C15 C 0.5317(3) 0.6485(3) 0.4634(2)
C16 C 0.6427(3) 0.6697(3) 0.3969(3)
C17 C 0.6371(5) 0.8831(4) 0.3870(4)
C18 C 0.6025(5) 0.9143(6) 0.1311(4)
C19 C 0.5818(5) 0.9520(4) 0.3157(5)
C20 C 0.5260(4) 0.8808(4) 0.2197(4)
C21 C 0.5094(5) 0.6566(4) 0.1844(4)
C22 C 0.6522(6) 1.1058(4) 0.4393(5)
C23 C 0.3739(5) 0.8824(5) 0.1891(4)
C24 C 0.5884(6) 1.0679(4) 0.3427(5)
C25 C 0.7071(6) 1.0352(6) 0.5097(5)
C26 C 0.6999(6) 0.9182(5) 0.4851(4)
H15 H 0.585053 0.990043 0.113042
H16 H 0.573151 0.860140 0.074043
H17 H 0.697180 0.914014 0.151437
H18 H 0.667617 0.610571 0.576419
H19 H 0.500724 0.636726 0.673285
H23 H 0.643876 0.604681 0.349979
H24 H 0.729005 0.687042 0.438043
H25 H 0.733110 0.863315 0.529112
H26 H 0.750016 1.067014 0.575010
H27 H 0.661214 1.186015 0.462213
H28 H 0.550016 1.118151 0.295014
H29 H 0.357106 0.957015 0.170113
H30 H 0.328012 0.864010 0.245015
H31 H 0.342216 0.827117 0.133210
H32 H 0.466015 0.674015 0.120012
H33 H 0.448113 0.608312 0.216134
H34 H 0.587016 0.619013 0.175013
loop_
_geom_bond_atom_site_label_1
_geom_bond_atom_site_label_2
_geom_bond_site_symmetry_1
_geom_bond_site_symmetry_2
Cl1 O1 1_555 1_555
O2 Cl1 1_555 1_555
O3 Cl1 1_555 1_555
O4 Cl1 1_555 1_555
Cl2 O7 1_555 1_555
N1 C1 1_555 1_555
O5 C4 1_555 1_555
O6 N2 1_555 1_555
C1 C2 1_555 1_555
N2 C4 1_555 1_555
C2 C7 1_555 1_555
C3 C1 1_555 1_555
C4 C6 1_555 1_555
C5 C3 1_555 1_555
C6 N1 1_555 1_555
C7 C10 1_555 1_555
C8 N1 1_555 1_555
C9 C3 1_555 1_555
C10 C9 1_555 1_555
C11 C5 1_555 1_555
C12 C5 1_555 1_555
C13 C8 1_555 1_555
O8 Cl2 1_555 1_555
O9 Cl2 1_555 1_555
O10 Cl2 1_555 1_555
O11 N4 1_555 1_555
N3 C14 1_555 1_555
O12 C15 1_555 1_555
N4 C15 1_555 1_555
C14 C20 1_555 1_555
C15 C16 1_555 1_555
C16 N3 1_555 1_555
C17 N3 1_555 1_555
C18 C20 1_555 1_555
C19 C17 1_555 1_555
C20 C19 1_555 1_555
C21 C14 1_555 1_555
C22 C24 1_555 1_555
C23 C20 1_555 1_555
C24 C19 1_555 1_555
C25 C22 1_555 1_555
C26 C17 1_555 1_555
H1 N2 1_555 1_555
H2 C10 1_555 1_555
H3 C6 1_555 1_555
H4 C6 1_555 1_555
H5 C9 1_555 1_555
H6 C2 1_555 1_555
H7 C11 1_555 1_555
H8 C11 1_555 1_555
H9 C11 1_555 1_555
H10 C12 1_555 1_555
H11 C12 1_555 1_555
H12 C12 1_555 1_555
H13 O6 1_555 1_555
H14 C7 1_555 1_555
H15 C18 1_555 1_555
H16 C18 1_555 1_555
H17 C18 1_555 1_555
H18 N4 1_555 1_555
H19 O11 1_555 1_555
H20 C13 1_555 1_555
H21 C13 1_555 1_555
H22 C13 1_555 1_555
H23 C16 1_555 1_555
H24 C16 1_555 1_555
H25 C26 1_555 1_555
H26 C25 1_555 1_555
H27 C22 1_555 1_555
H28 C24 1_555 1_555
H29 C23 1_555 1_555
H30 C23 1_555 1_555
H31 C23 1_555 1_555
H32 C21 1_555 1_555
H33 C21 1_555 1_555
H34 C21 1_555 1_555
C5 C8 1_555 1_555
C25 C26 1_555 1_555

#END
