
#######################################################################
#
#                 Cambridge Crystallographic Data Centre
#                                CCDC 
#
#######################################################################
#
# If this CIF has been generated from an entry in the Cambridge 
# Structural Database, then it will include bibliographic, chemical, 
# crystal, experimental, refinement or atomic coordinate data resulting 
# from the CCDC's data processing and validation procedures.
#
#######################################################################

data_ATEDAE01
_chemical_formula_moiety         'C20 H18 N2'
_chemical_name_systematic        
1-Amino-2-cyano-3-phenyl-3,3a,4,5-tetrahydro-9bH-cyclopenta[a]naphthalene
_symmetry_cell_setting           triclinic
_symmetry_space_group_name_H-M   'P -1'
_symmetry_Int_Tables_number      2
_space_group_name_Hall           '-P 1'
loop_
_symmetry_equiv_pos_site_id
_symmetry_equiv_pos_as_xyz
1 x,y,z
2 -x,-y,-z
_cell_length_a                   9.169(2)
_cell_length_b                   9.520(2)
_cell_length_c                   10.276(2)
_cell_angle_alpha                91.09(1)
_cell_angle_beta                 107.95(1)
_cell_angle_gamma                111.05(2)
_cell_volume                     787.83
_chemical_melting_point          '196-198 deg.C'
_cell_formula_units_Z            2
_exptl_crystal_recrystallization_method ethanol
loop_
_atom_site_label
_atom_site_type_symbol
_atom_site_fract_x
_atom_site_fract_y
_atom_site_fract_z
N1 N 0.2944(2) 0.9103(2) -0.0363(1)
N2 N 0.6509(2) 0.9215(2) 0.2766(1)
C1 C -0.0804(2) 0.5050(2) 0.1545(2)
C2 C -0.2391(2) 0.5016(2) 0.1272(2)
C3 C -0.2660(2) 0.6349(2) 0.1200(2)
C4 C -0.1336(2) 0.7710(2) 0.1426(2)
C5 C 0.0249(2) 0.7745(2) 0.1726(2)
C6 C 0.0546(2) 0.6412(2) 0.1774(1)
C7 C 0.2257(2) 0.6400(2) 0.2065(1)
C8 C 0.3536(2) 0.7770(2) 0.1766(1)
C9 C 0.5073(2) 0.8096(2) 0.2688(1)
C10 C 0.5007(2) 0.6908(2) 0.3666(1)
C11 C 0.3190(2) 0.6340(2) 0.3591(1)
C12 C 0.3021(2) 0.7348(2) 0.4658(2)
C13 C 0.4074(2) 0.7269(2) 0.6110(2)
C14 C 0.5842(2) 0.7550(2) 0.6254(2)
C15 C 0.6292(2) 0.7386(2) 0.5099(2)
C16 C 0.7932(2) 0.7588(2) 0.5285(2)
C17 C 0.9117(2) 0.7970(2) 0.6596(2)
C18 C 0.8667(3) 0.8124(2) 0.7733(2)
C19 C 0.7057(2) 0.7920(2) 0.7563(2)
C20 C 0.3208(2) 0.8512(2) 0.0598(2)
loop_
_geom_bond_atom_site_label_1
_geom_bond_atom_site_label_2
_geom_bond_site_symmetry_1
_geom_bond_site_symmetry_2
N1 C20 1_555 1_555
N2 C9 1_555 1_555
C1 C2 1_555 1_555
C2 C3 1_555 1_555
C3 C4 1_555 1_555
C4 C5 1_555 1_555
C5 C6 1_555 1_555
C6 C1 1_555 1_555
C7 C6 1_555 1_555
C8 C7 1_555 1_555
C9 C8 1_555 1_555
C10 C9 1_555 1_555
C11 C7 1_555 1_555
C12 C11 1_555 1_555
C13 C12 1_555 1_555
C14 C13 1_555 1_555
C15 C10 1_555 1_555
C16 C15 1_555 1_555
C17 C16 1_555 1_555
C18 C17 1_555 1_555
C19 C14 1_555 1_555
C20 C8 1_555 1_555
C10 C11 1_555 1_555
C14 C15 1_555 1_555
C18 C19 1_555 1_555

#END
