
#######################################################################
#
#                 Cambridge Crystallographic Data Centre
#                                CCDC 
#
#######################################################################
#
# If this CIF has been generated from an entry in the Cambridge 
# Structural Database, then it will include bibliographic, chemical, 
# crystal, experimental, refinement or atomic coordinate data resulting 
# from the CCDC's data processing and validation procedures.
#
#######################################################################

data_ATEGUC
_chemical_formula_moiety         'C28 H22 I1 N1 O2 S1'
_chemical_name_systematic        
N-(2-Iodo-1,3-diphenyl-1H-inden-1-yl)-4-methylbenzenesulfonamide
_symmetry_cell_setting           triclinic
_symmetry_space_group_name_H-M   'P -1'
_symmetry_Int_Tables_number      2
_space_group_name_Hall           '-P 1'
loop_
_symmetry_equiv_pos_site_id
_symmetry_equiv_pos_as_xyz
1 x,y,z
2 -x,-y,-z
_cell_length_a                   10.0605(6)
_cell_length_b                   11.3570(6)
_cell_length_c                   11.6434(7)
_cell_angle_alpha                76.252(5)
_cell_angle_beta                 68.044(6)
_cell_angle_gamma                75.371(5)
_cell_volume                     1178.55
_exptl_crystal_colour            colorless
_exptl_crystal_description       platelet
_cell_formula_units_Z            2
loop_
_atom_site_label
_atom_site_type_symbol
_atom_site_fract_x
_atom_site_fract_y
_atom_site_fract_z
I1 I 0.60566(3) 0.57248(2) 0.61158(2)
S1 S 0.26989(8) 0.61766(7) 0.99057(7)
O1 O 0.1674(2) 0.71702(19) 1.04695(19)
O2 O 0.3168(2) 0.51073(18) 1.07001(19)
N1 N 0.4197(2) 0.6646(2) 0.9020(2)
H1 H 0.4961 0.6236 0.9195
C1 C 0.2239(4) 0.7645(3) 0.5043(3)
H2 H 0.1505 0.7512 0.5811
C2 C 0.2050(5) 0.7544(3) 0.3953(4)
H3 H 0.1205 0.7318 0.3992
C3 C 0.3111(5) 0.7776(3) 0.2817(4)
H4 H 0.2985 0.7713 0.2083
C4 C 0.4350(5) 0.8101(4) 0.2764(3)
H5 H 0.5064 0.8270 0.1992
C5 C 0.4550(4) 0.8179(3) 0.3851(3)
H6 H 0.5401 0.8397 0.3806
C6 C 0.3506(3) 0.7940(3) 0.4998(3)
C7 C 0.3692(3) 0.8026(3) 0.6178(3)
C8 C 0.2818(3) 0.8975(3) 0.6967(3)
C9 C 0.1757(3) 0.9973(3) 0.6791(3)
H7 H 0.1498 1.0126 0.6075
C10 C 0.1086(3) 1.0739(3) 0.7679(3)
H8 H 0.0364 1.1407 0.7567
C11 C 0.1483(3) 1.0517(3) 0.8738(3)
H9 H 0.1021 1.1038 0.9336
C12 C 0.2550(3) 0.9537(3) 0.8921(3)
H10 H 0.2824 0.9401 0.9628
C13 C 0.3209(3) 0.8756(3) 0.8036(3)
C14 C 0.4464(3) 0.7661(3) 0.7962(3)
C15 C 0.4629(3) 0.7282(3) 0.6727(3)
C16 C 0.5814(3) 0.8100(3) 0.7917(3)
C17 C 0.6818(4) 0.8530(3) 0.6813(3)
H11 H 0.6722 0.8518 0.6052
C18 C 0.7963(4) 0.8977(3) 0.6820(4)
H12 H 0.8634 0.9262 0.6065
C19 C 0.8126(4) 0.9006(3) 0.7930(4)
H13 H 0.8898 0.9316 0.7929
C20 C 0.7153(4) 0.8580(3) 0.9027(4)
H14 H 0.7267 0.8585 0.9783
C21 C 0.5992(3) 0.8138(3) 0.9028(3)
H15 H 0.5321 0.7863 0.9788
C22 C 0.1965(3) 0.5701(3) 0.8973(3)
C23 C 0.0677(3) 0.6348(3) 0.8813(3)
H16 H 0.0202 0.7052 0.9178
C24 C 0.0095(4) 0.5949(3) 0.8109(3)
H17 H -0.0784 0.6383 0.8014
C25 C 0.0782(3) 0.4918(3) 0.7541(3)
C26 C 0.2074(4) 0.4278(3) 0.7721(3)
H18 H 0.2556 0.3579 0.7349
C27 C 0.2657(3) 0.4655(3) 0.8438(3)
H19 H 0.3516 0.4205 0.8562
C28 C 0.0141(4) 0.4515(3) 0.6756(3)
H20 H 0.0047 0.5167 0.6078
H21 H -0.0803 0.4323 0.7265
H22 H 0.0767 0.3796 0.6422
loop_
_geom_bond_atom_site_label_1
_geom_bond_atom_site_label_2
_geom_bond_site_symmetry_1
_geom_bond_site_symmetry_2
I1 C15 1_555 1_555
S1 O1 1_555 1_555
O2 S1 1_555 1_555
N1 S1 1_555 1_555
H1 N1 1_555 1_555
C1 H2 1_555 1_555
C2 C1 1_555 1_555
H3 C2 1_555 1_555
C3 C2 1_555 1_555
H4 C3 1_555 1_555
C4 C3 1_555 1_555
H5 C4 1_555 1_555
C5 C4 1_555 1_555
H6 C5 1_555 1_555
C6 C1 1_555 1_555
C7 C6 1_555 1_555
C8 C7 1_555 1_555
C9 C8 1_555 1_555
H7 C9 1_555 1_555
C10 C9 1_555 1_555
H8 C10 1_555 1_555
C11 C10 1_555 1_555
H9 C11 1_555 1_555
C12 C11 1_555 1_555
H10 C12 1_555 1_555
C13 C8 1_555 1_555
C14 N1 1_555 1_555
C15 C7 1_555 1_555
C16 C14 1_555 1_555
C17 C16 1_555 1_555
H11 C17 1_555 1_555
C18 C17 1_555 1_555
H12 C18 1_555 1_555
C19 C18 1_555 1_555
H13 C19 1_555 1_555
C20 C19 1_555 1_555
H14 C20 1_555 1_555
C21 C16 1_555 1_555
H15 C21 1_555 1_555
C22 S1 1_555 1_555
C23 C22 1_555 1_555
H16 C23 1_555 1_555
C24 C23 1_555 1_555
H17 C24 1_555 1_555
C25 C24 1_555 1_555
C26 C25 1_555 1_555
H18 C26 1_555 1_555
C27 C22 1_555 1_555
H19 C27 1_555 1_555
C28 C25 1_555 1_555
H20 C28 1_555 1_555
H21 C28 1_555 1_555
H22 C28 1_555 1_555
C5 C6 1_555 1_555
C12 C13 1_555 1_555
C13 C14 1_555 1_555
C14 C15 1_555 1_555
C20 C21 1_555 1_555
C26 C27 1_555 1_555

#END
