
#######################################################################
#
#                 Cambridge Crystallographic Data Centre
#                                CCDC 
#
#######################################################################
#
# If this CIF has been generated from an entry in the Cambridge 
# Structural Database, then it will include bibliographic, chemical, 
# crystal, experimental, refinement or atomic coordinate data resulting 
# from the CCDC's data processing and validation procedures.
#
#######################################################################

data_ATEHEN
_chemical_formula_moiety         'C28 H22 I1 N1 O2 S1'
_chemical_name_systematic        
N-(2-Iodo-1,3,3-triphenylprop-2-en-1-ylidene)-4-methylbenzenesulfonamide
_symmetry_cell_setting           monoclinic
_symmetry_space_group_name_H-M   'P 21/c'
_symmetry_Int_Tables_number      14
_space_group_name_Hall           '-P 2ybc'
loop_
_symmetry_equiv_pos_site_id
_symmetry_equiv_pos_as_xyz
1 x,y,z
2 -x,1/2+y,1/2-z
3 -x,-y,-z
4 x,1/2-y,1/2+z
_cell_length_a                   9.2913(4)
_cell_length_b                   29.4694(15)
_cell_length_c                   8.8308(4)
_cell_angle_alpha                90
_cell_angle_beta                 92.515(4)
_cell_angle_gamma                90
_cell_volume                     2415.62
_exptl_crystal_colour            yellow
_exptl_crystal_description       needle
_cell_formula_units_Z            4
loop_
_atom_site_label
_atom_site_type_symbol
_atom_site_fract_x
_atom_site_fract_y
_atom_site_fract_z
I1 I 0.73659(2) 0.130378(9) 0.36089(3)
S1 S 0.81096(10) 0.08261(3) 0.84083(13)
O1 O 0.7127(3) 0.06035(8) 0.7372(4)
O2 O 0.7731(3) 0.08754(10) 0.9960(4)
N1 N 0.8618(3) 0.13381(9) 0.7883(3)
C1 C 0.4435(4) 0.13071(14) 0.8798(5)
H1 H 0.4330 0.1003 0.8534
C2 C 0.3998(5) 0.14484(17) 1.0185(6)
H2 H 0.3628 0.1240 1.0857
C3 C 0.4108(4) 0.18919(19) 1.0571(5)
H3 H 0.3808 0.1990 1.1507
C4 C 0.4663(4) 0.21959(15) 0.9579(5)
H4 H 0.4714 0.2502 0.9833
C5 C 0.5145(4) 0.20514(13) 0.8210(4)
H5 H 0.5556 0.2259 0.7563
C6 C 0.5022(3) 0.16009(11) 0.7786(4)
C7 C 0.5419(3) 0.14412(10) 0.6264(4)
C8 C 0.4188(3) 0.12578(11) 0.5309(4)
C9 C 0.2938(3) 0.15117(13) 0.5075(4)
H6 H 0.2890 0.1804 0.5470
C10 C 0.1762(4) 0.13336(16) 0.4257(5)
H7 H 0.0936 0.1507 0.4087
C11 C 0.1822(4) 0.09023(18) 0.3703(5)
H8 H 0.1030 0.0782 0.3163
C12 C 0.3038(4) 0.06453(14) 0.3933(5)
H9 H 0.3071 0.0352 0.3547
C13 C 0.4220(3) 0.08218(12) 0.4743(4)
H10 H 0.5042 0.0645 0.4905
C14 C 0.6774(3) 0.14601(10) 0.5825(4)
C15 C 0.8062(3) 0.15836(11) 0.6813(4)
C16 C 0.8798(3) 0.20241(10) 0.6558(4)
C17 C 0.8118(4) 0.23681(12) 0.5764(4)
H11 H 0.7212 0.2318 0.5305
C18 C 0.8758(5) 0.27882(13) 0.5634(5)
H12 H 0.8277 0.3021 0.5113
C19 C 1.0104(5) 0.28587(14) 0.6277(5)
H13 H 1.0546 0.3140 0.6186
C20 C 1.0798(4) 0.25191(15) 0.7049(5)
H14 H 1.1713 0.2571 0.7483
C21 C 1.0165(4) 0.20978(13) 0.7200(4)
H15 H 1.0651 0.1867 0.7727
C22 C 0.9782(4) 0.05507(11) 0.8344(4)
C23 C 1.0136(4) 0.03217(14) 0.7083(5)
H16 H 0.9484 0.0305 0.6255
C24 C 1.1460(5) 0.01138(14) 0.7026(5)
H17 H 1.1687 -0.0043 0.6154
C25 C 1.2444(4) 0.01308(11) 0.8214(4)
C26 C 1.2049(4) 0.03555(13) 0.9488(5)
H18 H 1.2684 0.0366 1.0331
C27 C 1.0735(4) 0.05648(13) 0.9544(4)
H19 H 1.0497 0.0718 1.0419
C28 C 1.3898(4) -0.00831(13) 0.8115(5)
H20 H 1.4012 -0.0316 0.8870
H21 H 1.4630 0.0143 0.8285
H22 H 1.3985 -0.0214 0.7127
loop_
_geom_bond_atom_site_label_1
_geom_bond_atom_site_label_2
_geom_bond_site_symmetry_1
_geom_bond_site_symmetry_2
I1 C14 1_555 1_555
S1 O1 1_555 1_555
O2 S1 1_555 1_555
N1 S1 1_555 1_555
C1 H1 1_555 1_555
C2 C1 1_555 1_555
H2 C2 1_555 1_555
C3 C2 1_555 1_555
H3 C3 1_555 1_555
C4 C3 1_555 1_555
H4 C4 1_555 1_555
C5 C4 1_555 1_555
H5 C5 1_555 1_555
C6 C1 1_555 1_555
C7 C6 1_555 1_555
C8 C7 1_555 1_555
C9 C8 1_555 1_555
H6 C9 1_555 1_555
C10 C9 1_555 1_555
H7 C10 1_555 1_555
C11 C10 1_555 1_555
H8 C11 1_555 1_555
C12 C11 1_555 1_555
H9 C12 1_555 1_555
C13 C8 1_555 1_555
H10 C13 1_555 1_555
C14 C7 1_555 1_555
C15 N1 1_555 1_555
C16 C15 1_555 1_555
C17 C16 1_555 1_555
H11 C17 1_555 1_555
C18 C17 1_555 1_555
H12 C18 1_555 1_555
C19 C18 1_555 1_555
H13 C19 1_555 1_555
C20 C19 1_555 1_555
H14 C20 1_555 1_555
C21 C16 1_555 1_555
H15 C21 1_555 1_555
C22 S1 1_555 1_555
C23 C22 1_555 1_555
H16 C23 1_555 1_555
C24 C23 1_555 1_555
H17 C24 1_555 1_555
C25 C24 1_555 1_555
C26 C25 1_555 1_555
H18 C26 1_555 1_555
C27 C22 1_555 1_555
H19 C27 1_555 1_555
C28 C25 1_555 1_555
H20 C28 1_555 1_555
H21 C28 1_555 1_555
H22 C28 1_555 1_555
C5 C6 1_555 1_555
C12 C13 1_555 1_555
C14 C15 1_555 1_555
C20 C21 1_555 1_555
C26 C27 1_555 1_555

#END
