
#######################################################################
#
#                 Cambridge Crystallographic Data Centre
#                                CCDC 
#
#######################################################################
#
# If this CIF has been generated from an entry in the Cambridge 
# Structural Database, then it will include bibliographic, chemical, 
# crystal, experimental, refinement or atomic coordinate data resulting 
# from the CCDC's data processing and validation procedures.
#
#######################################################################

data_ATEJOZ
_chemical_compound_source        
'coral-associated fungus Aspergillus versicolor LCJ-5-4'
_chemical_name_common            'Cottoquinazoline B'
_chemical_formula_moiety         'C23 H19 N5 O4'
_chemical_name_systematic        
12-Hydroxy-3-methyl-2,5,15,23,25-penta-azaheptacyclo[12.10.2.1^2,5^.0^6,11^.0^12,27^.0^15,24^.0^17,22^]heptacosa-6,8,10,17,19,21,23-heptaene-4,16,26-trione
_symmetry_cell_setting           orthorhombic
_symmetry_space_group_name_H-M   'P 21 21 21'
_symmetry_Int_Tables_number      19
_space_group_name_Hall           'P 2ac 2ab'
loop_
_symmetry_equiv_pos_site_id
_symmetry_equiv_pos_as_xyz
1 x,y,z
2 1/2-x,-y,1/2+z
3 -x,1/2+y,1/2-z
4 1/2+x,1/2-y,-z
_cell_length_a                   7.5985(8)
_cell_length_b                   14.3869(16)
_cell_length_c                   17.7639(18)
_cell_angle_alpha                90
_cell_angle_beta                 90
_cell_angle_gamma                90
_cell_volume                     1941.93
_cell_formula_units_Z            4
loop_
_atom_site_label
_atom_site_type_symbol
_atom_site_fract_x
_atom_site_fract_y
_atom_site_fract_z
N1 N 0.6532(4) 0.42950(18) 0.87540(15)
N2 N 0.8406(4) 0.5326(2) 0.80930(16)
N3 N 0.9483(4) 0.35224(18) 0.94085(15)
H1 H 1.0402 0.3175 0.9435
N4 N 0.9926(4) 0.51027(17) 0.97370(15)
N5 N 0.9239(4) 0.59134(19) 1.07938(17)
O1 O 0.3642(3) 0.40943(17) 0.84566(14)
O2 O 0.7780(3) 0.24475(17) 0.99924(15)
O3 O 0.6377(3) 0.58403(15) 0.96242(12)
H2 H 0.7014 0.6299 0.9657
O4 O 1.0563(3) 0.73176(17) 1.05158(15)
C1 C 0.5028(5) 0.4497(2) 0.83299(19)
C2 C 0.8114(5) 0.4715(2) 0.8616(2)
C3 C 0.6946(6) 0.5616(3) 0.7681(2)
C4 C 0.5281(6) 0.5221(2) 0.77669(19)
C5 C 0.3877(6) 0.5534(3) 0.7329(2)
H3 H 0.2778 0.5256 0.7377
C6 C 0.4110(7) 0.6252(3) 0.6829(2)
H4 H 0.3174 0.6456 0.6535
C7 C 0.5760(7) 0.6675(3) 0.6764(2)
H5 H 0.5906 0.7178 0.6441
C8 C 0.7159(7) 0.6355(3) 0.7170(2)
H6 H 0.8260 0.6628 0.7109
C9 C 0.7922(5) 0.3179(2) 0.9637(2)
C10 C 0.6296(4) 0.3742(2) 0.94498(19)
H7 H 0.5354 0.3294 0.9347
C11 C 0.5673(4) 0.4339(2) 1.01225(18)
H8 H 0.4440 0.4487 1.0048
H9 H 0.5757 0.3965 1.0576
C12 C 0.6674(4) 0.5246(2) 1.02545(18)
C13 C 0.8701(5) 0.5093(2) 1.03612(19)
H10 H 0.8897 0.4533 1.0664
C14 C 0.9660(5) 0.4465(2) 0.9118(2)
H11 H 1.0723 0.4482 0.8806
C15 C 0.6254(5) 0.5753(2) 1.0985(2)
C16 C 0.7791(6) 0.6175(2) 1.12506(19)
C17 C 0.7758(6) 0.6753(3) 1.1875(2)
H12 H 0.8780 0.7031 1.2055
C18 C 0.6145(7) 0.6903(3) 1.2219(2)
H13 H 0.6087 0.7291 1.2637
C19 C 0.4634(7) 0.6492(3) 1.1958(2)
H14 H 0.3572 0.6607 1.2202
C20 C 0.4665(5) 0.5904(3) 1.1334(2)
H15 H 0.3642 0.5622 1.1159
C21 C 1.0133(5) 0.6530(2) 1.0332(2)
C22 C 1.0380(5) 0.6082(2) 0.9576(2)
H16 H 0.9516 0.6339 0.9224
C23 C 1.2206(5) 0.6194(3) 0.9248(2)
H17 H 1.3028 0.5831 0.9534
H18 H 1.2541 0.6837 0.9266
H19 H 1.2206 0.5986 0.8734
loop_
_geom_bond_atom_site_label_1
_geom_bond_atom_site_label_2
_geom_bond_site_symmetry_1
_geom_bond_site_symmetry_2
N1 C1 1_555 1_555
N2 C2 1_555 1_555
N3 H1 1_555 1_555
N4 C13 1_555 1_555
N5 C13 1_555 1_555
O1 C1 1_555 1_555
O2 C9 1_555 1_555
O3 H2 1_555 1_555
O4 C21 1_555 1_555
C1 C4 1_555 1_555
C2 N1 1_555 1_555
C3 N2 1_555 1_555
C4 C3 1_555 1_555
C5 C4 1_555 1_555
H3 C5 1_555 1_555
C6 C5 1_555 1_555
H4 C6 1_555 1_555
C7 C6 1_555 1_555
H5 C7 1_555 1_555
C8 C3 1_555 1_555
H6 C8 1_555 1_555
C9 N3 1_555 1_555
C10 N1 1_555 1_555
H7 C10 1_555 1_555
C11 C10 1_555 1_555
H8 C11 1_555 1_555
H9 C11 1_555 1_555
C12 O3 1_555 1_555
C13 C12 1_555 1_555
H10 C13 1_555 1_555
C14 N3 1_555 1_555
H11 C14 1_555 1_555
C15 C12 1_555 1_555
C16 N5 1_555 1_555
C17 C16 1_555 1_555
H12 C17 1_555 1_555
C18 C17 1_555 1_555
H13 C18 1_555 1_555
C19 C18 1_555 1_555
H14 C19 1_555 1_555
C20 C15 1_555 1_555
H15 C20 1_555 1_555
C21 N5 1_555 1_555
C22 N4 1_555 1_555
H16 C22 1_555 1_555
C23 C22 1_555 1_555
H17 C23 1_555 1_555
H18 C23 1_555 1_555
H19 C23 1_555 1_555
N4 C14 1_555 1_555
C2 C14 1_555 1_555
C7 C8 1_555 1_555
C9 C10 1_555 1_555
C11 C12 1_555 1_555
C15 C16 1_555 1_555
C19 C20 1_555 1_555
C21 C22 1_555 1_555

#END
