
#######################################################################
#
#                 Cambridge Crystallographic Data Centre
#                                CCDC 
#
#######################################################################
#
# If this CIF has been generated from an entry in the Cambridge 
# Structural Database, then it will include bibliographic, chemical, 
# crystal, experimental, refinement or atomic coordinate data resulting 
# from the CCDC's data processing and validation procedures.
#
#######################################################################

data_ATEJUF
_chemical_compound_source        
'coral-associated fungus Aspergillus versicolor LCJ-5-4'
_chemical_name_common            'Cottoquinazoline D'
_chemical_formula_moiety         'C24 H19 N5 O4'
_chemical_name_systematic        
12'-Hydroxy-2',5',15',23',25'-pentaazaspiro[cyclopropane-1,3'-heptacyclo[12.10.2.1^2,5^.0^6,11^.0^12,27^.0^15,24^.0^17,22^]heptacosane]-6',8',10',17',19',21',23'-heptaene-4',16',26'-trione
_symmetry_cell_setting           orthorhombic
_symmetry_space_group_name_H-M   'P 21 21 2'
_symmetry_Int_Tables_number      18
_space_group_name_Hall           'P 2 2ab'
loop_
_symmetry_equiv_pos_site_id
_symmetry_equiv_pos_as_xyz
1 x,y,z
2 -x,-y,z
3 1/2-x,1/2+y,-z
4 1/2+x,1/2-y,-z
_cell_length_a                   14.4532(14)
_cell_length_b                   18.7969(18)
_cell_length_c                   7.2401(6)
_cell_angle_alpha                90
_cell_angle_beta                 90
_cell_angle_gamma                90
_cell_volume                     1966.96
_cell_formula_units_Z            4
loop_
_atom_site_label
_atom_site_type_symbol
_atom_site_fract_x
_atom_site_fract_y
_atom_site_fract_z
N1 N 1.2145(2) 0.61418(17) 0.4690(5)
N2 N 1.3186(2) 0.55152(17) 0.6593(5)
N3 N 1.1390(2) 0.66535(18) 0.7896(5)
H1 H 1.1069 0.6605 0.8888
N4 N 1.2875(2) 0.71702(17) 0.8088(5)
N5 N 1.3399(2) 0.82676(18) 0.7284(5)
O1 O 1.19173(19) 0.58771(16) 0.1666(4)
O2 O 1.02264(17) 0.71674(15) 0.6299(4)
O3 O 1.35184(18) 0.71446(13) 0.4319(4)
H2 H 1.4022 0.7346 0.4333
O4 O 1.48470(19) 0.82318(16) 0.8621(4)
C1 C 1.2326(3) 0.5748(2) 0.3096(7)
C2 C 1.2606(2) 0.6015(2) 0.6314(6)
C3 C 1.3405(3) 0.5087(2) 0.5093(6)
C4 C 1.3024(3) 0.5206(2) 0.3322(6)
C5 C 1.3311(3) 0.4791(2) 0.1838(7)
H3 H 1.3073 0.4876 0.0666
C6 C 1.3937(3) 0.4262(3) 0.2095(9)
H4 H 1.4123 0.3986 0.1097
C7 C 1.4305(3) 0.4131(3) 0.3846(10)
H5 H 1.4731 0.3766 0.4013
C8 C 1.4037(3) 0.4539(2) 0.5314(8)
H6 H 1.4282 0.4448 0.6477
C9 C 1.0979(3) 0.6868(2) 0.6337(7)
C10 C 1.1479(3) 0.6724(2) 0.4538(5)
H7 H 1.1008 0.6570 0.3649
C11 C 1.1926(2) 0.7397(2) 0.3732(6)
H8 H 1.2073 0.7308 0.2446
H9 H 1.1472 0.7778 0.3765
C12 C 1.2795(3) 0.7654(2) 0.4693(6)
C13 C 1.2686(3) 0.7740(2) 0.6812(6)
H10 H 1.2074 0.7939 0.7081
C14 C 1.2375(2) 0.6502(2) 0.7923(6)
H11 H 1.2497 0.6231 0.9055
C15 C 1.4107(3) 0.7952(2) 0.8240(7)
C16 C 1.3827(2) 0.7213(2) 0.8665(6)
C17 C 1.4568(2) 0.6658(2) 0.8433(7)
H12 H 1.4389 0.6203 0.7910
H13 H 1.5184 0.6817 0.8107
C18 C 1.4214(3) 0.6839(2) 1.0314(6)
H14 H 1.4618 0.7107 1.1127
H15 H 1.3823 0.6493 1.0930
C19 C 1.3120(3) 0.8389(2) 0.4183(7)
C20 C 1.3509(3) 0.8707(2) 0.5704(8)
C21 C 1.3940(3) 0.9356(3) 0.5618(9)
H16 H 1.4211 0.9565 0.6648
C22 C 1.3948(3) 0.9681(3) 0.3889(11)
H17 H 1.4229 1.0124 0.3772
C23 C 1.3562(4) 0.9382(3) 0.2366(10)
H18 H 1.3587 0.9619 0.1240
C24 C 1.3127(3) 0.8720(3) 0.2479(8)
H19 H 1.2853 0.8511 0.1451
loop_
_geom_bond_atom_site_label_1
_geom_bond_atom_site_label_2
_geom_bond_site_symmetry_1
_geom_bond_site_symmetry_2
N1 C1 1_555 1_555
N2 C2 1_555 1_555
N3 H1 1_555 1_555
N4 C13 1_555 1_555
N5 C13 1_555 1_555
O1 C1 1_555 1_555
O2 C9 1_555 1_555
O3 H2 1_555 1_555
O4 C15 1_555 1_555
C1 C4 1_555 1_555
C2 N1 1_555 1_555
C3 N2 1_555 1_555
C4 C3 1_555 1_555
C5 C4 1_555 1_555
H3 C5 1_555 1_555
C6 C5 1_555 1_555
H4 C6 1_555 1_555
C7 C6 1_555 1_555
H5 C7 1_555 1_555
C8 C3 1_555 1_555
H6 C8 1_555 1_555
C9 N3 1_555 1_555
C10 N1 1_555 1_555
H7 C10 1_555 1_555
C11 C10 1_555 1_555
H8 C11 1_555 1_555
H9 C11 1_555 1_555
C12 O3 1_555 1_555
C13 C12 1_555 1_555
H10 C13 1_555 1_555
C14 N3 1_555 1_555
H11 C14 1_555 1_555
C15 N5 1_555 1_555
C16 N4 1_555 1_555
C17 C16 1_555 1_555
H12 C17 1_555 1_555
H13 C17 1_555 1_555
C18 C16 1_555 1_555
H14 C18 1_555 1_555
H15 C18 1_555 1_555
C19 C12 1_555 1_555
C20 N5 1_555 1_555
C21 C20 1_555 1_555
H16 C21 1_555 1_555
C22 C21 1_555 1_555
H17 C22 1_555 1_555
C23 C22 1_555 1_555
H18 C23 1_555 1_555
C24 C19 1_555 1_555
H19 C24 1_555 1_555
N4 C14 1_555 1_555
C2 C14 1_555 1_555
C7 C8 1_555 1_555
C9 C10 1_555 1_555
C11 C12 1_555 1_555
C15 C16 1_555 1_555
C17 C18 1_555 1_555
C19 C20 1_555 1_555
C23 C24 1_555 1_555

#END
