
#######################################################################
#
#                 Cambridge Crystallographic Data Centre
#                                CCDC 
#
#######################################################################
#
# If this CIF has been generated from an entry in the Cambridge 
# Structural Database, then it will include bibliographic, chemical, 
# crystal, experimental, refinement or atomic coordinate data resulting 
# from the CCDC's data processing and validation procedures.
#
#######################################################################

data_ATEKOA
_chemical_formula_moiety         'C28 H29 N1 O7'
_chemical_name_systematic        
'Diethyl 9-benzyl-2-(2-ethoxy-2-oxoethyl)pyrano[2,3-b]indole-4,4(9H)-dicarboxylate'
_symmetry_cell_setting           monoclinic
_symmetry_space_group_name_H-M   'P 21/c'
_symmetry_Int_Tables_number      14
_space_group_name_Hall           '-P 2ybc'
loop_
_symmetry_equiv_pos_site_id
_symmetry_equiv_pos_as_xyz
1 x,y,z
2 -x,1/2+y,1/2-z
3 -x,-y,-z
4 x,1/2-y,1/2+z
_cell_length_a                   12.6480(13)
_cell_length_b                   18.681(2)
_cell_length_c                   11.3502(12)
_cell_angle_alpha                90
_cell_angle_beta                 103.573(2)
_cell_angle_gamma                90
_cell_volume                     2606.9
_exptl_crystal_colour            colorless
_exptl_crystal_description       prismatic
_cell_formula_units_Z            4
loop_
_atom_site_label
_atom_site_type_symbol
_atom_site_fract_x
_atom_site_fract_y
_atom_site_fract_z
N1 N 0.3743(2) -0.02489(13) 0.5246(2)
O1 O 0.29304(17) 0.08580(10) 0.54195(18)
O2 O 0.1260(2) 0.18852(16) 0.7316(3)
O3 O 0.06148(18) 0.12061(12) 0.5699(2)
O4 O 0.3858(2) 0.17780(13) 0.2364(2)
O5 O 0.3243(2) 0.09234(15) 0.1020(2)
O6 O 0.1085(2) 0.01163(13) 0.1768(2)
O7 O 0.09971(19) 0.12498(12) 0.1121(2)
C1 C 0.3922(3) -0.06820(16) 0.4333(3)
C2 C 0.4436(3) -0.13479(18) 0.4410(4)
H1 H 0.4726 -0.1564 0.5154
C3 C 0.4495(3) -0.16707(19) 0.3334(5)
H2 H 0.4854 -0.2107 0.3359
C4 C 0.4040(3) -0.1367(2) 0.2223(4)
H3 H 0.4069 -0.1614 0.1519
C5 C 0.3537(3) -0.06980(18) 0.2133(3)
H4 H 0.3249 -0.0492 0.1380
C6 C 0.3478(3) -0.03454(16) 0.3201(3)
C7 C 0.3036(2) 0.03291(15) 0.3478(3)
C8 C 0.3218(2) 0.03496(15) 0.4717(3)
C9 C 0.2491(2) 0.09535(16) 0.2735(3)
C10 C 0.2193(2) 0.15032(15) 0.3576(3)
H5 H 0.1846 0.1917 0.3228
C11 C 0.2387(2) 0.14431(15) 0.4771(3)
C12 C 0.2096(3) 0.19651(17) 0.5640(3)
H6 H 0.1793 0.2390 0.5195
H7 H 0.2755 0.2107 0.6219
C13 C 0.1300(3) 0.16900(17) 0.6322(3)
C14 C -0.0213(3) 0.09138(19) 0.6270(4)
H8 H 0.0106 0.0830 0.7122
H9 H -0.0462 0.0458 0.5899
C15 C -0.1155(3) 0.1404(2) 0.6147(4)
H10 H -0.0915 0.1851 0.6537
H11 H -0.1686 0.1192 0.6521
H12 H -0.1474 0.1486 0.5304
C16 C 0.3273(3) 0.12802(18) 0.2032(3)
C17 C 0.3931(4) 0.1173(3) 0.0241(4)
H13 H 0.3927 0.1692 0.0212
H14 H 0.4673 0.1014 0.0560
C18 C 0.3553(6) 0.0908(5) -0.0869(6)
H15 H 0.3826 0.0432 -0.0907
H16 H 0.3789 0.1206 -0.1448
H17 H 0.2773 0.0898 -0.1050
C19 C 0.1456(3) 0.07096(18) 0.1812(3)
C20 C 0.0050(3) 0.1061(2) 0.0147(3)
H18 H 0.0272 0.0752 -0.0439
H19 H -0.0483 0.0808 0.0479
C21 C -0.0423(4) 0.1724(2) -0.0443(4)
H20 H -0.0644 0.2025 0.0141
H21 H -0.1043 0.1611 -0.1084
H22 H 0.0109 0.1970 -0.0773
C22 C 0.3970(3) -0.04111(18) 0.6546(3)
H23 H 0.4078 0.0033 0.7000
H24 H 0.4638 -0.0686 0.6772
C23 C 0.3062(3) -0.08281(17) 0.6882(3)
C24 C 0.3190(3) -0.15459(19) 0.7190(4)
H25 H 0.3851 -0.1770 0.7215
C25 C 0.2347(4) -0.1931(2) 0.7458(4)
H26 H 0.2452 -0.2410 0.7674
C26 C 0.1360(4) -0.1622(2) 0.7413(4)
H27 H 0.0796 -0.1889 0.7592
C27 C 0.1210(3) -0.0910(2) 0.7100(4)
H28 H 0.0542 -0.0693 0.7061
C28 C 0.2060(3) -0.0521(2) 0.6845(3)
H29 H 0.1955 -0.0039 0.6643
loop_
_geom_bond_atom_site_label_1
_geom_bond_atom_site_label_2
_geom_bond_site_symmetry_1
_geom_bond_site_symmetry_2
N1 C1 1_555 1_555
O1 C8 1_555 1_555
O2 C13 1_555 1_555
O3 C13 1_555 1_555
O4 C16 1_555 1_555
O5 C16 1_555 1_555
O6 C19 1_555 1_555
O7 C19 1_555 1_555
C1 C2 1_555 1_555
C2 H1 1_555 1_555
C3 C2 1_555 1_555
H2 C3 1_555 1_555
C4 C3 1_555 1_555
H3 C4 1_555 1_555
C5 C4 1_555 1_555
H4 C5 1_555 1_555
C6 C1 1_555 1_555
C7 C6 1_555 1_555
C8 N1 1_555 1_555
C9 C7 1_555 1_555
C10 C9 1_555 1_555
H5 C10 1_555 1_555
C11 O1 1_555 1_555
C12 C11 1_555 1_555
H6 C12 1_555 1_555
H7 C12 1_555 1_555
C13 C12 1_555 1_555
C14 O3 1_555 1_555
H8 C14 1_555 1_555
H9 C14 1_555 1_555
C15 C14 1_555 1_555
H10 C15 1_555 1_555
H11 C15 1_555 1_555
H12 C15 1_555 1_555
C16 C9 1_555 1_555
C17 O5 1_555 1_555
H13 C17 1_555 1_555
H14 C17 1_555 1_555
C18 C17 1_555 1_555
H15 C18 1_555 1_555
H16 C18 1_555 1_555
H17 C18 1_555 1_555
C19 C9 1_555 1_555
C20 O7 1_555 1_555
H18 C20 1_555 1_555
H19 C20 1_555 1_555
C21 C20 1_555 1_555
H20 C21 1_555 1_555
H21 C21 1_555 1_555
H22 C21 1_555 1_555
C22 N1 1_555 1_555
H23 C22 1_555 1_555
H24 C22 1_555 1_555
C23 C22 1_555 1_555
C24 C23 1_555 1_555
H25 C24 1_555 1_555
C25 C24 1_555 1_555
H26 C25 1_555 1_555
C26 C25 1_555 1_555
H27 C26 1_555 1_555
C27 C26 1_555 1_555
H28 C27 1_555 1_555
C28 C23 1_555 1_555
H29 C28 1_555 1_555
C5 C6 1_555 1_555
C7 C8 1_555 1_555
C10 C11 1_555 1_555
C27 C28 1_555 1_555

#END
