
#######################################################################
#
#                 Cambridge Crystallographic Data Centre
#                                CCDC 
#
#######################################################################
#
# If this CIF has been generated from an entry in the Cambridge 
# Structural Database, then it will include bibliographic, chemical, 
# crystal, experimental, refinement or atomic coordinate data resulting 
# from the CCDC's data processing and validation procedures.
#
#######################################################################

data_ATEKEQ
_chemical_formula_moiety         'C28 H29 N1 O7'
_chemical_name_systematic        
"Triethyl 1'-benzyl-2'-oxo-1',2'-dihydro-2H-spiro[cyclopent-4-ene-1,3'-indole]-2,2,5-tricarboxylate"
_symmetry_cell_setting           triclinic
_symmetry_space_group_name_H-M   'P -1'
_symmetry_Int_Tables_number      2
_space_group_name_Hall           '-P 1'
loop_
_symmetry_equiv_pos_site_id
_symmetry_equiv_pos_as_xyz
1 x,y,z
2 -x,-y,-z
_cell_length_a                   8.9387(15)
_cell_length_b                   9.9381(16)
_cell_length_c                   14.389(2)
_cell_angle_alpha                92.115(3)
_cell_angle_beta                 99.658(3)
_cell_angle_gamma                95.354(3)
_cell_volume                     1252.81
_exptl_crystal_colour            colorless
_exptl_crystal_description       prismatic
_cell_formula_units_Z            2
loop_
_atom_site_label
_atom_site_type_symbol
_atom_site_fract_x
_atom_site_fract_y
_atom_site_fract_z
N1 N 0.3470(2) 0.1219(2) 0.39120(14)
O1 O 0.4122(2) 0.2178(2) 0.25910(14)
O2 O 0.5208(2) -0.0666(2) 0.28674(14)
O3 O 0.5185(2) -0.1303(3) 0.13702(14)
O4 O 0.0804(2) -0.2309(2) 0.10478(15)
O5 O 0.2676(2) -0.2965(2) 0.21123(15)
O6 O -0.0003(3) 0.2105(2) 0.29141(14)
O7 O -0.1313(2) 0.1817(3) 0.14594(14)
C1 C 0.3390(3) 0.1339(3) 0.29696(17)
C2 C 0.2445(3) 0.0157(3) 0.41044(17)
C3 C 0.2185(3) -0.0260(3) 0.49726(18)
H1 H 0.2742 0.0153 0.5531
C4 C 0.1070(4) -0.1313(3) 0.4983(2)
H2 H 0.0884 -0.1621 0.5559
C5 C 0.0226(4) -0.1919(3) 0.4162(2)
H3 H -0.0534 -0.2615 0.4190
C6 C 0.0503(3) -0.1494(3) 0.3293(2)
H4 H -0.0068 -0.1901 0.2737
C7 C 0.1630(3) -0.0469(2) 0.32646(17)
C8 C 0.2183(3) 0.0221(2) 0.24522(16)
C9 C 0.1003(3) 0.0882(2) 0.17695(16)
C10 C 0.1276(3) 0.0820(3) 0.08991(17)
H5 H 0.0701 0.1207 0.0398
C11 C 0.2606(3) 0.0062(3) 0.08040(17)
H6 H 0.3486 0.0674 0.0733
H7 H 0.2368 -0.0585 0.0266
C12 C 0.2897(3) -0.0661(2) 0.17338(16)
C13 C 0.4557(3) -0.0853(3) 0.20797(18)
C14 C 0.6741(4) -0.1674(5) 0.1591(3)
H8 H 0.7446 -0.0961 0.1420
H9 H 0.7008 -0.1784 0.2264
C15 C 0.6856(5) -0.2923(5) 0.1076(4)
H10 H 0.6237 -0.3645 0.1295
H11 H 0.7899 -0.3123 0.1174
H12 H 0.6508 -0.2833 0.0415
C16 C 0.1990(3) -0.2061(3) 0.15739(18)
C17 C 0.1902(5) -0.4331(3) 0.2068(3)
H13 H 0.2199 -0.4743 0.2663
H14 H 0.0808 -0.4284 0.1974
C18 C 0.2276(7) -0.5166(4) 0.1305(4)
H15 H 0.1758 -0.4898 0.0711
H16 H 0.1959 -0.6099 0.1383
H17 H 0.3357 -0.5053 0.1316
C19 C -0.0133(3) 0.1655(3) 0.21225(18)
C20 C -0.2476(5) 0.2598(6) 0.1746(3)
H18 H -0.3041 0.2071 0.2151
H19 H -0.1991 0.3416 0.2104
C21 C -0.3478(6) 0.2942(6) 0.0957(3)
H20 H -0.2941 0.3555 0.0597
H21 H -0.4298 0.3369 0.1160
H22 H -0.3884 0.2139 0.0572
C22 C 0.4505(3) 0.2079(3) 0.46239(19)
H23 H 0.5341 0.2480 0.4341
H24 H 0.4932 0.1523 0.5122
C23 C 0.3763(3) 0.3199(3) 0.50560(18)
C24 C 0.4278(4) 0.3652(3) 0.5973(2)
H25 H 0.5049 0.3242 0.6339
C25 C 0.3653(5) 0.4722(4) 0.6358(2)
H26 H 0.4001 0.5021 0.6984
C26 C 0.2534(4) 0.5338(3) 0.5828(3)
H27 H 0.2129 0.6064 0.6087
C27 C 0.2017(4) 0.4894(3) 0.4928(2)
H28 H 0.1241 0.5306 0.4567
C28 C 0.2630(3) 0.3830(3) 0.4534(2)
H29 H 0.2270 0.3537 0.3908
loop_
_geom_bond_atom_site_label_1
_geom_bond_atom_site_label_2
_geom_bond_site_symmetry_1
_geom_bond_site_symmetry_2
N1 C1 1_555 1_555
O1 C1 1_555 1_555
O2 C13 1_555 1_555
O3 C13 1_555 1_555
O4 C16 1_555 1_555
O5 C16 1_555 1_555
O6 C19 1_555 1_555
O7 C19 1_555 1_555
C1 C8 1_555 1_555
C2 N1 1_555 1_555
C3 C2 1_555 1_555
H1 C3 1_555 1_555
C4 C3 1_555 1_555
H2 C4 1_555 1_555
C5 C4 1_555 1_555
H3 C5 1_555 1_555
C6 C5 1_555 1_555
H4 C6 1_555 1_555
C7 C2 1_555 1_555
C8 C7 1_555 1_555
C9 C8 1_555 1_555
C10 C9 1_555 1_555
H5 C10 1_555 1_555
C11 C10 1_555 1_555
H6 C11 1_555 1_555
H7 C11 1_555 1_555
C12 C8 1_555 1_555
C13 C12 1_555 1_555
C14 O3 1_555 1_555
H8 C14 1_555 1_555
H9 C14 1_555 1_555
C15 C14 1_555 1_555
H10 C15 1_555 1_555
H11 C15 1_555 1_555
H12 C15 1_555 1_555
C16 C12 1_555 1_555
C17 O5 1_555 1_555
H13 C17 1_555 1_555
H14 C17 1_555 1_555
C18 C17 1_555 1_555
H15 C18 1_555 1_555
H16 C18 1_555 1_555
H17 C18 1_555 1_555
C19 C9 1_555 1_555
C20 O7 1_555 1_555
H18 C20 1_555 1_555
H19 C20 1_555 1_555
C21 C20 1_555 1_555
H20 C21 1_555 1_555
H21 C21 1_555 1_555
H22 C21 1_555 1_555
C22 N1 1_555 1_555
H23 C22 1_555 1_555
H24 C22 1_555 1_555
C23 C22 1_555 1_555
C24 C23 1_555 1_555
H25 C24 1_555 1_555
C25 C24 1_555 1_555
H26 C25 1_555 1_555
C26 C25 1_555 1_555
H27 C26 1_555 1_555
C27 C26 1_555 1_555
H28 C27 1_555 1_555
C28 C23 1_555 1_555
H29 C28 1_555 1_555
C6 C7 1_555 1_555
C11 C12 1_555 1_555
C27 C28 1_555 1_555

#END
