
#######################################################################
#
#                 Cambridge Crystallographic Data Centre
#                                CCDC 
#
#######################################################################
#
# If this CIF has been generated from an entry in the Cambridge 
# Structural Database, then it will include bibliographic, chemical, 
# crystal, experimental, refinement or atomic coordinate data resulting 
# from the CCDC's data processing and validation procedures.
#
#######################################################################

data_ATEKIU
_chemical_formula_moiety         'C28 H29 N1 O7'
_chemical_name_systematic        
'Diethyl 9-benzyl-2-(2-ethoxy-2-oxoethylidene)-2,3-dihydropyrano(2,3-b)indole-4,4(9H)-dicarboxylate'
_symmetry_cell_setting           triclinic
_symmetry_space_group_name_H-M   'P -1'
_symmetry_Int_Tables_number      2
_space_group_name_Hall           '-P 1'
loop_
_symmetry_equiv_pos_site_id
_symmetry_equiv_pos_as_xyz
1 x,y,z
2 -x,-y,-z
_cell_length_a                   8.912(3)
_cell_length_b                   11.563(4)
_cell_length_c                   14.488(5)
_cell_angle_alpha                111.421(5)
_cell_angle_beta                 93.474(6)
_cell_angle_gamma                109.002(6)
_cell_volume                     1286.49
_exptl_crystal_colour            colorless
_exptl_crystal_description       prismatic
_cell_formula_units_Z            2
loop_
_atom_site_label
_atom_site_type_symbol
_atom_site_fract_x
_atom_site_fract_y
_atom_site_fract_z
N1 N 0.5874(2) -0.08860(16) 0.07824(12)
O1 O 0.42116(17) -0.14193(12) 0.18756(10)
O2 O 0.21731(19) -0.06034(18) 0.45859(12)
O3 O 0.00508(18) -0.23690(17) 0.35006(12)
O4 O 0.4487(3) 0.2945(2) 0.27623(19)
O5 O 0.27803(19) 0.12982(16) 0.30556(13)
O6 O 0.8347(2) 0.2872(2) 0.39766(14)
O7 O 0.6401(3) 0.3316(2) 0.47524(15)
C1 C 0.6953(2) 0.0264(2) 0.07400(15)
C2 C 0.7855(3) 0.0389(3) 0.00124(19)
H1 H 0.7775 -0.0357 -0.0559
C3 C 0.8876(3) 0.1660(3) 0.0164(2)
H2 H 0.9500 0.1774 -0.0311
C4 C 0.8984(3) 0.2770(3) 0.1016(2)
H3 H 0.9680 0.3615 0.1098
C5 C 0.8091(3) 0.2657(2) 0.17407(18)
H4 H 0.8179 0.3413 0.2306
C6 C 0.7045(2) 0.13810(19) 0.16133(15)
C7 C 0.5991(2) 0.08685(18) 0.22021(14)
C8 C 0.5331(2) -0.04790(18) 0.16631(14)
C9 C 0.5513(2) 0.14790(18) 0.31871(14)
C10 C 0.4900(2) 0.03665(19) 0.35879(14)
H5 H 0.5825 0.0232 0.3853
H6 H 0.4367 0.0667 0.4142
C11 C 0.3745(2) -0.09436(18) 0.27956(14)
C12 C 0.2338(2) -0.17472(19) 0.28592(15)
H7 H 0.1789 -0.2547 0.2297
C13 C 0.1578(2) -0.1476(2) 0.37463(16)
C14 C -0.0892(3) -0.2225(3) 0.4294(2)
H8 H -0.0398 -0.2353 0.4845
H9 H -0.0919 -0.1332 0.4559
C15 C -0.2528(5) -0.3217(6) 0.3870(3)
H10 H -0.3062 -0.3009 0.3391
H11 H -0.3118 -0.3210 0.4403
H12 H -0.2485 -0.4088 0.3534
C16 C 0.4218(3) 0.20148(19) 0.29891(15)
C17 C 0.1375(3) 0.1600(3) 0.2818(2)
H13 H 0.1380 0.1741 0.2198
H14 H 0.1386 0.2402 0.3362
C18 C -0.0071(3) 0.0432(3) 0.2697(3)
H15 H -0.0109 -0.0339 0.2124
H16 H -0.1029 0.0615 0.2593
H17 H -0.0014 0.0261 0.3296
C19 C 0.6947(3) 0.2636(2) 0.39991(16)
C20 C 0.7901(7) 0.4261(5) 0.5643(5)
H18 H 0.8604 0.3797 0.5712
H19 H 0.8522 0.5049 0.5540
C21 C 0.7172(13) 0.4621(11) 0.6530(8)
H20 H 0.6348 0.4938 0.6398
H21 H 0.7992 0.5313 0.7102
H22 H 0.6698 0.3848 0.6674
C23 C 0.5290(2) -0.2237(2) -0.00138(15)
H25 H 0.5271 -0.2174 -0.0664
H26 H 0.4183 -0.2706 0.0013
C24 C 0.6273(2) -0.30619(19) 0.00404(14)
C25 C 0.7096(3) -0.2914(2) 0.09429(17)
H27 H 0.7113 -0.2243 0.1548
C26 C 0.7897(3) -0.3761(3) 0.0951(2)
H28 H 0.8453 -0.3648 0.1561
C27 C 0.7872(3) -0.4760(3) 0.0067(3)
H29 H 0.8407 -0.5327 0.0075
C28 C 0.7052(3) -0.4917(2) -0.0827(2)
H30 H 0.7022 -0.5599 -0.1429
C29 C 0.6271(3) -0.4072(2) -0.08415(17)
H31 H 0.5732 -0.4183 -0.1457
C22? C 0.7250(8) 0.4724(5) 0.5494(4)
H23? H 0.8169 0.5201 0.5275
H24? H 0.6527 0.5209 0.5638
C30? C 0.774(2) 0.447(2) 0.6337(15)
H32? H 0.6813 0.3896 0.6474
H33? H 0.8242 0.5298 0.6923
H34? H 0.8507 0.4034 0.6179
loop_
_geom_bond_atom_site_label_1
_geom_bond_atom_site_label_2
_geom_bond_site_symmetry_1
_geom_bond_site_symmetry_2
N1 C1 1_555 1_555
O1 C8 1_555 1_555
O2 C13 1_555 1_555
O3 C13 1_555 1_555
O4 C16 1_555 1_555
O5 C16 1_555 1_555
O6 C19 1_555 1_555
O7 C19 1_555 1_555
C1 C2 1_555 1_555
C2 H1 1_555 1_555
C3 C2 1_555 1_555
H2 C3 1_555 1_555
C4 C3 1_555 1_555
H3 C4 1_555 1_555
C5 C4 1_555 1_555
H4 C5 1_555 1_555
C6 C1 1_555 1_555
C7 C6 1_555 1_555
C8 N1 1_555 1_555
C9 C7 1_555 1_555
C10 C9 1_555 1_555
H5 C10 1_555 1_555
H6 C10 1_555 1_555
C11 O1 1_555 1_555
C12 C11 1_555 1_555
H7 C12 1_555 1_555
C13 C12 1_555 1_555
C14 O3 1_555 1_555
H8 C14 1_555 1_555
H9 C14 1_555 1_555
C15 C14 1_555 1_555
H10 C15 1_555 1_555
H11 C15 1_555 1_555
H12 C15 1_555 1_555
C16 C9 1_555 1_555
C17 O5 1_555 1_555
H13 C17 1_555 1_555
H14 C17 1_555 1_555
C18 C17 1_555 1_555
H15 C18 1_555 1_555
H16 C18 1_555 1_555
H17 C18 1_555 1_555
C19 C9 1_555 1_555
C20 O7 1_555 1_555
H18 C20 1_555 1_555
H19 C20 1_555 1_555
C21 C20 1_555 1_555
H20 C21 1_555 1_555
H21 C21 1_555 1_555
H22 C21 1_555 1_555
C23 N1 1_555 1_555
H25 C23 1_555 1_555
H26 C23 1_555 1_555
C24 C23 1_555 1_555
C25 C24 1_555 1_555
H27 C25 1_555 1_555
C26 C25 1_555 1_555
H28 C26 1_555 1_555
C27 C26 1_555 1_555
H29 C27 1_555 1_555
C28 C27 1_555 1_555
H30 C28 1_555 1_555
C29 C24 1_555 1_555
H31 C29 1_555 1_555
C5 C6 1_555 1_555
C7 C8 1_555 1_555
C10 C11 1_555 1_555
C28 C29 1_555 1_555

#END
