
#######################################################################
#
#                 Cambridge Crystallographic Data Centre
#                                CCDC 
#
#######################################################################
#
# If this CIF has been generated from an entry in the Cambridge 
# Structural Database, then it will include bibliographic, chemical, 
# crystal, experimental, refinement or atomic coordinate data resulting 
# from the CCDC's data processing and validation procedures.
#
#######################################################################

data_ATELUH
_chemical_formula_moiety         'C20 H20 O5'
_chemical_name_systematic        
1,1'-(5-(4-Methoxyphenyl)-2-phenyl-1,3-dioxolane-4,4-diyl)diethanone
_symmetry_cell_setting           monoclinic
_symmetry_space_group_name_H-M   'P 21/c'
_symmetry_Int_Tables_number      14
_space_group_name_Hall           '-P 2ybc'
loop_
_symmetry_equiv_pos_site_id
_symmetry_equiv_pos_as_xyz
1 x,y,z
2 -x,1/2+y,1/2-z
3 -x,-y,-z
4 x,1/2-y,1/2+z
_cell_length_a                   10.333(2)
_cell_length_b                   8.0719(16)
_cell_length_c                   21.608(4)
_cell_angle_alpha                90
_cell_angle_beta                 100.077(5)
_cell_angle_gamma                90
_cell_volume                     1774.45
_exptl_crystal_colour            colorless
_exptl_crystal_description       block
_cell_formula_units_Z            4
loop_
_atom_site_label
_atom_site_type_symbol
_atom_site_fract_x
_atom_site_fract_y
_atom_site_fract_z
O1 O 0.22572(13) 0.29987(15) 0.42061(6)
O2 O 0.13229(13) 0.08951(15) 0.46574(6)
O3 O 0.42225(14) 0.46032(18) 0.55368(6)
O4 O 0.13614(15) 0.56740(17) 0.53664(7)
O5 O 0.41164(15) -0.0801(2) 0.74301(6)
C1 C 0.34752(19) -0.0010(3) 0.68983(9)
C2 C 0.3098(2) 0.1651(3) 0.68718(9)
H1 H 0.3272 0.2322 0.7238
C3 C 0.24629(19) 0.2321(2) 0.63019(9)
H2 H 0.2204 0.3452 0.6286
C4 C 0.22014(18) 0.1366(2) 0.57578(8)
C5 C 0.25684(19) -0.0312(2) 0.57967(9)
H3 H 0.2385 -0.0989 0.5432
C6 C 0.3194(2) -0.0996(3) 0.63589(9)
H4 H 0.3431 -0.2134 0.6378
C7 C 0.13839(19) 0.0672(2) 0.35496(8)
C8 C 0.0281(2) -0.0127(3) 0.32217(9)
H5 H -0.0558 0.0078 0.3329
C9 C 0.0397(2) -0.1224(3) 0.27369(11)
H6 H -0.0359 -0.1773 0.2517
C10 C 0.1617(2) -0.1512(3) 0.25770(11)
H7 H 0.1696 -0.2246 0.2242
C11 C 0.2727(2) -0.0729(3) 0.29047(12)
H8 H 0.3564 -0.0943 0.2798
C12 C 0.2614(2) 0.0367(3) 0.33891(10)
H9 H 0.3373 0.0907 0.3611
C13 C 0.15334(18) 0.2121(2) 0.51428(8)
H10 H 0.0665 0.2587 0.5199
C14 C 0.23367(18) 0.3512(2) 0.48468(8)
C15 C 0.12145(18) 0.1793(2) 0.40849(8)
H11 H 0.0344 0.2365 0.3991
C16 C 0.38018(19) 0.3527(2) 0.51633(9)
C17 C 0.4641(2) 0.2133(3) 0.49931(12)
H12 H 0.5543 0.2268 0.5220
H13 H 0.4639 0.2151 0.4539
H14 H 0.4288 0.1074 0.5109
C18 C 0.17492(19) 0.5259(2) 0.48902(9)
C19 C 0.1701(2) 0.6365(3) 0.43291(10)
H15 H 0.1311 0.7432 0.4411
H16 H 0.1166 0.5843 0.3962
H17 H 0.2594 0.6544 0.4248
C20 C 0.4206(3) 0.0063(4) 0.80145(10)
H18 H 0.4680 -0.0622 0.8355
H19 H 0.3320 0.0295 0.8096
H20 H 0.4679 0.1108 0.7993
loop_
_geom_bond_atom_site_label_1
_geom_bond_atom_site_label_2
_geom_bond_site_symmetry_1
_geom_bond_site_symmetry_2
O1 C14 1_555 1_555
O2 C13 1_555 1_555
O3 C16 1_555 1_555
O4 C18 1_555 1_555
O5 C1 1_555 1_555
C1 C2 1_555 1_555
C2 H1 1_555 1_555
C3 C2 1_555 1_555
H2 C3 1_555 1_555
C4 C3 1_555 1_555
C5 C4 1_555 1_555
H3 C5 1_555 1_555
C6 C1 1_555 1_555
H4 C6 1_555 1_555
C7 C8 1_555 1_555
C8 H5 1_555 1_555
C9 C8 1_555 1_555
H6 C9 1_555 1_555
C10 C9 1_555 1_555
H7 C10 1_555 1_555
C11 C10 1_555 1_555
H8 C11 1_555 1_555
C12 C7 1_555 1_555
H9 C12 1_555 1_555
C13 C4 1_555 1_555
H10 C13 1_555 1_555
C14 C13 1_555 1_555
C15 O1 1_555 1_555
H11 C15 1_555 1_555
C16 C14 1_555 1_555
C17 C16 1_555 1_555
H12 C17 1_555 1_555
H13 C17 1_555 1_555
H14 C17 1_555 1_555
C18 C14 1_555 1_555
C19 C18 1_555 1_555
H15 C19 1_555 1_555
H16 C19 1_555 1_555
H17 C19 1_555 1_555
C20 O5 1_555 1_555
H18 C20 1_555 1_555
H19 C20 1_555 1_555
H20 C20 1_555 1_555
O2 C15 1_555 1_555
C5 C6 1_555 1_555
C7 C15 1_555 1_555
C11 C12 1_555 1_555

#END
