
#######################################################################
#
#                 Cambridge Crystallographic Data Centre
#                                CCDC 
#
#######################################################################
#
# If this CIF has been generated from an entry in the Cambridge 
# Structural Database, then it will include bibliographic, chemical, 
# crystal, experimental, refinement or atomic coordinate data resulting 
# from the CCDC's data processing and validation procedures.
#
#######################################################################

data_ATEVIG
_chemical_formula_moiety         'C38 H43 N5,0.2(C1 H1 Cl3)'
_chemical_name_systematic        
'4-(13,17-diethyl-2,3,7,8,12,18-hexamethylporphyrin-5-yl)-N,N-dimethylaniline chloroform solvate'
_symmetry_cell_setting           triclinic
_symmetry_space_group_name_H-M   'P -1'
_symmetry_Int_Tables_number      2
_space_group_name_Hall           '-P 1'
loop_
_symmetry_equiv_pos_site_id
_symmetry_equiv_pos_as_xyz
1 x,y,z
2 -x,-y,-z
_cell_length_a                   12.6073(2)
_cell_length_b                   13.0945(3)
_cell_length_c                   13.3701(4)
_cell_angle_alpha                117.6320(9)
_cell_angle_beta                 110.8330(6)
_cell_angle_gamma                90.3060(6)
_cell_volume                     1788.56
_exptl_crystal_colour            blue
_exptl_crystal_description       block
_cell_formula_units_Z            2
loop_
_atom_site_label
_atom_site_type_symbol
_atom_site_fract_x
_atom_site_fract_y
_atom_site_fract_z
C1 C 1.1241(3) 0.6159(4) 0.1892(4)
C2 C 1.1037(3) 0.5233(4) 0.2087(4)
C3 C 1.1527(4) 0.4169(4) 0.1758(5)
C4 C 1.1048(4) 0.3503(4) 0.2083(5)
C5 C 1.0290(4) 0.4126(4) 0.2617(4)
C6 C 0.9655(4) 0.3719(4) 0.3078(4)
H1 H 0.9773 0.3001 0.3033
C7 C 0.8883(4) 0.4212(4) 0.3590(4)
C8 C 0.8260(4) 0.3693(4) 0.4020(4)
C9 C 0.7570(4) 0.4428(4) 0.4425(4)
C10 C 0.7760(4) 0.5416(4) 0.4259(4)
C11 C 0.7256(4) 0.6378(4) 0.4552(5)
H2 H 0.6704 0.6392 0.4867
C12 C 0.7495(4) 0.7341(4) 0.4421(4)
C13 C 0.6966(5) 0.8379(5) 0.4747(6)
C14 C 0.7460(5) 0.9087(4) 0.4477(5)
C15 C 0.8268(4) 0.8480(4) 0.3966(4)
C16 C 0.8883(4) 0.8894(4) 0.3502(5)
H3 H 0.8800 0.9632 0.3588
C17 C 0.9609(4) 0.8348(4) 0.2923(5)
C18 C 1.0120(4) 0.8825(4) 0.2368(5)
C19 C 1.0759(4) 0.8076(4) 0.1890(4)
C20 C 1.0678(3) 0.7124(4) 0.2149(4)
C21 C 1.2362(5) 0.3810(6) 0.1150(6)
H4 H 1.2526 0.3067 0.1069
H5 H 1.3068 0.4396 0.1644
H6 H 1.2026 0.3738 0.0347
C22 C 1.1232(6) 0.2300(5) 0.1902(6)
H7 H 1.1787 0.2065 0.1541
H8 H 1.0510 0.1740 0.1365
H9 H 1.1517 0.2331 0.2686
C23 C 0.8411(5) 0.2591(5) 0.4056(6)
H10 H 0.7909 0.2435 0.4388
H11 H 0.9202 0.2670 0.4568
H12 H 0.8220 0.1950 0.3235
C24 C 0.6713(5) 0.4263(5) 0.4901(5)
H13 H 0.6980 0.3800 0.5301
H14 H 0.6687 0.5028 0.5522
C25 C 0.5531(6) 0.3678(7) 0.3947(7)
H15 H 0.5033 0.3596 0.4318
H16 H 0.5543 0.2914 0.3334
H17 H 0.5245 0.4144 0.3565
C26 C 0.5950(7) 0.8530(6) 0.5174(7)
H18 H 0.5414 0.8909 0.4804
H19 H 0.5532 0.7764 0.4909
C27 C 0.6397(8) 0.9216(11) 0.6459(9)
H20 H 0.5773 0.9319 0.6726
H21 H 0.6811 0.9971 0.6716
H22 H 0.6915 0.8829 0.6820
C28 C 0.7229(6) 1.0263(5) 0.4626(7)
H23 H 0.6666 1.0480 0.4978
H24 H 0.6936 1.0214 0.3833
H25 H 0.7936 1.0846 0.5160
C29 C 0.9931(6) 0.9950(5) 0.2368(7)
H26 H 1.0358 1.0098 0.1964
H27 H 1.0195 1.0587 0.3203
H28 H 0.9120 0.9889 0.1937
C30 C 1.1364(5) 0.8180(5) 0.1148(6)
H29 H 1.1287 0.8901 0.1132
H30 H 1.1023 0.7525 0.0321
H31 H 1.2171 0.8179 0.1517
C31 C 1.2137(4) 0.6186(4) 0.1406(4)
C32 C 1.3257(4) 0.6808(5) 0.2225(4)
H32 H 1.3437 0.7194 0.3068
C33 C 1.4112(4) 0.6874(5) 0.1828(5)
H33 H 1.4864 0.7269 0.2401
C34 C 1.3850(4) 0.6347(5) 0.0559(5)
C35 C 1.2723(4) 0.5729(5) -0.0245(5)
H34 H 1.2521 0.5357 -0.1091
C36 C 1.1914(4) 0.5654(4) 0.0172(4)
H35 H 1.1171 0.5223 -0.0401
C37 C 1.4410(6) 0.5920(7) -0.1167(6)
H36 H 1.3603 0.5549 -0.1627
H37 H 1.4872 0.5338 -0.1383
H38 H 1.4575 0.6509 -0.1357
C38 C 1.5853(5) 0.7062(7) 0.1002(6)
H39 H 1.6199 0.6617 0.1392
H40 H 1.5858 0.7832 0.1619
H41 H 1.6288 0.7133 0.0568
N1 N 1.0301(3) 0.5167(3) 0.2606(3)
H42 H 0.9911 0.5688 0.2878
N2 N 0.8560(3) 0.5258(3) 0.3745(3)
N3 N 0.8268(3) 0.7449(3) 0.3965(4)
H43 H 0.8684 0.6949 0.3718
N4 N 0.9945(3) 0.7324(3) 0.2765(3)
N5 N 1.4687(4) 0.6470(5) 0.0152(4)
C39 C 0.672(4) 0.021(3) 0.959(4)
H44 H 0.7186 0.0096 0.9111
Cl1 Cl 0.5219(15) 0.0295(12) 0.8577(14)
Cl2 Cl 0.6588(15) -0.0892(12) 0.9573(14)
Cl3 Cl 0.7225(15) 0.1475(12) 1.0662(14)
loop_
_geom_bond_atom_site_label_1
_geom_bond_atom_site_label_2
_geom_bond_site_symmetry_1
_geom_bond_site_symmetry_2
C1 C2 1_555 1_555
C2 C3 1_555 1_555
C3 C4 1_555 1_555
C4 C5 1_555 1_555
C5 C6 1_555 1_555
C6 H1 1_555 1_555
C7 C6 1_555 1_555
C8 C7 1_555 1_555
C9 C8 1_555 1_555
C10 C9 1_555 1_555
C11 C10 1_555 1_555
H2 C11 1_555 1_555
C12 C11 1_555 1_555
C13 C12 1_555 1_555
C14 C13 1_555 1_555
C15 C14 1_555 1_555
C16 C15 1_555 1_555
H3 C16 1_555 1_555
C17 C16 1_555 1_555
C18 C17 1_555 1_555
C19 C18 1_555 1_555
C20 C1 1_555 1_555
C21 C3 1_555 1_555
H4 C21 1_555 1_555
H5 C21 1_555 1_555
H6 C21 1_555 1_555
C22 C4 1_555 1_555
H7 C22 1_555 1_555
H8 C22 1_555 1_555
H9 C22 1_555 1_555
C23 C8 1_555 1_555
H10 C23 1_555 1_555
H11 C23 1_555 1_555
H12 C23 1_555 1_555
C24 C9 1_555 1_555
H13 C24 1_555 1_555
H14 C24 1_555 1_555
C25 C24 1_555 1_555
H15 C25 1_555 1_555
H16 C25 1_555 1_555
H17 C25 1_555 1_555
C26 C13 1_555 1_555
H18 C26 1_555 1_555
H19 C26 1_555 1_555
C27 C26 1_555 1_555
H20 C27 1_555 1_555
H21 C27 1_555 1_555
H22 C27 1_555 1_555
C28 C14 1_555 1_555
H23 C28 1_555 1_555
H24 C28 1_555 1_555
H25 C28 1_555 1_555
C29 C18 1_555 1_555
H26 C29 1_555 1_555
H27 C29 1_555 1_555
H28 C29 1_555 1_555
C30 C19 1_555 1_555
H29 C30 1_555 1_555
H30 C30 1_555 1_555
H31 C30 1_555 1_555
C31 C1 1_555 1_555
C32 C31 1_555 1_555
H32 C32 1_555 1_555
C33 C32 1_555 1_555
H33 C33 1_555 1_555
C34 C33 1_555 1_555
C35 C34 1_555 1_555
H34 C35 1_555 1_555
C36 C31 1_555 1_555
H35 C36 1_555 1_555
C37 H36 1_555 1_555
H37 C37 1_555 1_555
H38 C37 1_555 1_555
C38 H39 1_555 1_555
H40 C38 1_555 1_555
H41 C38 1_555 1_555
N1 C2 1_555 1_555
H42 N1 1_555 1_555
N2 C7 1_555 1_555
N3 C12 1_555 1_555
H43 N3 1_555 1_555
N4 C17 1_555 1_555
N5 C34 1_555 1_555
C39 H44 1_555 1_555
Cl1 C39 1_555 1_555
Cl2 C39 1_555 1_555
Cl3 C39 1_555 1_555
C5 N1 1_555 1_555
C10 N2 1_555 1_555
C15 N3 1_555 1_555
C19 C20 1_555 1_555
C20 N4 1_555 1_555
C35 C36 1_555 1_555
C37 N5 1_555 1_555
C38 N5 1_555 1_555

#END
