
#######################################################################
#
#                 Cambridge Crystallographic Data Centre
#                                CCDC 
#
#######################################################################
#
# If this CIF has been generated from an entry in the Cambridge 
# Structural Database, then it will include bibliographic, chemical, 
# crystal, experimental, refinement or atomic coordinate data resulting 
# from the CCDC's data processing and validation procedures.
#
#######################################################################

data_ATEZUV
_chemical_formula_moiety         'C31 H32 B1 N1 O1,C4 H10 O1'
_chemical_name_systematic        
'Dimesityl(2-(1-oxy-2-(pyridinium-2-yl)ethenyl)phenyl)borate diethyl ether solvate'
_symmetry_cell_setting           monoclinic
_symmetry_space_group_name_H-M   'P 21/c'
_symmetry_Int_Tables_number      14
_space_group_name_Hall           '-P 2ybc'
loop_
_symmetry_equiv_pos_site_id
_symmetry_equiv_pos_as_xyz
1 x,y,z
2 -x,1/2+y,1/2-z
3 -x,-y,-z
4 x,1/2-y,1/2+z
_cell_length_a                   13.196(15)
_cell_length_b                   13.291(15)
_cell_length_c                   15.960(18)
_cell_angle_alpha                90
_cell_angle_beta                 98.526(13)
_cell_angle_gamma                90
_cell_volume                     2768.26
_exptl_crystal_colour            yellow
_exptl_crystal_description       block
_cell_formula_units_Z            4
loop_
_atom_site_label
_atom_site_type_symbol
_atom_site_fract_x
_atom_site_fract_y
_atom_site_fract_z
N1 N 0.4496(3) 0.1304(3) -0.4798(2)
H1 H 0.387(3) 0.134(3) -0.453(3)
B1 B 0.3209(4) 0.1291(4) -0.2557(3)
O1 O 0.3932(3) 0.1348(2) -0.32838(17)
C1 C 0.4132(4) 0.1241(3) -0.1769(3)
C2 C 0.4166(4) 0.1271(3) -0.0871(3)
H2 H 0.3545 0.1299 -0.0638
C3 C 0.5090(4) 0.1259(3) -0.0338(3)
H3 H 0.5092 0.1223 0.0257
C4 C 0.6015(4) 0.1300(3) -0.0649(3)
H4 H 0.6644 0.1318 -0.0272
C5 C 0.6010(4) 0.1315(3) -0.1523(3)
H5 H 0.6635 0.1332 -0.1752
C6 C 0.5088(4) 0.1304(3) -0.2046(3)
C7 C 0.4919(4) 0.1324(3) -0.2989(3)
C8 C 0.5663(4) 0.1316(3) -0.3487(3)
H6 H 0.6356 0.1339 -0.3221
C9 C 0.5466(4) 0.1273(3) -0.4397(3)
C10 C 0.6247(4) 0.1205(3) -0.4900(3)
H7 H 0.6944 0.1199 -0.4644
C11 C 0.6000(4) 0.1148(3) -0.5774(3)
H8 H 0.6529 0.1077 -0.6114
C12 C 0.5001(4) 0.1191(3) -0.6146(3)
H9 H 0.4840 0.1164 -0.6746
C13 C 0.4232(4) 0.1272(3) -0.5668(3)
H10 H 0.3535 0.1305 -0.5924
C14 C 0.2637(4) 0.2367(4) -0.2470(3)
C15 C 0.2875(4) 0.3315(4) -0.2794(3)
C16 C 0.2423(4) 0.4183(4) -0.2570(3)
H11 H 0.2614 0.4801 -0.2802
C17 C 0.1696(4) 0.4204(4) -0.2018(3)
C18 C 0.1451(4) 0.3287(4) -0.1713(3)
H12 H 0.0951 0.3270 -0.1342
C19 C 0.1876(4) 0.2401(4) -0.1904(3)
C20 C 0.1498(4) 0.1451(4) -0.1546(3)
H13 H 0.1251 0.1601 -0.1010
H14 H 0.2060 0.0963 -0.1445
H15 H 0.0938 0.1169 -0.1949
C21 C 0.3645(4) 0.3447(4) -0.3421(3)
H16 H 0.3762 0.4166 -0.3505
H17 H 0.3369 0.3137 -0.3964
H18 H 0.4294 0.3123 -0.3193
C22 C 0.1204(4) 0.5192(4) -0.1799(4)
H19 H 0.1365 0.5314 -0.1188
H20 H 0.0459 0.5149 -0.1961
H21 H 0.1472 0.5745 -0.2108
C23 C 0.2527(4) 0.0311(4) -0.2875(3)
C24 C 0.2597(4) -0.0655(4) -0.2502(3)
C25 C 0.2104(4) -0.1490(4) -0.2887(3)
H22 H 0.2186 -0.2125 -0.2611
C26 C 0.1492(4) -0.1416(4) -0.3670(3)
C27 C 0.1373(4) -0.0493(4) -0.4019(3)
H23 H 0.0932 -0.0429 -0.4544
C28 C 0.1848(4) 0.0367(4) -0.3668(3)
C29 C 0.1645(4) 0.1354(4) -0.4141(3)
H24 H 0.1291 0.1222 -0.4714
H25 H 0.2298 0.1693 -0.4175
H26 H 0.1217 0.1785 -0.3840
C30 C 0.3296(4) -0.0875(4) -0.1655(3)
H27 H 0.3288 -0.1598 -0.1536
H28 H 0.3045 -0.0504 -0.1197
H29 H 0.3998 -0.0663 -0.1697
C31 C 0.1046(4) -0.2362(4) -0.4102(4)
H30 H 0.0425 -0.2193 -0.4493
H31 H 0.0874 -0.2837 -0.3675
H32 H 0.1549 -0.2669 -0.4417
loop_
_geom_bond_atom_site_label_1
_geom_bond_atom_site_label_2
_geom_bond_site_symmetry_1
_geom_bond_site_symmetry_2
N1 H1 1_555 1_555
B1 O1 1_555 1_555
O1 C7 1_555 1_555
C1 B1 1_555 1_555
C2 C1 1_555 1_555
H2 C2 1_555 1_555
C3 C2 1_555 1_555
H3 C3 1_555 1_555
C4 C3 1_555 1_555
H4 C4 1_555 1_555
C5 C4 1_555 1_555
H5 C5 1_555 1_555
C6 C1 1_555 1_555
C7 C6 1_555 1_555
C8 C7 1_555 1_555
H6 C8 1_555 1_555
C9 N1 1_555 1_555
C10 C9 1_555 1_555
H7 C10 1_555 1_555
C11 C10 1_555 1_555
H8 C11 1_555 1_555
C12 C11 1_555 1_555
H9 C12 1_555 1_555
C13 N1 1_555 1_555
H10 C13 1_555 1_555
C14 B1 1_555 1_555
C15 C14 1_555 1_555
C16 C15 1_555 1_555
H11 C16 1_555 1_555
C17 C16 1_555 1_555
C18 C17 1_555 1_555
H12 C18 1_555 1_555
C19 C14 1_555 1_555
C20 C19 1_555 1_555
H13 C20 1_555 1_555
H14 C20 1_555 1_555
H15 C20 1_555 1_555
C21 C15 1_555 1_555
H16 C21 1_555 1_555
H17 C21 1_555 1_555
H18 C21 1_555 1_555
C22 C17 1_555 1_555
H19 C22 1_555 1_555
H20 C22 1_555 1_555
H21 C22 1_555 1_555
C23 B1 1_555 1_555
C24 C23 1_555 1_555
C25 C24 1_555 1_555
H22 C25 1_555 1_555
C26 C25 1_555 1_555
C27 C26 1_555 1_555
H23 C27 1_555 1_555
C28 C23 1_555 1_555
C29 C28 1_555 1_555
H24 C29 1_555 1_555
H25 C29 1_555 1_555
H26 C29 1_555 1_555
C30 C24 1_555 1_555
H27 C30 1_555 1_555
H28 C30 1_555 1_555
H29 C30 1_555 1_555
C31 C26 1_555 1_555
H30 C31 1_555 1_555
H31 C31 1_555 1_555
H32 C31 1_555 1_555
C5 C6 1_555 1_555
C8 C9 1_555 1_555
C12 C13 1_555 1_555
C18 C19 1_555 1_555
C27 C28 1_555 1_555

#END
