
#######################################################################
#
#                 Cambridge Crystallographic Data Centre
#                                CCDC 
#
#######################################################################
#
# If this CIF has been generated from an entry in the Cambridge 
# Structural Database, then it will include bibliographic, chemical, 
# crystal, experimental, refinement or atomic coordinate data resulting 
# from the CCDC's data processing and validation procedures.
#
#######################################################################

data_ATIJAQ
_chemical_formula_moiety         'C24 H25 N1 O5'
_chemical_name_systematic        
'dimethyl 3-oxo-1,7-diphenyloctahydro-6H-cyclopenta[c]pyridine-6,6-dicarboxylate'
_symmetry_cell_setting           triclinic
_symmetry_space_group_name_H-M   'P -1'
_symmetry_Int_Tables_number      2
_space_group_name_Hall           '-P 1'
loop_
_symmetry_equiv_pos_site_id
_symmetry_equiv_pos_as_xyz
1 x,y,z
2 -x,-y,-z
_cell_length_a                   8.6436(2)
_cell_length_b                   12.3501(3)
_cell_length_c                   19.9446(5)
_cell_angle_alpha                89.1840(10)
_cell_angle_beta                 89.4260(10)
_cell_angle_gamma                82.1580(10)
_cell_volume                     2108.88
_exptl_crystal_colour            colorless
_exptl_crystal_description       block
_cell_formula_units_Z            4
loop_
_atom_site_label
_atom_site_type_symbol
_atom_site_fract_x
_atom_site_fract_y
_atom_site_fract_z
C1 C 0.8253(2) 0.70945(15) 0.63214(9)
H1 H 0.8806 0.7563 0.6573
O1 O 0.13025(12) 0.90955(8) 0.32265(5)
O2 O 0.19825(12) 0.72818(8) 0.33489(5)
O3 O 0.46707(12) 0.89174(8) 0.31901(5)
O4 O 0.17461(14) 0.84810(9) 0.70609(5)
O5 O 0.46937(14) 0.99706(8) 0.40950(5)
N1 N 0.32863(14) 0.73363(9) 0.63870(6)
H2 H 0.3514 0.6909 0.6739
C2 C 0.39542(16) 0.75226(11) 0.44821(7)
H3 H 0.3347 0.6897 0.4426
C3 C 0.37610(16) 0.78709(10) 0.52192(6)
H4 H 0.4452 0.8441 0.5302
C4 C 0.30359(16) 0.85414(11) 0.40927(7)
C5 C 0.42034(17) 0.92488(11) 0.38036(7)
C6 C 0.22579(17) 0.82354(12) 0.64958(7)
C7 C 0.58347(17) 0.63019(11) 0.37677(7)
H5 H 0.4977 0.5957 0.3628
C8 C 0.20718(16) 0.81992(12) 0.35156(7)
C9 C 0.58252(16) 0.66601(11) 0.58821(7)
C10 C 0.20701(16) 0.84075(11) 0.52445(7)
H6 H 0.1366 0.7838 0.5186
C11 C 0.55872(16) 0.71543(11) 0.42236(6)
C12 C 0.40872(16) 0.69675(11) 0.57564(7)
H7 H 0.3655 0.6304 0.5601
C13 C 0.68624(17) 0.76504(12) 0.44182(7)
H8 H 0.6718 0.8233 0.4729
C14 C 0.17162(18) 0.89609(12) 0.59097(7)
H9 H 0.2231 0.9629 0.5922
H10 H 0.0576 0.9186 0.5950
C15 C 0.73171(18) 0.59508(12) 0.35153(7)
H11 H 0.7469 0.5366 0.3207
C16 C 0.66472(18) 0.73389(13) 0.62460(8)
H12 H 0.6106 0.7977 0.6445
C17 C 0.19601(18) 0.91615(12) 0.46309(7)
H13 H 0.2322 0.9866 0.4738
H14 H 0.0870 0.9308 0.4471
C18 C 0.83385(18) 0.73014(13) 0.41626(8)
H15 H 0.9198 0.7648 0.4298
C19 C 0.66371(18) 0.57251(12) 0.56017(8)
H16 H 0.6087 0.5244 0.5359
C20 C 0.03696(19) 0.89361(14) 0.26473(8)
H17 H 0.1056 0.8653 0.2277
H18 H -0.0229 0.9635 0.2512
H19 H -0.0350 0.8412 0.2760
C21 C 0.85727(18) 0.64508(13) 0.37115(8)
H20 H 0.9588 0.6213 0.3538
C22 C 0.8241(2) 0.54854(14) 0.56716(9)
H21 H 0.8785 0.4849 0.5472
C23 C 0.9046(2) 0.61700(15) 0.60301(10)
H22 H 1.0146 0.6006 0.6077
C24 C 0.5906(2) 0.94465(15) 0.28926(9)
H23 H 0.5596 1.0240 0.2887
H24 H 0.6102 0.9192 0.2432
H25 H 0.6860 0.9267 0.3156
O6 O 0.02779(13) 0.67508(9) 1.15172(5)
O7 O 0.36918(13) 0.66187(9) 1.14355(5)
O8 O 0.36204(12) 0.59377(9) 0.76548(5)
O9 O 0.27535(13) 0.83302(9) 1.11104(5)
O10 O 0.03007(14) 0.53478(9) 1.08185(6)
N2 N 0.18571(14) 0.71489(10) 0.81824(6)
H26 H 0.1648 0.7453 0.7786
C25 C 0.12412(16) 0.69849(11) 0.93764(7)
H27 H 0.0581 0.6380 0.9369
C26 C 0.09530(16) 0.75883(11) 1.00440(7)
H28 H 0.1509 0.8246 1.0012
C27 C 0.29421(16) 0.64846(11) 0.94278(7)
H29 H 0.3612 0.7084 0.9422
C28 C -0.07281(17) 0.79954(11) 1.02211(7)
C29 C 0.18898(17) 0.67711(11) 1.05633(7)
C30 C 0.29674(17) 0.62804(12) 0.81812(7)
C31 C 0.09310(16) 0.76771(11) 0.87384(7)
H30 H 0.1282 0.8404 0.8815
C32 C 0.34127(18) 0.57295(12) 0.88472(7)
H31 H 0.4556 0.5502 0.8856
H32 H 0.2895 0.5065 0.8897
C33 C 0.28063(16) 0.73593(12) 1.10584(7)
C34 C 0.07564(18) 0.61840(11) 1.09727(7)
C35 C 0.29938(18) 0.59600(12) 1.01239(7)
H33 H 0.4070 0.5864 1.0301
H34 H 0.2620 0.5238 1.0113
C36 C -0.15111(18) 0.70068(12) 0.83146(8)
H35 H -0.0926 0.6301 0.8277
C37 C -0.19316(18) 0.73854(12) 1.01027(7)
H36 H -0.1700 0.6676 0.9919
C38 C -0.07814(17) 0.78698(11) 0.85388(7)
C39 C -0.11174(19) 0.90276(13) 1.04931(9)
H37 H -0.0315 0.9458 1.0583
C40 C -0.16587(19) 0.88926(13) 0.85816(8)
H38 H -0.1180 0.9496 0.8727
C41 C -0.3074(2) 0.71605(14) 0.81452(9)
H39 H -0.3555 0.6564 0.7992
C42 C -0.2657(2) 0.94397(15) 1.06355(11)
H40 H -0.2898 1.0148 1.0821
C43 C -0.3934(2) 0.81833(15) 0.82001(9)
H41 H -0.5012 0.8291 0.8090
C44 C -0.34647(19) 0.77992(14) 1.02495(9)
H42 H -0.4272 0.7368 1.0169
C45 C 0.4574(2) 0.70273(17) 1.19656(8)
H43 H 0.5290 0.7501 1.1772
H44 H 0.5174 0.6412 1.2204
H45 H 0.3856 0.7447 1.2280
C46 C -0.3224(2) 0.90455(15) 0.84154(9)
H46 H -0.3812 0.9751 0.8450
C47 C -0.3832(2) 0.88307(15) 1.05107(10)
H47 H -0.4888 0.9116 1.0603
C48 C -0.0886(3) 0.63218(17) 1.19270(10)
H48 H -0.1855 0.6348 1.1673
H49 H -0.1083 0.6763 1.2331
H50 H -0.0510 0.5563 1.2055
loop_
_geom_bond_atom_site_label_1
_geom_bond_atom_site_label_2
_geom_bond_site_symmetry_1
_geom_bond_site_symmetry_2
C1 H1 1_555 1_555
O1 C8 1_555 1_555
O2 C8 1_555 1_555
O3 C5 1_555 1_555
O4 C6 1_555 1_555
O5 C5 1_555 1_555
N1 H2 1_555 1_555
C2 H3 1_555 1_555
C3 C2 1_555 1_555
H4 C3 1_555 1_555
C4 C2 1_555 1_555
C5 C4 1_555 1_555
C6 N1 1_555 1_555
C7 H5 1_555 1_555
C8 C4 1_555 1_555
C9 C12 1_555 1_555
C10 C3 1_555 1_555
H6 C10 1_555 1_555
C11 C2 1_555 1_555
C12 N1 1_555 1_555
H7 C12 1_555 1_555
C13 C11 1_555 1_555
H8 C13 1_555 1_555
C14 C6 1_555 1_555
H9 C14 1_555 1_555
H10 C14 1_555 1_555
C15 C7 1_555 1_555
H11 C15 1_555 1_555
C16 C1 1_555 1_555
H12 C16 1_555 1_555
C17 C4 1_555 1_555
H13 C17 1_555 1_555
H14 C17 1_555 1_555
C18 C13 1_555 1_555
H15 C18 1_555 1_555
C19 C9 1_555 1_555
H16 C19 1_555 1_555
C20 O1 1_555 1_555
H17 C20 1_555 1_555
H18 C20 1_555 1_555
H19 C20 1_555 1_555
C21 C15 1_555 1_555
H20 C21 1_555 1_555
C22 C19 1_555 1_555
H21 C22 1_555 1_555
C23 C1 1_555 1_555
H22 C23 1_555 1_555
C24 O3 1_555 1_555
H23 C24 1_555 1_555
H24 C24 1_555 1_555
H25 C24 1_555 1_555
O6 C34 1_555 1_555
O7 C33 1_555 1_555
O8 C30 1_555 1_555
O9 C33 1_555 1_555
O10 C34 1_555 1_555
N2 H26 1_555 1_555
C25 H27 1_555 1_555
C26 C25 1_555 1_555
H28 C26 1_555 1_555
C27 C25 1_555 1_555
H29 C27 1_555 1_555
C28 C26 1_555 1_555
C29 C26 1_555 1_555
C30 N2 1_555 1_555
C31 N2 1_555 1_555
H30 C31 1_555 1_555
C32 C27 1_555 1_555
H31 C32 1_555 1_555
H32 C32 1_555 1_555
C33 C29 1_555 1_555
C34 C29 1_555 1_555
C35 C27 1_555 1_555
H33 C35 1_555 1_555
H34 C35 1_555 1_555
C36 H35 1_555 1_555
C37 C28 1_555 1_555
H36 C37 1_555 1_555
C38 C31 1_555 1_555
C39 C28 1_555 1_555
H37 C39 1_555 1_555
C40 C38 1_555 1_555
H38 C40 1_555 1_555
C41 C36 1_555 1_555
H39 C41 1_555 1_555
C42 C39 1_555 1_555
H40 C42 1_555 1_555
C43 C41 1_555 1_555
H41 C43 1_555 1_555
C44 C37 1_555 1_555
H42 C44 1_555 1_555
C45 O7 1_555 1_555
H43 C45 1_555 1_555
H44 C45 1_555 1_555
H45 C45 1_555 1_555
C46 C40 1_555 1_555
H46 C46 1_555 1_555
C47 C42 1_555 1_555
H47 C47 1_555 1_555
C48 O6 1_555 1_555
H48 C48 1_555 1_555
H49 C48 1_555 1_555
H50 C48 1_555 1_555
C3 C12 1_555 1_555
C7 C11 1_555 1_555
C9 C16 1_555 1_555
C10 C14 1_555 1_555
C10 C17 1_555 1_555
C18 C21 1_555 1_555
C22 C23 1_555 1_555
C25 C31 1_555 1_555
C29 C35 1_555 1_555
C30 C32 1_555 1_555
C36 C38 1_555 1_555
C43 C46 1_555 1_555
C44 C47 1_555 1_555

#END
