
#######################################################################
#
#                 Cambridge Crystallographic Data Centre
#                                CCDC 
#
#######################################################################
#
# If this CIF has been generated from an entry in the Cambridge 
# Structural Database, then it will include bibliographic, chemical, 
# crystal, experimental, refinement or atomic coordinate data resulting 
# from the CCDC's data processing and validation procedures.
#
#######################################################################

data_ATIJOE
_chemical_formula_moiety         'C36 H34 Cl1 N5 O2 S1'
_chemical_name_systematic        
2-(5-(4-chlorophenyl)-1,3,4-thiadiazol-2-yl)-3',6'-bis(diethylamino)spiro[isoindole-1,9'-xanthen]-3(2H)-one
_symmetry_cell_setting           orthorhombic
_symmetry_space_group_name_H-M   'P n a 21'
_symmetry_Int_Tables_number      33
_space_group_name_Hall           'P 2c -2n'
loop_
_symmetry_equiv_pos_site_id
_symmetry_equiv_pos_as_xyz
1 x,y,z
2 -x,-y,1/2+z
3 1/2+x,1/2-y,z
4 1/2-x,1/2+y,1/2+z
_cell_length_a                   9.225(2)
_cell_length_b                   16.865(4)
_cell_length_c                   20.389(5)
_cell_angle_alpha                90
_cell_angle_beta                 90
_cell_angle_gamma                90
_cell_volume                     3172.11
_exptl_crystal_colour            yellow
_exptl_crystal_description       block
_cell_formula_units_Z            4
loop_
_atom_site_label
_atom_site_type_symbol
_atom_site_fract_x
_atom_site_fract_y
_atom_site_fract_z
Cl1 Cl 1.0638(2) 0.35880(13) 1.00957(11)
S1 S 0.39326(18) 0.35901(9) 0.84216(8)
N1 N 0.5525(6) 0.4695(3) 0.7942(3)
N2 N 0.4246(5) 0.4720(3) 0.7588(3)
N3 N 0.1982(5) 0.4094(2) 0.7505(2)
N4 N 0.1490(7) 0.7875(3) 0.7088(3)
N5 N 0.5374(6) 0.3520(3) 0.4817(3)
O1 O 0.2709(5) 0.5567(2) 0.58837(19)
O2 O 0.1085(4) 0.3163(2) 0.8223(2)
C1 C 0.9144(7) 0.3750(5) 0.9596(3)
C2 C 0.8082(8) 0.3181(4) 0.9573(3)
H1 H 0.8166 0.2719 0.9819
C3 C 0.6876(8) 0.3307(4) 0.9175(3)
H2 H 0.6149 0.2926 0.9152
C4 C 0.6756(7) 0.3999(4) 0.8813(3)
C5 C 0.7868(8) 0.4548(4) 0.8858(3)
H3 H 0.7802 0.5014 0.8616
C6 C 0.9060(7) 0.4431(5) 0.9247(4)
H4 H 0.9793 0.4809 0.9270
C7 C 0.5528(6) 0.4130(3) 0.8384(3)
C8 C 0.3330(7) 0.4185(3) 0.7788(3)
C9 C 0.0917(6) 0.3585(3) 0.7737(3)
C10 C -0.0317(6) 0.3660(3) 0.7295(3)
C11 C -0.1709(7) 0.3326(3) 0.7346(3)
H5 H -0.1946 0.2976 0.7682
C12 C -0.2694(7) 0.3539(4) 0.6881(4)
H6 H -0.3632 0.3339 0.6905
C13 C -0.2334(7) 0.4041(4) 0.6377(4)
H7 H -0.3027 0.4161 0.6061
C14 C -0.1004(7) 0.4367(4) 0.6327(3)
H8 H -0.0781 0.4709 0.5983
C15 C 0.0032(6) 0.4180(3) 0.6802(3)
C16 C 0.1554(7) 0.4503(3) 0.6877(3)
C17 C 0.1562(7) 0.5397(3) 0.6938(3)
C18 C 0.0982(7) 0.5774(4) 0.7485(3)
H9 H 0.0597 0.5470 0.7823
C19 C 0.0965(7) 0.6588(4) 0.7534(3)
H10 H 0.0571 0.6822 0.7907
C20 C 0.1524(7) 0.7067(4) 0.7042(3)
C21 C 0.2070(7) 0.6689(4) 0.6499(3)
H11 H 0.2413 0.6991 0.6151
C22 C 0.2124(7) 0.5867(3) 0.6455(3)
C23 C 0.2543(6) 0.4243(3) 0.6325(3)
C24 C 0.3051(8) 0.3473(3) 0.6269(3)
H12 H 0.2758 0.3104 0.6581
C25 C 0.3959(7) 0.3227(3) 0.5782(3)
H13 H 0.4245 0.2699 0.5762
C26 C 0.4465(6) 0.3767(3) 0.5308(3)
C27 C 0.3963(7) 0.4543(3) 0.5363(3)
H14 H 0.4252 0.4916 0.5053
C28 C 0.3062(6) 0.4773(3) 0.5857(3)
C29 C 0.0929(9) 0.8268(4) 0.7673(4)
H15 H 0.0043 0.8005 0.7808
H16 H 0.0688 0.8812 0.7564
C30 C 0.2006(10) 0.8267(5) 0.8253(4)
H17 H 0.2332 0.7735 0.8334
H18 H 0.1532 0.8468 0.8638
H19 H 0.2821 0.8597 0.8149
C31 C 0.2209(9) 0.8400(4) 0.6606(4)
H20 H 0.3021 0.8123 0.6408
H21 H 0.2582 0.8866 0.6827
C32 C 0.1168(10) 0.8646(6) 0.6085(6)
H22 H 0.0742 0.8183 0.5890
H23 H 0.1671 0.8944 0.5755
H24 H 0.0421 0.8968 0.6275
C33 C 0.5872(8) 0.4063(4) 0.4308(3)
H25 H 0.5071 0.4406 0.4188
H26 H 0.6126 0.3754 0.3924
C34 C 0.7131(8) 0.4569(5) 0.4484(4)
H27 H 0.6869 0.4914 0.4839
H28 H 0.7411 0.4881 0.4111
H29 H 0.7928 0.4239 0.4616
C35 C 0.6214(7) 0.2783(4) 0.4884(4)
H30 H 0.6407 0.2693 0.5346
H31 H 0.7140 0.2852 0.4666
C36 C 0.5493(8) 0.2059(4) 0.4609(4)
H32 H 0.4637 0.1943 0.4859
H33 H 0.6149 0.1618 0.4633
H34 H 0.5233 0.2153 0.4160
loop_
_geom_bond_atom_site_label_1
_geom_bond_atom_site_label_2
_geom_bond_site_symmetry_1
_geom_bond_site_symmetry_2
Cl1 C1 1_555 1_555
S1 C7 1_555 1_555
N1 N2 1_555 1_555
N2 C8 1_555 1_555
N3 C8 1_555 1_555
N4 C20 1_555 1_555
N5 C26 1_555 1_555
O1 C22 1_555 1_555
O2 C9 1_555 1_555
C1 C2 1_555 1_555
C2 H1 1_555 1_555
C3 C2 1_555 1_555
H2 C3 1_555 1_555
C4 C3 1_555 1_555
C5 C4 1_555 1_555
H3 C5 1_555 1_555
C6 C1 1_555 1_555
H4 C6 1_555 1_555
C7 N1 1_555 1_555
C8 S1 1_555 1_555
C9 N3 1_555 1_555
C10 C9 1_555 1_555
C11 C10 1_555 1_555
H5 C11 1_555 1_555
C12 C11 1_555 1_555
H6 C12 1_555 1_555
C13 C12 1_555 1_555
H7 C13 1_555 1_555
C14 C13 1_555 1_555
H8 C14 1_555 1_555
C15 C10 1_555 1_555
C16 N3 1_555 1_555
C17 C16 1_555 1_555
C18 C17 1_555 1_555
H9 C18 1_555 1_555
C19 C18 1_555 1_555
H10 C19 1_555 1_555
C20 C19 1_555 1_555
C21 C20 1_555 1_555
H11 C21 1_555 1_555
C22 C17 1_555 1_555
C23 C16 1_555 1_555
C24 C23 1_555 1_555
H12 C24 1_555 1_555
C25 C24 1_555 1_555
H13 C25 1_555 1_555
C26 C25 1_555 1_555
C27 C26 1_555 1_555
H14 C27 1_555 1_555
C28 O1 1_555 1_555
C29 N4 1_555 1_555
H15 C29 1_555 1_555
H16 C29 1_555 1_555
C30 C29 1_555 1_555
H17 C30 1_555 1_555
H18 C30 1_555 1_555
H19 C30 1_555 1_555
C31 N4 1_555 1_555
H20 C31 1_555 1_555
H21 C31 1_555 1_555
C32 C31 1_555 1_555
H22 C32 1_555 1_555
H23 C32 1_555 1_555
H24 C32 1_555 1_555
C33 N5 1_555 1_555
H25 C33 1_555 1_555
H26 C33 1_555 1_555
C34 C33 1_555 1_555
H27 C34 1_555 1_555
H28 C34 1_555 1_555
H29 C34 1_555 1_555
C35 N5 1_555 1_555
H30 C35 1_555 1_555
H31 C35 1_555 1_555
C36 C35 1_555 1_555
H32 C36 1_555 1_555
H33 C36 1_555 1_555
H34 C36 1_555 1_555
C4 C7 1_555 1_555
C5 C6 1_555 1_555
C14 C15 1_555 1_555
C15 C16 1_555 1_555
C21 C22 1_555 1_555
C23 C28 1_555 1_555
C27 C28 1_555 1_555

#END
