
#######################################################################
#
#                 Cambridge Crystallographic Data Centre
#                                CCDC 
#
#######################################################################
#
# If this CIF has been generated from an entry in the Cambridge 
# Structural Database, then it will include bibliographic, chemical, 
# crystal, experimental, refinement or atomic coordinate data resulting 
# from the CCDC's data processing and validation procedures.
#
#######################################################################

data_ATIPAW
_chemical_formula_moiety         'C42 H62 N6 O2'
_chemical_name_systematic        
2,3-bis((4-(dipropylamino)-2-(hexyloxy)benzylidene)amino)but-2-enedinitrile
_symmetry_cell_setting           triclinic
_symmetry_space_group_name_H-M   'P -1'
_symmetry_Int_Tables_number      2
_space_group_name_Hall           '-P 1'
loop_
_symmetry_equiv_pos_site_id
_symmetry_equiv_pos_as_xyz
1 x,y,z
2 -x,-y,-z
_cell_length_a                   8.794(9)
_cell_length_b                   8.879(8)
_cell_length_c                   13.318(13)
_cell_angle_alpha                79.54(6)
_cell_angle_beta                 85.63(4)
_cell_angle_gamma                78.57(5)
_cell_volume                     1001.46
_exptl_crystal_colour            red
_exptl_crystal_description       block
_cell_formula_units_Z            1
loop_
_atom_site_label
_atom_site_type_symbol
_atom_site_fract_x
_atom_site_fract_y
_atom_site_fract_z
O1 O 0.2513(3) 1.0101(3) -0.08563(19)
N1 N 0.4443(5) 1.4885(4) -0.2175(3)
N2 N 0.4154(3) 1.3258(3) 0.0400(2)
N3 N 0.1711(4) 0.7033(3) 0.2467(2)
C1 C 0.4597(4) 1.4743(4) -0.1318(3)
C2 C 0.4698(4) 1.4488(3) -0.0220(3)
C3 C 0.3653(4) 1.2231(3) -0.0007(3)
H1 H 0.3654 1.2337 -0.0723
C4 C 0.3098(4) 1.0938(4) 0.0620(3)
C5 C 0.2574(4) 0.9803(4) 0.0179(3)
C6 C 0.2124(4) 0.8518(4) 0.0784(3)
H2 H 0.1792 0.7773 0.0476
C7 C 0.2157(4) 0.8308(4) 0.1850(3)
C8 C 0.2635(5) 0.9463(4) 0.2295(3)
H3 H 0.2644 0.9362 0.3009
C9 C 0.3085(4) 1.0728(4) 0.1682(3)
H4 H 0.3397 1.1483 0.1990
C10 C 0.1459(5) 0.5694(4) 0.2047(3)
H5 H 0.1754 0.4750 0.2553
H6 H 0.2153 0.5593 0.1441
C11 C -0.0183(5) 0.5772(4) 0.1751(3)
H7 H -0.0463 0.6656 0.1198
H8 H -0.0901 0.5937 0.2338
C12 C -0.0335(5) 0.4264(4) 0.1401(4)
H9 H -0.1394 0.4334 0.1214
H10 H 0.0365 0.4110 0.0814
H11 H -0.0072 0.3392 0.1952
C13 C 0.1515(5) 0.6910(4) 0.3575(3)
H12 H 0.0720 0.6280 0.3817
H13 H 0.1124 0.7957 0.3735
C14 C 0.2961(5) 0.6205(5) 0.4162(3)
H14 H 0.3737 0.6873 0.3971
H15 H 0.3398 0.5180 0.3981
C15 C 0.2603(6) 0.6028(5) 0.5312(3)
H16 H 0.3549 0.5573 0.5671
H17 H 0.2186 0.7044 0.5493
H18 H 0.1848 0.5353 0.5503
C16 C 0.1960(5) 0.9025(4) -0.1362(3)
H19 H 0.0951 0.8830 -0.1059
H20 H 0.2695 0.8031 -0.1299
C17 C 0.1809(5) 0.9777(4) -0.2477(3)
H21 H 0.1321 0.9129 -0.2828
H22 H 0.1118 1.0796 -0.2517
C18 C 0.3333(5) 0.9998(5) -0.3031(3)
H23 H 0.3899 0.8989 -0.3177
H24 H 0.3963 1.0365 -0.2583
C19 C 0.3129(6) 1.1176(5) -0.4046(3)
H25 H 0.2578 1.2186 -0.3892
H26 H 0.4159 1.1315 -0.4337
C20 C 0.2272(6) 1.0725(5) -0.4830(3)
H27 H 0.1264 1.0518 -0.4535
H28 H 0.2860 0.9764 -0.5037
C21 C 0.2019(7) 1.2017(5) -0.5776(4)
H29 H 0.1459 1.1690 -0.6273
H30 H 0.1421 1.2965 -0.5575
H31 H 0.3016 1.2211 -0.6077
O1A O 0.7487(3) 1.9899(3) 0.08563(19)
N1A N 0.5557(5) 1.5115(4) 0.2175(3)
N2A N 0.5846(3) 1.6742(3) -0.0400(2)
N3A N 0.8289(4) 2.2967(3) -0.2467(2)
C1A C 0.5403(4) 1.5257(4) 0.1318(3)
C2A C 0.5302(4) 1.5512(3) 0.0220(3)
C3A C 0.6347(4) 1.7769(3) 0.0007(3)
H1A H 0.6346 1.7663 0.0723
C4A C 0.6902(4) 1.9062(4) -0.0620(3)
C5A C 0.7426(4) 2.0197(4) -0.0179(3)
C6A C 0.7876(4) 2.1482(4) -0.0784(3)
H2A H 0.8208 2.2227 -0.0476
C7A C 0.7843(4) 2.1692(4) -0.1850(3)
C8A C 0.7365(5) 2.0537(4) -0.2295(3)
H3A H 0.7356 2.0638 -0.3009
C9A C 0.6915(4) 1.9272(4) -0.1682(3)
H4A H 0.6603 1.8517 -0.1990
C10A C 0.8541(5) 2.4306(4) -0.2047(3)
H5A H 0.8246 2.5250 -0.2553
H6A H 0.7847 2.4407 -0.1441
C11A C 1.0183(5) 2.4228(4) -0.1751(3)
H7A H 1.0463 2.3344 -0.1198
H8A H 1.0901 2.4063 -0.2338
C12A C 1.0335(5) 2.5736(4) -0.1401(4)
H9A H 1.1394 2.5666 -0.1214
H10A H 0.9635 2.5890 -0.0814
H11A H 1.0072 2.6608 -0.1952
C13A C 0.8485(5) 2.3090(4) -0.3575(3)
H12A H 0.9280 2.3720 -0.3817
H13A H 0.8876 2.2043 -0.3735
C14A C 0.7039(5) 2.3795(5) -0.4162(3)
H14A H 0.6263 2.3127 -0.3971
H15A H 0.6602 2.4820 -0.3981
C15A C 0.7397(6) 2.3972(5) -0.5312(3)
H16A H 0.6451 2.4427 -0.5671
H17A H 0.7814 2.2956 -0.5493
H18A H 0.8152 2.4647 -0.5503
C16A C 0.8040(5) 2.0975(4) 0.1362(3)
H19A H 0.9049 2.1170 0.1059
H20A H 0.7305 2.1969 0.1299
C17A C 0.8191(5) 2.0223(4) 0.2477(3)
H21A H 0.8679 2.0871 0.2828
H22A H 0.8882 1.9204 0.2517
C18A C 0.6667(5) 2.0002(5) 0.3031(3)
H23A H 0.6101 2.1011 0.3177
H24A H 0.6037 1.9635 0.2583
C19A C 0.6871(6) 1.8824(5) 0.4046(3)
H25A H 0.7422 1.7814 0.3892
H26A H 0.5841 1.8685 0.4337
C20A C 0.7728(6) 1.9275(5) 0.4830(3)
H27A H 0.8736 1.9482 0.4535
H28A H 0.7140 2.0236 0.5037
C21A C 0.7981(7) 1.7983(5) 0.5776(4)
H29A H 0.8541 1.8310 0.6273
H30A H 0.8579 1.7035 0.5575
H31A H 0.6984 1.7789 0.6077
loop_
_geom_bond_atom_site_label_1
_geom_bond_atom_site_label_2
_geom_bond_site_symmetry_1
_geom_bond_site_symmetry_2
O1 C5 1_555 1_555
N1 C1 1_555 1_555
N2 C2 1_555 1_555
N3 C7 1_555 1_555
C1 C2 1_555 1_555
C2 C2A 1_555 1_555
C3 N2 1_555 1_555
H1 C3 1_555 1_555
C4 C3 1_555 1_555
C5 C4 1_555 1_555
C6 C5 1_555 1_555
H2 C6 1_555 1_555
C7 C6 1_555 1_555
C8 C7 1_555 1_555
H3 C8 1_555 1_555
C9 C4 1_555 1_555
H4 C9 1_555 1_555
C10 N3 1_555 1_555
H5 C10 1_555 1_555
H6 C10 1_555 1_555
C11 C10 1_555 1_555
H7 C11 1_555 1_555
H8 C11 1_555 1_555
C12 C11 1_555 1_555
H9 C12 1_555 1_555
H10 C12 1_555 1_555
H11 C12 1_555 1_555
C13 N3 1_555 1_555
H12 C13 1_555 1_555
H13 C13 1_555 1_555
C14 C13 1_555 1_555
H14 C14 1_555 1_555
H15 C14 1_555 1_555
C15 C14 1_555 1_555
H16 C15 1_555 1_555
H17 C15 1_555 1_555
H18 C15 1_555 1_555
C16 O1 1_555 1_555
H19 C16 1_555 1_555
H20 C16 1_555 1_555
C17 C16 1_555 1_555
H21 C17 1_555 1_555
H22 C17 1_555 1_555
C18 C17 1_555 1_555
H23 C18 1_555 1_555
H24 C18 1_555 1_555
C19 C18 1_555 1_555
H25 C19 1_555 1_555
H26 C19 1_555 1_555
C20 C19 1_555 1_555
H27 C20 1_555 1_555
H28 C20 1_555 1_555
C21 C20 1_555 1_555
H29 C21 1_555 1_555
H30 C21 1_555 1_555
H31 C21 1_555 1_555
O1A C5A 1_555 1_555
N1A C1A 1_555 1_555
N2A C2A 1_555 1_555
N3A C7A 1_555 1_555
C1A C2A 1_555 1_555
C3A N2A 1_555 1_555
H1A C3A 1_555 1_555
C4A C3A 1_555 1_555
C5A C4A 1_555 1_555
C6A C5A 1_555 1_555
H2A C6A 1_555 1_555
C7A C6A 1_555 1_555
C8A C7A 1_555 1_555
H3A C8A 1_555 1_555
C9A C4A 1_555 1_555
H4A C9A 1_555 1_555
C10A N3A 1_555 1_555
H5A C10A 1_555 1_555
H6A C10A 1_555 1_555
C11A C10A 1_555 1_555
H7A C11A 1_555 1_555
H8A C11A 1_555 1_555
C12A C11A 1_555 1_555
H9A C12A 1_555 1_555
H10A C12A 1_555 1_555
H11A C12A 1_555 1_555
C13A N3A 1_555 1_555
H12A C13A 1_555 1_555
H13A C13A 1_555 1_555
C14A C13A 1_555 1_555
H14A C14A 1_555 1_555
H15A C14A 1_555 1_555
C15A C14A 1_555 1_555
H16A C15A 1_555 1_555
H17A C15A 1_555 1_555
H18A C15A 1_555 1_555
C16A O1A 1_555 1_555
H19A C16A 1_555 1_555
H20A C16A 1_555 1_555
C17A C16A 1_555 1_555
H21A C17A 1_555 1_555
H22A C17A 1_555 1_555
C18A C17A 1_555 1_555
H23A C18A 1_555 1_555
H24A C18A 1_555 1_555
C19A C18A 1_555 1_555
H25A C19A 1_555 1_555
H26A C19A 1_555 1_555
C20A C19A 1_555 1_555
H27A C20A 1_555 1_555
H28A C20A 1_555 1_555
C21A C20A 1_555 1_555
H29A C21A 1_555 1_555
H30A C21A 1_555 1_555
H31A C21A 1_555 1_555
C8 C9 1_555 1_555
C8A C9A 1_555 1_555

#END
