
#######################################################################
#
#                 Cambridge Crystallographic Data Centre
#                                CCDC 
#
#######################################################################
#
# If this CIF has been generated from an entry in the Cambridge 
# Structural Database, then it will include bibliographic, chemical, 
# crystal, experimental, refinement or atomic coordinate data resulting 
# from the CCDC's data processing and validation procedures.
#
#######################################################################

data_ATIPOK
_chemical_formula_moiety         'C54 H86 N6 O2'
_chemical_name_systematic        
2,3-bis((4-(dipropylamino)-2-(dodecyloxy)benzylidene)amino)but-2-enedinitrile
_symmetry_cell_setting           triclinic
_symmetry_space_group_name_H-M   'P -1'
_symmetry_Int_Tables_number      2
_space_group_name_Hall           '-P 1'
loop_
_symmetry_equiv_pos_site_id
_symmetry_equiv_pos_as_xyz
1 x,y,z
2 -x,-y,-z
_cell_length_a                   8.538(7)
_cell_length_b                   8.996(8)
_cell_length_c                   17.084(16)
_cell_angle_alpha                76.91(4)
_cell_angle_beta                 77.83(5)
_cell_angle_gamma                75.35(6)
_cell_volume                     1220.01
_exptl_crystal_colour            red
_exptl_crystal_description       block
_cell_formula_units_Z            1
loop_
_atom_site_label
_atom_site_type_symbol
_atom_site_fract_x
_atom_site_fract_y
_atom_site_fract_z
O1 O 0.4639(4) 0.7269(5) 0.5738(2)
N1 N 0.8771(6) 0.8798(6) 0.6732(3)
N2 N 0.8464(5) 0.9265(5) 0.4701(3)
N3 N 0.3363(5) 0.7317(6) 0.3130(3)
C1 C 0.9061(6) 0.9219(6) 0.6043(3)
C2 C 0.9369(6) 0.9634(7) 0.5183(3)
C3 C 0.7196(6) 0.8663(6) 0.5050(3)
H1 H 0.6898 0.8490 0.5626
C4 C 0.6263(6) 0.8266(6) 0.4560(3)
C5 C 0.4895(6) 0.7586(6) 0.4920(3)
C6 C 0.3941(6) 0.7279(6) 0.4447(3)
H2 H 0.3023 0.6831 0.4701
C7 C 0.4299(6) 0.7613(6) 0.3602(3)
C8 C 0.5703(6) 0.8218(7) 0.3239(3)
H3 H 0.6011 0.8399 0.2663
C9 C 0.6621(6) 0.8543(6) 0.3719(3)
H4 H 0.7547 0.8978 0.3464
C10 C 0.1747(6) 0.6985(7) 0.3469(3)
H5 H 0.1004 0.7483 0.3065
H6 H 0.1306 0.7468 0.3959
C11 C 0.1730(7) 0.5275(7) 0.3699(4)
H7 H 0.2357 0.4786 0.4151
H8 H 0.2263 0.4756 0.3228
C12 C -0.0033(6) 0.5049(7) 0.3960(4)
H9 H -0.0027 0.3930 0.4108
H10 H -0.0555 0.5551 0.4430
H11 H -0.0648 0.5522 0.3508
C13 C 0.3785(7) 0.7522(8) 0.2263(3)
H12 H 0.3330 0.6789 0.2068
H13 H 0.4994 0.7249 0.2115
C14 C 0.3157(7) 0.9179(8) 0.1827(4)
H14 H 0.1952 0.9480 0.1987
H15 H 0.3657 0.9916 0.1993
C15 C 0.3581(8) 0.9286(11) 0.0909(4)
H16 H 0.3169 1.0358 0.0640
H17 H 0.4774 0.9003 0.0751
H18 H 0.3072 0.8568 0.0745
C16 C 0.3307(6) 0.6512(7) 0.6143(3)
H19 H 0.3424 0.5534 0.5942
H20 H 0.2243 0.7208 0.6037
C17 C 0.3380(7) 0.6160(7) 0.7040(3)
H21 H 0.4475 0.5511 0.7127
H22 H 0.2555 0.5536 0.7325
C18 C 0.3076(7) 0.7592(7) 0.7417(4)
H23 H 0.3975 0.8152 0.7178
H24 H 0.2039 0.8300 0.7279
C19 C 0.2967(7) 0.7221(7) 0.8325(3)
H25 H 0.3939 0.6402 0.8462
H26 H 0.1984 0.6780 0.8563
C20 C 0.2875(7) 0.8589(8) 0.8723(4)
H27 H 0.2770 0.8229 0.9320
H28 H 0.3913 0.8960 0.8534
C21 C 0.1465(7) 0.9931(7) 0.8539(4)
H29 H 0.0430 0.9554 0.8724
H30 H 0.1574 1.0290 0.7942
C22 C 0.1348(7) 1.1308(7) 0.8937(4)
H31 H 0.2457 1.1522 0.8865
H32 H 0.0964 1.1026 0.9529
C23 C 0.0194(7) 1.2788(7) 0.8592(4)
H33 H 0.0620 1.3099 0.8007
H34 H -0.0892 1.2548 0.8631
C24 C -0.0027(8) 1.4134(8) 0.9002(4)
H35 H 0.1063 1.4298 0.9028
H36 H -0.0601 1.3889 0.9568
C25 C -0.1010(8) 1.5635(9) 0.8560(5)
H37 H -0.0647 1.6527 0.8661
H38 H -0.0716 1.5631 0.7968
C26 C -0.2748(12) 1.5922(15) 0.8764(6)
H39 H -0.3132 1.5193 0.8530
H40 H -0.3192 1.6993 0.8487
C27 C -0.3492(17) 1.578(2) 0.9639(7)
H41 H -0.4690 1.6008 0.9690
H42 H -0.3108 1.4714 0.9924
H43 H -0.3168 1.6523 0.9881
O1A O 1.5361(4) 1.2731(5) 0.4262(2)
N1A N 1.1229(6) 1.1202(6) 0.3268(3)
N2A N 1.1536(5) 1.0735(5) 0.5299(3)
N3A N 1.6637(5) 1.2683(6) 0.6870(3)
C1A C 1.0939(6) 1.0781(6) 0.3957(3)
C2A C 1.0631(6) 1.0366(7) 0.4817(3)
C3A C 1.2804(6) 1.1337(6) 0.4950(3)
H1A H 1.3102 1.1510 0.4374
C4A C 1.3737(6) 1.1734(6) 0.5440(3)
C5A C 1.5105(6) 1.2414(6) 0.5080(3)
C6A C 1.6059(6) 1.2721(6) 0.5553(3)
H2A H 1.6977 1.3169 0.5299
C7A C 1.5701(6) 1.2387(6) 0.6398(3)
C8A C 1.4297(6) 1.1782(7) 0.6761(3)
H3A H 1.3989 1.1601 0.7337
C9A C 1.3379(6) 1.1457(6) 0.6281(3)
H4A H 1.2453 1.1022 0.6536
C10A C 1.8253(6) 1.3015(7) 0.6531(3)
H5A H 1.8996 1.2517 0.6935
H6A H 1.8694 1.2532 0.6041
C11A C 1.8270(7) 1.4725(7) 0.6301(4)
H7A H 1.7643 1.5214 0.5849
H8A H 1.7737 1.5244 0.6772
C12A C 2.0033(6) 1.4951(7) 0.6040(4)
H9A H 2.0027 1.6070 0.5892
H10A H 2.0555 1.4449 0.5570
H11A H 2.0648 1.4478 0.6492
C13A C 1.6215(7) 1.2478(8) 0.7737(3)
H12A H 1.6670 1.3211 0.7932
H13A H 1.5006 1.2751 0.7885
C14A C 1.6843(7) 1.0821(8) 0.8173(4)
H14A H 1.8048 1.0520 0.8013
H15A H 1.6343 1.0084 0.8007
C15A C 1.6419(8) 1.0714(11) 0.9091(4)
H16A H 1.6831 0.9642 0.9360
H17A H 1.5226 1.0997 0.9249
H18A H 1.6928 1.1432 0.9255
C16A C 1.6693(6) 1.3488(7) 0.3857(3)
H19A H 1.6576 1.4466 0.4058
H20A H 1.7757 1.2792 0.3963
C17A C 1.6620(7) 1.3840(7) 0.2960(3)
H21A H 1.5525 1.4489 0.2873
H22A H 1.7445 1.4464 0.2675
C18A C 1.6924(7) 1.2408(7) 0.2583(4)
H23A H 1.6025 1.1848 0.2822
H24A H 1.7961 1.1700 0.2721
C19A C 1.7033(7) 1.2779(7) 0.1675(3)
H25A H 1.6061 1.3598 0.1538
H26A H 1.8016 1.3220 0.1437
C20A C 1.7125(7) 1.1411(8) 0.1277(4)
H27A H 1.7230 1.1771 0.0680
H28A H 1.6087 1.1040 0.1466
C21A C 1.8535(7) 1.0069(7) 0.1461(4)
H29A H 1.9570 1.0446 0.1276
H30A H 1.8426 0.9710 0.2058
C22A C 1.8652(7) 0.8692(7) 0.1063(4)
H31A H 1.7543 0.8478 0.1135
H32A H 1.9036 0.8974 0.0471
C23A C 1.9806(7) 0.7212(7) 0.1408(4)
H33A H 1.9380 0.6901 0.1993
H34A H 2.0892 0.7452 0.1369
C24A C 2.0027(8) 0.5866(8) 0.0998(4)
H35A H 1.8937 0.5702 0.0972
H36A H 2.0601 0.6111 0.0432
C25A C 2.1010(8) 0.4365(9) 0.1440(5)
H37A H 2.0647 0.3473 0.1339
H38A H 2.0716 0.4369 0.2032
C26A C 2.2748(12) 0.4078(15) 0.1236(6)
H39A H 2.3132 0.4807 0.1470
H40A H 2.3192 0.3007 0.1513
C27A C 2.3492(17) 0.422(2) 0.0361(7)
H41A H 2.4690 0.3992 0.0310
H42A H 2.3108 0.5286 0.0076
H43A H 2.3168 0.3477 0.0119
H44? H -0.0259 1.6085 0.8094
H45? H -0.1852 1.5355 0.8334
C28? C -0.1805(15) 1.6808(14) 0.9023(7)
H46? H -0.2255 1.7753 0.8644
H47? H -0.0959 1.7071 0.9253
C29? C -0.3154(17) 1.648(2) 0.9705(8)
H48? H -0.3586 1.7398 0.9970
H49? H -0.4034 1.6264 0.9491
H50? H -0.2731 1.5579 1.0103
loop_
_geom_bond_atom_site_label_1
_geom_bond_atom_site_label_2
_geom_bond_site_symmetry_1
_geom_bond_site_symmetry_2
O1 C5 1_555 1_555
N1 C1 1_555 1_555
N2 C2 1_555 1_555
N3 C7 1_555 1_555
C1 C2 1_555 1_555
C2 C2A 1_555 1_555
C3 N2 1_555 1_555
H1 C3 1_555 1_555
C4 C3 1_555 1_555
C5 C4 1_555 1_555
C6 C5 1_555 1_555
H2 C6 1_555 1_555
C7 C6 1_555 1_555
C8 C7 1_555 1_555
H3 C8 1_555 1_555
C9 C4 1_555 1_555
H4 C9 1_555 1_555
C10 N3 1_555 1_555
H5 C10 1_555 1_555
H6 C10 1_555 1_555
C11 C10 1_555 1_555
H7 C11 1_555 1_555
H8 C11 1_555 1_555
C12 C11 1_555 1_555
H9 C12 1_555 1_555
H10 C12 1_555 1_555
H11 C12 1_555 1_555
C13 N3 1_555 1_555
H12 C13 1_555 1_555
H13 C13 1_555 1_555
C14 C13 1_555 1_555
H14 C14 1_555 1_555
H15 C14 1_555 1_555
C15 C14 1_555 1_555
H16 C15 1_555 1_555
H17 C15 1_555 1_555
H18 C15 1_555 1_555
C16 O1 1_555 1_555
H19 C16 1_555 1_555
H20 C16 1_555 1_555
C17 C16 1_555 1_555
H21 C17 1_555 1_555
H22 C17 1_555 1_555
C18 C17 1_555 1_555
H23 C18 1_555 1_555
H24 C18 1_555 1_555
C19 C18 1_555 1_555
H25 C19 1_555 1_555
H26 C19 1_555 1_555
C20 C19 1_555 1_555
H27 C20 1_555 1_555
H28 C20 1_555 1_555
C21 C20 1_555 1_555
H29 C21 1_555 1_555
H30 C21 1_555 1_555
C22 C21 1_555 1_555
H31 C22 1_555 1_555
H32 C22 1_555 1_555
C23 C22 1_555 1_555
H33 C23 1_555 1_555
H34 C23 1_555 1_555
C24 C23 1_555 1_555
H35 C24 1_555 1_555
H36 C24 1_555 1_555
C25 C24 1_555 1_555
H37 C25 1_555 1_555
H38 C25 1_555 1_555
C26 C25 1_555 1_555
H39 C26 1_555 1_555
H40 C26 1_555 1_555
C27 C26 1_555 1_555
H41 C27 1_555 1_555
H42 C27 1_555 1_555
H43 C27 1_555 1_555
O1A C5A 1_555 1_555
N1A C1A 1_555 1_555
N2A C2A 1_555 1_555
N3A C7A 1_555 1_555
C1A C2A 1_555 1_555
C3A N2A 1_555 1_555
H1A C3A 1_555 1_555
C4A C3A 1_555 1_555
C5A C4A 1_555 1_555
C6A C5A 1_555 1_555
H2A C6A 1_555 1_555
C7A C6A 1_555 1_555
C8A C7A 1_555 1_555
H3A C8A 1_555 1_555
C9A C4A 1_555 1_555
H4A C9A 1_555 1_555
C10A N3A 1_555 1_555
H5A C10A 1_555 1_555
H6A C10A 1_555 1_555
C11A C10A 1_555 1_555
H7A C11A 1_555 1_555
H8A C11A 1_555 1_555
C12A C11A 1_555 1_555
H9A C12A 1_555 1_555
H10A C12A 1_555 1_555
H11A C12A 1_555 1_555
C13A N3A 1_555 1_555
H12A C13A 1_555 1_555
H13A C13A 1_555 1_555
C14A C13A 1_555 1_555
H14A C14A 1_555 1_555
H15A C14A 1_555 1_555
C15A C14A 1_555 1_555
H16A C15A 1_555 1_555
H17A C15A 1_555 1_555
H18A C15A 1_555 1_555
C16A O1A 1_555 1_555
H19A C16A 1_555 1_555
H20A C16A 1_555 1_555
C17A C16A 1_555 1_555
H21A C17A 1_555 1_555
H22A C17A 1_555 1_555
C18A C17A 1_555 1_555
H23A C18A 1_555 1_555
H24A C18A 1_555 1_555
C19A C18A 1_555 1_555
H25A C19A 1_555 1_555
H26A C19A 1_555 1_555
C20A C19A 1_555 1_555
H27A C20A 1_555 1_555
H28A C20A 1_555 1_555
C21A C20A 1_555 1_555
H29A C21A 1_555 1_555
H30A C21A 1_555 1_555
C22A C21A 1_555 1_555
H31A C22A 1_555 1_555
H32A C22A 1_555 1_555
C23A C22A 1_555 1_555
H33A C23A 1_555 1_555
H34A C23A 1_555 1_555
C24A C23A 1_555 1_555
H35A C24A 1_555 1_555
H36A C24A 1_555 1_555
C25A C24A 1_555 1_555
H37A C25A 1_555 1_555
H38A C25A 1_555 1_555
C26A C25A 1_555 1_555
H39A C26A 1_555 1_555
H40A C26A 1_555 1_555
C27A C26A 1_555 1_555
H41A C27A 1_555 1_555
H42A C27A 1_555 1_555
H43A C27A 1_555 1_555
C8 C9 1_555 1_555
C8A C9A 1_555 1_555

#END
