
#######################################################################
#
#                 Cambridge Crystallographic Data Centre
#                                CCDC 
#
#######################################################################
#
# If this CIF has been generated from an entry in the Cambridge 
# Structural Database, then it will include bibliographic, chemical, 
# crystal, experimental, refinement or atomic coordinate data resulting 
# from the CCDC's data processing and validation procedures.
#
#######################################################################

data_ATIPEA
_chemical_formula_moiety         'C44 H66 N6 O2,C1 H1 Cl3'
_chemical_name_systematic        
'2,3-bis((4-(dipropylamino)-2-(heptyloxy)benzylidene)amino)but-2-enedinitrile chloroform unknown solvate'
_symmetry_cell_setting           triclinic
_symmetry_space_group_name_H-M   'P -1'
_symmetry_Int_Tables_number      2
_space_group_name_Hall           '-P 1'
loop_
_symmetry_equiv_pos_site_id
_symmetry_equiv_pos_as_xyz
1 x,y,z
2 -x,-y,-z
_cell_length_a                   10.756(3)
_cell_length_b                   13.803(3)
_cell_length_c                   16.943(4)
_cell_angle_alpha                101.927(5)
_cell_angle_beta                 91.835(3)
_cell_angle_gamma                91.153(4)
_cell_volume                     2458.96
_exptl_crystal_colour            red
_exptl_crystal_description       block
_cell_formula_units_Z            2
loop_
_atom_site_label
_atom_site_type_symbol
_atom_site_fract_x
_atom_site_fract_y
_atom_site_fract_z
Cl1 Cl -0.12120(10) -0.05974(7) 0.08992(6)
Cl2 Cl -0.01684(9) 0.13942(7) 0.13418(7)
Cl3 Cl -0.27510(9) 0.10030(7) 0.16296(6)
C1 C -0.1233(3) 0.0529(2) 0.1594(2)
H1 H -0.0989 0.0412 0.2140
O1 O 0.1315(2) 0.35810(15) 0.43146(13)
N1 N 0.0042(3) 0.0252(2) 0.32912(18)
N2 N 0.0383(2) 0.13217(17) 0.53452(16)
N3 N 0.1959(2) 0.58656(17) 0.68787(16)
C2 C 0.0094(3) 0.0287(2) 0.3974(2)
C3 C 0.0132(3) 0.0407(2) 0.48419(19)
C4 C 0.0711(3) 0.2070(2) 0.5028(2)
H2 H 0.0779 0.1968 0.4459
C5 C 0.0972(3) 0.3040(2) 0.55093(19)
C6 C 0.1332(3) 0.3825(2) 0.51329(19)
C7 C 0.1650(3) 0.4759(2) 0.55830(19)
H3 H 0.1890 0.5271 0.5316
C8 C 0.1622(3) 0.4957(2) 0.64279(19)
C9 C 0.1217(3) 0.4181(2) 0.68074(19)
H4 H 0.1165 0.4300 0.7378
C10 C 0.0903(3) 0.3260(2) 0.63458(19)
H5 H 0.0627 0.2755 0.6609
C11 C 0.2615(3) 0.6610(2) 0.65344(19)
H6 H 0.3119 0.6268 0.6087
H7 H 0.3194 0.6999 0.6953
C12 C 0.1760(3) 0.7318(2) 0.6217(2)
H8 H 0.1200 0.7624 0.6646
H9 H 0.1241 0.6948 0.5755
C13 C 0.2529(3) 0.8126(2) 0.5947(2)
H10 H 0.1971 0.8579 0.5744
H11 H 0.3035 0.8496 0.6407
H12 H 0.3075 0.7822 0.5518
C14 C 0.1829(3) 0.6130(2) 0.7754(2)
H13 H 0.1097 0.5763 0.7897
H14 H 0.1664 0.6846 0.7909
C15 C 0.2960(3) 0.5908(3) 0.8239(2)
H15 H 0.3711 0.6217 0.8061
H16 H 0.3072 0.5184 0.8137
C16 C 0.2825(4) 0.6299(3) 0.9140(2)
H17 H 0.3568 0.6145 0.9435
H18 H 0.2729 0.7019 0.9244
H19 H 0.2091 0.5986 0.9320
C17 C 0.1679(3) 0.4294(2) 0.3853(2)
H20 H 0.2528 0.4566 0.4021
H21 H 0.1093 0.4847 0.3920
C18 C 0.1641(4) 0.3717(3) 0.2979(2)
H22 H 0.2169 0.3132 0.2949
H23 H 0.0777 0.3471 0.2830
C19 C 0.2059(4) 0.4278(3) 0.2374(2)
H24 H 0.2888 0.4587 0.2547
H25 H 0.1473 0.4815 0.2350
C20 C 0.2137(4) 0.3622(3) 0.1528(2)
H26 H 0.2267 0.4054 0.1137
H27 H 0.1329 0.3263 0.1382
C21 C 0.3173(4) 0.2863(3) 0.1442(3)
H28 H 0.3985 0.3219 0.1580
H29 H 0.3050 0.2431 0.1834
C22 C 0.3215(4) 0.2222(3) 0.0603(3)
H30 H 0.3273 0.2661 0.0211
H31 H 0.2420 0.1838 0.0483
C23 C 0.4278(4) 0.1504(3) 0.0472(3)
H32 H 0.4228 0.1124 -0.0086
H33 H 0.5074 0.1875 0.0571
H34 H 0.4218 0.1050 0.0844
O1A O -0.1315(2) -0.35810(15) 0.56854(13)
N1A N -0.0042(3) -0.0252(2) 0.67088(18)
N2A N -0.0383(2) -0.13217(17) 0.46548(16)
N3A N -0.1959(2) -0.58656(17) 0.31213(16)
C2A C -0.0094(3) -0.0287(2) 0.6026(2)
C3A C -0.0132(3) -0.0407(2) 0.51581(19)
C4A C -0.0711(3) -0.2070(2) 0.4972(2)
H2A H -0.0779 -0.1968 0.5541
C5A C -0.0972(3) -0.3040(2) 0.44907(19)
C6A C -0.1332(3) -0.3825(2) 0.48671(19)
C7A C -0.1650(3) -0.4759(2) 0.44170(19)
H3A H -0.1890 -0.5271 0.4684
C8A C -0.1622(3) -0.4957(2) 0.35721(19)
C9A C -0.1217(3) -0.4181(2) 0.31926(19)
H4A H -0.1165 -0.4300 0.2622
C10A C -0.0903(3) -0.3260(2) 0.36542(19)
H5A H -0.0627 -0.2755 0.3391
C11A C -0.2615(3) -0.6610(2) 0.34656(19)
H6A H -0.3119 -0.6268 0.3913
H7A H -0.3194 -0.6999 0.3047
C12A C -0.1760(3) -0.7318(2) 0.3783(2)
H8A H -0.1200 -0.7624 0.3354
H9A H -0.1241 -0.6948 0.4245
C13A C -0.2529(3) -0.8126(2) 0.4053(2)
H10A H -0.1971 -0.8579 0.4256
H11A H -0.3035 -0.8496 0.3593
H12A H -0.3075 -0.7822 0.4482
C14A C -0.1829(3) -0.6130(2) 0.2246(2)
H13A H -0.1097 -0.5763 0.2103
H14A H -0.1664 -0.6846 0.2091
C15A C -0.2960(3) -0.5908(3) 0.1761(2)
H15A H -0.3711 -0.6217 0.1939
H16A H -0.3072 -0.5184 0.1863
C16A C -0.2825(4) -0.6299(3) 0.0860(2)
H17A H -0.3568 -0.6145 0.0565
H18A H -0.2729 -0.7019 0.0756
H19A H -0.2091 -0.5986 0.0680
C17A C -0.1679(3) -0.4294(2) 0.6147(2)
H20A H -0.2528 -0.4566 0.5979
H21A H -0.1093 -0.4847 0.6080
C18A C -0.1641(4) -0.3717(3) 0.7021(2)
H22A H -0.2169 -0.3132 0.7051
H23A H -0.0777 -0.3471 0.7170
C19A C -0.2059(4) -0.4278(3) 0.7626(2)
H24A H -0.2888 -0.4587 0.7453
H25A H -0.1473 -0.4815 0.7650
C20A C -0.2137(4) -0.3622(3) 0.8472(2)
H26A H -0.2267 -0.4054 0.8863
H27A H -0.1329 -0.3263 0.8618
C21A C -0.3173(4) -0.2863(3) 0.8558(3)
H28A H -0.3985 -0.3219 0.8420
H29A H -0.3050 -0.2431 0.8166
C22A C -0.3215(4) -0.2222(3) 0.9397(3)
H30A H -0.3273 -0.2661 0.9789
H31A H -0.2420 -0.1838 0.9517
C23A C -0.4278(4) -0.1504(3) 0.9528(3)
H32A H -0.4228 -0.1124 1.0086
H33A H -0.5074 -0.1875 0.9429
H34A H -0.4218 -0.1050 0.9156
O2 O 0.3667(2) 0.13476(14) 0.56403(13)
N4 N 0.4840(3) 0.47745(19) 0.67166(18)
N5 N 0.4596(2) 0.36823(17) 0.46632(16)
N6 N 0.2973(2) -0.07921(18) 0.30091(16)
C24 C 0.4844(3) 0.4733(2) 0.6034(2)
C25 C 0.4849(3) 0.4597(2) 0.51645(19)
C26 C 0.4273(3) 0.2934(2) 0.49796(19)
H35 H 0.4223 0.3023 0.5549
C27 C 0.3992(3) 0.1978(2) 0.44775(19)
C28 C 0.3628(3) 0.1168(2) 0.48230(19)
C29 C 0.3287(3) 0.0257(2) 0.43365(19)
H36 H 0.3025 -0.0271 0.4579
C30 C 0.3323(3) 0.0102(2) 0.34908(19)
C31 C 0.3747(3) 0.0901(2) 0.3150(2)
H37 H 0.3821 0.0810 0.2582
C32 C 0.4051(3) 0.1801(2) 0.36373(19)
H38 H 0.4314 0.2328 0.3394
C33 C 0.2332(3) -0.1566(2) 0.3335(2)
H39 H 0.1756 -0.1945 0.2909
H40 H 0.1824 -0.1243 0.3787
C34 C 0.3188(3) -0.2285(2) 0.3634(2)
H41 H 0.3702 -0.1928 0.4103
H42 H 0.3755 -0.2570 0.3202
C35 C 0.2434(3) -0.3116(2) 0.3877(2)
H43 H 0.3000 -0.3573 0.4069
H44 H 0.1882 -0.2834 0.4310
H45 H 0.1935 -0.3475 0.3410
C36 C 0.3130(3) -0.0996(2) 0.21406(19)
H46 H 0.3200 -0.1720 0.1948
H47 H 0.3921 -0.0679 0.2031
C37 C 0.2085(3) -0.0640(3) 0.1660(2)
H48 H 0.2057 0.0091 0.1810
H49 H 0.1280 -0.0916 0.1793
C38 C 0.2270(4) -0.0958(3) 0.0751(2)
H50 H 0.1583 -0.0719 0.0454
H51 H 0.3059 -0.0676 0.0617
H52 H 0.2284 -0.1682 0.0600
C39 C 0.3398(3) 0.0543(2) 0.60401(19)
H53 H 0.3929 -0.0026 0.5837
H54 H 0.2515 0.0322 0.5938
C40 C 0.3660(3) 0.0927(2) 0.69310(19)
H55 H 0.4516 0.1217 0.7013
H56 H 0.3622 0.0365 0.7211
C41 C 0.2749(3) 0.1708(2) 0.7312(2)
H57 H 0.1934 0.1380 0.7354
H58 H 0.2627 0.2183 0.6953
C42 C 0.3187(3) 0.2280(3) 0.8151(2)
H59 H 0.2474 0.2632 0.8423
H60 H 0.3476 0.1804 0.8477
C43 C 0.4237(3) 0.3030(2) 0.8121(2)
H61 H 0.4962 0.2668 0.7875
H62 H 0.3962 0.3474 0.7764
C44 C 0.4655(4) 0.3658(3) 0.8932(2)
H63 H 0.4930 0.3218 0.9293
H64 H 0.3937 0.4030 0.9178
C45 C 0.5705(4) 0.4385(3) 0.8873(2)
H65 H 0.5937 0.4770 0.9413
H66 H 0.6426 0.4022 0.8641
H67 H 0.5432 0.4834 0.8527
O2A O 0.6333(2) 0.86524(14) 0.43597(13)
N4A N 0.5160(3) 0.52255(19) 0.32834(18)
N5A N 0.5404(2) 0.63177(17) 0.53368(16)
N6A N 0.7027(2) 1.07921(18) 0.69909(16)
C24A C 0.5156(3) 0.5267(2) 0.3966(2)
C25A C 0.5151(3) 0.5403(2) 0.48355(19)
C26A C 0.5727(3) 0.7066(2) 0.50204(19)
H35A H 0.5777 0.6977 0.4451
C27A C 0.6008(3) 0.8022(2) 0.55225(19)
C28A C 0.6372(3) 0.8832(2) 0.51770(19)
C29A C 0.6713(3) 0.9743(2) 0.56635(19)
H36A H 0.6975 1.0271 0.5421
C30A C 0.6677(3) 0.9898(2) 0.65092(19)
C31A C 0.6253(3) 0.9099(2) 0.6850(2)
H37A H 0.6179 0.9190 0.7418
C32A C 0.5949(3) 0.8199(2) 0.63627(19)
H38A H 0.5686 0.7672 0.6606
C33A C 0.7668(3) 1.1566(2) 0.6665(2)
H39A H 0.8244 1.1945 0.7091
H40A H 0.8176 1.1243 0.6213
C34A C 0.6812(3) 1.2285(2) 0.6366(2)
H41A H 0.6298 1.1928 0.5897
H42A H 0.6245 1.2570 0.6798
C35A C 0.7566(3) 1.3116(2) 0.6123(2)
H43A H 0.7000 1.3573 0.5931
H44A H 0.8118 1.2834 0.5690
H45A H 0.8065 1.3475 0.6590
C36A C 0.6870(3) 1.0996(2) 0.78594(19)
H46A H 0.6800 1.1720 0.8052
H47A H 0.6079 1.0679 0.7969
C37A C 0.7915(3) 1.0640(3) 0.8340(2)
H48A H 0.7943 0.9909 0.8190
H49A H 0.8720 1.0916 0.8207
C38A C 0.7730(4) 1.0958(3) 0.9249(2)
H50A H 0.8417 1.0719 0.9546
H51A H 0.6941 1.0676 0.9383
H52A H 0.7716 1.1682 0.9400
C39A C 0.6602(3) 0.9457(2) 0.39599(19)
H53A H 0.6071 1.0026 0.4163
H54A H 0.7485 0.9678 0.4062
C40A C 0.6340(3) 0.9073(2) 0.30690(19)
H55A H 0.5484 0.8783 0.2987
H56A H 0.6378 0.9635 0.2789
C41A C 0.7251(3) 0.8292(2) 0.2688(2)
H57A H 0.8066 0.8620 0.2646
H58A H 0.7373 0.7817 0.3047
C42A C 0.6813(3) 0.7720(3) 0.1849(2)
H59A H 0.7526 0.7368 0.1577
H60A H 0.6524 0.8196 0.1523
C43A C 0.5763(3) 0.6970(2) 0.1879(2)
H61A H 0.5038 0.7332 0.2125
H62A H 0.6038 0.6526 0.2236
C44A C 0.5345(4) 0.6342(3) 0.1068(2)
H63A H 0.5070 0.6782 0.0707
H64A H 0.6063 0.5970 0.0822
C45A C 0.4295(4) 0.5615(3) 0.1127(2)
H65A H 0.4063 0.5230 0.0587
H66A H 0.3574 0.5978 0.1359
H67A H 0.4568 0.5166 0.1473
loop_
_geom_bond_atom_site_label_1
_geom_bond_atom_site_label_2
_geom_bond_site_symmetry_1
_geom_bond_site_symmetry_2
Cl1 C1 1_555 1_555
Cl2 C1 1_555 1_555
Cl3 C1 1_555 1_555
C1 H1 1_555 1_555
O1 C6 1_555 1_555
N1 C2 1_555 1_555
N2 C3 1_555 1_555
N3 C8 1_555 1_555
C2 C3 1_555 1_555
C3 C3A 1_555 1_555
C4 N2 1_555 1_555
H2 C4 1_555 1_555
C5 C4 1_555 1_555
C6 C5 1_555 1_555
C7 C6 1_555 1_555
H3 C7 1_555 1_555
C8 C7 1_555 1_555
C9 C8 1_555 1_555
H4 C9 1_555 1_555
C10 C5 1_555 1_555
H5 C10 1_555 1_555
C11 N3 1_555 1_555
H6 C11 1_555 1_555
H7 C11 1_555 1_555
C12 C11 1_555 1_555
H8 C12 1_555 1_555
H9 C12 1_555 1_555
C13 C12 1_555 1_555
H10 C13 1_555 1_555
H11 C13 1_555 1_555
H12 C13 1_555 1_555
C14 N3 1_555 1_555
H13 C14 1_555 1_555
H14 C14 1_555 1_555
C15 C14 1_555 1_555
H15 C15 1_555 1_555
H16 C15 1_555 1_555
C16 C15 1_555 1_555
H17 C16 1_555 1_555
H18 C16 1_555 1_555
H19 C16 1_555 1_555
C17 O1 1_555 1_555
H20 C17 1_555 1_555
H21 C17 1_555 1_555
C18 C17 1_555 1_555
H22 C18 1_555 1_555
H23 C18 1_555 1_555
C19 C18 1_555 1_555
H24 C19 1_555 1_555
H25 C19 1_555 1_555
C20 C19 1_555 1_555
H26 C20 1_555 1_555
H27 C20 1_555 1_555
C21 C20 1_555 1_555
H28 C21 1_555 1_555
H29 C21 1_555 1_555
C22 C21 1_555 1_555
H30 C22 1_555 1_555
H31 C22 1_555 1_555
C23 C22 1_555 1_555
H32 C23 1_555 1_555
H33 C23 1_555 1_555
H34 C23 1_555 1_555
O2 C28 1_555 1_555
N4 C24 1_555 1_555
N5 C25 1_555 1_555
N6 C30 1_555 1_555
C24 C25 1_555 1_555
C25 C25A 1_555 1_555
C26 N5 1_555 1_555
H35 C26 1_555 1_555
C27 C26 1_555 1_555
C28 C27 1_555 1_555
C29 C28 1_555 1_555
H36 C29 1_555 1_555
C30 C29 1_555 1_555
C31 C30 1_555 1_555
H37 C31 1_555 1_555
C32 C27 1_555 1_555
H38 C32 1_555 1_555
C33 N6 1_555 1_555
H39 C33 1_555 1_555
H40 C33 1_555 1_555
C34 C33 1_555 1_555
H41 C34 1_555 1_555
H42 C34 1_555 1_555
C35 C34 1_555 1_555
H43 C35 1_555 1_555
H44 C35 1_555 1_555
H45 C35 1_555 1_555
C36 N6 1_555 1_555
H46 C36 1_555 1_555
H47 C36 1_555 1_555
C37 C36 1_555 1_555
H48 C37 1_555 1_555
H49 C37 1_555 1_555
C38 C37 1_555 1_555
H50 C38 1_555 1_555
H51 C38 1_555 1_555
H52 C38 1_555 1_555
C39 O2 1_555 1_555
H53 C39 1_555 1_555
H54 C39 1_555 1_555
C40 C39 1_555 1_555
H55 C40 1_555 1_555
H56 C40 1_555 1_555
C41 C40 1_555 1_555
H57 C41 1_555 1_555
H58 C41 1_555 1_555
C42 C41 1_555 1_555
H59 C42 1_555 1_555
H60 C42 1_555 1_555
C43 C42 1_555 1_555
H61 C43 1_555 1_555
H62 C43 1_555 1_555
C44 C43 1_555 1_555
H63 C44 1_555 1_555
H64 C44 1_555 1_555
C45 C44 1_555 1_555
H65 C45 1_555 1_555
H66 C45 1_555 1_555
H67 C45 1_555 1_555
O1A C6A 1_555 1_555
N1A C2A 1_555 1_555
N2A C3A 1_555 1_555
N3A C8A 1_555 1_555
C2A C3A 1_555 1_555
C4A N2A 1_555 1_555
H2A C4A 1_555 1_555
C5A C4A 1_555 1_555
C6A C5A 1_555 1_555
C7A C6A 1_555 1_555
H3A C7A 1_555 1_555
C8A C7A 1_555 1_555
C9A C8A 1_555 1_555
H4A C9A 1_555 1_555
C10A C5A 1_555 1_555
H5A C10A 1_555 1_555
C11A N3A 1_555 1_555
H6A C11A 1_555 1_555
H7A C11A 1_555 1_555
C12A C11A 1_555 1_555
H8A C12A 1_555 1_555
H9A C12A 1_555 1_555
C13A C12A 1_555 1_555
H10A C13A 1_555 1_555
H11A C13A 1_555 1_555
H12A C13A 1_555 1_555
C14A N3A 1_555 1_555
H13A C14A 1_555 1_555
H14A C14A 1_555 1_555
C15A C14A 1_555 1_555
H15A C15A 1_555 1_555
H16A C15A 1_555 1_555
C16A C15A 1_555 1_555
H17A C16A 1_555 1_555
H18A C16A 1_555 1_555
H19A C16A 1_555 1_555
C17A O1A 1_555 1_555
H20A C17A 1_555 1_555
H21A C17A 1_555 1_555
C18A C17A 1_555 1_555
H22A C18A 1_555 1_555
H23A C18A 1_555 1_555
C19A C18A 1_555 1_555
H24A C19A 1_555 1_555
H25A C19A 1_555 1_555
C20A C19A 1_555 1_555
H26A C20A 1_555 1_555
H27A C20A 1_555 1_555
C21A C20A 1_555 1_555
H28A C21A 1_555 1_555
H29A C21A 1_555 1_555
C22A C21A 1_555 1_555
H30A C22A 1_555 1_555
H31A C22A 1_555 1_555
C23A C22A 1_555 1_555
H32A C23A 1_555 1_555
H33A C23A 1_555 1_555
H34A C23A 1_555 1_555
O2A C28A 1_555 1_555
N4A C24A 1_555 1_555
N5A C25A 1_555 1_555
N6A C30A 1_555 1_555
C24A C25A 1_555 1_555
C26A N5A 1_555 1_555
H35A C26A 1_555 1_555
C27A C26A 1_555 1_555
C28A C27A 1_555 1_555
C29A C28A 1_555 1_555
H36A C29A 1_555 1_555
C30A C29A 1_555 1_555
C31A C30A 1_555 1_555
H37A C31A 1_555 1_555
C32A C27A 1_555 1_555
H38A C32A 1_555 1_555
C33A N6A 1_555 1_555
H39A C33A 1_555 1_555
H40A C33A 1_555 1_555
C34A C33A 1_555 1_555
H41A C34A 1_555 1_555
H42A C34A 1_555 1_555
C35A C34A 1_555 1_555
H43A C35A 1_555 1_555
H44A C35A 1_555 1_555
H45A C35A 1_555 1_555
C36A N6A 1_555 1_555
H46A C36A 1_555 1_555
H47A C36A 1_555 1_555
C37A C36A 1_555 1_555
H48A C37A 1_555 1_555
H49A C37A 1_555 1_555
C38A C37A 1_555 1_555
H50A C38A 1_555 1_555
H51A C38A 1_555 1_555
H52A C38A 1_555 1_555
C39A O2A 1_555 1_555
H53A C39A 1_555 1_555
H54A C39A 1_555 1_555
C40A C39A 1_555 1_555
H55A C40A 1_555 1_555
H56A C40A 1_555 1_555
C41A C40A 1_555 1_555
H57A C41A 1_555 1_555
H58A C41A 1_555 1_555
C42A C41A 1_555 1_555
H59A C42A 1_555 1_555
H60A C42A 1_555 1_555
C43A C42A 1_555 1_555
H61A C43A 1_555 1_555
H62A C43A 1_555 1_555
C44A C43A 1_555 1_555
H63A C44A 1_555 1_555
H64A C44A 1_555 1_555
C45A C44A 1_555 1_555
H65A C45A 1_555 1_555
H66A C45A 1_555 1_555
H67A C45A 1_555 1_555
C9 C10 1_555 1_555
C31 C32 1_555 1_555
C9A C10A 1_555 1_555
C31A C32A 1_555 1_555

#END
