
#######################################################################
#
#                 Cambridge Crystallographic Data Centre
#                                CCDC 
#
#######################################################################
#
# If this CIF has been generated from an entry in the Cambridge 
# Structural Database, then it will include bibliographic, chemical, 
# crystal, experimental, refinement or atomic coordinate data resulting 
# from the CCDC's data processing and validation procedures.
#
#######################################################################

data_ATIPIE
_chemical_formula_moiety         'C46 H70 N6 O2'
_chemical_name_systematic        
2,3-bis((4-(dipropylamino)-2-(octyloxy)benzylidene)amino)but-2-enedinitrile
_symmetry_cell_setting           triclinic
_symmetry_space_group_name_H-M   'P -1'
_symmetry_Int_Tables_number      2
_space_group_name_Hall           '-P 1'
loop_
_symmetry_equiv_pos_site_id
_symmetry_equiv_pos_as_xyz
1 x,y,z
2 -x,-y,-z
_cell_length_a                   8.4180(2)
_cell_length_b                   9.4288(2)
_cell_length_c                   15.4182(4)
_cell_angle_alpha                95.9113(14)
_cell_angle_beta                 97.4311(14)
_cell_angle_gamma                105.1529(12)
_cell_volume                     1159.27
_exptl_crystal_colour            red
_exptl_crystal_description       block
_cell_formula_units_Z            1
loop_
_atom_site_label
_atom_site_type_symbol
_atom_site_fract_x
_atom_site_fract_y
_atom_site_fract_z
O1 O 0.0376(3) 0.2713(3) 0.57344(18)
N1 N -0.3584(5) 0.4902(4) 0.6868(2)
N2 N -0.3493(4) 0.4086(3) 0.4634(2)
N3 N 0.1610(4) 0.1154(3) 0.2875(2)
C1 C -0.3967(5) 0.4880(4) 0.6133(3)
C2 C -0.4356(4) 0.4744(4) 0.5179(3)
C3 C -0.2229(5) 0.3663(4) 0.4984(2)
H1 H -0.1932 0.3813 0.5596
C4 C -0.1283(5) 0.2971(4) 0.4454(3)
C5 C 0.0086(5) 0.2516(4) 0.4832(3)
C6 C 0.1035(5) 0.1915(4) 0.4321(3)
H2 H 0.1939 0.1638 0.4592
C7 C 0.0652(5) 0.1714(4) 0.3396(3)
C8 C -0.0752(5) 0.2106(4) 0.3013(3)
H3 H -0.1057 0.1949 0.2401
C9 C -0.1673(5) 0.2717(4) 0.3529(3)
H4 H -0.2591 0.2973 0.3258
C10 C 0.3248(5) 0.0985(4) 0.3253(3)
H5 H 0.3728 0.1746 0.3760
H6 H 0.3985 0.1156 0.2817
C11 C 0.3195(5) -0.0487(4) 0.3534(3)
H7 H 0.2600 -0.1265 0.3052
H8 H 0.2591 -0.0612 0.4029
C12 C 0.4947(5) -0.0640(4) 0.3805(3)
H9 H 0.4870 -0.1599 0.3982
H10 H 0.5540 -0.0535 0.3313
H11 H 0.5532 0.0118 0.4289
C13 C 0.1178(5) 0.0833(5) 0.1914(3)
H12 H -0.0027 0.0533 0.1749
H13 H 0.1589 0.0014 0.1702
C14 C 0.1918(8) 0.2184(5) 0.1473(3)
H14 H 0.1441 0.2982 0.1643
H15 H 0.3115 0.2531 0.1665
C15 C 0.1562(9) 0.1782(7) 0.0530(4)
H16 H 0.2027 0.2630 0.0255
H17 H 0.2045 0.0999 0.0364
H18 H 0.0376 0.1450 0.0342
C16 C 0.1713(5) 0.2237(4) 0.6167(3)
H19 H 0.2769 0.2800 0.6030
H20 H 0.1562 0.1193 0.5968
C17 C 0.1709(5) 0.2487(5) 0.7150(3)
H21 H 0.0649 0.1903 0.7270
H22 H 0.2576 0.2120 0.7447
C18 C 0.1971(6) 0.4043(5) 0.7534(3)
H23 H 0.1033 0.4376 0.7290
H24 H 0.2963 0.4648 0.7357
C19 C 0.2161(7) 0.4298(6) 0.8529(3)
H25 H 0.1137 0.3745 0.8703
H26 H 0.3047 0.3899 0.8771
C20 C 0.2538(8) 0.5865(7) 0.8927(4)
H27 H 0.3467 0.6440 0.8685
H28 H 0.1581 0.6221 0.8748
C21 C 0.2954(10) 0.6163(8) 0.9900(5)
H29 H 0.1990 0.5657 1.0144
H30 H 0.3852 0.5736 1.0084
C22 C 0.3453(12) 0.7720(10) 1.0279(6)
H31 H 0.4339 0.8246 0.9989
H32 H 0.2513 0.8121 1.0147
C23 C 0.4005(12) 0.8015(10) 1.1196(5)
H33 H 0.4306 0.9066 1.1385
H34 H 0.3128 0.7527 1.1494
H35 H 0.4959 0.7653 1.1335
O1A O -1.0376(3) 0.7287(3) 0.42656(18)
N1A N -0.6416(5) 0.5098(4) 0.3132(2)
N2A N -0.6507(4) 0.5914(3) 0.5366(2)
N3A N -1.1610(4) 0.8846(3) 0.7125(2)
C1A C -0.6033(5) 0.5120(4) 0.3867(3)
C2A C -0.5644(4) 0.5256(4) 0.4821(3)
C3A C -0.7771(5) 0.6337(4) 0.5016(2)
H1A H -0.8068 0.6187 0.4404
C4A C -0.8717(5) 0.7029(4) 0.5546(3)
C5A C -1.0086(5) 0.7484(4) 0.5168(3)
C6A C -1.1035(5) 0.8085(4) 0.5679(3)
H2A H -1.1939 0.8362 0.5408
C7A C -1.0652(5) 0.8286(4) 0.6604(3)
C8A C -0.9248(5) 0.7894(4) 0.6987(3)
H3A H -0.8943 0.8051 0.7599
C9A C -0.8327(5) 0.7283(4) 0.6471(3)
H4A H -0.7409 0.7027 0.6742
C10A C -1.3248(5) 0.9015(4) 0.6747(3)
H5A H -1.3728 0.8254 0.6240
H6A H -1.3985 0.8844 0.7183
C11A C -1.3195(5) 1.0487(4) 0.6466(3)
H7A H -1.2600 1.1265 0.6948
H8A H -1.2591 1.0612 0.5971
C12A C -1.4947(5) 1.0640(4) 0.6195(3)
H9A H -1.4870 1.1599 0.6018
H10A H -1.5540 1.0535 0.6687
H11A H -1.5532 0.9882 0.5711
C13A C -1.1178(5) 0.9167(5) 0.8086(3)
H12A H -0.9973 0.9467 0.8251
H13A H -1.1589 0.9986 0.8298
C14A C -1.1918(8) 0.7816(5) 0.8527(3)
H14A H -1.1441 0.7018 0.8357
H15A H -1.3115 0.7469 0.8335
C15A C -1.1562(9) 0.8218(7) 0.9470(4)
H16A H -1.2027 0.7370 0.9745
H17A H -1.2045 0.9001 0.9636
H18A H -1.0376 0.8550 0.9658
C16A C -1.1713(5) 0.7763(4) 0.3833(3)
H19A H -1.2769 0.7200 0.3970
H20A H -1.1562 0.8807 0.4032
C17A C -1.1709(5) 0.7513(5) 0.2850(3)
H21A H -1.0649 0.8097 0.2730
H22A H -1.2576 0.7880 0.2553
C18A C -1.1971(6) 0.5957(5) 0.2466(3)
H23A H -1.1033 0.5624 0.2710
H24A H -1.2963 0.5352 0.2643
C19A C -1.2161(7) 0.5702(6) 0.1471(3)
H25A H -1.1137 0.6255 0.1297
H26A H -1.3047 0.6101 0.1229
C20A C -1.2538(8) 0.4135(7) 0.1073(4)
H27A H -1.3467 0.3560 0.1315
H28A H -1.1581 0.3779 0.1252
C21A C -1.2954(10) 0.3837(8) 0.0100(5)
H29A H -1.1990 0.4343 -0.0144
H30A H -1.3852 0.4264 -0.0084
C22A C -1.3453(12) 0.2280(10) -0.0279(6)
H31A H -1.4339 0.1754 0.0011
H32A H -1.2513 0.1879 -0.0147
C23A C -1.4005(12) 0.1985(10) -0.1196(5)
H33A H -1.4306 0.0934 -0.1385
H34A H -1.3128 0.2473 -0.1494
H35A H -1.4959 0.2347 -0.1335
loop_
_geom_bond_atom_site_label_1
_geom_bond_atom_site_label_2
_geom_bond_site_symmetry_1
_geom_bond_site_symmetry_2
O1 C5 1_555 1_555
N1 C1 1_555 1_555
N2 C2 1_555 1_555
N3 C7 1_555 1_555
C1 C2 1_555 1_555
C2 C2A 1_555 1_555
C3 N2 1_555 1_555
H1 C3 1_555 1_555
C4 C3 1_555 1_555
C5 C4 1_555 1_555
C6 C5 1_555 1_555
H2 C6 1_555 1_555
C7 C6 1_555 1_555
C8 C7 1_555 1_555
H3 C8 1_555 1_555
C9 C4 1_555 1_555
H4 C9 1_555 1_555
C10 N3 1_555 1_555
H5 C10 1_555 1_555
H6 C10 1_555 1_555
C11 C10 1_555 1_555
H7 C11 1_555 1_555
H8 C11 1_555 1_555
C12 C11 1_555 1_555
H9 C12 1_555 1_555
H10 C12 1_555 1_555
H11 C12 1_555 1_555
C13 N3 1_555 1_555
H12 C13 1_555 1_555
H13 C13 1_555 1_555
C14 C13 1_555 1_555
H14 C14 1_555 1_555
H15 C14 1_555 1_555
C15 C14 1_555 1_555
H16 C15 1_555 1_555
H17 C15 1_555 1_555
H18 C15 1_555 1_555
C16 O1 1_555 1_555
H19 C16 1_555 1_555
H20 C16 1_555 1_555
C17 C16 1_555 1_555
H21 C17 1_555 1_555
H22 C17 1_555 1_555
C18 C17 1_555 1_555
H23 C18 1_555 1_555
H24 C18 1_555 1_555
C19 C18 1_555 1_555
H25 C19 1_555 1_555
H26 C19 1_555 1_555
C20 C19 1_555 1_555
H27 C20 1_555 1_555
H28 C20 1_555 1_555
C21 C20 1_555 1_555
H29 C21 1_555 1_555
H30 C21 1_555 1_555
C22 C21 1_555 1_555
H31 C22 1_555 1_555
H32 C22 1_555 1_555
C23 C22 1_555 1_555
H33 C23 1_555 1_555
H34 C23 1_555 1_555
H35 C23 1_555 1_555
O1A C5A 1_555 1_555
N1A C1A 1_555 1_555
N2A C2A 1_555 1_555
N3A C7A 1_555 1_555
C1A C2A 1_555 1_555
C3A N2A 1_555 1_555
H1A C3A 1_555 1_555
C4A C3A 1_555 1_555
C5A C4A 1_555 1_555
C6A C5A 1_555 1_555
H2A C6A 1_555 1_555
C7A C6A 1_555 1_555
C8A C7A 1_555 1_555
H3A C8A 1_555 1_555
C9A C4A 1_555 1_555
H4A C9A 1_555 1_555
C10A N3A 1_555 1_555
H5A C10A 1_555 1_555
H6A C10A 1_555 1_555
C11A C10A 1_555 1_555
H7A C11A 1_555 1_555
H8A C11A 1_555 1_555
C12A C11A 1_555 1_555
H9A C12A 1_555 1_555
H10A C12A 1_555 1_555
H11A C12A 1_555 1_555
C13A N3A 1_555 1_555
H12A C13A 1_555 1_555
H13A C13A 1_555 1_555
C14A C13A 1_555 1_555
H14A C14A 1_555 1_555
H15A C14A 1_555 1_555
C15A C14A 1_555 1_555
H16A C15A 1_555 1_555
H17A C15A 1_555 1_555
H18A C15A 1_555 1_555
C16A O1A 1_555 1_555
H19A C16A 1_555 1_555
H20A C16A 1_555 1_555
C17A C16A 1_555 1_555
H21A C17A 1_555 1_555
H22A C17A 1_555 1_555
C18A C17A 1_555 1_555
H23A C18A 1_555 1_555
H24A C18A 1_555 1_555
C19A C18A 1_555 1_555
H25A C19A 1_555 1_555
H26A C19A 1_555 1_555
C20A C19A 1_555 1_555
H27A C20A 1_555 1_555
H28A C20A 1_555 1_555
C21A C20A 1_555 1_555
H29A C21A 1_555 1_555
H30A C21A 1_555 1_555
C22A C21A 1_555 1_555
H31A C22A 1_555 1_555
H32A C22A 1_555 1_555
C23A C22A 1_555 1_555
H33A C23A 1_555 1_555
H34A C23A 1_555 1_555
H35A C23A 1_555 1_555
C8 C9 1_555 1_555
C8A C9A 1_555 1_555

#END
