
#######################################################################
#
#                 Cambridge Crystallographic Data Centre
#                                CCDC 
#
#######################################################################
#
# If this CIF has been generated from an entry in the Cambridge 
# Structural Database, then it will include bibliographic, chemical, 
# crystal, experimental, refinement or atomic coordinate data resulting 
# from the CCDC's data processing and validation procedures.
#
#######################################################################

data_ATIQUQ
_chemical_formula_moiety         'C24 H24 N2 Si2'
_chemical_name_systematic        
4,4'-(1,4-Phenylenebis(dimethylsilanediyl))dibenzonitrile
_symmetry_cell_setting           monoclinic
_symmetry_space_group_name_H-M   'P 21/n'
_symmetry_Int_Tables_number      14
_space_group_name_Hall           '-P 2yn'
loop_
_symmetry_equiv_pos_site_id
_symmetry_equiv_pos_as_xyz
1 x,y,z
2 1/2-x,1/2+y,1/2-z
3 -x,-y,-z
4 1/2+x,1/2-y,1/2+z
_cell_length_a                   12.721(10)
_cell_length_b                   6.154(5)
_cell_length_c                   15.109(11)
_cell_angle_alpha                90
_cell_angle_beta                 103.610(13)
_cell_angle_gamma                90
_cell_volume                     1149.6
_exptl_crystal_colour            colorless
_exptl_crystal_description       plate
_cell_formula_units_Z            2
loop_
_atom_site_label
_atom_site_type_symbol
_atom_site_fract_x
_atom_site_fract_y
_atom_site_fract_z
C1 C 0.0954(2) 0.4676(4) 0.97449(18)
Si1 Si 0.00895(6) 0.17809(11) 0.82446(4)
C2 C -0.02909(19) 0.3524(4) 0.71926(15)
C3 C 0.0048(2) 0.3575(4) 0.92532(15)
C4 C -0.1182(2) 0.7777(5) 0.49024(19)
C5 C 0.0390(2) 0.5190(5) 0.70345(19)
C6 C 0.0122(2) 0.6582(5) 0.62932(19)
C7 C -0.0859(2) 0.6313(4) 0.56706(16)
C8 C -0.1254(2) 0.3280(5) 0.65411(18)
C9 C -0.0911(2) 0.3947(4) 0.95324(18)
N1 N -0.1464(2) 0.8940(4) 0.42970(18)
C10 C -0.1546(3) 0.4654(5) 0.5789(2)
C11 C -0.0920(3) -0.0458(5) 0.8163(3)
C12 C 0.1481(3) 0.0725(7) 0.8332(3)
H1 H 0.202(3) 0.190(5) 0.8456(18)
H2 H -0.1552(19) 0.318(4) 0.9207(15)
H3 H 0.1639(18) 0.446(4) 0.9619(14)
H4 H 0.168(3) -0.035(6) 0.882(2)
H5 H -0.073(3) -0.132(5) 0.867(2)
H6 H -0.096(2) -0.144(5) 0.764(2)
H7 H -0.176(2) 0.219(4) 0.6625(16)
H8 H 0.111(2) 0.536(4) 0.7433(17)
H9 H -0.160(3) 0.011(6) 0.814(2)
H10 H 0.059(2) 0.769(4) 0.6159(16)
H11 H 0.154(2) 0.004(5) 0.781(2)
H12 H -0.222(2) 0.437(5) 0.537(2)
C1B C -0.0954(2) 0.5324(4) 1.02551(18)
Si1B Si -0.00895(6) 0.82191(11) 1.17554(4)
C2B C 0.02909(19) 0.6476(4) 1.28074(15)
C3B C -0.0048(2) 0.6425(4) 1.07468(15)
C4B C 0.1182(2) 0.2223(5) 1.50976(19)
C5B C -0.0390(2) 0.4810(5) 1.29655(19)
C6B C -0.0122(2) 0.3418(5) 1.37068(19)
C7B C 0.0859(2) 0.3687(4) 1.43294(16)
C8B C 0.1254(2) 0.6720(5) 1.34589(18)
C9B C 0.0911(2) 0.6053(4) 1.04676(18)
N1B N 0.1464(2) 0.1060(4) 1.57030(18)
C10B C 0.1546(3) 0.5346(5) 1.4211(2)
C11B C 0.0920(3) 1.0458(5) 1.1837(3)
C12B C -0.1481(3) 0.9275(7) 1.1668(3)
H1B H -0.202(3) 0.810(5) 1.1544(18)
H2B H 0.1552(19) 0.682(4) 1.0793(15)
H3B H -0.1639(18) 0.554(4) 1.0381(14)
H4B H -0.168(3) 1.035(6) 1.118(2)
H5B H 0.073(3) 1.132(5) 1.133(2)
H6B H 0.096(2) 1.144(5) 1.236(2)
H7B H 0.176(2) 0.781(4) 1.3375(16)
H8B H -0.111(2) 0.464(4) 1.2567(17)
H9B H 0.160(3) 0.989(6) 1.186(2)
H10B H -0.059(2) 0.231(4) 1.3841(16)
H11B H -0.154(2) 0.996(5) 1.219(2)
H12B H 0.222(2) 0.563(5) 1.463(2)
loop_
_geom_bond_atom_site_label_1
_geom_bond_atom_site_label_2
_geom_bond_site_symmetry_1
_geom_bond_site_symmetry_2
C1 C3 1_555 1_555
Si1 C2 1_555 1_555
C2 C5 1_555 1_555
C3 Si1 1_555 1_555
C4 C7 1_555 1_555
C5 C6 1_555 1_555
C6 C7 1_555 1_555
C7 C10 1_555 1_555
C8 C2 1_555 1_555
C9 C3 1_555 1_555
N1 C4 1_555 1_555
C10 C8 1_555 1_555
C11 Si1 1_555 1_555
C12 Si1 1_555 1_555
H1 C12 1_555 1_555
H2 C9 1_555 1_555
H3 C1 1_555 1_555
H4 C12 1_555 1_555
H5 C11 1_555 1_555
H6 C11 1_555 1_555
H7 C8 1_555 1_555
H8 C5 1_555 1_555
H9 C11 1_555 1_555
H10 C6 1_555 1_555
H11 C12 1_555 1_555
H12 C10 1_555 1_555
C1B C9 1_555 1_555
Si1B C2B 1_555 1_555
C2B C5B 1_555 1_555
C3B C1B 1_555 1_555
C4B C7B 1_555 1_555
C5B C6B 1_555 1_555
C6B C7B 1_555 1_555
C7B C10B 1_555 1_555
C8B C2B 1_555 1_555
C9B C1 1_555 1_555
N1B C4B 1_555 1_555
C10B C8B 1_555 1_555
C11B Si1B 1_555 1_555
C12B Si1B 1_555 1_555
H1B C12B 1_555 1_555
H2B C9B 1_555 1_555
H3B C1B 1_555 1_555
H4B C12B 1_555 1_555
H5B C11B 1_555 1_555
H6B C11B 1_555 1_555
H7B C8B 1_555 1_555
H8B C5B 1_555 1_555
H9B C11B 1_555 1_555
H10B C6B 1_555 1_555
H11B C12B 1_555 1_555
H12B C10B 1_555 1_555
Si1B C3B 1_555 1_555
C3B C9B 1_555 1_555

#END
