
#######################################################################
#
#                 Cambridge Crystallographic Data Centre
#                                CCDC 
#
#######################################################################
#
# If this CIF has been generated from an entry in the Cambridge 
# Structural Database, then it will include bibliographic, chemical, 
# crystal, experimental, refinement or atomic coordinate data resulting 
# from the CCDC's data processing and validation procedures.
#
#######################################################################

data_ATIQOL
_chemical_formula_moiety         'C14 H20 O7'
_chemical_name_systematic        
'6-(pentan-3-yloxy)cyclohex-4-ene-1,2,4-tricarboxylic acid'
_symmetry_cell_setting           triclinic
_symmetry_space_group_name_H-M   'P -1'
_symmetry_Int_Tables_number      2
_space_group_name_Hall           '-P 1'
loop_
_symmetry_equiv_pos_site_id
_symmetry_equiv_pos_as_xyz
1 x,y,z
2 -x,-y,-z
_cell_length_a                   5.2690(3)
_cell_length_b                   9.9100(5)
_cell_length_c                   14.3726(5)
_cell_angle_alpha                96.045(4)
_cell_angle_beta                 97.190(4)
_cell_angle_gamma                101.880(5)
_cell_volume                     721.956
_exptl_crystal_description       plate
_cell_formula_units_Z            2
loop_
_atom_site_label
_atom_site_type_symbol
_atom_site_fract_x
_atom_site_fract_y
_atom_site_fract_z
O1 O -0.2451(5) 1.0090(3) 0.08327(16)
O2 O -0.6380(5) 0.8627(3) 0.06229(18)
H1 H -0.658(9) 0.901(5) 0.016(3)
O3 O 0.2144(5) 1.0436(2) 0.43448(17)
H2 H 0.399(8) 1.089(4) 0.484(3)
O4 O 0.3657(5) 0.8489(2) 0.43457(17)
O5 O 0.0971(5) 0.5199(2) 0.39775(16)
O6 O -0.1488(5) 0.6439(3) 0.47058(16)
H3 H -0.120(8) 0.595(4) 0.514(3)
O7 O -0.3787(5) 0.4885(2) 0.21942(15)
C1 C -0.3983(7) 0.9112(4) 0.1056(2)
C2 C -0.3148(6) 0.8383(3) 0.1854(2)
C3 C -0.0672(7) 0.9106(3) 0.2505(2)
H4 H -0.0666 1.0104 0.2659
H5 H 0.0868 0.9035 0.2188
C4 C -0.0500(6) 0.8430(3) 0.3418(2)
H6 H -0.2005 0.8583 0.3744
C5 C -0.0835(7) 0.6851(3) 0.3156(2)
H7 H 0.0400 0.6686 0.2704
C6 C -0.3659(6) 0.6233(3) 0.2662(2)
H8 H -0.4871 0.6167 0.3146
C7 C -0.4489(7) 0.7127(3) 0.1950(2)
H9 H -0.6097 0.6766 0.1536
C8 C 0.1968(7) 0.9100(3) 0.4072(2)
C9 C -0.0321(6) 0.6090(3) 0.4000(2)
C10 C -0.6123(7) 0.3855(4) 0.2270(2)
H10 H -0.7572 0.4343 0.2366
C11 C -0.5577(7) 0.3119(4) 0.3126(3)
H11 H -0.7248 0.2530 0.3233
H12 H -0.4930 0.3829 0.3690
C12 C -0.3580(8) 0.2208(4) 0.3037(3)
H13 H -0.3341 0.1772 0.3613
H14 H -0.1900 0.2784 0.2949
H15 H -0.4221 0.1484 0.2491
C13 C -0.6889(8) 0.2895(4) 0.1336(3)
H16 H -0.8210 0.2063 0.1414
H17 H -0.5325 0.2581 0.1161
C14 C -0.8011(9) 0.3603(4) 0.0539(3)
H18 H -0.8465 0.2950 -0.0049
H19 H -0.6700 0.4420 0.0452
H20 H -0.9587 0.3894 0.0701
loop_
_geom_bond_atom_site_label_1
_geom_bond_atom_site_label_2
_geom_bond_site_symmetry_1
_geom_bond_site_symmetry_2
O1 C1 1_555 1_555
O2 H1 1_555 1_555
O3 H2 1_555 1_555
O4 C8 1_555 1_555
O5 C9 1_555 1_555
O6 H3 1_555 1_555
O7 C6 1_555 1_555
C1 O2 1_555 1_555
C2 C1 1_555 1_555
C3 C2 1_555 1_555
H4 C3 1_555 1_555
H5 C3 1_555 1_555
C4 C3 1_555 1_555
H6 C4 1_555 1_555
C5 C4 1_555 1_555
H7 C5 1_555 1_555
C6 C5 1_555 1_555
H8 C6 1_555 1_555
C7 C2 1_555 1_555
H9 C7 1_555 1_555
C8 O3 1_555 1_555
C9 O6 1_555 1_555
C10 O7 1_555 1_555
H10 C10 1_555 1_555
C11 C10 1_555 1_555
H11 C11 1_555 1_555
H12 C11 1_555 1_555
C12 C11 1_555 1_555
H13 C12 1_555 1_555
H14 C12 1_555 1_555
H15 C12 1_555 1_555
C13 C10 1_555 1_555
H16 C13 1_555 1_555
H17 C13 1_555 1_555
C14 C13 1_555 1_555
H18 C14 1_555 1_555
H19 C14 1_555 1_555
H20 C14 1_555 1_555
C4 C8 1_555 1_555
C5 C9 1_555 1_555
C6 C7 1_555 1_555

#END
