
#######################################################################
#
#                 Cambridge Crystallographic Data Centre
#                                CCDC 
#
#######################################################################
#
# If this CIF has been generated from an entry in the Cambridge 
# Structural Database, then it will include bibliographic, chemical, 
# crystal, experimental, refinement or atomic coordinate data resulting 
# from the CCDC's data processing and validation procedures.
#
#######################################################################

data_ATISUT
_chemical_name_common            
'3-oxo-2,4-di(propan-2-yl)-6-(1,2,3,4-tetrahydroxybutyl)-3,4-dihydro-1,2,4,5-tetrazin-1(2H)-yl radical'
_chemical_formula_moiety         'C12 H23 N4 O5'
_chemical_name_systematic        
"1'S,2'S,3'R-1,5-Diisopropyl-3-(1',2',3',4'-tetrahydroxybutyl)-6-oxoverdazyl radical"
_symmetry_cell_setting           monoclinic
_symmetry_space_group_name_H-M   'P 1 1 21'
_symmetry_Int_Tables_number      4
_space_group_name_Hall           'P 2c'
loop_
_symmetry_equiv_pos_site_id
_symmetry_equiv_pos_as_xyz
1 x,y,z
2 -x,-y,1/2+z
_cell_length_a                   5.6686(3)
_cell_length_b                   8.2767(4)
_cell_length_c                   33.8450(18)
_cell_angle_alpha                90
_cell_angle_beta                 90
_cell_angle_gamma                98.598(2)
_cell_volume                     1570.07
_exptl_crystal_colour            yellow
_exptl_crystal_description       rod
_chemical_melting_point          '383 K'
_cell_formula_units_Z            4
_chemical_properties_physical    paramagnetic
_exptl_crystal_recrystallization_method methanol
loop_
_atom_site_label
_atom_site_type_symbol
_atom_site_fract_x
_atom_site_fract_y
_atom_site_fract_z
O1 O 0.3703(3) 0.34461(18) 0.71730(5)
O2 O 0.1914(3) 0.72990(19) 0.74935(5)
O3 O 0.1339(3) 0.49364(19) 0.65809(5)
N1 N 0.4279(3) 0.7875(2) 0.60602(6)
N2 N 0.4300(3) 0.8568(2) 0.56924(6)
O4 O 0.7696(3) 0.6516(2) 0.66193(5)
N3 N 0.5887(3) 0.5646(2) 0.57709(6)
O5 O 0.5173(3) 0.8564(2) 0.50304(5)
N4 N 0.5941(3) 0.6428(2) 0.54143(6)
C1 C 0.3830(4) 0.5195(2) 0.71731(6)
H1 H 0.5443 0.5701 0.7268
C2 C 0.5101(4) 0.6446(2) 0.60688(6)
C3 C 0.1949(4) 0.5583(3) 0.74671(7)
H2 H 0.0359 0.5030 0.7383
H3 H 0.2293 0.5157 0.7731
C4 C 0.5136(4) 0.7904(3) 0.53537(7)
C5 C 0.3250(4) 1.0104(3) 0.56663(8)
H4 H 0.3763 1.0650 0.5410
C6 C 0.3414(4) 0.5846(2) 0.67585(6)
H5 H 0.3182 0.7017 0.6780
C7 C 0.7007(5) 0.5599(3) 0.50835(7)
H6 H 0.7631 0.6450 0.4885
C8 C 0.5452(4) 0.5720(3) 0.64715(6)
H7 H 0.5571 0.4536 0.6435
C9 C 0.4146(6) 1.1259(3) 0.59999(9)
H8 H 0.3595 1.0767 0.6253
H9 H 0.3529 1.2294 0.5966
H10 H 0.5894 1.1461 0.5996
C10 C 0.5112(7) 0.4386(5) 0.48836(10)
H11 H 0.4434 0.3557 0.5075
H12 H 0.5830 0.3857 0.4665
H13 H 0.3847 0.4960 0.4782
C11 C 0.0545(5) 0.9679(4) 0.56625(12)
H14 H 0.0051 0.8964 0.5437
H15 H -0.0167 1.0684 0.5639
H16 H 0.0008 0.9117 0.5908
C12 C 0.9087(6) 0.4806(5) 0.52283(10)
H17 H 1.0226 0.5619 0.5367
H18 H 0.9877 0.4375 0.5002
H19 H 0.8503 0.3910 0.5409
H20 H 0.745(5) 0.719(4) 0.6802(10)
H21 H 0.035(5) 0.563(3) 0.6575(9)
H22 H 0.495(6) 0.316(4) 0.7074(10)
H23 H 0.301(6) 0.768(4) 0.7632(11)
O6 O 0.7926(3) 0.2584(2) 0.68636(5)
O7 O 0.7972(3) -0.15384(17) 0.72407(5)
O8 O 1.0964(3) 0.11312(19) 0.76603(5)
N5 N 0.9749(4) 0.1171(2) 0.89747(6)
N6 N 0.7339(4) 0.2424(2) 0.83822(6)
O9 O 0.9416(4) 0.3424(2) 0.93529(5)
N7 N 0.7873(4) 0.3262(2) 0.87273(6)
O10 O 0.4924(3) -0.0532(2) 0.79658(5)
N8 N 0.9222(4) 0.0262(2) 0.86397(6)
C13 C 0.8421(4) 0.0983(2) 0.76253(7)
H24 H 0.7931 0.2095 0.7632
C14 C 0.7520(4) 0.0114(2) 0.72439(6)
H25 H 0.5752 0.0089 0.7233
C15 C 0.7434(4) 0.0013(2) 0.79898(6)
H26 H 0.8232 -0.0985 0.8003
C16 C 0.8070(4) 0.0972(3) 0.83657(6)
C17 C 0.7059(5) 0.4877(3) 0.87505(8)
H27 H 0.7748 0.5436 0.8995
C18 C 1.1042(5) 0.0397(3) 0.92878(7)
H28 H 1.1814 0.1281 0.9467
C19 C 0.9035(4) 0.2674(3) 0.90447(7)
C20 C 0.8580(4) 0.0987(3) 0.68739(6)
H29 H 1.0339 0.1062 0.6878
H30 H 0.7969 0.0367 0.6636
C21 C 0.9292(6) -0.0761(4) 0.95308(9)
H31 H 0.8075 -0.0166 0.9642
H32 H 1.0144 -0.1217 0.9746
H33 H 0.8525 -0.1649 0.9362
C22 C 0.4357(7) 0.4616(5) 0.87894(15)
H34 H 0.3646 0.3985 0.8563
H35 H 0.3790 0.5677 0.8797
H36 H 0.3894 0.4016 0.9034
C23 C 1.2984(5) -0.0426(4) 0.91071(9)
H37 H 1.2264 -0.1378 0.8954
H38 H 1.3981 -0.0779 0.9317
H39 H 1.3968 0.0345 0.8933
C24 C 0.7972(9) 0.5913(4) 0.84021(11)
H40 H 0.9710 0.5978 0.8386
H41 H 0.7558 0.7013 0.8434
H42 H 0.7244 0.5422 0.8159
H43 H 0.428(6) 0.023(4) 0.7974(10)
H44 H 0.940(6) -0.163(4) 0.7323(10)
H45 H 1.149(6) 0.188(4) 0.7506(11)
H46 H 0.891(8) 0.331(5) 0.6780(12)
loop_
_geom_bond_atom_site_label_1
_geom_bond_atom_site_label_2
_geom_bond_site_symmetry_1
_geom_bond_site_symmetry_2
O1 C1 1_555 1_555
O2 C3 1_555 1_555
O3 C6 1_555 1_555
N1 N2 1_555 1_555
N2 C4 1_555 1_555
O4 C8 1_555 1_555
N3 N4 1_555 1_555
O5 C4 1_555 1_555
N4 C4 1_555 1_555
C1 H1 1_555 1_555
C2 N1 1_555 1_555
C3 C1 1_555 1_555
H2 C3 1_555 1_555
H3 C3 1_555 1_555
C5 N2 1_555 1_555
H4 C5 1_555 1_555
C6 C1 1_555 1_555
H5 C6 1_555 1_555
C7 N4 1_555 1_555
H6 C7 1_555 1_555
C8 C2 1_555 1_555
H7 C8 1_555 1_555
C9 C5 1_555 1_555
H8 C9 1_555 1_555
H9 C9 1_555 1_555
H10 C9 1_555 1_555
C10 C7 1_555 1_555
H11 C10 1_555 1_555
H12 C10 1_555 1_555
H13 C10 1_555 1_555
C11 C5 1_555 1_555
H14 C11 1_555 1_555
H15 C11 1_555 1_555
H16 C11 1_555 1_555
C12 C7 1_555 1_555
H17 C12 1_555 1_555
H18 C12 1_555 1_555
H19 C12 1_555 1_555
H20 O4 1_555 1_555
H21 O3 1_555 1_555
H22 O1 1_555 1_555
H23 O2 1_555 1_555
O6 C20 1_555 1_555
O7 C14 1_555 1_555
O8 C13 1_555 1_555
N5 N8 1_555 1_555
N6 N7 1_555 1_555
O9 C19 1_555 1_555
N7 C17 1_555 1_555
O10 C15 1_555 1_555
N8 C16 1_555 1_555
C13 H24 1_555 1_555
C14 C13 1_555 1_555
H25 C14 1_555 1_555
C15 C13 1_555 1_555
H26 C15 1_555 1_555
C16 N6 1_555 1_555
C17 H27 1_555 1_555
C18 N5 1_555 1_555
H28 C18 1_555 1_555
C19 N5 1_555 1_555
C20 C14 1_555 1_555
H29 C20 1_555 1_555
H30 C20 1_555 1_555
C21 C18 1_555 1_555
H31 C21 1_555 1_555
H32 C21 1_555 1_555
H33 C21 1_555 1_555
C22 C17 1_555 1_555
H34 C22 1_555 1_555
H35 C22 1_555 1_555
H36 C22 1_555 1_555
C23 C18 1_555 1_555
H37 C23 1_555 1_555
H38 C23 1_555 1_555
H39 C23 1_555 1_555
C24 C17 1_555 1_555
H40 C24 1_555 1_555
H41 C24 1_555 1_555
H42 C24 1_555 1_555
H43 O10 1_555 1_555
H44 O7 1_555 1_555
H45 O8 1_555 1_555
H46 O6 1_555 1_555
N3 C2 1_555 1_555
C6 C8 1_555 1_555
N7 C19 1_555 1_555
C15 C16 1_555 1_555

#END
