
#######################################################################
#
#                 Cambridge Crystallographic Data Centre
#                                CCDC 
#
#######################################################################
#
# If this CIF has been generated from an entry in the Cambridge 
# Structural Database, then it will include bibliographic, chemical, 
# crystal, experimental, refinement or atomic coordinate data resulting 
# from the CCDC's data processing and validation procedures.
#
#######################################################################

data_ATISEC
_chemical_formula_moiety         'C37 H35 B1 N2,0.5(C6 H14)'
_chemical_name_systematic        
"5-Mesityl-1,3,4a-trimethyl-11-phenyl-4a,5-dihydro-11H-6\l^5^,5\l^5^-[1]benzoborireno[1',5a':2,3]pyrido-[1',2':1,6][1,2]azaborinino[5,4-b]indole hexane solvate"
_symmetry_cell_setting           monoclinic
_symmetry_space_group_name_H-M   'P 21/c'
_symmetry_Int_Tables_number      14
_space_group_name_Hall           '-P 2ybc'
loop_
_symmetry_equiv_pos_site_id
_symmetry_equiv_pos_as_xyz
1 x,y,z
2 -x,1/2+y,1/2-z
3 -x,-y,-z
4 x,1/2-y,1/2+z
_cell_length_a                   15.4517(17)
_cell_length_b                   13.3461(11)
_cell_length_c                   15.9493(15)
_cell_angle_alpha                90
_cell_angle_beta                 111.807(7)
_cell_angle_gamma                90
_cell_volume                     3053.7
_exptl_crystal_colour            black
_exptl_crystal_description       block
_cell_formula_units_Z            4
loop_
_atom_site_label
_atom_site_type_symbol
_atom_site_fract_x
_atom_site_fract_y
_atom_site_fract_z
B1 B 0.6755(5) 0.8079(6) 0.1874(5)
N1 N 0.6005(5) 0.8350(4) 0.0904(4)
C1 C 0.6379(6) 0.8313(5) 0.2680(5)
N2 N 0.3885(5) 0.8784(4) 0.1421(4)
C2 C 0.6511(6) 0.7197(5) 0.2431(5)
C3 C 0.7300(6) 0.6717(6) 0.3110(6)
H1 H 0.7372 0.6021 0.3027
C4 C 0.7929(6) 0.7123(7) 0.3828(6)
C5 C 0.7808(7) 0.8173(7) 0.4045(5)
H2 H 0.8273 0.8494 0.4540
C6 C 0.7030(7) 0.8681(6) 0.3536(5)
C7 C 0.5652(5) 0.6549(5) 0.1978(5)
H3 H 0.5836 0.5842 0.2029
H4 H 0.5361 0.6733 0.1339
H5 H 0.5207 0.6655 0.2275
C8 C 0.8788(6) 0.6611(7) 0.4469(6)
H6 H 0.8879 0.5974 0.4207
H7 H 0.8713 0.6484 0.5044
H8 H 0.9332 0.7043 0.4574
C9 C 0.6915(7) 0.9767(6) 0.3825(6)
H9 H 0.6864 0.9757 0.4420
H10 H 0.6350 1.0065 0.3382
H11 H 0.7458 1.0167 0.3857
C10 C 0.7786(6) 0.8250(7) 0.1902(5)
C11 C 0.8224(8) 0.9230(8) 0.2084(6)
C12 C 0.9161(9) 0.9314(9) 0.2185(7)
H12 H 0.9430 0.9964 0.2306
C13 C 0.9726(10) 0.8551(11) 0.2126(8)
C14 C 0.9287(8) 0.7621(9) 0.1904(6)
H13 H 0.9641 0.7073 0.1822
C15 C 0.8357(8) 0.7443(8) 0.1793(6)
C16 C 0.7655(7) 1.0141(7) 0.2083(7)
H14 H 0.7941 1.0498 0.2658
H15 H 0.7021 0.9936 0.2007
H16 H 0.7632 1.0583 0.1585
C17 C 1.0678(7) 0.8662(9) 0.2183(8)
H17 H 1.0718 0.9231 0.1811
H18 H 1.0874 0.8049 0.1965
H19 H 1.1086 0.8782 0.2812
C18 C 0.7915(7) 0.6434(7) 0.1479(7)
H20 H 0.8202 0.5934 0.1950
H21 H 0.8009 0.6241 0.0927
H22 H 0.7245 0.6474 0.1357
C19 C 0.6307(7) 0.8380(5) 0.0191(5)
H23 H 0.6942 0.8234 0.0306
C20 C 0.5746(6) 0.8606(6) -0.0652(6)
H24 H 0.5987 0.8615 -0.1120
C21 C 0.4816(7) 0.8827(5) -0.0850(5)
H25 H 0.4412 0.8983 -0.1449
C22 C 0.4490(7) 0.8815(5) -0.0152(5)
H26 H 0.3856 0.8976 -0.0273
C23 C 0.5067(7) 0.8573(5) 0.0718(5)
C24 C 0.4815(6) 0.8614(5) 0.1526(5)
C25 C 0.5427(6) 0.8607(5) 0.2395(5)
C26 C 0.4810(6) 0.8782(5) 0.2899(5)
C27 C 0.5012(7) 0.8813(5) 0.3874(5)
H27 H 0.5631 0.8755 0.4302
C28 C 0.4275(7) 0.8928(6) 0.4139(6)
H28 H 0.4387 0.8964 0.4765
C29 C 0.3371(8) 0.8995(6) 0.3523(6)
H29 H 0.2881 0.9072 0.3742
C30 C 0.3145(6) 0.8953(5) 0.2583(6)
H30 H 0.2520 0.8989 0.2164
C31 C 0.3888(6) 0.8856(5) 0.2312(6)
C32 C 0.3052(6) 0.8543(7) 0.0735(5)
C33 C 0.2863(7) 0.7522(7) 0.0402(7)
H31 H 0.3321 0.7016 0.0643
C34 C 0.2042(8) 0.7296(9) -0.0246(7)
H32 H 0.1949 0.6627 -0.0466
C35 C 0.1326(8) 0.7966(9) -0.0614(7)
H33 H 0.0744 0.7772 -0.1056
C36 C 0.1508(7) 0.8982(7) -0.0290(6)
H34 H 0.1043 0.9482 -0.0526
C37 C 0.2344(6) 0.9224(7) 0.0352(5)
H35 H 0.2448 0.9901 0.0549
loop_
_geom_bond_atom_site_label_1
_geom_bond_atom_site_label_2
_geom_bond_site_symmetry_1
_geom_bond_site_symmetry_2
B1 N1 1_555 1_555
N1 C19 1_555 1_555
C1 B1 1_555 1_555
N2 C24 1_555 1_555
C2 B1 1_555 1_555
C3 C2 1_555 1_555
H1 C3 1_555 1_555
C4 C3 1_555 1_555
C5 C4 1_555 1_555
H2 C5 1_555 1_555
C6 C1 1_555 1_555
C7 C2 1_555 1_555
H3 C7 1_555 1_555
H4 C7 1_555 1_555
H5 C7 1_555 1_555
C8 C4 1_555 1_555
H6 C8 1_555 1_555
H7 C8 1_555 1_555
H8 C8 1_555 1_555
C9 C6 1_555 1_555
H9 C9 1_555 1_555
H10 C9 1_555 1_555
H11 C9 1_555 1_555
C10 B1 1_555 1_555
C11 C10 1_555 1_555
C12 C11 1_555 1_555
H12 C12 1_555 1_555
C13 C12 1_555 1_555
C14 C13 1_555 1_555
H13 C14 1_555 1_555
C15 C10 1_555 1_555
C16 C11 1_555 1_555
H14 C16 1_555 1_555
H15 C16 1_555 1_555
H16 C16 1_555 1_555
C17 C13 1_555 1_555
H17 C17 1_555 1_555
H18 C17 1_555 1_555
H19 C17 1_555 1_555
C18 C15 1_555 1_555
H20 C18 1_555 1_555
H21 C18 1_555 1_555
H22 C18 1_555 1_555
C19 H23 1_555 1_555
C20 C19 1_555 1_555
H24 C20 1_555 1_555
C21 C20 1_555 1_555
H25 C21 1_555 1_555
C22 C21 1_555 1_555
H26 C22 1_555 1_555
C23 N1 1_555 1_555
C24 C23 1_555 1_555
C25 C1 1_555 1_555
C26 C25 1_555 1_555
C27 C26 1_555 1_555
H27 C27 1_555 1_555
C28 C27 1_555 1_555
H28 C28 1_555 1_555
C29 C28 1_555 1_555
H29 C29 1_555 1_555
C30 C29 1_555 1_555
H30 C30 1_555 1_555
C31 N2 1_555 1_555
C32 N2 1_555 1_555
C33 C32 1_555 1_555
H31 C33 1_555 1_555
C34 C33 1_555 1_555
H32 C34 1_555 1_555
C35 C34 1_555 1_555
H33 C35 1_555 1_555
C36 C35 1_555 1_555
H34 C36 1_555 1_555
C37 C32 1_555 1_555
H35 C37 1_555 1_555
C1 C2 1_555 1_555
C5 C6 1_555 1_555
C14 C15 1_555 1_555
C22 C23 1_555 1_555
C24 C25 1_555 1_555
C26 C31 1_555 1_555
C30 C31 1_555 1_555
C36 C37 1_555 1_555

#END
