
#######################################################################
#
#                 Cambridge Crystallographic Data Centre
#                                CCDC 
#
#######################################################################
#
# If this CIF has been generated from an entry in the Cambridge 
# Structural Database, then it will include bibliographic, chemical, 
# crystal, experimental, refinement or atomic coordinate data resulting 
# from the CCDC's data processing and validation procedures.
#
#######################################################################

data_ATITII
_chemical_formula_moiety         'C48 H39 N3 S2'
_chemical_name_systematic        
4-(4-butyl-6-(4-(diphenylamino)phenyl)-4H-bisthieno[3,2-b:2',3'-d]pyrrol-2-yl)-N,N-diphenylaniline
_symmetry_cell_setting           monoclinic
_symmetry_space_group_name_H-M   'P 21/c'
_symmetry_Int_Tables_number      14
_space_group_name_Hall           '-P 2ybc'
loop_
_symmetry_equiv_pos_site_id
_symmetry_equiv_pos_as_xyz
1 x,y,z
2 -x,1/2+y,1/2-z
3 -x,-y,-z
4 x,1/2-y,1/2+z
_cell_length_a                   23.454(5)
_cell_length_b                   15.151(3)
_cell_length_c                   10.662(2)
_cell_angle_alpha                90
_cell_angle_beta                 90.00
_cell_angle_gamma                90
_cell_volume                     3788.76
_exptl_crystal_colour            yellow
_exptl_crystal_description       block
_cell_formula_units_Z            4
loop_
_atom_site_label
_atom_site_type_symbol
_atom_site_fract_x
_atom_site_fract_y
_atom_site_fract_z
S1 S 0.44330(3) 0.71224(4) 0.26532(6)
S2 S 0.58778(3) 0.72870(5) 0.04814(7)
C1 C 0.38173(9) 0.64936(16) 0.2403(2)
C2 C 0.47083(10) 0.67904(15) 0.1241(2)
N1 N 0.45730(8) 0.59332(14) -0.04953(17)
C3 C 0.51031(9) 0.63184(16) -0.0566(2)
C4 C 0.66013(9) 0.68239(16) -0.1470(2)
C5 C 0.23071(11) 0.58227(19) 0.7243(2)
C6 C 0.33634(9) 0.65001(15) 0.3348(2)
C7 C 0.77276(10) 0.68282(16) -0.2393(2)
N2 N 0.82977(9) 0.67560(14) -0.2830(3)
C8 C 0.55744(10) 0.62710(17) -0.1387(2)
H1 H 0.5579 0.5945 -0.2148
C9 C 0.43360(9) 0.62145(15) 0.0617(2)
C10 C 0.52013(10) 0.68529(17) 0.0486(2)
C11 C 0.67697(10) 0.62364(17) -0.2414(2)
H2 H 0.6501 0.5827 -0.2739
C12 C 0.25097(10) 0.64044(19) 0.5192(2)
C13 C 0.38286(10) 0.60488(16) 0.1281(2)
H3 H 0.3531 0.5676 0.0990
C14 C 0.24056(10) 0.60839(18) 0.3985(2)
H4 H 0.2046 0.5833 0.3784
N3 N 0.21101(10) 0.62909(19) 0.6168(2)
C15 C 0.86574(10) 0.75160(18) -0.2766(2)
C16 C 0.73180(10) 0.62415(17) -0.2879(2)
H5 H 0.7420 0.5846 -0.3533
C17 C 0.75635(10) 0.74364(18) -0.1480(3)
H6 H 0.7831 0.7852 -0.1166
C18 C 0.70067(11) 0.74324(18) -0.1034(3)
H7 H 0.6898 0.7852 -0.0417
C19 C 0.84473(12) 0.53287(19) -0.1792(3)
H8 H 0.8192 0.5496 -0.1142
C20 C 0.60309(10) 0.67614(16) -0.0939(2)
C21 C 0.91239(11) 0.7548(2) -0.1954(3)
H9 H 0.9205 0.7060 -0.1424
C22 C 0.11253(13) 0.6225(2) 0.6869(3)
H10 H 0.1228 0.5794 0.7476
C23 C 0.85602(10) 0.59071(17) -0.2774(3)
C24 C 0.15400(11) 0.65724(17) 0.6073(2)
C25 C 0.24901(15) 0.4964(2) 0.7151(3)
H11 H 0.2480 0.4672 0.6362
C26 C 0.34542(12) 0.6856(2) 0.4546(2)
H12 H 0.3807 0.7132 0.4736
C27 C 0.91889(13) 0.4825(2) -0.3653(4)
H13 H 0.9445 0.4652 -0.4298
C28 C 0.13732(13) 0.72080(18) 0.5190(3)
H14 H 0.1648 0.7455 0.4638
C29 C 0.28276(10) 0.61325(18) 0.3082(2)
H15 H 0.2753 0.5912 0.2264
C30 C 0.30366(13) 0.6807(2) 0.5446(2)
H16 H 0.3105 0.7050 0.6253
C31 C 0.87089(14) 0.4502(2) -0.1761(3)
H17 H 0.8629 0.4108 -0.1091
C32 C 0.04013(14) 0.7146(2) 0.5910(3)
H18 H 0.0018 0.7346 0.5869
C33 C 0.85442(13) 0.82255(19) -0.3554(3)
H19 H 0.8231 0.8202 -0.4117
C34 C 0.27008(14) 0.4936(2) 0.9362(3)
H20 H 0.2824 0.4627 1.0089
C35 C 0.08034(14) 0.7480(2) 0.5117(3)
H21 H 0.0695 0.7904 0.4505
C36 C 0.89317(13) 0.5651(2) -0.3707(3)
H22 H 0.9012 0.6038 -0.4385
C37 C 0.05607(13) 0.6509(2) 0.6779(3)
H23 H 0.0281 0.6262 0.7320
C38 C 0.23470(17) 0.6261(3) 0.8389(3)
H24 H 0.2250 0.6869 0.8450
C39 C 0.90777(14) 0.4255(2) -0.2682(4)
H25 H 0.9257 0.3693 -0.2653
C40 C 0.4126(9) 0.4681(9) -0.3449(9)
H26 H 0.4420 0.4220 -0.3327
H27 H 0.3765 0.4433 -0.3120
C41 C 0.43400(17) 0.5269(3) -0.1331(3)
H28 H 0.4579 0.4735 -0.1227
H29 H 0.3957 0.5118 -0.1003
C42 C 0.93595(14) 0.8993(2) -0.2715(4)
H30 H 0.9605 0.9492 -0.2713
C43 C 0.26893(15) 0.4521(2) 0.8198(3)
H31 H 0.2819 0.3929 0.8121
C44 C 0.94687(12) 0.8287(2) -0.1918(3)
H32 H 0.9780 0.8313 -0.1349
C45 C 0.2530(2) 0.5803(3) 0.9436(3)
H33 H 0.2537 0.6093 1.0226
C46 C 0.88901(16) 0.8968(2) -0.3516(4)
H34 H 0.8807 0.9460 -0.4038
C47 C 0.4051(9) 0.4757(5) -0.4755(6)
H35 H 0.3864 0.5319 -0.4947
H36 H 0.3814 0.4268 -0.5056
H37 H 0.4423 0.4735 -0.5171
C48 C 0.4278(5) 0.5396(3) -0.2607(3)
H38 H 0.4642 0.5644 -0.2916
H39 H 0.3986 0.5862 -0.2717
loop_
_geom_bond_atom_site_label_1
_geom_bond_atom_site_label_2
_geom_bond_site_symmetry_1
_geom_bond_site_symmetry_2
S1 C1 1_555 1_555
S2 C10 1_555 1_555
C1 C6 1_555 1_555
C2 S1 1_555 1_555
N1 C3 1_555 1_555
C3 C8 1_555 1_555
C4 C11 1_555 1_555
C5 N3 1_555 1_555
C6 C26 1_555 1_555
C7 N2 1_555 1_555
N2 C15 1_555 1_555
C8 H1 1_555 1_555
C9 C2 1_555 1_555
C10 C2 1_555 1_555
C11 H2 1_555 1_555
C12 C14 1_555 1_555
C13 C1 1_555 1_555
H3 C13 1_555 1_555
C14 H4 1_555 1_555
N3 C12 1_555 1_555
C15 C21 1_555 1_555
C16 C7 1_555 1_555
H5 C16 1_555 1_555
C17 C7 1_555 1_555
H6 C17 1_555 1_555
C18 C4 1_555 1_555
H7 C18 1_555 1_555
C19 H8 1_555 1_555
C20 S2 1_555 1_555
C21 H9 1_555 1_555
C22 H10 1_555 1_555
C23 N2 1_555 1_555
C24 N3 1_555 1_555
C25 C5 1_555 1_555
H11 C25 1_555 1_555
C26 H12 1_555 1_555
C27 H13 1_555 1_555
C28 C24 1_555 1_555
H14 C28 1_555 1_555
C29 C6 1_555 1_555
H15 C29 1_555 1_555
C30 C12 1_555 1_555
H16 C30 1_555 1_555
C31 C19 1_555 1_555
H17 C31 1_555 1_555
C32 H18 1_555 1_555
C33 C15 1_555 1_555
H19 C33 1_555 1_555
C34 H20 1_555 1_555
C35 C28 1_555 1_555
H21 C35 1_555 1_555
C36 C23 1_555 1_555
H22 C36 1_555 1_555
C37 C22 1_555 1_555
H23 C37 1_555 1_555
C38 C5 1_555 1_555
H24 C38 1_555 1_555
C39 C27 1_555 1_555
H25 C39 1_555 1_555
C40 H26 1_555 1_555
H27 C40 1_555 1_555
C41 N1 1_555 1_555
H28 C41 1_555 1_555
H29 C41 1_555 1_555
C42 H30 1_555 1_555
C43 C25 1_555 1_555
H31 C43 1_555 1_555
C44 C21 1_555 1_555
H32 C44 1_555 1_555
C45 C34 1_555 1_555
H33 C45 1_555 1_555
C46 C33 1_555 1_555
H34 C46 1_555 1_555
C47 C40 1_555 1_555
H35 C47 1_555 1_555
H36 C47 1_555 1_555
H37 C47 1_555 1_555
C48 C40 1_555 1_555
H38 C48 1_555 1_555
H39 C48 1_555 1_555
N1 C9 1_555 1_555
C3 C10 1_555 1_555
C4 C20 1_555 1_555
C8 C20 1_555 1_555
C9 C13 1_555 1_555
C11 C16 1_555 1_555
C14 C29 1_555 1_555
C17 C18 1_555 1_555
C19 C23 1_555 1_555
C22 C24 1_555 1_555
C26 C30 1_555 1_555
C27 C36 1_555 1_555
C31 C39 1_555 1_555
C32 C35 1_555 1_555
C32 C37 1_555 1_555
C34 C43 1_555 1_555
C38 C45 1_555 1_555
C41 C48 1_555 1_555
C42 C44 1_555 1_555
C42 C46 1_555 1_555

#END
