
#######################################################################
#
#                 Cambridge Crystallographic Data Centre
#                                CCDC 
#
#######################################################################
#
# If this CIF has been generated from an entry in the Cambridge 
# Structural Database, then it will include bibliographic, chemical, 
# crystal, experimental, refinement or atomic coordinate data resulting 
# from the CCDC's data processing and validation procedures.
#
#######################################################################

data_ATOHEX
_chemical_formula_moiety         'C25 H37 N1 O7'
_chemical_name_systematic        
't-Butyl 4-(6-(2-((4-methoxybenzyl)oxy)ethyl)-4-oxotetrahydro-2H-pyran-2-yl)-2,2-dimethyl-1,3-oxazolidine-3-carboxylate'
_symmetry_cell_setting           monoclinic
_symmetry_space_group_name_H-M   'P 21'
_symmetry_Int_Tables_number      4
_space_group_name_Hall           'P 2yb'
loop_
_symmetry_equiv_pos_site_id
_symmetry_equiv_pos_as_xyz
1 x,y,z
2 -x,1/2+y,-z
_cell_length_a                   9.1219(10)
_cell_length_b                   9.7970(11)
_cell_length_c                   14.6276(16)
_cell_angle_alpha                90
_cell_angle_beta                 98.977(2)
_cell_angle_gamma                90
_cell_volume                     1291.22
_exptl_crystal_colour            colorless
_exptl_crystal_description       plate
_cell_formula_units_Z            2
loop_
_atom_site_label
_atom_site_type_symbol
_atom_site_fract_x
_atom_site_fract_y
_atom_site_fract_z
N1 N 0.12559(13) 0.39037(13) 0.85419(8)
O1 O -0.00552(12) 0.57731(11) 0.88097(7)
O2 O 0.24281(11) 0.22922(11) 0.78853(6)
O3 O 0.24577(13) 0.22318(13) 0.94462(7)
O4 O 0.00197(10) 0.50046(10) 0.61454(6)
O5 O -0.37169(12) 0.29043(12) 0.62616(8)
O6 O 0.13605(17) 0.44396(13) 0.41506(10)
O7 O 0.51146(12) 0.04759(13) 0.19185(8)
C1 C 0.10955(15) 0.47002(14) 0.76815(10)
H1 H 0.2080 0.4777 0.7466
C2 C 0.06551(18) 0.60829(16) 0.80304(11)
H2 H 0.1541 0.6662 0.8216
H3 H -0.0034 0.6564 0.7546
C3 C 0.07560(16) 0.46878(16) 0.93041(10)
C4 C -0.02986(19) 0.3891(2) 0.97914(11)
H4 H -0.0713 0.4491 1.0222
H5 H 0.0234 0.3135 1.0135
H6 H -0.1104 0.3526 0.9335
C5 C 0.2058(2) 0.5257(2) 0.99730(12)
H7 H 0.2654 0.5851 0.9637
H8 H 0.2674 0.4502 1.0256
H9 H 0.1684 0.5784 1.0457
C6 C 0.20923(16) 0.27588(16) 0.86920(10)
C7 C 0.34010(16) 0.11040(16) 0.78456(10)
C8 C 0.33846(18) 0.09504(19) 0.68133(11)
H10 H 0.2366 0.0783 0.6507
H11 H 0.4016 0.0180 0.6698
H12 H 0.3761 0.1789 0.6567
C9 C 0.2784(3) -0.0145(2) 0.82520(17)
H13 H 0.2817 -0.0017 0.8919
H14 H 0.3380 -0.0944 0.8143
H15 H 0.1754 -0.0287 0.7958
C10 C 0.49527(18) 0.1456(2) 0.83235(12)
H16 H 0.5288 0.2295 0.8055
H17 H 0.5631 0.0708 0.8238
H18 H 0.4941 0.1593 0.8986
C11 C -0.00435(15) 0.41082(14) 0.69073(9)
H19 H 0.0290 0.3179 0.6745
C12 C -0.16268(15) 0.40079(17) 0.71323(10)
H20 H -0.1673 0.3263 0.7584
H21 H -0.1884 0.4872 0.7420
C13 C -0.27328(15) 0.37376(15) 0.62828(10)
C14 C -0.25388(16) 0.46031(17) 0.54652(11)
H22 H -0.2872 0.5545 0.5567
H23 H -0.3169 0.4239 0.4906
C15 C -0.09234(15) 0.46345(15) 0.53050(9)
H24 H -0.0841 0.5379 0.4848
C16 C -0.04576(18) 0.33157(16) 0.48815(10)
H25 H -0.0603 0.2545 0.5296
H26 H -0.1105 0.3159 0.4282
C17 C 0.1134(2) 0.33368(17) 0.47279(12)
H27 H 0.1796 0.3428 0.5329
H28 H 0.1377 0.2470 0.4437
C18 C 0.2892(3) 0.4589(2) 0.40474(19)
H29 H 0.3504 0.4602 0.4669
H30 H 0.3023 0.5478 0.3749
C19 C 0.3451(2) 0.34661(19) 0.34795(15)
C20 C 0.4571(2) 0.2583(2) 0.38483(13)
H31 H 0.4977 0.2652 0.4486
C21 C 0.51073(19) 0.1614(2) 0.33167(11)
H32 H 0.5888 0.1027 0.3583
C22 C 0.45138(16) 0.14832(17) 0.23876(10)
C23 C 0.33755(17) 0.23356(18) 0.19965(11)
H33 H 0.2959 0.2244 0.1363
C24 C 0.2854(2) 0.33212(19) 0.25407(14)
H34 H 0.2076 0.3911 0.2274
C25 C 0.4429(2) 0.0224(2) 0.09922(12)
H35 H 0.3380 0.0003 0.0984
H36 H 0.4925 -0.0544 0.0739
H37 H 0.4511 0.1040 0.0616
loop_
_geom_bond_atom_site_label_1
_geom_bond_atom_site_label_2
_geom_bond_site_symmetry_1
_geom_bond_site_symmetry_2
N1 C1 1_555 1_555
O1 C2 1_555 1_555
O2 C6 1_555 1_555
O3 C6 1_555 1_555
O4 C11 1_555 1_555
O5 C13 1_555 1_555
O6 C17 1_555 1_555
O7 C22 1_555 1_555
C1 H1 1_555 1_555
C2 C1 1_555 1_555
H2 C2 1_555 1_555
H3 C2 1_555 1_555
C3 N1 1_555 1_555
C4 C3 1_555 1_555
H4 C4 1_555 1_555
H5 C4 1_555 1_555
H6 C4 1_555 1_555
C5 C3 1_555 1_555
H7 C5 1_555 1_555
H8 C5 1_555 1_555
H9 C5 1_555 1_555
C6 N1 1_555 1_555
C7 O2 1_555 1_555
C8 C7 1_555 1_555
H10 C8 1_555 1_555
H11 C8 1_555 1_555
H12 C8 1_555 1_555
C9 C7 1_555 1_555
H13 C9 1_555 1_555
H14 C9 1_555 1_555
H15 C9 1_555 1_555
C10 C7 1_555 1_555
H16 C10 1_555 1_555
H17 C10 1_555 1_555
H18 C10 1_555 1_555
C11 C1 1_555 1_555
H19 C11 1_555 1_555
C12 C11 1_555 1_555
H20 C12 1_555 1_555
H21 C12 1_555 1_555
C13 C12 1_555 1_555
C14 C13 1_555 1_555
H22 C14 1_555 1_555
H23 C14 1_555 1_555
C15 O4 1_555 1_555
H24 C15 1_555 1_555
C16 C15 1_555 1_555
H25 C16 1_555 1_555
H26 C16 1_555 1_555
C17 C16 1_555 1_555
H27 C17 1_555 1_555
H28 C17 1_555 1_555
C18 O6 1_555 1_555
H29 C18 1_555 1_555
H30 C18 1_555 1_555
C19 C18 1_555 1_555
C20 C19 1_555 1_555
H31 C20 1_555 1_555
C21 C20 1_555 1_555
H32 C21 1_555 1_555
C22 C21 1_555 1_555
C23 C22 1_555 1_555
H33 C23 1_555 1_555
C24 C19 1_555 1_555
H34 C24 1_555 1_555
C25 O7 1_555 1_555
H35 C25 1_555 1_555
H36 C25 1_555 1_555
H37 C25 1_555 1_555
O1 C3 1_555 1_555
C14 C15 1_555 1_555
C23 C24 1_555 1_555

#END
