
#######################################################################
#
#                 Cambridge Crystallographic Data Centre
#                                CCDC 
#
#######################################################################
#
# If this CIF has been generated from an entry in the Cambridge 
# Structural Database, then it will include bibliographic, chemical, 
# crystal, experimental, refinement or atomic coordinate data resulting 
# from the CCDC's data processing and validation procedures.
#
#######################################################################

data_ATOHAT
_chemical_formula_moiety         'C23 H39 N1 O7'
_chemical_name_systematic        
't-Butyl 4-(2-(4-hydroxy-6-(2-methoxy-2-oxoethyl)-3,5-dimethyltetrahydro-2H-pyran-2-yl)prop-1-en-1-yl)-2,2-dimethyl-1,3-oxazolidine-3-carboxylate'
_symmetry_cell_setting           orthorhombic
_symmetry_space_group_name_H-M   'P 21 21 21'
_symmetry_Int_Tables_number      19
_space_group_name_Hall           'P 2ac 2ab'
loop_
_symmetry_equiv_pos_site_id
_symmetry_equiv_pos_as_xyz
1 x,y,z
2 1/2-x,-y,1/2+z
3 -x,1/2+y,1/2-z
4 1/2+x,1/2-y,-z
_cell_length_a                   6.0541(2)
_cell_length_b                   14.8692(5)
_cell_length_c                   33.1481(8)
_cell_angle_alpha                90
_cell_angle_beta                 90
_cell_angle_gamma                90
_cell_volume                     2983.98
_exptl_crystal_colour            colorless
_exptl_crystal_description       prism
_cell_formula_units_Z            4
loop_
_atom_site_label
_atom_site_type_symbol
_atom_site_fract_x
_atom_site_fract_y
_atom_site_fract_z
C1 C 0.1981(9) 0.2604(4) 0.4609(2)
H1 H 0.0447(25) 0.2812(26) 0.4592(3)
H2 H 0.2924(45) 0.3099(19) 0.4700(6)
H3 H 0.2079(65) 0.2104(9) 0.4801(3)
O1 O 0.2703(5) 0.2306(2) 0.42168(10)
C2 C 0.4884(8) 0.2083(3) 0.41851(14)
O2 O 0.6082(6) 0.2125(3) 0.44690(10)
C3 C 0.5429(7) 0.1824(3) 0.37702(13)
H4 H 0.5307(7) 0.2357(3) 0.35929(13)
H5 H 0.4350(7) 0.1371(3) 0.36753(13)
C4 C 0.7776(7) 0.1433(3) 0.37364(12)
H6 H 0.8713(7) 0.1777(3) 0.39312(12)
C5 C 0.7937(7) 0.0430(3) 0.38616(14)
H7 H 0.7044(7) 0.0340(3) 0.41121(14)
C6 C 1.0354(8) 0.0176(3) 0.3953(2)
H8 H 1.0444(11) -0.0467(5) 0.4015(8)
H9 H 1.0880(17) 0.0525(14) 0.4185(6)
H10 H 1.1274(11) 0.0310(18) 0.3717(3)
C7 C 0.6951(8) -0.0143(3) 0.35283(13)
H11 H 0.5332(8) -0.0013(3) 0.35167(13)
O3 O 0.7225(6) -0.1073(2) 0.36517(9)
H12 H 0.7878(6) -0.1360(2) 0.34687(9)
C8 C 0.7890(8) 0.0031(3) 0.31200(12)
H13 H 0.9485(8) -0.0144(3) 0.31243(12)
C9 C 0.6744(8) -0.0515(3) 0.27913(13)
H14 H 0.6857(41) -0.1157(3) 0.2855(5)
H15 H 0.7456(32) -0.0397(15) 0.2531(2)
H16 H 0.5184(14) -0.0342(14) 0.2777(6)
C10 C 0.7751(7) 0.1059(2) 0.30265(12)
H17 H 0.6158(7) 0.1229(2) 0.30040(12)
O4 O 0.8720(5) 0.1572(2) 0.33464(8)
C11 C 0.8892(7) 0.1330(3) 0.26468(13)
C12 C 1.1444(7) 0.1287(3) 0.26685(14)
H18 H 1.2038(8) 0.1144(17) 0.2401(2)
H19 H 1.1888(7) 0.0820(12) 0.2861(6)
H20 H 1.2022(8) 0.1870(6) 0.2757(7)
C13 C 0.7857(7) 0.1594(2) 0.23257(13)
H21 H 0.6290(7) 0.1595(2) 0.23430(13)
C14 C 0.8793(7) 0.1896(3) 0.19340(12)
H22 H 1.0436(7) 0.1827(3) 0.19331(12)
C15 C 0.8138(8) 0.2883(3) 0.18364(14)
H23 H 0.7888(8) 0.3231(3) 0.20871(14)
H24 H 0.9301(8) 0.3184(3) 0.16757(14)
O5 O 0.6133(5) 0.2802(2) 0.16086(9)
C16 C 0.6404(8) 0.2061(3) 0.13394(13)
C17 C 0.7557(9) 0.2372(3) 0.09532(14)
H25 H 0.6621(26) 0.2811(17) 0.0813(5)
H26 H 0.7813(48) 0.1853(4) 0.0777(4)
H27 H 0.8974(26) 0.2652(19) 0.1022(2)
C18 C 0.4112(8) 0.1682(3) 0.1260(2)
H28 H 0.3473(21) 0.1465(18) 0.1513(2)
H29 H 0.4220(10) 0.1183(13) 0.1068(7)
H30 H 0.3168(16) 0.2154(6) 0.1147(8)
N1 N 0.7826(6) 0.1459(2) 0.15814(10)
C19 C 0.8354(8) 0.0614(3) 0.14403(14)
O6 O 0.7601(6) 0.0280(2) 0.11419(10)
O7 O 0.9770(5) 0.0217(2) 0.17015(9)
C20 C 1.0474(8) -0.0738(3) 0.16310(15)
C21 C 1.1678(9) -0.0800(3) 0.1228(2)
H31 H 1.2999(32) -0.0419(18) 0.1236(4)
H32 H 1.0698(21) -0.0595(21) 0.1012(2)
H33 H 1.2112(50) -0.1425(5) 0.1178(5)
C22 C 0.8450(8) -0.1343(3) 0.1642(2)
H34 H 0.8905(10) -0.1970(3) 0.1603(9)
H35 H 0.7430(23) -0.1168(13) 0.1426(6)
H36 H 0.7712(28) -0.1282(15) 0.1904(4)
C23 C 1.1978(9) -0.0910(3) 0.19833(15)
H37 H 1.3213(28) -0.0485(14) 0.1976(5)
H38 H 1.2547(41) -0.1526(8) 0.1968(5)
H39 H 1.1153(15) -0.0832(20) 0.22352(15)
loop_
_geom_bond_atom_site_label_1
_geom_bond_atom_site_label_2
_geom_bond_site_symmetry_1
_geom_bond_site_symmetry_2
C1 H1 1_555 1_555
H2 C1 1_555 1_555
H3 C1 1_555 1_555
O1 C1 1_555 1_555
C2 O1 1_555 1_555
O2 C2 1_555 1_555
C3 C2 1_555 1_555
H4 C3 1_555 1_555
H5 C3 1_555 1_555
C4 C3 1_555 1_555
H6 C4 1_555 1_555
C5 C4 1_555 1_555
H7 C5 1_555 1_555
C6 C5 1_555 1_555
H8 C6 1_555 1_555
H9 C6 1_555 1_555
H10 C6 1_555 1_555
C7 C5 1_555 1_555
H11 C7 1_555 1_555
O3 C7 1_555 1_555
H12 O3 1_555 1_555
C8 C7 1_555 1_555
H13 C8 1_555 1_555
C9 C8 1_555 1_555
H14 C9 1_555 1_555
H15 C9 1_555 1_555
H16 C9 1_555 1_555
C10 C8 1_555 1_555
H17 C10 1_555 1_555
O4 C4 1_555 1_555
C11 C10 1_555 1_555
C12 C11 1_555 1_555
H18 C12 1_555 1_555
H19 C12 1_555 1_555
H20 C12 1_555 1_555
C13 C11 1_555 1_555
H21 C13 1_555 1_555
C14 C13 1_555 1_555
H22 C14 1_555 1_555
C15 C14 1_555 1_555
H23 C15 1_555 1_555
H24 C15 1_555 1_555
O5 C15 1_555 1_555
C16 O5 1_555 1_555
C17 C16 1_555 1_555
H25 C17 1_555 1_555
H26 C17 1_555 1_555
H27 C17 1_555 1_555
C18 C16 1_555 1_555
H28 C18 1_555 1_555
H29 C18 1_555 1_555
H30 C18 1_555 1_555
N1 C14 1_555 1_555
C19 N1 1_555 1_555
O6 C19 1_555 1_555
O7 C19 1_555 1_555
C20 O7 1_555 1_555
C21 C20 1_555 1_555
H31 C21 1_555 1_555
H32 C21 1_555 1_555
H33 C21 1_555 1_555
C22 C20 1_555 1_555
H34 C22 1_555 1_555
H35 C22 1_555 1_555
H36 C22 1_555 1_555
C23 C20 1_555 1_555
H37 C23 1_555 1_555
H38 C23 1_555 1_555
H39 C23 1_555 1_555
C10 O4 1_555 1_555
C16 N1 1_555 1_555

#END
