
#######################################################################
#
#                 Cambridge Crystallographic Data Centre
#                                CCDC 
#
#######################################################################
#
# If this CIF has been generated from an entry in the Cambridge 
# Structural Database, then it will include bibliographic, chemical, 
# crystal, experimental, refinement or atomic coordinate data resulting 
# from the CCDC's data processing and validation procedures.
#
#######################################################################

data_ATOHUN
_chemical_name_common            
'[3]-cyclo[2](2,6-bis(1H-imidazol-1-yl)pyridine)-[2](1,4-dimethylenebenzene) bis(2,6-naphthalenedicarboxylate)-pseudorotaxane decahydrate'
_chemical_formula_moiety         'C38 H34 N10 4+,2(C12 H6 O4 2-),10(H2 O1)'
_chemical_name_systematic        
'[3]-6,12,25,31,42,47-Hexaaza-3,15,22,34-tetraazonianonacyclo-[34.2.2.2^17,20^.1^3,6^.1^7,11^.1^12,15^.1^22,25^.1^26,30^.1^31,34^]-octatetraconta-1(38),3(48),4,7(47),8,10,13,15(46),17,19,22(43),23,26(42),-27,29,32,34(41),36,39,44-icosaene bis(naphthalene-2,6-dicarboxylate)-pseudorotaxane decahydrate'
_symmetry_cell_setting           triclinic
_symmetry_space_group_name_H-M   'P -1'
_symmetry_Int_Tables_number      2
_space_group_name_Hall           '-P 1'
loop_
_symmetry_equiv_pos_site_id
_symmetry_equiv_pos_as_xyz
1 x,y,z
2 -x,-y,-z
_cell_length_a                   11.018(2)
_cell_length_b                   12.439(3)
_cell_length_c                   12.576(3)
_cell_angle_alpha                118.73(3)
_cell_angle_beta                 99.56(3)
_cell_angle_gamma                91.47(3)
_cell_volume                     1479.27
_exptl_crystal_colour            'light yellow'
_exptl_crystal_description       block
_cell_formula_units_Z            1
loop_
_atom_site_label
_atom_site_type_symbol
_atom_site_fract_x
_atom_site_fract_y
_atom_site_fract_z
N1 N 0.2016(3) 0.6506(3) 1.6546(3)
N2 N 0.0715(3) 0.6351(2) 1.4985(2)
N3 N -0.0798(2) 0.6763(2) 1.3757(2)
N4 N -0.2351(2) 0.7302(2) 1.2700(2)
N5 N -0.3991(2) 0.7918(2) 1.2068(3)
C1 C 0.3245(4) 0.6733(4) 1.7370(4)
H1 H 0.3791 0.6160 1.6916
H2 H 0.3148 0.6619 1.8064
C2 C 0.1903(3) 0.6279(3) 1.5391(3)
H3 H 0.2531 0.6101 1.4941
C3 C 0.0888(4) 0.6746(3) 1.6901(4)
H4 H 0.0724 0.6942 1.7671
C4 C 0.0063(4) 0.6645(3) 1.5916(3)
H5 H -0.0773 0.6751 1.5877
C5 C 0.0240(3) 0.6247(3) 1.3796(3)
C6 C 0.0856(3) 0.5687(3) 1.2838(3)
H6 H 0.1562 0.5313 1.2911
C7 C 0.0376(3) 0.5705(3) 1.1754(3)
H7 H 0.0770 0.5353 1.1085
C8 C -0.0692(3) 0.6249(3) 1.1673(3)
H8 H -0.1027 0.6280 1.0960
C9 C -0.1239(3) 0.6743(3) 1.2693(3)
C10 C -0.2955(3) 0.7448(3) 1.1762(3)
H9 H -0.2692 0.7254 1.1032
C11 C -0.3038(3) 0.7696(3) 1.3614(3)
H10 H -0.2836 0.7692 1.4360
C12 C -0.4057(3) 0.8088(3) 1.3223(3)
H11 H -0.4688 0.8411 1.3652
C13 C -0.4903(3) 0.8245(3) 1.1289(3)
H12 H -0.5722 0.8174 1.1453
H13 H -0.4928 0.7673 1.0421
C14 C -0.4557(3) 0.9543(3) 1.1558(3)
C15 C -0.5010(3) 1.0526(3) 1.2461(3)
H14 H -0.5578 1.0380 1.2861
C16 C -0.4621(4) 1.1723(3) 1.2768(3)
H15 H -0.4923 1.2379 1.3381
C17 C -0.3785(4) 1.1956(3) 1.2170(3)
C18 C -0.3370(3) 1.0969(3) 1.1230(3)
H16 H -0.2832 1.1113 1.0803
C19 C -0.3754(3) 0.9773(3) 1.0929(3)
H17 H -0.3472 0.9116 1.0298
N1A N -0.2016(3) 1.3494(3) 1.3454(3)
N2A N -0.0715(3) 1.3649(2) 1.5015(2)
N3A N 0.0798(2) 1.3237(2) 1.6243(2)
N4A N 0.2351(2) 1.2698(2) 1.7300(2)
N5A N 0.3991(2) 1.2082(2) 1.7932(3)
C1A C -0.3245(4) 1.3267(4) 1.2630(4)
H1A H -0.3791 1.3840 1.3084
H2A H -0.3148 1.3381 1.1936
C2A C -0.1903(3) 1.3721(3) 1.4609(3)
H3A H -0.2531 1.3899 1.5059
C3A C -0.0888(4) 1.3254(3) 1.3099(4)
H4A H -0.0724 1.3058 1.2329
C4A C -0.0063(4) 1.3355(3) 1.4084(3)
H5A H 0.0773 1.3249 1.4123
C5A C -0.0240(3) 1.3753(3) 1.6204(3)
C6A C -0.0856(3) 1.4313(3) 1.7162(3)
H6A H -0.1562 1.4687 1.7089
C7A C -0.0376(3) 1.4295(3) 1.8246(3)
H7A H -0.0770 1.4647 1.8915
C8A C 0.0692(3) 1.3751(3) 1.8327(3)
H8A H 0.1027 1.3720 1.9040
C9A C 0.1239(3) 1.3257(3) 1.7307(3)
C10A C 0.2955(3) 1.2552(3) 1.8238(3)
H9A H 0.2692 1.2746 1.8968
C11A C 0.3038(3) 1.2304(3) 1.6386(3)
H10A H 0.2836 1.2308 1.5640
C12A C 0.4057(3) 1.1912(3) 1.6777(3)
H11A H 0.4688 1.1589 1.6348
C13A C 0.4903(3) 1.1755(3) 1.8711(3)
H12A H 0.5722 1.1826 1.8547
H13A H 0.4928 1.2327 1.9579
C14A C 0.4557(3) 1.0457(3) 1.8442(3)
C15A C 0.5010(3) 0.9474(3) 1.7539(3)
H14A H 0.5578 0.9620 1.7139
C16A C 0.4621(4) 0.8277(3) 1.7232(3)
H15A H 0.4923 0.7621 1.6619
C17A C 0.3785(4) 0.8044(3) 1.7830(3)
C18A C 0.3370(3) 0.9031(3) 1.8770(3)
H16A H 0.2832 0.8887 1.9197
C19A C 0.3754(3) 1.0227(3) 1.9071(3)
H17A H 0.3472 1.0884 1.9702
C20 C -0.2622(5) 1.1908(4) 1.6754(8)
C21 C -0.1746(4) 1.1169(3) 1.5898(4)
C22 C -0.0767(4) 1.0762(3) 1.6345(3)
H18 H -0.0655 1.0913 1.7157
C23 C 0.0087(3) 1.0116(3) 1.5617(3)
C24 C 0.1122(4) 0.9695(3) 1.6077(4)
H19 H 0.1252 0.9840 1.6887
C25 C 0.1927(3) 0.9079(4) 1.5340(5)
H20 H 0.2606 0.8818 1.5658
O2 O -0.2499(5) 1.1952(5) 1.7774(6)
O4 O -0.3385(4) 1.2388(4) 1.6324(7)
C20A C 0.2622(5) 0.8092(4) 1.3246(8)
C21A C 0.1746(4) 0.8831(3) 1.4102(4)
C22A C 0.0767(4) 0.9238(3) 1.3655(3)
H18A H 0.0655 0.9087 1.2843
C23A C -0.0087(3) 0.9884(3) 1.4383(3)
C24A C -0.1122(4) 1.0305(3) 1.3923(4)
H19A H -0.1252 1.0160 1.3113
C25A C -0.1927(3) 1.0921(4) 1.4660(5)
H20A H -0.2606 1.1182 1.4342
O2A O 0.2499(5) 0.8048(5) 1.2226(6)
O4A O 0.3385(4) 0.7612(4) 1.3676(7)
C26 C -0.2339(3) 0.6876(3) 0.8535(3)
C27 C -0.1923(3) 0.8794(3) 0.8376(3)
H21 H -0.2606 0.8499 0.7724
C28 C -0.1566(3) 0.8079(3) 0.8951(3)
C29 C -0.0529(3) 0.8502(3) 0.9889(3)
H22 H -0.0297 0.8035 1.0268
C30 C 0.0189(3) 0.9638(3) 1.0284(3)
C31 C 0.1274(3) 1.0094(3) 1.1231(3)
H23 H 0.1547 0.9620 1.1592
O5 O -0.3029(2) 0.6357(2) 0.7476(2)
O7 O -0.2245(2) 0.6449(2) 0.9273(2)
C26A C 0.2339(3) 1.3124(3) 1.1465(3)
C27A C 0.1923(3) 1.1206(3) 1.1624(3)
H21A H 0.2606 1.1501 1.2276
C28A C 0.1566(3) 1.1921(3) 1.1049(3)
C29A C 0.0529(3) 1.1498(3) 1.0111(3)
H22A H 0.0297 1.1965 0.9732
C30A C -0.0189(3) 1.0362(3) 0.9716(3)
C31A C -0.1274(3) 0.9906(3) 0.8769(3)
H23A H -0.1547 1.0380 0.8408
O5A O 0.3029(2) 1.3643(2) 1.2524(2)
O7A O 0.2245(2) 1.3551(2) 1.0727(2)
O1 O -0.3816(2) 1.4692(2) 2.0980(2)
H32 H -0.388(4) 1.457(4) 2.0156(19)
H33 H -0.455(3) 1.502(4) 2.126(3)
O3 O -0.3842(2) 1.4444(2) 1.8666(2)
H24 H -0.354(4) 1.3701(19) 1.812(4)
H25 H -0.331(3) 1.513(2) 1.879(4)
O6 O -0.3040(3) 0.6326(3) 0.5261(3)
H26 H -0.3896(16) 0.618(5) 0.486(4)
H27 H -0.300(4) 0.649(5) 0.609(2)
O8 O -0.4370(4) 1.4098(3) 1.5801(3)
H28 H -0.406(5) 1.352(3) 1.604(4)
H29 H -0.411(5) 1.4910(17) 1.649(3)
O9 O -0.1820(3) 1.3146(4) 2.0337(5)
H30 H -0.242(4) 1.371(4) 2.063(4)
H31 H -0.196(5) 1.281(4) 1.9456(13)
loop_
_geom_bond_atom_site_label_1
_geom_bond_atom_site_label_2
_geom_bond_site_symmetry_1
_geom_bond_site_symmetry_2
N1 C1 1_555 1_555
N2 C2 1_555 1_555
N3 C5 1_555 1_555
N4 C9 1_555 1_555
N5 C10 1_555 1_555
C1 H1 1_555 1_555
H2 C1 1_555 1_555
C2 N1 1_555 1_555
H3 C2 1_555 1_555
C3 N1 1_555 1_555
H4 C3 1_555 1_555
C4 N2 1_555 1_555
H5 C4 1_555 1_555
C5 N2 1_555 1_555
C6 C5 1_555 1_555
H6 C6 1_555 1_555
C7 C6 1_555 1_555
H7 C7 1_555 1_555
C8 C7 1_555 1_555
H8 C8 1_555 1_555
C9 N3 1_555 1_555
C10 N4 1_555 1_555
H9 C10 1_555 1_555
C11 N4 1_555 1_555
H10 C11 1_555 1_555
C12 N5 1_555 1_555
H11 C12 1_555 1_555
C13 N5 1_555 1_555
H12 C13 1_555 1_555
H13 C13 1_555 1_555
C14 C13 1_555 1_555
C15 C14 1_555 1_555
H14 C15 1_555 1_555
C16 C15 1_555 1_555
H15 C16 1_555 1_555
C17 C16 1_555 1_555
C18 C17 1_555 1_555
H16 C18 1_555 1_555
C19 C14 1_555 1_555
H17 C19 1_555 1_555
C20 C21 1_555 1_555
C21 C22 1_555 1_555
C22 H18 1_555 1_555
C23 C22 1_555 1_555
C24 C23 1_555 1_555
H19 C24 1_555 1_555
C25 C24 1_555 1_555
H20 C25 1_555 1_555
C26 C28 1_555 1_555
C27 H21 1_555 1_555
C28 C27 1_555 1_555
C29 C28 1_555 1_555
H22 C29 1_555 1_555
C30 C29 1_555 1_555
C31 C30 1_555 1_555
H23 C31 1_555 1_555
O1 H32 1_555 1_555
O2 C20 1_555 1_555
O3 H24 1_555 1_555
H25 O3 1_555 1_555
O4 C20 1_555 1_555
O5 C26 1_555 1_555
O6 H26 1_555 1_555
H27 O6 1_555 1_555
O7 C26 1_555 1_555
O8 H28 1_555 1_555
H29 O8 1_555 1_555
O9 H30 1_555 1_555
H31 O9 1_555 1_555
H33 O1 1_555 1_555
N1A C1A 1_555 1_555
N2A C2A 1_555 1_555
N3A C5A 1_555 1_555
N4A C9A 1_555 1_555
N5A C10A 1_555 1_555
C1A C17 1_555 1_555
H1A C1A 1_555 1_555
H2A C1A 1_555 1_555
C2A N1A 1_555 1_555
H3A C2A 1_555 1_555
C3A N1A 1_555 1_555
H4A C3A 1_555 1_555
C4A N2A 1_555 1_555
H5A C4A 1_555 1_555
C5A N2A 1_555 1_555
C6A C5A 1_555 1_555
H6A C6A 1_555 1_555
C7A C6A 1_555 1_555
H7A C7A 1_555 1_555
C8A C7A 1_555 1_555
H8A C8A 1_555 1_555
C9A N3A 1_555 1_555
C10A N4A 1_555 1_555
H9A C10A 1_555 1_555
C11A N4A 1_555 1_555
H10A C11A 1_555 1_555
C12A N5A 1_555 1_555
H11A C12A 1_555 1_555
C13A N5A 1_555 1_555
H12A C13A 1_555 1_555
H13A C13A 1_555 1_555
C14A C13A 1_555 1_555
C15A C14A 1_555 1_555
H14A C15A 1_555 1_555
C16A C15A 1_555 1_555
H15A C16A 1_555 1_555
C17A C1 1_555 1_555
C18A C17A 1_555 1_555
H16A C18A 1_555 1_555
C19A C14A 1_555 1_555
H17A C19A 1_555 1_555
C20A C21A 1_555 1_555
C21A C25 1_555 1_555
C22A C21A 1_555 1_555
H18A C22A 1_555 1_555
C23A C23 1_555 1_555
C24A C23A 1_555 1_555
H19A C24A 1_555 1_555
C25A C21 1_555 1_555
H20A C25A 1_555 1_555
C26A C28A 1_555 1_555
C27A C31 1_555 1_555
H21A C27A 1_555 1_555
C28A C27A 1_555 1_555
C29A C28A 1_555 1_555
H22A C29A 1_555 1_555
C30A C30 1_555 1_555
C31A C27 1_555 1_555
H23A C31A 1_555 1_555
O2A C20A 1_555 1_555
O4A C20A 1_555 1_555
O5A C26A 1_555 1_555
O7A C26A 1_555 1_555
C3 C4 1_555 1_555
C8 C9 1_555 1_555
C11 C12 1_555 1_555
C18 C19 1_555 1_555
C3A C4A 1_555 1_555
C8A C9A 1_555 1_555
C11A C12A 1_555 1_555
C16A C17A 1_555 1_555
C18A C19A 1_555 1_555
C22A C23A 1_555 1_555
C24A C25A 1_555 1_555
C29A C30A 1_555 1_555
C30A C31A 1_555 1_555

#END
