
#######################################################################
#
#                 Cambridge Crystallographic Data Centre
#                                CCDC 
#
#######################################################################
#
# If this CIF has been generated from an entry in the Cambridge 
# Structural Database, then it will include bibliographic, chemical, 
# crystal, experimental, refinement or atomic coordinate data resulting 
# from the CCDC's data processing and validation procedures.
#
#######################################################################

data_ATOKOJ
_chemical_formula_moiety         'C25 H22 N2 O4'
_chemical_name_systematic        bis(3,3'-Diethyl-4-maleimidophenyl)methane
_symmetry_cell_setting           orthorhombic
_symmetry_space_group_name_H-M   'P c c n'
_symmetry_Int_Tables_number      56
_space_group_name_Hall           '-P 2ab 2ac'
loop_
_symmetry_equiv_pos_site_id
_symmetry_equiv_pos_as_xyz
1 x,y,z
2 1/2-x,1/2-y,z
3 -x,1/2+y,1/2-z
4 1/2+x,-y,1/2-z
5 -x,-y,-z
6 1/2+x,1/2+y,-z
7 x,1/2-y,1/2+z
8 1/2-x,y,1/2+z
_cell_length_a                   12.7446(15)
_cell_length_b                   16.974(2)
_cell_length_c                   10.2180(12)
_cell_angle_alpha                90
_cell_angle_beta                 90
_cell_angle_gamma                90
_cell_volume                     2210.43
_exptl_crystal_colour            yellow
_exptl_crystal_description       block
_cell_formula_units_Z            4
_exptl_crystal_recrystallization_method ethanol
loop_
_atom_site_label
_atom_site_type_symbol
_atom_site_fract_x
_atom_site_fract_y
_atom_site_fract_z
O1 O -0.0622(2) 0.5595(2) 0.3541(3)
O2 O 0.1968(2) 0.5950(2) 0.0553(3)
N1 N 0.0484(2) 0.59105(19) 0.1839(3)
C1 C 0.0235(3) 0.5577(2) 0.3049(4)
C2 C 0.1215(3) 0.5216(3) 0.3535(5)
C3 C 0.1956(3) 0.5317(3) 0.2684(5)
C4 C 0.1542(3) 0.5752(2) 0.1536(4)
C5 C -0.0245(2) 0.6327(2) 0.1017(3)
C6 C -0.0169(3) 0.7134(2) 0.0881(4)
C7 C -0.0912(3) 0.7485(3) 0.0080(5)
C8 C -0.1701(3) 0.7075(2) -0.0541(4)
C9 C -0.1750(3) 0.6273(3) -0.0348(4)
C10 C -0.1020(3) 0.5894(2) 0.0426(4)
C11 C 0.0684(4) 0.7606(3) 0.1573(9)
H1 H 0.0879 0.7319 0.2357
H2 H 0.1295 0.7613 0.1007
C12 C 0.0475(5) 0.8393(4) 0.1945(8)
H3 H 0.1080 0.8610 0.2374
H4 H -0.0112 0.8404 0.2533
H5 H 0.0316 0.8700 0.1181
C13 C -0.2500 0.7500 -0.1376(6)
H6 H -0.106(3) 0.529(2) 0.051(4)
H7 H -0.094(3) 0.796(3) 0.008(4)
H8 H -0.228(4) 0.598(3) -0.076(4)
H9 H 0.265(4) 0.510(3) 0.270(5)
H10 H 0.124(4) 0.499(2) 0.437(5)
H11 H -0.218(3) 0.783(3) -0.197(5)
C8A C -0.3299(3) 0.7925(2) -0.0541(4)
C7A C -0.4088(3) 0.7515(3) 0.0080(5)
C6A C -0.4831(3) 0.7866(2) 0.0881(4)
C5A C -0.4755(2) 0.8673(2) 0.1017(3)
N1A N -0.5484(2) 0.90895(19) 0.1839(3)
C1A C -0.5235(3) 0.9423(2) 0.3049(4)
O1A O -0.4378(2) 0.9405(2) 0.3541(3)
C2A C -0.6215(3) 0.9784(3) 0.3535(5)
C3A C -0.6956(3) 0.9683(3) 0.2684(5)
C4A C -0.6542(3) 0.9248(2) 0.1536(4)
O2A O -0.6968(2) 0.9050(2) 0.0553(3)
H9A H -0.765(4) 0.990(3) 0.270(5)
H10A H -0.624(4) 1.001(2) 0.437(5)
C10A C -0.3980(3) 0.9106(2) 0.0426(4)
C9A C -0.3250(3) 0.8727(3) -0.0348(4)
H8A H -0.272(4) 0.902(3) -0.076(4)
H6A H -0.394(3) 0.971(2) 0.051(4)
C11A C -0.5684(4) 0.7394(3) 0.1573(9)
H1A H -0.5879 0.7681 0.2357
H2A H -0.6295 0.7387 0.1007
C12A C -0.5475(5) 0.6607(4) 0.1945(8)
H3A H -0.6080 0.6390 0.2374
H4A H -0.4888 0.6596 0.2533
H5A H -0.5316 0.6300 0.1181
H7A H -0.406(3) 0.704(3) 0.008(4)
H11A H -0.282(3) 0.717(3) -0.197(5)
loop_
_geom_bond_atom_site_label_1
_geom_bond_atom_site_label_2
_geom_bond_site_symmetry_1
_geom_bond_site_symmetry_2
O1 C1 1_555 1_555
O2 C4 1_555 1_555
N1 C1 1_555 1_555
C1 C2 1_555 1_555
C2 C3 1_555 1_555
C3 C4 1_555 1_555
C4 N1 1_555 1_555
C5 N1 1_555 1_555
C6 C5 1_555 1_555
C7 C6 1_555 1_555
C8 C7 1_555 1_555
C9 C8 1_555 1_555
C10 C5 1_555 1_555
C11 C6 1_555 1_555
H1 C11 1_555 1_555
H2 C11 1_555 1_555
C12 C11 1_555 1_555
H3 C12 1_555 1_555
H4 C12 1_555 1_555
H5 C12 1_555 1_555
C13 C8 1_555 1_555
H6 C10 1_555 1_555
H7 C7 1_555 1_555
H8 C9 1_555 1_555
H9 C3 1_555 1_555
H10 C2 1_555 1_555
H11 C13 1_555 1_555
C8A C13 1_555 1_555
C7A C8A 1_555 1_555
C6A C7A 1_555 1_555
C5A C6A 1_555 1_555
N1A C5A 1_555 1_555
C1A N1A 1_555 1_555
O1A C1A 1_555 1_555
C2A C1A 1_555 1_555
C3A C2A 1_555 1_555
C4A N1A 1_555 1_555
O2A C4A 1_555 1_555
H9A C3A 1_555 1_555
H10A C2A 1_555 1_555
C10A C5A 1_555 1_555
C9A C8A 1_555 1_555
H8A C9A 1_555 1_555
H6A C10A 1_555 1_555
C11A C6A 1_555 1_555
H1A C11A 1_555 1_555
H2A C11A 1_555 1_555
C12A C11A 1_555 1_555
H3A C12A 1_555 1_555
H4A C12A 1_555 1_555
H5A C12A 1_555 1_555
H7A C7A 1_555 1_555
H11A C13 1_555 1_555
C9 C10 1_555 1_555
C3A C4A 1_555 1_555
C10A C9A 1_555 1_555

#END
