
#######################################################################
#
#                 Cambridge Crystallographic Data Centre
#                                CCDC 
#
#######################################################################
#
# If this CIF has been generated from an entry in the Cambridge 
# Structural Database, then it will include bibliographic, chemical, 
# crystal, experimental, refinement or atomic coordinate data resulting 
# from the CCDC's data processing and validation procedures.
#
#######################################################################

data_ATONOO
_chemical_compound_source        'Leaves of Penicillium tropicum'
_chemical_formula_moiety         'C12 H16 O4'
_chemical_name_systematic        
8a-hydroxy-8-methoxy-3,5-dimethyl-1,3,4,8a-tetrahydro-6H-isochromen-6-one
_symmetry_cell_setting           orthorhombic
_symmetry_space_group_name_H-M   'P 21 21 21'
_symmetry_Int_Tables_number      19
_space_group_name_Hall           'P 2ac 2ab'
loop_
_symmetry_equiv_pos_site_id
_symmetry_equiv_pos_as_xyz
1 x,y,z
2 1/2+x,1/2-y,-z
3 -x,1/2+y,1/2-z
4 1/2-x,-y,1/2+z
_cell_length_a                   6.9929(4)
_cell_length_b                   8.6981(6)
_cell_length_c                   18.0311(12)
_cell_angle_alpha                90
_cell_angle_beta                 90
_cell_angle_gamma                90
_cell_volume                     1096.74
_exptl_crystal_colour            colorless
_exptl_crystal_description       block
_cell_formula_units_Z            4
_exptl_crystal_recrystallization_method methanol
loop_
_atom_site_label
_atom_site_type_symbol
_atom_site_fract_x
_atom_site_fract_y
_atom_site_fract_z
O1 O -0.10844(19) -0.02284(15) 0.13999(7)
H1 H -0.197(3) 0.030(3) 0.1176(13)
O2 O 0.0793(2) -0.14947(15) 0.02053(7)
O3 O 0.12514(18) 0.37256(16) -0.05136(7)
O4 O 0.22521(19) -0.00355(16) 0.23221(7)
C1 C 0.2306(3) -0.0366(2) 0.15556(10)
H2 H 0.2223 -0.1493 0.1484
H3 H 0.3545 -0.0017 0.1350
C2 C 0.0660(3) 0.0418(2) 0.11240(9)
C3 C 0.0885(3) 0.0034(2) 0.03127(9)
C4 C 0.1059(3) -0.2069(2) -0.05338(10)
H4 H 0.0166 -0.1553 -0.0871
H5 H 0.0818 -0.3179 -0.0541
H6 H 0.2374 -0.1868 -0.0694
C5 C 0.1140(3) 0.1110(2) -0.02143(10)
H7 H 0.1321 0.0809 -0.0716
C6 C 0.1141(2) 0.2731(2) -0.00200(10)
C7 C 0.1014(3) 0.3191(2) 0.07666(10)
C8 C 0.0757(2) 0.2115(2) 0.12917(10)
C9 C 0.1163(3) 0.4880(2) 0.09224(12)
H8 H 0.0029 0.5405 0.0728
H9 H 0.2311 0.5293 0.0682
H10 H 0.1247 0.5045 0.1459
C10 C 0.0672(3) 0.2411(2) 0.21124(10)
H11 H -0.0563 0.2042 0.2313
H12 H 0.0769 0.3529 0.2209
C11 C 0.2325(3) 0.1569(2) 0.24947(10)
H13 H 0.2106 0.1663 0.3041
C12 C 0.4263(3) 0.2278(3) 0.23370(12)
H14 H 0.5262 0.1665 0.2577
H15 H 0.4296 0.3330 0.2531
H16 H 0.4484 0.2297 0.1800
loop_
_geom_bond_atom_site_label_1
_geom_bond_atom_site_label_2
_geom_bond_site_symmetry_1
_geom_bond_site_symmetry_2
O1 H1 1_555 1_555
O2 C3 1_555 1_555
O3 C6 1_555 1_555
O4 C1 1_555 1_555
C1 H2 1_555 1_555
H3 C1 1_555 1_555
C2 O1 1_555 1_555
C3 C2 1_555 1_555
C4 O2 1_555 1_555
H4 C4 1_555 1_555
H5 C4 1_555 1_555
H6 C4 1_555 1_555
C5 C3 1_555 1_555
H7 C5 1_555 1_555
C6 C5 1_555 1_555
C7 C6 1_555 1_555
C8 C2 1_555 1_555
C9 C7 1_555 1_555
H8 C9 1_555 1_555
H9 C9 1_555 1_555
H10 C9 1_555 1_555
C10 C8 1_555 1_555
H11 C10 1_555 1_555
H12 C10 1_555 1_555
C11 O4 1_555 1_555
H13 C11 1_555 1_555
C12 C11 1_555 1_555
H14 C12 1_555 1_555
H15 C12 1_555 1_555
H16 C12 1_555 1_555
C1 C2 1_555 1_555
C7 C8 1_555 1_555
C10 C11 1_555 1_555

#END
