
#######################################################################
#
#                 Cambridge Crystallographic Data Centre
#                                CCDC 
#
#######################################################################
#
# If this CIF has been generated from an entry in the Cambridge 
# Structural Database, then it will include bibliographic, chemical, 
# crystal, experimental, refinement or atomic coordinate data resulting 
# from the CCDC's data processing and validation procedures.
#
#######################################################################

data_ATOQEG
_chemical_formula_moiety         'C19 H18 Br1 N1 O2'
_chemical_name_systematic        
3-(4-Bromophenyl)-7-(N,N-diethylamino)-2H-chromen-2-one
_symmetry_cell_setting           monoclinic
_symmetry_space_group_name_H-M   'P 21/c'
_symmetry_Int_Tables_number      14
_space_group_name_Hall           '-P 2ybc'
loop_
_symmetry_equiv_pos_site_id
_symmetry_equiv_pos_as_xyz
1 x,y,z
2 -x,1/2+y,1/2-z
3 -x,-y,-z
4 x,1/2-y,1/2+z
_cell_length_a                   16.2673(19)
_cell_length_b                   12.5722(15)
_cell_length_c                   8.2004(10)
_cell_angle_alpha                90
_cell_angle_beta                 104.60
_cell_angle_gamma                90
_cell_volume                     1622.96
_exptl_crystal_colour            yellow
_exptl_crystal_description       tabular
_cell_formula_units_Z            4
loop_
_atom_site_label
_atom_site_type_symbol
_atom_site_fract_x
_atom_site_fract_y
_atom_site_fract_z
Br1 Br 0.141681(18) 0.86845(3) 0.20796(4)
C1 C 0.24249(15) 0.8866(2) 0.3831(3)
C2 C 0.28718(16) 0.7993(2) 0.4601(4)
H1 H 0.2673 0.7309 0.4293
C3 C 0.36129(15) 0.81384(19) 0.5826(3)
H2 H 0.3915 0.7546 0.6329
C4 C 0.39250(14) 0.91511(17) 0.6336(3)
C5 C 0.34387(15) 1.00176(19) 0.5561(3)
H3 H 0.3621 1.0704 0.5890
C6 C 0.27013(16) 0.9880(2) 0.4330(4)
H4 H 0.2389 1.0467 0.3834
C7 C 0.52796(14) 1.02024(17) 0.7510(3)
C8 C 0.47489(14) 0.92706(17) 0.7584(3)
C9 C 0.50658(15) 0.85124(16) 0.8763(3)
H5 H 0.4719 0.7943 0.8875
C10 C 0.58995(15) 0.85526(16) 0.9824(3)
C11 C 0.64191(15) 0.94005(17) 0.9649(3)
C12 C 0.72491(15) 0.94961(18) 1.0542(3)
H6 H 0.7572 1.0073 1.0355
C13 C 0.76124(16) 0.87194(18) 1.1742(3)
C14 C 0.70924(15) 0.78516(18) 1.1940(3)
H7 H 0.7316 0.7322 1.2717
C15 C 0.62734(15) 0.77747(17) 1.1021(3)
H8 H 0.5950 0.7193 1.1186
C16 C 0.87765(17) 0.8164(2) 1.4185(3)
H9 H 0.8306 0.7923 1.4619
H10 H 0.9134 0.8615 1.5035
C17 C 0.9283(2) 0.7213(2) 1.3895(4)
H11 H 0.8925 0.6744 1.3099
H12 H 0.9498 0.6844 1.4941
H13 H 0.9749 0.7444 1.3461
C18 C 0.89967(16) 0.9640(2) 1.2352(4)
H14 H 0.8864 0.9782 1.1152
H15 H 0.9581 0.9396 1.2695
C19 C 0.8921(2) 1.0657(3) 1.3261(4)
H16 H 0.8345 1.0904 1.2934
H17 H 0.9289 1.1184 1.2976
H18 H 0.9082 1.0534 1.4455
N1 N 0.84428(14) 0.87919(16) 1.2663(3)
O1 O 0.50857(11) 1.09808(13) 0.6640(2)
O2 O 0.60964(10) 1.02113(11) 0.8541(2)
loop_
_geom_bond_atom_site_label_1
_geom_bond_atom_site_label_2
_geom_bond_site_symmetry_1
_geom_bond_site_symmetry_2
Br1 C1 1_555 1_555
C1 C2 1_555 1_555
C2 H1 1_555 1_555
C3 C2 1_555 1_555
H2 C3 1_555 1_555
C4 C3 1_555 1_555
C5 C4 1_555 1_555
H3 C5 1_555 1_555
C6 C1 1_555 1_555
H4 C6 1_555 1_555
C7 C8 1_555 1_555
C8 C4 1_555 1_555
C9 C8 1_555 1_555
H5 C9 1_555 1_555
C10 C9 1_555 1_555
C11 C10 1_555 1_555
C12 C11 1_555 1_555
H6 C12 1_555 1_555
C13 C12 1_555 1_555
C14 C13 1_555 1_555
H7 C14 1_555 1_555
C15 C10 1_555 1_555
H8 C15 1_555 1_555
C16 H9 1_555 1_555
H10 C16 1_555 1_555
C17 C16 1_555 1_555
H11 C17 1_555 1_555
H12 C17 1_555 1_555
H13 C17 1_555 1_555
C18 H14 1_555 1_555
H15 C18 1_555 1_555
C19 C18 1_555 1_555
H16 C19 1_555 1_555
H17 C19 1_555 1_555
H18 C19 1_555 1_555
N1 C13 1_555 1_555
O1 C7 1_555 1_555
O2 C7 1_555 1_555
C5 C6 1_555 1_555
C11 O2 1_555 1_555
C14 C15 1_555 1_555
C16 N1 1_555 1_555
C18 N1 1_555 1_555

#END
