
#######################################################################
#
#                 Cambridge Crystallographic Data Centre
#                                CCDC 
#
#######################################################################
#
# If this CIF has been generated from an entry in the Cambridge 
# Structural Database, then it will include bibliographic, chemical, 
# crystal, experimental, refinement or atomic coordinate data resulting 
# from the CCDC's data processing and validation procedures.
#
#######################################################################

data_ATOWIP
_chemical_formula_moiety         'C20 H14 O4'
_chemical_name_systematic        2,5-Dibenzoyl-1,4-dihydroxybenzene
_symmetry_cell_setting           monoclinic
_symmetry_space_group_name_H-M   'P 21/n'
_symmetry_Int_Tables_number      14
_space_group_name_Hall           '-P 2yn'
loop_
_symmetry_equiv_pos_site_id
_symmetry_equiv_pos_as_xyz
1 x,y,z
2 1/2+x,1/2-y,1/2+z
3 -x,-y,-z
4 1/2-x,1/2+y,1/2-z
_cell_length_a                   5.7789(7)
_cell_length_b                   20.994(4)
_cell_length_c                   6.7385(19)
_cell_angle_alpha                90
_cell_angle_beta                 112.775(18)
_cell_angle_gamma                90
_cell_volume                     753.789
_exptl_crystal_colour            orange
_exptl_crystal_description       block
_chemical_melting_point          203-205deg.C
_cell_formula_units_Z            2
_exptl_crystal_recrystallization_method dichloromethane
loop_
_atom_site_label
_atom_site_type_symbol
_atom_site_fract_x
_atom_site_fract_y
_atom_site_fract_z
O1 O 0.5188(6) 0.04233(17) 0.7659(6)
H1 H 0.483(11) 0.068(3) 0.855(9)
O2 O 0.5616(6) 0.10603(15) 1.1109(6)
C1 C 0.7579(8) 0.0223(2) 0.8866(8)
C2 C 0.8964(8) 0.0458(2) 1.0925(7)
C3 C 0.8605(8) -0.0218(2) 0.7944(7)
H2 H 0.7682 -0.0361 0.6553
C4 C 0.7883(8) 0.0939(2) 1.1909(7)
C5 C 0.9461(8) 0.1294(2) 1.3897(7)
C6 C 1.1642(9) 0.1606(2) 1.4028(8)
H3 H 1.2236 0.1564 1.2934
C7 C 1.2920(9) 0.1980(2) 1.5827(9)
H4 H 1.4373 0.2193 1.5930
C8 C 1.2069(10) 0.2037(2) 1.7428(9)
H5 H 1.2934 0.2291 1.8615
C9 C 0.9942(10) 0.1723(2) 1.7316(8)
H6 H 0.9399 0.1752 1.8445
C10 C 0.8598(9) 0.1360(2) 1.5502(7)
H7 H 0.7110 0.1163 1.5387
C3B C 1.1395(8) 0.0218(2) 1.2056(7)
C1B C 1.2421(8) -0.0223(2) 1.1134(8)
O1B O 1.4812(6) -0.04233(17) 1.2341(6)
H1B H 1.517(11) -0.068(3) 1.145(9)
C2B C 1.1036(8) -0.0458(2) 0.9075(7)
C4B C 1.2117(8) -0.0939(2) 0.8091(7)
O2B O 1.4384(6) -0.10603(15) 0.8891(6)
C5B C 1.0539(8) -0.1294(2) 0.6103(7)
C6B C 0.8358(9) -0.1606(2) 0.5972(8)
H3B H 0.7764 -0.1564 0.7066
C7B C 0.7080(9) -0.1980(2) 0.4173(9)
H4B H 0.5627 -0.2193 0.4070
C8B C 0.7931(10) -0.2037(2) 0.2572(9)
H5B H 0.7066 -0.2291 0.1385
C9B C 1.0058(10) -0.1723(2) 0.2684(8)
H6B H 1.0601 -0.1752 0.1555
C10B C 1.1402(9) -0.1360(2) 0.4498(7)
H7B H 1.2890 -0.1163 0.4613
H2B H 1.2318 0.0361 1.3447
loop_
_geom_bond_atom_site_label_1
_geom_bond_atom_site_label_2
_geom_bond_site_symmetry_1
_geom_bond_site_symmetry_2
O1 H1 1_555 1_555
O2 C4 1_555 1_555
C1 O1 1_555 1_555
C2 C1 1_555 1_555
C3 C1 1_555 1_555
H2 C3 1_555 1_555
C4 C2 1_555 1_555
C5 C4 1_555 1_555
C6 C5 1_555 1_555
H3 C6 1_555 1_555
C7 C6 1_555 1_555
H4 C7 1_555 1_555
C8 C7 1_555 1_555
H5 C8 1_555 1_555
C9 C8 1_555 1_555
H6 C9 1_555 1_555
C10 C5 1_555 1_555
H7 C10 1_555 1_555
C3B C2 1_555 1_555
C1B C3B 1_555 1_555
O1B C1B 1_555 1_555
H1B O1B 1_555 1_555
C2B C3 1_555 1_555
C4B C2B 1_555 1_555
O2B C4B 1_555 1_555
C5B C4B 1_555 1_555
C6B C5B 1_555 1_555
H3B C6B 1_555 1_555
C7B C6B 1_555 1_555
H4B C7B 1_555 1_555
C8B C7B 1_555 1_555
H5B C8B 1_555 1_555
C9B C8B 1_555 1_555
H6B C9B 1_555 1_555
C10B C5B 1_555 1_555
H7B C10B 1_555 1_555
H2B C3B 1_555 1_555
C9 C10 1_555 1_555
C1B C2B 1_555 1_555
C9B C10B 1_555 1_555

#END
