
#######################################################################
#
#                 Cambridge Crystallographic Data Centre
#                                CCDC 
#
#######################################################################
#
# If this CIF has been generated from an entry in the Cambridge 
# Structural Database, then it will include bibliographic, chemical, 
# crystal, experimental, refinement or atomic coordinate data resulting 
# from the CCDC's data processing and validation procedures.
#
#######################################################################

data_ATOYUD
_chemical_formula_moiety         'C14 H19 N1 O3'
_chemical_name_systematic        
syn-5-(3-Methylenetetrahydropyran-2-yl)-4-(pyrrolidinyl)-5H-furan-2-one
_symmetry_cell_setting           orthorhombic
_symmetry_space_group_name_H-M   'P 21 21 21'
_symmetry_Int_Tables_number      19
_space_group_name_Hall           'P 2ac 2ab'
loop_
_symmetry_equiv_pos_site_id
_symmetry_equiv_pos_as_xyz
1 x,y,z
2 1/2-x,-y,1/2+z
3 1/2+x,1/2-y,-z
4 -x,1/2+y,1/2-z
_cell_length_a                   9.6770(3)
_cell_length_b                   11.0710(3)
_cell_length_c                   12.0990(4)
_cell_angle_alpha                90
_cell_angle_beta                 90
_cell_angle_gamma                90
_cell_volume                     1296.22
_exptl_crystal_colour            colorless
_chemical_melting_point          '395 K'
_cell_formula_units_Z            4
_exptl_crystal_recrystallization_method 'ethyl acetate/hexane'
loop_
_atom_site_label
_atom_site_type_symbol
_atom_site_fract_x
_atom_site_fract_y
_atom_site_fract_z
O1 O 0.3472(2) 0.3224(2) -0.09969(13)
O2 O 0.4936(2) 0.3034(2) -0.24142(15)
O3 O 0.45613(15) 0.2482(2) 0.11046(13)
N1 N 0.2620(2) 0.0194(2) -0.0154(2)
C1 C 0.4238(3) 0.2526(3) -0.1720(2)
C2 C 0.4018(3) 0.1279(3) -0.1479(2)
H1 H 0.4424(3) 0.0633(3) -0.1848(2)
C3 C 0.3119(2) 0.1194(2) -0.0622(2)
C4 C 0.2745(2) 0.2447(2) -0.0235(2)
H2 H 0.1748(2) 0.2566(2) -0.0332(2)
C5 C 0.3124(2) 0.2744(2) 0.0948(2)
H3 H 0.2605(2) 0.2189(2) 0.1423(2)
C6 C 0.2789(3) 0.4008(2) 0.1328(2)
C7 C 0.2137(3) 0.4822(3) 0.0736(3)
H4 H 0.1943(3) 0.5576(3) 0.1036(3)
H5 H 0.1869(3) 0.4643(3) 0.0016(3)
C8 C 0.3246(3) 0.4247(3) 0.2495(2)
H6 H 0.2672(3) 0.3792(3) 0.3004(2)
H7 H 0.3141(3) 0.5098(3) 0.2663(2)
C9 C 0.4739(3) 0.3881(3) 0.2638(2)
H8 H 0.5326(3) 0.4433(3) 0.2229(2)
H9 H 0.4989(3) 0.3934(3) 0.3413(2)
C10 C 0.4973(3) 0.2619(3) 0.2235(2)
H10 H 0.5944(3) 0.2418(3) 0.2307(2)
H11 H 0.4450(3) 0.2061(3) 0.2691(2)
C11 C 0.2983(3) -0.1000(3) -0.0586(2)
H12 H 0.3959(3) -0.1166(3) -0.0483(2)
H13 H 0.2762(3) -0.1063(3) -0.1366(2)
C12 C 0.2102(3) -0.1858(3) 0.0094(2)
H14 H 0.1862(3) -0.2573(3) -0.0327(2)
H15 H 0.2577(3) -0.2100(3) 0.0764(2)
C13 C 0.0831(3) -0.1114(3) 0.0357(2)
H16 H 0.0354(3) -0.1427(3) 0.1001(2)
H17 H 0.0197(3) -0.1097(3) -0.0263(2)
C14 C 0.1425(3) 0.0130(3) 0.0582(2)
H18 H 0.0759(3) 0.0757(3) 0.0409(2)
H19 H 0.1703(3) 0.0210(3) 0.1349(2)
loop_
_geom_bond_atom_site_label_1
_geom_bond_atom_site_label_2
_geom_bond_site_symmetry_1
_geom_bond_site_symmetry_2
O1 C1 1_555 1_555
O2 C1 1_555 1_555
O3 C5 1_555 1_555
N1 C3 1_555 1_555
C1 C2 1_555 1_555
C2 H1 1_555 1_555
C3 C2 1_555 1_555
C4 O1 1_555 1_555
H2 C4 1_555 1_555
C5 C4 1_555 1_555
H3 C5 1_555 1_555
C6 C5 1_555 1_555
C7 C6 1_555 1_555
H4 C7 1_555 1_555
H5 C7 1_555 1_555
C8 C6 1_555 1_555
H6 C8 1_555 1_555
H7 C8 1_555 1_555
C9 C8 1_555 1_555
H8 C9 1_555 1_555
H9 C9 1_555 1_555
C10 O3 1_555 1_555
H10 C10 1_555 1_555
H11 C10 1_555 1_555
C11 N1 1_555 1_555
H12 C11 1_555 1_555
H13 C11 1_555 1_555
C12 C11 1_555 1_555
H14 C12 1_555 1_555
H15 C12 1_555 1_555
C13 C12 1_555 1_555
H16 C13 1_555 1_555
H17 C13 1_555 1_555
C14 N1 1_555 1_555
H18 C14 1_555 1_555
H19 C14 1_555 1_555
C3 C4 1_555 1_555
C9 C10 1_555 1_555
C13 C14 1_555 1_555

#END
