
#######################################################################
#
#                 Cambridge Crystallographic Data Centre
#                                CCDC 
#
#######################################################################
#
# If this CIF has been generated from an entry in the Cambridge 
# Structural Database, then it will include bibliographic, chemical, 
# crystal, experimental, refinement or atomic coordinate data resulting 
# from the CCDC's data processing and validation procedures.
#
#######################################################################

data_ATOYOX
_chemical_formula_moiety         'C14 H21 N1 O2'
_chemical_name_systematic        
anti-4-(Pyrrolidinyl)-5-(hexen-3-yl)-5H-furan-2-one
_symmetry_cell_setting           monoclinic
_symmetry_space_group_name_H-M   'P 21/c'
_symmetry_Int_Tables_number      14
_space_group_name_Hall           '-P 2ybc'
loop_
_symmetry_equiv_pos_site_id
_symmetry_equiv_pos_as_xyz
1 x,y,z
2 -x,1/2+y,1/2-z
3 -x,-y,-z
4 x,1/2-y,1/2+z
_cell_length_a                   9.8640(5)
_cell_length_b                   7.8940(4)
_cell_length_c                   17.7370(10)
_cell_angle_alpha                90.00
_cell_angle_beta                 95.966(2)
_cell_angle_gamma                90.00
_cell_volume                     1373.64
_exptl_crystal_colour            colorless
_chemical_melting_point          '384 K'
_cell_formula_units_Z            4
_exptl_crystal_recrystallization_method 'ethyl acetate/hexane'
loop_
_atom_site_label
_atom_site_type_symbol
_atom_site_fract_x
_atom_site_fract_y
_atom_site_fract_z
O1 O 0.0976(2) -0.1251(2) 0.19821(10)
O2 O 0.2095(2) -0.3725(2) 0.19768(13)
N1 N 0.3132(2) 0.1521(3) 0.31931(12)
C1 C 0.2102(3) -0.2260(4) 0.2198(2)
C2 C 0.3061(3) -0.1320(3) 0.2678(2)
H1 H 0.3900(3) -0.1722(3) 0.2893(2)
C3 C 0.2565(2) 0.0264(3) 0.27754(15)
C4 C 0.1208(3) 0.0428(3) 0.23014(15)
H2 H 0.0496(3) 0.0698(3) 0.26286(15)
C5 C 0.1176(2) 0.1726(3) 0.16530(15)
H3 H 0.1263(2) 0.2854(3) 0.18833(15)
C6 C 0.2369(3) 0.1479(4) 0.1202(2)
H4 H 0.2439(3) 0.0448(4) 0.0956(2)
C7 C 0.3304(3) 0.2597(4) 0.1132(2)
H5 H 0.3267(3) 0.3643(4) 0.1370(2)
H6 H 0.4015(3) 0.2355(4) 0.0843(2)
C8 C -0.0184(3) 0.1671(3) 0.11560(15)
H7 H -0.0231(3) 0.0628(3) 0.08657(15)
H8 H -0.0916(3) 0.1651(3) 0.14808(15)
C9 C -0.0407(3) 0.3147(4) 0.0615(2)
H9 H -0.0291(3) 0.4193(4) 0.0901(2)
H10 H 0.0285(3) 0.3117(4) 0.0264(2)
C10 C -0.1788(3) 0.3156(5) 0.0169(2)
H11 H -0.1862(3) 0.4121(5) -0.0162(2)
H12 H -0.2480(3) 0.3215(5) 0.0510(2)
H13 H -0.1904(3) 0.2138(5) -0.0127(2)
C11 C 0.4460(3) 0.1334(4) 0.3633(2)
H14 H 0.5163(3) 0.1077(4) 0.3306(2)
H15 H 0.4440(3) 0.0445(4) 0.4009(2)
C12 C 0.4702(3) 0.3050(4) 0.4007(2)
H16 H 0.5134(3) 0.2921(4) 0.4521(2)
H17 H 0.5283(3) 0.3743(4) 0.3723(2)
C13 C 0.3338(4) 0.3833(5) 0.4009(2)
H18 H 0.2953(4) 0.3566(5) 0.4477(2)
H19 H 0.3401(4) 0.5054(5) 0.3965(2)
C14 C 0.2482(3) 0.3129(4) 0.3356(2)
H20 H 0.1559(3) 0.2944(4) 0.3479(2)
H21 H 0.2457(3) 0.3887(4) 0.2924(2)
loop_
_geom_bond_atom_site_label_1
_geom_bond_atom_site_label_2
_geom_bond_site_symmetry_1
_geom_bond_site_symmetry_2
O1 C1 1_555 1_555
O2 C1 1_555 1_555
N1 C3 1_555 1_555
C1 C2 1_555 1_555
C2 H1 1_555 1_555
C3 C2 1_555 1_555
C4 O1 1_555 1_555
H2 C4 1_555 1_555
C5 C4 1_555 1_555
H3 C5 1_555 1_555
C6 C5 1_555 1_555
H4 C6 1_555 1_555
C7 C6 1_555 1_555
H5 C7 1_555 1_555
H6 C7 1_555 1_555
C8 C5 1_555 1_555
H7 C8 1_555 1_555
H8 C8 1_555 1_555
C9 C8 1_555 1_555
H9 C9 1_555 1_555
H10 C9 1_555 1_555
C10 C9 1_555 1_555
H11 C10 1_555 1_555
H12 C10 1_555 1_555
H13 C10 1_555 1_555
C11 N1 1_555 1_555
H14 C11 1_555 1_555
H15 C11 1_555 1_555
C12 C11 1_555 1_555
H16 C12 1_555 1_555
H17 C12 1_555 1_555
C13 C12 1_555 1_555
H18 C13 1_555 1_555
H19 C13 1_555 1_555
C14 N1 1_555 1_555
H20 C14 1_555 1_555
H21 C14 1_555 1_555
C3 C4 1_555 1_555
C13 C14 1_555 1_555

#END
