
#######################################################################
#
#                 Cambridge Crystallographic Data Centre
#                                CCDC 
#
#######################################################################
#
# If this CIF has been generated from an entry in the Cambridge 
# Structural Database, then it will include bibliographic, chemical, 
# crystal, experimental, refinement or atomic coordinate data resulting 
# from the CCDC's data processing and validation procedures.
#
#######################################################################

data_ATOZAK
_chemical_formula_moiety         'C14 H19 N1 O3'
_chemical_name_systematic        
syn-5-(3-Methylenetetrahydropyran-4-yl)-4-(pyrrolidinyl)-5H-furan-2-one
_symmetry_cell_setting           monoclinic
_symmetry_space_group_name_H-M   'P 21'
_symmetry_Int_Tables_number      4
_space_group_name_Hall           'P 2yb'
loop_
_symmetry_equiv_pos_site_id
_symmetry_equiv_pos_as_xyz
1 x,y,z
2 -x,1/2+y,-z
_cell_length_a                   6.08900(10)
_cell_length_b                   11.4540(3)
_cell_length_c                   9.5250(3)
_cell_angle_alpha                90.00
_cell_angle_beta                 100.7350(10)
_cell_angle_gamma                90.00
_cell_volume                     652.68
_exptl_crystal_colour            colorless
_chemical_melting_point          '395 K'
_cell_formula_units_Z            2
_exptl_crystal_recrystallization_method 'ethyl acetate/hexane'
loop_
_atom_site_label
_atom_site_type_symbol
_atom_site_fract_x
_atom_site_fract_y
_atom_site_fract_z
O1 O 0.6942(3) -0.0002(2) 0.6066(2)
O2 O 0.5450(2) 0.17157(12) 0.6530(2)
O3 O 0.1671(3) 0.2159(2) 1.0296(2)
N1 N 0.0161(2) 0.18763(14) 0.4110(2)
C1 C 0.5378(3) 0.0671(2) 0.5788(2)
C2 C 0.3351(3) 0.0609(2) 0.4781(2)
H1 H 0.2924(3) -0.0003(2) 0.4148(2)
C3 C 0.2133(3) 0.15857(15) 0.4887(2)
C4 C 0.3368(3) 0.2326(2) 0.6086(2)
H2 H 0.3654(3) 0.3101(2) 0.5723(2)
C5 C 0.2147(3) 0.2448(2) 0.7348(2)
H3 H 0.0693(3) 0.2802(2) 0.6967(2)
C6 C 0.1664(4) 0.1271(2) 0.7980(2)
H4 H 0.0765(4) 0.0796(2) 0.7247(2)
H5 H 0.3058(4) 0.0863(2) 0.8318(2)
C7 C 0.0438(4) 0.1442(2) 0.9203(3)
H6 H -0.1001(4) 0.1800(2) 0.8847(3)
H7 H 0.0173(4) 0.0688(2) 0.9603(3)
C8 C 0.2015(4) 0.3275(2) 0.9760(2)
H8 H 0.2845(4) 0.3748(2) 1.0524(2)
H9 H 0.0578(4) 0.3646(2) 0.9437(2)
C9 C 0.3275(3) 0.3234(2) 0.8537(2)
C10 C 0.5137(4) 0.3820(2) 0.8573(3)
H10 H 0.5893(4) 0.3771(2) 0.7812(3)
H11 H 0.5700(4) 0.4283(2) 0.9359(3)
C11 C -0.0950(4) 0.1123(2) 0.2953(2)
H12 H -0.1413(4) 0.0394(2) 0.3327(2)
H13 H 0.0034(4) 0.0953(2) 0.2287(2)
C12 C -0.2961(4) 0.1825(2) 0.2233(2)
H14 H -0.3223(4) 0.1718(2) 0.1205(2)
H15 H -0.4293(4) 0.1595(2) 0.2586(2)
C13 C -0.2347(4) 0.3074(2) 0.2626(3)
H16 H -0.3675(4) 0.3546(2) 0.2606(3)
H17 H -0.1469(4) 0.3408(2) 0.1975(3)
C14 C -0.0991(3) 0.2998(2) 0.4125(2)
H18 H 0.0067(3) 0.3638(2) 0.4318(2)
H19 H -0.1949(3) 0.3002(2) 0.4833(2)
loop_
_geom_bond_atom_site_label_1
_geom_bond_atom_site_label_2
_geom_bond_site_symmetry_1
_geom_bond_site_symmetry_2
O1 C1 1_555 1_555
O2 C1 1_555 1_555
O3 C7 1_555 1_555
N1 C3 1_555 1_555
C1 C2 1_555 1_555
C2 H1 1_555 1_555
C3 C2 1_555 1_555
C4 O2 1_555 1_555
H2 C4 1_555 1_555
C5 C4 1_555 1_555
H3 C5 1_555 1_555
C6 C5 1_555 1_555
H4 C6 1_555 1_555
H5 C6 1_555 1_555
C7 C6 1_555 1_555
H6 C7 1_555 1_555
H7 C7 1_555 1_555
C8 O3 1_555 1_555
H8 C8 1_555 1_555
H9 C8 1_555 1_555
C9 C5 1_555 1_555
C10 C9 1_555 1_555
H10 C10 1_555 1_555
H11 C10 1_555 1_555
C11 N1 1_555 1_555
H12 C11 1_555 1_555
H13 C11 1_555 1_555
C12 C11 1_555 1_555
H14 C12 1_555 1_555
H15 C12 1_555 1_555
C13 C12 1_555 1_555
H16 C13 1_555 1_555
H17 C13 1_555 1_555
C14 N1 1_555 1_555
H18 C14 1_555 1_555
H19 C14 1_555 1_555
C3 C4 1_555 1_555
C8 C9 1_555 1_555
C13 C14 1_555 1_555

#END
