
#######################################################################
#
#                 Cambridge Crystallographic Data Centre
#                                CCDC 
#
#######################################################################
#
# If this CIF has been generated from an entry in the Cambridge 
# Structural Database, then it will include bibliographic, chemical, 
# crystal, experimental, refinement or atomic coordinate data resulting 
# from the CCDC's data processing and validation procedures.
#
#######################################################################

data_ATUDAW
_chemical_formula_moiety         'C10 H18 O7 S1'
_chemical_name_systematic        
'(3aR,4S,6S,7S,7aR)-6,7-dihydroxy-2,2-dimethylhexahydro-1,3-benzodioxol-4-yl methanesulfonate'
_symmetry_cell_setting           monoclinic
_symmetry_space_group_name_H-M   'P 21'
_symmetry_Int_Tables_number      4
_space_group_name_Hall           'P 2yb'
loop_
_symmetry_equiv_pos_site_id
_symmetry_equiv_pos_as_xyz
1 x,y,z
2 -x,1/2+y,-z
_cell_length_a                   10.233(3)
_cell_length_b                   5.9384(16)
_cell_length_c                   11.784(3)
_cell_angle_alpha                90
_cell_angle_beta                 112.202(7)
_cell_angle_gamma                90
_cell_volume                     662.993
_exptl_crystal_colour            colorless
_exptl_crystal_description       needle
_cell_formula_units_Z            2
_exptl_crystal_recrystallization_method 'ethyl acetate/hexane'
loop_
_atom_site_label
_atom_site_type_symbol
_atom_site_fract_x
_atom_site_fract_y
_atom_site_fract_z
S1 S 0.04663(9) 0.68431(17) 0.82065(8)
O1 O 0.1749(3) 0.7333(5) 0.7820(2)
O2 O 0.4154(3) 0.5208(5) 0.7949(2)
O3 O 0.3802(3) 0.4868(5) 0.4224(3)
H1 H 0.3125 0.4078 0.3831
O4 O 0.1066(3) 0.6290(6) 0.4092(2)
H2 H 0.1253 0.5361 0.3661
O5 O 0.4675(3) 0.2745(6) 0.6684(2)
O6 O -0.0807(3) 0.6919(7) 0.7153(3)
C1 C 0.2853(4) 0.4515(6) 0.7003(3)
H3 H 0.2481 0.3191 0.7277
C2 C 0.3581(4) 0.5808(6) 0.5250(3)
H4 H 0.4429 0.6638 0.5756
C3 C 0.3367(4) 0.3830(6) 0.5987(3)
H5 H 0.2711 0.2742 0.5436
C4 C 0.1779(4) 0.6370(7) 0.6677(3)
H6 H 0.0848 0.5748 0.6190
C5 C 0.2326(4) 0.7396(6) 0.4854(3)
H7 H 0.2513 0.8659 0.4401
C6 C 0.2097(4) 0.8310(7) 0.5982(4)
H8 H 0.2938 0.9097 0.6511
H9 H 0.1317 0.9367 0.5728
C7 C 0.5206(5) 0.3656(9) 0.7934(4)
C8 C 0.0745(6) 0.4076(10) 0.8758(4)
H10 H 0.0119 0.3747 0.9171
H11 H 0.1705 0.3911 0.9321
H12 H 0.0565 0.3054 0.8085
C9 C 0.5358(6) 0.1720(11) 0.8802(4)
H13 H 0.5800 0.2241 0.9631
H14 H 0.5929 0.0565 0.8652
H15 H 0.4442 0.1121 0.8676
C10 C 0.6550(6) 0.4950(12) 0.8171(6)
H16 H 0.6371 0.6155 0.7589
H17 H 0.7252 0.3960 0.8090
H18 H 0.6885 0.5559 0.8986
O7 O 0.0669(4) 0.8363(8) 0.9196(3)
loop_
_geom_bond_atom_site_label_1
_geom_bond_atom_site_label_2
_geom_bond_site_symmetry_1
_geom_bond_site_symmetry_2
S1 O1 1_555 1_555
O1 C4 1_555 1_555
O2 C1 1_555 1_555
O3 H1 1_555 1_555
O4 H2 1_555 1_555
O5 C3 1_555 1_555
O6 S1 1_555 1_555
C1 H3 1_555 1_555
C2 O3 1_555 1_555
H4 C2 1_555 1_555
C3 C1 1_555 1_555
H5 C3 1_555 1_555
C4 C1 1_555 1_555
H6 C4 1_555 1_555
C5 O4 1_555 1_555
H7 C5 1_555 1_555
C6 C4 1_555 1_555
H8 C6 1_555 1_555
H9 C6 1_555 1_555
C7 O2 1_555 1_555
C8 S1 1_555 1_555
H10 C8 1_555 1_555
H11 C8 1_555 1_555
H12 C8 1_555 1_555
C9 C7 1_555 1_555
H13 C9 1_555 1_555
H14 C9 1_555 1_555
H15 C9 1_555 1_555
C10 C7 1_555 1_555
H16 C10 1_555 1_555
H17 C10 1_555 1_555
H18 C10 1_555 1_555
O7 S1 1_555 1_555
O5 C7 1_555 1_555
C2 C3 1_555 1_555
C2 C5 1_555 1_555
C5 C6 1_555 1_555

#END
