
#######################################################################
#
#                 Cambridge Crystallographic Data Centre
#                                CCDC 
#
#######################################################################
#
# If this CIF has been generated from an entry in the Cambridge 
# Structural Database, then it will include bibliographic, chemical, 
# crystal, experimental, refinement or atomic coordinate data resulting 
# from the CCDC's data processing and validation procedures.
#
#######################################################################

data_ATUFIE
_chemical_formula_moiety         'C23 H28'
_chemical_name_systematic        (+)-9-Neomenthylfluorene
_symmetry_cell_setting           orthorhombic
_symmetry_space_group_name_H-M   'P 21 21 21'
_symmetry_Int_Tables_number      19
_space_group_name_Hall           'P 2ac 2ab'
loop_
_symmetry_equiv_pos_site_id
_symmetry_equiv_pos_as_xyz
1 x,y,z
2 1/2-x,-y,1/2+z
3 -x,1/2+y,1/2-z
4 1/2+x,1/2-y,-z
_cell_length_a                   8.6840(17)
_cell_length_b                   12.540(3)
_cell_length_c                   17.167(3)
_cell_angle_alpha                90
_cell_angle_beta                 90
_cell_angle_gamma                90
_cell_volume                     1869.44
_exptl_crystal_colour            colorless
_exptl_crystal_description       prism
_chemical_melting_point          76deg.C
_cell_formula_units_Z            4
_exptl_crystal_recrystallization_method methanol
loop_
_atom_site_label
_atom_site_type_symbol
_atom_site_fract_x
_atom_site_fract_y
_atom_site_fract_z
C1 C -0.0647(2) -0.99563(19) -0.85065(14)
H1 H -0.0656 -1.0285 -0.7989
C2 C -0.1178(3) -0.8800(2) -0.84336(13)
C3 C -0.2547(3) -0.8412(2) -0.81513(15)
H2 H -0.3291 -0.8871 -0.7953
C4 C -0.2795(4) -0.7315(3) -0.81686(19)
H3 H -0.3708 -0.7033 -0.7973
C5 C -0.1690(4) -0.6645(3) -0.8475(2)
H4 H -0.1871 -0.5914 -0.8487
C6 C -0.0332(4) -0.7036(2) -0.87598(17)
H5 H 0.0401 -0.6575 -0.8967
C7 C -0.0061(3) -0.81214(19) -0.87376(14)
C8 C 0.1286(3) -0.8752(2) -0.89456(14)
C9 C 0.2725(3) -0.8453(3) -0.92262(16)
H6 H 0.2908 -0.7750 -0.9373
C10 C 0.3866(3) -0.9196(3) -0.9285(2)
H7 H 0.4822 -0.8997 -0.9481
C11 C 0.3625(3) -1.0229(3) -0.9059(2)
H8 H 0.4427 -1.0719 -0.9080
C12 C 0.2195(3) -1.0541(2) -0.88013(17)
H9 H 0.2032 -1.1244 -0.8650
C13 C 0.1004(2) -0.9818(2) -0.87661(14)
C14 C -0.1813(2) -1.05684(18) -0.90454(13)
H10 H -0.2821 -1.0450 -0.8804
C15 C -0.1670(3) -1.17917(19) -0.91075(14)
H11 H -0.2674 -1.2029 -0.9302
C16 C -0.0519(3) -1.2158(2) -0.97264(14)
H12 H 0.0517 -1.1994 -0.9552
H13 H -0.0595 -1.2925 -0.9788
C17 C -0.0800(3) -1.1626(2) -1.05093(14)
H14 H -0.0022 -1.1862 -1.0876
H15 H -0.1797 -1.1846 -1.0707
C18 C -0.0757(3) -1.0433(2) -1.04534(14)
H16 H 0.0263 -1.0216 -1.0267
C19 C -0.1957(3) -1.0075(2) -0.98651(14)
H17 H -0.2969 -1.0246 -1.0070
H18 H -0.1898 -0.9306 -0.9816
C20 C -0.1483(3) -1.2361(2) -0.83165(15)
H19 H -0.0528 -1.2106 -0.8076
C21 C -0.1370(4) -1.3571(2) -0.84013(18)
H20 H -0.0524 -1.3746 -0.8738
H21 H -0.2309 -1.3841 -0.8621
H22 H -0.1206 -1.3886 -0.7899
C22 C -0.2808(3) -1.2095(2) -0.77706(15)
H23 H -0.2661 -1.2455 -0.7283
H24 H -0.3761 -1.2322 -0.8001
H25 H -0.2839 -1.1339 -0.7684
C23 C -0.1050(3) -0.9907(3) -1.12523(15)
H26 H -0.0277 -1.0137 -1.1615
H27 H -0.1006 -0.9146 -1.1199
H28 H -0.2049 -1.0112 -1.1440
loop_
_geom_bond_atom_site_label_1
_geom_bond_atom_site_label_2
_geom_bond_site_symmetry_1
_geom_bond_site_symmetry_2
C1 H1 1_555 1_555
C2 C1 1_555 1_555
C3 C2 1_555 1_555
H2 C3 1_555 1_555
C4 C3 1_555 1_555
H3 C4 1_555 1_555
C5 C4 1_555 1_555
H4 C5 1_555 1_555
C6 C5 1_555 1_555
H5 C6 1_555 1_555
C7 C2 1_555 1_555
C8 C7 1_555 1_555
C9 C8 1_555 1_555
H6 C9 1_555 1_555
C10 C9 1_555 1_555
H7 C10 1_555 1_555
C11 C10 1_555 1_555
H8 C11 1_555 1_555
C12 C11 1_555 1_555
H9 C12 1_555 1_555
C13 C1 1_555 1_555
C14 C1 1_555 1_555
H10 C14 1_555 1_555
C15 C14 1_555 1_555
H11 C15 1_555 1_555
C16 C15 1_555 1_555
H12 C16 1_555 1_555
H13 C16 1_555 1_555
C17 C16 1_555 1_555
H14 C17 1_555 1_555
H15 C17 1_555 1_555
C18 C17 1_555 1_555
H16 C18 1_555 1_555
C19 C14 1_555 1_555
H17 C19 1_555 1_555
H18 C19 1_555 1_555
C20 C15 1_555 1_555
H19 C20 1_555 1_555
C21 C20 1_555 1_555
H20 C21 1_555 1_555
H21 C21 1_555 1_555
H22 C21 1_555 1_555
C22 C20 1_555 1_555
H23 C22 1_555 1_555
H24 C22 1_555 1_555
H25 C22 1_555 1_555
C23 C18 1_555 1_555
H26 C23 1_555 1_555
H27 C23 1_555 1_555
H28 C23 1_555 1_555
C6 C7 1_555 1_555
C8 C13 1_555 1_555
C12 C13 1_555 1_555
C18 C19 1_555 1_555

#END
