
#######################################################################
#
#                 Cambridge Crystallographic Data Centre
#                                CCDC 
#
#######################################################################
#
# If this CIF has been generated from an entry in the Cambridge 
# Structural Database, then it will include bibliographic, chemical, 
# crystal, experimental, refinement or atomic coordinate data resulting 
# from the CCDC's data processing and validation procedures.
#
#######################################################################

data_ATUJIK
_chemical_formula_moiety         'C12 H15 N5 O4'
_chemical_name_systematic        
N-(2-(morpholin-4-yl)ethyl)-7-nitro-2,1,3-benzoxadiazol-4-amine
_symmetry_cell_setting           orthorhombic
_symmetry_space_group_name_H-M   'P c a b'
_symmetry_Int_Tables_number      61
_space_group_name_Hall           '-P 2bc 2ac'
loop_
_symmetry_equiv_pos_site_id
_symmetry_equiv_pos_as_xyz
1 x,y,z
2 -x,1/2-y,1/2+z
3 1/2+x,-y,1/2-z
4 1/2-x,1/2+y,-z
5 -x,-y,-z
6 x,1/2+y,1/2-z
7 1/2-x,y,1/2+z
8 1/2+x,1/2-y,z
_cell_length_a                   9.5339(10)
_cell_length_b                   11.8548(13)
_cell_length_c                   23.825(3)
_cell_angle_alpha                90
_cell_angle_beta                 90
_cell_angle_gamma                90
_cell_volume                     2692.76
_cell_formula_units_Z            8
loop_
_atom_site_label
_atom_site_type_symbol
_atom_site_fract_x
_atom_site_fract_y
_atom_site_fract_z
C1 C 1.0924(2) 0.10046(14) 0.30603(7)
H1 H 1.0407 0.0963 0.3410
H2 H 1.1822 0.0636 0.3116
C2 C 1.0123(2) 0.03998(15) 0.26105(7)
H3 H 0.9987 -0.0381 0.2720
H4 H 0.9206 0.0744 0.2569
C3 C 1.1056(2) 0.15897(15) 0.19345(8)
H5 H 1.0154 0.1953 0.1883
H6 H 1.1556 0.1620 0.1580
C4 C 1.1874(2) 0.22147(15) 0.23717(7)
H7 H 1.2796 0.1877 0.2410
H8 H 1.1998 0.2992 0.2254
C5 C 1.20112(18) 0.27631(14) 0.33347(7)
H9 H 1.2303 0.3488 0.3186
H10 H 1.2850 0.2321 0.3402
C6 C 1.12719(18) 0.29529(14) 0.38873(7)
H11 H 1.0786 0.2268 0.3995
H12 H 1.1962 0.3121 0.4175
C7 C 0.93855(17) 0.41196(12) 0.42707(6)
C8 C 0.92786(18) 0.35282(14) 0.47737(7)
H13 H 0.9868 0.2916 0.4836
C9 C 0.83098(19) 0.38306(14) 0.51866(7)
H14 H 0.8293 0.3409 0.5516
C10 C 0.73872(18) 0.47036(13) 0.51392(7)
C11 C 0.74263(17) 0.53439(13) 0.46364(7)
C12 C 0.84232(17) 0.50514(13) 0.42165(6)
N1 N 0.64328(16) 0.49653(14) 0.55822(6)
N2 N 0.66853(18) 0.62134(13) 0.44610(7)
N3 N 0.82977(17) 0.57347(12) 0.37870(6)
N4 N 1.02698(14) 0.38739(11) 0.38547(5)
H15 H 1.0246 0.4277 0.3555
N5 N 1.11565(14) 0.21875(10) 0.29131(5)
O1 O 1.08432(14) 0.04399(10) 0.20895(5)
O2 O 0.64534(17) 0.44011(15) 0.60129(6)
O3 O 0.56226(15) 0.57628(12) 0.55140(6)
O4 O 0.72302(16) 0.64500(11) 0.39337(6)
loop_
_geom_bond_atom_site_label_1
_geom_bond_atom_site_label_2
_geom_bond_site_symmetry_1
_geom_bond_site_symmetry_2
C1 H1 1_555 1_555
H2 C1 1_555 1_555
C2 C1 1_555 1_555
H3 C2 1_555 1_555
H4 C2 1_555 1_555
C3 H5 1_555 1_555
H6 C3 1_555 1_555
C4 C3 1_555 1_555
H7 C4 1_555 1_555
H8 C4 1_555 1_555
C5 H9 1_555 1_555
H10 C5 1_555 1_555
C6 C5 1_555 1_555
H11 C6 1_555 1_555
H12 C6 1_555 1_555
C7 C8 1_555 1_555
C8 H13 1_555 1_555
C9 C8 1_555 1_555
H14 C9 1_555 1_555
C10 C9 1_555 1_555
C11 C10 1_555 1_555
C12 C7 1_555 1_555
N1 C10 1_555 1_555
N2 C11 1_555 1_555
N3 C12 1_555 1_555
N4 C6 1_555 1_555
H15 N4 1_555 1_555
N5 C1 1_555 1_555
O1 C2 1_555 1_555
O2 N1 1_555 1_555
O3 N1 1_555 1_555
O4 N2 1_555 1_555
C3 O1 1_555 1_555
C4 N5 1_555 1_555
C5 N5 1_555 1_555
C7 N4 1_555 1_555
C11 C12 1_555 1_555
N3 O4 1_555 1_555

#END
