
#######################################################################
#
#                 Cambridge Crystallographic Data Centre
#                                CCDC 
#
#######################################################################
#
# If this CIF has been generated from an entry in the Cambridge 
# Structural Database, then it will include bibliographic, chemical, 
# crystal, experimental, refinement or atomic coordinate data resulting 
# from the CCDC's data processing and validation procedures.
#
#######################################################################

data_ATUKUW
_chemical_formula_moiety         'C16 H15 N3'
_chemical_name_systematic        
(3-(2-(1-Methyl-1H-pyrrol-2-yl)vinyl)cyclohex-2-en-1-ylidene)malononitrile
_symmetry_cell_setting           triclinic
_symmetry_space_group_name_H-M   'P -1'
_symmetry_Int_Tables_number      2
_space_group_name_Hall           '-P 1'
loop_
_symmetry_equiv_pos_site_id
_symmetry_equiv_pos_as_xyz
1 x,y,z
2 -x,-y,-z
_cell_length_a                   6.9858(5)
_cell_length_b                   7.4647(5)
_cell_length_c                   13.4359(11)
_cell_angle_alpha                87.512(3)
_cell_angle_beta                 80.833(3)
_cell_angle_gamma                81.2109(17)
_cell_volume                     683.439
_exptl_crystal_colour            brown
_exptl_crystal_description       plate
_cell_formula_units_Z            2
loop_
_atom_site_label
_atom_site_type_symbol
_atom_site_fract_x
_atom_site_fract_y
_atom_site_fract_z
C1 C 0.1764(3) 0.2245(3) 0.61893(16)
C2 C 0.2464(3) 0.5198(3) 0.55415(15)
C3 C 0.2214(3) 0.3391(3) 0.53257(15)
C4 C 0.2344(3) 0.2809(3) 0.43621(15)
C5 C 0.2530(3) 0.4030(3) 0.35161(14)
H1 H 0.2652 0.5225 0.3629
C6 C 0.2538(3) 0.3529(3) 0.25508(14)
C7 C 0.2452(3) 0.4902(3) 0.17685(15)
H2 H 0.2357 0.6097 0.1963
C8 C 0.2496(3) 0.4624(3) 0.07829(15)
H3 H 0.259 0.3435 0.0578
C9 C 0.2406(3) 0.6029(3) 0.00291(15)
C10 C 0.2153(3) 0.7894(3) 0.00986(18)
H4 H 0.1995 0.8539 0.069
C11 C 0.2174(3) 0.8639(3) -0.08711(19)
H5 H 0.2036 0.9867 -0.1042
C12 C 0.2433(3) 0.7252(3) -0.15219(18)
H6 H 0.2503 0.7369 -0.2218
C13 C 0.2169(3) 0.0890(3) 0.41658(16)
H7 H 0.0797 0.0773 0.4194
H8 H 0.268 0.0103 0.4686
C14 C 0.2603(3) 0.1574(3) 0.23133(16)
H9 H 0.3481 0.13 0.1686
H10 H 0.1305 0.1372 0.2219
C15 C 0.3289(4) 0.0300(3) 0.31397(17)
H11 H 0.468 0.0294 0.3134
H12 H 0.3088 -0.0922 0.3014
C16 C 0.2869(4) 0.3888(3) -0.14257(18)
H13 H 0.292 0.2976 -0.09
H14 H 0.408 0.3727 -0.1886
H15 H 0.1804 0.3782 -0.1781
N1 N 0.1361(4) 0.1356(3) 0.68813(15)
N2 N 0.2691(3) 0.6633(3) 0.57108(16)
N3 N 0.2571(2) 0.5667(2) -0.09873(12)
loop_
_geom_bond_atom_site_label_1
_geom_bond_atom_site_label_2
_geom_bond_site_symmetry_1
_geom_bond_site_symmetry_2
C1 C3 1_555 1_555
C2 C3 1_555 1_555
C3 C4 1_555 1_555
C4 C5 1_555 1_555
C5 H1 1_555 1_555
C6 C5 1_555 1_555
C7 C6 1_555 1_555
H2 C7 1_555 1_555
C8 C7 1_555 1_555
H3 C8 1_555 1_555
C9 C8 1_555 1_555
C10 C9 1_555 1_555
H4 C10 1_555 1_555
C11 C10 1_555 1_555
H5 C11 1_555 1_555
C12 C11 1_555 1_555
H6 C12 1_555 1_555
C13 C4 1_555 1_555
H7 C13 1_555 1_555
H8 C13 1_555 1_555
C14 C6 1_555 1_555
H9 C14 1_555 1_555
H10 C14 1_555 1_555
C15 C13 1_555 1_555
H11 C15 1_555 1_555
H12 C15 1_555 1_555
C16 H13 1_555 1_555
H14 C16 1_555 1_555
H15 C16 1_555 1_555
N1 C1 1_555 1_555
N2 C2 1_555 1_555
N3 C9 1_555 1_555
C12 N3 1_555 1_555
C14 C15 1_555 1_555
C16 N3 1_555 1_555

#END
