
#######################################################################
#
#                 Cambridge Crystallographic Data Centre
#                                CCDC 
#
#######################################################################
#
# If this CIF has been generated from an entry in the Cambridge 
# Structural Database, then it will include bibliographic, chemical, 
# crystal, experimental, refinement or atomic coordinate data resulting 
# from the CCDC's data processing and validation procedures.
#
#######################################################################

data_ATUKUV
_chemical_formula_moiety         'C29 H34 O5'
_chemical_name_systematic        
(1R,2S,3R,4S,5S)-2,3,4-tris(Benzyloxy)-1-hydroxy-5-methoxy-1-methylcyclohexane
_symmetry_cell_setting           orthorhombic
_symmetry_space_group_name_H-M   'P 21 21 21'
_symmetry_Int_Tables_number      19
_space_group_name_Hall           'P 2ac 2ab'
loop_
_symmetry_equiv_pos_site_id
_symmetry_equiv_pos_as_xyz
1 x,y,z
2 1/2+x,1/2-y,-z
3 -x,1/2+y,1/2-z
4 1/2-x,-y,1/2+z
_cell_length_a                   20.350(5)
_cell_length_b                   20.475(7)
_cell_length_c                   6.150(3)
_cell_angle_alpha                90
_cell_angle_beta                 90
_cell_angle_gamma                90
_cell_volume                     2562.5
_exptl_crystal_colour            colorless
_exptl_crystal_description       plate
_chemical_melting_point          48-52deg.C
_cell_formula_units_Z            4
loop_
_atom_site_label
_atom_site_type_symbol
_atom_site_fract_x
_atom_site_fract_y
_atom_site_fract_z
O1 O 0.1111(3) 0.0981(2) 0.4299(7)
O2 O 0.1236(2) -0.0376(2) 0.3402(8)
O3 O 0.0258(3) -0.0487(3) 0.0188(8)
O4 O -0.0314(2) 0.0649(3) -0.1248(7)
O5 O 0.0286(3) 0.1579(3) 0.1528(9)
C1 C 0.1449(3) 0.0747(4) 0.2394(12)
C2 C 0.1182(3) 0.0095(3) 0.1684(11)
C3 C 0.0465(3) 0.0121(3) 0.0992(11)
C4 C 0.0372(3) 0.0614(4) -0.0820(11)
C5 C 0.0650(4) 0.1280(4) -0.0209(12)
C6 C 0.1363(4) 0.1234(4) 0.0516(13)
C7 C 0.2180(4) 0.0694(4) 0.3037(15)
C8 C 0.1582(4) -0.0948(5) 0.2844(13)
C9 C -0.0241(5) -0.0810(5) 0.1350(12)
C10 C -0.0464(4) 0.0778(4) -0.3451(11)
C11 C -0.0215(5) 0.2026(4) 0.0895(18)
C12 C 0.1536(3) -0.1456(2) 0.4556(7)
C13 C 0.1947(3) -0.1996(3) 0.4389(8)
C14 C 0.1932(3) -0.2478(2) 0.5980(11)
C15 C 0.1506(3) -0.2420(3) 0.7738(9)
C16 C 0.1096(3) -0.1880(3) 0.7904(7)
C17 C 0.1110(3) -0.1398(2) 0.6313(8)
C18 C -0.0617(3) -0.1258(2) -0.0132(7)
C19 C -0.0811(3) -0.1872(3) 0.0589(7)
C20 C -0.1186(3) -0.2272(2) -0.075(1)
C21 C -0.1368(3) -0.2058(3) -0.2809(9)
C22 C -0.1174(3) -0.1444(3) -0.3530(7)
C23 C -0.0799(3) -0.1044(2) -0.2191(8)
C24 C -0.11917(19) 0.0785(3) -0.3768(8)
C25 C -0.1625(3) 0.0635(3) -0.2095(6)
C26 C -0.2299(2) 0.0673(3) -0.2443(8)
C27 C -0.25394(19) 0.0861(3) -0.446(1)
C28 C -0.2106(3) 0.1011(3) -0.6137(7)
C29 C -0.1432(3) 0.0973(3) -0.5789(7)
H1 H 0.1462 -0.0039 0.0395
H2 H 0.0189 0.0264 0.2332
H3 H 0.0642 0.0449 -0.2141
H4 H 0.0565 0.1569 -0.1546
H5 H 0.1526 0.1686 0.0968
H6 H 0.1642 0.1096 -0.0778
H7 H 0.2459 0.0522 0.1755
H8 H 0.2376 0.1124 0.3478
H9 H 0.2252 0.0373 0.4272
H10 H 0.2050 -0.0853 0.2503
H11 H 0.1373 -0.1134 0.1426
H12 H -0.0042 -0.1050 0.2632
H13 H -0.0550 -0.0461 0.2020
H14 H -0.0277 0.1219 -0.3848
H15 H -0.0261 0.0438 -0.4385
H16 H -0.0446 0.2226 0.2128
H17 H -0.0017 0.2399 -0.0040
H18 H -0.0550 0.1803 -0.0097
H19 H 0.2250 -0.2045 0.3119
H20 H 0.2227 -0.2869 0.5870
H21 H 0.1496 -0.2765 0.8892
H22 H 0.0789 -0.1837 0.9164
H23 H 0.0812 -0.1013 0.6413
H24 H -0.0692 -0.2024 0.2079
H25 H -0.1341 -0.2711 -0.0214
H26 H -0.1645 -0.2348 -0.3769
H27 H -0.1299 -0.1299 -0.5030
H28 H -0.0650 -0.0612 -0.2736
H29 H -0.1452 0.0503 -0.0649
H30 H -0.2612 0.0564 -0.1224
H31 H -0.3032 0.0885 -0.4692
H32 H -0.2293 0.1145 -0.7584
H33 H -0.1133 0.1084 -0.7009
loop_
_geom_bond_atom_site_label_1
_geom_bond_atom_site_label_2
_geom_bond_site_symmetry_1
_geom_bond_site_symmetry_2
O1 C1 1_555 1_555
O2 C2 1_555 1_555
O3 C3 1_555 1_555
O4 C4 1_555 1_555
O5 C5 1_555 1_555
C1 C2 1_555 1_555
C2 C3 1_555 1_555
C3 C4 1_555 1_555
C4 C5 1_555 1_555
C5 C6 1_555 1_555
C6 C1 1_555 1_555
C7 C1 1_555 1_555
C8 O2 1_555 1_555
C9 O3 1_555 1_555
C10 O4 1_555 1_555
C11 O5 1_555 1_555
C12 C8 1_555 1_555
C13 C12 1_555 1_555
C14 C13 1_555 1_555
C15 C14 1_555 1_555
C16 C15 1_555 1_555
C17 C12 1_555 1_555
C18 C9 1_555 1_555
C19 C18 1_555 1_555
C20 C19 1_555 1_555
C21 C20 1_555 1_555
C22 C21 1_555 1_555
C23 C18 1_555 1_555
C24 C10 1_555 1_555
C25 C24 1_555 1_555
C26 C25 1_555 1_555
C27 C26 1_555 1_555
C28 C27 1_555 1_555
C29 C24 1_555 1_555
H1 C2 1_555 1_555
H2 C3 1_555 1_555
H3 C4 1_555 1_555
H4 C5 1_555 1_555
H5 C6 1_555 1_555
H6 C6 1_555 1_555
H7 C7 1_555 1_555
H8 C7 1_555 1_555
H9 C7 1_555 1_555
H10 C8 1_555 1_555
H11 C8 1_555 1_555
H12 C9 1_555 1_555
H13 C9 1_555 1_555
H14 C10 1_555 1_555
H15 C10 1_555 1_555
H16 C11 1_555 1_555
H17 C11 1_555 1_555
H18 C11 1_555 1_555
H19 C13 1_555 1_555
H20 C14 1_555 1_555
H21 C15 1_555 1_555
H22 C16 1_555 1_555
H23 C17 1_555 1_555
H24 C19 1_555 1_555
H25 C20 1_555 1_555
H26 C21 1_555 1_555
H27 C22 1_555 1_555
H28 C23 1_555 1_555
H29 C25 1_555 1_555
H30 C26 1_555 1_555
H31 C27 1_555 1_555
H32 C28 1_555 1_555
H33 C29 1_555 1_555
C16 C17 1_555 1_555
C22 C23 1_555 1_555
C28 C29 1_555 1_555

#END
