
#######################################################################
#
#                 Cambridge Crystallographic Data Centre
#                                CCDC 
#
#######################################################################
#
# If this CIF has been generated from an entry in the Cambridge 
# Structural Database, then it will include bibliographic, chemical, 
# crystal, experimental, refinement or atomic coordinate data resulting 
# from the CCDC's data processing and validation procedures.
#
#######################################################################

data_ATUKIK
_chemical_formula_moiety         'C52 H46 N6 O1,C2 H6 O1,1.5(C1 H1 Cl3)'
_chemical_name_systematic        
'2,5-bis(4-(1-Butyl-4,5-diphenyl-1H-imidazol-2-yl)phenyl)-1,3,4-oxadiazole chloroform ethanol solvate'
_symmetry_cell_setting           monoclinic
_symmetry_space_group_name_H-M   'C 2/c'
_symmetry_Int_Tables_number      15
_space_group_name_Hall           '-C 2yn'
loop_
_symmetry_equiv_pos_site_id
_symmetry_equiv_pos_as_xyz
1 x,y,z
2 -x,y,1/2-z
3 1/2+x,1/2+y,z
4 1/2-x,1/2+y,1/2-z
5 -x,-y,-z
6 x,-y,1/2+z
7 1/2-x,1/2-y,-z
8 1/2+x,1/2-y,1/2+z
_cell_length_a                   46.662(6)
_cell_length_b                   9.6597(12)
_cell_length_c                   24.814(3)
_cell_angle_alpha                90
_cell_angle_beta                 116.996(2)
_cell_angle_gamma                90
_cell_volume                     9965.98
_exptl_crystal_colour            colorless
_exptl_crystal_description       prism
_cell_formula_units_Z            8
loop_
_atom_site_label
_atom_site_type_symbol
_atom_site_fract_x
_atom_site_fract_y
_atom_site_fract_z
C1 C 0.11868(13) 0.5692(5) 0.0107(2)
H1 H 0.1404 0.5651 0.0141
H2 H 0.1178 0.6403 0.0381
H3 H 0.1033 0.5923 -0.0310
C2 C 0.11000(11) 0.4290(5) 0.0274(2)
H4 H 0.1115 0.3578 0.0001
H5 H 0.1260 0.4056 0.0692
C3 C 0.07654(10) 0.4230(4) 0.0238(2)
H6 H 0.0603 0.4511 -0.0171
H7 H 0.0753 0.4876 0.0536
C4 C 0.06984(10) 0.2755(4) 0.0371(2)
H8 H 0.0674 0.2160 0.0028
H9 H 0.0889 0.2422 0.0734
C5 C 0.01008(10) 0.2381(4) 0.0019(2)
C6 C 0.00008(10) 0.2741(5) -0.0620(2)
C7 C -0.00926(11) 0.4098(5) -0.0827(2)
H10 H -0.0080 0.4799 -0.0548
C8 C -0.02022(12) 0.4427(5) -0.1427(2)
H11 H -0.0264 0.5351 -0.1560
C9 C -0.02227(11) 0.3411(6) -0.1843(2)
H12 H -0.0301 0.3636 -0.2258
C10 C -0.01289(12) 0.2079(5) -0.1645(2)
H13 H -0.0141 0.1385 -0.1925
C11 C -0.00168(11) 0.1742(5) -0.1040(2)
H14 H 0.0049 0.0820 -0.0910
C12 C -0.00713(10) 0.1910(4) 0.0310(2)
C13 C -0.04112(10) 0.1507(4) 0.0076(2)
C14 C -0.05958(11) 0.1073(5) -0.0519(2)
H15 H -0.0504 0.1070 -0.0792
C15 C -0.09119(11) 0.0646(5) -0.0717(3)
H16 H -0.1036 0.0361 -0.1125
C16 C -0.10468(11) 0.0634(5) -0.0327(3)
H17 H -0.1262 0.0331 -0.0462
C17 C -0.08672(13) 0.1064(5) 0.0264(3)
H18 H -0.0960 0.1055 0.0535
C18 C -0.05519(11) 0.1509(5) 0.0466(2)
H19 H -0.0432 0.1816 0.0872
C19 C 0.04171(10) 0.2185(4) 0.1005(2)
C20 C 0.06954(10) 0.2191(4) 0.1611(2)
C21 C 0.07218(11) 0.1114(4) 0.2009(2)
H20 H 0.0577 0.0354 0.1870
C22 C 0.09565(11) 0.1148(5) 0.2604(2)
H21 H 0.0974 0.0406 0.2869
C23 C 0.11669(10) 0.2261(4) 0.2816(2)
C24 C 0.11475(10) 0.3324(4) 0.2419(2)
H22 H 0.1295 0.4073 0.2558
C25 C 0.09126(10) 0.3284(4) 0.1824(2)
H23 H 0.0900 0.4013 0.1557
C26 C 0.14015(10) 0.2299(4) 0.3454(2)
C27 C 0.18056(10) 0.2998(4) 0.4254(2)
C28 C 0.20886(10) 0.3836(4) 0.46192(19)
C29 C 0.22665(10) 0.3559(4) 0.5232(2)
H24 H 0.2200 0.2846 0.5414
C30 C 0.25385(10) 0.4314(4) 0.5576(2)
H25 H 0.2657 0.4124 0.5996
C31 C 0.26423(10) 0.5359(4) 0.53166(19)
C32 C 0.24596(10) 0.5656(4) 0.4703(2)
H26 H 0.2524 0.6378 0.4522
C33 C 0.21836(10) 0.4900(4) 0.4357(2)
H27 H 0.2059 0.5109 0.3941
C34 C 0.29361(10) 0.6129(4) 0.57101(19)
C35 C 0.33034(10) 0.7135(4) 0.65034(19)
C36 C 0.34606(11) 0.7657(4) 0.7127(2)
C37 C 0.32731(12) 0.8221(5) 0.7379(2)
H28 H 0.3047 0.8294 0.7143
C38 C 0.34195(14) 0.8675(5) 0.7977(2)
H29 H 0.3293 0.9079 0.8146
C39 C 0.37482(15) 0.8541(5) 0.8326(2)
H30 H 0.3846 0.8826 0.8737
C40 C 0.39315(13) 0.8002(5) 0.8081(2)
H31 H 0.4158 0.7930 0.8320
C41 C 0.37926(11) 0.7558(4) 0.7487(2)
H32 H 0.3924 0.7183 0.7322
C42 C 0.34189(10) 0.7114(4) 0.60811(19)
C43 C 0.37280(10) 0.7606(4) 0.61335(19)
C44 C 0.38158(11) 0.8985(4) 0.6272(2)
H33 H 0.3667 0.9623 0.6294
C45 C 0.41197(11) 0.9440(5) 0.6379(2)
H34 H 0.4178 1.0381 0.6481
C46 C 0.43370(11) 0.8530(5) 0.6339(2)
H35 H 0.4544 0.8843 0.6411
C47 C 0.42507(11) 0.7154(5) 0.6192(2)
H36 H 0.4398 0.6525 0.6159
C48 C 0.39521(10) 0.6700(4) 0.6096(2)
H37 H 0.3897 0.5753 0.6002
C49 C 0.31886(11) 0.6310(5) 0.4997(2)
H38 H 0.3035 0.5578 0.4758
H39 H 0.3406 0.6018 0.5067
C50 C 0.30995(11) 0.7672(5) 0.4638(2)
H40 H 0.2887 0.7990 0.4590
H41 H 0.3260 0.8388 0.4868
C51 C 0.30856(12) 0.7510(5) 0.4018(2)
H42 H 0.2935 0.6752 0.3798
H43 H 0.3301 0.7250 0.4067
C52 C 0.29771(13) 0.8828(6) 0.3648(3)
H44 H 0.2973 0.8681 0.3253
H45 H 0.3127 0.9579 0.3861
H46 H 0.2761 0.9077 0.3589
N1 N 0.30067(9) 0.6517(4) 0.62726(17)
N2 N 0.31826(8) 0.6473(3) 0.55773(15)
N3 N 0.04152(8) 0.2561(4) 0.04713(17)
N4 N 0.01309(9) 0.1795(4) 0.09267(18)
N5 N 0.16800(9) 0.2002(4) 0.44181(17)
N6 N 0.14106(9) 0.1540(4) 0.38915(17)
O1 O 0.16437(7) 0.3247(3) 0.36430(13)
C53 C 0.22490(13) 0.8523(6) 0.1836(3)
H47 H 0.2190 0.9050 0.2118
Cl1 Cl 0.19028(4) 0.83610(16) 0.11376(7)
Cl2 Cl 0.23931(4) 0.69224(17) 0.21526(10)
Cl3 Cl 0.25475(4) 0.9438(2) 0.17558(9)
C55 C 0.33728(18) 0.4237(9) 0.7959(3)
H48 H 0.3545 0.3558 0.8052
H49 H 0.3254 0.4012 0.8188
H50 H 0.3466 0.5164 0.8071
C56 C 0.31621(14) 0.4203(6) 0.7338(3)
H51 H 0.3073 0.3256 0.7226
H52 H 0.3284 0.4417 0.7109
O2 O 0.29050(8) 0.5153(3) 0.71703(15)
H53 H 0.2785 0.5095 0.6796
C54? C 0.9946(3) 0.8078(13) 0.7700(6)
Cl4? Cl 0.97289(14) 0.9296(5) 0.7137(2)
Cl5? Cl 0.9798(2) 0.6479(5) 0.7374(3)
Cl6? Cl 1.03450(14) 0.8197(13) 0.7884(3)
loop_
_geom_bond_atom_site_label_1
_geom_bond_atom_site_label_2
_geom_bond_site_symmetry_1
_geom_bond_site_symmetry_2
C1 H1 1_555 1_555
H2 C1 1_555 1_555
H3 C1 1_555 1_555
C2 C1 1_555 1_555
H4 C2 1_555 1_555
H5 C2 1_555 1_555
C3 C2 1_555 1_555
H6 C3 1_555 1_555
H7 C3 1_555 1_555
C4 C3 1_555 1_555
H8 C4 1_555 1_555
H9 C4 1_555 1_555
C5 C6 1_555 1_555
C6 C7 1_555 1_555
C7 H10 1_555 1_555
C8 C7 1_555 1_555
H11 C8 1_555 1_555
C9 C8 1_555 1_555
H12 C9 1_555 1_555
C10 C9 1_555 1_555
H13 C10 1_555 1_555
C11 C6 1_555 1_555
H14 C11 1_555 1_555
C12 C5 1_555 1_555
C13 C12 1_555 1_555
C14 C13 1_555 1_555
H15 C14 1_555 1_555
C15 C14 1_555 1_555
H16 C15 1_555 1_555
C16 C15 1_555 1_555
H17 C16 1_555 1_555
C17 C16 1_555 1_555
H18 C17 1_555 1_555
C18 C13 1_555 1_555
H19 C18 1_555 1_555
C19 C20 1_555 1_555
C20 C21 1_555 1_555
C21 H20 1_555 1_555
C22 C21 1_555 1_555
H21 C22 1_555 1_555
C23 C22 1_555 1_555
C24 C23 1_555 1_555
H22 C24 1_555 1_555
C25 C20 1_555 1_555
H23 C25 1_555 1_555
C26 C23 1_555 1_555
C27 C28 1_555 1_555
C28 C29 1_555 1_555
C29 H24 1_555 1_555
C30 C29 1_555 1_555
H25 C30 1_555 1_555
C31 C30 1_555 1_555
C32 C31 1_555 1_555
H26 C32 1_555 1_555
C33 C28 1_555 1_555
H27 C33 1_555 1_555
C34 C31 1_555 1_555
C35 C36 1_555 1_555
C36 C37 1_555 1_555
C37 H28 1_555 1_555
C38 C37 1_555 1_555
H29 C38 1_555 1_555
C39 C38 1_555 1_555
H30 C39 1_555 1_555
C40 C39 1_555 1_555
H31 C40 1_555 1_555
C41 C36 1_555 1_555
H32 C41 1_555 1_555
C42 C35 1_555 1_555
C43 C42 1_555 1_555
C44 C43 1_555 1_555
H33 C44 1_555 1_555
C45 C44 1_555 1_555
H34 C45 1_555 1_555
C46 C45 1_555 1_555
H35 C46 1_555 1_555
C47 C46 1_555 1_555
H36 C47 1_555 1_555
C48 C43 1_555 1_555
H37 C48 1_555 1_555
C49 H38 1_555 1_555
H39 C49 1_555 1_555
C50 C49 1_555 1_555
H40 C50 1_555 1_555
H41 C50 1_555 1_555
C51 C50 1_555 1_555
H42 C51 1_555 1_555
H43 C51 1_555 1_555
C52 C51 1_555 1_555
H44 C52 1_555 1_555
H45 C52 1_555 1_555
H46 C52 1_555 1_555
C53 H47 1_555 1_555
C55 H48 1_555 1_555
H49 C55 1_555 1_555
H50 C55 1_555 1_555
C56 C55 1_555 1_555
H51 C56 1_555 1_555
H52 C56 1_555 1_555
N1 C34 1_555 1_555
N2 C34 1_555 1_555
N3 C4 1_555 1_555
N4 C12 1_555 1_555
N5 C27 1_555 1_555
N6 C26 1_555 1_555
O1 C26 1_555 1_555
O2 C56 1_555 1_555
H53 O2 1_555 1_555
Cl1 C53 1_555 1_555
Cl2 C53 1_555 1_555
Cl3 C53 1_555 1_555
C5 N3 1_555 1_555
C10 C11 1_555 1_555
C17 C18 1_555 1_555
C19 N3 1_555 1_555
C19 N4 1_555 1_555
C24 C25 1_555 1_555
C27 O1 1_555 1_555
C32 C33 1_555 1_555
C35 N1 1_555 1_555
C40 C41 1_555 1_555
C42 N2 1_555 1_555
C47 C48 1_555 1_555
C49 N2 1_555 1_555
N5 N6 1_555 1_555

#END
