
#######################################################################
#
#                 Cambridge Crystallographic Data Centre
#                                CCDC 
#
#######################################################################
#
# If this CIF has been generated from an entry in the Cambridge 
# Structural Database, then it will include bibliographic, chemical, 
# crystal, experimental, refinement or atomic coordinate data resulting 
# from the CCDC's data processing and validation procedures.
#
#######################################################################

data_ATULOR
_chemical_formula_moiety         'C35 H48 O3,C2 H6 O1'
_chemical_name_systematic        
'2,5-bis(3,5-Di-t-butyl-4-hydroxybenzylidene)cyclopentanone ethanol solvate'
_symmetry_cell_setting           monoclinic
_symmetry_space_group_name_H-M   'P 21/c'
_symmetry_Int_Tables_number      14
_space_group_name_Hall           '-P 2ybc'
loop_
_symmetry_equiv_pos_site_id
_symmetry_equiv_pos_as_xyz
1 x,y,z
2 -x,1/2+y,1/2-z
3 -x,-y,-z
4 x,1/2-y,1/2+z
_cell_length_a                   10.812(17)
_cell_length_b                   18.78(3)
_cell_length_c                   18.95(3)
_cell_angle_alpha                90
_cell_angle_beta                 99.55(3)
_cell_angle_gamma                90
_cell_volume                     3794.46
_exptl_crystal_colour            yellow
_exptl_crystal_description       block
_cell_formula_units_Z            4
loop_
_atom_site_label
_atom_site_type_symbol
_atom_site_fract_x
_atom_site_fract_y
_atom_site_fract_z
O1 O 1.0401(2) 0.96272(14) -0.17427(18)
H1 H 0.9669 0.9700 -0.1922
O2 O 1.1952(2) 0.57822(12) 0.07025(12)
O3 O 0.6813(2) 0.31889(15) 0.26370(15)
H2 H 0.7218 0.2946 0.2953
C1 C 1.0500(3) 0.89599(18) -0.13996(19)
C2 C 1.1738(3) 0.87440(17) -0.10943(18)
C3 C 1.1849(3) 0.80681(17) -0.07550(17)
H4 H 1.2647 0.7910 -0.0559
C4 C 1.0813(3) 0.76194(16) -0.06970(16)
C5 C 0.9604(3) 0.78666(16) -0.10063(17)
H5 H 0.8914 0.7582 -0.0971
C6 C 0.9402(3) 0.85315(18) -0.13677(17)
C7 C 1.2919(3) 0.9222(2) -0.1125(2)
C8 C 1.2781(4) 0.9959(2) -0.0746(3)
H6 H 1.3513 1.0244 -0.0762
H7 H 1.2694 0.9879 -0.0256
H8 H 1.2053 1.0203 -0.0988
C9 C 1.3108(4) 0.9331(3) -0.1909(3)
H9 H 1.2360 0.9530 -0.2181
H10 H 1.3284 0.8881 -0.2111
H11 H 1.3799 0.9649 -0.1921
C10 C 1.4136(3) 0.8877(2) -0.0705(3)
H12 H 1.4287 0.8430 -0.0922
H13 H 1.4036 0.8799 -0.0217
H14 H 1.4835 0.9189 -0.0718
C11 C 0.8046(3) 0.87932(19) -0.1694(2)
C12 C 0.7900(4) 0.8892(2) -0.2522(2)
H15 H 0.8519 0.9223 -0.2630
H16 H 0.7078 0.9072 -0.2703
H17 H 0.8015 0.8442 -0.2742
C13 C 0.7726(4) 0.9504(2) -0.1331(3)
H18 H 0.7776 0.9429 -0.0826
H19 H 0.6892 0.9652 -0.1533
H20 H 0.8313 0.9866 -0.1412
C14 C 0.7031(3) 0.8227(2) -0.1572(2)
H21 H 0.7214 0.7781 -0.1779
H22 H 0.6217 0.8389 -0.1794
H23 H 0.7042 0.8167 -0.1067
C15 C 1.1053(3) 0.69549(16) -0.02744(16)
H24 H 1.1896 0.6829 -0.0174
C16 C 1.0270(3) 0.64883(15) -0.00023(15)
C17 C 1.0800(3) 0.59017(16) 0.04994(17)
C18 C 0.9741(3) 0.54923(16) 0.07326(16)
C19 C 0.8497(3) 0.58006(16) 0.03494(17)
H25 H 0.7979 0.5949 0.0695
H26 H 0.8041 0.5447 0.0036
C20 C 0.8837(3) 0.64604(16) -0.00985(17)
H27 H 0.8482 0.6403 -0.0600
H28 H 0.8510 0.6896 0.0075
C21 C 0.9983(3) 0.49587(16) 0.12330(16)
H29 H 1.0832 0.4877 0.1391
C22 C 0.9139(3) 0.44868(15) 0.15691(16)
C23 C 0.7811(3) 0.44650(16) 0.13677(17)
H30 H 0.7439 0.4749 0.0989
C24 C 0.7034(3) 0.40327(17) 0.17172(17)
C25 C 0.7639(3) 0.35998(17) 0.23015(18)
C26 C 0.8963(3) 0.35877(16) 0.25251(17)
C27 C 0.9677(3) 0.40362(16) 0.21453(16)
H31 H 1.0544 0.4037 0.2279
C28 C 0.5573(3) 0.40282(19) 0.14745(19)
C29 C 0.5170(3) 0.4536(2) 0.0823(2)
H32 H 0.5433 0.5013 0.0954
H33 H 0.4274 0.4524 0.0688
H34 H 0.5555 0.4383 0.0428
C30 C 0.4891(4) 0.4295(2) 0.2092(2)
H35 H 0.5126 0.4001 0.2507
H36 H 0.4000 0.4270 0.1940
H37 H 0.5128 0.4779 0.2208
C31 C 0.5115(4) 0.3264(2) 0.1220(2)
H38 H 0.5558 0.3108 0.0848
H39 H 0.4232 0.3275 0.1040
H40 H 0.5276 0.2939 0.1616
C32 C 0.9616(3) 0.31079(18) 0.31601(19)
C33 C 0.9207(4) 0.3358(2) 0.38774(19)
H41 H 0.9550 0.3041 0.4257
H42 H 0.8308 0.3355 0.3824
H43 H 0.9512 0.3832 0.3990
C34 C 0.9313(3) 0.22990(18) 0.3006(2)
H44 H 0.9521 0.2173 0.2549
H45 H 0.8436 0.2216 0.3003
H46 H 0.9796 0.2014 0.3372
C35 C 1.1078(3) 0.3177(2) 0.3258(2)
H47 H 1.1454 0.2871 0.3640
H48 H 1.1316 0.3661 0.3372
H49 H 1.1359 0.3041 0.2823
O4 O 0.6570(3) 0.2030(2) 0.3675(2)
H3 H 0.6994 0.1690 0.3845
C36 C 0.5356(6) 0.1917(4) 0.3733(5)
H50 H 0.5335 0.1579 0.4117
H51 H 0.4949 0.1693 0.3294
C37 C 0.4631(7) 0.2514(5) 0.3862(5)
H52 H 0.5160 0.2859 0.4138
H53 H 0.3984 0.2367 0.4122
H54 H 0.4257 0.2721 0.3414
loop_
_geom_bond_atom_site_label_1
_geom_bond_atom_site_label_2
_geom_bond_site_symmetry_1
_geom_bond_site_symmetry_2
O1 H1 1_555 1_555
O2 C17 1_555 1_555
O3 H2 1_555 1_555
O4 H3 1_555 1_555
C1 O1 1_555 1_555
C2 C1 1_555 1_555
C3 C2 1_555 1_555
H4 C3 1_555 1_555
C4 C3 1_555 1_555
C5 C4 1_555 1_555
H5 C5 1_555 1_555
C6 C1 1_555 1_555
C7 C2 1_555 1_555
C8 C7 1_555 1_555
H6 C8 1_555 1_555
H7 C8 1_555 1_555
H8 C8 1_555 1_555
C9 C7 1_555 1_555
H9 C9 1_555 1_555
H10 C9 1_555 1_555
H11 C9 1_555 1_555
C10 C7 1_555 1_555
H12 C10 1_555 1_555
H13 C10 1_555 1_555
H14 C10 1_555 1_555
C11 C6 1_555 1_555
C12 C11 1_555 1_555
H15 C12 1_555 1_555
H16 C12 1_555 1_555
H17 C12 1_555 1_555
C13 C11 1_555 1_555
H18 C13 1_555 1_555
H19 C13 1_555 1_555
H20 C13 1_555 1_555
C14 C11 1_555 1_555
H21 C14 1_555 1_555
H22 C14 1_555 1_555
H23 C14 1_555 1_555
C15 C4 1_555 1_555
H24 C15 1_555 1_555
C16 C15 1_555 1_555
C17 C16 1_555 1_555
C18 C17 1_555 1_555
C19 C18 1_555 1_555
H25 C19 1_555 1_555
H26 C19 1_555 1_555
C20 C16 1_555 1_555
H27 C20 1_555 1_555
H28 C20 1_555 1_555
C21 C18 1_555 1_555
H29 C21 1_555 1_555
C22 C21 1_555 1_555
C23 C22 1_555 1_555
H30 C23 1_555 1_555
C24 C23 1_555 1_555
C25 O3 1_555 1_555
C26 C25 1_555 1_555
C27 C22 1_555 1_555
H31 C27 1_555 1_555
C28 C24 1_555 1_555
C29 C28 1_555 1_555
H32 C29 1_555 1_555
H33 C29 1_555 1_555
H34 C29 1_555 1_555
C30 C28 1_555 1_555
H35 C30 1_555 1_555
H36 C30 1_555 1_555
H37 C30 1_555 1_555
C31 C28 1_555 1_555
H38 C31 1_555 1_555
H39 C31 1_555 1_555
H40 C31 1_555 1_555
C32 C26 1_555 1_555
C33 C32 1_555 1_555
H41 C33 1_555 1_555
H42 C33 1_555 1_555
H43 C33 1_555 1_555
C34 C32 1_555 1_555
H44 C34 1_555 1_555
H45 C34 1_555 1_555
H46 C34 1_555 1_555
C35 C32 1_555 1_555
H47 C35 1_555 1_555
H48 C35 1_555 1_555
H49 C35 1_555 1_555
C36 O4 1_555 1_555
H50 C36 1_555 1_555
H51 C36 1_555 1_555
C37 C36 1_555 1_555
H52 C37 1_555 1_555
H53 C37 1_555 1_555
H54 C37 1_555 1_555
C5 C6 1_555 1_555
C19 C20 1_555 1_555
C24 C25 1_555 1_555
C26 C27 1_555 1_555

#END
