
#######################################################################
#
#                 Cambridge Crystallographic Data Centre
#                                CCDC 
#
#######################################################################
#
# If this CIF has been generated from an entry in the Cambridge 
# Structural Database, then it will include bibliographic, chemical, 
# crystal, experimental, refinement or atomic coordinate data resulting 
# from the CCDC's data processing and validation procedures.
#
#######################################################################

data_ATULEH
_chemical_formula_moiety         'C35 H24 O1,C3 H7 N1 O1'
_chemical_name_systematic        
'2,5-bis(9-Anthrylmethylene)cyclopentanone dimethylformamide solvate'
_symmetry_cell_setting           triclinic
_symmetry_space_group_name_H-M   'P -1'
_symmetry_Int_Tables_number      2
_space_group_name_Hall           '-P 1'
loop_
_symmetry_equiv_pos_site_id
_symmetry_equiv_pos_as_xyz
1 x,y,z
2 -x,-y,-z
_cell_length_a                   10.5631(15)
_cell_length_b                   11.0456(15)
_cell_length_c                   13.6961(19)
_cell_angle_alpha                98.092(2)
_cell_angle_beta                 90.018(3)
_cell_angle_gamma                115.825(3)
_cell_volume                     1420.68
_exptl_crystal_colour            red
_exptl_crystal_description       block
_cell_formula_units_Z            2
loop_
_atom_site_label
_atom_site_type_symbol
_atom_site_fract_x
_atom_site_fract_y
_atom_site_fract_z
O1 O 0.52217(19) 0.65713(18) 0.49940(12)
C1 C 0.4022(3) 0.5704(3) 0.47170(18)
C2 C 0.3517(3) 0.5027(3) 0.36934(17)
C3 C 0.2039(3) 0.3943(3) 0.3702(2)
H1 H 0.1423 0.4042 0.3226
H2 H 0.2009 0.3049 0.3529
C4 C 0.1574(3) 0.4105(3) 0.47186(19)
H3 H 0.1231 0.3251 0.4975
H4 H 0.0821 0.4383 0.4712
C5 C 0.2824(3) 0.5171(3) 0.53497(17)
C6 C 0.4274(3) 0.5448(3) 0.29338(17)
H5 H 0.5174 0.6157 0.3087
C7 C 0.3864(3) 0.4930(3) 0.18768(17)
C8 C 0.3498(3) 0.3568(3) 0.14759(17)
C9 C 0.3572(3) 0.2613(3) 0.20447(19)
H6 H 0.3867 0.2890 0.2712
C10 C 0.3222(3) 0.1318(3) 0.1634(2)
H7 H 0.3281 0.0717 0.2023
C11 C 0.2771(3) 0.0858(3) 0.0632(2)
H8 H 0.2514 -0.0046 0.0365
C12 C 0.2710(3) 0.1723(3) 0.0054(2)
H9 H 0.2415 0.1410 -0.0611
C13 C 0.3092(3) 0.3113(3) 0.04463(18)
C14 C 0.3070(3) 0.4015(3) -0.01445(18)
H10 H 0.2794 0.3704 -0.0813
C15 C 0.3444(3) 0.5371(3) 0.02201(17)
C16 C 0.3415(3) 0.6299(3) -0.0378(2)
H11 H 0.3147 0.5997 -0.1048
C17 C 0.3763(3) 0.7607(3) -0.0010(2)
H12 H 0.3734 0.8194 -0.0424
C18 C 0.4175(3) 0.8090(3) 0.1007(2)
H13 H 0.4411 0.8994 0.1260
C19 C 0.4227(3) 0.7243(3) 0.1614(2)
H14 H 0.4509 0.7579 0.2279
C20 C 0.3857(3) 0.5846(3) 0.12564(18)
C21 C 0.2937(3) 0.5670(3) 0.63015(17)
H15 H 0.3812 0.6365 0.6546
C22 C 0.1845(3) 0.5256(3) 0.70197(17)
C23 C 0.1252(3) 0.3932(3) 0.72498(18)
C24 C 0.1682(3) 0.2919(3) 0.6844(2)
H16 H 0.2374 0.3131 0.6391
C25 C 0.1114(4) 0.1665(3) 0.7098(2)
H17 H 0.1415 0.1028 0.6816
C26 C 0.0066(4) 0.1304(3) 0.7788(3)
H18 H -0.0329 0.0430 0.7950
C27 C -0.0357(3) 0.2223(3) 0.8207(2)
H19 H -0.1046 0.1975 0.8660
C28 C 0.0220(3) 0.3573(3) 0.79779(19)
C29 C -0.0156(3) 0.4548(3) 0.84438(19)
H20 H -0.0833 0.4308 0.8906
C30 C 0.0438(3) 0.5868(3) 0.82467(18)
C31 C 0.0080(3) 0.6875(3) 0.8751(2)
H21 H -0.0591 0.6638 0.9218
C32 C 0.0689(3) 0.8164(3) 0.8570(2)
H22 H 0.0440 0.8809 0.8910
C33 C 0.1706(3) 0.8537(3) 0.7863(2)
H23 H 0.2128 0.9432 0.7744
C34 C 0.2077(3) 0.7613(3) 0.73571(19)
H24 H 0.2751 0.7882 0.6895
C35 C 0.1459(3) 0.6245(3) 0.75192(17)
O2 O 0.5035(4) 0.9847(3) 0.3483(2)
N1 N 0.3048(3) 0.9430(3) 0.4295(2)
C36 C 0.4249(6) 1.0226(4) 0.3944(3)
H25 H 0.4517 1.1158 0.4059
C37 C 0.2581(5) 0.8000(4) 0.4164(3)
H26 H 0.3249 0.7772 0.3806
H27 H 0.1679 0.7554 0.3799
H28 H 0.2499 0.7708 0.4798
C38 C 0.2271(5) 0.9991(5) 0.4892(4)
H29 H 0.2552 1.0090 0.5576
H30 H 0.1282 0.9394 0.4776
H31 H 0.2455 1.0866 0.4727
loop_
_geom_bond_atom_site_label_1
_geom_bond_atom_site_label_2
_geom_bond_site_symmetry_1
_geom_bond_site_symmetry_2
O1 C1 1_555 1_555
O2 C36 1_555 1_555
N1 C36 1_555 1_555
C1 C2 1_555 1_555
C2 C3 1_555 1_555
C3 H1 1_555 1_555
H2 C3 1_555 1_555
C4 C3 1_555 1_555
H3 C4 1_555 1_555
H4 C4 1_555 1_555
C5 C1 1_555 1_555
C6 C2 1_555 1_555
H5 C6 1_555 1_555
C7 C6 1_555 1_555
C8 C7 1_555 1_555
C9 C8 1_555 1_555
H6 C9 1_555 1_555
C10 C9 1_555 1_555
H7 C10 1_555 1_555
C11 C10 1_555 1_555
H8 C11 1_555 1_555
C12 C11 1_555 1_555
H9 C12 1_555 1_555
C13 C8 1_555 1_555
C14 C13 1_555 1_555
H10 C14 1_555 1_555
C15 C14 1_555 1_555
C16 C15 1_555 1_555
H11 C16 1_555 1_555
C17 C16 1_555 1_555
H12 C17 1_555 1_555
C18 C17 1_555 1_555
H13 C18 1_555 1_555
C19 C18 1_555 1_555
H14 C19 1_555 1_555
C20 C7 1_555 1_555
C21 C5 1_555 1_555
H15 C21 1_555 1_555
C22 C21 1_555 1_555
C23 C22 1_555 1_555
C24 C23 1_555 1_555
H16 C24 1_555 1_555
C25 C24 1_555 1_555
H17 C25 1_555 1_555
C26 C25 1_555 1_555
H18 C26 1_555 1_555
C27 C26 1_555 1_555
H19 C27 1_555 1_555
C28 C23 1_555 1_555
C29 C28 1_555 1_555
H20 C29 1_555 1_555
C30 C29 1_555 1_555
C31 C30 1_555 1_555
H21 C31 1_555 1_555
C32 C31 1_555 1_555
H22 C32 1_555 1_555
C33 C32 1_555 1_555
H23 C33 1_555 1_555
C34 C33 1_555 1_555
H24 C34 1_555 1_555
C35 C22 1_555 1_555
C36 H25 1_555 1_555
C37 N1 1_555 1_555
H26 C37 1_555 1_555
H27 C37 1_555 1_555
H28 C37 1_555 1_555
C38 N1 1_555 1_555
H29 C38 1_555 1_555
H30 C38 1_555 1_555
H31 C38 1_555 1_555
C4 C5 1_555 1_555
C12 C13 1_555 1_555
C15 C20 1_555 1_555
C19 C20 1_555 1_555
C27 C28 1_555 1_555
C30 C35 1_555 1_555
C34 C35 1_555 1_555

#END
