
#######################################################################
#
#                 Cambridge Crystallographic Data Centre
#                                CCDC 
#
#######################################################################
#
# If this CIF has been generated from an entry in the Cambridge 
# Structural Database, then it will include bibliographic, chemical, 
# crystal, experimental, refinement or atomic coordinate data resulting 
# from the CCDC's data processing and validation procedures.
#
#######################################################################

data_ATULEI
_chemical_formula_moiety         'C22 H28 O5 Si1'
_chemical_name_systematic        
2,4-dimethoxy-5-(1-(2-(methoxymethoxy)phenyl)-3-(trimethylsilyl)prop-2-yn-1-yl)phenol
_symmetry_cell_setting           triclinic
_symmetry_space_group_name_H-M   'P -1'
_symmetry_Int_Tables_number      2
_space_group_name_Hall           '-P 1'
loop_
_symmetry_equiv_pos_site_id
_symmetry_equiv_pos_as_xyz
1 x,y,z
2 -x,-y,-z
_cell_length_a                   9.7320(16)
_cell_length_b                   10.3579(17)
_cell_length_c                   11.4013(19)
_cell_angle_alpha                100.211(3)
_cell_angle_beta                 94.628(3)
_cell_angle_gamma                91.952(3)
_cell_volume                     1126.02
_exptl_crystal_colour            colorless
_exptl_crystal_description       prism
_cell_formula_units_Z            2
loop_
_atom_site_label
_atom_site_type_symbol
_atom_site_fract_x
_atom_site_fract_y
_atom_site_fract_z
C1 C 0.90570(15) 0.69762(14) 0.13350(13)
H1 H 0.9486 0.6373 0.0724
C2 C 1.01595(15) 0.75855(15) 0.22482(14)
C3 C 1.10521(17) 0.80790(17) 0.29949(15)
C4 C 1.4071(3) 0.8804(5) 0.3449(3)
H2 H 1.4704 0.9448 0.3939
H3 H 1.3898 0.9036 0.2673
H4 H 1.4462 0.7958 0.3366
C5 C 1.2041(4) 1.0429(4) 0.4813(4)
H5 H 1.1342 1.0402 0.5357
H6 H 1.1715 1.0884 0.4189
H7 H 1.2861 1.0881 0.5237
C6 C 1.2510(6) 0.7741(6) 0.5281(5)
H8 H 1.1610 0.7346 0.5316
H9 H 1.2811 0.8272 0.6043
H10 H 1.3148 0.7065 0.5088
C7 C 0.83861(16) 0.80275(15) 0.07252(15)
C8 C 0.7299(2) 0.87099(19) 0.12072(19)
H11 H 0.6959 0.8508 0.1896
C9 C 0.6714(3) 0.9690(2) 0.0673(3)
H12 H 0.5987 1.0143 0.1002
C10 C 0.7216(3) 0.9985(2) -0.0344(3)
H13 H 0.6828 1.0645 -0.0699
C11 C 0.8284(3) 0.9318(2) -0.0847(2)
H14 H 0.8607 0.9517 -0.1543
C12 C 0.88812(18) 0.83374(18) -0.03049(16)
C13 C 1.0478(3) 0.7864(3) -0.17969(19)
H15 H 1.0658 0.8800 -0.1746
H16 H 1.1346 0.7440 -0.1894
C14 C 0.9453(4) 0.6013(3) -0.3093(3)
H17 H 1.0349 0.5685 -0.3225
H18 H 0.8845 0.5755 -0.3809
H19 H 0.9091 0.5658 -0.2452
C15 C 0.79963(15) 0.61792(14) 0.18553(13)
C16 C 0.71738(16) 0.52025(15) 0.10926(14)
C17 C 0.61588(18) 0.44818(17) 0.15373(16)
H20 H 0.5622 0.3821 0.1027
C18 C 0.59582(17) 0.47568(18) 0.27382(16)
C19 C 0.67832(19) 0.57241(19) 0.35103(15)
C20 C 0.77894(17) 0.64091(16) 0.30587(14)
H21 H 0.8347 0.7046 0.3578
C21 C 0.6939(2) 0.3840(2) -0.08411(18)
H22 H 0.7304 0.3122 -0.0505
H23 H 0.7252 0.3818 -0.1621
H24 H 0.5949 0.3764 -0.0905
C22 C 0.4156(3) 0.3084(3) 0.2544(2)
H25 H 0.3688 0.3383 0.1875
H26 H 0.3489 0.2757 0.3009
H27 H 0.4748 0.2396 0.2259
O1 O 0.99677(14) 0.76373(16) -0.07205(12)
O2 O 0.95619(19) 0.73941(19) -0.27891(14)
O3 O 0.73971(16) 0.50348(14) -0.00961(11)
O4 O 0.49644(15) 0.41517(15) 0.32717(13)
O5 O 0.66294(19) 0.6021(2) 0.47094(12)
H28 H 0.5998 0.5556 0.4869
Si1 Si 1.24333(5) 0.87476(5) 0.41552(4)
loop_
_geom_bond_atom_site_label_1
_geom_bond_atom_site_label_2
_geom_bond_site_symmetry_1
_geom_bond_site_symmetry_2
C1 H1 1_555 1_555
C2 C1 1_555 1_555
C3 C2 1_555 1_555
C4 H2 1_555 1_555
H3 C4 1_555 1_555
H4 C4 1_555 1_555
C5 H5 1_555 1_555
H6 C5 1_555 1_555
H7 C5 1_555 1_555
C6 H8 1_555 1_555
H9 C6 1_555 1_555
H10 C6 1_555 1_555
C7 C1 1_555 1_555
C8 C7 1_555 1_555
H11 C8 1_555 1_555
C9 C8 1_555 1_555
H12 C9 1_555 1_555
C10 C9 1_555 1_555
H13 C10 1_555 1_555
C11 C10 1_555 1_555
H14 C11 1_555 1_555
C12 C7 1_555 1_555
C13 H15 1_555 1_555
H16 C13 1_555 1_555
C14 H17 1_555 1_555
H18 C14 1_555 1_555
H19 C14 1_555 1_555
C15 C1 1_555 1_555
C16 C15 1_555 1_555
C17 C16 1_555 1_555
H20 C17 1_555 1_555
C18 C17 1_555 1_555
C19 C18 1_555 1_555
C20 C15 1_555 1_555
H21 C20 1_555 1_555
C21 H22 1_555 1_555
H23 C21 1_555 1_555
H24 C21 1_555 1_555
C22 H25 1_555 1_555
H26 C22 1_555 1_555
H27 C22 1_555 1_555
O1 C12 1_555 1_555
O2 C13 1_555 1_555
O3 C16 1_555 1_555
O4 C18 1_555 1_555
O5 C19 1_555 1_555
H28 O5 1_555 1_555
Si1 C3 1_555 1_555
C4 Si1 1_555 1_555
C5 Si1 1_555 1_555
C6 Si1 1_555 1_555
C11 C12 1_555 1_555
C13 O1 1_555 1_555
C14 O2 1_555 1_555
C19 C20 1_555 1_555
C21 O3 1_555 1_555
C22 O4 1_555 1_555

#END
