
#######################################################################
#
#                 Cambridge Crystallographic Data Centre
#                                CCDC 
#
#######################################################################
#
# If this CIF has been generated from an entry in the Cambridge 
# Structural Database, then it will include bibliographic, chemical, 
# crystal, experimental, refinement or atomic coordinate data resulting 
# from the CCDC's data processing and validation procedures.
#
#######################################################################

data_ATUQAJ
_chemical_formula_moiety         'C16 H15 N1 O2 S1'
_chemical_name_systematic        
2-(2-(2-methoxyphenyl)vinyl)-5,6-dihydro-1,3-benzothiazol-7(4H)-one
_symmetry_cell_setting           monoclinic
_symmetry_space_group_name_H-M   'P 21/c'
_symmetry_Int_Tables_number      14
_space_group_name_Hall           '-P 2ybc'
loop_
_symmetry_equiv_pos_site_id
_symmetry_equiv_pos_as_xyz
1 x,y,z
2 -x,1/2+y,1/2-z
3 -x,-y,-z
4 x,1/2-y,1/2+z
_cell_length_a                   13.366(15)
_cell_length_b                   7.161(7)
_cell_length_c                   18.195(14)
_cell_angle_alpha                90
_cell_angle_beta                 125.53(5)
_cell_angle_gamma                90
_cell_volume                     1417.26
_exptl_crystal_colour            colorless
_exptl_crystal_description       prism
_cell_formula_units_Z            4
loop_
_atom_site_label
_atom_site_type_symbol
_atom_site_fract_x
_atom_site_fract_y
_atom_site_fract_z
C1 C 0.1218(2) 0.8852(3) -0.15803(16)
C2 C 0.0046(3) 0.9595(4) -0.1749(2)
H1 H 0.0111 1.0943 -0.1689
H2 H -0.0626 0.9315 -0.2369
C3 C -0.0275(4) 0.8859(4) -0.1149(3)
H3 H 0.0219 0.9519 -0.0578
H4 H -0.1128 0.9172 -0.1416
C4 C -0.0121(2) 0.6848(4) -0.0955(2)
H5 H -0.0807 0.6180 -0.1463
H6 H -0.0122 0.6606 -0.0430
C5 C 0.1054(2) 0.6148(3) -0.07796(16)
C6 C 0.1658(2) 0.7120(3) -0.10684(14)
C7 C 0.2617(2) 0.4201(3) -0.02877(16)
C8 C 0.3440(2) 0.2623(3) 0.01518(16)
H7 H 0.4131 0.2563 0.0146
C9 C 0.3267(2) 0.1250(3) 0.05641(15)
H8 H 0.2572 0.1322 0.0563
C10 C 0.4081(2) -0.0362(3) 0.10195(14)
C11 C 0.3736(2) -0.1820(3) 0.13565(14)
C12 C 0.4504(2) -0.3349(3) 0.17995(16)
H9 H 0.4264 -0.4305 0.2012
C13 C 0.5629(3) -0.3438(4) 0.19218(18)
H10 H 0.6144 -0.4455 0.2220
C14 C 0.5993(2) -0.2031(4) 0.16045(17)
H11 H 0.6749 -0.2101 0.1691
C15 C 0.5229(2) -0.0522(3) 0.11587(16)
H12 H 0.5480 0.0413 0.0945
C16 C 0.2252(3) -0.3009(4) 0.1583(2)
H13 H 0.2327 -0.4223 0.1395
H14 H 0.1413 -0.2801 0.1367
H15 H 0.2771 -0.2939 0.2231
N1 N 0.15941(19) 0.4493(3) -0.03442(15)
O1 O 0.1730(2) 0.9617(3) -0.18795(16)
O2 O 0.26170(16) -0.1614(2) 0.12193(12)
S1 S 0.29587(5) 0.59339(8) -0.07841(4)
loop_
_geom_bond_atom_site_label_1
_geom_bond_atom_site_label_2
_geom_bond_site_symmetry_1
_geom_bond_site_symmetry_2
C1 C2 1_555 1_555
C2 H1 1_555 1_555
H2 C2 1_555 1_555
C3 C2 1_555 1_555
H3 C3 1_555 1_555
H4 C3 1_555 1_555
C4 C3 1_555 1_555
H5 C4 1_555 1_555
H6 C4 1_555 1_555
C5 C4 1_555 1_555
C6 C1 1_555 1_555
C7 C8 1_555 1_555
C8 H7 1_555 1_555
C9 C8 1_555 1_555
H8 C9 1_555 1_555
C10 C9 1_555 1_555
C11 C10 1_555 1_555
C12 C11 1_555 1_555
H9 C12 1_555 1_555
C13 C12 1_555 1_555
H10 C13 1_555 1_555
C14 C13 1_555 1_555
H11 C14 1_555 1_555
C15 C10 1_555 1_555
H12 C15 1_555 1_555
C16 H13 1_555 1_555
H14 C16 1_555 1_555
H15 C16 1_555 1_555
N1 C5 1_555 1_555
O1 C1 1_555 1_555
O2 C11 1_555 1_555
S1 C6 1_555 1_555
C5 C6 1_555 1_555
C7 N1 1_555 1_555
C7 S1 1_555 1_555
C14 C15 1_555 1_555
C16 O2 1_555 1_555

#END
