
#######################################################################
#
#                 Cambridge Crystallographic Data Centre
#                                CCDC 
#
#######################################################################
#
# If this CIF has been generated from an entry in the Cambridge 
# Structural Database, then it will include bibliographic, chemical, 
# crystal, experimental, refinement or atomic coordinate data resulting 
# from the CCDC's data processing and validation procedures.
#
#######################################################################

data_ATUQEN
_chemical_formula_moiety         'C19 H14 N2 O2'
_chemical_name_systematic        
1-(6-hydroxy-9-methylnaphtho[1,2-f]quinoxalin-5-yl)ethanone
_symmetry_cell_setting           triclinic
_symmetry_space_group_name_H-M   'P -1'
_symmetry_Int_Tables_number      2
_space_group_name_Hall           '-P 1'
loop_
_symmetry_equiv_pos_site_id
_symmetry_equiv_pos_as_xyz
1 x,y,z
2 -x,-y,-z
_cell_length_a                   6.9987(7)
_cell_length_b                   8.6810(10)
_cell_length_c                   12.7581(14)
_cell_angle_alpha                71.704(10)
_cell_angle_beta                 83.324(8)
_cell_angle_gamma                76.129(9)
_cell_volume                     713.774
_exptl_crystal_colour            purple
_exptl_crystal_description       block
_cell_formula_units_Z            2
loop_
_atom_site_label
_atom_site_type_symbol
_atom_site_fract_x
_atom_site_fract_y
_atom_site_fract_z
O1 O 0.3635(3) -0.2641(3) -0.1712(2)
H1 H 0.3531 -0.2467 -0.2375
O2 O 0.3393(4) -0.1045(3) -0.3654(2)
C1 C 0.2773(6) 0.1829(5) -0.4403(3)
H2 H 0.2965 0.1521 -0.5074
H3 H 0.3735 0.2445 -0.4388
H4 H 0.1476 0.2504 -0.4370
N1 N 0.1573(3) 0.3040(3) -0.0464(2)
N2 N 0.2022(4) 0.3271(3) -0.2685(2)
C2 C 0.2002(4) 0.1088(4) 0.1742(3)
H5 H 0.1824 0.2181 0.1290
C3 C 0.1891(5) 0.0775(5) 0.2861(3)
H6 H 0.1631 0.1660 0.3157
C4 C 0.2155(5) -0.0824(5) 0.3563(3)
H7 H 0.2058 -0.1001 0.4323
C5 C 0.2554(4) -0.2147(5) 0.3158(3)
C6 C 0.2692(4) -0.1871(4) 0.1995(2)
C7 C 0.3174(4) -0.3227(4) 0.1543(3)
H8 H 0.3397 -0.4307 0.2018
C8 C 0.3314(4) -0.2988(4) 0.0454(3)
H9 H 0.3637 -0.3905 0.0187
C9 C 0.2982(4) -0.1372(3) -0.0306(2)
C10 C 0.2495(3) 0.0035(3) 0.0069(2)
C11 C 0.2383(4) -0.0216(4) 0.1256(2)
C12 C 0.2126(4) 0.1649(3) -0.0776(2)
C13 C 0.2313(4) 0.1774(3) -0.1916(2)
C14 C 0.2815(4) 0.0306(3) -0.2286(2)
C15 C 0.3131(4) -0.1202(3) -0.1472(3)
C16 C 0.2996(5) 0.0316(4) -0.3445(3)
C17 C 0.2854(6) -0.3897(5) 0.3936(3)
H10 H 0.2720 -0.3860 0.4686
H11 H 0.4147 -0.4507 0.3800
H12 H 0.1884 -0.4434 0.3817
C18 C 0.1293(5) 0.4486(4) -0.1237(3)
H13 H 0.0916 0.5455 -0.1029
C19 C 0.1541(5) 0.4602(4) -0.2335(3)
H14 H 0.1367 0.5648 -0.2852
loop_
_geom_bond_atom_site_label_1
_geom_bond_atom_site_label_2
_geom_bond_site_symmetry_1
_geom_bond_site_symmetry_2
O1 H1 1_555 1_555
O2 C16 1_555 1_555
C1 H2 1_555 1_555
H3 C1 1_555 1_555
H4 C1 1_555 1_555
N1 C12 1_555 1_555
N2 C13 1_555 1_555
C2 H5 1_555 1_555
C3 C2 1_555 1_555
H6 C3 1_555 1_555
C4 C3 1_555 1_555
H7 C4 1_555 1_555
C5 C4 1_555 1_555
C6 C5 1_555 1_555
C7 C6 1_555 1_555
H8 C7 1_555 1_555
C8 C7 1_555 1_555
H9 C8 1_555 1_555
C9 C8 1_555 1_555
C10 C9 1_555 1_555
C11 C2 1_555 1_555
C12 C10 1_555 1_555
C13 C12 1_555 1_555
C14 C13 1_555 1_555
C15 O1 1_555 1_555
C16 C1 1_555 1_555
C17 C5 1_555 1_555
H10 C17 1_555 1_555
H11 C17 1_555 1_555
H12 C17 1_555 1_555
C18 N1 1_555 1_555
H13 C18 1_555 1_555
C19 N2 1_555 1_555
H14 C19 1_555 1_555
C6 C11 1_555 1_555
C9 C15 1_555 1_555
C10 C11 1_555 1_555
C14 C15 1_555 1_555
C14 C16 1_555 1_555
C18 C19 1_555 1_555

#END
