
#######################################################################
#
#                 Cambridge Crystallographic Data Centre
#                                CCDC 
#
#######################################################################
#
# If this CIF has been generated from an entry in the Cambridge 
# Structural Database, then it will include bibliographic, chemical, 
# crystal, experimental, refinement or atomic coordinate data resulting 
# from the CCDC's data processing and validation procedures.
#
#######################################################################

data_ATUSAL
_chemical_formula_moiety         'C33 H23 N5 O2'
_chemical_name_systematic        
4-nitro-N-phenyl-N-(4-(2,2':6',2''-terpyridin-4'-yl)phenyl)aniline
_symmetry_cell_setting           monoclinic
_symmetry_space_group_name_H-M   'P 21/c'
_symmetry_Int_Tables_number      14
_space_group_name_Hall           '-P 2ybc'
loop_
_symmetry_equiv_pos_site_id
_symmetry_equiv_pos_as_xyz
1 x,y,z
2 -x,1/2+y,1/2-z
3 -x,-y,-z
4 x,1/2-y,1/2+z
_cell_length_a                   15.407(5)
_cell_length_b                   9.437(5)
_cell_length_c                   19.042(5)
_cell_angle_alpha                90
_cell_angle_beta                 105.277(5)
_cell_angle_gamma                90
_cell_volume                     2670.79
_cell_formula_units_Z            4
loop_
_atom_site_label
_atom_site_type_symbol
_atom_site_fract_x
_atom_site_fract_y
_atom_site_fract_z
N1 N 1.00597(10) 0.03954(18) 0.81886(8)
N2 N 1.01463(12) -0.34304(19) 1.04687(9)
C1 C 0.92518(12) 0.0788(2) 0.76680(10)
C2 C 1.08059(13) -0.0570(2) 0.93729(10)
H1 H 1.1277 0.0065 0.9407
O1 O 1.08272(11) -0.34870(18) 1.09786(8)
C3 C 0.76834(13) 0.1405(2) 0.73727(11)
H2 H 0.7162 0.1547 0.7522
O2 O 0.94796(11) -0.41688(18) 1.04363(8)
C4 C 1.00700(12) -0.0553(2) 0.87545(9)
C5 C 0.76548(12) 0.1557(2) 0.66386(11)
N3 N 0.52086(12) 0.2587(2) 0.50461(10)
C6 C 1.01307(13) -0.2437(2) 0.98816(10)
C7 C 0.68079(13) 0.1929(2) 0.60925(11)
C8 C 1.09075(12) 0.0849(2) 0.80783(10)
C9 C 0.93987(13) -0.2458(2) 0.92757(10)
H3 H 0.8930 -0.3096 0.9247
C10 C 0.84497(12) 0.1333(2) 0.64368(11)
H4 H 0.8451 0.1445 0.5952
C11 C 0.93749(13) -0.1523(2) 0.87175(10)
H5 H 0.8887 -0.1537 0.8308
C12 C 0.92351(12) 0.0946(2) 0.69393(10)
H6 H 0.9755 0.0791 0.6790
C13 C 0.59974(14) 0.3121(3) 0.50041(12)
C14 C 0.59867(14) 0.1376(3) 0.61353(12)
H7 H 0.5958 0.0777 0.6517
C15 C 0.84660(13) 0.1050(2) 0.78780(10)
H8 H 0.8472 0.0983 0.8367
C16 C 1.08368(13) -0.1516(2) 0.99294(10)
H9 H 1.1331 -0.1532 1.0334
C17 C 0.52100(13) 0.1726(3) 0.56043(12)
C18 C 1.12052(14) 0.2209(2) 0.82479(11)
H10 H 1.0851 0.2853 0.8418
N4 N 0.67389(15) 0.4647(3) 0.43271(12)
C19 C 1.14163(15) -0.0089(2) 0.78079(13)
H11 H 1.1207 -0.1003 0.7683
C20 C 0.67992(13) 0.2829(2) 0.55115(11)
H12 H 0.7332 0.3232 0.5465
C21 C 1.20317(15) 0.2616(3) 0.81646(12)
H13 H 1.2239 0.3533 0.8286
C22 C 0.43225(15) 0.1140(3) 0.56278(13)
N5 N 0.43299(14) 0.0211(3) 0.61612(13)
C23 C 0.59709(17) 0.4070(3) 0.43680(13)
C24 C 0.35388(15) 0.1533(4) 0.51262(15)
H14 H 0.3556 0.2178 0.4760
C25 C 1.25492(15) 0.1675(3) 0.79043(14)
H15 H 1.3108 0.1950 0.7851
C26 C 1.22382(17) 0.0325(3) 0.77219(17)
H16 H 1.2585 -0.0313 0.7540
C27 C 0.27298(19) 0.0022(4) 0.5700(2)
H17 H 0.2193 -0.0382 0.5736
C28 C 0.3534(2) -0.0333(4) 0.61846(19)
H18 H 0.3524 -0.0987 0.6548
C29 C 0.27382(19) 0.0973(5) 0.51691(19)
H19 H 0.2204 0.1240 0.4838
C30 C 0.6710(2) 0.5479(3) 0.37497(18)
H20 H 0.7245 0.5896 0.3717
C31 C 0.5172(2) 0.4315(4) 0.38499(17)
H21 H 0.4637 0.3916 0.3895
C32 C 0.5961(3) 0.5753(4) 0.32135(19)
H22 H 0.5980 0.6330 0.2822
C33 C 0.5186(3) 0.5164(5) 0.3265(2)
H23 H 0.4657 0.5330 0.2904
loop_
_geom_bond_atom_site_label_1
_geom_bond_atom_site_label_2
_geom_bond_site_symmetry_1
_geom_bond_site_symmetry_2
N1 C1 1_555 1_555
N2 O1 1_555 1_555
C1 C12 1_555 1_555
C2 H1 1_555 1_555
C3 H2 1_555 1_555
O2 N2 1_555 1_555
C4 N1 1_555 1_555
C5 C3 1_555 1_555
N3 C13 1_555 1_555
C6 N2 1_555 1_555
C7 C5 1_555 1_555
C8 N1 1_555 1_555
C9 C6 1_555 1_555
H3 C9 1_555 1_555
C10 C5 1_555 1_555
H4 C10 1_555 1_555
C11 C4 1_555 1_555
H5 C11 1_555 1_555
C12 C10 1_555 1_555
H6 C12 1_555 1_555
C13 C20 1_555 1_555
C14 C7 1_555 1_555
H7 C14 1_555 1_555
C15 C1 1_555 1_555
H8 C15 1_555 1_555
C16 C2 1_555 1_555
H9 C16 1_555 1_555
C17 N3 1_555 1_555
C18 C8 1_555 1_555
H10 C18 1_555 1_555
N4 C23 1_555 1_555
C19 C8 1_555 1_555
H11 C19 1_555 1_555
C20 C7 1_555 1_555
H12 C20 1_555 1_555
C21 C18 1_555 1_555
H13 C21 1_555 1_555
C22 C17 1_555 1_555
N5 C22 1_555 1_555
C23 C13 1_555 1_555
C24 C22 1_555 1_555
H14 C24 1_555 1_555
C25 C21 1_555 1_555
H15 C25 1_555 1_555
C26 C19 1_555 1_555
H16 C26 1_555 1_555
C27 H17 1_555 1_555
C28 N5 1_555 1_555
H18 C28 1_555 1_555
C29 C24 1_555 1_555
H19 C29 1_555 1_555
C30 N4 1_555 1_555
H20 C30 1_555 1_555
C31 C23 1_555 1_555
H21 C31 1_555 1_555
C32 C30 1_555 1_555
H22 C32 1_555 1_555
C33 C31 1_555 1_555
H23 C33 1_555 1_555
C2 C4 1_555 1_555
C3 C15 1_555 1_555
C6 C16 1_555 1_555
C9 C11 1_555 1_555
C14 C17 1_555 1_555
C25 C26 1_555 1_555
C27 C28 1_555 1_555
C27 C29 1_555 1_555
C32 C33 1_555 1_555

#END
