
#######################################################################
#
#                 Cambridge Crystallographic Data Centre
#                                CCDC 
#
#######################################################################
#
# If this CIF has been generated from an entry in the Cambridge 
# Structural Database, then it will include bibliographic, chemical, 
# crystal, experimental, refinement or atomic coordinate data resulting 
# from the CCDC's data processing and validation procedures.
#
#######################################################################

data_ATUSIT
_chemical_formula_moiety         'C17 H18 Br1 N1 O4'
_chemical_name_systematic        
'methyl 10-(4-bromophenyl)-5-oxo-6-oxa-9-azadispiro[2.0.4.3]undecane-11-carboxylate'
_symmetry_cell_setting           orthorhombic
_symmetry_space_group_name_H-M   'P 21 21 21'
_symmetry_Int_Tables_number      19
_space_group_name_Hall           'P 2ac 2ab'
loop_
_symmetry_equiv_pos_site_id
_symmetry_equiv_pos_as_xyz
1 x,y,z
2 1/2-x,-y,1/2+z
3 -x,1/2+y,1/2-z
4 1/2+x,1/2-y,-z
_cell_length_a                   6.5371(14)
_cell_length_b                   10.906(2)
_cell_length_c                   25.287(5)
_cell_angle_alpha                90
_cell_angle_beta                 90
_cell_angle_gamma                90
_cell_volume                     1802.8
_exptl_crystal_colour            colorless
_exptl_crystal_description       block
_cell_formula_units_Z            4
loop_
_atom_site_label
_atom_site_type_symbol
_atom_site_fract_x
_atom_site_fract_y
_atom_site_fract_z
Br1 Br -0.08549(18) 0.06182(8) -0.14392(3)
C1 C -0.0319(13) 0.0817(6) -0.0703(2)
C2 C -0.1713(11) 0.0460(6) -0.0352(3)
H1 H -0.2924 0.0108 -0.0472
C3 C -0.1404(10) 0.0599(6) 0.0188(2)
H2 H -0.2416 0.0373 0.0428
C4 C 0.0424(9) 0.1079(5) 0.0364(2)
C5 C 0.1883(12) 0.1410(6) -0.0005(3)
H3 H 0.3129 0.1722 0.0111
C6 C 0.1539(12) 0.1289(6) -0.0546(3)
H4 H 0.2525 0.1518 -0.0791
C7 C 0.0850(8) 0.1293(5) 0.09448(19)
H5 H 0.1099 0.2173 0.0988
C8 C 0.2708(8) 0.0623(6) 0.1180(2)
H6 H 0.3972 0.1058 0.1090
C9 C 0.2285(8) 0.0728(6) 0.1771(2)
C10 C 0.0012(8) 0.1016(5) 0.1829(2)
C11 C 0.2829(10) -0.0686(6) 0.1002(3)
C12 C 0.499(2) -0.2365(11) 0.0748(5)
H7 H 0.4277 -0.2871 0.0998
H8 H 0.6417 -0.2560 0.0753
H9 H 0.4448 -0.2510 0.0400
C13 C 0.3440(11) -0.0052(8) 0.2162(3)
H10 H 0.2713 -0.0334 0.2474
H11 H 0.4448 -0.0622 0.2025
C14 C 0.3885(10) 0.1284(7) 0.2118(3)
H12 H 0.5167 0.1525 0.1955
H13 H 0.3433 0.1812 0.2404
C15 C -0.1090(9) 0.0061(6) 0.2159(2)
C16 C -0.0739(14) 0.1744(7) 0.2697(3)
H14 H 0.0551 0.1798 0.2885
H15 H -0.1754 0.2226 0.2884
C17 C -0.0500(10) 0.2197(6) 0.2131(2)
H16 H 0.0599 0.2791 0.2103
H17 H -0.1757 0.2563 0.2003
N1 N -0.0857(7) 0.0978(4) 0.12889(16)
H18 H -0.2093 0.0809 0.1199
O1 O 0.1414(8) -0.1375(5) 0.0980(3)
O2 O 0.4691(8) -0.1024(4) 0.0892(3)
O3 O -0.1653(6) -0.0925(4) 0.20306(19)
O4 O -0.1395(7) 0.0472(5) 0.26522(17)
loop_
_geom_bond_atom_site_label_1
_geom_bond_atom_site_label_2
_geom_bond_site_symmetry_1
_geom_bond_site_symmetry_2
Br1 C1 1_555 1_555
C1 C2 1_555 1_555
C2 H1 1_555 1_555
C3 C2 1_555 1_555
H2 C3 1_555 1_555
C4 C3 1_555 1_555
C5 C4 1_555 1_555
H3 C5 1_555 1_555
C6 C1 1_555 1_555
H4 C6 1_555 1_555
C7 C4 1_555 1_555
H5 C7 1_555 1_555
C8 C7 1_555 1_555
H6 C8 1_555 1_555
C9 C8 1_555 1_555
C10 C9 1_555 1_555
C11 C8 1_555 1_555
C12 H7 1_555 1_555
H8 C12 1_555 1_555
H9 C12 1_555 1_555
C13 C9 1_555 1_555
H10 C13 1_555 1_555
H11 C13 1_555 1_555
C14 C9 1_555 1_555
H12 C14 1_555 1_555
H13 C14 1_555 1_555
C15 C10 1_555 1_555
C16 H14 1_555 1_555
H15 C16 1_555 1_555
C17 C10 1_555 1_555
H16 C17 1_555 1_555
H17 C17 1_555 1_555
N1 C7 1_555 1_555
H18 N1 1_555 1_555
O1 C11 1_555 1_555
O2 C11 1_555 1_555
O3 C15 1_555 1_555
O4 C15 1_555 1_555
C5 C6 1_555 1_555
C10 N1 1_555 1_555
C12 O2 1_555 1_555
C13 C14 1_555 1_555
C16 C17 1_555 1_555
C16 O4 1_555 1_555

#END
