
#######################################################################
#
#                 Cambridge Crystallographic Data Centre
#                                CCDC 
#
#######################################################################
#
# If this CIF has been generated from an entry in the Cambridge 
# Structural Database, then it will include bibliographic, chemical, 
# crystal, experimental, refinement or atomic coordinate data resulting 
# from the CCDC's data processing and validation procedures.
#
#######################################################################

data_ATUSOZ
_chemical_formula_moiety         'C26 H30 Cl1 N1 O6 S1'
_chemical_name_systematic        
'7-Ethyl 4-methyl 6-(4-chlorophenyl)-7-ethyl-5-((4-methylphenyl)sulfonyl)-5-azaspiro[2.4]heptane-4,7-dicarboxylate'
_symmetry_cell_setting           orthorhombic
_symmetry_space_group_name_H-M   'P 21 21 21'
_symmetry_Int_Tables_number      19
_space_group_name_Hall           'P 2ac 2ab'
loop_
_symmetry_equiv_pos_site_id
_symmetry_equiv_pos_as_xyz
1 x,y,z
2 1/2-x,-y,1/2+z
3 -x,1/2+y,1/2-z
4 1/2+x,1/2-y,-z
_cell_length_a                   9.2083(13)
_cell_length_b                   11.5050(16)
_cell_length_c                   24.678(3)
_cell_angle_alpha                90
_cell_angle_beta                 90
_cell_angle_gamma                90
_cell_volume                     2614.42
_exptl_crystal_colour            colorless
_exptl_crystal_description       block
_cell_formula_units_Z            4
loop_
_atom_site_label
_atom_site_type_symbol
_atom_site_fract_x
_atom_site_fract_y
_atom_site_fract_z
C1 C 1.1714(2) 0.0716(2) 0.54211(7)
C2 C 1.1792(2) -0.0196(2) 0.57788(8)
H1 H 1.2518 -0.0754 0.5747
C3 C 1.0772(2) -0.02677(18) 0.61864(8)
H2 H 1.0825 -0.0878 0.6433
C4 C 0.9681(2) 0.05354(16) 0.62391(7)
C5 C 0.9638(3) 0.14532(19) 0.58754(8)
H3 H 0.8920 0.2017 0.5908
C6 C 1.0649(3) 0.15375(19) 0.54657(8)
H4 H 1.0606 0.2151 0.5221
C7 C 0.8590(2) 0.04236(17) 0.66990(7)
H5 H 0.8950 -0.0158 0.6956
C8 C 0.7044(2) 0.21127(16) 0.69087(7)
H6 H 0.6487 0.2082 0.7247
C9 C 0.6311(2) 0.13515(17) 0.64810(8)
C10 C 0.6975(2) 0.01428(17) 0.65654(8)
C11 C 0.5902(3) 0.1843(2) 0.59371(9)
H7 H 0.6120 0.2654 0.5868
H8 H 0.5985 0.1338 0.5624
C12 C 0.4752(2) 0.1572(2) 0.63430(10)
H9 H 0.4136 0.0904 0.6275
H10 H 0.4272 0.2220 0.6520
C13 C 0.6239(2) -0.04356(19) 0.70626(9)
H11 H 0.6471 0.0022 0.7381
H12 H 0.5196 -0.0399 0.7012
C14 C 0.6647(3) -0.1680(2) 0.71749(12)
H13 H 0.6273 -0.2169 0.6892
H14 H 0.6243 -0.1916 0.7516
H15 H 0.7686 -0.1749 0.7188
C15 C 0.6712(2) -0.0690(2) 0.60936(9)
C16 C 0.8562(2) 0.11967(18) 0.80837(7)
C17 C 0.7563(2) 0.1820(2) 0.83875(8)
H16 H 0.7317 0.2577 0.8293
C18 C 0.6938(3) 0.1293(3) 0.88333(9)
H17 H 0.6276 0.1709 0.9042
C19 C 0.7276(3) 0.0158(3) 0.89779(9)
C20 C 0.8276(3) -0.0433(2) 0.86680(10)
H18 H 0.8521 -0.1191 0.8761
C21 C 0.8921(3) 0.0072(2) 0.82242(9)
H19 H 0.9594 -0.0341 0.8020
C22 C 0.6594(4) -0.0408(3) 0.94706(12)
H20 H 0.7077 -0.0141 0.9792
H21 H 0.6689 -0.1237 0.9444
H22 H 0.5584 -0.0205 0.9488
C23 C 0.7237(2) 0.33755(18) 0.67342(8)
C24 C 0.6315(3) 0.5255(2) 0.68218(15)
H23 H 0.7106 0.5593 0.7020
H24 H 0.5427 0.5641 0.6918
H25 H 0.6485 0.5342 0.6440
C25 C 0.7683(3) -0.2252(3) 0.55817(13)
H26 H 0.7279 -0.1921 0.5253
H27 H 0.7035 -0.2858 0.5709
C26 C 0.9122(4) -0.2731(4) 0.5475(2)
H28 H 0.9765 -0.2118 0.5366
H29 H 0.9059 -0.3299 0.5191
H30 H 0.9490 -0.3092 0.5798
Cl1 Cl 1.29796(8) 0.08282(7) 0.48981(2)
N1 N 0.84467(17) 0.15520(14) 0.69865(6)
O1 O 0.5571(2) -0.07967(18) 0.58701(8)
O2 O 0.78485(18) -0.13540(14) 0.59958(7)
O3 O 1.07758(15) 0.13125(14) 0.74437(6)
O4 O 0.92872(17) 0.30791(13) 0.75979(5)
O5 O 0.81521(19) 0.37314(13) 0.64426(6)
O6 O 0.62027(18) 0.40292(14) 0.69540(7)
S1 S 0.94065(5) 0.18507(4) 0.752067(19)
loop_
_geom_bond_atom_site_label_1
_geom_bond_atom_site_label_2
_geom_bond_site_symmetry_1
_geom_bond_site_symmetry_2
C1 C2 1_555 1_555
C2 H1 1_555 1_555
C3 C2 1_555 1_555
H2 C3 1_555 1_555
C4 C3 1_555 1_555
C5 C4 1_555 1_555
H3 C5 1_555 1_555
C6 C1 1_555 1_555
H4 C6 1_555 1_555
C7 C4 1_555 1_555
H5 C7 1_555 1_555
C8 H6 1_555 1_555
C9 C8 1_555 1_555
C10 C7 1_555 1_555
C11 C9 1_555 1_555
H7 C11 1_555 1_555
H8 C11 1_555 1_555
C12 C9 1_555 1_555
H9 C12 1_555 1_555
H10 C12 1_555 1_555
C13 C10 1_555 1_555
H11 C13 1_555 1_555
H12 C13 1_555 1_555
C14 C13 1_555 1_555
H13 C14 1_555 1_555
H14 C14 1_555 1_555
H15 C14 1_555 1_555
C15 C10 1_555 1_555
C16 C17 1_555 1_555
C17 H16 1_555 1_555
C18 C17 1_555 1_555
H17 C18 1_555 1_555
C19 C18 1_555 1_555
C20 C19 1_555 1_555
H18 C20 1_555 1_555
C21 C16 1_555 1_555
H19 C21 1_555 1_555
C22 C19 1_555 1_555
H20 C22 1_555 1_555
H21 C22 1_555 1_555
H22 C22 1_555 1_555
C23 C8 1_555 1_555
C24 H23 1_555 1_555
H24 C24 1_555 1_555
H25 C24 1_555 1_555
C25 H26 1_555 1_555
H27 C25 1_555 1_555
C26 C25 1_555 1_555
H28 C26 1_555 1_555
H29 C26 1_555 1_555
H30 C26 1_555 1_555
Cl1 C1 1_555 1_555
N1 C7 1_555 1_555
O1 C15 1_555 1_555
O2 C15 1_555 1_555
O3 S1 1_555 1_555
O4 S1 1_555 1_555
O5 C23 1_555 1_555
O6 C23 1_555 1_555
S1 C16 1_555 1_555
C5 C6 1_555 1_555
C8 N1 1_555 1_555
C9 C10 1_555 1_555
C11 C12 1_555 1_555
C20 C21 1_555 1_555
C24 O6 1_555 1_555
C25 O2 1_555 1_555
N1 S1 1_555 1_555

#END
