
#######################################################################
#
#                 Cambridge Crystallographic Data Centre
#                                CCDC 
#
#######################################################################
#
# If this CIF has been generated from an entry in the Cambridge 
# Structural Database, then it will include bibliographic, chemical, 
# crystal, experimental, refinement or atomic coordinate data resulting 
# from the CCDC's data processing and validation procedures.
#
#######################################################################

data_ATUVAM
_chemical_formula_moiety         'C12 H17 N2 O1 1+,I1 1-'
_chemical_name_systematic        
'3-(4-Methoxyphenyl)-1,2-dimethyl-4,5-dihydroimidazolium iodide'
_symmetry_cell_setting           monoclinic
_symmetry_space_group_name_H-M   'P 21/n'
_symmetry_Int_Tables_number      14
_space_group_name_Hall           '-P 2yn'
loop_
_symmetry_equiv_pos_site_id
_symmetry_equiv_pos_as_xyz
1 x,y,z
2 1/2+x,1/2-y,1/2+z
3 -x,-y,-z
4 1/2-x,1/2+y,1/2-z
_cell_length_a                   11.4580(17)
_cell_length_b                   7.5134(12)
_cell_length_c                   16.307(3)
_cell_angle_alpha                90
_cell_angle_beta                 110.014(2)
_cell_angle_gamma                90
_cell_volume                     1319.07
_exptl_crystal_colour            colorless
_exptl_crystal_description       block
_chemical_melting_point          '383-387 K'
_cell_formula_units_Z            4
_exptl_crystal_recrystallization_method chloroform
loop_
_atom_site_label
_atom_site_type_symbol
_atom_site_fract_x
_atom_site_fract_y
_atom_site_fract_z
I1 I 0.824322(19) 0.61571(3) 0.074678(13)
O1 O -0.00046(19) 0.3319(3) 0.39323(14)
N1 N 0.3857(2) 0.4250(3) 0.26500(15)
N2 N 0.5660(2) 0.5051(3) 0.25886(16)
C1 C 0.0256(3) 0.2767(5) 0.4815(2)
H1 H 0.0656 0.1626 0.4903
H2 H -0.0506 0.2684 0.4935
H3 H 0.0793 0.3621 0.5202
C2 C 0.0985(3) 0.3491(4) 0.3655(2)
C3 C 0.0721(3) 0.4118(4) 0.28075(19)
H4 H -0.0095 0.4375 0.2467
C4 C 0.1655(3) 0.4359(4) 0.24714(19)
H5 H 0.1472 0.4785 0.1906
C5 C 0.2873(3) 0.3966(4) 0.29774(18)
C6 C 0.3133(3) 0.3262(4) 0.38034(18)
H6 H 0.3942 0.2938 0.4129
C7 C 0.2198(3) 0.3038(4) 0.41475(18)
H7 H 0.2380 0.2584 0.4708
C8 C 0.3796(3) 0.3685(4) 0.17596(19)
H8 H 0.3251 0.4449 0.1312
H9 H 0.3524 0.2460 0.1642
C9 C 0.5138(3) 0.3905(4) 0.1828(2)
H10 H 0.5560 0.2765 0.1914
H11 H 0.5199 0.4461 0.1307
C10 C 0.4920(3) 0.5088(4) 0.30454(18)
C11 C 0.5237(3) 0.6000(4) 0.39062(19)
H12 H 0.5746 0.5231 0.4357
H13 H 0.4487 0.6277 0.4018
H14 H 0.5681 0.7079 0.3897
C12 C 0.6938(3) 0.5683(5) 0.2871(2)
H15 H 0.7011 0.6747 0.3211
H16 H 0.7167 0.5935 0.2369
H17 H 0.7479 0.4784 0.3219
loop_
_geom_bond_atom_site_label_1
_geom_bond_atom_site_label_2
_geom_bond_site_symmetry_1
_geom_bond_site_symmetry_2
O1 C1 1_555 1_555
N1 C5 1_555 1_555
N2 C9 1_555 1_555
C1 H1 1_555 1_555
H2 C1 1_555 1_555
H3 C1 1_555 1_555
C2 O1 1_555 1_555
C3 C2 1_555 1_555
H4 C3 1_555 1_555
C4 C3 1_555 1_555
H5 C4 1_555 1_555
C5 C4 1_555 1_555
C6 C5 1_555 1_555
H6 C6 1_555 1_555
C7 C2 1_555 1_555
H7 C7 1_555 1_555
C8 N1 1_555 1_555
H8 C8 1_555 1_555
H9 C8 1_555 1_555
C9 C8 1_555 1_555
H10 C9 1_555 1_555
H11 C9 1_555 1_555
C10 N1 1_555 1_555
C11 C10 1_555 1_555
H12 C11 1_555 1_555
H13 C11 1_555 1_555
H14 C11 1_555 1_555
C12 N2 1_555 1_555
H15 C12 1_555 1_555
H16 C12 1_555 1_555
H17 C12 1_555 1_555
N2 C10 1_555 1_555
C6 C7 1_555 1_555

#END
