
#######################################################################
#
#                 Cambridge Crystallographic Data Centre
#                                CCDC 
#
#######################################################################
#
# If this CIF has been generated from an entry in the Cambridge 
# Structural Database, then it will include bibliographic, chemical, 
# crystal, experimental, refinement or atomic coordinate data resulting 
# from the CCDC's data processing and validation procedures.
#
#######################################################################

data_ATUVES
_chemical_formula_moiety         'C32 H42 N1 O1 P1'
_chemical_name_systematic        
N-(((2-isopropyl-5-methylcyclohexyl)(phenyl)phosphoryl)(4-methylphenyl)methyl)-1-phenylethanamine
_symmetry_cell_setting           orthorhombic
_symmetry_space_group_name_H-M   'P 21 21 21'
_symmetry_Int_Tables_number      19
_space_group_name_Hall           'P 2ac 2ab'
loop_
_symmetry_equiv_pos_site_id
_symmetry_equiv_pos_as_xyz
1 x,y,z
2 1/2-x,-y,1/2+z
3 -x,1/2+y,1/2-z
4 1/2+x,1/2-y,-z
_cell_length_a                   10.9509(7)
_cell_length_b                   13.4401(9)
_cell_length_c                   19.9887(12)
_cell_angle_alpha                90
_cell_angle_beta                 90
_cell_angle_gamma                90
_cell_volume                     2941.96
_exptl_crystal_colour            white
_exptl_crystal_description       needle
_cell_formula_units_Z            4
loop_
_atom_site_label
_atom_site_type_symbol
_atom_site_fract_x
_atom_site_fract_y
_atom_site_fract_z
P1 P 0.77868(10) 0.73615(9) -0.01249(6)
N1 N 0.7859(4) 0.5647(3) 0.04836(19)
H1 H 0.7126 0.5711 0.0682
O1 O 0.6442(3) 0.7462(2) -0.00412(15)
C1 C 0.5815(12) 0.2500(7) 0.1127(10)
H2 H 0.5222 0.2015 0.1195
C2 C 0.6134(9) 0.2806(6) 0.0521(7)
H3 H 0.5770 0.2489 0.0159
C3 C 0.6944(7) 0.3541(5) 0.0383(4)
H4 H 0.7081 0.3742 -0.0056
C4 C 0.7557(6) 0.3982(4) 0.0901(3)
C5 C 0.7282(9) 0.3686(7) 0.1537(4)
H5 H 0.7676 0.3984 0.1897
C6 C 0.6428(14) 0.2952(10) 0.1651(7)
H6 H 0.6261 0.2758 0.2088
C7 C 0.8492(5) 0.4790(4) 0.0783(3)
H7 H 0.8844 0.4990 0.1213
C8 C 0.9505(6) 0.4455(5) 0.0321(4)
H8 H 0.9174 0.4317 -0.0114
H9 H 0.9877 0.3863 0.0498
H10 H 1.0108 0.4971 0.0286
C9 C 0.8508(4) 0.6607(3) 0.0533(2)
H11 H 0.9354 0.6489 0.0394
C10 C 0.8549(5) 0.6978(4) 0.1262(2)
C11 C 0.7478(6) 0.7153(5) 0.1614(3)
H12 H 0.6727 0.7114 0.1399
C12 C 0.7536(7) 0.7387(5) 0.2287(3)
H13 H 0.6813 0.7504 0.2518
C13 C 0.8630(9) 0.7452(5) 0.2627(3)
C14 C 0.8636(10) 0.7673(8) 0.3371(3)
H14 H 0.9015 0.7132 0.3606
H15 H 0.7811 0.7752 0.3525
H16 H 0.9084 0.8274 0.3452
C15 C 0.9655(7) 0.7293(6) 0.2269(4)
H17 H 1.0405 0.7343 0.2485
C16 C 0.9646(5) 0.7057(5) 0.1590(3)
H18 H 1.0375 0.6955 0.1361
C17 C 0.8546(4) 0.8566(3) -0.0184(2)
H19 H 0.9409 0.8454 -0.0291
C18 C 0.8464(6) 0.9053(4) 0.0509(3)
H20 H 0.7614 0.9061 0.0646
H21 H 0.8905 0.8641 0.0825
C19 C 0.8963(6) 1.0117(4) 0.0556(3)
H22 H 0.9841 1.0092 0.0462
C20 C 0.8797(9) 1.0517(6) 0.1264(3)
H23 H 0.9084 1.1191 0.1285
H24 H 0.9254 1.0115 0.1572
H25 H 0.7947 1.0497 0.1382
C21 C 0.8372(6) 1.0751(4) 0.0027(3)
H26 H 0.8721 1.1414 0.0040
H27 H 0.7505 1.0808 0.0120
C22 C 0.8549(6) 1.0315(4) -0.0663(3)
H28 H 0.9415 1.0282 -0.0761
H29 H 0.8173 1.0751 -0.0991
C23 C 0.7988(4) 0.9260(4) -0.0727(2)
H30 H 0.7118 0.9326 -0.0620
C24 C 0.8058(5) 0.8880(4) -0.1451(3)
H31 H 0.7717 0.8206 -0.1458
C25 C 0.7304(8) 0.9515(5) -0.1929(3)
H32 H 0.6526 0.9660 -0.1729
H33 H 0.7183 0.9160 -0.2340
H34 H 0.7728 1.0126 -0.2018
C26 C 0.9370(7) 0.8817(6) -0.1703(4)
H35 H 0.9710 0.9475 -0.1730
H36 H 0.9380 0.8515 -0.2138
H37 H 0.9846 0.8424 -0.1398
C27 C 0.8177(4) 0.6580(3) -0.0829(2)
C28 C 0.9391(5) 0.6394(4) -0.1014(2)
H38 H 1.0026 0.6720 -0.0797
C29 C 0.9637(6) 0.5726(5) -0.1519(3)
H39 H 1.0440 0.5619 -0.1652
C30 C 0.8716(8) 0.5220(6) -0.1827(3)
H40 H 0.8898 0.4746 -0.2151
C31 C 0.7526(7) 0.5403(5) -0.1662(3)
H41 H 0.6903 0.5072 -0.1886
C32 C 0.7242(6) 0.6080(4) -0.1163(3)
H42 H 0.6431 0.6200 -0.1052
H43? H 0.7726 0.5514 0.0048
loop_
_geom_bond_atom_site_label_1
_geom_bond_atom_site_label_2
_geom_bond_site_symmetry_1
_geom_bond_site_symmetry_2
P1 O1 1_555 1_555
N1 H1 1_555 1_555
C1 H2 1_555 1_555
C2 C1 1_555 1_555
H3 C2 1_555 1_555
C3 C2 1_555 1_555
H4 C3 1_555 1_555
C4 C3 1_555 1_555
C5 C4 1_555 1_555
H5 C5 1_555 1_555
C6 C1 1_555 1_555
H6 C6 1_555 1_555
C7 N1 1_555 1_555
H7 C7 1_555 1_555
C8 C7 1_555 1_555
H8 C8 1_555 1_555
H9 C8 1_555 1_555
H10 C8 1_555 1_555
C9 P1 1_555 1_555
H11 C9 1_555 1_555
C10 C9 1_555 1_555
C11 C10 1_555 1_555
H12 C11 1_555 1_555
C12 C11 1_555 1_555
H13 C12 1_555 1_555
C13 C12 1_555 1_555
C14 C13 1_555 1_555
H14 C14 1_555 1_555
H15 C14 1_555 1_555
H16 C14 1_555 1_555
C15 C13 1_555 1_555
H17 C15 1_555 1_555
C16 C10 1_555 1_555
H18 C16 1_555 1_555
C17 P1 1_555 1_555
H19 C17 1_555 1_555
C18 C17 1_555 1_555
H20 C18 1_555 1_555
H21 C18 1_555 1_555
C19 C18 1_555 1_555
H22 C19 1_555 1_555
C20 C19 1_555 1_555
H23 C20 1_555 1_555
H24 C20 1_555 1_555
H25 C20 1_555 1_555
C21 C19 1_555 1_555
H26 C21 1_555 1_555
H27 C21 1_555 1_555
C22 C21 1_555 1_555
H28 C22 1_555 1_555
H29 C22 1_555 1_555
C23 C17 1_555 1_555
H30 C23 1_555 1_555
C24 C23 1_555 1_555
H31 C24 1_555 1_555
C25 C24 1_555 1_555
H32 C25 1_555 1_555
H33 C25 1_555 1_555
H34 C25 1_555 1_555
C26 C24 1_555 1_555
H35 C26 1_555 1_555
H36 C26 1_555 1_555
H37 C26 1_555 1_555
C27 P1 1_555 1_555
C28 C27 1_555 1_555
H38 C28 1_555 1_555
C29 C28 1_555 1_555
H39 C29 1_555 1_555
C30 C29 1_555 1_555
H40 C30 1_555 1_555
C31 C30 1_555 1_555
H41 C31 1_555 1_555
C32 C27 1_555 1_555
H42 C32 1_555 1_555
N1 C9 1_555 1_555
C4 C7 1_555 1_555
C5 C6 1_555 1_555
C15 C16 1_555 1_555
C22 C23 1_555 1_555
C31 C32 1_555 1_555

#END
