
#######################################################################
#
#                 Cambridge Crystallographic Data Centre
#                                CCDC 
#
#######################################################################
#
# If this CIF has been generated from an entry in the Cambridge 
# Structural Database, then it will include bibliographic, chemical, 
# crystal, experimental, refinement or atomic coordinate data resulting 
# from the CCDC's data processing and validation procedures.
#
#######################################################################

data_ATUWUH01
_chemical_compound_source        'Halenia elliptica'
_chemical_formula_moiety         'C17 H16 O7'
_chemical_name_systematic        
1-Hydroxy-2,3,4,7-tetramethoxy-9H-xanthen-9-one
_chemical_properties_biological  'source plant has antiviral activity'
_symmetry_cell_setting           monoclinic
_symmetry_space_group_name_H-M   'P 21/n'
_symmetry_Int_Tables_number      14
_space_group_name_Hall           '-P 2yn'
loop_
_symmetry_equiv_pos_site_id
_symmetry_equiv_pos_as_xyz
1 x,y,z
2 1/2+x,1/2-y,1/2+z
3 -x,-y,-z
4 1/2-x,1/2+y,1/2-z
_cell_length_a                   7.155(2)
_cell_length_b                   13.232(1)
_cell_length_c                   16.037(2)
_cell_angle_alpha                90
_cell_angle_beta                 95.06(2)
_cell_angle_gamma                90
_cell_volume                     1512.39
_exptl_crystal_colour            orange
_exptl_crystal_description       block
_cell_formula_units_Z            4
_exptl_crystal_recrystallization_method 'acetone/ethyl acetate'
loop_
_atom_site_label
_atom_site_type_symbol
_atom_site_fract_x
_atom_site_fract_y
_atom_site_fract_z
O1 O 0.2614(3) 0.51133(18) 0.61315(13)
O2 O 0.3207(4) 0.3737(2) 0.73405(13)
O3 O 0.4084(4) 0.1847(2) 0.69937(16)
O4 O 0.4160(4) 0.1175(2) 0.52698(16)
O5 O 0.3326(4) 0.2554(2) 0.40526(14)
H1 H 0.3079 0.3037 0.3741
O6 O 0.2538(4) 0.4395(2) 0.36390(14)
O7 O 0.0981(4) 0.8175(2) 0.38670(16)
C1 C 0.1940(5) 0.6817(3) 0.5805(2)
H2 H 0.2023 0.6960 0.6375
C2 C 0.1539(6) 0.7559(3) 0.5232(2)
H3 H 0.1335 0.8212 0.5418
C3 C 0.1425(5) 0.7371(3) 0.4374(2)
C4 C 0.1716(5) 0.6411(3) 0.4094(2)
H4 H 0.1626 0.6276 0.3523
C5 C 0.2537(5) 0.4613(3) 0.4396(2)
C6 C 0.3315(5) 0.2854(3) 0.4853(2)
C7 C 0.3711(5) 0.2151(3) 0.5477(2)
C8 C 0.3701(5) 0.2448(3) 0.6314(2)
C9 C 0.3354(5) 0.3450(3) 0.6518(2)
C10 C 0.2150(5) 0.5629(3) 0.4673(2)
C11 C 0.2226(5) 0.5840(3) 0.5524(2)
C12 C 0.2962(5) 0.3868(3) 0.5042(2)
C13 C 0.2962(5) 0.4145(3) 0.5891(2)
C14 C 0.0843(6) 0.8004(3) 0.2983(2)
H5 H 0.2034 0.7779 0.2821
H6 H 0.0494 0.8621 0.2696
H7 H -0.0090 0.7497 0.2840
C15 C 0.4290(8) 0.0798(3) 0.6968(3)
H8 H 0.3174 0.0502 0.6695
H9 H 0.4492 0.0540 0.7529
H10 H 0.5344 0.0631 0.6664
C16 C 0.2602(7) 0.0581(3) 0.4914(3)
H11 H 0.1668 0.0535 0.5306
H12 H 0.3032 -0.0085 0.4789
H13 H 0.2069 0.0896 0.4408
C17 C 0.4952(6) 0.3999(3) 0.7772(2)
H14 H 0.5629 0.3396 0.7939
H15 H 0.4738 0.4389 0.8260
H16 H 0.5670 0.4391 0.7411
loop_
_geom_bond_atom_site_label_1
_geom_bond_atom_site_label_2
_geom_bond_site_symmetry_1
_geom_bond_site_symmetry_2
O1 C11 1_555 1_555
O2 C9 1_555 1_555
O3 C8 1_555 1_555
O4 C7 1_555 1_555
O5 H1 1_555 1_555
O6 C5 1_555 1_555
O7 C3 1_555 1_555
C1 H2 1_555 1_555
C2 C1 1_555 1_555
H3 C2 1_555 1_555
C3 C2 1_555 1_555
C4 C3 1_555 1_555
H4 C4 1_555 1_555
C5 C10 1_555 1_555
C6 O5 1_555 1_555
C7 C6 1_555 1_555
C8 C7 1_555 1_555
C9 C8 1_555 1_555
C10 C4 1_555 1_555
C11 C1 1_555 1_555
C12 C5 1_555 1_555
C13 O1 1_555 1_555
C14 O7 1_555 1_555
H5 C14 1_555 1_555
H6 C14 1_555 1_555
H7 C14 1_555 1_555
C15 O3 1_555 1_555
H8 C15 1_555 1_555
H9 C15 1_555 1_555
H10 C15 1_555 1_555
C16 O4 1_555 1_555
H11 C16 1_555 1_555
H12 C16 1_555 1_555
H13 C16 1_555 1_555
C17 O2 1_555 1_555
H14 C17 1_555 1_555
H15 C17 1_555 1_555
H16 C17 1_555 1_555
C6 C12 1_555 1_555
C9 C13 1_555 1_555
C10 C11 1_555 1_555
C12 C13 1_555 1_555

#END
