
#######################################################################
#
#                 Cambridge Crystallographic Data Centre
#                                CCDC 
#
#######################################################################
#
# If this CIF has been generated from an entry in the Cambridge 
# Structural Database, then it will include bibliographic, chemical, 
# crystal, experimental, refinement or atomic coordinate data resulting 
# from the CCDC's data processing and validation procedures.
#
#######################################################################

data_ATUYIX
_chemical_formula_moiety         'C15 Cl8 O1'
_chemical_name_systematic        
1,2,3,5,6,7,8,9-Octachlorocyclopenta(def)phenanthren-4-one
_symmetry_cell_setting           orthorhombic
_symmetry_space_group_name_H-M   'C m c a'
_symmetry_Int_Tables_number      64
_space_group_name_Hall           '-C 2ac 2'
loop_
_symmetry_equiv_pos_site_id
_symmetry_equiv_pos_as_xyz
1 x,y,z
2 1/2+x,1/2+y,z
3 x,1/2+y,1/2-z
4 x,1/2-y,1/2+z
5 -x,y,z
6 1/2+x,y,1/2-z
7 1/2+x,-y,1/2+z
8 1/2-x,1/2+y,z
9 -x,-y,-z
10 1/2-x,1/2-y,-z
11 -x,1/2-y,1/2+z
12 -x,1/2+y,1/2-z
13 x,-y,-z
14 1/2-x,-y,1/2+z
15 1/2-x,y,1/2-z
16 1/2+x,1/2-y,-z
_cell_length_a                   22.979(5)
_cell_length_b                   8.7180(17)
_cell_length_c                   15.697(3)
_cell_angle_alpha                90
_cell_angle_beta                 90
_cell_angle_gamma                90
_cell_volume                     3144.59
_exptl_crystal_colour            yellow
_exptl_crystal_description       prism
_cell_formula_units_Z            8
_exptl_crystal_recrystallization_method toluene/cyclohexane
loop_
_atom_site_label
_atom_site_type_symbol
_atom_site_fract_x
_atom_site_fract_y
_atom_site_fract_z
Cl1 Cl 0.43537(5) 0.11507(13) 0.40342(7)
Cl2 Cl 0.36045(5) 0.61323(15) 0.75240(9)
Cl3 Cl 0.27914(5) 0.42763(17) 0.63532(9)
Cl4 Cl 0.32524(5) 0.21792(16) 0.49757(9)
C1 C 0.46970(16) 0.2195(4) 0.4813(2)
C2 C 0.38952(18) 0.5000(5) 0.6740(2)
C3 C 0.35317(17) 0.4146(5) 0.6191(3)
C4 C 0.37460(18) 0.3197(4) 0.5559(3)
C5 C 0.43605(17) 0.3064(4) 0.5427(2)
C6 C 0.46890(17) 0.3929(4) 0.5985(2)
C7 C 0.44829(17) 0.4884(5) 0.6634(2)
C8 C 0.5000 0.5560(7) 0.7077(4)
O1 O 0.5000 0.6456(5) 0.7663(3)
C1D C 0.53030(16) 0.2195(4) 0.4813(2)
Cl1D Cl 0.56463(5) 0.11507(13) 0.40342(7)
C5D C 0.56395(17) 0.3064(4) 0.5427(2)
C4D C 0.62540(18) 0.3197(4) 0.5559(3)
Cl4D Cl 0.67476(5) 0.21792(16) 0.49757(9)
C3D C 0.64683(17) 0.4146(5) 0.6191(3)
Cl3D Cl 0.72086(5) 0.42763(17) 0.63532(9)
C2D C 0.61048(18) 0.5000(5) 0.6740(2)
Cl2D Cl 0.63955(5) 0.61323(15) 0.75240(9)
C7D C 0.55171(17) 0.4884(5) 0.6634(2)
C6D C 0.53110(17) 0.3929(4) 0.5985(2)
loop_
_geom_bond_atom_site_label_1
_geom_bond_atom_site_label_2
_geom_bond_site_symmetry_1
_geom_bond_site_symmetry_2
Cl1 C1 1_555 1_555
Cl2 C2 1_555 1_555
Cl3 C3 1_555 1_555
Cl4 C4 1_555 1_555
C1 C5 1_555 1_555
C2 C3 1_555 1_555
C3 C4 1_555 1_555
C4 C5 1_555 1_555
C5 C6 1_555 1_555
C6 C7 1_555 1_555
C7 C2 1_555 1_555
C8 C7 1_555 1_555
O1 C8 1_555 1_555
C1D C1 1_555 1_555
Cl1D C1D 1_555 1_555
C5D C1D 1_555 1_555
C4D C5D 1_555 1_555
Cl4D C4D 1_555 1_555
C3D C4D 1_555 1_555
Cl3D C3D 1_555 1_555
C2D C3D 1_555 1_555
Cl2D C2D 1_555 1_555
C7D C8 1_555 1_555
C6D C6 1_555 1_555
C5D C6D 1_555 1_555
C2D C7D 1_555 1_555
C7D C6D 1_555 1_555

#END
