
#######################################################################
#
#                 Cambridge Crystallographic Data Centre
#                                CCDC 
#
#######################################################################
#
# If this CIF has been generated from an entry in the Cambridge 
# Structural Database, then it will include bibliographic, chemical, 
# crystal, experimental, refinement or atomic coordinate data resulting 
# from the CCDC's data processing and validation procedures.
#
#######################################################################

data_ATYREE03
_chemical_formula_moiety         'C13 H17 N1 O4,H2 O1'
_chemical_name_systematic        'N-Acetyl-L-tyrosine ethyl ester monohydrate'
_symmetry_cell_setting           orthorhombic
_symmetry_space_group_name_H-M   'P 21 21 21'
_symmetry_Int_Tables_number      19
_space_group_name_Hall           'P 2ac 2ab'
loop_
_symmetry_equiv_pos_site_id
_symmetry_equiv_pos_as_xyz
1 x,y,z
2 1/2-x,-y,1/2+z
3 -x,1/2+y,1/2-z
4 1/2+x,1/2-y,-z
_cell_length_a                   7.3827(2)
_cell_length_b                   13.1421(4)
_cell_length_c                   14.5150(4)
_cell_angle_alpha                90
_cell_angle_beta                 90
_cell_angle_gamma                90
_cell_volume                     1408.31
_exptl_crystal_colour            colorless
_exptl_crystal_description       prism
_cell_formula_units_Z            4
loop_
_atom_site_label
_atom_site_type_symbol
_atom_site_fract_x
_atom_site_fract_y
_atom_site_fract_z
O1 O 0.2154(3) 0.20331(10) 0.42472(10)
O2 O 0.5662(2) 0.03510(13) 0.38004(10)
O3 O 0.1893(2) 0.12768(9) 0.56078(9)
O4 O -0.0282(2) -0.44010(11) 0.32293(11)
H1 H 0.0218(38) -0.4798(21) 0.3613(18)
N1 N 0.2735(2) 0.01902(12) 0.33857(10)
H2 H 0.1925(33) 0.0227(18) 0.2935(16)
C1 C 0.2063(2) 0.01927(13) 0.43251(11)
H3 H 0.2871(25) -0.0193(14) 0.4701(12)
C2 C 0.4507(3) 0.03053(15) 0.31956(13)
C3 C 0.2049(3) 0.12727(13) 0.47049(12)
C4 C 0.0064(3) -0.13737(13) 0.40918(12)
C5 C 0.0981(3) -0.21311(15) 0.45619(14)
H4 H 0.1756(35) -0.1962(19) 0.5062(17)
C6 C 0.1894(5) 0.2273(2) 0.6058(2)
H5 H 0.1000(39) 0.2682(22) 0.5733(19)
H6 H 0.3107(36) 0.2426(19) 0.6403(18)
C7 C 0.0156(3) -0.02671(14) 0.43830(14)
H7 H -0.0225(32) -0.0167(17) 0.5058(15)
H8 H -0.0722(31) 0.0137(17) 0.4001(14)
C8 C 0.4987(4) 0.0390(3) 0.2190(2)
H9 H 0.5879(58) -0.0040(32) 0.2074(26)
H10 H 0.5025(64) 0.1076(36) 0.2055(29)
H11 H 0.3968(52) 0.0159(29) 0.1769(25)
C9 C -0.0153(3) -0.34118(13) 0.35436(12)
C10 C -0.1098(3) -0.2670(2) 0.3069(2)
H12 H -0.1746(34) -0.2823(18) 0.2529(17)
C11 C 0.0886(3) -0.31474(15) 0.42960(14)
H13 H 0.1521(32) -0.3627(19) 0.4637(17)
C12 C -0.0986(3) -0.1663(2) 0.3347(2)
H14 H -0.1604(31) -0.1110(19) 0.3009(15)
C13 C 0.1647(9) 0.2127(3) 0.7049(2)
H15 H 0.1911(52) 0.2845(30) 0.7354(25)
H16 H 0.2071(56) 0.1567(34) 0.7317(26)
H17 H 0.020(18) 0.2074(81) 0.6638(68)
O5 O 0.1445(2) 0.42672(13) 0.43466(12)
H18 H 0.1135(47) 0.4364(25) 0.4988(25)
H19 H 0.1511(49) 0.3688(30) 0.4272(26)
loop_
_geom_bond_atom_site_label_1
_geom_bond_atom_site_label_2
_geom_bond_site_symmetry_1
_geom_bond_site_symmetry_2
O1 C3 1_555 1_555
O2 C2 1_555 1_555
O3 C3 1_555 1_555
O4 H1 1_555 1_555
N1 H2 1_555 1_555
C1 N1 1_555 1_555
H3 C1 1_555 1_555
C2 N1 1_555 1_555
C3 C1 1_555 1_555
C4 C5 1_555 1_555
C5 H4 1_555 1_555
C6 O3 1_555 1_555
H5 C6 1_555 1_555
H6 C6 1_555 1_555
C7 C1 1_555 1_555
H7 C7 1_555 1_555
H8 C7 1_555 1_555
C8 C2 1_555 1_555
H9 C8 1_555 1_555
H10 C8 1_555 1_555
H11 C8 1_555 1_555
C9 O4 1_555 1_555
C10 C9 1_555 1_555
H12 C10 1_555 1_555
C11 C5 1_555 1_555
H13 C11 1_555 1_555
C12 C4 1_555 1_555
H14 C12 1_555 1_555
C13 C6 1_555 1_555
H15 C13 1_555 1_555
H16 C13 1_555 1_555
H17 C13 1_555 1_555
O5 H18 1_555 1_555
H19 O5 1_555 1_555
C4 C7 1_555 1_555
C9 C11 1_555 1_555
C10 C12 1_555 1_555

#END
