
#######################################################################
#
#                 Cambridge Crystallographic Data Centre
#                                CCDC 
#
#######################################################################
#
# If this CIF has been generated from an entry in the Cambridge 
# Structural Database, then it will include bibliographic, chemical, 
# crystal, experimental, refinement or atomic coordinate data resulting 
# from the CCDC's data processing and validation procedures.
#
#######################################################################

data_AVAFOU
_chemical_formula_moiety         'C18 H28 O1'
_chemical_name_systematic        2-phenylcyclododecanol
_symmetry_cell_setting           monoclinic
_symmetry_space_group_name_H-M   'P 21/n'
_symmetry_Int_Tables_number      14
_space_group_name_Hall           '-P 2yn'
loop_
_symmetry_equiv_pos_site_id
_symmetry_equiv_pos_as_xyz
1 x,y,z
2 1/2-x,1/2+y,1/2-z
3 -x,-y,-z
4 1/2+x,1/2-y,1/2+z
_cell_length_a                   15.1813(8)
_cell_length_b                   5.9357(7)
_cell_length_c                   16.762(4)
_cell_angle_alpha                90
_cell_angle_beta                 91.058(12)
_cell_angle_gamma                90
_cell_volume                     1510.19
_cell_formula_units_Z            4
loop_
_atom_site_label
_atom_site_type_symbol
_atom_site_fract_x
_atom_site_fract_y
_atom_site_fract_z
C1 C 0.41925(10) 0.1851(3) 0.13856(9)
H1 H 0.4284 0.0206 0.1485
C2 C 0.57591(11) -0.2892(3) 0.31132(10)
H2 H 0.6026 -0.4379 0.3232
H3 H 0.5365 -0.3076 0.2641
C3 C 0.58848(11) 0.1997(3) 0.14860(12)
H4 H 0.6394 0.2847 0.1281
H5 H 0.5828 0.2384 0.2057
C4 C 0.52018(12) -0.2186(3) 0.38243(10)
H6 H 0.4822 -0.3467 0.3975
H7 H 0.5600 -0.1856 0.4284
C5 C 0.39947(12) 0.2960(3) 0.21968(10)
H8 H 0.4561 0.3270 0.2479
H9 H 0.3702 0.4426 0.2096
C6 C 0.20702(11) 0.0497(3) 0.02292(10)
H10 H 0.1678 -0.0741 0.0170
C7 C 0.67772(11) -0.1365(3) 0.20284(9)
H11 H 0.7320 -0.0461 0.1970
H12 H 0.6924 -0.2947 0.1899
C8 C 0.28206(11) 0.0296(3) 0.07126(9)
H13 H 0.2939 -0.1097 0.0972
C9 C 0.34004(10) 0.2083(3) 0.08247(9)
C10 C 0.38525(11) -0.0563(3) 0.30790(10)
H14 H 0.4071 -0.1469 0.2628
H15 H 0.3402 -0.1472 0.3352
C11 C 0.46189(11) -0.0126(3) 0.36642(10)
H16 H 0.4378 0.0400 0.4177
H17 H 0.4988 0.1100 0.3450
C12 C 0.34149(11) 0.1565(3) 0.27461(10)
H18 H 0.3236 0.2523 0.3198
H19 H 0.2873 0.1126 0.2447
C13 C 0.60852(11) -0.0521(3) 0.14216(10)
H20 H 0.6294 -0.0843 0.0877
H21 H 0.5533 -0.1375 0.1496
O1 O 0.51363(9) 0.2279(3) 0.02113(8)
H22 H 0.4633 0.2176 -0.0003
C14 C 0.24706(11) 0.4295(3) -0.00636(10)
H23 H 0.2356 0.5675 -0.0333
C15 C 0.32112(11) 0.4099(3) 0.04262(10)
H24 H 0.3596 0.5351 0.0492
C16 C 0.18949(11) 0.2498(3) -0.01644(10)
H25 H 0.1387 0.2641 -0.0500
C17 C 0.64925(11) -0.1251(3) 0.29020(9)
H26 H 0.7012 -0.1562 0.3251
H27 H 0.6292 0.0300 0.3017
C18 C 0.50526(11) 0.2787(3) 0.10390(11)
H28 H 0.5029 0.4465 0.1089
loop_
_geom_bond_atom_site_label_1
_geom_bond_atom_site_label_2
_geom_bond_site_symmetry_1
_geom_bond_site_symmetry_2
C1 H1 1_555 1_555
C2 H2 1_555 1_555
H3 C2 1_555 1_555
C3 H4 1_555 1_555
H5 C3 1_555 1_555
C4 C2 1_555 1_555
H6 C4 1_555 1_555
H7 C4 1_555 1_555
C5 C1 1_555 1_555
H8 C5 1_555 1_555
H9 C5 1_555 1_555
C6 H10 1_555 1_555
C7 H11 1_555 1_555
H12 C7 1_555 1_555
C8 C6 1_555 1_555
H13 C8 1_555 1_555
C9 C1 1_555 1_555
C10 H14 1_555 1_555
H15 C10 1_555 1_555
C11 C4 1_555 1_555
H16 C11 1_555 1_555
H17 C11 1_555 1_555
C12 C5 1_555 1_555
H18 C12 1_555 1_555
H19 C12 1_555 1_555
C13 C3 1_555 1_555
H20 C13 1_555 1_555
H21 C13 1_555 1_555
O1 H22 1_555 1_555
C14 H23 1_555 1_555
C15 C9 1_555 1_555
H24 C15 1_555 1_555
C16 C6 1_555 1_555
H25 C16 1_555 1_555
C17 C2 1_555 1_555
H26 C17 1_555 1_555
H27 C17 1_555 1_555
C18 C1 1_555 1_555
H28 C18 1_555 1_555
C3 C18 1_555 1_555
C7 C13 1_555 1_555
C7 C17 1_555 1_555
C8 C9 1_555 1_555
C10 C11 1_555 1_555
C10 C12 1_555 1_555
O1 C18 1_555 1_555
C14 C15 1_555 1_555
C14 C16 1_555 1_555

#END
