
#######################################################################
#
#                 Cambridge Crystallographic Data Centre
#                                CCDC 
#
#######################################################################
#
# If this CIF has been generated from an entry in the Cambridge 
# Structural Database, then it will include bibliographic, chemical, 
# crystal, experimental, refinement or atomic coordinate data resulting 
# from the CCDC's data processing and validation procedures.
#
#######################################################################

data_AVAGIN
_chemical_formula_moiety         'C31 H46 O5 S2'
_chemical_name_systematic        
'S-t-Butyl (2R)-((1R,2R)-3-oxo-2-(3-oxo-4-(phenylthio)butyl)cyclopentyl)-4-((4S)-2,2,5,5-tetramethyl-1,3-dioxolan-4-yl)butanethioate'
_symmetry_cell_setting           monoclinic
_symmetry_space_group_name_H-M   'P 21'
_symmetry_Int_Tables_number      4
_space_group_name_Hall           'P 2yb'
loop_
_symmetry_equiv_pos_site_id
_symmetry_equiv_pos_as_xyz
1 x,y,z
2 -x,1/2+y,-z
_cell_length_a                   11.535(2)
_cell_length_b                   6.3530(10)
_cell_length_c                   22.036(4)
_cell_angle_alpha                90
_cell_angle_beta                 96.790(10)
_cell_angle_gamma                90
_cell_volume                     1603.51
_exptl_crystal_colour            colorless
_exptl_crystal_description       plate
_chemical_melting_point          '103 deg.C'
_cell_formula_units_Z            2
_exptl_crystal_recrystallization_method methanol
loop_
_atom_site_label
_atom_site_type_symbol
_atom_site_fract_x
_atom_site_fract_y
_atom_site_fract_z
C1 C 0.4899(5) 0.8091(13) 0.2199(3)
H1 H 0.5131(5) 0.9371(13) 0.2379(3)
C2 C 0.4358(6) 0.6636(14) 0.2525(3)
H2 H 0.4223(6) 0.6934(14) 0.2923(3)
C3 C 0.4013(5) 0.4742(14) 0.2268(3)
H3 H 0.3643(5) 0.3757(14) 0.2491(3)
C4 C 0.4215(4) 0.4308(13) 0.1683(3)
H4 H 0.3978(4) 0.3020(13) 0.1510(3)
C5 C 0.4761(4) 0.5738(11) 0.1344(3)
H5 H 0.4896(4) 0.5411(11) 0.0947(3)
C6 C 0.5109(4) 0.7675(10) 0.1597(3)
S1 S 0.57963(13) 0.9715(3) 0.12297(9)
C7 C 0.6103(5) 0.8664(15) 0.0511(3)
H6 H 0.5382(5) 0.8156(15) 0.0288(3)
H7 H 0.6399(5) 0.9783(15) 0.0273(3)
C8 C 0.6989(4) 0.6869(12) 0.0578(2)
O1 O 0.6710(3) 0.5085(9) 0.0429(2)
C9 C 0.8220(4) 0.7481(10) 0.0822(2)
H8 H 0.8196(4) 0.8396(10) 0.1173(2)
H9 H 0.8562(4) 0.8271(10) 0.0511(2)
C10 C 0.8991(3) 0.5605(8) 0.1010(2)
H10 H 0.8866(3) 0.4547(8) 0.0692(2)
H11 H 0.8744(3) 0.5006(8) 0.1379(2)
C11 C 1.0300(3) 0.6070(7) 0.1128(2)
C12 C 1.0793(3) 0.6750(8) 0.0543(2)
C13 C 1.1727(4) 0.8374(9) 0.0690(2)
H12 H 1.1489(4) 0.9713(9) 0.0504(2)
H13 H 1.2448(4) 0.7934(9) 0.0542(2)
C14 C 1.1888(3) 0.8557(8) 0.1382(2)
H14 H 1.2064(3) 0.9997(8) 0.1507(2)
H15 H 1.2517(3) 0.7653(8) 0.1559(2)
C15 C 1.0715(3) 0.7854(7) 0.1582(2)
H16 H 1.0166(3) 0.9028(7) 0.1505(2)
C16 C 1.0912(4) 0.3946(7) 0.1304(2)
H17 H 1.1740(4) 0.4164(7) 0.1382(2)
H18 H 1.0747(4) 0.2963(7) 0.0974(2)
H19 H 1.0628(4) 0.3397(7) 0.1664(2)
O2 O 1.0487(3) 0.6034(6) 0.00414(13)
C17 C 1.0813(3) 0.7341(7) 0.2269(2)
H20 H 1.1305(3) 0.6091(7) 0.2347(2)
C18 C 0.9623(4) 0.6872(8) 0.2460(2)
C19 C 1.1366(4) 0.9164(8) 0.2660(2)
H21 H 1.2147(4) 0.9405(8) 0.2554(2)
H22 H 1.0915(4) 1.0431(8) 0.2559(2)
C20 C 1.1441(4) 0.8808(8) 0.3348(2)
H23 H 1.0665(4) 0.8912(8) 0.3473(2)
H24 H 1.1729(4) 0.7397(8) 0.3442(2)
C21 C 1.2234(4) 1.0377(8) 0.3708(2)
H25 H 1.2009(4) 1.1799(8) 0.3567(2)
C22 C 1.2286(5) 1.0310(9) 0.4410(2)
C23 C 1.2189(6) 0.8100(12) 0.4661(2)
H26 H 1.2749(6) 0.7202(12) 0.4500(2)
H27 H 1.1417(6) 0.7567(12) 0.4543(2)
H28 H 1.2341(6) 0.8133(12) 0.5099(2)
C24 C 1.1425(6) 1.1800(14) 0.4649(3)
H29 H 1.1512(6) 1.3177(14) 0.4481(3)
H30 H 1.1570(6) 1.1867(14) 0.5087(3)
H31 H 1.0645(6) 1.1303(14) 0.4531(3)
O3 O 1.3444(3) 1.1090(8) 0.45907(13)
C25 C 1.4130(5) 1.0961(9) 0.4099(2)
C26 C 1.5182(5) 0.9584(14) 0.4254(3)
H32 H 1.5625(5) 0.9532(14) 0.3912(3)
H33 H 1.4935(5) 0.8189(14) 0.4346(3)
H34 H 1.5658(5) 1.0150(14) 0.4602(3)
C27 C 1.4465(6) 1.3189(12) 0.3937(3)
H35 H 1.4931(6) 1.3145(12) 0.3604(3)
H36 H 1.4904(6) 1.3834(12) 0.4285(3)
H37 H 1.3771(6) 1.3995(12) 0.3819(3)
O4 O 1.3398(3) 1.0017(6) 0.36056(13)
O5 O 0.8797(3) 0.8046(6) 0.23601(14)
S2 S 0.96006(9) 0.4461(2) 0.28677(5)
C28 C 0.8101(4) 0.4064(9) 0.3060(2)
C29 C 0.7289(4) 0.3761(12) 0.2467(2)
H38 H 0.7248(4) 0.5045(12) 0.2236(2)
H39 H 0.6523(4) 0.3392(12) 0.2561(2)
H40 H 0.7585(4) 0.2655(12) 0.2231(2)
C30 C 0.8182(6) 0.2069(11) 0.3435(3)
H41 H 0.8437(6) 0.0934(11) 0.3195(3)
H42 H 0.7429(6) 0.1740(11) 0.3554(3)
H43 H 0.8732(6) 0.2265(11) 0.3793(3)
C31 C 0.7698(6) 0.5910(11) 0.3423(3)
H44 H 0.7654(6) 0.7154(11) 0.3174(3)
H45 H 0.8244(6) 0.6132(11) 0.3781(3)
H46 H 0.6942(6) 0.5607(11) 0.3542(3)
loop_
_geom_bond_atom_site_label_1
_geom_bond_atom_site_label_2
_geom_bond_site_symmetry_1
_geom_bond_site_symmetry_2
C1 H1 1_555 1_555
C2 C1 1_555 1_555
H2 C2 1_555 1_555
C3 C2 1_555 1_555
H3 C3 1_555 1_555
C4 C3 1_555 1_555
H4 C4 1_555 1_555
C5 C4 1_555 1_555
H5 C5 1_555 1_555
C6 C1 1_555 1_555
S1 C6 1_555 1_555
C7 S1 1_555 1_555
H6 C7 1_555 1_555
H7 C7 1_555 1_555
C8 C7 1_555 1_555
O1 C8 1_555 1_555
C9 C8 1_555 1_555
H8 C9 1_555 1_555
H9 C9 1_555 1_555
C10 C9 1_555 1_555
H10 C10 1_555 1_555
H11 C10 1_555 1_555
C11 C10 1_555 1_555
C12 C11 1_555 1_555
C13 C12 1_555 1_555
H12 C13 1_555 1_555
H13 C13 1_555 1_555
C14 C13 1_555 1_555
H14 C14 1_555 1_555
H15 C14 1_555 1_555
C15 C11 1_555 1_555
H16 C15 1_555 1_555
C16 C11 1_555 1_555
H17 C16 1_555 1_555
H18 C16 1_555 1_555
H19 C16 1_555 1_555
O2 C12 1_555 1_555
C17 C15 1_555 1_555
H20 C17 1_555 1_555
C18 C17 1_555 1_555
C19 C17 1_555 1_555
H21 C19 1_555 1_555
H22 C19 1_555 1_555
C20 C19 1_555 1_555
H23 C20 1_555 1_555
H24 C20 1_555 1_555
C21 C20 1_555 1_555
H25 C21 1_555 1_555
C22 C21 1_555 1_555
C23 C22 1_555 1_555
H26 C23 1_555 1_555
H27 C23 1_555 1_555
H28 C23 1_555 1_555
C24 C22 1_555 1_555
H29 C24 1_555 1_555
H30 C24 1_555 1_555
H31 C24 1_555 1_555
O3 C22 1_555 1_555
C25 O3 1_555 1_555
C26 C25 1_555 1_555
H32 C26 1_555 1_555
H33 C26 1_555 1_555
H34 C26 1_555 1_555
C27 C25 1_555 1_555
H35 C27 1_555 1_555
H36 C27 1_555 1_555
H37 C27 1_555 1_555
O4 C21 1_555 1_555
O5 C18 1_555 1_555
S2 C18 1_555 1_555
C28 S2 1_555 1_555
C29 C28 1_555 1_555
H38 C29 1_555 1_555
H39 C29 1_555 1_555
H40 C29 1_555 1_555
C30 C28 1_555 1_555
H41 C30 1_555 1_555
H42 C30 1_555 1_555
H43 C30 1_555 1_555
C31 C28 1_555 1_555
H44 C31 1_555 1_555
H45 C31 1_555 1_555
H46 C31 1_555 1_555
C5 C6 1_555 1_555
C14 C15 1_555 1_555
C25 O4 1_555 1_555

#END
