
#######################################################################
#
#                 Cambridge Crystallographic Data Centre
#                                CCDC 
#
#######################################################################
#
# If this CIF has been generated from an entry in the Cambridge 
# Structural Database, then it will include bibliographic, chemical, 
# crystal, experimental, refinement or atomic coordinate data resulting 
# from the CCDC's data processing and validation procedures.
#
#######################################################################

data_AVAHIP
_chemical_formula_moiety         'C18 H23 N1 O2 S1'
_chemical_name_systematic        
'(1S,2R,3S)-t-Butyl 1-cyano-2-phenyl-3-(propylsulfanyl)cyclopropanecarboxylate'
_symmetry_cell_setting           orthorhombic
_symmetry_space_group_name_H-M   'P 21 21 21'
_symmetry_Int_Tables_number      19
_space_group_name_Hall           'P 2ac 2ab'
loop_
_symmetry_equiv_pos_site_id
_symmetry_equiv_pos_as_xyz
1 x,y,z
2 1/2-x,-y,1/2+z
3 1/2+x,1/2-y,-z
4 -x,1/2+y,1/2-z
_cell_length_a                   5.5837(2)
_cell_length_b                   11.9770(4)
_cell_length_c                   26.7431(9)
_cell_angle_alpha                90
_cell_angle_beta                 90
_cell_angle_gamma                90
_cell_volume                     1788.47
_exptl_crystal_colour            colorless
_exptl_crystal_description       plate
_cell_formula_units_Z            4
loop_
_atom_site_label
_atom_site_type_symbol
_atom_site_fract_x
_atom_site_fract_y
_atom_site_fract_z
S1 S 0.68710(10) 0.83653(4) 0.033485(16)
O1 O 0.5447(7) 0.6967(4) 0.21153(14)
O2 O 0.302(3) 0.6256(10) 0.1518(3)
C1 C 0.4816(10) 0.6734(5) 0.1650(2)
C2 C 0.4048(8) 0.6563(4) 0.25561(14)
C3 C 0.4165(13) 0.5315(6) 0.2573(3)
H1 H 0.3402 0.5006 0.2273
H2 H 0.3326 0.5045 0.2871
H3 H 0.5843 0.5077 0.2585
C4 C 0.1527(10) 0.7021(6) 0.2538(2)
H4 H 0.1579 0.7820 0.2458
H5 H 0.0758 0.6916 0.2864
H6 H 0.0610 0.6626 0.2281
C5 C 0.5438(9) 0.7079(5) 0.29854(16)
H7 H 0.7094 0.6809 0.2978
H8 H 0.4692 0.6866 0.3303
H9 H 0.5425 0.7894 0.2952
C6 C 0.880(2) 0.4450(10) 0.1144(3)
H10 H 1.0006 0.4777 0.1346
C7 C 0.8510(12) 0.3297(5) 0.1150(3)
H11 H 0.9517 0.2854 0.1357
C8 C 0.679(2) 0.2791(9) 0.0862(3)
H12 H 0.6578 0.2004 0.0865
C9 C 0.535(2) 0.3477(14) 0.0564(6)
H13 H 0.4154 0.3148 0.0359
C10 C 0.5636(19) 0.4620(11) 0.0559(4)
H14 H 0.4635 0.5070 0.0354
C11 C 0.7407(12) 0.5121(5) 0.0859(2)
C12 C 0.7658(4) 0.63743(15) 0.08607(7)
H15 H 0.9326 0.6609 0.0774
N1 N 0.9349(5) 0.86375(17) 0.16472(7)
C13 C 0.5883(4) 0.72362(17) 0.07131(7)
H16 H 0.4261 0.6940 0.0627
C14 C 0.6556(4) 0.71418(16) 0.12677(7)
C15 C 0.8128(5) 0.79656(17) 0.14811(7)
C16 C 0.4292(4) 0.92920(18) 0.03863(9)
H17 H 0.4507 0.9916 0.0148
H18 H 0.2846 0.8874 0.0282
C17 C 0.3844(4) 0.97775(19) 0.09007(8)
H19 H 0.5299 1.0170 0.1018
H20 H 0.3487 0.9168 0.1139
C18 C 0.1749(5) 1.05911(18) 0.08841(9)
H21 H 0.2117 1.1200 0.0652
H22 H 0.1474 1.0898 0.1219
H23 H 0.0307 1.0199 0.0771
C19? C 0.4628(12) 0.6514(5) 0.1557(2)
C20? C 0.4002(9) 0.5702(5) 0.2388(2)
C21? C 0.880(2) 0.4423(11) 0.0956(3)
C22? C 0.4074(10) 0.4511(4) 0.22060(19)
C23? C 0.5435(12) 0.5846(5) 0.28635(18)
C24? C 0.1508(10) 0.6141(5) 0.24548(19)
C25? C 0.8466(12) 0.3280(5) 0.0879(3)
C26? C 0.637(2) 0.2916(10) 0.0678(4)
C27? C 0.456(2) 0.3620(14) 0.0553(6)
C28? C 0.4882(18) 0.4753(10) 0.0624(4)
C29? C 0.6942(13) 0.5175(5) 0.0823(2)
H24? H 1.0257 0.4694 0.1094
H25? H 0.5739 0.4291 0.2145
H26? H 0.3155 0.4447 0.1895
H27? H 0.3374 0.4020 0.2460
H28? H 0.4744 0.5380 0.3128
H29? H 0.5391 0.6631 0.2967
H30? H 0.7098 0.5621 0.2804
H31? H 0.0586 0.6013 0.2148
H32? H 0.1571 0.6943 0.2526
H33? H 0.0736 0.5753 0.2734
H34? H 0.9686 0.2763 0.0967
H35? H 0.6163 0.2139 0.0623
H36? H 0.3107 0.3339 0.0418
H37? H 0.3634 0.5251 0.0531
O3? O 0.5366(7) 0.6424(4) 0.20255(13)
O4? O 0.284(2) 0.6135(10) 0.1374(3)
loop_
_geom_bond_atom_site_label_1
_geom_bond_atom_site_label_2
_geom_bond_site_symmetry_1
_geom_bond_site_symmetry_2
S1 C13 1_555 1_555
O1 C1 1_555 1_555
O2 C1 1_555 1_555
C1 C14 1_555 1_555
C2 O1 1_555 1_555
C3 C2 1_555 1_555
H1 C3 1_555 1_555
H2 C3 1_555 1_555
H3 C3 1_555 1_555
C4 C2 1_555 1_555
H4 C4 1_555 1_555
H5 C4 1_555 1_555
H6 C4 1_555 1_555
C5 C2 1_555 1_555
H7 C5 1_555 1_555
H8 C5 1_555 1_555
H9 C5 1_555 1_555
C6 H10 1_555 1_555
C7 C6 1_555 1_555
H11 C7 1_555 1_555
C8 C7 1_555 1_555
H12 C8 1_555 1_555
C9 C8 1_555 1_555
H13 C9 1_555 1_555
C10 C9 1_555 1_555
H14 C10 1_555 1_555
C11 C6 1_555 1_555
C12 C11 1_555 1_555
H15 C12 1_555 1_555
N1 C15 1_555 1_555
C13 C12 1_555 1_555
H16 C13 1_555 1_555
C14 C12 1_555 1_555
C15 C14 1_555 1_555
C16 S1 1_555 1_555
H17 C16 1_555 1_555
H18 C16 1_555 1_555
C17 C16 1_555 1_555
H19 C17 1_555 1_555
H20 C17 1_555 1_555
C18 C17 1_555 1_555
H21 C18 1_555 1_555
H22 C18 1_555 1_555
H23 C18 1_555 1_555
C10 C11 1_555 1_555
C13 C14 1_555 1_555

#END
