
#######################################################################
#
#                 Cambridge Crystallographic Data Centre
#                                CCDC 
#
#######################################################################
#
# If this CIF has been generated from an entry in the Cambridge 
# Structural Database, then it will include bibliographic, chemical, 
# crystal, experimental, refinement or atomic coordinate data resulting 
# from the CCDC's data processing and validation procedures.
#
#######################################################################

data_AVAHEL
_chemical_formula_moiety         'C15 H14 Br1 N1 O2'
_chemical_name_systematic        
'(R)-t-Butyl 2-(4-bromophenyl)-1-cyanocycloprop-2-ene-1-carboxylate'
_symmetry_cell_setting           orthorhombic
_symmetry_space_group_name_H-M   'P 21 21 21'
_symmetry_Int_Tables_number      19
_space_group_name_Hall           'P 2ac 2ab'
loop_
_symmetry_equiv_pos_site_id
_symmetry_equiv_pos_as_xyz
1 x,y,z
2 1/2+x,1/2-y,-z
3 -x,1/2+y,1/2-z
4 1/2-x,-y,1/2+z
_cell_length_a                   5.7660(1)
_cell_length_b                   13.9219(2)
_cell_length_c                   18.1101(2)
_cell_angle_alpha                90
_cell_angle_beta                 90
_cell_angle_gamma                90
_cell_volume                     1453.76
_exptl_crystal_colour            colorless
_exptl_crystal_description       block
_cell_formula_units_Z            4
loop_
_atom_site_label
_atom_site_type_symbol
_atom_site_fract_x
_atom_site_fract_y
_atom_site_fract_z
Br1 Br -0.26494(3) 0.161523(15) 0.806207(11)
O1 O 0.3268(2) 0.54762(9) 0.47261(7)
O2 O 0.1938(3) 0.39728(10) 0.44924(8)
N1 N 0.6924(3) 0.54935(12) 0.62220(9)
C1 C -0.0537(4) 0.21438(16) 0.73686(11)
C2 C -0.0916(4) 0.30555(15) 0.70974(11)
H1 H -0.2229 0.3414 0.7253
C3 C 0.0640(3) 0.34446(15) 0.65944(11)
H2 H 0.0417 0.4076 0.6409
C4 C 0.2540(4) 0.28962(12) 0.63627(9)
C5 C 0.4169(3) 0.32825(14) 0.58329(10)
C6 C 0.4725(3) 0.42190(13) 0.54388(10)
C7 C 0.3133(3) 0.45355(14) 0.48259(10)
C8 C 0.1840(4) 0.59760(14) 0.41544(12)
C9 C -0.0722(4) 0.58498(15) 0.43271(13)
H3 H -0.1154 0.5174 0.4263
H4 H -0.1643 0.6249 0.3992
H5 H -0.1021 0.6045 0.4838
C10 C 0.2888(4) 0.19750(13) 0.66417(11)
H6 H 0.4179 0.1606 0.6481
C11 C 0.1357(4) 0.15966(16) 0.71527(11)
H7 H 0.1598 0.0973 0.7352
C12 C 0.5893(4) 0.32404(13) 0.53864(10)
H8 H 0.7082 0.2860 0.5171
C13 C 0.5914(3) 0.49589(14) 0.58622(11)
C14 C 0.2582(4) 0.70144(13) 0.42598(13)
H9 H 0.2186 0.7224 0.4761
H10 H 0.1778 0.7421 0.3900
H11 H 0.4261 0.7068 0.4186
C15 C 0.2490(5) 0.56024(15) 0.33964(11)
H12 H 0.4178 0.5625 0.3338
H13 H 0.1758 0.6003 0.3017
H14 H 0.1953 0.4938 0.3344
loop_
_geom_bond_atom_site_label_1
_geom_bond_atom_site_label_2
_geom_bond_site_symmetry_1
_geom_bond_site_symmetry_2
Br1 C1 1_555 1_555
O1 C7 1_555 1_555
O2 C7 1_555 1_555
N1 C13 1_555 1_555
C1 C2 1_555 1_555
C2 H1 1_555 1_555
C3 C2 1_555 1_555
H2 C3 1_555 1_555
C4 C3 1_555 1_555
C5 C4 1_555 1_555
C6 C5 1_555 1_555
C7 C6 1_555 1_555
C8 O1 1_555 1_555
C9 C8 1_555 1_555
H3 C9 1_555 1_555
H4 C9 1_555 1_555
H5 C9 1_555 1_555
C10 C4 1_555 1_555
H6 C10 1_555 1_555
C11 C1 1_555 1_555
H7 C11 1_555 1_555
C12 C5 1_555 1_555
H8 C12 1_555 1_555
C13 C6 1_555 1_555
C14 C8 1_555 1_555
H9 C14 1_555 1_555
H10 C14 1_555 1_555
H11 C14 1_555 1_555
C15 C8 1_555 1_555
H12 C15 1_555 1_555
H13 C15 1_555 1_555
H14 C15 1_555 1_555
C6 C12 1_555 1_555
C10 C11 1_555 1_555

#END
