
#######################################################################
#
#                 Cambridge Crystallographic Data Centre
#                                CCDC 
#
#######################################################################
#
# If this CIF has been generated from an entry in the Cambridge 
# Structural Database, then it will include bibliographic, chemical, 
# crystal, experimental, refinement or atomic coordinate data resulting 
# from the CCDC's data processing and validation procedures.
#
#######################################################################

data_AVAJAK
_chemical_formula_moiety         'C21 H19 N3 O2'
_chemical_name_systematic        
2-(3-((4-methoxybenzyl)amino)imidazo[1,2-a]pyridin-2-yl)phenol
_chemical_properties_biological  'antiproliferative activity'
_symmetry_cell_setting           monoclinic
_symmetry_space_group_name_H-M   'P 21/c'
_symmetry_Int_Tables_number      14
_space_group_name_Hall           '-P 2ybc'
loop_
_symmetry_equiv_pos_site_id
_symmetry_equiv_pos_as_xyz
1 x,y,z
2 -x,1/2+y,1/2-z
3 -x,-y,-z
4 x,1/2-y,1/2+z
_cell_length_a                   13.1603(11)
_cell_length_b                   10.1196(9)
_cell_length_c                   13.2110(11)
_cell_angle_alpha                90
_cell_angle_beta                 98.113(2)
_cell_angle_gamma                90
_cell_volume                     1741.79
_exptl_crystal_colour            yellow
_exptl_crystal_description       prismatic
_chemical_melting_point          '119-122 deg.C'
_cell_formula_units_Z            4
_exptl_crystal_recrystallization_method 'ethyl acetate/petroleum ether'
loop_
_atom_site_label
_atom_site_type_symbol
_atom_site_fract_x
_atom_site_fract_y
_atom_site_fract_z
N1 N 0.38330(9) 1.11869(11) 1.09859(8)
N2 N 0.38315(8) 0.92920(11) 1.01389(8)
N3 N 0.29848(8) 0.97962(12) 0.84601(8)
O1 O 0.31881(10) 1.35035(11) 1.13930(7)
H1 H 0.3450 1.2772 1.1494
O2 O 0.03635(9) 0.65509(14) 0.48722(10)
C1 C 0.34052(9) 1.13877(13) 0.99832(9)
C2 C 0.33913(9) 1.02269(13) 0.94381(9)
C3 C 0.40805(9) 0.99156(14) 1.10694(10)
C4 C 0.45165(11) 0.91602(16) 1.19135(11)
H2 H 0.4693 0.9554 1.2550
C5 C 0.46755(11) 0.78529(17) 1.17879(12)
H3 H 0.4956 0.7343 1.2344
C6 C 0.44196(11) 0.72593(16) 1.08238(13)
H4 H 0.4540 0.6362 1.0747
C7 C 0.40025(11) 0.79730(15) 1.00109(12)
H5 H 0.3834 0.7577 0.9374
C8 C 0.30300(9) 1.27037(13) 0.96549(9)
C9 C 0.27612(11) 1.30327(15) 0.86261(10)
H6 H 0.2838 1.2401 0.8131
C10 C 0.23887(12) 1.42545(16) 0.83214(11)
H7 H 0.2227 1.4448 0.7629
C11 C 0.22545(11) 1.51940(15) 0.90434(11)
H8 H 0.1983 1.6016 0.8841
C12 C 0.25227(11) 1.49156(14) 1.00628(11)
H9 H 0.2434 1.5554 1.0549
C13 C 0.29239(11) 1.36950(13) 1.03732(9)
C14 C 0.18656(11) 0.96628(19) 0.82996(11)
H10 H 0.1560 1.0536 0.8228
H11 H 0.1650 0.9252 0.8898
C15 C 0.14725(10) 0.88584(15) 0.73744(10)
C16 C 0.19859(10) 0.77577(14) 0.70916(10)
H12 H 0.2607 0.7519 0.7473
C17 C 0.15991(11) 0.70109(15) 0.62615(11)
H13 H 0.1961 0.6278 0.6082
C18 C 0.06727(10) 0.73438(16) 0.56889(11)
C19 C 0.01466(11) 0.84349(17) 0.59559(12)
H14 H -0.0477 0.8670 0.5576
C20 C 0.05521(11) 0.91783(17) 0.67920(11)
H15 H 0.0194 0.9917 0.6968
C21 C -0.05880(15) 0.6805(3) 0.42732(15)
H16 H -0.1124 0.6764 0.4696
H17 H -0.0713 0.6155 0.3741
H18 H -0.0577 0.7668 0.3974
H19 H 0.3219(11) 1.0281(16) 0.7958(11)
loop_
_geom_bond_atom_site_label_1
_geom_bond_atom_site_label_2
_geom_bond_site_symmetry_1
_geom_bond_site_symmetry_2
N1 C1 1_555 1_555
N2 C2 1_555 1_555
N3 C2 1_555 1_555
O1 H1 1_555 1_555
O2 C18 1_555 1_555
C1 C2 1_555 1_555
C3 N1 1_555 1_555
C4 C3 1_555 1_555
H2 C4 1_555 1_555
C5 C4 1_555 1_555
H3 C5 1_555 1_555
C6 C5 1_555 1_555
H4 C6 1_555 1_555
C7 N2 1_555 1_555
H5 C7 1_555 1_555
C8 C1 1_555 1_555
C9 C8 1_555 1_555
H6 C9 1_555 1_555
C10 C9 1_555 1_555
H7 C10 1_555 1_555
C11 C10 1_555 1_555
H8 C11 1_555 1_555
C12 C11 1_555 1_555
H9 C12 1_555 1_555
C13 O1 1_555 1_555
C14 N3 1_555 1_555
H10 C14 1_555 1_555
H11 C14 1_555 1_555
C15 C14 1_555 1_555
C16 C15 1_555 1_555
H12 C16 1_555 1_555
C17 C16 1_555 1_555
H13 C17 1_555 1_555
C18 C17 1_555 1_555
C19 C18 1_555 1_555
H14 C19 1_555 1_555
C20 C15 1_555 1_555
H15 C20 1_555 1_555
C21 O2 1_555 1_555
H16 C21 1_555 1_555
H17 C21 1_555 1_555
H18 C21 1_555 1_555
H19 N3 1_555 1_555
N2 C3 1_555 1_555
C6 C7 1_555 1_555
C8 C13 1_555 1_555
C12 C13 1_555 1_555
C19 C20 1_555 1_555

#END
