
#######################################################################
#
#                 Cambridge Crystallographic Data Centre
#                                CCDC 
#
#######################################################################
#
# If this CIF has been generated from an entry in the Cambridge 
# Structural Database, then it will include bibliographic, chemical, 
# crystal, experimental, refinement or atomic coordinate data resulting 
# from the CCDC's data processing and validation procedures.
#
#######################################################################

data_AVAJEO
_chemical_formula_moiety         'C22 H20 N2 O2'
_chemical_name_systematic        
4-methyl-10-(4-methylphenyl)-2-phenyl-2,3-diazaspiro[4.5]deca-3,7-diene-1,6-dione
_chemical_properties_biological  'induce Apoptosis activity'
_symmetry_cell_setting           orthorhombic
_symmetry_space_group_name_H-M   'P 21 21 21'
_symmetry_Int_Tables_number      19
_space_group_name_Hall           'P 2ac 2ab'
loop_
_symmetry_equiv_pos_site_id
_symmetry_equiv_pos_as_xyz
1 x,y,z
2 1/2-x,-y,1/2+z
3 -x,1/2+y,1/2-z
4 1/2+x,1/2-y,-z
_cell_length_a                   8.409(19)
_cell_length_b                   14.28(3)
_cell_length_c                   15.40(3)
_cell_angle_alpha                90
_cell_angle_beta                 90
_cell_angle_gamma                90
_cell_volume                     1849.24
_exptl_crystal_colour            colorless
_exptl_crystal_description       prism
_cell_formula_units_Z            4
loop_
_atom_site_label
_atom_site_type_symbol
_atom_site_fract_x
_atom_site_fract_y
_atom_site_fract_z
N1 N 0.1535(6) 0.5145(4) 0.8448(3)
N2 N 0.0872(6) 0.4419(4) 0.7936(4)
O1 O 0.3984(5) 0.5853(4) 0.8657(3)
O2 O 0.4671(8) 0.3263(4) 0.8066(4)
C1 C 0.3105(8) 0.5304(5) 0.8276(4)
C2 C 0.3514(7) 0.4667(4) 0.7508(4)
C3 C 0.1970(8) 0.4144(5) 0.7414(4)
C4 C 0.4943(9) 0.4036(6) 0.7747(5)
C5 C 0.6513(10) 0.4394(7) 0.7594(5)
H1 H 0.7386 0.4050 0.7782
C6 C 0.6751(9) 0.5200(7) 0.7191(5)
H2 H 0.7793 0.5411 0.7140
C7 C 0.5449(7) 0.5803(5) 0.6808(5)
H3 H 0.5802 0.6056 0.6256
H4 H 0.5236 0.6325 0.7195
C8 C 0.3921(6) 0.5242(4) 0.6672(4)
H5 H 0.4147 0.4784 0.6214
C9 C 0.1683(12) 0.3356(5) 0.6787(5)
H6 H 0.0563 0.3228 0.6754
H7 H 0.2232 0.2805 0.6983
H8 H 0.2069 0.3529 0.6223
C10 C 0.0546(8) 0.5592(5) 0.9067(4)
C11 C 0.0935(9) 0.6449(5) 0.9401(5)
H9 H 0.1856 0.6748 0.9215
C12 C -0.0036(11) 0.6881(6) 1.0019(6)
H10 H 0.0249 0.7458 1.0252
C13 C -0.1413(10) 0.6450(7) 1.0281(6)
H11 H -0.2074 0.6743 1.0681
C14 C -0.1820(10) 0.5595(7) 0.9958(6)
H12 H -0.2755 0.5309 1.0141
C15 C -0.0849(8) 0.5147(6) 0.9360(5)
H13 H -0.1118 0.4557 0.9153
C16 C 0.2520(7) 0.5821(4) 0.6359(4)
C17 C 0.1660(8) 0.5531(5) 0.5636(4)
H14 H 0.1943 0.4978 0.5356
C18 C 0.0385(8) 0.6051(6) 0.5325(4)
H15 H -0.0144 0.5849 0.4829
C19 C -0.0118(8) 0.6860(5) 0.5734(5)
C20 C 0.0747(8) 0.7128(5) 0.6455(5)
H16 H 0.0440 0.7669 0.6745
C21 C 0.2040(8) 0.6638(4) 0.6768(4)
H17 H 0.2587 0.6855 0.7253
C22 C -0.1473(10) 0.7425(7) 0.5387(6)
H18 H -0.1099 0.8035 0.5224
H19 H -0.2277 0.7485 0.5827
H20 H -0.1915 0.7117 0.4889
loop_
_geom_bond_atom_site_label_1
_geom_bond_atom_site_label_2
_geom_bond_site_symmetry_1
_geom_bond_site_symmetry_2
N1 N2 1_555 1_555
N2 C3 1_555 1_555
O1 C1 1_555 1_555
O2 C4 1_555 1_555
C1 N1 1_555 1_555
C2 C1 1_555 1_555
C3 C2 1_555 1_555
C4 C2 1_555 1_555
C5 C4 1_555 1_555
H1 C5 1_555 1_555
C6 C5 1_555 1_555
H2 C6 1_555 1_555
C7 C6 1_555 1_555
H3 C7 1_555 1_555
H4 C7 1_555 1_555
C8 C2 1_555 1_555
H5 C8 1_555 1_555
C9 C3 1_555 1_555
H6 C9 1_555 1_555
H7 C9 1_555 1_555
H8 C9 1_555 1_555
C10 N1 1_555 1_555
C11 C10 1_555 1_555
H9 C11 1_555 1_555
C12 C11 1_555 1_555
H10 C12 1_555 1_555
C13 C12 1_555 1_555
H11 C13 1_555 1_555
C14 C13 1_555 1_555
H12 C14 1_555 1_555
C15 C10 1_555 1_555
H13 C15 1_555 1_555
C16 C8 1_555 1_555
C17 C16 1_555 1_555
H14 C17 1_555 1_555
C18 C17 1_555 1_555
H15 C18 1_555 1_555
C19 C18 1_555 1_555
C20 C19 1_555 1_555
H16 C20 1_555 1_555
C21 C16 1_555 1_555
H17 C21 1_555 1_555
C22 C19 1_555 1_555
H18 C22 1_555 1_555
H19 C22 1_555 1_555
H20 C22 1_555 1_555
C7 C8 1_555 1_555
C14 C15 1_555 1_555
C20 C21 1_555 1_555

#END
