
#######################################################################
#
#                 Cambridge Crystallographic Data Centre
#                                CCDC 
#
#######################################################################
#
# If this CIF has been generated from an entry in the Cambridge 
# Structural Database, then it will include bibliographic, chemical, 
# crystal, experimental, refinement or atomic coordinate data resulting 
# from the CCDC's data processing and validation procedures.
#
#######################################################################

data_AVAJEM
_chemical_formula_moiety         'C10 H11 N1 O3'
_chemical_name_systematic        5-Hydroxy-3-methyl-5-phenyloxazolidin-4-one
_symmetry_cell_setting           trigonal
_symmetry_space_group_name_H-M   'P 32'
_symmetry_Int_Tables_number      145
_space_group_name_Hall           'P 32'
loop_
_symmetry_equiv_pos_site_id
_symmetry_equiv_pos_as_xyz
1 x,y,z
2 -y,x-y,2/3+z
3 -x+y,-x,1/3+z
_cell_length_a                   9.4131(11)
_cell_length_b                   9.4131(11)
_cell_length_c                   9.467(2)
_cell_angle_alpha                90
_cell_angle_beta                 90
_cell_angle_gamma                120
_cell_volume                     726.454
_exptl_crystal_colour            colorless
_exptl_crystal_description       'long needle'
_cell_formula_units_Z            3
loop_
_atom_site_label
_atom_site_type_symbol
_atom_site_fract_x
_atom_site_fract_y
_atom_site_fract_z
O1 O 0.3043(3) 0.7369(2) 0.0000
O2 O 0.6416(2) 1.0756(2) 0.1517(3)
O3 O 0.3845(2) 0.9470(3) 0.2538(3)
H1 H 0.371(4) 0.868(4) 0.291(3)
N1 N 0.5801(3) 0.8431(3) 0.0327(3)
C1 C 0.4397(3) 0.8410(3) 0.0440(3)
C2 C 0.7064(3) 0.9748(4) 0.1114(4)
H2 H 0.7351 0.9336 0.1940
H3 H 0.8037 1.0359 0.0537
C3 C 0.4706(3) 0.9919(3) 0.1273(3)
C4 C 0.4255(3) 1.1000(3) 0.0444(3)
C5 C 0.5248(3) 1.1979(3) -0.0632(4)
H4 H 0.6239 1.2016 -0.0806
C6 C 0.4807(4) 1.2904(4) -0.1454(5)
H5 H 0.5482 1.3542 -0.2188
C7 C 0.3364(4) 1.2874(4) -0.1181(4)
H6 H 0.3067 1.3511 -0.1718
C8 C 0.2367(4) 1.1918(4) -0.0129(4)
H7 H 0.1385 1.1898 0.0047
C9 C 0.2798(3) 1.0973(3) 0.0684(4)
H8 H 0.2101 1.0315 0.1398
C10 C 0.5991(6) 0.7103(5) -0.0263(6)
H9 H 0.5176 0.6543 -0.0978
H10 H 0.5859 0.6345 0.0473
H11 H 0.7064 0.7548 -0.0671
loop_
_geom_bond_atom_site_label_1
_geom_bond_atom_site_label_2
_geom_bond_site_symmetry_1
_geom_bond_site_symmetry_2
O1 C1 1_555 1_555
O2 C2 1_555 1_555
O3 H1 1_555 1_555
N1 C1 1_555 1_555
C1 C3 1_555 1_555
C2 N1 1_555 1_555
H2 C2 1_555 1_555
H3 C2 1_555 1_555
C3 O2 1_555 1_555
C4 C3 1_555 1_555
C5 C4 1_555 1_555
H4 C5 1_555 1_555
C6 C5 1_555 1_555
H5 C6 1_555 1_555
C7 C6 1_555 1_555
H6 C7 1_555 1_555
C8 C7 1_555 1_555
H7 C8 1_555 1_555
C9 C4 1_555 1_555
H8 C9 1_555 1_555
C10 N1 1_555 1_555
H9 C10 1_555 1_555
H10 C10 1_555 1_555
H11 C10 1_555 1_555
O3 C3 1_555 1_555
C8 C9 1_555 1_555

#END
