
#######################################################################
#
#                 Cambridge Crystallographic Data Centre
#                                CCDC 
#
#######################################################################
#
# If this CIF has been generated from an entry in the Cambridge 
# Structural Database, then it will include bibliographic, chemical, 
# crystal, experimental, refinement or atomic coordinate data resulting 
# from the CCDC's data processing and validation procedures.
#
#######################################################################

data_AVALAM
_chemical_formula_moiety         'C30 H34 N2 O6'
_chemical_name_systematic        
'methyl 3-(2-((t-butoxycarbonyl)amino)phenyl)-7,7-dimethyl-2,5-dioxo-1-phenyl-1,2,3,4,5,6,7,8-octahydroquinoline-4-carboxylate'
_symmetry_cell_setting           triclinic
_symmetry_space_group_name_H-M   'P -1'
_symmetry_Int_Tables_number      2
_space_group_name_Hall           '-P 1'
loop_
_symmetry_equiv_pos_site_id
_symmetry_equiv_pos_as_xyz
1 x,y,z
2 -x,-y,-z
_cell_length_a                   9.3771(19)
_cell_length_b                   11.855(2)
_cell_length_c                   14.142(3)
_cell_angle_alpha                101.985(2)
_cell_angle_beta                 104.868(2)
_cell_angle_gamma                112.591(2)
_cell_volume                     1317.69
_exptl_crystal_colour            colorless
_exptl_crystal_description       irregular
_cell_formula_units_Z            2
_exptl_crystal_recrystallization_method 'dichloromethane/ methanol'
loop_
_atom_site_label
_atom_site_type_symbol
_atom_site_fract_x
_atom_site_fract_y
_atom_site_fract_z
O1 O 0.10725(18) 0.71258(13) 0.55293(11)
O2 O 0.3571(2) 0.44961(15) 0.56363(12)
O3 O 0.20351(18) 0.51134(14) 0.45782(11)
O4 O 0.42511(19) 0.44660(14) 0.81644(11)
O5 O -0.2183(2) 0.07292(14) 0.70451(11)
O6 O -0.23666(19) 0.02299(13) 0.53558(11)
N1 N 0.4681(2) 0.64926(16) 0.81567(13)
N2 N -0.1249(2) 0.22970(16) 0.63292(13)
H1 H -0.1052 0.2436 0.5777
C1 C 0.2287(3) 0.7600(2) 0.63564(16)
C2 C 0.3279(3) 0.90483(19) 0.68913(16)
H2 H 0.255 0.9454 0.6708
H3 H 0.4188 0.9384 0.6632
C3 C 0.4029(3) 0.94483(19) 0.80758(16)
C4 C 0.5053(3) 0.87265(19) 0.83331(16)
H4 H 0.608 0.9116 0.8189
H5 H 0.5388 0.8856 0.9086
C5 C 0.4133(3) 0.72887(19) 0.77258(15)
C6 C 0.2808(3) 0.67616(19) 0.68158(15)
C7 C 0.2632(3) 0.9116(2) 0.85015(17)
H6 H 0.3108 0.9328 0.9257
H7 H 0.1854 0.8185 0.8171
H8 H 0.204 0.9621 0.8349
C8 C 0.5192(3) 1.0914(2) 0.85515(17)
H9 H 0.5644 1.1172 0.9312
H10 H 0.457 1.1383 0.835
H11 H 0.6108 1.1126 0.8297
C9 C 0.1873(3) 0.53103(19) 0.62507(15)
H12 H 0.068 0.5061 0.5867
C10 C 0.1961(3) 0.45745(19) 0.70224(16)
H13 H 0.1639 0.3662 0.6608
C11 C 0.3715(3) 0.5133(2) 0.78136(16)
C12 C 0.0725(3) 0.44947(19) 0.75633(15)
C13 C 0.1078(3) 0.5525(2) 0.84265(16)
H14 H 0.2123 0.6283 0.8693
C14 C -0.0050(3) 0.5470(2) 0.89030(17)
H15 H 0.0224 0.6182 0.9491
C15 C -0.1576(3) 0.4378(2) 0.85225(17)
H16 H -0.2363 0.434 0.8841
C16 C -0.1951(3) 0.3342(2) 0.76765(17)
H17 H -0.2999 0.2589 0.7416
C17 C -0.0813(3) 0.3388(2) 0.71999(16)
C18 C 0.2605(3) 0.49265(19) 0.54716(16)
C19 C 0.2511(3) 0.4636(2) 0.37446(17)
H18 H 0.194 0.4745 0.3111
H19 H 0.2196 0.3712 0.3614
H20 H 0.3717 0.5127 0.3945
C20 C 0.6298(3) 0.70593(19) 0.89855(16)
C21 C 0.7718(3) 0.7720(2) 0.88057(17)
H21 H 0.764 0.7773 0.8135
C22 C 0.9256(3) 0.8303(2) 0.96096(18)
H22 H 1.0235 0.8779 0.9495
C23 C 0.9373(3) 0.8194(2) 1.05771(18)
H23 H 1.0431 0.8594 1.1127
C24 C 0.7951(3) 0.7504(2) 1.07441(17)
H24 H 0.8037 0.7417 1.1406
C25 C 0.6398(3) 0.6937(2) 0.99539(16)
H25 H 0.5419 0.6474 1.0072
C26 C -0.1960(3) 0.1046(2) 0.63125(16)
C27 C -0.2760(3) -0.11484(19) 0.51962(17)
C28 C -0.4285(3) -0.1855(2) 0.54252(19)
H26 H -0.4619 -0.2789 0.5202
H27 H -0.5195 -0.171 0.5048
H28 H -0.403 -0.1526 0.6175
C29 C -0.3115(3) -0.1693(2) 0.40429(18)
H29 H -0.3466 -0.2629 0.3839
H30 H -0.2105 -0.1257 0.3906
H31 H -0.4003 -0.1545 0.3639
C30 C -0.1231(3) -0.1184(2) 0.5855(2)
H32 H -0.1427 -0.2088 0.5701
H33 H -0.1007 -0.0802 0.6594
H34 H -0.0272 -0.0687 0.5695
loop_
_geom_bond_atom_site_label_1
_geom_bond_atom_site_label_2
_geom_bond_site_symmetry_1
_geom_bond_site_symmetry_2
O1 C1 1_555 1_555
O2 C18 1_555 1_555
O3 C18 1_555 1_555
O4 C11 1_555 1_555
O5 C26 1_555 1_555
O6 C26 1_555 1_555
N1 C5 1_555 1_555
N2 H1 1_555 1_555
C1 C2 1_555 1_555
C2 H2 1_555 1_555
H3 C2 1_555 1_555
C3 C2 1_555 1_555
C4 C3 1_555 1_555
H4 C4 1_555 1_555
H5 C4 1_555 1_555
C5 C4 1_555 1_555
C6 C1 1_555 1_555
C7 C3 1_555 1_555
H6 C7 1_555 1_555
H7 C7 1_555 1_555
H8 C7 1_555 1_555
C8 C3 1_555 1_555
H9 C8 1_555 1_555
H10 C8 1_555 1_555
H11 C8 1_555 1_555
C9 C6 1_555 1_555
H12 C9 1_555 1_555
C10 C9 1_555 1_555
H13 C10 1_555 1_555
C11 N1 1_555 1_555
C12 C10 1_555 1_555
C13 C12 1_555 1_555
H14 C13 1_555 1_555
C14 C13 1_555 1_555
H15 C14 1_555 1_555
C15 C14 1_555 1_555
H16 C15 1_555 1_555
C16 C15 1_555 1_555
H17 C16 1_555 1_555
C17 N2 1_555 1_555
C18 C9 1_555 1_555
C19 O3 1_555 1_555
H18 C19 1_555 1_555
H19 C19 1_555 1_555
H20 C19 1_555 1_555
C20 N1 1_555 1_555
C21 C20 1_555 1_555
H21 C21 1_555 1_555
C22 C21 1_555 1_555
H22 C22 1_555 1_555
C23 C22 1_555 1_555
H23 C23 1_555 1_555
C24 C23 1_555 1_555
H24 C24 1_555 1_555
C25 C20 1_555 1_555
H25 C25 1_555 1_555
C26 N2 1_555 1_555
C27 O6 1_555 1_555
C28 C27 1_555 1_555
H26 C28 1_555 1_555
H27 C28 1_555 1_555
H28 C28 1_555 1_555
C29 C27 1_555 1_555
H29 C29 1_555 1_555
H30 C29 1_555 1_555
H31 C29 1_555 1_555
C30 C27 1_555 1_555
H32 C30 1_555 1_555
H33 C30 1_555 1_555
H34 C30 1_555 1_555
C5 C6 1_555 1_555
C10 C11 1_555 1_555
C12 C17 1_555 1_555
C16 C17 1_555 1_555
C24 C25 1_555 1_555

#END
