
#######################################################################
#
#                 Cambridge Crystallographic Data Centre
#                                CCDC 
#
#######################################################################
#
# If this CIF has been generated from an entry in the Cambridge 
# Structural Database, then it will include bibliographic, chemical, 
# crystal, experimental, refinement or atomic coordinate data resulting 
# from the CCDC's data processing and validation procedures.
#
#######################################################################

data_AVALEP
_chemical_formula_moiety         'C12 H18 B1 N1 O2'
_chemical_name_systematic        
2-(4,4,5,5-Tetramethyl-1,3,2-dioxaborolan-2-yl)aniline
_symmetry_cell_setting           monoclinic
_symmetry_space_group_name_H-M   'P 21/c'
_symmetry_Int_Tables_number      14
_space_group_name_Hall           '-P 2ybc'
loop_
_symmetry_equiv_pos_site_id
_symmetry_equiv_pos_as_xyz
1 x,y,z
2 -x,1/2+y,1/2-z
3 -x,-y,-z
4 x,1/2-y,1/2+z
_cell_length_a                   10.0970(13)
_cell_length_b                   9.9124(13)
_cell_length_c                   13.2168(18)
_cell_angle_alpha                90
_cell_angle_beta                 109.795(2)
_cell_angle_gamma                90
_cell_volume                     1244.65
_exptl_crystal_colour            colorless
_exptl_crystal_description       irregular
_cell_formula_units_Z            4
_exptl_crystal_recrystallization_method hexane
loop_
_atom_site_label
_atom_site_type_symbol
_atom_site_fract_x
_atom_site_fract_y
_atom_site_fract_z
B1 B 0.75951(15) 0.87414(14) 0.24431(11)
N1 N 0.77197(16) 0.72180(15) 0.44115(11)
C1 C 0.70102(13) 0.66774(13) 0.34294(10)
C2 C 0.68865(12) 0.73638(12) 0.24663(10)
C3 C 0.60899(15) 0.67559(15) 0.14994(12)
C4 C 0.54625(19) 0.55083(18) 0.14633(16)
C5 C 0.56664(17) 0.48240(16) 0.24137(16)
C6 C 0.64090(16) 0.53901(14) 0.33741(14)
O1 O 0.81899(9) 0.95308(8) 0.33315(7)
O2 O 0.77317(10) 0.92817(8) 0.15290(7)
C7 C 0.89512(14) 1.06263(12) 0.30330(11)
C8 C 0.82627(14) 1.06665(12) 0.17811(10)
C9 C 0.8757(2) 1.18903(16) 0.36084(14)
C10 C 1.04900(17) 1.02029(18) 0.34199(14)
C11 C 0.92798(17) 1.09444(17) 0.11879(13)
C12 C 0.69956(17) 1.15897(16) 0.13848(14)
H1 H 0.7989(18) 0.8081(18) 0.4459(13)
H2 H 0.7753(18) 0.6800(18) 0.5009(14)
H3 H 0.5931(15) 0.7242(14) 0.0822(12)
H4 H 0.489(2) 0.5112(19) 0.0764(15)
H5 H 0.5278(18) 0.3941(19) 0.2398(13)
H6 H 0.6522(17) 0.4939(17) 0.4052(14)
H7 H 0.9246(17) 1.1786(17) 0.4408(14)
H8 H 0.9228(19) 1.2657(19) 0.3393(14)
H9 H 0.7664(19) 1.2063(16) 0.3404(13)
H10 H 1.1067(19) 1.0932(19) 0.3282(14)
H11 H 1.0611(16) 0.9334(17) 0.3043(13)
H12 H 1.0814(17) 1.0039(16) 0.4219(14)
H13 H 0.9693(16) 1.1855(17) 0.1387(12)
H14 H 0.8804(18) 1.0936(17) 0.0401(15)
H15 H 1.0022(18) 1.0244(17) 0.1349(13)
H16 H 0.6498(18) 1.1433(17) 0.0577(15)
H17 H 0.7288(18) 1.2560(18) 0.1498(13)
H18 H 0.6325(17) 1.1417(16) 0.1778(13)
loop_
_geom_bond_atom_site_label_1
_geom_bond_atom_site_label_2
_geom_bond_site_symmetry_1
_geom_bond_site_symmetry_2
B1 C2 1_555 1_555
N1 C1 1_555 1_555
C1 C2 1_555 1_555
C2 C3 1_555 1_555
C3 C4 1_555 1_555
C4 C5 1_555 1_555
C5 C6 1_555 1_555
C6 C1 1_555 1_555
O1 B1 1_555 1_555
O2 B1 1_555 1_555
C7 O1 1_555 1_555
C8 O2 1_555 1_555
C9 C7 1_555 1_555
C10 C7 1_555 1_555
C11 C8 1_555 1_555
C12 C8 1_555 1_555
H1 N1 1_555 1_555
H2 N1 1_555 1_555
H3 C3 1_555 1_555
H4 C4 1_555 1_555
H5 C5 1_555 1_555
H6 C6 1_555 1_555
H7 C9 1_555 1_555
H8 C9 1_555 1_555
H9 C9 1_555 1_555
H10 C10 1_555 1_555
H11 C10 1_555 1_555
H12 C10 1_555 1_555
H13 C11 1_555 1_555
H14 C11 1_555 1_555
H15 C11 1_555 1_555
H16 C12 1_555 1_555
H17 C12 1_555 1_555
H18 C12 1_555 1_555
C7 C8 1_555 1_555

#END
