
#######################################################################
#
#                 Cambridge Crystallographic Data Centre
#                                CCDC 
#
#######################################################################
#
# If this CIF has been generated from an entry in the Cambridge 
# Structural Database, then it will include bibliographic, chemical, 
# crystal, experimental, refinement or atomic coordinate data resulting 
# from the CCDC's data processing and validation procedures.
#
#######################################################################

data_AVALOZ
_chemical_name_common            
6-(Pyridin-2-ylamino)-6'-(pyrazin-2-ylamino)-2,2'-dipyridylamine
_chemical_formula_moiety         'C19 H16 N8'
_chemical_name_systematic        
N^2^-(Pyrazin-2-yl)-N^6^-(6-(pyridin-2-ylamino)pyridin-2-yl)pyridine-2,6-diamine
_symmetry_cell_setting           orthorhombic
_symmetry_space_group_name_H-M   'P c c n'
_symmetry_Int_Tables_number      56
_space_group_name_Hall           '-P 2ab 2ac'
loop_
_symmetry_equiv_pos_site_id
_symmetry_equiv_pos_as_xyz
1 x,y,z
2 1/2-x,1/2-y,z
3 -x,1/2+y,1/2-z
4 1/2+x,-y,1/2-z
5 -x,-y,-z
6 1/2+x,1/2+y,-z
7 x,1/2-y,1/2+z
8 1/2-x,y,1/2+z
_cell_length_a                   12.5446(4)
_cell_length_b                   15.0639(4)
_cell_length_c                   18.2036(6)
_cell_angle_alpha                90
_cell_angle_beta                 90
_cell_angle_gamma                90
_cell_volume                     3439.95
_exptl_crystal_colour            colorless
_exptl_crystal_description       plate
_cell_formula_units_Z            8
_exptl_crystal_recrystallization_method chloroform
loop_
_atom_site_label
_atom_site_type_symbol
_atom_site_fract_x
_atom_site_fract_y
_atom_site_fract_z
N1 N 0.89131(19) 0.23430(16) 0.27803(15)
N2 N 0.81753(19) 0.35832(15) 0.32856(14)
H1 H 0.7603 0.3271 0.3257
N3 N 0.88603(18) 0.48898(15) 0.38107(14)
N4 N 0.96100(19) 0.61232(15) 0.43122(15)
H2 H 1.0184 0.5827 0.4230
N5 N 0.89385(17) 0.73325(15) 0.49786(14)
N6 N 0.82036(19) 0.85007(16) 0.55843(15)
H3 H 0.7634 0.8190 0.5532
N7 N 0.8864(2) 0.97666(18) 0.62017(18)
N8 N 0.6795(2) 1.04407(17) 0.62097(15)
C1 C 0.9759(3) 0.1879(2) 0.25316(19)
H4 H 0.9635 0.1322 0.2328
C2 C 1.0775(3) 0.2175(2) 0.2559(2)
H5 H 1.1335 0.1832 0.2381
C3 C 1.0952(3) 0.2998(2) 0.2860(2)
H6 H 1.1643 0.3219 0.2887
C4 C 1.0123(2) 0.3493(2) 0.3120(2)
H7 H 1.0240 0.4051 0.3324
C5 C 0.9102(2) 0.31465(18) 0.30737(17)
C6 C 0.8030(2) 0.44441(18) 0.35365(17)
C7 C 0.7002(2) 0.47950(19) 0.35027(19)
H8 H 0.6433 0.4460 0.3329
C8 C 0.6862(2) 0.5649(2) 0.37344(19)
H9 H 0.6189 0.5906 0.3712
C9 C 0.7708(2) 0.61343(19) 0.40011(17)
H10 H 0.7621 0.6722 0.4146
C10 C 0.8690(2) 0.57229(18) 0.40466(17)
C11 C 0.9771(2) 0.69098(19) 0.46832(17)
C12 C 1.0812(2) 0.7209(2) 0.4762(2)
H11 H 1.1380 0.6890 0.4566
C13 C 1.0981(2) 0.7982(2) 0.5134(2)
H12 H 1.1673 0.8193 0.5192
C14 C 1.0145(2) 0.8455(2) 0.54235(19)
H13 H 1.0251 0.8989 0.5668
C15 C 0.9142(2) 0.80999(18) 0.53353(17)
C16 C 0.8062(2) 0.9323(2) 0.59021(18)
C17 C 0.7030(2) 0.96807(19) 0.59064(19)
H14 H 0.6486 0.9361 0.5682
C18 C 0.7610(3) 1.0892(2) 0.65104(19)
H15 H 0.7486 1.1437 0.6734
C19 C 0.8610(3) 1.0557(2) 0.6489(2)
H16 H 0.9157 1.0898 0.6688
loop_
_geom_bond_atom_site_label_1
_geom_bond_atom_site_label_2
_geom_bond_site_symmetry_1
_geom_bond_site_symmetry_2
N1 C1 1_555 1_555
N2 H1 1_555 1_555
N3 C6 1_555 1_555
N4 H2 1_555 1_555
N5 C11 1_555 1_555
N6 H3 1_555 1_555
N7 C16 1_555 1_555
N8 C17 1_555 1_555
C1 H4 1_555 1_555
C2 C1 1_555 1_555
H5 C2 1_555 1_555
C3 C2 1_555 1_555
H6 C3 1_555 1_555
C4 C3 1_555 1_555
H7 C4 1_555 1_555
C5 N1 1_555 1_555
C6 N2 1_555 1_555
C7 C6 1_555 1_555
H8 C7 1_555 1_555
C8 C7 1_555 1_555
H9 C8 1_555 1_555
C9 C8 1_555 1_555
H10 C9 1_555 1_555
C10 N3 1_555 1_555
C11 N4 1_555 1_555
C12 C11 1_555 1_555
H11 C12 1_555 1_555
C13 C12 1_555 1_555
H12 C13 1_555 1_555
C14 C13 1_555 1_555
H13 C14 1_555 1_555
C15 N5 1_555 1_555
C16 N6 1_555 1_555
C17 C16 1_555 1_555
H14 C17 1_555 1_555
C18 N8 1_555 1_555
H15 C18 1_555 1_555
C19 N7 1_555 1_555
H16 C19 1_555 1_555
N2 C5 1_555 1_555
N4 C10 1_555 1_555
N6 C15 1_555 1_555
C4 C5 1_555 1_555
C9 C10 1_555 1_555
C14 C15 1_555 1_555
C18 C19 1_555 1_555

#END
