
#######################################################################
#
#                 Cambridge Crystallographic Data Centre
#                                CCDC 
#
#######################################################################
#
# If this CIF has been generated from an entry in the Cambridge 
# Structural Database, then it will include bibliographic, chemical, 
# crystal, experimental, refinement or atomic coordinate data resulting 
# from the CCDC's data processing and validation procedures.
#
#######################################################################

data_AVASOG
_chemical_formula_moiety         'C30 H46 N4 P2 Si2,2(C7 H8)'
_chemical_name_systematic        
"2,4-bis(N,N'-di-t-butylbenzenecarboximidamido)-1,3,2,4-diphosphadisilete toluene solvate"
_symmetry_cell_setting           monoclinic
_symmetry_space_group_name_H-M   'C 2/c'
_symmetry_Int_Tables_number      15
_space_group_name_Hall           '-C 2yn'
loop_
_symmetry_equiv_pos_site_id
_symmetry_equiv_pos_as_xyz
1 x,y,z
2 -x,y,1/2-z
3 1/2+x,1/2+y,z
4 1/2-x,1/2+y,1/2-z
5 -x,-y,-z
6 x,-y,1/2+z
7 1/2-x,1/2-y,-z
8 1/2+x,1/2-y,1/2+z
_cell_length_a                   23.841(3)
_cell_length_b                   10.1993(12)
_cell_length_c                   19.369(2)
_cell_angle_alpha                90
_cell_angle_beta                 108.346(12)
_cell_angle_gamma                90
_cell_volume                     4470.41
_exptl_crystal_colour            yellow
_exptl_crystal_description       block
_cell_formula_units_Z            4
loop_
_atom_site_label
_atom_site_type_symbol
_atom_site_fract_x
_atom_site_fract_y
_atom_site_fract_z
C16 C 0.4371(4) 0.2781(6) 0.7316(4)
H24 H 0.3953 0.2804 0.7199
C17 C 0.4631(3) 0.2778(5) 0.6811(4)
H25 H 0.4388 0.2796 0.6317
C18 C 0.4747(4) 0.2749(6) 0.8042(4)
C19 C 0.4491(4) 0.2566(10) 0.8481(7)
H26 H 0.4090 0.2923 0.8294
H27 H 0.4705 0.3004 0.8939
H28 H 0.4471 0.1623 0.8566
C16A C 0.5629(4) 0.2781(6) 0.7684(4)
H24A H 0.6047 0.2804 0.7801
C17A C 0.5369(3) 0.2778(5) 0.8189(4)
H25A H 0.5612 0.2796 0.8683
C18A C 0.5253(4) 0.2749(6) 0.6958(4)
C19A C 0.5509(4) 0.2566(10) 0.6519(7)
H26A H 0.5910 0.2923 0.6706
H27A H 0.5295 0.3004 0.6061
H28A H 0.5529 0.1623 0.6434
C20 C 0.4452(3) 0.4542(8) 0.4964(4)
H29 H 0.4077 0.4217 0.4961
C21 C 0.4743(3) 0.5491(8) 0.5476(4)
C22 C 0.4691(3) 0.4113(9) 0.4499(4)
H30 H 0.4480 0.3516 0.4133
C23 C 0.4528(4) 0.5798(7) 0.5912(5)
H31 H 0.4676 0.5232 0.6340
H32 H 0.4098 0.5708 0.5711
H33 H 0.4628 0.6712 0.6052
C20D C 0.5548(3) 0.5458(8) 0.5036(4)
H29D H 0.5923 0.5783 0.5039
C21D C 0.5257(3) 0.4509(8) 0.4524(4)
C22D C 0.5309(3) 0.5887(9) 0.5501(4)
H30D H 0.5520 0.6484 0.5867
C23D C 0.5472(4) 0.4202(7) 0.4088(5)
H31D H 0.5324 0.4768 0.3660
H32D H 0.5902 0.4292 0.4289
H33D H 0.5372 0.3288 0.3948
P1 P 0.20047(3) 0.13476(8) 0.44681(4)
Si1 Si 0.22202(3) 0.34201(8) 0.45818(4)
N1 N 0.16257(10) 0.4666(2) 0.44362(13)
C1 C 0.17456(12) 0.5142(3) 0.38504(15)
N2 N 0.21745(10) 0.4387(2) 0.37542(13)
C2 C 0.14501(12) 0.6266(3) 0.33917(15)
C3 C 0.09590(13) 0.6038(3) 0.27825(16)
H1 H 0.0822 0.5169 0.2657
C4 C 0.06729(14) 0.7085(3) 0.23617(17)
H2 H 0.0340 0.6930 0.1946
C5 C 0.08677(15) 0.8346(3) 0.25416(18)
H3 H 0.0666 0.9058 0.2253
C6 C 0.13558(15) 0.8581(3) 0.31414(18)
H4 H 0.1491 0.9452 0.3264
C7 C 0.16477(14) 0.7538(3) 0.35631(16)
H5 H 0.1986 0.7698 0.3973
C8 C 0.12477(13) 0.5196(3) 0.48551(16)
C9 C 0.12135(16) 0.4119(4) 0.5387(2)
H6 H 0.1613 0.3909 0.5704
H7 H 0.0973 0.4423 0.5683
H8 H 0.1033 0.3334 0.5116
C10 C 0.15374(16) 0.6409(4) 0.52741(19)
H9 H 0.1561 0.7096 0.4931
H10 H 0.1302 0.6723 0.5574
H11 H 0.1936 0.6189 0.5588
C11 C 0.06231(14) 0.5499(4) 0.4356(2)
H12 H 0.0463 0.4731 0.4054
H13 H 0.0369 0.5715 0.4652
H14 H 0.0636 0.6246 0.4043
C12 C 0.25102(13) 0.4485(3) 0.32261(16)
C13 C 0.21052(15) 0.4497(4) 0.24380(17)
H15 H 0.1875 0.5311 0.2344
H16 H 0.2344 0.4443 0.2110
H17 H 0.1836 0.3745 0.2355
C14 C 0.28957(16) 0.5710(4) 0.3386(2)
H18 H 0.3145 0.5702 0.3896
H19 H 0.3147 0.5724 0.3071
H20 H 0.2644 0.6491 0.3293
C15 C 0.28993(16) 0.3271(4) 0.33506(19)
H21 H 0.2651 0.2485 0.3272
H22 H 0.3128 0.3272 0.3010
H23 H 0.3170 0.3274 0.3851
P1F P 0.29953(3) 0.36524(8) 0.55319(4)
Si1F Si 0.27798(3) 0.15799(8) 0.54182(4)
N1F N 0.33743(10) 0.0334(2) 0.55638(13)
C1F C 0.32544(12) -0.0142(3) 0.61496(15)
N2F N 0.28255(10) 0.0613(2) 0.62458(13)
C2F C 0.35499(12) -0.1266(3) 0.66083(15)
C3F C 0.40410(13) -0.1038(3) 0.72175(16)
H1F H 0.4178 -0.0169 0.7343
C4F C 0.43271(14) -0.2085(3) 0.76383(17)
H2F H 0.4660 -0.1930 0.8054
C5F C 0.41323(15) -0.3346(3) 0.74584(18)
H3F H 0.4334 -0.4058 0.7747
C6F C 0.36442(15) -0.3581(3) 0.68586(18)
H4F H 0.3509 -0.4452 0.6736
C7F C 0.33523(14) -0.2538(3) 0.64369(16)
H5F H 0.3014 -0.2698 0.6027
C8F C 0.37523(13) -0.0196(3) 0.51449(16)
C9F C 0.37865(16) 0.0881(4) 0.4613(2)
H6F H 0.3387 0.1091 0.4296
H7F H 0.4027 0.0577 0.4317
H8F H 0.3967 0.1666 0.4884
C10F C 0.34626(16) -0.1409(4) 0.47259(19)
H9F H 0.3439 -0.2096 0.5069
H10F H 0.3698 -0.1723 0.4426
H11F H 0.3064 -0.1189 0.4412
C11F C 0.43769(14) -0.0499(4) 0.5644(2)
H12F H 0.4537 0.0269 0.5946
H13F H 0.4631 -0.0715 0.5348
H14F H 0.4364 -0.1246 0.5957
C12F C 0.24898(13) 0.0515(3) 0.67739(16)
C13F C 0.28948(15) 0.0503(4) 0.75620(17)
H15F H 0.3125 -0.0311 0.7656
H16F H 0.2656 0.0557 0.7890
H17F H 0.3164 0.1255 0.7645
C14F C 0.21043(16) -0.0710(4) 0.6614(2)
H18F H 0.1855 -0.0702 0.6104
H19F H 0.1853 -0.0724 0.6929
H20F H 0.2356 -0.1491 0.6707
C15F C 0.21007(16) 0.1729(4) 0.66494(19)
H21F H 0.2349 0.2515 0.6728
H22F H 0.1872 0.1728 0.6990
H23F H 0.1830 0.1726 0.6149
loop_
_geom_bond_atom_site_label_1
_geom_bond_atom_site_label_2
_geom_bond_site_symmetry_1
_geom_bond_site_symmetry_2
P1 Si1 1_555 1_555
Si1 N1 1_555 1_555
N1 C1 1_555 1_555
C1 N2 1_555 1_555
N2 Si1 1_555 1_555
C2 C1 1_555 1_555
C3 C2 1_555 1_555
H1 C3 1_555 1_555
C4 C3 1_555 1_555
H2 C4 1_555 1_555
C5 C4 1_555 1_555
H3 C5 1_555 1_555
C6 C5 1_555 1_555
H4 C6 1_555 1_555
C7 C2 1_555 1_555
H5 C7 1_555 1_555
C8 N1 1_555 1_555
C9 C8 1_555 1_555
H6 C9 1_555 1_555
H7 C9 1_555 1_555
H8 C9 1_555 1_555
C10 C8 1_555 1_555
H9 C10 1_555 1_555
H10 C10 1_555 1_555
H11 C10 1_555 1_555
C11 C8 1_555 1_555
H12 C11 1_555 1_555
H13 C11 1_555 1_555
H14 C11 1_555 1_555
C12 N2 1_555 1_555
C13 C12 1_555 1_555
H15 C13 1_555 1_555
H16 C13 1_555 1_555
H17 C13 1_555 1_555
C14 C12 1_555 1_555
H18 C14 1_555 1_555
H19 C14 1_555 1_555
H20 C14 1_555 1_555
C15 C12 1_555 1_555
H21 C15 1_555 1_555
H22 C15 1_555 1_555
H23 C15 1_555 1_555
C16 H24 1_555 1_555
C17 C16 1_555 1_555
H25 C17 1_555 1_555
C18 C16 1_555 1_555
C19 C18 1_555 1_555
H26 C19 1_555 1_555
H27 C19 1_555 1_555
H28 C19 1_555 1_555
C20 H29 1_555 1_555
C21 C20 1_555 1_555
C22 C20 1_555 1_555
H30 C22 1_555 1_555
C23 C21 1_555 1_555
H31 C23 1_555 1_555
H32 C23 1_555 1_555
H33 C23 1_555 1_555
P1F Si1 1_555 1_555
Si1F P1 1_555 1_555
N1F Si1F 1_555 1_555
C1F N1F 1_555 1_555
N2F Si1F 1_555 1_555
C2F C1F 1_555 1_555
C3F C2F 1_555 1_555
H1F C3F 1_555 1_555
C4F C3F 1_555 1_555
H2F C4F 1_555 1_555
C5F C4F 1_555 1_555
H3F C5F 1_555 1_555
C6F C5F 1_555 1_555
H4F C6F 1_555 1_555
C7F C2F 1_555 1_555
H5F C7F 1_555 1_555
C8F N1F 1_555 1_555
C9F C8F 1_555 1_555
H6F C9F 1_555 1_555
H7F C9F 1_555 1_555
H8F C9F 1_555 1_555
C10F C8F 1_555 1_555
H9F C10F 1_555 1_555
H10F C10F 1_555 1_555
H11F C10F 1_555 1_555
C11F C8F 1_555 1_555
H12F C11F 1_555 1_555
H13F C11F 1_555 1_555
H14F C11F 1_555 1_555
C12F N2F 1_555 1_555
C13F C12F 1_555 1_555
H15F C13F 1_555 1_555
H16F C13F 1_555 1_555
H17F C13F 1_555 1_555
C14F C12F 1_555 1_555
H18F C14F 1_555 1_555
H19F C14F 1_555 1_555
H20F C14F 1_555 1_555
C15F C12F 1_555 1_555
H21F C15F 1_555 1_555
H22F C15F 1_555 1_555
H23F C15F 1_555 1_555
C16A H24A 1_555 1_555
C17A C18 1_555 1_555
H25A C17A 1_555 1_555
C18A C17 1_555 1_555
C19A C18A 1_555 1_555
H26A C19A 1_555 1_555
H27A C19A 1_555 1_555
H28A C19A 1_555 1_555
C20D H29D 1_555 1_555
C21D C22 1_555 1_555
C22D C21 1_555 1_555
H30D C22D 1_555 1_555
C23D C21D 1_555 1_555
H31D C23D 1_555 1_555
H32D C23D 1_555 1_555
H33D C23D 1_555 1_555
C6 C7 1_555 1_555
P1F Si1F 1_555 1_555
C1F N2F 1_555 1_555
C6F C7F 1_555 1_555
C16A C17A 1_555 1_555
C16A C18A 1_555 1_555
C20D C21D 1_555 1_555
C20D C22D 1_555 1_555

#END
