
#######################################################################
#
#                 Cambridge Crystallographic Data Centre
#                                CCDC 
#
#######################################################################
#
# If this CIF has been generated from an entry in the Cambridge 
# Structural Database, then it will include bibliographic, chemical, 
# crystal, experimental, refinement or atomic coordinate data resulting 
# from the CCDC's data processing and validation procedures.
#
#######################################################################

data_AVAYIF
_chemical_formula_moiety         'C16 H19 N1 O4 S1'
_chemical_name_systematic        
N-p-Toluenesulfonylspiro(8-azabicyclo(3.2.1)oct-6-ene-3,2'-(1,3)dioxolane)
_symmetry_cell_setting           monoclinic
_symmetry_space_group_name_H-M   'P 21/c'
_symmetry_Int_Tables_number      14
_space_group_name_Hall           '-P 2ybc'
loop_
_symmetry_equiv_pos_site_id
_symmetry_equiv_pos_as_xyz
1 x,y,z
2 -x,1/2+y,1/2-z
3 -x,-y,-z
4 x,1/2-y,1/2+z
_cell_length_a                   23.0150(15)
_cell_length_b                   12.6222(7)
_cell_length_c                   11.0481(8)
_cell_angle_alpha                90
_cell_angle_beta                 97.683(7)
_cell_angle_gamma                90
_cell_volume                     3180.66
_cell_formula_units_Z            8
loop_
_atom_site_label
_atom_site_type_symbol
_atom_site_fract_x
_atom_site_fract_y
_atom_site_fract_z
S1 S 0.1879(1) 0.2158(1) 0.3775(1)
N1 N 0.1319(2) 0.2973(3) 0.3477(3)
C1 C 0.1353(2) 0.3782(4) 0.2512(4)
O1 O -0.0272(2) 0.3974(3) 0.2428(5)
O2 O 0.0310(2) 0.5379(3) 0.3029(4)
C2 C 0.0711(2) 0.3940(5) 0.1943(5)
O3 O 0.1772(2) 0.1572(3) 0.4833(3)
C3 C 0.0311(2) 0.4260(4) 0.2881(5)
O4 O 0.1925(2) 0.1601(3) 0.2662(3)
C4 C 0.0481(2) 0.3744(4) 0.4136(5)
C5 C 0.1140(2) 0.3615(4) 0.4488(4)
C6 C 0.1458(2) 0.4640(4) 0.4376(5)
C7 C 0.1571(2) 0.4748(4) 0.3248(5)
C8 C -0.0611(3) 0.4901(6) 0.2197(8)
C9 C -0.0192(3) 0.5788(5) 0.2327(8)
C10 C 0.2519(2) 0.2907(4) 0.4149(4)
C11 C 0.2892(2) 0.3130(4) 0.3276(4)
C12 C 0.3360(2) 0.3797(4) 0.3551(5)
C13 C 0.3485(2) 0.4251(4) 0.4692(4)
C14 C 0.3120(3) 0.4019(5) 0.5555(5)
C15 C 0.2642(2) 0.3375(4) 0.5292(4)
C16 C 0.4003(3) 0.4994(6) 0.4992(6)
H1 H 0.1610 0.3573 0.1915
H2 H 0.0695 0.4483 0.1318
H3 H 0.0567 0.3286 0.1551
H4 H 0.0328 0.4173 0.4750
H5 H 0.0297 0.3053 0.4135
H6 H 0.1242 0.3279 0.5288
H7 H 0.1560 0.5122 0.5005
H8 H 0.1755 0.5329 0.2949
H9 H -0.0890 0.4969 0.2779
H10 H -0.0826 0.4885 0.1379
H11 H -0.0104 0.6021 0.1534
H12 H -0.0348 0.6383 0.2738
H13 H 0.2821 0.2823 0.2505
H14 H 0.3599 0.3947 0.2956
H15 H 0.3201 0.4308 0.6334
H16 H 0.2397 0.3251 0.5882
H17 H 0.4024 0.5225 0.5825
H18 H 0.3955 0.5598 0.4460
H19 H 0.4358 0.4630 0.4881
S2 S 0.3711(1) 0.8695(1) 0.4056(1)
C17 C 0.3093(2) 0.7875(4) 0.5735(4)
N2 N 0.3088(2) 0.8416(3) 0.4547(3)
O5 O 0.1539(2) 0.7159(3) 0.4600(4)
C18 C 0.2533(2) 0.7186(4) 0.5568(5)
O6 O 0.1757(2) 0.8213(3) 0.6257(4)
O7 O 0.4056(2) 0.7747(3) 0.4218(4)
C19 C 0.1979(2) 0.7845(4) 0.5202(5)
O8 O 0.3560(2) 0.9126(4) 0.2861(3)
C20 C 0.2059(2) 0.8774(4) 0.4362(5)
C21 C 0.2669(2) 0.9288(4) 0.4644(4)
C22 C 0.3030(2) 0.8779(5) 0.6592(5)
C23 C 0.2788(2) 0.9574(4) 0.5974(5)
C24 C 0.1204(2) 0.7817(7) 0.6273(7)
C25 C 0.1018(2) 0.7319(5) 0.5114(6)
C26 C 0.4071(2) 0.9689(3) 0.4974(4)
C27 C 0.3938(2) 1.0744(4) 0.4722(5)
C28 C 0.4193(3) 1.1523(4) 0.5505(7)
C29 C 0.4567(2) 1.1255(5) 0.6535(6)
C30 C 0.4700(2) 1.0216(6) 0.6757(5)
C31 C 0.4454(2) 0.9439(4) 0.5982(5)
C32 C 0.4827(3) 1.2125(7) 0.7395(8)
H20 H 0.3451 0.7460 0.5969
H21 H 0.2567 0.6657 0.4944
H22 H 0.2500 0.6818 0.6326
H23 H 0.1761 0.9303 0.4445
H24 H 0.2004 0.8529 0.3522
H25 H 0.2724 0.9885 0.4104
H26 H 0.3145 0.8769 0.7432
H27 H 0.2702 1.0224 0.6305
H28 H 0.0936 0.8385 0.6411
H29 H 0.1205 0.7304 0.6927
H30 H 0.0824 0.6650 0.5225
H31 H 0.0750 0.7774 0.4597
H32 H 0.3680 1.0928 0.4033
H33 H 0.4109 1.2232 0.5332
H34 H 0.4959 1.0030 0.7443
H35 H 0.4550 0.8733 0.6148
H36 H 0.4684 1.2801 0.7087
H37 H 0.5246 1.2111 0.7450
H38 H 0.4713 1.2013 0.8190
loop_
_geom_bond_atom_site_label_1
_geom_bond_atom_site_label_2
_geom_bond_site_symmetry_1
_geom_bond_site_symmetry_2
S1 N1 1_555 1_555
N1 C1 1_555 1_555
C1 C2 1_555 1_555
O1 C3 1_555 1_555
O2 C3 1_555 1_555
C2 C3 1_555 1_555
O3 S1 1_555 1_555
C3 C4 1_555 1_555
O4 S1 1_555 1_555
C4 C5 1_555 1_555
C5 N1 1_555 1_555
C6 C5 1_555 1_555
C7 C1 1_555 1_555
C8 O1 1_555 1_555
C9 O2 1_555 1_555
C10 S1 1_555 1_555
C11 C10 1_555 1_555
C12 C11 1_555 1_555
C13 C12 1_555 1_555
C14 C13 1_555 1_555
C15 C10 1_555 1_555
C16 C13 1_555 1_555
H1 C1 1_555 1_555
H2 C2 1_555 1_555
H3 C2 1_555 1_555
H4 C4 1_555 1_555
H5 C4 1_555 1_555
H6 C5 1_555 1_555
H7 C6 1_555 1_555
H8 C7 1_555 1_555
H9 C8 1_555 1_555
H10 C8 1_555 1_555
H11 C9 1_555 1_555
H12 C9 1_555 1_555
H13 C11 1_555 1_555
H14 C12 1_555 1_555
H15 C14 1_555 1_555
H16 C15 1_555 1_555
H17 C16 1_555 1_555
H18 C16 1_555 1_555
H19 C16 1_555 1_555
S2 N2 1_555 1_555
C17 N2 1_555 1_555
N2 C21 1_555 1_555
O5 C19 1_555 1_555
C18 C17 1_555 1_555
O6 C19 1_555 1_555
O7 S2 1_555 1_555
C19 C18 1_555 1_555
O8 S2 1_555 1_555
C20 C19 1_555 1_555
C21 C20 1_555 1_555
C22 C17 1_555 1_555
C23 C21 1_555 1_555
C24 O6 1_555 1_555
C25 O5 1_555 1_555
C26 S2 1_555 1_555
C27 C26 1_555 1_555
C28 C27 1_555 1_555
C29 C28 1_555 1_555
C30 C29 1_555 1_555
C31 C26 1_555 1_555
C32 C29 1_555 1_555
H20 C17 1_555 1_555
H21 C18 1_555 1_555
H22 C18 1_555 1_555
H23 C20 1_555 1_555
H24 C20 1_555 1_555
H25 C21 1_555 1_555
H26 C22 1_555 1_555
H27 C23 1_555 1_555
H28 C24 1_555 1_555
H29 C24 1_555 1_555
H30 C25 1_555 1_555
H31 C25 1_555 1_555
H32 C27 1_555 1_555
H33 C28 1_555 1_555
H34 C30 1_555 1_555
H35 C31 1_555 1_555
H36 C32 1_555 1_555
H37 C32 1_555 1_555
H38 C32 1_555 1_555
C6 C7 1_555 1_555
C8 C9 1_555 1_555
C14 C15 1_555 1_555
C22 C23 1_555 1_555
C24 C25 1_555 1_555
C30 C31 1_555 1_555

#END
