
#######################################################################
#
#                 Cambridge Crystallographic Data Centre
#                                CCDC 
#
#######################################################################
#
# If this CIF has been generated from an entry in the Cambridge 
# Structural Database, then it will include bibliographic, chemical, 
# crystal, experimental, refinement or atomic coordinate data resulting 
# from the CCDC's data processing and validation procedures.
#
#######################################################################

data_AVAYUR
_chemical_formula_moiety         'C16 H21 N1 O5 S1'
_chemical_name_systematic        
N-p-Toluenesulfonyl-6-exo-hydroxyspiro(8-azabicyclo(3.2.1)oct-6-ene-3,2'-(1,3)dioxolane)
_symmetry_cell_setting           orthorhombic
_symmetry_space_group_name_H-M   'P 21 21 21'
_symmetry_Int_Tables_number      19
_space_group_name_Hall           'P 2ac 2ab'
loop_
_symmetry_equiv_pos_site_id
_symmetry_equiv_pos_as_xyz
1 x,y,z
2 1/2-x,-y,1/2+z
3 1/2+x,1/2-y,-z
4 -x,1/2+y,1/2-z
_cell_length_a                   6.2669(11)
_cell_length_b                   12.501(2)
_cell_length_c                   21.162(3)
_cell_angle_alpha                90
_cell_angle_beta                 90
_cell_angle_gamma                90
_cell_volume                     1657.88
_cell_formula_units_Z            4
loop_
_atom_site_label
_atom_site_type_symbol
_atom_site_fract_x
_atom_site_fract_y
_atom_site_fract_z
S1 S 0.0780(1) 0.5145(1) 0.1289(1)
N1 N 0.1534(4) 0.4901(2) 0.0574(1)
C1 C 0.3688(5) 0.4579(3) 0.0378(2)
O1 O 0.2439(9) 0.7152(2) 0.0040(2)
O2 O 0.1193(7) 0.2857(2) -0.0862(1)
C2 C 0.3401(7) 0.3621(3) -0.0055(2)
C3 C 0.1974(6) 0.3844(3) -0.0615(2)
O3 O 0.3144(5) 0.4318(2) -0.1120(1)
O4 O -0.1516(4) 0.5192(2) 0.1269(1)
C4 C 0.0086(5) 0.4546(3) -0.0447(1)
O5 O 0.1828(5) 0.4368(2) 0.1678(1)
C5 C 0.0659(5) 0.5445(2) 0.0014(1)
C6 C 0.4522(6) 0.5582(3) 0.0033(2)
C7 C 0.2516(6) 0.6134(2) -0.0216(2)
C8 C 0.2146(13) 0.2647(4) -0.1421(3)
C9 C 0.3712(9) 0.3496(4) -0.1547(2)
C10 C 0.1668(5) 0.6426(3) 0.1533(1)
C11 C 0.3715(6) 0.6572(3) 0.1737(2)
C12 C 0.4361(7) 0.7572(3) 0.1939(2)
C13 C 0.3002(7) 0.8428(3) 0.1944(2)
C14 C 0.0992(7) 0.8267(3) 0.1721(2)
C15 C 0.0298(6) 0.7279(3) 0.1516(2)
C16 C 0.3696(8) 0.9513(3) 0.2193(2)
H1 H 0.4581 0.4400 0.0743
H2 H 0.3511 0.7484 -0.0063
H3 H 0.4790 0.3396 -0.0208
H4 H 0.2801 0.3034 0.0187
H5 H -0.1022 0.4106 -0.0261
H6 H -0.0485 0.4858 -0.0831
H7 H -0.0590 0.5881 0.0121
H8 H 0.5149 0.6025 0.0324
H9 H 0.5610(60) 0.5420(30) -0.0310(15)
H10 H 0.2360(50) 0.6210(20) -0.0689(16)
H11 H 0.1089 0.2627 -0.1756
H12 H 0.2853 0.1958 -0.1405
H13 H 0.5153 0.3246 -0.1468
H14 H 0.3614 0.3742 -0.1981
H15 H 0.4668 0.6002 0.1741
H16 H 0.5760 0.7665 0.2075
H17 H 0.0053 0.8843 0.1706
H18 H -0.1090 0.7192 0.1369
H19 H 0.2527 1.0006 0.2164
H20 H 0.4872 0.9773 0.1946
H21 H 0.4129 0.9444 0.2626
O6? O 0.5536(13) 0.6316(6) 0.0505(4)
H22? H 0.6065 0.6828 0.0321
H23? H 0.2396 0.6791 -0.0038
loop_
_geom_bond_atom_site_label_1
_geom_bond_atom_site_label_2
_geom_bond_site_symmetry_1
_geom_bond_site_symmetry_2
S1 N1 1_555 1_555
N1 C1 1_555 1_555
C1 C2 1_555 1_555
O1 C7 1_555 1_555
O2 C3 1_555 1_555
C2 C3 1_555 1_555
C3 O3 1_555 1_555
O3 C9 1_555 1_555
O4 S1 1_555 1_555
C4 C3 1_555 1_555
O5 S1 1_555 1_555
C5 N1 1_555 1_555
C6 C1 1_555 1_555
C7 C5 1_555 1_555
C8 O2 1_555 1_555
C9 C8 1_555 1_555
C10 S1 1_555 1_555
C11 C10 1_555 1_555
C12 C11 1_555 1_555
C13 C12 1_555 1_555
C14 C13 1_555 1_555
C15 C10 1_555 1_555
C16 C13 1_555 1_555
H1 C1 1_555 1_555
H2 O1 1_555 1_555
H3 C2 1_555 1_555
H4 C2 1_555 1_555
H5 C4 1_555 1_555
H6 C4 1_555 1_555
H7 C5 1_555 1_555
H8 C6 1_555 1_555
H9 C6 1_555 1_555
H10 C7 1_555 1_555
H11 C8 1_555 1_555
H12 C8 1_555 1_555
H13 C9 1_555 1_555
H14 C9 1_555 1_555
H15 C11 1_555 1_555
H16 C12 1_555 1_555
H17 C14 1_555 1_555
H18 C15 1_555 1_555
H19 C16 1_555 1_555
H20 C16 1_555 1_555
H21 C16 1_555 1_555
C4 C5 1_555 1_555
C6 C7 1_555 1_555
C14 C15 1_555 1_555

#END
