
#######################################################################
#
#                 Cambridge Crystallographic Data Centre
#                                CCDC 
#
#######################################################################
#
# If this CIF has been generated from an entry in the Cambridge 
# Structural Database, then it will include bibliographic, chemical, 
# crystal, experimental, refinement or atomic coordinate data resulting 
# from the CCDC's data processing and validation procedures.
#
#######################################################################

data_AVECUB
_chemical_formula_moiety         'C26 H35 N3'
_chemical_name_systematic        
1H-pyrrole-2,5-diylbis(N-(tricyclo[3.3.1.1^3,7^]decan-1-yl)methanimine)
_symmetry_cell_setting           monoclinic
_symmetry_space_group_name_H-M   'C 2/c'
_symmetry_Int_Tables_number      15
_space_group_name_Hall           '-C 2yn'
loop_
_symmetry_equiv_pos_site_id
_symmetry_equiv_pos_as_xyz
1 x,y,z
2 -x,y,1/2-z
3 1/2+x,1/2+y,z
4 1/2-x,1/2+y,1/2-z
5 -x,-y,-z
6 x,-y,1/2+z
7 1/2-x,1/2-y,-z
8 1/2+x,1/2-y,1/2+z
_cell_length_a                   25.4797(19)
_cell_length_b                   6.8484(4)
_cell_length_c                   27.753(2)
_cell_angle_alpha                90
_cell_angle_beta                 112.294(8)
_cell_angle_gamma                90
_cell_volume                     4480.77
_exptl_crystal_colour            colorless
_exptl_crystal_description       block
_cell_formula_units_Z            8
loop_
_atom_site_label
_atom_site_type_symbol
_atom_site_fract_x
_atom_site_fract_y
_atom_site_fract_z
N1 N 0.01378(10) 0.0412(4) 0.13979(10)
H1 H 0.0018 0.1559 0.1282
N2 N -0.07707(11) 0.1564(4) 0.16902(10)
N3 N 0.07169(11) 0.1881(4) 0.07823(11)
C1 C 0.05642(13) -0.0559(5) 0.13144(12)
C2 C 0.06257(15) -0.2326(6) 0.15621(13)
H2 H 0.0885 -0.3295 0.1571
C3 C 0.02299(15) -0.2414(5) 0.17990(13)
H3 H 0.0179 -0.3449 0.1994
C4 C -0.00699(13) -0.0700(5) 0.16918(11)
C5 C -0.05307(12) -0.0059(5) 0.18344(11)
H4 H -0.0654 -0.0870 0.2039
C6 C 0.08489(13) 0.0242(5) 0.09992(12)
H5 H 0.1138 -0.0472 0.0955
C7 C -0.12400(12) 0.2171(4) 0.18417(11)
C8 C -0.13959(15) 0.0751(5) 0.21937(15)
H6 H -0.1067 0.0523 0.2511
H7 H -0.1512 -0.0489 0.2017
C9 C -0.18894(16) 0.1613(6) 0.23333(17)
H8 H -0.1986 0.0719 0.2563
C10 C -0.16892(19) 0.3540(7) 0.25999(16)
H9 H -0.1978 0.4071 0.2711
H10 H -0.1349 0.3333 0.2908
C11 C -0.23912(17) 0.1873(7) 0.18235(18)
H11 H -0.2490 0.0622 0.1648
H12 H -0.2715 0.2333 0.1894
C12 C -0.15658(18) 0.4978(6) 0.22536(16)
H13 H -0.1454 0.6237 0.2431
C13 C -0.10746(15) 0.4118(5) 0.21187(16)
H14 H -0.0977 0.5027 0.1898
H15 H -0.0743 0.3945 0.2436
C14 C -0.22618(15) 0.3291(6) 0.14776(15)
H16 H -0.2596 0.3480 0.1157
C15 C -0.17600(15) 0.2462(6) 0.13464(14)
H17 H -0.1870 0.1225 0.1166
H18 H -0.1671 0.3362 0.1118
C16 C 0.09936(12) 0.2653(5) 0.04431(12)
C17 C 0.05664(19) 0.2566(9) -0.01064(16)
H19 H 0.0215 0.3172 -0.0126
H20 H 0.0488 0.1216 -0.0215
C18 C 0.1148(2) 0.4734(6) 0.05989(19)
H21 H 0.1417 0.4784 0.0956
H22 H 0.0811 0.5450 0.0578
C19 C 0.15227(19) 0.1587(8) 0.0458(2)
H23 H 0.1431 0.0233 0.0360
H24 H 0.1808 0.1617 0.0810
C20 C 0.1761(2) 0.2556(7) 0.0082(2)
H25 H 0.2099 0.1851 0.0092
C21 C 0.19094(19) 0.4592(9) 0.0244(2)
H26 H 0.2063 0.5212 0.0012
H27 H 0.2200 0.4616 0.0593
C22 C 0.1321(3) 0.2508(9) -0.0457(2)
H28 H 0.1211 0.1168 -0.0559
H29 H 0.1475 0.3054 -0.0698
C23 C 0.1409(3) 0.5693(7) 0.0238(2)
H30 H 0.1521 0.7037 0.0352
C24 C 0.0809(2) 0.3676(13) -0.04792(17)
H31 H 0.0525 0.3713 -0.0836
C25 C 0.0976(3) 0.5710(10) -0.0276(3)
H32 H 0.1112 0.6410 -0.0509
H33 H 0.0645 0.6394 -0.0269
C26 C -0.20639(17) 0.5233(6) 0.17462(16)
H34 H -0.1957 0.6085 0.1519
H35 H -0.2373 0.5849 0.1812
loop_
_geom_bond_atom_site_label_1
_geom_bond_atom_site_label_2
_geom_bond_site_symmetry_1
_geom_bond_site_symmetry_2
N1 H1 1_555 1_555
N2 C5 1_555 1_555
N3 C6 1_555 1_555
C1 N1 1_555 1_555
C2 C1 1_555 1_555
H2 C2 1_555 1_555
C3 C2 1_555 1_555
H3 C3 1_555 1_555
C4 N1 1_555 1_555
C5 C4 1_555 1_555
H4 C5 1_555 1_555
C6 C1 1_555 1_555
H5 C6 1_555 1_555
C7 N2 1_555 1_555
C8 C7 1_555 1_555
H6 C8 1_555 1_555
H7 C8 1_555 1_555
C9 C8 1_555 1_555
H8 C9 1_555 1_555
C10 C9 1_555 1_555
H9 C10 1_555 1_555
H10 C10 1_555 1_555
C11 C9 1_555 1_555
H11 C11 1_555 1_555
H12 C11 1_555 1_555
C12 C10 1_555 1_555
H13 C12 1_555 1_555
C13 C7 1_555 1_555
H14 C13 1_555 1_555
H15 C13 1_555 1_555
C14 C11 1_555 1_555
H16 C14 1_555 1_555
C15 C7 1_555 1_555
H17 C15 1_555 1_555
H18 C15 1_555 1_555
C16 N3 1_555 1_555
C17 C16 1_555 1_555
H19 C17 1_555 1_555
H20 C17 1_555 1_555
C18 C16 1_555 1_555
H21 C18 1_555 1_555
H22 C18 1_555 1_555
C19 C16 1_555 1_555
H23 C19 1_555 1_555
H24 C19 1_555 1_555
C20 C19 1_555 1_555
H25 C20 1_555 1_555
C21 C20 1_555 1_555
H26 C21 1_555 1_555
H27 C21 1_555 1_555
C22 C20 1_555 1_555
H28 C22 1_555 1_555
H29 C22 1_555 1_555
C23 C18 1_555 1_555
H30 C23 1_555 1_555
C24 C17 1_555 1_555
H31 C24 1_555 1_555
C25 C23 1_555 1_555
H32 C25 1_555 1_555
H33 C25 1_555 1_555
C26 C12 1_555 1_555
H34 C26 1_555 1_555
H35 C26 1_555 1_555
C3 C4 1_555 1_555
C12 C13 1_555 1_555
C14 C15 1_555 1_555
C14 C26 1_555 1_555
C21 C23 1_555 1_555
C22 C24 1_555 1_555
C24 C25 1_555 1_555

#END
