
#######################################################################
#
#                 Cambridge Crystallographic Data Centre
#                                CCDC 
#
#######################################################################
#
# If this CIF has been generated from an entry in the Cambridge 
# Structural Database, then it will include bibliographic, chemical, 
# crystal, experimental, refinement or atomic coordinate data resulting 
# from the CCDC's data processing and validation procedures.
#
#######################################################################

data_AVEDIQ
_chemical_formula_moiety         'C56 H58 N3 Na1 O3'
_chemical_name_systematic        
(2,5-bis(((trityl)imino)methyl)-1H-pyrrol-1-yl)-tris(tetrahydrofuran)-sodium
_symmetry_cell_setting           triclinic
_symmetry_space_group_name_H-M   'P -1'
_symmetry_Int_Tables_number      2
_space_group_name_Hall           '-P 1'
loop_
_symmetry_equiv_pos_site_id
_symmetry_equiv_pos_as_xyz
1 x,y,z
2 -x,-y,-z
_cell_length_a                   8.8522(3)
_cell_length_b                   9.4272(3)
_cell_length_c                   29.1528(8)
_cell_angle_alpha                81.636(3)
_cell_angle_beta                 88.161(2)
_cell_angle_gamma                74.457(3)
_cell_volume                     2318.88
_exptl_crystal_colour            colorless
_exptl_crystal_description       plates
_cell_formula_units_Z            2
loop_
_atom_site_label
_atom_site_type_symbol
_atom_site_fract_x
_atom_site_fract_y
_atom_site_fract_z
Na1 Na 0.53114(7) 0.71682(6) 0.28149(2)
O1 O 0.29541(17) 0.85523(15) 0.24565(6)
O2 O 0.72131(14) 0.55594(14) 0.24190(4)
O3 O 0.40365(15) 0.51887(14) 0.29675(5)
N1 N 0.66971(14) 0.90839(13) 0.26637(4)
N2 N 0.61543(14) 0.76398(13) 0.35835(4)
N3 N 0.70253(14) 1.12261(14) 0.15510(4)
C1 C 0.71185(16) 1.00805(16) 0.23317(5)
C2 C 0.79997(17) 1.08989(17) 0.25190(5)
H1 H 0.8405 1.1643 0.2360
C3 C 0.81409(18) 1.03720(17) 0.29883(5)
H2 H 0.8665 1.0689 0.3208
C4 C 0.73321(16) 0.92592(16) 0.30661(5)
C5 C 0.70759(16) 0.84892(16) 0.35150(5)
H3 H 0.7610 0.8617 0.3769
C6 C 0.66582(16) 1.02450(16) 0.18496(5)
H4 H 0.6093 0.9632 0.1758
C7 C 0.58434(16) 0.69449(15) 0.40548(5)
C8 C 0.66762(15) 0.73215(15) 0.44618(5)
C9 C 0.63231(16) 0.87961(16) 0.45479(5)
H5 H 0.5643 0.9535 0.4349
C10 C 0.69636(17) 0.91792(17) 0.49226(5)
H6 H 0.6730 1.0171 0.4968
C11 C 0.79565(17) 0.80898(18) 0.52323(5)
H7 H 0.8383 0.8346 0.5486
C12 C 0.82983(18) 0.66228(18) 0.51579(5)
H8 H 0.8947 0.5884 0.5365
C13 C 0.76769(16) 0.62445(16) 0.47741(5)
H9 H 0.7934 0.5255 0.4725
C14 C 0.63531(16) 0.52538(15) 0.40425(5)
C15 C 0.78574(18) 0.46264(17) 0.38832(5)
H10 H 0.8491 0.5240 0.3770
C16 C 0.84156(19) 0.31026(18) 0.38914(5)
H11 H 0.9422 0.2702 0.3787
C17 C 0.7482(2) 0.21726(17) 0.40543(6)
H12 H 0.7860 0.1149 0.4062
C18 C 0.59865(19) 0.27807(17) 0.42045(5)
H13 H 0.5349 0.2164 0.4311
C19 C 0.54254(17) 0.43107(16) 0.41977(5)
H14 H 0.4413 0.4706 0.4299
C20 C 0.40636(16) 0.74943(15) 0.41370(5)
C21 C 0.34550(17) 0.72083(16) 0.45769(5)
H15 H 0.4135 0.6698 0.4819
C22 C 0.18651(18) 0.76646(17) 0.46628(5)
H16 H 0.1490 0.7472 0.4961
C23 C 0.0838(2) 0.8404(2) 0.43078(7)
H17 H -0.0235 0.8693 0.4361
C24 C 0.1425(2) 0.8710(3) 0.38718(7)
H18 H 0.0739 0.9214 0.3631
C25 C 0.3024(2) 0.8277(2) 0.37869(6)
H19 H 0.3398 0.8516 0.3492
C26 C 0.65299(17) 1.14774(16) 0.10603(5)
C27 C 0.79076(17) 1.18755(16) 0.07781(5)
C28 C 0.8768(2) 1.2697(2) 0.09623(6)
H20 H 0.8512 1.2987 0.1253
C29 C 0.9999(2) 1.3090(2) 0.07204(6)
H21 H 1.0563 1.3636 0.0850
C30 C 1.0397(2) 1.2674(2) 0.02865(6)
H22 H 1.1232 1.2930 0.0125
C31 C 0.95398(19) 1.18778(18) 0.00970(5)
H23 H 0.9794 1.1598 -0.0195
C32 C 0.82964(18) 1.14890(17) 0.03389(5)
H24 H 0.7718 1.0964 0.0205
C33 C 0.51256(17) 1.28743(17) 0.09889(5)
C34 C 0.44000(19) 1.35562(19) 0.13592(6)
H25 H 0.4748 1.3158 0.1660
C35 C 0.3153(2) 1.4833(2) 0.12832(6)
H26 H 0.2680 1.5282 0.1534
C36 C 0.26113(19) 1.54410(19) 0.08404(7)
H27 H 0.1777 1.6292 0.0793
C37 C 0.33227(19) 1.47717(19) 0.04680(6)
H28 H 0.2963 1.5171 0.0168
C38 C 0.45681(18) 1.35083(18) 0.05411(5)
H29 H 0.5043 1.3073 0.0288
C39 C 0.61548(19) 1.01079(17) 0.09119(5)
C40 C 0.7374(2) 0.88166(18) 0.09049(5)
H30 H 0.8387 0.8823 0.0977
C41 C 0.7106(2) 0.7523(2) 0.07922(6)
H31 H 0.7937 0.6680 0.0784
C42 C 0.5600(3) 0.7491(2) 0.06919(6)
H32 H 0.5412 0.6626 0.0618
C43 C 0.4382(3) 0.8749(2) 0.07022(6)
H33 H 0.3368 0.8728 0.0637
C44 C 0.4646(2) 1.0058(2) 0.08097(5)
H34 H 0.3811 1.0900 0.0813
C45 C 0.2530(2) 1.0131(2) 0.23482(8)
H35 H 0.3436 1.0510 0.2373
H36 H 0.1732 1.0574 0.2559
C46 C 0.1911(3) 1.0492(2) 0.18591(8)
H37 H 0.2714 1.0679 0.1643
H38 H 0.1015 1.1359 0.1827
C47 C 0.1439(3) 0.9121(3) 0.17762(8)
H39 H 0.2054 0.8659 0.1530
H40 H 0.0336 0.9367 0.1695
C48 C 0.1777(3) 0.8097(3) 0.22389(9)
H41 H 0.0840 0.8211 0.2427
H42 H 0.2153 0.7065 0.2190
C49 C 0.7359(2) 0.5692(3) 0.19277(7)
H43 H 0.6658 0.6613 0.1782
H44 H 0.7110 0.4866 0.1812
C50 C 0.9044(2) 0.5680(3) 0.18295(7)
H45 H 0.9402 0.5257 0.1549
H46 H 0.9182 0.6676 0.1799
C51 C 0.9895(2) 0.4721(2) 0.22469(7)
H47 H 1.0865 0.4965 0.2302
H48 H 1.0124 0.3674 0.2215
C52 C 0.8734(2) 0.5107(3) 0.26265(7)
H49 H 0.8819 0.4249 0.2862
H50 H 0.8929 0.5906 0.2770
C53 C 0.2695(2) 0.5091(3) 0.32382(7)
H51 H 0.1748 0.5690 0.3076
H52 H 0.2746 0.5447 0.3532
C54 C 0.2691(3) 0.3462(3) 0.33188(9)
H53 H 0.2990 0.3020 0.3636
H54 H 0.1665 0.3348 0.3255
C55 C 0.3882(3) 0.2767(3) 0.29841(11)
H55 H 0.4435 0.1758 0.3112
H56 H 0.3389 0.2748 0.2693
C56 C 0.4954(3) 0.3726(2) 0.29169(9)
H57 H 0.5791 0.3390 0.3146
H58 H 0.5414 0.3711 0.2611
loop_
_geom_bond_atom_site_label_1
_geom_bond_atom_site_label_2
_geom_bond_site_symmetry_1
_geom_bond_site_symmetry_2
Na1 O1 1_555 1_555
O1 C45 1_555 1_555
O2 Na1 1_555 1_555
O3 Na1 1_555 1_555
N1 Na1 1_555 1_555
N2 Na1 1_555 1_555
N3 C6 1_555 1_555
C1 N1 1_555 1_555
C2 C1 1_555 1_555
H1 C2 1_555 1_555
C3 C2 1_555 1_555
H2 C3 1_555 1_555
C4 N1 1_555 1_555
C5 N2 1_555 1_555
H3 C5 1_555 1_555
C6 C1 1_555 1_555
H4 C6 1_555 1_555
C7 N2 1_555 1_555
C8 C7 1_555 1_555
C9 C8 1_555 1_555
H5 C9 1_555 1_555
C10 C9 1_555 1_555
H6 C10 1_555 1_555
C11 C10 1_555 1_555
H7 C11 1_555 1_555
C12 C11 1_555 1_555
H8 C12 1_555 1_555
C13 C8 1_555 1_555
H9 C13 1_555 1_555
C14 C7 1_555 1_555
C15 C14 1_555 1_555
H10 C15 1_555 1_555
C16 C15 1_555 1_555
H11 C16 1_555 1_555
C17 C16 1_555 1_555
H12 C17 1_555 1_555
C18 C17 1_555 1_555
H13 C18 1_555 1_555
C19 C14 1_555 1_555
H14 C19 1_555 1_555
C20 C7 1_555 1_555
C21 C20 1_555 1_555
H15 C21 1_555 1_555
C22 C21 1_555 1_555
H16 C22 1_555 1_555
C23 C22 1_555 1_555
H17 C23 1_555 1_555
C24 C23 1_555 1_555
H18 C24 1_555 1_555
C25 C20 1_555 1_555
H19 C25 1_555 1_555
C26 N3 1_555 1_555
C27 C26 1_555 1_555
C28 C27 1_555 1_555
H20 C28 1_555 1_555
C29 C28 1_555 1_555
H21 C29 1_555 1_555
C30 C29 1_555 1_555
H22 C30 1_555 1_555
C31 C30 1_555 1_555
H23 C31 1_555 1_555
C32 C27 1_555 1_555
H24 C32 1_555 1_555
C33 C26 1_555 1_555
C34 C33 1_555 1_555
H25 C34 1_555 1_555
C35 C34 1_555 1_555
H26 C35 1_555 1_555
C36 C35 1_555 1_555
H27 C36 1_555 1_555
C37 C36 1_555 1_555
H28 C37 1_555 1_555
C38 C33 1_555 1_555
H29 C38 1_555 1_555
C39 C26 1_555 1_555
C40 C39 1_555 1_555
H30 C40 1_555 1_555
C41 C40 1_555 1_555
H31 C41 1_555 1_555
C42 C41 1_555 1_555
H32 C42 1_555 1_555
C43 C42 1_555 1_555
H33 C43 1_555 1_555
C44 C39 1_555 1_555
H34 C44 1_555 1_555
C45 H35 1_555 1_555
H36 C45 1_555 1_555
C46 C45 1_555 1_555
H37 C46 1_555 1_555
H38 C46 1_555 1_555
C47 C46 1_555 1_555
H39 C47 1_555 1_555
H40 C47 1_555 1_555
C48 O1 1_555 1_555
H41 C48 1_555 1_555
H42 C48 1_555 1_555
C49 O2 1_555 1_555
H43 C49 1_555 1_555
H44 C49 1_555 1_555
C50 C49 1_555 1_555
H45 C50 1_555 1_555
H46 C50 1_555 1_555
C51 C50 1_555 1_555
H47 C51 1_555 1_555
H48 C51 1_555 1_555
C52 O2 1_555 1_555
H49 C52 1_555 1_555
H50 C52 1_555 1_555
C53 O3 1_555 1_555
H51 C53 1_555 1_555
H52 C53 1_555 1_555
C54 C53 1_555 1_555
H53 C54 1_555 1_555
H54 C54 1_555 1_555
C55 C54 1_555 1_555
H55 C55 1_555 1_555
H56 C55 1_555 1_555
C56 O3 1_555 1_555
H57 C56 1_555 1_555
H58 C56 1_555 1_555
C3 C4 1_555 1_555
C4 C5 1_555 1_555
C12 C13 1_555 1_555
C18 C19 1_555 1_555
C24 C25 1_555 1_555
C31 C32 1_555 1_555
C37 C38 1_555 1_555
C43 C44 1_555 1_555
C47 C48 1_555 1_555
C51 C52 1_555 1_555
C55 C56 1_555 1_555

#END
