
#######################################################################
#
#                 Cambridge Crystallographic Data Centre
#                                CCDC 
#
#######################################################################
#
# If this CIF has been generated from an entry in the Cambridge 
# Structural Database, then it will include bibliographic, chemical, 
# crystal, experimental, refinement or atomic coordinate data resulting 
# from the CCDC's data processing and validation procedures.
#
#######################################################################

data_AVEDEM
_chemical_formula_moiety         'C52 H50 Li1 N3 O2'
_chemical_name_systematic        
(2,5-bis(((trityl)imino)methyl)-1H-pyrrol-1-yl)-bis(tetrahydrofuran)-lithium
_symmetry_cell_setting           triclinic
_symmetry_space_group_name_H-M   'P -1'
_symmetry_Int_Tables_number      2
_space_group_name_Hall           '-P 1'
loop_
_symmetry_equiv_pos_site_id
_symmetry_equiv_pos_as_xyz
1 x,y,z
2 -x,-y,-z
_cell_length_a                   9.0800(8)
_cell_length_b                   12.8271(10)
_cell_length_c                   18.6899(14)
_cell_angle_alpha                92.384(6)
_cell_angle_beta                 95.649(7)
_cell_angle_gamma                106.228(7)
_cell_volume                     2074.49
_exptl_crystal_colour            colorless
_exptl_crystal_description       plates
_cell_formula_units_Z            2
loop_
_atom_site_label
_atom_site_type_symbol
_atom_site_fract_x
_atom_site_fract_y
_atom_site_fract_z
Li1 Li 0.2321(4) 0.4436(2) 0.21828(16)
N1 N 0.07065(16) 0.51924(11) 0.22874(7)
N2 N 0.05911(16) 0.32372(11) 0.14901(7)
N3 N 0.26323(17) 0.69025(11) 0.33797(8)
O1 O 0.30018(16) 0.39151(13) 0.30748(7)
O2 O 0.40252(15) 0.52051(10) 0.16808(7)
C1 C -0.0584(2) 0.45930(14) 0.18555(9)
C2 C -0.1812(2) 0.50585(15) 0.18783(10)
H1 H -0.2803 0.4793 0.1638
C3 C -0.1232(2) 0.59970(15) 0.23354(10)
H2 H -0.1756 0.6494 0.2458
C4 C 0.0307(2) 0.60478(13) 0.25774(9)
C5 C 0.1307(2) 0.69076(14) 0.30775(9)
H3 H 0.0961 0.7506 0.3187
C6 C -0.0587(2) 0.36196(14) 0.14465(9)
C7 C 0.3483(2) 0.78263(13) 0.39071(9)
C8 C 0.5207(2) 0.78882(14) 0.39374(9)
C9 C 0.5650(2) 0.69466(15) 0.38369(10)
H4 H 0.4898 0.6287 0.3714
C10 C 0.7194(2) 0.69707(17) 0.39166(10)
H5 H 0.7467 0.6331 0.3843
C11 C 0.8328(2) 0.79428(18) 0.41043(11)
H6 H 0.9363 0.7958 0.4163
C12 C 0.7913(2) 0.88895(17) 0.42033(11)
H7 H 0.8671 0.9546 0.4327
C13 C 0.6368(2) 0.88674(15) 0.41184(10)
H8 H 0.6101 0.9511 0.4183
C14 C 0.2997(2) 0.75569(13) 0.46666(9)
C15 C 0.1784(2) 0.66612(15) 0.47750(10)
H9 H 0.1224 0.6207 0.4381
C16 C 0.1394(2) 0.64344(17) 0.54642(11)
H10 H 0.0586 0.5826 0.5525
C17 C 0.2190(2) 0.70992(17) 0.60593(11)
H11 H 0.1922 0.6945 0.6519
C18 C 0.3397(2) 0.80024(16) 0.59591(10)
H12 H 0.3934 0.8465 0.6354
C19 C 0.3804(2) 0.82169(14) 0.52754(10)
H13 H 0.4634 0.8814 0.5219
C20 C 0.3203(2) 0.88968(14) 0.36739(9)
C21 C 0.2409(2) 0.94781(14) 0.40545(10)
H14 H 0.2110 0.9263 0.4500
C22 C 0.2060(2) 1.03836(15) 0.37710(12)
H15 H 0.1545 1.0773 0.4034
C23 C 0.2469(2) 1.07048(16) 0.31090(12)
H16 H 0.2208 1.1296 0.2918
C24 C 0.3276(2) 1.01404(16) 0.27263(11)
H17 H 0.3564 1.0357 0.2279
C25 C 0.3651(2) 0.92534(15) 0.30115(10)
H18 H 0.4212 0.8890 0.2757
C26 C 0.04350(19) 0.21912(13) 0.10742(9)
C27 C -0.0495(2) 0.21232(14) 0.03258(9)
C28 C -0.0026(2) 0.29755(15) -0.01185(10)
H19 H 0.0803 0.3572 0.0052
C29 C -0.0761(2) 0.29562(16) -0.08060(10)
H20 H -0.0431 0.3534 -0.1092
C30 C -0.1994(2) 0.20653(17) -0.10647(10)
H21 H -0.2483 0.2036 -0.1529
C31 C -0.2493(2) 0.12239(16) -0.06308(10)
H22 H -0.3332 0.0633 -0.0801
C32 C -0.1747(2) 0.12523(14) 0.00628(10)
H23 H -0.2095 0.0680 0.0351
C33 C 0.20780(19) 0.21284(13) 0.09798(9)
C34 C 0.2460(2) 0.17185(14) 0.03450(10)
H24 H 0.1722 0.1516 -0.0056
C35 C 0.3928(2) 0.16070(15) 0.03010(11)
H25 H 0.4162 0.1327 -0.0127
C36 C 0.5043(2) 0.19090(15) 0.08884(12)
H26 H 0.6023 0.1832 0.0858
C37 C 0.4690(2) 0.23271(15) 0.15230(11)
H27 H 0.5439 0.2540 0.1919
C38 C 0.3220(2) 0.24298(14) 0.15691(10)
H28 H 0.2991 0.2704 0.2000
C39 C -0.03192(19) 0.12313(13) 0.15235(9)
C40 C -0.0128(2) 0.02052(14) 0.13766(10)
H29 H 0.0473 0.0110 0.1018
C41 C -0.0816(2) -0.06754(15) 0.17538(10)
H30 H -0.0676 -0.1353 0.1645
C42 C -0.1708(3) -0.05527(16) 0.22907(11)
H31 H -0.2176 -0.1144 0.2542
C43 C -0.1896(3) 0.04568(17) 0.24488(12)
H32 H -0.2487 0.0548 0.2813
C44 C -0.1209(2) 0.13454(15) 0.20697(11)
H33 H -0.1348 0.2022 0.2184
C45 C 0.1922(3) 0.3765(2) 0.36009(11)
H34 H 0.1236 0.3029 0.3545
H35 H 0.1306 0.4271 0.3545
C46 C 0.2833(3) 0.3968(4) 0.43040(14)
H36 H 0.2354 0.3435 0.4627
H37 H 0.2895 0.4687 0.4511
C47 C 0.4376(4) 0.3890(3) 0.42079(12)
H38 H 0.4541 0.3245 0.4415
H39 H 0.5157 0.4525 0.4440
C48 C 0.4454(2) 0.38258(17) 0.34048(11)
H40 H 0.5298 0.4414 0.3278
H41 H 0.4612 0.3139 0.3247
C49 C 0.4759(2) 0.63267(16) 0.19301(11)
H42 H 0.5551 0.6376 0.2328
H43 H 0.4006 0.6665 0.2091
C50 C 0.5467(3) 0.68864(17) 0.12955(12)
H44 H 0.5171 0.7548 0.1223
H45 H 0.6585 0.7068 0.1372
C51 C 0.4842(5) 0.6080(2) 0.06688(14)
H46 H 0.4319 0.6393 0.0294
H47 H 0.5674 0.5868 0.0472
C52 C 0.3777(3) 0.5151(2) 0.09164(12)
H48 H 0.2725 0.5148 0.0761
H49 H 0.3937 0.4486 0.0716
H50 H -0.155(2) 0.3266(17) 0.1133(11)
loop_
_geom_bond_atom_site_label_1
_geom_bond_atom_site_label_2
_geom_bond_site_symmetry_1
_geom_bond_site_symmetry_2
Li1 N1 1_555 1_555
N1 C1 1_555 1_555
N2 Li1 1_555 1_555
N3 C5 1_555 1_555
O1 Li1 1_555 1_555
O2 Li1 1_555 1_555
C1 C2 1_555 1_555
C2 H1 1_555 1_555
C3 C2 1_555 1_555
H2 C3 1_555 1_555
C4 N1 1_555 1_555
C5 C4 1_555 1_555
H3 C5 1_555 1_555
C6 N2 1_555 1_555
C7 N3 1_555 1_555
C8 C7 1_555 1_555
C9 C8 1_555 1_555
H4 C9 1_555 1_555
C10 C9 1_555 1_555
H5 C10 1_555 1_555
C11 C10 1_555 1_555
H6 C11 1_555 1_555
C12 C11 1_555 1_555
H7 C12 1_555 1_555
C13 C8 1_555 1_555
H8 C13 1_555 1_555
C14 C7 1_555 1_555
C15 C14 1_555 1_555
H9 C15 1_555 1_555
C16 C15 1_555 1_555
H10 C16 1_555 1_555
C17 C16 1_555 1_555
H11 C17 1_555 1_555
C18 C17 1_555 1_555
H12 C18 1_555 1_555
C19 C14 1_555 1_555
H13 C19 1_555 1_555
C20 C7 1_555 1_555
C21 C20 1_555 1_555
H14 C21 1_555 1_555
C22 C21 1_555 1_555
H15 C22 1_555 1_555
C23 C22 1_555 1_555
H16 C23 1_555 1_555
C24 C23 1_555 1_555
H17 C24 1_555 1_555
C25 C20 1_555 1_555
H18 C25 1_555 1_555
C26 N2 1_555 1_555
C27 C26 1_555 1_555
C28 C27 1_555 1_555
H19 C28 1_555 1_555
C29 C28 1_555 1_555
H20 C29 1_555 1_555
C30 C29 1_555 1_555
H21 C30 1_555 1_555
C31 C30 1_555 1_555
H22 C31 1_555 1_555
C32 C27 1_555 1_555
H23 C32 1_555 1_555
C33 C26 1_555 1_555
C34 C33 1_555 1_555
H24 C34 1_555 1_555
C35 C34 1_555 1_555
H25 C35 1_555 1_555
C36 C35 1_555 1_555
H26 C36 1_555 1_555
C37 C36 1_555 1_555
H27 C37 1_555 1_555
C38 C33 1_555 1_555
H28 C38 1_555 1_555
C39 C26 1_555 1_555
C40 C39 1_555 1_555
H29 C40 1_555 1_555
C41 C40 1_555 1_555
H30 C41 1_555 1_555
C42 C41 1_555 1_555
H31 C42 1_555 1_555
C43 C42 1_555 1_555
H32 C43 1_555 1_555
C44 C39 1_555 1_555
H33 C44 1_555 1_555
C45 O1 1_555 1_555
H34 C45 1_555 1_555
H35 C45 1_555 1_555
C46 C45 1_555 1_555
H36 C46 1_555 1_555
H37 C46 1_555 1_555
C47 C46 1_555 1_555
H38 C47 1_555 1_555
H39 C47 1_555 1_555
C48 O1 1_555 1_555
H40 C48 1_555 1_555
H41 C48 1_555 1_555
C49 O2 1_555 1_555
H42 C49 1_555 1_555
H43 C49 1_555 1_555
C50 C49 1_555 1_555
H44 C50 1_555 1_555
H45 C50 1_555 1_555
C51 C50 1_555 1_555
H46 C51 1_555 1_555
H47 C51 1_555 1_555
C52 O2 1_555 1_555
H48 C52 1_555 1_555
H49 C52 1_555 1_555
H50 C6 1_555 1_555
C1 C6 1_555 1_555
C3 C4 1_555 1_555
C12 C13 1_555 1_555
C18 C19 1_555 1_555
C24 C25 1_555 1_555
C31 C32 1_555 1_555
C37 C38 1_555 1_555
C43 C44 1_555 1_555
C47 C48 1_555 1_555
C51 C52 1_555 1_555

#END
