
#######################################################################
#
#                 Cambridge Crystallographic Data Centre
#                                CCDC 
#
#######################################################################
#
# If this CIF has been generated from an entry in the Cambridge 
# Structural Database, then it will include bibliographic, chemical, 
# crystal, experimental, refinement or atomic coordinate data resulting 
# from the CCDC's data processing and validation procedures.
#
#######################################################################

data_AVEGIS
_chemical_formula_moiety         'C25 H32 O3 S1'
_chemical_name_systematic        2-Benzyl-12-(phenylsulfonyl)cyclododecanone
_symmetry_cell_setting           triclinic
_symmetry_space_group_name_H-M   'P -1'
_symmetry_Int_Tables_number      2
_space_group_name_Hall           '-P 1'
loop_
_symmetry_equiv_pos_site_id
_symmetry_equiv_pos_as_xyz
1 x,y,z
2 -x,-y,-z
_cell_length_a                   9.6531(4)
_cell_length_b                   11.2703(5)
_cell_length_c                   11.7486(5)
_cell_angle_alpha                89.278(2)
_cell_angle_beta                 75.582(2)
_cell_angle_gamma                65.385(2)
_cell_volume                     1119.38
_exptl_crystal_colour            colorless
_exptl_crystal_description       block
_cell_formula_units_Z            2
loop_
_atom_site_label
_atom_site_type_symbol
_atom_site_fract_x
_atom_site_fract_y
_atom_site_fract_z
C1 C 0.2330(2) 0.65302(16) 0.45298(16)
H1 H 0.2462 0.6158 0.5275
C2 C 0.0666(2) 0.68113(19) 0.44815(18)
H2 H 0.0603 0.5984 0.4378
H3 H 0.0462 0.7273 0.3796
C3 C -0.0624(2) 0.76282(19) 0.55833(18)
H4 H -0.0534 0.8441 0.5700
H5 H -0.1648 0.7854 0.5441
C4 C -0.0572(2) 0.69580(19) 0.67106(18)
H6 H 0.0454 0.6725 0.6851
H7 H -0.0677 0.6151 0.6599
C5 C -0.1857(3) 0.7792(2) 0.78068(19)
H8 H -0.2883 0.8034 0.7663
H9 H -0.1801 0.7262 0.8466
C6 C -0.1735(2) 0.9038(2) 0.81536(19)
H10 H -0.2688 0.9580 0.8758
H11 H -0.1690 0.9527 0.7470
C7 C -0.0301(3) 0.8803(2) 0.86157(18)
H12 H -0.0634 0.8900 0.9472
H13 H 0.0477 0.7905 0.8362
C8 C 0.0493(3) 0.9718(2) 0.82131(19)
H14 H 0.1223 0.9625 0.8682
H15 H -0.0312 1.0616 0.8378
C9 C 0.1397(2) 0.94846(18) 0.69053(18)
H16 H 0.0678 0.9567 0.6430
H17 H 0.1772 1.0159 0.6724
C10 C 0.2799(2) 0.81465(17) 0.65671(17)
H18 H 0.2420 0.7483 0.6800
H19 H 0.3530 0.8090 0.7024
C11 C 0.3723(2) 0.78040(17) 0.52511(16)
H20 H 0.4577 0.6920 0.5169
C12 C 0.2668(2) 0.77541(16) 0.45191(16)
C13 C 0.3526(2) 0.59684(19) 0.20130(18)
C14 C 0.4285(3) 0.6746(2) 0.1535(2)
H21 H 0.4883 0.6956 0.1936
C15 C 0.4136(4) 0.7200(3) 0.0454(2)
H22 H 0.4616 0.7735 0.0128
C16 C 0.3274(4) 0.6856(3) -0.0136(3)
H23 H 0.3194 0.7148 -0.0871
C17 C 0.2534(4) 0.6093(4) 0.0339(3)
H24 H 0.1945 0.5879 -0.0069
C18 C 0.2656(3) 0.5639(3) 0.1423(2)
H25 H 0.2156 0.5116 0.1748
C19 C 0.4495(2) 0.8733(2) 0.48253(19)
H26 H 0.3671 0.9586 0.4784
H27 H 0.5001 0.8841 0.5409
C20 C 0.5704(2) 0.8286(2) 0.36405(19)
C21 C 0.5518(3) 0.9040(2) 0.2699(2)
H28 H 0.4628 0.9834 0.2799
C22 C 0.6631(3) 0.8631(3) 0.1618(2)
H29 H 0.6484 0.9152 0.0999
C23 C 0.7949(3) 0.7466(3) 0.1447(3)
H30 H 0.8695 0.7190 0.0716
C24 C 0.8157(3) 0.6708(3) 0.2370(2)
H31 H 0.9050 0.5915 0.2264
C25 C 0.7044(2) 0.7118(2) 0.3459(2)
H32 H 0.7204 0.6597 0.4077
O1 O 0.20598(16) 0.86298(12) 0.39517(12)
O2 O 0.53315(15) 0.51491(12) 0.34298(13)
O3 O 0.34451(18) 0.41944(13) 0.34215(14)
S1 S 0.38018(6) 0.53150(4) 0.33485(4)
loop_
_geom_bond_atom_site_label_1
_geom_bond_atom_site_label_2
_geom_bond_site_symmetry_1
_geom_bond_site_symmetry_2
C1 H1 1_555 1_555
C2 C1 1_555 1_555
H2 C2 1_555 1_555
H3 C2 1_555 1_555
C3 C2 1_555 1_555
H4 C3 1_555 1_555
H5 C3 1_555 1_555
C4 C3 1_555 1_555
H6 C4 1_555 1_555
H7 C4 1_555 1_555
C5 C4 1_555 1_555
H8 C5 1_555 1_555
H9 C5 1_555 1_555
C6 C5 1_555 1_555
H10 C6 1_555 1_555
H11 C6 1_555 1_555
C7 C6 1_555 1_555
H12 C7 1_555 1_555
H13 C7 1_555 1_555
C8 C7 1_555 1_555
H14 C8 1_555 1_555
H15 C8 1_555 1_555
C9 C8 1_555 1_555
H16 C9 1_555 1_555
H17 C9 1_555 1_555
C10 C9 1_555 1_555
H18 C10 1_555 1_555
H19 C10 1_555 1_555
C11 C10 1_555 1_555
H20 C11 1_555 1_555
C12 C1 1_555 1_555
C13 C14 1_555 1_555
C14 H21 1_555 1_555
C15 C14 1_555 1_555
H22 C15 1_555 1_555
C16 C15 1_555 1_555
H23 C16 1_555 1_555
C17 C16 1_555 1_555
H24 C17 1_555 1_555
C18 C13 1_555 1_555
H25 C18 1_555 1_555
C19 C11 1_555 1_555
H26 C19 1_555 1_555
H27 C19 1_555 1_555
C20 C19 1_555 1_555
C21 C20 1_555 1_555
H28 C21 1_555 1_555
C22 C21 1_555 1_555
H29 C22 1_555 1_555
C23 C22 1_555 1_555
H30 C23 1_555 1_555
C24 C23 1_555 1_555
H31 C24 1_555 1_555
C25 C20 1_555 1_555
H32 C25 1_555 1_555
O1 C12 1_555 1_555
O2 S1 1_555 1_555
O3 S1 1_555 1_555
S1 C1 1_555 1_555
C11 C12 1_555 1_555
C13 S1 1_555 1_555
C17 C18 1_555 1_555
C24 C25 1_555 1_555

#END
