
#######################################################################
#
#                 Cambridge Crystallographic Data Centre
#                                CCDC 
#
#######################################################################
#
# If this CIF has been generated from an entry in the Cambridge 
# Structural Database, then it will include bibliographic, chemical, 
# crystal, experimental, refinement or atomic coordinate data resulting 
# from the CCDC's data processing and validation procedures.
#
#######################################################################

data_AVEGOY
_chemical_formula_moiety         'C18 H25 Br1 O3 S1'
_chemical_name_systematic        2-Bromo-12-(phenylsulfonyl)cyclododecanone
_symmetry_cell_setting           triclinic
_symmetry_space_group_name_H-M   'P -1'
_symmetry_Int_Tables_number      2
_space_group_name_Hall           '-P 1'
loop_
_symmetry_equiv_pos_site_id
_symmetry_equiv_pos_as_xyz
1 x,y,z
2 -x,-y,-z
_cell_length_a                   7.7772(14)
_cell_length_b                   10.1430(19)
_cell_length_c                   12.040(3)
_cell_angle_alpha                89.460(6)
_cell_angle_beta                 80.130(5)
_cell_angle_gamma                75.270(6)
_cell_volume                     904.374
_exptl_crystal_colour            colorless
_exptl_crystal_description       block
_cell_formula_units_Z            2
loop_
_atom_site_label
_atom_site_type_symbol
_atom_site_fract_x
_atom_site_fract_y
_atom_site_fract_z
Br1 Br 0.76362(3) 0.70368(2) 0.146246(17)
S1 S 0.26547(6) 0.64299(5) 0.45057(4)
O1 O 0.19172(19) 0.56330(15) 0.53711(11)
O2 O 0.40680(19) 0.70291(15) 0.47201(12)
O3 O 0.3822(2) 0.67455(17) 0.17059(12)
C1 C 0.3536(2) 0.53130(19) 0.32723(15)
H1 H 0.4400 0.4480 0.3489
C2 C 0.4590(3) 0.6025(2) 0.23620(15)
C3 C 0.6611(2) 0.5730(2) 0.23657(15)
H2 H 0.6765 0.5866 0.3161
C4 C 0.7623(2) 0.4262(2) 0.19917(16)
H3 H 0.7044 0.3645 0.2475
H4 H 0.8872 0.4106 0.2138
C5 C 0.7723(3) 0.3846(2) 0.07606(16)
H5 H 0.8403 0.4396 0.0267
H6 H 0.6486 0.4052 0.0587
C6 C 0.8635(3) 0.2331(2) 0.04987(18)
H7 H 0.8779 0.2151 -0.0323
H8 H 0.9858 0.2127 0.0695
C7 C 0.7619(3) 0.1359(2) 0.11182(19)
H9 H 0.7323 0.1621 0.1932
H10 H 0.8423 0.0424 0.1033
C8 C 0.5871(3) 0.1350(3) 0.06955(19)
H11 H 0.6143 0.0619 0.0104
H12 H 0.5431 0.2231 0.0344
C9 C 0.4359(4) 0.1128(3) 0.1622(2)
H13 H 0.3363 0.0984 0.1265
H14 H 0.4830 0.0288 0.2017
C10 C 0.3601(3) 0.2318(2) 0.24942(19)
H15 H 0.2662 0.2087 0.3071
H16 H 0.4583 0.2434 0.2879
C11 C 0.2792(3) 0.3653(2) 0.19846(17)
H17 H 0.1813 0.3532 0.1600
H18 H 0.3733 0.3877 0.1405
C12 C 0.2027(3) 0.4862(2) 0.28355(16)
H19 H 0.1220 0.4599 0.3479
H20 H 0.1301 0.5636 0.2471
C13 C 0.0854(3) 0.77313(19) 0.41768(15)
C14 C -0.0892(3) 0.7567(2) 0.44626(16)
H21 H -0.1094 0.6746 0.4777
C15 C -0.2332(3) 0.8632(2) 0.42784(18)
H22 H -0.3533 0.8545 0.4474
C16 C -0.2018(3) 0.9816(2) 0.38113(19)
H23 H -0.3008 1.0544 0.3697
C17 C -0.0269(3) 0.9953(2) 0.35067(19)
H24 H -0.0068 1.0764 0.3170
C18 C 0.1185(3) 0.8912(2) 0.36909(18)
H25 H 0.2384 0.9002 0.3490
loop_
_geom_bond_atom_site_label_1
_geom_bond_atom_site_label_2
_geom_bond_site_symmetry_1
_geom_bond_site_symmetry_2
Br1 C3 1_555 1_555
S1 O1 1_555 1_555
O2 S1 1_555 1_555
O3 C2 1_555 1_555
C1 S1 1_555 1_555
H1 C1 1_555 1_555
C2 C1 1_555 1_555
C3 C2 1_555 1_555
H2 C3 1_555 1_555
C4 C3 1_555 1_555
H3 C4 1_555 1_555
H4 C4 1_555 1_555
C5 C4 1_555 1_555
H5 C5 1_555 1_555
H6 C5 1_555 1_555
C6 C5 1_555 1_555
H7 C6 1_555 1_555
H8 C6 1_555 1_555
C7 C6 1_555 1_555
H9 C7 1_555 1_555
H10 C7 1_555 1_555
C8 C7 1_555 1_555
H11 C8 1_555 1_555
H12 C8 1_555 1_555
C9 C8 1_555 1_555
H13 C9 1_555 1_555
H14 C9 1_555 1_555
C10 C9 1_555 1_555
H15 C10 1_555 1_555
H16 C10 1_555 1_555
C11 C10 1_555 1_555
H17 C11 1_555 1_555
H18 C11 1_555 1_555
C12 C1 1_555 1_555
H19 C12 1_555 1_555
H20 C12 1_555 1_555
C13 S1 1_555 1_555
C14 C13 1_555 1_555
H21 C14 1_555 1_555
C15 C14 1_555 1_555
H22 C15 1_555 1_555
C16 C15 1_555 1_555
H23 C16 1_555 1_555
C17 C16 1_555 1_555
H24 C17 1_555 1_555
C18 C13 1_555 1_555
H25 C18 1_555 1_555
C11 C12 1_555 1_555
C17 C18 1_555 1_555

#END
