
#######################################################################
#
#                 Cambridge Crystallographic Data Centre
#                                CCDC 
#
#######################################################################
#
# If this CIF has been generated from an entry in the Cambridge 
# Structural Database, then it will include bibliographic, chemical, 
# crystal, experimental, refinement or atomic coordinate data resulting 
# from the CCDC's data processing and validation procedures.
#
#######################################################################

data_AVEGAL
_chemical_formula_moiety         'C68 H60 N6 Na2 O1'
_chemical_name_systematic        
bis(\m-2,5-bis(((diphenylmethyl)imino)methyl)pyrrol-1-ido)-(tetrahydrofuran)-di-sodium
_symmetry_cell_setting           triclinic
_symmetry_space_group_name_H-M   'P -1'
_symmetry_Int_Tables_number      2
_space_group_name_Hall           '-P 1'
loop_
_symmetry_equiv_pos_site_id
_symmetry_equiv_pos_as_xyz
1 x,y,z
2 -x,-y,-z
_cell_length_a                   13.7972(6)
_cell_length_b                   14.1023(8)
_cell_length_c                   17.3629(8)
_cell_angle_alpha                66.499(5)
_cell_angle_beta                 88.058(4)
_cell_angle_gamma                64.994(5)
_cell_volume                     2770.6
_exptl_crystal_colour            colorless
_exptl_crystal_description       plates
_cell_formula_units_Z            2
loop_
_atom_site_label
_atom_site_type_symbol
_atom_site_fract_x
_atom_site_fract_y
_atom_site_fract_z
Na1 Na 0.15065(6) 0.62032(6) 0.26096(5)
Na2 Na 0.28942(6) 0.41673(6) 0.22681(5)
O1 O 0.14227(13) 0.68899(13) 0.36392(10)
N1 N 0.23015(12) 0.41727(12) 0.36192(10)
N2 N -0.00219(12) 0.57868(12) 0.29900(10)
N3 N 0.45076(12) 0.34456(13) 0.32296(10)
N4 N 0.16519(12) 0.59681(12) 0.11490(9)
N5 N 0.21974(13) 0.74359(13) 0.16554(10)
N6 N 0.17831(13) 0.36674(13) 0.16590(10)
C1 C 0.32213(15) 0.33487(15) 0.41921(12)
C2 C 0.29827(16) 0.28466(17) 0.50069(13)
H1 H 0.3476 0.2275 0.5497
C3 C 0.18652(16) 0.33742(17) 0.49329(13)
H2 H 0.1456 0.3225 0.5362
C4 C 0.14720(15) 0.41811(15) 0.40777(12)
C5 C 0.03453(15) 0.49899(15) 0.37482(12)
H3 H -0.0153 0.4926 0.4116
C6 C 0.43022(15) 0.30293(15) 0.39841(12)
H4 H 0.4883 0.2490 0.4423
C7 C -0.11873(14) 0.65754(15) 0.28021(12)
H5 H -0.1465 0.6460 0.3342
C8 C -0.18147(15) 0.63367(15) 0.22573(12)
C9 C -0.14373(17) 0.61293(17) 0.15601(13)
H6 H -0.0768 0.6099 0.1432
C10 C -0.2056(2) 0.5968(2) 0.10562(15)
H7 H -0.1799 0.5832 0.0590
C11 C -0.3049(2) 0.6008(2) 0.12369(17)
H8 H -0.3465 0.5912 0.0890
C12 C -0.3419(2) 0.6189(2) 0.19333(17)
H9 H -0.4081 0.6200 0.2066
C13 C -0.28091(17) 0.6357(2) 0.24394(15)
H10 H -0.3069 0.6485 0.2908
C14 C -0.13520(15) 0.78192(15) 0.23678(12)
C15 C -0.21510(19) 0.86532(18) 0.25607(15)
H11 H -0.2564 0.8443 0.2970
C16 C -0.2346(2) 0.98005(19) 0.21514(17)
H12 H -0.2899 1.0356 0.2278
C17 C -0.1722(2) 1.01247(18) 0.15551(15)
H13 H -0.1841 1.0891 0.1292
C18 C -0.09223(17) 0.92978(17) 0.13554(14)
H14 H -0.0499 0.9507 0.0955
C19 C -0.07483(15) 0.81562(16) 0.17499(12)
H15 H -0.0222 0.7609 0.1600
C20 C 0.56431(15) 0.31143(16) 0.30847(12)
H16 H 0.5807 0.3734 0.3067
C21 C 0.64805(15) 0.20032(16) 0.37871(13)
C22 C 0.67765(19) 0.09352(18) 0.37903(15)
H17 H 0.6470 0.0891 0.3344
C23 C 0.7522(2) -0.0072(2) 0.44452(17)
H18 H 0.7712 -0.0780 0.4430
C24 C 0.79818(18) -0.00354(19) 0.51184(15)
H19 H 0.8485 -0.0710 0.5555
C25 C 0.76822(18) 0.1020(2) 0.51308(15)
H20 H 0.7977 0.1059 0.5585
C26 C 0.69443(17) 0.20255(19) 0.44726(14)
H21 H 0.6756 0.2731 0.4490
C27 C 0.57203(16) 0.31281(16) 0.22025(12)
C28 C 0.51196(17) 0.27647(17) 0.18619(13)
H22 H 0.4662 0.2491 0.2180
C29 C 0.5197(2) 0.28071(19) 0.10465(14)
H23 H 0.4790 0.2564 0.0824
C30 C 0.5876(2) 0.3208(2) 0.05697(16)
H24 H 0.5921 0.3243 0.0024
C31 C 0.6485(2) 0.3558(2) 0.09042(16)
H25 H 0.6945 0.3824 0.0585
C32 C 0.64133(18) 0.35128(18) 0.17174(14)
H26 H 0.6834 0.3743 0.1940
C33 C 0.12037(14) 0.56509(15) 0.06580(12)
C34 C 0.07556(16) 0.65374(16) -0.01690(12)
H27 H 0.0405 0.6522 -0.0609
C35 C 0.09442(16) 0.74374(16) -0.01931(12)
H28 H 0.0747 0.8148 -0.0655
C36 C 0.14909(14) 0.70667(15) 0.06167(11)
C37 C 0.18457(15) 0.77359(15) 0.08800(12)
H29 H 0.1817 0.8419 0.0466
C38 C 0.12632(14) 0.45130(15) 0.09420(12)
H30 H 0.0900 0.4386 0.0580
C39 C 0.24893(15) 0.82025(15) 0.18723(12)
H31 H 0.1854 0.8659 0.2060
C40 C 0.34009(15) 0.74990(16) 0.26324(12)
C41 C 0.40172(16) 0.63143(16) 0.29388(12)
H32 H 0.3890 0.5913 0.2671
C42 C 0.48283(18) 0.57207(18) 0.36478(13)
H33 H 0.5228 0.4923 0.3855
C43 C 0.50464(18) 0.62983(18) 0.40463(13)
H34 H 0.5594 0.5898 0.4514
C44 C 0.44367(19) 0.74821(18) 0.37386(13)
H35 H 0.4574 0.7882 0.4001
C45 C 0.36249(18) 0.80736(17) 0.30435(13)
H36 H 0.3220 0.8869 0.2845
C46 C 0.27395(16) 0.90684(16) 0.11397(12)
C47 C 0.36992(18) 0.87256(19) 0.08245(14)
H37 H 0.4209 0.7953 0.1067
C48 C 0.3910(2) 0.9526(2) 0.01464(15)
H38 H 0.4556 0.9287 -0.0066
C49 C 0.3158(2) 1.0679(2) -0.02108(14)
H39 H 0.3302 1.1217 -0.0658
C50 C 0.2202(2) 1.10244(19) 0.00960(14)
H40 H 0.1695 1.1798 -0.0146
C51 C 0.19868(18) 1.02244(17) 0.07659(13)
H41 H 0.1333 1.0465 0.0966
C52 C 0.17980(15) 0.25514(15) 0.18296(12)
H42 H 0.1684 0.2533 0.1282
C53 C 0.09089(15) 0.23763(15) 0.23233(12)
C54 C 0.02381(18) 0.31468(18) 0.26318(14)
H43 H 0.0344 0.3783 0.2563
C55 C -0.0596(2) 0.2977(2) 0.30448(16)
H44 H -0.1048 0.3504 0.3247
C56 C -0.07584(19) 0.2035(2) 0.31565(16)
H45 H -0.1316 0.1925 0.3434
C57 C -0.00904(19) 0.1256(2) 0.28560(16)
H46 H -0.0198 0.0620 0.2929
C58 C 0.07424(17) 0.14223(18) 0.24445(14)
H47 H 0.1195 0.0890 0.2247
C59 C 0.29190(16) 0.16114(16) 0.22941(13)
C60 C 0.32472(19) 0.1374(2) 0.31259(15)
H48 H 0.2768 0.1762 0.3409
C61 C 0.4300(2) 0.0549(2) 0.35342(17)
H49 H 0.4526 0.0384 0.4091
C62 C 0.5005(2) -0.0022(2) 0.3103(2)
H50 H 0.5707 -0.0570 0.3375
C63 C 0.4687(2) 0.0208(2) 0.2285(2)
H51 H 0.5169 -0.0179 0.2003
C64 C 0.36463(18) 0.10183(18) 0.18825(17)
H52 H 0.3427 0.1171 0.1328
C65 C 0.2217(2) 0.6213(2) 0.43991(14)
H53 H 0.2765 0.6484 0.4351
H54 H 0.2568 0.5406 0.4500
C66 C 0.1614(2) 0.6358(3) 0.51071(17)
H55 H 0.2049 0.6370 0.5527
H56 H 0.1407 0.5740 0.5385
C67 C 0.0619(3) 0.7519(3) 0.4665(2)
H57 H 0.0625 0.8074 0.4858
H58 H -0.0042 0.7437 0.4772
C68 C 0.0713(2) 0.7897(2) 0.3717(2)
H59 H 0.0009 0.8238 0.3376
H60 H 0.0998 0.8460 0.3531
loop_
_geom_bond_atom_site_label_1
_geom_bond_atom_site_label_2
_geom_bond_site_symmetry_1
_geom_bond_site_symmetry_2
Na1 O1 1_555 1_555
Na2 N1 1_555 1_555
O1 C65 1_555 1_555
N1 Na1 1_555 1_555
N2 Na1 1_555 1_555
N3 Na2 1_555 1_555
N4 Na1 1_555 1_555
N5 Na1 1_555 1_555
N6 Na2 1_555 1_555
C1 N1 1_555 1_555
C2 C1 1_555 1_555
H1 C2 1_555 1_555
C3 C2 1_555 1_555
H2 C3 1_555 1_555
C4 N1 1_555 1_555
C5 N2 1_555 1_555
H3 C5 1_555 1_555
C6 N3 1_555 1_555
H4 C6 1_555 1_555
C7 N2 1_555 1_555
H5 C7 1_555 1_555
C8 C7 1_555 1_555
C9 C8 1_555 1_555
H6 C9 1_555 1_555
C10 C9 1_555 1_555
H7 C10 1_555 1_555
C11 C10 1_555 1_555
H8 C11 1_555 1_555
C12 C11 1_555 1_555
H9 C12 1_555 1_555
C13 C8 1_555 1_555
H10 C13 1_555 1_555
C14 C7 1_555 1_555
C15 C14 1_555 1_555
H11 C15 1_555 1_555
C16 C15 1_555 1_555
H12 C16 1_555 1_555
C17 C16 1_555 1_555
H13 C17 1_555 1_555
C18 C17 1_555 1_555
H14 C18 1_555 1_555
C19 C14 1_555 1_555
H15 C19 1_555 1_555
C20 N3 1_555 1_555
H16 C20 1_555 1_555
C21 C20 1_555 1_555
C22 C21 1_555 1_555
H17 C22 1_555 1_555
C23 C22 1_555 1_555
H18 C23 1_555 1_555
C24 C23 1_555 1_555
H19 C24 1_555 1_555
C25 C24 1_555 1_555
H20 C25 1_555 1_555
C26 C21 1_555 1_555
H21 C26 1_555 1_555
C27 C20 1_555 1_555
C28 C27 1_555 1_555
H22 C28 1_555 1_555
C29 C28 1_555 1_555
H23 C29 1_555 1_555
C30 C29 1_555 1_555
H24 C30 1_555 1_555
C31 C30 1_555 1_555
H25 C31 1_555 1_555
C32 C27 1_555 1_555
H26 C32 1_555 1_555
C33 N4 1_555 1_555
C34 C33 1_555 1_555
H27 C34 1_555 1_555
C35 C34 1_555 1_555
H28 C35 1_555 1_555
C36 N4 1_555 1_555
C37 N5 1_555 1_555
H29 C37 1_555 1_555
C38 N6 1_555 1_555
H30 C38 1_555 1_555
C39 N5 1_555 1_555
H31 C39 1_555 1_555
C40 C39 1_555 1_555
C41 C40 1_555 1_555
H32 C41 1_555 1_555
C42 C41 1_555 1_555
H33 C42 1_555 1_555
C43 C42 1_555 1_555
H34 C43 1_555 1_555
C44 C43 1_555 1_555
H35 C44 1_555 1_555
C45 C40 1_555 1_555
H36 C45 1_555 1_555
C46 C39 1_555 1_555
C47 C46 1_555 1_555
H37 C47 1_555 1_555
C48 C47 1_555 1_555
H38 C48 1_555 1_555
C49 C48 1_555 1_555
H39 C49 1_555 1_555
C50 C49 1_555 1_555
H40 C50 1_555 1_555
C51 C46 1_555 1_555
H41 C51 1_555 1_555
C52 N6 1_555 1_555
H42 C52 1_555 1_555
C53 C52 1_555 1_555
C54 C53 1_555 1_555
H43 C54 1_555 1_555
C55 C54 1_555 1_555
H44 C55 1_555 1_555
C56 C55 1_555 1_555
H45 C56 1_555 1_555
C57 C56 1_555 1_555
H46 C57 1_555 1_555
C58 C53 1_555 1_555
H47 C58 1_555 1_555
C59 C52 1_555 1_555
C60 C59 1_555 1_555
H48 C60 1_555 1_555
C61 C60 1_555 1_555
H49 C61 1_555 1_555
C62 C61 1_555 1_555
H50 C62 1_555 1_555
C63 C62 1_555 1_555
H51 C63 1_555 1_555
C64 C59 1_555 1_555
H52 C64 1_555 1_555
C65 H53 1_555 1_555
H54 C65 1_555 1_555
C66 C65 1_555 1_555
H55 C66 1_555 1_555
H56 C66 1_555 1_555
C67 C66 1_555 1_555
H57 C67 1_555 1_555
H58 C67 1_555 1_555
C68 O1 1_555 1_555
H59 C68 1_555 1_555
H60 C68 1_555 1_555
Na2 N4 1_555 1_555
C1 C6 1_555 1_555
C3 C4 1_555 1_555
C4 C5 1_555 1_555
C12 C13 1_555 1_555
C18 C19 1_555 1_555
C25 C26 1_555 1_555
C31 C32 1_555 1_555
C33 C38 1_555 1_555
C35 C36 1_555 1_555
C36 C37 1_555 1_555
C44 C45 1_555 1_555
C50 C51 1_555 1_555
C57 C58 1_555 1_555
C63 C64 1_555 1_555
C67 C68 1_555 1_555

#END
