
#######################################################################
#
#                 Cambridge Crystallographic Data Centre
#                                CCDC 
#
#######################################################################
#
# If this CIF has been generated from an entry in the Cambridge 
# Structural Database, then it will include bibliographic, chemical, 
# crystal, experimental, refinement or atomic coordinate data resulting 
# from the CCDC's data processing and validation procedures.
#
#######################################################################

data_AVEHAL
_chemical_formula_moiety         'C55 H40 O14'
_chemical_name_systematic        
3,3',3'',3'''-(Pentane-1,5-diylbis(oxy-2,1-phenylenemethanetriyl))tetrakis(4-hydroxy-2H-chromen-2-one)
_symmetry_cell_setting           triclinic
_symmetry_space_group_name_H-M   'P -1'
_symmetry_Int_Tables_number      2
_space_group_name_Hall           '-P 1'
loop_
_symmetry_equiv_pos_site_id
_symmetry_equiv_pos_as_xyz
1 x,y,z
2 -x,-y,-z
_cell_length_a                   10.6458(14)
_cell_length_b                   11.8505(16)
_cell_length_c                   19.538(3)
_cell_angle_alpha                78.565(2)
_cell_angle_beta                 84.453(2)
_cell_angle_gamma                83.532(2)
_cell_volume                     2393.57
_exptl_crystal_description       block
_cell_formula_units_Z            2
loop_
_atom_site_label
_atom_site_type_symbol
_atom_site_fract_x
_atom_site_fract_y
_atom_site_fract_z
C1 C 0.5719(2) 0.13432(19) 0.49668(12)
C2 C 0.6008(2) 0.0991(2) 0.43235(13)
H1 H 0.5378 0.1056 0.4016
C3 C 0.7213(3) 0.0552(2) 0.41423(14)
H2 H 0.7398 0.0309 0.3716
C4 C 0.8161(3) 0.0471(2) 0.45996(16)
H3 H 0.8984 0.0193 0.4471
C5 C 0.7894(2) 0.0794(2) 0.52318(15)
H4 H 0.8529 0.0732 0.5536
C6 C 0.6682(2) 0.1213(2) 0.54172(13)
C7 C 0.5328(2) 0.2078(2) 0.62527(13)
C8 C 0.4352(2) 0.23728(18) 0.57642(11)
C9 C 0.4500(2) 0.18937(19) 0.51776(12)
C10 C 0.3222(2) 0.31745(18) 0.59705(11)
H5 H 0.3526 0.3536 0.6325
C11 C 0.2142(2) 0.24965(19) 0.63589(12)
C12 C 0.2041(2) 0.2194(2) 0.70667(12)
C13 C 0.0904(2) 0.1720(2) 0.74301(13)
C14 C 0.0703(3) 0.1467(2) 0.81604(14)
H6 H 0.1332 0.1559 0.8438
C15 C -0.0434(3) 0.1082(2) 0.84676(16)
H7 H -0.0574 0.0911 0.8953
C16 C -0.1358(3) 0.0951(3) 0.80508(18)
H8 H -0.2121 0.0694 0.8262
C17 C -0.1187(3) 0.1191(2) 0.73258(16)
H9 H -0.1822 0.1111 0.7049
C18 C -0.0035(2) 0.1554(2) 0.70326(13)
C19 C 0.1206(2) 0.22033(19) 0.59651(13)
C20 C 0.2844(2) 0.41960(18) 0.53833(12)
C21 C 0.3627(2) 0.4479(2) 0.47837(13)
H10 H 0.4379 0.4016 0.4723
C22 C 0.3329(3) 0.5436(2) 0.42666(13)
H11 H 0.3863 0.5597 0.3861
C23 C 0.2241(3) 0.6138(2) 0.43605(14)
H12 H 0.2029 0.6773 0.4014
C24 C 0.1456(2) 0.5912(2) 0.49633(13)
H13 H 0.0725 0.6400 0.5027
C25 C 0.1758(2) 0.49527(19) 0.54762(12)
C26 C -0.0006(2) 0.5516(2) 0.62380(14)
H14 H -0.0619 0.5610 0.5890
H15 H 0.0298 0.6262 0.6227
C27 C -0.0609(2) 0.5060(2) 0.69561(13)
H16 H -0.0895 0.4311 0.6955
H17 H -0.1351 0.5578 0.7050
C28 C 0.0255(2) 0.4933(2) 0.75418(13)
H18 H 0.0619 0.5657 0.7512
H19 H 0.0945 0.4344 0.7482
C29 C -0.0427(3) 0.4606(2) 0.82644(13)
H20 H -0.1075 0.5225 0.8334
H21 H -0.0850 0.3918 0.8277
C30 C 0.0403(3) 0.4383(2) 0.88552(14)
H22 H -0.0089 0.4148 0.9295
H23 H 0.1065 0.3770 0.8796
C31 C 0.1751(2) 0.5451(2) 0.93587(12)
C32 C 0.2030(3) 0.4511(2) 0.98862(14)
H24 H 0.1647 0.3834 0.9915
C33 C 0.2869(3) 0.4571(2) 1.03683(15)
H25 H 0.3047 0.3938 1.0723
C34 C 0.3437(3) 0.5560(3) 1.03253(16)
H26 H 0.4006 0.5602 1.0650
C35 C 0.3168(3) 0.6499(2) 0.97999(15)
H27 H 0.3579 0.7161 0.9770
C36 C 0.2306(2) 0.6486(2) 0.93168(12)
C37 C 0.2115(2) 0.7490(2) 0.86900(12)
H28 H 0.2587 0.7199 0.8294
C38 C 0.0778(2) 0.77898(19) 0.84653(12)
C39 C 0.0515(2) 0.7977(2) 0.77840(13)
C40 C -0.0763(2) 0.8132(2) 0.75873(13)
C41 C -0.1094(3) 0.8292(2) 0.68872(14)
H29 H -0.0464 0.8303 0.6522
C42 C -0.2345(3) 0.8429(3) 0.67516(17)
H30 H -0.2567 0.8538 0.6293
C43 C -0.3275(3) 0.8404(3) 0.72936(19)
H31 H -0.4121 0.8498 0.7194
C44 C -0.2989(3) 0.8249(3) 0.79655(18)
H32 H -0.3630 0.8231 0.8326
C45 C -0.1733(2) 0.8116(2) 0.81101(14)
C46 C -0.0258(2) 0.7876(2) 0.89922(14)
C47 C 0.2737(2) 0.8568(2) 0.87264(12)
C48 C 0.3507(2) 0.9011(2) 0.81091(13)
C49 C 0.4137(2) 1.0432(2) 0.86839(13)
C50 C 0.4904(3) 1.1311(3) 0.86356(16)
H33 H 0.5460 1.1505 0.8243
C51 C 0.4828(3) 1.1891(3) 0.91802(19)
H34 H 0.5345 1.2481 0.9160
C52 C 0.3990(3) 1.1611(3) 0.97615(18)
H35 H 0.3946 1.2016 1.0127
C53 C 0.3220(3) 1.0736(3) 0.98010(15)
H36 H 0.2649 1.0556 1.0189
C54 C 0.3302(2) 1.0122(2) 0.92560(12)
C55 C 0.2564(2) 0.9170(2) 0.92554(12)
O1 O 0.36108(15) 0.19546(15) 0.47402(8)
H37 H 0.2924 0.2171 0.4923
O2 O 0.52288(15) 0.23118(15) 0.68424(9)
O3 O 0.64348(14) 0.15000(14) 0.60696(8)
O4 O 0.01387(15) 0.17542(15) 0.63083(9)
O5 O 0.12716(15) 0.23059(14) 0.53244(9)
O6 O 0.28914(16) 0.23601(17) 0.74851(8)
H38 H 0.3582 0.2424 0.7263
O7 O 0.10298(15) 0.46918(13) 0.60954(8)
O8 O 0.09530(17) 0.54411(14) 0.88575(9)
O9 O -0.14811(15) 0.80006(16) 0.88007(9)
O10 O -0.01495(16) 0.78514(16) 0.96111(9)
O11 O 0.13940(16) 0.80001(18) 0.72433(9)
H39 H 0.2053 0.8193 0.7351
O12 O 0.42119(16) 0.98956(15) 0.81132(9)
O13 O 0.35849(16) 0.86612(18) 0.75545(9)
O14 O 0.17282(18) 0.89352(18) 0.98089(9)
H40 H 0.2106 0.8622 1.0154
loop_
_geom_bond_atom_site_label_1
_geom_bond_atom_site_label_2
_geom_bond_site_symmetry_1
_geom_bond_site_symmetry_2
C1 C2 1_555 1_555
C2 H1 1_555 1_555
C3 C2 1_555 1_555
H2 C3 1_555 1_555
C4 C3 1_555 1_555
H3 C4 1_555 1_555
C5 C4 1_555 1_555
H4 C5 1_555 1_555
C6 C1 1_555 1_555
C7 C8 1_555 1_555
C8 C9 1_555 1_555
C9 C1 1_555 1_555
C10 C8 1_555 1_555
H5 C10 1_555 1_555
C11 C10 1_555 1_555
C12 C11 1_555 1_555
C13 C12 1_555 1_555
C14 C13 1_555 1_555
H6 C14 1_555 1_555
C15 C14 1_555 1_555
H7 C15 1_555 1_555
C16 C15 1_555 1_555
H8 C16 1_555 1_555
C17 C16 1_555 1_555
H9 C17 1_555 1_555
C18 C13 1_555 1_555
C19 C11 1_555 1_555
C20 C10 1_555 1_555
C21 C20 1_555 1_555
H10 C21 1_555 1_555
C22 C21 1_555 1_555
H11 C22 1_555 1_555
C23 C22 1_555 1_555
H12 C23 1_555 1_555
C24 C23 1_555 1_555
H13 C24 1_555 1_555
C25 C20 1_555 1_555
C26 H14 1_555 1_555
H15 C26 1_555 1_555
C27 C26 1_555 1_555
H16 C27 1_555 1_555
H17 C27 1_555 1_555
C28 C27 1_555 1_555
H18 C28 1_555 1_555
H19 C28 1_555 1_555
C29 C28 1_555 1_555
H20 C29 1_555 1_555
H21 C29 1_555 1_555
C30 C29 1_555 1_555
H22 C30 1_555 1_555
H23 C30 1_555 1_555
C31 C32 1_555 1_555
C32 H24 1_555 1_555
C33 C32 1_555 1_555
H25 C33 1_555 1_555
C34 C33 1_555 1_555
H26 C34 1_555 1_555
C35 C34 1_555 1_555
H27 C35 1_555 1_555
C36 C31 1_555 1_555
C37 C36 1_555 1_555
H28 C37 1_555 1_555
C38 C37 1_555 1_555
C39 C38 1_555 1_555
C40 C39 1_555 1_555
C41 C40 1_555 1_555
H29 C41 1_555 1_555
C42 C41 1_555 1_555
H30 C42 1_555 1_555
C43 C42 1_555 1_555
H31 C43 1_555 1_555
C44 C43 1_555 1_555
H32 C44 1_555 1_555
C45 C40 1_555 1_555
C46 C38 1_555 1_555
C47 C37 1_555 1_555
C48 C47 1_555 1_555
C49 C50 1_555 1_555
C50 H33 1_555 1_555
C51 C50 1_555 1_555
H34 C51 1_555 1_555
C52 C51 1_555 1_555
H35 C52 1_555 1_555
C53 C52 1_555 1_555
H36 C53 1_555 1_555
C54 C49 1_555 1_555
C55 C47 1_555 1_555
O1 C9 1_555 1_555
H37 O1 1_555 1_555
O2 C7 1_555 1_555
O3 C6 1_555 1_555
O4 C18 1_555 1_555
O5 C19 1_555 1_555
O6 C12 1_555 1_555
H38 O6 1_555 1_555
O7 C25 1_555 1_555
O8 C30 1_555 1_555
O9 C45 1_555 1_555
O10 C46 1_555 1_555
O11 C39 1_555 1_555
H39 O11 1_555 1_555
O12 C48 1_555 1_555
O13 C48 1_555 1_555
O14 C55 1_555 1_555
H40 O14 1_555 1_555
C5 C6 1_555 1_555
C7 O3 1_555 1_555
C17 C18 1_555 1_555
C19 O4 1_555 1_555
C24 C25 1_555 1_555
C26 O7 1_555 1_555
C31 O8 1_555 1_555
C35 C36 1_555 1_555
C44 C45 1_555 1_555
C46 O9 1_555 1_555
C49 O12 1_555 1_555
C53 C54 1_555 1_555
C54 C55 1_555 1_555

#END
