
#######################################################################
#
#                 Cambridge Crystallographic Data Centre
#                                CCDC 
#
#######################################################################
#
# If this CIF has been generated from an entry in the Cambridge 
# Structural Database, then it will include bibliographic, chemical, 
# crystal, experimental, refinement or atomic coordinate data resulting 
# from the CCDC's data processing and validation procedures.
#
#######################################################################

data_AVEKET
_chemical_formula_moiety         'C16 H18 Cl1 N3 O1'
_chemical_name_systematic        
6-sec-butyl-1-(4-chlorophenyl)-3-methyl-5,6-dihydropyrrolo[3,4-c]pyrazol-4(1H)-one
_symmetry_cell_setting           triclinic
_symmetry_space_group_name_H-M   'P -1'
_symmetry_Int_Tables_number      2
_space_group_name_Hall           '-P 1'
loop_
_symmetry_equiv_pos_site_id
_symmetry_equiv_pos_as_xyz
1 x,y,z
2 -x,-y,-z
_cell_length_a                   6.333(3)
_cell_length_b                   9.280(5)
_cell_length_c                   13.707(7)
_cell_angle_alpha                94.522(6)
_cell_angle_beta                 97.138(6)
_cell_angle_gamma                93.299(6)
_cell_volume                     794.983
_exptl_crystal_colour            yellow
_exptl_crystal_description       block
_cell_formula_units_Z            2
loop_
_atom_site_label
_atom_site_type_symbol
_atom_site_fract_x
_atom_site_fract_y
_atom_site_fract_z
Cl1 Cl 0.6523(2) 0.12538(12) 1.17208(7)
O1 O 0.2607(4) 0.6101(3) 0.52251(19)
N1 N 0.1243(4) 0.4388(3) 0.6147(2)
H1 H 0.0051 0.4198 0.5772
N2 N 0.7203(4) 0.5422(3) 0.79737(19)
N3 N 0.5561(4) 0.4442(3) 0.81314(17)
C1 C 0.2743(5) 0.5386(3) 0.5943(2)
C2 C 0.4503(5) 0.5382(3) 0.6752(2)
C3 C 0.6560(5) 0.5995(3) 0.7142(2)
C4 C 0.3939(4) 0.4421(3) 0.7388(2)
C5 C 0.1788(5) 0.3643(3) 0.7038(2)
H2 H 0.0794 0.3869 0.7514
C6 C 0.1810(5) 0.1989(3) 0.6831(2)
H3 H 0.2443 0.1641 0.7450
C7 C -0.043(2) 0.123(3) 0.661(2)
H4 H -0.1311 0.1743 0.6143
H5 H -0.0349 0.0248 0.6318
C8 C -0.1444(14) 0.1176(10) 0.7553(9)
H6 H -0.2766 0.0593 0.7424
H7 H -0.1709 0.2141 0.7792
H8 H -0.0496 0.0763 0.8042
C9 C 0.327(5) 0.1555(17) 0.6075(16)
H9 H 0.3522 0.0547 0.6098
H10 H 0.4601 0.2125 0.6221
H11 H 0.2608 0.1717 0.5427
C10 C 0.7908(6) 0.7118(4) 0.6748(3)
H12 H 0.9283 0.7238 0.7139
H13 H 0.7238 0.8020 0.6774
H14 H 0.8073 0.6821 0.6076
C11 C 0.5760(5) 0.3691(3) 0.9000(2)
C12 C 0.4017(5) 0.2991(4) 0.9311(2)
H15 H 0.2673 0.3026 0.8956
C13 C 0.4245(6) 0.2236(4) 1.0144(2)
H16 H 0.3068 0.1749 1.0343
C14 C 0.6232(6) 0.2215(4) 1.0674(2)
C15 C 0.7964(6) 0.2954(4) 1.0398(3)
H17 H 0.9288 0.2967 1.0779
C16 C 0.7748(5) 0.3683(4) 0.9554(2)
H18 H 0.8931 0.4166 0.9358
C17? C 0.290(5) 0.1605(15) 0.5913(14)
H19? H 0.1943 0.1738 0.5321
H20? H 0.4179 0.2233 0.5924
C18? C 0.3456(19) 0.0037(10) 0.5912(7)
H21? H 0.3972 -0.0255 0.5302
H22? H 0.2209 -0.0566 0.5980
H23? H 0.4542 -0.0060 0.6453
C19? C -0.0498(14) 0.136(3) 0.6674(17)
H24? H -0.1248 0.1781 0.7182
H25? H -0.0530 0.0332 0.6700
H26? H -0.1170 0.1583 0.6041
loop_
_geom_bond_atom_site_label_1
_geom_bond_atom_site_label_2
_geom_bond_site_symmetry_1
_geom_bond_site_symmetry_2
Cl1 C14 1_555 1_555
O1 C1 1_555 1_555
N1 H1 1_555 1_555
N2 N3 1_555 1_555
N3 C4 1_555 1_555
C1 N1 1_555 1_555
C2 C1 1_555 1_555
C3 N2 1_555 1_555
C4 C2 1_555 1_555
C5 N1 1_555 1_555
H2 C5 1_555 1_555
C6 C5 1_555 1_555
H3 C6 1_555 1_555
C7 C6 1_555 1_555
H4 C7 1_555 1_555
H5 C7 1_555 1_555
C8 C7 1_555 1_555
H6 C8 1_555 1_555
H7 C8 1_555 1_555
H8 C8 1_555 1_555
C9 C6 1_555 1_555
H9 C9 1_555 1_555
H10 C9 1_555 1_555
H11 C9 1_555 1_555
C10 C3 1_555 1_555
H12 C10 1_555 1_555
H13 C10 1_555 1_555
H14 C10 1_555 1_555
C11 N3 1_555 1_555
C12 C11 1_555 1_555
H15 C12 1_555 1_555
C13 C12 1_555 1_555
H16 C13 1_555 1_555
C14 C13 1_555 1_555
C15 C14 1_555 1_555
H17 C15 1_555 1_555
C16 C11 1_555 1_555
H18 C16 1_555 1_555
C2 C3 1_555 1_555
C4 C5 1_555 1_555
C15 C16 1_555 1_555

#END
