
#######################################################################
#
#                 Cambridge Crystallographic Data Centre
#                                CCDC 
#
#######################################################################
#
# If this CIF has been generated from an entry in the Cambridge 
# Structural Database, then it will include bibliographic, chemical, 
# crystal, experimental, refinement or atomic coordinate data resulting 
# from the CCDC's data processing and validation procedures.
#
#######################################################################

data_AVELET
_chemical_name_common            
'(R)-3,9,15,33-Tetra-t-butyl-37,38-dihydroxy-24-methyl-19,22,28-trioxa-25-azahexacyclo[15.12.7.1$7,11!.1$31,35!.0$5,29!.0$13,18!]octatriaconta-1(29),2,4,7(38),8,10,13,15,17,31(37),32,34-dodecaene-21,26-dione methanol solvate monohydrate'
_chemical_formula_moiety         'C51 H65 N1 O7,C1 H4 O1,H2 O1'
_chemical_name_systematic        
'(R)-5,11,17,23-Tetra-t-butyl-25,27-dihydroxy-26,28-(4-methyl-2,7-dioxo-3-aza-6-oxaoctane-1,8-dioxy)calix(4)arene methanol solvate monohydrate'
_symmetry_cell_setting           trigonal
_symmetry_space_group_name_H-M   'P 32 2 1'
_symmetry_Int_Tables_number      154
_space_group_name_Hall           'P 32 2"'
loop_
_symmetry_equiv_pos_site_id
_symmetry_equiv_pos_as_xyz
1 x,y,z
2 -y,x-y,2/3+z
3 -x+y,-x,1/3+z
4 y,x,-z
5 -x,-x+y,2/3-z
6 x-y,-y,1/3-z
_cell_length_a                   12.6547(12)
_cell_length_b                   12.6547(12)
_cell_length_c                   28.776(5)
_cell_angle_alpha                90
_cell_angle_beta                 90
_cell_angle_gamma                120
_cell_volume                     3990.84
_cell_formula_units_Z            3
loop_
_atom_site_label
_atom_site_type_symbol
_atom_site_fract_x
_atom_site_fract_y
_atom_site_fract_z
O6 O 0.5127(3) 0.7043(3) 0.02249(11)
H39 H 0.5236 0.7437 -0.0027
H40 H 0.5785 0.7370 0.0381
C1 C 0.08754(28) 0.0170(2) 0.26233(7)
C2 C 0.08364(27) -0.09076(19) 0.27252(7)
C3 C 0.1876(3) -0.0863(2) 0.29218(8)
H1 H 0.1857 -0.1589 0.2992
C4 C 0.2952(3) 0.0262(2) 0.30149(7)
C5 C 0.29485(28) 0.1280(2) 0.28698(8)
H2 H 0.3670 0.2023 0.2901
C6 C 0.1932(3) 0.1298(2) 0.26741(8)
C7 C -0.0224(3) -0.2121(2) 0.26038(9)
H3 H -0.0951 -0.2051 0.2576
H4 H -0.0360 -0.2696 0.2851
C8 C -0.0015(3) -0.2594(2) 0.21572(8)
C9 C -0.03189(26) -0.23358(19) 0.17281(7)
C10 C -0.01013(27) -0.27747(19) 0.13122(7)
C11 C 0.0450(3) -0.3490(2) 0.13467(9)
H5 H 0.0601 -0.3789 0.1074
C12 C 0.0777(3) -0.3771(2) 0.17594(8)
C13 C 0.0541(3) -0.3303(2) 0.21765(9)
H6 H 0.0762 -0.3475 0.2462
C14 C 0.2018(3) 0.2469(2) 0.24912(8)
H7 H 0.2469 0.3130 0.2709
H8 H 0.1208 0.2360 0.2455
C15 C 0.4081(3) 0.0360(2) 0.32289(8)
C16 C 0.4297(3) 0.1001(2) 0.37028(8)
H9 H 0.4438 0.1813 0.3657
H10 H 0.4997 0.1039 0.3850
H11 H 0.3593 0.0551 0.3896
C17 C 0.52189(28) 0.12749(19) 0.29559(8)
H12 H 0.4982 0.1627 0.2710
H13 H 0.5612 0.0861 0.2826
H14 H 0.5774 0.1908 0.3161
C18 C 0.3882(3) -0.0931(2) 0.33051(9)
H15 H 0.3209 -0.1372 0.3513
H16 H 0.4605 -0.0875 0.3436
H17 H 0.3708 -0.1351 0.3013
C19 C 0.1463(3) -0.4488(2) 0.17906(8)
C20 C 0.1993(3) -0.4398(2) 0.22735(8)
H18 H 0.1345 -0.4875 0.2487
H19 H 0.2415 -0.3562 0.2372
H20 H 0.2552 -0.4702 0.2265
C21 C 0.2347(3) -0.4101(2) 0.13796(8)
H21 H 0.1913 -0.4534 0.1106
H22 H 0.2981 -0.4286 0.1446
H23 H 0.2703 -0.3239 0.1329
C22 C 0.0552(3) -0.5848(2) 0.17546(9)
H24 H -0.0159 -0.6040 0.1935
H25 H 0.0918 -0.6302 0.1870
H26 H 0.0322 -0.6060 0.1435
C23 C -0.0937(3) 0.0186(2) 0.27923(8)
H27 H -0.0507 0.0955 0.2957
H28 H -0.1161 -0.0471 0.3013
C24 C -0.2063(3) 0.0066(2) 0.25663(7)
C25 C -0.3336(3) -0.0507(2) 0.18526(8)
H29 H -0.3969 -0.0485 0.2042
C26 C -0.3781(5) -0.1704(4) 0.16047(17)
H30 H -0.3673 -0.2255 0.1802
H31 H -0.3322 -0.1570 0.1323
H32 H -0.4630 -0.2050 0.1531
N1 N -0.22379(14) -0.02648(15) 0.21427(5)
H36 H -0.2204 -0.0958 0.2132
O1 O -0.01676(20) 0.01342(13) 0.24372(5)
O2 O -0.08639(19) -0.16188(14) 0.17044(5)
H37 H -0.0394 -0.0927 0.1827
O3 O -0.27847(19) 0.01881(14) 0.27882(5)
C1E C 0.07054(34) -0.0170(2) 0.07100(7)
C2E C 0.17440(33) 0.09076(19) 0.06081(7)
C3E C 0.2739(4) 0.0863(2) 0.04115(8)
H1E H 0.3446 0.1589 0.0341
C4E C 0.2690(4) -0.0262(2) 0.03184(7)
C5E C 0.16685(34) -0.1280(2) 0.04635(8)
H2E H 0.1647 -0.2023 0.0432
C6E C 0.0634(4) -0.1298(2) 0.06592(8)
C7E C 0.1897(4) 0.2121(2) 0.07295(9)
H3E H 0.1100 0.2051 0.0757
H4E H 0.2336 0.2696 0.0482
C8E C 0.2579(4) 0.2594(2) 0.11761(8)
C9E C 0.20169(32) 0.23358(19) 0.16052(7)
C10E C 0.26734(33) 0.27747(19) 0.20211(7)
C11E C 0.3940(4) 0.3490(2) 0.19866(9)
H5E H 0.4390 0.3789 0.2259
C12E C 0.4548(4) 0.3771(2) 0.15739(8)
C13E C 0.3844(4) 0.3303(2) 0.11568(9)
H6E H 0.4237 0.3475 0.0871
C14E C -0.0451(4) -0.2469(2) 0.08421(8)
H7E H -0.0661 -0.3130 0.0624
H8E H -0.1152 -0.2360 0.0878
C15E C 0.3721(4) -0.0360(2) 0.01044(8)
C16E C 0.3296(4) -0.1001(2) -0.03695(8)
H9E H 0.2625 -0.1813 -0.0324
H10E H 0.3958 -0.1039 -0.0517
H11E H 0.3042 -0.0551 -0.0563
C17E C 0.39440(34) -0.12749(19) 0.03774(8)
H12E H 0.3355 -0.1627 0.0623
H13E H 0.4751 -0.0861 0.0507
H14E H 0.3866 -0.1908 0.0172
C18E C 0.4813(4) 0.0931(2) 0.00282(9)
H15E H 0.4581 0.1372 -0.0180
H16E H 0.5480 0.0875 -0.0103
H17E H 0.5059 0.1351 0.0320
C19E C 0.5951(4) 0.4488(2) 0.15427(8)
C20E C 0.6391(4) 0.4398(2) 0.10598(8)
H18E H 0.6220 0.4875 0.0846
H19E H 0.5977 0.3562 0.0961
H20E H 0.7254 0.4702 0.1068
C21E C 0.6448(4) 0.4101(2) 0.19537(8)
H21E H 0.6447 0.4534 0.2227
H22E H 0.7267 0.4286 0.1887
H23E H 0.5942 0.3239 0.2004
C22E C 0.6400(4) 0.5848(2) 0.15787(9)
H24E H 0.5881 0.6040 0.1398
H25E H 0.7220 0.6302 0.1463
H26E H 0.6382 0.6060 0.1898
C23E C -0.1123(4) -0.0186(2) 0.05410(8)
H27E H -0.1462 -0.0955 0.0376
H28E H -0.0690 0.0471 0.0320
C24E C -0.2129(4) -0.0066(2) 0.07670(7)
C25E C -0.2829(4) 0.0507(2) 0.14807(8)
H29E H -0.3484 0.0485 0.1291
C26E C -0.2077(6) 0.1704(4) 0.17286(17)
H30E H -0.1418 0.2255 0.1531
H31E H -0.1752 0.1570 0.2010
H32E H -0.2580 0.2050 0.1802
N1E N -0.19731(21) 0.02648(15) 0.11906(5)
H36E H -0.1246 0.0958 0.1201
O1E O -0.03018(24) -0.01342(13) 0.08961(5)
O2E O 0.07549(24) 0.16188(14) 0.16289(5)
H37E H 0.0533 0.0927 0.1506
O3E O -0.29728(24) -0.01881(14) 0.05451(5)
C27? C 0.3974(6) -0.0446(4) 0.14973(19)
H33? H 0.4292 -0.0114 0.1196
H34? H 0.4635 -0.0197 0.1713
H35? H 0.3521 -0.1321 0.1479
O4? O -0.22379(21) -0.02648(15) 0.21427(5)
O5? O 0.31695(16) 0.0000 0.1667
H38? H 0.2673 -0.0467 0.1872
H41? H 0.2457 -0.0601 0.1711
loop_
_geom_bond_atom_site_label_1
_geom_bond_atom_site_label_2
_geom_bond_site_symmetry_1
_geom_bond_site_symmetry_2
C1 C2 1_555 1_555
C2 C3 1_555 1_555
C3 H1 1_555 1_555
C4 C3 1_555 1_555
C5 C4 1_555 1_555
H2 C5 1_555 1_555
C6 C1 1_555 1_555
C7 C2 1_555 1_555
H3 C7 1_555 1_555
H4 C7 1_555 1_555
C8 C7 1_555 1_555
C9 C8 1_555 1_555
C10 C9 1_555 1_555
C11 C10 1_555 1_555
H5 C11 1_555 1_555
C12 C11 1_555 1_555
C13 C8 1_555 1_555
H6 C13 1_555 1_555
C14 C6 1_555 1_555
H7 C14 1_555 1_555
H8 C14 1_555 1_555
C15 C4 1_555 1_555
C16 C15 1_555 1_555
H9 C16 1_555 1_555
H10 C16 1_555 1_555
H11 C16 1_555 1_555
C17 C15 1_555 1_555
H12 C17 1_555 1_555
H13 C17 1_555 1_555
H14 C17 1_555 1_555
C18 C15 1_555 1_555
H15 C18 1_555 1_555
H16 C18 1_555 1_555
H17 C18 1_555 1_555
C19 C12 1_555 1_555
C20 C19 1_555 1_555
H18 C20 1_555 1_555
H19 C20 1_555 1_555
H20 C20 1_555 1_555
C21 C19 1_555 1_555
H21 C21 1_555 1_555
H22 C21 1_555 1_555
H23 C21 1_555 1_555
C22 C19 1_555 1_555
H24 C22 1_555 1_555
H25 C22 1_555 1_555
H26 C22 1_555 1_555
C23 H27 1_555 1_555
H28 C23 1_555 1_555
C24 C23 1_555 1_555
C25 H29 1_555 1_555
C26 C25 1_555 1_555
H30 C26 1_555 1_555
H31 C26 1_555 1_555
H32 C26 1_555 1_555
N1 C24 1_555 1_555
H36 N1 1_555 1_555
O1 C1 1_555 1_555
O2 C9 1_555 1_555
H37 O2 1_555 1_555
O3 C24 1_555 1_555
O6 H39 1_555 1_555
H40 O6 1_555 1_555
C1E C2E 1_555 1_555
C2E C3E 1_555 1_555
C3E H1E 1_555 1_555
C4E C3E 1_555 1_555
C5E C4E 1_555 1_555
H2E C5E 1_555 1_555
C6E C1E 1_555 1_555
C7E C2E 1_555 1_555
H3E C7E 1_555 1_555
H4E C7E 1_555 1_555
C8E C7E 1_555 1_555
C9E C8E 1_555 1_555
C10E C14 1_555 1_555
C11E C10E 1_555 1_555
H5E C11E 1_555 1_555
C12E C11E 1_555 1_555
C13E C8E 1_555 1_555
H6E C13E 1_555 1_555
C14E C10 1_555 1_555
H7E C14E 1_555 1_555
H8E C14E 1_555 1_555
C15E C4E 1_555 1_555
C16E C15E 1_555 1_555
H9E C16E 1_555 1_555
H10E C16E 1_555 1_555
H11E C16E 1_555 1_555
C17E C15E 1_555 1_555
H12E C17E 1_555 1_555
H13E C17E 1_555 1_555
H14E C17E 1_555 1_555
C18E C15E 1_555 1_555
H15E C18E 1_555 1_555
H16E C18E 1_555 1_555
H17E C18E 1_555 1_555
C19E C12E 1_555 1_555
C20E C19E 1_555 1_555
H18E C20E 1_555 1_555
H19E C20E 1_555 1_555
H20E C20E 1_555 1_555
C21E C19E 1_555 1_555
H21E C21E 1_555 1_555
H22E C21E 1_555 1_555
H23E C21E 1_555 1_555
C22E C19E 1_555 1_555
H24E C22E 1_555 1_555
H25E C22E 1_555 1_555
H26E C22E 1_555 1_555
C23E H27E 1_555 1_555
H28E C23E 1_555 1_555
C24E C23E 1_555 1_555
C25E C25 1_555 1_555
H29E C25E 1_555 1_555
C26E C25E 1_555 1_555
H30E C26E 1_555 1_555
H31E C26E 1_555 1_555
H32E C26E 1_555 1_555
N1E C24E 1_555 1_555
H36E N1E 1_555 1_555
O1E C1E 1_555 1_555
O2E C9E 1_555 1_555
H37E O2E 1_555 1_555
O3E C24E 1_555 1_555
C5 C6 1_555 1_555
C12 C13 1_555 1_555
C23 O1 1_555 1_555
C25 N1 1_555 1_555
C5E C6E 1_555 1_555
C6E C14E 1_555 1_555
C9E C10E 1_555 1_555
C12E C13E 1_555 1_555
C23E O1E 1_555 1_555
C25E N1E 1_555 1_555

#END
