
#######################################################################
#
#                 Cambridge Crystallographic Data Centre
#                                CCDC 
#
#######################################################################
#
# If this CIF has been generated from an entry in the Cambridge 
# Structural Database, then it will include bibliographic, chemical, 
# crystal, experimental, refinement or atomic coordinate data resulting 
# from the CCDC's data processing and validation procedures.
#
#######################################################################

data_AVEMAR
_chemical_formula_moiety         'C17 H22 N4 O2 2+,2(N1 O3 1-),2(H2 O1)'
_chemical_name_systematic        
"2,2'-(propane-1,3-diyldicarbamoyl)dianilinium dinitrate dihydrate"
_symmetry_cell_setting           monoclinic
_symmetry_space_group_name_H-M   'C 2/c'
_symmetry_Int_Tables_number      15
_space_group_name_Hall           '-C 2yn'
loop_
_symmetry_equiv_pos_site_id
_symmetry_equiv_pos_as_xyz
1 x,y,z
2 -x,y,1/2-z
3 1/2+x,1/2+y,z
4 1/2-x,1/2+y,1/2-z
5 -x,-y,-z
6 x,-y,1/2+z
7 1/2-x,1/2-y,-z
8 1/2+x,1/2-y,1/2+z
_cell_length_a                   11.070(3)
_cell_length_b                   10.120(2)
_cell_length_c                   19.768(5)
_cell_angle_alpha                90
_cell_angle_beta                 92.615(4)
_cell_angle_gamma                90
_cell_volume                     2212.27
_exptl_crystal_colour            'light pink'
_exptl_crystal_description       plate
_cell_formula_units_Z            4
loop_
_atom_site_label
_atom_site_type_symbol
_atom_site_fract_x
_atom_site_fract_y
_atom_site_fract_z
C1 C 0.59664(15) 0.31650(17) 0.48614(9)
C2 C 0.64454(18) 0.43922(19) 0.47065(10)
H1 H 0.6470 0.4645 0.4255
C3 C 0.6883(2) 0.5242(2) 0.52010(11)
H2 H 0.7215 0.6050 0.5084
C4 C 0.6827(2) 0.4890(2) 0.58692(12)
H3 H 0.7119 0.5463 0.6206
C5 C 0.6346(2) 0.3701(2) 0.60414(10)
H4 H 0.6306 0.3468 0.6495
C6 C 0.59207(16) 0.28479(18) 0.55435(9)
C7 C 0.54910(16) 0.22341(17) 0.43196(9)
C8 C 0.5323(2) 0.1717(2) 0.31120(8)
H5 H 0.4623 0.1203 0.3229
H6 H 0.5961 0.1107 0.3004
C9 C 0.5000 0.2564(3) 0.2500
H7 H 0.4320 0.3127 0.2596
H8 H 0.518(2) 0.114(3) 0.5371(13)
H9 H 0.619(2) 0.310(2) 0.3600(11)
H10 H 0.593(3) 0.115(3) 0.6035(15)
H11 H 0.476(3) 0.176(3) 0.5984(14)
N1 N 0.5412(2) 0.15958(18) 0.57597(9)
N2 N 0.57210(16) 0.25247(17) 0.36865(8)
O1 O 0.48984(14) 0.12483(14) 0.44630(6)
H7A H 0.5680 0.3127 0.2404
C1A C 0.40336(15) 0.31650(17) 0.01386(9)
C2A C 0.35546(18) 0.43922(19) 0.02935(10)
H1A H 0.3530 0.4645 0.0745
C3A C 0.3117(2) 0.5242(2) -0.02010(11)
H2A H 0.2785 0.6050 -0.0084
C4A C 0.3173(2) 0.4890(2) -0.08692(12)
H3A H 0.2881 0.5463 -0.1206
C5A C 0.3654(2) 0.3701(2) -0.10414(10)
H4A H 0.3694 0.3468 -0.1495
C6A C 0.40793(16) 0.28479(18) -0.05435(9)
C7A C 0.45090(16) 0.22341(17) 0.06804(9)
C8A C 0.4677(2) 0.1717(2) 0.18880(8)
H5A H 0.5377 0.1203 0.1771
H6A H 0.4039 0.1107 0.1996
H8A H 0.482(2) 0.114(3) -0.0371(13)
H9A H 0.381(2) 0.310(2) 0.1400(11)
H10A H 0.407(3) 0.115(3) -0.1035(15)
H11A H 0.524(3) 0.176(3) -0.0984(14)
N1A N 0.4588(2) 0.15958(18) -0.07597(9)
N2A N 0.42790(16) 0.25247(17) 0.13135(8)
O1A O 0.51016(14) 0.12483(14) 0.05370(6)
H13 H 0.692(3) 0.116(3) 0.7094(17)
H14 H 0.735(3) 0.003(4) 0.6847(16)
O2 O 0.71652(16) 0.08036(19) 0.67483(9)
N3 N 0.33683(16) 0.26874(18) 0.68559(9)
O3 O 0.3374(2) 0.3094(2) 0.62751(9)
O4 O 0.28973(19) 0.3339(2) 0.72967(9)
O5 O 0.38021(19) 0.15947(18) 0.69792(10)
H12? H 0.4320 0.3127 0.2596
loop_
_geom_bond_atom_site_label_1
_geom_bond_atom_site_label_2
_geom_bond_site_symmetry_1
_geom_bond_site_symmetry_2
C1 C2 1_555 1_555
C2 H1 1_555 1_555
C3 C2 1_555 1_555
H2 C3 1_555 1_555
C4 C3 1_555 1_555
H3 C4 1_555 1_555
C5 C4 1_555 1_555
H4 C5 1_555 1_555
C6 C1 1_555 1_555
C7 C1 1_555 1_555
C8 H5 1_555 1_555
H6 C8 1_555 1_555
C9 C8 1_555 1_555
H7 C9 1_555 1_555
H8 N1 1_555 1_555
H9 N2 1_555 1_555
H10 N1 1_555 1_555
H11 N1 1_555 1_555
N1 C6 1_555 1_555
N2 C7 1_555 1_555
O1 C7 1_555 1_555
H13 O2 1_555 1_555
H14 O2 1_555 1_555
N3 O3 1_555 1_555
O4 N3 1_555 1_555
O5 N3 1_555 1_555
H7A C9 1_555 1_555
C1A C2A 1_555 1_555
C2A H1A 1_555 1_555
C3A C2A 1_555 1_555
H2A C3A 1_555 1_555
C4A C3A 1_555 1_555
H3A C4A 1_555 1_555
C5A C4A 1_555 1_555
H4A C5A 1_555 1_555
C6A C1A 1_555 1_555
C7A C1A 1_555 1_555
C8A C9 1_555 1_555
H5A C8A 1_555 1_555
H6A C8A 1_555 1_555
H8A N1A 1_555 1_555
H9A N2A 1_555 1_555
H10A N1A 1_555 1_555
H11A N1A 1_555 1_555
N1A C6A 1_555 1_555
N2A C7A 1_555 1_555
O1A C7A 1_555 1_555
C5 C6 1_555 1_555
C8 N2 1_555 1_555
C5A C6A 1_555 1_555
C8A N2A 1_555 1_555

#END
