
#######################################################################
#
#                 Cambridge Crystallographic Data Centre
#                                CCDC 
#
#######################################################################
#
# If this CIF has been generated from an entry in the Cambridge 
# Structural Database, then it will include bibliographic, chemical, 
# crystal, experimental, refinement or atomic coordinate data resulting 
# from the CCDC's data processing and validation procedures.
#
#######################################################################

data_AVEMUK01
_chemical_formula_moiety         'C6 H5 N1 O3,0.5(H2 O1)'
_chemical_name_systematic        
'4-oxo-1,4-dihydropyridine-3-carboxylic acid hemihydrate'
_symmetry_cell_setting           orthorhombic
_symmetry_space_group_name_H-M   'P 21 21 2'
_symmetry_Int_Tables_number      18
_space_group_name_Hall           'P 2 2ab'
loop_
_symmetry_equiv_pos_site_id
_symmetry_equiv_pos_as_xyz
1 x,y,z
2 -x,-y,z
3 1/2+x,1/2-y,-z
4 1/2-x,1/2+y,-z
_cell_length_a                   7.2840(2)
_cell_length_b                   23.5200(3)
_cell_length_c                   3.6450(12)
_cell_angle_alpha                90
_cell_angle_beta                 90
_cell_angle_gamma                90
_cell_volume                     624.46
_exptl_crystal_colour            colorless
_exptl_crystal_description       'irregular block'
_cell_formula_units_Z            4
loop_
_atom_site_label
_atom_site_type_symbol
_atom_site_fract_x
_atom_site_fract_y
_atom_site_fract_z
O1 O -0.3016(3) 0.13652(9) 0.5795(8)
H1 H -0.2568 0.1679 0.5164
O2 O -0.2132(3) 0.04576(10) 0.5697(7)
C1 C -0.0058(5) 0.11564(13) 0.3545(10)
C2 C -0.1860(5) 0.09684(15) 0.5121(10)
C3 C 0.1294(5) 0.07739(13) 0.2802(10)
H2 H 0.1088 0.0382 0.3275
C4 C 0.1980(5) 0.18961(14) 0.1297(10)
H3 H 0.2237 0.2282 0.0724
C5 C 0.0252(5) 0.17454(15) 0.2825(10)
N1 N 0.2918(4) 0.09414(11) 0.1409(8)
H4 H 0.3776 0.0686 0.0980
C6 C 0.3253(5) 0.14924(14) 0.0661(11)
H5 H 0.4409 0.1598 -0.0333
O3 O -0.1002(4) 0.21185(9) 0.3550(7)
O4 O 0.5000 0.0000 -0.0723(10)
H6 H 0.583(4) 0.0159(14) -0.196(9)
H6A H 0.417(4) -0.0159(14) -0.196(9)
loop_
_geom_bond_atom_site_label_1
_geom_bond_atom_site_label_2
_geom_bond_site_symmetry_1
_geom_bond_site_symmetry_2
O1 H1 1_555 1_555
O2 C2 1_555 1_555
C1 C2 1_555 1_555
C2 O1 1_555 1_555
C3 C1 1_555 1_555
H2 C3 1_555 1_555
C4 H3 1_555 1_555
C5 C1 1_555 1_555
N1 C3 1_555 1_555
H4 N1 1_555 1_555
C6 C4 1_555 1_555
H5 C6 1_555 1_555
O3 C5 1_555 1_555
O4 H6 1_555 1_555
H6A O4 1_555 1_555
C4 C5 1_555 1_555
N1 C6 1_555 1_555

#END
