
#######################################################################
#
#                 Cambridge Crystallographic Data Centre
#                                CCDC 
#
#######################################################################
#
# If this CIF has been generated from an entry in the Cambridge 
# Structural Database, then it will include bibliographic, chemical, 
# crystal, experimental, refinement or atomic coordinate data resulting 
# from the CCDC's data processing and validation procedures.
#
#######################################################################

data_AVEPIC
_chemical_formula_moiety         'C27 H23 Cl1 O5'
_chemical_name_systematic        
10-chloro-2,3,6,7,13-pentamethoxybenzo[g]chrysene
_symmetry_cell_setting           monoclinic
_symmetry_space_group_name_H-M   'P 21/n'
_symmetry_Int_Tables_number      14
_space_group_name_Hall           '-P 2yn'
loop_
_symmetry_equiv_pos_site_id
_symmetry_equiv_pos_as_xyz
1 x,y,z
2 1/2-x,1/2+y,1/2-z
3 -x,-y,-z
4 1/2+x,1/2-y,1/2+z
_cell_length_a                   11.6943(5)
_cell_length_b                   5.11536(16)
_cell_length_c                   36.4078(14)
_cell_angle_alpha                90
_cell_angle_beta                 94.254(4)
_cell_angle_gamma                90
_cell_volume                     2171.93
_cell_formula_units_Z            4
loop_
_atom_site_label
_atom_site_type_symbol
_atom_site_fract_x
_atom_site_fract_y
_atom_site_fract_z
Cl1 Cl 0.38102(7) 0.58059(15) 0.67525(2)
O1 O 0.22950(18) -0.7142(4) 0.51594(6)
O2 O -0.0734(2) 0.3084(4) 0.76434(6)
O3 O 0.39724(18) -0.4056(4) 0.53439(6)
O4 O -0.31553(17) -0.5034(4) 0.58976(6)
C1 C 0.1891(2) -0.1633(5) 0.59866(7)
O5 O -0.34060(18) -0.1234(5) 0.63434(6)
C2 C 0.0966(2) -0.3314(5) 0.58825(7)
C3 C 0.2099(2) -0.5432(5) 0.54348(7)
C4 C 0.1780(2) 0.0258(5) 0.62800(7)
C5 C -0.1111(2) -0.4302(5) 0.59060(7)
H1 H -0.1036 -0.5621 0.5734
C6 C -0.2166(2) -0.3783(6) 0.60185(8)
C7 C -0.0121(2) -0.2918(5) 0.60406(7)
C8 C 0.3027(2) -0.3721(5) 0.55361(8)
C9 C -0.0007(2) 0.1689(5) 0.70674(8)
H2 H -0.0568 0.0404 0.7035
C10 C 0.1714(2) 0.3777(5) 0.68819(8)
C11 C 0.2710(2) 0.1994(5) 0.63790(8)
H3 H 0.3368 0.1926 0.6251
C12 C -0.0239(2) -0.1012(5) 0.63153(7)
C13 C 0.0783(2) 0.0411(5) 0.64670(7)
C14 C 0.1110(2) -0.5215(5) 0.56073(7)
H4 H 0.0509 -0.6353 0.5542
C15 C 0.2648(2) 0.3722(5) 0.66547(8)
C16 C 0.0806(2) 0.1979(5) 0.68004(8)
C17 C -0.1356(2) -0.0389(5) 0.64093(8)
H5 H -0.1451 0.0985 0.6571
C18 C -0.2306(2) -0.1733(6) 0.62709(8)
C19 C 0.2911(2) -0.1915(5) 0.58056(8)
H6 H 0.3527 -0.0824 0.5873
C20 C 0.1372(3) -0.8771(6) 0.50342(9)
H7 H 0.1600 -0.9848 0.4836
H8 H 0.0729 -0.7712 0.4948
H9 H 0.1161 -0.9862 0.5233
C21 C 0.0857(3) 0.5210(6) 0.74287(9)
H10 H 0.0840 0.6349 0.7627
C22 C 0.0020(3) 0.3266(6) 0.73717(8)
C23 C -0.3097(3) -0.6869(6) 0.56059(9)
H11 H -0.2797 -0.6027 0.5398
H12 H -0.3852 -0.7527 0.5537
H13 H -0.2605 -0.8291 0.5686
C24 C 0.4844(3) -0.2106(7) 0.53971(10)
H14 H 0.5421 -0.2396 0.5227
H15 H 0.5185 -0.2205 0.5645
H16 H 0.4511 -0.0407 0.5355
C25 C 0.1689(3) 0.5414(6) 0.71922(9)
H17 H 0.2260 0.6666 0.7235
C26 C -0.1471(3) 0.0887(7) 0.76392(10)
H18 H -0.2017 0.0991 0.7429
H19 H -0.1869 0.0863 0.7860
H20 H -0.1027 -0.0683 0.7625
C27 C -0.3623(3) 0.0850(7) 0.65851(9)
H21 H -0.3382 0.2468 0.6482
H22 H -0.3206 0.0566 0.6819
H23 H -0.4429 0.0930 0.6619
loop_
_geom_bond_atom_site_label_1
_geom_bond_atom_site_label_2
_geom_bond_site_symmetry_1
_geom_bond_site_symmetry_2
Cl1 C15 1_555 1_555
O1 C3 1_555 1_555
O2 C22 1_555 1_555
O3 C8 1_555 1_555
O4 C6 1_555 1_555
C1 C2 1_555 1_555
O5 C18 1_555 1_555
C2 C7 1_555 1_555
C3 C8 1_555 1_555
C4 C1 1_555 1_555
C5 H1 1_555 1_555
C6 C5 1_555 1_555
C7 C5 1_555 1_555
C8 C19 1_555 1_555
C9 H2 1_555 1_555
C10 C15 1_555 1_555
C11 C4 1_555 1_555
H3 C11 1_555 1_555
C12 C7 1_555 1_555
C13 C4 1_555 1_555
C14 C2 1_555 1_555
H4 C14 1_555 1_555
C15 C11 1_555 1_555
C16 C9 1_555 1_555
C17 C12 1_555 1_555
H5 C17 1_555 1_555
C18 C6 1_555 1_555
C19 C1 1_555 1_555
H6 C19 1_555 1_555
C20 O1 1_555 1_555
H7 C20 1_555 1_555
H8 C20 1_555 1_555
H9 C20 1_555 1_555
C21 H10 1_555 1_555
C22 C9 1_555 1_555
C23 O4 1_555 1_555
H11 C23 1_555 1_555
H12 C23 1_555 1_555
H13 C23 1_555 1_555
C24 O3 1_555 1_555
H14 C24 1_555 1_555
H15 C24 1_555 1_555
H16 C24 1_555 1_555
C25 C10 1_555 1_555
H17 C25 1_555 1_555
C26 O2 1_555 1_555
H18 C26 1_555 1_555
H19 C26 1_555 1_555
H20 C26 1_555 1_555
C27 O5 1_555 1_555
H21 C27 1_555 1_555
H22 C27 1_555 1_555
H23 C27 1_555 1_555
C3 C14 1_555 1_555
C10 C16 1_555 1_555
C12 C13 1_555 1_555
C13 C16 1_555 1_555
C17 C18 1_555 1_555
C21 C22 1_555 1_555
C21 C25 1_555 1_555

#END
