
#######################################################################
#
#                 Cambridge Crystallographic Data Centre
#                                CCDC 
#
#######################################################################
#
# If this CIF has been generated from an entry in the Cambridge 
# Structural Database, then it will include bibliographic, chemical, 
# crystal, experimental, refinement or atomic coordinate data resulting 
# from the CCDC's data processing and validation procedures.
#
#######################################################################

data_AVEZUY
_chemical_formula_moiety         'C16 H15 Br1 N2 O3,H2 O1'
_chemical_name_systematic        
"N'-(5-Bromo-2-hydroxy-3-methoxybenzylidene)-3-methylbenzohydrazide monohydrate"
_symmetry_cell_setting           monoclinic
_symmetry_space_group_name_H-M   'P 21/c'
_symmetry_Int_Tables_number      14
_space_group_name_Hall           '-P 2ybc'
loop_
_symmetry_equiv_pos_site_id
_symmetry_equiv_pos_as_xyz
1 x,y,z
2 -x,1/2+y,1/2-z
3 -x,-y,-z
4 x,1/2-y,1/2+z
_cell_length_a                   6.0928(19)
_cell_length_b                   14.365(4)
_cell_length_c                   19.357(6)
_cell_angle_alpha                90
_cell_angle_beta                 101.374(9)
_cell_angle_gamma                90
_cell_volume                     1660.91
_exptl_crystal_colour            colorless
_exptl_crystal_description       block
_cell_formula_units_Z            4
loop_
_atom_site_label
_atom_site_type_symbol
_atom_site_fract_x
_atom_site_fract_y
_atom_site_fract_z
Br1 Br 1.26052(8) 0.77124(4) 0.94065(3)
O1 O 0.6082(5) 1.0762(2) 0.83527(17)
O2 O 0.9908(5) 1.1192(2) 0.91142(15)
O3 O 0.0417(5) 1.0722(2) 0.71281(17)
N1 N 0.3377(6) 0.9498(3) 0.77398(17)
N2 N 0.1348(6) 0.9225(3) 0.73442(19)
C1 C 0.6935(7) 0.9117(3) 0.8402(2)
C2 C 0.7492(7) 1.0040(3) 0.8572(2)
C3 C 0.9599(7) 1.0268(3) 0.8985(2)
C4 C 1.1079(7) 0.9572(3) 0.9221(2)
H1 H 1.2466 0.9716 0.9498
C5 C 1.0538(7) 0.8662(3) 0.9053(2)
C6 C 0.8489(7) 0.8424(3) 0.8647(2)
H2 H 0.8149 0.7804 0.8538
C7 C 0.4791(7) 0.8863(3) 0.7982(2)
H3 H 0.4439 0.8240 0.7888
C8 C -0.0072(7) 0.9900(4) 0.7053(2)
C9 C -0.2300(7) 0.9580(3) 0.6635(2)
C10 C -0.3729(7) 1.0257(3) 0.6310(2)
H4 H -0.3283 1.0877 0.6359
C11 C -0.5833(7) 1.0043(4) 0.5910(2)
C12 C -0.6449(8) 0.9121(4) 0.5857(2)
H5 H -0.7852 0.8961 0.5599
C13 C -0.5040(8) 0.8428(4) 0.6177(2)
H6 H -0.5500 0.7810 0.6131
C14 C -0.2952(7) 0.8646(3) 0.6567(2)
H7 H -0.1995 0.8179 0.6780
C15 C 1.2058(7) 1.1477(3) 0.9484(2)
H8 H 1.2343 1.1210 0.9947
H9 H 1.2100 1.2144 0.9520
H10 H 1.3180 1.1271 0.9233
C16 C -0.7368(8) 1.0791(4) 0.5559(3)
H11 H -0.6792 1.1389 0.5728
H12 H -0.8828 1.0706 0.5666
H13 H -0.7469 1.0760 0.5058
H14 H 0.111(8) 0.8610(10) 0.730(2)
H15 H 0.493(5) 1.049(3) 0.812(2)
O4 O 0.1396(6) 0.7235(2) 0.7304(2)
H16 H 0.199(7) 0.691(3) 0.703(2)
H17 H 0.049(6) 0.690(2) 0.747(2)
loop_
_geom_bond_atom_site_label_1
_geom_bond_atom_site_label_2
_geom_bond_site_symmetry_1
_geom_bond_site_symmetry_2
Br1 C5 1_555 1_555
O1 C2 1_555 1_555
O2 C3 1_555 1_555
O3 C8 1_555 1_555
N1 N2 1_555 1_555
N2 C8 1_555 1_555
C1 C2 1_555 1_555
C2 C3 1_555 1_555
C3 C4 1_555 1_555
C4 H1 1_555 1_555
C5 C4 1_555 1_555
C6 C1 1_555 1_555
H2 C6 1_555 1_555
C7 N1 1_555 1_555
H3 C7 1_555 1_555
C8 C9 1_555 1_555
C9 C10 1_555 1_555
C10 H4 1_555 1_555
C11 C10 1_555 1_555
C12 C11 1_555 1_555
H5 C12 1_555 1_555
C13 C12 1_555 1_555
H6 C13 1_555 1_555
C14 C9 1_555 1_555
H7 C14 1_555 1_555
C15 O2 1_555 1_555
H8 C15 1_555 1_555
H9 C15 1_555 1_555
H10 C15 1_555 1_555
C16 C11 1_555 1_555
H11 C16 1_555 1_555
H12 C16 1_555 1_555
H13 C16 1_555 1_555
H14 N2 1_555 1_555
H15 O1 1_555 1_555
O4 H16 1_555 1_555
H17 O4 1_555 1_555
C1 C7 1_555 1_555
C5 C6 1_555 1_555
C13 C14 1_555 1_555

#END
