
#######################################################################
#
#                 Cambridge Crystallographic Data Centre
#                                CCDC 
#
#######################################################################
#
# If this CIF has been generated from an entry in the Cambridge 
# Structural Database, then it will include bibliographic, chemical, 
# crystal, experimental, refinement or atomic coordinate data resulting 
# from the CCDC's data processing and validation procedures.
#
#######################################################################

data_AVEZOS
_chemical_formula_moiety         'C15 H12 Cl2 N2 O2,H2 O1'
_chemical_name_systematic        
"N'-(3,5-Dichloro-2-hydroxybenzylidene)-3-methylbenzohydrazide monohydrate"
_symmetry_cell_setting           monoclinic
_symmetry_space_group_name_H-M   'P 21/n'
_symmetry_Int_Tables_number      14
_space_group_name_Hall           '-P 2yn'
loop_
_symmetry_equiv_pos_site_id
_symmetry_equiv_pos_as_xyz
1 x,y,z
2 1/2-x,1/2+y,1/2-z
3 -x,-y,-z
4 1/2+x,1/2-y,1/2+z
_cell_length_a                   6.1080(10)
_cell_length_b                   14.021(2)
_cell_length_c                   18.450(2)
_cell_angle_alpha                90
_cell_angle_beta                 95.152(2)
_cell_angle_gamma                90
_cell_volume                     1573.68
_exptl_crystal_colour            colorless
_exptl_crystal_description       block
_cell_formula_units_Z            4
loop_
_atom_site_label
_atom_site_type_symbol
_atom_site_fract_x
_atom_site_fract_y
_atom_site_fract_z
Cl1 Cl 1.3539(2) 0.32931(10) 0.03982(8)
Cl2 Cl 1.1661(2) 0.69816(9) 0.08010(8)
N1 N 0.5918(5) 0.4914(3) 0.2155(2)
N2 N 0.4257(6) 0.4602(3) 0.2547(2)
O1 O 0.8134(5) 0.6253(2) 0.16170(19)
H1 H 0.7346 0.6026 0.1910
O2 O 0.3616(5) 0.6111(2) 0.28827(18)
C1 C 0.8855(6) 0.4583(3) 0.1439(2)
C2 C 0.9324(7) 0.5547(3) 0.1338(2)
C3 C 1.1066(7) 0.5800(3) 0.0937(3)
C4 C 1.2357(7) 0.5107(4) 0.0653(3)
H2 H 1.3528 0.5280 0.0392
C5 C 1.1891(7) 0.4158(4) 0.0761(3)
C6 C 1.0173(7) 0.3890(3) 0.1137(2)
H3 H 0.9868 0.3246 0.1195
C7 C 0.7080(7) 0.4283(3) 0.1860(2)
H4 H 0.6785 0.3638 0.1915
C8 C 0.3132(7) 0.5260(3) 0.2903(3)
C9 C 0.1318(7) 0.4896(3) 0.3321(2)
C10 C 0.0177(7) 0.5545(3) 0.3713(2)
H5 H 0.0601 0.6182 0.3718
C11 C -0.1564(7) 0.5276(4) 0.4096(3)
C12 C -0.2141(7) 0.4335(4) 0.4098(3)
H6 H -0.3291 0.4139 0.4361
C13 C -0.1035(7) 0.3669(4) 0.3715(3)
H7 H -0.1448 0.3031 0.3722
C14 C 0.0673(7) 0.3944(3) 0.3322(3)
H8 H 0.1392 0.3495 0.3058
C15 C -0.2761(8) 0.6009(4) 0.4508(3)
H9 H -0.2196 0.6632 0.4416
H10 H -0.2547 0.5875 0.5020
H11 H -0.4302 0.5988 0.4351
H12 H 0.394(7) 0.3973(11) 0.256(3)
O3 O 0.0694(6) 0.7589(2) 0.2572(2)
H13 H 0.171(5) 0.721(2) 0.273(2)
H14 H -0.006(6) 0.732(3) 0.2223(19)
loop_
_geom_bond_atom_site_label_1
_geom_bond_atom_site_label_2
_geom_bond_site_symmetry_1
_geom_bond_site_symmetry_2
Cl1 C5 1_555 1_555
Cl2 C3 1_555 1_555
N1 N2 1_555 1_555
N2 C8 1_555 1_555
O1 H1 1_555 1_555
O2 C8 1_555 1_555
C1 C2 1_555 1_555
C2 O1 1_555 1_555
C3 C2 1_555 1_555
C4 C3 1_555 1_555
H2 C4 1_555 1_555
C5 C4 1_555 1_555
C6 C1 1_555 1_555
H3 C6 1_555 1_555
C7 N1 1_555 1_555
H4 C7 1_555 1_555
C8 C9 1_555 1_555
C9 C10 1_555 1_555
C10 H5 1_555 1_555
C11 C10 1_555 1_555
C12 C11 1_555 1_555
H6 C12 1_555 1_555
C13 C12 1_555 1_555
H7 C13 1_555 1_555
C14 C9 1_555 1_555
H8 C14 1_555 1_555
C15 C11 1_555 1_555
H9 C15 1_555 1_555
H10 C15 1_555 1_555
H11 C15 1_555 1_555
H12 N2 1_555 1_555
O3 H13 1_555 1_555
H14 O3 1_555 1_555
C1 C7 1_555 1_555
C5 C6 1_555 1_555
C13 C14 1_555 1_555

#END
