
#######################################################################
#
#                 Cambridge Crystallographic Data Centre
#                                CCDC 
#
#######################################################################
#
# If this CIF has been generated from an entry in the Cambridge 
# Structural Database, then it will include bibliographic, chemical, 
# crystal, experimental, refinement or atomic coordinate data resulting 
# from the CCDC's data processing and validation procedures.
#
#######################################################################

data_AVIBOY
_chemical_formula_moiety         'C54 H30 S9,C60,0.5(C1 S2),0.5(C6 H14)'
_chemical_name_systematic        
"2,3,5,6,8,9-hexakis(phenylsulfanyl)bisthieno[2',3',4',5':4,5;2'',3'',4'',5'':8,9]triphenyleno[1,12-bcd]thiophene C60-fullerene carbon disulfide hexane solvate"
_symmetry_cell_setting           monoclinic
_symmetry_space_group_name_H-M   'P 21/n'
_symmetry_Int_Tables_number      14
_space_group_name_Hall           '-P 2yn'
loop_
_symmetry_equiv_pos_site_id
_symmetry_equiv_pos_as_xyz
1 x,y,z
2 1/2-x,1/2+y,1/2-z
3 -x,-y,-z
4 1/2+x,1/2-y,1/2+z
_cell_length_a                   16.3411(11)
_cell_length_b                   16.6464(9)
_cell_length_c                   27.9053(12)
_cell_angle_alpha                90
_cell_angle_beta                 99.585(5)
_cell_angle_gamma                90
_cell_volume                     7484.84
_cell_formula_units_Z            4
loop_
_atom_site_label
_atom_site_type_symbol
_atom_site_fract_x
_atom_site_fract_y
_atom_site_fract_z
S10 S 0.9169(7) 0.0934(8) 0.4141(4)
C61 C 0.8561(19) 0.1544(15) 0.3925(11)
S11 S 0.8018(11) 0.2249(11) 0.3712(7)
C68 C 0.6371(7) 0.4737(5) 0.7487(3)
C69 C 0.5658(5) 0.4901(5) 0.7135(4)
C70 C 0.5893(6) 0.4853(5) 0.6668(3)
C71 C 0.6751(7) 0.4659(5) 0.6732(3)
C72 C 0.7046(5) 0.4588(5) 0.7238(4)
C73 C 0.5972(6) 0.1589(6) 0.8030(4)
C74 C 0.6401(8) 0.1105(4) 0.7734(3)
C75 C 0.7190(7) 0.1457(7) 0.7729(4)
C76 C 0.7250(7) 0.2159(6) 0.8021(4)
C77 C 0.6497(9) 0.2241(4) 0.8208(3)
C78 C 0.5102(8) 0.3364(5) 0.5793(3)
C79 C 0.4399(6) 0.3516(6) 0.6018(4)
C80 C 0.4557(6) 0.4225(6) 0.6301(4)
C81 C 0.5357(7) 0.4511(5) 0.6251(4)
C82 C 0.5693(6) 0.3979(6) 0.5937(4)
C83 C 0.6842(5) 0.3729(7) 0.8086(4)
C84 C 0.6421(8) 0.3077(4) 0.8265(4)
C85 C 0.5560(7) 0.3256(6) 0.8184(4)
C86 C 0.5448(5) 0.4019(6) 0.7955(3)
C87 C 0.6240(7) 0.4312(5) 0.7895(3)
C88 C 0.4913(7) 0.2689(6) 0.8021(3)
C89 C 0.5155(6) 0.1879(6) 0.7970(3)
C90 C 0.4615(8) 0.1540(5) 0.7569(4)
C91 C 0.4040(6) 0.2142(7) 0.7372(3)
C92 C 0.4224(7) 0.2852(5) 0.7651(4)
C93 C 0.8038(6) 0.2660(6) 0.7341(5)
C94 C 0.7764(7) 0.2737(6) 0.7795(4)
C95 C 0.7523(6) 0.3548(7) 0.7846(3)
C96 C 0.7649(6) 0.3972(5) 0.7423(4)
C97 C 0.7967(7) 0.3424(7) 0.7111(3)
C98 C 0.5299(8) 0.2597(5) 0.5721(3)
C99 C 0.4869(5) 0.1951(7) 0.5899(4)
C100 C 0.5459(8) 0.1350(5) 0.6077(3)
C101 C 0.6254(6) 0.1626(7) 0.6009(4)
C102 C 0.6155(7) 0.2397(7) 0.5789(4)
C103 C 0.5394(8) 0.0885(5) 0.6506(3)
C104 C 0.4709(6) 0.1034(6) 0.6747(4)
C105 C 0.4993(8) 0.0973(5) 0.7255(3)
C106 C 0.5852(8) 0.0786(5) 0.7328(4)
C107 C 0.6100(6) 0.0731(5) 0.6864(5)
C108 C 0.4203(7) 0.3623(6) 0.7474(4)
C109 C 0.3891(5) 0.3655(6) 0.6968(5)
C110 C 0.4311(7) 0.4282(6) 0.6764(3)
C111 C 0.4882(6) 0.4638(5) 0.7144(5)
C112 C 0.4815(7) 0.4231(7) 0.7583(3)
C113 C 0.3786(7) 0.2169(7) 0.6903(3)
C114 C 0.4101(7) 0.1645(4) 0.6575(4)
C115 C 0.4207(6) 0.2097(7) 0.6158(3)
C116 C 0.3958(7) 0.2900(6) 0.6228(4)
C117 C 0.3698(6) 0.2944(6) 0.6688(5)
C118 C 0.6940(7) 0.1369(8) 0.6414(4)
C119 C 0.7553(8) 0.1977(7) 0.6519(5)
C120 C 0.7865(6) 0.1953(7) 0.7025(5)
C121 C 0.7445(8) 0.1331(7) 0.7233(4)
C122 C 0.6873(7) 0.0970(5) 0.6856(5)
C123 C 0.6822(7) 0.2960(6) 0.5959(3)
C124 C 0.7519(7) 0.2811(6) 0.6325(5)
C125 C 0.7689(6) 0.3523(8) 0.6604(4)
C126 C 0.7097(7) 0.4113(5) 0.6410(4)
C127 C 0.6561(6) 0.3765(7) 0.6011(3)
S1 S 0.64105(11) 0.23579(9) 0.46238(6)
S2 S 0.91029(11) 0.43407(10) 0.59791(6)
S3 S 0.90074(11) 0.06308(10) 0.61588(6)
S4 S 1.01843(11) 0.16363(11) 0.71196(6)
S5 S 0.74502(12) 0.54506(10) 0.53384(7)
S6 S 0.60602(12) 0.02596(11) 0.48362(7)
S7 S 0.60991(13) 0.45314(11) 0.47099(7)
S8 S 1.04160(13) 0.35216(12) 0.69936(6)
S9 S 0.73814(13) -0.05501(11) 0.56233(8)
C1 C 0.8361(5) 0.4052(4) 0.5466(2)
C2 C 0.7127(5) 0.3148(4) 0.4845(2)
C3 C 0.9066(4) 0.2022(4) 0.5739(2)
C4 C 0.7110(5) 0.1604(4) 0.4902(2)
C5 C 0.9085(4) 0.2851(4) 0.5701(2)
C6 C 0.7653(5) 0.4426(4) 0.5214(3)
C7 C 0.8308(5) 0.0811(4) 0.5603(2)
C8 C 0.9399(4) 0.1629(4) 0.6168(2)
C9 C 0.5667(5) 0.0681(4) 0.4260(3)
C10 C 0.8477(4) 0.3246(4) 0.5358(2)
C11 C 0.7021(4) 0.3987(4) 0.4906(2)
C12 C 1.1202(5) 0.5554(5) 0.6413(3)
H1 H 1.1067 0.6110 0.6407
C13 C 0.7856(4) 0.1957(4) 0.5088(2)
C14 C 0.6994(5) 0.0790(4) 0.5030(2)
C15 C 0.7598(5) 0.0406(4) 0.5390(3)
C16 C 0.9845(5) 0.2090(5) 0.6550(2)
C17 C 1.1455(5) 0.1184(6) 0.6614(3)
H2 H 1.1175 0.1463 0.6338
C18 C 1.0757(5) 0.5011(5) 0.6655(3)
H3 H 1.0313 0.5193 0.6808
C19 C 0.8458(4) 0.1572(4) 0.5431(2)
C20 C 0.9466(4) 0.3329(4) 0.6083(2)
C21 C 1.1618(5) 0.3939(5) 0.6450(3)
H4 H 1.1772 0.3388 0.6470
C22 C 0.8966(5) 0.5681(4) 0.5025(3)
H5 H 0.8815 0.5259 0.4799
C23 C 1.1127(4) 0.1167(4) 0.7045(3)
C24 C 0.7884(5) 0.2803(4) 0.5056(2)
C25 C 1.0972(5) 0.4202(5) 0.6668(3)
C26 C 0.9883(5) 0.2942(5) 0.6503(3)
C27 C 0.9706(5) 0.6079(5) 0.5043(3)
H6 H 1.0076 0.5924 0.4830
C28 C 0.5758(6) 0.1002(5) 0.3424(3)
H7 H 0.6079 0.1063 0.3172
C29 C 0.8433(5) 0.5912(4) 0.5349(3)
C30 C 0.4823(5) 0.0877(4) 0.4178(3)
H8 H 0.4509 0.0852 0.4435
C31 C 0.9922(6) 0.6718(5) 0.5373(3)
H9 H 1.0437 0.6988 0.5384
C32 C 1.2045(5) 0.4473(6) 0.6200(3)
H10 H 1.2478 0.4285 0.6041
C33 C 0.8637(5) 0.6538(5) 0.5669(3)
H11 H 0.8269 0.6693 0.5883
C34 C 0.4908(6) 0.1175(5) 0.3340(3)
H12 H 0.4645 0.1338 0.3026
C35 C 0.6127(6) 0.0736(5) 0.3891(3)
H13 H 0.6698 0.0594 0.3950
C36 C 1.1837(6) 0.5287(6) 0.6184(3)
H14 H 1.2131 0.5655 0.6015
C37 C 0.9387(6) 0.6946(6) 0.5678(3)
H15 H 0.9526 0.7382 0.5896
C38 C 0.4449(6) 0.1108(5) 0.3714(3)
H16 H 0.3872 0.1223 0.3652
C39 C 1.2289(5) 0.0369(5) 0.7412(4)
H17 H 1.2572 0.0089 0.7687
C40 C 1.1547(5) 0.0765(5) 0.7443(3)
H18 H 1.1331 0.0756 0.7739
C41 C 0.5319(4) 0.3315(3) 0.34687(16)
H19 H 0.5528 0.3173 0.3182
C42 C 0.5826(3) 0.3713(3) 0.38436(18)
H20 H 0.6381 0.3844 0.3813
C43 C 0.5521(3) 0.3920(3) 0.42632(15)
C44 C 0.4709(3) 0.3728(3) 0.43077(19)
H21 H 0.4501 0.3870 0.4594
C45 C 0.4203(3) 0.3330(4) 0.3933(3)
H22 H 0.3648 0.3198 0.3963
C46 C 0.4508(3) 0.3123(4) 0.3513(2)
H23 H 0.4161 0.2850 0.3257
C47 C 1.2198(6) 0.0787(7) 0.6594(4)
H24 H 1.2421 0.0797 0.6300
C48 C 1.2617(6) 0.0380(6) 0.6989(4)
H25 H 1.3123 0.0111 0.6970
C49 C 0.8997(6) -0.1569(7) 0.4762(4)
H26 H 0.9538 -0.1476 0.4692
C50 C 0.8539(7) -0.2225(6) 0.4559(4)
H27 H 0.8767 -0.2580 0.4350
C51 C 0.7748(7) -0.2361(5) 0.4662(4)
H28 H 0.7435 -0.2809 0.4524
C52 C 0.7414(5) -0.1841(6) 0.4969(4)
H29 H 0.6873 -0.1934 0.5039
C53 C 0.7872(6) -0.1185(5) 0.5172(3)
C54 C 0.8663(6) -0.1049(5) 0.5069(4)
H30 H 0.8976 -0.0601 0.5207
C55? C 0.8298(11) -0.1111(9) 0.5064(7)
H31? H 0.8621 -0.0646 0.5160
C56? C 0.8560(12) -0.1659(12) 0.4745(7)
H32? H 0.9061 -0.1567 0.4623
C57? C 0.8088(12) -0.2340(10) 0.4604(6)
H33? H 0.8267 -0.2714 0.4386
C58? C 0.7355(11) -0.2473(8) 0.4783(6)
H34? H 0.7033 -0.2939 0.4687
C59? C 0.7094(9) -0.1926(9) 0.5102(6)
H35? H 0.6593 -0.2017 0.5224
C60? C 0.7565(10) -0.1245(8) 0.5242(5)
C62? C 0.8300(16) 0.1515(12) 0.3837(9)
H36? H 0.8362 0.1274 0.3520
H37? H 0.7853 0.1209 0.3954
C63? C 0.7261(13) 0.2251(13) 0.2873(7)
H38? H 0.6894 0.2626 0.2669
H39? H 0.6995 0.1723 0.2866
H40? H 0.7786 0.2204 0.2750
C64? C 0.9156(14) 0.0417(14) 0.4379(8)
H41? H 0.9074 0.0031 0.4110
H42? H 0.8740 0.0322 0.4589
H43? H 0.9713 0.0349 0.4568
C65? C 0.7411(14) 0.2530(15) 0.3338(8)
H44? H 0.6868 0.2497 0.3451
H45? H 0.7524 0.3110 0.3307
C66? C 0.7982(12) 0.2276(11) 0.3730(7)
H46? H 0.7746 0.2439 0.4020
H47? H 0.8474 0.2623 0.3728
C67? C 0.906(2) 0.131(2) 0.4166(12)
H48? H 0.9109 0.1687 0.4445
H49? H 0.9531 0.1419 0.3996
loop_
_geom_bond_atom_site_label_1
_geom_bond_atom_site_label_2
_geom_bond_site_symmetry_1
_geom_bond_site_symmetry_2
S1 C2 1_555 1_555
S2 C1 1_555 1_555
S3 C7 1_555 1_555
S4 C16 1_555 1_555
S5 C6 1_555 1_555
S6 C9 1_555 1_555
S7 C11 1_555 1_555
S8 C25 1_555 1_555
S9 C15 1_555 1_555
C1 C6 1_555 1_555
C2 C11 1_555 1_555
C3 C5 1_555 1_555
C4 S1 1_555 1_555
C5 C10 1_555 1_555
C6 C11 1_555 1_555
C7 C15 1_555 1_555
C8 S3 1_555 1_555
C9 C30 1_555 1_555
C10 C1 1_555 1_555
C12 H1 1_555 1_555
C13 C4 1_555 1_555
C14 S6 1_555 1_555
C15 C14 1_555 1_555
C16 C8 1_555 1_555
C17 H2 1_555 1_555
C18 C12 1_555 1_555
H3 C18 1_555 1_555
C19 C3 1_555 1_555
C20 S2 1_555 1_555
C21 H4 1_555 1_555
C22 H5 1_555 1_555
C23 S4 1_555 1_555
C24 C2 1_555 1_555
C25 C18 1_555 1_555
C26 S8 1_555 1_555
C27 C22 1_555 1_555
H6 C27 1_555 1_555
C28 H7 1_555 1_555
C29 S5 1_555 1_555
C30 H8 1_555 1_555
C31 C27 1_555 1_555
H9 C31 1_555 1_555
C32 C21 1_555 1_555
H10 C32 1_555 1_555
C33 C29 1_555 1_555
H11 C33 1_555 1_555
C34 C28 1_555 1_555
H12 C34 1_555 1_555
C35 C9 1_555 1_555
H13 C35 1_555 1_555
C36 C12 1_555 1_555
H14 C36 1_555 1_555
C37 C31 1_555 1_555
H15 C37 1_555 1_555
C38 C30 1_555 1_555
H16 C38 1_555 1_555
C39 H17 1_555 1_555
C40 C23 1_555 1_555
H18 C40 1_555 1_555
C41 H19 1_555 1_555
C42 C41 1_555 1_555
H20 C42 1_555 1_555
C43 S7 1_555 1_555
C44 C43 1_555 1_555
H21 C44 1_555 1_555
C45 C44 1_555 1_555
H22 C45 1_555 1_555
C46 C41 1_555 1_555
H23 C46 1_555 1_555
C47 C17 1_555 1_555
H24 C47 1_555 1_555
C48 C39 1_555 1_555
H25 C48 1_555 1_555
C49 H26 1_555 1_555
C50 C49 1_555 1_555
H27 C50 1_555 1_555
C51 C50 1_555 1_555
H28 C51 1_555 1_555
C52 C51 1_555 1_555
H29 C52 1_555 1_555
C53 S9 1_555 1_555
C54 C49 1_555 1_555
H30 C54 1_555 1_555
S10 C61 1_555 1_555
C61 S11 1_555 1_555
C68 C69 1_555 1_555
C69 C70 1_555 1_555
C70 C71 1_555 1_555
C71 C72 1_555 1_555
C72 C68 1_555 1_555
C73 C74 1_555 1_555
C74 C75 1_555 1_555
C75 C76 1_555 1_555
C76 C77 1_555 1_555
C77 C73 1_555 1_555
C78 C79 1_555 1_555
C79 C80 1_555 1_555
C80 C81 1_555 1_555
C81 C70 1_555 1_555
C82 C78 1_555 1_555
C83 C84 1_555 1_555
C84 C77 1_555 1_555
C85 C84 1_555 1_555
C86 C85 1_555 1_555
C87 C68 1_555 1_555
C88 C85 1_555 1_555
C89 C73 1_555 1_555
C90 C89 1_555 1_555
C91 C90 1_555 1_555
C92 C88 1_555 1_555
C93 C94 1_555 1_555
C94 C76 1_555 1_555
C95 C83 1_555 1_555
C96 C72 1_555 1_555
C97 C93 1_555 1_555
C98 C78 1_555 1_555
C99 C98 1_555 1_555
C100 C99 1_555 1_555
C101 C100 1_555 1_555
C102 C98 1_555 1_555
C103 C100 1_555 1_555
C104 C103 1_555 1_555
C105 C90 1_555 1_555
C106 C74 1_555 1_555
C107 C103 1_555 1_555
C108 C92 1_555 1_555
C109 C108 1_555 1_555
C110 C80 1_555 1_555
C111 C69 1_555 1_555
C112 C86 1_555 1_555
C113 C91 1_555 1_555
C114 C104 1_555 1_555
C115 C99 1_555 1_555
C116 C79 1_555 1_555
C117 C109 1_555 1_555
C118 C101 1_555 1_555
C119 C118 1_555 1_555
C120 C93 1_555 1_555
C121 C75 1_555 1_555
C122 C107 1_555 1_555
C123 C102 1_555 1_555
C124 C119 1_555 1_555
C125 C97 1_555 1_555
C126 C71 1_555 1_555
C127 C82 1_555 1_555
C3 C8 1_555 1_555
C4 C14 1_555 1_555
C5 C20 1_555 1_555
C7 C19 1_555 1_555
C10 C24 1_555 1_555
C13 C19 1_555 1_555
C13 C24 1_555 1_555
C16 C26 1_555 1_555
C17 C23 1_555 1_555
C20 C26 1_555 1_555
C21 C25 1_555 1_555
C22 C29 1_555 1_555
C28 C35 1_555 1_555
C32 C36 1_555 1_555
C33 C37 1_555 1_555
C34 C38 1_555 1_555
C39 C40 1_555 1_555
C42 C43 1_555 1_555
C45 C46 1_555 1_555
C47 C48 1_555 1_555
C52 C53 1_555 1_555
C53 C54 1_555 1_555
C81 C82 1_555 1_555
C83 C87 1_555 1_555
C86 C87 1_555 1_555
C88 C89 1_555 1_555
C91 C92 1_555 1_555
C94 C95 1_555 1_555
C95 C96 1_555 1_555
C96 C97 1_555 1_555
C101 C102 1_555 1_555
C104 C105 1_555 1_555
C105 C106 1_555 1_555
C106 C107 1_555 1_555
C108 C112 1_555 1_555
C109 C110 1_555 1_555
C110 C111 1_555 1_555
C111 C112 1_555 1_555
C113 C114 1_555 1_555
C113 C117 1_555 1_555
C114 C115 1_555 1_555
C115 C116 1_555 1_555
C116 C117 1_555 1_555
C118 C122 1_555 1_555
C119 C120 1_555 1_555
C120 C121 1_555 1_555
C121 C122 1_555 1_555
C123 C124 1_555 1_555
C123 C127 1_555 1_555
C124 C125 1_555 1_555
C125 C126 1_555 1_555
C126 C127 1_555 1_555

#END
