
#######################################################################
#
#                 Cambridge Crystallographic Data Centre
#                                CCDC 
#
#######################################################################
#
# If this CIF has been generated from an entry in the Cambridge 
# Structural Database, then it will include bibliographic, chemical, 
# crystal, experimental, refinement or atomic coordinate data resulting 
# from the CCDC's data processing and validation procedures.
#
#######################################################################

data_AVIBIQ
_chemical_formula_moiety         'C26 H27 N3 O2,C1 H1 Cl3'
_chemical_name_systematic        
"3',6'-bis(Ethylamino)-2',7'-dimethyl-spiro((3H-isobenzopyrrole)-1,9'-(9H-xanthene))-3-one chloroform solvate"
_symmetry_cell_setting           monoclinic
_symmetry_space_group_name_H-M   'C 2/c'
_symmetry_Int_Tables_number      15
_space_group_name_Hall           '-C 2yn'
loop_
_symmetry_equiv_pos_site_id
_symmetry_equiv_pos_as_xyz
1 x,y,z
2 1/2+x,1/2+y,z
3 x,-y,1/2+z
4 1/2+x,1/2-y,1/2+z
5 -x,-y,-z
6 1/2-x,1/2-y,-z
7 -x,y,1/2-z
8 1/2-x,1/2+y,1/2-z
_cell_length_a                   24.151(5)
_cell_length_b                   12.4792(19)
_cell_length_c                   18.329(3)
_cell_angle_alpha                90
_cell_angle_beta                 110.133(4)
_cell_angle_gamma                90
_cell_volume                     5186.55
_exptl_crystal_colour            colorless
_exptl_crystal_description       plate
_chemical_melting_point          '300 deg.C'
_cell_formula_units_Z            8
loop_
_atom_site_label
_atom_site_type_symbol
_atom_site_fract_x
_atom_site_fract_y
_atom_site_fract_z
O1 O 0.12285(19) 0.8455(3) 0.1588(3)
O2 O 0.05107(18) 0.3848(3) 0.0154(3)
N1 N 0.0658(2) 0.7602(4) 0.3717(3)
H1 H 0.0652 0.7136 0.4060
N2 N 0.1919(3) 0.9675(5) -0.0383(4)
H2 H 0.1946 0.9566 -0.0833
N3 N 0.0735(2) 0.5559(4) 0.0594(3)
H3 H 0.0401 0.5843 0.0332
C1 C 0.0957(3) 0.5888(5) 0.2325(4)
H4 H 0.0969 0.5159 0.2226
C2 C 0.0819(3) 0.6168(6) 0.2950(4)
C3 C 0.0801(3) 0.7278(6) 0.3100(4)
C4 C 0.0945(3) 0.8011(6) 0.2631(4)
H5 H 0.0949 0.8740 0.2736
C5 C 0.1083(3) 0.7651(5) 0.2005(4)
C6 C 0.1082(3) 0.6588(5) 0.1812(4)
C7 C 0.1228(3) 0.6189(5) 0.1139(4)
C8 C 0.1702(3) 0.5340(5) 0.1361(4)
C9 C 0.2273(3) 0.5430(6) 0.1867(4)
H6 H 0.2419 0.6081 0.2102
C10 C 0.2620(3) 0.4530(7) 0.2015(5)
H7 H 0.3008 0.4571 0.2355
C11 C 0.2404(3) 0.3572(7) 0.1669(5)
H8 H 0.2647 0.2972 0.1778
C12 C 0.1824(3) 0.3480(6) 0.1155(4)
H9 H 0.1676 0.2833 0.0915
C13 C 0.1477(3) 0.4407(5) 0.1017(4)
C14 C 0.0848(3) 0.4534(6) 0.0544(4)
C15 C 0.1381(3) 0.7139(5) 0.0712(4)
C16 C 0.1537(3) 0.6980(5) 0.0060(4)
H10 H 0.1525 0.6286 -0.0130
C17 C 0.1710(3) 0.7798(6) -0.0325(4)
C18 C 0.1744(3) 0.8850(6) -0.0030(4)
C19 C 0.1571(3) 0.9018(6) 0.0611(4)
H11 H 0.1569 0.9710 0.0800
C20 C 0.1401(3) 0.8166(6) 0.0973(4)
C21 C 0.0515(3) 0.8716(5) 0.3822(4)
H12 H 0.0196 0.8957 0.3364
H13 H 0.0856 0.9165 0.3884
C22 C 0.0335(3) 0.8819(6) 0.4517(4)
H14 H 0.0243 0.9554 0.4579
H15 H 0.0652 0.8587 0.4969
H16 H -0.0007 0.8383 0.4450
C23 C 0.0689(3) 0.5355(5) 0.3463(4)
H17 H 0.0721 0.4650 0.3272
H18 H 0.0295 0.5462 0.3465
H19 H 0.0965 0.5430 0.3982
C24 C 0.1850(3) 0.7583(6) -0.1042(4)
H20 H 0.1801 0.6833 -0.1163
H21 H 0.2250 0.7788 -0.0958
H22 H 0.1589 0.7990 -0.1466
C25 C 0.2065(4) 1.0741(6) -0.0034(5)
H23 H 0.1760 1.0961 0.0167
H24 H 0.2065 1.1246 -0.0437
C26 C 0.2648(4) 1.0797(7) 0.0607(6)
H25 H 0.2714 1.1513 0.0810
H26 H 0.2955 1.0603 0.0411
H27 H 0.2651 1.0310 0.1014
Cl1 Cl -0.06323(13) 0.69834(19) -0.21233(16)
Cl2 Cl -0.08704(12) 0.9078(2) -0.17304(17)
Cl3 Cl 0.02819(10) 0.8235(3) -0.11312(18)
C27 C -0.0441(4) 0.7962(6) -0.1475(6)
H28 H -0.0525 0.7675 -0.1025
loop_
_geom_bond_atom_site_label_1
_geom_bond_atom_site_label_2
_geom_bond_site_symmetry_1
_geom_bond_site_symmetry_2
O1 C5 1_555 1_555
O2 C14 1_555 1_555
N1 H1 1_555 1_555
N2 H2 1_555 1_555
N3 H3 1_555 1_555
C1 H4 1_555 1_555
C2 C1 1_555 1_555
C3 N1 1_555 1_555
C4 C3 1_555 1_555
H5 C4 1_555 1_555
C5 C4 1_555 1_555
C6 C1 1_555 1_555
C7 N3 1_555 1_555
C8 C7 1_555 1_555
C9 C8 1_555 1_555
H6 C9 1_555 1_555
C10 C9 1_555 1_555
H7 C10 1_555 1_555
C11 C10 1_555 1_555
H8 C11 1_555 1_555
C12 C11 1_555 1_555
H9 C12 1_555 1_555
C13 C8 1_555 1_555
C14 N3 1_555 1_555
C15 C7 1_555 1_555
C16 C15 1_555 1_555
H10 C16 1_555 1_555
C17 C16 1_555 1_555
C18 N2 1_555 1_555
C19 C18 1_555 1_555
H11 C19 1_555 1_555
C20 O1 1_555 1_555
C21 N1 1_555 1_555
H12 C21 1_555 1_555
H13 C21 1_555 1_555
C22 C21 1_555 1_555
H14 C22 1_555 1_555
H15 C22 1_555 1_555
H16 C22 1_555 1_555
C23 C2 1_555 1_555
H17 C23 1_555 1_555
H18 C23 1_555 1_555
H19 C23 1_555 1_555
C24 C17 1_555 1_555
H20 C24 1_555 1_555
H21 C24 1_555 1_555
H22 C24 1_555 1_555
C25 N2 1_555 1_555
H23 C25 1_555 1_555
H24 C25 1_555 1_555
C26 C25 1_555 1_555
H25 C26 1_555 1_555
H26 C26 1_555 1_555
H27 C26 1_555 1_555
Cl1 C27 1_555 1_555
Cl2 C27 1_555 1_555
Cl3 C27 1_555 1_555
C27 H28 1_555 1_555
C2 C3 1_555 1_555
C5 C6 1_555 1_555
C6 C7 1_555 1_555
C12 C13 1_555 1_555
C13 C14 1_555 1_555
C15 C20 1_555 1_555
C17 C18 1_555 1_555
C19 C20 1_555 1_555

#END
