
#######################################################################
#
#                 Cambridge Crystallographic Data Centre
#                                CCDC 
#
#######################################################################
#
# If this CIF has been generated from an entry in the Cambridge 
# Structural Database, then it will include bibliographic, chemical, 
# crystal, experimental, refinement or atomic coordinate data resulting 
# from the CCDC's data processing and validation procedures.
#
#######################################################################

data_AVIBEN
_chemical_formula_moiety         'C30 H16 S2'
_chemical_name_systematic        
Anthra[2,3-b]anthra[2',3':4,5]thieno[2,3-d]thiophene
_symmetry_cell_setting           monoclinic
_symmetry_space_group_name_H-M   'P 21'
_symmetry_Int_Tables_number      4
_space_group_name_Hall           'P 2yb'
loop_
_symmetry_equiv_pos_site_id
_symmetry_equiv_pos_as_xyz
1 x,y,z
2 -x,1/2+y,-z
_cell_length_a                   6.259(3)
_cell_length_b                   7.569(3)
_cell_length_c                   20.826(9)
_cell_angle_alpha                90
_cell_angle_beta                 92.7810(10)
_cell_angle_gamma                90
_cell_volume                     985.457
_exptl_crystal_colour            red
_exptl_crystal_description       platelet
_cell_formula_units_Z            2
loop_
_atom_site_label
_atom_site_type_symbol
_atom_site_fract_x
_atom_site_fract_y
_atom_site_fract_z
S1 S 1.04885(13) 0.41305(13) 1.01525(4)
S2 S 0.47776(13) 0.20395(12) 0.93187(4)
C1 C 0.7090(6) 0.3704(5) 1.36585(17)
C2 C 0.5599(6) 0.3283(5) 1.40818(18)
C3 C 0.3689(6) 0.2428(5) 1.38833(18)
C4 C 0.3254(5) 0.2043(6) 1.32447(17)
C5 C 0.4770(5) 0.2474(4) 1.27778(16)
C6 C 0.4383(5) 0.2118(5) 1.21256(16)
C7 C 0.5853(5) 0.2564(4) 1.16698(16)
C8 C 0.5408(5) 0.2282(4) 1.09963(16)
C9 C 0.6856(5) 0.2831(4) 1.05641(16)
C10 C 0.6708(5) 0.2835(4) 0.98693(16)
C11 C 0.6465(5) 0.2491(4) 0.86918(17)
C12 C 0.6044(5) 0.2107(5) 0.80536(16)
C13 C 0.7582(5) 0.2530(4) 0.76000(16)
C14 C 0.7240(5) 0.2124(5) 0.69460(16)
C15 C 0.8723(5) 0.2542(4) 0.64980(16)
C16 C 0.8389(6) 0.2136(6) 0.58300(17)
C17 C 0.9869(7) 0.2587(6) 0.54036(19)
C18 C 1.1790(6) 0.3437(6) 0.56085(18)
C19 C 1.2204(6) 0.3844(5) 0.62400(18)
C20 C 1.0690(5) 0.3400(4) 0.67084(16)
C21 C 1.1068(5) 0.3798(4) 0.73585(16)
C22 C 0.9570(5) 0.3377(4) 0.78149(16)
C23 C 0.9932(5) 0.3761(4) 0.84758(16)
C24 C 0.8436(5) 0.3299(4) 0.89082(15)
C25 C 0.8496(5) 0.3449(4) 0.95991(16)
C26 C 0.8863(5) 0.3577(4) 1.07885(15)
C27 C 0.9363(5) 0.3870(4) 1.14270(17)
C28 C 0.7833(5) 0.3400(4) 1.18793(16)
C29 C 0.8225(5) 0.3747(4) 1.25383(17)
C30 C 0.6736(5) 0.3321(4) 1.29859(16)
H1 H 0.8380 0.4273 1.3802
H2 H 0.5882 0.3536 1.4532
H3 H 0.2657 0.2097 1.4191
H4 H 0.1937 0.1476 1.3116
H5 H 0.3079 0.1552 1.1989
H6 H 0.4111 0.1709 1.0850
H7 H 0.4719 0.1548 0.7918
H8 H 0.5934 0.1547 0.6805
H9 H 0.7074 0.1582 0.5678
H10 H 0.9624 0.2268 0.4956
H11 H 1.2831 0.3722 0.5302
H12 H 1.3514 0.4416 0.6372
H13 H 1.2368 0.4370 0.7495
H14 H 1.1224 0.4325 0.8621
H15 H 1.0721 0.4336 1.1566
H16 H 0.9544 0.4270 1.2679
loop_
_geom_bond_atom_site_label_1
_geom_bond_atom_site_label_2
_geom_bond_site_symmetry_1
_geom_bond_site_symmetry_2
S1 C25 1_555 1_555
S2 C10 1_555 1_555
C1 C2 1_555 1_555
C2 C3 1_555 1_555
C3 C4 1_555 1_555
C4 C5 1_555 1_555
C5 C6 1_555 1_555
C6 C7 1_555 1_555
C7 C8 1_555 1_555
C8 C9 1_555 1_555
C9 C10 1_555 1_555
C10 C25 1_555 1_555
C11 S2 1_555 1_555
C12 C11 1_555 1_555
C13 C12 1_555 1_555
C14 C13 1_555 1_555
C15 C14 1_555 1_555
C16 C15 1_555 1_555
C17 C16 1_555 1_555
C18 C17 1_555 1_555
C19 C18 1_555 1_555
C20 C15 1_555 1_555
C21 C20 1_555 1_555
C22 C13 1_555 1_555
C23 C22 1_555 1_555
C24 C11 1_555 1_555
C25 C24 1_555 1_555
C26 S1 1_555 1_555
C27 C26 1_555 1_555
C28 C7 1_555 1_555
C29 C28 1_555 1_555
C30 C1 1_555 1_555
H1 C1 1_555 1_555
H2 C2 1_555 1_555
H3 C3 1_555 1_555
H4 C4 1_555 1_555
H5 C6 1_555 1_555
H6 C8 1_555 1_555
H7 C12 1_555 1_555
H8 C14 1_555 1_555
H9 C16 1_555 1_555
H10 C17 1_555 1_555
H11 C18 1_555 1_555
H12 C19 1_555 1_555
H13 C21 1_555 1_555
H14 C23 1_555 1_555
H15 C27 1_555 1_555
H16 C29 1_555 1_555
C5 C30 1_555 1_555
C9 C26 1_555 1_555
C19 C20 1_555 1_555
C21 C22 1_555 1_555
C23 C24 1_555 1_555
C27 C28 1_555 1_555
C29 C30 1_555 1_555

#END
