
#######################################################################
#
#                 Cambridge Crystallographic Data Centre
#                                CCDC 
#
#######################################################################
#
# If this CIF has been generated from an entry in the Cambridge 
# Structural Database, then it will include bibliographic, chemical, 
# crystal, experimental, refinement or atomic coordinate data resulting 
# from the CCDC's data processing and validation procedures.
#
#######################################################################

data_AVICEO
_chemical_name_common            
19-Ethoxy-2,7,12,17-tetraphenyl-20-oxa-22,23,24,25-tetraazapentacyclo[16.3.1.1$3,6!.1$8,11!.1$13,16!]pentacosa-1(22),2,4,6,8(24),9,11,13,15,17-decaene
_chemical_formula_moiety         'C46 H36 N4 O2'
_chemical_name_systematic        meso-Tetraphenyl-2-ethoxymorpholinochlorin
_symmetry_cell_setting           monoclinic
_symmetry_space_group_name_H-M   'C c'
_symmetry_Int_Tables_number      9
_space_group_name_Hall           'C -2yc'
loop_
_symmetry_equiv_pos_site_id
_symmetry_equiv_pos_as_xyz
1 x,y,z
2 x,-y,1/2+z
3 1/2+x,1/2+y,z
4 1/2+x,1/2-y,1/2+z
_cell_length_a                   13.721(2)
_cell_length_b                   20.203(3)
_cell_length_c                   25.633(5)
_cell_angle_alpha                90
_cell_angle_beta                 102.309(2)
_cell_angle_gamma                90
_cell_volume                     6942.26
_exptl_crystal_colour            black
_exptl_crystal_description       block
_cell_formula_units_Z            8
loop_
_atom_site_label
_atom_site_type_symbol
_atom_site_fract_x
_atom_site_fract_y
_atom_site_fract_z
C1 C 0.1197(4) 0.4052(2) 0.1195(2)
C2 C 0.1232(4) 0.4528(3) 0.0733(2)
H1 H 0.1875 0.4778 0.0822
C3 C -0.0429(4) 0.4621(3) 0.0554(2)
H2 H -0.0461 0.4378 0.0215
H3 H -0.1004 0.4928 0.0502
C4 C -0.0507(3) 0.4131(2) 0.09926(18)
C5 C -0.1467(3) 0.3937(2) 0.10262(17)
C6 C -0.1793(3) 0.3587(2) 0.14270(18)
C7 C -0.2815(3) 0.3434(2) 0.14212(18)
H4 H -0.3367 0.3524 0.1137
C8 C -0.2859(4) 0.3140(2) 0.18889(18)
H5 H -0.3447 0.2983 0.1988
C9 C -0.1880(3) 0.3104(2) 0.22073(17)
C10 C -0.1616(3) 0.2884(2) 0.27278(18)
C11 C -0.0625(3) 0.2838(2) 0.30242(17)
C12 C -0.0338(4) 0.2654(2) 0.35821(19)
H6 H -0.0770 0.2577 0.3820
C13 C 0.0669(3) 0.2612(2) 0.36959(18)
H7 H 0.1083 0.2502 0.4031
C14 C 0.0993(4) 0.2766(2) 0.32140(18)
C15 C 0.1974(3) 0.2715(2) 0.31455(18)
C16 C 0.2309(3) 0.2911(2) 0.26979(19)
C17 C 0.3280(3) 0.2828(2) 0.25997(19)
H8 H 0.3820 0.2607 0.2826
C18 C 0.3302(4) 0.3120(2) 0.21229(19)
H9 H 0.3866 0.3136 0.1963
C19 C 0.2367(3) 0.3393(2) 0.19059(18)
C20 C 0.2125(4) 0.3789(2) 0.14485(18)
C21 C 0.1550(6) 0.4558(3) -0.0132(2)
H10 H 0.2237 0.4720 0.0008
H11 H 0.1104 0.4944 -0.0226
C22 C 0.1518(7) 0.4136(4) -0.0605(3)
H12 H 0.1980 0.3763 -0.0510
H13 H 0.1715 0.4397 -0.0888
H14 H 0.0840 0.3967 -0.0733
C23 C -0.2305(3) 0.4137(3) 0.05673(18)
C24 C -0.2717(4) 0.4766(3) 0.0533(2)
H15 H -0.2494 0.5078 0.0811
C25 C -0.3459(4) 0.4945(3) 0.0091(2)
H16 H -0.3722 0.5382 0.0060
C26 C -0.3805(4) 0.4479(3) -0.0297(2)
H17 H -0.4316 0.4596 -0.0596
C27 C -0.3422(4) 0.3854(3) -0.0259(2)
H18 H -0.3675 0.3538 -0.0529
C28 C -0.2670(4) 0.3674(3) 0.0168(2)
H19 H -0.2403 0.3239 0.0190
C29 C -0.2433(3) 0.2664(2) 0.29844(17)
C30 C -0.3117(4) 0.3112(3) 0.3113(2)
H20 H -0.3041 0.3571 0.3052
C31 C -0.3898(4) 0.2900(3) 0.3325(2)
H21 H -0.4347 0.3214 0.3418
C32 C -0.4039(4) 0.2239(3) 0.34059(19)
H22 H -0.4587 0.2093 0.3549
C33 C -0.3374(4) 0.1788(3) 0.3276(2)
H23 H -0.3461 0.1329 0.3333
C34 C -0.2583(4) 0.1999(2) 0.3065(2)
H24 H -0.2135 0.1683 0.2973
C35 C 0.2737(3) 0.2424(2) 0.35900(18)
C36 C 0.2748(4) 0.1762(3) 0.3716(2)
H25 H 0.2249 0.1482 0.3516
C37 C 0.3459(4) 0.1490(3) 0.4123(2)
H26 H 0.3457 0.1030 0.4197
C38 C 0.4176(4) 0.1901(3) 0.4421(2)
H27 H 0.4664 0.1725 0.4707
C39 C 0.4181(4) 0.2563(3) 0.4303(2)
H28 H 0.4671 0.2843 0.4510
C40 C 0.3490(4) 0.2825(3) 0.3890(2)
H29 H 0.3519 0.3281 0.3806
C41 C 0.3020(4) 0.3971(3) 0.12289(19)
C42 C 0.3625(4) 0.4482(3) 0.1452(2)
H30 H 0.3484 0.4705 0.1754
C43 C 0.4435(4) 0.4683(3) 0.1251(3)
H31 H 0.4814 0.5059 0.1395
C44 C 0.4684(4) 0.4328(4) 0.0840(3)
H32 H 0.5251 0.4453 0.0705
C45 C 0.4119(5) 0.3795(4) 0.0623(3)
H33 H 0.4309 0.3544 0.0348
C46 C 0.3262(4) 0.3620(3) 0.0807(2)
H34 H 0.2851 0.3266 0.0646
N1 N 0.0330(3) 0.3887(2) 0.13154(15)
N2 N -0.1263(3) 0.33669(19) 0.19063(14)
H69 H -0.0610 0.3391 0.2009
N3 N 0.0197(3) 0.29215(19) 0.28132(15)
N4 N 0.1770(3) 0.32440(19) 0.22603(14)
H70 H 0.1134 0.3347 0.2214
O1 O 0.0448(3) 0.49833(18) 0.06728(15)
O2 O 0.1221(3) 0.41533(19) 0.02656(15)
C47 C 0.0227(3) 0.4835(2) 0.30086(18)
C48 C 0.0285(4) 0.5026(3) 0.2436(2)
H35 H -0.0345 0.4880 0.2189
C49 C 0.1953(4) 0.4897(3) 0.26457(19)
H36 H 0.2048 0.5381 0.2618
H37 H 0.2531 0.4674 0.2548
C50 C 0.1921(3) 0.4723(2) 0.32207(18)
C51 C 0.2857(3) 0.4674(2) 0.35696(18)
C52 C 0.3095(4) 0.4455(2) 0.40981(19)
C53 C 0.4076(4) 0.4449(3) 0.4429(2)
H38 H 0.4661 0.4615 0.4333
C54 C 0.4032(4) 0.4166(3) 0.4904(2)
H39 H 0.4578 0.4111 0.5199
C55 C 0.3040(3) 0.3966(2) 0.48888(19)
C56 C 0.2679(3) 0.3622(2) 0.52701(19)
C57 C 0.1663(4) 0.3446(2) 0.52209(19)
C58 C 0.1321(4) 0.3008(3) 0.5592(2)
H40 H 0.1714 0.2783 0.5890
C59 C 0.0304(4) 0.2990(3) 0.5420(2)
H41 H -0.0152 0.2735 0.5569
C60 C 0.0062(4) 0.3431(2) 0.49715(18)
C61 C -0.0894(3) 0.3626(2) 0.47376(19)
C62 C -0.1149(4) 0.4057(2) 0.42982(19)
C63 C -0.2095(4) 0.4355(3) 0.4096(2)
H42 H -0.2673 0.4306 0.4241
C64 C -0.2030(4) 0.4720(3) 0.36616(19)
H43 H -0.2550 0.4979 0.3455
C65 C -0.1051(3) 0.4651(2) 0.35676(18)
C66 C -0.0725(3) 0.4885(2) 0.31183(17)
C67 C 0.0121(6) 0.5965(4) 0.1861(3)
H44 H -0.0558 0.5821 0.1683
H45 H 0.0600 0.5788 0.1657
C68 C 0.0178(6) 0.6718(4) 0.1882(3)
H46 H -0.0276 0.6886 0.2098
H47 H -0.0015 0.6896 0.1519
H48 H 0.0862 0.6854 0.2042
C69 C 0.3749(3) 0.4914(2) 0.33644(18)
C70 C 0.4034(4) 0.5576(2) 0.34312(18)
H49 H 0.3675 0.5867 0.3613
C71 C 0.4833(4) 0.5813(2) 0.3237(2)
H50 H 0.5022 0.6265 0.3285
C72 C 0.5357(4) 0.5387(3) 0.2971(2)
H51 H 0.5905 0.5547 0.2835
C73 C 0.5080(4) 0.4736(3) 0.2904(2)
H52 H 0.5438 0.4446 0.2721
C74 C 0.4286(4) 0.4497(3) 0.3101(2)
H53 H 0.4106 0.4043 0.3055
C75 C 0.3384(4) 0.3449(3) 0.5777(2)
C76 C 0.4168(4) 0.3004(3) 0.5798(2)
H54 H 0.4271 0.2798 0.5481
C77 C 0.4795(4) 0.2863(3) 0.6283(3)
H55 H 0.5325 0.2558 0.6296
C78 C 0.4669(5) 0.3154(4) 0.6745(2)
H56 H 0.5122 0.3061 0.7073
C79 C 0.3887(6) 0.3584(4) 0.6737(2)
H57 H 0.3788 0.3778 0.7059
C80 C 0.3242(5) 0.3733(3) 0.6256(2)
H58 H 0.2701 0.4028 0.6251
C81 C -0.1729(4) 0.3375(3) 0.4967(2)
C82 C -0.2449(4) 0.2958(3) 0.4668(2)
H59 H -0.2411 0.2847 0.4313
C83 C -0.3220(4) 0.2702(4) 0.4882(3)
H60 H -0.3700 0.2413 0.4677
C84 C -0.3281(5) 0.2869(4) 0.5389(3)
H61 H -0.3810 0.2697 0.5535
C85 C -0.2582(5) 0.3289(3) 0.5698(3)
H62 H -0.2633 0.3405 0.6051
C86 C -0.1810(5) 0.3535(3) 0.5483(2)
H63 H -0.1327 0.3818 0.5693
C87 C -0.1542(3) 0.5188(2) 0.27057(16)
C88 C -0.2230(3) 0.4782(2) 0.23745(19)
H64 H -0.2177 0.4315 0.2416
C89 C -0.2989(3) 0.5047(2) 0.19859(18)
H65 H -0.3442 0.4762 0.1758
C90 C -0.3086(4) 0.5729(2) 0.1930(2)
H66 H -0.3602 0.5914 0.1663
C91 C -0.2429(4) 0.6133(2) 0.2264(2)
H67 H -0.2503 0.6600 0.2233
C92 C -0.1658(4) 0.5867(2) 0.2645(2)
H68 H -0.1202 0.6154 0.2867
N5 N 0.1045(3) 0.46514(19) 0.33681(15)
N6 N 0.2488(3) 0.41605(19) 0.43902(15)
H71 H 0.1841 0.4102 0.4279
N7 N 0.0909(3) 0.3676(2) 0.48456(15)
N8 N -0.0530(3) 0.42624(19) 0.39775(15)
H72 H 0.0107 0.4162 0.4025
O3 O 0.1085(2) 0.47100(19) 0.22885(13)
O4 O 0.0360(3) 0.5723(2) 0.24010(15)
loop_
_geom_bond_atom_site_label_1
_geom_bond_atom_site_label_2
_geom_bond_site_symmetry_1
_geom_bond_site_symmetry_2
C1 C2 1_555 1_555
C2 H1 1_555 1_555
C3 H2 1_555 1_555
H3 C3 1_555 1_555
C4 C3 1_555 1_555
C5 C4 1_555 1_555
C6 C5 1_555 1_555
C7 C6 1_555 1_555
H4 C7 1_555 1_555
C8 C7 1_555 1_555
H5 C8 1_555 1_555
C9 C8 1_555 1_555
C10 C9 1_555 1_555
C11 C10 1_555 1_555
C12 C11 1_555 1_555
H6 C12 1_555 1_555
C13 C12 1_555 1_555
H7 C13 1_555 1_555
C14 C13 1_555 1_555
C15 C14 1_555 1_555
C16 C15 1_555 1_555
C17 C16 1_555 1_555
H8 C17 1_555 1_555
C18 C17 1_555 1_555
H9 C18 1_555 1_555
C19 C18 1_555 1_555
C20 C1 1_555 1_555
C21 H10 1_555 1_555
H11 C21 1_555 1_555
C22 C21 1_555 1_555
H12 C22 1_555 1_555
H13 C22 1_555 1_555
H14 C22 1_555 1_555
C23 C5 1_555 1_555
C24 C23 1_555 1_555
H15 C24 1_555 1_555
C25 C24 1_555 1_555
H16 C25 1_555 1_555
C26 C25 1_555 1_555
H17 C26 1_555 1_555
C27 C26 1_555 1_555
H18 C27 1_555 1_555
C28 C23 1_555 1_555
H19 C28 1_555 1_555
C29 C10 1_555 1_555
C30 C29 1_555 1_555
H20 C30 1_555 1_555
C31 C30 1_555 1_555
H21 C31 1_555 1_555
C32 C31 1_555 1_555
H22 C32 1_555 1_555
C33 C32 1_555 1_555
H23 C33 1_555 1_555
C34 C29 1_555 1_555
H24 C34 1_555 1_555
C35 C15 1_555 1_555
C36 C35 1_555 1_555
H25 C36 1_555 1_555
C37 C36 1_555 1_555
H26 C37 1_555 1_555
C38 C37 1_555 1_555
H27 C38 1_555 1_555
C39 C38 1_555 1_555
H28 C39 1_555 1_555
C40 C35 1_555 1_555
H29 C40 1_555 1_555
C41 C20 1_555 1_555
C42 C41 1_555 1_555
H30 C42 1_555 1_555
C43 C42 1_555 1_555
H31 C43 1_555 1_555
C44 C43 1_555 1_555
H32 C44 1_555 1_555
C45 C44 1_555 1_555
H33 C45 1_555 1_555
C46 C41 1_555 1_555
H34 C46 1_555 1_555
C47 C48 1_555 1_555
C48 H35 1_555 1_555
C49 H36 1_555 1_555
H37 C49 1_555 1_555
C50 C49 1_555 1_555
C51 C50 1_555 1_555
C52 C51 1_555 1_555
C53 C52 1_555 1_555
H38 C53 1_555 1_555
C54 C53 1_555 1_555
H39 C54 1_555 1_555
C55 C54 1_555 1_555
C56 C55 1_555 1_555
C57 C56 1_555 1_555
C58 C57 1_555 1_555
H40 C58 1_555 1_555
C59 C58 1_555 1_555
H41 C59 1_555 1_555
C60 C59 1_555 1_555
C61 C60 1_555 1_555
C62 C61 1_555 1_555
C63 C62 1_555 1_555
H42 C63 1_555 1_555
C64 C63 1_555 1_555
H43 C64 1_555 1_555
C65 C64 1_555 1_555
C66 C47 1_555 1_555
C67 H44 1_555 1_555
H45 C67 1_555 1_555
C68 C67 1_555 1_555
H46 C68 1_555 1_555
H47 C68 1_555 1_555
H48 C68 1_555 1_555
C69 C51 1_555 1_555
C70 C69 1_555 1_555
H49 C70 1_555 1_555
C71 C70 1_555 1_555
H50 C71 1_555 1_555
C72 C71 1_555 1_555
H51 C72 1_555 1_555
C73 C72 1_555 1_555
H52 C73 1_555 1_555
C74 C69 1_555 1_555
H53 C74 1_555 1_555
C75 C56 1_555 1_555
C76 C75 1_555 1_555
H54 C76 1_555 1_555
C77 C76 1_555 1_555
H55 C77 1_555 1_555
C78 C77 1_555 1_555
H56 C78 1_555 1_555
C79 C78 1_555 1_555
H57 C79 1_555 1_555
C80 C75 1_555 1_555
H58 C80 1_555 1_555
C81 C61 1_555 1_555
C82 C81 1_555 1_555
H59 C82 1_555 1_555
C83 C82 1_555 1_555
H60 C83 1_555 1_555
C84 C83 1_555 1_555
H61 C84 1_555 1_555
C85 C84 1_555 1_555
H62 C85 1_555 1_555
C86 C81 1_555 1_555
H63 C86 1_555 1_555
C87 C66 1_555 1_555
C88 C87 1_555 1_555
H64 C88 1_555 1_555
C89 C88 1_555 1_555
H65 C89 1_555 1_555
C90 C89 1_555 1_555
H66 C90 1_555 1_555
C91 C90 1_555 1_555
H67 C91 1_555 1_555
C92 C87 1_555 1_555
H68 C92 1_555 1_555
N1 C1 1_555 1_555
N2 C6 1_555 1_555
H69 N2 1_555 1_555
N3 C11 1_555 1_555
N4 C16 1_555 1_555
H70 N4 1_555 1_555
N5 C47 1_555 1_555
N6 C52 1_555 1_555
H71 N6 1_555 1_555
N7 C57 1_555 1_555
N8 C62 1_555 1_555
H72 N8 1_555 1_555
O1 C2 1_555 1_555
O2 C2 1_555 1_555
O3 C48 1_555 1_555
O4 C48 1_555 1_555
C3 O1 1_555 1_555
C4 N1 1_555 1_555
C9 N2 1_555 1_555
C14 N3 1_555 1_555
C19 C20 1_555 1_555
C19 N4 1_555 1_555
C21 O2 1_555 1_555
C27 C28 1_555 1_555
C33 C34 1_555 1_555
C39 C40 1_555 1_555
C45 C46 1_555 1_555
C49 O3 1_555 1_555
C50 N5 1_555 1_555
C55 N6 1_555 1_555
C60 N7 1_555 1_555
C65 C66 1_555 1_555
C65 N8 1_555 1_555
C67 O4 1_555 1_555
C73 C74 1_555 1_555
C79 C80 1_555 1_555
C85 C86 1_555 1_555
C91 C92 1_555 1_555

#END
