
#######################################################################
#
#                 Cambridge Crystallographic Data Centre
#                                CCDC 
#
#######################################################################
#
# If this CIF has been generated from an entry in the Cambridge 
# Structural Database, then it will include bibliographic, chemical, 
# crystal, experimental, refinement or atomic coordinate data resulting 
# from the CCDC's data processing and validation procedures.
#
#######################################################################

data_AVIGIX
_chemical_formula_moiety         'C17 H14 F2 O3'
_chemical_name_systematic        
2-(2,2-difluoro-7-methoxy-2,3-dihydro-1-benzofuran-3-yl)-1-phenylethanone
_symmetry_cell_setting           monoclinic
_symmetry_space_group_name_H-M   'P 21/c'
_symmetry_Int_Tables_number      14
_space_group_name_Hall           '-P 2ybc'
loop_
_symmetry_equiv_pos_site_id
_symmetry_equiv_pos_as_xyz
1 x,y,z
2 -x,1/2+y,1/2-z
3 -x,-y,-z
4 x,1/2-y,1/2+z
_cell_length_a                   17.559(4)
_cell_length_b                   10.082(2)
_cell_length_c                   7.8851(16)
_cell_angle_alpha                90
_cell_angle_beta                 97.00(3)
_cell_angle_gamma                90
_cell_volume                     1385.49
_cell_formula_units_Z            4
loop_
_atom_site_label
_atom_site_type_symbol
_atom_site_fract_x
_atom_site_fract_y
_atom_site_fract_z
O1 O 0.1237(3) 0.7167(6) 0.0443(8)
F1 F 0.2674(3) 0.4007(5) -0.2669(8)
O2 O 0.3677(3) 0.5092(6) -0.1415(9)
F2 F 0.3063(3) 0.3581(6) -0.0048(9)
C1 C 0.0215(5) 0.6216(7) -0.1419(10)
C2 C 0.1046(5) 0.6389(7) -0.0729(10)
C3 C 0.3608(5) 0.6475(8) -0.1376(11)
O3 O 0.4856(3) 0.6721(6) -0.2156(8)
C4 C 0.2445(5) 0.5694(8) -0.0615(11)
H1 H 0.2423 0.5623 0.0618
C5 C -0.0320(5) 0.7028(8) -0.0775(11)
H2 H -0.0160 0.7647 0.0068
C6 C -0.1101(5) 0.6916(8) -0.1392(12)
H3 H -0.1459 0.7468 -0.0971
C7 C 0.1632(5) 0.5584(7) -0.1543(11)
H4 H 0.1478 0.4659 -0.1571
H5 H 0.1634 0.5876 -0.2714
C8 C -0.0808(5) 0.5156(8) -0.3246(12)
H6 H -0.0969 0.4517 -0.4063
C9 C 0.2794(5) 0.8243(8) -0.0818(11)
H7 H 0.2333 0.8567 -0.0516
C10 C -0.1338(5) 0.5979(8) -0.2634(11)
H8 H -0.1855 0.5907 -0.3053
C11 C -0.0039(5) 0.5276(8) -0.2650(10)
H9 H 0.0314 0.4719 -0.3077
C12 C 0.2912(5) 0.6896(7) -0.0953(10)
C13 C 0.4200(6) 0.7313(9) -0.1733(12)
C14 C 0.4060(5) 0.8659(9) -0.1618(11)
H10 H 0.4431 0.9264 -0.1866
C15 C 0.2967(5) 0.4584(9) -0.1166(13)
C16 C 0.3379(5) 0.9114(9) -0.1143(13)
H11 H 0.3305 1.0022 -0.1035
C17 C 0.5442(5) 0.7601(10) -0.2607(15)
H12 H 0.5874 0.7092 -0.2871
H13 H 0.5600 0.8182 -0.1665
H14 H 0.5244 0.8117 -0.3586
loop_
_geom_bond_atom_site_label_1
_geom_bond_atom_site_label_2
_geom_bond_site_symmetry_1
_geom_bond_site_symmetry_2
O1 C2 1_555 1_555
F1 C15 1_555 1_555
O2 C3 1_555 1_555
F2 C15 1_555 1_555
C1 C2 1_555 1_555
C2 C7 1_555 1_555
C3 C12 1_555 1_555
O3 C13 1_555 1_555
C4 H1 1_555 1_555
C5 C1 1_555 1_555
H2 C5 1_555 1_555
C6 C5 1_555 1_555
H3 C6 1_555 1_555
C7 C4 1_555 1_555
H4 C7 1_555 1_555
H5 C7 1_555 1_555
C8 H6 1_555 1_555
C9 H7 1_555 1_555
C10 C6 1_555 1_555
H8 C10 1_555 1_555
C11 C1 1_555 1_555
H9 C11 1_555 1_555
C12 C4 1_555 1_555
C13 C3 1_555 1_555
C14 C13 1_555 1_555
H10 C14 1_555 1_555
C15 O2 1_555 1_555
C16 C9 1_555 1_555
H11 C16 1_555 1_555
C17 O3 1_555 1_555
H12 C17 1_555 1_555
H13 C17 1_555 1_555
H14 C17 1_555 1_555
C4 C15 1_555 1_555
C8 C10 1_555 1_555
C8 C11 1_555 1_555
C9 C12 1_555 1_555
C14 C16 1_555 1_555

#END
