
#######################################################################
#
#                 Cambridge Crystallographic Data Centre
#                                CCDC 
#
#######################################################################
#
# If this CIF has been generated from an entry in the Cambridge 
# Structural Database, then it will include bibliographic, chemical, 
# crystal, experimental, refinement or atomic coordinate data resulting 
# from the CCDC's data processing and validation procedures.
#
#######################################################################

data_AVILAS
_chemical_name_common            
18-Methoxy-(3.3)-meta-para-cyclophane-2,11-dione
_chemical_formula_moiety         'C19 H18 O3'
_chemical_name_systematic        
1^2^-Methoxy-1(1,3),5(1,4)-dibenzenacyclo-octaphane-3,7-dione
_symmetry_cell_setting           monoclinic
_symmetry_space_group_name_H-M   'P 21/n'
_symmetry_Int_Tables_number      14
_space_group_name_Hall           '-P 2yn'
loop_
_symmetry_equiv_pos_site_id
_symmetry_equiv_pos_as_xyz
1 x,y,z
2 1/2+x,1/2-y,1/2+z
3 -x,-y,-z
4 1/2-x,1/2+y,1/2-z
_cell_length_a                   7.497(1)
_cell_length_b                   14.210(1)
_cell_length_c                   14.605(1)
_cell_angle_alpha                90
_cell_angle_beta                 93.51(1)
_cell_angle_gamma                90
_cell_volume                     1552.99
_exptl_crystal_colour            colorless
_exptl_crystal_description       blocks
_cell_formula_units_Z            4
loop_
_atom_site_label
_atom_site_type_symbol
_atom_site_fract_x
_atom_site_fract_y
_atom_site_fract_z
C1 C 0.2372(4) 0.41548(19) 0.4648(2)
H1 H 0.2538 0.4313 0.4012
H2 H 0.1817 0.4688 0.4931
C2 C 0.4172(4) 0.3960(2) 0.5139(2)
O1 O 0.4489(3) 0.42495(18) 0.59130(16)
C3 C 0.5570(4) 0.3426(2) 0.4655(3)
H3 H 0.6072 0.3837 0.4208
H4 H 0.6526 0.3250 0.5099
C4 C 0.4870(3) 0.2554(2) 0.4175(2)
C5 C 0.4505(3) 0.2534(2) 0.3242(2)
H5 H 0.4868 0.3032 0.2885
C6 C 0.3618(3) 0.1794(2) 0.2829(2)
H6 H 0.3388 0.1799 0.2196
C7 C 0.3053(3) 0.10370(19) 0.3328(2)
C8 C 0.3548(4) 0.1017(2) 0.4256(2)
H7 H 0.3272 0.0493 0.4602
C9 C 0.4443(4) 0.1763(2) 0.4677(2)
H8 H 0.4763 0.1736 0.5301
C10 C 0.1792(4) 0.0309(2) 0.2912(2)
H9 H 0.1927 0.0291 0.2255
H10 H 0.2140 -0.0302 0.3158
C11 C -0.0141(4) 0.0468(2) 0.3071(2)
O2 O -0.1087(4) -0.01867(17) 0.3219(2)
C12 C -0.0883(4) 0.14639(19) 0.3031(2)
H11 H -0.0417 0.1793 0.2515
H12 H -0.2174 0.1439 0.2935
C13 C -0.0392(3) 0.20032(19) 0.39053(17)
C14 C -0.0702(4) 0.1624(2) 0.4755(2)
H13 H -0.1297 0.1052 0.4786
C15 C -0.0146(4) 0.2080(2) 0.5556(2)
H14 H -0.0408 0.1828 0.6120
C16 C 0.0796(4) 0.2907(2) 0.55185(19)
H15 H 0.1194 0.3204 0.6060
C17 C 0.1160(3) 0.33022(18) 0.46871(18)
C18 C 0.0464(3) 0.28697(17) 0.38841(16)
O3 O 0.0739(2) 0.32877(12) 0.30484(11)
C19 C -0.0729(4) 0.3852(2) 0.2709(2)
H16 H -0.0469 0.4116 0.2127
H17 H -0.0924 0.4350 0.3135
H18 H -0.1784 0.3469 0.2635
loop_
_geom_bond_atom_site_label_1
_geom_bond_atom_site_label_2
_geom_bond_site_symmetry_1
_geom_bond_site_symmetry_2
C1 H1 1_555 1_555
H2 C1 1_555 1_555
C2 C1 1_555 1_555
O1 C2 1_555 1_555
C3 C2 1_555 1_555
H3 C3 1_555 1_555
H4 C3 1_555 1_555
C4 C3 1_555 1_555
C5 C4 1_555 1_555
H5 C5 1_555 1_555
C6 C5 1_555 1_555
H6 C6 1_555 1_555
C7 C6 1_555 1_555
C8 C7 1_555 1_555
H7 C8 1_555 1_555
C9 C4 1_555 1_555
H8 C9 1_555 1_555
C10 C7 1_555 1_555
H9 C10 1_555 1_555
H10 C10 1_555 1_555
C11 C10 1_555 1_555
O2 C11 1_555 1_555
C12 C11 1_555 1_555
H11 C12 1_555 1_555
H12 C12 1_555 1_555
C13 C12 1_555 1_555
C14 C13 1_555 1_555
H13 C14 1_555 1_555
C15 C14 1_555 1_555
H14 C15 1_555 1_555
C16 C15 1_555 1_555
H15 C16 1_555 1_555
C17 C1 1_555 1_555
C18 C13 1_555 1_555
O3 C18 1_555 1_555
C19 O3 1_555 1_555
H16 C19 1_555 1_555
H17 C19 1_555 1_555
H18 C19 1_555 1_555
C8 C9 1_555 1_555
C16 C17 1_555 1_555
C17 C18 1_555 1_555

#END
