
#######################################################################
#
#                 Cambridge Crystallographic Data Centre
#                                CCDC 
#
#######################################################################
#
# If this CIF has been generated from an entry in the Cambridge 
# Structural Database, then it will include bibliographic, chemical, 
# crystal, experimental, refinement or atomic coordinate data resulting 
# from the CCDC's data processing and validation procedures.
#
#######################################################################

data_AVILOG
_chemical_name_common            (3.3.1)Paracyclophane-2,11-dione
_chemical_formula_moiety         'C25 H22 O2'
_chemical_name_systematic        1,3,7(1,4)-Tribenzenacyclodecaphane-5,9-dione
_symmetry_cell_setting           monoclinic
_symmetry_space_group_name_H-M   'P 21/c'
_symmetry_Int_Tables_number      14
_space_group_name_Hall           '-P 2ybc'
loop_
_symmetry_equiv_pos_site_id
_symmetry_equiv_pos_as_xyz
1 x,y,z
2 x,1/2-y,1/2+z
3 -x,-y,-z
4 -x,1/2+y,1/2-z
_cell_length_a                   11.338(1)
_cell_length_b                   8.142(1)
_cell_length_c                   20.471(1)
_cell_angle_alpha                90
_cell_angle_beta                 97.22(1)
_cell_angle_gamma                90
_cell_volume                     1874.78
_exptl_crystal_colour            colorless
_exptl_crystal_description       prisms
_cell_formula_units_Z            4
loop_
_atom_site_label
_atom_site_type_symbol
_atom_site_fract_x
_atom_site_fract_y
_atom_site_fract_z
C1 C 0.2981(3) 0.7540(4) 0.30574(14)
H1 H 0.2138 0.7475 0.2902
H2 H 0.3250 0.8641 0.2971
C2 C 0.3645(3) 0.6312(4) 0.26923(14)
O1 O 0.4715(2) 0.6380(4) 0.27162(15)
C3 C 0.2957(3) 0.4987(4) 0.22895(14)
H3 H 0.2377 0.5499 0.1964
H4 H 0.3500 0.4360 0.2057
C4 C 0.2325(3) 0.3837(3) 0.27057(12)
C5 C 0.1105(3) 0.3858(4) 0.27205(14)
H5 H 0.0637 0.4567 0.2441
C6 C 0.0567(3) 0.2849(4) 0.31405(14)
H6 H -0.0255 0.2879 0.3131
C7 C 0.1225(3) 0.1796(3) 0.35749(13)
C8 C 0.2451(3) 0.1738(3) 0.35429(14)
H7 H 0.2917 0.1006 0.3812
C9 C 0.2985(3) 0.2736(4) 0.31232(14)
H8 H 0.3803 0.2672 0.3119
C10 C 0.0670(3) 0.0778(4) 0.40730(15)
H9 H 0.0930 -0.0354 0.4053
H10 H -0.0189 0.0801 0.3972
C11 C 0.1029(3) 0.1454(3) 0.47587(14)
C12 C 0.0334(2) 0.2605(4) 0.50303(14)
H11 H -0.0422 0.2839 0.4819
C13 C 0.0738(3) 0.3411(4) 0.56064(15)
H12 H 0.0249 0.4174 0.5778
C14 C 0.1865(3) 0.3104(4) 0.59367(13)
C15 C 0.2519(3) 0.1862(4) 0.56932(15)
H13 H 0.3251 0.1573 0.5921
C16 C 0.2104(3) 0.1038(4) 0.51166(15)
H14 H 0.2555 0.0193 0.4969
C17 C 0.2391(3) 0.4205(4) 0.64945(14)
H15 H 0.1802 0.4422 0.6789
H16 H 0.3065 0.3666 0.6745
C18 C 0.2784(3) 0.5799(4) 0.62126(13)
O2 O 0.2224(2) 0.7056(3) 0.62685(12)
C19 C 0.3868(3) 0.5823(4) 0.58545(14)
H17 H 0.4207 0.4727 0.5865
H18 H 0.4457 0.6549 0.6087
C20 C 0.3620(2) 0.6381(4) 0.51409(13)
C21 C 0.4325(2) 0.7496(4) 0.48722(15)
H19 H 0.4954 0.7984 0.5138
C22 C 0.4113(2) 0.7914(4) 0.42036(15)
H20 H 0.4604 0.8672 0.4031
C23 C 0.3182(2) 0.7209(3) 0.37974(13)
C24 C 0.2463(3) 0.6134(4) 0.40725(14)
H21 H 0.1814 0.5679 0.3811
C25 C 0.2675(3) 0.5708(4) 0.47291(14)
H22 H 0.2177 0.4956 0.4899
loop_
_geom_bond_atom_site_label_1
_geom_bond_atom_site_label_2
_geom_bond_site_symmetry_1
_geom_bond_site_symmetry_2
C1 H1 1_555 1_555
H2 C1 1_555 1_555
C2 C1 1_555 1_555
O1 C2 1_555 1_555
C3 C2 1_555 1_555
H3 C3 1_555 1_555
H4 C3 1_555 1_555
C4 C3 1_555 1_555
C5 C4 1_555 1_555
H5 C5 1_555 1_555
C6 C5 1_555 1_555
H6 C6 1_555 1_555
C7 C6 1_555 1_555
C8 C7 1_555 1_555
H7 C8 1_555 1_555
C9 C4 1_555 1_555
H8 C9 1_555 1_555
C10 C7 1_555 1_555
H9 C10 1_555 1_555
H10 C10 1_555 1_555
C11 C10 1_555 1_555
C12 C11 1_555 1_555
H11 C12 1_555 1_555
C13 C12 1_555 1_555
H12 C13 1_555 1_555
C14 C13 1_555 1_555
C15 C14 1_555 1_555
H13 C15 1_555 1_555
C16 C11 1_555 1_555
H14 C16 1_555 1_555
C17 C14 1_555 1_555
H15 C17 1_555 1_555
H16 C17 1_555 1_555
C18 C17 1_555 1_555
O2 C18 1_555 1_555
C19 C18 1_555 1_555
H17 C19 1_555 1_555
H18 C19 1_555 1_555
C20 C19 1_555 1_555
C21 C20 1_555 1_555
H19 C21 1_555 1_555
C22 C21 1_555 1_555
H20 C22 1_555 1_555
C23 C1 1_555 1_555
C24 C23 1_555 1_555
H21 C24 1_555 1_555
C25 C20 1_555 1_555
H22 C25 1_555 1_555
C8 C9 1_555 1_555
C15 C16 1_555 1_555
C22 C23 1_555 1_555
C24 C25 1_555 1_555

#END
