
#######################################################################
#
#                 Cambridge Crystallographic Data Centre
#                                CCDC 
#
#######################################################################
#
# If this CIF has been generated from an entry in the Cambridge 
# Structural Database, then it will include bibliographic, chemical, 
# crystal, experimental, refinement or atomic coordinate data resulting 
# from the CCDC's data processing and validation procedures.
#
#######################################################################

data_AVILEW
_chemical_name_common            5,6-Dimethoxy(3.3.1)paracyclophane-2,11-dione
_chemical_formula_moiety         'C27 H26 O4'
_chemical_name_systematic        
7^2^,7^3^-Dimethoxy-1,3,7(1,4)-tribenzenacyclodecaphane-5,9-dione
_symmetry_cell_setting           triclinic
_symmetry_space_group_name_H-M   'P -1'
_symmetry_Int_Tables_number      2
_space_group_name_Hall           '-P 1'
loop_
_symmetry_equiv_pos_site_id
_symmetry_equiv_pos_as_xyz
1 x,y,z
2 -x,-y,-z
_cell_length_a                   10.374(1)
_cell_length_b                   10.939(1)
_cell_length_c                   11.309(2)
_cell_angle_alpha                71.13(1)
_cell_angle_beta                 64.70(1)
_cell_angle_gamma                82.53(1)
_cell_volume                     1097.85
_exptl_crystal_colour            colorless
_exptl_crystal_description       plates
_cell_formula_units_Z            2
loop_
_atom_site_label
_atom_site_type_symbol
_atom_site_fract_x
_atom_site_fract_y
_atom_site_fract_z
C1 C 0.8751(5) 0.3149(5) 0.1089(5)
H1 H 0.8987 0.2669 0.0437
H2 H 0.9492 0.3794 0.0723
C2 C 0.7328(5) 0.3815(5) 0.1267(4)
C3 C 0.7050(5) 0.5007(5) 0.1482(5)
H3 H 0.7783 0.5464 0.1422
C4 C 0.5706(6) 0.5543(5) 0.1784(5)
H4 H 0.5551 0.6352 0.1923
C5 C 0.4595(6) 0.4892(5) 0.1883(5)
C6 C 0.4889(7) 0.3715(5) 0.1594(5)
H5 H 0.4169 0.3275 0.1612
C7 C 0.6233(7) 0.3198(5) 0.1283(5)
H6 H 0.6410 0.2418 0.1079
C8 C 0.3073(6) 0.5379(5) 0.2387(5)
H7 H 0.2639 0.5327 0.1796
H8 H 0.3075 0.6276 0.2353
C9 C 0.2213(5) 0.4568(5) 0.3850(5)
O1 O 0.1385(5) 0.3765(5) 0.4083(5)
C10 C 0.2448(5) 0.4782(4) 0.4997(5)
H9 H 0.1541 0.4962 0.5672
H10 H 0.3064 0.5530 0.4633
C11 C 0.3115(4) 0.3620(4) 0.5690(4)
C12 C 0.2347(4) 0.2769(4) 0.6976(4)
O2 O 0.0940(3) 0.3015(3) 0.7708(3)
C13 C -0.0050(5) 0.2224(6) 0.7720(6)
H11 H 0.0085 0.2337 0.6797
H12 H -0.1003 0.2464 0.8229
H13 H 0.0099 0.1335 0.8144
C14 C 0.3007(4) 0.1701(4) 0.7561(4)
O3 O 0.2218(3) 0.0854(3) 0.8818(3)
C15 C 0.2082(6) 0.1241(5) 0.9944(5)
H14 H 0.1508 0.0620 1.0783
H15 H 0.1637 0.2072 0.9893
H16 H 0.3010 0.1295 0.9920
C16 C 0.4437(4) 0.1443(4) 0.6861(4)
C17 C 0.5181(4) 0.2310(5) 0.5597(4)
H17 H 0.6141 0.2166 0.5114
C18 C 0.4547(4) 0.3371(5) 0.5037(4)
H18 H 0.5092 0.3942 0.4194
C19 C 0.5156(5) 0.0248(4) 0.7435(5)
H19 H 0.5322 -0.0348 0.6910
H20 H 0.4517 -0.0174 0.8373
C20 C 0.6570(5) 0.0532(5) 0.7409(5)
O4 O 0.6631(4) 0.1247(4) 0.7988(4)
C21 C 0.7894(5) -0.0089(5) 0.6568(5)
H21 H 0.8667 -0.0056 0.6823
H22 H 0.7699 -0.0986 0.6732
C22 C 0.8302(4) 0.0653(5) 0.5070(5)
C23 C 0.8960(5) 0.1840(5) 0.4541(5)
H23 H 0.9278 0.2120 0.5065
C24 C 0.9154(5) 0.2622(5) 0.3243(5)
H24 H 0.9600 0.3422 0.2909
C25 C 0.8701(5) 0.2240(5) 0.2433(5)
C26 C 0.8127(5) 0.1010(5) 0.2940(5)
H25 H 0.7867 0.0705 0.2393
C27 C 0.7928(5) 0.0220(5) 0.4236(5)
H26 H 0.7542 -0.0604 0.4550
loop_
_geom_bond_atom_site_label_1
_geom_bond_atom_site_label_2
_geom_bond_site_symmetry_1
_geom_bond_site_symmetry_2
C1 H1 1_555 1_555
H2 C1 1_555 1_555
C2 C1 1_555 1_555
C3 C2 1_555 1_555
H3 C3 1_555 1_555
C4 C3 1_555 1_555
H4 C4 1_555 1_555
C5 C4 1_555 1_555
C6 C5 1_555 1_555
H5 C6 1_555 1_555
C7 C2 1_555 1_555
H6 C7 1_555 1_555
C8 C5 1_555 1_555
H7 C8 1_555 1_555
H8 C8 1_555 1_555
C9 C8 1_555 1_555
O1 C9 1_555 1_555
C10 C9 1_555 1_555
H9 C10 1_555 1_555
H10 C10 1_555 1_555
C11 C10 1_555 1_555
C12 C11 1_555 1_555
O2 C12 1_555 1_555
C13 O2 1_555 1_555
H11 C13 1_555 1_555
H12 C13 1_555 1_555
H13 C13 1_555 1_555
C14 C12 1_555 1_555
O3 C14 1_555 1_555
C15 O3 1_555 1_555
H14 C15 1_555 1_555
H15 C15 1_555 1_555
H16 C15 1_555 1_555
C16 C14 1_555 1_555
C17 C16 1_555 1_555
H17 C17 1_555 1_555
C18 C11 1_555 1_555
H18 C18 1_555 1_555
C19 C16 1_555 1_555
H19 C19 1_555 1_555
H20 C19 1_555 1_555
C20 C19 1_555 1_555
O4 C20 1_555 1_555
C21 C20 1_555 1_555
H21 C21 1_555 1_555
H22 C21 1_555 1_555
C22 C21 1_555 1_555
C23 C22 1_555 1_555
H23 C23 1_555 1_555
C24 C23 1_555 1_555
H24 C24 1_555 1_555
C25 C1 1_555 1_555
C26 C25 1_555 1_555
H25 C26 1_555 1_555
C27 C22 1_555 1_555
H26 C27 1_555 1_555
C6 C7 1_555 1_555
C17 C18 1_555 1_555
C24 C25 1_555 1_555
C26 C27 1_555 1_555

#END
