
#######################################################################
#
#                 Cambridge Crystallographic Data Centre
#                                CCDC 
#
#######################################################################
#
# If this CIF has been generated from an entry in the Cambridge 
# Structural Database, then it will include bibliographic, chemical, 
# crystal, experimental, refinement or atomic coordinate data resulting 
# from the CCDC's data processing and validation procedures.
#
#######################################################################

data_AVIMOH
_chemical_name_common            
2,4,13,15-Tetraoxa(5.5)metacyclophane-3,14-dione
_chemical_formula_moiety         'C18 H16 O6'
_chemical_name_systematic        
3,5,9,11-Tetraoxa-1,7(1,3)-dibenzenacyclododecaphane-4,10-dione
_symmetry_cell_setting           monoclinic
_symmetry_space_group_name_H-M   'P 21/c'
_symmetry_Int_Tables_number      14
_space_group_name_Hall           '-P 2ybc'
loop_
_symmetry_equiv_pos_site_id
_symmetry_equiv_pos_as_xyz
1 x,y,z
2 x,1/2-y,1/2+z
3 -x,-y,-z
4 -x,1/2+y,1/2-z
_cell_length_a                   13.003(2)
_cell_length_b                   8.262(1)
_cell_length_c                   14.491(3)
_cell_angle_alpha                90
_cell_angle_beta                 101.12(2)
_cell_angle_gamma                90
_cell_volume                     1527.55
_exptl_crystal_colour            colorless
_exptl_crystal_description       plates
_cell_formula_units_Z            4
loop_
_atom_site_label
_atom_site_type_symbol
_atom_site_fract_x
_atom_site_fract_y
_atom_site_fract_z
C1 C 0.0707(3) 0.0997(4) 0.4032(2)
H1 H 0.0111 0.0259 0.3812
H2 H 0.1257 0.0769 0.3662
O1 O 0.11248(16) 0.0705(3) 0.50323(14)
C2 C 0.2145(2) 0.1001(3) 0.53200(19)
O2 O 0.27443(17) 0.1434(3) 0.48347(15)
O3 O 0.23743(17) 0.0740(2) 0.62444(14)
C3 C 0.3465(2) 0.1078(4) 0.6692(2)
H3 H 0.3937 0.0763 0.6262
H4 H 0.3655 0.0430 0.7275
C4 C 0.3605(2) 0.2842(4) 0.6925(2)
C5 C 0.3441(2) 0.3415(4) 0.7784(2)
H5 H 0.3250 0.2681 0.8227
C6 C 0.3551(3) 0.5036(4) 0.8005(2)
H6 H 0.3435 0.5411 0.8596
C7 C 0.3831(2) 0.6121(4) 0.7367(2)
H7 H 0.3902 0.7238 0.7521
C8 C 0.4009(2) 0.5578(4) 0.6502(2)
C9 C 0.3905(2) 0.3943(4) 0.6288(2)
H8 H 0.4038 0.3563 0.5704
C10 C 0.4287(2) 0.6758(4) 0.5795(2)
H9 H 0.4744 0.7623 0.6120
H10 H 0.4665 0.6194 0.5358
O4 O 0.3290(2) 0.7466(3) 0.52648(18)
C11 C 0.2910(12) 0.672(3) 0.4460(10)
O5 O 0.3308(2) 0.5628(4) 0.4106(2)
O6 O 0.2008(2) 0.7458(3) 0.40958(19)
C12 C 0.1447(3) 0.6720(4) 0.3210(2)
H13 H 0.1952 0.6199 0.2873
H14 H 0.1059 0.7561 0.2797
C14 C 0.0694(3) 0.5474(4) 0.3458(2)
C15 C -0.0293(3) 0.5923(4) 0.3601(2)
H17 H -0.0516 0.7016 0.3510
C16 C -0.0949(3) 0.4787(4) 0.3876(2)
H18 H -0.1628 0.5097 0.3962
C17 C -0.0627(2) 0.3203(4) 0.4025(2)
H19 H -0.1079 0.2436 0.4231
C18 C 0.0350(2) 0.2719(4) 0.38792(19)
C19 C 0.1005(2) 0.3869(4) 0.3592(2)
H20 H 0.1674 0.3551 0.3485
H11? H 0.5053 0.6945 0.5933
H12? H 0.3938 0.7805 0.5860
H15? H 0.1337 0.7766 0.3510
H16? H 0.1310 0.6884 0.2521
O7? O 0.3961(6) 0.6158(11) 0.4782(5)
C13? C 0.298(4) 0.668(14) 0.443(4)
O8? O 0.2481(9) 0.7520(13) 0.4858(8)
O9? O 0.2618(6) 0.6146(12) 0.3556(5)
loop_
_geom_bond_atom_site_label_1
_geom_bond_atom_site_label_2
_geom_bond_site_symmetry_1
_geom_bond_site_symmetry_2
C1 H1 1_555 1_555
H2 C1 1_555 1_555
O1 C1 1_555 1_555
C2 O1 1_555 1_555
O2 C2 1_555 1_555
O3 C2 1_555 1_555
C3 O3 1_555 1_555
H3 C3 1_555 1_555
H4 C3 1_555 1_555
C4 C3 1_555 1_555
C5 C4 1_555 1_555
H5 C5 1_555 1_555
C6 C5 1_555 1_555
H6 C6 1_555 1_555
C7 C6 1_555 1_555
H7 C7 1_555 1_555
C8 C7 1_555 1_555
C9 C4 1_555 1_555
H8 C9 1_555 1_555
C10 C8 1_555 1_555
H9 C10 1_555 1_555
H10 C10 1_555 1_555
O4 C10 1_555 1_555
C11 O4 1_555 1_555
O5 C11 1_555 1_555
O6 C11 1_555 1_555
C12 O6 1_555 1_555
H13 C12 1_555 1_555
H14 C12 1_555 1_555
C14 C12 1_555 1_555
C15 C14 1_555 1_555
H17 C15 1_555 1_555
C16 C15 1_555 1_555
H18 C16 1_555 1_555
C17 C16 1_555 1_555
H19 C17 1_555 1_555
C18 C1 1_555 1_555
C19 C14 1_555 1_555
H20 C19 1_555 1_555
C8 C9 1_555 1_555
C17 C18 1_555 1_555
C18 C19 1_555 1_555

#END
