
#######################################################################
#
#                 Cambridge Crystallographic Data Centre
#                                CCDC 
#
#######################################################################
#
# If this CIF has been generated from an entry in the Cambridge 
# Structural Database, then it will include bibliographic, chemical, 
# crystal, experimental, refinement or atomic coordinate data resulting 
# from the CCDC's data processing and validation procedures.
#
#######################################################################

data_AVIMAT
_chemical_name_common            
(2)(2,6)Naphthaleno(2)(4,4')diphenylmethanophane
_chemical_formula_moiety         'C27 H24'
_chemical_name_systematic        
1(2,6)-Naphthalena-4,6(1,4)-dibenzenacyclo-octaphane
_symmetry_cell_setting           monoclinic
_symmetry_space_group_name_H-M   'P 21/n'
_symmetry_Int_Tables_number      14
_space_group_name_Hall           '-P 2yn'
loop_
_symmetry_equiv_pos_site_id
_symmetry_equiv_pos_as_xyz
1 x,y,z
2 1/2+x,1/2-y,1/2+z
3 -x,-y,-z
4 1/2-x,1/2+y,1/2-z
_cell_length_a                   10.705(2)
_cell_length_b                   11.602(2)
_cell_length_c                   16.090(3)
_cell_angle_alpha                90
_cell_angle_beta                 98.32(1)
_cell_angle_gamma                90
_cell_volume                     1977.34
_exptl_crystal_colour            colorless
_exptl_crystal_description       prisms
_cell_formula_units_Z            4
loop_
_atom_site_label
_atom_site_type_symbol
_atom_site_fract_x
_atom_site_fract_y
_atom_site_fract_z
C1 C 0.3821(3) 0.4241(4) 0.4075(2)
H1 H 0.3600 0.4870 0.4423
H2 H 0.4180 0.3628 0.4444
C2 C 0.2629(3) 0.3800(3) 0.3541(2)
H3 H 0.2187 0.3296 0.3881
H4 H 0.2081 0.4450 0.3370
C3 C 0.2870(3) 0.3149(3) 0.27613(19)
C4 C 0.3660(3) 0.2204(3) 0.2803(2)
H5 H 0.3980 0.1901 0.3326
C5 C 0.3990(3) 0.1694(3) 0.2089(2)
H6 H 0.4529 0.1061 0.2140
C6 C 0.3530(3) 0.2111(3) 0.1305(2)
C7 C 0.2703(3) 0.3015(4) 0.1256(2)
H7 H 0.2339 0.3283 0.0731
C8 C 0.2395(3) 0.3541(3) 0.1974(2)
H8 H 0.1855 0.4173 0.1920
C9 C 0.3982(3) 0.1616(4) 0.0528(2)
H9 H 0.4049 0.0784 0.0578
H10 H 0.3376 0.1793 0.0036
C10 C 0.5255(3) 0.2116(3) 0.04230(18)
C11 C 0.6349(3) 0.1590(3) 0.0780(2)
H11 H 0.6305 0.0871 0.1031
C12 C 0.7511(3) 0.2096(3) 0.0778(2)
H12 H 0.8231 0.1718 0.1034
C13 C 0.7632(3) 0.3151(3) 0.04042(18)
C14 C 0.6542(3) 0.3659(3) 0.0003(2)
H13 H 0.6596 0.4350 -0.0282
C15 C 0.5369(3) 0.3160(3) 0.0017(2)
H14 H 0.4648 0.3529 -0.0248
C16 C 0.8893(3) 0.3748(4) 0.0478(2)
H15 H 0.9066 0.3936 -0.0081
H16 H 0.9541 0.3216 0.0725
C17 C 0.8984(3) 0.4847(3) 0.1003(2)
H17 H 0.9866 0.5011 0.1199
H18 H 0.8644 0.5484 0.0651
C18 C 0.8287(3) 0.4763(3) 0.17469(19)
C19 C 0.7223(3) 0.5410(3) 0.17691(19)
H19 H 0.7011 0.5981 0.1367
C20 C 0.6431(3) 0.5222(3) 0.24020(18)
C21 C 0.5297(3) 0.5819(3) 0.2413(2)
H20 H 0.5077 0.6413 0.2032
C22 C 0.4517(3) 0.5537(3) 0.2976(2)
H21 H 0.3769 0.5947 0.2969
C23 C 0.4796(3) 0.4653(3) 0.35641(19)
C24 C 0.5938(3) 0.4097(3) 0.35900(18)
H22 H 0.6159 0.3533 0.3996
C25 C 0.6788(3) 0.4359(3) 0.30143(17)
C26 C 0.7929(3) 0.3771(3) 0.2995(2)
H23 H 0.8199 0.3233 0.3411
C27 C 0.8644(3) 0.3973(3) 0.2383(2)
H24 H 0.9396 0.3571 0.2388
loop_
_geom_bond_atom_site_label_1
_geom_bond_atom_site_label_2
_geom_bond_site_symmetry_1
_geom_bond_site_symmetry_2
C1 H1 1_555 1_555
H2 C1 1_555 1_555
C2 C1 1_555 1_555
H3 C2 1_555 1_555
H4 C2 1_555 1_555
C3 C2 1_555 1_555
C4 C3 1_555 1_555
H5 C4 1_555 1_555
C5 C4 1_555 1_555
H6 C5 1_555 1_555
C6 C5 1_555 1_555
C7 C6 1_555 1_555
H7 C7 1_555 1_555
C8 C3 1_555 1_555
H8 C8 1_555 1_555
C9 C6 1_555 1_555
H9 C9 1_555 1_555
H10 C9 1_555 1_555
C10 C9 1_555 1_555
C11 C10 1_555 1_555
H11 C11 1_555 1_555
C12 C11 1_555 1_555
H12 C12 1_555 1_555
C13 C12 1_555 1_555
C14 C13 1_555 1_555
H13 C14 1_555 1_555
C15 C10 1_555 1_555
H14 C15 1_555 1_555
C16 C13 1_555 1_555
H15 C16 1_555 1_555
H16 C16 1_555 1_555
C17 C16 1_555 1_555
H17 C17 1_555 1_555
H18 C17 1_555 1_555
C18 C17 1_555 1_555
C19 C18 1_555 1_555
H19 C19 1_555 1_555
C20 C19 1_555 1_555
C21 C20 1_555 1_555
H20 C21 1_555 1_555
C22 C21 1_555 1_555
H21 C22 1_555 1_555
C23 C1 1_555 1_555
C24 C23 1_555 1_555
H22 C24 1_555 1_555
C25 C20 1_555 1_555
C26 C25 1_555 1_555
H23 C26 1_555 1_555
C27 C18 1_555 1_555
H24 C27 1_555 1_555
C7 C8 1_555 1_555
C14 C15 1_555 1_555
C22 C23 1_555 1_555
C24 C25 1_555 1_555
C26 C27 1_555 1_555

#END
