
#######################################################################
#
#                 Cambridge Crystallographic Data Centre
#                                CCDC 
#
#######################################################################
#
# If this CIF has been generated from an entry in the Cambridge 
# Structural Database, then it will include bibliographic, chemical, 
# crystal, experimental, refinement or atomic coordinate data resulting 
# from the CCDC's data processing and validation procedures.
#
#######################################################################

data_AVIMIB
_chemical_name_common            2,4,13-Trioxa-(5.3)metacyclophan-3-one
_chemical_formula_moiety         'C17 H16 O4'
_chemical_name_systematic        
3,7,9-Trioxa-1,5(1,3)-dibenzenacyclodecaphan-8-one
_symmetry_cell_setting           monoclinic
_symmetry_space_group_name_H-M   'P 21/c'
_symmetry_Int_Tables_number      14
_space_group_name_Hall           '-P 2ybc'
loop_
_symmetry_equiv_pos_site_id
_symmetry_equiv_pos_as_xyz
1 x,y,z
2 x,1/2-y,1/2+z
3 -x,-y,-z
4 -x,1/2+y,1/2-z
_cell_length_a                   16.573(1)
_cell_length_b                   6.179(1)
_cell_length_c                   15.064(1)
_cell_angle_alpha                90
_cell_angle_beta                 115.55(1)
_cell_angle_gamma                90
_cell_volume                     1391.77
_exptl_crystal_colour            colorless
_exptl_crystal_description       plates
_cell_formula_units_Z            4
loop_
_atom_site_label
_atom_site_type_symbol
_atom_site_fract_x
_atom_site_fract_y
_atom_site_fract_z
C1 C 0.44487(15) 0.7136(4) 0.39265(17)
H1 H 0.4506 0.7968 0.3395
H2 H 0.4940 0.7568 0.4563
O1 O 0.44929(14) 0.4752(4) 0.37614(14)
C2 C 0.4205(8) 0.4250(14) 0.2801(7)
O2 O 0.40512(15) 0.5416(5) 0.21366(17)
O3 O 0.41229(14) 0.2056(4) 0.27650(16)
C3 C 0.36006(15) 0.1292(4) 0.17473(17)
H5 H 0.3707 -0.0276 0.1715
H6 H 0.3811 0.2048 0.1307
C5 C 0.26147(14) 0.1678(4) 0.13894(16)
C6 C 0.20435(16) 0.1489(4) 0.04018(16)
H9 H 0.2275 0.1066 -0.0050
C7 C 0.11433(17) 0.1908(4) 0.00636(17)
H10 H 0.0757 0.1747 -0.0616
C8 C 0.07983(15) 0.2562(4) 0.07114(17)
H11 H 0.0178 0.2869 0.0474
C9 C 0.13576(13) 0.2769(3) 0.17038(15)
C10 C 0.22565(13) 0.2308(3) 0.20382(14)
H12 H 0.2639 0.2421 0.2721
C11 C 0.10035(14) 0.3485(3) 0.24280(17)
H13 H 0.0583 0.2373 0.2451
H14 H 0.1509 0.3569 0.3091
O7 O 0.05562(9) 0.5527(3) 0.22019(11)
C12 C 0.10937(14) 0.7301(4) 0.21491(17)
H15 H 0.0732 0.8642 0.2000
H16 H 0.1256 0.7040 0.1598
C13 C 0.19350(14) 0.7642(3) 0.30742(16)
C14 C 0.19048(16) 0.8332(4) 0.39390(17)
H17 H 0.1344 0.8606 0.3948
C15 C 0.26866(17) 0.8619(4) 0.47836(17)
H18 H 0.2658 0.9090 0.5370
C16 C 0.35079(16) 0.8233(4) 0.47884(16)
H19 H 0.4040 0.8418 0.5377
C17 C 0.35565(14) 0.7572(4) 0.39293(16)
C18 C 0.27661(14) 0.7305(4) 0.30837(15)
H20 H 0.2795 0.6879 0.2492
H3? H 0.4776 0.6057 0.4443
H4? H 0.4803 0.8489 0.4094
H7? H 0.3733 0.0561 0.1240
H8? H 0.3844 0.0416 0.2357
O4? O 0.4375(3) 0.6297(8) 0.2938(3)
C4? C 0.4224(18) 0.413(2) 0.2893(11)
O5? O 0.4292(4) 0.3007(10) 0.3544(4)
O6? O 0.3974(3) 0.3591(9) 0.1939(3)
loop_
_geom_bond_atom_site_label_1
_geom_bond_atom_site_label_2
_geom_bond_site_symmetry_1
_geom_bond_site_symmetry_2
C1 H1 1_555 1_555
H2 C1 1_555 1_555
O1 C1 1_555 1_555
C2 O1 1_555 1_555
O2 C2 1_555 1_555
O3 C2 1_555 1_555
C3 O3 1_555 1_555
H5 C3 1_555 1_555
H6 C3 1_555 1_555
C5 C3 1_555 1_555
C6 C5 1_555 1_555
H9 C6 1_555 1_555
C7 C6 1_555 1_555
H10 C7 1_555 1_555
C8 C7 1_555 1_555
H11 C8 1_555 1_555
C9 C8 1_555 1_555
C10 C5 1_555 1_555
H12 C10 1_555 1_555
C11 C9 1_555 1_555
H13 C11 1_555 1_555
H14 C11 1_555 1_555
O7 C11 1_555 1_555
C12 O7 1_555 1_555
H15 C12 1_555 1_555
H16 C12 1_555 1_555
C13 C12 1_555 1_555
C14 C13 1_555 1_555
H17 C14 1_555 1_555
C15 C14 1_555 1_555
H18 C15 1_555 1_555
C16 C15 1_555 1_555
H19 C16 1_555 1_555
C17 C1 1_555 1_555
C18 C13 1_555 1_555
H20 C18 1_555 1_555
C9 C10 1_555 1_555
C16 C17 1_555 1_555
C17 C18 1_555 1_555

#END
