
#######################################################################
#
#                 Cambridge Crystallographic Data Centre
#                                CCDC 
#
#######################################################################
#
# If this CIF has been generated from an entry in the Cambridge 
# Structural Database, then it will include bibliographic, chemical, 
# crystal, experimental, refinement or atomic coordinate data resulting 
# from the CCDC's data processing and validation procedures.
#
#######################################################################

data_AVIWIL
_chemical_formula_moiety         'C18 H10 Cl2 O2'
_chemical_name_systematic        
cis-1,5-dichloro-9,10-diethynyl-9,10-dihydroxy-9,10-dihydroanthracene
_symmetry_cell_setting           monoclinic
_symmetry_space_group_name_H-M   'P 21/n'
_symmetry_Int_Tables_number      14
_space_group_name_Hall           '-P 2yn'
loop_
_symmetry_equiv_pos_site_id
_symmetry_equiv_pos_as_xyz
1 x,y,z
2 1/2+x,1/2-y,1/2+z
3 -x,-y,-z
4 1/2-x,1/2+y,1/2-z
_cell_length_a                   7.4731(2)
_cell_length_b                   12.5163(3)
_cell_length_c                   16.2952(5)
_cell_angle_alpha                90
_cell_angle_beta                 100.5650(10)
_cell_angle_gamma                90
_cell_volume                     1498.34
_exptl_crystal_colour            colorless
_exptl_crystal_description       Prism
_cell_formula_units_Z            4
loop_
_atom_site_label
_atom_site_type_symbol
_atom_site_fract_x
_atom_site_fract_y
_atom_site_fract_z
Cl1 Cl 0.06829(11) 0.04650(6) 0.33956(5)
Cl2 Cl 0.74823(11) -0.47117(5) 0.39894(5)
O1 O 0.3028(3) -0.08019(17) 0.24028(11)
C1 C 0.5569(3) -0.2851(2) 0.35663(15)
C2 C 0.2546(3) -0.1430(2) 0.37661(15)
O2 O 0.3433(3) -0.41905(16) 0.38919(12)
C3 C 0.2722(3) -0.2411(2) 0.41739(15)
C4 C 0.5347(4) -0.1892(2) 0.31277(15)
C5 C 0.4296(4) -0.31828(19) 0.41589(15)
C6 C 0.3921(4) -0.1053(2) 0.32417(15)
C7 C 0.7019(4) -0.3515(2) 0.34357(16)
C8 C 0.1045(4) -0.0788(2) 0.38721(17)
C9 C 0.8164(4) -0.3260(2) 0.28851(17)
C10 C 0.6487(4) -0.1628(2) 0.25628(17)
C11 C 0.5343(3) -0.32497(19) 0.50237(16)
C12 C 0.4901(4) -0.0110(2) 0.36522(15)
C13 C -0.0190(4) -0.1114(3) 0.43536(19)
C14 C 0.1452(4) -0.2738(2) 0.46664(17)
C15 C 0.5705(4) 0.0625(2) 0.39974(18)
C16 C 0.6170(4) -0.3244(2) 0.57160(17)
C17 C 0.7874(4) -0.2314(2) 0.24414(18)
C18 C 0.0016(4) -0.2087(3) 0.47584(19)
H1 H 0.638(4) -0.095(2) 0.2265(16)
H2 H 0.247(6) -0.030(3) 0.240(2)
H3 H 0.678(4) -0.323(2) 0.625(2)
H4 H -0.113(4) -0.072(3) 0.4396(19)
H5 H 0.409(5) -0.466(3) 0.408(2)
H6 H 0.858(5) -0.212(3) 0.205(2)
H7 H -0.080(4) -0.229(3) 0.509(2)
H8 H 0.916(4) -0.377(3) 0.2851(19)
H9 H 0.633(5) 0.115(3) 0.426(2)
H10 H 0.132(4) -0.340(2) 0.4963(19)
loop_
_geom_bond_atom_site_label_1
_geom_bond_atom_site_label_2
_geom_bond_site_symmetry_1
_geom_bond_site_symmetry_2
Cl1 C8 1_555 1_555
Cl2 C7 1_555 1_555
O1 C6 1_555 1_555
C1 C4 1_555 1_555
C2 C3 1_555 1_555
O2 C5 1_555 1_555
C3 C5 1_555 1_555
C4 C6 1_555 1_555
C5 C1 1_555 1_555
C6 C2 1_555 1_555
C7 C1 1_555 1_555
C8 C2 1_555 1_555
C9 C7 1_555 1_555
C10 C4 1_555 1_555
C11 C5 1_555 1_555
C12 C6 1_555 1_555
C13 C8 1_555 1_555
C14 C3 1_555 1_555
C15 C12 1_555 1_555
C16 C11 1_555 1_555
C17 C9 1_555 1_555
C18 C13 1_555 1_555
H1 C10 1_555 1_555
H2 O1 1_555 1_555
H3 C16 1_555 1_555
H4 C13 1_555 1_555
H5 O2 1_555 1_555
H6 C17 1_555 1_555
H7 C18 1_555 1_555
H8 C9 1_555 1_555
H9 C15 1_555 1_555
H10 C14 1_555 1_555
C10 C17 1_555 1_555
C14 C18 1_555 1_555

#END
