
#######################################################################
#
#                 Cambridge Crystallographic Data Centre
#                                CCDC 
#
#######################################################################
#
# If this CIF has been generated from an entry in the Cambridge 
# Structural Database, then it will include bibliographic, chemical, 
# crystal, experimental, refinement or atomic coordinate data resulting 
# from the CCDC's data processing and validation procedures.
#
#######################################################################

data_AVIWEH01
_chemical_formula_moiety         'C18 H10 Cl2 O2,C4 H11 N1'
_chemical_name_systematic        
'cis-1,5-dichloro-9,10-diethynyl-9,10-dihydroxy-9,10-dihydroanthracene diethylamine solvate'
_symmetry_cell_setting           monoclinic
_symmetry_space_group_name_H-M   'P 21/n'
_symmetry_Int_Tables_number      14
_space_group_name_Hall           '-P 2yn'
loop_
_symmetry_equiv_pos_site_id
_symmetry_equiv_pos_as_xyz
1 x,y,z
2 1/2+x,1/2-y,1/2+z
3 -x,-y,-z
4 1/2-x,1/2+y,1/2-z
_cell_length_a                   8.1794(2)
_cell_length_b                   13.6483(4)
_cell_length_c                   18.0272(5)
_cell_angle_alpha                90
_cell_angle_beta                 96.9840(10)
_cell_angle_gamma                90
_cell_volume                     1997.53
_exptl_crystal_colour            colorless
_exptl_crystal_description       cube
_cell_formula_units_Z            4
loop_
_atom_site_label
_atom_site_type_symbol
_atom_site_fract_x
_atom_site_fract_y
_atom_site_fract_z
Cl1 Cl 0.92773(7) -0.06018(4) 0.10067(3)
Cl2 Cl 0.81282(8) 0.23486(4) 0.48693(3)
O1 O 0.72683(16) -0.06068(10) 0.23343(8)
O2 O 0.74568(17) 0.24876(10) 0.31840(8)
C1 C 0.9648(2) 0.24249(15) 0.20045(12)
C2 C 0.9308(2) 0.16417(14) 0.24635(11)
C3 C 0.8593(2) 0.10428(14) 0.37424(11)
C4 C 1.0399(3) 0.24683(14) 0.36144(12)
C5 C 0.8191(3) 0.11802(15) 0.44767(12)
C6 C 0.9224(2) 0.06831(14) 0.21839(11)
C7 C 0.8793(2) -0.01850(14) 0.26647(11)
C8 C 0.7886(3) -0.05481(17) 0.46564(13)
C9 C 0.8583(2) 0.00823(14) 0.34767(11)
C10 C 0.8937(2) 0.19147(14) 0.32545(11)
C11 C 0.8253(3) -0.07066(15) 0.39385(12)
C12 C 0.7848(3) 0.04088(17) 0.49267(13)
C13 C 0.9466(2) 0.05529(15) 0.14290(12)
C14 C 1.0119(2) -0.09324(14) 0.26860(12)
C15 C 0.9923(3) 0.22716(16) 0.12703(13)
C16 C 0.9835(3) 0.13266(16) 0.09765(12)
C17 C 1.1221(3) -0.15031(16) 0.27304(15)
C18 C 1.1611(3) 0.28901(18) 0.38543(15)
H1 H 1.211(4) -0.190(2) 0.2772(18)
H13 H 0.646(4) -0.008(2) 0.2312(18)
H14 H 0.996(3) 0.1220(18) 0.0495(15)
H15 H 0.968(3) 0.3079(17) 0.2194(13)
H16 H 0.766(3) -0.109(2) 0.4979(15)
H17 H 1.016(3) 0.2829(18) 0.0959(14)
H18 H 0.830(3) -0.1396(19) 0.3766(14)
H19 H 0.758(3) 0.052(2) 0.5399(17)
H20 H 1.257(4) 0.328(2) 0.4056(17)
H21 H 0.766(4) 0.304(2) 0.3002(16)
N1 N 0.5239(2) 0.09381(13) 0.22078(10)
C19 C 0.3679(3) 0.07196(17) 0.25071(13)
C20 C 0.5010(3) 0.12665(17) 0.14215(13)
C21 C 0.3944(3) 0.0626(2) 0.33520(15)
C22 C 0.4415(4) 0.0448(2) 0.08873(15)
H2 H 0.420(3) 0.1801(19) 0.1348(15)
H3 H 0.293(4) 0.0500(19) 0.3522(15)
H4 H 0.613(4) 0.151(2) 0.1307(17)
H5 H 0.437(4) 0.068(2) 0.0364(18)
H6 H 0.471(4) 0.007(2) 0.3513(16)
H7 H 0.286(3) 0.1266(17) 0.2346(14)
H8 H 0.323(3) 0.009(2) 0.2285(15)
H9 H 0.444(4) 0.125(2) 0.3611(17)
H10 H 0.516(4) -0.011(2) 0.0972(17)
H11 H 0.572(4) 0.140(2) 0.2513(17)
H12 H 0.324(4) 0.024(2) 0.0962(19)
loop_
_geom_bond_atom_site_label_1
_geom_bond_atom_site_label_2
_geom_bond_site_symmetry_1
_geom_bond_site_symmetry_2
Cl1 C13 1_555 1_555
Cl2 C5 1_555 1_555
O1 C7 1_555 1_555
O2 C10 1_555 1_555
C1 C2 1_555 1_555
C2 C6 1_555 1_555
C3 C5 1_555 1_555
C4 C10 1_555 1_555
C5 C12 1_555 1_555
C6 C7 1_555 1_555
C7 C9 1_555 1_555
C8 C11 1_555 1_555
C9 C3 1_555 1_555
C10 C2 1_555 1_555
C11 C9 1_555 1_555
C12 C8 1_555 1_555
C13 C6 1_555 1_555
C14 C7 1_555 1_555
C15 C1 1_555 1_555
C16 C13 1_555 1_555
C17 C14 1_555 1_555
C18 C4 1_555 1_555
N1 C19 1_555 1_555
C19 C21 1_555 1_555
C20 N1 1_555 1_555
C21 H3 1_555 1_555
C22 C20 1_555 1_555
H1 C17 1_555 1_555
H2 C20 1_555 1_555
H4 C20 1_555 1_555
H5 C22 1_555 1_555
H6 C21 1_555 1_555
H7 C19 1_555 1_555
H8 C19 1_555 1_555
H9 C21 1_555 1_555
H10 C22 1_555 1_555
H11 N1 1_555 1_555
H12 C22 1_555 1_555
H13 O1 1_555 1_555
H14 C16 1_555 1_555
H15 C1 1_555 1_555
H16 C8 1_555 1_555
H17 C15 1_555 1_555
H18 C11 1_555 1_555
H19 C12 1_555 1_555
H20 C18 1_555 1_555
H21 O2 1_555 1_555
C3 C10 1_555 1_555
C15 C16 1_555 1_555

#END
