
#######################################################################
#
#                 Cambridge Crystallographic Data Centre
#                                CCDC 
#
#######################################################################
#
# If this CIF has been generated from an entry in the Cambridge 
# Structural Database, then it will include bibliographic, chemical, 
# crystal, experimental, refinement or atomic coordinate data resulting 
# from the CCDC's data processing and validation procedures.
#
#######################################################################

data_AVIWEH
_chemical_formula_moiety         'C18 H10 Cl2 O2,C4 H11 N1'
_chemical_name_systematic        
'cis-1,5-dichloro-9,10-diethynyl-9,10-dihydroxy-9,10-dihydroanthracene diethylamine solvate'
_symmetry_cell_setting           orthorhombic
_symmetry_space_group_name_H-M   'P b c a'
_symmetry_Int_Tables_number      61
_space_group_name_Hall           '-P 2ac 2ab'
loop_
_symmetry_equiv_pos_site_id
_symmetry_equiv_pos_as_xyz
1 x,y,z
2 1/2+x,y,1/2-z
3 x,1/2-y,1/2+z
4 1/2-x,1/2+y,z
5 -x,-y,-z
6 1/2-x,-y,1/2+z
7 -x,1/2+y,1/2-z
8 1/2+x,1/2-y,-z
_cell_length_a                   14.955(3)
_cell_length_b                   13.659(3)
_cell_length_c                   19.433(4)
_cell_angle_alpha                90
_cell_angle_beta                 90
_cell_angle_gamma                90
_cell_volume                     3969.59
_exptl_crystal_colour            colorless
_exptl_crystal_description       Plate
_cell_formula_units_Z            8
loop_
_atom_site_label
_atom_site_type_symbol
_atom_site_fract_x
_atom_site_fract_y
_atom_site_fract_z
Cl1 Cl 0.29006(5) -0.10337(5) 0.18708(4)
Cl2 Cl 0.39936(6) 0.23230(6) 0.52620(4)
O1 O 0.27559(13) 0.22410(15) 0.39849(11)
O2 O 0.24281(13) -0.08960(14) 0.34339(10)
C1 C 0.39690(19) -0.1199(2) 0.31946(15)
C2 C 0.3857(2) -0.0584(2) 0.52935(16)
C3 C 0.43503(19) 0.2335(2) 0.37403(14)
C4 C 0.38589(19) 0.1117(2) 0.49860(15)
C5 C 0.33762(18) 0.1350(2) 0.30270(14)
C6 C 0.3658(2) -0.0820(2) 0.46204(15)
C7 C 0.3958(2) 0.0395(2) 0.54779(15)
C8 C 0.30401(19) 0.0879(2) 0.16594(15)
C9 C 0.36613(18) 0.0896(2) 0.42905(14)
C10 C 0.3141(2) 0.1858(2) 0.18492(15)
C11 C 0.4546(2) -0.1756(2) 0.30638(17)
C12 C 0.33025(19) 0.2089(2) 0.25288(15)
C13 C 0.35348(18) 0.17127(19) 0.37663(14)
C14 C 0.5018(2) 0.2790(2) 0.36687(17)
C15 C 0.32966(18) -0.04454(19) 0.33978(14)
C16 C 0.35587(18) -0.0089(2) 0.41204(14)
C17 C 0.30982(18) 0.0161(2) 0.21551(14)
C18 C 0.32727(17) 0.0370(2) 0.28522(14)
H2 H 0.358(2) -0.154(2) 0.4584(16)
H6 H 0.412(2) 0.058(2) 0.5903(18)
H7 H 0.501(2) -0.219(2) 0.2957(17)
H8 H 0.334(2) 0.276(2) 0.2627(16)
H9 H 0.293(2) 0.071(2) 0.1230(18)
H10 H 0.396(2) -0.108(2) 0.5613(17)
H12 H 0.314(2) 0.235(3) 0.1543(17)
H16 H 0.274(2) 0.276(3) 0.3807(19)
H20 H 0.553(3) 0.308(3) 0.362(2)
H21 H 0.204(3) -0.044(3) 0.354(2)
N1 N 0.11988(17) 0.05110(19) 0.37039(13)
C19 C 0.0498(2) 0.0496(2) 0.31645(18)
C20 C 0.0793(2) 0.0403(3) 0.43890(17)
C21 C 0.0873(2) 0.0649(3) 0.2458(2)
C22 C 0.1450(3) 0.0575(3) 0.49571(19)
H1 H 0.146(2) 0.104(3) 0.3723(17)
H3 H 0.001(2) 0.102(2) 0.3255(16)
H4 H 0.021(2) -0.014(2) 0.3187(15)
H5 H 0.053(2) -0.030(3) 0.4402(17)
H11 H 0.121(2) 0.014(2) 0.2329(16)
H13 H 0.026(2) 0.091(3) 0.4435(18)
H14 H 0.165(3) 0.127(3) 0.495(2)
H15 H 0.039(2) 0.067(2) 0.2114(17)
H17 H 0.122(3) 0.128(3) 0.246(2)
H18 H 0.192(3) 0.008(3) 0.493(2)
H19 H 0.115(3) 0.055(3) 0.539(2)
loop_
_geom_bond_atom_site_label_1
_geom_bond_atom_site_label_2
_geom_bond_site_symmetry_1
_geom_bond_site_symmetry_2
Cl1 C17 1_555 1_555
Cl2 C4 1_555 1_555
O1 C13 1_555 1_555
O2 C15 1_555 1_555
C1 C11 1_555 1_555
C2 C6 1_555 1_555
C3 C13 1_555 1_555
C4 C7 1_555 1_555
C5 C12 1_555 1_555
C6 C16 1_555 1_555
C7 C2 1_555 1_555
C8 C10 1_555 1_555
C9 C4 1_555 1_555
C10 C12 1_555 1_555
C11 H7 1_555 1_555
C12 H8 1_555 1_555
C13 C5 1_555 1_555
C14 C3 1_555 1_555
C15 C1 1_555 1_555
C16 C9 1_555 1_555
C17 C8 1_555 1_555
C18 C5 1_555 1_555
N1 C19 1_555 1_555
C19 C21 1_555 1_555
C20 N1 1_555 1_555
C21 H11 1_555 1_555
C22 C20 1_555 1_555
H1 N1 1_555 1_555
H2 C6 1_555 1_555
H3 C19 1_555 1_555
H4 C19 1_555 1_555
H5 C20 1_555 1_555
H6 C7 1_555 1_555
H9 C8 1_555 1_555
H10 C2 1_555 1_555
H12 C10 1_555 1_555
H13 C20 1_555 1_555
H14 C22 1_555 1_555
H15 C21 1_555 1_555
H16 O1 1_555 1_555
H17 C21 1_555 1_555
H18 C22 1_555 1_555
H19 C22 1_555 1_555
H20 C14 1_555 1_555
H21 O2 1_555 1_555
C9 C13 1_555 1_555
C15 C16 1_555 1_555
C15 C18 1_555 1_555
C17 C18 1_555 1_555

#END
