
#######################################################################
#
#                 Cambridge Crystallographic Data Centre
#                                CCDC 
#
#######################################################################
#
# If this CIF has been generated from an entry in the Cambridge 
# Structural Database, then it will include bibliographic, chemical, 
# crystal, experimental, refinement or atomic coordinate data resulting 
# from the CCDC's data processing and validation procedures.
#
#######################################################################

data_AVIZEM
_chemical_formula_moiety         'C24 H16 F6 N2 O1 S1'
_chemical_name_systematic        
4-(3,3,4,4,5,5-hexafluoro-2-(5-(4-formylphenyl)-2-methyl-3-thienyl)cyclopent-1-en-1-yl)-1,5-dimethyl-1H-pyrrole-2-carbonitrile
_symmetry_cell_setting           triclinic
_symmetry_space_group_name_H-M   'P -1'
_symmetry_Int_Tables_number      2
_space_group_name_Hall           '-P 1'
loop_
_symmetry_equiv_pos_site_id
_symmetry_equiv_pos_as_xyz
1 x,y,z
2 -x,-y,-z
_cell_length_a                   8.8745(11)
_cell_length_b                   12.0906(14)
_cell_length_c                   12.5448(12)
_cell_angle_alpha                113.700(10)
_cell_angle_beta                 92.741(9)
_cell_angle_gamma                110.160(11)
_cell_volume                     1129.48
_cell_formula_units_Z            2
loop_
_atom_site_label
_atom_site_type_symbol
_atom_site_fract_x
_atom_site_fract_y
_atom_site_fract_z
S1 S -0.00093(10) -0.00046(8) 0.22442(7)
F1 F 0.7509(3) 0.2609(3) 0.1303(2)
F2 F 0.7803(3) 0.4575(2) 0.2322(2)
F3 F 0.8874(9) 0.3159(8) 0.3559(8)
F4 F 0.7923(8) 0.4670(4) 0.4347(4)
F5 F 0.6121(9) 0.1293(10) 0.323(2)
F6 F 0.5892(7) 0.2856(11) 0.4746(6)
N1 N 0.3812(5) 0.3281(4) -0.2610(3)
N2 N 0.2744(3) 0.3617(3) 0.0153(2)
O1 O -0.2706(4) 0.2471(3) 0.8247(3)
C1 C 0.3761(4) 0.3266(3) -0.1701(3)
C2 C 0.3780(4) 0.3250(3) -0.0570(3)
C3 C 0.4776(4) 0.2913(3) -0.0010(3)
H1 H 0.5591 0.2634 -0.0300
C4 C 0.4336(4) 0.3066(3) 0.1092(3)
C5 C 0.3081(4) 0.3513(3) 0.1168(3)
C6 C 0.2270(5) 0.3963(4) 0.2186(3)
H2 H 0.2217 0.4782 0.2301
H3 H 0.2896 0.4083 0.2898
H4 H 0.1178 0.3313 0.2011
C7 C 0.1537(5) 0.4085(4) -0.0134(4)
H5 H 0.0458 0.3520 -0.0148
H6 H 0.1568 0.4074 -0.0902
H7 H 0.1793 0.4967 0.0459
C8 C 0.5190(3) 0.2912(3) 0.2007(3)
C9 C 0.7027(4) 0.3361(3) 0.2216(3)
C10 C 0.7547(5) 0.3287(5) 0.3335(5)
C11 C 0.6029(5) 0.2628(5) 0.3639(3)
C12 C 0.4627(4) 0.2436(3) 0.2785(3)
C13 C 0.2923(4) 0.1709(3) 0.2808(3)
C14 C 0.1826(4) 0.0605(3) 0.1860(3)
C15 C 0.2057(5) -0.0108(4) 0.0626(3)
H8 H 0.1929 0.0330 0.0158
H9 H 0.1250 -0.0998 0.0258
H10 H 0.3138 -0.0111 0.0674
C16 C 0.2268(4) 0.2057(3) 0.3857(3)
H11 H 0.2864 0.2779 0.4580
C17 C 0.0685(4) 0.1226(3) 0.3692(3)
C18 C -0.0352(3) 0.1291(3) 0.4576(2)
C19 C -0.1759(4) 0.0219(3) 0.4419(3)
H12 H -0.2081 -0.0567 0.3727
C20 C -0.2686(4) 0.0313(3) 0.5283(3)
H13 H -0.3634 -0.0407 0.5161
C21 C -0.2217(4) 0.1460(3) 0.6320(3)
C22 C -0.0834(4) 0.2533(3) 0.6473(3)
H14 H -0.0521 0.3321 0.7162
C23 C 0.0086(4) 0.2445(3) 0.5609(3)
H15 H 0.1017 0.3175 0.5726
C24 C -0.3143(5) 0.1553(4) 0.7264(4)
H16 H -0.4142 0.0855 0.7096
F7? F 0.7769(12) 0.1932(9) 0.2622(8)
F8? F 0.8904(11) 0.3976(12) 0.3890(9)
F9? F 0.5822(11) 0.187(2) 0.4038(18)
F10? F 0.6244(8) 0.3904(12) 0.4683(6)
loop_
_geom_bond_atom_site_label_1
_geom_bond_atom_site_label_2
_geom_bond_site_symmetry_1
_geom_bond_site_symmetry_2
S1 C14 1_555 1_555
F1 C9 1_555 1_555
F2 C9 1_555 1_555
F3 C10 1_555 1_555
F4 C10 1_555 1_555
F5 C11 1_555 1_555
F6 C11 1_555 1_555
N1 C1 1_555 1_555
N2 C2 1_555 1_555
O1 C24 1_555 1_555
C1 C2 1_555 1_555
C2 C3 1_555 1_555
C3 H1 1_555 1_555
C4 C3 1_555 1_555
C5 N2 1_555 1_555
C6 C5 1_555 1_555
H2 C6 1_555 1_555
H3 C6 1_555 1_555
H4 C6 1_555 1_555
C7 N2 1_555 1_555
H5 C7 1_555 1_555
H6 C7 1_555 1_555
H7 C7 1_555 1_555
C8 C4 1_555 1_555
C9 C8 1_555 1_555
C10 C9 1_555 1_555
C11 C10 1_555 1_555
C12 C8 1_555 1_555
C13 C12 1_555 1_555
C14 C13 1_555 1_555
C15 C14 1_555 1_555
H8 C15 1_555 1_555
H9 C15 1_555 1_555
H10 C15 1_555 1_555
C16 C13 1_555 1_555
H11 C16 1_555 1_555
C17 S1 1_555 1_555
C18 C17 1_555 1_555
C19 C18 1_555 1_555
H12 C19 1_555 1_555
C20 C19 1_555 1_555
H13 C20 1_555 1_555
C21 C20 1_555 1_555
C22 C21 1_555 1_555
H14 C22 1_555 1_555
C23 C18 1_555 1_555
H15 C23 1_555 1_555
C24 C21 1_555 1_555
H16 C24 1_555 1_555
C4 C5 1_555 1_555
C11 C12 1_555 1_555
C16 C17 1_555 1_555
C22 C23 1_555 1_555

#END
