
#######################################################################
#
#                 Cambridge Crystallographic Data Centre
#                                CCDC 
#
#######################################################################
#
# If this CIF has been generated from an entry in the Cambridge 
# Structural Database, then it will include bibliographic, chemical, 
# crystal, experimental, refinement or atomic coordinate data resulting 
# from the CCDC's data processing and validation procedures.
#
#######################################################################

data_AVOBUJ
_chemical_formula_moiety         'C20 H21 N1 O1'
_chemical_name_systematic        3,7-Diphenyl-2-azabicyclo[3.3.1]non-2-en-1-ol
_symmetry_cell_setting           triclinic
_symmetry_space_group_name_H-M   'P -1'
_symmetry_Int_Tables_number      2
_space_group_name_Hall           '-P 1'
loop_
_symmetry_equiv_pos_site_id
_symmetry_equiv_pos_as_xyz
1 x,y,z
2 -x,-y,-z
_cell_length_a                   10.1969(4)
_cell_length_b                   12.1806(5)
_cell_length_c                   13.2273(5)
_cell_angle_alpha                76.674(2)
_cell_angle_beta                 89.632(2)
_cell_angle_gamma                82.685(2)
_cell_volume                     1585.19
_exptl_crystal_colour            colorless
_exptl_crystal_description       plate
_cell_formula_units_Z            4
loop_
_atom_site_label
_atom_site_type_symbol
_atom_site_fract_x
_atom_site_fract_y
_atom_site_fract_z
C1 C 0.25747(18) 0.24923(17) 0.57432(13)
H1 H 0.2189 0.1863 0.5622
C2 C 0.2765(2) 0.33797(18) 0.49124(15)
H2 H 0.2512 0.3354 0.4229
C3 C 0.3323(2) 0.43018(18) 0.50754(17)
H3 H 0.3461 0.4909 0.4506
C4 C 0.3677(2) 0.43337(18) 0.60736(18)
H4 H 0.4057 0.4968 0.6190
C5 C 0.3483(2) 0.34426(17) 0.69102(15)
H5 H 0.3727 0.3479 0.7592
C6 C 0.29400(17) 0.25038(15) 0.67625(13)
C7 C 0.27444(16) 0.14848(15) 0.76255(12)
H6 H 0.3229 0.0801 0.7429
C8 C 0.32886(17) 0.15108(15) 0.86955(12)
H7 H 0.2875 0.2209 0.8894
H8 H 0.4254 0.1539 0.8656
C9 C 0.30185(16) 0.04637(16) 0.95332(12)
C10 C 0.15457(17) 0.03811(17) 0.96051(12)
H9 H 0.1072 0.1073 0.9778
H10 H 0.1382 -0.0287 1.0155
C11 C 0.10584(16) 0.02609(16) 0.85520(12)
H11 H 0.0089 0.0203 0.8587
C12 C 0.12813(17) 0.13061(16) 0.77116(12)
H12 H 0.0763 0.1988 0.7870
H13 H 0.0954 0.1220 0.7035
C13 C 0.17800(16) -0.08436(16) 0.83412(13)
H14 H 0.1298 -0.1483 0.8677
H15 H 0.1758 -0.0791 0.7583
C14 C 0.32002(17) -0.11051(15) 0.87281(12)
C15 C 0.39872(17) -0.21076(15) 0.84510(13)
C16 C 0.4882(2) -0.28508(17) 0.91620(15)
H16 H 0.4997 -0.2722 0.9836
C17 C 0.5604(2) -0.37766(19) 0.88883(18)
H17 H 0.6190 -0.4294 0.9384
C18 C 0.5481(2) -0.39556(18) 0.78967(19)
H18 H 0.5992 -0.4584 0.7709
C19 C 0.4610(2) -0.32149(17) 0.71846(16)
H19 H 0.4534 -0.3327 0.6501
C20 C 0.38459(18) -0.23067(16) 0.74604(14)
H20 H 0.3224 -0.1818 0.6974
N1 N 0.37672(14) -0.05480(13) 0.92750(10)
O1 O 0.34648(12) 0.05368(12) 1.05236(9)
H41 H 0.4279 0.0587 1.0509
C21 C 0.76082(18) 0.23963(16) 0.82322(14)
H21 H 0.7179 0.1793 0.8623
C22 C 0.7873(2) 0.32707(18) 0.86840(15)
H22 H 0.7624 0.3260 0.9379
C23 C 0.8494(2) 0.41528(17) 0.81299(17)
H23 H 0.8685 0.4744 0.8443
C24 C 0.8839(2) 0.41710(17) 0.71121(16)
H24 H 0.9260 0.4781 0.6724
C25 C 0.85706(19) 0.33003(16) 0.66545(14)
H25 H 0.8804 0.3327 0.5954
C26 C 0.79666(16) 0.23929(15) 0.72065(13)
C27 C 0.77507(16) 0.13723(15) 0.67845(12)
H26 H 0.8260 0.0693 0.7257
C28 C 0.82708(16) 0.14052(15) 0.56912(12)
H27 H 0.9232 0.1456 0.5693
H28 H 0.7830 0.2094 0.5204
C29 C 0.80247(16) 0.03469(15) 0.53091(11)
C30 C 0.65561(16) 0.02316(16) 0.53162(12)
H29 H 0.6402 -0.0441 0.5054
H30 H 0.6056 0.0916 0.4863
C31 C 0.60982(16) 0.00968(16) 0.64332(12)
H31 H 0.5135 0.0014 0.6450
C32 C 0.62988(17) 0.11577(16) 0.68196(13)
H32 H 0.5993 0.1065 0.7543
H33 H 0.5752 0.1828 0.6384
C33 C 0.68648(16) -0.09914(16) 0.70978(12)
H34 H 0.6860 -0.0934 0.7832
H35 H 0.6401 -0.1645 0.7053
C34 C 0.82853(16) -0.12241(14) 0.67804(12)
C35 C 0.91271(17) -0.22097(15) 0.74489(13)
C36 C 0.89482(19) -0.25182(16) 0.85256(13)
H36 H 0.8238 -0.2133 0.8829
C37 C 0.9805(2) -0.33858(17) 0.91507(15)
H37 H 0.9689 -0.3579 0.9881
C38 C 1.0829(2) -0.39700(17) 0.87136(17)
H38 H 1.1418 -0.4556 0.9144
C39 C 1.0993(2) -0.36980(17) 0.76456(17)
H39 H 1.1679 -0.4112 0.7344
C40 C 1.01535(18) -0.28220(16) 0.70185(15)
H40 H 1.0276 -0.2635 0.6289
N2 N 0.88121(14) -0.06465(12) 0.59815(10)
O2 O 0.84509(12) 0.04244(11) 0.42787(8)
H42 H 0.9253 0.0521 0.4246
loop_
_geom_bond_atom_site_label_1
_geom_bond_atom_site_label_2
_geom_bond_site_symmetry_1
_geom_bond_site_symmetry_2
C1 H1 1_555 1_555
C2 C1 1_555 1_555
H2 C2 1_555 1_555
C3 C2 1_555 1_555
H3 C3 1_555 1_555
C4 C3 1_555 1_555
H4 C4 1_555 1_555
C5 C4 1_555 1_555
H5 C5 1_555 1_555
C6 C1 1_555 1_555
C7 C6 1_555 1_555
H6 C7 1_555 1_555
C8 C7 1_555 1_555
H7 C8 1_555 1_555
H8 C8 1_555 1_555
C9 C8 1_555 1_555
C10 C9 1_555 1_555
H9 C10 1_555 1_555
H10 C10 1_555 1_555
C11 C10 1_555 1_555
H11 C11 1_555 1_555
C12 C7 1_555 1_555
H12 C12 1_555 1_555
H13 C12 1_555 1_555
C13 C11 1_555 1_555
H14 C13 1_555 1_555
H15 C13 1_555 1_555
C14 C13 1_555 1_555
C15 C14 1_555 1_555
C16 C15 1_555 1_555
H16 C16 1_555 1_555
C17 C16 1_555 1_555
H17 C17 1_555 1_555
C18 C17 1_555 1_555
H18 C18 1_555 1_555
C19 C18 1_555 1_555
H19 C19 1_555 1_555
C20 C15 1_555 1_555
H20 C20 1_555 1_555
C21 H21 1_555 1_555
C22 C21 1_555 1_555
H22 C22 1_555 1_555
C23 C22 1_555 1_555
H23 C23 1_555 1_555
C24 C23 1_555 1_555
H24 C24 1_555 1_555
C25 C24 1_555 1_555
H25 C25 1_555 1_555
C26 C21 1_555 1_555
C27 C26 1_555 1_555
H26 C27 1_555 1_555
C28 C27 1_555 1_555
H27 C28 1_555 1_555
H28 C28 1_555 1_555
C29 C28 1_555 1_555
C30 C29 1_555 1_555
H29 C30 1_555 1_555
H30 C30 1_555 1_555
C31 C30 1_555 1_555
H31 C31 1_555 1_555
C32 C27 1_555 1_555
H32 C32 1_555 1_555
H33 C32 1_555 1_555
C33 C31 1_555 1_555
H34 C33 1_555 1_555
H35 C33 1_555 1_555
C34 C33 1_555 1_555
C35 C34 1_555 1_555
C36 C35 1_555 1_555
H36 C36 1_555 1_555
C37 C36 1_555 1_555
H37 C37 1_555 1_555
C38 C37 1_555 1_555
H38 C38 1_555 1_555
C39 C38 1_555 1_555
H39 C39 1_555 1_555
C40 C35 1_555 1_555
H40 C40 1_555 1_555
N1 C9 1_555 1_555
N2 C29 1_555 1_555
O1 C9 1_555 1_555
H41 O1 1_555 1_555
O2 C29 1_555 1_555
H42 O2 1_555 1_555
C5 C6 1_555 1_555
C11 C12 1_555 1_555
C14 N1 1_555 1_555
C19 C20 1_555 1_555
C25 C26 1_555 1_555
C31 C32 1_555 1_555
C34 N2 1_555 1_555
C39 C40 1_555 1_555

#END
