
#######################################################################
#
#                 Cambridge Crystallographic Data Centre
#                                CCDC 
#
#######################################################################
#
# If this CIF has been generated from an entry in the Cambridge 
# Structural Database, then it will include bibliographic, chemical, 
# crystal, experimental, refinement or atomic coordinate data resulting 
# from the CCDC's data processing and validation procedures.
#
#######################################################################

data_AVODOG
_chemical_formula_moiety         'C27 H34 N2 O9'
_chemical_name_systematic        
'Dibenzyl 1-((R)-1-hydroxy-3-((3aR,5R,6S,6aR)-6-methoxy-2,2-dimethyltetrahydrofuro[2,3-d][1,3]dioxol-5-yl)propan-2-yl)hydrazine-1,2-dicarboxylate'
_symmetry_cell_setting           orthorhombic
_symmetry_space_group_name_H-M   'P 21 21 21'
_symmetry_Int_Tables_number      19
_space_group_name_Hall           'P 2ac 2ab'
loop_
_symmetry_equiv_pos_site_id
_symmetry_equiv_pos_as_xyz
1 x,y,z
2 1/2-x,-y,1/2+z
3 -x,1/2+y,1/2-z
4 1/2+x,1/2-y,-z
_cell_length_a                   11.105(3)
_cell_length_b                   11.175(3)
_cell_length_c                   23.028(6)
_cell_angle_alpha                90
_cell_angle_beta                 90
_cell_angle_gamma                90
_cell_volume                     2857.74
_exptl_crystal_colour            colorless
_exptl_crystal_description       Rectangular
_chemical_melting_point          '138 deg.C'
_cell_formula_units_Z            4
loop_
_atom_site_label
_atom_site_type_symbol
_atom_site_fract_x
_atom_site_fract_y
_atom_site_fract_z
O1 O 0.8619(2) 0.0706(3) 0.85064(11)
O2 O 0.8055(3) 0.1463(4) 0.76122(15)
O3 O 0.6144(3) 0.1018(3) 0.78508(13)
O4 O 0.7047(3) -0.1177(3) 0.89197(13)
O5 O 1.0382(3) 0.2286(3) 1.04879(13)
H1 H 1.0072 0.2970 1.0509
O6 O 0.8401(3) 0.4416(3) 0.89610(15)
O7 O 0.9915(3) 0.3097(3) 0.88390(13)
O8 O 0.8878(3) 0.4324(3) 1.05470(14)
O9 O 0.6832(3) 0.4336(3) 1.05832(13)
N1 N 0.7723(3) 0.3249(3) 0.99207(14)
H2 H 0.6994 0.2992 0.9839
N2 N 0.8696(3) 0.2874(3) 0.95967(14)
C1 C 0.7642(4) 0.0864(4) 0.89084(16)
H3 H 0.7304 0.1688 0.8860
C2 C 0.6711(4) -0.0039(4) 0.87136(17)
H4 H 0.5883 0.0187 0.8846
C3 C 0.6834(4) 0.0042(4) 0.80549(18)
H5 H 0.6640 -0.0727 0.7853
C4 C 0.8134(4) 0.0442(4) 0.79637(18)
H6 H 0.8612 -0.0199 0.7767
C5 C 0.6853(5) 0.1672(5) 0.7442(2)
C6 C 0.6576(6) 0.2970(6) 0.7509(3)
H7 H 0.5741 0.3121 0.7391
H8 H 0.6683 0.3204 0.7916
H9 H 0.7121 0.3439 0.7264
C7 C 0.6650(5) 0.1221(6) 0.6835(2)
H10 H 0.5812 0.1371 0.6721
H11 H 0.7191 0.1640 0.6567
H12 H 0.6813 0.0360 0.6820
C8 C 0.6115(6) -0.2055(5) 0.8876(3)
H13 H 0.6409 -0.2821 0.9027
H14 H 0.5416 -0.1796 0.9104
H15 H 0.5880 -0.2149 0.8469
C9 C 0.8120(4) 0.0732(4) 0.95211(16)
H16 H 0.8449 -0.0086 0.9567
H17 H 0.7441 0.0819 0.9796
C10 C 0.9099(4) 0.1634(4) 0.96842(16)
H18 H 0.9809 0.1491 0.9426
C11 C 0.9501(4) 0.1453(4) 1.03067(17)
H19 H 0.8791 0.1519 1.0565
H20 H 0.9830 0.0634 1.0348
C12 C 0.8962(4) 0.3543(4) 0.91085(19)
C13 C 1.0185(5) 0.3587(5) 0.8273(2)
H21 H 1.0427 0.4437 0.8307
H22 H 0.9472 0.3534 0.8017
C14 C 1.1202(4) 0.2850(4) 0.80345(19)
C15 C 1.1046(5) 0.2131(5) 0.7554(2)
H23 H 1.0287 0.2100 0.7364
C16 C 1.2007(6) 0.1453(5) 0.7348(2)
H24 H 1.1901 0.0956 0.7017
C17 C 1.3100(6) 0.1495(6) 0.7618(3)
H25 H 1.3752 0.1029 0.7476
C18 C 1.3250(5) 0.2206(6) 0.8089(3)
H26 H 1.4010 0.2235 0.8278
C19 C 1.2314(5) 0.2882(5) 0.8295(2)
H27 H 1.2437 0.3382 0.8623
C20 C 0.7903(4) 0.4017(4) 1.03652(18)
C21 C 0.6806(5) 0.5135(4) 1.10805(18)
H28 H 0.7613 0.5169 1.1262
H29 H 0.6227 0.4833 1.1373
C22 C 0.6438(4) 0.6362(4) 1.08845(17)
C23 C 0.5351(5) 0.6813(5) 1.1045(2)
H30 H 0.4830 0.6359 1.1288
C24 C 0.4998(7) 0.7963(7) 1.0849(3)
H31 H 0.4239 0.8289 1.0956
C25 C 0.5770(10) 0.8596(6) 1.0502(3)
H32 H 0.5556 0.9373 1.0369
C26 C 0.6826(9) 0.8116(6) 1.0350(3)
H33 H 0.7348 0.8558 1.0103
C27 C 0.7181(6) 0.7011(5) 1.0537(2)
H34 H 0.7942 0.6699 1.0425
loop_
_geom_bond_atom_site_label_1
_geom_bond_atom_site_label_2
_geom_bond_site_symmetry_1
_geom_bond_site_symmetry_2
O1 C1 1_555 1_555
O2 C4 1_555 1_555
O3 C3 1_555 1_555
O4 C2 1_555 1_555
O5 H1 1_555 1_555
O6 C12 1_555 1_555
O7 C12 1_555 1_555
O8 C20 1_555 1_555
O9 C20 1_555 1_555
N1 H2 1_555 1_555
N2 N1 1_555 1_555
C1 H3 1_555 1_555
C2 C1 1_555 1_555
H4 C2 1_555 1_555
C3 C2 1_555 1_555
H5 C3 1_555 1_555
C4 O1 1_555 1_555
H6 C4 1_555 1_555
C5 O2 1_555 1_555
C6 C5 1_555 1_555
H7 C6 1_555 1_555
H8 C6 1_555 1_555
H9 C6 1_555 1_555
C7 C5 1_555 1_555
H10 C7 1_555 1_555
H11 C7 1_555 1_555
H12 C7 1_555 1_555
C8 O4 1_555 1_555
H13 C8 1_555 1_555
H14 C8 1_555 1_555
H15 C8 1_555 1_555
C9 C1 1_555 1_555
H16 C9 1_555 1_555
H17 C9 1_555 1_555
C10 N2 1_555 1_555
H18 C10 1_555 1_555
C11 O5 1_555 1_555
H19 C11 1_555 1_555
H20 C11 1_555 1_555
C12 N2 1_555 1_555
C13 O7 1_555 1_555
H21 C13 1_555 1_555
H22 C13 1_555 1_555
C14 C13 1_555 1_555
C15 C14 1_555 1_555
H23 C15 1_555 1_555
C16 C15 1_555 1_555
H24 C16 1_555 1_555
C17 C16 1_555 1_555
H25 C17 1_555 1_555
C18 C17 1_555 1_555
H26 C18 1_555 1_555
C19 C14 1_555 1_555
H27 C19 1_555 1_555
C20 N1 1_555 1_555
C21 O9 1_555 1_555
H28 C21 1_555 1_555
H29 C21 1_555 1_555
C22 C21 1_555 1_555
C23 C22 1_555 1_555
H30 C23 1_555 1_555
C24 C23 1_555 1_555
H31 C24 1_555 1_555
C25 C24 1_555 1_555
H32 C25 1_555 1_555
C26 C25 1_555 1_555
H33 C26 1_555 1_555
C27 C22 1_555 1_555
H34 C27 1_555 1_555
O3 C5 1_555 1_555
C3 C4 1_555 1_555
C9 C10 1_555 1_555
C10 C11 1_555 1_555
C18 C19 1_555 1_555
C26 C27 1_555 1_555

#END
