
#######################################################################
#
#                 Cambridge Crystallographic Data Centre
#                                CCDC 
#
#######################################################################
#
# If this CIF has been generated from an entry in the Cambridge 
# Structural Database, then it will include bibliographic, chemical, 
# crystal, experimental, refinement or atomic coordinate data resulting 
# from the CCDC's data processing and validation procedures.
#
#######################################################################

data_AVOPAD
_chemical_formula_moiety         'C100 H106 Li2 O6,2(C7 H8)'
_chemical_name_systematic        
"bis(\m~2~-2,2'-(Oxybis(methylene))bis(4,6-bis(2-phenylpropan-2-yl)phenol))-di-lithium toluene solvate"
_symmetry_cell_setting           triclinic
_symmetry_space_group_name_H-M   'P -1'
_symmetry_Int_Tables_number      2
_space_group_name_Hall           '-P 1'
loop_
_symmetry_equiv_pos_site_id
_symmetry_equiv_pos_as_xyz
1 x,y,z
2 -x,-y,-z
_cell_length_a                   13.2853(8)
_cell_length_b                   13.4469(8)
_cell_length_c                   16.6010(10)
_cell_angle_alpha                102.9710(10)
_cell_angle_beta                 99.7840(10)
_cell_angle_gamma                118.8160(10)
_cell_volume                     2394.06
_exptl_crystal_colour            colorless
_exptl_crystal_description       block
_cell_formula_units_Z            1
loop_
_atom_site_label
_atom_site_type_symbol
_atom_site_fract_x
_atom_site_fract_y
_atom_site_fract_z
Li1 Li 0.5849(3) 0.5386(3) 0.5659(2)
O1 O 0.56062(12) 0.47294(13) 0.44389(9)
O2 O 0.61011(12) 0.42007(12) 0.60359(8)
O3 O 0.75297(14) 0.68296(14) 0.65689(9)
H1 H 0.7869 0.7549 0.6625
C1 C 0.62478(17) 0.42712(17) 0.42242(12)
C2 C 0.68691(18) 0.45565(18) 0.36056(12)
C3 C 0.75267(19) 0.4032(2) 0.34296(14)
H2 H 0.7928 0.4216 0.3025
C4 C 0.7628(2) 0.3254(2) 0.38143(14)
C5 C 0.70326(19) 0.29977(19) 0.44198(13)
H3 H 0.7085 0.2485 0.4695
C6 C 0.63595(18) 0.34913(17) 0.46254(12)
C7 C 0.56825(19) 0.31656(18) 0.52615(13)
H4 H 0.4825 0.2800 0.4969
H5 H 0.5773 0.2565 0.5438
C8 C 0.73110(19) 0.4687(2) 0.65795(13)
H6 H 0.7885 0.5031 0.6278
H7 H 0.7370 0.4049 0.6717
C9 C 0.75958(18) 0.56524(18) 0.74044(13)
C10 C 0.7737(2) 0.5468(2) 0.81930(14)
H8 H 0.7662 0.4747 0.8205
C11 C 0.7989(2) 0.6338(2) 0.89693(14)
C12 C 0.8075(2) 0.7385(2) 0.89235(15)
H9 H 0.8239 0.7969 0.9438
C13 C 0.79287(19) 0.76199(19) 0.81483(14)
C14 C 0.77039(18) 0.67275(18) 0.73898(13)
C15 C 0.6739(2) 0.5351(2) 0.31257(14)
C16 C 0.5426(2) 0.4667(3) 0.25234(16)
H10 H 0.4888 0.4463 0.2863
H11 H 0.5241 0.3937 0.2097
H12 H 0.5326 0.5170 0.2232
C17 C 0.7560(3) 0.5641(3) 0.25414(19)
H13 H 0.8395 0.6074 0.2899
H14 H 0.7440 0.6132 0.2245
H15 H 0.7352 0.4898 0.2118
C18 C 0.7142(2) 0.65959(19) 0.37719(14)
C19 C 0.6569(2) 0.7196(2) 0.36433(19)
H16 H 0.5855 0.6807 0.3175
C20 C 0.7027(3) 0.8369(3) 0.4194(3)
H17 H 0.6625 0.8758 0.4090
C21 C 0.8070(4) 0.8950(3) 0.4889(2)
H18 H 0.8381 0.9734 0.5261
C22 C 0.8642(3) 0.8379(3) 0.5030(2)
H19 H 0.9352 0.8775 0.5502
C23 C 0.8196(3) 0.7215(2) 0.44878(18)
H20 H 0.8607 0.6839 0.4603
C24 C 0.8384(2) 0.2725(2) 0.35568(17)
C25 C 0.8198(3) 0.1709(3) 0.3901(2)
H21 H 0.8694 0.1420 0.3736
H22 H 0.7359 0.1054 0.3657
H23 H 0.8423 0.2012 0.4527
C26 C 0.9742(3) 0.3754(3) 0.3962(3)
H24 H 1.0228 0.3440 0.3817
H25 H 0.9950 0.4070 0.4586
H26 H 0.9893 0.4391 0.3735
C27 C 0.7987(3) 0.2192(2) 0.25612(17)
C28 C 0.8782(4) 0.2486(4) 0.2087(3)
H27 H 0.9604 0.3071 0.2371
C29 C 0.8351(7) 0.1905(7) 0.1184(4)
H28 H 0.8896 0.2097 0.0873
C30 C 0.7167(9) 0.1075(8) 0.0753(3)
H29 H 0.6905 0.0708 0.0148
C31 C 0.6338(5) 0.0759(4) 0.1187(3)
H30 H 0.5518 0.0177 0.0890
C32 C 0.6766(3) 0.1342(3) 0.2093(2)
H31 H 0.6210 0.1152 0.2395
C33 C 0.8193(3) 0.6098(3) 0.98271(16)
C34 C 0.8348(4) 0.7082(3) 1.06014(18)
H32 H 0.7623 0.7097 1.0502
H33 H 0.9025 0.7857 1.0664
H34 H 0.8493 0.6911 1.1125
C35 C 0.9373(3) 0.6108(5) 1.0012(3)
H35 H 1.0038 0.6881 1.0059
H36 H 0.9291 0.5479 0.9542
H37 H 0.9527 0.5969 1.0549
C36 C 0.7099(3) 0.4873(2) 0.97483(16)
C37 C 0.7213(5) 0.4110(4) 1.0125(3)
H38 H 0.7983 0.4303 1.0415
C38 C 0.6174(7) 0.3031(5) 1.0080(4)
H39 H 0.6255 0.2519 1.0342
C39 C 0.5042(7) 0.2751(5) 0.9643(4)
H40 H 0.4353 0.2047 0.9612
C40 C 0.4924(5) 0.3475(4) 0.9264(3)
H41 H 0.4157 0.3268 0.8954
C41 C 0.5948(3) 0.4540(3) 0.9333(2)
H42 H 0.5847 0.5054 0.9085
C42 C 0.8020(2) 0.8798(2) 0.81170(17)
C43 C 0.8312(3) 0.9659(3) 0.9034(2)
H43 H 0.8366 1.0382 0.8991
H44 H 0.9072 0.9869 0.9411
H45 H 0.7679 0.9260 0.9271
C44 C 0.6789(3) 0.8485(3) 0.7541(3)
H46 H 0.6579 0.7947 0.6963
H47 H 0.6853 0.9216 0.7509
H48 H 0.6171 0.8095 0.7792
C45 C 0.9092(2) 0.95037(19) 0.78024(15)
C46 C 0.9089(3) 1.0212(2) 0.73088(19)
H49 H 0.8393 1.0220 0.7123
C47 C 1.0082(4) 1.0893(3) 0.7091(2)
H50 H 1.0057 1.1367 0.6767
C48 C 1.1116(4) 1.0890(3) 0.7343(3)
H51 H 1.1786 1.1350 0.7185
C49 C 1.1152(3) 1.0209(3) 0.7826(3)
H52 H 1.1849 1.0195 0.7997
C50 C 1.0142(2) 0.9524(2) 0.8068(2)
H53 H 1.0182 0.9078 0.8412
Li1A Li 0.4151(3) 0.4614(3) 0.4341(2)
O1A O 0.43938(12) 0.52706(13) 0.55611(9)
O2A O 0.38989(12) 0.57993(12) 0.39641(8)
O3A O 0.24703(14) 0.31704(14) 0.34311(9)
H1A H 0.2131 0.2451 0.3375
C1A C 0.37522(17) 0.57288(17) 0.57758(12)
C2A C 0.31309(18) 0.54435(18) 0.63944(12)
C3A C 0.24733(19) 0.5968(2) 0.65704(14)
H2A H 0.2072 0.5784 0.6975
C4A C 0.2372(2) 0.6746(2) 0.61857(14)
C5A C 0.29674(19) 0.70023(19) 0.55802(13)
H3A H 0.2915 0.7515 0.5305
C6A C 0.36405(18) 0.65087(17) 0.53746(12)
C7A C 0.43175(19) 0.68344(18) 0.47385(13)
H4A H 0.5175 0.7200 0.5031
H5A H 0.4227 0.7435 0.4562
C8A C 0.26890(19) 0.5313(2) 0.34205(13)
H6A H 0.2115 0.4969 0.3722
H7A H 0.2630 0.5951 0.3283
C9A C 0.24042(18) 0.43476(18) 0.25956(13)
C10A C 0.2263(2) 0.4532(2) 0.18070(14)
H8A H 0.2338 0.5253 0.1795
C11A C 0.2011(2) 0.3662(2) 0.10307(14)
C12A C 0.1925(2) 0.2615(2) 0.10765(15)
H9A H 0.1761 0.2031 0.0562
C13A C 0.20713(19) 0.23801(19) 0.18517(14)
C14A C 0.22961(18) 0.32725(18) 0.26102(13)
C15A C 0.3261(2) 0.4649(2) 0.68743(14)
C16A C 0.4574(2) 0.5333(3) 0.74766(16)
H10A H 0.5112 0.5537 0.7137
H11A H 0.4759 0.6063 0.7903
H12A H 0.4674 0.4830 0.7768
C17A C 0.2440(3) 0.4359(3) 0.74586(19)
H13A H 0.1605 0.3926 0.7101
H14A H 0.2560 0.3868 0.7755
H15A H 0.2648 0.5102 0.7882
C18A C 0.2858(2) 0.34041(19) 0.62281(14)
C19A C 0.3431(2) 0.2804(2) 0.63567(19)
H16A H 0.4145 0.3193 0.6825
C20A C 0.2973(3) 0.1631(3) 0.5806(3)
H17A H 0.3375 0.1242 0.5910
C21A C 0.1930(4) 0.1050(3) 0.5111(2)
H18A H 0.1619 0.0266 0.4739
C22A C 0.1358(3) 0.1621(3) 0.4970(2)
H19A H 0.0648 0.1225 0.4498
C23A C 0.1804(3) 0.2785(2) 0.55122(18)
H20A H 0.1393 0.3161 0.5397
C24A C 0.1616(2) 0.7275(2) 0.64432(17)
C25A C 0.1802(3) 0.8291(3) 0.6099(2)
H21A H 0.1306 0.8580 0.6264
H22A H 0.2641 0.8946 0.6343
H23A H 0.1577 0.7988 0.5473
C26A C 0.0258(3) 0.6246(3) 0.6038(3)
H24A H -0.0228 0.6560 0.6183
H25A H 0.0050 0.5930 0.5414
H26A H 0.0107 0.5609 0.6265
C27A C 0.2013(3) 0.7808(2) 0.74388(17)
C28A C 0.1218(4) 0.7514(4) 0.7913(3)
H27A H 0.0396 0.6929 0.7629
C29A C 0.1649(7) 0.8095(7) 0.8816(4)
H28A H 0.1104 0.7903 0.9127
C30A C 0.2833(9) 0.8925(8) 0.9247(3)
H29A H 0.3095 0.9292 0.9852
C31A C 0.3662(5) 0.9241(4) 0.8813(3)
H30A H 0.4482 0.9823 0.9110
C32A C 0.3234(3) 0.8658(3) 0.7907(2)
H31A H 0.3790 0.8848 0.7605
C33A C 0.1807(3) 0.3902(3) 0.01729(16)
C34A C 0.1652(4) 0.2918(3) -0.06014(18)
H32A H 0.2377 0.2903 -0.0502
H33A H 0.0975 0.2143 -0.0664
H34A H 0.1507 0.3089 -0.1125
C35A C 0.0627(3) 0.3892(5) -0.0012(3)
H35A H -0.0038 0.3119 -0.0059
H36A H 0.0709 0.4521 0.0458
H37A H 0.0473 0.4031 -0.0549
C36A C 0.2901(3) 0.5127(2) 0.02517(16)
C37A C 0.2787(5) 0.5890(4) -0.0125(3)
H38A H 0.2017 0.5697 -0.0415
C38A C 0.3826(7) 0.6969(5) -0.0080(4)
H39A H 0.3745 0.7481 -0.0342
C39A C 0.4958(7) 0.7249(5) 0.0357(4)
H40A H 0.5647 0.7953 0.0388
C40A C 0.5076(5) 0.6525(4) 0.0736(3)
H41A H 0.5843 0.6732 0.1046
C41A C 0.4052(3) 0.5460(3) 0.0667(2)
H42A H 0.4153 0.4946 0.0915
C42A C 0.1980(2) 0.1202(2) 0.18830(17)
C43A C 0.1688(3) 0.0341(3) 0.0966(2)
H43A H 0.1634 -0.0382 0.1009
H44A H 0.0928 0.0131 0.0589
H45A H 0.2321 0.0740 0.0729
C44A C 0.3211(3) 0.1515(3) 0.2459(3)
H46A H 0.3421 0.2053 0.3037
H47A H 0.3147 0.0784 0.2491
H48A H 0.3829 0.1905 0.2208
C45A C 0.0908(2) 0.04963(19) 0.21976(15)
C46A C 0.0911(3) -0.0212(2) 0.26912(19)
H49A H 0.1607 -0.0220 0.2877
C47A C -0.0082(4) -0.0893(3) 0.2909(2)
H50A H -0.0057 -0.1367 0.3233
C48A C -0.1116(4) -0.0890(3) 0.2657(3)
H51A H -0.1786 -0.1350 0.2815
C49A C -0.1152(3) -0.0209(3) 0.2174(3)
H52A H -0.1849 -0.0195 0.2003
C50A C -0.0142(2) 0.0476(2) 0.1932(2)
H53A H -0.0182 0.0922 0.1588
C51 C 0.9100(8) 1.3371(8) 0.7460(5)
C52 C 0.8012(7) 1.2413(6) 0.7153(5)
C53 C 0.7491(6) 1.1530(6) 0.6234(4)
C54 C 0.6410(11) 1.0569(12) 0.5971(9)
C55 C 0.5755(10) 1.0491(10) 0.6570(7)
C56 C 0.6104(13) 1.1279(12) 0.7529(9)
C57 C 0.7129(8) 1.1999(7) 0.7610(5)
C58? C 0.6631(13) 1.1045(12) 0.6497(10)
C59? C 0.8001(10) 1.2655(9) 0.7830(6)
C60? C 0.8517(11) 1.2398(11) 0.6538(8)
loop_
_geom_bond_atom_site_label_1
_geom_bond_atom_site_label_2
_geom_bond_site_symmetry_1
_geom_bond_site_symmetry_2
Li1 O1 1_555 1_555
O1 C1 1_555 1_555
O2 Li1 1_555 1_555
O3 Li1 1_555 1_555
H1 O3 1_555 1_555
C1 C2 1_555 1_555
C2 C3 1_555 1_555
C3 H2 1_555 1_555
C4 C3 1_555 1_555
C5 C4 1_555 1_555
H3 C5 1_555 1_555
C6 C1 1_555 1_555
C7 O2 1_555 1_555
H4 C7 1_555 1_555
H5 C7 1_555 1_555
C8 O2 1_555 1_555
H6 C8 1_555 1_555
H7 C8 1_555 1_555
C9 C8 1_555 1_555
C10 C9 1_555 1_555
H8 C10 1_555 1_555
C11 C10 1_555 1_555
C12 C11 1_555 1_555
H9 C12 1_555 1_555
C13 C12 1_555 1_555
C14 O3 1_555 1_555
C15 C2 1_555 1_555
C16 C15 1_555 1_555
H10 C16 1_555 1_555
H11 C16 1_555 1_555
H12 C16 1_555 1_555
C17 C15 1_555 1_555
H13 C17 1_555 1_555
H14 C17 1_555 1_555
H15 C17 1_555 1_555
C18 C15 1_555 1_555
C19 C18 1_555 1_555
H16 C19 1_555 1_555
C20 C19 1_555 1_555
H17 C20 1_555 1_555
C21 C20 1_555 1_555
H18 C21 1_555 1_555
C22 C21 1_555 1_555
H19 C22 1_555 1_555
C23 C18 1_555 1_555
H20 C23 1_555 1_555
C24 C4 1_555 1_555
C25 C24 1_555 1_555
H21 C25 1_555 1_555
H22 C25 1_555 1_555
H23 C25 1_555 1_555
C26 C24 1_555 1_555
H24 C26 1_555 1_555
H25 C26 1_555 1_555
H26 C26 1_555 1_555
C27 C24 1_555 1_555
C28 C27 1_555 1_555
H27 C28 1_555 1_555
C29 C28 1_555 1_555
H28 C29 1_555 1_555
C30 C29 1_555 1_555
H29 C30 1_555 1_555
C31 C30 1_555 1_555
H30 C31 1_555 1_555
C32 C27 1_555 1_555
H31 C32 1_555 1_555
C33 C11 1_555 1_555
C34 C33 1_555 1_555
H32 C34 1_555 1_555
H33 C34 1_555 1_555
H34 C34 1_555 1_555
C35 C33 1_555 1_555
H35 C35 1_555 1_555
H36 C35 1_555 1_555
H37 C35 1_555 1_555
C36 C33 1_555 1_555
C37 C36 1_555 1_555
H38 C37 1_555 1_555
C38 C37 1_555 1_555
H39 C38 1_555 1_555
C39 C38 1_555 1_555
H40 C39 1_555 1_555
C40 C39 1_555 1_555
H41 C40 1_555 1_555
C41 C36 1_555 1_555
H42 C41 1_555 1_555
C42 C13 1_555 1_555
C43 C42 1_555 1_555
H43 C43 1_555 1_555
H44 C43 1_555 1_555
H45 C43 1_555 1_555
C44 C42 1_555 1_555
H46 C44 1_555 1_555
H47 C44 1_555 1_555
H48 C44 1_555 1_555
C45 C42 1_555 1_555
C46 C45 1_555 1_555
H49 C46 1_555 1_555
C47 C46 1_555 1_555
H50 C47 1_555 1_555
C48 C47 1_555 1_555
H51 C48 1_555 1_555
C49 C48 1_555 1_555
H52 C49 1_555 1_555
C50 C45 1_555 1_555
H53 C50 1_555 1_555
C51 C52 1_555 1_555
C52 C53 1_555 1_555
C53 C54 1_555 1_555
C54 C55 1_555 1_555
C55 C56 1_555 1_555
C56 C57 1_555 1_555
C57 C52 1_555 1_555
Li1A O1 1_555 1_555
O1A Li1 1_555 1_555
O2A Li1A 1_555 1_555
O3A Li1A 1_555 1_555
H1A O3A 1_555 1_555
C1A O1A 1_555 1_555
C2A C1A 1_555 1_555
C3A C2A 1_555 1_555
H2A C3A 1_555 1_555
C4A C3A 1_555 1_555
C5A C4A 1_555 1_555
H3A C5A 1_555 1_555
C6A C1A 1_555 1_555
C7A O2A 1_555 1_555
H4A C7A 1_555 1_555
H5A C7A 1_555 1_555
C8A O2A 1_555 1_555
H6A C8A 1_555 1_555
H7A C8A 1_555 1_555
C9A C8A 1_555 1_555
C10A C9A 1_555 1_555
H8A C10A 1_555 1_555
C11A C10A 1_555 1_555
C12A C11A 1_555 1_555
H9A C12A 1_555 1_555
C13A C12A 1_555 1_555
C14A O3A 1_555 1_555
C15A C2A 1_555 1_555
C16A C15A 1_555 1_555
H10A C16A 1_555 1_555
H11A C16A 1_555 1_555
H12A C16A 1_555 1_555
C17A C15A 1_555 1_555
H13A C17A 1_555 1_555
H14A C17A 1_555 1_555
H15A C17A 1_555 1_555
C18A C15A 1_555 1_555
C19A C18A 1_555 1_555
H16A C19A 1_555 1_555
C20A C19A 1_555 1_555
H17A C20A 1_555 1_555
C21A C20A 1_555 1_555
H18A C21A 1_555 1_555
C22A C21A 1_555 1_555
H19A C22A 1_555 1_555
C23A C18A 1_555 1_555
H20A C23A 1_555 1_555
C24A C4A 1_555 1_555
C25A C24A 1_555 1_555
H21A C25A 1_555 1_555
H22A C25A 1_555 1_555
H23A C25A 1_555 1_555
C26A C24A 1_555 1_555
H24A C26A 1_555 1_555
H25A C26A 1_555 1_555
H26A C26A 1_555 1_555
C27A C24A 1_555 1_555
C28A C27A 1_555 1_555
H27A C28A 1_555 1_555
C29A C28A 1_555 1_555
H28A C29A 1_555 1_555
C30A C29A 1_555 1_555
H29A C30A 1_555 1_555
C31A C30A 1_555 1_555
H30A C31A 1_555 1_555
C32A C27A 1_555 1_555
H31A C32A 1_555 1_555
C33A C11A 1_555 1_555
C34A C33A 1_555 1_555
H32A C34A 1_555 1_555
H33A C34A 1_555 1_555
H34A C34A 1_555 1_555
C35A C33A 1_555 1_555
H35A C35A 1_555 1_555
H36A C35A 1_555 1_555
H37A C35A 1_555 1_555
C36A C33A 1_555 1_555
C37A C36A 1_555 1_555
H38A C37A 1_555 1_555
C38A C37A 1_555 1_555
H39A C38A 1_555 1_555
C39A C38A 1_555 1_555
H40A C39A 1_555 1_555
C40A C39A 1_555 1_555
H41A C40A 1_555 1_555
C41A C36A 1_555 1_555
H42A C41A 1_555 1_555
C42A C13A 1_555 1_555
C43A C42A 1_555 1_555
H43A C43A 1_555 1_555
H44A C43A 1_555 1_555
H45A C43A 1_555 1_555
C44A C42A 1_555 1_555
H46A C44A 1_555 1_555
H47A C44A 1_555 1_555
H48A C44A 1_555 1_555
C45A C42A 1_555 1_555
C46A C45A 1_555 1_555
H49A C46A 1_555 1_555
C47A C46A 1_555 1_555
H50A C47A 1_555 1_555
C48A C47A 1_555 1_555
H51A C48A 1_555 1_555
C49A C48A 1_555 1_555
H52A C49A 1_555 1_555
C50A C45A 1_555 1_555
H53A C50A 1_555 1_555
C5 C6 1_555 1_555
C6 C7 1_555 1_555
C9 C14 1_555 1_555
C13 C14 1_555 1_555
C22 C23 1_555 1_555
C31 C32 1_555 1_555
C40 C41 1_555 1_555
C49 C50 1_555 1_555
Li1A O1A 1_555 1_555
C5A C6A 1_555 1_555
C6A C7A 1_555 1_555
C9A C14A 1_555 1_555
C13A C14A 1_555 1_555
C22A C23A 1_555 1_555
C31A C32A 1_555 1_555
C40A C41A 1_555 1_555
C49A C50A 1_555 1_555

#END
