
#######################################################################
#
#                 Cambridge Crystallographic Data Centre
#                                CCDC 
#
#######################################################################
#
# If this CIF has been generated from an entry in the Cambridge 
# Structural Database, then it will include bibliographic, chemical, 
# crystal, experimental, refinement or atomic coordinate data resulting 
# from the CCDC's data processing and validation procedures.
#
#######################################################################

data_AVOPIL
_chemical_formula_moiety         'C62 H76 Li2 O6,C4 H8 O1,0.5(C7 H8)'
_chemical_name_systematic        
"(\m~2~-2,2'-(Oxybis(methylene))bis(4,6-bis(2-phenylpropan-2-yl)phenol))-tritetrahydrofuran-di-lithium tetrahydrofuran unknown solvate"
_symmetry_cell_setting           orthorhombic
_symmetry_space_group_name_H-M   'C m c 21'
_symmetry_Int_Tables_number      36
_space_group_name_Hall           'C 2n -2'
loop_
_symmetry_equiv_pos_site_id
_symmetry_equiv_pos_as_xyz
1 x,y,z
2 -x,-y,1/2+z
3 x,-y,1/2+z
4 -x,y,z
5 1/2+x,1/2+y,z
6 1/2-x,1/2-y,1/2+z
7 1/2+x,1/2-y,1/2+z
8 1/2-x,1/2+y,z
_cell_length_a                   17.0504(11)
_cell_length_b                   24.7463(17)
_cell_length_c                   15.1602(9)
_cell_angle_alpha                90
_cell_angle_beta                 90
_cell_angle_gamma                90
_cell_volume                     6396.61
_exptl_crystal_colour            colorless
_exptl_crystal_description       block
_cell_formula_units_Z            4
loop_
_atom_site_label
_atom_site_type_symbol
_atom_site_fract_x
_atom_site_fract_y
_atom_site_fract_z
C1 C 0.0000 0.4225(9) 0.735(2)
C35 C 0.0425(8) 0.3970(8) 0.8214(11)
C36 C 0.0407(7) 0.3623(7) 0.7367(13)
C35C C -0.0425(8) 0.3970(8) 0.8214(11)
C36C C -0.0407(7) 0.3623(7) 0.7367(13)
C37 C 0.5000 0.103(2) 0.8357(12)
C38 C 0.5000 0.1545(9) 0.886(2)
C39 C 0.5000 0.1376(7) 0.9581(19)
C40 C 0.4576(11) 0.0781(9) 0.906(2)
O6 O 0.5000 0.0891(14) 0.9833(13)
C40C C 0.5424(11) 0.0781(9) 0.906(2)
Li1 Li 0.0000 0.1431(2) 0.7548(3)
Li2 Li 0.0000 0.1238(2) 0.9160(3)
O1 O 0.08633(8) 0.13490(6) 0.83612(10)
O2 O 0.0000 0.06798(7) 0.70827(13)
O3 O 0.0000 0.16662(14) 1.02730(19)
O4 O 0.0000 0.19129(12) 0.65460(18)
O5 O 0.0000 0.04987(11) 0.96486(18)
C2 C 0.14511(11) 0.12281(8) 0.78407(12)
C3 C 0.21535(12) 0.15369(8) 0.77972(14)
C4 C 0.27140(13) 0.13996(9) 0.71632(15)
H1 H 0.3165 0.1610 0.7129
C5 C 0.26394(12) 0.09667(10) 0.65778(14)
C6 C 0.19708(12) 0.06542(9) 0.66591(14)
H2 H 0.1906 0.0358 0.6289
C7 C 0.13950(11) 0.07696(8) 0.72763(12)
C8 C 0.06985(11) 0.04074(8) 0.73748(14)
H3 H 0.0776 0.0082 0.7029
H4 H 0.0641 0.0303 0.7988
C9 C 0.22777(14) 0.20146(9) 0.84263(15)
C10 C 0.30707(16) 0.23043(11) 0.82471(18)
H5 H 0.3129 0.2602 0.8648
H6 H 0.3079 0.2436 0.7652
H7 H 0.3494 0.2054 0.8331
C11 C 0.16273(17) 0.24362(10) 0.82915(19)
H8 H 0.1126 0.2273 0.8405
H9 H 0.1643 0.2566 0.7695
H10 H 0.1706 0.2732 0.8691
C12 C 0.23187(13) 0.18317(10) 0.93922(15)
C13 C 0.2366(2) 0.22187(15) 1.0059(2)
H11 H 0.2327 0.2582 0.9908
C14 C 0.2467(3) 0.2087(2) 1.0913(2)
H12 H 0.2506 0.2358 1.1335
C15 C 0.2511(3) 0.1558(2) 1.1165(2)
H13 H 0.2574 0.1466 1.1756
C16 C 0.2462(2) 0.11659(17) 1.0534(2)
H14 H 0.2486 0.0804 1.0696
C17 C 0.23771(19) 0.13032(12) 0.96504(19)
H15 H 0.2360 0.1031 0.9227
C18 C 0.32734(13) 0.08179(12) 0.59026(17)
C19 C 0.38862(17) 0.12698(15) 0.5779(2)
H16 H 0.3632 0.1589 0.5562
H17 H 0.4277 0.1154 0.5364
H18 H 0.4131 0.1347 0.6335
C20 C 0.37020(17) 0.03162(15) 0.6244(2)
H19 H 0.3332 0.0029 0.6331
H20 H 0.3954 0.0399 0.6794
H21 H 0.4089 0.0206 0.5821
C21 C 0.28953(14) 0.07147(10) 0.49971(15)
C22 C 0.30036(18) 0.02440(12) 0.4510(2)
H22 H 0.3301 -0.0036 0.4747
C23 C 0.2678(2) 0.01838(14) 0.3679(2)
H23 H 0.2756 -0.0136 0.3369
C24 C 0.2246(2) 0.05856(15) 0.3313(2)
H24 H 0.2038 0.0545 0.2750
C25 C 0.2122(2) 0.10501(14) 0.3779(2)
H25 H 0.1825 0.1327 0.3531
C26 C 0.24302(16) 0.11128(11) 0.46131(19)
H26 H 0.2325 0.1428 0.4926
C27 C 0.0000 0.2238(3) 1.0340(6)
C28 C 0.0000 0.2368(4) 1.1321(5)
C29 C 0.0000 0.1869(4) 1.1759(5)
C30 C 0.0000 0.1413(3) 1.1128(4)
C31 C 0.0657(2) 0.2025(2) 0.6015(3)
H27 H 0.1038 0.1736 0.6073
H28 H 0.0902 0.2358 0.6209
C32 C 0.0427(3) 0.2075(3) 0.5114(3)
H29 H 0.0627 0.2409 0.4865
H30 H 0.0627 0.1774 0.4770
C33 C 0.06718(17) 0.01919(13) 0.9886(2)
H31 H 0.0825 0.0267 1.0490
H32 H 0.1109 0.0275 0.9500
C34 C 0.0434(2) -0.03827(14) 0.9788(3)
H33 H 0.0634 -0.0597 1.0274
H34 H 0.0634 -0.0531 0.9239
O1C O -0.08633(8) 0.13490(6) 0.83612(10)
C2C C -0.14511(11) 0.12281(8) 0.78407(12)
C3C C -0.21535(12) 0.15369(8) 0.77972(14)
C4C C -0.27140(13) 0.13996(9) 0.71632(15)
H1C H -0.3165 0.1610 0.7129
C5C C -0.26394(12) 0.09667(10) 0.65778(14)
C6C C -0.19708(12) 0.06542(9) 0.66591(14)
H2C H -0.1906 0.0358 0.6289
C7C C -0.13950(11) 0.07696(8) 0.72763(12)
C8C C -0.06985(11) 0.04074(8) 0.73748(14)
H3C H -0.0776 0.0082 0.7029
H4C H -0.0641 0.0303 0.7988
C9C C -0.22777(14) 0.20146(9) 0.84263(15)
C10C C -0.30707(16) 0.23043(11) 0.82471(18)
H5C H -0.3129 0.2602 0.8648
H6C H -0.3079 0.2436 0.7652
H7C H -0.3494 0.2054 0.8331
C11C C -0.16273(17) 0.24362(10) 0.82915(19)
H8C H -0.1126 0.2273 0.8405
H9C H -0.1643 0.2566 0.7695
H10C H -0.1706 0.2732 0.8691
C12C C -0.23187(13) 0.18317(10) 0.93922(15)
C13C C -0.2366(2) 0.22187(15) 1.0059(2)
H11C H -0.2327 0.2582 0.9908
C14C C -0.2467(3) 0.2087(2) 1.0913(2)
H12C H -0.2506 0.2358 1.1335
C15C C -0.2511(3) 0.1558(2) 1.1165(2)
H13C H -0.2574 0.1466 1.1756
C16C C -0.2462(2) 0.11659(17) 1.0534(2)
H14C H -0.2486 0.0804 1.0696
C17C C -0.23771(19) 0.13032(12) 0.96504(19)
H15C H -0.2360 0.1031 0.9227
C18C C -0.32734(13) 0.08179(12) 0.59026(17)
C19C C -0.38862(17) 0.12698(15) 0.5779(2)
H16C H -0.3632 0.1589 0.5562
H17C H -0.4277 0.1154 0.5364
H18C H -0.4131 0.1347 0.6335
C20C C -0.37020(17) 0.03162(15) 0.6244(2)
H19C H -0.3332 0.0029 0.6331
H20C H -0.3954 0.0399 0.6794
H21C H -0.4089 0.0206 0.5821
C21C C -0.28953(14) 0.07147(10) 0.49971(15)
C22C C -0.30036(18) 0.02440(12) 0.4510(2)
H22C H -0.3301 -0.0036 0.4747
C23C C -0.2678(2) 0.01838(14) 0.3679(2)
H23C H -0.2756 -0.0136 0.3369
C24C C -0.2246(2) 0.05856(15) 0.3313(2)
H24C H -0.2038 0.0545 0.2750
C25C C -0.2122(2) 0.10501(14) 0.3779(2)
H25C H -0.1825 0.1327 0.3531
C26C C -0.24302(16) 0.11128(11) 0.46131(19)
H26C H -0.2325 0.1428 0.4926
C31C C -0.0657(2) 0.2025(2) 0.6015(3)
H27C H -0.1038 0.1736 0.6073
H28C H -0.0902 0.2358 0.6209
C32C C -0.0427(3) 0.2075(3) 0.5114(3)
H29C H -0.0627 0.2409 0.4865
H30C H -0.0627 0.1774 0.4770
C33C C -0.06718(17) 0.01919(13) 0.9886(2)
H31C H -0.0825 0.0267 1.0490
H32C H -0.1109 0.0275 0.9500
C34C C -0.0434(2) -0.03827(14) 0.9788(3)
H33C H -0.0634 -0.0597 1.0274
H34C H -0.0634 -0.0531 0.9239
loop_
_geom_bond_atom_site_label_1
_geom_bond_atom_site_label_2
_geom_bond_site_symmetry_1
_geom_bond_site_symmetry_2
Li1 O1 1_555 1_555
Li2 O1 1_555 1_555
O1 C2 1_555 1_555
O2 Li1 1_555 1_555
O3 Li2 1_555 1_555
O4 Li1 1_555 1_555
O5 Li2 1_555 1_555
C1 C35 1_555 1_555
C2 C3 1_555 1_555
C3 C4 1_555 1_555
C4 H1 1_555 1_555
C5 C4 1_555 1_555
C6 C5 1_555 1_555
H2 C6 1_555 1_555
C7 C2 1_555 1_555
C8 O2 1_555 1_555
H3 C8 1_555 1_555
H4 C8 1_555 1_555
C9 C3 1_555 1_555
C10 C9 1_555 1_555
H5 C10 1_555 1_555
H6 C10 1_555 1_555
H7 C10 1_555 1_555
C11 C9 1_555 1_555
H8 C11 1_555 1_555
H9 C11 1_555 1_555
H10 C11 1_555 1_555
C12 C9 1_555 1_555
C13 C12 1_555 1_555
H11 C13 1_555 1_555
C14 C13 1_555 1_555
H12 C14 1_555 1_555
C15 C14 1_555 1_555
H13 C15 1_555 1_555
C16 C15 1_555 1_555
H14 C16 1_555 1_555
C17 C12 1_555 1_555
H15 C17 1_555 1_555
C18 C5 1_555 1_555
C19 C18 1_555 1_555
H16 C19 1_555 1_555
H17 C19 1_555 1_555
H18 C19 1_555 1_555
C20 C18 1_555 1_555
H19 C20 1_555 1_555
H20 C20 1_555 1_555
H21 C20 1_555 1_555
C21 C18 1_555 1_555
C22 C21 1_555 1_555
H22 C22 1_555 1_555
C23 C22 1_555 1_555
H23 C23 1_555 1_555
C24 C23 1_555 1_555
H24 C24 1_555 1_555
C25 C24 1_555 1_555
H25 C25 1_555 1_555
C26 C21 1_555 1_555
H26 C26 1_555 1_555
C27 O3 1_555 1_555
C28 C27 1_555 1_555
C29 C28 1_555 1_555
C30 O3 1_555 1_555
C31 O4 1_555 1_555
H27 C31 1_555 1_555
H28 C31 1_555 1_555
C32 C31 1_555 1_555
H29 C32 1_555 1_555
H30 C32 1_555 1_555
C33 O5 1_555 1_555
H31 C33 1_555 1_555
H32 C33 1_555 1_555
C34 C33 1_555 1_555
H33 C34 1_555 1_555
H34 C34 1_555 1_555
C35 C36 1_555 1_555
C36 C1 1_555 1_555
C37 C38 1_555 1_555
C38 C39 1_555 1_555
C39 O6 1_555 1_555
C40 C37 1_555 1_555
O6 C40 1_555 1_555
O1C Li1 1_555 1_555
C2C O1C 1_555 1_555
C3C C2C 1_555 1_555
C4C C3C 1_555 1_555
H1C C4C 1_555 1_555
C5C C4C 1_555 1_555
C6C C5C 1_555 1_555
H2C C6C 1_555 1_555
C7C C2C 1_555 1_555
C8C O2 1_555 1_555
H3C C8C 1_555 1_555
H4C C8C 1_555 1_555
C9C C3C 1_555 1_555
C10C C9C 1_555 1_555
H5C C10C 1_555 1_555
H6C C10C 1_555 1_555
H7C C10C 1_555 1_555
C11C C9C 1_555 1_555
H8C C11C 1_555 1_555
H9C C11C 1_555 1_555
H10C C11C 1_555 1_555
C12C C9C 1_555 1_555
C13C C12C 1_555 1_555
H11C C13C 1_555 1_555
C14C C13C 1_555 1_555
H12C C14C 1_555 1_555
C15C C14C 1_555 1_555
H13C C15C 1_555 1_555
C16C C15C 1_555 1_555
H14C C16C 1_555 1_555
C17C C12C 1_555 1_555
H15C C17C 1_555 1_555
C18C C5C 1_555 1_555
C19C C18C 1_555 1_555
H16C C19C 1_555 1_555
H17C C19C 1_555 1_555
H18C C19C 1_555 1_555
C20C C18C 1_555 1_555
H19C C20C 1_555 1_555
H20C C20C 1_555 1_555
H21C C20C 1_555 1_555
C21C C18C 1_555 1_555
C22C C21C 1_555 1_555
H22C C22C 1_555 1_555
C23C C22C 1_555 1_555
H23C C23C 1_555 1_555
C24C C23C 1_555 1_555
H24C C24C 1_555 1_555
C25C C24C 1_555 1_555
H25C C25C 1_555 1_555
C26C C21C 1_555 1_555
H26C C26C 1_555 1_555
C31C O4 1_555 1_555
H27C C31C 1_555 1_555
H28C C31C 1_555 1_555
C32C C32 1_555 1_555
H29C C32C 1_555 1_555
H30C C32C 1_555 1_555
C33C O5 1_555 1_555
H31C C33C 1_555 1_555
H32C C33C 1_555 1_555
C34C C34 1_555 1_555
H33C C34C 1_555 1_555
H34C C34C 1_555 1_555
C35C C1 1_555 1_555
C36C C1 1_555 1_555
C40C C37 1_555 1_555
Li2 O1C 1_555 1_555
C6 C7 1_555 1_555
C7 C8 1_555 1_555
C16 C17 1_555 1_555
C25 C26 1_555 1_555
C29 C30 1_555 1_555
C35 C35C 1_555 1_555
C36 C36C 1_555 1_555
C40 C40C 1_555 1_555
O6 C40C 1_555 1_555
C6C C7C 1_555 1_555
C7C C8C 1_555 1_555
C16C C17C 1_555 1_555
C25C C26C 1_555 1_555
C31C C32C 1_555 1_555
C33C C34C 1_555 1_555
C35C C36C 1_555 1_555

#END
