
#######################################################################
#
#                 Cambridge Crystallographic Data Centre
#                                CCDC 
#
#######################################################################
#
# If this CIF has been generated from an entry in the Cambridge 
# Structural Database, then it will include bibliographic, chemical, 
# crystal, experimental, refinement or atomic coordinate data resulting 
# from the CCDC's data processing and validation procedures.
#
#######################################################################

data_AVOPEH
_chemical_formula_moiety         'C100 H104 Li4 O6,2(C7 H8)'
_chemical_name_systematic        
"bis(\m~3~-\h^2^-2,2'-(Oxybis(methylene))bis(4,6-bis(2-phenylpropan-2-yl)phenol))-tetra-lithium toluene solvate"
_symmetry_cell_setting           triclinic
_symmetry_space_group_name_H-M   'P -1'
_symmetry_Int_Tables_number      2
_space_group_name_Hall           '-P 1'
loop_
_symmetry_equiv_pos_site_id
_symmetry_equiv_pos_as_xyz
1 x,y,z
2 -x,-y,-z
_cell_length_a                   11.9743(6)
_cell_length_b                   13.0592(6)
_cell_length_c                   15.8382(8)
_cell_angle_alpha                100.3670(10)
_cell_angle_beta                 95.2470(10)
_cell_angle_gamma                99.0640(10)
_cell_volume                     2387.48
_exptl_crystal_colour            colorless
_exptl_crystal_description       block
_cell_formula_units_Z            1
loop_
_atom_site_label
_atom_site_type_symbol
_atom_site_fract_x
_atom_site_fract_y
_atom_site_fract_z
Li1 Li 0.2726(3) -0.5488(2) -0.05523(18)
Li2 Li 0.4370(2) -0.4874(2) 0.05978(17)
O1 O 0.28060(10) -0.55521(9) 0.05631(7)
O2 O 0.42794(9) -0.34534(8) 0.11453(7)
O3 O 0.42269(9) -0.46061(8) -0.06169(6)
C1 C 0.25402(13) -0.53000(12) 0.13617(10)
C2 C 0.21530(13) -0.60674(13) 0.18477(10)
C3 C 0.19238(15) -0.57122(14) 0.26909(11)
H1 H 0.1669 -0.6217 0.3008
C4 C 0.20522(15) -0.46561(15) 0.30831(11)
C5 C 0.24466(15) -0.39201(14) 0.26004(11)
H2 H 0.2559 -0.3204 0.2849
C6 C 0.26796(14) -0.42167(12) 0.17586(10)
C7 C 0.31117(14) -0.33943(13) 0.12659(11)
H3 H 0.2652 -0.3513 0.0709
H4 H 0.3063 -0.2698 0.1583
C8 C 0.47881(14) -0.26909(13) 0.06768(10)
H5 H 0.5576 -0.2770 0.0644
H6 H 0.4793 -0.1989 0.1009
C9 C 0.42291(13) -0.27499(12) -0.02271(10)
C10 C 0.39696(13) -0.18205(12) -0.04505(11)
H7 H 0.4073 -0.1213 -0.0022
C11 C 0.35643(14) -0.17714(13) -0.12866(11)
C12 C 0.34358(14) -0.27022(13) -0.19028(11)
H8 H 0.3199 -0.2682 -0.2474
C13 C 0.36414(13) -0.36608(12) -0.17129(10)
C14 C 0.40453(12) -0.36945(12) -0.08471(10)
C15 C 0.19806(14) -0.72585(13) 0.14611(11)
C16 C 0.30746(16) -0.75432(15) 0.11116(15)
H9 H 0.2956 -0.8287 0.0873
H10 H 0.3691 -0.7368 0.1574
H11 H 0.3259 -0.7152 0.0670
C17 C 0.1707(2) -0.79423(15) 0.21404(14)
H12 H 0.1027 -0.7787 0.2375
H13 H 0.2330 -0.7788 0.2597
H14 H 0.1593 -0.8677 0.1872
C18 C 0.09437(14) -0.75817(13) 0.07619(11)
C19 C 0.08130(19) -0.84780(15) 0.01267(14)
H15 H 0.1409 -0.8854 0.0069
C20 C -0.0205(2) -0.88310(17) -0.04333(15)
H16 H -0.0276 -0.9435 -0.0861
C21 C -0.1086(2) -0.8299(2) -0.03565(17)
H17 H -0.1761 -0.8534 -0.0729
C22 C -0.09729(19) -0.7418(2) 0.02714(18)
H18 H -0.1577 -0.7053 0.0333
C23 C 0.00270(17) -0.70625(18) 0.08160(15)
H19 H 0.0088 -0.6451 0.1235
C24 C 0.17871(18) -0.42773(17) 0.40059(12)
C25 C 0.1441(2) -0.5210(2) 0.44580(13)
H20 H 0.2061 -0.5590 0.4504
H21 H 0.0786 -0.5676 0.4126
H22 H 0.1262 -0.4945 0.5026
C26 C 0.0784(2) -0.3697(2) 0.39550(16)
H23 H 0.0975 -0.3108 0.3678
H24 H 0.0613 -0.3447 0.4528
H25 H 0.0131 -0.4171 0.3627
C27 C 0.2857(2) -0.35867(17) 0.45456(12)
C28 C 0.2861(3) -0.2628(2) 0.50795(17)
H26 H 0.2188 -0.2359 0.5106
C29 C 0.3857(4) -0.2054(3) 0.5581(2)
H27 H 0.3841 -0.1409 0.5939
C30 C 0.4849(4) -0.2431(4) 0.5550(2)
H28 H 0.5513 -0.2043 0.5882
C31 C 0.4870(3) -0.3376(3) 0.5034(2)
H29 H 0.5545 -0.3642 0.5018
C32 C 0.3884(2) -0.3944(2) 0.45340(15)
H30 H 0.3913 -0.4587 0.4178
C33 C 0.32364(16) -0.07680(14) -0.15435(13)
C34 C 0.3188(2) 0.00773(15) -0.07362(15)
H31 H 0.3927 0.0275 -0.0403
H32 H 0.2645 -0.0206 -0.0391
H33 H 0.2964 0.0688 -0.0913
C35 C 0.2038(2) -0.10580(19) -0.2063(2)
H34 H 0.2044 -0.1586 -0.2570
H35 H 0.1826 -0.0439 -0.2233
H36 H 0.1498 -0.1330 -0.1711
C36 C 0.41147(18) -0.02661(13) -0.20678(12)
C37 C 0.3860(2) 0.04613(17) -0.25628(15)
H37 H 0.3129 0.0619 -0.2607
C38 C 0.4679(3) 0.0958(2) -0.29927(17)
H38 H 0.4487 0.1447 -0.3316
C39 C 0.5744(3) 0.0747(2) -0.29510(19)
H39 H 0.6285 0.1080 -0.3245
C40 C 0.6012(3) 0.0035(2) -0.2468(2)
H40 H 0.6744 -0.0122 -0.2434
C41 C 0.52103(19) -0.04570(17) -0.20284(16)
H41 H 0.5419 -0.0931 -0.1696
C42 C 0.34090(15) -0.46760(13) -0.24178(10)
C43 C 0.45299(17) -0.50595(17) -0.25862(12)
H42 H 0.4900 -0.5177 -0.2057
H43 H 0.5019 -0.4534 -0.2800
H44 H 0.4373 -0.5708 -0.3007
C44 C 0.28630(19) -0.45075(16) -0.32900(12)
H45 H 0.2735 -0.5161 -0.3705
H46 H 0.3364 -0.3980 -0.3493
H47 H 0.2149 -0.4276 -0.3216
C45 C 0.25440(15) -0.54873(13) -0.21205(10)
C46 C 0.15444(16) -0.51860(16) -0.18657(12)
H48 H 0.1416 -0.4468 -0.1889
C47 C 0.0720(2) -0.5871(2) -0.15819(16)
H49 H 0.0055 -0.5617 -0.1360
C48 C 0.0888(3) -0.6873(2) -0.15436(18)
H50 H 0.0364 -0.7327 -0.1269
C49 C 0.1866(3) -0.71919(18) -0.17946(17)
H51 H 0.2015 -0.7888 -0.1718
C50 C 0.2692(2) -0.65149(14) -0.20888(13)
H52 H 0.3379 -0.6762 -0.2272
Li1A Li 0.7274(3) -0.4512(2) 0.05523(18)
Li2A Li 0.5630(2) -0.5126(2) -0.05978(17)
O1A O 0.71940(10) -0.44479(9) -0.05631(7)
O2A O 0.57206(9) -0.65466(8) -0.11453(7)
O3A O 0.57731(9) -0.53939(8) 0.06169(6)
C1A C 0.74598(13) -0.47000(12) -0.13617(10)
C2A C 0.78470(13) -0.39326(13) -0.18477(10)
C3A C 0.80762(15) -0.42878(14) -0.26909(11)
H1A H 0.8331 -0.3783 -0.3008
C4A C 0.79478(15) -0.53439(15) -0.30831(11)
C5A C 0.75534(15) -0.60799(14) -0.26004(11)
H2A H 0.7441 -0.6796 -0.2849
C6A C 0.73204(14) -0.57833(12) -0.17586(10)
C7A C 0.68883(14) -0.66057(13) -0.12659(11)
H3A H 0.7348 -0.6487 -0.0709
H4A H 0.6937 -0.7302 -0.1583
C8A C 0.52119(14) -0.73091(13) -0.06768(10)
H5A H 0.4424 -0.7230 -0.0644
H6A H 0.5207 -0.8011 -0.1009
C9A C 0.57709(13) -0.72501(12) 0.02271(10)
C10A C 0.60304(13) -0.81795(12) 0.04505(11)
H7A H 0.5927 -0.8787 0.0022
C11A C 0.64357(14) -0.82286(13) 0.12866(11)
C12A C 0.65642(14) -0.72978(13) 0.19028(11)
H8A H 0.6801 -0.7318 0.2474
C13A C 0.63586(13) -0.63392(12) 0.17129(10)
C14A C 0.59547(12) -0.63055(12) 0.08471(10)
C15A C 0.80194(14) -0.27415(13) -0.14611(11)
C16A C 0.69254(16) -0.24568(15) -0.11116(15)
H9A H 0.7044 -0.1713 -0.0873
H10A H 0.6309 -0.2632 -0.1574
H11A H 0.6741 -0.2848 -0.0670
C17A C 0.8293(2) -0.20577(15) -0.21404(14)
H12A H 0.8973 -0.2213 -0.2375
H13A H 0.7670 -0.2212 -0.2597
H14A H 0.8407 -0.1323 -0.1872
C18A C 0.90563(14) -0.24183(13) -0.07619(11)
C19A C 0.91870(19) -0.15220(15) -0.01267(14)
H15A H 0.8591 -0.1146 -0.0069
C20A C 1.0205(2) -0.11690(17) 0.04333(15)
H16A H 1.0276 -0.0565 0.0861
C21A C 1.1086(2) -0.1701(2) 0.03565(17)
H17A H 1.1761 -0.1466 0.0729
C22A C 1.09729(19) -0.2582(2) -0.02714(18)
H18A H 1.1577 -0.2947 -0.0333
C23A C 0.99730(17) -0.29375(18) -0.08160(15)
H19A H 0.9912 -0.3549 -0.1235
C24A C 0.82129(18) -0.57227(17) -0.40059(12)
C25A C 0.8559(2) -0.4790(2) -0.44580(13)
H20A H 0.7939 -0.4410 -0.4504
H21A H 0.9214 -0.4324 -0.4126
H22A H 0.8738 -0.5055 -0.5026
C26A C 0.9216(2) -0.6303(2) -0.39550(16)
H23A H 0.9025 -0.6892 -0.3678
H24A H 0.9387 -0.6553 -0.4528
H25A H 0.9869 -0.5829 -0.3627
C27A C 0.7143(2) -0.64133(17) -0.45456(12)
C28A C 0.7139(3) -0.7372(2) -0.50795(17)
H26A H 0.7812 -0.7641 -0.5106
C29A C 0.6143(4) -0.7946(3) -0.5581(2)
H27A H 0.6159 -0.8591 -0.5939
C30A C 0.5151(4) -0.7569(4) -0.5550(2)
H28A H 0.4487 -0.7957 -0.5882
C31A C 0.5130(3) -0.6624(3) -0.5034(2)
H29A H 0.4455 -0.6358 -0.5018
C32A C 0.6116(2) -0.6056(2) -0.45340(15)
H30A H 0.6087 -0.5413 -0.4178
C33A C 0.67636(16) -0.92320(14) 0.15435(13)
C34A C 0.6812(2) -1.00773(15) 0.07362(15)
H31A H 0.6073 -1.0275 0.0403
H32A H 0.7355 -0.9794 0.0391
H33A H 0.7036 -1.0688 0.0913
C35A C 0.7962(2) -0.89420(19) 0.2063(2)
H34A H 0.7956 -0.8414 0.2570
H35A H 0.8174 -0.9561 0.2233
H36A H 0.8502 -0.8670 0.1711
C36A C 0.58853(18) -0.97339(13) 0.20678(12)
C37A C 0.6140(2) -1.04613(17) 0.25628(15)
H37A H 0.6871 -1.0619 0.2607
C38A C 0.5321(3) -1.0958(2) 0.29927(17)
H38A H 0.5513 -1.1447 0.3316
C39A C 0.4256(3) -1.0747(2) 0.29510(19)
H39A H 0.3715 -1.1080 0.3245
C40A C 0.3988(3) -1.0035(2) 0.2468(2)
H40A H 0.3256 -0.9878 0.2434
C41A C 0.47897(19) -0.95430(17) 0.20284(16)
H41A H 0.4581 -0.9069 0.1696
C42A C 0.65910(15) -0.53240(13) 0.24178(10)
C43A C 0.54701(17) -0.49405(17) 0.25862(12)
H42A H 0.5100 -0.4823 0.2057
H43A H 0.4981 -0.5466 0.2800
H44A H 0.5627 -0.4292 0.3007
C44A C 0.71370(19) -0.54925(16) 0.32900(12)
H45A H 0.7265 -0.4839 0.3705
H46A H 0.6636 -0.6020 0.3493
H47A H 0.7851 -0.5724 0.3216
C45A C 0.74560(15) -0.45127(13) 0.21205(10)
C46A C 0.84556(16) -0.48140(16) 0.18657(12)
H48A H 0.8584 -0.5532 0.1889
C47A C 0.9280(2) -0.4129(2) 0.15819(16)
H49A H 0.9945 -0.4383 0.1360
C48A C 0.9112(3) -0.3127(2) 0.15436(18)
H50A H 0.9636 -0.2673 0.1269
C49A C 0.8134(3) -0.28081(18) 0.17946(17)
H51A H 0.7985 -0.2112 0.1718
C50A C 0.7308(2) -0.34851(14) 0.20888(13)
H52A H 0.6621 -0.3238 0.2272
C51 C 0.9718(10) 1.0412(9) -0.3318(5)
H53 H 0.9423 1.1051 -0.3150
H54 H 1.0454 1.0580 -0.3503
H55 H 0.9785 1.0067 -0.2834
C52 C 0.9030(7) 0.9787(13) -0.3949(7)
C53 C 0.9493(10) 0.8773(13) -0.4235(10)
H56 H 1.0153 0.8584 -0.3998
C54 C 0.8605(12) 0.8112(11) -0.5024(12)
H57 H 0.8756 0.7449 -0.5257
C55 C 0.7791(11) 0.8335(8) -0.5355(7)
H58 H 0.7330 0.7885 -0.5822
C56 C 0.7550(9) 0.9360(10) -0.4987(9)
H59 H 0.6919 0.9583 -0.5233
C57 C 0.8154(6) 0.9955(9) -0.4354(5)
H60 H 0.7929 1.0598 -0.4160
loop_
_geom_bond_atom_site_label_1
_geom_bond_atom_site_label_2
_geom_bond_site_symmetry_1
_geom_bond_site_symmetry_2
Li1 O1 1_555 1_555
Li2 O1 1_555 1_555
O1 C1 1_555 1_555
O2 Li2 1_555 1_555
O3 Li1 1_555 1_555
C1 C2 1_555 1_555
C2 C3 1_555 1_555
C3 H1 1_555 1_555
C4 C3 1_555 1_555
C5 C4 1_555 1_555
H2 C5 1_555 1_555
C6 C1 1_555 1_555
C7 O2 1_555 1_555
H3 C7 1_555 1_555
H4 C7 1_555 1_555
C8 O2 1_555 1_555
H5 C8 1_555 1_555
H6 C8 1_555 1_555
C9 C8 1_555 1_555
C10 C9 1_555 1_555
H7 C10 1_555 1_555
C11 C10 1_555 1_555
C12 C11 1_555 1_555
H8 C12 1_555 1_555
C13 C12 1_555 1_555
C14 O3 1_555 1_555
C15 C2 1_555 1_555
C16 C15 1_555 1_555
H9 C16 1_555 1_555
H10 C16 1_555 1_555
H11 C16 1_555 1_555
C17 C15 1_555 1_555
H12 C17 1_555 1_555
H13 C17 1_555 1_555
H14 C17 1_555 1_555
C18 C15 1_555 1_555
C19 C18 1_555 1_555
H15 C19 1_555 1_555
C20 C19 1_555 1_555
H16 C20 1_555 1_555
C21 C20 1_555 1_555
H17 C21 1_555 1_555
C22 C21 1_555 1_555
H18 C22 1_555 1_555
C23 C18 1_555 1_555
H19 C23 1_555 1_555
C24 C4 1_555 1_555
C25 C24 1_555 1_555
H20 C25 1_555 1_555
H21 C25 1_555 1_555
H22 C25 1_555 1_555
C26 C24 1_555 1_555
H23 C26 1_555 1_555
H24 C26 1_555 1_555
H25 C26 1_555 1_555
C27 C24 1_555 1_555
C28 C27 1_555 1_555
H26 C28 1_555 1_555
C29 C28 1_555 1_555
H27 C29 1_555 1_555
C30 C29 1_555 1_555
H28 C30 1_555 1_555
C31 C30 1_555 1_555
H29 C31 1_555 1_555
C32 C27 1_555 1_555
H30 C32 1_555 1_555
C33 C11 1_555 1_555
C34 C33 1_555 1_555
H31 C34 1_555 1_555
H32 C34 1_555 1_555
H33 C34 1_555 1_555
C35 C33 1_555 1_555
H34 C35 1_555 1_555
H35 C35 1_555 1_555
H36 C35 1_555 1_555
C36 C33 1_555 1_555
C37 C36 1_555 1_555
H37 C37 1_555 1_555
C38 C37 1_555 1_555
H38 C38 1_555 1_555
C39 C38 1_555 1_555
H39 C39 1_555 1_555
C40 C39 1_555 1_555
H40 C40 1_555 1_555
C41 C36 1_555 1_555
H41 C41 1_555 1_555
C42 C13 1_555 1_555
C43 C42 1_555 1_555
H42 C43 1_555 1_555
H43 C43 1_555 1_555
H44 C43 1_555 1_555
C44 C42 1_555 1_555
H45 C44 1_555 1_555
H46 C44 1_555 1_555
H47 C44 1_555 1_555
C45 Li1 1_555 1_555
C46 Li1 1_555 1_555
H48 C46 1_555 1_555
C47 C46 1_555 1_555
H49 C47 1_555 1_555
C48 C47 1_555 1_555
H50 C48 1_555 1_555
C49 C48 1_555 1_555
H51 C49 1_555 1_555
C50 C45 1_555 1_555
H52 C50 1_555 1_555
C51 H53 1_555 1_555
H54 C51 1_555 1_555
H55 C51 1_555 1_555
C52 C51 1_555 1_555
C53 C52 1_555 1_555
H56 C53 1_555 1_555
C54 C53 1_555 1_555
H57 C54 1_555 1_555
C55 C54 1_555 1_555
H58 C55 1_555 1_555
C56 C55 1_555 1_555
H59 C56 1_555 1_555
C57 C52 1_555 1_555
H60 C57 1_555 1_555
Li1A O1A 1_555 1_555
Li2A O3 1_555 1_555
O1A Li2A 1_555 1_555
O2A Li2A 1_555 1_555
O3A Li2 1_555 1_555
C1A O1A 1_555 1_555
C2A C1A 1_555 1_555
C3A C2A 1_555 1_555
H1A C3A 1_555 1_555
C4A C3A 1_555 1_555
C5A C4A 1_555 1_555
H2A C5A 1_555 1_555
C6A C1A 1_555 1_555
C7A O2A 1_555 1_555
H3A C7A 1_555 1_555
H4A C7A 1_555 1_555
C8A O2A 1_555 1_555
H5A C8A 1_555 1_555
H6A C8A 1_555 1_555
C9A C8A 1_555 1_555
C10A C9A 1_555 1_555
H7A C10A 1_555 1_555
C11A C10A 1_555 1_555
C12A C11A 1_555 1_555
H8A C12A 1_555 1_555
C13A C12A 1_555 1_555
C14A O3A 1_555 1_555
C15A C2A 1_555 1_555
C16A C15A 1_555 1_555
H9A C16A 1_555 1_555
H10A C16A 1_555 1_555
H11A C16A 1_555 1_555
C17A C15A 1_555 1_555
H12A C17A 1_555 1_555
H13A C17A 1_555 1_555
H14A C17A 1_555 1_555
C18A C15A 1_555 1_555
C19A C18A 1_555 1_555
H15A C19A 1_555 1_555
C20A C19A 1_555 1_555
H16A C20A 1_555 1_555
C21A C20A 1_555 1_555
H17A C21A 1_555 1_555
C22A C21A 1_555 1_555
H18A C22A 1_555 1_555
C23A C18A 1_555 1_555
H19A C23A 1_555 1_555
C24A C4A 1_555 1_555
C25A C24A 1_555 1_555
H20A C25A 1_555 1_555
H21A C25A 1_555 1_555
H22A C25A 1_555 1_555
C26A C24A 1_555 1_555
H23A C26A 1_555 1_555
H24A C26A 1_555 1_555
H25A C26A 1_555 1_555
C27A C24A 1_555 1_555
C28A C27A 1_555 1_555
H26A C28A 1_555 1_555
C29A C28A 1_555 1_555
H27A C29A 1_555 1_555
C30A C29A 1_555 1_555
H28A C30A 1_555 1_555
C31A C30A 1_555 1_555
H29A C31A 1_555 1_555
C32A C27A 1_555 1_555
H30A C32A 1_555 1_555
C33A C11A 1_555 1_555
C34A C33A 1_555 1_555
H31A C34A 1_555 1_555
H32A C34A 1_555 1_555
H33A C34A 1_555 1_555
C35A C33A 1_555 1_555
H34A C35A 1_555 1_555
H35A C35A 1_555 1_555
H36A C35A 1_555 1_555
C36A C33A 1_555 1_555
C37A C36A 1_555 1_555
H37A C37A 1_555 1_555
C38A C37A 1_555 1_555
H38A C38A 1_555 1_555
C39A C38A 1_555 1_555
H39A C39A 1_555 1_555
C40A C39A 1_555 1_555
H40A C40A 1_555 1_555
C41A C36A 1_555 1_555
H41A C41A 1_555 1_555
C42A C13A 1_555 1_555
C43A C42A 1_555 1_555
H42A C43A 1_555 1_555
H43A C43A 1_555 1_555
H44A C43A 1_555 1_555
C44A C42A 1_555 1_555
H45A C44A 1_555 1_555
H46A C44A 1_555 1_555
H47A C44A 1_555 1_555
C45A Li1A 1_555 1_555
C46A Li1A 1_555 1_555
H48A C46A 1_555 1_555
C47A C46A 1_555 1_555
H49A C47A 1_555 1_555
C48A C47A 1_555 1_555
H50A C48A 1_555 1_555
C49A C48A 1_555 1_555
H51A C49A 1_555 1_555
C50A C45A 1_555 1_555
H52A C50A 1_555 1_555
Li2 O3 1_555 1_555
C5 C6 1_555 1_555
C6 C7 1_555 1_555
C9 C14 1_555 1_555
C13 C14 1_555 1_555
C22 C23 1_555 1_555
C31 C32 1_555 1_555
C40 C41 1_555 1_555
C42 C45 1_555 1_555
C45 C46 1_555 1_555
C49 C50 1_555 1_555
C56 C57 1_555 1_555
Li1A O3A 1_555 1_555
Li2A O3A 1_555 1_555
C5A C6A 1_555 1_555
C6A C7A 1_555 1_555
C9A C14A 1_555 1_555
C13A C14A 1_555 1_555
C22A C23A 1_555 1_555
C31A C32A 1_555 1_555
C40A C41A 1_555 1_555
C42A C45A 1_555 1_555
C45A C46A 1_555 1_555
C49A C50A 1_555 1_555

#END
