
#######################################################################
#
#                 Cambridge Crystallographic Data Centre
#                                CCDC 
#
#######################################################################
#
# If this CIF has been generated from an entry in the Cambridge 
# Structural Database, then it will include bibliographic, chemical, 
# crystal, experimental, refinement or atomic coordinate data resulting 
# from the CCDC's data processing and validation procedures.
#
#######################################################################

data_AVOPUX
_chemical_formula_moiety         'C100 H104 Na4 O6'
_chemical_name_systematic        
"bis(\m~4~-\h^3^,\h^3^-2,2'-dihydroxy-3,3',5,5'-tetrakis[(1-methyl-1-phenyl)ethyl]dibenzyl ether)-tetra-sodium"
_symmetry_cell_setting           tetragonal
_symmetry_space_group_name_H-M   'P 41 21 2'
_symmetry_Int_Tables_number      92
_space_group_name_Hall           'P 4abw 2nw'
loop_
_symmetry_equiv_pos_site_id
_symmetry_equiv_pos_as_xyz
1 x,y,z
2 -x,-y,1/2+z
3 1/2-y,1/2+x,1/4+z
4 1/2+y,1/2-x,3/4+z
5 1/2-x,1/2+y,1/4-z
6 1/2+x,1/2-y,3/4-z
7 y,x,-z
8 -y,-x,1/2-z
_cell_length_a                   14.7006(6)
_cell_length_b                   14.7006(6)
_cell_length_c                   38.764(2)
_cell_angle_alpha                90
_cell_angle_beta                 90
_cell_angle_gamma                90
_cell_volume                     8377.2
_exptl_crystal_colour            colorless
_exptl_crystal_description       block
_cell_formula_units_Z            4
loop_
_atom_site_label
_atom_site_type_symbol
_atom_site_fract_x
_atom_site_fract_y
_atom_site_fract_z
Na1 Na 0.18514(6) 0.21835(6) 0.04034(2)
Na2 Na 0.16284(7) 0.02028(6) 0.01352(2)
O1 O 0.05692(10) 0.12855(10) 0.04169(4)
O2 O 0.21502(10) 0.02747(12) 0.06674(4)
O3 O 0.29635(10) 0.14723(11) 0.00959(4)
C1 C 0.01268(14) 0.08726(14) 0.06702(5)
C2 C -0.08325(15) 0.09303(15) 0.07125(6)
C3 C -0.12558(17) 0.03704(16) 0.09587(6)
H1 H -0.1886 0.0395 0.0977
C4 C -0.07925(17) -0.02130(17) 0.11752(6)
C5 C 0.01482(17) -0.01907(16) 0.11552(5)
H2 H 0.0483 -0.0551 0.1306
C6 C 0.06113(15) 0.03469(15) 0.09194(5)
C7 C 0.16208(16) 0.04544(17) 0.09655(5)
H3 H 0.1743 0.1072 0.1040
H4 H 0.1818 0.0049 0.1148
C8 C 0.30926(15) 0.04509(17) 0.07289(6)
H5 H 0.3301 0.0057 0.0913
H6 H 0.3160 0.1075 0.0806
C9 C 0.36883(14) 0.03078(16) 0.04197(5)
C10 C 0.43424(16) -0.03696(17) 0.04370(6)
H7 H 0.4321 -0.0785 0.0618
C11 C 0.50316(15) -0.04467(18) 0.01918(6)
C12 C 0.50810(16) 0.02476(18) -0.00493(6)
H8 H 0.5569 0.0245 -0.0202
C13 C 0.44568(16) 0.09398(17) -0.00780(6)
C14 C 0.36659(15) 0.09288(15) 0.01402(6)
C15 C -0.14025(16) 0.16216(16) 0.05059(6)
C16 C -0.0974(2) 0.25752(17) 0.05515(8)
H9 H -0.0356 0.2564 0.0472
H10 H -0.0988 0.2742 0.0791
H11 H -0.1314 0.3012 0.0420
C17 C -0.23855(17) 0.1698(2) 0.06390(7)
H12 H -0.2683 0.1119 0.0617
H13 H -0.2708 0.2144 0.0506
H14 H -0.2379 0.1878 0.0877
C18 C 0.13546(15) -0.14940(17) -0.01253(6)
C19 C 0.1989(2) -0.1737(2) 0.01210(8)
H15 H 0.2599 -0.1788 0.0060
C20 C 0.1722(2) -0.1908(4) 0.04584(8)
H16 H 0.2158 -0.2075 0.0620
C21 C 0.0843(2) -0.1835(4) 0.05583(8)
H17 H 0.0674 -0.1953 0.0785
C22 C 0.0208(2) -0.1586(3) 0.03190(7)
H18 H -0.0398 -0.1531 0.0384
C23 C 0.04590(19) -0.1413(2) -0.00206(7)
H19 H 0.0017 -0.1240 -0.0180
C24 C -0.1264(2) -0.0827(2) 0.14462(7)
C25 C -0.2304(3) -0.0743(3) 0.14257(13)
H20 H -0.2577 -0.1126 0.1597
H21 H -0.2507 -0.0927 0.1201
H22 H -0.2478 -0.0123 0.1466
C26 C -0.1009(4) -0.0489(3) 0.18073(8)
H23 H -0.0362 -0.0529 0.1837
H24 H -0.1307 -0.0859 0.1978
H25 H -0.1199 0.0132 0.1833
C27 C -0.09901(18) -0.18107(18) 0.13839(7)
C28 C -0.1264(4) -0.2253(3) 0.10954(9)
H26 H -0.1611 -0.1947 0.0932
C29 C -0.1033(7) -0.3163(5) 0.10403(15)
H27 H -0.1221 -0.3456 0.0840
C30 C -0.0541(7) -0.3613(4) 0.1276(3)
H28 H -0.0394 -0.4222 0.1240
C31 C -0.0271(4) -0.3203(4) 0.1552(2)
H29 H 0.0073 -0.3521 0.1713
C32 C -0.0481(2) -0.2301(3) 0.16123(11)
H30 H -0.0272 -0.2023 0.1813
C33 C 0.57514(19) -0.12011(19) 0.02204(7)
C34 C 0.6157(3) -0.1448(3) -0.01322(9)
H31 H 0.5684 -0.1668 -0.0281
H32 H 0.6610 -0.1913 -0.0103
H33 H 0.6432 -0.0918 -0.0233
C35 C 0.6532(2) -0.0847(3) 0.04500(11)
H34 H 0.6297 -0.0689 0.0673
H35 H 0.6800 -0.0320 0.0345
H36 H 0.6986 -0.1313 0.0475
C36 C 0.53134(18) -0.20574(18) 0.03721(7)
C37 C 0.4597(2) -0.2455(2) 0.02000(8)
H37 H 0.4405 -0.2202 -0.0008
C38 C 0.4157(2) -0.3208(2) 0.03237(9)
H38 H 0.3681 -0.3463 0.0199
C39 C 0.4420(3) -0.3589(2) 0.06326(9)
H39 H 0.4117 -0.4094 0.0720
C40 C 0.5138(3) -0.3209(2) 0.08091(8)
H40 H 0.5320 -0.3463 0.1018
C41 C 0.5591(2) -0.2462(2) 0.06823(8)
H41 H 0.6083 -0.2224 0.0803
C42 C 0.46425(17) 0.17800(17) -0.03108(6)
C43 C 0.4630(2) 0.2625(2) -0.00815(8)
H42 H 0.4045 0.2682 0.0026
H43 H 0.4749 0.3155 -0.0219
H44 H 0.5090 0.2570 0.0093
C44 C 0.56012(18) 0.1730(2) -0.04741(9)
H45 H 0.5639 0.1206 -0.0621
H46 H 0.6050 0.1684 -0.0295
H47 H 0.5710 0.2269 -0.0608
C45 C 0.18484(17) 0.39938(19) 0.06175(6)
C46 C 0.2665(2) 0.3656(2) 0.07378(8)
H48 H 0.3204 0.3784 0.0622
C47 C 0.2678(2) 0.3113(4) 0.10395(10)
H49 H 0.3228 0.2888 0.1122
C48 C 0.1894(3) 0.2917(4) 0.12097(9)
H50 H 0.1908 0.2557 0.1407
C49 C 0.1097(3) 0.3244(3) 0.10926(8)
H51 H 0.0562 0.3108 0.1210
C50 C 0.1066(2) 0.3779(2) 0.08022(7)
H52 H 0.0508 0.4002 0.0727
Na1F Na 0.21835(6) 0.18514(6) -0.04034(2)
Na2F Na 0.02028(6) 0.16284(7) -0.01352(2)
O1F O 0.12855(10) 0.05692(10) -0.04169(4)
O2F O 0.02747(12) 0.21502(10) -0.06674(4)
O3F O 0.14723(11) 0.29635(10) -0.00959(4)
C1F C 0.08726(14) 0.01268(14) -0.06702(5)
C2F C 0.09303(15) -0.08325(15) -0.07125(6)
C3F C 0.03704(16) -0.12558(17) -0.09587(6)
H1F H 0.0395 -0.1886 -0.0977
C4F C -0.02130(17) -0.07925(17) -0.11752(6)
C5F C -0.01907(16) 0.01482(17) -0.11552(5)
H2F H -0.0551 0.0483 -0.1306
C6F C 0.03469(15) 0.06113(15) -0.09194(5)
C7F C 0.04544(17) 0.16208(16) -0.09655(5)
H3F H 0.1072 0.1743 -0.1040
H4F H 0.0049 0.1818 -0.1148
C8F C 0.04509(17) 0.30926(15) -0.07289(6)
H5F H 0.0057 0.3301 -0.0913
H6F H 0.1075 0.3160 -0.0806
C9F C 0.03078(16) 0.36883(14) -0.04197(5)
C10F C -0.03696(17) 0.43424(16) -0.04370(6)
H7F H -0.0785 0.4321 -0.0618
C11F C -0.04467(18) 0.50316(15) -0.01918(6)
C12F C 0.02476(18) 0.50810(16) 0.00493(6)
H8F H 0.0245 0.5569 0.0202
C13F C 0.09398(17) 0.44568(16) 0.00780(6)
C14F C 0.09288(15) 0.36659(15) -0.01402(6)
C15F C 0.16216(16) -0.14025(16) -0.05059(6)
C16F C 0.25752(17) -0.0974(2) -0.05515(8)
H9F H 0.2564 -0.0356 -0.0472
H10F H 0.2742 -0.0988 -0.0791
H11F H 0.3012 -0.1314 -0.0420
C17F C 0.1698(2) -0.23855(17) -0.06390(7)
H12F H 0.1119 -0.2683 -0.0617
H13F H 0.2144 -0.2708 -0.0506
H14F H 0.1878 -0.2379 -0.0877
C18F C -0.14940(17) 0.13546(15) 0.01253(6)
C19F C -0.1737(2) 0.1989(2) -0.01210(8)
H15F H -0.1788 0.2599 -0.0060
C20F C -0.1908(4) 0.1722(2) -0.04584(8)
H16F H -0.2075 0.2158 -0.0620
C21F C -0.1835(4) 0.0843(2) -0.05583(8)
H17F H -0.1953 0.0674 -0.0785
C22F C -0.1586(3) 0.0208(2) -0.03190(7)
H18F H -0.1531 -0.0398 -0.0384
C23F C -0.1413(2) 0.04590(19) 0.00206(7)
H19F H -0.1240 0.0017 0.0180
C24F C -0.0827(2) -0.1264(2) -0.14462(7)
C25F C -0.0743(3) -0.2304(3) -0.14257(13)
H20F H -0.1126 -0.2577 -0.1597
H21F H -0.0927 -0.2507 -0.1201
H22F H -0.0123 -0.2478 -0.1466
C26F C -0.0489(3) -0.1009(4) -0.18073(8)
H23F H -0.0529 -0.0362 -0.1837
H24F H -0.0859 -0.1307 -0.1978
H25F H 0.0132 -0.1199 -0.1833
C27F C -0.18107(18) -0.09901(18) -0.13839(7)
C28F C -0.2253(3) -0.1264(4) -0.10954(9)
H26F H -0.1947 -0.1611 -0.0932
C29F C -0.3163(5) -0.1033(7) -0.10403(15)
H27F H -0.3456 -0.1221 -0.0840
C30F C -0.3613(4) -0.0541(7) -0.1276(3)
H28F H -0.4222 -0.0394 -0.1240
C31F C -0.3203(4) -0.0271(4) -0.1552(2)
H29F H -0.3521 0.0073 -0.1713
C32F C -0.2301(3) -0.0481(2) -0.16123(11)
H30F H -0.2023 -0.0272 -0.1813
C33F C -0.12011(19) 0.57514(19) -0.02204(7)
C34F C -0.1448(3) 0.6157(3) 0.01322(9)
H31F H -0.1668 0.5684 0.0281
H32F H -0.1913 0.6610 0.0103
H33F H -0.0918 0.6432 0.0233
C35F C -0.0847(3) 0.6532(2) -0.04500(11)
H34F H -0.0689 0.6297 -0.0673
H35F H -0.0320 0.6800 -0.0345
H36F H -0.1313 0.6986 -0.0475
C36F C -0.20574(18) 0.53134(18) -0.03721(7)
C37F C -0.2455(2) 0.4597(2) -0.02000(8)
H37F H -0.2202 0.4405 0.0008
C38F C -0.3208(2) 0.4157(2) -0.03237(9)
H38F H -0.3463 0.3681 -0.0199
C39F C -0.3589(2) 0.4420(3) -0.06326(9)
H39F H -0.4094 0.4117 -0.0720
C40F C -0.3209(2) 0.5138(3) -0.08091(8)
H40F H -0.3463 0.5320 -0.1018
C41F C -0.2462(2) 0.5591(2) -0.06823(8)
H41F H -0.2224 0.6083 -0.0803
C42F C 0.17800(17) 0.46425(17) 0.03108(6)
C43F C 0.2625(2) 0.4630(2) 0.00815(8)
H42F H 0.2682 0.4045 -0.0026
H43F H 0.3155 0.4749 0.0219
H44F H 0.2570 0.5090 -0.0093
C44F C 0.1730(2) 0.56012(18) 0.04741(9)
H45F H 0.1206 0.5639 0.0621
H46F H 0.1684 0.6050 0.0295
H47F H 0.2269 0.5710 0.0608
C45F C 0.39938(19) 0.18484(17) -0.06175(6)
C46F C 0.3656(2) 0.2665(2) -0.07378(8)
H48F H 0.3784 0.3204 -0.0622
C47F C 0.3113(4) 0.2678(2) -0.10395(10)
H49F H 0.2888 0.3228 -0.1122
C48F C 0.2917(4) 0.1894(3) -0.12097(9)
H50F H 0.2557 0.1908 -0.1407
C49F C 0.3244(3) 0.1097(3) -0.10926(8)
H51F H 0.3108 0.0562 -0.1210
C50F C 0.3779(2) 0.1066(2) -0.08022(7)
H52F H 0.4002 0.0508 -0.0727
loop_
_geom_bond_atom_site_label_1
_geom_bond_atom_site_label_2
_geom_bond_site_symmetry_1
_geom_bond_site_symmetry_2
Na1 O1 1_555 1_555
Na2 O1 1_555 1_555
O1 C1 1_555 1_555
O2 Na2 1_555 1_555
O3 Na1 1_555 1_555
C1 C2 1_555 1_555
C2 C3 1_555 1_555
C3 H1 1_555 1_555
C4 C3 1_555 1_555
C5 C4 1_555 1_555
H2 C5 1_555 1_555
C6 C1 1_555 1_555
C7 O2 1_555 1_555
H3 C7 1_555 1_555
H4 C7 1_555 1_555
C8 O2 1_555 1_555
H5 C8 1_555 1_555
H6 C8 1_555 1_555
C9 C8 1_555 1_555
C10 C9 1_555 1_555
H7 C10 1_555 1_555
C11 C10 1_555 1_555
C12 C11 1_555 1_555
H8 C12 1_555 1_555
C13 C12 1_555 1_555
C14 O3 1_555 1_555
C15 C2 1_555 1_555
C16 C15 1_555 1_555
H9 C16 1_555 1_555
H10 C16 1_555 1_555
H11 C16 1_555 1_555
C17 C15 1_555 1_555
H12 C17 1_555 1_555
H13 C17 1_555 1_555
H14 C17 1_555 1_555
C18 Na2 1_555 1_555
C19 Na2 1_555 1_555
H15 C19 1_555 1_555
C20 C19 1_555 1_555
H16 C20 1_555 1_555
C21 C20 1_555 1_555
H17 C21 1_555 1_555
C22 C21 1_555 1_555
H18 C22 1_555 1_555
C23 Na2 1_555 1_555
H19 C23 1_555 1_555
C24 C4 1_555 1_555
C25 C24 1_555 1_555
H20 C25 1_555 1_555
H21 C25 1_555 1_555
H22 C25 1_555 1_555
C26 C24 1_555 1_555
H23 C26 1_555 1_555
H24 C26 1_555 1_555
H25 C26 1_555 1_555
C27 C24 1_555 1_555
C28 C27 1_555 1_555
H26 C28 1_555 1_555
C29 C28 1_555 1_555
H27 C29 1_555 1_555
C30 C29 1_555 1_555
H28 C30 1_555 1_555
C31 C30 1_555 1_555
H29 C31 1_555 1_555
C32 C27 1_555 1_555
H30 C32 1_555 1_555
C33 C11 1_555 1_555
C34 C33 1_555 1_555
H31 C34 1_555 1_555
H32 C34 1_555 1_555
H33 C34 1_555 1_555
C35 C33 1_555 1_555
H34 C35 1_555 1_555
H35 C35 1_555 1_555
H36 C35 1_555 1_555
C36 C33 1_555 1_555
C37 C36 1_555 1_555
H37 C37 1_555 1_555
C38 C37 1_555 1_555
H38 C38 1_555 1_555
C39 C38 1_555 1_555
H39 C39 1_555 1_555
C40 C39 1_555 1_555
H40 C40 1_555 1_555
C41 C36 1_555 1_555
H41 C41 1_555 1_555
C42 C13 1_555 1_555
C43 C42 1_555 1_555
H42 C43 1_555 1_555
H43 C43 1_555 1_555
H44 C43 1_555 1_555
C44 C42 1_555 1_555
H45 C44 1_555 1_555
H46 C44 1_555 1_555
H47 C44 1_555 1_555
C45 Na1 1_555 1_555
C46 Na1 1_555 1_555
H48 C46 1_555 1_555
C47 C46 1_555 1_555
H49 C47 1_555 1_555
C48 C47 1_555 1_555
H50 C48 1_555 1_555
C49 C48 1_555 1_555
H51 C49 1_555 1_555
C50 Na1 1_555 1_555
H52 C50 1_555 1_555
Na1F O3 1_555 1_555
Na2F O1 1_555 1_555
O1F Na2 1_555 1_555
O2F Na2F 1_555 1_555
O3F Na1 1_555 1_555
C1F O1F 1_555 1_555
C2F C1F 1_555 1_555
C3F C2F 1_555 1_555
H1F C3F 1_555 1_555
C4F C3F 1_555 1_555
C5F C4F 1_555 1_555
H2F C5F 1_555 1_555
C6F C1F 1_555 1_555
C7F O2F 1_555 1_555
H3F C7F 1_555 1_555
H4F C7F 1_555 1_555
C8F O2F 1_555 1_555
H5F C8F 1_555 1_555
H6F C8F 1_555 1_555
C9F C8F 1_555 1_555
C10F C9F 1_555 1_555
H7F C10F 1_555 1_555
C11F C10F 1_555 1_555
C12F C11F 1_555 1_555
H8F C12F 1_555 1_555
C13F C12F 1_555 1_555
C14F O3F 1_555 1_555
C15F C18 1_555 1_555
C16F C15F 1_555 1_555
H9F C16F 1_555 1_555
H10F C16F 1_555 1_555
H11F C16F 1_555 1_555
C17F C15F 1_555 1_555
H12F C17F 1_555 1_555
H13F C17F 1_555 1_555
H14F C17F 1_555 1_555
C18F C15 1_555 1_555
C19F Na2F 1_555 1_555
H15F C19F 1_555 1_555
C20F C19F 1_555 1_555
H16F C20F 1_555 1_555
C21F C20F 1_555 1_555
H17F C21F 1_555 1_555
C22F C21F 1_555 1_555
H18F C22F 1_555 1_555
C23F Na2F 1_555 1_555
H19F C23F 1_555 1_555
C24F C4F 1_555 1_555
C25F C24F 1_555 1_555
H20F C25F 1_555 1_555
H21F C25F 1_555 1_555
H22F C25F 1_555 1_555
C26F C24F 1_555 1_555
H23F C26F 1_555 1_555
H24F C26F 1_555 1_555
H25F C26F 1_555 1_555
C27F C24F 1_555 1_555
C28F C27F 1_555 1_555
H26F C28F 1_555 1_555
C29F C28F 1_555 1_555
H27F C29F 1_555 1_555
C30F C29F 1_555 1_555
H28F C30F 1_555 1_555
C31F C30F 1_555 1_555
H29F C31F 1_555 1_555
C32F C27F 1_555 1_555
H30F C32F 1_555 1_555
C33F C11F 1_555 1_555
C34F C33F 1_555 1_555
H31F C34F 1_555 1_555
H32F C34F 1_555 1_555
H33F C34F 1_555 1_555
C35F C33F 1_555 1_555
H34F C35F 1_555 1_555
H35F C35F 1_555 1_555
H36F C35F 1_555 1_555
C36F C33F 1_555 1_555
C37F C36F 1_555 1_555
H37F C37F 1_555 1_555
C38F C37F 1_555 1_555
H38F C38F 1_555 1_555
C39F C38F 1_555 1_555
H39F C39F 1_555 1_555
C40F C39F 1_555 1_555
H40F C40F 1_555 1_555
C41F C36F 1_555 1_555
H41F C41F 1_555 1_555
C42F C45 1_555 1_555
C43F C42F 1_555 1_555
H42F C43F 1_555 1_555
H43F C43F 1_555 1_555
H44F C43F 1_555 1_555
C44F C42F 1_555 1_555
H45F C44F 1_555 1_555
H46F C44F 1_555 1_555
H47F C44F 1_555 1_555
C45F C42 1_555 1_555
C46F Na1F 1_555 1_555
H48F C46F 1_555 1_555
C47F C46F 1_555 1_555
H49F C47F 1_555 1_555
C48F C47F 1_555 1_555
H50F C48F 1_555 1_555
C49F C48F 1_555 1_555
H51F C49F 1_555 1_555
C50F Na1F 1_555 1_555
H52F C50F 1_555 1_555
Na2 O3 1_555 1_555
C5 C6 1_555 1_555
C6 C7 1_555 1_555
C9 C14 1_555 1_555
C13 C14 1_555 1_555
C18 C19 1_555 1_555
C18 C23 1_555 1_555
C22 C23 1_555 1_555
C31 C32 1_555 1_555
C40 C41 1_555 1_555
C45 C46 1_555 1_555
C45 C50 1_555 1_555
C49 C50 1_555 1_555
Na1F O1F 1_555 1_555
Na1F O3F 1_555 1_555
Na1F C45F 1_555 1_555
Na2F O1F 1_555 1_555
Na2F O3F 1_555 1_555
Na2F C18F 1_555 1_555
C2F C15F 1_555 1_555
C5F C6F 1_555 1_555
C6F C7F 1_555 1_555
C9F C14F 1_555 1_555
C13F C14F 1_555 1_555
C13F C42F 1_555 1_555
C18F C19F 1_555 1_555
C18F C23F 1_555 1_555
C22F C23F 1_555 1_555
C31F C32F 1_555 1_555
C40F C41F 1_555 1_555
C45F C46F 1_555 1_555
C45F C50F 1_555 1_555
C49F C50F 1_555 1_555

#END
