
#######################################################################
#
#                 Cambridge Crystallographic Data Centre
#                                CCDC 
#
#######################################################################
#
# If this CIF has been generated from an entry in the Cambridge 
# Structural Database, then it will include bibliographic, chemical, 
# crystal, experimental, refinement or atomic coordinate data resulting 
# from the CCDC's data processing and validation procedures.
#
#######################################################################

data_AVOPOR
_chemical_formula_moiety         'C54 H61 Na1 O4'
_chemical_name_systematic        
(2-(((2-(Hydroxy)-3,5-bis(2-phenylpropan-2-yl)phenyl)methoxy)methyl)-6-(2-(phenyl)propan-2-yl)-4-(2-phenylpropan-2-yl)phenolato)(tetrahydrofuran)sodium
_symmetry_cell_setting           monoclinic
_symmetry_space_group_name_H-M   'P 21/c'
_symmetry_Int_Tables_number      14
_space_group_name_Hall           '-P 2ybc'
loop_
_symmetry_equiv_pos_site_id
_symmetry_equiv_pos_as_xyz
1 x,y,z
2 -x,1/2+y,1/2-z
3 -x,-y,-z
4 x,1/2-y,1/2+z
_cell_length_a                   12.7587(12)
_cell_length_b                   16.6797(14)
_cell_length_c                   22.181(2)
_cell_angle_alpha                90
_cell_angle_beta                 93.089(2)
_cell_angle_gamma                90
_cell_volume                     4713.51
_exptl_crystal_colour            colorless
_exptl_crystal_description       block
_cell_formula_units_Z            4
loop_
_atom_site_label
_atom_site_type_symbol
_atom_site_fract_x
_atom_site_fract_y
_atom_site_fract_z
Na1 Na 0.18591(10) 0.53596(8) 0.02623(6)
O1 O 0.1324(2) 0.40634(13) 0.00759(9)
O2 O 0.09983(16) 0.51333(13) 0.11651(9)
O3 O 0.05404(17) 0.62641(12) 0.00724(8)
O4 O 0.3333(2) 0.5791(2) 0.08854(11)
C1 C 0.1863(3) 0.3674(2) 0.05242(14)
C2 C 0.2739(3) 0.3214(2) 0.03965(14)
C3 C 0.3308(3) 0.2849(2) 0.08755(17)
H1 H 0.3882 0.2533 0.0791
C4 C 0.3051(3) 0.2939(3) 0.14806(16)
C5 C 0.2186(3) 0.3396(2) 0.15892(16)
H2 H 0.1989 0.3455 0.1984
C6 C 0.1598(3) 0.37723(19) 0.11288(14)
C7 C 0.0708(3) 0.4313(2) 0.12689(14)
H3 H 0.0092 0.4176 0.1015
H4 H 0.0539 0.4244 0.1687
C8 C 0.0132(3) 0.5663(2) 0.12255(14)
H5 H -0.0131 0.5612 0.1626
H6 H -0.0431 0.5525 0.0932
C9 C 0.0484(2) 0.6506(2) 0.11253(13)
C10 C 0.0634(3) 0.7032(2) 0.16176(14)
H7 H 0.0517 0.6843 0.2003
C11 C 0.0945(3) 0.7809(2) 0.15522(14)
C12 C 0.1115(3) 0.8065(2) 0.09657(15)
H8 H 0.1307 0.8597 0.0911
C13 C 0.1016(3) 0.7576(2) 0.04588(13)
C14 C 0.0676(2) 0.6783(2) 0.05411(13)
C15 C 0.3022(3) 0.3084(2) -0.02634(15)
C16 C 0.2193(3) 0.2522(2) -0.05574(17)
H9 H 0.1511 0.2760 -0.0535
H10 H 0.2210 0.2018 -0.0348
H11 H 0.2340 0.2437 -0.0973
C17 C 0.4106(3) 0.2674(3) -0.03088(18)
H12 H 0.4248 0.2602 -0.0726
H13 H 0.4099 0.2161 -0.0112
H14 H 0.4642 0.3004 -0.0116
C18 C 0.3081(3) 0.3885(2) -0.05859(14)
C19 C 0.3615(3) 0.4522(3) -0.03220(19)
C20 C 0.3670(3) 0.5268(3) -0.0587(2)
C21 C 0.3200(3) 0.5387(3) -0.1151(2)
H15 H 0.3224 0.5887 -0.1336
C22 C 0.2695(3) 0.4757(3) -0.14369(18)
H16 H 0.2390 0.4829 -0.1824
C23 C 0.2629(3) 0.4022(2) -0.11646(15)
H17 H 0.2277 0.3607 -0.1369
C24 C 0.3777(5) 0.2601(4) 0.2008(2)
C25 C 0.3264(5) 0.2473(4) 0.2555(2)
H18 H 0.2748 0.2058 0.2495
H19 H 0.2928 0.2959 0.2671
H20 H 0.3772 0.2315 0.2867
C26 C 0.4642(6) 0.3322(4) 0.2179(3)
H21 H 0.5114 0.3146 0.2504
H22 H 0.4279 0.3794 0.2300
H23 H 0.5032 0.3441 0.1832
C27 C 0.4388(4) 0.1902(4) 0.17933(18)
C28 C 0.5422(7) 0.1951(5) 0.1661(3)
H24 H 0.5756 0.2444 0.1711
C29 C 0.6053(10) 0.1261(12) 0.1439(6)
H25 H 0.6752 0.1271 0.1340
C30 C 0.5434(11) 0.0653(10) 0.1414(5)
H26 H 0.5765 0.0200 0.1270
C31 C 0.4411(11) 0.0494(7) 0.1542(4)
H27 H 0.4085 -0.0004 0.1511
C32 C 0.3963(6) 0.1174(6) 0.1720(3)
H28 H 0.3258 0.1135 0.1804
C33 C 0.1153(3) 0.8394(2) 0.20783(15)
C34 C 0.0982(4) 0.8006(2) 0.26922(15)
H29 H 0.0259 0.7853 0.2711
H30 H 0.1160 0.8382 0.3009
H31 H 0.1419 0.7540 0.2741
C35 C 0.2326(4) 0.8634(3) 0.20895(19)
H32 H 0.2476 0.8879 0.1712
H33 H 0.2754 0.8165 0.2152
H34 H 0.2476 0.9008 0.2412
C36 C 0.0437(4) 0.9108(3) 0.20059(14)
C37 C 0.0766(4) 0.9892(3) 0.20282(17)
H35 H 0.1481 1.0000 0.2079
C38 C 0.0062(8) 1.0527(4) 0.1977(2)
H36 H 0.0308 1.1052 0.1982
C39 C -0.0990(8) 1.0378(5) 0.1920(3)
H37 H -0.1466 1.0801 0.1905
C40 C -0.1335(5) 0.9618(5) 0.1885(2)
H38 H -0.2051 0.9516 0.1833
C41 C -0.0636(5) 0.8986(3) 0.19256(18)
H39 H -0.0892 0.8465 0.1898
C42 C 0.1242(3) 0.7906(2) -0.01734(15)
C43 C 0.1929(4) 0.7322(2) -0.05259(18)
H40 H 0.2597 0.7255 -0.0311
H41 H 0.2033 0.7537 -0.0920
H42 H 0.1584 0.6812 -0.0565
C44 C 0.0174(4) 0.8004(3) -0.05266(18)
H43 H -0.0260 0.8365 -0.0314
H44 H -0.0166 0.7491 -0.0565
H45 H 0.0283 0.8215 -0.0921
C45 C 0.1832(4) 0.8701(3) -0.01152(16)
C46 C 0.2866(5) 0.8712(3) 0.0110(2)
H46 H 0.3194 0.8232 0.0221
C47 C 0.3429(5) 0.9434(5) 0.0174(3)
H47 H 0.4121 0.9429 0.0329
C48 C 0.2961(8) 1.0141(5) 0.0010(4)
H48 H 0.3330 1.0621 0.0049
C49 C 0.1959(8) 1.0135(4) -0.0211(3)
H49 H 0.1635 1.0617 -0.0321
C50 C 0.1401(5) 0.9429(3) -0.0276(2)
H50 H 0.0711 0.9447 -0.0434
C51 C 0.3419(4) 0.6559(3) 0.1160(3)
H51 H 0.2762 0.6849 0.1103
H52 H 0.3968 0.6870 0.0984
C52 C 0.3673(7) 0.6423(5) 0.1802(3)
H53 H 0.4260 0.6758 0.1940
H54 H 0.3075 0.6553 0.2036
C53 C 0.3936(7) 0.5606(5) 0.1872(3)
H55 H 0.4658 0.5551 0.2027
H56 H 0.3484 0.5352 0.2153
C54 C 0.3802(4) 0.5247(3) 0.1300(2)
H57 H 0.3362 0.4775 0.1326
H58 H 0.4478 0.5080 0.1164
H59 H 0.061(3) 0.395(2) 0.0026(18)
H60 H 0.397(2) 0.4452(17) 0.0036(15)
H61 H 0.408(3) 0.573(2) -0.0345(16)
loop_
_geom_bond_atom_site_label_1
_geom_bond_atom_site_label_2
_geom_bond_site_symmetry_1
_geom_bond_site_symmetry_2
Na1 O1 1_555 1_555
O1 C1 1_555 1_555
O2 Na1 1_555 1_555
O3 Na1 1_555 1_555
O4 Na1 1_555 1_555
C1 C2 1_555 1_555
C2 C3 1_555 1_555
C3 H1 1_555 1_555
C4 C3 1_555 1_555
C5 C4 1_555 1_555
H2 C5 1_555 1_555
C6 C1 1_555 1_555
C7 O2 1_555 1_555
H3 C7 1_555 1_555
H4 C7 1_555 1_555
C8 O2 1_555 1_555
H5 C8 1_555 1_555
H6 C8 1_555 1_555
C9 C8 1_555 1_555
C10 C9 1_555 1_555
H7 C10 1_555 1_555
C11 C10 1_555 1_555
C12 C11 1_555 1_555
H8 C12 1_555 1_555
C13 C12 1_555 1_555
C14 O3 1_555 1_555
C15 C2 1_555 1_555
C16 C15 1_555 1_555
H9 C16 1_555 1_555
H10 C16 1_555 1_555
H11 C16 1_555 1_555
C17 C15 1_555 1_555
H12 C17 1_555 1_555
H13 C17 1_555 1_555
H14 C17 1_555 1_555
C18 C15 1_555 1_555
C19 C18 1_555 1_555
C20 C19 1_555 1_555
C21 C20 1_555 1_555
H15 C21 1_555 1_555
C22 C21 1_555 1_555
H16 C22 1_555 1_555
C23 C18 1_555 1_555
H17 C23 1_555 1_555
C24 C4 1_555 1_555
C25 C24 1_555 1_555
H18 C25 1_555 1_555
H19 C25 1_555 1_555
H20 C25 1_555 1_555
C26 C24 1_555 1_555
H21 C26 1_555 1_555
H22 C26 1_555 1_555
H23 C26 1_555 1_555
C27 C24 1_555 1_555
C28 C27 1_555 1_555
H24 C28 1_555 1_555
C29 C28 1_555 1_555
H25 C29 1_555 1_555
C30 C29 1_555 1_555
H26 C30 1_555 1_555
C31 C30 1_555 1_555
H27 C31 1_555 1_555
C32 C27 1_555 1_555
H28 C32 1_555 1_555
C33 C11 1_555 1_555
C34 C33 1_555 1_555
H29 C34 1_555 1_555
H30 C34 1_555 1_555
H31 C34 1_555 1_555
C35 C33 1_555 1_555
H32 C35 1_555 1_555
H33 C35 1_555 1_555
H34 C35 1_555 1_555
C36 C33 1_555 1_555
C37 C36 1_555 1_555
H35 C37 1_555 1_555
C38 C37 1_555 1_555
H36 C38 1_555 1_555
C39 C38 1_555 1_555
H37 C39 1_555 1_555
C40 C39 1_555 1_555
H38 C40 1_555 1_555
C41 C36 1_555 1_555
H39 C41 1_555 1_555
C42 C13 1_555 1_555
C43 C42 1_555 1_555
H40 C43 1_555 1_555
H41 C43 1_555 1_555
H42 C43 1_555 1_555
C44 C42 1_555 1_555
H43 C44 1_555 1_555
H44 C44 1_555 1_555
H45 C44 1_555 1_555
C45 C42 1_555 1_555
C46 C45 1_555 1_555
H46 C46 1_555 1_555
C47 C46 1_555 1_555
H47 C47 1_555 1_555
C48 C47 1_555 1_555
H48 C48 1_555 1_555
C49 C48 1_555 1_555
H49 C49 1_555 1_555
C50 C45 1_555 1_555
H50 C50 1_555 1_555
C51 O4 1_555 1_555
H51 C51 1_555 1_555
H52 C51 1_555 1_555
C52 C51 1_555 1_555
H53 C52 1_555 1_555
H54 C52 1_555 1_555
C53 C52 1_555 1_555
H55 C53 1_555 1_555
H56 C53 1_555 1_555
C54 O4 1_555 1_555
H57 C54 1_555 1_555
H58 C54 1_555 1_555
H59 O1 1_555 1_555
H60 C19 1_555 1_555
H61 C20 1_555 1_555
C5 C6 1_555 1_555
C6 C7 1_555 1_555
C9 C14 1_555 1_555
C13 C14 1_555 1_555
C22 C23 1_555 1_555
C31 C32 1_555 1_555
C40 C41 1_555 1_555
C49 C50 1_555 1_555
C53 C54 1_555 1_555

#END
