
#######################################################################
#
#                 Cambridge Crystallographic Data Centre
#                                CCDC 
#
#######################################################################
#
# If this CIF has been generated from an entry in the Cambridge 
# Structural Database, then it will include bibliographic, chemical, 
# crystal, experimental, refinement or atomic coordinate data resulting 
# from the CCDC's data processing and validation procedures.
#
#######################################################################

data_AVOQIM
_chemical_formula_moiety         'C60 H90 Li2 O6,2(C7 H8 O1)'
_chemical_name_systematic        
"bis(\m~2~-2,2'-(Oxybis(methylene))bis(4,6-di-t-butylphenol))-di-lithium phenylmethanol solvate"
_symmetry_cell_setting           monoclinic
_symmetry_space_group_name_H-M   'P 21/c'
_symmetry_Int_Tables_number      14
_space_group_name_Hall           '-P 2ybc'
loop_
_symmetry_equiv_pos_site_id
_symmetry_equiv_pos_as_xyz
1 x,y,z
2 -x,1/2+y,1/2-z
3 -x,-y,-z
4 x,1/2-y,1/2+z
_cell_length_a                   14.687(5)
_cell_length_b                   14.445(5)
_cell_length_c                   17.536(6)
_cell_angle_alpha                90
_cell_angle_beta                 104.027(7)
_cell_angle_gamma                90
_cell_volume                     3609.39
_exptl_crystal_colour            white
_exptl_crystal_description       block
_cell_formula_units_Z            2
loop_
_atom_site_label
_atom_site_type_symbol
_atom_site_fract_x
_atom_site_fract_y
_atom_site_fract_z
Li1 Li 0.4413(3) -0.0613(3) -0.0019(3)
O1 O 0.34924(17) -0.12661(16) -0.08759(12)
O2 O 0.35751(13) -0.07548(13) 0.07250(11)
O3 O 0.56857(13) -0.07038(12) 0.01449(11)
C1 C 0.32861(19) -0.2128(2) -0.05886(18)
C2 C 0.35095(19) -0.2936(2) -0.09373(17)
C3 C 0.3330(2) -0.3756(2) -0.05877(19)
H1 H 0.3488 -0.4308 -0.0796
C4 C 0.2931(2) -0.3809(2) 0.00509(18)
C5 C 0.27281(19) -0.2981(2) 0.03746(17)
H2 H 0.2466 -0.2991 0.0807
C6 C 0.29091(18) -0.2142(2) 0.00663(17)
C7 C 0.2708(2) -0.12510(19) 0.04472(17)
H3 H 0.2430 -0.1386 0.0883
H4 H 0.2269 -0.0877 0.0069
C8 C 0.3421(2) 0.0168(2) 0.10021(17)
H5 H 0.3030 0.0121 0.1374
H6 H 0.4019 0.0429 0.1276
C9 C 0.2957(2) 0.0812(2) 0.03458(18)
C10 C 0.2062(2) 0.1142(2) 0.02938(19)
H7 H 0.1747 0.0954 0.0668
C11 C 0.1616(2) 0.1742(2) -0.0296(2)
C12 C 0.2129(2) 0.19982(19) -0.08370(18)
H8 H 0.1848 0.2402 -0.1238
C13 C 0.3036(2) 0.16890(19) -0.08156(18)
C14 C 0.6525(2) -0.1071(2) 0.02080(19)
C15 C 0.3560(2) 0.2018(2) -0.14270(19)
C16 C 0.4449(2) 0.2554(2) -0.1022(2)
H9 H 0.4278 0.3083 -0.0756
H10 H 0.4855 0.2159 -0.0648
H11 H 0.4769 0.2756 -0.1409
C17 C 0.2944(2) 0.2670(2) -0.2046(2)
H12 H 0.2774 0.3205 -0.1788
H13 H 0.3291 0.2859 -0.2418
H14 H 0.2387 0.2348 -0.2315
C18 C 0.3824(2) 0.1181(2) -0.18709(19)
H15 H 0.4213 0.0766 -0.1504
H16 H 0.3264 0.0865 -0.2142
H17 H 0.4161 0.1390 -0.2245
C19 C 0.0618(2) 0.2084(2) -0.0349(2)
C20 C 0.0262(3) 0.2751(3) -0.1020(3)
H18 H 0.0245 0.2446 -0.1510
H19 H -0.0358 0.2953 -0.1012
H20 H 0.0673 0.3276 -0.0964
C21 C -0.0051(3) 0.1279(3) -0.0406(3)
H21 H -0.0081 0.0948 -0.0887
H22 H 0.0167 0.0872 0.0032
H23 H -0.0664 0.1506 -0.0402
C22 C 0.0603(3) 0.2603(3) 0.0408(3)
H24 H 0.1017 0.3126 0.0465
H25 H -0.0023 0.2812 0.0386
H26 H 0.0807 0.2197 0.0850
C23 C 0.2743(4) -0.4725(2) 0.0430(3)
C24 C 0.1655(12) -0.4772(9) 0.0480(9)
H27 H 0.1509 -0.4234 0.0750
H28 H 0.1255 -0.4790 -0.0041
H29 H 0.1558 -0.5318 0.0761
C25 C 0.3497(11) -0.4841(8) 0.1238(7)
H30 H 0.4115 -0.4831 0.1146
H31 H 0.3435 -0.4342 0.1583
H32 H 0.3398 -0.5419 0.1474
C26 C 0.2828(13) -0.5585(8) -0.0045(7)
H33 H 0.3445 -0.5612 -0.0139
H34 H 0.2723 -0.6125 0.0241
H35 H 0.2369 -0.5561 -0.0539
C27 C 0.3940(3) -0.2928(2) -0.1649(2)
C28 C 0.3305(3) -0.2415(3) -0.2338(2)
H36 H 0.3210 -0.1792 -0.2182
H37 H 0.3595 -0.2404 -0.2773
H38 H 0.2711 -0.2726 -0.2492
C29 C 0.4081(3) -0.3912(2) -0.1938(2)
H39 H 0.3485 -0.4217 -0.2097
H40 H 0.4364 -0.3876 -0.2376
H41 H 0.4483 -0.4255 -0.1520
C30 C 0.4916(2) -0.2467(2) -0.1421(2)
H42 H 0.4854 -0.1844 -0.1250
H43 H 0.5317 -0.2810 -0.1003
H44 H 0.5185 -0.2459 -0.1868
H45 H 0.293(3) -0.091(2) -0.104(2)
Li1B Li 0.5587(3) 0.0613(3) 0.0019(3)
O1B O 0.65076(17) 0.12661(16) 0.08759(12)
O2B O 0.64249(13) 0.07548(13) -0.07250(11)
O3B O 0.43143(13) 0.07038(12) -0.01449(11)
C1B C 0.67139(19) 0.2128(2) 0.05886(18)
C2B C 0.64905(19) 0.2936(2) 0.09373(17)
C3B C 0.6670(2) 0.3756(2) 0.05877(19)
H1B H 0.6512 0.4308 0.0796
C4B C 0.7069(2) 0.3809(2) -0.00509(18)
C5B C 0.72719(19) 0.2981(2) -0.03746(17)
H2B H 0.7534 0.2991 -0.0807
C6B C 0.70909(18) 0.2142(2) -0.00663(17)
C7B C 0.7292(2) 0.12510(19) -0.04472(17)
H3B H 0.7570 0.1386 -0.0883
H4B H 0.7731 0.0877 -0.0069
C8B C 0.6579(2) -0.0168(2) -0.10021(17)
H5B H 0.6970 -0.0121 -0.1374
H6B H 0.5981 -0.0429 -0.1276
C9B C 0.7043(2) -0.0812(2) -0.03458(18)
C10B C 0.7938(2) -0.1142(2) -0.02938(19)
H7B H 0.8253 -0.0954 -0.0668
C11B C 0.8384(2) -0.1742(2) 0.0296(2)
C12B C 0.7871(2) -0.19982(19) 0.08370(18)
H8B H 0.8152 -0.2402 0.1238
C13B C 0.6964(2) -0.16890(19) 0.08156(18)
C14B C 0.3475(2) 0.1071(2) -0.02080(19)
C15B C 0.6440(2) -0.2018(2) 0.14270(19)
C16B C 0.5551(2) -0.2554(2) 0.1022(2)
H9B H 0.5722 -0.3083 0.0756
H10B H 0.5145 -0.2159 0.0648
H11B H 0.5231 -0.2756 0.1409
C17B C 0.7056(2) -0.2670(2) 0.2046(2)
H12B H 0.7226 -0.3205 0.1788
H13B H 0.6709 -0.2859 0.2418
H14B H 0.7613 -0.2348 0.2315
C18B C 0.6176(2) -0.1181(2) 0.18709(19)
H15B H 0.5787 -0.0766 0.1504
H16B H 0.6736 -0.0865 0.2142
H17B H 0.5839 -0.1390 0.2245
C19B C 0.9382(2) -0.2084(2) 0.0349(2)
C20B C 0.9738(3) -0.2751(3) 0.1020(3)
H18B H 0.9755 -0.2446 0.1510
H19B H 1.0358 -0.2953 0.1012
H20B H 0.9327 -0.3276 0.0964
C21B C 1.0051(3) -0.1279(3) 0.0406(3)
H21B H 1.0081 -0.0948 0.0887
H22B H 0.9833 -0.0872 -0.0032
H23B H 1.0664 -0.1506 0.0402
C22B C 0.9397(3) -0.2603(3) -0.0408(3)
H24B H 0.8983 -0.3126 -0.0465
H25B H 1.0023 -0.2812 -0.0386
H26B H 0.9193 -0.2197 -0.0850
C23B C 0.7257(4) 0.4725(2) -0.0430(3)
C24B C 0.8345(12) 0.4772(9) -0.0480(9)
H27B H 0.8491 0.4234 -0.0750
H28B H 0.8745 0.4790 0.0041
H29B H 0.8442 0.5318 -0.0761
C25B C 0.6503(11) 0.4841(8) -0.1238(7)
H30B H 0.5885 0.4831 -0.1146
H31B H 0.6565 0.4342 -0.1583
H32B H 0.6602 0.5419 -0.1474
C26B C 0.7172(13) 0.5585(8) 0.0045(7)
H33B H 0.6555 0.5612 0.0139
H34B H 0.7277 0.6125 -0.0241
H35B H 0.7631 0.5561 0.0539
C27B C 0.6060(3) 0.2928(2) 0.1649(2)
C28B C 0.6695(3) 0.2415(3) 0.2338(2)
H36B H 0.6790 0.1792 0.2182
H37B H 0.6405 0.2404 0.2773
H38B H 0.7289 0.2726 0.2492
C29B C 0.5919(3) 0.3912(2) 0.1938(2)
H39B H 0.6515 0.4217 0.2097
H40B H 0.5636 0.3876 0.2376
H41B H 0.5517 0.4255 0.1520
C30B C 0.5084(2) 0.2467(2) 0.1421(2)
H42B H 0.5146 0.1844 0.1250
H43B H 0.4683 0.2810 0.1003
H44B H 0.4815 0.2459 0.1868
H45B H 0.707(3) 0.091(2) 0.104(2)
O4 O 0.8101(2) 0.0294(2) 0.1397(2)
C31 C 0.8529(6) 0.0352(7) 0.2201(4)
C32 C 0.9563(4) 0.0107(5) 0.2371(3)
C33 C 0.9677(7) -0.0648(7) 0.2800(6)
H46 H 0.9147 -0.0879 0.2936
C34 C 1.0461(13) -0.1115(12) 0.3057(6)
H47 H 1.0525 -0.1699 0.3286
C35 C 1.1148(8) -0.0579(12) 0.2922(9)
H48 H 1.1696 -0.0866 0.3200
C36 C 1.1380(16) -0.0019(18) 0.2673(15)
H49 H 1.1988 0.0162 0.2674
C37 C 1.0322(9) 0.0497(6) 0.2245(4)
H50 H 1.0067 0.0886 0.1825
H51 H 0.826(6) -0.022(6) 0.126(5)
H52? H 0.8216 -0.0066 0.2488
H53? H 0.8461 0.0976 0.2383
C38? C 0.809(3) 0.4692(17) -0.055(3)
C39? C 0.700(4) 0.469(2) -0.1187(18)
C40? C 0.679(3) 0.5480(19) -0.002(2)
C41? C 0.8920(11) 0.0798(11) 0.1704(12)
C42? C 1.0997(15) 0.0627(18) 0.2324(13)
H54? H 0.8545 0.4789 -0.0066
H55? H 0.8150 0.5165 -0.0921
H56? H 0.8187 0.4096 -0.0762
H57? H 0.6327 0.4668 -0.1351
H58? H 0.7257 0.4143 -0.1368
H59? H 0.7225 0.5227 -0.1405
H60? H 0.6160 0.5296 -0.0028
H61? H 0.6776 0.6055 -0.0299
H62? H 0.7143 0.5556 0.0511
H63? H 0.8779 0.1370 0.1941
H64? H 0.9241 0.0944 0.1296
H65? H 1.1388 0.1107 0.2197
loop_
_geom_bond_atom_site_label_1
_geom_bond_atom_site_label_2
_geom_bond_site_symmetry_1
_geom_bond_site_symmetry_2
Li1 O1 1_555 1_555
O1 C1 1_555 1_555
O2 Li1 1_555 1_555
O3 Li1 1_555 1_555
C1 C2 1_555 1_555
C2 C3 1_555 1_555
C3 H1 1_555 1_555
C4 C3 1_555 1_555
C5 C4 1_555 1_555
H2 C5 1_555 1_555
C6 C1 1_555 1_555
C7 O2 1_555 1_555
H3 C7 1_555 1_555
H4 C7 1_555 1_555
C8 O2 1_555 1_555
H5 C8 1_555 1_555
H6 C8 1_555 1_555
C9 C8 1_555 1_555
C10 C9 1_555 1_555
H7 C10 1_555 1_555
C11 C10 1_555 1_555
C12 C11 1_555 1_555
H8 C12 1_555 1_555
C13 C12 1_555 1_555
C14 O3 1_555 1_555
C15 C13 1_555 1_555
C16 C15 1_555 1_555
H9 C16 1_555 1_555
H10 C16 1_555 1_555
H11 C16 1_555 1_555
C17 C15 1_555 1_555
H12 C17 1_555 1_555
H13 C17 1_555 1_555
H14 C17 1_555 1_555
C18 C15 1_555 1_555
H15 C18 1_555 1_555
H16 C18 1_555 1_555
H17 C18 1_555 1_555
C19 C11 1_555 1_555
C20 C19 1_555 1_555
H18 C20 1_555 1_555
H19 C20 1_555 1_555
H20 C20 1_555 1_555
C21 C19 1_555 1_555
H21 C21 1_555 1_555
H22 C21 1_555 1_555
H23 C21 1_555 1_555
C22 C19 1_555 1_555
H24 C22 1_555 1_555
H25 C22 1_555 1_555
H26 C22 1_555 1_555
C23 C4 1_555 1_555
C24 C23 1_555 1_555
H27 C24 1_555 1_555
H28 C24 1_555 1_555
H29 C24 1_555 1_555
C25 C23 1_555 1_555
H30 C25 1_555 1_555
H31 C25 1_555 1_555
H32 C25 1_555 1_555
C26 C23 1_555 1_555
H33 C26 1_555 1_555
H34 C26 1_555 1_555
H35 C26 1_555 1_555
C27 C2 1_555 1_555
C28 C27 1_555 1_555
H36 C28 1_555 1_555
H37 C28 1_555 1_555
H38 C28 1_555 1_555
C29 C27 1_555 1_555
H39 C29 1_555 1_555
H40 C29 1_555 1_555
H41 C29 1_555 1_555
C30 C27 1_555 1_555
H42 C30 1_555 1_555
H43 C30 1_555 1_555
H44 C30 1_555 1_555
H45 O1 1_555 1_555
O4 C31 1_555 1_555
C31 C32 1_555 1_555
C32 C33 1_555 1_555
C33 H46 1_555 1_555
C34 C33 1_555 1_555
H47 C34 1_555 1_555
C35 C34 1_555 1_555
H48 C35 1_555 1_555
C36 C35 1_555 1_555
H49 C36 1_555 1_555
C37 C32 1_555 1_555
H50 C37 1_555 1_555
H51 O4 1_555 1_555
Li1B O3 1_555 1_555
O1B Li1B 1_555 1_555
O2B Li1B 1_555 1_555
O3B Li1 1_555 1_555
C1B O1B 1_555 1_555
C2B C1B 1_555 1_555
C3B C2B 1_555 1_555
H1B C3B 1_555 1_555
C4B C3B 1_555 1_555
C5B C4B 1_555 1_555
H2B C5B 1_555 1_555
C6B C1B 1_555 1_555
C7B O2B 1_555 1_555
H3B C7B 1_555 1_555
H4B C7B 1_555 1_555
C8B O2B 1_555 1_555
H5B C8B 1_555 1_555
H6B C8B 1_555 1_555
C9B C14 1_555 1_555
C10B C9B 1_555 1_555
H7B C10B 1_555 1_555
C11B C10B 1_555 1_555
C12B C11B 1_555 1_555
H8B C12B 1_555 1_555
C13B C14 1_555 1_555
C14B C9 1_555 1_555
C15B C13B 1_555 1_555
C16B C15B 1_555 1_555
H9B C16B 1_555 1_555
H10B C16B 1_555 1_555
H11B C16B 1_555 1_555
C17B C15B 1_555 1_555
H12B C17B 1_555 1_555
H13B C17B 1_555 1_555
H14B C17B 1_555 1_555
C18B C15B 1_555 1_555
H15B C18B 1_555 1_555
H16B C18B 1_555 1_555
H17B C18B 1_555 1_555
C19B C11B 1_555 1_555
C20B C19B 1_555 1_555
H18B C20B 1_555 1_555
H19B C20B 1_555 1_555
H20B C20B 1_555 1_555
C21B C19B 1_555 1_555
H21B C21B 1_555 1_555
H22B C21B 1_555 1_555
H23B C21B 1_555 1_555
C22B C19B 1_555 1_555
H24B C22B 1_555 1_555
H25B C22B 1_555 1_555
H26B C22B 1_555 1_555
C23B C4B 1_555 1_555
C24B C23B 1_555 1_555
H27B C24B 1_555 1_555
H28B C24B 1_555 1_555
H29B C24B 1_555 1_555
C25B C23B 1_555 1_555
H30B C25B 1_555 1_555
H31B C25B 1_555 1_555
H32B C25B 1_555 1_555
C26B C23B 1_555 1_555
H33B C26B 1_555 1_555
H34B C26B 1_555 1_555
H35B C26B 1_555 1_555
C27B C2B 1_555 1_555
C28B C27B 1_555 1_555
H36B C28B 1_555 1_555
H37B C28B 1_555 1_555
H38B C28B 1_555 1_555
C29B C27B 1_555 1_555
H39B C29B 1_555 1_555
H40B C29B 1_555 1_555
H41B C29B 1_555 1_555
C30B C27B 1_555 1_555
H42B C30B 1_555 1_555
H43B C30B 1_555 1_555
H44B C30B 1_555 1_555
H45B O1B 1_555 1_555
C5 C6 1_555 1_555
C6 C7 1_555 1_555
C13 C14B 1_555 1_555
C36 C37 1_555 1_555
Li1B O3B 1_555 1_555
O3B C14B 1_555 1_555
C5B C6B 1_555 1_555
C6B C7B 1_555 1_555
C8B C9B 1_555 1_555
C12B C13B 1_555 1_555

#END
