
#######################################################################
#
#                 Cambridge Crystallographic Data Centre
#                                CCDC 
#
#######################################################################
#
# If this CIF has been generated from an entry in the Cambridge 
# Structural Database, then it will include bibliographic, chemical, 
# crystal, experimental, refinement or atomic coordinate data resulting 
# from the CCDC's data processing and validation procedures.
#
#######################################################################

data_AVOTUA
_chemical_formula_moiety         'C25 H28 N2 O3'
_chemical_name_systematic        
2-(4-t-Butylphenyl)-5-(4-(3,3-diethoxypropyn-1-yl)phenyl)-1,3,4-oxadiazole
_symmetry_cell_setting           monoclinic
_symmetry_space_group_name_H-M   'P 21/c'
_symmetry_Int_Tables_number      14
_space_group_name_Hall           '-P 2ybc'
loop_
_symmetry_equiv_pos_site_id
_symmetry_equiv_pos_as_xyz
1 x,y,z
2 x,1/2-y,1/2+z
3 -x,-y,-z
4 -x,1/2+y,1/2-z
_cell_length_a                   7.356(2)
_cell_length_b                   19.870(5)
_cell_length_c                   15.136(4)
_cell_angle_alpha                90
_cell_angle_beta                 91.37(1)
_cell_angle_gamma                90
_cell_volume                     2211.7
_exptl_crystal_colour            colorless
_exptl_crystal_description       prism
_chemical_melting_point          '355-357 K'
_cell_formula_units_Z            4
loop_
_atom_site_label
_atom_site_type_symbol
_atom_site_fract_x
_atom_site_fract_y
_atom_site_fract_z
O1 O 0.20939(12) 0.44763(5) 0.48344(6)
O2 O 0.61808(13) 0.63098(5) 1.06663(6)
O3 O 0.87986(13) 0.58319(5) 1.00869(6)
N1 N 0.15858(16) 0.52181(6) 0.37671(7)
N2 N 0.23110(16) 0.55582(6) 0.45103(7)
C1 C 0.14865(17) 0.45923(7) 0.39841(8)
C2 C 0.25856(17) 0.51061(7) 0.51132(9)
C3 C -0.1016(2) 0.23711(7) 0.17794(9)
C4 C -0.2660(3) 0.20102(10) 0.21613(12)
H1 H -0.242(3) 0.1859(10) 0.2758(13)
H2 H -0.301(2) 0.1614(9) 0.1788(11)
H3 H -0.371(3) 0.2323(10) 0.2169(12)
C5 C -0.1540(2) 0.25897(9) 0.08379(10)
H4 H -0.197(2) 0.2185(9) 0.0500(10)
H5 H -0.046(2) 0.2786(9) 0.0515(11)
H6 H -0.261(2) 0.2930(9) 0.0856(11)
C6 C 0.0589(3) 0.18792(9) 0.17307(13)
H7 H 0.026(3) 0.1501(10) 0.1363(13)
H8 H 0.096(2) 0.1720(9) 0.2328(12)
H9 H 0.170(3) 0.2102(9) 0.1456(11)
C7 C 0.54185(18) 0.55813(7) 0.85828(9)
C8 C 0.60798(19) 0.56928(7) 0.92955(9)
C9 C 0.69110(19) 0.57698(7) 1.01887(9)
H10 H 0.6620(19) 0.5369(7) 1.0559(9)
C10 C 0.08265(17) 0.40297(7) 0.34487(8)
C11 C 0.05626(19) 0.41234(8) 0.25432(9)
H11 H 0.081(2) 0.4541(9) 0.2279(10)
C12 C -0.00579(19) 0.35994(7) 0.20115(9)
H12 H -0.020(2) 0.3692(8) 0.1403(10)
C13 C -0.04280(18) 0.29693(7) 0.23590(9)
C14 C -0.0165(2) 0.28843(7) 0.32726(9)
H13 H -0.038(2) 0.2459(8) 0.3556(10)
C15 C 0.04546(19) 0.34045(7) 0.38109(9)
H14 H 0.059(2) 0.3329(8) 0.4446(11)
C16 C 0.6443(2) 0.69521(8) 1.02619(11)
H15 H 0.592(2) 0.6937(8) 0.9678(11)
H16 H 0.778(2) 0.7054(8) 1.0223(10)
C17 C 0.5534(2) 0.74724(10) 1.08194(14)
H17 H 0.419(3) 0.7392(9) 1.0842(11)
H18 H 0.606(3) 0.7477(10) 1.1423(14)
H19 H 0.569(3) 0.7927(11) 1.0526(12)
C18 C 0.9813(2) 0.56820(9) 1.08881(10)
H20 H 0.970(2) 0.5175(10) 1.0993(11)
H21 H 0.924(2) 0.5925(9) 1.1377(11)
C19 C 1.1745(2) 0.58856(9) 1.07597(13)
H22 H 1.250(3) 0.5758(9) 1.1299(12)
H23 H 1.179(2) 0.6384(10) 1.0670(11)
H24 H 1.222(3) 0.5657(10) 1.0246(13)
C20 C 0.33174(17) 0.52057(7) 0.60067(8)
C21 C 0.37934(19) 0.58569(7) 0.62652(9)
H25 H 0.364(2) 0.6204(8) 0.5845(10)
C22 C 0.44685(19) 0.59775(7) 0.71073(9)
H26 H 0.479(2) 0.6434(8) 0.7281(10)
C23 C 0.46843(17) 0.54492(7) 0.77088(8)
C24 C 0.42095(19) 0.47972(7) 0.74483(9)
H27 H 0.434(2) 0.4427(8) 0.7854(10)
C25 C 0.35336(19) 0.46769(7) 0.66022(9)
H28 H 0.320(2) 0.4228(8) 0.6428(9)
loop_
_geom_bond_atom_site_label_1
_geom_bond_atom_site_label_2
_geom_bond_site_symmetry_1
_geom_bond_site_symmetry_2
O1 C1 1_555 1_555
O2 C9 1_555 1_555
O3 C9 1_555 1_555
N1 N2 1_555 1_555
N2 C2 1_555 1_555
C1 N1 1_555 1_555
C2 O1 1_555 1_555
C3 C4 1_555 1_555
C4 H1 1_555 1_555
H2 C4 1_555 1_555
H3 C4 1_555 1_555
C5 C3 1_555 1_555
H4 C5 1_555 1_555
H5 C5 1_555 1_555
H6 C5 1_555 1_555
C6 C3 1_555 1_555
H7 C6 1_555 1_555
H8 C6 1_555 1_555
H9 C6 1_555 1_555
C7 C8 1_555 1_555
C8 C9 1_555 1_555
C9 H10 1_555 1_555
C10 C1 1_555 1_555
C11 C10 1_555 1_555
H11 C11 1_555 1_555
C12 C11 1_555 1_555
H12 C12 1_555 1_555
C13 C3 1_555 1_555
C14 C13 1_555 1_555
H13 C14 1_555 1_555
C15 C10 1_555 1_555
H14 C15 1_555 1_555
C16 O2 1_555 1_555
H15 C16 1_555 1_555
H16 C16 1_555 1_555
C17 C16 1_555 1_555
H17 C17 1_555 1_555
H18 C17 1_555 1_555
H19 C17 1_555 1_555
C18 O3 1_555 1_555
H20 C18 1_555 1_555
H21 C18 1_555 1_555
C19 C18 1_555 1_555
H22 C19 1_555 1_555
H23 C19 1_555 1_555
H24 C19 1_555 1_555
C20 C2 1_555 1_555
C21 C20 1_555 1_555
H25 C21 1_555 1_555
C22 C21 1_555 1_555
H26 C22 1_555 1_555
C23 C7 1_555 1_555
C24 C23 1_555 1_555
H27 C24 1_555 1_555
C25 C20 1_555 1_555
H28 C25 1_555 1_555
C12 C13 1_555 1_555
C14 C15 1_555 1_555
C22 C23 1_555 1_555
C24 C25 1_555 1_555

#END
