
#######################################################################
#
#                 Cambridge Crystallographic Data Centre
#                                CCDC 
#
#######################################################################
#
# If this CIF has been generated from an entry in the Cambridge 
# Structural Database, then it will include bibliographic, chemical, 
# crystal, experimental, refinement or atomic coordinate data resulting 
# from the CCDC's data processing and validation procedures.
#
#######################################################################

data_AVOVEM
_chemical_formula_moiety         'C21 H18 N2 O2'
_chemical_name_systematic        
(3-(4-(5-(4-t-Butylphenyl)-1,3,4-oxadiazol-2-yl))phenyl)propynal
_symmetry_cell_setting           monoclinic
_symmetry_space_group_name_H-M   'P 21/c'
_symmetry_Int_Tables_number      14
_space_group_name_Hall           '-P 2ybc'
loop_
_symmetry_equiv_pos_site_id
_symmetry_equiv_pos_as_xyz
1 x,y,z
2 x,1/2-y,1/2+z
3 -x,-y,-z
4 -x,1/2+y,1/2-z
_cell_length_a                   11.945(2)
_cell_length_b                   6.183(1)
_cell_length_c                   23.460(5)
_cell_angle_alpha                90
_cell_angle_beta                 97.94(1)
_cell_angle_gamma                90
_cell_volume                     1716.05
_exptl_crystal_colour            yellow
_exptl_crystal_description       prism
_chemical_melting_point          152-155deg.C.(dec.)
_cell_formula_units_Z            4
loop_
_atom_site_label
_atom_site_type_symbol
_atom_site_fract_x
_atom_site_fract_y
_atom_site_fract_z
O1 O 0.27571(9) 0.18054(17) 0.38309(5)
O2 O 0.42917(17) -0.4583(3) 0.77257(7)
N1 N 0.34072(12) 0.5065(2) 0.36748(7)
N2 N 0.37884(12) 0.4473(2) 0.42459(6)
C1 C 0.28139(13) 0.3457(3) 0.34482(7)
C2 C 0.33891(13) 0.2573(3) 0.43201(7)
C3 C 0.04374(14) 0.2617(3) 0.11273(7)
C4 C -0.06284(16) 0.1230(3) 0.10996(9)
H1 H -0.0988(17) 0.116(3) 0.0688(9)
H2 H -0.0468(18) -0.021(4) 0.1223(10)
H3 H -0.1192(19) 0.187(3) 0.1332(9)
C5 C 0.0081(2) 0.4818(3) 0.08586(9)
H4 H 0.073(2) 0.573(4) 0.0820(10)
H5 H -0.0352(19) 0.458(3) 0.0474(10)
H6 H -0.040(2) 0.560(4) 0.1129(12)
C6 C 0.12634(18) 0.1513(5) 0.07770(10)
H7 H 0.0902(19) 0.136(4) 0.0381(10)
H8 H 0.150(2) 0.001(4) 0.0943(11)
H9 H 0.195(2) 0.242(4) 0.0775(10)
C7 C 0.39055(15) -0.2686(3) 0.63202(8)
C8 C 0.39989(16) -0.3829(3) 0.67409(8)
C9 C 0.4132(2) -0.5218(4) 0.72413(10)
H10 H 0.4143(19) -0.693(4) 0.7086(9)
C10 C 0.21994(14) 0.3244(3) 0.28722(7)
C11 C 0.15367(18) 0.1442(3) 0.27111(8)
H11 H 0.146(2) 0.032(4) 0.2986(11)
C12 C 0.09619(18) 0.1266(3) 0.21595(8)
H12 H 0.055(2) 0.006(4) 0.2072(10)
C13 C 0.10257(14) 0.2862(3) 0.17471(7)
C14 C 0.16965(16) 0.4669(3) 0.19190(8)
H13 H 0.1777(19) 0.582(4) 0.1628(10)
C15 C 0.22695(17) 0.4866(3) 0.24683(8)
H14 H 0.2725(18) 0.606(4) 0.2596(9)
C16 C 0.35226(13) 0.1239(3) 0.48338(7)
C17 C 0.30540(14) -0.0839(3) 0.48180(8)
H15 H 0.2644(18) -0.136(3) 0.4453(9)
C18 C 0.31830(15) -0.2099(3) 0.53051(8)
H16 H 0.2830(18) -0.358(4) 0.5297(9)
C19 C 0.37816(13) -0.1336(3) 0.58204(7)
C20 C 0.42682(15) 0.0736(3) 0.58327(8)
H17 H 0.4720(16) 0.118(3) 0.6182(9)
C21 C 0.41409(14) 0.2003(3) 0.53434(8)
H18 H 0.4484(16) 0.334(3) 0.5339(8)
loop_
_geom_bond_atom_site_label_1
_geom_bond_atom_site_label_2
_geom_bond_site_symmetry_1
_geom_bond_site_symmetry_2
O1 C1 1_555 1_555
O2 C9 1_555 1_555
N1 N2 1_555 1_555
N2 C2 1_555 1_555
C1 N1 1_555 1_555
C2 O1 1_555 1_555
C3 C4 1_555 1_555
C4 H1 1_555 1_555
H2 C4 1_555 1_555
H3 C4 1_555 1_555
C5 C3 1_555 1_555
H4 C5 1_555 1_555
H5 C5 1_555 1_555
H6 C5 1_555 1_555
C6 C3 1_555 1_555
H7 C6 1_555 1_555
H8 C6 1_555 1_555
H9 C6 1_555 1_555
C7 C8 1_555 1_555
C8 C9 1_555 1_555
C9 H10 1_555 1_555
C10 C1 1_555 1_555
C11 C10 1_555 1_555
H11 C11 1_555 1_555
C12 C11 1_555 1_555
H12 C12 1_555 1_555
C13 C3 1_555 1_555
C14 C13 1_555 1_555
H13 C14 1_555 1_555
C15 C10 1_555 1_555
H14 C15 1_555 1_555
C16 C2 1_555 1_555
C17 C16 1_555 1_555
H15 C17 1_555 1_555
C18 C17 1_555 1_555
H16 C18 1_555 1_555
C19 C7 1_555 1_555
C20 C19 1_555 1_555
H17 C20 1_555 1_555
C21 C16 1_555 1_555
H18 C21 1_555 1_555
C12 C13 1_555 1_555
C14 C15 1_555 1_555
C18 C19 1_555 1_555
C20 C21 1_555 1_555

#END
