
#######################################################################
#
#                 Cambridge Crystallographic Data Centre
#                                CCDC 
#
#######################################################################
#
# If this CIF has been generated from an entry in the Cambridge 
# Structural Database, then it will include bibliographic, chemical, 
# crystal, experimental, refinement or atomic coordinate data resulting 
# from the CCDC's data processing and validation procedures.
#
#######################################################################

data_AVOVAI
_chemical_formula_moiety         'C27 H28 N2 O3'
_chemical_name_systematic        
2-(4-t-Butylphenyl)-5-(4-(5,5-diethoxy-1,3-pentadiyn-1-yl)phenyl)-1,3,4-oxadiazole
_symmetry_cell_setting           monoclinic
_symmetry_space_group_name_H-M   'P 21/c'
_symmetry_Int_Tables_number      14
_space_group_name_Hall           '-P 2ybc'
loop_
_symmetry_equiv_pos_site_id
_symmetry_equiv_pos_as_xyz
1 x,y,z
2 x,1/2-y,1/2+z
3 -x,-y,-z
4 -x,1/2+y,1/2-z
_cell_length_a                   14.835(5)
_cell_length_b                   6.161(1)
_cell_length_c                   25.549(3)
_cell_angle_alpha                90
_cell_angle_beta                 91.14(1)
_cell_angle_gamma                90
_cell_volume                     2334.68
_exptl_crystal_colour            colorless
_exptl_crystal_description       plate
_chemical_melting_point          '414-416 K'
_cell_formula_units_Z            4
loop_
_atom_site_label
_atom_site_type_symbol
_atom_site_fract_x
_atom_site_fract_y
_atom_site_fract_z
O1 O 0.39789(7) 0.52895(18) 0.21761(4)
O2 O 0.81485(8) 0.14954(19) -0.18377(4)
O3 O 0.83892(7) -0.15732(19) -0.13629(5)
N1 N 0.40465(9) 0.8612(2) 0.25052(5)
N2 N 0.45463(9) 0.8566(2) 0.20420(5)
C1 C 0.37374(10) 0.6662(3) 0.25674(6)
C2 C 0.44905(10) 0.6593(3) 0.18681(6)
C3 C 0.13510(10) 0.3885(3) 0.42101(6)
C4 C 0.13030(14) 0.1434(3) 0.42945(8)
H1 H 0.1105(14) 0.064(4) 0.3960(8)
H2 H 0.0845(14) 0.109(3) 0.4575(8)
H3 H 0.1883(16) 0.087(4) 0.4437(9)
C5 C 0.15812(18) 0.4921(4) 0.47421(8)
H4 H 0.1121(14) 0.434(4) 0.5001(8)
H5 H 0.1516(18) 0.657(5) 0.4733(10)
H6 H 0.2243(18) 0.441(4) 0.4868(10)
C6 C 0.04263(13) 0.4710(4) 0.40145(10)
H7 H -0.0054(16) 0.433(4) 0.4258(9)
H8 H 0.0281(15) 0.395(4) 0.3667(10)
H9 H 0.0463(17) 0.635(5) 0.3979(10)
C7 C 0.60826(10) 0.3161(3) 0.00451(6)
C8 C 0.64285(10) 0.2426(3) -0.03367(6)
C9 C 0.68323(10) 0.1560(3) -0.07693(6)
C10 C 0.72051(10) 0.0832(3) -0.11437(6)
C11 C 0.31797(10) 0.5859(3) 0.29883(6)
C12 C 0.30108(11) 0.7218(3) 0.34115(6)
H10 H 0.3298(13) 0.858(3) 0.3432(8)
C13 C 0.24570(11) 0.6533(3) 0.38070(7)
H11 H 0.2343(14) 0.753(4) 0.4087(8)
C14 C 0.20422(10) 0.4503(3) 0.37983(6)
C15 C 0.22422(12) 0.3137(3) 0.33800(7)
H12 H 0.2011(13) 0.168(4) 0.3361(8)
C16 C 0.28088(12) 0.3791(3) 0.29845(7)
H13 H 0.2966(13) 0.281(4) 0.2717(8)
C17 C 0.85393(13) 0.0778(3) -0.23177(7)
H14 H 0.8052(13) 0.052(3) -0.2573(8)
H15 H 0.8878(14) -0.052(4) -0.2251(8)
C18 C 0.91496(15) 0.2539(4) -0.25069(9)
H16 H 0.9651(17) 0.284(4) -0.2250(10)
H17 H 0.8811(15) 0.388(4) -0.2526(8)
H18 H 0.9398(16) 0.213(4) -0.2850(10)
C19 C 0.80420(12) -0.3571(3) -0.11638(8)
H19 H 0.7752(15) -0.439(4) -0.1477(9)
H20 H 0.7581(14) -0.318(4) -0.0883(8)
C20 C 0.88297(14) -0.4821(3) -0.09426(10)
H21 H 0.9290(18) -0.506(4) -0.1238(10)
H22 H 0.9144(16) -0.400(4) -0.0655(10)
H23 H 0.8633(16) -0.628(4) -0.0799(10)
C21 C 0.48917(10) 0.5687(3) 0.14011(6)
C22 C 0.54959(10) 0.6955(3) 0.11199(6)
H24 H 0.5656(13) 0.831(3) 0.1237(8)
C23 C 0.58834(11) 0.6137(3) 0.06744(6)
H25 H 0.6292(12) 0.700(3) 0.0479(7)
C24 C 0.56710(10) 0.4035(3) 0.05013(6)
C25 C 0.50588(11) 0.2777(3) 0.07820(6)
H26 H 0.4902(12) 0.132(3) 0.0665(7)
C26 C 0.46795(11) 0.3594(3) 0.12311(6)
H27 H 0.4270(12) 0.270(3) 0.1413(7)
C27 C 0.77150(11) -0.0166(3) -0.15717(6)
H28 H 0.7306(12) -0.102(3) -0.1808(7)
loop_
_geom_bond_atom_site_label_1
_geom_bond_atom_site_label_2
_geom_bond_site_symmetry_1
_geom_bond_site_symmetry_2
O1 C1 1_555 1_555
O2 C17 1_555 1_555
O3 C19 1_555 1_555
N1 N2 1_555 1_555
N2 C2 1_555 1_555
C1 N1 1_555 1_555
C2 O1 1_555 1_555
C3 C4 1_555 1_555
C4 H1 1_555 1_555
H2 C4 1_555 1_555
H3 C4 1_555 1_555
C5 C3 1_555 1_555
H4 C5 1_555 1_555
H5 C5 1_555 1_555
H6 C5 1_555 1_555
C6 C3 1_555 1_555
H7 C6 1_555 1_555
H8 C6 1_555 1_555
H9 C6 1_555 1_555
C7 C8 1_555 1_555
C8 C9 1_555 1_555
C9 C10 1_555 1_555
C10 C27 1_555 1_555
C11 C1 1_555 1_555
C12 C11 1_555 1_555
H10 C12 1_555 1_555
C13 C12 1_555 1_555
H11 C13 1_555 1_555
C14 C3 1_555 1_555
C15 C14 1_555 1_555
H12 C15 1_555 1_555
C16 C11 1_555 1_555
H13 C16 1_555 1_555
C17 H14 1_555 1_555
H15 C17 1_555 1_555
C18 C17 1_555 1_555
H16 C18 1_555 1_555
H17 C18 1_555 1_555
H18 C18 1_555 1_555
C19 H19 1_555 1_555
H20 C19 1_555 1_555
C20 C19 1_555 1_555
H21 C20 1_555 1_555
H22 C20 1_555 1_555
H23 C20 1_555 1_555
C21 C2 1_555 1_555
C22 C21 1_555 1_555
H24 C22 1_555 1_555
C23 C22 1_555 1_555
H25 C23 1_555 1_555
C24 C7 1_555 1_555
C25 C24 1_555 1_555
H26 C25 1_555 1_555
C26 C21 1_555 1_555
H27 C26 1_555 1_555
C27 O2 1_555 1_555
H28 C27 1_555 1_555
O3 C27 1_555 1_555
C13 C14 1_555 1_555
C15 C16 1_555 1_555
C23 C24 1_555 1_555
C25 C26 1_555 1_555

#END
