
#######################################################################
#
#                 Cambridge Crystallographic Data Centre
#                                CCDC 
#
#######################################################################
#
# If this CIF has been generated from an entry in the Cambridge 
# Structural Database, then it will include bibliographic, chemical, 
# crystal, experimental, refinement or atomic coordinate data resulting 
# from the CCDC's data processing and validation procedures.
#
#######################################################################

data_AVOWOZ
_chemical_compound_source        
'isolated from the red alga Laurencia composita Yamada'
_chemical_name_common            'yicterpene A'
_chemical_formula_moiety         'C15 H21 Br1 Cl2 O3'
_chemical_name_systematic        
3-bromo-4,9-dichloro-4,11,12,12-tetramethyl-7-oxatricyclo[6.3.1.0^1,6^]dodec-9-ene-8,11-diol
_symmetry_cell_setting           orthorhombic
_symmetry_space_group_name_H-M   'P 21 21 21'
_symmetry_Int_Tables_number      19
_space_group_name_Hall           'P 2ac 2ab'
loop_
_symmetry_equiv_pos_site_id
_symmetry_equiv_pos_as_xyz
1 x,y,z
2 1/2+x,1/2-y,-z
3 -x,1/2+y,1/2-z
4 1/2-x,-y,1/2+z
_cell_length_a                   6.7172(15)
_cell_length_b                   12.898(3)
_cell_length_c                   18.716(4)
_cell_angle_alpha                90
_cell_angle_beta                 90
_cell_angle_gamma                90
_cell_volume                     1621.53
_exptl_crystal_colour            colorless
_exptl_crystal_description       block
_cell_formula_units_Z            4
loop_
_atom_site_label
_atom_site_type_symbol
_atom_site_fract_x
_atom_site_fract_y
_atom_site_fract_z
Br1 Br 0.51707(6) 0.48126(3) 1.07270(2)
Cl1 Cl 0.81855(12) 0.23687(7) 0.65738(4)
Cl2 Cl 0.96805(14) 0.56785(8) 0.97737(5)
O1 O 0.7097(3) 0.46045(16) 0.75516(10)
O2 O 0.8248(4) 0.27934(19) 0.91339(11)
H1 H 0.872(6) 0.227(3) 0.922(2)
O3 O 0.5066(4) 0.40002(19) 0.66554(11)
H2 H 0.586(7) 0.404(4) 0.641(3)
C1 C 0.6124(7) 0.6640(3) 0.96853(19)
H3 H 0.4726 0.6613 0.9581
H4 H 0.6717 0.7209 0.9432
H5 H 0.6311 0.6735 1.0190
C2 C 0.7098(5) 0.5636(2) 0.94545(15)
C3 C 0.7108(5) 0.5590(2) 0.86317(15)
H6 H 0.5896 0.5911 0.8457
H7 H 0.8219 0.5999 0.8458
C4 C 0.7259(4) 0.4513(2) 0.83190(14)
H8 H 0.8555 0.4213 0.8442
C5 C 0.5554(4) 0.3757(2) 0.85695(14)
C6 C 0.4172(4) 0.3743(2) 0.78921(15)
C7 C 0.2886(5) 0.4722(3) 0.78136(18)
H9 H 0.2168 0.4693 0.7371
H10 H 0.3727 0.5324 0.7817
H11 H 0.1961 0.4760 0.8204
C8 C 0.7024(4) 0.2782(2) 0.73620(15)
C9 C 0.5827(4) 0.3774(2) 0.73229(14)
C10 C 0.6210(4) 0.4625(2) 0.97522(14)
H12 H 0.7291 0.4116 0.9779
C11 C 0.4607(4) 0.4176(2) 0.92614(15)
H13 H 0.3645 0.4711 0.9145
H14 H 0.3913 0.3620 0.9506
C12 C 0.6506(4) 0.2658(2) 0.86780(14)
C13 C 0.7313(4) 0.2269(2) 0.79665(15)
H15 H 0.8029 0.1652 0.7956
C14 C 0.5196(6) 0.1842(2) 0.90400(17)
H16 H 0.5757 0.1166 0.8964
H17 H 0.3881 0.1866 0.8840
H18 H 0.5129 0.1980 0.9543
C15 C 0.2751(5) 0.2816(3) 0.7786(2)
H19 H 0.1793 0.2803 0.8167
H20 H 0.3502 0.2183 0.7789
H21 H 0.2073 0.2886 0.7337
loop_
_geom_bond_atom_site_label_1
_geom_bond_atom_site_label_2
_geom_bond_site_symmetry_1
_geom_bond_site_symmetry_2
Br1 C10 1_555 1_555
Cl1 C8 1_555 1_555
Cl2 C2 1_555 1_555
O1 C4 1_555 1_555
O2 H1 1_555 1_555
O3 H2 1_555 1_555
C1 H3 1_555 1_555
H4 C1 1_555 1_555
H5 C1 1_555 1_555
C2 C1 1_555 1_555
C3 C2 1_555 1_555
H6 C3 1_555 1_555
H7 C3 1_555 1_555
C4 C3 1_555 1_555
H8 C4 1_555 1_555
C5 C4 1_555 1_555
C6 C5 1_555 1_555
C7 C6 1_555 1_555
H9 C7 1_555 1_555
H10 C7 1_555 1_555
H11 C7 1_555 1_555
C8 C9 1_555 1_555
C9 O1 1_555 1_555
C10 C2 1_555 1_555
H12 C10 1_555 1_555
C11 C5 1_555 1_555
H13 C11 1_555 1_555
H14 C11 1_555 1_555
C12 O2 1_555 1_555
C13 C8 1_555 1_555
H15 C13 1_555 1_555
C14 C12 1_555 1_555
H16 C14 1_555 1_555
H17 C14 1_555 1_555
H18 C14 1_555 1_555
C15 C6 1_555 1_555
H19 C15 1_555 1_555
H20 C15 1_555 1_555
H21 C15 1_555 1_555
O3 C9 1_555 1_555
C5 C12 1_555 1_555
C6 C9 1_555 1_555
C10 C11 1_555 1_555
C12 C13 1_555 1_555

#END
