
#######################################################################
#
#                 Cambridge Crystallographic Data Centre
#                                CCDC 
#
#######################################################################
#
# If this CIF has been generated from an entry in the Cambridge 
# Structural Database, then it will include bibliographic, chemical, 
# crystal, experimental, refinement or atomic coordinate data resulting 
# from the CCDC's data processing and validation procedures.
#
#######################################################################

data_AVUHEG
_chemical_formula_moiety         'C15 H15 N1 O1'
_chemical_name_systematic        
1-(4-methylphenyl)-2-(pyridin-2-yl)propan-1-one
_symmetry_cell_setting           orthorhombic
_symmetry_space_group_name_H-M   'P 21 21 21'
_symmetry_Int_Tables_number      19
_space_group_name_Hall           'P 2ac 2ab'
loop_
_symmetry_equiv_pos_site_id
_symmetry_equiv_pos_as_xyz
1 x,y,z
2 1/2-x,-y,1/2+z
3 -x,1/2+y,1/2-z
4 1/2+x,1/2-y,-z
_cell_length_a                   6.8411(4)
_cell_length_b                   10.6073(7)
_cell_length_c                   17.5834(11)
_cell_angle_alpha                90
_cell_angle_beta                 90
_cell_angle_gamma                90
_cell_volume                     1275.95
_exptl_crystal_colour            yellow
_exptl_crystal_description       Block
_cell_formula_units_Z            4
loop_
_atom_site_label
_atom_site_type_symbol
_atom_site_fract_x
_atom_site_fract_y
_atom_site_fract_z
C1 C 0.4368(2) 0.20964(14) 0.24622(9)
C2 C 0.2524(2) 0.17096(14) 0.20741(8)
C3 C 0.3885(2) 0.11534(14) 0.37408(8)
C4 C 0.5253(2) 0.12481(14) 0.30665(8)
H1 H 0.5400 0.0403 0.2848
C5 C 0.1788(2) 0.04941(14) 0.20996(9)
H2 H 0.2440 -0.0120 0.2379
C6 C 0.1512(3) 0.26013(16) 0.16592(10)
H3 H 0.1984 0.3423 0.1632
C7 C 0.0097(3) 0.01850(15) 0.17142(10)
H4 H -0.0364 -0.0639 0.1733
C8 C 0.7277(2) 0.17047(18) 0.33174(10)
H5 H 0.8135 0.1729 0.2886
H6 H 0.7796 0.1137 0.3692
H7 H 0.7170 0.2534 0.3532
C9 C 0.2594(3) 0.00775(19) 0.48154(10)
H8 H 0.2507 -0.0635 0.5122
C10 C 0.3785(3) 0.00770(16) 0.41800(10)
H9 H 0.4506 -0.0635 0.4051
C11 C 0.1548(3) 0.1132(2) 0.49872(10)
H10 H 0.0737 0.1155 0.5411
C12 C -0.0921(3) 0.10718(18) 0.13026(10)
C13 C -0.0189(3) 0.22867(18) 0.12841(11)
H11 H -0.0859 0.2904 0.1013
C14 C 0.1721(3) 0.21526(19) 0.45211(11)
H12 H 0.0995 0.2868 0.4638
C15 C -0.2774(3) 0.0734(2) 0.08837(14)
H13 H -0.3572 0.1473 0.0829
H14 H -0.3477 0.0106 0.1166
H15 H -0.2451 0.0409 0.0390
N1 N 0.2870(2) 0.21893(12) 0.39058(7)
O1 O 0.5161(2) 0.30817(11) 0.22889(8)
loop_
_geom_bond_atom_site_label_1
_geom_bond_atom_site_label_2
_geom_bond_site_symmetry_1
_geom_bond_site_symmetry_2
C1 C2 1_555 1_555
C2 C5 1_555 1_555
C3 C4 1_555 1_555
C4 C1 1_555 1_555
H1 C4 1_555 1_555
C5 H2 1_555 1_555
C6 C2 1_555 1_555
H3 C6 1_555 1_555
C7 C5 1_555 1_555
H4 C7 1_555 1_555
C8 C4 1_555 1_555
H5 C8 1_555 1_555
H6 C8 1_555 1_555
H7 C8 1_555 1_555
C9 H8 1_555 1_555
C10 C3 1_555 1_555
H9 C10 1_555 1_555
C11 C9 1_555 1_555
H10 C11 1_555 1_555
C12 C7 1_555 1_555
C13 C6 1_555 1_555
H11 C13 1_555 1_555
C14 C11 1_555 1_555
H12 C14 1_555 1_555
C15 C12 1_555 1_555
H13 C15 1_555 1_555
H14 C15 1_555 1_555
H15 C15 1_555 1_555
N1 C3 1_555 1_555
O1 C1 1_555 1_555
C9 C10 1_555 1_555
C12 C13 1_555 1_555
C14 N1 1_555 1_555

#END
