
#######################################################################
#
#                 Cambridge Crystallographic Data Centre
#                                CCDC 
#
#######################################################################
#
# If this CIF has been generated from an entry in the Cambridge 
# Structural Database, then it will include bibliographic, chemical, 
# crystal, experimental, refinement or atomic coordinate data resulting 
# from the CCDC's data processing and validation procedures.
#
#######################################################################

data_AVURUF
_chemical_formula_moiety         'C74 H14,C1 S2'
_chemical_name_systematic        
'1,4-Dibenzyl-C60fullerene carbon disulfide solvate'
_symmetry_cell_setting           monoclinic
_symmetry_space_group_name_H-M   'P 21/n'
_symmetry_Int_Tables_number      14
_space_group_name_Hall           '-P 2yn'
loop_
_symmetry_equiv_pos_site_id
_symmetry_equiv_pos_as_xyz
1 x,y,z
2 1/2-x,1/2+y,1/2-z
3 -x,-y,-z
4 1/2+x,1/2-y,1/2+z
_cell_length_a                   9.8789(3)
_cell_length_b                   16.4178(5)
_cell_length_c                   24.5759(7)
_cell_angle_alpha                90
_cell_angle_beta                 100.1171(18)
_cell_angle_gamma                90
_cell_volume                     3923.98
_exptl_crystal_colour            black
_exptl_crystal_description       chunk
_cell_formula_units_Z            2
loop_
_atom_site_label
_atom_site_type_symbol
_atom_site_fract_x
_atom_site_fract_y
_atom_site_fract_z
S1 S 0.31898(14) 0.89013(8) 0.13987(5)
S2 S 0.07603(17) 0.78247(9) 0.15920(8)
C70 C 0.1975(5) 0.8352(2) 0.1494(2)
C1 C 0.4008(4) 0.5500(2) 0.27384(15)
C2 C 0.5412(4) 0.5401(2) 0.25635(16)
C3 C 0.5994(4) 0.5968(2) 0.22705(15)
C4 C 0.5330(4) 0.6768(2) 0.20736(16)
C5 C 0.4254(4) 0.6967(2) 0.24362(15)
C6 C 0.3674(3) 0.6404(2) 0.27285(15)
C7 C 0.3261(4) 0.6648(3) 0.32397(18)
C8 C 0.3605(4) 0.5938(3) 0.36457(19)
C9 C 0.4202(4) 0.5308(2) 0.33582(16)
C10 C 0.5252(5) 0.4855(2) 0.3629(2)
C11 C 0.6433(6) 0.4642(2) 0.3404(2)
C12 C 0.6499(5) 0.4912(2) 0.28922(19)
C13 C 0.7862(5) 0.5236(3) 0.2764(2)
C14 C 0.7490(4) 0.5896(2) 0.23822(17)
C15 C 0.8311(5) 0.6581(3) 0.24158(19)
C16 C 0.7743(5) 0.7366(3) 0.23596(19)
C17 C 0.6374(4) 0.7463(3) 0.22435(16)
C18 C 0.5724(5) 0.8113(2) 0.25422(19)
C19 C 0.4423(4) 0.7790(2) 0.26567(16)
C20 C 0.3963(4) 0.7992(3) 0.31340(18)
C21 C 0.3393(4) 0.7416(3) 0.3435(2)
C22 C 0.3880(4) 0.7585(3) 0.4038(2)
C23 C 0.4151(5) 0.6916(3) 0.4388(2)
C24 C 0.4013(5) 0.6093(3) 0.4203(2)
C25 C 0.5075(5) 0.5609(3) 0.4485(2)
C26 C 0.5730(5) 0.5020(3) 0.4239(2)
C27 C 0.7193(6) 0.4894(3) 0.4342(2)
C28 C 0.7649(6) 0.4676(2) 0.3852(2)
C29 C 0.8866(6) 0.4965(3) 0.3715(2)
C30 C 0.9001(5) 0.5254(3) 0.3176(2)
C31 C 0.9845(5) 0.5936(3) 0.3211(2)
C32 C 0.9561(5) 0.6598(3) 0.2870(2)
C33 C 0.9683(5) 0.7433(3) 0.3058(2)
C34 C 0.8617(5) 0.7907(3) 0.2767(2)
C35 C 0.7971(5) 0.8510(3) 0.3009(2)
C36 C 0.6510(5) 0.8629(2) 0.2908(2)
C37 C 0.6067(5) 0.8844(2) 0.3396(2)
C38 C 0.4863(5) 0.8559(2) 0.3537(2)
C39 C 0.4745(5) 0.8266(3) 0.4081(2)
C40 C 0.5866(5) 0.8295(3) 0.4493(2)
C41 C 0.6209(4) 0.7626(3) 0.48812(17)
C42 C 0.5389(5) 0.6936(3) 0.48369(19)
C43 C 0.5944(6) 0.6156(4) 0.4891(2)
C44 C 0.7313(5) 0.6063(3) 0.50017(17)
C45 C 0.7987(6) 0.5384(3) 0.4713(2)
C46 C 0.9296(4) 0.5721(3) 0.46067(19)
C47 C 0.9751(5) 0.5518(3) 0.4121(2)
C48 C 1.0321(5) 0.6108(3) 0.3816(2)
C49 C 1.0466(4) 0.6880(3) 0.4010(2)
C50 C 1.0127(4) 0.7590(3) 0.3601(2)
C51 C 0.9499(4) 0.8218(2) 0.38983(18)
C52 C 0.9452(4) 0.7927(2) 0.44479(17)
C53 C 1.0012(4) 0.7122(2) 0.45141(17)
C54 C 0.9414(4) 0.6541(2) 0.48164(17)
C55 C 0.8229(4) 0.6755(2) 0.50526(17)
C56 C 0.7684(4) 0.7539(2) 0.49918(16)
C57 C 0.8299(4) 0.8136(2) 0.46802(17)
C58 C 0.7206(5) 0.8625(2) 0.43601(18)
C59 C 0.7285(5) 0.8877(2) 0.3844(2)
C60 C 0.8440(5) 0.8687(2) 0.3618(2)
C61 C 0.2850(4) 0.4938(2) 0.24211(17)
C62 C 0.2509(4) 0.5077(2) 0.18125(16)
C63 C 0.1471(4) 0.5611(2) 0.15933(18)
C64 C 0.1140(5) 0.5720(3) 0.1019(2)
C65 C 0.1799(5) 0.5291(2) 0.06734(18)
C66 C 0.2851(4) 0.4750(2) 0.08926(18)
C67 C 0.3188(4) 0.4650(2) 0.14544(16)
C68 C 0.4716(4) 0.6782(2) 0.14420(15)
C69 C 0.5805(4) 0.6726(2) 0.10797(16)
C71 C 0.7437(4) 0.7381(3) 0.05904(17)
C72 C 0.7791(4) 0.6640(3) 0.04057(18)
C73 C 0.7191(5) 0.5937(3) 0.0563(2)
C74 C 0.6197(5) 0.5982(2) 0.08920(18)
C75 C 0.6417(4) 0.7426(2) 0.09274(17)
H1 H 0.3138 0.4363 0.2487
H2 H 0.2006 0.5018 0.2580
H3 H 0.0983 0.5903 0.1831
H4 H 0.0447 0.6100 0.0871
H5 H 0.1548 0.5355 0.0285
H6 H 0.3329 0.4455 0.0653
H7 H 0.3900 0.4281 0.1601
H8 H 0.4071 0.6319 0.1356
H9 H 0.4187 0.7291 0.1354
H10 H 0.6151 0.7941 0.1050
H11 H 0.7872 0.7863 0.0493
H12 H 0.8451 0.6606 0.0168
H13 H 0.7466 0.5421 0.0445
H14 H 0.5775 0.5497 0.0991
loop_
_geom_bond_atom_site_label_1
_geom_bond_atom_site_label_2
_geom_bond_site_symmetry_1
_geom_bond_site_symmetry_2
S1 C70 1_555 1_555
S2 C70 1_555 1_555
C1 C2 1_555 1_555
C2 C3 1_555 1_555
C3 C4 1_555 1_555
C4 C5 1_555 1_555
C5 C6 1_555 1_555
C6 C1 1_555 1_555
C7 C6 1_555 1_555
C8 C7 1_555 1_555
C9 C1 1_555 1_555
C10 C9 1_555 1_555
C11 C10 1_555 1_555
C12 C2 1_555 1_555
C13 C12 1_555 1_555
C14 C3 1_555 1_555
C15 C14 1_555 1_555
C16 C15 1_555 1_555
C17 C4 1_555 1_555
C18 C17 1_555 1_555
C19 C5 1_555 1_555
C20 C19 1_555 1_555
C21 C7 1_555 1_555
C22 C21 1_555 1_555
C23 C22 1_555 1_555
C24 C8 1_555 1_555
C25 C24 1_555 1_555
C26 C10 1_555 1_555
C27 C26 1_555 1_555
C28 C11 1_555 1_555
C29 C28 1_555 1_555
C30 C13 1_555 1_555
C31 C30 1_555 1_555
C32 C15 1_555 1_555
C33 C32 1_555 1_555
C34 C16 1_555 1_555
C35 C34 1_555 1_555
C36 C18 1_555 1_555
C37 C36 1_555 1_555
C38 C20 1_555 1_555
C39 C22 1_555 1_555
C40 C39 1_555 1_555
C41 C40 1_555 1_555
C42 C23 1_555 1_555
C43 C25 1_555 1_555
C44 C43 1_555 1_555
C45 C27 1_555 1_555
C46 C45 1_555 1_555
C47 C29 1_555 1_555
C48 C31 1_555 1_555
C49 C48 1_555 1_555
C50 C33 1_555 1_555
C51 C50 1_555 1_555
C52 C51 1_555 1_555
C53 C49 1_555 1_555
C54 C46 1_555 1_555
C55 C44 1_555 1_555
C56 C41 1_555 1_555
C57 C52 1_555 1_555
C58 C40 1_555 1_555
C59 C37 1_555 1_555
C60 C35 1_555 1_555
C61 C1 1_555 1_555
C62 C61 1_555 1_555
C63 C62 1_555 1_555
C64 C63 1_555 1_555
C65 C64 1_555 1_555
C66 C65 1_555 1_555
C67 C62 1_555 1_555
C68 C4 1_555 1_555
C69 C68 1_555 1_555
C71 C72 1_555 1_555
C72 C73 1_555 1_555
C73 C74 1_555 1_555
C74 C69 1_555 1_555
C75 C69 1_555 1_555
H1 C61 1_555 1_555
H2 C61 1_555 1_555
H3 C63 1_555 1_555
H4 C64 1_555 1_555
H5 C65 1_555 1_555
H6 C66 1_555 1_555
H7 C67 1_555 1_555
H8 C68 1_555 1_555
H9 C68 1_555 1_555
H10 C75 1_555 1_555
H11 C71 1_555 1_555
H12 C72 1_555 1_555
H13 C73 1_555 1_555
H14 C74 1_555 1_555
C8 C9 1_555 1_555
C11 C12 1_555 1_555
C13 C14 1_555 1_555
C16 C17 1_555 1_555
C18 C19 1_555 1_555
C20 C21 1_555 1_555
C23 C24 1_555 1_555
C25 C26 1_555 1_555
C27 C28 1_555 1_555
C29 C30 1_555 1_555
C31 C32 1_555 1_555
C33 C34 1_555 1_555
C35 C36 1_555 1_555
C37 C38 1_555 1_555
C38 C39 1_555 1_555
C41 C42 1_555 1_555
C42 C43 1_555 1_555
C44 C45 1_555 1_555
C46 C47 1_555 1_555
C47 C48 1_555 1_555
C49 C50 1_555 1_555
C51 C60 1_555 1_555
C52 C53 1_555 1_555
C53 C54 1_555 1_555
C54 C55 1_555 1_555
C55 C56 1_555 1_555
C56 C57 1_555 1_555
C57 C58 1_555 1_555
C58 C59 1_555 1_555
C59 C60 1_555 1_555
C66 C67 1_555 1_555
C71 C75 1_555 1_555

#END
