
#######################################################################
#
#                 Cambridge Crystallographic Data Centre
#                                CCDC 
#
#######################################################################
#
# If this CIF has been generated from an entry in the Cambridge 
# Structural Database, then it will include bibliographic, chemical, 
# crystal, experimental, refinement or atomic coordinate data resulting 
# from the CCDC's data processing and validation procedures.
#
#######################################################################

data_AVUXIA
_chemical_formula_moiety         'C7 H12 O1 S2'
_chemical_name_systematic        4,4,5,5-tetramethyl-1,3-oxathiolane-2-thione
_symmetry_cell_setting           monoclinic
_symmetry_space_group_name_H-M   'P 21/n'
_symmetry_Int_Tables_number      14
_space_group_name_Hall           '-P 2yn'
loop_
_symmetry_equiv_pos_site_id
_symmetry_equiv_pos_as_xyz
1 x,y,z
2 1/2-x,1/2+y,1/2-z
3 -x,-y,-z
4 1/2+x,1/2-y,1/2+z
_cell_length_a                   14.4130(5)
_cell_length_b                   10.2292(3)
_cell_length_c                   24.2796(8)
_cell_angle_alpha                90
_cell_angle_beta                 92.2763(11)
_cell_angle_gamma                90
_cell_volume                     3576.8
_exptl_crystal_colour            colorless
_exptl_crystal_description       prism
_cell_formula_units_Z            16
loop_
_atom_site_label
_atom_site_type_symbol
_atom_site_fract_x
_atom_site_fract_y
_atom_site_fract_z
C1 C 0.8818(2) 0.2262(3) 0.85427(12)
C2 C 0.8231(2) 0.1626(3) 0.94911(11)
C3 C 0.83120(19) 0.3116(3) 0.93848(11)
C4 C 0.7351(2) 0.1243(3) 0.97813(13)
H1 H 0.6808 0.1614 0.9582
H2 H 0.7296 0.0288 0.9789
H3 H 0.7382 0.1580 1.0159
C5 C 0.9088(2) 0.1062(3) 0.97924(13)
H4 H 0.9645 0.1318 0.9600
H5 H 0.9128 0.1398 1.0171
H6 H 0.9042 0.0106 0.9800
C6 C 0.7406(2) 0.3779(3) 0.92152(14)
H7 H 0.6979 0.3729 0.9519
H8 H 0.7524 0.4698 0.9127
H9 H 0.7129 0.3340 0.8890
C7 C 0.8817(2) 0.3861(3) 0.98473(13)
H10 H 0.8454 0.3822 1.0180
H11 H 0.9428 0.3466 0.9923
H12 H 0.8894 0.4775 0.9737
O1 O 0.89193(14) 0.32366(19) 0.89021(8)
S1 S 0.92684(6) 0.23010(8) 0.79327(3)
S2 S 0.81823(6) 0.09665(7) 0.87840(3)
C8 C 0.6352(2) 0.2408(3) 0.61389(12)
C9 C 0.5293(2) 0.2249(3) 0.69658(12)
C10 C 0.6350(2) 0.2237(3) 0.71074(12)
C11 C 0.4868(2) 0.3599(3) 0.70210(15)
H13 H 0.5222 0.4231 0.6810
H14 H 0.4222 0.3582 0.6878
H15 H 0.4885 0.3855 0.7410
C12 C 0.4761(2) 0.1235(3) 0.72887(14)
H16 H 0.5048 0.0374 0.7246
H17 H 0.4778 0.1476 0.7680
H18 H 0.4115 0.1203 0.7148
C13 C 0.6640(2) 0.3174(3) 0.75665(13)
H19 H 0.6367 0.2895 0.7910
H20 H 0.7319 0.3176 0.7614
H21 H 0.6423 0.4057 0.7471
C14 C 0.6755(2) 0.0886(3) 0.72096(14)
H22 H 0.6484 0.0503 0.7537
H23 H 0.6613 0.0328 0.6889
H24 H 0.7430 0.0953 0.7269
O2 O 0.67981(14) 0.2741(2) 0.66065(8)
S3 S 0.68331(7) 0.25570(8) 0.55376(3)
S4 S 0.52539(5) 0.18048(8) 0.62287(3)
C15 C 0.6132(2) 0.7514(3) 0.11865(13)
C16 C 0.7913(2) 0.7409(3) 0.11352(11)
C17 C 0.7526(2) 0.7414(3) 0.17225(11)
C18 C 0.8219(2) 0.8760(3) 0.09492(14)
H25 H 0.7716 0.9388 0.0997
H26 H 0.8768 0.9034 0.1171
H27 H 0.8372 0.8727 0.0560
C19 C 0.8688(2) 0.6413(3) 0.10638(14)
H28 H 0.8480 0.5551 0.1185
H29 H 0.8841 0.6372 0.0675
H30 H 0.9238 0.6678 0.1286
C20 C 0.8010(2) 0.8375(4) 0.21131(13)
H31 H 0.8661 0.8117 0.2174
H32 H 0.7981 0.9253 0.1952
H33 H 0.7701 0.8377 0.2466
C21 C 0.7471(2) 0.6072(3) 0.19848(14)
H34 H 0.8098 0.5712 0.2039
H35 H 0.7181 0.6145 0.2342
H36 H 0.7099 0.5491 0.1743
O3 O 0.65554(14) 0.7880(2) 0.16557(8)
S5 S 0.50007(6) 0.76135(9) 0.10826(4)
S6 S 0.68868(6) 0.69224(9) 0.07101(3)
C22 C 0.1610(2) 0.2496(3) 0.62274(12)
C23 C -0.0077(2) 0.3276(3) 0.60935(11)
C24 C 0.0065(2) 0.1778(3) 0.60710(12)
C25 C -0.0109(2) 0.3907(3) 0.55239(12)
H37 H 0.0431 0.3626 0.5322
H38 H -0.0679 0.3641 0.5321
H39 H -0.0100 0.4861 0.5563
C26 C -0.0916(2) 0.3704(3) 0.64151(13)
H40 H -0.0887 0.3293 0.6780
H41 H -0.0909 0.4657 0.6457
H42 H -0.1488 0.3437 0.6215
C27 C -0.0431(2) 0.1128(3) 0.55837(13)
H43 H -0.1104 0.1210 0.5618
H44 H -0.0249 0.1551 0.5242
H45 H -0.0262 0.0200 0.5574
C28 C -0.0125(2) 0.1071(3) 0.66063(13)
H46 H -0.0783 0.1160 0.6686
H47 H 0.0030 0.0143 0.6570
H48 H 0.0256 0.1455 0.6908
O4 O 0.10724(14) 0.1599(2) 0.59792(8)
S7 S 0.27407(6) 0.23522(9) 0.62832(4)
S8 S 0.09974(6) 0.38238(8) 0.64601(3)
loop_
_geom_bond_atom_site_label_1
_geom_bond_atom_site_label_2
_geom_bond_site_symmetry_1
_geom_bond_site_symmetry_2
C1 O1 1_555 1_555
C2 C3 1_555 1_555
C3 C6 1_555 1_555
C4 C2 1_555 1_555
H1 C4 1_555 1_555
H2 C4 1_555 1_555
H3 C4 1_555 1_555
C5 C2 1_555 1_555
H4 C5 1_555 1_555
H5 C5 1_555 1_555
H6 C5 1_555 1_555
C6 H7 1_555 1_555
H8 C6 1_555 1_555
H9 C6 1_555 1_555
C7 C3 1_555 1_555
H10 C7 1_555 1_555
H11 C7 1_555 1_555
H12 C7 1_555 1_555
O1 C3 1_555 1_555
S1 C1 1_555 1_555
S2 C1 1_555 1_555
C8 O2 1_555 1_555
C9 C10 1_555 1_555
C10 C13 1_555 1_555
C11 C9 1_555 1_555
H13 C11 1_555 1_555
H14 C11 1_555 1_555
H15 C11 1_555 1_555
C12 C9 1_555 1_555
H16 C12 1_555 1_555
H17 C12 1_555 1_555
H18 C12 1_555 1_555
C13 H19 1_555 1_555
H20 C13 1_555 1_555
H21 C13 1_555 1_555
C14 C10 1_555 1_555
H22 C14 1_555 1_555
H23 C14 1_555 1_555
H24 C14 1_555 1_555
O2 C10 1_555 1_555
S3 C8 1_555 1_555
S4 C8 1_555 1_555
C15 O3 1_555 1_555
C16 C17 1_555 1_555
C17 C20 1_555 1_555
C18 C16 1_555 1_555
H25 C18 1_555 1_555
H26 C18 1_555 1_555
H27 C18 1_555 1_555
C19 C16 1_555 1_555
H28 C19 1_555 1_555
H29 C19 1_555 1_555
H30 C19 1_555 1_555
C20 H31 1_555 1_555
H32 C20 1_555 1_555
H33 C20 1_555 1_555
C21 C17 1_555 1_555
H34 C21 1_555 1_555
H35 C21 1_555 1_555
H36 C21 1_555 1_555
O3 C17 1_555 1_555
S5 C15 1_555 1_555
S6 C15 1_555 1_555
C22 O4 1_555 1_555
C23 C24 1_555 1_555
C24 C27 1_555 1_555
C25 C23 1_555 1_555
H37 C25 1_555 1_555
H38 C25 1_555 1_555
H39 C25 1_555 1_555
C26 C23 1_555 1_555
H40 C26 1_555 1_555
H41 C26 1_555 1_555
H42 C26 1_555 1_555
C27 H43 1_555 1_555
H44 C27 1_555 1_555
H45 C27 1_555 1_555
C28 C24 1_555 1_555
H46 C28 1_555 1_555
H47 C28 1_555 1_555
H48 C28 1_555 1_555
O4 C24 1_555 1_555
S7 C22 1_555 1_555
S8 C22 1_555 1_555
C2 S2 1_555 1_555
C9 S4 1_555 1_555
C16 S6 1_555 1_555
C23 S8 1_555 1_555

#END
