
#######################################################################
#
#                 Cambridge Crystallographic Data Centre
#                                CCDC 
#
#######################################################################
#
# If this CIF has been generated from an entry in the Cambridge 
# Structural Database, then it will include bibliographic, chemical, 
# crystal, experimental, refinement or atomic coordinate data resulting 
# from the CCDC's data processing and validation procedures.
#
#######################################################################

data_AVUXEW
_chemical_formula_moiety         'C15 H18 O2'
_chemical_name_systematic        '(E)-2-cyclohexyl-3-phenylacrylic acid'
_symmetry_cell_setting           triclinic
_symmetry_space_group_name_H-M   'P -1'
_symmetry_Int_Tables_number      2
_space_group_name_Hall           '-P 1'
loop_
_symmetry_equiv_pos_site_id
_symmetry_equiv_pos_as_xyz
1 x,y,z
2 -x,-y,-z
_cell_length_a                   6.0512(7)
_cell_length_b                   10.0629(11)
_cell_length_c                   11.9008(14)
_cell_angle_alpha                107.302(6)
_cell_angle_beta                 103.222(5)
_cell_angle_gamma                102.604(6)
_cell_volume                     640.803
_exptl_crystal_colour            colorless
_exptl_crystal_description       Tabular
_cell_formula_units_Z            2
loop_
_atom_site_label
_atom_site_type_symbol
_atom_site_fract_x
_atom_site_fract_y
_atom_site_fract_z
C1 C 0.7087(4) 0.3412(2) 0.01396(17)
H1 H 0.7202 0.3301 -0.0681
H2 H 0.6743 0.4322 0.0468
C2 C 0.5081(3) 0.21497(19) 0.00469(15)
H3 H 0.5356 0.1235 -0.0349
H4 H 0.3586 0.2156 -0.0464
C3 C 0.4901(3) 0.22478(17) 0.13189(14)
H5 H 0.3663 0.1396 0.1235
H6 H 0.4452 0.3108 0.1676
C4 C 0.7257(3) 0.23342(14) 0.21863(12)
H7 H 0.7600 0.1428 0.1806
C5 C 0.7066(3) 0.23536(14) 0.34358(12)
C6 C 0.7497(3) 0.13620(15) 0.39218(13)
H8 H 0.7179 0.1458 0.4665
C7 C 0.8404(3) 0.01398(14) 0.34399(12)
C8 C 0.7400(3) -0.11974(16) 0.35216(14)
H9 H 0.6172 -0.1300 0.3868
C9 C 0.8205(3) -0.23677(17) 0.30951(16)
H10 H 0.7489 -0.3263 0.3134
C10 C 1.0066(3) -0.22198(17) 0.26109(16)
H11 H 1.0610 -0.3013 0.2326
C11 C 0.9435(3) 0.34768(19) 0.09711(17)
H12 H 1.0678 0.4320 0.1044
H13 H 0.9851 0.2606 0.0602
C12 C 0.9302(3) 0.35830(16) 0.22528(14)
H14 H 0.9077 0.4510 0.2660
H15 H 1.0797 0.3556 0.2746
C13 C 1.1113(3) -0.09018(17) 0.25503(15)
H16 H 1.2381 -0.0799 0.2231
C14 C 1.0297(3) 0.02701(16) 0.29598(14)
H17 H 1.1021 0.1160 0.2915
C15 C 0.6237(3) 0.35160(15) 0.41453(13)
O1 O 0.6098(3) 0.45759(12) 0.38748(11)
O2 O 0.5636(3) 0.33399(12) 0.50914(11)
H18 H 0.5169 0.4018 0.5417
loop_
_geom_bond_atom_site_label_1
_geom_bond_atom_site_label_2
_geom_bond_site_symmetry_1
_geom_bond_site_symmetry_2
C1 H1 1_555 1_555
H2 C1 1_555 1_555
C2 C1 1_555 1_555
H3 C2 1_555 1_555
H4 C2 1_555 1_555
C3 C2 1_555 1_555
H5 C3 1_555 1_555
H6 C3 1_555 1_555
C4 C3 1_555 1_555
H7 C4 1_555 1_555
C5 C4 1_555 1_555
C6 C5 1_555 1_555
H8 C6 1_555 1_555
C7 C6 1_555 1_555
C8 C7 1_555 1_555
H9 C8 1_555 1_555
C9 C8 1_555 1_555
H10 C9 1_555 1_555
C10 C9 1_555 1_555
H11 C10 1_555 1_555
C11 C1 1_555 1_555
H12 C11 1_555 1_555
H13 C11 1_555 1_555
C12 C4 1_555 1_555
H14 C12 1_555 1_555
H15 C12 1_555 1_555
C13 C10 1_555 1_555
H16 C13 1_555 1_555
C14 C7 1_555 1_555
H17 C14 1_555 1_555
C15 C5 1_555 1_555
O1 C15 1_555 1_555
O2 C15 1_555 1_555
H18 O2 1_555 1_555
C11 C12 1_555 1_555
C13 C14 1_555 1_555

#END
