
#######################################################################
#
#                 Cambridge Crystallographic Data Centre
#                                CCDC 
#
#######################################################################
#
# If this CIF has been generated from an entry in the Cambridge 
# Structural Database, then it will include bibliographic, chemical, 
# crystal, experimental, refinement or atomic coordinate data resulting 
# from the CCDC's data processing and validation procedures.
#
#######################################################################

data_AWACAE
_chemical_formula_moiety         'C8 H4 Cl1 F1 N2'
_chemical_name_systematic        6-chloro-7-fluoroquinoxaline
_symmetry_cell_setting           triclinic
_symmetry_space_group_name_H-M   'C -1'
_symmetry_Int_Tables_number      2
_space_group_name_Hall           '-C 1'
loop_
_symmetry_equiv_pos_site_id
_symmetry_equiv_pos_as_xyz
1 x,y,z
2 1/2+x,1/2+y,z
3 -x,-y,-z
4 1/2-x,1/2-y,-z
_cell_length_a                   3.7929(6)
_cell_length_b                   18.472(3)
_cell_length_c                   11.0261(17)
_cell_angle_alpha                89.901(6)
_cell_angle_beta                 96.851(6)
_cell_angle_gamma                90.088(6)
_cell_volume                     766.998
_exptl_crystal_colour            colorless
_cell_formula_units_Z            4
loop_
_atom_site_label
_atom_site_type_symbol
_atom_site_fract_x
_atom_site_fract_y
_atom_site_fract_z
Cl1 Cl 0.2092(7) 0.29949(13) 0.3800(3)
F1 F -0.2120(7) 0.29912(13) 0.1183(3)
N1 N -0.2040(10) 0.5669(3) 0.1334(3)
N2 N 0.2048(9) 0.5675(3) 0.3656(3)
C1 C -0.1025(13) 0.6273(3) 0.1936(5)
C2 C 0.1031(13) 0.6269(3) 0.3066(5)
C3 C 0.0995(9) 0.5036(3) 0.3083(3)
C4 C 0.2006(10) 0.4377(3) 0.3657(4)
C5 C 0.0996(12) 0.3756(3) 0.3089(5)
C6 C -0.1019(12) 0.3759(3) 0.1913(5)
C7 C -0.1034(9) 0.5038(3) 0.1914(3)
H1 H -0.1724 0.6716 0.1586
H2 H 0.1721 0.6711 0.3422
H3 H 0.3354 0.4372 0.4419
C8 C -0.2005(10) 0.4380(3) 0.1333(4)
H4 H -0.329(13) 0.444(3) 0.053(5)
loop_
_geom_bond_atom_site_label_1
_geom_bond_atom_site_label_2
_geom_bond_site_symmetry_1
_geom_bond_site_symmetry_2
Cl1 C5 1_555 1_555
F1 C6 1_555 1_555
N1 C1 1_555 1_555
N2 C2 1_555 1_555
C1 C2 1_555 1_555
C2 H2 1_555 1_555
C3 N2 1_555 1_555
C4 C3 1_555 1_555
C5 C4 1_555 1_555
C6 C5 1_555 1_555
C7 N1 1_555 1_555
H1 C1 1_555 1_555
H3 C4 1_555 1_555
C8 C6 1_555 1_555
H4 C8 1_555 1_555
C3 C7 1_555 1_555
C7 C8 1_555 1_555

#END
