
#######################################################################
#
#                 Cambridge Crystallographic Data Centre
#                                CCDC 
#
#######################################################################
#
# If this CIF has been generated from an entry in the Cambridge 
# Structural Database, then it will include bibliographic, chemical, 
# crystal, experimental, refinement or atomic coordinate data resulting 
# from the CCDC's data processing and validation procedures.
#
#######################################################################

data_AWALUH
_chemical_name_common            
'4,17-di-t-butyl-25,34-bis(4-nitrophenyl)-8,13-dioxa-39,40,41,42-tetraazaoctacyclo[18.9.9.1$21,24!.1$26,29!.1$30,33!.1$35,38!.0$2,7!.0$14,19!]dotetraconta-1(29),2,4,6,14,16,18,20,22,24,26(41),27,30,32,34,36,38-heptadecaene chloroform solvate'
_chemical_formula_moiety         'C56 H50 N6 O6,C1 H1 Cl3'
_chemical_name_systematic        
"5,15-(2,2'-(butane-1,4-diylbis(oxy))bis(5-t-butylphenyl))-10,20-bis(4-nitrophenyl)porphyrin chloroform solvate"
_symmetry_cell_setting           monoclinic
_symmetry_space_group_name_H-M   'C 2/c'
_symmetry_Int_Tables_number      15
_space_group_name_Hall           '-C 2yn'
loop_
_symmetry_equiv_pos_site_id
_symmetry_equiv_pos_as_xyz
1 x,y,z
2 -x,y,1/2-z
3 1/2+x,1/2+y,z
4 1/2-x,1/2+y,1/2-z
5 -x,-y,-z
6 x,-y,1/2+z
7 1/2-x,1/2-y,-z
8 1/2+x,1/2-y,1/2+z
_cell_length_a                   32.861(5)
_cell_length_b                   19.752(3)
_cell_length_c                   15.548(2)
_cell_angle_alpha                90
_cell_angle_beta                 96.445(2)
_cell_angle_gamma                90
_cell_volume                     10028
_exptl_crystal_colour            'light purple'
_exptl_crystal_description       Prism
_cell_formula_units_Z            8
_chemical_properties_physical    Photo-sensitive
_exptl_crystal_recrystallization_method chloroform/methanol
_exptl_crystal_preparation       Luminescent
loop_
_atom_site_label
_atom_site_type_symbol
_atom_site_fract_x
_atom_site_fract_y
_atom_site_fract_z
O1 O 0.38596(4) 0.06239(7) 1.16538(9)
O2 O 0.35831(4) -0.03487(7) 1.13237(9)
O3 O 0.03828(6) 0.62652(8) 0.47483(13)
O4 O 0.01388(5) 0.56281(9) 0.36871(12)
O5 O 0.16111(4) 0.04407(7) 0.54574(8)
O6 O 0.08839(4) 0.09472(8) 0.81002(10)
N1 N 0.21898(4) 0.16368(7) 0.71417(9)
H1 H 0.1958(4) 0.1840(9) 0.7246(13)
N2 N 0.16098(4) 0.24850(7) 0.60878(9)
N3 N 0.11788(4) 0.27802(7) 0.74618(9)
H2 H 0.1410(4) 0.2568(9) 0.7371(13)
N4 N 0.17624(4) 0.19776(7) 0.84982(9)
N5 N 0.36144(4) 0.02636(8) 1.12166(10)
N6 N 0.03374(6) 0.57157(10) 0.43920(14)
C1 C 0.24525(5) 0.14718(8) 0.86599(11)
C2 C 0.24886(5) 0.14241(8) 0.77726(11)
C3 C 0.27940(5) 0.10927(8) 0.73350(11)
H3 H 0.3047 0.0916 0.7598
C4 C 0.26571(5) 0.10764(9) 0.64683(11)
H4 H 0.2792 0.0867 0.6029
C5 C 0.22762(5) 0.14306(8) 0.63444(11)
C6 C 0.20533(5) 0.16053(9) 0.55517(11)
C7 C 0.17882(5) 0.21700(9) 0.54454(11)
C8 C 0.17005(6) 0.25317(9) 0.46324(12)
H5 H 0.1781 0.2405 0.4087
C9 C 0.14807(6) 0.30858(9) 0.48047(12)
H6 H 0.1395 0.3442 0.4415
C10 C 0.14022(5) 0.30283(8) 0.57008(11)
C11 C 0.11113(5) 0.34102(8) 0.60976(11)
C12 C 0.09805(5) 0.32296(8) 0.68932(11)
C13 C 0.05882(5) 0.33561(9) 0.71835(11)
H7 H 0.0391 0.3675 0.6942
C14 C 0.05486(5) 0.29384(9) 0.78671(11)
H8 H 0.0313 0.2894 0.8164
C15 C 0.09263(5) 0.25780(9) 0.80577(11)
C16 C 0.10393(5) 0.21352(8) 0.87416(11)
C17 C 0.14453(5) 0.19284(8) 0.89917(11)
C18 C 0.15786(6) 0.16331(9) 0.98281(11)
H9 H 0.1414 0.1542 1.0280
C19 C 0.19846(5) 0.15126(9) 0.98353(11)
H10 H 0.2165 0.1343 1.0307
C20 C 0.20916(5) 0.16931(8) 0.89846(11)
C21 C 0.27768(5) 0.11695(8) 0.92917(10)
C22 C 0.29883(5) 0.15652(9) 0.99399(11)
H11 H 0.2935 0.2037 0.9959
C23 C 0.32751(5) 0.12775(9) 1.05563(11)
H12 H 0.3425 0.1549 1.0986
C24 C 0.33374(5) 0.05831(9) 1.05277(10)
C25 C 0.31356(5) 0.01736(8) 0.98933(11)
H13 H 0.3186 -0.0300 0.9884
C26 C 0.28579(5) 0.04758(9) 0.92720(11)
H14 H 0.2720 0.0206 0.8824
C27 C 0.20692(5) 0.11523(9) 0.47827(11)
C28 C 0.22830(5) 0.12975(8) 0.40809(11)
H15 H 0.2468 0.1669 0.4121
C29 C 0.22350(5) 0.09131(8) 0.33162(11)
C30 C 0.19643(5) 0.03699(9) 0.32887(11)
H16 H 0.1920 0.0108 0.2774
C31 C 0.17566(6) 0.01976(9) 0.39884(12)
H17 H 0.1580 -0.0185 0.3953
C32 C 0.18062(5) 0.05835(9) 0.47365(11)
C33 C 0.24664(5) 0.11053(9) 0.25532(11)
C34 C 0.23506(8) 0.18295(10) 0.22585(13)
H18 H 0.2056 0.1852 0.2073
H19 H 0.2502 0.1955 0.1774
H20 H 0.2420 0.2144 0.2740
C35 C 0.23693(6) 0.06269(9) 0.17859(11)
H21 H 0.2433 0.0161 0.1971
H22 H 0.2535 0.0752 0.1323
H23 H 0.2078 0.0661 0.1571
C36 C 0.29311(6) 0.10670(13) 0.28317(13)
H24 H 0.2998 0.1330 0.3363
H25 H 0.3079 0.1253 0.2372
H26 H 0.3011 0.0594 0.2937
C37 C 0.12255(6) 0.00931(10) 0.53148(13)
H27 H 0.1259 -0.0331 0.4990
H28 H 0.1023 0.0381 0.4966
C38 C 0.10734(7) -0.00699(10) 0.61734(14)
H29 H 0.1257 -0.0413 0.6475
H30 H 0.0797 -0.0273 0.6063
C39 C 0.10518(6) 0.05391(10) 0.67678(13)
H31 H 0.1333 0.0668 0.7007
H32 H 0.0931 0.0926 0.6424
C40 C 0.07994(6) 0.04053(10) 0.75117(13)
H33 H 0.0504 0.0391 0.7300
H34 H 0.0878 -0.0032 0.7794
C41 C 0.06279(6) 0.11105(9) 0.87077(12)
C42 C 0.03127(6) 0.07085(9) 0.89447(13)
H35 H 0.0259 0.0279 0.8682
C43 C 0.00763(6) 0.09404(9) 0.95707(13)
H36 H -0.0139 0.0662 0.9730
C44 C 0.01442(5) 0.15674(9) 0.99737(11)
C45 C 0.04638(5) 0.19632(9) 0.97185(11)
H37 H 0.0517 0.2394 0.9980
C46 C 0.07049(5) 0.17456(9) 0.90961(11)
C47 C -0.01369(6) 0.18171(10) 1.06261(12)
C48 C -0.05537(6) 0.20010(12) 1.01424(15)
H38 H -0.0731 0.2186 1.0552
H39 H -0.0681 0.1595 0.9868
H40 H -0.0517 0.2340 0.9697
C49 C -0.02026(9) 0.12553(13) 1.12819(16)
H41 H 0.0063 0.1105 1.1566
H42 H -0.0344 0.0872 1.0980
H43 H -0.0369 0.1431 1.1718
C50 C 0.00368(7) 0.24363(12) 1.11269(15)
H44 H 0.0306 0.2325 1.1432
H45 H -0.0149 0.2571 1.1547
H46 H 0.0065 0.2810 1.0723
C51 C 0.09018(5) 0.39978(8) 0.56424(12)
C52 C 0.06829(6) 0.39418(10) 0.48237(12)
H47 H 0.0660 0.3513 0.4546
C53 C 0.04982(6) 0.44998(10) 0.44106(13)
H48 H 0.0351 0.4460 0.3851
C54 C 0.05327(6) 0.51185(10) 0.48318(14)
C55 C 0.07391(6) 0.51951(10) 0.56450(15)
H49 H 0.0757 0.5625 0.5920
C56 C 0.09219(6) 0.46286(9) 0.60554(13)
H50 H 0.1062 0.4670 0.6622
Cl1 Cl 0.13092(2) 0.30085(4) 0.12777(4)
Cl2 Cl 0.11413(2) 0.19879(4) 0.25200(6)
Cl3 Cl 0.08234(3) 0.33460(4) 0.26386(5)
C57 C 0.12297(8) 0.28526(15) 0.23481(16)
H51 H 0.1483 0.2987 0.2726
loop_
_geom_bond_atom_site_label_1
_geom_bond_atom_site_label_2
_geom_bond_site_symmetry_1
_geom_bond_site_symmetry_2
O1 N5 1_555 1_555
O2 N5 1_555 1_555
O3 N6 1_555 1_555
O4 N6 1_555 1_555
O5 C32 1_555 1_555
O6 C40 1_555 1_555
N1 H1 1_555 1_555
N2 C7 1_555 1_555
N3 H2 1_555 1_555
N4 C17 1_555 1_555
N5 C24 1_555 1_555
N6 C54 1_555 1_555
C1 C2 1_555 1_555
C2 N1 1_555 1_555
C3 C2 1_555 1_555
H3 C3 1_555 1_555
C4 C3 1_555 1_555
H4 C4 1_555 1_555
C5 N1 1_555 1_555
C6 C5 1_555 1_555
C7 C6 1_555 1_555
C8 C7 1_555 1_555
H5 C8 1_555 1_555
C9 C8 1_555 1_555
H6 C9 1_555 1_555
C10 N2 1_555 1_555
C11 C10 1_555 1_555
C12 N3 1_555 1_555
C13 C12 1_555 1_555
H7 C13 1_555 1_555
C14 C13 1_555 1_555
H8 C14 1_555 1_555
C15 N3 1_555 1_555
C16 C15 1_555 1_555
C17 C16 1_555 1_555
C18 C17 1_555 1_555
H9 C18 1_555 1_555
C19 C18 1_555 1_555
H10 C19 1_555 1_555
C20 N4 1_555 1_555
C21 C1 1_555 1_555
C22 C21 1_555 1_555
H11 C22 1_555 1_555
C23 C22 1_555 1_555
H12 C23 1_555 1_555
C24 C23 1_555 1_555
C25 C24 1_555 1_555
H13 C25 1_555 1_555
C26 C21 1_555 1_555
H14 C26 1_555 1_555
C27 C6 1_555 1_555
C28 C27 1_555 1_555
H15 C28 1_555 1_555
C29 C28 1_555 1_555
C30 C29 1_555 1_555
H16 C30 1_555 1_555
C31 C30 1_555 1_555
H17 C31 1_555 1_555
C32 C27 1_555 1_555
C33 C29 1_555 1_555
C34 C33 1_555 1_555
H18 C34 1_555 1_555
H19 C34 1_555 1_555
H20 C34 1_555 1_555
C35 C33 1_555 1_555
H21 C35 1_555 1_555
H22 C35 1_555 1_555
H23 C35 1_555 1_555
C36 C33 1_555 1_555
H24 C36 1_555 1_555
H25 C36 1_555 1_555
H26 C36 1_555 1_555
C37 O5 1_555 1_555
H27 C37 1_555 1_555
H28 C37 1_555 1_555
C38 C37 1_555 1_555
H29 C38 1_555 1_555
H30 C38 1_555 1_555
C39 C38 1_555 1_555
H31 C39 1_555 1_555
H32 C39 1_555 1_555
C40 C39 1_555 1_555
H33 C40 1_555 1_555
H34 C40 1_555 1_555
C41 O6 1_555 1_555
C42 C41 1_555 1_555
H35 C42 1_555 1_555
C43 C42 1_555 1_555
H36 C43 1_555 1_555
C44 C43 1_555 1_555
C45 C44 1_555 1_555
H37 C45 1_555 1_555
C46 C16 1_555 1_555
C47 C44 1_555 1_555
C48 C47 1_555 1_555
H38 C48 1_555 1_555
H39 C48 1_555 1_555
H40 C48 1_555 1_555
C49 C47 1_555 1_555
H41 C49 1_555 1_555
H42 C49 1_555 1_555
H43 C49 1_555 1_555
C50 C47 1_555 1_555
H44 C50 1_555 1_555
H45 C50 1_555 1_555
H46 C50 1_555 1_555
C51 C11 1_555 1_555
C52 C51 1_555 1_555
H47 C52 1_555 1_555
C53 C52 1_555 1_555
H48 C53 1_555 1_555
C54 C53 1_555 1_555
C55 C54 1_555 1_555
H49 C55 1_555 1_555
C56 C51 1_555 1_555
H50 C56 1_555 1_555
Cl1 C57 1_555 1_555
Cl2 C57 1_555 1_555
Cl3 C57 1_555 1_555
C57 H51 1_555 1_555
C1 C20 1_555 1_555
C4 C5 1_555 1_555
C9 C10 1_555 1_555
C11 C12 1_555 1_555
C14 C15 1_555 1_555
C19 C20 1_555 1_555
C25 C26 1_555 1_555
C31 C32 1_555 1_555
C41 C46 1_555 1_555
C45 C46 1_555 1_555
C55 C56 1_555 1_555

#END
