
#######################################################################
#
#                 Cambridge Crystallographic Data Centre
#                                CCDC 
#
#######################################################################
#
# If this CIF has been generated from an entry in the Cambridge 
# Structural Database, then it will include bibliographic, chemical, 
# crystal, experimental, refinement or atomic coordinate data resulting 
# from the CCDC's data processing and validation procedures.
#
#######################################################################

data_AWAMIW
_chemical_name_common            
'4,20-di-t-butyl-28,37-bis(4-nitrophenyl)-8,16-dioxa-42,43,44,45-tetraazaoctacyclo[21.9.9.1$24,27!.1$29,32!.1$33,36!.1$38,41!.0$2,7!.0$17,22!]pentatetraconta-1(33),2,4,6,17,19,21,23,25,27,29,31,34,36,38,40-hexadecaene unknown solvate'
_chemical_formula_moiety         'C59 H56 N6 O6'
_chemical_name_systematic        
"5,15-(2,2'-(heptane-1,7-diylbis(oxy))bis(5-t-butylphenyl))-10,20-bis(4-nitrophenyl)porphyrin unknown solvate"
_symmetry_cell_setting           monoclinic
_symmetry_space_group_name_H-M   'C 2/c'
_symmetry_Int_Tables_number      15
_space_group_name_Hall           '-C 2yn'
loop_
_symmetry_equiv_pos_site_id
_symmetry_equiv_pos_as_xyz
1 x,y,z
2 -x,y,1/2-z
3 1/2+x,1/2+y,z
4 1/2-x,1/2+y,1/2-z
5 -x,-y,-z
6 x,-y,1/2+z
7 1/2-x,1/2-y,-z
8 1/2+x,1/2-y,1/2+z
_cell_length_a                   24.4349(12)
_cell_length_b                   30.6621(11)
_cell_length_c                   16.7802(12)
_cell_angle_alpha                90
_cell_angle_beta                 105.131(6)
_cell_angle_gamma                90
_cell_volume                     12136.3
_exptl_crystal_colour            'light purple'
_exptl_crystal_description       block
_cell_formula_units_Z            8
_chemical_properties_physical    Photo-sensitive
_exptl_crystal_recrystallization_method chloroform/methanol
_exptl_crystal_preparation       Luminescent
loop_
_atom_site_label
_atom_site_type_symbol
_atom_site_fract_x
_atom_site_fract_y
_atom_site_fract_z
N1 N 0.89329(12) 0.73666(9) 0.69147(18)
N2 N 0.86583(12) 0.64789(9) 0.6476(2)
H1 H 0.8548 0.6672 0.6772
N3 N 0.77148(12) 0.65225(9) 0.7304(2)
N4 N 0.79843(12) 0.74006(9) 0.77332(19)
H2 H 0.8126 0.7193 0.7508
N5 N 1.1329(3) 0.6868(2) 0.4764(7)
N6 N 0.53065(18) 0.70226(11) 0.9445(3)
O1 O 1.1760(2) 0.69375(18) 0.5066(5)
O2 O 1.1220(2) 0.68371(14) 0.3987(5)
O3 O 0.48448(15) 0.71137(13) 0.8978(3)
O4 O 0.53744(15) 0.69275(11) 1.0163(3)
O5 O 0.69737(10) 0.60399(7) 0.52948(19)
O6 O 0.78125(11) 0.84417(8) 0.63687(17)
C1 C 0.89359(15) 0.78002(11) 0.7084(2)
C2 C 0.93628(15) 0.80092(12) 0.6770(2)
H3 H 0.9448 0.8305 0.6795
C3 C 0.96185(15) 0.76936(12) 0.6429(2)
H4 H 0.9918 0.7731 0.6189
C4 C 0.93408(14) 0.72941(11) 0.6511(2)
C5 C 0.94453(14) 0.68890(12) 0.6173(2)
C6 C 0.91110(15) 0.65154(11) 0.6151(2)
C7 C 0.91626(15) 0.61173(11) 0.5722(3)
H5 H 0.9446 0.6051 0.5464
C8 C 0.87282(16) 0.58601(11) 0.5762(3)
H6 H 0.8647 0.5587 0.5520
C9 C 0.84093(15) 0.60850(11) 0.6251(2)
C10 C 0.79266(15) 0.59189(11) 0.6446(2)
C11 C 0.76382(15) 0.61119(11) 0.6981(3)
C12 C 0.71915(16) 0.59053(12) 0.7252(3)
H7 H 0.7059 0.5622 0.7130
C13 C 0.69980(16) 0.61982(12) 0.7717(2)
H8 H 0.6708 0.6152 0.7973
C14 C 0.73187(15) 0.65911(11) 0.7742(2)
C15 C 0.72300(15) 0.69869(11) 0.8102(2)
C16 C 0.75429(14) 0.73659(11) 0.8088(2)
C17 C 0.74443(16) 0.77791(12) 0.8414(2)
H9 H 0.7173 0.7843 0.8696
C18 C 0.78184(16) 0.80596(11) 0.8236(2)
H10 H 0.7850 0.8354 0.8372
C19 C 0.81602(15) 0.78260(11) 0.7801(2)
C20 C 0.85866(14) 0.80186(11) 0.7494(2)
C21 C 0.99323(16) 0.68718(12) 0.5788(3)
C22 C 1.0471(2) 0.6881(3) 0.6261(4)
H11 H 1.0542 0.6888 0.6833
C23 C 1.0929(2) 0.6879(3) 0.5886(5)
H12 H 1.1301 0.6887 0.6212
C24 C 1.0827(2) 0.68673(16) 0.5080(5)
C25 C 1.0312(2) 0.68506(17) 0.4598(4)
H13 H 1.0252 0.6836 0.4028
C26 C 0.9857(2) 0.68555(17) 0.4951(4)
H14 H 0.9490 0.6848 0.4608
C27 C 0.76359(16) 0.55331(11) 0.5976(2)
C28 C 0.78473(18) 0.51104(11) 0.6104(3)
H15 H 0.8186 0.5060 0.6503
C29 C 0.75639(18) 0.47610(12) 0.5650(3)
C30 C 0.7066(2) 0.48500(12) 0.5069(3)
H16 H 0.6874 0.4621 0.4753
C31 C 0.68350(17) 0.52682(12) 0.4931(3)
H17 H 0.6491 0.5314 0.4542
C32 C 0.71263(16) 0.56145(11) 0.5384(3)
C33 C 0.63908(15) 0.61656(12) 0.4999(3)
H18 H 0.6148 0.5946 0.5146
H19 H 0.6290 0.6194 0.4403
C34 C 0.63167(16) 0.65976(12) 0.5393(3)
H20 H 0.6380 0.6551 0.5982
H21 H 0.5926 0.6690 0.5180
C35 C 0.67011(15) 0.69690(11) 0.5266(3)
H22 H 0.7093 0.6882 0.5484
H23 H 0.6639 0.7020 0.4678
C36 C 0.66010(15) 0.73909(11) 0.5677(2)
H24 H 0.6662 0.7338 0.6263
H25 H 0.6208 0.7475 0.5459
C37 C 0.69769(15) 0.77720(11) 0.5563(2)
H26 H 0.7371 0.7691 0.5784
H27 H 0.6917 0.7828 0.4977
C38 C 0.68605(17) 0.81854(12) 0.5982(3)
H28 H 0.6889 0.8119 0.6556
H29 H 0.6472 0.8273 0.5731
C39 C 0.72427(16) 0.85697(12) 0.5952(3)
H30 H 0.7219 0.8648 0.5384
H31 H 0.7129 0.8820 0.6225
C40 C 0.81687(16) 0.87116(11) 0.6909(2)
C41 C 0.85970(15) 0.85048(11) 0.7499(2)
C42 C 0.89855(16) 0.87501(11) 0.8069(2)
H32 H 0.9271 0.8607 0.8457
C43 C 0.89646(17) 0.92080(12) 0.8083(3)
C44 C 0.85458(18) 0.94032(12) 0.7480(3)
H33 H 0.8528 0.9706 0.7464
C45 C 0.81445(18) 0.91678(12) 0.6888(3)
H34 H 0.7867 0.9312 0.6489
C46 C 0.7819(2) 0.43037(13) 0.5821(3)
C47 C 0.8412(2) 0.42975(15) 0.5668(4)
H35 H 0.8382 0.4365 0.5099
H36 H 0.8576 0.4013 0.5793
H37 H 0.8648 0.4510 0.6015
C48 C 0.7438(3) 0.39562(14) 0.5293(4)
H38 H 0.7075 0.3957 0.5413
H39 H 0.7610 0.3674 0.5417
H40 H 0.7390 0.4020 0.4719
C49 C 0.7886(3) 0.41828(15) 0.6738(4)
H41 H 0.8126 0.4393 0.7086
H42 H 0.8054 0.3898 0.6845
H43 H 0.7521 0.4182 0.6850
C50 C 0.9393(2) 0.94591(13) 0.8759(3)
C51 C 0.9997(2) 0.9365(2) 0.8713(4)
H44 H 1.0050 0.9477 0.8203
H45 H 1.0061 0.9056 0.8738
H46 H 1.0261 0.9504 0.9168
C52 C 0.9285(3) 0.99546(17) 0.8688(5)
H47 H 0.9535 1.0099 0.9148
H48 H 0.8899 1.0013 0.8687
H49 H 0.9353 1.0060 0.8183
C53 C 0.9319(3) 0.93256(17) 0.9595(3)
H50 H 0.9552 0.9507 1.0016
H51 H 0.9430 0.9026 0.9701
H52 H 0.8929 0.9359 0.9598
C54 C 0.67302(15) 0.70056(11) 0.8461(2)
C55 C 0.68035(19) 0.69890(16) 0.9299(3)
H53 H 0.7167 0.6974 0.9650
C56 C 0.6330(2) 0.69943(16) 0.9628(3)
H54 H 0.6376 0.6977 1.0195
C57 C 0.58079(17) 0.70242(12) 0.9104(3)
C58 C 0.5732(2) 0.7059(2) 0.8290(4)
H55 H 0.5370 0.7096 0.7942
C59 C 0.6199(2) 0.7040(2) 0.7975(3)
H56 H 0.6145 0.7052 0.7406
H57? H 0.8714 0.7174 0.7040
H58? H 0.7967 0.6707 0.7244
loop_
_geom_bond_atom_site_label_1
_geom_bond_atom_site_label_2
_geom_bond_site_symmetry_1
_geom_bond_site_symmetry_2
N1 C1 1_555 1_555
N2 H1 1_555 1_555
N3 C11 1_555 1_555
N4 H2 1_555 1_555
N5 O1 1_555 1_555
N6 O3 1_555 1_555
O2 N5 1_555 1_555
O4 N6 1_555 1_555
O5 C32 1_555 1_555
O6 C39 1_555 1_555
C1 C2 1_555 1_555
C2 H3 1_555 1_555
C3 C2 1_555 1_555
H4 C3 1_555 1_555
C4 N1 1_555 1_555
C5 C4 1_555 1_555
C6 N2 1_555 1_555
C7 C6 1_555 1_555
H5 C7 1_555 1_555
C8 C7 1_555 1_555
H6 C8 1_555 1_555
C9 N2 1_555 1_555
C10 C9 1_555 1_555
C11 C10 1_555 1_555
C12 C11 1_555 1_555
H7 C12 1_555 1_555
C13 C12 1_555 1_555
H8 C13 1_555 1_555
C14 N3 1_555 1_555
C15 C14 1_555 1_555
C16 N4 1_555 1_555
C17 C16 1_555 1_555
H9 C17 1_555 1_555
C18 C17 1_555 1_555
H10 C18 1_555 1_555
C19 N4 1_555 1_555
C20 C1 1_555 1_555
C21 C5 1_555 1_555
C22 C21 1_555 1_555
H11 C22 1_555 1_555
C23 C22 1_555 1_555
H12 C23 1_555 1_555
C24 N5 1_555 1_555
C25 C24 1_555 1_555
H13 C25 1_555 1_555
C26 C21 1_555 1_555
H14 C26 1_555 1_555
C27 C10 1_555 1_555
C28 C27 1_555 1_555
H15 C28 1_555 1_555
C29 C28 1_555 1_555
C30 C29 1_555 1_555
H16 C30 1_555 1_555
C31 C30 1_555 1_555
H17 C31 1_555 1_555
C32 C27 1_555 1_555
C33 O5 1_555 1_555
H18 C33 1_555 1_555
H19 C33 1_555 1_555
C34 C33 1_555 1_555
H20 C34 1_555 1_555
H21 C34 1_555 1_555
C35 C34 1_555 1_555
H22 C35 1_555 1_555
H23 C35 1_555 1_555
C36 C35 1_555 1_555
H24 C36 1_555 1_555
H25 C36 1_555 1_555
C37 C36 1_555 1_555
H26 C37 1_555 1_555
H27 C37 1_555 1_555
C38 C37 1_555 1_555
H28 C38 1_555 1_555
H29 C38 1_555 1_555
C39 C38 1_555 1_555
H30 C39 1_555 1_555
H31 C39 1_555 1_555
C40 O6 1_555 1_555
C41 C20 1_555 1_555
C42 C41 1_555 1_555
H32 C42 1_555 1_555
C43 C42 1_555 1_555
C44 C43 1_555 1_555
H33 C44 1_555 1_555
C45 C40 1_555 1_555
H34 C45 1_555 1_555
C46 C29 1_555 1_555
C47 C46 1_555 1_555
H35 C47 1_555 1_555
H36 C47 1_555 1_555
H37 C47 1_555 1_555
C48 C46 1_555 1_555
H38 C48 1_555 1_555
H39 C48 1_555 1_555
H40 C48 1_555 1_555
C49 C46 1_555 1_555
H41 C49 1_555 1_555
H42 C49 1_555 1_555
H43 C49 1_555 1_555
C50 C43 1_555 1_555
C51 C50 1_555 1_555
H44 C51 1_555 1_555
H45 C51 1_555 1_555
H46 C51 1_555 1_555
C52 C50 1_555 1_555
H47 C52 1_555 1_555
H48 C52 1_555 1_555
H49 C52 1_555 1_555
C53 C50 1_555 1_555
H50 C53 1_555 1_555
H51 C53 1_555 1_555
H52 C53 1_555 1_555
C54 C15 1_555 1_555
C55 C54 1_555 1_555
H53 C55 1_555 1_555
C56 C55 1_555 1_555
H54 C56 1_555 1_555
C57 N6 1_555 1_555
C58 C57 1_555 1_555
H55 C58 1_555 1_555
C59 C54 1_555 1_555
H56 C59 1_555 1_555
C3 C4 1_555 1_555
C5 C6 1_555 1_555
C8 C9 1_555 1_555
C13 C14 1_555 1_555
C15 C16 1_555 1_555
C18 C19 1_555 1_555
C19 C20 1_555 1_555
C23 C24 1_555 1_555
C25 C26 1_555 1_555
C31 C32 1_555 1_555
C40 C41 1_555 1_555
C44 C45 1_555 1_555
C56 C57 1_555 1_555
C58 C59 1_555 1_555

#END
