
#######################################################################
#
#                 Cambridge Crystallographic Data Centre
#                                CCDC 
#
#######################################################################
#
# If this CIF has been generated from an entry in the Cambridge 
# Structural Database, then it will include bibliographic, chemical, 
# crystal, experimental, refinement or atomic coordinate data resulting 
# from the CCDC's data processing and validation procedures.
#
#######################################################################

data_AWAMES
_chemical_name_common            
'4,19-di-t-butyl-27,36-bis(4-nitrophenyl)-8,15-dioxa-41,42,43,44-tetraazaoctacyclo[20.9.9.1$23,26!.1$28,31!.1$32,35!.1$37,40!.0$2,7!.0$16,21!]tetratetraconta-1(31),2,4,6,16,18,20,22,24,26,28(43),29,32,34,36,38,40-heptadecaene chloroform unknown solvate'
_chemical_formula_moiety         'C58 H54 N6 O6,C1 H1 Cl3'
_chemical_name_systematic        
"5,15-(2,2'-(hexane-1,6-diylbis(oxy))bis(5-t-butylphenyl))-10,20-bis(4-nitrophenyl)porphyrin chloroform unknown solvate"
_symmetry_cell_setting           triclinic
_symmetry_space_group_name_H-M   'P -1'
_symmetry_Int_Tables_number      2
_space_group_name_Hall           '-P 1'
loop_
_symmetry_equiv_pos_site_id
_symmetry_equiv_pos_as_xyz
1 x,y,z
2 -x,-y,-z
_cell_length_a                   12.993(3)
_cell_length_b                   15.748(3)
_cell_length_c                   16.372(3)
_cell_angle_alpha                104.52(3)
_cell_angle_beta                 106.10(3)
_cell_angle_gamma                112.15(3)
_cell_volume                     2733.14
_exptl_crystal_colour            'light purple'
_exptl_crystal_description       Prism
_cell_formula_units_Z            2
_chemical_properties_physical    Photo-sensitive
_exptl_crystal_recrystallization_method chloroform/methanol
_exptl_crystal_preparation       Luminescent
loop_
_atom_site_label
_atom_site_type_symbol
_atom_site_fract_x
_atom_site_fract_y
_atom_site_fract_z
O1 O 0.24823(15) 0.86277(12) 0.28888(13)
O2 O 0.62315(14) 0.67766(12) 0.65923(14)
O3 O 0.75848(17) 1.40383(12) 1.07284(14)
O4 O 0.61174(19) 1.34573(13) 1.11481(15)
O5 O -0.28873(17) 0.08609(12) 0.04672(13)
O6 O -0.14344(17) 0.14454(13) 0.00316(14)
N1 N 0.10925(18) 0.70698(14) 0.42173(15)
N2 N 0.27153(16) 0.89071(13) 0.58013(14)
N3 N 0.38077(17) 0.79449(14) 0.68190(15)
N4 N 0.21349(16) 0.61033(13) 0.52591(14)
N5 N 0.6619(2) 1.33731(15) 1.06261(16)
N6 N -0.19369(19) 0.15359(15) 0.05586(15)
C1 C 0.0405(2) 0.61026(17) 0.35672(17)
C2 C -0.0291(2) 0.61275(17) 0.27338(18)
H1 H -0.0877 0.5564 0.2175
C3 C 0.0032(2) 0.70962(17) 0.28822(18)
H2 H -0.0277 0.7329 0.2440
C4 C 0.0916(2) 0.77073(17) 0.38182(18)
C5 C 0.15026(19) 0.87456(16) 0.42588(17)
C6 C 0.22749(19) 0.92920(16) 0.52104(17)
C7 C 0.2753(2) 1.03605(16) 0.56988(17)
H3 H 0.2598 1.0800 0.5441
C8 C 0.3454(2) 1.06044(16) 0.65826(18)
H4 H 0.3870 1.1247 0.7075
C9 C 0.34607(19) 0.96971(16) 0.66467(17)
C10 C 0.42179(19) 0.96937(16) 0.74387(17)
C11 C 0.44203(19) 0.88921(16) 0.74996(17)
C12 C 0.5328(2) 0.89111(16) 0.82449(17)
H5 H 0.5879 0.9466 0.8818
C13 C 0.5265(2) 0.79975(16) 0.79918(17)
H6 H 0.5782 0.7810 0.8351
C14 C 0.4299(2) 0.73731(16) 0.71025(17)
C15 C 0.3854(2) 0.63550(16) 0.65929(17)
C16 C 0.2808(2) 0.57573(16) 0.57618(17)
C17 C 0.2317(2) 0.46953(17) 0.52801(18)
H7 H 0.2614 0.4286 0.5485
C18 C 0.1368(2) 0.43959(17) 0.44941(19)
H8 H 0.0857 0.3733 0.4035
C19 C 0.1262(2) 0.52783(16) 0.44728(17)
C20 C 0.04593(19) 0.52707(16) 0.36850(17)
C21 C -0.02447(19) 0.43069(16) 0.28416(17)
C22 C 0.0227(2) 0.41753(17) 0.21863(19)
H9 H 0.0947 0.4717 0.2258
C23 C -0.0320(2) 0.32763(17) 0.14293(19)
H10 H 0.0014 0.3190 0.0986
C24 C -0.1370(2) 0.25098(16) 0.13448(17)
C25 C -0.1889(2) 0.26145(17) 0.19607(18)
H11 H -0.2630 0.2080 0.1868
C26 C -0.1310(2) 0.35192(16) 0.27239(18)
H12 H -0.1645 0.3599 0.3167
C27 C 0.14307(19) 0.93066(16) 0.36415(17)
C28 C 0.1981(2) 0.92625(17) 0.30236(18)
C29 C 0.1990(2) 0.98163(18) 0.2486(2)
H13 H 0.2351 0.9768 0.2056
C30 C 0.1471(2) 1.04449(17) 0.25740(19)
H14 H 0.1506 1.0839 0.2218
C31 C 0.09063(19) 1.05040(16) 0.31710(17)
C32 C 0.08871(19) 0.99222(15) 0.36934(17)
H15 H 0.0489 0.9947 0.4099
C33 C 0.0308(2) 1.11748(17) 0.32699(18)
C34 C -0.1078(2) 1.05075(19) 0.2839(2)
H16 H -0.1474 1.0925 0.2906
H17 H -0.1289 1.0059 0.3156
H18 H -0.1358 1.0111 0.2180
C35 C 0.0602(2) 1.18675(18) 0.2766(2)
H19 H 0.1486 1.2313 0.3039
H20 H 0.0183 1.2267 0.2826
H21 H 0.0327 1.1467 0.2108
C36 C 0.0743(3) 1.18069(19) 0.4300(2)
H22 H 0.1632 1.2224 0.4580
H23 H 0.0513 1.1365 0.4619
H24 H 0.0359 1.2236 0.4357
C37 C 0.3590(2) 0.89088(19) 0.3657(2)
H25 H 0.3562 0.9224 0.4250
H26 H 0.4304 0.9398 0.3617
C38 C 0.3705(2) 0.79852(19) 0.3623(2)
H27 H 0.3986 0.7796 0.3136
H28 H 0.2894 0.7426 0.3455
C39 C 0.4594(2) 0.81500(18) 0.4542(2)
H29 H 0.4297 0.8327 0.5021
H30 H 0.5392 0.8727 0.4715
C40 C 0.4781(2) 0.72543(19) 0.4550(2)
H31 H 0.3984 0.6667 0.4360
H32 H 0.5120 0.7093 0.4097
C41 C 0.5645(2) 0.74650(19) 0.5507(2)
H33 H 0.6485 0.7942 0.5631
H34 H 0.5416 0.7787 0.5976
C42 C 0.5635(2) 0.65359(19) 0.5617(2)
H35 H 0.4783 0.5992 0.5357
H36 H 0.6070 0.6308 0.5280
C43 C 0.5684(2) 0.60626(17) 0.68977(18)
C44 C 0.4569(2) 0.58644(16) 0.69534(17)
C45 C 0.6294(2) 0.55632(18) 0.7198(2)
H37 H 0.7055 0.5701 0.7164
C46 C 0.5805(2) 0.48726(18) 0.75422(19)
H38 H 0.6241 0.4545 0.7747
C47 C 0.4693(2) 0.46412(17) 0.75985(18)
C48 C 0.4090(2) 0.51540(16) 0.72975(17)
H39 H 0.3327 0.5011 0.7330
C49 C 0.4083(2) 0.38456(18) 0.7939(2)
C50 C 0.3693(3) 0.4282(2) 0.8680(2)
H40 H 0.4410 0.4867 0.9199
H41 H 0.3324 0.3775 0.8905
H42 H 0.3097 0.4481 0.8406
C51 C 0.4951(3) 0.3477(2) 0.8371(2)
H43 H 0.5188 0.3176 0.7905
H44 H 0.4536 0.2977 0.8586
H45 H 0.5682 0.4043 0.8896
C52 C 0.2957(2) 0.29448(18) 0.7111(2)
H46 H 0.2395 0.3165 0.6822
H47 H 0.2545 0.2444 0.7327
H48 H 0.3213 0.2650 0.6657
C53 C 0.4894(2) 1.06376(16) 0.82985(17)
C54 C 0.6052(2) 1.13899(16) 0.84962(17)
H49 H 0.6449 1.1285 0.8103
C55 C 0.6617(2) 1.22786(17) 0.92562(18)
H50 H 0.7400 1.2791 0.9390
C56 C 0.6026(2) 1.24148(16) 0.98235(17)
C57 C 0.4897(2) 1.16858(17) 0.96587(18)
H51 H 0.4515 1.1789 1.0064
C58 C 0.4332(2) 1.07981(17) 0.88857(18)
H52 H 0.3548 1.0291 0.8755
H53 H 0.157(2) 0.7243(18) 0.475(2)
H54 H 0.328(2) 0.7742(18) 0.627(2)
C59 C 0.8857(3) 0.8503(2) 0.0218(2)
H55 H 0.9754 0.8769 0.0401
Cl1 Cl 0.84975(8) 0.94559(6) 0.01374(7)
Cl2 Cl 0.80755(8) 0.74978(7) -0.08669(7)
Cl3 Cl 0.84862(9) 0.81171(6) 0.10666(7)
loop_
_geom_bond_atom_site_label_1
_geom_bond_atom_site_label_2
_geom_bond_site_symmetry_1
_geom_bond_site_symmetry_2
O1 C28 1_555 1_555
O2 C42 1_555 1_555
O3 N5 1_555 1_555
O4 N5 1_555 1_555
O5 N6 1_555 1_555
O6 N6 1_555 1_555
N1 C1 1_555 1_555
N2 C6 1_555 1_555
N3 C11 1_555 1_555
N4 C16 1_555 1_555
N5 C56 1_555 1_555
N6 C24 1_555 1_555
C1 C2 1_555 1_555
C2 H1 1_555 1_555
C3 C2 1_555 1_555
H2 C3 1_555 1_555
C4 N1 1_555 1_555
C5 C4 1_555 1_555
C6 C5 1_555 1_555
C7 C6 1_555 1_555
H3 C7 1_555 1_555
C8 C7 1_555 1_555
H4 C8 1_555 1_555
C9 N2 1_555 1_555
C10 C9 1_555 1_555
C11 C10 1_555 1_555
C12 C11 1_555 1_555
H5 C12 1_555 1_555
C13 C12 1_555 1_555
H6 C13 1_555 1_555
C14 N3 1_555 1_555
C15 C14 1_555 1_555
C16 C15 1_555 1_555
C17 C16 1_555 1_555
H7 C17 1_555 1_555
C18 C17 1_555 1_555
H8 C18 1_555 1_555
C19 N4 1_555 1_555
C20 C1 1_555 1_555
C21 C20 1_555 1_555
C22 C21 1_555 1_555
H9 C22 1_555 1_555
C23 C22 1_555 1_555
H10 C23 1_555 1_555
C24 C23 1_555 1_555
C25 C24 1_555 1_555
H11 C25 1_555 1_555
C26 C21 1_555 1_555
H12 C26 1_555 1_555
C27 C5 1_555 1_555
C28 C27 1_555 1_555
C29 C28 1_555 1_555
H13 C29 1_555 1_555
C30 C29 1_555 1_555
H14 C30 1_555 1_555
C31 C30 1_555 1_555
C32 C27 1_555 1_555
H15 C32 1_555 1_555
C33 C31 1_555 1_555
C34 C33 1_555 1_555
H16 C34 1_555 1_555
H17 C34 1_555 1_555
H18 C34 1_555 1_555
C35 C33 1_555 1_555
H19 C35 1_555 1_555
H20 C35 1_555 1_555
H21 C35 1_555 1_555
C36 C33 1_555 1_555
H22 C36 1_555 1_555
H23 C36 1_555 1_555
H24 C36 1_555 1_555
C37 O1 1_555 1_555
H25 C37 1_555 1_555
H26 C37 1_555 1_555
C38 C37 1_555 1_555
H27 C38 1_555 1_555
H28 C38 1_555 1_555
C39 C38 1_555 1_555
H29 C39 1_555 1_555
H30 C39 1_555 1_555
C40 C39 1_555 1_555
H31 C40 1_555 1_555
H32 C40 1_555 1_555
C41 C40 1_555 1_555
H33 C41 1_555 1_555
H34 C41 1_555 1_555
C42 C41 1_555 1_555
H35 C42 1_555 1_555
H36 C42 1_555 1_555
C43 O2 1_555 1_555
C44 C15 1_555 1_555
C45 C43 1_555 1_555
H37 C45 1_555 1_555
C46 C45 1_555 1_555
H38 C46 1_555 1_555
C47 C46 1_555 1_555
C48 C44 1_555 1_555
H39 C48 1_555 1_555
C49 C47 1_555 1_555
C50 C49 1_555 1_555
H40 C50 1_555 1_555
H41 C50 1_555 1_555
H42 C50 1_555 1_555
C51 C49 1_555 1_555
H43 C51 1_555 1_555
H44 C51 1_555 1_555
H45 C51 1_555 1_555
C52 C49 1_555 1_555
H46 C52 1_555 1_555
H47 C52 1_555 1_555
H48 C52 1_555 1_555
C53 C10 1_555 1_555
C54 C53 1_555 1_555
H49 C54 1_555 1_555
C55 C54 1_555 1_555
H50 C55 1_555 1_555
C56 C55 1_555 1_555
C57 C56 1_555 1_555
H51 C57 1_555 1_555
C58 C53 1_555 1_555
H52 C58 1_555 1_555
H53 N1 1_555 1_555
H54 N3 1_555 1_555
C59 H55 1_555 1_555
Cl1 C59 1_555 1_555
Cl2 C59 1_555 1_555
Cl3 C59 1_555 1_555
C3 C4 1_555 1_555
C8 C9 1_555 1_555
C13 C14 1_555 1_555
C18 C19 1_555 1_555
C19 C20 1_555 1_555
C25 C26 1_555 1_555
C31 C32 1_555 1_555
C43 C44 1_555 1_555
C47 C48 1_555 1_555
C57 C58 1_555 1_555

#END
