
#######################################################################
#
#                 Cambridge Crystallographic Data Centre
#                                CCDC 
#
#######################################################################
#
# If this CIF has been generated from an entry in the Cambridge 
# Structural Database, then it will include bibliographic, chemical, 
# crystal, experimental, refinement or atomic coordinate data resulting 
# from the CCDC's data processing and validation procedures.
#
#######################################################################

data_AWAQOF
_chemical_formula_moiety         'C31 H29 Br1 N2 O5'
_chemical_name_systematic        
'Methyl N-((benzyloxy)carbonyl)-2-bromo-\b-((4-methoxyphenyl)amino)-\a-phenylphenylalaninate'
_symmetry_cell_setting           monoclinic
_symmetry_space_group_name_H-M   'P 21'
_symmetry_Int_Tables_number      4
_space_group_name_Hall           'P 2yb'
loop_
_symmetry_equiv_pos_site_id
_symmetry_equiv_pos_as_xyz
1 x,y,z
2 -x,1/2+y,-z
_cell_length_a                   8.5528(3)
_cell_length_b                   14.2736(5)
_cell_length_c                   11.6894(4)
_cell_angle_alpha                90
_cell_angle_beta                 102.2280(10)
_cell_angle_gamma                90
_cell_volume                     1394.66
_exptl_crystal_colour            colorless
_exptl_crystal_description       block
_cell_formula_units_Z            2
loop_
_atom_site_label
_atom_site_type_symbol
_atom_site_fract_x
_atom_site_fract_y
_atom_site_fract_z
Br1 Br 0.47059(3) 0.067428(18) 0.399448(18)
O1 O 0.5413(2) -0.19451(10) 0.91747(14)
O2 O 0.75707(19) -0.10158(11) 0.92258(14)
O3 O 0.45243(18) -0.18051(12) 0.53735(15)
O4 O 0.66195(18) -0.13678(10) 0.46390(14)
O5 O 1.0528(2) 0.39713(12) 0.77512(17)
N1 N 0.5909(2) -0.14377(12) 0.75104(16)
H1 H 0.4965 -0.1688 0.7231
N2 N 0.7858(2) 0.04125(12) 0.75679(17)
H2 H 0.8225 0.0053 0.8177
C1 C 0.4058(2) 0.07147(19) 0.54584(18)
C2 C 0.2550(3) 0.10919(15) 0.5440(3)
H3 H 0.1893 0.1293 0.4722
C3 C 0.2021(3) 0.11711(16) 0.6466(3)
H4 H 0.0989 0.1421 0.6457
C4 C 0.2987(3) 0.08878(15) 0.7512(3)
H5 H 0.2623 0.0940 0.8223
C5 C 0.4478(3) 0.05311(16) 0.7513(2)
H6 H 0.5145 0.0356 0.8238
C6 C 0.5047(2) 0.04172(12) 0.6493(2)
C7 C 0.8490(3) -0.14873(16) 0.6864(2)
C8 C 0.8758(3) -0.23822(15) 0.7321(2)
H7 H 0.7909 -0.2718 0.7542
C9 C 1.0258(3) -0.27911(18) 0.7459(3)
H8 H 1.0440 -0.3399 0.7792
C10 C 1.1487(3) -0.23189(18) 0.7113(3)
H9 H 1.2511 -0.2601 0.7199
C11 C 1.1214(3) -0.14330(18) 0.6642(3)
H10 H 1.2052 -0.1107 0.6394
C12 C 0.9733(3) -0.10158(16) 0.6527(2)
H11 H 0.9565 -0.0401 0.6216
C13 C 0.4601(3) -0.09340(16) 1.0594(2)
C14 C 0.5387(3) -0.00826(18) 1.0869(2)
H12 H 0.6519 -0.0049 1.0985
C15 C 0.4497(4) 0.0720(3) 1.0974(2)
H13 H 0.5028 0.1302 1.1162
C16 C 0.2865(4) 0.0675(3) 1.0807(2)
H14 H 0.2268 0.1228 1.0865
C17 C 0.2088(4) -0.0166(2) 1.0556(3)
H15 H 0.0958 -0.0197 1.0457
C18 C 0.2950(3) -0.0964(2) 1.0449(3)
H16 H 0.2406 -0.1544 1.0274
C19 C 0.8368(2) 0.13338(15) 0.7585(2)
C20 C 0.8004(2) 0.19268(14) 0.6624(2)
H17 H 0.7279 0.1723 0.5938
C21 C 0.8682(3) 0.28159(16) 0.6650(2)
H18 H 0.8430 0.3209 0.5980
C22 C 0.9723(3) 0.31249(15) 0.7649(2)
C23 C 1.0019(3) 0.25636(16) 0.8636(2)
H19 H 1.0682 0.2788 0.9340
C24 C 0.9358(3) 0.16813(16) 0.8606(2)
H20 H 0.9577 0.1303 0.9290
C25 C 0.6786(2) -0.10782(14) 0.66639(18)
C26 C 0.6743(2) 0.00232(14) 0.65816(19)
H21 H 0.7107 0.0207 0.5855
C27 C 0.6411(3) -0.14213(14) 0.8679(2)
C28 C 0.5518(3) -0.17911(16) 1.0423(2)
H22 H 0.6652 -0.1716 1.0825
H23 H 0.5077 -0.2339 1.0766
C29 C 0.5828(2) -0.14640(14) 0.54835(19)
C30 C 0.5801(3) -0.16954(17) 0.3495(2)
H24 H 0.6486 -0.1597 0.2931
H25 H 0.4800 -0.1346 0.3243
H26 H 0.5563 -0.2365 0.3537
C31 C 1.0249(4) 0.45467(17) 0.6734(3)
H27 H 1.0876 0.5124 0.6898
H28 H 0.9109 0.4703 0.6512
H29 H 1.0570 0.4209 0.6090
loop_
_geom_bond_atom_site_label_1
_geom_bond_atom_site_label_2
_geom_bond_site_symmetry_1
_geom_bond_site_symmetry_2
Br1 C1 1_555 1_555
O1 C27 1_555 1_555
O2 C27 1_555 1_555
O3 C29 1_555 1_555
O4 C29 1_555 1_555
O5 C22 1_555 1_555
N1 H1 1_555 1_555
N2 H2 1_555 1_555
C1 C2 1_555 1_555
C2 H3 1_555 1_555
C3 C2 1_555 1_555
H4 C3 1_555 1_555
C4 C3 1_555 1_555
H5 C4 1_555 1_555
C5 C4 1_555 1_555
H6 C5 1_555 1_555
C6 C1 1_555 1_555
C7 C8 1_555 1_555
C8 H7 1_555 1_555
C9 C8 1_555 1_555
H8 C9 1_555 1_555
C10 C9 1_555 1_555
H9 C10 1_555 1_555
C11 C10 1_555 1_555
H10 C11 1_555 1_555
C12 C7 1_555 1_555
H11 C12 1_555 1_555
C13 C14 1_555 1_555
C14 H12 1_555 1_555
C15 C14 1_555 1_555
H13 C15 1_555 1_555
C16 C15 1_555 1_555
H14 C16 1_555 1_555
C17 C16 1_555 1_555
H15 C17 1_555 1_555
C18 C13 1_555 1_555
H16 C18 1_555 1_555
C19 N2 1_555 1_555
C20 C19 1_555 1_555
H17 C20 1_555 1_555
C21 C20 1_555 1_555
H18 C21 1_555 1_555
C22 C21 1_555 1_555
C23 C22 1_555 1_555
H19 C23 1_555 1_555
C24 C19 1_555 1_555
H20 C24 1_555 1_555
C25 N1 1_555 1_555
C26 N2 1_555 1_555
H21 C26 1_555 1_555
C27 N1 1_555 1_555
C28 O1 1_555 1_555
H22 C28 1_555 1_555
H23 C28 1_555 1_555
C29 C25 1_555 1_555
C30 O4 1_555 1_555
H24 C30 1_555 1_555
H25 C30 1_555 1_555
H26 C30 1_555 1_555
C31 O5 1_555 1_555
H27 C31 1_555 1_555
H28 C31 1_555 1_555
H29 C31 1_555 1_555
C5 C6 1_555 1_555
C6 C26 1_555 1_555
C7 C25 1_555 1_555
C11 C12 1_555 1_555
C13 C28 1_555 1_555
C17 C18 1_555 1_555
C23 C24 1_555 1_555
C25 C26 1_555 1_555

#END
