
#######################################################################
#
#                 Cambridge Crystallographic Data Centre
#                                CCDC 
#
#######################################################################
#
# If this CIF has been generated from an entry in the Cambridge 
# Structural Database, then it will include bibliographic, chemical, 
# crystal, experimental, refinement or atomic coordinate data resulting 
# from the CCDC's data processing and validation procedures.
#
#######################################################################

data_AWARUM
_chemical_formula_moiety         'C22 H19 N1 O1'
_chemical_name_systematic        
3-(2-Phenyl-4,5,6,7-tetrahydro-1-benzofuran-4-yl)-1H-indole
_symmetry_cell_setting           orthorhombic
_symmetry_space_group_name_H-M   'P 21 21 21'
_symmetry_Int_Tables_number      19
_space_group_name_Hall           'P 2ac 2ab'
loop_
_symmetry_equiv_pos_site_id
_symmetry_equiv_pos_as_xyz
1 x,y,z
2 1/2-x,-y,1/2+z
3 1/2+x,1/2-y,-z
4 -x,1/2+y,1/2-z
_cell_length_a                   6.6184(6)
_cell_length_b                   8.4914(7)
_cell_length_c                   28.927(3)
_cell_angle_alpha                90
_cell_angle_beta                 90
_cell_angle_gamma                90
_cell_volume                     1625.68
_exptl_crystal_colour            colorless
_exptl_crystal_description       block
_cell_formula_units_Z            4
loop_
_atom_site_label
_atom_site_type_symbol
_atom_site_fract_x
_atom_site_fract_y
_atom_site_fract_z
C1 C 0.82776(17) 0.63096(14) 0.52470(4)
C2 C 0.87336(19) 0.57767(14) 0.48010(4)
H1 H 0.9733 0.6279 0.4617
C3 C 0.76686(19) 0.44891(14) 0.46393(4)
H2 H 0.7943 0.4101 0.4338
C4 C 0.6190(2) 0.37393(14) 0.49099(4)
H3 H 0.5477 0.2862 0.4788
C5 C 0.57592(18) 0.42614(14) 0.53514(4)
H4 H 0.4759 0.3749 0.5533
C6 C 0.68200(17) 0.55577(13) 0.55283(4)
C7 C 0.67821(17) 0.63799(13) 0.59622(4)
C8 C 0.81488(17) 0.75742(14) 0.59250(4)
H5 H 0.8439 0.8318 0.6161
C9 C 0.54241(17) 0.59875(13) 0.63651(4)
H6 H 0.5310 0.4815 0.6383
C10 C 0.32661(18) 0.66608(14) 0.62962(4)
H7 H 0.2873 0.6547 0.5968
H8 H 0.2300 0.6044 0.6485
C11 C 0.31335(18) 0.84016(14) 0.64344(4)
H9 H 0.4165 0.9012 0.6263
H10 H 0.1787 0.8821 0.6351
C12 C 0.34734(18) 0.85945(14) 0.69545(4)
H11 H 0.3674 0.9719 0.7032
H12 H 0.2289 0.8199 0.7128
C13 C 0.52955(17) 0.76738(14) 0.70743(4)
C14 C 0.62412(17) 0.65614(13) 0.68215(4)
C15 C 0.79956(18) 0.61110(13) 0.70806(4)
H13 H 0.8981 0.5354 0.6993
C16 C 0.79774(16) 0.69746(13) 0.74760(4)
C17 C 0.92213(17) 0.70183(13) 0.78918(4)
C18 C 1.10969(19) 0.62608(14) 0.79056(4)
H14 H 1.1582 0.5720 0.7640
C19 C 1.2249(2) 0.62994(16) 0.83063(4)
H15 H 1.3520 0.5779 0.8314
C20 C 1.1569(2) 0.70890(15) 0.86963(4)
H16 H 1.2368 0.7110 0.8969
C21 C 0.9719(2) 0.78456(14) 0.86852(4)
H17 H 0.9251 0.8397 0.8950
C22 C 0.85447(19) 0.78020(13) 0.82883(4)
H18 H 0.7266 0.8310 0.8286
N1 N 0.90491(14) 0.75464(12) 0.54957(3)
H19 H 0.9970 0.8214 0.5397
O1 O 0.63068(12) 0.79529(9) 0.74796(3)
loop_
_geom_bond_atom_site_label_1
_geom_bond_atom_site_label_2
_geom_bond_site_symmetry_1
_geom_bond_site_symmetry_2
C1 C2 1_555 1_555
C2 H1 1_555 1_555
C3 C2 1_555 1_555
H2 C3 1_555 1_555
C4 C3 1_555 1_555
H3 C4 1_555 1_555
C5 C4 1_555 1_555
H4 C5 1_555 1_555
C6 C1 1_555 1_555
C7 C6 1_555 1_555
C8 C7 1_555 1_555
H5 C8 1_555 1_555
C9 C7 1_555 1_555
H6 C9 1_555 1_555
C10 C9 1_555 1_555
H7 C10 1_555 1_555
H8 C10 1_555 1_555
C11 C10 1_555 1_555
H9 C11 1_555 1_555
H10 C11 1_555 1_555
C12 C11 1_555 1_555
H11 C12 1_555 1_555
H12 C12 1_555 1_555
C13 C12 1_555 1_555
C14 C9 1_555 1_555
C15 C14 1_555 1_555
H13 C15 1_555 1_555
C16 C15 1_555 1_555
C17 C16 1_555 1_555
C18 C17 1_555 1_555
H14 C18 1_555 1_555
C19 C18 1_555 1_555
H15 C19 1_555 1_555
C20 C19 1_555 1_555
H16 C20 1_555 1_555
C21 C20 1_555 1_555
H17 C21 1_555 1_555
C22 C17 1_555 1_555
H18 C22 1_555 1_555
N1 C1 1_555 1_555
H19 N1 1_555 1_555
O1 C13 1_555 1_555
C5 C6 1_555 1_555
C8 N1 1_555 1_555
C13 C14 1_555 1_555
C16 O1 1_555 1_555
C21 C22 1_555 1_555

#END
