
#######################################################################
#
#                 Cambridge Crystallographic Data Centre
#                                CCDC 
#
#######################################################################
#
# If this CIF has been generated from an entry in the Cambridge 
# Structural Database, then it will include bibliographic, chemical, 
# crystal, experimental, refinement or atomic coordinate data resulting 
# from the CCDC's data processing and validation procedures.
#
#######################################################################

data_AWATIB
_chemical_formula_moiety         'C15 H11 N2 O4'
_chemical_name_systematic        
'2-(Benzimidazol-2-yl)benzene-1,4-dicarboxylic acid'
_symmetry_cell_setting           monoclinic
_symmetry_space_group_name_H-M   'P 21/c'
_symmetry_Int_Tables_number      14
_space_group_name_Hall           '-P 2ybc'
loop_
_symmetry_equiv_pos_site_id
_symmetry_equiv_pos_as_xyz
1 x,y,z
2 x,1/2-y,1/2+z
3 -x,-y,-z
4 -x,1/2+y,1/2-z
_cell_length_a                   8.4640(17)
_cell_length_b                   16.829(3)
_cell_length_c                   9.5736(19)
_cell_angle_alpha                90
_cell_angle_beta                 105.99(3)
_cell_angle_gamma                90
_cell_volume                     1310.91
_exptl_crystal_colour            yellow
_exptl_crystal_description       block
_cell_formula_units_Z            4
loop_
_atom_site_label
_atom_site_type_symbol
_atom_site_fract_x
_atom_site_fract_y
_atom_site_fract_z
C1 C 0.0235(3) 0.37443(14) 0.5873(3)
H1 H -0.0276 0.4239 0.5762
C2 C 0.1685(3) 0.36554(12) 0.5493(3)
H2 H 0.2164 0.4074 0.5122
C3 C 0.0202(3) 0.23695(14) 0.6614(3)
H3 H -0.0285 0.1952 0.6979
C4 C -0.0479(3) 0.31195(16) 0.6413(3)
H4 H -0.1458 0.3208 0.6651
C5 C 0.2383(2) 0.29054(11) 0.5697(2)
C6 C 0.1659(2) 0.22784(11) 0.6239(2)
C7 C 0.7754(2) 0.02716(11) 0.55197(17)
H5 H 0.8575 -0.0078 0.5439
C8 C 0.6759(2) 0.06312(10) 0.42897(16)
C9 C 0.3960(2) 0.18454(10) 0.58522(16)
C10 C 0.6102(2) 0.11163(10) 0.85073(16)
C11 C 0.7527(2) 0.04318(11) 0.68735(17)
H6 H 0.8201 0.0188 0.7695
C12 C 0.5319(2) 0.13199(10) 0.57798(17)
C13 C 0.6310(2) 0.09499(10) 0.70167(16)
C14 C 0.5561(2) 0.11648(10) 0.44210(17)
H7 H 0.4916 0.1421 0.3600
C15 C 0.6935(2) 0.04263(10) 0.28104(16)
N1 N 0.38112(18) 0.26028(9) 0.54549(16)
H8 H 0.4488 0.2864 0.5105
N2 N 0.26711(18) 0.16258(9) 0.62978(16)
H9 H 0.2495 0.1156 0.6577
O1 O 0.65191(17) 0.05468(8) 0.94051(12)
O2 O 0.55805(18) 0.17666(8) 0.87557(13)
O3 O 0.77241(18) -0.01678(8) 0.26496(13)
O4 O 0.62225(16) 0.08992(7) 0.17990(12)
loop_
_geom_bond_atom_site_label_1
_geom_bond_atom_site_label_2
_geom_bond_site_symmetry_1
_geom_bond_site_symmetry_2
C1 H1 1_555 1_555
C2 C1 1_555 1_555
H2 C2 1_555 1_555
C3 H3 1_555 1_555
C4 C1 1_555 1_555
H4 C4 1_555 1_555
C5 C2 1_555 1_555
C6 C3 1_555 1_555
C7 H5 1_555 1_555
C8 C7 1_555 1_555
C9 C12 1_555 1_555
C10 C13 1_555 1_555
C11 C7 1_555 1_555
H6 C11 1_555 1_555
C12 C13 1_555 1_555
C13 C11 1_555 1_555
C14 C8 1_555 1_555
H7 C14 1_555 1_555
C15 C8 1_555 1_555
N1 C5 1_555 1_555
H8 N1 1_555 1_555
N2 C6 1_555 1_555
H9 N2 1_555 1_555
O1 C10 1_555 1_555
O2 C10 1_555 1_555
O3 C15 1_555 1_555
O4 C15 1_555 1_555
C3 C4 1_555 1_555
C5 C6 1_555 1_555
C9 N2 1_555 1_555
C9 N1 1_555 1_555
C12 C14 1_555 1_555

#END
