
#######################################################################
#
#                 Cambridge Crystallographic Data Centre
#                                CCDC 
#
#######################################################################
#
# If this CIF has been generated from an entry in the Cambridge 
# Structural Database, then it will include bibliographic, chemical, 
# crystal, experimental, refinement or atomic coordinate data resulting 
# from the CCDC's data processing and validation procedures.
#
#######################################################################

data_AWAYUU
_chemical_formula_moiety         'C16 H13 N1 O3 S1'
_chemical_name_systematic        'quinolin-2-yl 4-methylbenzenesulfonate'
_symmetry_cell_setting           triclinic
_symmetry_space_group_name_H-M   'P -1'
_symmetry_Int_Tables_number      2
_space_group_name_Hall           '-P 1'
loop_
_symmetry_equiv_pos_site_id
_symmetry_equiv_pos_as_xyz
1 x,y,z
2 -x,-y,-z
_cell_length_a                   9.206(10)
_cell_length_b                   9.884(11)
_cell_length_c                   9.908(15)
_cell_angle_alpha                94.646(16)
_cell_angle_beta                 117.594(10)
_cell_angle_gamma                107.809(12)
_cell_volume                     733.748
_exptl_crystal_colour            yellow
_exptl_crystal_description       block
_cell_formula_units_Z            2
loop_
_atom_site_label
_atom_site_type_symbol
_atom_site_fract_x
_atom_site_fract_y
_atom_site_fract_z
S1 S 0.12828(5) 0.70934(4) 0.75526(4)
N1 N 0.31748(16) 0.93974(13) 0.65411(14)
C1 C 0.39958(19) 1.05878(15) 0.61614(17)
O1 O -0.00980(17) 0.57363(14) 0.72320(17)
O2 O 0.16000(17) 0.83823(14) 0.85668(14)
C2 C 0.5824(2) 1.14634(17) 0.72141(19)
H1 H 0.6445 1.1234 0.8153
O3 O 0.06404(14) 0.73251(11) 0.58039(12)
C3 C 0.6679(2) 1.26426(18) 0.6859(2)
H2 H 0.7883 1.3204 0.7552
C4 C 0.5762(3) 1.3011(2) 0.5467(2)
H3 H 0.6357 1.3823 0.5244
C5 C 0.3990(3) 1.2186(2) 0.4420(2)
H4 H 0.3395 1.2449 0.3497
C6 C 0.3061(2) 1.09433(16) 0.47290(17)
C7 C 0.1242(2) 1.00072(18) 0.36777(17)
H5 H 0.0587 1.0216 0.2734
C8 C 0.0458(2) 0.88129(18) 0.40455(17)
H6 H -0.0721 0.8174 0.3366
C9 C 0.15260(19) 0.85900(16) 0.55147(16)
C10 C 0.32743(19) 0.68323(15) 0.81652(16)
C11 C 0.3213(2) 0.55134(16) 0.75166(19)
H7 H 0.2134 0.4774 0.6750
C12 C 0.4785(3) 0.53113(18) 0.8028(2)
H8 H 0.4750 0.4423 0.7593
C13 C 0.6422(2) 0.63944(19) 0.91742(18)
C14 C 0.6435(2) 0.77023(18) 0.98022(19)
H9 H 0.7513 0.8444 1.0568
C15 C 0.4884(2) 0.79304(17) 0.93174(18)
H10 H 0.4916 0.8814 0.9759
C16 C 0.8146(3) 0.6181(3) 0.9721(3)
H11 H 0.9120 0.7050 1.0507
H12 H 0.8302 0.6008 0.8839
H13 H 0.8110 0.5351 1.0163
loop_
_geom_bond_atom_site_label_1
_geom_bond_atom_site_label_2
_geom_bond_site_symmetry_1
_geom_bond_site_symmetry_2
S1 O1 1_555 1_555
N1 C1 1_555 1_555
C1 C2 1_555 1_555
O2 S1 1_555 1_555
C2 H1 1_555 1_555
O3 S1 1_555 1_555
C3 C2 1_555 1_555
H2 C3 1_555 1_555
C4 C3 1_555 1_555
H3 C4 1_555 1_555
C5 C4 1_555 1_555
H4 C5 1_555 1_555
C6 C1 1_555 1_555
C7 C6 1_555 1_555
H5 C7 1_555 1_555
C8 C7 1_555 1_555
H6 C8 1_555 1_555
C9 N1 1_555 1_555
C10 S1 1_555 1_555
C11 C10 1_555 1_555
H7 C11 1_555 1_555
C12 C11 1_555 1_555
H8 C12 1_555 1_555
C13 C12 1_555 1_555
C14 C13 1_555 1_555
H9 C14 1_555 1_555
C15 C10 1_555 1_555
H10 C15 1_555 1_555
C16 C13 1_555 1_555
H11 C16 1_555 1_555
H12 C16 1_555 1_555
H13 C16 1_555 1_555
O3 C9 1_555 1_555
C5 C6 1_555 1_555
C8 C9 1_555 1_555
C14 C15 1_555 1_555

#END
