
#######################################################################
#
#                 Cambridge Crystallographic Data Centre
#                                CCDC 
#
#######################################################################
#
# If this CIF has been generated from an entry in the Cambridge 
# Structural Database, then it will include bibliographic, chemical, 
# crystal, experimental, refinement or atomic coordinate data resulting 
# from the CCDC's data processing and validation procedures.
#
#######################################################################

data_AWAZEF
_chemical_formula_moiety         'C27 H45 Cl1 O1 Si1'
_chemical_name_systematic        
t-butyl((17-(3-chloroprop-2-en-1-yl)-13-methyl-2,3,6,7,8,9,10,11,12,13,14,15,16,17-tetradecahydro-1H-cyclopenta[a]phenanthren-17-yl)oxy)dimethylsilane
_symmetry_cell_setting           monoclinic
_symmetry_space_group_name_H-M   'P 21'
_symmetry_Int_Tables_number      4
_space_group_name_Hall           'P 2yb'
loop_
_symmetry_equiv_pos_site_id
_symmetry_equiv_pos_as_xyz
1 x,y,z
2 -x,1/2+y,-z
_cell_length_a                   10.0979(7)
_cell_length_b                   7.5039(5)
_cell_length_c                   17.1057(11)
_cell_angle_alpha                90
_cell_angle_beta                 90.799(3)
_cell_angle_gamma                90
_cell_volume                     1296.03
_exptl_crystal_colour            colorless
_exptl_crystal_description       block
_cell_formula_units_Z            2
loop_
_atom_site_label
_atom_site_type_symbol
_atom_site_fract_x
_atom_site_fract_y
_atom_site_fract_z
Cl1 Cl 0.52017(17) 0.5392(3) -0.01395(9)
Si1 Si -0.03596(10) 0.57145(16) 0.17332(6)
O1 O 0.1224(3) 0.6080(4) 0.18934(17)
C1 C 0.3527(5) 0.5996(8) -0.0151(3)
H1 H 0.3090 0.6127 -0.0643
C2 C 0.2844(5) 0.6276(8) 0.0483(3)
H2 H 0.1934 0.6557 0.0407
C3 C 0.3327(4) 0.6208(8) 0.1310(3)
H3 H 0.3398 0.7441 0.1512
H4 H 0.4228 0.5686 0.1321
C4 C 0.2447(4) 0.5127(7) 0.1863(3)
C5 C 0.2287(4) 0.3155(7) 0.1594(3)
H5 H 0.2538 0.3030 0.1039
H6 H 0.1355 0.2768 0.1647
C6 C 0.3213(5) 0.1998(7) 0.2125(3)
H7 H 0.2694 0.1244 0.2483
H8 H 0.3792 0.1226 0.1808
C7 C 0.4021(4) 0.3381(6) 0.2577(2)
H9 H 0.4716 0.3814 0.2212
C8 C 0.4750(4) 0.2799(6) 0.3324(2)
H10 H 0.4077 0.2436 0.3716
C9 C 0.5676(4) 0.1232(6) 0.3191(3)
H11 H 0.6339 0.1558 0.2795
H12 H 0.5161 0.0203 0.2989
C10 C 0.6386(4) 0.0705(6) 0.3955(2)
H13 H 0.5729 0.0233 0.4326
H14 H 0.7030 -0.0255 0.3847
C11 C 0.7097(4) 0.2249(6) 0.4324(2)
C12 C 0.8363(5) 0.2099(7) 0.4560(3)
H15 H 0.8820 0.1027 0.4442
C13 C 0.9103(4) 0.3527(7) 0.4999(3)
H16 H 0.9725 0.4129 0.4643
H17 H 0.9627 0.2980 0.5430
C14 C 0.8151(4) 0.4897(7) 0.5334(3)
H18 H 0.8655 0.5945 0.5525
H19 H 0.7680 0.4372 0.5783
C15 C 0.7147(4) 0.5483(6) 0.4709(3)
H20 H 0.7623 0.6009 0.4263
H21 H 0.6565 0.6414 0.4928
C16 C 0.6298(4) 0.3925(6) 0.4419(2)
H22 H 0.5624 0.3683 0.4828
C17 C 0.5533(4) 0.4403(6) 0.3656(3)
H23 H 0.6213 0.4716 0.3259
C18 C 0.4658(4) 0.6062(6) 0.3755(2)
H24 H 0.4026 0.5845 0.4182
H25 H 0.5223 0.7084 0.3910
C19 C 0.3881(4) 0.6542(6) 0.3006(3)
H26 H 0.3271 0.7542 0.3114
H27 H 0.4505 0.6936 0.2599
C20 C 0.3085(4) 0.4944(6) 0.2702(2)
C21 C 0.1978(4) 0.4485(7) 0.3289(3)
H28 H 0.1492 0.3431 0.3105
H29 H 0.1367 0.5494 0.3329
H30 H 0.2375 0.4238 0.3803
C22 C -0.1109(5) 0.4053(7) 0.2405(3)
H31 H -0.0681 0.2894 0.2334
H32 H -0.2059 0.3945 0.2288
H33 H -0.0982 0.4447 0.2948
C23 C -0.0716(4) 0.4981(8) 0.0703(3)
H34 H -0.0394 0.5885 0.0339
H35 H -0.1673 0.4827 0.0628
H36 H -0.0266 0.3847 0.0605
C24 C -0.1109(4) 0.7990(7) 0.1920(3)
C25 C -0.0724(5) 0.8651(8) 0.2738(3)
H37 H 0.0236 0.8839 0.2769
H38 H -0.0981 0.7761 0.3127
H39 H -0.1180 0.9777 0.2844
C26 C -0.2631(4) 0.7862(8) 0.1863(3)
H40 H -0.3016 0.9051 0.1927
H41 H -0.2954 0.7073 0.2275
H42 H -0.2890 0.7382 0.1351
C27 C -0.0617(5) 0.9314(7) 0.1310(3)
H43 H -0.1016 1.0484 0.1403
H44 H -0.0870 0.8895 0.0786
H45 H 0.0349 0.9410 0.1350
loop_
_geom_bond_atom_site_label_1
_geom_bond_atom_site_label_2
_geom_bond_site_symmetry_1
_geom_bond_site_symmetry_2
Cl1 C1 1_555 1_555
Si1 O1 1_555 1_555
O1 C4 1_555 1_555
C1 H1 1_555 1_555
C2 C1 1_555 1_555
H2 C2 1_555 1_555
C3 C2 1_555 1_555
H3 C3 1_555 1_555
H4 C3 1_555 1_555
C4 C3 1_555 1_555
C5 C4 1_555 1_555
H5 C5 1_555 1_555
H6 C5 1_555 1_555
C6 C5 1_555 1_555
H7 C6 1_555 1_555
H8 C6 1_555 1_555
C7 C6 1_555 1_555
H9 C7 1_555 1_555
C8 C7 1_555 1_555
H10 C8 1_555 1_555
C9 C8 1_555 1_555
H11 C9 1_555 1_555
H12 C9 1_555 1_555
C10 C9 1_555 1_555
H13 C10 1_555 1_555
H14 C10 1_555 1_555
C11 C10 1_555 1_555
C12 C11 1_555 1_555
H15 C12 1_555 1_555
C13 C12 1_555 1_555
H16 C13 1_555 1_555
H17 C13 1_555 1_555
C14 C13 1_555 1_555
H18 C14 1_555 1_555
H19 C14 1_555 1_555
C15 C14 1_555 1_555
H20 C15 1_555 1_555
H21 C15 1_555 1_555
C16 C11 1_555 1_555
H22 C16 1_555 1_555
C17 C8 1_555 1_555
H23 C17 1_555 1_555
C18 C17 1_555 1_555
H24 C18 1_555 1_555
H25 C18 1_555 1_555
C19 C18 1_555 1_555
H26 C19 1_555 1_555
H27 C19 1_555 1_555
C20 C4 1_555 1_555
C21 C20 1_555 1_555
H28 C21 1_555 1_555
H29 C21 1_555 1_555
H30 C21 1_555 1_555
C22 Si1 1_555 1_555
H31 C22 1_555 1_555
H32 C22 1_555 1_555
H33 C22 1_555 1_555
C23 Si1 1_555 1_555
H34 C23 1_555 1_555
H35 C23 1_555 1_555
H36 C23 1_555 1_555
C24 Si1 1_555 1_555
C25 C24 1_555 1_555
H37 C25 1_555 1_555
H38 C25 1_555 1_555
H39 C25 1_555 1_555
C26 C24 1_555 1_555
H40 C26 1_555 1_555
H41 C26 1_555 1_555
H42 C26 1_555 1_555
C27 C24 1_555 1_555
H43 C27 1_555 1_555
H44 C27 1_555 1_555
H45 C27 1_555 1_555
C7 C20 1_555 1_555
C15 C16 1_555 1_555
C16 C17 1_555 1_555
C19 C20 1_555 1_555

#END
