
#######################################################################
#
#                 Cambridge Crystallographic Data Centre
#                                CCDC 
#
#######################################################################
#
# If this CIF has been generated from an entry in the Cambridge 
# Structural Database, then it will include bibliographic, chemical, 
# crystal, experimental, refinement or atomic coordinate data resulting 
# from the CCDC's data processing and validation procedures.
#
#######################################################################

data_AWEBIN
_chemical_formula_moiety         'C19 H35 N3 O6'
_chemical_name_systematic        
't-Butoxycarbonyl-alanyl-(\a-aminoisobutyryl)-isoleucine methyl ester'
_symmetry_cell_setting           monoclinic
_symmetry_space_group_name_H-M   'C 2'
_symmetry_Int_Tables_number      5
_space_group_name_Hall           'C 2y'
loop_
_symmetry_equiv_pos_site_id
_symmetry_equiv_pos_as_xyz
1 x,y,z
2 -x,y,-z
3 1/2+x,1/2+y,z
4 1/2-x,1/2+y,-z
_cell_length_a                   19.34(2)
_cell_length_b                   6.068(8)
_cell_length_c                   20.32(2)
_cell_angle_alpha                90
_cell_angle_beta                 101.266(10)
_cell_angle_gamma                90
_cell_volume                     2338.71
_chemical_melting_point          178deg.C
_cell_formula_units_Z            4
_exptl_crystal_recrystallization_method methanol/water
loop_
_atom_site_label
_atom_site_type_symbol
_atom_site_fract_x
_atom_site_fract_y
_atom_site_fract_z
C1 C 0.6155(3) 0.8059(10) 0.3830(3)
C2 C 0.5663(4) 0.9101(13) 0.4234(4)
H1 H 0.5832 1.0544 0.4378
H2 H 0.5645 0.8205 0.4620
H3 H 0.5199 0.9216 0.3962
C3 C 0.5894(3) 0.5755(11) 0.3600(4)
H4 H 0.5432 0.5859 0.3324
H5 H 0.5875 0.4854 0.3984
H6 H 0.6211 0.5105 0.3345
C4 C 0.6892(4) 0.7930(17) 0.4206(4)
H7 H 0.7142 0.6825 0.4008
H8 H 0.6893 0.7552 0.4665
H9 H 0.7118 0.9332 0.4189
O1 O 0.62072(18) 0.9384(7) 0.3229(2)
C5 C 0.5633(3) 0.9940(8) 0.2759(3)
O2 O 0.50146(19) 0.9659(6) 0.28187(19)
N1 N 0.5818(2) 1.0876(6) 0.2216(2)
H10 H 0.6250 1.1231 0.2223
C6 C 0.5285(2) 1.1276(7) 0.1624(3)
H11 H 0.4951 1.2372 0.1731
C7 C 0.5641(3) 1.2204(8) 0.1073(3)
H12 H 0.5817 1.3656 0.1196
H13 H 0.5305 1.2274 0.0658
H14 H 0.6025 1.1263 0.1019
C8 C 0.4879(2) 0.9148(8) 0.1384(3)
O3 O 0.51812(16) 0.7359(5) 0.14184(18)
N2 N 0.41920(18) 0.9445(6) 0.10976(19)
H15 H 0.4016 1.0738 0.1119
C9 C 0.3731(2) 0.7726(7) 0.0755(3)
C10 C 0.4003(3) 0.6803(9) 0.0160(3)
H16 H 0.4046 0.7973 -0.0148
H17 H 0.3680 0.5715 -0.0063
H18 H 0.4456 0.6137 0.0313
C11 C 0.2989(3) 0.8666(7) 0.0554(3)
H19 H 0.2870 0.9458 0.0925
H20 H 0.2659 0.7484 0.0429
H21 H 0.2970 0.9647 0.0180
C12 C 0.3675(2) 0.5794(7) 0.1247(3)
O4 O 0.35119(17) 0.3922(5) 0.10289(18)
N3 N 0.3738(2) 0.6228(6) 0.1898(2)
H22 H 0.3870 0.7516 0.2048
C13 C 0.3583(2) 0.4540(8) 0.2358(3)
H23 H 0.3874 0.3250 0.2310
C14 C 0.2815(3) 0.3869(8) 0.2135(3)
O5 O 0.23300(16) 0.5102(5) 0.19450(19)
O6 O 0.27272(17) 0.1681(5) 0.22130(19)
C15 C 0.2010(3) 0.0854(9) 0.2011(3)
H24 H 0.1720 0.1464 0.2299
H25 H 0.2012 -0.0724 0.2046
H26 H 0.1826 0.1278 0.1555
C16 C 0.3767(3) 0.5282(8) 0.3106(3)
H27 H 0.4238 0.5939 0.3176
C17 C 0.3812(3) 0.3334(8) 0.3574(3)
H28 H 0.4127 0.2251 0.3441
H29 H 0.3349 0.2665 0.3518
C18 C 0.4067(4) 0.3851(12) 0.4312(3)
H30 H 0.4554 0.3444 0.4444
H31 H 0.3792 0.3036 0.4574
H32 H 0.4016 0.5400 0.4386
C19 C 0.3264(3) 0.7082(8) 0.3259(3)
H33 H 0.2805 0.6462 0.3243
H34 H 0.3235 0.8238 0.2933
H35 H 0.3439 0.7672 0.3699
loop_
_geom_bond_atom_site_label_1
_geom_bond_atom_site_label_2
_geom_bond_site_symmetry_1
_geom_bond_site_symmetry_2
C1 C2 1_555 1_555
C2 H1 1_555 1_555
H2 C2 1_555 1_555
H3 C2 1_555 1_555
C3 C1 1_555 1_555
H4 C3 1_555 1_555
H5 C3 1_555 1_555
H6 C3 1_555 1_555
C4 C1 1_555 1_555
H7 C4 1_555 1_555
H8 C4 1_555 1_555
H9 C4 1_555 1_555
O1 C1 1_555 1_555
C5 O1 1_555 1_555
O2 C5 1_555 1_555
N1 C5 1_555 1_555
H10 N1 1_555 1_555
C6 N1 1_555 1_555
H11 C6 1_555 1_555
C7 C6 1_555 1_555
H12 C7 1_555 1_555
H13 C7 1_555 1_555
H14 C7 1_555 1_555
C8 C6 1_555 1_555
O3 C8 1_555 1_555
N2 C8 1_555 1_555
H15 N2 1_555 1_555
C9 N2 1_555 1_555
C10 C9 1_555 1_555
H16 C10 1_555 1_555
H17 C10 1_555 1_555
H18 C10 1_555 1_555
C11 C9 1_555 1_555
H19 C11 1_555 1_555
H20 C11 1_555 1_555
H21 C11 1_555 1_555
C12 C9 1_555 1_555
O4 C12 1_555 1_555
N3 C12 1_555 1_555
H22 N3 1_555 1_555
C13 N3 1_555 1_555
H23 C13 1_555 1_555
C14 C13 1_555 1_555
O5 C14 1_555 1_555
O6 C14 1_555 1_555
C15 O6 1_555 1_555
H24 C15 1_555 1_555
H25 C15 1_555 1_555
H26 C15 1_555 1_555
C16 C13 1_555 1_555
H27 C16 1_555 1_555
C17 C16 1_555 1_555
H28 C17 1_555 1_555
H29 C17 1_555 1_555
C18 C17 1_555 1_555
H30 C18 1_555 1_555
H31 C18 1_555 1_555
H32 C18 1_555 1_555
C19 C16 1_555 1_555
H33 C19 1_555 1_555
H34 C19 1_555 1_555
H35 C19 1_555 1_555

#END
