
#######################################################################
#
#                 Cambridge Crystallographic Data Centre
#                                CCDC 
#
#######################################################################
#
# If this CIF has been generated from an entry in the Cambridge 
# Structural Database, then it will include bibliographic, chemical, 
# crystal, experimental, refinement or atomic coordinate data resulting 
# from the CCDC's data processing and validation procedures.
#
#######################################################################

data_AWECEK
_chemical_formula_moiety         'C22 H27 N3 O2'
_chemical_name_systematic        
N-(4a-(Morpholin-4-yl)-2,3,4,4a,9,9a-hexahydro-1H-xanthen-9-yl)pyridin-2-amine
_symmetry_cell_setting           triclinic
_symmetry_space_group_name_H-M   'P -1'
_symmetry_Int_Tables_number      2
_space_group_name_Hall           '-P 1'
loop_
_symmetry_equiv_pos_site_id
_symmetry_equiv_pos_as_xyz
1 x,y,z
2 -x,-y,-z
_cell_length_a                   9.8859(7)
_cell_length_b                   12.5451(9)
_cell_length_c                   16.3321(12)
_cell_angle_alpha                76.320(2)
_cell_angle_beta                 81.057(2)
_cell_angle_gamma                80.017(2)
_cell_volume                     1924.33
_exptl_crystal_colour            colorless
_exptl_crystal_description       'block, cut'
_chemical_melting_point          164-166deg.C
_cell_formula_units_Z            4
loop_
_atom_site_label
_atom_site_type_symbol
_atom_site_fract_x
_atom_site_fract_y
_atom_site_fract_z
O1 O 0.74367(16) 0.51077(12) 0.36275(9)
O2 O 0.7427(2) 0.10987(14) 0.49189(11)
N1 N 0.7839(2) 0.41584(18) 0.12712(13)
H1 H 0.758(3) 0.472(2) 0.0891(16)
N2 N 0.79564(19) 0.31837(15) 0.38904(11)
N3 N 0.8964(2) 0.23666(17) 0.15270(13)
C1 C 0.6401(2) 0.54178(18) 0.31130(14)
C2 C 0.5331(3) 0.6192(2) 0.33402(16)
H2 H 0.5320 0.6438 0.3835
C3 C 0.4276(3) 0.6604(2) 0.28416(18)
H3 H 0.3555 0.7127 0.2999
C4 C 0.4296(3) 0.6239(2) 0.21100(17)
H4 H 0.3596 0.6523 0.1765
C5 C 0.5355(2) 0.5449(2) 0.18891(15)
H5 H 0.5349 0.5198 0.1398
C6 C 0.6429(2) 0.50186(19) 0.23805(14)
C7 C 0.7598(2) 0.41485(19) 0.21697(13)
H6 H 0.7331 0.3425 0.2464
C8 C 0.8889(2) 0.42808(19) 0.25315(14)
H7 H 0.9601 0.3652 0.2453
C9 C 0.8523(2) 0.42135(18) 0.34883(14)
C10 C 0.9724(3) 0.4405(2) 0.38914(16)
H8 H 1.0448 0.3774 0.3895
H9 H 0.9410 0.4454 0.4476
C11 C 1.0321(3) 0.5460(2) 0.34225(19)
H10 H 0.9639 0.6103 0.3481
H11 H 1.1128 0.5515 0.3673
C12 C 1.0722(3) 0.5449(2) 0.24930(18)
H12 H 1.1446 0.4832 0.2434
H13 H 1.1083 0.6128 0.2202
C13 C 0.9483(3) 0.5342(2) 0.20892(16)
H14 H 0.9761 0.5336 0.1494
H15 H 0.8777 0.5976 0.2126
C14 C 0.7937(3) 0.1228(2) 0.40432(16)
H16 H 0.7164 0.1382 0.3713
H17 H 0.8490 0.0542 0.3945
C15 C 0.8800(3) 0.21515(19) 0.37506(16)
H18 H 0.9594 0.1993 0.4065
H19 H 0.9134 0.2220 0.3152
C16 C 0.6638(3) 0.2114(2) 0.50681(18)
H20 H 0.6307 0.2029 0.5668
H21 H 0.5839 0.2288 0.4758
C17 C 0.7478(3) 0.3051(2) 0.47971(15)
H22 H 0.6919 0.3730 0.4907
H23 H 0.8264 0.2895 0.5117
C18 C 0.8494(2) 0.3262(2) 0.09644(14)
C19 C 0.8656(3) 0.3285(2) 0.00976(15)
H24 H 0.8322 0.3918 -0.0283
C20 C 0.9313(3) 0.2369(3) -0.01820(18)
H25 H 0.9425 0.2369 -0.0758
C21 C 0.9811(3) 0.1438(2) 0.03890(19)
H26 H 1.0269 0.0805 0.0210
C22 C 0.9607(3) 0.1483(2) 0.12250(18)
H27 H 0.9937 0.0857 0.1613
O3 O 0.59313(17) 0.00994(13) 0.86039(10)
O4 O 0.6870(2) -0.38939(15) 0.99359(11)
N4 N 0.6001(2) -0.18138(16) 0.88884(11)
N5 N 0.6865(2) -0.08842(17) 0.62416(13)
H28 H 0.701(3) -0.028(2) 0.5885(16)
N6 N 0.6477(2) -0.26992(16) 0.65108(12)
C23 C 0.7100(2) 0.03326(18) 0.80654(14)
C24 C 0.7847(3) 0.10454(19) 0.82806(16)
H29 H 0.7587 0.1284 0.8787
C25 C 0.8973(3) 0.1398(2) 0.77423(17)
H30 H 0.9466 0.1882 0.7884
C26 C 0.9374(3) 0.1043(2) 0.69987(17)
H31 H 1.0127 0.1293 0.6632
C27 C 0.8650(3) 0.0309(2) 0.67993(16)
H32 H 0.8933 0.0062 0.6297
C28 C 0.7515(2) -0.00696(18) 0.73253(14)
C29 C 0.6726(2) -0.08937(19) 0.71379(14)
H33 H 0.7130 -0.1632 0.7423
C30 C 0.5227(2) -0.0694(2) 0.75422(14)
H34 H 0.4758 -0.1294 0.7482
C31 C 0.5219(2) -0.07654(19) 0.84930(14)
C32 C 0.3761(3) -0.0509(2) 0.89286(16)
H35 H 0.3250 -0.1110 0.8946
H36 H 0.3814 -0.0474 0.9510
C33 C 0.2978(3) 0.0570(3) 0.84901(18)
H37 H 0.3407 0.1185 0.8545
H38 H 0.2034 0.0654 0.8763
C34 C 0.2970(3) 0.0599(3) 0.75575(18)
H39 H 0.2514 0.1315 0.7285
H40 H 0.2454 0.0035 0.7501
C35 C 0.4436(3) 0.0399(2) 0.71214(16)
H41 H 0.4924 0.1001 0.7135
H42 H 0.4403 0.0397 0.6531
C36 C 0.6690(4) -0.3782(2) 0.90725(18)
H43 H 0.6436 -0.4464 0.8999
H44 H 0.7560 -0.3665 0.8721
C37 C 0.5600(3) -0.2838(2) 0.87846(17)
H45 H 0.5504 -0.2784 0.8194
H46 H 0.4718 -0.2960 0.9119
C38 C 0.7222(3) -0.2891(2) 1.00474(18)
H47 H 0.8101 -0.2756 0.9714
H48 H 0.7327 -0.2962 1.0640
C39 C 0.6142(3) -0.1928(2) 0.97838(16)
H49 H 0.5265 -0.2045 1.0126
H50 H 0.6406 -0.1256 0.9869
C40 C 0.6831(2) -0.18033(19) 0.59440(14)
C41 C 0.7190(3) -0.1803(2) 0.50825(15)
H51 H 0.7428 -0.1168 0.4701
C42 C 0.7185(3) -0.2745(2) 0.48109(16)
H52 H 0.7430 -0.2763 0.4240
C43 C 0.6814(3) -0.3678(2) 0.53871(17)
H53 H 0.6798 -0.4331 0.5215
C44 C 0.6473(3) -0.3608(2) 0.62115(16)
H54 H 0.6218 -0.4235 0.6598
loop_
_geom_bond_atom_site_label_1
_geom_bond_atom_site_label_2
_geom_bond_site_symmetry_1
_geom_bond_site_symmetry_2
O1 C1 1_555 1_555
O2 C14 1_555 1_555
N1 H1 1_555 1_555
N2 C9 1_555 1_555
N3 C18 1_555 1_555
C1 C2 1_555 1_555
C2 H2 1_555 1_555
C3 C2 1_555 1_555
H3 C3 1_555 1_555
C4 C3 1_555 1_555
H4 C4 1_555 1_555
C5 C4 1_555 1_555
H5 C5 1_555 1_555
C6 C1 1_555 1_555
C7 N1 1_555 1_555
H6 C7 1_555 1_555
C8 C7 1_555 1_555
H7 C8 1_555 1_555
C9 O1 1_555 1_555
C10 C9 1_555 1_555
H8 C10 1_555 1_555
H9 C10 1_555 1_555
C11 C10 1_555 1_555
H10 C11 1_555 1_555
H11 C11 1_555 1_555
C12 C11 1_555 1_555
H12 C12 1_555 1_555
H13 C12 1_555 1_555
C13 C8 1_555 1_555
H14 C13 1_555 1_555
H15 C13 1_555 1_555
C14 H16 1_555 1_555
H17 C14 1_555 1_555
C15 N2 1_555 1_555
H18 C15 1_555 1_555
H19 C15 1_555 1_555
C16 O2 1_555 1_555
H20 C16 1_555 1_555
H21 C16 1_555 1_555
C17 N2 1_555 1_555
H22 C17 1_555 1_555
H23 C17 1_555 1_555
C18 N1 1_555 1_555
C19 C18 1_555 1_555
H24 C19 1_555 1_555
C20 C19 1_555 1_555
H25 C20 1_555 1_555
C21 C20 1_555 1_555
H26 C21 1_555 1_555
C22 N3 1_555 1_555
H27 C22 1_555 1_555
O3 C23 1_555 1_555
O4 C36 1_555 1_555
N4 C31 1_555 1_555
N5 H28 1_555 1_555
N6 C40 1_555 1_555
C23 C24 1_555 1_555
C24 H29 1_555 1_555
C25 C24 1_555 1_555
H30 C25 1_555 1_555
C26 C25 1_555 1_555
H31 C26 1_555 1_555
C27 C26 1_555 1_555
H32 C27 1_555 1_555
C28 C23 1_555 1_555
C29 N5 1_555 1_555
H33 C29 1_555 1_555
C30 C29 1_555 1_555
H34 C30 1_555 1_555
C31 O3 1_555 1_555
C32 C31 1_555 1_555
H35 C32 1_555 1_555
H36 C32 1_555 1_555
C33 C32 1_555 1_555
H37 C33 1_555 1_555
H38 C33 1_555 1_555
C34 C33 1_555 1_555
H39 C34 1_555 1_555
H40 C34 1_555 1_555
C35 C30 1_555 1_555
H41 C35 1_555 1_555
H42 C35 1_555 1_555
C36 H43 1_555 1_555
H44 C36 1_555 1_555
C37 N4 1_555 1_555
H45 C37 1_555 1_555
H46 C37 1_555 1_555
C38 O4 1_555 1_555
H47 C38 1_555 1_555
H48 C38 1_555 1_555
C39 N4 1_555 1_555
H49 C39 1_555 1_555
H50 C39 1_555 1_555
C40 N5 1_555 1_555
C41 C40 1_555 1_555
H51 C41 1_555 1_555
C42 C41 1_555 1_555
H52 C42 1_555 1_555
C43 C42 1_555 1_555
H53 C43 1_555 1_555
C44 N6 1_555 1_555
H54 C44 1_555 1_555
C5 C6 1_555 1_555
C6 C7 1_555 1_555
C8 C9 1_555 1_555
C12 C13 1_555 1_555
C14 C15 1_555 1_555
C16 C17 1_555 1_555
C21 C22 1_555 1_555
C27 C28 1_555 1_555
C28 C29 1_555 1_555
C30 C31 1_555 1_555
C34 C35 1_555 1_555
C36 C37 1_555 1_555
C38 C39 1_555 1_555
C43 C44 1_555 1_555

#END
