
#######################################################################
#
#                 Cambridge Crystallographic Data Centre
#                                CCDC 
#
#######################################################################
#
# If this CIF has been generated from an entry in the Cambridge 
# Structural Database, then it will include bibliographic, chemical, 
# crystal, experimental, refinement or atomic coordinate data resulting 
# from the CCDC's data processing and validation procedures.
#
#######################################################################

data_AWEGOA
_chemical_formula_moiety         'C19 H16 N4 O4'
_chemical_name_systematic        
'dimethyl 2-anilino-8-cyano-4-methylpyrrolo[1,2-a]pyrimidine-6,7-dicarboxylate'
_symmetry_cell_setting           triclinic
_symmetry_space_group_name_H-M   'P -1'
_symmetry_Int_Tables_number      2
_space_group_name_Hall           '-P 1'
loop_
_symmetry_equiv_pos_site_id
_symmetry_equiv_pos_as_xyz
1 x,y,z
2 -x,-y,-z
_cell_length_a                   7.8070(6)
_cell_length_b                   10.4239(9)
_cell_length_c                   11.7592(11)
_cell_angle_alpha                91.6300(10)
_cell_angle_beta                 104.984(2)
_cell_angle_gamma                109.972(2)
_cell_volume                     861.609
_exptl_crystal_colour            colorless
_exptl_crystal_description       block
_cell_formula_units_Z            2
loop_
_atom_site_label
_atom_site_type_symbol
_atom_site_fract_x
_atom_site_fract_y
_atom_site_fract_z
N1 N 0.2871(3) 0.3105(2) 0.33227(19)
N2 N 0.2698(3) 0.2247(2) 0.51991(18)
N3 N 0.2780(3) 0.0058(2) 0.54102(19)
H1 H 0.2882 -0.0635 0.5057
N4 N 0.2234(4) 0.5334(3) 0.6660(2)
O1 O 0.1212(3) 0.6374(2) 0.23542(17)
O2 O 0.2595(3) 0.7322(2) 0.42332(17)
O3 O 0.3718(3) 0.5620(2) 0.14035(17)
O4 O 0.1376(4) 0.3592(2) 0.07500(18)
C1 C 0.3217(4) 0.1982(3) 0.2925(2)
C2 C 0.3211(4) 0.1010(3) 0.3650(2)
H2 H 0.3422 0.0233 0.3411
C3 C 0.2887(4) 0.1145(3) 0.4779(2)
C4 C 0.2723(4) 0.3230(3) 0.4476(2)
C5 C 0.2548(4) 0.4481(3) 0.4690(2)
C6 C 0.2557(4) 0.5128(3) 0.3641(2)
C7 C 0.2747(4) 0.4282(3) 0.2816(2)
C8 C 0.3623(4) 0.1891(3) 0.1763(2)
H3 H 0.4073 0.1149 0.1703
H4 H 0.4577 0.2740 0.1706
H5 H 0.2481 0.1725 0.1131
C9 C 0.2530(4) -0.0113(3) 0.6544(2)
C10 C 0.2804(5) 0.0947(4) 0.7377(3)
H6 H 0.3162 0.1849 0.7203
C11 C 0.2544(5) 0.0662(4) 0.8474(3)
H7 H 0.2726 0.1378 0.9036
C12 C 0.2019(5) -0.0666(4) 0.8745(3)
H8 H 0.1834 -0.0851 0.9482
C13 C 0.1773(5) -0.1708(4) 0.7918(3)
H9 H 0.1442 -0.2607 0.8099
C14 C 0.2010(4) -0.1439(3) 0.6826(3)
H10 H 0.1817 -0.2160 0.6267
C15 C 0.2354(4) 0.4964(3) 0.5770(3)
C16 C 0.2156(5) 0.6400(3) 0.3469(3)
C17 C 0.2533(5) 0.4421(4) 0.1545(3)
C18 C 0.032(5) 0.741(3) 0.2147(18)
H11 H -0.0296 0.7447 0.2750
H12 H -0.0607 0.7161 0.1382
H13 H 0.1272 0.8292 0.2174
C19 C 0.3283(6) 0.5983(4) 0.0200(3)
H14 H 0.3578 0.5410 -0.0315
H15 H 0.4030 0.6931 0.0200
H16 H 0.1957 0.5848 -0.0078
C20? C 0.115(7) 0.766(3) 0.198(4)
H17? H 0.0520 0.8020 0.2434
H18? H 0.0464 0.7514 0.1152
H19? H 0.2422 0.8299 0.2099
loop_
_geom_bond_atom_site_label_1
_geom_bond_atom_site_label_2
_geom_bond_site_symmetry_1
_geom_bond_site_symmetry_2
N1 C1 1_555 1_555
N2 C3 1_555 1_555
N3 H1 1_555 1_555
N4 C15 1_555 1_555
O1 C16 1_555 1_555
O2 C16 1_555 1_555
O3 C17 1_555 1_555
O4 C17 1_555 1_555
C1 C2 1_555 1_555
C2 H2 1_555 1_555
C3 N3 1_555 1_555
C4 N1 1_555 1_555
C5 C4 1_555 1_555
C6 C5 1_555 1_555
C7 N1 1_555 1_555
C8 C1 1_555 1_555
H3 C8 1_555 1_555
H4 C8 1_555 1_555
H5 C8 1_555 1_555
C9 N3 1_555 1_555
C10 C9 1_555 1_555
H6 C10 1_555 1_555
C11 C10 1_555 1_555
H7 C11 1_555 1_555
C12 C11 1_555 1_555
H8 C12 1_555 1_555
C13 C12 1_555 1_555
H9 C13 1_555 1_555
C14 C9 1_555 1_555
H10 C14 1_555 1_555
C15 C5 1_555 1_555
C16 C6 1_555 1_555
C17 C7 1_555 1_555
C18 O1 1_555 1_555
H11 C18 1_555 1_555
H12 C18 1_555 1_555
H13 C18 1_555 1_555
C19 O3 1_555 1_555
H14 C19 1_555 1_555
H15 C19 1_555 1_555
H16 C19 1_555 1_555
N2 C4 1_555 1_555
C2 C3 1_555 1_555
C6 C7 1_555 1_555
C13 C14 1_555 1_555

#END
