
#######################################################################
#
#                 Cambridge Crystallographic Data Centre
#                                CCDC 
#
#######################################################################
#
# If this CIF has been generated from an entry in the Cambridge 
# Structural Database, then it will include bibliographic, chemical, 
# crystal, experimental, refinement or atomic coordinate data resulting 
# from the CCDC's data processing and validation procedures.
#
#######################################################################

data_AWEGUG
_chemical_formula_moiety         'C15 H16 N4 O4'
_chemical_name_systematic        
'diethyl 2-amino-8-cyano-4-methylpyrrolo[1,2-a]pyrimidine-6,7-dicarboxylate'
_symmetry_cell_setting           triclinic
_symmetry_space_group_name_H-M   'P -1'
_symmetry_Int_Tables_number      2
_space_group_name_Hall           '-P 1'
loop_
_symmetry_equiv_pos_site_id
_symmetry_equiv_pos_as_xyz
1 x,y,z
2 -x,-y,-z
_cell_length_a                   7.7414(7)
_cell_length_b                   8.8274(8)
_cell_length_c                   11.8761(9)
_cell_angle_alpha                87.385(2)
_cell_angle_beta                 80.5140(10)
_cell_angle_gamma                71.8460(10)
_cell_volume                     760.613
_exptl_crystal_colour            colorless
_exptl_crystal_description       block
_cell_formula_units_Z            2
loop_
_atom_site_label
_atom_site_type_symbol
_atom_site_fract_x
_atom_site_fract_y
_atom_site_fract_z
N1 N 0.3871(2) 0.7175(2) 0.31274(14)
N2 N 0.1850(3) 0.5840(2) 0.42293(15)
N3 N -0.1209(3) 0.7238(3) 0.47306(18)
H1 H -0.1387 0.6386 0.5037
H2 H -0.2115 0.8103 0.4745
N4 N 0.5623(3) 0.1817(3) 0.43992(19)
O1 O 0.7396(3) 0.8619(2) 0.21809(14)
O2 O 0.6244(3) 0.7820(2) 0.07943(15)
O3 O 0.9484(2) 0.51059(18) 0.19493(13)
O4 O 0.9074(3) 0.2876(2) 0.27408(18)
C1 C 0.5730(3) 0.6784(3) 0.26435(17)
C2 C 0.6549(3) 0.5225(2) 0.28986(17)
C3 C 0.5192(3) 0.4607(3) 0.35485(18)
C4 C 0.3536(3) 0.5840(3) 0.36825(18)
C5 C 0.2465(3) 0.8636(3) 0.3198(2)
C6 C 0.0796(3) 0.8628(3) 0.3741(2)
H3 H -0.0179 0.9572 0.3798
C7 C 0.0483(3) 0.7216(3) 0.4230(2)
C8 C 0.6469(3) 0.7800(3) 0.1769(2)
C9 C 0.8251(5) 0.9556(4) 0.1334(3)
H4 H 0.8761 0.8939 0.0635
H5 H 0.9253 0.9768 0.1624
C10 C 0.6888(5) 1.1104(4) 0.1077(3)
H6 H 0.5995 1.0898 0.0683
H7 H 0.7518 1.1742 0.0605
H8 H 0.6278 1.1662 0.1778
C11 C 0.8479(3) 0.4267(3) 0.25343(19)
C12 C 1.1428(3) 0.4268(3) 0.1577(2)
H9 H 1.1565 0.3361 0.1102
H10 H 1.2039 0.3887 0.2233
C13 C 1.2251(4) 0.5427(4) 0.0915(2)
H11 H 1.1649 0.5782 0.0263
H12 H 1.3541 0.4916 0.0666
H13 H 1.2092 0.6325 0.1392
C14 C 0.5447(3) 0.3054(3) 0.40155(19)
C15 C 0.2913(4) 1.0075(3) 0.2719(3)
H14 H 0.1851 1.0997 0.2890
H15 H 0.3267 0.9956 0.1906
H16 H 0.3910 1.0203 0.3050
loop_
_geom_bond_atom_site_label_1
_geom_bond_atom_site_label_2
_geom_bond_site_symmetry_1
_geom_bond_site_symmetry_2
N1 C1 1_555 1_555
N2 C4 1_555 1_555
N3 H1 1_555 1_555
H2 N3 1_555 1_555
N4 C14 1_555 1_555
O1 C8 1_555 1_555
O2 C8 1_555 1_555
O3 C11 1_555 1_555
O4 C11 1_555 1_555
C1 C2 1_555 1_555
C2 C3 1_555 1_555
C3 C4 1_555 1_555
C4 N1 1_555 1_555
C5 N1 1_555 1_555
C6 C5 1_555 1_555
H3 C6 1_555 1_555
C7 N2 1_555 1_555
C8 C1 1_555 1_555
C9 O1 1_555 1_555
H4 C9 1_555 1_555
H5 C9 1_555 1_555
C10 C9 1_555 1_555
H6 C10 1_555 1_555
H7 C10 1_555 1_555
H8 C10 1_555 1_555
C11 C2 1_555 1_555
C12 O3 1_555 1_555
H9 C12 1_555 1_555
H10 C12 1_555 1_555
C13 C12 1_555 1_555
H11 C13 1_555 1_555
H12 C13 1_555 1_555
H13 C13 1_555 1_555
C14 C3 1_555 1_555
C15 C5 1_555 1_555
H14 C15 1_555 1_555
H15 C15 1_555 1_555
H16 C15 1_555 1_555
N3 C7 1_555 1_555
C6 C7 1_555 1_555

#END
