
#######################################################################
#
#                 Cambridge Crystallographic Data Centre
#                                CCDC 
#
#######################################################################
#
# If this CIF has been generated from an entry in the Cambridge 
# Structural Database, then it will include bibliographic, chemical, 
# crystal, experimental, refinement or atomic coordinate data resulting 
# from the CCDC's data processing and validation procedures.
#
#######################################################################

data_AWEHIV
_chemical_formula_moiety         'C15 H15 N1 O3'
_chemical_name_systematic        
1-acetyl-3,4-dimethyl-1,3,3a,8a-tetrahydroindeno[2,1-b]pyrrole-2,8-dione
_symmetry_cell_setting           monoclinic
_symmetry_space_group_name_H-M   'P 21/c'
_symmetry_Int_Tables_number      14
_space_group_name_Hall           '-P 2ybc'
loop_
_symmetry_equiv_pos_site_id
_symmetry_equiv_pos_as_xyz
1 x,y,z
2 -x,1/2+y,1/2-z
3 -x,-y,-z
4 x,1/2-y,1/2+z
_cell_length_a                   7.5525(2)
_cell_length_b                   19.9782(5)
_cell_length_c                   8.7575(2)
_cell_angle_alpha                90
_cell_angle_beta                 101.2500(10)
_cell_angle_gamma                90
_cell_volume                     1295.99
_exptl_crystal_colour            colorless
_exptl_crystal_description       block
_cell_formula_units_Z            4
loop_
_atom_site_label
_atom_site_type_symbol
_atom_site_fract_x
_atom_site_fract_y
_atom_site_fract_z
O1 O 0.33961(14) 0.19417(5) 0.22958(13)
C1 C 0.33343(17) 0.25060(6) 0.27910(14)
N1 N 0.18316(14) 0.28002(5) 0.32305(12)
O2 O -0.08058(13) 0.28168(5) 0.40637(13)
C2 C 0.48757(17) 0.30098(6) 0.30134(14)
H1 H 0.5944 0.2808 0.3718
O3 O -0.01363(13) 0.39302(5) 0.14629(13)
C3 C 0.42013(16) 0.36123(6) 0.38640(14)
H2 H 0.4766 0.3612 0.4996
C4 C 0.21502(16) 0.35059(6) 0.36263(14)
H3 H 0.1702 0.3619 0.4597
C5 C 0.13390(17) 0.39846(6) 0.22936(15)
C6 C 0.43576(18) 0.42940(6) 0.31514(14)
C7 C 0.27313(18) 0.44965(6) 0.22313(15)
C8 C 0.5699(2) 0.53063(7) 0.25181(18)
H4 H 0.6711 0.5597 0.2617
C9 C 0.58953(19) 0.46978(7) 0.33204(16)
C10 C 0.4079(2) 0.55023(7) 0.15816(19)
H5 H 0.4011 0.5919 0.1051
C11 C 0.2568(2) 0.51001(7) 0.14115(17)
H6 H 0.1461 0.5229 0.0763
C12 C 0.7646(2) 0.44878(8) 0.43266(19)
H7 H 0.8000 0.4049 0.3986
H8 H 0.7501 0.4460 0.5413
H9 H 0.8583 0.4817 0.4239
C13 C 0.5388(2) 0.31579(7) 0.14434(16)
H10 H 0.5735 0.2741 0.0991
H11 H 0.6406 0.3471 0.1593
H12 H 0.4354 0.3357 0.0739
C14 C 0.02302(18) 0.24934(7) 0.34608(15)
C15 C -0.0111(2) 0.17813(8) 0.2967(2)
H13 H -0.0164 0.1744 0.1843
H14 H -0.1260 0.1634 0.3213
H15 H 0.0869 0.1499 0.3522
loop_
_geom_bond_atom_site_label_1
_geom_bond_atom_site_label_2
_geom_bond_site_symmetry_1
_geom_bond_site_symmetry_2
O1 C1 1_555 1_555
C1 N1 1_555 1_555
N1 C4 1_555 1_555
O2 C14 1_555 1_555
C2 C1 1_555 1_555
H1 C2 1_555 1_555
O3 C5 1_555 1_555
C3 C2 1_555 1_555
H2 C3 1_555 1_555
C4 C3 1_555 1_555
H3 C4 1_555 1_555
C5 C4 1_555 1_555
C6 C3 1_555 1_555
C7 C5 1_555 1_555
C8 H4 1_555 1_555
C9 C6 1_555 1_555
C10 C8 1_555 1_555
H5 C10 1_555 1_555
C11 C7 1_555 1_555
H6 C11 1_555 1_555
C12 C9 1_555 1_555
H7 C12 1_555 1_555
H8 C12 1_555 1_555
H9 C12 1_555 1_555
C13 C2 1_555 1_555
H10 C13 1_555 1_555
H11 C13 1_555 1_555
H12 C13 1_555 1_555
C14 N1 1_555 1_555
C15 C14 1_555 1_555
H13 C15 1_555 1_555
H14 C15 1_555 1_555
H15 C15 1_555 1_555
C6 C7 1_555 1_555
C8 C9 1_555 1_555
C10 C11 1_555 1_555

#END
