
#######################################################################
#
#                 Cambridge Crystallographic Data Centre
#                                CCDC 
#
#######################################################################
#
# If this CIF has been generated from an entry in the Cambridge 
# Structural Database, then it will include bibliographic, chemical, 
# crystal, experimental, refinement or atomic coordinate data resulting 
# from the CCDC's data processing and validation procedures.
#
#######################################################################

data_AWEHER
_chemical_formula_moiety         'C14 H12 Br1 N1 O3'
_chemical_name_systematic        
1-acetyl-6-bromo-3-methyl-1,3,3a,8a-tetrahydroindeno[2,1-b]pyrrole-2,8-dione
_symmetry_cell_setting           orthorhombic
_symmetry_space_group_name_H-M   'P 21 21 21'
_symmetry_Int_Tables_number      19
_space_group_name_Hall           'P 2ac 2ab'
loop_
_symmetry_equiv_pos_site_id
_symmetry_equiv_pos_as_xyz
1 x,y,z
2 1/2-x,-y,1/2+z
3 -x,1/2+y,1/2-z
4 1/2+x,1/2-y,-z
_cell_length_a                   7.9233(3)
_cell_length_b                   12.2103(5)
_cell_length_c                   13.1083(6)
_cell_angle_alpha                90
_cell_angle_beta                 90
_cell_angle_gamma                90
_cell_volume                     1268.17
_exptl_crystal_colour            colorless
_exptl_crystal_description       block
_cell_formula_units_Z            4
loop_
_atom_site_label
_atom_site_type_symbol
_atom_site_fract_x
_atom_site_fract_y
_atom_site_fract_z
Br1 Br 0.54293(3) 0.08256(2) 0.37991(2)
C1 C 0.5956(3) 0.7348(2) 0.39553(19)
N1 N 0.7470(3) 0.69767(17) 0.35223(15)
O1 O 0.5283(2) 0.82165(16) 0.37584(16)
O2 O 0.9969(2) 0.71636(16) 0.27299(15)
C2 C 0.5293(3) 0.6509(2) 0.46929(18)
H1 H 0.5086 0.6877 0.5363
O3 O 0.8310(3) 0.49103(17) 0.23272(14)
C3 C 0.6741(3) 0.5669(2) 0.48307(18)
H2 H 0.7311 0.5776 0.5504
C4 C 0.7791(3) 0.4951(2) 0.31929(18)
C5 C 0.7981(3) 0.5907(2) 0.39455(18)
H3 H 0.9165 0.5944 0.4207
C6 C 0.6294(3) 0.4479(2) 0.46778(18)
C7 C 0.6873(3) 0.4080(2) 0.37494(17)
C8 C 0.5167(4) 0.2713(2) 0.5049(2)
H4 H 0.4573 0.2230 0.5490
C9 C 0.5425(4) 0.3791(2) 0.53381(17)
H5 H 0.5017 0.4054 0.5974
C10 C 0.5773(3) 0.2329(2) 0.4114(2)
C11 C 0.6624(3) 0.2998(2) 0.34433(17)
H6 H 0.7022 0.2737 0.2805
C12 C 0.3608(4) 0.6064(3) 0.4295(3)
H7 H 0.2825 0.6673 0.4183
H8 H 0.3127 0.5558 0.4797
H9 H 0.3795 0.5676 0.3650
C13 C 0.8572(3) 0.7532(2) 0.28663(18)
C14 C 0.7954(4) 0.8556(2) 0.2372(2)
H10 H 0.8717 0.8760 0.1816
H11 H 0.7920 0.9147 0.2878
H12 H 0.6818 0.8435 0.2099
loop_
_geom_bond_atom_site_label_1
_geom_bond_atom_site_label_2
_geom_bond_site_symmetry_1
_geom_bond_site_symmetry_2
Br1 C10 1_555 1_555
C1 N1 1_555 1_555
N1 C5 1_555 1_555
O1 C1 1_555 1_555
O2 C13 1_555 1_555
C2 C1 1_555 1_555
H1 C2 1_555 1_555
O3 C4 1_555 1_555
C3 C2 1_555 1_555
H2 C3 1_555 1_555
C4 C5 1_555 1_555
C5 C3 1_555 1_555
H3 C5 1_555 1_555
C6 C3 1_555 1_555
C7 C4 1_555 1_555
C8 H4 1_555 1_555
C9 C6 1_555 1_555
H5 C9 1_555 1_555
C10 C8 1_555 1_555
C11 C7 1_555 1_555
H6 C11 1_555 1_555
C12 C2 1_555 1_555
H7 C12 1_555 1_555
H8 C12 1_555 1_555
H9 C12 1_555 1_555
C13 N1 1_555 1_555
C14 C13 1_555 1_555
H10 C14 1_555 1_555
H11 C14 1_555 1_555
H12 C14 1_555 1_555
C6 C7 1_555 1_555
C8 C9 1_555 1_555
C10 C11 1_555 1_555

#END
