
#######################################################################
#
#                 Cambridge Crystallographic Data Centre
#                                CCDC 
#
#######################################################################
#
# If this CIF has been generated from an entry in the Cambridge 
# Structural Database, then it will include bibliographic, chemical, 
# crystal, experimental, refinement or atomic coordinate data resulting 
# from the CCDC's data processing and validation procedures.
#
#######################################################################

data_AWEJIX
_chemical_formula_moiety         'C14 H12 Cl1 N1 O3'
_chemical_name_systematic        
1-acetyl-6-chloro-3-methyl-1,3,3a,8a-tetrahydroindeno[2,1-b]pyrrole-2,8-dione
_symmetry_cell_setting           orthorhombic
_symmetry_space_group_name_H-M   'P 21 21 21'
_symmetry_Int_Tables_number      19
_space_group_name_Hall           'P 2ac 2ab'
loop_
_symmetry_equiv_pos_site_id
_symmetry_equiv_pos_as_xyz
1 x,y,z
2 1/2-x,-y,1/2+z
3 -x,1/2+y,1/2-z
4 1/2+x,1/2-y,-z
_cell_length_a                   7.7531(2)
_cell_length_b                   12.2908(3)
_cell_length_c                   13.2105(3)
_cell_angle_alpha                90
_cell_angle_beta                 90
_cell_angle_gamma                90
_cell_volume                     1258.85
_exptl_crystal_colour            colorless
_exptl_crystal_description       block
_cell_formula_units_Z            4
loop_
_atom_site_label
_atom_site_type_symbol
_atom_site_fract_x
_atom_site_fract_y
_atom_site_fract_z
Cl1 Cl 0.54875(7) 0.91042(4) 0.62684(4)
C1 C 0.5917(2) 0.27515(15) 0.59518(14)
N1 N 0.7435(2) 0.30994(12) 0.64217(11)
O1 O 0.5211(2) 0.18810(12) 0.60848(12)
O2 O 0.99415(17) 0.28631(12) 0.72525(10)
C2 C 0.5282(3) 0.36393(16) 0.52508(14)
H1 H 0.5046 0.3316 0.4570
O3 O 0.82292(19) 0.50915(11) 0.77011(9)
C3 C 0.6806(2) 0.44474(15) 0.51580(13)
H2 H 0.7421 0.4344 0.4500
C4 C 0.8000(2) 0.41633(14) 0.60522(12)
H3 H 0.9226 0.4126 0.5820
C5 C 0.6387(2) 0.56305(14) 0.53231(13)
C6 C 0.6909(2) 0.59900(14) 0.62753(12)
C7 C 0.7769(2) 0.50979(14) 0.68245(12)
C8 C 0.5306(3) 0.74082(17) 0.49781(15)
H4 H 0.4750 0.7909 0.4538
C9 C 0.5577(3) 0.63493(16) 0.46626(14)
H5 H 0.5219 0.6118 0.4010
C10 C 0.5839(2) 0.77503(15) 0.59353(14)
C11 C 0.6646(2) 0.70574(15) 0.66053(13)
H6 H 0.7004 0.7293 0.7257
C12 C 0.3587(3) 0.4092(2) 0.5685(2)
H7 H 0.3127 0.4648 0.5227
H8 H 0.3807 0.4417 0.6350
H9 H 0.2748 0.3501 0.5754
C13 C 0.8525(2) 0.25043(15) 0.70700(14)
C14 C 0.7878(3) 0.14539(17) 0.74920(17)
H10 H 0.7656 0.0943 0.6937
H11 H 0.6808 0.1583 0.7867
H12 H 0.8747 0.1146 0.7948
loop_
_geom_bond_atom_site_label_1
_geom_bond_atom_site_label_2
_geom_bond_site_symmetry_1
_geom_bond_site_symmetry_2
Cl1 C10 1_555 1_555
C1 N1 1_555 1_555
N1 C4 1_555 1_555
O1 C1 1_555 1_555
O2 C13 1_555 1_555
C2 C1 1_555 1_555
H1 C2 1_555 1_555
O3 C7 1_555 1_555
C3 C2 1_555 1_555
H2 C3 1_555 1_555
C4 C3 1_555 1_555
H3 C4 1_555 1_555
C5 C3 1_555 1_555
C6 C5 1_555 1_555
C7 C4 1_555 1_555
C8 H4 1_555 1_555
C9 C5 1_555 1_555
H5 C9 1_555 1_555
C10 C8 1_555 1_555
C11 C6 1_555 1_555
H6 C11 1_555 1_555
C12 C2 1_555 1_555
H7 C12 1_555 1_555
H8 C12 1_555 1_555
H9 C12 1_555 1_555
C13 N1 1_555 1_555
C14 C13 1_555 1_555
H10 C14 1_555 1_555
H11 C14 1_555 1_555
H12 C14 1_555 1_555
C6 C7 1_555 1_555
C8 C9 1_555 1_555
C10 C11 1_555 1_555

#END
