
#######################################################################
#
#                 Cambridge Crystallographic Data Centre
#                                CCDC 
#
#######################################################################
#
# If this CIF has been generated from an entry in the Cambridge 
# Structural Database, then it will include bibliographic, chemical, 
# crystal, experimental, refinement or atomic coordinate data resulting 
# from the CCDC's data processing and validation procedures.
#
#######################################################################

data_AWEJET
_chemical_formula_moiety         'C16 H15 N1 O5'
_chemical_name_systematic        
'methyl 1-acetyl-3-methyl-2,8-dioxo-1,2,3,3a,8,8a-hexahydroindeno[2,1-b]pyrrole-6-carboxylate'
_symmetry_cell_setting           monoclinic
_symmetry_space_group_name_H-M   'P 21'
_symmetry_Int_Tables_number      4
_space_group_name_Hall           'P 2yb'
loop_
_symmetry_equiv_pos_site_id
_symmetry_equiv_pos_as_xyz
1 x,y,z
2 -x,1/2+y,-z
_cell_length_a                   8.3968(4)
_cell_length_b                   6.1695(3)
_cell_length_c                   13.7440(7)
_cell_angle_alpha                90
_cell_angle_beta                 94.9390(10)
_cell_angle_gamma                90
_cell_volume                     709.351
_exptl_crystal_colour            colorless
_exptl_crystal_description       block
_cell_formula_units_Z            2
loop_
_atom_site_label
_atom_site_type_symbol
_atom_site_fract_x
_atom_site_fract_y
_atom_site_fract_z
O1 O 0.5903(2) 0.2351(3) 0.05753(14)
C1 C 0.5557(3) 0.3948(4) 0.10188(16)
N1 N 0.6618(2) 0.5575(3) 0.13587(13)
O2 O 0.8820(2) 0.7654(4) 0.13019(13)
C2 C 0.3872(3) 0.4513(4) 0.12728(17)
H1 H 0.3188 0.4721 0.0648
O3 O 0.76268(15) 0.6698(3) 0.34482(10)
C3 C 0.4051(2) 0.6738(4) 0.17920(14)
H2 H 0.3521 0.7893 0.1368
O4 O 0.37039(17) 0.6803(3) 0.64858(10)
C4 C 0.5854(2) 0.7177(4) 0.19530(14)
H3 H 0.6105 0.8681 0.1742
C5 C 0.6292(2) 0.6895(4) 0.30615(13)
O5 O 0.11018(16) 0.6753(3) 0.59482(10)
C6 C 0.3488(2) 0.6859(4) 0.28063(13)
C7 C 0.4762(2) 0.6886(3) 0.35227(14)
C8 C 0.1663(2) 0.6888(5) 0.40451(15)
H4 H 0.0599 0.6899 0.4231
C9 C 0.1926(2) 0.6898(5) 0.30638(15)
H5 H 0.1053 0.6932 0.2576
C10 C 0.2948(2) 0.6862(4) 0.47673(13)
C11 C 0.4515(2) 0.6869(4) 0.45121(14)
H6 H 0.5391 0.6862 0.4998
C12 C 0.2664(2) 0.6810(4) 0.58244(14)
C13 C 0.0687(3) 0.6742(5) 0.69434(16)
H7 H -0.0479 0.6692 0.6951
H8 H 0.1098 0.8059 0.7275
H9 H 0.1159 0.5466 0.7282
C14 C 0.3164(3) 0.2680(4) 0.18294(19)
H10 H 0.2059 0.3036 0.1946
H11 H 0.3795 0.2475 0.2456
H12 H 0.3179 0.1342 0.1446
C15 C 0.8158(3) 0.5942(5) 0.10819(16)
C16 C 0.8942(3) 0.4212(6) 0.0524(2)
H13 H 0.8387 0.4081 -0.0130
H14 H 0.8888 0.2827 0.0869
H15 H 1.0063 0.4598 0.0470
loop_
_geom_bond_atom_site_label_1
_geom_bond_atom_site_label_2
_geom_bond_site_symmetry_1
_geom_bond_site_symmetry_2
O1 C1 1_555 1_555
C1 N1 1_555 1_555
N1 C4 1_555 1_555
O2 C15 1_555 1_555
C2 C1 1_555 1_555
H1 C2 1_555 1_555
O3 C5 1_555 1_555
C3 C2 1_555 1_555
H2 C3 1_555 1_555
O4 C12 1_555 1_555
C4 C3 1_555 1_555
H3 C4 1_555 1_555
C5 C4 1_555 1_555
O5 C12 1_555 1_555
C6 C3 1_555 1_555
C7 C5 1_555 1_555
C8 H4 1_555 1_555
C9 C6 1_555 1_555
H5 C9 1_555 1_555
C10 C8 1_555 1_555
C11 C7 1_555 1_555
H6 C11 1_555 1_555
C12 C10 1_555 1_555
C13 O5 1_555 1_555
H7 C13 1_555 1_555
H8 C13 1_555 1_555
H9 C13 1_555 1_555
C14 C2 1_555 1_555
H10 C14 1_555 1_555
H11 C14 1_555 1_555
H12 C14 1_555 1_555
C15 N1 1_555 1_555
C16 C15 1_555 1_555
H13 C16 1_555 1_555
H14 C16 1_555 1_555
H15 C16 1_555 1_555
C6 C7 1_555 1_555
C8 C9 1_555 1_555
C10 C11 1_555 1_555

#END
