
#######################################################################
#
#                 Cambridge Crystallographic Data Centre
#                                CCDC 
#
#######################################################################
#
# If this CIF has been generated from an entry in the Cambridge 
# Structural Database, then it will include bibliographic, chemical, 
# crystal, experimental, refinement or atomic coordinate data resulting 
# from the CCDC's data processing and validation procedures.
#
#######################################################################

data_AWEMEW
_chemical_formula_moiety         'C22 H25 N2 O4 P1'
_chemical_name_systematic        
'diisopropyl (8-(benzoylamino)quinolin-5-yl)phosphonate'
_symmetry_cell_setting           triclinic
_symmetry_space_group_name_H-M   'P -1'
_symmetry_Int_Tables_number      2
_space_group_name_Hall           '-P 1'
loop_
_symmetry_equiv_pos_site_id
_symmetry_equiv_pos_as_xyz
1 x,y,z
2 -x,-y,-z
_cell_length_a                   8.9115(7)
_cell_length_b                   11.1099(7)
_cell_length_c                   11.8272(9)
_cell_angle_alpha                83.858(6)
_cell_angle_beta                 86.228(6)
_cell_angle_gamma                67.922(6)
_cell_volume                     1078.45
_exptl_crystal_colour            colorless
_exptl_crystal_description       prism
_cell_formula_units_Z            2
loop_
_atom_site_label
_atom_site_type_symbol
_atom_site_fract_x
_atom_site_fract_y
_atom_site_fract_z
C1 C 0.8808(4) 0.7032(3) 0.6681(3)
C2 C 0.7838(4) 0.8150(3) 0.6073(3)
H1 H 0.7844 0.8945 0.6248
C3 C 0.6848(4) 0.8154(3) 0.5209(3)
H2 H 0.6203 0.8939 0.4831
C4 C 0.6822(4) 0.7002(3) 0.4912(3)
C5 C 0.7770(4) 0.5808(3) 0.5535(3)
C6 C 0.8781(4) 0.5805(3) 0.6404(3)
C7 C 0.9701(5) 0.4578(4) 0.6948(3)
H3 H 1.0402 0.4519 0.7519
C8 C 0.9562(5) 0.3484(4) 0.6640(3)
H4 H 1.0156 0.2672 0.7001
C9 C 0.8520(5) 0.3591(4) 0.5775(3)
H5 H 0.8438 0.2831 0.5577
C10 C 0.4975(4) 0.7822(4) 0.3289(3)
C11 C 0.4254(4) 0.7358(4) 0.2404(3)
C12 C 0.2999(5) 0.8280(4) 0.1783(3)
H6 H 0.2625 0.9151 0.1932
C13 C 0.2301(5) 0.7903(5) 0.0938(4)
H7 H 0.1455 0.8526 0.0529
C14 C 0.2838(5) 0.6635(5) 0.0699(4)
H8 H 0.2368 0.6389 0.0130
C15 C 0.4092(5) 0.5719(5) 0.1316(4)
H9 H 0.4461 0.4850 0.1160
C16 C 0.4799(5) 0.6065(4) 0.2149(3)
H10 H 0.5649 0.5435 0.2549
C17 C 0.798(2) 0.753(2) 0.9540(12)
H11 H 0.8715 0.6645 0.9778
C18 C 0.6448(19) 0.7404(19) 0.9220(14)
H12 H 0.5559 0.7920 0.9681
H13 H 0.6559 0.6506 0.9343
H14 H 0.6245 0.7703 0.8433
C19 C 0.7751(16) 0.8302(14) 1.0554(10)
H15 H 0.8774 0.8320 1.0740
H16 H 0.7334 0.7900 1.1191
H17 H 0.7002 0.9177 1.0376
C20 C 1.2095(9) 0.8335(8) 0.7415(7)
H18 H 1.2413 0.7836 0.8153
C21 C 1.3445(13) 0.7850(11) 0.6560(12)
H19 H 1.3680 0.6945 0.6486
H20 H 1.4392 0.7954 0.6805
H21 H 1.3131 0.8341 0.5838
C22 C 1.1701(14) 0.9719(10) 0.7527(11)
H22 H 1.1097 1.0228 0.6884
H23 H 1.2683 0.9878 0.7559
H24 H 1.1064 0.9959 0.8212
N1 N 0.7645(4) 0.4701(3) 0.5220(2)
N2 N 0.5925(4) 0.6878(3) 0.4047(3)
H25 H 0.5977 0.6099 0.3980
O1 O 1.1272(3) 0.6002(3) 0.8207(3)
O2 O 0.8824(3) 0.8020(2) 0.8656(2)
O3 O 1.0707(12) 0.8145(9) 0.7021(6)
O4 O 0.4710(4) 0.8967(3) 0.3330(3)
P1 P 1.00333(11) 0.71925(10) 0.77459(8)
C23? C 0.773(2) 0.745(2) 0.9211(13)
H26? H 0.7757 0.6692 0.8841
C24? C 0.6065(18) 0.8518(18) 0.9192(17)
H27? H 0.6034 0.9165 0.9678
H28? H 0.5271 0.8153 0.9457
H29? H 0.5832 0.8912 0.8429
C25? C 0.8296(16) 0.7077(16) 1.0428(12)
H30? H 0.9458 0.6720 1.0429
H31? H 0.7887 0.6439 1.0783
H32? H 0.7899 0.7838 1.0843
C26? C 1.1944(14) 0.8345(13) 0.6723(10)
H33? H 1.2275 0.7503 0.6402
C27? C 1.1621(19) 0.9365(15) 0.5743(15)
H34? H 1.0815 0.9305 0.5276
H35? H 1.2603 0.9235 0.5300
H36? H 1.1238 1.0213 0.6022
C28? C 1.326(2) 0.8271(19) 0.7441(19)
H37? H 1.2855 0.8923 0.7973
H38? H 1.4107 0.8419 0.6972
H39? H 1.3684 0.7423 0.7848
O5? O 1.0489(19) 0.8479(15) 0.7449(10)
loop_
_geom_bond_atom_site_label_1
_geom_bond_atom_site_label_2
_geom_bond_site_symmetry_1
_geom_bond_site_symmetry_2
C1 C2 1_555 1_555
C2 H1 1_555 1_555
C3 C2 1_555 1_555
H2 C3 1_555 1_555
C4 C3 1_555 1_555
C5 C4 1_555 1_555
C6 C1 1_555 1_555
C7 C6 1_555 1_555
H3 C7 1_555 1_555
C8 C7 1_555 1_555
H4 C8 1_555 1_555
C9 C8 1_555 1_555
H5 C9 1_555 1_555
C10 C11 1_555 1_555
C11 C12 1_555 1_555
C12 H6 1_555 1_555
C13 C12 1_555 1_555
H7 C13 1_555 1_555
C14 C13 1_555 1_555
H8 C14 1_555 1_555
C15 C14 1_555 1_555
H9 C15 1_555 1_555
C16 C11 1_555 1_555
H10 C16 1_555 1_555
C17 H11 1_555 1_555
C18 C17 1_555 1_555
H12 C18 1_555 1_555
H13 C18 1_555 1_555
H14 C18 1_555 1_555
C19 C17 1_555 1_555
H15 C19 1_555 1_555
H16 C19 1_555 1_555
H17 C19 1_555 1_555
C20 H18 1_555 1_555
C21 C20 1_555 1_555
H19 C21 1_555 1_555
H20 C21 1_555 1_555
H21 C21 1_555 1_555
C22 C20 1_555 1_555
H22 C22 1_555 1_555
H23 C22 1_555 1_555
H24 C22 1_555 1_555
N1 C5 1_555 1_555
N2 C4 1_555 1_555
H25 N2 1_555 1_555
O1 P1 1_555 1_555
O2 C17 1_555 1_555
O3 C20 1_555 1_555
O4 C10 1_555 1_555
P1 C1 1_555 1_555
C5 C6 1_555 1_555
C9 N1 1_555 1_555
C10 N2 1_555 1_555
C15 C16 1_555 1_555
O2 P1 1_555 1_555
O3 P1 1_555 1_555

#END
