
#######################################################################
#
#                 Cambridge Crystallographic Data Centre
#                                CCDC 
#
#######################################################################
#
# If this CIF has been generated from an entry in the Cambridge 
# Structural Database, then it will include bibliographic, chemical, 
# crystal, experimental, refinement or atomic coordinate data resulting 
# from the CCDC's data processing and validation procedures.
#
#######################################################################

data_AWEPEY
_chemical_formula_moiety         'C22 H36 N8'
_chemical_name_systematic        
3,3',3'',3'''-(Piperazine-1,4-diylbis(propane-3,1-diylnitrilo))tetrapropanenitrile
_symmetry_cell_setting           monoclinic
_symmetry_space_group_name_H-M   'P 21/c'
_symmetry_Int_Tables_number      14
_space_group_name_Hall           '-P 2ybc'
loop_
_symmetry_equiv_pos_site_id
_symmetry_equiv_pos_as_xyz
1 x,y,z
2 -x,1/2+y,1/2-z
3 -x,-y,-z
4 x,1/2-y,1/2+z
_cell_length_a                   8.6195(12)
_cell_length_b                   9.3002(14)
_cell_length_c                   16.221(2)
_cell_angle_alpha                90
_cell_angle_beta                 97.824(2)
_cell_angle_gamma                90
_cell_volume                     1288.22
_exptl_crystal_colour            colorless
_exptl_crystal_description       block
_cell_formula_units_Z            2
loop_
_atom_site_label
_atom_site_type_symbol
_atom_site_fract_x
_atom_site_fract_y
_atom_site_fract_z
N1 N 0.6336(2) 0.4092(2) 0.02321(12)
N2 N 0.7792(2) 0.0807(2) 0.11310(12)
N3 N 0.6502(3) 0.3260(3) 0.27118(17)
N4 N 1.1602(4) 0.2671(4) 0.1987(3)
C1 C 0.6056(3) 0.5370(3) 0.07035(16)
H1 H 0.6587 0.6184 0.0493
H2 H 0.6481 0.5231 0.1283
C2 C 0.4337(3) 0.5682(3) 0.06381(15)
H3 H 0.3811 0.4883 0.0867
H4 H 0.4174 0.6534 0.0960
C3 C 0.8006(3) 0.3742(3) 0.03332(18)
H5 H 0.8401 0.3720 0.0922
H6 H 0.8558 0.4498 0.0081
C4 C 0.8358(3) 0.2318(3) -0.00503(18)
H7 H 0.8137 0.2396 -0.0651
H8 H 0.9465 0.2109 0.0091
C5 C 0.7428(3) 0.1097(3) 0.02333(17)
H9 H 0.6322 0.1316 0.0103
H10 H 0.7635 0.0237 -0.0072
C6 C 0.5970(3) 0.2455(3) 0.22325(19)
C7 C 0.5294(3) 0.1399(3) 0.16228(18)
H11 H 0.4952 0.1878 0.1098
H12 H 0.4383 0.0964 0.1813
C8 C 0.6464(3) 0.0235(3) 0.14892(17)
H13 H 0.6835 -0.0218 0.2018
H14 H 0.5949 -0.0494 0.1122
C9 C 1.0930(4) 0.1643(5) 0.2071(2)
C10 C 1.0126(3) 0.0305(4) 0.21417(19)
H15 H 0.9443 0.0390 0.2567
H16 H 1.0884 -0.0447 0.2310
C11 C 0.9167(3) -0.0101(3) 0.13233(17)
H17 H 0.9814 -0.0017 0.0881
H18 H 0.8839 -0.1096 0.1348
N1B N 0.3664(2) 0.5908(2) -0.02321(12)
N2B N 0.2208(2) 0.9193(2) -0.11310(12)
N3B N 0.3498(3) 0.6740(3) -0.27118(17)
N4B N -0.1602(4) 0.7329(4) -0.1987(3)
C1B C 0.3944(3) 0.4630(3) -0.07035(16)
H1B H 0.3413 0.3816 -0.0493
H2B H 0.3519 0.4769 -0.1283
C2B C 0.5663(3) 0.4318(3) -0.06381(15)
H3B H 0.6189 0.5117 -0.0867
H4B H 0.5826 0.3466 -0.0960
C3B C 0.1994(3) 0.6258(3) -0.03332(18)
H5B H 0.1599 0.6280 -0.0922
H6B H 0.1442 0.5502 -0.0081
C4B C 0.1642(3) 0.7682(3) 0.00503(18)
H7B H 0.1863 0.7604 0.0651
H8B H 0.0535 0.7891 -0.0091
C5B C 0.2572(3) 0.8903(3) -0.02333(17)
H9B H 0.3678 0.8684 -0.0103
H10B H 0.2365 0.9763 0.0072
C6B C 0.4030(3) 0.7545(3) -0.22325(19)
C7B C 0.4706(3) 0.8601(3) -0.16228(18)
H11B H 0.5048 0.8122 -0.1098
H12B H 0.5617 0.9036 -0.1813
C8B C 0.3536(3) 0.9765(3) -0.14892(17)
H13B H 0.3165 1.0218 -0.2018
H14B H 0.4051 1.0494 -0.1122
C9B C -0.0930(4) 0.8357(5) -0.2071(2)
C10B C -0.0126(3) 0.9695(4) -0.21417(19)
H15B H 0.0557 0.9610 -0.2567
H16B H -0.0884 1.0447 -0.2310
C11B C 0.0833(3) 1.0101(3) -0.13233(17)
H17B H 0.0186 1.0017 -0.0881
H18B H 0.1161 1.1096 -0.1348
loop_
_geom_bond_atom_site_label_1
_geom_bond_atom_site_label_2
_geom_bond_site_symmetry_1
_geom_bond_site_symmetry_2
N1 C1 1_555 1_555
N2 C5 1_555 1_555
N3 C6 1_555 1_555
N4 C9 1_555 1_555
C1 H1 1_555 1_555
H2 C1 1_555 1_555
C2 C1 1_555 1_555
H3 C2 1_555 1_555
H4 C2 1_555 1_555
C3 N1 1_555 1_555
H5 C3 1_555 1_555
H6 C3 1_555 1_555
C4 C3 1_555 1_555
H7 C4 1_555 1_555
H8 C4 1_555 1_555
C5 C4 1_555 1_555
H9 C5 1_555 1_555
H10 C5 1_555 1_555
C6 C7 1_555 1_555
C7 H11 1_555 1_555
H12 C7 1_555 1_555
C8 N2 1_555 1_555
H13 C8 1_555 1_555
H14 C8 1_555 1_555
C9 C10 1_555 1_555
C10 H15 1_555 1_555
H16 C10 1_555 1_555
C11 N2 1_555 1_555
H17 C11 1_555 1_555
H18 C11 1_555 1_555
N1B C2 1_555 1_555
N2B C5B 1_555 1_555
N3B C6B 1_555 1_555
N4B C9B 1_555 1_555
C1B N1B 1_555 1_555
H1B C1B 1_555 1_555
H2B C1B 1_555 1_555
C2B N1 1_555 1_555
H3B C2B 1_555 1_555
H4B C2B 1_555 1_555
C3B N1B 1_555 1_555
H5B C3B 1_555 1_555
H6B C3B 1_555 1_555
C4B C3B 1_555 1_555
H7B C4B 1_555 1_555
H8B C4B 1_555 1_555
C5B C4B 1_555 1_555
H9B C5B 1_555 1_555
H10B C5B 1_555 1_555
C6B C7B 1_555 1_555
C7B H11B 1_555 1_555
H12B C7B 1_555 1_555
C8B N2B 1_555 1_555
H13B C8B 1_555 1_555
H14B C8B 1_555 1_555
C9B C10B 1_555 1_555
C10B H15B 1_555 1_555
H16B C10B 1_555 1_555
C11B N2B 1_555 1_555
H17B C11B 1_555 1_555
H18B C11B 1_555 1_555
C7 C8 1_555 1_555
C10 C11 1_555 1_555
C1B C2B 1_555 1_555
C7B C8B 1_555 1_555
C10B C11B 1_555 1_555

#END
