
#######################################################################
#
#                 Cambridge Crystallographic Data Centre
#                                CCDC 
#
#######################################################################
#
# If this CIF has been generated from an entry in the Cambridge 
# Structural Database, then it will include bibliographic, chemical, 
# crystal, experimental, refinement or atomic coordinate data resulting 
# from the CCDC's data processing and validation procedures.
#
#######################################################################

data_AWETUT
_chemical_formula_moiety         'C8 H3 Cl2 N1 O2'
_chemical_name_systematic        4,7-dichloro-1H-indole-2,3-dione
_symmetry_cell_setting           monoclinic
_symmetry_space_group_name_H-M   'P 21/c'
_symmetry_Int_Tables_number      14
_space_group_name_Hall           '-P 2ybc'
loop_
_symmetry_equiv_pos_site_id
_symmetry_equiv_pos_as_xyz
1 x,y,z
2 -x,1/2+y,1/2-z
3 -x,-y,-z
4 x,1/2-y,1/2+z
_cell_length_a                   3.8639(10)
_cell_length_b                   13.933(4)
_cell_length_c                   15.019(4)
_cell_angle_alpha                90
_cell_angle_beta                 93.313(9)
_cell_angle_gamma                90
_cell_volume                     807.207
_exptl_crystal_colour            orange
_exptl_crystal_description       BLOCK
_cell_formula_units_Z            4
loop_
_atom_site_label
_atom_site_type_symbol
_atom_site_fract_x
_atom_site_fract_y
_atom_site_fract_z
Cl1 Cl 0.18965(11) 0.91841(3) 0.43830(3)
Cl2 Cl 0.46709(11) 0.52990(3) 0.24627(3)
O1 O 0.9837(3) 0.59718(9) 0.58168(8)
O2 O 0.6456(3) 0.78659(9) 0.58085(8)
N1 N 0.7009(3) 0.58766(10) 0.44157(9)
H1 H 0.778(5) 0.5327(7) 0.4261(12)
C1 C 0.7951(4) 0.62977(12) 0.52103(10)
C2 C 0.6211(4) 0.73103(11) 0.51955(10)
C3 C 0.4447(4) 0.73806(11) 0.43009(10)
C4 C 0.2625(4) 0.81121(11) 0.38519(11)
C5 C 0.1416(4) 0.79748(12) 0.29710(11)
H2 H 0.0190 0.8473 0.2658
C6 C 0.2003(4) 0.71077(13) 0.25501(10)
H3 H 0.1148 0.7017 0.1950
C7 C 0.3826(4) 0.63658(11) 0.29914(10)
C8 C 0.5044(4) 0.65116(11) 0.38626(10)
loop_
_geom_bond_atom_site_label_1
_geom_bond_atom_site_label_2
_geom_bond_site_symmetry_1
_geom_bond_site_symmetry_2
Cl1 C4 1_555 1_555
Cl2 C7 1_555 1_555
O1 C1 1_555 1_555
O2 C2 1_555 1_555
N1 H1 1_555 1_555
C1 N1 1_555 1_555
C2 C1 1_555 1_555
C3 C2 1_555 1_555
C4 C3 1_555 1_555
C5 C4 1_555 1_555
H2 C5 1_555 1_555
C6 C5 1_555 1_555
H3 C6 1_555 1_555
C7 C6 1_555 1_555
C8 N1 1_555 1_555
C3 C8 1_555 1_555
C7 C8 1_555 1_555

#END
