
#######################################################################
#
#                 Cambridge Crystallographic Data Centre
#                                CCDC 
#
#######################################################################
#
# If this CIF has been generated from an entry in the Cambridge 
# Structural Database, then it will include bibliographic, chemical, 
# crystal, experimental, refinement or atomic coordinate data resulting 
# from the CCDC's data processing and validation procedures.
#
#######################################################################

data_AWEVEF
_chemical_formula_moiety         'C37 H25 N5'
_chemical_name_systematic        
N,N-diphenyl-4-(1-phenyl-1H-imidazo[4,5-f][1,10]phenanthrolin-2-yl)aniline
_symmetry_cell_setting           monoclinic
_symmetry_space_group_name_H-M   'P 21/c'
_symmetry_Int_Tables_number      14
_space_group_name_Hall           '-P 2ybc'
loop_
_symmetry_equiv_pos_site_id
_symmetry_equiv_pos_as_xyz
1 x,y,z
2 -x,1/2+y,1/2-z
3 -x,-y,-z
4 x,1/2-y,1/2+z
_cell_length_a                   13.981(2)
_cell_length_b                   9.6424(17)
_cell_length_c                   20.807(4)
_cell_angle_alpha                90
_cell_angle_beta                 90.981(4)
_cell_angle_gamma                90
_cell_volume                     2804.59
_exptl_crystal_colour            colorless
_exptl_crystal_description       block
_cell_formula_units_Z            4
loop_
_atom_site_label
_atom_site_type_symbol
_atom_site_fract_x
_atom_site_fract_y
_atom_site_fract_z
N1 N 0.55942(10) 0.21920(15) 0.05141(7)
N2 N 0.19637(10) -0.01669(15) 0.05925(7)
N3 N 0.41082(11) 0.37033(15) 0.00238(7)
N4 N 0.31666(10) -0.14483(14) 0.10173(7)
C1 C 0.45539(12) 0.02556(17) 0.07981(8)
C2 C 0.35768(12) -0.02305(17) 0.07891(8)
C3 C 0.47071(12) 0.16103(17) 0.05383(8)
C4 C 0.28213(12) 0.05299(17) 0.05337(8)
C5 C 0.39055(12) 0.24318(16) 0.02718(8)
C6 C 0.29607(12) 0.18902(17) 0.02704(8)
C7 C 0.63357(13) 0.14480(19) 0.07320(9)
H1 H 0.6942 0.1841 0.0714
C8 C 0.21898(12) -0.13422(17) 0.08922(8)
C9 C 0.14524(12) -0.23461(18) 0.10949(9)
C10 C 0.24246(15) 0.4008(2) -0.02196(9)
H2 H 0.1944 0.4579 -0.0384
C11 C 0.62546(12) 0.01095(19) 0.09867(9)
H3 H 0.6795 -0.0371 0.1128
C12 C 0.53625(12) -0.04828(17) 0.10243(8)
H4 H 0.5293 -0.1365 0.1198
C13 C 0.22098(13) 0.27166(19) 0.00210(9)
H5 H 0.1582 0.2396 0.0019
N5 N -0.08058(11) -0.49459(16) 0.17159(9)
C14 C 0.41350(12) -0.35741(17) 0.10811(9)
H6 H 0.4202 -0.3558 0.0637
C15 C 0.15943(13) -0.37749(19) 0.11751(11)
H7 H 0.2191 -0.4156 0.1094
C16 C 0.36350(11) -0.25323(17) 0.13884(8)
C17 C 0.05371(12) -0.18183(18) 0.12162(9)
H8 H 0.0424 -0.0874 0.1165
C18 C 0.33811(15) 0.44467(19) -0.02117(9)
H9 H 0.3516 0.5315 -0.0382
C19 C 0.08588(13) -0.46269(19) 0.13724(11)
H10 H 0.0972 -0.5571 0.1425
C20 C -0.09175(12) -0.63577(18) 0.15209(10)
C21 C -0.02035(13) -0.26705(19) 0.14109(10)
H11 H -0.0804 -0.2294 0.1486
C22 C -0.14955(13) -0.43403(18) 0.21387(9)
C23 C -0.08109(13) -0.8154(2) 0.07112(11)
H12 H -0.0637 -0.8432 0.0301
C24 C -0.06688(13) -0.67870(19) 0.09019(10)
H13 H -0.0407 -0.6153 0.0617
C25 C -0.11929(15) -0.3804(2) 0.27298(10)
H14 H -0.0553 -0.3869 0.2855
C26 C -0.13018(13) -0.7329(2) 0.19419(10)
H15 H -0.1458 -0.7067 0.2357
C27 C -0.14509(13) -0.8691(2) 0.17413(11)
H16 H -0.1716 -0.9329 0.2022
C28 C 0.45363(13) -0.4647(2) 0.14455(11)
H17 H 0.4873 -0.5353 0.1246
C29 C -0.00520(13) -0.40945(18) 0.14948(10)
C30 C 0.39569(17) -0.3584(3) 0.24124(11)
H18 H 0.3910 -0.3585 0.2858
C31 C -0.12094(13) -0.9107(2) 0.11272(11)
H19 H -0.1314 -1.0017 0.0996
C32 C -0.27852(18) -0.3050(2) 0.29516(12)
H20 H -0.3214 -0.2611 0.3221
C33 C 0.35522(14) -0.2510(2) 0.20564(9)
H21 H 0.3232 -0.1790 0.2258
C34 C -0.18405(17) -0.3176(2) 0.31310(11)
H22 H -0.1633 -0.2834 0.3528
C35 C -0.24524(14) -0.4243(2) 0.19617(10)
H23 H -0.2667 -0.4618 0.1574
C36 C 0.44315(16) -0.4655(2) 0.21073(12)
H24 H 0.4682 -0.5386 0.2349
C37 C -0.30940(16) -0.3581(3) 0.23660(12)
H25 H -0.3733 -0.3497 0.2241
loop_
_geom_bond_atom_site_label_1
_geom_bond_atom_site_label_2
_geom_bond_site_symmetry_1
_geom_bond_site_symmetry_2
N1 C3 1_555 1_555
N2 C4 1_555 1_555
N3 C5 1_555 1_555
N4 C2 1_555 1_555
C1 C2 1_555 1_555
C2 C4 1_555 1_555
C3 C1 1_555 1_555
C4 C6 1_555 1_555
C5 C3 1_555 1_555
C6 C5 1_555 1_555
C7 N1 1_555 1_555
H1 C7 1_555 1_555
C8 N2 1_555 1_555
C9 C8 1_555 1_555
C10 H2 1_555 1_555
C11 C7 1_555 1_555
H3 C11 1_555 1_555
C12 C1 1_555 1_555
H4 C12 1_555 1_555
C13 C6 1_555 1_555
H5 C13 1_555 1_555
N5 C20 1_555 1_555
C14 H6 1_555 1_555
C15 C9 1_555 1_555
H7 C15 1_555 1_555
C16 N4 1_555 1_555
C17 C9 1_555 1_555
H8 C17 1_555 1_555
C18 N3 1_555 1_555
H9 C18 1_555 1_555
C19 C15 1_555 1_555
H10 C19 1_555 1_555
C20 C24 1_555 1_555
C21 C17 1_555 1_555
H11 C21 1_555 1_555
C22 N5 1_555 1_555
C23 H12 1_555 1_555
C24 C23 1_555 1_555
H13 C24 1_555 1_555
C25 C22 1_555 1_555
H14 C25 1_555 1_555
C26 C20 1_555 1_555
H15 C26 1_555 1_555
C27 C26 1_555 1_555
H16 C27 1_555 1_555
C28 C14 1_555 1_555
H17 C28 1_555 1_555
C29 N5 1_555 1_555
C30 H18 1_555 1_555
C31 C23 1_555 1_555
H19 C31 1_555 1_555
C32 H20 1_555 1_555
C33 C16 1_555 1_555
H21 C33 1_555 1_555
C34 C25 1_555 1_555
H22 C34 1_555 1_555
C35 C22 1_555 1_555
H23 C35 1_555 1_555
C36 C28 1_555 1_555
H24 C36 1_555 1_555
C37 C32 1_555 1_555
H25 C37 1_555 1_555
N4 C8 1_555 1_555
C10 C13 1_555 1_555
C10 C18 1_555 1_555
C11 C12 1_555 1_555
C14 C16 1_555 1_555
C19 C29 1_555 1_555
C21 C29 1_555 1_555
C27 C31 1_555 1_555
C30 C33 1_555 1_555
C30 C36 1_555 1_555
C32 C34 1_555 1_555
C35 C37 1_555 1_555

#END
