
#######################################################################
#
#                 Cambridge Crystallographic Data Centre
#                                CCDC 
#
#######################################################################
#
# If this CIF has been generated from an entry in the Cambridge 
# Structural Database, then it will include bibliographic, chemical, 
# crystal, experimental, refinement or atomic coordinate data resulting 
# from the CCDC's data processing and validation procedures.
#
#######################################################################

data_AWEXAB
_chemical_formula_moiety         'C9 H16 B10 O2,H2 O1'
_chemical_name_systematic        
'1-Phenyl-2-carboxy-1,2-dicarba-closo-dodecaborane(12) monohydrate'
_symmetry_cell_setting           monoclinic
_symmetry_space_group_name_H-M   'P 21/c'
_symmetry_Int_Tables_number      14
_space_group_name_Hall           '-P 2ybc'
loop_
_symmetry_equiv_pos_site_id
_symmetry_equiv_pos_as_xyz
1 x,y,z
2 x,1/2-y,1/2+z
3 -x,-y,-z
4 -x,1/2+y,1/2-z
_cell_length_a                   10.330(2)
_cell_length_b                   22.151(4)
_cell_length_c                   7.0260(10)
_cell_angle_alpha                90
_cell_angle_beta                 106.240(10)
_cell_angle_gamma                90
_cell_volume                     1543.54
_exptl_crystal_colour            colorless
_exptl_crystal_description       block
_cell_formula_units_Z            4
_exptl_crystal_recrystallization_method 'dichloromethane/petroleum ether'
loop_
_atom_site_label
_atom_site_type_symbol
_atom_site_fract_x
_atom_site_fract_y
_atom_site_fract_z
C1 C 0.17915(18) 0.63353(8) 0.5840(2)
C2 C 0.26483(18) 0.57320(8) 0.5294(2)
B1 B 0.3131(2) 0.64494(10) 0.4821(3)
H1 H 0.291(2) 0.6591(10) 0.333(3)
B2 B 0.2917(2) 0.68948(11) 0.6824(3)
H2 H 0.258(2) 0.7334(11) 0.651(3)
B3 B 0.2228(2) 0.64266(11) 0.8366(3)
H3 H 0.145(2) 0.6608(10) 0.897(3)
B4 B 0.2030(2) 0.56845(10) 0.7325(3)
H4 H 0.118(2) 0.5397(10) 0.725(3)
B5 B 0.4345(2) 0.58759(11) 0.5841(3)
H5 H 0.485(2) 0.5704(10) 0.489(3)
B6 B 0.4538(2) 0.66158(11) 0.6864(3)
H6 H 0.533(2) 0.6929(10) 0.666(3)
B7 B 0.3983(2) 0.65982(12) 0.9069(3)
H7 H 0.443(2) 0.6889(11) 1.033(3)
B8 B 0.3428(2) 0.58488(11) 0.9367(3)
H8 H 0.350(2) 0.5644(11) 1.085(4)
B9 B 0.3666(2) 0.54049(11) 0.7389(3)
H9 H 0.376(2) 0.4915(11) 0.738(3)
B10 B 0.4862(2) 0.59687(11) 0.8467(3)
H10 H 0.589(2) 0.5833(11) 0.933(3)
O1 O 0.25806(15) 0.48562(6) 0.3435(2)
H11 H 0.215(3) 0.4642(13) 0.235(4)
O2 O 0.09415(17) 0.55183(9) 0.2295(2)
C3 C 0.03897(18) 0.65031(9) 0.4616(2)
C4 C -0.07447(19) 0.62405(9) 0.4958(3)
H12 H -0.0643 0.5940 0.5912
C5 C -0.2031(2) 0.64219(10) 0.3893(3)
H13 H -0.2782 0.6238 0.4125
C6 C -0.2200(2) 0.68738(10) 0.2491(3)
H14 H -0.3061 0.6996 0.1781
C7 C -0.1076(2) 0.71432(10) 0.2153(3)
H15 H -0.1184 0.7448 0.1213
C8 C 0.0210(2) 0.69611(9) 0.3207(3)
H16 H 0.0958 0.7146 0.2971
C9 C 0.19481(18) 0.53557(9) 0.3497(3)
O3 O 0.13563(19) 0.41843(9) 0.0551(2)
H17 H 0.064(4) 0.4310(15) -0.029(5)
H18 H 0.177(4) 0.3957(18) 0.007(6)
loop_
_geom_bond_atom_site_label_1
_geom_bond_atom_site_label_2
_geom_bond_site_symmetry_1
_geom_bond_site_symmetry_2
C1 C2 1_555 1_555
C2 B1 1_555 1_555
B1 C1 1_555 1_555
H1 B1 1_555 1_555
B2 C1 1_555 1_555
H2 B2 1_555 1_555
B3 C1 1_555 1_555
H3 B3 1_555 1_555
B4 C1 1_555 1_555
H4 B4 1_555 1_555
B5 C2 1_555 1_555
H5 B5 1_555 1_555
B6 B1 1_555 1_555
H6 B6 1_555 1_555
B7 B2 1_555 1_555
H7 B7 1_555 1_555
B8 B3 1_555 1_555
H8 B8 1_555 1_555
B9 C2 1_555 1_555
H9 B9 1_555 1_555
B10 B5 1_555 1_555
H10 B10 1_555 1_555
O1 H11 1_555 1_555
O2 C9 1_555 1_555
C3 C1 1_555 1_555
C4 C3 1_555 1_555
H12 C4 1_555 1_555
C5 C4 1_555 1_555
H13 C5 1_555 1_555
C6 C5 1_555 1_555
H14 C6 1_555 1_555
C7 C6 1_555 1_555
H15 C7 1_555 1_555
C8 C3 1_555 1_555
H16 C8 1_555 1_555
C9 C2 1_555 1_555
O3 H17 1_555 1_555
H18 O3 1_555 1_555
C2 B4 1_555 1_555
B1 B5 1_555 1_555
B1 B2 1_555 1_555
B2 B6 1_555 1_555
B2 B3 1_555 1_555
B3 B7 1_555 1_555
B3 B4 1_555 1_555
B4 B9 1_555 1_555
B4 B8 1_555 1_555
B5 B9 1_555 1_555
B5 B6 1_555 1_555
B6 B10 1_555 1_555
B6 B7 1_555 1_555
B7 B8 1_555 1_555
B7 B10 1_555 1_555
B8 B9 1_555 1_555
B8 B10 1_555 1_555
B9 B10 1_555 1_555
O1 C9 1_555 1_555
C7 C8 1_555 1_555

#END
