
#######################################################################
#
#                 Cambridge Crystallographic Data Centre
#                                CCDC 
#
#######################################################################
#
# If this CIF has been generated from an entry in the Cambridge 
# Structural Database, then it will include bibliographic, chemical, 
# crystal, experimental, refinement or atomic coordinate data resulting 
# from the CCDC's data processing and validation procedures.
#
#######################################################################

data_AWEXEF
_chemical_formula_moiety         'C15 H20 B10 O1'
_chemical_name_systematic        
1-Benzoyl-2-phenyl-1,2-dicarba-closo-dodecaborane(10)
_symmetry_cell_setting           monoclinic
_symmetry_space_group_name_H-M   'P 21/n'
_symmetry_Int_Tables_number      14
_space_group_name_Hall           '-P 2yn'
loop_
_symmetry_equiv_pos_site_id
_symmetry_equiv_pos_as_xyz
1 x,y,z
2 1/2-x,1/2+y,1/2-z
3 -x,-y,-z
4 1/2+x,1/2-y,1/2+z
_cell_length_a                   10.469(8)
_cell_length_b                   15.154(7)
_cell_length_c                   11.945(8)
_cell_angle_alpha                90
_cell_angle_beta                 106.57(5)
_cell_angle_gamma                90
_cell_volume                     1816.34
_exptl_crystal_colour            colorless
_exptl_crystal_description       block
_chemical_melting_point          '360 K'
_cell_formula_units_Z            4
_exptl_crystal_recrystallization_method hexane
loop_
_atom_site_label
_atom_site_type_symbol
_atom_site_fract_x
_atom_site_fract_y
_atom_site_fract_z
O1 O 0.5673(2) 0.35895(13) 0.6717(2)
C1 C 0.5365(2) 0.18155(13) 0.4786(2)
C2 C 0.5925(2) 0.28674(14) 0.5037(2)
B1 B 0.5188(3) 0.2537(2) 0.3628(2)
H1 H 0.4220(24) 0.2788(15) 0.3232(21)
B2 B 0.5702(3) 0.1424(2) 0.3560(2)
H2 H 0.4992(34) 0.0996(23) 0.3093(31)
B3 B 0.6692(3) 0.1113(2) 0.4973(2)
H3 H 0.6515(33) 0.0531(23) 0.5310(28)
B4 B 0.6806(3) 0.2036(2) 0.5921(2)
H4 H 0.6724(30) 0.1995(19) 0.6861(27)
B5 B 0.6631(3) 0.3224(2) 0.3997(2)
H5 H 0.6490(31) 0.3894(21) 0.3782(28)
B6 B 0.6518(3) 0.2300(2) 0.3048(2)
H6 H 0.6336(25) 0.2369(17) 0.2067(22)
B7 B 0.7468(3) 0.1419(2) 0.3888(3)
H7 H 0.7967(27) 0.0922(19) 0.3450(23)
B8 B 0.8142(3) 0.1791(2) 0.5349(3)
H8 H 0.9084(33) 0.1545(21) 0.5888(30)
B9 B 0.7628(3) 0.2907(2) 0.5418(3)
H9 H 0.8160(32) 0.3419(22) 0.6084(28)
B10 B 0.8040(3) 0.2530(2) 0.4155(3)
H10 H 0.8953(33) 0.2704(22) 0.3949(27)
C3 C 0.4121(2) 0.15489(13) 0.5096(2)
C4 C 0.2902(2) 0.15270(15) 0.4240(2)
H11 H 0.2848(2) 0.17004(15) 0.3463(2)
C5 C 0.1753(2) 0.1252(2) 0.4514(2)
H12 H 0.0921(2) 0.1241(2) 0.3926(2)
C6 C 0.1834(2) 0.0995(2) 0.5649(2)
H13 H 0.1054(2) 0.0811(2) 0.5839(2)
C7 C 0.3033(3) 0.1011(2) 0.6498(2)
H14 H 0.3084(3) 0.0830(2) 0.7271(2)
C8 C 0.4181(2) 0.12884(15) 0.6229(2)
H15 H 0.5009(2) 0.13011(15) 0.6821(2)
C9 C 0.5169(2) 0.34658(14) 0.5684(2)
C10 C 0.3844(2) 0.38426(13) 0.5074(2)
C11 C 0.2845(3) 0.3739(2) 0.5625(2)
H16 H 0.3029(3) 0.3430(2) 0.6346(2)
C12 C 0.1586(3) 0.4080(2) 0.5120(3)
H17 H 0.0901(3) 0.3996(2) 0.5487(3)
C13 C 0.1332(3) 0.4549(2) 0.4084(2)
H18 H 0.0472(3) 0.4793(2) 0.3747(2)
C14 C 0.2321(3) 0.4663(2) 0.3532(2)
H19 H 0.2139(3) 0.4988(2) 0.2824(2)
C15 C 0.3580(2) 0.42971(15) 0.4018(2)
H20 H 0.4255(2) 0.43609(15) 0.3634(2)
loop_
_geom_bond_atom_site_label_1
_geom_bond_atom_site_label_2
_geom_bond_site_symmetry_1
_geom_bond_site_symmetry_2
O1 C9 1_555 1_555
C1 C2 1_555 1_555
C2 B1 1_555 1_555
B1 C1 1_555 1_555
H1 B1 1_555 1_555
B2 C1 1_555 1_555
H2 B2 1_555 1_555
B3 C1 1_555 1_555
H3 B3 1_555 1_555
B4 C1 1_555 1_555
H4 B4 1_555 1_555
B5 C2 1_555 1_555
H5 B5 1_555 1_555
B6 B1 1_555 1_555
H6 B6 1_555 1_555
B7 B2 1_555 1_555
H7 B7 1_555 1_555
B8 B3 1_555 1_555
H8 B8 1_555 1_555
B9 C2 1_555 1_555
H9 B9 1_555 1_555
B10 B5 1_555 1_555
H10 B10 1_555 1_555
C3 C1 1_555 1_555
C4 C3 1_555 1_555
H11 C4 1_555 1_555
C5 C4 1_555 1_555
H12 C5 1_555 1_555
C6 C5 1_555 1_555
H13 C6 1_555 1_555
C7 C6 1_555 1_555
H14 C7 1_555 1_555
C8 C3 1_555 1_555
H15 C8 1_555 1_555
C9 C2 1_555 1_555
C10 C9 1_555 1_555
C11 C10 1_555 1_555
H16 C11 1_555 1_555
C12 C11 1_555 1_555
H17 C12 1_555 1_555
C13 C12 1_555 1_555
H18 C13 1_555 1_555
C14 C13 1_555 1_555
H19 C14 1_555 1_555
C15 C10 1_555 1_555
H20 C15 1_555 1_555
C2 B4 1_555 1_555
B1 B2 1_555 1_555
B1 B5 1_555 1_555
B2 B3 1_555 1_555
B2 B6 1_555 1_555
B3 B4 1_555 1_555
B3 B7 1_555 1_555
B4 B8 1_555 1_555
B4 B9 1_555 1_555
B5 B6 1_555 1_555
B5 B9 1_555 1_555
B6 B7 1_555 1_555
B6 B10 1_555 1_555
B7 B8 1_555 1_555
B7 B10 1_555 1_555
B8 B9 1_555 1_555
B8 B10 1_555 1_555
B9 B10 1_555 1_555
C7 C8 1_555 1_555
C14 C15 1_555 1_555

#END
