
#######################################################################
#
#                 Cambridge Crystallographic Data Centre
#                                CCDC 
#
#######################################################################
#
# If this CIF has been generated from an entry in the Cambridge 
# Structural Database, then it will include bibliographic, chemical, 
# crystal, experimental, refinement or atomic coordinate data resulting 
# from the CCDC's data processing and validation procedures.
#
#######################################################################

data_AWICEQ01
_chemical_formula_moiety         'C28 H29 N1'
_chemical_name_systematic        
1,3-dimethyl-5,9a-bis(4-methylphenyl)-7,8,9,9a-tetrahydro-6H-indeno[1,2-c]pyridine
_symmetry_cell_setting           monoclinic
_symmetry_space_group_name_H-M   'P 21/n'
_symmetry_Int_Tables_number      14
_space_group_name_Hall           '-P 2yn'
loop_
_symmetry_equiv_pos_site_id
_symmetry_equiv_pos_as_xyz
1 x,y,z
2 1/2-x,1/2+y,1/2-z
3 -x,-y,-z
4 1/2+x,1/2-y,1/2+z
_cell_length_a                   15.7589(12)
_cell_length_b                   10.4662(8)
_cell_length_c                   26.8462(16)
_cell_angle_alpha                90
_cell_angle_beta                 102.139(7)
_cell_angle_gamma                90
_cell_volume                     4328.89
_exptl_crystal_colour            'whiteish colorless'
_exptl_crystal_description       block
_cell_formula_units_Z            8
loop_
_atom_site_label
_atom_site_type_symbol
_atom_site_fract_x
_atom_site_fract_y
_atom_site_fract_z
N1 N 1.08053(18) 0.8067(3) 0.11448(10)
C1 C 1.0595(2) 0.8289(3) 0.06430(12)
C2 C 0.9914(2) 0.7674(3) 0.03221(12)
H1 H 0.9782 0.7844 -0.0026
C3 C 0.9433(2) 0.6790(3) 0.05364(11)
C4 C 0.9652(2) 0.6564(3) 0.10591(11)
C5 C 1.0341(2) 0.7215(3) 0.13512(12)
C6 C 1.0639(3) 0.7032(4) 0.19165(12)
H2 H 1.1189 0.7447 0.2030
H3 H 1.0698 0.6136 0.1992
H4 H 1.0221 0.7398 0.2088
C7 C 1.1128(2) 0.9268(4) 0.04348(14)
H5 H 1.1191 1.0018 0.0646
H6 H 1.0842 0.9492 0.0094
H7 H 1.1691 0.8921 0.0432
C8 C 0.8696(2) 0.5989(3) 0.03045(11)
C9 C 0.8446(2) 0.5303(3) 0.06730(11)
C10 C 0.9032(2) 0.5557(3) 0.11937(11)
C11 C 0.7684(2) 0.4467(4) 0.06512(12)
H8 H 0.7873 0.3602 0.0747
H9 H 0.7337 0.4448 0.0307
C12 C 0.7135(2) 0.4984(4) 0.10207(12)
H10 H 0.6874 0.5791 0.0893
H11 H 0.6671 0.4387 0.1036
C13 C 0.7680(2) 0.5177(4) 0.15499(12)
H12 H 0.7895 0.4357 0.1691
H13 H 0.7322 0.5537 0.1768
C14 C 0.8445(2) 0.6065(3) 0.15450(12)
H14 H 0.8786 0.6152 0.1889
H15 H 0.8229 0.6905 0.1429
C15 C 0.9528(2) 0.4344(3) 0.13946(11)
C16 C 0.9681(2) 0.3965(3) 0.19002(12)
H16 H 0.9465 0.4458 0.2134
C17 C 1.0147(2) 0.2874(4) 0.20653(12)
H17 H 1.0244 0.2655 0.2408
C18 C 1.0474(2) 0.2100(3) 0.17344(12)
C19 C 1.0316(2) 0.2461(4) 0.12293(12)
H18 H 1.0522 0.1953 0.0996
C20 C 0.9861(2) 0.3556(3) 0.10619(12)
H19 H 0.9773 0.3776 0.0719
C21 C 1.0994(3) 0.0928(4) 0.19199(14)
H20 H 1.1597 0.1150 0.2018
H21 H 1.0916 0.0303 0.1652
H22 H 1.0801 0.0582 0.2208
C22 C 0.8321(2) 0.5964(3) -0.02491(11)
C23 C 0.8300(2) 0.4832(4) -0.05232(12)
H23 H 0.8499 0.4081 -0.0352
C24 C 0.7990(3) 0.4802(4) -0.10433(13)
H24 H 0.7992 0.4035 -0.1218
C25 C 0.7676(2) 0.5895(4) -0.13101(12)
C26 C 0.7696(2) 0.7023(4) -0.10375(12)
H25 H 0.7491 0.7771 -0.1208
C27 C 0.8014(2) 0.7058(3) -0.05193(12)
H26 H 0.8022 0.7830 -0.0347
C28 C 0.7347(4) 0.5871(6) -0.18804(14)
H27 H 0.7817 0.6051 -0.2046
H28 H 0.6902 0.6505 -0.1975
H29 H 0.7113 0.5042 -0.1982
N2 N 0.50263(19) 0.3060(3) 0.11730(10)
C29 C 0.5634(2) 0.2201(3) 0.13794(12)
C30 C 0.6111(2) 0.1544(3) 0.10808(11)
C31 C 0.5940(2) 0.1783(3) 0.05587(11)
C32 C 0.5325(2) 0.2669(3) 0.03481(12)
H30 H 0.5213 0.2848 0.0001
C33 C 0.4875(2) 0.3291(3) 0.06718(12)
C34 C 0.4189(2) 0.4272(4) 0.04707(14)
H31 H 0.3629 0.3938 0.0486
H32 H 0.4205 0.4472 0.0124
H33 H 0.4298 0.5033 0.0674
C35 C 0.5753(3) 0.1999(4) 0.19420(13)
H34 H 0.6266 0.2438 0.2114
H35 H 0.5811 0.1102 0.2016
H36 H 0.5258 0.2329 0.2056
C36 C 0.6514(2) 0.0968(3) 0.03221(11)
C37 C 0.7012(2) 0.0280(3) 0.06895(11)
C38 C 0.6815(2) 0.0540(3) 0.12130(11)
C39 C 0.7669(2) 0.1054(4) 0.15532(12)
H37 H 0.7792 0.1893 0.1433
H38 H 0.7590 0.1143 0.1900
C40 C 0.8440(2) 0.0174(4) 0.15492(12)
H39 H 0.8959 0.0549 0.1756
H40 H 0.8341 -0.0641 0.1699
C41 C 0.8579(2) -0.0042(4) 0.10137(12)
H41 H 0.9054 -0.0638 0.1026
H42 H 0.8739 0.0759 0.0877
C42 C 0.7768(2) -0.0569(3) 0.06620(12)
H43 H 0.7853 -0.0600 0.0315
H44 H 0.7654 -0.1429 0.0765
C43 C 0.6475(2) -0.0677(3) 0.14226(11)
C44 C 0.5870(2) -0.1427(3) 0.10971(12)
H45 H 0.5676 -0.1171 0.0761
C45 C 0.5553(2) -0.2539(3) 0.12634(12)
H46 H 0.5162 -0.3031 0.1033
C46 C 0.5799(2) -0.2941(3) 0.17603(12)
C47 C 0.6383(2) -0.2187(4) 0.20885(12)
H47 H 0.6550 -0.2426 0.2429
C48 C 0.6727(2) -0.1080(3) 0.19235(12)
H48 H 0.7132 -0.0605 0.2152
C49 C 0.5453(3) -0.4157(4) 0.19336(15)
H49 H 0.5742 -0.4334 0.2279
H50 H 0.5554 -0.4847 0.1717
H51 H 0.4841 -0.4071 0.1916
C50 C 0.6496(2) 0.0923(3) -0.02279(11)
C51 C 0.6641(2) 0.2004(4) -0.05002(11)
H52 H 0.6736 0.2788 -0.0335
C52 C 0.6645(3) 0.1923(4) -0.10125(13)
H53 H 0.6750 0.2656 -0.1186
C53 C 0.6499(3) 0.0784(5) -0.12753(13)
C54 C 0.6325(2) -0.0287(4) -0.10083(13)
H54 H 0.6201 -0.1060 -0.1179
C55 C 0.6335(2) -0.0221(4) -0.04979(12)
H55 H 0.6231 -0.0958 -0.0327
C56 C 0.6540(4) 0.0685(6) -0.18308(14)
H56 H 0.7022 0.0157 -0.1865
H57 H 0.6612 0.1522 -0.1962
H58 H 0.6012 0.0314 -0.2018
loop_
_geom_bond_atom_site_label_1
_geom_bond_atom_site_label_2
_geom_bond_site_symmetry_1
_geom_bond_site_symmetry_2
N1 C1 1_555 1_555
C1 C2 1_555 1_555
C2 H1 1_555 1_555
C3 C2 1_555 1_555
C4 C3 1_555 1_555
C5 N1 1_555 1_555
C6 C5 1_555 1_555
H2 C6 1_555 1_555
H3 C6 1_555 1_555
H4 C6 1_555 1_555
C7 C1 1_555 1_555
H5 C7 1_555 1_555
H6 C7 1_555 1_555
H7 C7 1_555 1_555
C8 C3 1_555 1_555
C9 C8 1_555 1_555
C10 C4 1_555 1_555
C11 C9 1_555 1_555
H8 C11 1_555 1_555
H9 C11 1_555 1_555
C12 C11 1_555 1_555
H10 C12 1_555 1_555
H11 C12 1_555 1_555
C13 C12 1_555 1_555
H12 C13 1_555 1_555
H13 C13 1_555 1_555
C14 C10 1_555 1_555
H14 C14 1_555 1_555
H15 C14 1_555 1_555
C15 C10 1_555 1_555
C16 C15 1_555 1_555
H16 C16 1_555 1_555
C17 C16 1_555 1_555
H17 C17 1_555 1_555
C18 C17 1_555 1_555
C19 C18 1_555 1_555
H18 C19 1_555 1_555
C20 C15 1_555 1_555
H19 C20 1_555 1_555
C21 C18 1_555 1_555
H20 C21 1_555 1_555
H21 C21 1_555 1_555
H22 C21 1_555 1_555
C22 C8 1_555 1_555
C23 C22 1_555 1_555
H23 C23 1_555 1_555
C24 C23 1_555 1_555
H24 C24 1_555 1_555
C25 C24 1_555 1_555
C26 C25 1_555 1_555
H25 C26 1_555 1_555
C27 C22 1_555 1_555
H26 C27 1_555 1_555
C28 C25 1_555 1_555
H27 C28 1_555 1_555
H28 C28 1_555 1_555
H29 C28 1_555 1_555
N2 C29 1_555 1_555
C29 C30 1_555 1_555
C30 C31 1_555 1_555
C31 C32 1_555 1_555
C32 H30 1_555 1_555
C33 N2 1_555 1_555
C34 C33 1_555 1_555
H31 C34 1_555 1_555
H32 C34 1_555 1_555
H33 C34 1_555 1_555
C35 C29 1_555 1_555
H34 C35 1_555 1_555
H35 C35 1_555 1_555
H36 C35 1_555 1_555
C36 C31 1_555 1_555
C37 C36 1_555 1_555
C38 C30 1_555 1_555
C39 C38 1_555 1_555
H37 C39 1_555 1_555
H38 C39 1_555 1_555
C40 C39 1_555 1_555
H39 C40 1_555 1_555
H40 C40 1_555 1_555
C41 C40 1_555 1_555
H41 C41 1_555 1_555
H42 C41 1_555 1_555
C42 C37 1_555 1_555
H43 C42 1_555 1_555
H44 C42 1_555 1_555
C43 C38 1_555 1_555
C44 C43 1_555 1_555
H45 C44 1_555 1_555
C45 C44 1_555 1_555
H46 C45 1_555 1_555
C46 C45 1_555 1_555
C47 C46 1_555 1_555
H47 C47 1_555 1_555
C48 C43 1_555 1_555
H48 C48 1_555 1_555
C49 C46 1_555 1_555
H49 C49 1_555 1_555
H50 C49 1_555 1_555
H51 C49 1_555 1_555
C50 C36 1_555 1_555
C51 C50 1_555 1_555
H52 C51 1_555 1_555
C52 C51 1_555 1_555
H53 C52 1_555 1_555
C53 C52 1_555 1_555
C54 C53 1_555 1_555
H54 C54 1_555 1_555
C55 C50 1_555 1_555
H55 C55 1_555 1_555
C56 C53 1_555 1_555
H56 C56 1_555 1_555
H57 C56 1_555 1_555
H58 C56 1_555 1_555
C4 C5 1_555 1_555
C9 C10 1_555 1_555
C13 C14 1_555 1_555
C19 C20 1_555 1_555
C26 C27 1_555 1_555
C32 C33 1_555 1_555
C37 C38 1_555 1_555
C41 C42 1_555 1_555
C47 C48 1_555 1_555
C54 C55 1_555 1_555

#END
