
#######################################################################
#
#                 Cambridge Crystallographic Data Centre
#                                CCDC 
#
#######################################################################
#
# If this CIF has been generated from an entry in the Cambridge 
# Structural Database, then it will include bibliographic, chemical, 
# crystal, experimental, refinement or atomic coordinate data resulting 
# from the CCDC's data processing and validation procedures.
#
#######################################################################

data_AWIKUO
_chemical_formula_moiety         'C23 H20 N2 S1'
_chemical_name_systematic        
"(E)-2'-[2-(benzo[d]thiazol-2-yl)vinyl]-N, N-dimethyl-(1,1'-biphenyl)-4-amine"
_symmetry_cell_setting           monoclinic
_symmetry_space_group_name_H-M   'P 21/c'
_symmetry_Int_Tables_number      14
_space_group_name_Hall           '-P 2ybc'
loop_
_symmetry_equiv_pos_site_id
_symmetry_equiv_pos_as_xyz
1 x,y,z
2 -x,1/2+y,1/2-z
3 -x,-y,-z
4 x,1/2-y,1/2+z
_cell_length_a                   12.5537(8)
_cell_length_b                   6.3103(4)
_cell_length_c                   23.6534(17)
_cell_angle_alpha                90
_cell_angle_beta                 99.738(6)
_cell_angle_gamma                90
_cell_volume                     1846.77
_exptl_crystal_colour            yellow
_exptl_crystal_description       needle
_chemical_melting_point          '388.05-389.45 K'
_cell_formula_units_Z            4
_exptl_crystal_preparation       Luminescent
loop_
_atom_site_label
_atom_site_type_symbol
_atom_site_fract_x
_atom_site_fract_y
_atom_site_fract_z
S1 S 0.14051(4) 0.19230(9) 0.07992(2)
N1 N 0.12174(13) 0.1842(3) 0.18831(7)
N2 N 0.27346(13) 0.5828(3) -0.14839(7)
C1 C 0.06474(16) -0.0079(3) 0.10266(10)
C2 C 0.01166(19) -0.1753(4) 0.07123(12)
H1 H 0.0136 -0.1919 0.0315
C3 C -0.04454(19) -0.3178(4) 0.10061(15)
H2 H -0.0820 -0.4335 0.0806
C4 C -0.04600(19) -0.2920(4) 0.15814(15)
H3 H -0.0848 -0.3913 0.1770
C5 C 0.00593(17) -0.1298(4) 0.18915(12)
H4 H 0.0030 -0.1151 0.2288
C6 C 0.06361(16) 0.0146(4) 0.16128(10)
C7 C 0.16694(15) 0.2905(3) 0.14969(9)
C8 C 0.23670(16) 0.4726(3) 0.16261(9)
H5 H 0.2584 0.5107 0.2017
C9 C 0.27214(15) 0.5893(3) 0.12313(9)
H6 H 0.2466 0.5491 0.0845
C10 C 0.34535(15) 0.7719(3) 0.13074(9)
C11 C 0.38028(16) 0.8578(3) 0.18552(9)
H7 H 0.3583 0.7933 0.2180
C12 C 0.44587(17) 1.0340(4) 0.19302(10)
H8 H 0.4684 1.0907 0.2303
C13 C 0.47890(17) 1.1280(4) 0.14618(11)
H9 H 0.5239 1.2500 0.1512
C14 C 0.44662(16) 1.0451(3) 0.09215(10)
H10 H 0.4703 1.1103 0.0602
C15 C 0.37972(15) 0.8669(3) 0.08336(9)
C16 C 0.34715(15) 0.7874(3) 0.02353(9)
C17 C 0.37296(15) 0.5838(3) 0.00728(9)
H11 H 0.4080 0.4893 0.0357
C18 C 0.34912(15) 0.5157(3) -0.04876(9)
H12 H 0.3695 0.3769 -0.0582
C19 C 0.29534(14) 0.6474(3) -0.09198(9)
C20 C 0.26595(16) 0.8501(3) -0.07528(9)
H13 H 0.2271 0.9427 -0.1031
C21 C 0.29258(16) 0.9160(3) -0.01942(9)
H14 H 0.2729 1.0551 -0.0098
C22 C 0.22346(18) 0.7282(4) -0.19197(9)
H15 H 0.1546 0.7776 -0.1825
H16 H 0.2104 0.6562 -0.2292
H17 H 0.2714 0.8497 -0.1938
C23 C 0.31755(18) 0.3857(4) -0.16612(10)
H18 H 0.3967 0.3924 -0.1584
H19 H 0.2927 0.3640 -0.2073
H20 H 0.2931 0.2676 -0.1447
loop_
_geom_bond_atom_site_label_1
_geom_bond_atom_site_label_2
_geom_bond_site_symmetry_1
_geom_bond_site_symmetry_2
S1 C1 1_555 1_555
N1 C6 1_555 1_555
N2 C19 1_555 1_555
C1 C2 1_555 1_555
C2 H1 1_555 1_555
C3 C2 1_555 1_555
H2 C3 1_555 1_555
C4 C3 1_555 1_555
H3 C4 1_555 1_555
C5 C4 1_555 1_555
H4 C5 1_555 1_555
C6 C1 1_555 1_555
C7 S1 1_555 1_555
C8 C7 1_555 1_555
H5 C8 1_555 1_555
C9 C8 1_555 1_555
H6 C9 1_555 1_555
C10 C9 1_555 1_555
C11 C10 1_555 1_555
H7 C11 1_555 1_555
C12 C11 1_555 1_555
H8 C12 1_555 1_555
C13 C12 1_555 1_555
H9 C13 1_555 1_555
C14 C13 1_555 1_555
H10 C14 1_555 1_555
C15 C10 1_555 1_555
C16 C15 1_555 1_555
C17 C16 1_555 1_555
H11 C17 1_555 1_555
C18 C17 1_555 1_555
H12 C18 1_555 1_555
C19 C18 1_555 1_555
C20 C19 1_555 1_555
H13 C20 1_555 1_555
C21 C16 1_555 1_555
H14 C21 1_555 1_555
C22 N2 1_555 1_555
H15 C22 1_555 1_555
H16 C22 1_555 1_555
H17 C22 1_555 1_555
C23 N2 1_555 1_555
H18 C23 1_555 1_555
H19 C23 1_555 1_555
H20 C23 1_555 1_555
N1 C7 1_555 1_555
C5 C6 1_555 1_555
C14 C15 1_555 1_555
C20 C21 1_555 1_555

#END
