
#######################################################################
#
#                 Cambridge Crystallographic Data Centre
#                                CCDC 
#
#######################################################################
#
# If this CIF has been generated from an entry in the Cambridge 
# Structural Database, then it will include bibliographic, chemical, 
# crystal, experimental, refinement or atomic coordinate data resulting 
# from the CCDC's data processing and validation procedures.
#
#######################################################################

data_AWIRIJ
_chemical_formula_moiety         'C58 H38'
_chemical_name_systematic        
1-(1,2-bis(biphenyl-2-yl)-2-(pyren-1-yl)ethyl)pyrene
_symmetry_cell_setting           triclinic
_symmetry_space_group_name_H-M   'P -1'
_symmetry_Int_Tables_number      2
_space_group_name_Hall           '-P 1'
loop_
_symmetry_equiv_pos_site_id
_symmetry_equiv_pos_as_xyz
1 x,y,z
2 -x,-y,-z
_cell_length_a                   7.7741(4)
_cell_length_b                   11.8714(8)
_cell_length_c                   21.2066(13)
_cell_angle_alpha                84.073(5)
_cell_angle_beta                 82.043(5)
_cell_angle_gamma                86.516(5)
_cell_volume                     1925.79
_exptl_crystal_colour            yellow
_exptl_crystal_description       block
_cell_formula_units_Z            2
loop_
_atom_site_label
_atom_site_type_symbol
_atom_site_fract_x
_atom_site_fract_y
_atom_site_fract_z
C1 C 1.0493(2) 1.13832(15) 0.00780(8)
C2 C 0.9762(2) 1.19061(16) -0.04475(9)
H1 H 1.0454 1.2014 -0.0841
C3 C 0.8041(2) 1.22653(17) -0.03964(9)
H2 H 0.7585 1.2624 -0.0752
C4 C 0.6985(2) 1.20959(16) 0.01803(9)
H3 H 0.5822 1.2347 0.0210
C5 C 0.76320(19) 1.15554(14) 0.07191(8)
C6 C 0.94098(19) 1.11972(13) 0.06749(7)
C7 C 1.2284(2) 1.10285(16) 0.00427(9)
H4 H 1.3000 1.1137 -0.0346
C8 C 1.2958(2) 1.05427(16) 0.05566(9)
H5 H 1.4136 1.0330 0.0518
C9 C 1.19117(18) 1.03409(14) 0.11646(8)
C10 C 1.01165(18) 1.06607(13) 0.12212(7)
C11 C 0.90284(17) 1.04306(13) 0.18190(7)
C12 C 0.72216(19) 1.07814(15) 0.18298(8)
H6 H 0.6468 1.0627 0.2205
C13 C 0.6582(2) 1.13228(16) 0.13188(8)
H7 H 0.5411 1.1554 0.1358
C14 C 0.97673(18) 0.99082(13) 0.23510(7)
C15 C 1.15434(19) 0.96389(15) 0.22782(8)
H8 H 1.2044 0.9311 0.2631
C16 C 1.25878(19) 0.98404(15) 0.17030(8)
H9 H 1.3768 0.9637 0.1675
C17 C 0.87063(19) 0.96139(14) 0.30061(7)
H10 H 0.7493 0.9850 0.2967
C18 C 0.87707(19) 0.83105(14) 0.31826(7)
H11 H 0.9992 0.8069 0.3201
C19 C 0.81586(18) 0.77042(14) 0.26556(7)
C20 C 0.64666(19) 0.79269(15) 0.25199(9)
H12 H 0.5745 0.8429 0.2757
C21 C 0.5819(2) 0.74338(15) 0.20489(9)
H13 H 0.4691 0.7629 0.1964
C22 C 0.68263(19) 0.66475(14) 0.16968(8)
C23 C 0.85358(18) 0.63673(14) 0.18346(7)
C24 C 0.92311(17) 0.69190(13) 0.23046(7)
C25 C 1.10069(18) 0.66204(14) 0.23932(7)
H14 H 1.1509 0.6985 0.2685
C26 C 1.19667(19) 0.58355(15) 0.20712(8)
H15 H 1.3105 0.5667 0.2151
C27 C 1.12956(19) 0.52500(14) 0.16087(7)
C28 C 0.95679(19) 0.55409(14) 0.14882(7)
C29 C 0.8880(2) 0.49969(15) 0.10183(8)
C30 C 0.7166(2) 0.53303(17) 0.08828(9)
H16 H 0.6712 0.4997 0.0568
C31 C 0.6196(2) 0.61183(17) 0.12025(8)
H17 H 0.5087 0.6325 0.1100
C32 C 0.9903(2) 0.41708(16) 0.07025(9)
H18 H 0.9448 0.3801 0.0401
C33 C 1.1569(2) 0.38918(17) 0.08268(9)
H19 H 1.2228 0.3336 0.0611
C34 C 1.2268(2) 0.44278(16) 0.12681(9)
H20 H 1.3407 0.4241 0.1342
C35 C 0.77569(19) 0.79224(14) 0.38335(8)
C36 C 0.6242(2) 0.85019(16) 0.40759(9)
H21 H 0.5871 0.9161 0.3846
C37 C 0.5269(2) 0.81305(18) 0.46471(9)
H22 H 0.4277 0.8547 0.4802
C38 C 0.5767(2) 0.71535(19) 0.49831(9)
H23 H 0.5105 0.6892 0.5364
C39 C 0.7253(2) 0.65576(17) 0.47557(8)
H24 H 0.7580 0.5885 0.4984
C40 C 0.8284(2) 0.69351(14) 0.41915(8)
C41 C 0.9918(2) 0.62530(15) 0.40063(8)
C42 C 1.1533(2) 0.66325(17) 0.40767(9)
H25 H 1.1596 0.7324 0.4241
C43 C 1.3037(2) 0.60022(19) 0.39078(10)
H26 H 1.4107 0.6276 0.3949
C44 C 1.2964(3) 0.49696(18) 0.36779(9)
H27 H 1.3983 0.4544 0.3562
C45 C 1.1386(3) 0.45690(17) 0.36203(9)
H28 H 1.1333 0.3864 0.3470
C46 C 0.9869(2) 0.52032(16) 0.37832(9)
H29 H 0.8804 0.4921 0.3742
C47 C 0.9274(2) 1.02865(14) 0.35146(7)
C48 C 1.0611(2) 0.98686(17) 0.38600(8)
H30 H 1.1138 0.9161 0.3787
C49 C 1.1179(3) 1.0471(2) 0.43075(9)
H31 H 1.2076 1.0169 0.4530
C50 C 1.0426(3) 1.1511(2) 0.44237(10)
H32 H 1.0804 1.1919 0.4726
C51 C 0.9104(3) 1.19481(18) 0.40893(9)
H33 H 0.8591 1.2656 0.4171
C52 C 0.8508(2) 1.13588(15) 0.36292(8)
C53 C 0.7105(2) 1.19097(15) 0.32771(8)
C54 C 0.5397(2) 1.15938(16) 0.34195(9)
H34 H 0.5113 1.1031 0.3750
C55 C 0.4114(3) 1.20922(19) 0.30841(10)
H35 H 0.2984 1.1850 0.3180
C56 C 0.4499(3) 1.2943(2) 0.26098(11)
H36 H 0.3633 1.3279 0.2381
C57 C 0.6163(3) 1.3301(2) 0.24718(11)
H37 H 0.6419 1.3892 0.2155
C58 C 0.7464(3) 1.27900(18) 0.27992(10)
H38 H 0.8591 1.3036 0.2699
loop_
_geom_bond_atom_site_label_1
_geom_bond_atom_site_label_2
_geom_bond_site_symmetry_1
_geom_bond_site_symmetry_2
C1 C2 1_555 1_555
C2 H1 1_555 1_555
C3 C2 1_555 1_555
H2 C3 1_555 1_555
C4 C3 1_555 1_555
H3 C4 1_555 1_555
C5 C4 1_555 1_555
C6 C1 1_555 1_555
C7 C1 1_555 1_555
H4 C7 1_555 1_555
C8 C7 1_555 1_555
H5 C8 1_555 1_555
C9 C8 1_555 1_555
C10 C6 1_555 1_555
C11 C10 1_555 1_555
C12 C11 1_555 1_555
H6 C12 1_555 1_555
C13 C5 1_555 1_555
H7 C13 1_555 1_555
C14 C11 1_555 1_555
C15 C14 1_555 1_555
H8 C15 1_555 1_555
C16 C9 1_555 1_555
H9 C16 1_555 1_555
C17 C14 1_555 1_555
H10 C17 1_555 1_555
C18 C17 1_555 1_555
H11 C18 1_555 1_555
C19 C18 1_555 1_555
C20 C19 1_555 1_555
H12 C20 1_555 1_555
C21 C20 1_555 1_555
H13 C21 1_555 1_555
C22 C21 1_555 1_555
C23 C22 1_555 1_555
C24 C19 1_555 1_555
C25 C24 1_555 1_555
H14 C25 1_555 1_555
C26 C25 1_555 1_555
H15 C26 1_555 1_555
C27 C26 1_555 1_555
C28 C23 1_555 1_555
C29 C28 1_555 1_555
C30 C29 1_555 1_555
H16 C30 1_555 1_555
C31 C22 1_555 1_555
H17 C31 1_555 1_555
C32 C29 1_555 1_555
H18 C32 1_555 1_555
C33 C32 1_555 1_555
H19 C33 1_555 1_555
C34 C27 1_555 1_555
H20 C34 1_555 1_555
C35 C18 1_555 1_555
C36 C35 1_555 1_555
H21 C36 1_555 1_555
C37 C36 1_555 1_555
H22 C37 1_555 1_555
C38 C37 1_555 1_555
H23 C38 1_555 1_555
C39 C38 1_555 1_555
H24 C39 1_555 1_555
C40 C35 1_555 1_555
C41 C40 1_555 1_555
C42 C41 1_555 1_555
H25 C42 1_555 1_555
C43 C42 1_555 1_555
H26 C43 1_555 1_555
C44 C43 1_555 1_555
H27 C44 1_555 1_555
C45 C44 1_555 1_555
H28 C45 1_555 1_555
C46 C41 1_555 1_555
H29 C46 1_555 1_555
C47 C17 1_555 1_555
C48 C47 1_555 1_555
H30 C48 1_555 1_555
C49 C48 1_555 1_555
H31 C49 1_555 1_555
C50 C49 1_555 1_555
H32 C50 1_555 1_555
C51 C50 1_555 1_555
H33 C51 1_555 1_555
C52 C47 1_555 1_555
C53 C52 1_555 1_555
C54 C53 1_555 1_555
H34 C54 1_555 1_555
C55 C54 1_555 1_555
H35 C55 1_555 1_555
C56 C55 1_555 1_555
H36 C56 1_555 1_555
C57 C56 1_555 1_555
H37 C57 1_555 1_555
C58 C53 1_555 1_555
H38 C58 1_555 1_555
C5 C6 1_555 1_555
C9 C10 1_555 1_555
C12 C13 1_555 1_555
C15 C16 1_555 1_555
C23 C24 1_555 1_555
C27 C28 1_555 1_555
C30 C31 1_555 1_555
C33 C34 1_555 1_555
C39 C40 1_555 1_555
C45 C46 1_555 1_555
C51 C52 1_555 1_555
C57 C58 1_555 1_555

#END
