
#######################################################################
#
#                 Cambridge Crystallographic Data Centre
#                                CCDC 
#
#######################################################################
#
# If this CIF has been generated from an entry in the Cambridge 
# Structural Database, then it will include bibliographic, chemical, 
# crystal, experimental, refinement or atomic coordinate data resulting 
# from the CCDC's data processing and validation procedures.
#
#######################################################################

data_AWIREF
_chemical_formula_moiety         'C52 H36,0.75(C1 H2 Cl2)'
_chemical_name_systematic        
'2-(1,2-bis(biphenyl-2-yl)-2-(9H-fluoren-2-yl)vinyl)-9H-fluorene dichloromethane solvate'
_symmetry_cell_setting           triclinic
_symmetry_space_group_name_H-M   'P -1'
_symmetry_Int_Tables_number      2
_space_group_name_Hall           '-P 1'
loop_
_symmetry_equiv_pos_site_id
_symmetry_equiv_pos_as_xyz
1 x,y,z
2 -x,-y,-z
_cell_length_a                   14.0019(10)
_cell_length_b                   14.0989(11)
_cell_length_c                   20.1686(13)
_cell_angle_alpha                78.253(3)
_cell_angle_beta                 78.004(2)
_cell_angle_gamma                82.267(3)
_cell_volume                     3795.27
_exptl_crystal_colour            colorless
_exptl_crystal_description       block
_cell_formula_units_Z            4
loop_
_atom_site_label
_atom_site_type_symbol
_atom_site_fract_x
_atom_site_fract_y
_atom_site_fract_z
C1 C 0.2131(3) 0.7760(3) 0.53516(18)
C2 C 0.0633(4) 0.8462(5) 0.7302(3)
C3 C 0.1407(4) 0.8976(5) 0.6932(3)
H1 H 0.1599 0.9489 0.7102
C4 C 0.1900(6) 0.8735(7) 0.6309(4)
H2 H 0.2439 0.9080 0.6060
C5 C 0.1627(8) 0.7998(9) 0.6038(6)
C6 C 0.0816(6) 0.7498(7) 0.6407(4)
H3 H 0.0600 0.7009 0.6227
C7 C 0.0336(5) 0.7733(5) 0.7039(3)
C8 C -0.0515(4) 0.7278(4) 0.7537(3)
H4 H -0.1116 0.7396 0.7335
H5 H -0.0360 0.6568 0.7678
C9 C -0.0626(5) 0.7802(5) 0.8136(3)
C10 C -0.1240(5) 0.7653(6) 0.8771(3)
H6 H -0.1696 0.7178 0.8879
C11 C -0.1177(7) 0.8218(7) 0.9255(4)
H7 H -0.1598 0.8121 0.9693
C12 C -0.0516(6) 0.8913(7) 0.9111(4)
H8 H -0.0488 0.9289 0.9446
C13 C 0.0104(5) 0.9057(6) 0.8473(3)
H9 H 0.0563 0.9529 0.8366
C14 C 0.0039(5) 0.8497(6) 0.7994(3)
C15 C 0.1513(3) 0.7743(3) 0.48346(19)
C16 C 0.1641(3) 0.7040(3) 0.4414(2)
C17 C 0.1053(3) 0.7136(4) 0.3918(2)
H10 H 0.1154 0.6670 0.3624
C18 C 0.0320(3) 0.7905(4) 0.3848(2)
H11 H -0.0072 0.7962 0.3508
C19 C 0.0170(3) 0.8578(4) 0.4274(2)
H12 H -0.0333 0.9099 0.4232
C20 C 0.0752(3) 0.8497(3) 0.4767(2)
H13 H 0.0634 0.8960 0.5064
C21 C 0.2342(3) 0.6143(3) 0.4494(2)
C22 C 0.2923(3) 0.5846(4) 0.3905(2)
H14 H 0.2898 0.6234 0.3464
C23 C 0.3543(3) 0.4975(4) 0.3967(3)
H15 H 0.3931 0.4770 0.3566
C24 C 0.3592(3) 0.4421(4) 0.4602(3)
H16 H 0.4016 0.3835 0.4642
C25 C 0.3025(3) 0.4713(4) 0.5182(3)
H17 H 0.3056 0.4323 0.5622
C26 C 0.2408(3) 0.5569(3) 0.5133(2)
H18 H 0.2028 0.5765 0.5540
C27 C 0.3132(3) 0.7692(3) 0.51974(19)
C28 C 0.5119(5) 0.7578(6) 0.6568(3)
C29 C 0.5256(5) 0.8206(6) 0.5942(3)
H19 H 0.5780 0.8609 0.5816
C30 C 0.4612(7) 0.8235(8) 0.5503(5)
H20 H 0.4701 0.8659 0.5068
C31 C 0.3831(10) 0.7652(11) 0.5684(6)
C32 C 0.3706(6) 0.7020(7) 0.6317(4)
H21 H 0.3176 0.6623 0.6446
C33 C 0.4361(5) 0.6972(7) 0.6757(4)
C34 C 0.4379(5) 0.6372(6) 0.7458(3)
H22 H 0.4482 0.5668 0.7442
H23 H 0.3764 0.6506 0.7784
C35 C 0.5246(6) 0.6709(6) 0.7657(4)
C36 C 0.5581(6) 0.6439(7) 0.8280(4)
H24 H 0.5289 0.5959 0.8639
C37 C 0.6365(7) 0.6907(8) 0.8354(5)
H25 H 0.6621 0.6732 0.8768
C38 C 0.6774(7) 0.7621(8) 0.7830(5)
H26 H 0.7296 0.7938 0.7896
C39 C 0.6436(6) 0.7883(7) 0.7211(4)
H27 H 0.6726 0.8363 0.6850
C40 C 0.5662(5) 0.7421(6) 0.7139(4)
C41 C 0.3721(3) 0.7706(3) 0.44884(19)
C42 C 0.3614(3) 0.8458(3) 0.3927(2)
C43 C 0.4241(3) 0.8407(4) 0.3292(2)
H28 H 0.4174 0.8912 0.2908
C44 C 0.4954(3) 0.7642(4) 0.3211(2)
H29 H 0.5367 0.7620 0.2776
C45 C 0.5064(3) 0.6907(4) 0.3765(2)
H30 H 0.5557 0.6379 0.3714
C46 C 0.4453(3) 0.6943(3) 0.4396(2)
H31 H 0.4533 0.6436 0.4776
C47 C 0.2877(3) 0.9321(3) 0.3974(2)
C48 C 0.2283(3) 0.9590(4) 0.3476(2)
H32 H 0.2355 0.9229 0.3116
C49 C 0.1586(3) 1.0389(4) 0.3509(2)
H33 H 0.1183 1.0573 0.3169
C50 C 0.1476(3) 1.0909(4) 0.4025(3)
H34 H 0.0985 1.1443 0.4049
C51 C 0.2072(3) 1.0669(4) 0.4515(2)
H35 H 0.2005 1.1048 0.4864
C52 C 0.2771(3) 0.9867(3) 0.4491(2)
H36 H 0.3177 0.9693 0.4829
C53 C 0.2877(3) 0.8260(3) 1.00755(18)
C54 C 0.3278(6) 0.9774(6) 0.7992(3)
C55 C 0.3918(6) 0.8958(5) 0.8163(4)
H37 H 0.4426 0.8738 0.7821
C56 C 0.3805(7) 0.8470(8) 0.8841(4)
H38 H 0.4240 0.7913 0.8961
C57 C 0.3054(10) 0.8786(10) 0.9357(6)
C58 C 0.2454(7) 0.9634(8) 0.9179(4)
H39 H 0.1964 0.9874 0.9523
C59 C 0.2569(6) 1.0133(6) 0.8500(3)
C60 C 0.1993(5) 1.1047(5) 0.8191(3)
H40 H 0.1282 1.0975 0.8285
H41 H 0.2104 1.1623 0.8366
C61 C 0.2429(6) 1.1114(6) 0.7433(4)
C62 C 0.2142(8) 1.1768(7) 0.6881(4)
H42 H 0.1622 1.2265 0.6953
C63 C 0.2631(10) 1.1680(9) 0.6221(5)
H43 H 0.2433 1.2116 0.5837
C64 C 0.3406(8) 1.0963(7) 0.6107(5)
H44 H 0.3746 1.0931 0.5652
C65 C 0.3682(7) 1.0296(7) 0.6662(4)
H45 H 0.4197 0.9794 0.6592
C66 C 0.3179(6) 1.0386(6) 0.7325(3)
C67 C 0.2781(3) 0.8842(3) 1.06344(19)
C68 C 0.2023(3) 0.8794(3) 1.12089(19)
C69 C 0.2030(3) 0.9349(3) 1.1708(2)
H46 H 0.1521 0.9315 1.2102
C70 C 0.2756(4) 0.9939(3) 1.1641(2)
H47 H 0.2752 1.0302 1.1990
C71 C 0.3500(3) 1.0012(3) 1.1064(2)
H48 H 0.3999 1.0431 1.1011
C72 C 0.3502(3) 0.9465(3) 1.0568(2)
H49 H 0.4008 0.9515 1.0172
C73 C 0.1192(3) 0.8194(3) 1.13076(19)
C74 C 0.0868(3) 0.7630(3) 1.1954(2)
H50 H 0.1173 0.7651 1.2330
C75 C 0.0120(3) 0.7049(4) 1.2055(2)
H51 H -0.0088 0.6676 1.2499
C76 C -0.0332(3) 0.7002(4) 1.1519(2)
H52 H -0.0840 0.6590 1.1588
C77 C -0.0033(3) 0.7566(4) 1.0877(2)
H53 H -0.0344 0.7546 1.0505
C78 C 0.0710(3) 0.8152(3) 1.0780(2)
H54 H 0.0900 0.8540 1.0339
C79 C 0.2922(3) 0.7281(3) 1.0189(2)
C80 C 0.2831(5) 0.5349(5) 0.8816(3)
C81 C 0.3478(4) 0.5101(5) 0.9274(3)
H55 H 0.3892 0.4508 0.9285
C82 C 0.3513(5) 0.5723(5) 0.9714(4)
H56 H 0.3941 0.5541 1.0037
C83 C 0.2933(6) 0.6618(6) 0.9697(5)
C84 C 0.2300(5) 0.6867(5) 0.9225(3)
H57 H 0.1896 0.7466 0.9208
C85 C 0.2255(5) 0.6245(5) 0.8780(3)
C86 C 0.1646(4) 0.6368(4) 0.8232(3)
H58 H 0.1800 0.6947 0.7873
H59 H 0.0936 0.6428 0.8431
C87 C 0.1946(5) 0.5442(5) 0.7946(3)
C88 C 0.1663(6) 0.5151(5) 0.7404(4)
H60 H 0.1191 0.5547 0.7166
C89 C 0.2079(6) 0.4275(6) 0.7214(4)
H61 H 0.1901 0.4077 0.6837
C90 C 0.2752(5) 0.3684(6) 0.7570(4)
H62 H 0.3018 0.3076 0.7442
C91 C 0.3038(5) 0.3970(5) 0.8107(4)
H63 H 0.3505 0.3566 0.8346
C92 C 0.2640(5) 0.4852(5) 0.8297(3)
C93 C 0.2959(3) 0.6668(3) 1.0887(2)
C94 C 0.3682(3) 0.6686(3) 1.1271(2)
C95 C 0.3629(3) 0.6087(3) 1.1921(2)
H64 H 0.4102 0.6110 1.2192
C96 C 0.2905(3) 0.5466(3) 1.2174(2)
H65 H 0.2884 0.5062 1.2614
C97 C 0.2216(3) 0.5433(3) 1.1788(2)
H66 H 0.1717 0.5003 1.1960
C98 C 0.2246(3) 0.6022(3) 1.1150(2)
H67 H 0.1770 0.5987 1.0884
C99 C 0.4526(3) 0.7285(3) 1.1018(2)
C100 C 0.4781(3) 0.7823(3) 1.1444(2)
H68 H 0.4393 0.7832 1.1890
C101 C 0.5592(3) 0.8351(3) 1.1235(2)
H69 H 0.5759 0.8713 1.1536
C102 C 0.6161(3) 0.8348(4) 1.0581(2)
H70 H 0.6720 0.8705 1.0435
C103 C 0.5911(3) 0.7823(3) 1.0147(2)
H71 H 0.6297 0.7822 0.9700
C104 C 0.5097(3) 0.7295(3) 1.0358(2)
H72 H 0.4927 0.6940 1.0054
C105 C 0.9062(7) 0.5880(8) 0.5647(5)
H73 H 0.8701 0.5480 0.5450
H74 H 0.9463 0.6297 0.5265
Cl1 Cl 0.9826(3) 0.5114(3) 0.6204(3)
Cl2 Cl 0.8218(2) 0.6613(2) 0.61947(18)
C106? C 0.0283(9) 0.7996(9) 0.7279(5)
C107? C 0.0092(8) 0.7334(9) 0.6916(5)
H75? H -0.0435 0.6938 0.7095
C108? C 0.0694(12) 0.7260(14) 0.6279(7)
H76? H 0.0576 0.6813 0.6017
C109? C 0.1473(17) 0.7844(18) 0.6027(11)
C110? C 0.1647(11) 0.8531(13) 0.6389(7)
H77? H 0.2162 0.8940 0.6208
C111? C 0.1038(8) 0.8595(9) 0.7024(5)
C112? C 0.1073(7) 0.9251(8) 0.7521(4)
H78? H 0.0947 0.9945 0.7314
H79? H 0.1714 0.9148 0.7672
C113? C 0.0256(8) 0.8929(9) 0.8109(5)
C114? C -0.0040(10) 0.9216(12) 0.8745(6)
H80? H 0.0262 0.9714 0.8854
C115? C -0.0795(13) 0.8759(15) 0.9223(8)
H81? H -0.1005 0.8955 0.9658
C116? C -0.1241(14) 0.8024(14) 0.9073(7)
H82? H -0.1750 0.7723 0.9404
C117? C -0.0941(9) 0.7733(11) 0.8439(6)
H83? H -0.1231 0.7224 0.8331
C118? C -0.0207(9) 0.8204(10) 0.7966(5)
C119? C 0.4719(6) 0.7055(7) 0.6839(4)
C120? C 0.3935(5) 0.6531(6) 0.6884(4)
H84? H 0.3757 0.6039 0.7274
C121? C 0.3415(7) 0.6737(8) 0.6351(5)
H85? H 0.2882 0.6373 0.6373
C122? C 0.3658(10) 0.7473(12) 0.5778(7)
C123? C 0.4493(8) 0.7948(8) 0.5725(5)
H86? H 0.4699 0.8412 0.5325
C124? C 0.5018(6) 0.7740(7) 0.6256(4)
C125? C 0.5905(5) 0.8188(6) 0.6325(3)
H87? H 0.6484 0.8032 0.5976
H88? H 0.5777 0.8904 0.6285
C126? C 0.6041(6) 0.7705(7) 0.7043(4)
C127? C 0.6689(7) 0.7892(9) 0.7426(5)
H89? H 0.7148 0.8359 0.7232
C128? C 0.6655(8) 0.7387(10) 0.8097(5)
H90? H 0.7100 0.7507 0.8362
C129? C 0.5980(7) 0.6709(9) 0.8388(5)
H91? H 0.5972 0.6363 0.8845
C130? C 0.5313(7) 0.6535(8) 0.8007(4)
H92? H 0.4842 0.6083 0.8204
C131? C 0.5355(6) 0.7034(7) 0.7339(4)
C132? C 0.2736(6) 1.0199(6) 0.8123(3)
C133? C 0.2104(6) 1.0416(7) 0.8710(3)
H93? H 0.1639 1.0972 0.8687
C134? C 0.2170(8) 0.9792(9) 0.9337(5)
H94? H 0.1745 0.9934 0.9745
C135? C 0.2842(11) 0.8966(11) 0.9379(6)
C136? C 0.3510(7) 0.8779(8) 0.8784(4)
H95? H 0.3989 0.8234 0.8806
C137? C 0.3453(7) 0.9411(7) 0.8162(4)
C138? C 0.4054(5) 0.9358(6) 0.7455(3)
H96? H 0.3995 0.8740 0.7312
H97? H 0.4754 0.9420 0.7440
C139? C 0.3597(7) 1.0223(6) 0.7007(4)
C140? C 0.3814(7) 1.0527(7) 0.6299(4)
H98? H 0.4330 1.0193 0.6023
C141? C 0.3255(9) 1.1337(8) 0.6003(5)
H99? H 0.3405 1.1564 0.5520
C142? C 0.2481(10) 1.1819(10) 0.6401(5)
H100? H 0.2108 1.2367 0.6189
C143? C 0.2257(7) 1.1498(7) 0.7106(5)
H101? H 0.1726 1.1817 0.7381
C144? C 0.2820(6) 1.0705(6) 0.7404(3)
C145? C 0.2251(9) 0.5878(7) 0.8662(6)
C146? C 0.1754(7) 0.6776(7) 0.8738(5)
H102? H 0.1285 0.7067 0.8459
C147? C 0.1950(8) 0.7246(8) 0.9228(6)
H103? H 0.1588 0.7849 0.9299
C148? C 0.2677(10) 0.6846(9) 0.9621(8)
C149? C 0.3149(9) 0.5930(8) 0.9550(6)
H104? H 0.3605 0.5628 0.9836
C150? C 0.2956(9) 0.5456(8) 0.9059(6)
C151? C 0.3384(7) 0.4484(6) 0.8878(5)
H105? H 0.3218 0.3948 0.9271
H106? H 0.4105 0.4460 0.8733
C152? C 0.2898(8) 0.4430(8) 0.8289(6)
C153? C 0.3042(10) 0.3750(9) 0.7868(6)
H107? H 0.3484 0.3185 0.7951
C154? C 0.2549(11) 0.3883(10) 0.7325(6)
H108? H 0.2665 0.3418 0.7030
C155? C 0.1885(10) 0.4694(10) 0.7210(7)
H109? H 0.1542 0.4779 0.6839
C156? C 0.1720(9) 0.5384(9) 0.7634(6)
H110? H 0.1264 0.5939 0.7558
C157? C 0.2230(8) 0.5251(7) 0.8169(5)
C158? C -0.0147(18) 0.557(4) 0.984(2)
H111? H 0.0178 0.5009 1.0092
H112? H 0.0252 0.6101 0.9748
Cl3? Cl -0.1344(14) 0.6013(16) 1.0174(10)
Cl4? Cl -0.0231(11) 0.5131(12) 0.9104(9)
C159? C 0.933(2) 0.615(2) 0.5248(11)
H113? H 0.9806 0.6593 0.4959
H114? H 0.9040 0.5847 0.4942
Cl5? Cl 0.9911(4) 0.5242(4) 0.5816(4)
Cl6? Cl 0.8413(7) 0.6773(7) 0.5779(7)
C160? C 0.8527(13) 0.5890(19) 0.5972(9)
H115? H 0.8041 0.6306 0.6246
H116? H 0.8170 0.5410 0.5850
Cl7? Cl 0.9355(4) 0.5274(4) 0.6478(3)
Cl8? Cl 0.9069(4) 0.6611(4) 0.5221(2)
C161? C -0.0171(15) 0.5465(16) 1.0132(10)
H117? H 0.0050 0.6103 1.0030
H118? H -0.0736 0.5439 1.0497
Cl9? Cl 0.0846(5) 0.4556(6) 1.0243(4)
Cl10? Cl -0.0437(4) 0.5198(4) 0.9386(4)
loop_
_geom_bond_atom_site_label_1
_geom_bond_atom_site_label_2
_geom_bond_site_symmetry_1
_geom_bond_site_symmetry_2
C1 C5 1_555 1_555
C2 C3 1_555 1_555
C3 H1 1_555 1_555
C4 C3 1_555 1_555
H2 C4 1_555 1_555
C5 C4 1_555 1_555
C6 C5 1_555 1_555
H3 C6 1_555 1_555
C7 C2 1_555 1_555
C8 C7 1_555 1_555
H4 C8 1_555 1_555
H5 C8 1_555 1_555
C9 C8 1_555 1_555
C10 C9 1_555 1_555
H6 C10 1_555 1_555
C11 C10 1_555 1_555
H7 C11 1_555 1_555
C12 C11 1_555 1_555
H8 C12 1_555 1_555
C13 C12 1_555 1_555
H9 C13 1_555 1_555
C14 C2 1_555 1_555
C15 C1 1_555 1_555
C16 C15 1_555 1_555
C17 C16 1_555 1_555
H10 C17 1_555 1_555
C18 C17 1_555 1_555
H11 C18 1_555 1_555
C19 C18 1_555 1_555
H12 C19 1_555 1_555
C20 C15 1_555 1_555
H13 C20 1_555 1_555
C21 C16 1_555 1_555
C22 C21 1_555 1_555
H14 C22 1_555 1_555
C23 C22 1_555 1_555
H15 C23 1_555 1_555
C24 C23 1_555 1_555
H16 C24 1_555 1_555
C25 C24 1_555 1_555
H17 C25 1_555 1_555
C26 C21 1_555 1_555
H18 C26 1_555 1_555
C27 C1 1_555 1_555
C28 C29 1_555 1_555
C29 H19 1_555 1_555
C30 C29 1_555 1_555
H20 C30 1_555 1_555
C31 C27 1_555 1_555
C32 C31 1_555 1_555
H21 C32 1_555 1_555
C33 C28 1_555 1_555
C34 C33 1_555 1_555
H22 C34 1_555 1_555
H23 C34 1_555 1_555
C35 C34 1_555 1_555
C36 C35 1_555 1_555
H24 C36 1_555 1_555
C37 C36 1_555 1_555
H25 C37 1_555 1_555
C38 C37 1_555 1_555
H26 C38 1_555 1_555
C39 C38 1_555 1_555
H27 C39 1_555 1_555
C40 C28 1_555 1_555
C41 C27 1_555 1_555
C42 C41 1_555 1_555
C43 C42 1_555 1_555
H28 C43 1_555 1_555
C44 C43 1_555 1_555
H29 C44 1_555 1_555
C45 C44 1_555 1_555
H30 C45 1_555 1_555
C46 C41 1_555 1_555
H31 C46 1_555 1_555
C47 C42 1_555 1_555
C48 C47 1_555 1_555
H32 C48 1_555 1_555
C49 C48 1_555 1_555
H33 C49 1_555 1_555
C50 C49 1_555 1_555
H34 C50 1_555 1_555
C51 C50 1_555 1_555
H35 C51 1_555 1_555
C52 C47 1_555 1_555
H36 C52 1_555 1_555
C53 C57 1_555 1_555
C54 C55 1_555 1_555
C55 H37 1_555 1_555
C56 C55 1_555 1_555
H38 C56 1_555 1_555
C57 C56 1_555 1_555
C58 C57 1_555 1_555
H39 C58 1_555 1_555
C59 C54 1_555 1_555
C60 C59 1_555 1_555
H40 C60 1_555 1_555
H41 C60 1_555 1_555
C61 C60 1_555 1_555
C62 C61 1_555 1_555
H42 C62 1_555 1_555
C63 C62 1_555 1_555
H43 C63 1_555 1_555
C64 C63 1_555 1_555
H44 C64 1_555 1_555
C65 C64 1_555 1_555
H45 C65 1_555 1_555
C66 C54 1_555 1_555
C67 C53 1_555 1_555
C68 C67 1_555 1_555
C69 C68 1_555 1_555
H46 C69 1_555 1_555
C70 C69 1_555 1_555
H47 C70 1_555 1_555
C71 C70 1_555 1_555
H48 C71 1_555 1_555
C72 C67 1_555 1_555
H49 C72 1_555 1_555
C73 C68 1_555 1_555
C74 C73 1_555 1_555
H50 C74 1_555 1_555
C75 C74 1_555 1_555
H51 C75 1_555 1_555
C76 C75 1_555 1_555
H52 C76 1_555 1_555
C77 C76 1_555 1_555
H53 C77 1_555 1_555
C78 C73 1_555 1_555
H54 C78 1_555 1_555
C79 C53 1_555 1_555
C80 C81 1_555 1_555
C81 H55 1_555 1_555
C82 C81 1_555 1_555
H56 C82 1_555 1_555
C83 C79 1_555 1_555
C84 C83 1_555 1_555
H57 C84 1_555 1_555
C85 C80 1_555 1_555
C86 C85 1_555 1_555
H58 C86 1_555 1_555
H59 C86 1_555 1_555
C87 C86 1_555 1_555
C88 C87 1_555 1_555
H60 C88 1_555 1_555
C89 C88 1_555 1_555
H61 C89 1_555 1_555
C90 C89 1_555 1_555
H62 C90 1_555 1_555
C91 C90 1_555 1_555
H63 C91 1_555 1_555
C92 C80 1_555 1_555
C93 C79 1_555 1_555
C94 C93 1_555 1_555
C95 C94 1_555 1_555
H64 C95 1_555 1_555
C96 C95 1_555 1_555
H65 C96 1_555 1_555
C97 C96 1_555 1_555
H66 C97 1_555 1_555
C98 C93 1_555 1_555
H67 C98 1_555 1_555
C99 C94 1_555 1_555
C100 C99 1_555 1_555
H68 C100 1_555 1_555
C101 C100 1_555 1_555
H69 C101 1_555 1_555
C102 C101 1_555 1_555
H70 C102 1_555 1_555
C103 C102 1_555 1_555
H71 C103 1_555 1_555
C104 C99 1_555 1_555
H72 C104 1_555 1_555
C105 H73 1_555 1_555
H74 C105 1_555 1_555
Cl1 C105 1_555 1_555
Cl2 C105 1_555 1_555
C6 C7 1_555 1_555
C9 C14 1_555 1_555
C13 C14 1_555 1_555
C19 C20 1_555 1_555
C25 C26 1_555 1_555
C30 C31 1_555 1_555
C32 C33 1_555 1_555
C35 C40 1_555 1_555
C39 C40 1_555 1_555
C45 C46 1_555 1_555
C51 C52 1_555 1_555
C58 C59 1_555 1_555
C61 C66 1_555 1_555
C65 C66 1_555 1_555
C71 C72 1_555 1_555
C77 C78 1_555 1_555
C82 C83 1_555 1_555
C84 C85 1_555 1_555
C87 C92 1_555 1_555
C91 C92 1_555 1_555
C97 C98 1_555 1_555
C103 C104 1_555 1_555

#END
