
#######################################################################
#
#                 Cambridge Crystallographic Data Centre
#                                CCDC 
#
#######################################################################
#
# If this CIF has been generated from an entry in the Cambridge 
# Structural Database, then it will include bibliographic, chemical, 
# crystal, experimental, refinement or atomic coordinate data resulting 
# from the CCDC's data processing and validation procedures.
#
#######################################################################

data_AWIVUX
_chemical_formula_moiety         'C14 H10 S8 Se4'
_chemical_name_systematic        
(2-(4',5'-bis(Thiomethyl)-1',3'-dithio-2'-ylidene)-5-(4'',5''-ethylenediseleno-1'',3''-diseleno-2''-ylidene)-1,3,4,6-tetrathiapentalene)
_symmetry_cell_setting           orthorhombic
_symmetry_space_group_name_H-M   'P 21 21 21'
_symmetry_Int_Tables_number      19
_space_group_name_Hall           'P 2ac 2ab'
loop_
_symmetry_equiv_pos_site_id
_symmetry_equiv_pos_as_xyz
1 x,y,z
2 1/2-x,-y,1/2+z
3 1/2+x,1/2-y,-z
4 -x,1/2+y,1/2-z
_cell_length_a                   7.901(3)
_cell_length_b                   47.86(2)
_cell_length_c                   6.001(2)
_cell_angle_alpha                90
_cell_angle_beta                 90
_cell_angle_gamma                90
_cell_volume                     2269.23
_exptl_crystal_colour            red
_exptl_crystal_description       needle
_chemical_melting_point          238-239deg.C(dec)
_cell_formula_units_Z            4
_exptl_crystal_recrystallization_method 'carbon disulfide/hexane'
loop_
_atom_site_label
_atom_site_type_symbol
_atom_site_fract_x
_atom_site_fract_y
_atom_site_fract_z
Se1 Se 0.7880(3) 0.05805(4) 0.8088(5)
Se2 Se 0.4666(3) 0.09739(5) 0.7975(5)
Se3 Se 0.5877(4) 0.00959(5) 1.0711(6)
Se4 Se 0.2364(3) 0.05281(5) 1.0597(5)
S1 S 1.3830 0.1890 -0.8532
S2 S 1.0530 0.2334 -0.8024
S3 S 1.2130(9) 0.1559(1) -0.484(1)
S4 S 0.9129(8) 0.1930(1) -0.462(1)
S5 S 1.0592(8) 0.1201(1) -0.067(1)
S6 S 0.7572(8) 0.1573(1) -0.064(1)
S7 S 0.9438(8) 0.0940(1) 0.3761(9)
S8 S 0.6389(8) 0.1311(1) 0.374(1)
C1 C 1.4419 0.2043 -0.6726
C2 C 0.9274 0.2495 -0.6792
C3 C 1.221(4) 0.1864(7) -0.651(6)
C4 C 1.082(4) 0.2029(5) -0.637(5)
C5 C 1.025(3) 0.1632(4) -0.354(4)
C6 C 0.959(4) 0.1484(5) -0.191(5)
C7 C 0.920(3) 0.1168(4) 0.155(4)
C8 C 0.780(3) 0.1343(4) 0.153(4)
C9 C 0.740(3) 0.1019(4) 0.504(3)
C10 C 0.673(2) 0.0883(3) 0.659(3)
C11 C 0.584(3) 0.0435(5) 0.917(5)
C12 C 0.443(3) 0.0600(4) 0.924(4)
C13 C 0.480(5) 0.0217(7) 1.361(7)
C14 C 0.314(5) 0.0359(7) 1.330(7)
H1 H 1.4094 0.1953 -0.5382
H2 H 1.5618 0.2055 -0.6794
H3 H 1.3948 0.2225 -0.6766
H4 H 0.9466 0.2475 -0.5238
H5 H 0.9365 0.2687 -0.7188
H6 H 0.8172 0.2430 -0.7149
H7 H 0.4626 0.0053 1.4614
H8 H 0.5527 0.0341 1.4459
H9 H 0.3101 0.0499 1.4532
H10 H 0.2300 0.0218 1.3814
loop_
_geom_bond_atom_site_label_1
_geom_bond_atom_site_label_2
_geom_bond_site_symmetry_1
_geom_bond_site_symmetry_2
Se1 C10 1_555 1_555
Se2 C10 1_555 1_555
Se3 C11 1_555 1_555
Se4 C12 1_555 1_555
S1 C1 1_555 1_555
S2 C2 1_555 1_555
S3 C3 1_555 1_555
S4 C4 1_555 1_555
S5 C6 1_555 1_555
S6 C6 1_555 1_555
S7 C7 1_555 1_555
S8 C8 1_555 1_555
C1 H1 1_555 1_555
C2 H4 1_555 1_555
C3 S1 1_555 1_555
C4 S2 1_555 1_555
C5 S3 1_555 1_555
C6 C5 1_555 1_555
C7 S5 1_555 1_555
C8 S6 1_555 1_555
C9 S7 1_555 1_555
C10 C9 1_555 1_555
C11 Se1 1_555 1_555
C12 Se2 1_555 1_555
C13 Se3 1_555 1_555
C14 Se4 1_555 1_555
H2 C1 1_555 1_555
H3 C1 1_555 1_555
H5 C2 1_555 1_555
H6 C2 1_555 1_555
H7 C13 1_555 1_555
H8 C13 1_555 1_555
H9 C14 1_555 1_555
H10 C14 1_555 1_555
S4 C5 1_555 1_555
S8 C9 1_555 1_555
C3 C4 1_555 1_555
C7 C8 1_555 1_555
C11 C12 1_555 1_555
C13 C14 1_555 1_555

#END
