
#######################################################################
#
#                 Cambridge Crystallographic Data Centre
#                                CCDC 
#
#######################################################################
#
# If this CIF has been generated from an entry in the Cambridge 
# Structural Database, then it will include bibliographic, chemical, 
# crystal, experimental, refinement or atomic coordinate data resulting 
# from the CCDC's data processing and validation procedures.
#
#######################################################################

data_AWIVIM
_chemical_formula_moiety         'C19 H24 N7 O2 1+,C3 H5 O3 1-'
_chemical_name_systematic        
'4-((2-(4-((cyclopropylcarbamoyl)amino)-1H-pyrazol-3-yl)-1H-benzimidazol-6-yl)methyl)morpholin-4-ium 2-hydroxypropanoate'
_symmetry_cell_setting           orthorhombic
_symmetry_space_group_name_H-M   'P 21 21 21'
_symmetry_Int_Tables_number      19
_space_group_name_Hall           'P 2ac 2ab'
loop_
_symmetry_equiv_pos_site_id
_symmetry_equiv_pos_as_xyz
1 x,y,z
2 1/2-x,-y,1/2+z
3 -x,1/2+y,1/2-z
4 1/2+x,1/2-y,-z
_cell_length_a                   9.941(10)
_cell_length_b                   15.034(10)
_cell_length_c                   16.175(10)
_cell_angle_alpha                90
_cell_angle_beta                 90
_cell_angle_gamma                90
_cell_volume                     2417.4
_cell_formula_units_Z            4
loop_
_atom_site_label
_atom_site_type_symbol
_atom_site_fract_x
_atom_site_fract_y
_atom_site_fract_z
N1 N 0.9111(5) 0.4310(3) 0.5668(2)
H1 H 0.9653 0.3878 0.5824
N2 N 0.8702(5) 0.4971(3) 0.6177(2)
C1 C 0.7902(5) 0.5479(3) 0.5704(3)
C2 C 0.7795(6) 0.5130(3) 0.4891(3)
C3 C 0.8601(5) 0.4380(3) 0.4893(3)
H2 H 0.8766 0.3991 0.4441
C4 C 0.7254(5) 0.6280(3) 0.6003(3)
N3 N 0.7166(4) 0.6504(3) 0.6825(2)
H3 H 0.7473 0.6201 0.7250
C5 C 0.6485(5) 0.7316(3) 0.6840(3)
C6 C 0.6136(5) 0.7875(3) 0.7496(3)
H4 H 0.6337 0.7722 0.8052
C7 C 0.5477(6) 0.8667(3) 0.7300(3)
C8 C 0.5166(6) 0.8863(3) 0.6481(3)
H5 H 0.4708 0.9403 0.6364
C9 C 0.5495(6) 0.8304(3) 0.5826(3)
H6 H 0.5264 0.8449 0.5272
C10 C 0.6186(5) 0.7510(3) 0.6021(3)
N4 N 0.6671(4) 0.6851(3) 0.5497(2)
C11 C 0.5154(6) 0.9337(3) 0.7949(3)
H7 H 0.4767 0.9027 0.8434
H8 H 0.4462 0.9749 0.7733
N5 N 0.6353(5) 0.9869(3) 0.8225(3)
H9 H 0.6962 0.9472 0.8458
C12 C 0.7050(7) 1.0325(4) 0.7543(4)
H10 H 0.6420 1.0734 0.7260
H11 H 0.7370 0.9882 0.7135
C13 C 0.8234(7) 1.0844(4) 0.7881(4)
H12 H 0.8887 1.0426 0.8130
H13 H 0.8689 1.1157 0.7421
O1 O 0.7835(5) 1.1470(3) 0.8481(3)
C14 C 0.7191(8) 1.1040(4) 0.9155(4)
H14 H 0.6921 1.1492 0.9568
H15 H 0.7835 1.0629 0.9423
C15 C 0.5984(6) 1.0533(4) 0.8886(4)
H16 H 0.5299 1.0950 0.8668
H17 H 0.5591 1.0218 0.9366
N6 N 0.7055(5) 0.5524(3) 0.4260(2)
H18 H 0.6642 0.6028 0.4368
C16 C 0.6930(6) 0.5175(4) 0.3483(3)
O2 O 0.7394(4) 0.4431(2) 0.32976(19)
N7 N 0.6245(5) 0.5675(3) 0.2934(2)
H19 H 0.5979 0.5428 0.2468
C17 C 0.5929(6) 0.6602(3) 0.3080(3)
H20 H 0.6709 0.7017 0.3144
C18 C 0.4712(6) 0.6964(4) 0.2675(3)
H21 H 0.4182 0.6557 0.2321
H22 H 0.4743 0.7589 0.2481
C19 C 0.4692(7) 0.6806(4) 0.3585(3)
H23 H 0.4156 0.6298 0.3794
H24 H 0.4718 0.7331 0.3954
C20 C 0.7508(6) 0.8367(4) 0.9477(3)
O3 O 0.6267(5) 0.8403(3) 0.9593(3)
O4 O 0.8130(4) 0.8862(3) 0.8976(2)
C21 C 0.8308(7) 0.7682(4) 0.9940(4)
H25 H 0.7934 0.7082 0.9802
O5 O 0.9655(5) 0.7716(3) 0.9651(4)
H26 H 1.0127 0.7353 0.9918
C22 C 0.8189(9) 0.7814(7) 1.0854(5)
H27 H 0.7804 0.7279 1.1106
H28 H 0.7603 0.8324 1.0966
H29 H 0.9082 0.7925 1.1088
loop_
_geom_bond_atom_site_label_1
_geom_bond_atom_site_label_2
_geom_bond_site_symmetry_1
_geom_bond_site_symmetry_2
N1 H1 1_555 1_555
N2 N1 1_555 1_555
C1 N2 1_555 1_555
C2 C1 1_555 1_555
C3 N1 1_555 1_555
H2 C3 1_555 1_555
C4 C1 1_555 1_555
N3 C4 1_555 1_555
H3 N3 1_555 1_555
C5 N3 1_555 1_555
C6 C5 1_555 1_555
H4 C6 1_555 1_555
C7 C6 1_555 1_555
C8 C7 1_555 1_555
H5 C8 1_555 1_555
C9 C8 1_555 1_555
H6 C9 1_555 1_555
C10 C5 1_555 1_555
N4 C4 1_555 1_555
C11 C7 1_555 1_555
H7 C11 1_555 1_555
H8 C11 1_555 1_555
N5 C11 1_555 1_555
H9 N5 1_555 1_555
C12 N5 1_555 1_555
H10 C12 1_555 1_555
H11 C12 1_555 1_555
C13 C12 1_555 1_555
H12 C13 1_555 1_555
H13 C13 1_555 1_555
O1 C13 1_555 1_555
C14 O1 1_555 1_555
H14 C14 1_555 1_555
H15 C14 1_555 1_555
C15 N5 1_555 1_555
H16 C15 1_555 1_555
H17 C15 1_555 1_555
N6 C2 1_555 1_555
H18 N6 1_555 1_555
C16 N6 1_555 1_555
O2 C16 1_555 1_555
N7 C16 1_555 1_555
H19 N7 1_555 1_555
C17 N7 1_555 1_555
H20 C17 1_555 1_555
C18 C17 1_555 1_555
H21 C18 1_555 1_555
H22 C18 1_555 1_555
C19 C17 1_555 1_555
H23 C19 1_555 1_555
H24 C19 1_555 1_555
C20 O3 1_555 1_555
O4 C20 1_555 1_555
C21 C20 1_555 1_555
H25 C21 1_555 1_555
O5 C21 1_555 1_555
H26 O5 1_555 1_555
C22 C21 1_555 1_555
H27 C22 1_555 1_555
H28 C22 1_555 1_555
H29 C22 1_555 1_555
C2 C3 1_555 1_555
C9 C10 1_555 1_555
C10 N4 1_555 1_555
C14 C15 1_555 1_555
C18 C19 1_555 1_555

#END
