
#######################################################################
#
#                 Cambridge Crystallographic Data Centre
#                                CCDC 
#
#######################################################################
#
# If this CIF has been generated from an entry in the Cambridge 
# Structural Database, then it will include bibliographic, chemical, 
# crystal, experimental, refinement or atomic coordinate data resulting 
# from the CCDC's data processing and validation procedures.
#
#######################################################################

data_AWIWAE
_chemical_formula_moiety         
'0.32(C14 H10 S8 Se4 1+),0.68(C14 H10 S8 Se4),0.32(As1 F6 1-)'
_chemical_name_systematic        
"tris(2-(4',5'-bis(Selenomethyl)-1',3'-diseleno-2'-ylidene)-5-(4'',5''-ethylenedithio-1'',3''-dithiol-2''-ylidene)-1,3,4,6-tetrathiapentalene) hexafluoroarsenate"
_symmetry_cell_setting           monoclinic
_symmetry_space_group_name_H-M   'P 21/n'
_symmetry_Int_Tables_number      14
_space_group_name_Hall           '-P 2yn'
loop_
_symmetry_equiv_pos_site_id
_symmetry_equiv_pos_as_xyz
1 x,y,z
2 1/2+x,1/2-y,1/2+z
3 -x,-y,-z
4 1/2-x,1/2+y,1/2-z
_cell_length_a                   40.49(2)
_cell_length_b                   11.014(3)
_cell_length_c                   5.132(4)
_cell_angle_alpha                90
_cell_angle_beta                 93.45(5)
_cell_angle_gamma                90
_cell_volume                     2284.5
_exptl_crystal_colour            brown
_exptl_crystal_description       needle
_cell_formula_units_Z            4
loop_
_atom_site_label
_atom_site_type_symbol
_atom_site_fract_x
_atom_site_fract_y
_atom_site_fract_z
As1 As 0.5000 1.0000 0.0000
F1 F 0.528(1) 0.959(5) 0.24(1)
F2 F 0.5253(9) 1.108(4) -0.09(1)
F3 F 0.4860(8) 1.078(4) 0.27(1)
F1B F 0.472(1) 1.041(5) -0.24(1)
F2B F 0.4747(9) 0.892(4) 0.09(1)
F3B F 0.5140(8) 0.922(4) -0.27(1)
Se1 Se 0.44951(9) 0.3881(4) -0.4242(9)
Se2 Se 0.42823(9) 0.6696(4) -0.6737(8)
Se3 Se 0.38572(8) 0.4094(3) -0.0698(8)
Se4 Se 0.36478(8) 0.6642(3) -0.3248(7)
S1 S 0.3203(2) 0.4149(8) 0.264(2)
S2 S 0.2985(2) 0.6562(7) 0.052(2)
S3 S 0.2608(2) 0.4128(8) 0.609(2)
S4 S 0.2401(2) 0.6554(8) 0.393(2)
S5 S 0.1989(2) 0.4173(7) 0.978(2)
S6 S 0.1791(2) 0.6578(8) 0.771(2)
S7 S 0.1441(2) 0.3938(7) 1.326(2)
S8 S 0.1184(2) 0.6752(7) 1.060(2)
C1 C 0.464(1) 0.353(5) -0.12(1)
C2 C 0.4600(9) 0.736(4) -0.415(9)
C3 C 0.4116(7) 0.476(3) -0.321(6)
C4 C 0.4037(6) 0.587(3) -0.435(6)
C5 C 0.3545(6) 0.543(2) -0.081(5)
C6 C 0.3288(6) 0.541(2) 0.054(5)
C7 C 0.2844(6) 0.478(2) 0.379(5)
C8 C 0.2759(6) 0.591(3) 0.280(5)
C9 C 0.2322(6) 0.534(2) 0.606(5)
C10 C 0.2077(6) 0.537(2) 0.770(5)
C11 C 0.1634(6) 0.484(2) 1.100(5)
C12 C 0.1542(6) 0.593(3) 0.997(5)
C13 C 0.1080(7) 0.480(3) 1.378(6)
C14 C 0.0944(8) 0.552(3) 1.175(7)
H1 H 0.4473 0.3915 0.0376
H2 H 0.4637 0.2712 -0.0444
H3 H 0.4840 0.3907 -0.0329
H4 H 0.4533 0.7204 -0.2346
H5 H 0.4817 0.7011 -0.4206
H6 H 0.4623 0.8227 -0.4258
H7 H 0.0914 0.4251 1.4361
H8 H 0.1134 0.5350 1.5226
H9 H 0.0732 0.5833 1.2329
H10 H 0.0883 0.4963 1.0339
loop_
_geom_bond_atom_site_label_1
_geom_bond_atom_site_label_2
_geom_bond_site_symmetry_1
_geom_bond_site_symmetry_2
Se1 C1 1_555 1_555
Se2 C2 1_555 1_555
Se3 C3 1_555 1_555
Se4 C4 1_555 1_555
As1 F1 1_555 1_555
S1 C6 1_555 1_555
S2 C6 1_555 1_555
S3 C7 1_555 1_555
S4 C8 1_555 1_555
S5 C10 1_555 1_555
S6 C10 1_555 1_555
S7 C11 1_555 1_555
S8 C12 1_555 1_555
F2 As1 1_555 1_555
F3 As1 1_555 1_555
C1 H1 1_555 1_555
C2 H4 1_555 1_555
C3 Se1 1_555 1_555
C4 Se2 1_555 1_555
C5 Se3 1_555 1_555
C6 C5 1_555 1_555
C7 S1 1_555 1_555
C8 S2 1_555 1_555
C9 S3 1_555 1_555
C10 C9 1_555 1_555
C11 S5 1_555 1_555
C12 S6 1_555 1_555
C13 S7 1_555 1_555
C14 S8 1_555 1_555
H2 C1 1_555 1_555
H3 C1 1_555 1_555
H5 C2 1_555 1_555
H6 C2 1_555 1_555
H7 C13 1_555 1_555
H8 C13 1_555 1_555
H9 C14 1_555 1_555
H10 C14 1_555 1_555
F1B As1 1_555 1_555
F2B As1 1_555 1_555
F3B As1 1_555 1_555
Se4 C5 1_555 1_555
S4 C9 1_555 1_555
C3 C4 1_555 1_555
C7 C8 1_555 1_555
C11 C12 1_555 1_555
C13 C14 1_555 1_555

#END
