
#######################################################################
#
#                 Cambridge Crystallographic Data Centre
#                                CCDC 
#
#######################################################################
#
# If this CIF has been generated from an entry in the Cambridge 
# Structural Database, then it will include bibliographic, chemical, 
# crystal, experimental, refinement or atomic coordinate data resulting 
# from the CCDC's data processing and validation procedures.
#
#######################################################################

data_AWIWEI
_chemical_formula_moiety         
'0.35(C14 H10 S4 Se8 1+),0.65(C14 H10 S4 Se8),0.35(As1 F6 1-)'
_chemical_name_systematic        
"tris(2-(4',5'-bis(Selenomethyl)-1',3'-diseleno-2'-ylidene)-5-(4'',5''-ethylenediseleno-1'',3''-diseleno-2''-ylidene)-1,3,4,6-tetrathiapentalene) hexafluoroarsenate"
_symmetry_cell_setting           monoclinic
_symmetry_space_group_name_H-M   'P 21/n'
_symmetry_Int_Tables_number      14
_space_group_name_Hall           '-P 2yn'
loop_
_symmetry_equiv_pos_site_id
_symmetry_equiv_pos_as_xyz
1 x,y,z
2 1/2+x,1/2-y,1/2+z
3 -x,-y,-z
4 1/2-x,1/2+y,1/2-z
_cell_length_a                   41.02(2)
_cell_length_b                   11.268(5)
_cell_length_c                   5.176(5)
_cell_angle_alpha                90
_cell_angle_beta                 93.93(6)
_cell_angle_gamma                90
_cell_volume                     2386.79
_exptl_crystal_colour            'dark brown'
_exptl_crystal_description       needle
_cell_formula_units_Z            4
loop_
_atom_site_label
_atom_site_type_symbol
_atom_site_fract_x
_atom_site_fract_y
_atom_site_fract_z
As1 As 0.5000 1.0000 0.0000
F1 F 0.521(1) 1.107(4) -0.110(8)
F2 F 0.466(1) 1.036(5) -0.17(1)
F3 F 0.491(2) 1.080(6) 0.27(1)
F1B F 0.479(1) 0.893(4) 0.110(8)
F2B F 0.534(1) 0.964(5) 0.17(1)
F3B F 0.509(2) 0.920(6) -0.27(1)
Se1 Se 0.4492(1) 0.3930(6) -0.406(1)
Se2 Se 0.4282(1) 0.6641(6) -0.665(1)
Se3 Se 0.3850(1) 0.4112(5) -0.072(1)
Se4 Se 0.3646(1) 0.6597(5) -0.3298(9)
Se5 Se 0.2008(1) 0.4113(4) 0.9813(8)
Se6 Se 0.1797(1) 0.6652(5) 0.7572(9)
Se7 Se 0.1418(1) 0.3901(4) 1.338(1)
Se8 Se 0.1156(1) 0.6795(5) 1.066(1)
S1 S 0.3205(3) 0.418(1) 0.255(2)
S2 S 0.2993(3) 0.654(1) 0.046(2)
S3 S 0.2629(3) 0.417(1) 0.597(2)
S4 S 0.2422(3) 0.654(1) 0.394(2)
C1 C 0.465(2) 0.333(7) -0.10(1)
C2 C 0.460(2) 0.728(7) -0.43(1)
C3 C 0.413(1) 0.478(4) -0.320(9)
C4 C 0.404(1) 0.583(5) -0.423(9)
C5 C 0.3557(8) 0.539(3) -0.093(7)
C6 C 0.3263(7) 0.534(3) 0.052(6)
C7 C 0.285(1) 0.482(4) 0.363(8)
C8 C 0.2761(8) 0.584(4) 0.276(7)
C9 C 0.2356(9) 0.533(3) 0.601(7)
C10 C 0.2107(9) 0.539(4) 0.757(7)
C11 C 0.1648(8) 0.480(3) 1.088(7)
C12 C 0.1546(7) 0.588(3) 0.993(6)
C13 C 0.105(1) 0.474(6) 1.37(1)
C14 C 0.090(1) 0.546(5) 1.14(1)
H1 H 0.4543 0.3790 0.0351
H2 H 0.4683 0.2658 -0.0868
H3 H 0.4886 0.3821 -0.0732
H4 H 0.4554 0.7157 -0.2433
H5 H 0.4820 0.6921 -0.4359
H6 H 0.4636 0.8125 -0.4418
H7 H 0.0878 0.4239 1.4321
H8 H 0.1088 0.5344 1.5098
H9 H 0.0678 0.5687 1.1624
H10 H 0.0889 0.4916 0.9895
loop_
_geom_bond_atom_site_label_1
_geom_bond_atom_site_label_2
_geom_bond_site_symmetry_1
_geom_bond_site_symmetry_2
Se1 C1 1_555 1_555
Se2 C2 1_555 1_555
Se3 C3 1_555 1_555
Se4 C4 1_555 1_555
Se5 C10 1_555 1_555
Se6 C10 1_555 1_555
Se7 C11 1_555 1_555
Se8 C12 1_555 1_555
As1 F1 1_555 1_555
S1 C6 1_555 1_555
S2 C6 1_555 1_555
S3 C7 1_555 1_555
S4 C8 1_555 1_555
F2 As1 1_555 1_555
F3 As1 1_555 1_555
C1 H1 1_555 1_555
C2 H4 1_555 1_555
C3 Se1 1_555 1_555
C4 Se2 1_555 1_555
C5 Se3 1_555 1_555
C6 C5 1_555 1_555
C7 S1 1_555 1_555
C8 S2 1_555 1_555
C9 S3 1_555 1_555
C10 C9 1_555 1_555
C11 Se5 1_555 1_555
C12 Se6 1_555 1_555
C13 Se7 1_555 1_555
C14 Se8 1_555 1_555
H2 C1 1_555 1_555
H3 C1 1_555 1_555
H5 C2 1_555 1_555
H6 C2 1_555 1_555
H7 C13 1_555 1_555
H8 C13 1_555 1_555
H9 C14 1_555 1_555
H10 C14 1_555 1_555
F1B As1 1_555 1_555
F2B As1 1_555 1_555
F3B As1 1_555 1_555
Se4 C5 1_555 1_555
S4 C9 1_555 1_555
C3 C4 1_555 1_555
C7 C8 1_555 1_555
C11 C12 1_555 1_555
C13 C14 1_555 1_555

#END
