
#######################################################################
#
#                 Cambridge Crystallographic Data Centre
#                                CCDC 
#
#######################################################################
#
# If this CIF has been generated from an entry in the Cambridge 
# Structural Database, then it will include bibliographic, chemical, 
# crystal, experimental, refinement or atomic coordinate data resulting 
# from the CCDC's data processing and validation procedures.
#
#######################################################################

data_AWIZIR
_chemical_formula_moiety         'C26 H18 N2 O4'
_chemical_name_systematic        
1-nitro-4-(1-(4-nitrophenyl)-2,2-diphenylvinyl)benzene
_symmetry_cell_setting           monoclinic
_symmetry_space_group_name_H-M   'P 21/c'
_symmetry_Int_Tables_number      14
_space_group_name_Hall           '-P 2ybc'
loop_
_symmetry_equiv_pos_site_id
_symmetry_equiv_pos_as_xyz
1 x,y,z
2 -x,1/2+y,1/2-z
3 -x,-y,-z
4 x,1/2-y,1/2+z
_cell_length_a                   10.52308(18)
_cell_length_b                   8.79827(18)
_cell_length_c                   22.9441(4)
_cell_angle_alpha                90
_cell_angle_beta                 95.4899(16)
_cell_angle_gamma                90
_cell_volume                     2114.53
_exptl_crystal_colour            yellow
_exptl_crystal_description       block
_cell_formula_units_Z            4
loop_
_atom_site_label
_atom_site_type_symbol
_atom_site_fract_x
_atom_site_fract_y
_atom_site_fract_z
C1 C 0.14423(13) 0.54011(17) 0.37941(6)
H1 H 0.1885 0.6145 0.3608
C2 C 0.34099(11) 0.39646(15) 0.30801(5)
C3 C 0.19726(12) 0.39554(15) 0.38726(5)
C4 C 0.23144(11) 0.42787(15) 0.26332(5)
C5 C 0.32215(12) 0.36103(15) 0.36425(5)
C6 C 0.01475(13) 0.32066(18) 0.43714(6)
H2 H -0.0288 0.2482 0.4570
C7 C 0.46870(12) 0.40586(16) 0.28541(6)
C8 C 0.43230(12) 0.32446(17) 0.46523(6)
H3 H 0.3764 0.3945 0.4793
C9 C 0.12719(12) 0.32945(16) 0.25747(6)
H4 H 0.1240 0.2476 0.2829
C10 C 0.48520(14) 0.35412(17) 0.22912(7)
H5 H 0.4178 0.3065 0.2071
C11 C 0.13229(13) 0.28748(16) 0.41761(6)
H6 H 0.1683 0.1920 0.4248
C12 C 0.52570(13) 0.25802(18) 0.50373(6)
H7 H 0.5330 0.2829 0.5433
C13 C -0.03606(12) 0.46341(18) 0.42643(6)
C14 C 0.60745(13) 0.15436(16) 0.48217(6)
C15 C 0.42076(12) 0.28796(15) 0.40579(5)
C16 C 0.59601(14) 0.11041(17) 0.42412(6)
H8 H 0.6504 0.0377 0.4108
O1 O 0.71506(12) 0.11622(18) 0.57392(5)
C17 C 0.50203(13) 0.17670(16) 0.38638(6)
H9 H 0.4925 0.1469 0.3473
C18 C 0.02752(14) 0.57531(18) 0.39859(6)
H10 H -0.0074 0.6719 0.3929
O2 O -0.21178(12) 0.40763(17) 0.47565(7)
N1 N 0.71326(12) 0.09209(16) 0.52137(6)
N2 N -0.16197(12) 0.49996(19) 0.44566(6)
C19 C 0.23402(13) 0.54895(17) 0.22429(6)
H11 H 0.3034 0.6149 0.2271
C20 C 0.02864(13) 0.35258(19) 0.21416(7)
H12 H -0.0405 0.2862 0.2108
O3 O 0.79703(14) 0.02105(18) 0.49959(6)
C21 C 0.60040(17) 0.3728(2) 0.20572(8)
H13 H 0.6104 0.3368 0.1683
O4 O -0.21064(12) 0.6222(2) 0.43117(6)
C22 C 0.57151(13) 0.47631(18) 0.31768(7)
H14 H 0.5630 0.5105 0.3555
C23 C 0.13411(15) 0.5720(2) 0.18127(7)
H15 H 0.1360 0.6544 0.1560
C24 C 0.03181(14) 0.4733(2) 0.17589(7)
H16 H -0.0346 0.4879 0.1467
C25 C 0.70029(16) 0.4446(2) 0.23762(10)
H17 H 0.7773 0.4589 0.2215
C26 C 0.68602(15) 0.4954(2) 0.29355(10)
H18 H 0.7540 0.5428 0.3152
loop_
_geom_bond_atom_site_label_1
_geom_bond_atom_site_label_2
_geom_bond_site_symmetry_1
_geom_bond_site_symmetry_2
C1 H1 1_555 1_555
C2 C4 1_555 1_555
C3 C1 1_555 1_555
C4 C9 1_555 1_555
C5 C2 1_555 1_555
C6 H2 1_555 1_555
C7 C2 1_555 1_555
C8 H3 1_555 1_555
C9 H4 1_555 1_555
C10 C7 1_555 1_555
H5 C10 1_555 1_555
C11 C3 1_555 1_555
H6 C11 1_555 1_555
C12 C8 1_555 1_555
H7 C12 1_555 1_555
C13 C6 1_555 1_555
C14 C12 1_555 1_555
C15 C5 1_555 1_555
C16 C14 1_555 1_555
H8 C16 1_555 1_555
O1 N1 1_555 1_555
C17 C15 1_555 1_555
H9 C17 1_555 1_555
C18 C1 1_555 1_555
H10 C18 1_555 1_555
O2 N2 1_555 1_555
N1 C14 1_555 1_555
N2 C13 1_555 1_555
C19 C4 1_555 1_555
H11 C19 1_555 1_555
C20 C9 1_555 1_555
H12 C20 1_555 1_555
O3 N1 1_555 1_555
C21 C10 1_555 1_555
H13 C21 1_555 1_555
O4 N2 1_555 1_555
C22 C7 1_555 1_555
H14 C22 1_555 1_555
C23 C19 1_555 1_555
H15 C23 1_555 1_555
C24 C20 1_555 1_555
H16 C24 1_555 1_555
C25 C21 1_555 1_555
H17 C25 1_555 1_555
C26 C22 1_555 1_555
H18 C26 1_555 1_555
C3 C5 1_555 1_555
C6 C11 1_555 1_555
C8 C15 1_555 1_555
C13 C18 1_555 1_555
C16 C17 1_555 1_555
C23 C24 1_555 1_555
C25 C26 1_555 1_555

#END
