
#######################################################################
#
#                 Cambridge Crystallographic Data Centre
#                                CCDC 
#
#######################################################################
#
# If this CIF has been generated from an entry in the Cambridge 
# Structural Database, then it will include bibliographic, chemical, 
# crystal, experimental, refinement or atomic coordinate data resulting 
# from the CCDC's data processing and validation procedures.
#
#######################################################################

data_AWOBAR
_chemical_name_common            HOFTPE4N
_chemical_formula_moiety         'C26 H16 N4 O8'
_chemical_name_systematic        1-nitro-4-(tris(4-nitrophenyl)vinyl)benzene
_symmetry_cell_setting           tetragonal
_symmetry_space_group_name_H-M   'P 42/n'
_symmetry_Int_Tables_number      86
_space_group_name_Hall           '-P 4bc'
loop_
_symmetry_equiv_pos_site_id
_symmetry_equiv_pos_as_xyz
1 x,y,z
2 -y,1/2+x,1/2+z
3 1/2-x,1/2-y,z
4 1/2+y,-x,1/2+z
5 -x,-y,-z
6 y,1/2-x,1/2-z
7 1/2+x,1/2+y,-z
8 1/2-y,x,1/2-z
_cell_length_a                   19.9155(2)
_cell_length_b                   19.9155(2)
_cell_length_c                   13.4286(2)
_cell_angle_alpha                90
_cell_angle_beta                 90
_cell_angle_gamma                90
_cell_volume                     5326.15
_exptl_crystal_colour            yellow
_exptl_crystal_description       block
_cell_formula_units_Z            8
loop_
_atom_site_label
_atom_site_type_symbol
_atom_site_fract_x
_atom_site_fract_y
_atom_site_fract_z
C1 C 1.00113(10) 0.44919(9) 0.12090(13)
C2 C 0.89471(10) 0.13021(10) -0.08196(14)
H1 H 0.8841 0.1693 -0.1194
C3 C 0.88210(10) 0.06774(10) -0.12158(13)
H2 H 0.8634 0.0634 -0.1864
C4 C 0.93821(10) 0.42151(10) 0.12922(13)
H3 H 0.9026 0.4458 0.1595
C5 C 0.92300(9) 0.13687(9) 0.01281(13)
C6 C 0.93952(10) 0.20371(9) 0.05612(12)
C7 C 0.89695(10) 0.01171(10) -0.06596(14)
C8 C 1.04239(10) 0.35323(10) 0.03737(15)
H4 H 1.0779 0.3303 0.0044
C9 C 0.98019(10) 0.32216(9) 0.04729(12)
N1 N 0.88606(10) -0.05402(10) -0.11086(14)
C10 C 0.93415(10) 0.07935(10) 0.06847(13)
H5 H 0.9503 0.0834 0.1348
C11 C 0.92807(10) 0.35719(10) 0.09231(13)
H6 H 0.8851 0.3369 0.0979
N2 N 1.01355(9) 0.51524(9) 0.16510(13)
O1 O 1.06498(9) 0.54475(9) 0.14326(16)
C12 C 0.92141(11) 0.21000(9) 0.16380(13)
C13 C 0.99530(10) 0.24556(9) -0.09899(13)
C14 C 0.97716(12) 0.29238(10) -0.17072(14)
H7 H 0.9493 0.3291 -0.1526
O2 O 0.97277(10) 0.53752(10) 0.22416(15)
C15 C 1.03747(12) 0.19301(10) -0.12574(15)
H8 H 1.0516 0.1616 -0.0768
C16 C 0.96993(10) 0.25379(9) 0.00488(13)
C17 C 0.92222(10) 0.01628(10) 0.02947(15)
H9 H 0.9312 -0.0230 0.0674
C18 C 0.85508(12) 0.20187(12) 0.19290(16)
H10 H 0.8214 0.1940 0.1443
C19 C 1.05328(10) 0.41675(11) 0.07467(15)
H11 H 1.0960 0.4376 0.0685
C20 C 1.05911(13) 0.18619(11) -0.22336(16)
H12 H 1.0873 0.1499 -0.2423
O3 O 0.90441(11) -0.10362(9) -0.06548(16)
C21 C 0.99894(14) 0.28642(12) -0.26797(15)
H13 H 0.9865 0.3186 -0.3169
C22 C 0.97080(13) 0.21956(11) 0.23557(14)
H14 H 1.0163 0.2246 0.2159
O4 O 1.05813(14) 0.27467(13) -0.45059(14)
C23 C 0.88812(16) 0.21471(11) 0.36176(15)
C24 C 0.95388(16) 0.22177(11) 0.33577(15)
H15 H 0.9874 0.2281 0.3852
C25 C 1.03900(13) 0.23296(11) -0.29201(14)
N3 N 0.8690(2) 0.21879(12) 0.46808(18)
O5 O 0.81069(17) 0.21207(17) 0.48882(18)
C26 C 0.83791(14) 0.20526(12) 0.29262(18)
H16 H 0.7924 0.2012 0.3130
O6 O 1.08264(17) 0.17209(12) -0.42234(16)
N4 N 1.06141(14) 0.22594(13) -0.39611(15)
O7 O 0.9131(2) 0.22611(14) 0.52939(15)
O8 O 0.85954(13) -0.05650(10) -0.19314(14)
loop_
_geom_bond_atom_site_label_1
_geom_bond_atom_site_label_2
_geom_bond_site_symmetry_1
_geom_bond_site_symmetry_2
C1 C4 1_555 1_555
C2 H1 1_555 1_555
C3 C2 1_555 1_555
H2 C3 1_555 1_555
C4 H3 1_555 1_555
C5 C2 1_555 1_555
C6 C5 1_555 1_555
C7 C3 1_555 1_555
C8 H4 1_555 1_555
C9 C8 1_555 1_555
N1 C7 1_555 1_555
C10 C5 1_555 1_555
H5 C10 1_555 1_555
C11 C4 1_555 1_555
H6 C11 1_555 1_555
N2 C1 1_555 1_555
O1 N2 1_555 1_555
C12 C6 1_555 1_555
C13 C14 1_555 1_555
C14 H7 1_555 1_555
O2 N2 1_555 1_555
C15 C13 1_555 1_555
H8 C15 1_555 1_555
C16 C6 1_555 1_555
C17 C7 1_555 1_555
H9 C17 1_555 1_555
C18 C12 1_555 1_555
H10 C18 1_555 1_555
C19 C1 1_555 1_555
H11 C19 1_555 1_555
C20 C15 1_555 1_555
H12 C20 1_555 1_555
O3 N1 1_555 1_555
C21 C14 1_555 1_555
H13 C21 1_555 1_555
C22 C12 1_555 1_555
H14 C22 1_555 1_555
O4 N4 1_555 1_555
C23 C24 1_555 1_555
C24 C22 1_555 1_555
H15 C24 1_555 1_555
C25 C20 1_555 1_555
N3 C23 1_555 1_555
O5 N3 1_555 1_555
C26 C18 1_555 1_555
H16 C26 1_555 1_555
O6 N4 1_555 1_555
N4 C25 1_555 1_555
O7 N3 1_555 1_555
O8 N1 1_555 1_555
C8 C19 1_555 1_555
C9 C11 1_555 1_555
C9 C16 1_555 1_555
C10 C17 1_555 1_555
C13 C16 1_555 1_555
C21 C25 1_555 1_555
C23 C26 1_555 1_555

#END
