
#######################################################################
#
#                 Cambridge Crystallographic Data Centre
#                                CCDC 
#
#######################################################################
#
# If this CIF has been generated from an entry in the Cambridge 
# Structural Database, then it will include bibliographic, chemical, 
# crystal, experimental, refinement or atomic coordinate data resulting 
# from the CCDC's data processing and validation procedures.
#
#######################################################################

data_AWOGUQ
_chemical_formula_moiety         'C14 H18 F2 N1 O3 P1 S1'
_chemical_name_systematic        
'diethyl (difluoro((3-methyl-1H-indol-2-yl)sulfanyl)methyl)phosphonate'
_symmetry_cell_setting           monoclinic
_symmetry_space_group_name_H-M   'P 21/c'
_symmetry_Int_Tables_number      14
_space_group_name_Hall           '-P 2ybc'
loop_
_symmetry_equiv_pos_site_id
_symmetry_equiv_pos_as_xyz
1 x,y,z
2 -x,1/2+y,1/2-z
3 -x,-y,-z
4 x,1/2-y,1/2+z
_cell_length_a                   7.6115(12)
_cell_length_b                   11.8767(18)
_cell_length_c                   19.244(3)
_cell_angle_alpha                90
_cell_angle_beta                 95.981(3)
_cell_angle_gamma                90
_cell_volume                     1730.18
_exptl_crystal_colour            colorless
_exptl_crystal_description       prism
_cell_formula_units_Z            4
loop_
_atom_site_label
_atom_site_type_symbol
_atom_site_fract_x
_atom_site_fract_y
_atom_site_fract_z
C1 C 0.3763(4) 0.4285(3) 0.09168(16)
C2 C 0.2960(4) 0.4526(3) 0.02730(16)
C3 C 0.2887(4) 0.3493(3) -0.01031(16)
C4 C 0.2221(5) 0.3198(4) -0.07839(19)
H1 H 0.1694 0.3734 -0.109
C5 C 0.2361(6) 0.2107(5) -0.0987(3)
H2 H 0.1908 0.19 -0.1436
C6 C 0.3154(7) 0.1304(4) -0.0547(3)
H3 H 0.3241 0.057 -0.0708
C7 C 0.3816(5) 0.1557(3) 0.0119(3)
H4 H 0.4343 0.1008 0.0416
C8 C 0.3675(4) 0.2667(3) 0.03397(17)
C9 C 0.2298(5) 0.5650(3) 0.0002(2)
H5 H 0.1077 0.5732 0.0076
H6 H 0.2419 0.57 -0.0489
H7 H 0.2975 0.6238 0.0245
C10 C 0.2527(5) 0.5143(3) 0.20955(16)
C11 C 0.2992(11) 0.8172(6) 0.1824(5)
H8 H 0.3851 0.8402 0.2206
H9 H 0.3636 0.7772 0.1492
C12 C 0.2414(12) 0.9009(8) 0.1542(7)
H10 H 0.1734 0.8816 0.111
H11 H 0.3371 0.9494 0.1449
H12 H 0.1671 0.9391 0.1841
C13 C 0.0031(11) 0.6950(6) 0.3487(4)
H13 H 0.0377 0.7709 0.3374
H14 H -0.1246 0.6902 0.341
C14 C 0.0605(10) 0.6711(7) 0.4201(4)
H15 H 0.0373 0.5935 0.4298
H16 H -0.002 0.7183 0.4497
H17 H 0.185 0.6853 0.429
F1 F 0.0999(3) 0.5024(2) 0.16760(11)
F2 F 0.2623(4) 0.42249(18) 0.25080(12)
N1 N 0.4204(4) 0.3158(2) 0.09667(14)
H18 H 0.472 0.2825 0.1329
O1 O 0.4126(5) 0.6622(3) 0.30306(16)
O2 O 0.0831(5) 0.6133(3) 0.30272(18)
O3 O 0.1795(4) 0.7351(2) 0.21107(18)
P1 P 0.24403(15) 0.64213(8) 0.26278(5)
S1 S 0.44022(13) 0.52234(9) 0.15933(5)
loop_
_geom_bond_atom_site_label_1
_geom_bond_atom_site_label_2
_geom_bond_site_symmetry_1
_geom_bond_site_symmetry_2
C1 C2 1_555 1_555
C2 C3 1_555 1_555
C3 C4 1_555 1_555
C4 H1 1_555 1_555
C5 C4 1_555 1_555
H2 C5 1_555 1_555
C6 C5 1_555 1_555
H3 C6 1_555 1_555
C7 C6 1_555 1_555
H4 C7 1_555 1_555
C8 C3 1_555 1_555
C9 C2 1_555 1_555
H5 C9 1_555 1_555
H6 C9 1_555 1_555
H7 C9 1_555 1_555
C10 F1 1_555 1_555
C11 H8 1_555 1_555
H9 C11 1_555 1_555
C12 C11 1_555 1_555
H10 C12 1_555 1_555
H11 C12 1_555 1_555
H12 C12 1_555 1_555
C13 H13 1_555 1_555
H14 C13 1_555 1_555
C14 C13 1_555 1_555
H15 C14 1_555 1_555
H16 C14 1_555 1_555
H17 C14 1_555 1_555
F2 C10 1_555 1_555
N1 C1 1_555 1_555
H18 N1 1_555 1_555
O1 P1 1_555 1_555
O2 C13 1_555 1_555
O3 C11 1_555 1_555
P1 C10 1_555 1_555
S1 C1 1_555 1_555
C7 C8 1_555 1_555
C8 N1 1_555 1_555
C10 S1 1_555 1_555
O2 P1 1_555 1_555
O3 P1 1_555 1_555

#END
