
#######################################################################
#
#                 Cambridge Crystallographic Data Centre
#                                CCDC 
#
#######################################################################
#
# If this CIF has been generated from an entry in the Cambridge 
# Structural Database, then it will include bibliographic, chemical, 
# crystal, experimental, refinement or atomic coordinate data resulting 
# from the CCDC's data processing and validation procedures.
#
#######################################################################

data_AWOGEA
_chemical_formula_moiety         'C20 H15 B1 F2 O4'
_chemical_name_systematic        
Difluoro(1-(2-furyl)-3-(4'-methoxybiphenyl-4-yl)-3-oxoprop-1-en-1-olate)boron
_symmetry_cell_setting           triclinic
_symmetry_space_group_name_H-M   'P -1'
_symmetry_Int_Tables_number      2
_space_group_name_Hall           '-P 1'
loop_
_symmetry_equiv_pos_site_id
_symmetry_equiv_pos_as_xyz
1 x,y,z
2 -x,-y,-z
_cell_length_a                   8.808
_cell_length_b                   13.609
_cell_length_c                   14.247
_cell_angle_alpha                76.62
_cell_angle_beta                 87.56
_cell_angle_gamma                88.26
_cell_volume                     1659.53
_exptl_crystal_colour            yellow
_exptl_crystal_description       block
_cell_formula_units_Z            4
_chemical_properties_physical    Heat-sensitive
_exptl_crystal_recrystallization_method 'solvent diffusion'
_exptl_crystal_preparation       Luminescent
loop_
_atom_site_label
_atom_site_type_symbol
_atom_site_fract_x
_atom_site_fract_y
_atom_site_fract_z
F1 F 0.42107(13) 0.76735(8) 0.32333(7)
F2 F 0.43429(12) 0.60313(8) 0.40505(7)
O1 O -0.16523(13) 0.59442(8) 0.46342(8)
O2 O 0.31139(13) 0.64457(9) 0.25911(7)
O3 O 0.20400(13) 0.69406(9) 0.40301(8)
O4 O 0.19438(15) 0.21963(9) -0.26859(8)
C1 C 0.18679(18) 0.53888(11) 0.17889(10)
C2 C 0.18398(18) 0.37921(11) -0.05004(10)
C3 C 0.18350(18) 0.43688(11) 0.02691(10)
C4 C 0.08630(18) 0.63950(11) 0.39859(10)
C5 C 0.08770(18) 0.46030(12) 0.18296(11)
H1 H 0.0213 0.4411 0.2362
C6 C 0.2799(2) 0.51794(12) 0.02220(10)
H2 H 0.3432 0.5390 -0.0323
C7 C 0.07902(18) 0.58084(11) 0.33116(10)
H3 H -0.0008 0.5370 0.3338
C8 C 0.08677(19) 0.41025(12) 0.10868(10)
H4 H 0.0200 0.3575 0.1133
C9 C 0.2815(2) 0.34938(12) -0.20390(11)
H5 H 0.3467 0.3672 -0.2579
C10 C 0.19348(18) 0.58883(11) 0.25941(10)
C11 C 0.18578(19) 0.26822(12) -0.19459(10)
C12 C 0.28005(19) 0.40382(12) -0.13278(11)
H6 H 0.3445 0.4582 -0.1401
C13 C 0.2836(2) 0.56764(12) 0.09678(11)
H7 H 0.3504 0.6203 0.0924
C14 C 0.0892(2) 0.24216(13) -0.11398(12)
H8 H 0.0243 0.1881 -0.1072
C15 C 0.0899(2) 0.29748(13) -0.04287(12)
H9 H 0.0250 0.2790 0.0112
C16 C -0.05577(19) 0.70416(12) 0.53416(11)
H10 H 0.0143 0.7470 0.5499
C17 C -0.03687(18) 0.64816(12) 0.46591(10)
C18 C -0.2033(2) 0.68364(12) 0.57594(11)
H11 H -0.2493 0.7103 0.6248
C19 C -0.2645(2) 0.61771(13) 0.53097(11)
H12 H -0.3615 0.5918 0.5445
C20 C 0.0942(3) 0.13792(14) -0.26356(13)
H13 H 0.1117 0.1105 -0.3195
H14 H -0.0091 0.1620 -0.2613
H15 H 0.1129 0.0863 -0.2065
B1 B 0.3480(2) 0.67832(14) 0.34799(12)
O5 O 0.71152(13) 0.88050(8) 0.66977(8)
O6 O 0.80442(13) 0.94115(9) 0.80519(8)
F3 F 0.92876(12) 0.97700(9) 0.65402(8)
F4 F 0.93244(13) 0.81580(9) 0.74486(9)
O7 O 0.33009(13) 0.96291(9) 0.62306(8)
O8 O 0.56030(13) 1.39101(9) 1.31243(8)
C21 C 0.63368(18) 1.15584(11) 1.03295(10)
C22 C 0.61784(18) 1.21525(11) 1.10833(10)
C23 C 0.56476(19) 0.99273(11) 0.74243(11)
H16 H 0.4775 1.0330 0.7421
C24 C 0.66005(18) 1.04767(11) 0.88573(10)
C25 C 0.47968(18) 1.26297(12) 1.12517(10)
H17 H 0.3961 1.2556 1.0898
C26 C 0.46455(19) 1.32084(12) 1.19336(10)
H18 H 0.3719 1.3523 1.2029
C27 C 0.46793(19) 0.86474(11) 0.54341(11)
H19 H 0.5478 0.8269 0.5238
C28 C 0.72633(18) 1.28425(12) 1.23369(10)
H20 H 0.8090 1.2908 1.2702
C29 C 0.46831(18) 0.91665(11) 0.61494(10)
C30 C 0.58822(18) 1.33187(11) 1.24762(10)
C31 C 0.58541(18) 0.93084(11) 0.67727(10)
C32 C 0.52634(19) 1.16864(12) 0.96077(11)
H21 H 0.4451 1.2138 0.9613
C33 C 0.75374(19) 1.08712(12) 1.02986(11)
H22 H 0.8255 1.0766 1.0774
C34 C 0.73977(18) 1.22659(12) 1.16445(10)
H23 H 0.8324 1.1948 1.1553
C35 C 0.67721(18) 0.99299(11) 0.80789(10)
C36 C 0.6836(2) 1.40534(13) 1.36947(11)
H24 H 0.6504 1.4479 1.4118
H25 H 0.7657 1.4367 1.3279
H26 H 0.7176 1.3411 1.4070
C37 C 0.76848(19) 1.03413(12) 0.95758(11)
H27 H 0.8503 0.9895 0.9566
C38 C 0.3207(2) 0.88039(12) 0.50518(11)
H28 H 0.2852 0.8548 0.4553
C39 C 0.53921(19) 1.11527(12) 0.88879(11)
H29 H 0.4663 1.1248 0.8420
C40 C 0.2425(2) 0.93931(14) 0.55505(12)
H30 H 0.1422 0.9610 0.5446
B2 B 0.8487(2) 0.90288(14) 0.71794(14)
loop_
_geom_bond_atom_site_label_1
_geom_bond_atom_site_label_2
_geom_bond_site_symmetry_1
_geom_bond_site_symmetry_2
F1 B1 1_555 1_555
F2 B1 1_555 1_555
O1 C17 1_555 1_555
O2 C10 1_555 1_555
O3 C4 1_555 1_555
O4 C11 1_555 1_555
C1 C5 1_555 1_555
C2 C3 1_555 1_555
C3 C6 1_555 1_555
C4 C7 1_555 1_555
C5 H1 1_555 1_555
C6 H2 1_555 1_555
C7 H3 1_555 1_555
C8 C3 1_555 1_555
H4 C8 1_555 1_555
C9 H5 1_555 1_555
C10 C1 1_555 1_555
C11 C9 1_555 1_555
C12 C2 1_555 1_555
H6 C12 1_555 1_555
C13 C1 1_555 1_555
H7 C13 1_555 1_555
C14 C11 1_555 1_555
H8 C14 1_555 1_555
C15 C2 1_555 1_555
H9 C15 1_555 1_555
C16 H10 1_555 1_555
C17 C4 1_555 1_555
C18 C16 1_555 1_555
H11 C18 1_555 1_555
C19 O1 1_555 1_555
H12 C19 1_555 1_555
C20 O4 1_555 1_555
H13 C20 1_555 1_555
H14 C20 1_555 1_555
H15 C20 1_555 1_555
B1 O2 1_555 1_555
O5 C31 1_555 1_555
O6 C35 1_555 1_555
F3 B2 1_555 1_555
F4 B2 1_555 1_555
O7 C29 1_555 1_555
O8 C30 1_555 1_555
C21 C22 1_555 1_555
C22 C25 1_555 1_555
C23 H16 1_555 1_555
C24 C35 1_555 1_555
C25 H17 1_555 1_555
C26 C25 1_555 1_555
H18 C26 1_555 1_555
C27 H19 1_555 1_555
C28 H20 1_555 1_555
C29 C27 1_555 1_555
C30 C26 1_555 1_555
C31 C23 1_555 1_555
C32 C21 1_555 1_555
H21 C32 1_555 1_555
C33 C21 1_555 1_555
H22 C33 1_555 1_555
C34 C22 1_555 1_555
H23 C34 1_555 1_555
C35 C23 1_555 1_555
C36 O8 1_555 1_555
H24 C36 1_555 1_555
H25 C36 1_555 1_555
H26 C36 1_555 1_555
C37 C24 1_555 1_555
H27 C37 1_555 1_555
C38 C27 1_555 1_555
H28 C38 1_555 1_555
C39 C24 1_555 1_555
H29 C39 1_555 1_555
C40 O7 1_555 1_555
H30 C40 1_555 1_555
B2 O5 1_555 1_555
O3 B1 1_555 1_555
C5 C8 1_555 1_555
C6 C13 1_555 1_555
C7 C10 1_555 1_555
C9 C12 1_555 1_555
C14 C15 1_555 1_555
C16 C17 1_555 1_555
C18 C19 1_555 1_555
O6 B2 1_555 1_555
C28 C30 1_555 1_555
C28 C34 1_555 1_555
C29 C31 1_555 1_555
C32 C39 1_555 1_555
C33 C37 1_555 1_555
C38 C40 1_555 1_555

#END
