
#######################################################################
#
#                 Cambridge Crystallographic Data Centre
#                                CCDC 
#
#######################################################################
#
# If this CIF has been generated from an entry in the Cambridge 
# Structural Database, then it will include bibliographic, chemical, 
# crystal, experimental, refinement or atomic coordinate data resulting 
# from the CCDC's data processing and validation procedures.
#
#######################################################################

data_AWOMOO
_chemical_formula_moiety         'C20 H18 O7'
_chemical_name_systematic        
1,6-Anhydro-2,4-di-O-benzoyl-\b-D-mannopyranose
_symmetry_cell_setting           orthorhombic
_symmetry_space_group_name_H-M   'P 21 21 21'
_symmetry_Int_Tables_number      19
_space_group_name_Hall           'P 2ac 2ab'
loop_
_symmetry_equiv_pos_site_id
_symmetry_equiv_pos_as_xyz
1 x,y,z
2 1/2-x,-y,1/2+z
3 1/2+x,1/2-y,-z
4 -x,1/2+y,1/2-z
_cell_length_a                   7.2210(7)
_cell_length_b                   7.5784(7)
_cell_length_c                   32.003(3)
_cell_angle_alpha                90
_cell_angle_beta                 90
_cell_angle_gamma                90
_cell_volume                     1751.32
_exptl_crystal_colour            colorless
_cell_formula_units_Z            4
loop_
_atom_site_label
_atom_site_type_symbol
_atom_site_fract_x
_atom_site_fract_y
_atom_site_fract_z
C1 C 0.4088(6) 0.6534(6) 1.04767(13)
H1 H 0.2918 0.6363 1.0327
C2 C 0.5412(6) 0.5025(5) 1.03842(12)
H2 H 0.4821 0.3917 1.0468
C3 C 0.7259(6) 0.5197(6) 1.06186(13)
H3 H 0.7818 0.4025 1.0649
C4 C 0.7005(7) 0.6021(6) 1.10525(13)
H4 H 0.8161 0.6603 1.1134
C5 C 0.5453(7) 0.7353(6) 1.10673(15)
H5 H 0.5285 0.7810 1.1351
C6 C 0.5700(8) 0.8868(6) 1.07529(14)
H6 H 0.5086 0.9931 1.0849
H7 H 0.7001 0.9121 1.0707
C7 C 0.5911(7) 0.3425(6) 0.97595(14)
C8 C 0.6020(6) 0.3577(6) 0.92963(13)
C9 C 0.5827(6) 0.5174(6) 0.90921(15)
H8 H 0.5634 0.6204 0.9244
C10 C 0.5922(7) 0.5231(7) 0.86628(17)
H9 H 0.5765 0.6301 0.8525
C11 C 0.6246(8) 0.3727(8) 0.84359(16)
H10 H 0.6330 0.3782 0.8146
C12 C 0.6446(8) 0.2141(7) 0.86378(16)
H11 H 0.6668 0.1120 0.8485
C13 C 0.6319(7) 0.2060(6) 0.90652(16)
H12 H 0.6434 0.0980 0.9200
C14 C 0.7360(7) 0.4763(7) 1.17218(15)
C15 C 0.7113(6) 0.3159(6) 1.19864(13)
C16 C 0.6160(8) 0.1711(7) 1.18480(16)
H13 H 0.5624 0.1704 1.1584
C17 C 0.6006(10) 0.0256(8) 1.21073(18)
H14 H 0.5300 -0.0706 1.2023
C18 C 0.6874(9) 0.0222(9) 1.2483(2)
H15 H 0.6801 -0.0788 1.2647
C19 C 0.7852(9) 0.1640(9) 1.26240(18)
H16 H 0.8426 0.1614 1.2884
C20 C 0.7971(8) 0.3125(8) 1.23709(16)
H17 H 0.8634 0.4104 1.2462
O1 O 0.5686(5) 0.4991(4) 0.99414(9)
O2 O 0.8532(4) 0.6335(4) 1.04090(10)
H18 H 0.9492 0.6403 1.0545
O3 O 0.6632(4) 0.4593(4) 1.13417(9)
O4 O 0.3778(4) 0.6536(4) 1.09172(9)
O5 O 0.4849(5) 0.8205(4) 1.03813(10)
O6 O 0.5997(7) 0.2066(4) 0.99530(11)
O7 O 0.8137(6) 0.6072(5) 1.18404(11)
loop_
_geom_bond_atom_site_label_1
_geom_bond_atom_site_label_2
_geom_bond_site_symmetry_1
_geom_bond_site_symmetry_2
C1 H1 1_555 1_555
C2 C1 1_555 1_555
H2 C2 1_555 1_555
C3 C2 1_555 1_555
H3 C3 1_555 1_555
C4 C3 1_555 1_555
H4 C4 1_555 1_555
C5 C4 1_555 1_555
H5 C5 1_555 1_555
C6 C5 1_555 1_555
H6 C6 1_555 1_555
H7 C6 1_555 1_555
C7 C8 1_555 1_555
C8 C9 1_555 1_555
C9 H8 1_555 1_555
C10 C9 1_555 1_555
H9 C10 1_555 1_555
C11 C10 1_555 1_555
H10 C11 1_555 1_555
C12 C11 1_555 1_555
H11 C12 1_555 1_555
C13 C8 1_555 1_555
H12 C13 1_555 1_555
C14 C15 1_555 1_555
C15 C16 1_555 1_555
C16 H13 1_555 1_555
C17 C16 1_555 1_555
H14 C17 1_555 1_555
C18 C17 1_555 1_555
H15 C18 1_555 1_555
C19 C18 1_555 1_555
H16 C19 1_555 1_555
C20 C15 1_555 1_555
H17 C20 1_555 1_555
O1 C2 1_555 1_555
O2 C3 1_555 1_555
H18 O2 1_555 1_555
O3 C4 1_555 1_555
O4 C1 1_555 1_555
O5 C1 1_555 1_555
O6 C7 1_555 1_555
O7 C14 1_555 1_555
C5 O4 1_555 1_555
C6 O5 1_555 1_555
C7 O1 1_555 1_555
C12 C13 1_555 1_555
C14 O3 1_555 1_555
C19 C20 1_555 1_555

#END
