
#######################################################################
#
#                 Cambridge Crystallographic Data Centre
#                                CCDC 
#
#######################################################################
#
# If this CIF has been generated from an entry in the Cambridge 
# Structural Database, then it will include bibliographic, chemical, 
# crystal, experimental, refinement or atomic coordinate data resulting 
# from the CCDC's data processing and validation procedures.
#
#######################################################################

data_AWOMUU
_chemical_formula_moiety         'C12 H20 O6'
_chemical_name_systematic        1,2:5,6-Di-O-isopropylidene-\b-L-talofuranose
_symmetry_cell_setting           orthorhombic
_symmetry_space_group_name_H-M   'P 21 21 21'
_symmetry_Int_Tables_number      19
_space_group_name_Hall           'P 2ac 2ab'
loop_
_symmetry_equiv_pos_site_id
_symmetry_equiv_pos_as_xyz
1 x,y,z
2 1/2-x,-y,1/2+z
3 1/2+x,1/2-y,-z
4 -x,1/2+y,1/2-z
_cell_length_a                   5.4511(14)
_cell_length_b                   12.273(3)
_cell_length_c                   20.543(4)
_cell_angle_alpha                90
_cell_angle_beta                 90
_cell_angle_gamma                90
_cell_volume                     1374.35
_exptl_crystal_colour            colorless
_chemical_melting_point          77-78deg.C
_cell_formula_units_Z            4
loop_
_atom_site_label
_atom_site_type_symbol
_atom_site_fract_x
_atom_site_fract_y
_atom_site_fract_z
O1 O 0.21215(73) 0.20285(33) 0.93060(18)
O2 O -0.08199(69) 0.14761(31) 0.86033(18)
O3 O -0.35487(80) 0.30067(32) 0.78525(18)
O4 O 0.11639(74) 0.37935(30) 0.90001(18)
O5 O 0.17213(88) 0.66950(35) 0.81723(22)
O6 O -0.14405(77) 0.56455(35) 0.85107(22)
C1 C 0.0302(11) 0.28506(49) 0.93105(26)
C2 C -0.1839(11) 0.24064(54) 0.89216(27)
C3 C -0.2352(12) 0.33026(50) 0.84348(28)
C4 C 0.0139(11) 0.38293(44) 0.83586(26)
C5 C 0.0072(13) 0.49877(50) 0.81059(28)
C6 C 0.2488(14) 0.55975(63) 0.80988(38)
C7 C -0.2036(14) 0.75609(55) 0.84032(37)
C8 C 0.0475(20) 0.67513(69) 0.92924(36)
C9 C 0.3029(13) 0.05457(52) 0.86075(32)
C10 C 0.0066(14) 0.03529(52) 0.95424(34)
C11 C -0.0283(12) 0.66801(49) 0.86021(33)
C12 C 0.1087(12) 0.10708(48) 0.90073(31)
H1 H -0.02209 0.30205 0.97659
H2 H -0.32908 0.22238 0.91985
H3 H -0.34182 0.38550 0.86540
H4 H 0.11490 0.33776 0.80547
H5 H -0.05507 0.49965 0.76480
H6 H 0.35755 0.53661 0.84657
H7 H 0.34833 0.54830 0.76956
H8 H -0.34855 0.75982 0.87006
H9 H -0.26928 0.74614 0.79527
H10 H -0.12724 0.83007 0.84272
H11 H -0.09203 0.67712 0.96083
H12 H 0.14009 0.74351 0.93906
H13 H 0.15776 0.61480 0.94389
H14 H 0.43935 0.02453 0.88790
H15 H 0.37364 0.10819 0.82928
H16 H 0.23362 -0.00707 0.83477
H17 H 0.13852 0.00724 0.98362
H18 H -0.08154 -0.03062 0.93773
H19 H -0.10841 0.07557 0.98356
H20 H -0.26986 0.25203 0.76632
loop_
_geom_bond_atom_site_label_1
_geom_bond_atom_site_label_2
_geom_bond_site_symmetry_1
_geom_bond_site_symmetry_2
O1 C1 1_555 1_555
O2 C2 1_555 1_555
O3 C3 1_555 1_555
O4 C1 1_555 1_555
O5 C6 1_555 1_555
O6 C5 1_555 1_555
C1 C2 1_555 1_555
C2 C3 1_555 1_555
C3 C4 1_555 1_555
C4 O4 1_555 1_555
C5 C4 1_555 1_555
C6 C5 1_555 1_555
C7 C11 1_555 1_555
C8 C11 1_555 1_555
C9 C12 1_555 1_555
C10 C12 1_555 1_555
C11 O5 1_555 1_555
C12 O1 1_555 1_555
H1 C1 1_555 1_555
H2 C2 1_555 1_555
H3 C3 1_555 1_555
H4 C4 1_555 1_555
H5 C5 1_555 1_555
H6 C6 1_555 1_555
H7 C6 1_555 1_555
H8 C7 1_555 1_555
H9 C7 1_555 1_555
H10 C7 1_555 1_555
H11 C8 1_555 1_555
H12 C8 1_555 1_555
H13 C8 1_555 1_555
H14 C9 1_555 1_555
H15 C9 1_555 1_555
H16 C9 1_555 1_555
H17 C10 1_555 1_555
H18 C10 1_555 1_555
H19 C10 1_555 1_555
H20 O3 1_555 1_555
O2 C12 1_555 1_555
O6 C11 1_555 1_555

#END
