
#######################################################################
#
#                 Cambridge Crystallographic Data Centre
#                                CCDC 
#
#######################################################################
#
# If this CIF has been generated from an entry in the Cambridge 
# Structural Database, then it will include bibliographic, chemical, 
# crystal, experimental, refinement or atomic coordinate data resulting 
# from the CCDC's data processing and validation procedures.
#
#######################################################################

data_AWOMAA
_chemical_formula_moiety         'C20 H20 O6'
_chemical_name_systematic        
1,6-Anhydro-2-O-benzoyl-3-O-benzyl-\b-L-idopyranose
_symmetry_cell_setting           monoclinic
_symmetry_space_group_name_H-M   'P 21'
_symmetry_Int_Tables_number      4
_space_group_name_Hall           'P 2yb'
loop_
_symmetry_equiv_pos_site_id
_symmetry_equiv_pos_as_xyz
1 x,y,z
2 -x,1/2+y,-z
_cell_length_a                   5.7432(6)
_cell_length_b                   10.336(3)
_cell_length_c                   15.4017(13)
_cell_angle_alpha                90
_cell_angle_beta                 93.923(8)
_cell_angle_gamma                90
_cell_volume                     912.129
_exptl_crystal_colour            colorless
_chemical_melting_point          142-143deg.C
_cell_formula_units_Z            2
loop_
_atom_site_label
_atom_site_type_symbol
_atom_site_fract_x
_atom_site_fract_y
_atom_site_fract_z
O1 O 0.1787(5) 0.7265 0.3382(2)
O2 O 0.2860(6) 0.9670(5) 0.2483(2)
O3 O 0.5936(6) 1.1113(5) 0.3724(2)
O4 O 0.1266(5) 0.9836(4) 0.4980(2)
O5 O 0.3752(6) 0.8151(4) 0.5057(2)
O6 O -0.2041(5) 0.6854(5) 0.3358(2)
C1 C 0.1532(8) 0.8563(6) 0.4690(3)
C2 C 0.1450(7) 0.8567(5) 0.3709(3)
C3 C 0.3393(7) 0.9366(5) 0.3379(3)
C4 C 0.3726(8) 1.0624(5) 0.3894(3)
C5 C 0.3524(8) 1.0365(6) 0.4862(3)
C6 C 0.5140(8) 0.9319(7) 0.5213(3)
C7 C -0.0105(8) 0.6532(5) 0.3211(3)
C8 C 0.0484(8) 0.5270(5) 0.2812(3)
C9 C -0.1061(8) 0.4256(6) 0.2844(3)
C10 C -0.0575(10) 0.3078(6) 0.2482(4)
C11 C 0.1415(10) 0.2919(6) 0.2051(3)
C12 C 0.2938(9) 0.3930(7) 0.2012(4)
C13 C 0.2513(8) 0.5107(6) 0.2396(3)
C14 C 0.4513(15) 0.9290(9) 0.1927(4)
C15 C 0.3947(12) 0.9843(7) 0.1052(3)
C16 C 0.2026(14) 0.9564(10) 0.0556(6)
C17 C 0.1474(19) 1.0119(17) -0.0233(8)
C18 C 0.2937(28) 1.0925(23) -0.0516(9)
C19 C 0.4808(28) 1.1285(13) -0.0120(9)
C20 C 0.5410(13) 1.0742(10) 0.0710(6)
H1 H 0.027 0.800 0.490
H2 H -0.008 0.892 0.347
H3 H 0.488 0.886 0.346
H4 H 0.248 1.125 0.369
H5 H 0.379 1.117 0.521
H6 H 0.562 0.946 0.584
H7 H 0.661 0.931 0.490
H8 H -0.254 0.437 0.314
H9 H -0.171 0.235 0.252
H10 H 0.181 0.207 0.179
H11 H 0.437 0.383 0.168
H12 H 0.368 0.582 0.237
H13 H 0.609 0.959 0.216
H14 H 0.476 0.833 0.191
H15 H 0.083 0.898 0.079
H16 H 0.010 0.994 -0.065
H17 H 0.281 1.141 -0.108
H18 H 0.605 1.191 -0.027
H19 H 0.690 1.091 0.106
H20 H 0.642 1.180 0.410
loop_
_geom_bond_atom_site_label_1
_geom_bond_atom_site_label_2
_geom_bond_site_symmetry_1
_geom_bond_site_symmetry_2
O1 C2 1_555 1_555
O2 C3 1_555 1_555
O3 C4 1_555 1_555
O4 C1 1_555 1_555
O5 C1 1_555 1_555
O6 C7 1_555 1_555
C1 C2 1_555 1_555
C2 C3 1_555 1_555
C3 C4 1_555 1_555
C4 C5 1_555 1_555
C5 O4 1_555 1_555
C6 O5 1_555 1_555
C7 O1 1_555 1_555
C8 C7 1_555 1_555
C9 C8 1_555 1_555
C10 C9 1_555 1_555
C11 C10 1_555 1_555
C12 C11 1_555 1_555
C13 C8 1_555 1_555
C14 O2 1_555 1_555
C15 C14 1_555 1_555
C16 C15 1_555 1_555
C17 C16 1_555 1_555
C18 C17 1_555 1_555
C19 C18 1_555 1_555
C20 C15 1_555 1_555
H1 C1 1_555 1_555
H2 C2 1_555 1_555
H3 C3 1_555 1_555
H4 C4 1_555 1_555
H5 C5 1_555 1_555
H6 C6 1_555 1_555
H7 C6 1_555 1_555
H8 C9 1_555 1_555
H9 C10 1_555 1_555
H10 C11 1_555 1_555
H11 C12 1_555 1_555
H12 C13 1_555 1_555
H13 C14 1_555 1_555
H14 C14 1_555 1_555
H15 C16 1_555 1_555
H16 C17 1_555 1_555
H17 C18 1_555 1_555
H18 C19 1_555 1_555
H19 C20 1_555 1_555
H20 O3 1_555 1_555
C5 C6 1_555 1_555
C12 C13 1_555 1_555
C19 C20 1_555 1_555

#END
