
#######################################################################
#
#                 Cambridge Crystallographic Data Centre
#                                CCDC 
#
#######################################################################
#
# If this CIF has been generated from an entry in the Cambridge 
# Structural Database, then it will include bibliographic, chemical, 
# crystal, experimental, refinement or atomic coordinate data resulting 
# from the CCDC's data processing and validation procedures.
#
#######################################################################

data_AWONIJ
_chemical_formula_moiety         'C20 H18 O7'
_chemical_name_systematic        1,6-Anhydro-3,4-di-O-benzoyl-\b-gulopyranose
_symmetry_cell_setting           orthorhombic
_symmetry_space_group_name_H-M   'P 21 21 21'
_symmetry_Int_Tables_number      19
_space_group_name_Hall           'P 2ac 2ab'
loop_
_symmetry_equiv_pos_site_id
_symmetry_equiv_pos_as_xyz
1 x,y,z
2 1/2-x,-y,1/2+z
3 1/2+x,1/2-y,-z
4 -x,1/2+y,1/2-z
_cell_length_a                   6.1634(25)
_cell_length_b                   8.7890(7)
_cell_length_c                   32.891(7)
_cell_angle_alpha                90
_cell_angle_beta                 90
_cell_angle_gamma                90
_cell_volume                     1781.71
_exptl_crystal_colour            white
_chemical_melting_point          151-152deg.C
_cell_formula_units_Z            4
loop_
_atom_site_label
_atom_site_type_symbol
_atom_site_fract_x
_atom_site_fract_y
_atom_site_fract_z
O1 O 0.5137(5) 0.4309(4) 0.9359(1)
O2 O 0.8457(5) 0.4546(3) 0.8815(1)
O3 O 1.1072(5) 0.6908(3) 0.9184(1)
O4 O 0.7275(5) 0.5790(3) 0.9987(1)
O5 O 0.9664(5) 0.3872(3) 1.0052(1)
O6 O 1.1884(6) 0.3937(4) 0.8650(1)
O7 O 0.9710(5) 0.9278(3) 0.9237(1)
C1 C 0.7530(7) 0.4220(5) 0.9930(1)
C2 C 0.7222(8) 0.3819(5) 0.9477(1)
C3 C 0.9004(7) 0.4639(5) 0.9241(1)
C4 C 0.9150(7) 0.6286(4) 0.9372(1)
C5 C 0.9292(7) 0.6365(5) 0.9834(1)
C6 C 1.0909(8) 0.5269(5) 1.0026(2)
C7 C 1.0006(9) 0.4140(5) 0.8555(1)
C8 C 0.9185(8) 0.3976(5) 0.8131(1)
C9 C 1.0524(10) 0.3287(7) 0.7849(2)
C10 C 0.9829(15) 0.3109(10) 0.7449(2)
C11 C 0.7845(13) 0.3623(10) 0.7339(2)
C12 C 0.6500(10) 0.4313(8) 0.7618(2)
C13 C 0.7148(9) 0.4466(6) 0.8013(1)
C14 C 1.1106(8) 0.8437(5) 0.9120(1)
C15 C 1.3062(7) 0.8900(5) 0.8890(1)
C16 C 1.4553(8) 0.7881(5) 0.8743(1)
C17 C 1.6323(8) 0.8372(6) 0.8518(2)
C18 C 1.6587(9) 0.9906(6) 0.8446(2)
C19 C 1.5125(10) 1.0929(6) 0.8597(2)
C20 C 1.3353(9) 1.0441(5) 0.8815(1)
H1 H 0.414 0.382 0.951
H2 H 0.647 0.366 1.010
H3 H 0.735 0.269 0.944
H4 H 1.042 0.412 0.929
H5 H 0.785 0.687 0.928
H6 H 0.957 0.743 0.993
H7 H 1.141 0.563 1.030
H8 H 1.218 0.513 0.984
H9 H 1.197 0.289 0.793
H10 H 1.079 0.263 0.724
H11 H 0.732 0.347 0.705
H12 H 0.506 0.469 0.752
H13 H 0.616 0.494 0.822
H14 H 1.435 0.676 0.879
H15 H 1.745 0.763 0.843
H16 H 1.785 1.027 0.828
H17 H 1.534 1.204 0.855
H18 H 1.229 1.121 0.892
loop_
_geom_bond_atom_site_label_1
_geom_bond_atom_site_label_2
_geom_bond_site_symmetry_1
_geom_bond_site_symmetry_2
O1 C2 1_555 1_555
O2 C3 1_555 1_555
O3 C4 1_555 1_555
O4 C1 1_555 1_555
O5 C1 1_555 1_555
O6 C7 1_555 1_555
O7 C14 1_555 1_555
C1 C2 1_555 1_555
C2 C3 1_555 1_555
C3 C4 1_555 1_555
C4 C5 1_555 1_555
C5 O4 1_555 1_555
C6 O5 1_555 1_555
C7 O2 1_555 1_555
C8 C7 1_555 1_555
C9 C8 1_555 1_555
C10 C9 1_555 1_555
C11 C10 1_555 1_555
C12 C11 1_555 1_555
C13 C8 1_555 1_555
C14 O3 1_555 1_555
C15 C14 1_555 1_555
C16 C15 1_555 1_555
C17 C16 1_555 1_555
C18 C17 1_555 1_555
C19 C18 1_555 1_555
C20 C15 1_555 1_555
H1 O1 1_555 1_555
H2 C1 1_555 1_555
H3 C2 1_555 1_555
H4 C3 1_555 1_555
H5 C4 1_555 1_555
H6 C5 1_555 1_555
H7 C6 1_555 1_555
H8 C6 1_555 1_555
H9 C9 1_555 1_555
H10 C10 1_555 1_555
H11 C11 1_555 1_555
H12 C12 1_555 1_555
H13 C13 1_555 1_555
H14 C16 1_555 1_555
H15 C17 1_555 1_555
H16 C18 1_555 1_555
H17 C19 1_555 1_555
H18 C20 1_555 1_555
C5 C6 1_555 1_555
C12 C13 1_555 1_555
C19 C20 1_555 1_555

#END
