
#######################################################################
#
#                 Cambridge Crystallographic Data Centre
#                                CCDC 
#
#######################################################################
#
# If this CIF has been generated from an entry in the Cambridge 
# Structural Database, then it will include bibliographic, chemical, 
# crystal, experimental, refinement or atomic coordinate data resulting 
# from the CCDC's data processing and validation procedures.
#
#######################################################################

data_AWONUV
_chemical_compound_source        'stems of Dendrobium chrysotoxum'
_chemical_formula_moiety         'C14 H12 O4'
_chemical_name_systematic        (9R)-4-Methoxy-9H-fluorene-2,5,9-triol
_chemical_properties_biological  
'inactive in a range of assays. Source plant used in Chinese and folk medicine for loss of appetite with nausea, fever in deficiency conditions, impaired vision and after a severe disease'
_symmetry_cell_setting           orthorhombic
_symmetry_space_group_name_H-M   'P 21 21 21'
_symmetry_Int_Tables_number      19
_space_group_name_Hall           'P 2ac 2ab'
loop_
_symmetry_equiv_pos_site_id
_symmetry_equiv_pos_as_xyz
1 x,y,z
2 1/2-x,-y,1/2+z
3 1/2+x,1/2-y,-z
4 -x,1/2+y,1/2-z
_cell_length_a                   5.0918(4)
_cell_length_b                   11.7965(11)
_cell_length_c                   18.9973(17)
_cell_angle_alpha                90
_cell_angle_beta                 90
_cell_angle_gamma                90
_cell_volume                     1141.08
_exptl_crystal_colour            colorless
_exptl_crystal_description       needles
_chemical_melting_point          209.9-210deg.C
_cell_formula_units_Z            4
loop_
_atom_site_label
_atom_site_type_symbol
_atom_site_fract_x
_atom_site_fract_y
_atom_site_fract_z
O1 O -0.1725(4) -0.2456(1) 0.1329(1)
O2 O 0.4464(4) -0.0548(2) -0.0689(1)
O3 O 0.2624(4) 0.2054(1) 0.1157(1)
O4 O -0.0263(4) 0.2175(2) 0.2317(1)
C1 C -0.2421(5) -0.1313(2) 0.1125(1)
C2 C -0.0225(5) -0.0686(2) 0.0756(1)
C3 C 0.1072(5) -0.1014(2) 0.0158(1)
C4 C 0.2991(6) -0.0300(2) -0.0110(1)
C5 C 0.3575(6) 0.0724(2) 0.0222(1)
C6 C 0.2199(5) 0.1031(2) 0.0816(1)
C7 C 0.0292(5) 0.0331(2) 0.1108(1)
C8 C -0.1448(5) 0.0404(2) 0.1728(1)
C9 C -0.1737(5) 0.1196(2) 0.2266(1)
C10 C -0.3594(6) 0.1031(2) 0.2787(2)
C11 C -0.5169(6) 0.0089(2) 0.2776(2)
C12 C -0.4927(6) -0.0727(2) 0.2253(2)
C13 C -0.3051(5) -0.0556(2) 0.1745(1)
C14 C 0.4620(9) 0.2811(3) 0.0894(2)
H1 H -0.3980(40) -0.1473(14) 0.0795(10)
H2 H 0.0690(40) -0.1758(15) -0.0102(10)
H3 H 0.5010(50) 0.1226(19) -0.0002(10)
H4 H -0.3740(40) 0.1605(16) 0.3180(10)
H5 H -0.6470(40) 0.0004(15) 0.3144(11)
H6 H -0.6110(40) -0.0141(15) 0.2032(11)
H7 H 0.6220(60) 0.2430(20) 0.0934(16)
H8 H 0.4170(50) 0.2990(20) 0.0387(13)
H9 H 0.4270(60) 0.3530(20) 0.1220(14)
H10 H -0.0880(60) -0.2390(30) 0.1727(14)
H11 H 0.3940(50) -0.1230(20) -0.0862(13)
H12 H 0.0950(70) 0.2230(30) 0.1989(15)
loop_
_geom_bond_atom_site_label_1
_geom_bond_atom_site_label_2
_geom_bond_site_symmetry_1
_geom_bond_site_symmetry_2
O1 C1 1_555 1_555
O2 C4 1_555 1_555
O3 C6 1_555 1_555
O4 C9 1_555 1_555
C1 C2 1_555 1_555
C2 C3 1_555 1_555
C3 C4 1_555 1_555
C4 C5 1_555 1_555
C5 C6 1_555 1_555
C6 C7 1_555 1_555
C7 C2 1_555 1_555
C8 C7 1_555 1_555
C9 C8 1_555 1_555
C10 C9 1_555 1_555
C11 C10 1_555 1_555
C12 C11 1_555 1_555
C13 C1 1_555 1_555
C14 O3 1_555 1_555
H1 C1 1_555 1_555
H2 C3 1_555 1_555
H3 C5 1_555 1_555
H4 C10 1_555 1_555
H5 C11 1_555 1_555
H6 C12 1_555 1_555
H7 C14 1_555 1_555
H8 C14 1_555 1_555
H9 C14 1_555 1_555
H10 O1 1_555 1_555
H11 O2 1_555 1_555
H12 O4 1_555 1_555
C8 C13 1_555 1_555
C12 C13 1_555 1_555

#END
