
#######################################################################
#
#                 Cambridge Crystallographic Data Centre
#                                CCDC 
#
#######################################################################
#
# If this CIF has been generated from an entry in the Cambridge 
# Structural Database, then it will include bibliographic, chemical, 
# crystal, experimental, refinement or atomic coordinate data resulting 
# from the CCDC's data processing and validation procedures.
#
#######################################################################

data_AWOTUB
_chemical_compound_source        'leaves of Isodon rubescens var. rubescens'
_chemical_formula_moiety         'C48 H70 O15,2(C1 H4 O1),0.5(H2 O1)'
_chemical_name_systematic        'Xindongnin M methanol solvate hemihydrate'
_symmetry_cell_setting           monoclinic
_symmetry_space_group_name_H-M   'P 21'
_symmetry_Int_Tables_number      4
_space_group_name_Hall           'P 2yb'
loop_
_symmetry_equiv_pos_site_id
_symmetry_equiv_pos_as_xyz
1 x,y,z
2 -x,1/2+y,-z
_cell_length_a                   12.826(1)
_cell_length_b                   16.859(1)
_cell_length_c                   12.872(1)
_cell_angle_alpha                90
_cell_angle_beta                 104.56(1)
_cell_angle_gamma                90
_cell_volume                     2693.97
_exptl_crystal_colour            colorless
_exptl_crystal_description       cube
_cell_formula_units_Z            2
_exptl_crystal_recrystallization_method acetone
loop_
_atom_site_label
_atom_site_type_symbol
_atom_site_fract_x
_atom_site_fract_y
_atom_site_fract_z
O1 O -0.1010(9) 0.5496(6) -0.8679(9)
O2 O -0.1750(7) 0.3246(5) -1.1585(7)
O3 O -0.3790(7) 0.3734(5) -1.0219(7)
O4 O -0.2141(8) 0.2244(6) -0.7276(7)
O5 O -0.4366(8) 0.2462(6) -0.9219(9)
O6 O -0.0086(10) 0.6593(7) -0.8470(9)
O7 O -0.2734(10) 0.3783(8) -1.3055(8)
O8 O -0.4071(17) 0.0886(13) -1.0410(18)
C1 C -0.0401(12) 0.3849(9) -0.8042(11)
C2 C 0.0366(13) 0.4490(9) -0.8234(12)
C3 C -0.0162(13) 0.5075(9) -0.9028(15)
C4 C -0.0775(11) 0.4715(8) -1.0167(11)
C5 C -0.1533(11) 0.4035(8) -0.9920(11)
C6 C -0.2302(10) 0.3702(7) -1.0912(10)
C7 C -0.3160(10) 0.3173(7) -1.0651(10)
C8 C -0.2668(10) 0.2526(7) -0.9821(10)
C9 C -0.1871(10) 0.2874(7) -0.8829(10)
C10 C -0.0936(11) 0.3389(8) -0.9086(11)
C11 C -0.1443(11) 0.2217(8) -0.7976(11)
C12 C -0.1391(11) 0.1380(8) -0.8440(10)
C13 C -0.2235(11) 0.1159(8) -0.9449(11)
C14 C -0.2255(10) 0.1809(8) -1.0314(11)
C15 C -0.3600(11) 0.2131(9) -0.9404(11)
C16 C -0.3394(12) 0.1228(8) -0.9360(11)
C17 C -0.3738(12) 0.0810(8) -0.8433(11)
C18 C -0.1506(13) 0.5354(8) -1.0868(13)
C19 C 0.0088(12) 0.4457(9) -1.0762(12)
C20 C -0.0058(11) 0.2888(8) -0.9433(12)
C21 C -0.0879(16) 0.6240(13) -0.8438(17)
C22 C -0.1742(15) 0.6603(11) -0.8092(15)
C23 C -0.2037(13) 0.3350(8) -1.2634(10)
C24 C -0.1352(15) 0.2884(10) -1.3179(13)
O9 O -0.1778(7) -0.4503(6) -0.4837(7)
O10 O -0.4844(7) -0.2391(5) -0.4799(7)
O11 O -0.4468(7) -0.3060(5) -0.7378(7)
O12 O -0.1594(7) -0.1256(6) -0.6902(8)
O13 O -0.3921(7) -0.1831 -0.8423(7)
O14 O -0.0402(8) -0.5177(6) -0.3775(8)
O15 O -0.6403(9) -0.3083(8) -0.5043(11)
C25 C -0.1359(11) -0.2770(8) -0.4668(11)
C26 C -0.1120(11) -0.3360(9) -0.3747(11)
C27 C -0.1898(12) -0.4016(9) -0.3923(11)
C28 C -0.3081(12) -0.3789(9) -0.4201(11)
C29 C -0.3287(10) -0.3130(7) -0.5108(10)
C30 C -0.4457(10) -0.2912(7) -0.5537(10)
C31 C -0.4646(10) -0.2474(8) -0.6634(11)
C32 C -0.3899(10) -0.1738(8) -0.6534(10)
C33 C -0.2707(10) -0.1949(8) -0.6009(10)
C34 C -0.2520(10) -0.2405(7) -0.4901(10)
C35 C -0.1974(11) -0.1197(9) -0.5961(11)
C36 C -0.2512(11) -0.0387(8) -0.5915(11)
C37 C -0.3724(11) -0.0332(8) -0.6446(10)
C38 C -0.4272(11) -0.1003(7) -0.6006(10)
C39 C -0.3936(10) -0.1424(7) -0.7643(10)
C40 C -0.4058(10) -0.0535(8) -0.7651(11)
C41 C -0.3491(12) -0.0084(8) -0.8423(11)
C42 C -0.3809(12) -0.4521(9) -0.4602(13)
C43 C -0.3367(14) -0.3536(10) -0.3133(13)
C44 C -0.2539(11) -0.1854(8) -0.3952(10)
C45 C -0.0993(12) -0.5070(10) -0.4641(13)
C46 C -0.1047(14) -0.5559(10) -0.5649(13)
C47 C -0.5874(13) -0.2516(10) -0.4671(13)
C48 C -0.6126(15) -0.1907(12) -0.3958(17)
H1 H -0.424 0.342 -1.010
H2 H -0.283 0.242 -0.766
H3 H -0.470 0.101 -1.031
H4 H -0.105 0.414 -0.778
H5 H 0.000 0.344 -0.743
H6 H 0.099 0.417 -0.850
H7 H 0.071 0.475 -0.746
H8 H 0.042 0.550 -0.918
H9 H -0.205 0.434 -0.951
H10 H -0.273 0.419 -1.139
H11 H -0.363 0.290 -1.138
H12 H -0.234 0.329 -0.846
H13 H -0.062 0.238 -0.752
H14 H -0.062 0.130 -0.864
H15 H -0.146 0.094 -0.785
H16 H -0.210 0.057 -0.975
H17 H -0.148 0.190 -1.049
H18 H -0.283 0.163 -1.110
H19 H -0.458 0.089 -0.850
H20 H -0.329 0.107 -0.765
H21 H -0.114 0.593 -1.072
H22 H -0.172 0.521 -1.169
H23 H -0.224 0.535 -1.054
H24 H 0.081 0.422 -1.020
H25 H -0.021 0.400 -1.136
H26 H 0.030 0.499 -1.115
H27 H -0.028 0.228 -0.952
H28 H 0.017 0.313 -1.010
H29 H 0.066 0.294 -0.869
H30 H -0.145 0.687 -0.724
H31 H -0.216 0.710 -0.857
H32 H -0.235 0.615 -0.801
H33 H -0.055 0.284 -1.267
H34 H -0.168 0.229 -1.337
H35 H -0.135 0.321 -1.391
H36 H -0.405 -0.279 -0.774
H37 H -0.111 -0.096 -0.708
H38 H -0.132 -0.311 -0.539
H39 H -0.077 -0.231 -0.455
H40 H -0.030 -0.358 -0.360
H41 H -0.115 -0.303 -0.300
H42 H -0.174 -0.439 -0.320
H43 H -0.306 -0.343 -0.576
H44 H -0.494 -0.345 -0.565
H45 H -0.549 -0.230 -0.690
H46 H -0.244 -0.236 -0.656
H47 H -0.132 -0.124 -0.524
H48 H -0.241 -0.019 -0.510
H49 H -0.213 0.005 -0.634
H50 H -0.403 0.025 -0.631
H51 H -0.516 -0.093 -0.624
H52 H -0.403 -0.103 -0.513
H53 H -0.374 -0.032 -0.923
H54 H -0.259 -0.017 -0.815
H55 H -0.464 -0.443 -0.455
H56 H -0.384 -0.468 -0.543
H57 H -0.346 -0.500 -0.408
H58 H -0.330 -0.403 -0.253
H59 H -0.286 -0.305 -0.267
H60 H -0.420 -0.333 -0.333
H61 H -0.335 -0.176 -0.391
H62 H -0.208 -0.211 -0.319
H63 H -0.216 -0.131 -0.412
H64 H -0.030 -0.551 -0.593
H65 H -0.118 -0.618 -0.553
H66 H -0.170 -0.532 -0.624
H67 H -0.597 -0.132 -0.424
H68 H -0.567 -0.199 -0.315
H69 H -0.698 -0.198 -0.403
O16 O -0.1649(10) -0.8483(8) -0.5318(9)
C49 C -0.0955(16) -0.8828(12) -0.4510(16)
H70 H -0.153 -0.786 -0.499
H71 H -0.054 -0.936 -0.475
H72 H -0.126 -0.904 -0.383
H73 H -0.025 -0.841 -0.414
O17 O -0.6674(21) -0.4596(16) -0.7095(20)
C50 C -0.6560(40) -0.5030(30) -0.8010(40)
H74 H -0.650 -0.398 -0.691
H75 H -0.593 -0.486 -0.834
H76 H -0.659 -0.565 -0.786
H77 H -0.736 -0.490 -0.865
O18 O -0.6139(24) -0.9981(19) -0.1862(24)
C51 C -0.6084(24) -0.9749(16) -0.0810(30)
H78 H -0.573 -0.966 -0.250
H79 H -0.620 -0.912 -0.082
H80 H -0.677 -1.004 -0.060
H81 H -0.533 -0.994 -0.032
O19 O -0.6837(21) -0.6729(17) -0.9133(21)
H82 H -0.740 -0.658 -0.865
H83 H -0.699 -0.725 -0.937
loop_
_geom_bond_atom_site_label_1
_geom_bond_atom_site_label_2
_geom_bond_site_symmetry_1
_geom_bond_site_symmetry_2
O1 C3 1_555 1_555
O2 C6 1_555 1_555
O3 C7 1_555 1_555
O4 C11 1_555 1_555
O5 C15 1_555 1_555
O6 C21 1_555 1_555
O7 C23 1_555 1_555
O8 C16 1_555 1_555
C1 C2 1_555 1_555
C2 C3 1_555 1_555
C3 C4 1_555 1_555
C4 C5 1_555 1_555
C5 C6 1_555 1_555
C6 C7 1_555 1_555
C7 C8 1_555 1_555
C8 C9 1_555 1_555
C9 C10 1_555 1_555
C10 C1 1_555 1_555
C11 C9 1_555 1_555
C12 C11 1_555 1_555
C13 C12 1_555 1_555
C14 C8 1_555 1_555
C15 C8 1_555 1_555
C16 C13 1_555 1_555
C17 C16 1_555 1_555
C18 C4 1_555 1_555
C19 C4 1_555 1_555
C20 C10 1_555 1_555
C21 O1 1_555 1_555
C22 C21 1_555 1_555
C23 O2 1_555 1_555
C24 C23 1_555 1_555
O9 C27 1_555 1_555
O10 C30 1_555 1_555
O11 C31 1_555 1_555
O12 C35 1_555 1_555
O13 C39 1_555 1_555
O14 C45 1_555 1_555
O15 C47 1_555 1_555
C25 C26 1_555 1_555
C26 C27 1_555 1_555
C27 C28 1_555 1_555
C28 C29 1_555 1_555
C29 C30 1_555 1_555
C30 C31 1_555 1_555
C31 C32 1_555 1_555
C32 C33 1_555 1_555
C33 C34 1_555 1_555
C34 C25 1_555 1_555
C35 C33 1_555 1_555
C36 C35 1_555 1_555
C37 C36 1_555 1_555
C38 C32 1_555 1_555
C39 C32 1_555 1_555
C40 C37 1_555 1_555
C41 C17 1_555 1_555
C42 C28 1_555 1_555
C43 C28 1_555 1_555
C44 C34 1_555 1_555
C45 O9 1_555 1_555
C46 C45 1_555 1_555
C47 O10 1_555 1_555
C48 C47 1_555 1_555
O16 C49 1_555 1_555
C49 H71 1_555 1_555
O17 C50 1_555 1_555
C50 H75 1_555 1_555
O18 C51 1_555 1_555
C51 H79 1_555 1_555
O19 H82 1_555 1_555
H1 O3 1_555 1_555
H2 O4 1_555 1_555
H3 O8 1_555 1_555
H4 C1 1_555 1_555
H5 C1 1_555 1_555
H6 C2 1_555 1_555
H7 C2 1_555 1_555
H8 C3 1_555 1_555
H9 C5 1_555 1_555
H10 C6 1_555 1_555
H11 C7 1_555 1_555
H12 C9 1_555 1_555
H13 C11 1_555 1_555
H14 C12 1_555 1_555
H15 C12 1_555 1_555
H16 C13 1_555 1_555
H17 C14 1_555 1_555
H18 C14 1_555 1_555
H19 C17 1_555 1_555
H20 C17 1_555 1_555
H21 C18 1_555 1_555
H22 C18 1_555 1_555
H23 C18 1_555 1_555
H24 C19 1_555 1_555
H25 C19 1_555 1_555
H26 C19 1_555 1_555
H27 C20 1_555 1_555
H28 C20 1_555 1_555
H29 C20 1_555 1_555
H30 C22 1_555 1_555
H31 C22 1_555 1_555
H32 C22 1_555 1_555
H33 C24 1_555 1_555
H34 C24 1_555 1_555
H35 C24 1_555 1_555
H36 O11 1_555 1_555
H37 O12 1_555 1_555
H38 C25 1_555 1_555
H39 C25 1_555 1_555
H40 C26 1_555 1_555
H41 C26 1_555 1_555
H42 C27 1_555 1_555
H43 C29 1_555 1_555
H44 C30 1_555 1_555
H45 C31 1_555 1_555
H46 C33 1_555 1_555
H47 C35 1_555 1_555
H48 C36 1_555 1_555
H49 C36 1_555 1_555
H50 C37 1_555 1_555
H51 C38 1_555 1_555
H52 C38 1_555 1_555
H53 C41 1_555 1_555
H54 C41 1_555 1_555
H55 C42 1_555 1_555
H56 C42 1_555 1_555
H57 C42 1_555 1_555
H58 C43 1_555 1_555
H59 C43 1_555 1_555
H60 C43 1_555 1_555
H61 C44 1_555 1_555
H62 C44 1_555 1_555
H63 C44 1_555 1_555
H64 C46 1_555 1_555
H65 C46 1_555 1_555
H66 C46 1_555 1_555
H67 C48 1_555 1_555
H68 C48 1_555 1_555
H69 C48 1_555 1_555
H70 O16 1_555 1_555
H72 C49 1_555 1_555
H73 C49 1_555 1_555
H74 O17 1_555 1_555
H76 C50 1_555 1_555
H77 C50 1_555 1_555
H78 O18 1_555 1_555
H80 C51 1_555 1_555
H81 C51 1_555 1_555
H83 O19 1_555 1_555
C5 C10 1_555 1_555
C13 C14 1_555 1_555
C15 C16 1_555 1_555
C29 C34 1_555 1_555
C37 C38 1_555 1_555
C39 C40 1_555 1_555
C40 C41 1_555 1_555

#END
