
#######################################################################
#
#                 Cambridge Crystallographic Data Centre
#                                CCDC 
#
#######################################################################
#
# If this CIF has been generated from an entry in the Cambridge 
# Structural Database, then it will include bibliographic, chemical, 
# crystal, experimental, refinement or atomic coordinate data resulting 
# from the CCDC's data processing and validation procedures.
#
#######################################################################

data_AWOZUJ
_chemical_name_common            
6,10,19-trimethoxypentacyclo[6.6.6.0$2,7!.0$9,14!.0$15,20!]icosa-2,4,6,9,11,13,15,17,19-nonaene-1-carbaldehyde
_chemical_formula_moiety         'C24 H20 O4'
_chemical_name_systematic        1,8,13-trimethoxy-10-formyltriptycene
_symmetry_cell_setting           orthorhombic
_symmetry_space_group_name_H-M   'P m c 21'
_symmetry_Int_Tables_number      26
_space_group_name_Hall           'P 2c -2'
loop_
_symmetry_equiv_pos_site_id
_symmetry_equiv_pos_as_xyz
1 x,y,z
2 -x,-y,1/2+z
3 x,-y,1/2+z
4 -x,y,z
_cell_length_a                   13.5285(18)
_cell_length_b                   8.4191(12)
_cell_length_c                   15.857(2)
_cell_angle_alpha                90
_cell_angle_beta                 90
_cell_angle_gamma                90
_cell_volume                     1806.08
_exptl_crystal_colour            colorless
_exptl_crystal_description       block
_cell_formula_units_Z            4
loop_
_atom_site_label
_atom_site_type_symbol
_atom_site_fract_x
_atom_site_fract_y
_atom_site_fract_z
O1 O 0.0000 0.2684(3) 0.35340(19)
O2 O 0.15765(16) 0.6739(3) 0.42466(14)
C1 C 0.0000 0.2006(5) 0.4323(3)
C2 C 0.0000 -0.0149(5) 0.5309(3)
H1 H 0.0000 -0.1258 0.5418
C3 C 0.0898(2) 0.5424(3) 0.5403(2)
C4 C 0.0000 0.4875(5) 0.4908(3)
H2 H 0.0000 0.5249 0.4310
C5 C 0.1671(2) 0.6305(3) 0.50703(19)
C6 C 0.0000 0.2526(5) 0.5825(3)
C7 C 0.0000 0.3065(5) 0.4990(3)
C8 C 0.0000 0.0379(5) 0.4475(3)
H3 H 0.0000 -0.0357 0.4021
C9 C 0.0000 0.3909(5) 0.6469(3)
C10 C 0.0000 0.0904(5) 0.5986(3)
H4 H 0.0000 0.0519 0.6550
C11 C 0.0916(2) 0.4918(4) 0.6233(2)
C12 C 0.2498(3) 0.6128(4) 0.6405(2)
H5 H 0.3060 0.6350 0.6745
C13 C 0.1716(2) 0.5267(4) 0.6754(2)
H6 H 0.1729 0.4932 0.7326
C14 C 0.2483(3) 0.6668(4) 0.5581(2)
H7 H 0.3017 0.7278 0.5365
O3 O 0.0000 0.2245(5) 0.7682(3)
C15 C 0.0000 0.1631(6) 0.2831(3)
H8 H 0.0000 0.2248 0.2307
H9 H 0.0591 0.0960 0.2852
C16 C 0.0000 0.3504(6) 0.7391(3)
H10 H 0.0000 0.4372 0.7774
C17 C 0.2298(3) 0.7779(5) 0.3899(2)
H11 H 0.2362 0.8721 0.4258
H12 H 0.2093 0.8102 0.3331
H13 H 0.2936 0.7230 0.3868
H9C H -0.0591 0.0960 0.2852
O2C O -0.15765(16) 0.6739(3) 0.42466(14)
C3C C -0.0898(2) 0.5424(3) 0.5403(2)
C5C C -0.1671(2) 0.6305(3) 0.50703(19)
C11C C -0.0916(2) 0.4918(4) 0.6233(2)
C12C C -0.2498(3) 0.6128(4) 0.6405(2)
H5C H -0.3060 0.6350 0.6745
C13C C -0.1716(2) 0.5267(4) 0.6754(2)
H6C H -0.1729 0.4932 0.7326
C14C C -0.2483(3) 0.6668(4) 0.5581(2)
H7C H -0.3017 0.7278 0.5365
C17C C -0.2298(3) 0.7779(5) 0.3899(2)
H11C H -0.2362 0.8721 0.4258
H12C H -0.2093 0.8102 0.3331
H13C H -0.2936 0.7230 0.3868
O4 O 0.5000 0.6241(3) 0.5301(2)
O5 O 0.65624(15) 1.0388(2) 0.61367(14)
C18 C 0.6647(2) 1.1006(3) 0.5344(2)
C19 C 0.5000 0.9595(5) 0.4983(3)
H15 H 0.5000 0.9174 0.5572
C20 C 0.5912(2) 1.1220(3) 0.39607(19)
C21 C 0.5000 0.8856(5) 0.3488(3)
C22 C 0.5896(2) 1.0628(3) 0.47832(19)
C23 C 0.5000 0.8292(5) 0.4311(3)
C24 C 0.7429(2) 1.1962(4) 0.5073(2)
H16 H 0.7953 1.2219 0.5448
C25 C 0.5000 0.6672(5) 0.4470(3)
C26 C 0.6681(2) 1.2179(4) 0.3688(2)
H17 H 0.6691 1.2583 0.3128
C27 C 0.5000 1.0680(5) 0.3440(3)
C28 C 0.5000 1.1313(5) 0.2550(3)
H18 H 0.5000 1.0525 0.2121
C29 C 0.5000 0.7814(6) 0.2806(3)
H19 H 0.5000 0.8197 0.2242
O6 O 0.5000 1.2581(5) 0.2314(3)
C30 C 0.7434(2) 1.2537(4) 0.4247(2)
H20 H 0.7967 1.3188 0.4065
C31 C 0.7365(3) 1.0673(5) 0.6705(2)
H21 H 0.7974 1.0224 0.6471
H22 H 0.7223 1.0171 0.7250
H23 H 0.7448 1.1820 0.6785
C32 C 0.5000 0.5617(6) 0.3797(3)
H24 H 0.5000 0.4504 0.3897
C33 C 0.5000 0.4579(6) 0.5475(3)
H25 H 0.5000 0.4411 0.6087
H26 H 0.4409 0.4092 0.5230
C34 C 0.5000 0.6202(6) 0.2976(3)
H27 H 0.5000 0.5472 0.2519
H26C H 0.5591 0.4092 0.5230
O5C O 0.34376(15) 1.0388(2) 0.61367(14)
C18C C 0.3353(2) 1.1006(3) 0.5344(2)
C20C C 0.4088(2) 1.1220(3) 0.39607(19)
C22C C 0.4104(2) 1.0628(3) 0.47832(19)
C24C C 0.2571(2) 1.1962(4) 0.5073(2)
H16C H 0.2047 1.2219 0.5448
C26C C 0.3319(2) 1.2179(4) 0.3688(2)
H17C H 0.3309 1.2583 0.3128
C30C C 0.2566(2) 1.2537(4) 0.4247(2)
H20C H 0.2033 1.3188 0.4065
C31C C 0.2635(3) 1.0673(5) 0.6705(2)
H21C H 0.2026 1.0224 0.6471
H22C H 0.2777 1.0171 0.7250
H23C H 0.2552 1.1820 0.6785
H14? H 0.0591 0.0960 0.2852
H28? H 0.4409 0.4092 0.5230
loop_
_geom_bond_atom_site_label_1
_geom_bond_atom_site_label_2
_geom_bond_site_symmetry_1
_geom_bond_site_symmetry_2
O1 C1 1_555 1_555
O2 C5 1_555 1_555
C1 C7 1_555 1_555
C2 H1 1_555 1_555
C3 C4 1_555 1_555
C4 H2 1_555 1_555
C5 C3 1_555 1_555
C6 C7 1_555 1_555
C7 C4 1_555 1_555
C8 C1 1_555 1_555
H3 C8 1_555 1_555
C9 C6 1_555 1_555
C10 C2 1_555 1_555
H4 C10 1_555 1_555
C11 C3 1_555 1_555
C12 H5 1_555 1_555
C13 C11 1_555 1_555
H6 C13 1_555 1_555
C14 C5 1_555 1_555
H7 C14 1_555 1_555
O3 C16 1_555 1_555
C15 O1 1_555 1_555
H8 C15 1_555 1_555
H9 C15 1_555 1_555
C16 C9 1_555 1_555
H10 C16 1_555 1_555
C17 O2 1_555 1_555
H11 C17 1_555 1_555
H12 C17 1_555 1_555
H13 C17 1_555 1_555
O4 C25 1_555 1_555
O5 C18 1_555 1_555
C18 C22 1_555 1_555
C19 H15 1_555 1_555
C20 C22 1_555 1_555
C21 C23 1_555 1_555
C22 C19 1_555 1_555
C23 C19 1_555 1_555
C24 C18 1_555 1_555
H16 C24 1_555 1_555
C25 C23 1_555 1_555
C26 C20 1_555 1_555
H17 C26 1_555 1_555
C27 C20 1_555 1_555
C28 C27 1_555 1_555
H18 C28 1_555 1_555
C29 C21 1_555 1_555
H19 C29 1_555 1_555
O6 C28 1_555 1_555
C30 C24 1_555 1_555
H20 C30 1_555 1_555
C31 O5 1_555 1_555
H21 C31 1_555 1_555
H22 C31 1_555 1_555
H23 C31 1_555 1_555
C32 C25 1_555 1_555
H24 C32 1_555 1_555
C33 O4 1_555 1_555
H25 C33 1_555 1_555
H26 C33 1_555 1_555
C34 C29 1_555 1_555
H27 C34 1_555 1_555
H9C C15 1_555 1_555
O2C C5C 1_555 1_555
C3C C4 1_555 1_555
C5C C3C 1_555 1_555
C11C C9 1_555 1_555
C12C H5C 1_555 1_555
C13C C11C 1_555 1_555
H6C C13C 1_555 1_555
C14C C5C 1_555 1_555
H7C C14C 1_555 1_555
C17C O2C 1_555 1_555
H11C C17C 1_555 1_555
H12C C17C 1_555 1_555
H13C C17C 1_555 1_555
H26C C33 1_555 1_555
O5C C18C 1_555 1_555
C18C C22C 1_555 1_555
C20C C27 1_555 1_555
C22C C19 1_555 1_555
C24C C18C 1_555 1_555
H16C C24C 1_555 1_555
C26C C20C 1_555 1_555
H17C C26C 1_555 1_555
C30C C24C 1_555 1_555
H20C C30C 1_555 1_555
C31C O5C 1_555 1_555
H21C C31C 1_555 1_555
H22C C31C 1_555 1_555
H23C C31C 1_555 1_555
C2 C8 1_555 1_555
C6 C10 1_555 1_555
C9 C11 1_555 1_555
C12 C13 1_555 1_555
C12 C14 1_555 1_555
C21 C27 1_555 1_555
C26 C30 1_555 1_555
C32 C34 1_555 1_555
C3C C11C 1_555 1_555
C12C C13C 1_555 1_555
C12C C14C 1_555 1_555
C20C C22C 1_555 1_555
C26C C30C 1_555 1_555

#END
