
#######################################################################
#
#                 Cambridge Crystallographic Data Centre
#                                CCDC 
#
#######################################################################
#
# If this CIF has been generated from an entry in the Cambridge 
# Structural Database, then it will include bibliographic, chemical, 
# crystal, experimental, refinement or atomic coordinate data resulting 
# from the CCDC's data processing and validation procedures.
#
#######################################################################

data_AWUDIF
_chemical_name_common            'Teaching Subset: Fundamental Chemistry'
_chemical_formula_moiety         'C8 H10 N4'
_chemical_name_systematic        bis(2-Cyanoethyl)aminoacetonitrile
_symmetry_cell_setting           monoclinic
_symmetry_space_group_name_H-M   'P 21/n'
_symmetry_Int_Tables_number      14
_space_group_name_Hall           '-P 2yn'
loop_
_symmetry_equiv_pos_site_id
_symmetry_equiv_pos_as_xyz
1 x,y,z
2 1/2-x,1/2+y,1/2-z
3 -x,-y,-z
4 1/2+x,1/2-y,1/2+z
_cell_length_a                   7.646(12)
_cell_length_b                   14.578(2)
_cell_length_c                   8.341(1)
_cell_angle_alpha                90
_cell_angle_beta                 100.38(1)
_cell_angle_gamma                90
_cell_volume                     914.501
_exptl_crystal_colour            colorless
_exptl_crystal_description       prism
_chemical_melting_point          '48 deg.C'
_cell_formula_units_Z            4
_exptl_crystal_recrystallization_method ethanol
loop_
_atom_site_label
_atom_site_type_symbol
_atom_site_fract_x
_atom_site_fract_y
_atom_site_fract_z
N1 N 0.1866(2) 0.13351(12) 0.7004(2)
N2 N 0.3185(3) 0.09813(14) 1.1501(2)
N3 N 0.6805(2) 0.16467(12) 0.8340(2)
N4 N -0.1774(2) 0.15612(12) 0.4008(2)
C1 C 0.0948(3) 0.05676(14) 0.7614(2)
H1 H 0.0486 0.0162 0.6716
H2 H -0.0051 0.0799 0.8063
C2 C 0.2158(3) 0.00343(15) 0.8904(2)
H3 H 0.1537 -0.0506 0.9186
H4 H 0.3188 -0.0170 0.8471
C3 C 0.2749(3) 0.05721(16) 1.0361(3)
C4 C 0.2903(3) 0.10570(16) 0.5794(3)
H5 H 0.2136 0.1036 0.4733
H6 H 0.3363 0.0444 0.6048
C5 C 0.4433(3) 0.17000(15) 0.5721(3)
H7 H 0.4989 0.1531 0.4805
H8 H 0.3979 0.2320 0.5536
C6 C 0.5765(3) 0.16823(15) 0.7205(3)
C7 C 0.0648(3) 0.20811(14) 0.6442(3)
H9 H 0.1318 0.2593 0.6118
H10 H 0.0090 0.2285 0.7336
C8 C -0.0749(3) 0.18169(14) 0.5053(3)
loop_
_geom_bond_atom_site_label_1
_geom_bond_atom_site_label_2
_geom_bond_site_symmetry_1
_geom_bond_site_symmetry_2
N1 C1 1_555 1_555
N2 C3 1_555 1_555
N3 C6 1_555 1_555
N4 C8 1_555 1_555
C1 H1 1_555 1_555
H2 C1 1_555 1_555
C2 C1 1_555 1_555
H3 C2 1_555 1_555
H4 C2 1_555 1_555
C3 C2 1_555 1_555
C4 N1 1_555 1_555
H5 C4 1_555 1_555
H6 C4 1_555 1_555
C5 C4 1_555 1_555
H7 C5 1_555 1_555
H8 C5 1_555 1_555
C6 C5 1_555 1_555
C7 N1 1_555 1_555
H9 C7 1_555 1_555
H10 C7 1_555 1_555
C8 C7 1_555 1_555

#END
