
#######################################################################
#
#                 Cambridge Crystallographic Data Centre
#                                CCDC 
#
#######################################################################
#
# If this CIF has been generated from an entry in the Cambridge 
# Structural Database, then it will include bibliographic, chemical, 
# crystal, experimental, refinement or atomic coordinate data resulting 
# from the CCDC's data processing and validation procedures.
#
#######################################################################

data_AWUGIJ
_chemical_formula_moiety         'C23 H19 N8 O1 1+,B1 F4 1-'
_chemical_name_systematic        
'2-[(([bis(pyridin-2-yl)methylidene]hydrazinecarbonyl)hydrazinylidene)(pyridin-2-yl)methyl]pyridinium tetrafluoroborate'
_symmetry_cell_setting           triclinic
_symmetry_space_group_name_H-M   'P -1'
_symmetry_Int_Tables_number      2
_space_group_name_Hall           '-P 1'
loop_
_symmetry_equiv_pos_site_id
_symmetry_equiv_pos_as_xyz
1 x,y,z
2 -x,-y,-z
_cell_length_a                   7.9187(16)
_cell_length_b                   10.626(2)
_cell_length_c                   13.623(3)
_cell_angle_alpha                90.03(3)
_cell_angle_beta                 91.50(3)
_cell_angle_gamma                97.85(3)
_cell_volume                     1135.15
_exptl_crystal_colour            colorless
_exptl_crystal_description       block
_cell_formula_units_Z            2
loop_
_atom_site_label
_atom_site_type_symbol
_atom_site_fract_x
_atom_site_fract_y
_atom_site_fract_z
H1 H -0.020(3) 0.896(2) 0.6632(16)
H2 H 0.224(3) 0.592(2) 0.5650(17)
H3 H 0.141(3) 0.567(2) 0.3285(17)
O1 O 0.07813(16) 0.75955(10) 0.40804(8)
N1 N 0.05189(17) 0.93425(12) 0.70991(9)
N2 N 0.16150(16) 0.75693(12) 0.60077(9)
N3 N 0.17522(17) 0.65646(12) 0.54249(9)
N4 N 0.16693(18) 0.56751(12) 0.38758(10)
N5 N 0.15116(17) 0.43582(12) 0.22247(9)
N6 N 0.20613(16) 0.14392(12) 0.42932(9)
N7 N 0.32921(18) 0.55934(13) 0.69471(10)
N8 N 0.21894(16) 0.46491(12) 0.43220(9)
C1 C 0.24217(19) 0.36556(14) 0.38154(11)
C2 C 0.27284(19) 0.65124(14) 0.74875(11)
C3 C 0.22420(19) 0.34758(14) 0.27322(11)
C4 C 0.29165(19) 0.26067(14) 0.44455(11)
C5 C 0.2835(2) 0.24569(15) 0.22615(12)
H4 H 0.3378 0.1878 0.2621
C6 C 0.4159(2) 0.28667(15) 0.51871(11)
H5 H 0.4729 0.3685 0.5276
C7 C 0.2903(2) 0.93506(16) 0.81632(12)
H6 H 0.3817 0.8971 0.8408
C8 C 0.13426(19) 0.66862(14) 0.44403(11)
C9 C 0.4535(2) 0.18811(15) 0.57937(11)
H7 H 0.5366 0.2026 0.6291
C10 C 0.1830(2) 0.87492(14) 0.74368(11)
C11 C 0.3646(2) 0.06836(15) 0.56384(11)
H8 H 0.3867 0.0008 0.6033
C12 C 0.2753(2) 0.64769(16) 0.85125(12)
H9 H 0.2326 0.7102 0.8871
C13 C 0.2421(2) 0.05004(14) 0.48887(11)
H10 H 0.1821 -0.0308 0.4794
C14 C 0.20552(19) 0.75424(14) 0.69332(11)
C15 C 0.3918(2) 0.46578(17) 0.74277(13)
H11 H 0.4309 0.4025 0.7059
C16 C 0.0211(2) 1.04672(15) 0.74398(12)
H12 H -0.0712 1.0831 0.7189
C17 C 0.1328(2) 0.42228(16) 0.12492(12)
H13 H 0.0845 0.4838 0.0896
C18 C 0.1824(2) 0.32125(17) 0.07416(12)
H14 H 0.1634 0.3135 0.0066
C19 C 0.3423(2) 0.54963(16) 0.89862(12)
H15 H 0.3467 0.5465 0.9669
C20 C 0.4023(2) 0.45699(16) 0.84425(13)
H16 H 0.4485 0.3905 0.8745
C21 C 0.2605(2) 0.23194(16) 0.12549(12)
H17 H 0.2970 0.1639 0.0930
C22 C 0.1261(2) 1.10889(17) 0.81633(13)
H18 H 0.1061 1.1874 0.8401
C23 C 0.2611(2) 1.05221(18) 0.85257(13)
H19 H 0.3330 1.0925 0.9015
B1 B 0.2959(3) 0.8076(2) 0.10945(17)
F1 F 0.3407(2) 0.7618(2) 0.20065(11)
F2 F 0.42071(15) 0.78336(12) 0.04479(8)
F3 F 0.14286(17) 0.73994(14) 0.07990(12)
F4 F 0.2908(2) 0.93300(14) 0.11734(17)
loop_
_geom_bond_atom_site_label_1
_geom_bond_atom_site_label_2
_geom_bond_site_symmetry_1
_geom_bond_site_symmetry_2
H1 N1 1_555 1_555
H2 N3 1_555 1_555
H3 N4 1_555 1_555
O1 C8 1_555 1_555
N1 C10 1_555 1_555
N2 N3 1_555 1_555
N3 C8 1_555 1_555
N4 N8 1_555 1_555
N5 C3 1_555 1_555
N6 C4 1_555 1_555
N7 C2 1_555 1_555
N8 C1 1_555 1_555
C1 C3 1_555 1_555
C2 C12 1_555 1_555
C3 C5 1_555 1_555
C4 C1 1_555 1_555
C5 H4 1_555 1_555
C6 C4 1_555 1_555
H5 C6 1_555 1_555
C7 H6 1_555 1_555
C8 N4 1_555 1_555
C9 C6 1_555 1_555
H7 C9 1_555 1_555
C10 C7 1_555 1_555
C11 C9 1_555 1_555
H8 C11 1_555 1_555
C12 H9 1_555 1_555
C13 N6 1_555 1_555
H10 C13 1_555 1_555
C14 N2 1_555 1_555
C15 N7 1_555 1_555
H11 C15 1_555 1_555
C16 N1 1_555 1_555
H12 C16 1_555 1_555
C17 N5 1_555 1_555
H13 C17 1_555 1_555
C18 C17 1_555 1_555
H14 C18 1_555 1_555
C19 C12 1_555 1_555
H15 C19 1_555 1_555
C20 C15 1_555 1_555
H16 C20 1_555 1_555
C21 C5 1_555 1_555
H17 C21 1_555 1_555
C22 C16 1_555 1_555
H18 C22 1_555 1_555
C23 C7 1_555 1_555
H19 C23 1_555 1_555
B1 F1 1_555 1_555
F2 B1 1_555 1_555
F3 B1 1_555 1_555
F4 B1 1_555 1_555
C2 C14 1_555 1_555
C10 C14 1_555 1_555
C11 C13 1_555 1_555
C18 C21 1_555 1_555
C19 C20 1_555 1_555
C22 C23 1_555 1_555

#END
