
#######################################################################
#
#                 Cambridge Crystallographic Data Centre
#                                CCDC 
#
#######################################################################
#
# If this CIF has been generated from an entry in the Cambridge 
# Structural Database, then it will include bibliographic, chemical, 
# crystal, experimental, refinement or atomic coordinate data resulting 
# from the CCDC's data processing and validation procedures.
#
#######################################################################

data_AWUHUW
_chemical_formula_moiety         'C19 H20 F3 N1 O1 S1'
_chemical_name_systematic        
9-(3-(Dimethylamino)propyl)-2-(trifluoromethyl)-9H-thioxanthen-9-ol
_symmetry_cell_setting           monoclinic
_symmetry_space_group_name_H-M   'P 21/n'
_symmetry_Int_Tables_number      14
_space_group_name_Hall           '-P 2yn'
loop_
_symmetry_equiv_pos_site_id
_symmetry_equiv_pos_as_xyz
1 x,y,z
2 1/2-x,1/2+y,1/2-z
3 -x,-y,-z
4 1/2+x,1/2-y,1/2+z
_cell_length_a                   7.6183(3)
_cell_length_b                   13.9605(4)
_cell_length_c                   17.4172(7)
_cell_angle_alpha                90
_cell_angle_beta                 101.053(4)
_cell_angle_gamma                90
_cell_volume                     1818.05
_exptl_crystal_colour            'pale yellow'
_exptl_crystal_description       block
_cell_formula_units_Z            4
loop_
_atom_site_label
_atom_site_type_symbol
_atom_site_fract_x
_atom_site_fract_y
_atom_site_fract_z
S1 S 0.74858(6) 0.83313(3) 0.17618(2)
F1 F 0.6729(8) 0.6443(4) 0.5165(2)
F2 F 0.9343(6) 0.5995(5) 0.5119(4)
F3 F 0.7169(10) 0.5137(4) 0.4572(4)
O1 O 0.50685(14) 0.54112(7) 0.18448(6)
H1 H 0.408(3) 0.5332(16) 0.2017(13)
N1 N 0.19359(19) 0.52532(10) 0.23591(10)
C1 C 0.54324(17) 0.63994(9) 0.17934(8)
C2 C 0.65553(17) 0.67633(9) 0.25587(8)
C3 C 0.66939(18) 0.62297(10) 0.32396(8)
H2 H 0.6162 0.5612 0.3220
C4 C 0.7599(2) 0.65865(11) 0.39484(9)
C5 C 0.8404(2) 0.74815(12) 0.39867(10)
H3 H 0.8989 0.7732 0.4476
C6 C 0.8350(2) 0.80039(12) 0.33140(10)
H4 H 0.8935 0.8607 0.3334
C7 C 0.74356(18) 0.76466(10) 0.26013(9)
C8 C 0.7353(2) 0.74071(11) 0.10656(9)
C9 C 0.8206(3) 0.75615(14) 0.04376(11)
H5 H 0.8784 0.8155 0.0388
C10 C 0.8210(3) 0.68539(17) -0.01102(12)
H6 H 0.8778 0.6962 -0.0543
C11 C 0.7391(3) 0.59858(16) -0.00345(11)
H7 H 0.7412 0.5494 -0.0410
C12 C 0.6541(2) 0.58328(13) 0.05899(9)
H8 H 0.5992 0.5231 0.0642
C13 C 0.64777(18) 0.65429(10) 0.11405(8)
C14 C 0.7655(3) 0.60126(14) 0.46712(10)
C15 C 0.36815(18) 0.69875(11) 0.15859(9)
H9 H 0.4009 0.7658 0.1494
H10 H 0.2994 0.6740 0.1085
C16 C 0.2439(2) 0.69987(11) 0.21787(11)
H11 H 0.3181 0.6992 0.2712
H12 H 0.1758 0.7607 0.2119
C17 C 0.1118(2) 0.61725(12) 0.21095(12)
H13 H 0.0208 0.6320 0.2429
H14 H 0.0494 0.6119 0.1558
C18 C 0.2274(12) 0.5222(12) 0.3225(4)
H15 H 0.3144 0.5718 0.3435
H16 H 0.2749 0.4591 0.3404
H17 H 0.1153 0.5336 0.3407
C19 C 0.0843(17) 0.4459(7) 0.2028(8)
H18 H 0.0712 0.4470 0.1457
H19 H -0.0339 0.4509 0.2169
H20 H 0.1412 0.3857 0.2232
C20? C 0.224(3) 0.5017(14) 0.3172(8)
C21? C 0.061(2) 0.4530(13) 0.1931(10)
F4? F 0.6033(13) 0.6017(10) 0.4888(7)
F5? F 0.5941(16) 0.5562(12) 0.4648(6)
F6? F 0.8891(19) 0.6238(7) 0.5244(5)
F7? F 0.785(3) 0.6465(10) 0.5293(6)
F8? F 0.7863(16) 0.5067(7) 0.4533(7)
F9? F 0.864(2) 0.5254(12) 0.4705(10)
H21? H 0.2296 0.4320 0.3234
H22? H 0.1268 0.5272 0.3406
H23? H 0.3380 0.5298 0.3435
H24? H 0.0576 0.4581 0.1367
H25? H -0.0578 0.4659 0.2041
H26? H 0.0989 0.3882 0.2108
loop_
_geom_bond_atom_site_label_1
_geom_bond_atom_site_label_2
_geom_bond_site_symmetry_1
_geom_bond_site_symmetry_2
S1 C7 1_555 1_555
F1 C14 1_555 1_555
F2 C14 1_555 1_555
F3 C14 1_555 1_555
O1 H1 1_555 1_555
N1 C17 1_555 1_555
C1 O1 1_555 1_555
C2 C1 1_555 1_555
C3 C2 1_555 1_555
H2 C3 1_555 1_555
C4 C3 1_555 1_555
C5 C4 1_555 1_555
H3 C5 1_555 1_555
C6 C5 1_555 1_555
H4 C6 1_555 1_555
C7 C2 1_555 1_555
C8 S1 1_555 1_555
C9 C8 1_555 1_555
H5 C9 1_555 1_555
C10 C9 1_555 1_555
H6 C10 1_555 1_555
C11 C10 1_555 1_555
H7 C11 1_555 1_555
C12 C11 1_555 1_555
H8 C12 1_555 1_555
C13 C1 1_555 1_555
C14 C4 1_555 1_555
C15 C1 1_555 1_555
H9 C15 1_555 1_555
H10 C15 1_555 1_555
C16 C15 1_555 1_555
H11 C16 1_555 1_555
H12 C16 1_555 1_555
C17 C16 1_555 1_555
H13 C17 1_555 1_555
H14 C17 1_555 1_555
C18 N1 1_555 1_555
H15 C18 1_555 1_555
H16 C18 1_555 1_555
H17 C18 1_555 1_555
C19 N1 1_555 1_555
H18 C19 1_555 1_555
H19 C19 1_555 1_555
H20 C19 1_555 1_555
C6 C7 1_555 1_555
C8 C13 1_555 1_555
C12 C13 1_555 1_555

#END
