
#######################################################################
#
#                 Cambridge Crystallographic Data Centre
#                                CCDC 
#
#######################################################################
#
# If this CIF has been generated from an entry in the Cambridge 
# Structural Database, then it will include bibliographic, chemical, 
# crystal, experimental, refinement or atomic coordinate data resulting 
# from the CCDC's data processing and validation procedures.
#
#######################################################################

data_AWUJAE
_chemical_name_common            
'Ethyl 2-(3-hydroxybenzylidene)hydrazinecarboxylate dihydrate'
_chemical_formula_moiety         'C10 H12 N2 O3,2(H2 O1)'
_chemical_name_systematic        
"(E)-Ethyl N'-(3-hydroxybenzylidene)hydrazinecarboxylate dihydrate"
_symmetry_cell_setting           monoclinic
_symmetry_space_group_name_H-M   'P 21/c'
_symmetry_Int_Tables_number      14
_space_group_name_Hall           '-P 2ybc'
loop_
_symmetry_equiv_pos_site_id
_symmetry_equiv_pos_as_xyz
1 x,y,z
2 -x,1/2+y,1/2-z
3 -x,-y,-z
4 x,1/2-y,1/2+z
_cell_length_a                   12.8074(10)
_cell_length_b                   21.9101(18)
_cell_length_c                   8.9048(7)
_cell_angle_alpha                90
_cell_angle_beta                 96.490(3)
_cell_angle_gamma                90
_cell_volume                     2482.78
_exptl_crystal_colour            colorless
_exptl_crystal_description       block
_cell_formula_units_Z            8
loop_
_atom_site_label
_atom_site_type_symbol
_atom_site_fract_x
_atom_site_fract_y
_atom_site_fract_z
C1 C -0.09028(17) 0.12370(9) 1.3239(3)
H1 H -0.1020 0.0806 1.3319
H2 H -0.1545 0.1434 1.2842
H3 H -0.0670 0.1400 1.4221
C2 C 0.28335(13) 0.39669(8) 0.9118(2)
H12 H 0.2871 0.3558 0.8849
C3 C 0.34613(13) 0.43925(8) 0.8508(2)
C4 C 0.33908(16) 0.49999(8) 0.8888(3)
H13 H 0.3813 0.5287 0.8480
C5 C 0.26972(18) 0.51811(9) 0.9868(3)
H14 H 0.2646 0.5592 1.0112
C6 C 0.20760(16) 0.47581(8) 1.0491(3)
H15 H 0.1608 0.4884 1.1155
C7 C 0.21479(13) 0.41483(7) 1.0130(2)
C8 C 0.14945(14) 0.37163(8) 1.0848(2)
H16 H 0.1046 0.3868 1.1511
C9 C 0.07698(13) 0.22053(8) 1.1273(2)
C10 C -0.00809(14) 0.13484(8) 1.2203(2)
H17 H 0.0575 0.1155 1.2595
H18 H -0.0303 0.1183 1.1207
N1 N 0.15055(11) 0.31441(6) 1.06170(17)
N2 N 0.08175(12) 0.28158(7) 1.13816(19)
H29 H 0.0413 0.3004 1.1936
O5 O 0.12881(11) 0.18908(6) 1.05295(17)
O6 O 0.00520(9) 0.20017(5) 1.21202(15)
O7 O 0.41697(10) 0.42375(6) 0.75455(16)
H31 H 0.4154 0.3867 0.7409
O1 O 0.42004(14) 0.30255(7) 0.7045(2)
H5 H 0.387(2) 0.2930(13) 0.621(4)
H6 H 0.386(2) 0.2811(13) 0.772(3)
O2 O 0.68695(13) 0.73071(8) 0.58510(19)
H4 H 0.694(2) 0.6903(13) 0.607(3)
H7 H 0.745(2) 0.7398(11) 0.554(3)
O3 O 0.14922(13) 0.05421(8) 1.0133(2)
H8 H 0.213(3) 0.0450(13) 0.989(3)
H10 H 0.150(2) 0.0953(15) 1.023(3)
O4 O 0.98022(17) 0.48067(8) 0.3000(2)
H9 H 0.938(3) 0.5007(15) 0.341(3)
H11 H 1.041(5) 0.472(3) 0.374(6)
C11 C 0.77878(13) 0.39363(8) 0.4056(2)
H19 H 0.7901 0.4350 0.3906
C12 C 0.83693(13) 0.35064(8) 0.3377(2)
C13 C 0.81986(16) 0.28929(9) 0.3588(3)
H20 H 0.8588 0.2605 0.3125
C14 C 0.74537(18) 0.27088(9) 0.4480(3)
H21 H 0.7341 0.2295 0.4623
C15 C 0.68699(16) 0.31331(8) 0.5169(3)
H22 H 0.6365 0.3004 0.5773
C16 C 0.70352(13) 0.37501(8) 0.4961(2)
C17 C 0.64060(14) 0.41813(8) 0.5720(2)
H23 H 0.5858 0.4029 0.6212
C18 C 0.59999(13) 0.56870(8) 0.6705(2)
C19 C 0.52938(14) 0.65317(8) 0.7918(2)
H24 H 0.5111 0.6780 0.7025
H25 H 0.5992 0.6646 0.8366
C20 C 0.45141(16) 0.66243(9) 0.9025(3)
H26 H 0.4511 0.7046 0.9317
H27 H 0.4704 0.6376 0.9902
H28 H 0.3827 0.6510 0.8567
N3 N 0.65632(10) 0.47535(6) 0.57456(16)
N4 N 0.58747(11) 0.50831(6) 0.65046(18)
H30 H 0.5359 0.4901 0.6854
O8 O 0.66657(10) 0.59992(5) 0.62166(16)
O9 O 0.52645(9) 0.58923(5) 0.75261(16)
O10 O 0.91245(10) 0.36631(6) 0.24827(17)
H32 H 0.9188 0.4035 0.2474
loop_
_geom_bond_atom_site_label_1
_geom_bond_atom_site_label_2
_geom_bond_site_symmetry_1
_geom_bond_site_symmetry_2
C1 H1 1_555 1_555
H2 C1 1_555 1_555
H3 C1 1_555 1_555
O1 H5 1_555 1_555
O2 H4 1_555 1_555
O3 H8 1_555 1_555
O4 H9 1_555 1_555
H6 O1 1_555 1_555
H7 O2 1_555 1_555
H10 O3 1_555 1_555
H11 O4 1_555 1_555
C2 H12 1_555 1_555
C3 C2 1_555 1_555
C4 C3 1_555 1_555
H13 C4 1_555 1_555
C5 C4 1_555 1_555
H14 C5 1_555 1_555
C6 C5 1_555 1_555
H15 C6 1_555 1_555
C7 C2 1_555 1_555
C8 C7 1_555 1_555
H16 C8 1_555 1_555
C9 N2 1_555 1_555
C10 C1 1_555 1_555
H17 C10 1_555 1_555
H18 C10 1_555 1_555
C11 H19 1_555 1_555
C12 C11 1_555 1_555
C13 C12 1_555 1_555
H20 C13 1_555 1_555
C14 C13 1_555 1_555
H21 C14 1_555 1_555
C15 C14 1_555 1_555
H22 C15 1_555 1_555
C16 C11 1_555 1_555
C17 C16 1_555 1_555
H23 C17 1_555 1_555
C18 N4 1_555 1_555
C19 H24 1_555 1_555
H25 C19 1_555 1_555
C20 C19 1_555 1_555
H26 C20 1_555 1_555
H27 C20 1_555 1_555
H28 C20 1_555 1_555
N1 C8 1_555 1_555
N2 N1 1_555 1_555
H29 N2 1_555 1_555
N3 C17 1_555 1_555
N4 N3 1_555 1_555
H30 N4 1_555 1_555
O5 C9 1_555 1_555
O6 C9 1_555 1_555
O7 C3 1_555 1_555
H31 O7 1_555 1_555
O8 C18 1_555 1_555
O9 C18 1_555 1_555
O10 C12 1_555 1_555
H32 O10 1_555 1_555
C6 C7 1_555 1_555
C10 O6 1_555 1_555
C15 C16 1_555 1_555
C19 O9 1_555 1_555

#END
