
#######################################################################
#
#                 Cambridge Crystallographic Data Centre
#                                CCDC 
#
#######################################################################
#
# If this CIF has been generated from an entry in the Cambridge 
# Structural Database, then it will include bibliographic, chemical, 
# crystal, experimental, refinement or atomic coordinate data resulting 
# from the CCDC's data processing and validation procedures.
#
#######################################################################

data_AWUKOU
_chemical_formula_moiety         'C24 H15 B1 F5 N1'
_chemical_name_systematic        
6-(pentafluorophenyl)-6-phenyl-6,7-dihydro-5,6-pyrido[2,1-a][2,3]benzazaborinine
_symmetry_cell_setting           monoclinic
_symmetry_space_group_name_H-M   'P 21/c'
_symmetry_Int_Tables_number      14
_space_group_name_Hall           '-P 2ybc'
loop_
_symmetry_equiv_pos_site_id
_symmetry_equiv_pos_as_xyz
1 x,y,z
2 -x,1/2+y,1/2-z
3 -x,-y,-z
4 x,1/2-y,1/2+z
_cell_length_a                   13.8288(5)
_cell_length_b                   8.7441(3)
_cell_length_c                   17.1220(6)
_cell_angle_alpha                90
_cell_angle_beta                 111.064(2)
_cell_angle_gamma                90
_cell_volume                     1932.05
_exptl_crystal_colour            colorless
_exptl_crystal_description       plate
_cell_formula_units_Z            4
loop_
_atom_site_label
_atom_site_type_symbol
_atom_site_fract_x
_atom_site_fract_y
_atom_site_fract_z
B1 B 0.28045(14) 0.2512(2) 0.93177(12)
N1 N 0.27149(11) 0.43707(16) 0.92133(9)
F1 F 0.33385(8) 0.01050(12) 1.06604(7)
F2 F 0.21987(10) -0.07530(16) 1.15295(8)
F3 F 0.03753(10) 0.06380(18) 1.13291(8)
F4 F -0.03265(9) 0.28864(16) 1.01700(8)
F5 F 0.07762(8) 0.37746(14) 0.92751(8)
C1 C 0.40378(13) 0.2274(2) 0.97614(11)
H1 H 0.4187 0.1194 0.9868
H2 H 0.4379 0.2623 0.9388
C2 C 0.44542(13) 0.3132(2) 1.05646(11)
C3 C 0.52096(14) 0.2537(3) 1.12780(12)
H3 H 0.5462 0.1556 1.1262
C4 C 0.55911(18) 0.3372(3) 1.20075(14)
H4 H 0.6097 0.2953 1.2477
C5 C 0.52264(18) 0.4820(3) 1.20432(14)
H5 H 0.5490 0.5384 1.2535
C6 C 0.44682(16) 0.5440(3) 1.13497(13)
H6 H 0.4217 0.6416 1.1379
C7 C 0.40764(13) 0.4607(2) 1.06038(12)
C8 C 0.32996(13) 0.5295(2) 0.98486(12)
C9 C 0.31690(17) 0.6862(2) 0.97596(15)
H7 H 0.3561 0.7501 1.0192
C10 C 0.24697(18) 0.7492(2) 0.90427(17)
H8 H 0.2379 0.8546 0.8994
C11 C 0.19075(17) 0.6548(2) 0.83999(15)
H9 H 0.1440 0.6949 0.7905
C12 C 0.20526(14) 0.5000(2) 0.85056(12)
H10 H 0.1677 0.4357 0.8069
C13 C 0.21424(13) 0.20264(19) 0.99193(10)
C14 C 0.24332(13) 0.0871(2) 1.05050(11)
C15 C 0.18577(16) 0.0389(2) 1.09698(12)
C16 C 0.09333(16) 0.1077(3) 1.08688(12)
C17 C 0.05896(14) 0.2212(2) 1.02936(12)
C18 C 0.11904(14) 0.2654(2) 0.98394(11)
C19 C 0.23296(12) 0.17054(18) 0.84107(11)
C20 C 0.28980(14) 0.1608(2) 0.78872(12)
H11 H 0.3553 0.2050 0.8060
C21 C 0.25289(16) 0.0881(3) 0.71209(13)
H12 H 0.2930 0.0856 0.6786
C22 C 0.15707(15) 0.0193(2) 0.68500(12)
H13 H 0.1329 -0.0328 0.6343
C23 C 0.09816(15) 0.0288(2) 0.73379(12)
H14 H 0.0324 -0.0147 0.7156
C24 C 0.13574(14) 0.1027(2) 0.81020(12)
H15 H 0.0941 0.1072 0.8424
loop_
_geom_bond_atom_site_label_1
_geom_bond_atom_site_label_2
_geom_bond_site_symmetry_1
_geom_bond_site_symmetry_2
B1 N1 1_555 1_555
N1 C8 1_555 1_555
F1 C14 1_555 1_555
F2 C15 1_555 1_555
F3 C16 1_555 1_555
F4 C17 1_555 1_555
F5 C18 1_555 1_555
C1 B1 1_555 1_555
H1 C1 1_555 1_555
H2 C1 1_555 1_555
C2 C1 1_555 1_555
C3 C2 1_555 1_555
H3 C3 1_555 1_555
C4 C3 1_555 1_555
H4 C4 1_555 1_555
C5 C4 1_555 1_555
H5 C5 1_555 1_555
C6 C5 1_555 1_555
H6 C6 1_555 1_555
C7 C2 1_555 1_555
C8 C7 1_555 1_555
C9 C8 1_555 1_555
H7 C9 1_555 1_555
C10 C9 1_555 1_555
H8 C10 1_555 1_555
C11 C10 1_555 1_555
H9 C11 1_555 1_555
C12 N1 1_555 1_555
H10 C12 1_555 1_555
C13 B1 1_555 1_555
C14 C13 1_555 1_555
C15 C14 1_555 1_555
C16 C15 1_555 1_555
C17 C16 1_555 1_555
C18 C13 1_555 1_555
C19 B1 1_555 1_555
C20 C19 1_555 1_555
H11 C20 1_555 1_555
C21 C20 1_555 1_555
H12 C21 1_555 1_555
C22 C21 1_555 1_555
H13 C22 1_555 1_555
C23 C22 1_555 1_555
H14 C23 1_555 1_555
C24 C19 1_555 1_555
H15 C24 1_555 1_555
C6 C7 1_555 1_555
C11 C12 1_555 1_555
C17 C18 1_555 1_555
C23 C24 1_555 1_555

#END
