
#######################################################################
#
#                 Cambridge Crystallographic Data Centre
#                                CCDC 
#
#######################################################################
#
# If this CIF has been generated from an entry in the Cambridge 
# Structural Database, then it will include bibliographic, chemical, 
# crystal, experimental, refinement or atomic coordinate data resulting 
# from the CCDC's data processing and validation procedures.
#
#######################################################################

data_AWULOV
_chemical_formula_moiety         'C42 H56 B1 N1'
_chemical_name_systematic        
6,6-bis(2,4,6-triisopropylphenyl)-6,7-dihydro-5,6-pyrido[2,1-a][2,3]benzazaborinine
_symmetry_cell_setting           monoclinic
_symmetry_space_group_name_H-M   'P 21/c'
_symmetry_Int_Tables_number      14
_space_group_name_Hall           '-P 2ybc'
loop_
_symmetry_equiv_pos_site_id
_symmetry_equiv_pos_as_xyz
1 x,y,z
2 -x,1/2+y,1/2-z
3 -x,-y,-z
4 x,1/2-y,1/2+z
_cell_length_a                   11.2750(4)
_cell_length_b                   18.5252(6)
_cell_length_c                   17.7958(6)
_cell_angle_alpha                90
_cell_angle_beta                 98.066(2)
_cell_angle_gamma                90
_cell_volume                     3680.27
_exptl_crystal_description       block
_cell_formula_units_Z            4
loop_
_atom_site_label
_atom_site_type_symbol
_atom_site_fract_x
_atom_site_fract_y
_atom_site_fract_z
B1 B 0.74707(15) 0.31312(9) 0.24851(9)
N1 N 0.76656(10) 0.23813(7) 0.30231(7)
C1 C 0.63572(14) 0.28503(8) 0.18617(8)
H1 H 0.5679 0.2728 0.2118
H2 H 0.6112 0.3233 0.1501
C2 C 0.67274(13) 0.22009(8) 0.14486(9)
C3 C 0.65285(15) 0.21220(9) 0.06658(9)
H3 H 0.6184 0.2500 0.0367
C4 C 0.68330(16) 0.14907(10) 0.03201(10)
H4 H 0.6702 0.1451 -0.0206
C5 C 0.73297(16) 0.09227(10) 0.07563(10)
H5 H 0.7528 0.0497 0.0526
C6 C 0.75312(15) 0.09883(9) 0.15336(10)
H6 H 0.7859 0.0603 0.1828
C7 C 0.72481(13) 0.16289(8) 0.18864(9)
C8 C 0.75020(13) 0.17070(8) 0.27147(9)
C9 C 0.76147(17) 0.11115(9) 0.31919(10)
H7 H 0.7487 0.0652 0.2985
C10 C 0.79102(19) 0.11859(10) 0.39623(11)
H8 H 0.8009 0.0781 0.4274
C11 C 0.80582(16) 0.18648(9) 0.42660(10)
H9 H 0.8250 0.1931 0.4787
C12 C 0.79166(13) 0.24444(9) 0.37831(8)
H10 H 0.7998 0.2905 0.3991
C13 C 0.85893(13) 0.33091(8) 0.19805(8)
C14 C 0.96774(14) 0.29260(8) 0.19496(8)
C15 C 1.04568(15) 0.31308(9) 0.14433(9)
H11 H 1.1146 0.2858 0.1429
C16 C 1.02589(15) 0.37156(9) 0.09634(9)
C17 C 0.92238(15) 0.41015(9) 0.10019(9)
H12 H 0.9070 0.4504 0.0692
C18 C 0.83933(14) 0.39177(8) 0.14842(8)
C19 C 0.73155(15) 0.44243(8) 0.14480(9)
H13 H 0.6794 0.4237 0.1800
C20 C 0.76884(19) 0.51890(9) 0.17055(11)
H14 H 0.8084 0.5176 0.2219
H15 H 0.6990 0.5490 0.1677
H16 H 0.8225 0.5381 0.1382
C21 C 0.65759(18) 0.44487(11) 0.06540(10)
H17 H 0.6379 0.3966 0.0484
H18 H 0.7035 0.4679 0.0307
H19 H 0.5852 0.4716 0.0675
C22 C 1.11689(17) 0.39239(11) 0.04464(10)
H20 H 1.0864 0.4350 0.0155
C23 C 1.23644(19) 0.41216(12) 0.09031(12)
H21 H 1.2246 0.4491 0.1264
H22 H 1.2896 0.4296 0.0567
H23 H 1.2707 0.3703 0.1167
C24 C 1.1352(2) 0.33262(14) -0.01136(11)
H24 H 1.1927 0.3480 -0.0430
H25 H 1.0604 0.3222 -0.0424
H26 H 1.1640 0.2900 0.0160
C25 C 1.01545(14) 0.22839(8) 0.24438(9)
H27 H 0.9566 0.2167 0.2782
C26 C 1.13468(15) 0.24438(10) 0.29332(10)
H28 H 1.1248 0.2839 0.3268
H29 H 1.1933 0.2569 0.2613
H30 H 1.1610 0.2024 0.3227
C27 C 1.03143(17) 0.16157(10) 0.19572(12)
H31 H 1.0412 0.1196 0.2276
H32 H 1.1011 0.1676 0.1709
H33 H 0.9620 0.1557 0.1583
C28 C 0.72698(13) 0.38195(8) 0.30702(8)
C29 C 0.61307(13) 0.41334(8) 0.31592(8)
C30 C 0.60715(14) 0.48036(9) 0.35090(9)
H34 H 0.5320 0.4996 0.3546
C31 C 0.70740(14) 0.51976(8) 0.38040(8)
C32 C 0.81614(14) 0.48635(8) 0.37981(8)
H35 H 0.8849 0.5095 0.4030
C33 C 0.82795(13) 0.41897(8) 0.34576(8)
C34 C 0.95535(13) 0.38949(8) 0.35549(8)
H36 H 0.9530 0.3417 0.3318
C35 C 1.00503(15) 0.38044(10) 0.43997(9)
H37 H 0.9486 0.3539 0.4649
H38 H 1.0179 0.4271 0.4631
H39 H 1.0795 0.3546 0.4447
C36 C 1.04045(15) 0.43688(9) 0.31709(10)
H40 H 1.0137 0.4385 0.2635
H41 H 1.1198 0.4170 0.3261
H42 H 1.0412 0.4848 0.3376
C37 C 0.69846(15) 0.59590(9) 0.41059(9)
H43 H 0.7802 0.6145 0.4230
C38 C 0.63194(17) 0.64559(10) 0.35021(11)
H44 H 0.6683 0.6426 0.3046
H45 H 0.6362 0.6944 0.3685
H46 H 0.5496 0.6310 0.3396
C39 C 0.64060(19) 0.59828(10) 0.48299(11)
H47 H 0.6883 0.5710 0.5220
H48 H 0.5616 0.5779 0.4733
H49 H 0.6354 0.6475 0.4992
C40 C 0.49410(13) 0.37533(9) 0.28930(9)
H50 H 0.4959 0.3595 0.2369
C41 C 0.48120(15) 0.30751(10) 0.33710(10)
H51 H 0.4107 0.2815 0.3161
H52 H 0.4746 0.3214 0.3883
H53 H 0.5503 0.2773 0.3367
C42 C 0.38272(15) 0.42205(10) 0.28933(11)
H54 H 0.3899 0.4647 0.2596
H55 H 0.3750 0.4356 0.3405
H56 H 0.3132 0.3953 0.2680
loop_
_geom_bond_atom_site_label_1
_geom_bond_atom_site_label_2
_geom_bond_site_symmetry_1
_geom_bond_site_symmetry_2
B1 N1 1_555 1_555
N1 C8 1_555 1_555
C1 B1 1_555 1_555
H1 C1 1_555 1_555
H2 C1 1_555 1_555
C2 C1 1_555 1_555
C3 C2 1_555 1_555
H3 C3 1_555 1_555
C4 C3 1_555 1_555
H4 C4 1_555 1_555
C5 C4 1_555 1_555
H5 C5 1_555 1_555
C6 C5 1_555 1_555
H6 C6 1_555 1_555
C7 C2 1_555 1_555
C8 C7 1_555 1_555
C9 C8 1_555 1_555
H7 C9 1_555 1_555
C10 C9 1_555 1_555
H8 C10 1_555 1_555
C11 C10 1_555 1_555
H9 C11 1_555 1_555
C12 N1 1_555 1_555
H10 C12 1_555 1_555
C13 B1 1_555 1_555
C14 C13 1_555 1_555
C15 C14 1_555 1_555
H11 C15 1_555 1_555
C16 C15 1_555 1_555
C17 C16 1_555 1_555
H12 C17 1_555 1_555
C18 C13 1_555 1_555
C19 C18 1_555 1_555
H13 C19 1_555 1_555
C20 C19 1_555 1_555
H14 C20 1_555 1_555
H15 C20 1_555 1_555
H16 C20 1_555 1_555
C21 C19 1_555 1_555
H17 C21 1_555 1_555
H18 C21 1_555 1_555
H19 C21 1_555 1_555
C22 C16 1_555 1_555
H20 C22 1_555 1_555
C23 C22 1_555 1_555
H21 C23 1_555 1_555
H22 C23 1_555 1_555
H23 C23 1_555 1_555
C24 C22 1_555 1_555
H24 C24 1_555 1_555
H25 C24 1_555 1_555
H26 C24 1_555 1_555
C25 C14 1_555 1_555
H27 C25 1_555 1_555
C26 C25 1_555 1_555
H28 C26 1_555 1_555
H29 C26 1_555 1_555
H30 C26 1_555 1_555
C27 C25 1_555 1_555
H31 C27 1_555 1_555
H32 C27 1_555 1_555
H33 C27 1_555 1_555
C28 B1 1_555 1_555
C29 C28 1_555 1_555
C30 C29 1_555 1_555
H34 C30 1_555 1_555
C31 C30 1_555 1_555
C32 C31 1_555 1_555
H35 C32 1_555 1_555
C33 C28 1_555 1_555
C34 C33 1_555 1_555
H36 C34 1_555 1_555
C35 C34 1_555 1_555
H37 C35 1_555 1_555
H38 C35 1_555 1_555
H39 C35 1_555 1_555
C36 C34 1_555 1_555
H40 C36 1_555 1_555
H41 C36 1_555 1_555
H42 C36 1_555 1_555
C37 C31 1_555 1_555
H43 C37 1_555 1_555
C38 C37 1_555 1_555
H44 C38 1_555 1_555
H45 C38 1_555 1_555
H46 C38 1_555 1_555
C39 C37 1_555 1_555
H47 C39 1_555 1_555
H48 C39 1_555 1_555
H49 C39 1_555 1_555
C40 C29 1_555 1_555
H50 C40 1_555 1_555
C41 C40 1_555 1_555
H51 C41 1_555 1_555
H52 C41 1_555 1_555
H53 C41 1_555 1_555
C42 C40 1_555 1_555
H54 C42 1_555 1_555
H55 C42 1_555 1_555
H56 C42 1_555 1_555
C6 C7 1_555 1_555
C11 C12 1_555 1_555
C17 C18 1_555 1_555
C32 C33 1_555 1_555

#END
