
#######################################################################
#
#                 Cambridge Crystallographic Data Centre
#                                CCDC 
#
#######################################################################
#
# If this CIF has been generated from an entry in the Cambridge 
# Structural Database, then it will include bibliographic, chemical, 
# crystal, experimental, refinement or atomic coordinate data resulting 
# from the CCDC's data processing and validation procedures.
#
#######################################################################

data_AWULUA
_chemical_name_common            
1,4-bis[(2-ethyl-1H-benzimidazol-1-yl)methyl]benzene
_chemical_formula_moiety         'C26 H26 N4'
_chemical_name_systematic        
1,1'-(1,4-Phenylenebis(methylene))bis(2-ethyl-1H-benzimidazole)
_symmetry_cell_setting           orthorhombic
_symmetry_space_group_name_H-M   'P 21 21 21'
_symmetry_Int_Tables_number      19
_space_group_name_Hall           'P 2ac 2ab'
loop_
_symmetry_equiv_pos_site_id
_symmetry_equiv_pos_as_xyz
1 x,y,z
2 1/2-x,-y,1/2+z
3 1/2+x,1/2-y,-z
4 -x,1/2+y,1/2-z
_cell_length_a                   10.300(2)
_cell_length_b                   11.437(2)
_cell_length_c                   17.809(4)
_cell_angle_alpha                90
_cell_angle_beta                 90
_cell_angle_gamma                90
_cell_volume                     2097.92
_exptl_crystal_colour            colorless
_exptl_crystal_description       block
_cell_formula_units_Z            4
loop_
_atom_site_label
_atom_site_type_symbol
_atom_site_fract_x
_atom_site_fract_y
_atom_site_fract_z
C1 C 0.7649(6) 0.2700(5) 0.3958(3)
H1 H 0.7571 0.1868 0.4012
H2 H 0.7173 0.3081 0.4351
H3 H 0.8547 0.2919 0.3988
C2 C 0.8228(5) 0.9074(4) 0.3524(3)
H4 H 0.8441 0.9889 0.3563
H5 H 0.8855 0.8621 0.3796
H6 H 0.7380 0.8942 0.3730
C3 C 0.7113(5) 0.3063(4) 0.3214(3)
H7 H 0.6210 0.2828 0.3188
H8 H 0.7142 0.3909 0.3180
C4 C 0.4406(5) 1.0546(4) 0.0497(3)
H9 H 0.4007 1.0658 0.0034
C5 C 0.3894(5) 1.1102(4) 0.1121(3)
H10 H 0.3159 1.1567 0.1068
C6 C 0.9239(5) 0.1282(4) 0.0326(3)
H11 H 0.9285 0.1148 -0.0188
C7 C 1.0183(5) 0.0806(4) 0.0793(3)
H12 H 1.0848 0.0364 0.0582
C8 C 0.5478(5) 0.9837(4) 0.0534(3)
H13 H 0.5806 0.9463 0.0111
C9 C 0.8237(4) 0.1949(4) 0.0606(2)
H14 H 0.7607 0.2275 0.0296
C10 C 0.8240(4) 0.8715(4) 0.2708(2)
H15 H 0.9077 0.8915 0.2494
H16 H 0.8145 0.7872 0.2679
C11 C 1.0161(4) 0.0968(4) 0.1559(3)
H17 H 1.0800 0.0649 0.1866
C12 C 0.7925(4) 0.8299(3) 0.1041(2)
H18 H 0.8825 0.8395 0.1190
H19 H 0.7856 0.8511 0.0515
C13 C 0.6274(4) 0.6663(3) 0.1021(2)
H20 H 0.5662 0.7196 0.0847
C14 C 0.8429(4) 0.6215(3) 0.1381(2)
H21 H 0.9287 0.6438 0.1459
C15 C 0.5904(4) 0.5521(3) 0.1160(2)
H22 H 0.5044 0.5301 0.1085
C16 C 0.4456(4) 1.0978(3) 0.1817(3)
H23 H 0.4118 1.1361 0.2234
C17 C 0.6048(4) 0.9707(3) 0.1238(2)
C18 C 0.7536(4) 0.7026(3) 0.1137(2)
C19 C 0.8053(4) 0.5061(3) 0.1511(2)
H24 H 0.8670 0.4522 0.1671
N1 N 0.6289(3) 0.9968(3) 0.25067(19)
C20 C 0.8219(4) 0.2108(3) 0.1384(2)
C21 C 0.7811(4) 0.2564(3) 0.2563(2)
C22 C 0.6790(4) 0.4702(3) 0.1407(2)
C23 C 0.9151(4) 0.1625(3) 0.1859(2)
C24 C 0.5549(4) 1.0261(3) 0.1880(2)
N2 N 0.7116(3) 0.9081(3) 0.14849(19)
C25 C 0.7199(4) 0.9271(3) 0.2246(2)
N3 N 0.8875(3) 0.1927(3) 0.25983(19)
N4 N 0.7370(3) 0.2705(2) 0.18419(18)
C26 C 0.6341(4) 0.3469(3) 0.1584(2)
H25 H 0.5673 0.3506 0.1966
H26 H 0.5955 0.3134 0.1136
loop_
_geom_bond_atom_site_label_1
_geom_bond_atom_site_label_2
_geom_bond_site_symmetry_1
_geom_bond_site_symmetry_2
C1 H1 1_555 1_555
H2 C1 1_555 1_555
H3 C1 1_555 1_555
C2 H4 1_555 1_555
H5 C2 1_555 1_555
H6 C2 1_555 1_555
C3 C1 1_555 1_555
H7 C3 1_555 1_555
H8 C3 1_555 1_555
C4 H9 1_555 1_555
C5 C4 1_555 1_555
H10 C5 1_555 1_555
C6 H11 1_555 1_555
C7 C6 1_555 1_555
H12 C7 1_555 1_555
C8 C4 1_555 1_555
H13 C8 1_555 1_555
C9 C6 1_555 1_555
H14 C9 1_555 1_555
C10 C2 1_555 1_555
H15 C10 1_555 1_555
H16 C10 1_555 1_555
C11 C7 1_555 1_555
H17 C11 1_555 1_555
C12 H18 1_555 1_555
H19 C12 1_555 1_555
C13 H20 1_555 1_555
C14 H21 1_555 1_555
C15 C13 1_555 1_555
H22 C15 1_555 1_555
C16 C5 1_555 1_555
H23 C16 1_555 1_555
C17 C8 1_555 1_555
C18 C12 1_555 1_555
C19 C14 1_555 1_555
H24 C19 1_555 1_555
N1 C24 1_555 1_555
C20 C9 1_555 1_555
C21 C3 1_555 1_555
C22 C15 1_555 1_555
C23 C11 1_555 1_555
C24 C16 1_555 1_555
N2 C12 1_555 1_555
C25 C10 1_555 1_555
N3 C21 1_555 1_555
N4 C20 1_555 1_555
C26 C22 1_555 1_555
H25 C26 1_555 1_555
H26 C26 1_555 1_555
C13 C18 1_555 1_555
C14 C18 1_555 1_555
C17 C24 1_555 1_555
C17 N2 1_555 1_555
C19 C22 1_555 1_555
N1 C25 1_555 1_555
C20 C23 1_555 1_555
C21 N4 1_555 1_555
C23 N3 1_555 1_555
N2 C25 1_555 1_555
N4 C26 1_555 1_555

#END
