
#######################################################################
#
#                 Cambridge Crystallographic Data Centre
#                                CCDC 
#
#######################################################################
#
# If this CIF has been generated from an entry in the Cambridge 
# Structural Database, then it will include bibliographic, chemical, 
# crystal, experimental, refinement or atomic coordinate data resulting 
# from the CCDC's data processing and validation procedures.
#
#######################################################################

data_AWUMIQ
_chemical_formula_moiety         'C26 H17 B1 N2,C4 H8 O1'
_chemical_name_systematic        
"16H,18H-naphtho[2',1':5,6][1,2]azaborinino[4,3,2-ij]naphtho[1,2-c][2,1]benzazaborinine tetrahydrofuran solvate"
_symmetry_cell_setting           monoclinic
_symmetry_space_group_name_H-M   'P 21/c'
_symmetry_Int_Tables_number      14
_space_group_name_Hall           '-P 2ybc'
loop_
_symmetry_equiv_pos_site_id
_symmetry_equiv_pos_as_xyz
1 x,y,z
2 -x,1/2+y,1/2-z
3 -x,-y,-z
4 x,1/2-y,1/2+z
_cell_length_a                   11.1200(4)
_cell_length_b                   11.3893(4)
_cell_length_c                   17.6078(6)
_cell_angle_alpha                90
_cell_angle_beta                 91.3610(10)
_cell_angle_gamma                90
_cell_volume                     2229.38
_exptl_crystal_colour            'light purple'
_exptl_crystal_description       block
_cell_formula_units_Z            4
loop_
_atom_site_label
_atom_site_type_symbol
_atom_site_fract_x
_atom_site_fract_y
_atom_site_fract_z
C1 C 0.58652(9) 0.48406(9) 0.14604(6)
C2 C 0.55982(10) 0.41038(9) 0.20794(6)
C3 C 0.43857(10) 0.41405(9) 0.23917(6)
C4 C 0.34876(10) 0.48635(9) 0.20768(6)
C5 C 0.23007(10) 0.48706(9) 0.23812(6)
C6 C 0.13526(11) 0.55750(11) 0.20828(7)
H1 H 0.1508(2) 0.6101(7) 0.1641(6)
C7 C 0.02323(12) 0.55552(12) 0.23830(8)
H2 H -0.0412(10) 0.6062(8) 0.2165(3)
C8 C -0.00093(13) 0.48187(12) 0.30010(8)
H3 H -0.0812(12) 0.48021(13) 0.3213(3)
C9 C 0.08792(13) 0.41284(12) 0.33032(8)
H4 H 0.0695(3) 0.3595(8) 0.3751(6)
C10 C 0.20510(11) 0.41341(10) 0.30103(7)
C11 C 0.29805(12) 0.34279(11) 0.33249(7)
H5 H 0.2819(3) 0.2923(8) 0.3766(7)
C12 C 0.40893(12) 0.34373(10) 0.30266(7)
H6 H 0.4717(9) 0.2936(7) 0.3259(3)
C13 C 0.65105(11) 0.33558(10) 0.23567(7)
H7 H 0.6347(3) 0.2805(8) 0.2779(6)
C14 C 0.76300(12) 0.33862(11) 0.20435(8)
H8 H 0.8251(10) 0.2864(8) 0.2243(3)
C15 C 0.79025(12) 0.41341(11) 0.14538(7)
H9 H 0.8718(12) 0.41495(11) 0.1255(3)
C16 C 0.70131(10) 0.48691(9) 0.11406(6)
C17 C 0.72231(9) 0.56604(9) 0.04957(6)
C18 C 0.62892(9) 0.63451(8) 0.01814(6)
C19 C 0.65059(10) 0.70982(9) -0.04587(6)
C20 C 0.55941(11) 0.77961(10) -0.08045(7)
H10 H 0.4803(11) 0.77853(10) -0.0605(3)
C21 C 0.58276(12) 0.84881(10) -0.14214(7)
H11 H 0.5196(9) 0.8956(7) -0.1648(3)
C22 C 0.69793(12) 0.85176(11) -0.17231(7)
H12 H 0.7142(3) 0.9020(7) -0.2175(6)
C23 C 0.78758(12) 0.78623(10) -0.14017(7)
H13 H 0.8658(11) 0.78879(11) -0.1610(3)
C24 C 0.76707(10) 0.71432(9) -0.07637(6)
C25 C 0.85993(11) 0.64603(11) -0.04263(7)
H14 H 0.9401(11) 0.64952(12) -0.0627(3)
C26 C 0.83802(11) 0.57564(10) 0.01757(7)
H15 H 0.9041(9) 0.5299(7) 0.0397(3)
N1 N 0.37375(8) 0.55761(8) 0.14615(5)
H16 H 0.3179(9) 0.6015(7) 0.1279(3)
N2 N 0.51564(8) 0.63133(8) 0.04883(5)
H17 H 0.4603(8) 0.6736(6) 0.0287(3)
B1 B 0.48778(11) 0.56067(10) 0.11227(7)
C27 C 0.31398(15) 0.89193(12) 0.05982(9)
H18 H 0.4035(9) 0.90471(19) 0.05525(9)
H19 H 0.2883(3) 0.9227(4) 0.1108(5)
C28 C 0.24667(19) 0.95295(15) -0.00318(10)
H20 H 0.2125(5) 1.0284(10) 0.0147(2)
H21 H 0.3003(7) 0.9691(3) -0.0464(6)
C29 C 0.14892(19) 0.86957(17) -0.02634(12)
H22 H 0.0747(11) 0.9026(5) -0.01925(15)
H23 H 0.1551(2) 0.8493(3) -0.0766(7)
C30 C 0.16617(15) 0.76556(14) 0.02303(10)
H24 H 0.1052(7) 0.76706(14) 0.0672(5)
H25 H 0.1526(2) 0.6886(8) -0.0082(3)
O1 O 0.28530(8) 0.77026(8) 0.05238(5)
loop_
_geom_bond_atom_site_label_1
_geom_bond_atom_site_label_2
_geom_bond_site_symmetry_1
_geom_bond_site_symmetry_2
C1 C2 1_555 1_555
C2 C3 1_555 1_555
C3 C4 1_555 1_555
C4 C5 1_555 1_555
C5 C6 1_555 1_555
C6 H1 1_555 1_555
C7 C6 1_555 1_555
H2 C7 1_555 1_555
C8 C7 1_555 1_555
H3 C8 1_555 1_555
C9 C8 1_555 1_555
H4 C9 1_555 1_555
C10 C5 1_555 1_555
C11 C10 1_555 1_555
H5 C11 1_555 1_555
C12 C3 1_555 1_555
H6 C12 1_555 1_555
C13 C2 1_555 1_555
H7 C13 1_555 1_555
C14 C13 1_555 1_555
H8 C14 1_555 1_555
C15 C14 1_555 1_555
H9 C15 1_555 1_555
C16 C1 1_555 1_555
C17 C16 1_555 1_555
C18 C17 1_555 1_555
C19 C18 1_555 1_555
C20 C19 1_555 1_555
H10 C20 1_555 1_555
C21 C20 1_555 1_555
H11 C21 1_555 1_555
C22 C21 1_555 1_555
H12 C22 1_555 1_555
C23 C22 1_555 1_555
H13 C23 1_555 1_555
C24 C19 1_555 1_555
C25 C24 1_555 1_555
H14 C25 1_555 1_555
C26 C17 1_555 1_555
H15 C26 1_555 1_555
N1 C4 1_555 1_555
H16 N1 1_555 1_555
N2 C18 1_555 1_555
H17 N2 1_555 1_555
B1 C1 1_555 1_555
C27 H18 1_555 1_555
H19 C27 1_555 1_555
C28 C27 1_555 1_555
H20 C28 1_555 1_555
H21 C28 1_555 1_555
C29 C28 1_555 1_555
H22 C29 1_555 1_555
H23 C29 1_555 1_555
C30 C29 1_555 1_555
H24 C30 1_555 1_555
H25 C30 1_555 1_555
O1 C27 1_555 1_555
C9 C10 1_555 1_555
C11 C12 1_555 1_555
C15 C16 1_555 1_555
C23 C24 1_555 1_555
C25 C26 1_555 1_555
N1 B1 1_555 1_555
N2 B1 1_555 1_555
C30 O1 1_555 1_555

#END
