
#######################################################################
#
#                 Cambridge Crystallographic Data Centre
#                                CCDC 
#
#######################################################################
#
# If this CIF has been generated from an entry in the Cambridge 
# Structural Database, then it will include bibliographic, chemical, 
# crystal, experimental, refinement or atomic coordinate data resulting 
# from the CCDC's data processing and validation procedures.
#
#######################################################################

data_AWUSOB
_chemical_name_common            '2-(m-Tolyloxy)benzoic acid'
_chemical_formula_moiety         'C14 H12 O3'
_chemical_name_systematic        '2-(3-Methylphenoxy)benzoic acid'
_symmetry_cell_setting           triclinic
_symmetry_space_group_name_H-M   'P -1'
_symmetry_Int_Tables_number      2
_space_group_name_Hall           '-P 1'
loop_
_symmetry_equiv_pos_site_id
_symmetry_equiv_pos_as_xyz
1 x,y,z
2 -x,-y,-z
_cell_length_a                   5.1930(10)
_cell_length_b                   7.8000(16)
_cell_length_c                   14.868(3)
_cell_angle_alpha                94.28(3)
_cell_angle_beta                 97.50(3)
_cell_angle_gamma                102.54(3)
_cell_volume                     579.53
_exptl_crystal_colour            colorless
_exptl_crystal_description       block
_cell_formula_units_Z            2
loop_
_atom_site_label
_atom_site_type_symbol
_atom_site_fract_x
_atom_site_fract_y
_atom_site_fract_z
O1 O 0.3075(4) 0.93730(19) 0.80140(11)
C1 C 0.1740(8) 0.8008(4) 0.4694(2)
H1 H 0.3613 0.8039 0.4758
H2 H 0.1429 0.9087 0.4479
H3 H 0.0778 0.7027 0.4264
O2 O 0.7293(3) 0.95411(19) 0.92424(11)
C2 C 0.0798(7) 0.7808(3) 0.56045(19)
O3 O 0.9363(3) 1.21756(19) 0.99325(11)
H4 H 1.0355 1.1598 1.0172
C3 C 0.2341(6) 0.8720(3) 0.63921(19)
H5 H 0.3994 0.9455 0.6366
C4 C 0.1428(6) 0.8542(3) 0.72192(19)
C5 C -0.0968(6) 0.7484(3) 0.7283(2)
H6 H -0.1568 0.7396 0.7844
C6 C -0.2495(6) 0.6544(4) 0.6507(2)
H7 H -0.4126 0.5789 0.6539
C7 C -0.1597(7) 0.6725(4) 0.5675(2)
H8 H -0.2652 0.6092 0.5151
C8 C 0.3485(5) 1.1181(3) 0.81945(15)
C9 C 0.1781(5) 1.2089(3) 0.77587(16)
H9 H 0.0352 1.1490 0.7324
C10 C 0.2199(6) 1.3888(3) 0.79684(17)
H10 H 0.1049 1.4500 0.7672
C11 C 0.4270(6) 1.4776(3) 0.86027(17)
H11 H 0.4544 1.5992 0.8737
C12 C 0.5958(5) 1.3877(3) 0.90456(16)
H12 H 0.7366 1.4495 0.9482
C13 C 0.5610(5) 1.2048(3) 0.88546(14)
C14 C 0.7462(5) 1.1132(3) 0.93547(15)
loop_
_geom_bond_atom_site_label_1
_geom_bond_atom_site_label_2
_geom_bond_site_symmetry_1
_geom_bond_site_symmetry_2
O1 C4 1_555 1_555
C1 H1 1_555 1_555
H2 C1 1_555 1_555
H3 C1 1_555 1_555
O2 C14 1_555 1_555
C2 C1 1_555 1_555
O3 H4 1_555 1_555
C3 C2 1_555 1_555
H5 C3 1_555 1_555
C4 C3 1_555 1_555
C5 C4 1_555 1_555
H6 C5 1_555 1_555
C6 C5 1_555 1_555
H7 C6 1_555 1_555
C7 C2 1_555 1_555
H8 C7 1_555 1_555
C8 O1 1_555 1_555
C9 C8 1_555 1_555
H9 C9 1_555 1_555
C10 C9 1_555 1_555
H10 C10 1_555 1_555
C11 C10 1_555 1_555
H11 C11 1_555 1_555
C12 C11 1_555 1_555
H12 C12 1_555 1_555
C13 C8 1_555 1_555
C14 O3 1_555 1_555
C6 C7 1_555 1_555
C12 C13 1_555 1_555
C13 C14 1_555 1_555

#END
