
#######################################################################
#
#                 Cambridge Crystallographic Data Centre
#                                CCDC 
#
#######################################################################
#
# If this CIF has been generated from an entry in the Cambridge 
# Structural Database, then it will include bibliographic, chemical, 
# crystal, experimental, refinement or atomic coordinate data resulting 
# from the CCDC's data processing and validation procedures.
#
#######################################################################

data_AWUSUH
_chemical_name_common            
'Methyl N-(2-furyl(3-methyl-5-oxo-1-phenyl-1,5-dihydro-4H-pyrazol-4-ylidene)methyl)glycinate'
_chemical_formula_moiety         'C18 H17 N3 O4'
_chemical_name_systematic        
'Methyl 2-([(2-furyl)(3-methyl-5-oxo-1-phenyl-4,5-dihydro-1H-pyrazol-4-ylidene)methyl]amino)acetate'
_symmetry_cell_setting           triclinic
_symmetry_space_group_name_H-M   'P -1'
_symmetry_Int_Tables_number      2
_space_group_name_Hall           '-P 1'
loop_
_symmetry_equiv_pos_site_id
_symmetry_equiv_pos_as_xyz
1 x,y,z
2 -x,-y,-z
_cell_length_a                   7.499(4)
_cell_length_b                   9.503(5)
_cell_length_c                   11.749(6)
_cell_angle_alpha                96.712(7)
_cell_angle_beta                 91.654(8)
_cell_angle_gamma                90.337(7)
_cell_volume                     831.148
_exptl_crystal_colour            black
_exptl_crystal_description       block
_cell_formula_units_Z            2
loop_
_atom_site_label
_atom_site_type_symbol
_atom_site_fract_x
_atom_site_fract_y
_atom_site_fract_z
C1 C 0.2043(3) 0.1986(3) 0.7105(2)
C2 C 0.1118(4) 0.1820(3) 0.6063(3)
H1 H 0.0454 0.1000 0.5838
C3 C 0.1192(5) 0.2881(4) 0.5362(3)
H2 H 0.0555 0.2778 0.4666
C4 C 0.2192(5) 0.4093(4) 0.5672(3)
H3 H 0.2235 0.4799 0.5188
C5 C 0.3120(4) 0.4247(3) 0.6696(3)
H4 H 0.3797 0.5064 0.6909
C6 C 0.3064(4) 0.3203(3) 0.7418(2)
H5 H 0.3707 0.3313 0.8112
C7 C 0.0294(4) -0.2611(3) 0.8061(2)
H6 H -0.0553 -0.2639 0.7430
H7 H -0.0311 -0.2784 0.8741
H8 H 0.1178 -0.3325 0.7892
C8 C 0.1184(3) -0.1175(2) 0.8250(2)
C9 C 0.2063(3) -0.0467(2) 0.9256(2)
C10 C 0.2473(3) 0.0934(2) 0.8965(2)
C11 C 0.2438(3) -0.0855(2) 1.0341(2)
C12 C 0.2315(3) -0.2330(2) 1.0582(2)
C13 C 0.2946(3) -0.3534(2) 1.0035(2)
H9 H 0.3546 -0.3628 0.9349
C14 C 0.2530(4) -0.4631(3) 1.0695(3)
H10 H 0.2804 -0.5585 1.0534
C15 C 0.1673(4) -0.4029(3) 1.1587(3)
H11 H 0.1234 -0.4516 1.2163
C16 C 0.6100(4) 0.1991(3) 1.4644(3)
H12 H 0.7236 0.2106 1.4309
H13 H 0.6277 0.1728 1.5403
H14 H 0.5461 0.2867 1.4681
C17 C 0.4484(3) 0.1167(3) 1.2930(2)
C18 C 0.3474(3) -0.0089(2) 1.2339(2)
H15 H 0.4205 -0.0928 1.2334
H16 H 0.2405 -0.0242 1.2756
H17 H 0.309(3) 0.107(3) 1.094(2)
N1 N 0.1955(2) 0.09022(19) 0.78289(18)
N2 N 0.1101(3) -0.0388(2) 0.74126(18)
N3 N 0.2991(3) 0.0135(2) 1.11800(17)
O1 O 0.3157(2) 0.19626(16) 0.95855(14)
O2 O 0.1511(3) -0.26029(18) 1.15579(17)
O3 O 0.4695(3) 0.22735(19) 1.25441(17)
O4 O 0.5077(2) 0.08888(19) 1.39454(17)
loop_
_geom_bond_atom_site_label_1
_geom_bond_atom_site_label_2
_geom_bond_site_symmetry_1
_geom_bond_site_symmetry_2
C1 C2 1_555 1_555
C2 H1 1_555 1_555
C3 C2 1_555 1_555
H2 C3 1_555 1_555
C4 C3 1_555 1_555
H3 C4 1_555 1_555
C5 C4 1_555 1_555
H4 C5 1_555 1_555
C6 C1 1_555 1_555
H5 C6 1_555 1_555
C7 H6 1_555 1_555
H7 C7 1_555 1_555
H8 C7 1_555 1_555
C8 C7 1_555 1_555
C9 C8 1_555 1_555
C10 C9 1_555 1_555
C11 C9 1_555 1_555
C12 C11 1_555 1_555
C13 C12 1_555 1_555
H9 C13 1_555 1_555
C14 C13 1_555 1_555
H10 C14 1_555 1_555
C15 C14 1_555 1_555
H11 C15 1_555 1_555
C16 H12 1_555 1_555
H13 C16 1_555 1_555
H14 C16 1_555 1_555
C17 C18 1_555 1_555
C18 H15 1_555 1_555
H16 C18 1_555 1_555
H17 N3 1_555 1_555
N1 C1 1_555 1_555
N2 C8 1_555 1_555
N3 C11 1_555 1_555
O1 C10 1_555 1_555
O2 C12 1_555 1_555
O3 C17 1_555 1_555
O4 C16 1_555 1_555
C5 C6 1_555 1_555
C10 N1 1_555 1_555
C15 O2 1_555 1_555
C17 O4 1_555 1_555
C18 N3 1_555 1_555
N1 N2 1_555 1_555

#END
