
#######################################################################
#
#                 Cambridge Crystallographic Data Centre
#                                CCDC 
#
#######################################################################
#
# If this CIF has been generated from an entry in the Cambridge 
# Structural Database, then it will include bibliographic, chemical, 
# crystal, experimental, refinement or atomic coordinate data resulting 
# from the CCDC's data processing and validation procedures.
#
#######################################################################

data_AWUTOD
_chemical_formula_moiety         'C18 H18 O3 S1'
_chemical_name_systematic        
'(2-allyl-6-((4-methylphenyl)sulfanyl)phenoxy)acetic acid'
_symmetry_cell_setting           triclinic
_symmetry_space_group_name_H-M   'P -1'
_symmetry_Int_Tables_number      2
_space_group_name_Hall           '-P 1'
loop_
_symmetry_equiv_pos_site_id
_symmetry_equiv_pos_as_xyz
1 x,y,z
2 -x,-y,-z
_cell_length_a                   6.1119(3)
_cell_length_b                   10.4100(11)
_cell_length_c                   13.6296(15)
_cell_angle_alpha                76.812(9)
_cell_angle_beta                 81.978(7)
_cell_angle_gamma                82.825(7)
_cell_volume                     832.145
_exptl_crystal_colour            colorless
_exptl_crystal_description       block
_cell_formula_units_Z            2
loop_
_atom_site_label
_atom_site_type_symbol
_atom_site_fract_x
_atom_site_fract_y
_atom_site_fract_z
S1 S 0.21567(11) 0.79007(7) 0.67932(5)
O1 O 0.4615(3) 0.70489(15) 0.84850(11)
C1 C 0.5049(4) 0.6150(2) 0.78476(16)
C2 C 0.3932(4) 0.6403(2) 0.69899(16)
O2 O 0.6779(4) 0.9883(2) 0.88270(16)
O3 O 0.4098(3) 0.87260(18) 0.97216(14)
C3 C 0.1179(4) 0.7965(2) 0.56190(19)
C4 C 0.4249(4) 0.5494(2) 0.63702(17)
H1 H 0.3508 0.5650 0.5797
C5 C 0.5669(4) 0.4356(2) 0.66080(19)
H2 H 0.5904 0.3753 0.6186
C6 C 0.6445(4) 0.4995(2) 0.81084(18)
C7 C 0.5520(4) 0.8912(2) 0.90148(17)
C8 C 0.1172(4) 0.8914(2) 0.3847(2)
H3 H 0.1823 0.9438 0.3259
C9 C -0.0699(4) 0.8324(2) 0.38031(19)
C10 C 0.6084(4) 0.8048(2) 0.82605(18)
H4 H 0.5957 0.8574 0.7581
H5 H 0.7601 0.7648 0.8288
C11 C 0.2109(4) 0.8750(2) 0.4737(2)
H6 H 0.3365 0.9167 0.4744
C12 C -0.0659(4) 0.7336(3) 0.5580(2)
H7 H -0.1288 0.6791 0.6164
C13 C 0.6735(5) 0.4109(3) 0.7463(2)
H8 H 0.7672 0.3333 0.7615
C14 C -0.1564(4) 0.7510(3) 0.4684(2)
H9 H -0.2790 0.7070 0.4671
C15 C -0.1772(5) 0.8555(3) 0.2845(2)
H10 H -0.0950 0.9143 0.2314
H11 H -0.3268 0.8946 0.2955
H12 H -0.1782 0.7726 0.2651
C16 C 0.7568(5) 0.4674(3) 0.9071(2)
H13 H 0.7409 0.5460 0.9353
H14 H 0.6813 0.3995 0.9562
C17 C 0.9884(6) 0.4224(4) 0.8921(3)
H15 H 1.0766 0.4823 0.8478
C18 C 1.0910(6) 0.3108(4) 0.9315(3)
H16 H 1.0128 0.2464 0.9765
H17 H 1.2433 0.2947 0.9150
H18 H 0.652(6) 1.028(4) 0.929(3)
loop_
_geom_bond_atom_site_label_1
_geom_bond_atom_site_label_2
_geom_bond_site_symmetry_1
_geom_bond_site_symmetry_2
S1 C2 1_555 1_555
O1 C1 1_555 1_555
C1 C2 1_555 1_555
C2 C4 1_555 1_555
O2 C7 1_555 1_555
O3 C7 1_555 1_555
C3 S1 1_555 1_555
C4 H1 1_555 1_555
C5 C4 1_555 1_555
H2 C5 1_555 1_555
C6 C1 1_555 1_555
C7 C10 1_555 1_555
C8 H3 1_555 1_555
C9 C8 1_555 1_555
C10 O1 1_555 1_555
H4 C10 1_555 1_555
H5 C10 1_555 1_555
C11 C3 1_555 1_555
H6 C11 1_555 1_555
C12 C3 1_555 1_555
H7 C12 1_555 1_555
C13 C5 1_555 1_555
H8 C13 1_555 1_555
C14 C9 1_555 1_555
H9 C14 1_555 1_555
C15 C9 1_555 1_555
H10 C15 1_555 1_555
H11 C15 1_555 1_555
H12 C15 1_555 1_555
C16 C6 1_555 1_555
H13 C16 1_555 1_555
H14 C16 1_555 1_555
C17 C16 1_555 1_555
H15 C17 1_555 1_555
C18 C17 1_555 1_555
H16 C18 1_555 1_555
H17 C18 1_555 1_555
H18 O2 1_555 1_555
C6 C13 1_555 1_555
C8 C11 1_555 1_555
C12 C14 1_555 1_555

#END
