
#######################################################################
#
#                 Cambridge Crystallographic Data Centre
#                                CCDC 
#
#######################################################################
#
# If this CIF has been generated from an entry in the Cambridge 
# Structural Database, then it will include bibliographic, chemical, 
# crystal, experimental, refinement or atomic coordinate data resulting 
# from the CCDC's data processing and validation procedures.
#
#######################################################################

data_AWUTIW
_chemical_formula_moiety         'C11 H7 Cl3 N2 O1'
_chemical_name_systematic        
1-Cyano-N-(2,4,5-trichlorophenyl)cyclopropanecarboxamide
_symmetry_cell_setting           triclinic
_symmetry_space_group_name_H-M   'P -1'
_symmetry_Int_Tables_number      2
_space_group_name_Hall           '-P 1'
loop_
_symmetry_equiv_pos_site_id
_symmetry_equiv_pos_as_xyz
1 x,y,z
2 -x,-y,-z
_cell_length_a                   6.0068(18)
_cell_length_b                   7.420(2)
_cell_length_c                   14.047(4)
_cell_angle_alpha                77.531(5)
_cell_angle_beta                 86.958(5)
_cell_angle_gamma                84.483(5)
_cell_volume                     608.146
_exptl_crystal_colour            colorless
_exptl_crystal_description       prism
_cell_formula_units_Z            2
loop_
_atom_site_label
_atom_site_type_symbol
_atom_site_fract_x
_atom_site_fract_y
_atom_site_fract_z
Cl1 Cl 0.32398(14) 0.92602(9) 0.72571(5)
Cl2 Cl -0.33513(13) 0.75928(12) 0.52559(6)
Cl3 Cl -0.21699(12) 0.33282(11) 0.61532(6)
O1 O 0.4025(3) 0.2145(2) 0.84621(14)
N1 N 0.4219(3) 0.5242(2) 0.79194(14)
H1 H 0.4980 0.6139 0.7971
N2 N 0.8457(4) 0.6623(3) 0.90380(19)
C1 C 0.1788(4) 0.7600(3) 0.69152(17)
C2 C 0.0042(4) 0.8156(4) 0.62960(17)
H2 H -0.0315 0.9410 0.6044
C3 C -0.1181(4) 0.6857(4) 0.60479(17)
C4 C -0.0613(4) 0.4991(4) 0.64223(17)
C5 C 0.1165(4) 0.4420(3) 0.70298(17)
H3 H 0.1535 0.3162 0.7265
C6 C 0.2406(4) 0.5713(3) 0.72921(16)
C7 C 0.4916(4) 0.3549(3) 0.84540(16)
C8 C 0.6910(4) 0.3493(3) 0.90622(17)
C9 C 0.7029(4) 0.2025(4) 1.00043(19)
H4 H 0.7702 0.2326 1.0557
H5 H 0.5788 0.1257 1.0172
C10 C 0.8503(4) 0.1735(3) 0.9183(2)
H6 H 0.8171 0.0790 0.8844
H7 H 1.0084 0.1859 0.9229
C11 C 0.7815(4) 0.5227(3) 0.90572(18)
loop_
_geom_bond_atom_site_label_1
_geom_bond_atom_site_label_2
_geom_bond_site_symmetry_1
_geom_bond_site_symmetry_2
Cl1 C1 1_555 1_555
Cl2 C3 1_555 1_555
Cl3 C4 1_555 1_555
O1 C7 1_555 1_555
N1 H1 1_555 1_555
N2 C11 1_555 1_555
C1 C2 1_555 1_555
C2 H2 1_555 1_555
C3 C2 1_555 1_555
C4 C3 1_555 1_555
C5 C4 1_555 1_555
H3 C5 1_555 1_555
C6 N1 1_555 1_555
C7 N1 1_555 1_555
C8 C7 1_555 1_555
C9 C8 1_555 1_555
H4 C9 1_555 1_555
H5 C9 1_555 1_555
C10 C8 1_555 1_555
H6 C10 1_555 1_555
H7 C10 1_555 1_555
C11 C8 1_555 1_555
C1 C6 1_555 1_555
C5 C6 1_555 1_555
C9 C10 1_555 1_555

#END
