
#######################################################################
#
#                 Cambridge Crystallographic Data Centre
#                                CCDC 
#
#######################################################################
#
# If this CIF has been generated from an entry in the Cambridge 
# Structural Database, then it will include bibliographic, chemical, 
# crystal, experimental, refinement or atomic coordinate data resulting 
# from the CCDC's data processing and validation procedures.
#
#######################################################################

data_AWUVET
_chemical_formula_moiety         'C22 H22 N2 O6 2+,2(N1 O3 1-)'
_chemical_name_systematic        
"1,4-bis(2-Picolyloxyl)benzene-N,N'-diacetic acid dinitrate"
_symmetry_cell_setting           monoclinic
_symmetry_space_group_name_H-M   'P 21/n'
_symmetry_Int_Tables_number      14
_space_group_name_Hall           '-P 2yn'
loop_
_symmetry_equiv_pos_site_id
_symmetry_equiv_pos_as_xyz
1 x,y,z
2 1/2+x,1/2-y,1/2+z
3 -x,-y,-z
4 1/2-x,1/2+y,1/2-z
_cell_length_a                   12.264(3)
_cell_length_b                   8.6879(9)
_cell_length_c                   12.364(2)
_cell_angle_alpha                90
_cell_angle_beta                 114.29(3)
_cell_angle_gamma                90
_cell_volume                     1200.74
_exptl_crystal_colour            'pale yellow'
_exptl_crystal_description       block
_chemical_melting_point          172.9-173.4deg.C
_cell_formula_units_Z            2
loop_
_atom_site_label
_atom_site_type_symbol
_atom_site_fract_x
_atom_site_fract_y
_atom_site_fract_z
O1 O 0.1605(3) 0.4363(5) 0.2028(3)
H1 H 0.0747 0.3799 0.1487
O2 O 0.2529(4) 0.3232(7) 0.1043(4)
O3 O 0.5446(3) 0.7045(4) 0.0908(3)
N1 N 0.4731(3) 0.4138(5) 0.2592(4)
C1 C 0.2542(5) 0.4015(7) 0.1829(5)
C2 C 0.3658(4) 0.4719(7) 0.2741(5)
H2 H 0.3617 0.5830 0.2659
H3 H 0.3723 0.4465 0.3529
C3 C 0.5221(4) 0.4914(6) 0.1957(4)
C4 C 0.6178(4) 0.4243(6) 0.1814(4)
H4 H 0.6528 0.4752 0.1377
C5 C 0.6616(4) 0.2835(7) 0.2309(5)
H5 H 0.7255 0.2391 0.2202
C6 C 0.6104(5) 0.2093(7) 0.2960(5)
H6 H 0.6396 0.1145 0.3308
C7 C 0.5163(5) 0.2760(7) 0.3091(5)
H7 H 0.4811 0.2261 0.3532
C8 C 0.4725(4) 0.6444(6) 0.1464(4)
H8 H 0.3902 0.6343 0.0890
H9 H 0.4745 0.7127 0.2093
C9 C 0.5174(4) 0.8539(6) 0.0471(4)
C10 C 0.5929(4) 0.9109(6) -0.0015(4)
H10 H 0.6549 0.8505 -0.0028
C11 C 0.4248(4) 0.9410(6) 0.0482(4)
H11 H 0.3739 0.9013 0.0800
C11B C 0.5752(4) 1.0590(6) -0.0482(4)
C9B C 0.4826(4) 1.1461(6) -0.0471(4)
O3B O 0.4554(3) 1.2955(4) -0.0908(3)
C8B C 0.5275(4) 1.3556(6) -0.1464(4)
C3B C 0.4779(4) 1.5086(6) -0.1957(4)
N1B N 0.5269(3) 1.5862(5) -0.2592(4)
C2B C 0.6342(4) 1.5281(7) -0.2741(5)
C1B C 0.7458(5) 1.5985(7) -0.1829(5)
O1B O 0.8395(3) 1.5637(5) -0.2028(3)
H1B H 0.9253 1.6201 -0.1487
O2B O 0.7471(4) 1.6768(7) -0.1043(4)
H2B H 0.6383 1.4170 -0.2659
H3B H 0.6277 1.5535 -0.3529
C7B C 0.4837(5) 1.7240(7) -0.3091(5)
C6B C 0.3896(5) 1.7907(7) -0.2960(5)
C5B C 0.3384(4) 1.7165(7) -0.2309(5)
C4B C 0.3822(4) 1.5757(6) -0.1814(4)
H4B H 0.3472 1.5248 -0.1377
H5B H 0.2745 1.7609 -0.2202
H6B H 0.3604 1.8855 -0.3308
H7B H 0.5189 1.7739 -0.3532
H8B H 0.6098 1.3657 -0.0890
H9B H 0.5255 1.2873 -0.2093
C10B C 0.4071(4) 1.0891(6) 0.0015(4)
H10B H 0.3451 1.1495 0.0028
H11B H 0.6261 1.0987 -0.0800
N2 N -0.1174(3) 0.2951(4) 0.0396(3)
O4 O -0.0237(5) 0.2677(9) 0.0520(5)
O5 O -0.1485(5) 0.3470(7) 0.1037(5)
O6 O -0.1930(4) 0.2685(6) -0.0634(5)
loop_
_geom_bond_atom_site_label_1
_geom_bond_atom_site_label_2
_geom_bond_site_symmetry_1
_geom_bond_site_symmetry_2
O1 H1 1_555 1_555
O2 C1 1_555 1_555
O3 C8 1_555 1_555
N1 C2 1_555 1_555
C1 O1 1_555 1_555
C2 C1 1_555 1_555
H2 C2 1_555 1_555
H3 C2 1_555 1_555
C3 N1 1_555 1_555
C4 C3 1_555 1_555
H4 C4 1_555 1_555
C5 C4 1_555 1_555
H5 C5 1_555 1_555
C6 C5 1_555 1_555
H6 C6 1_555 1_555
C7 N1 1_555 1_555
H7 C7 1_555 1_555
C8 C3 1_555 1_555
H8 C8 1_555 1_555
H9 C8 1_555 1_555
C9 O3 1_555 1_555
C10 C9 1_555 1_555
H10 C10 1_555 1_555
C11 C9 1_555 1_555
H11 C11 1_555 1_555
N2 O4 1_555 1_555
O5 N2 1_555 1_555
O6 N2 1_555 1_555
C11B C10 1_555 1_555
C9B C11B 1_555 1_555
O3B C9B 1_555 1_555
C8B O3B 1_555 1_555
C3B C8B 1_555 1_555
N1B C3B 1_555 1_555
C2B N1B 1_555 1_555
C1B C2B 1_555 1_555
O1B C1B 1_555 1_555
H1B O1B 1_555 1_555
O2B C1B 1_555 1_555
H2B C2B 1_555 1_555
H3B C2B 1_555 1_555
C7B N1B 1_555 1_555
C6B C7B 1_555 1_555
C5B C6B 1_555 1_555
C4B C3B 1_555 1_555
H4B C4B 1_555 1_555
H5B C5B 1_555 1_555
H6B C6B 1_555 1_555
H7B C7B 1_555 1_555
H8B C8B 1_555 1_555
H9B C8B 1_555 1_555
C10B C11 1_555 1_555
H10B C10B 1_555 1_555
H11B C11B 1_555 1_555
C6 C7 1_555 1_555
C9B C10B 1_555 1_555
C5B C4B 1_555 1_555

#END
