
#######################################################################
#
#                 Cambridge Crystallographic Data Centre
#                                CCDC 
#
#######################################################################
#
# If this CIF has been generated from an entry in the Cambridge 
# Structural Database, then it will include bibliographic, chemical, 
# crystal, experimental, refinement or atomic coordinate data resulting 
# from the CCDC's data processing and validation procedures.
#
#######################################################################

data_AWUVIY
_chemical_formula_moiety         'C14 H18 N2 O5'
_chemical_name_systematic        
'Diethyl (((4-methoxypyridin-3-yl)amino)methylene)malonate'
_symmetry_cell_setting           monoclinic
_symmetry_space_group_name_H-M   'P 21/c'
_symmetry_Int_Tables_number      14
_space_group_name_Hall           '-P 2ybc'
loop_
_symmetry_equiv_pos_site_id
_symmetry_equiv_pos_as_xyz
1 x,y,z
2 -x,1/2+y,1/2-z
3 -x,-y,-z
4 x,1/2-y,1/2+z
_cell_length_a                   19.012(4)
_cell_length_b                   8.6620(17)
_cell_length_c                   9.1600(18)
_cell_angle_alpha                90
_cell_angle_beta                 94.08(3)
_cell_angle_gamma                90
_cell_volume                     1504.66
_exptl_crystal_colour            colorless
_exptl_crystal_description       block
_cell_formula_units_Z            4
loop_
_atom_site_label
_atom_site_type_symbol
_atom_site_fract_x
_atom_site_fract_y
_atom_site_fract_z
O1 O 0.15081(10) 0.3780(2) 0.5511(2)
C1 C 0.11221(14) 0.4906(3) 0.4828(3)
N1 N 0.03465(13) 0.7408(3) 0.3671(3)
N2 N 0.17585(11) 0.6573(2) 0.6532(2)
H1 H 0.1916 0.5742 0.6954
O2 O 0.25551(12) 1.0765(2) 0.7731(2)
C2 C 0.06290(15) 0.4714(3) 0.3677(3)
H2 H 0.0543 0.3744 0.3268
O3 O 0.31389(12) 0.9837(2) 0.9718(2)
C3 C 0.02656(15) 0.5984(4) 0.3142(3)
H3 H -0.0062 0.5840 0.2350
O4 O 0.26443(12) 0.5409(2) 0.8621(2)
C4 C 0.08378(14) 0.7576(3) 0.4773(3)
H4 H 0.0916 0.8563 0.5150
O5 O 0.34811(10) 0.6944(2) 0.9616(2)
C5 C 0.12345(14) 0.6392(3) 0.5386(3)
C6 C 0.14403(17) 0.2247(3) 0.4922(4)
H5 H 0.1740 0.1558 0.5503
H6 H 0.1576 0.2245 0.3933
H7 H 0.0959 0.1913 0.4937
C7 C 0.20362(14) 0.7889(3) 0.7033(3)
H8 H 0.1854 0.8789 0.6601
C8 C 0.25623(14) 0.8065(3) 0.8119(3)
C9 C 0.27475(15) 0.9670(3) 0.8476(3)
C10 C 0.3349(2) 1.1375(4) 1.0158(5)
H9 H 0.3393 1.2015 0.9301
H10 H 0.2996 1.1831 1.0739
C11 C 0.4004(2) 1.1295(4) 1.0990(5)
H11 H 0.4144 1.2313 1.1305
H12 H 0.4353 1.0869 1.0399
H13 H 0.3958 1.0649 1.1829
C12 C 0.28810(15) 0.6696(3) 0.8807(3)
C13 C 0.38151(16) 0.5613(3) 1.0303(3)
H14 H 0.4013 0.4961 0.9576
H15 H 0.3475 0.5014 1.0804
C14 C 0.43854(18) 0.6193(4) 1.1373(4)
H16 H 0.4621 0.5333 1.1855
H17 H 0.4183 0.6836 1.2086
H18 H 0.4719 0.6781 1.0864
loop_
_geom_bond_atom_site_label_1
_geom_bond_atom_site_label_2
_geom_bond_site_symmetry_1
_geom_bond_site_symmetry_2
O1 C1 1_555 1_555
C1 C2 1_555 1_555
N1 C3 1_555 1_555
N2 H1 1_555 1_555
O2 C9 1_555 1_555
C2 H2 1_555 1_555
O3 C9 1_555 1_555
C3 C2 1_555 1_555
H3 C3 1_555 1_555
O4 C12 1_555 1_555
C4 N1 1_555 1_555
H4 C4 1_555 1_555
O5 C12 1_555 1_555
C5 C1 1_555 1_555
C6 O1 1_555 1_555
H5 C6 1_555 1_555
H6 C6 1_555 1_555
H7 C6 1_555 1_555
C7 N2 1_555 1_555
H8 C7 1_555 1_555
C8 C7 1_555 1_555
C9 C8 1_555 1_555
C10 O3 1_555 1_555
H9 C10 1_555 1_555
H10 C10 1_555 1_555
C11 C10 1_555 1_555
H11 C11 1_555 1_555
H12 C11 1_555 1_555
H13 C11 1_555 1_555
C12 C8 1_555 1_555
C13 O5 1_555 1_555
H14 C13 1_555 1_555
H15 C13 1_555 1_555
C14 C13 1_555 1_555
H16 C14 1_555 1_555
H17 C14 1_555 1_555
H18 C14 1_555 1_555
N2 C5 1_555 1_555
C4 C5 1_555 1_555

#END
