
#######################################################################
#
#                 Cambridge Crystallographic Data Centre
#                                CCDC 
#
#######################################################################
#
# If this CIF has been generated from an entry in the Cambridge 
# Structural Database, then it will include bibliographic, chemical, 
# crystal, experimental, refinement or atomic coordinate data resulting 
# from the CCDC's data processing and validation procedures.
#
#######################################################################

data_AWUWAS
_chemical_formula_moiety         'C88 H70 O1'
_chemical_name_systematic        
"22,22-dimethyl-23-formyl-2,19-di-t-butyl-6,15-bis(4-t-butylphenyl)azuleno[4,5,6,7,8,1-rstuva]dipiceno[5,6,7,8-defgh:5',6',7',8'-jklmn]pentahelicene unknown solvate"
_symmetry_cell_setting           monoclinic
_symmetry_space_group_name_H-M   'P 21/c'
_symmetry_Int_Tables_number      14
_space_group_name_Hall           '-P 2ybc'
loop_
_symmetry_equiv_pos_site_id
_symmetry_equiv_pos_as_xyz
1 x,y,z
2 -x,1/2+y,1/2-z
3 -x,-y,-z
4 x,1/2-y,1/2+z
_cell_length_a                   15.5050(5)
_cell_length_b                   34.4906(10)
_cell_length_c                   17.2521(5)
_cell_angle_alpha                90
_cell_angle_beta                 112.9897(17)
_cell_angle_gamma                90
_cell_volume                     8493.25
_exptl_crystal_colour            orange
_exptl_crystal_description       prism
_cell_formula_units_Z            4
loop_
_atom_site_label
_atom_site_type_symbol
_atom_site_fract_x
_atom_site_fract_y
_atom_site_fract_z
C1 C 0.3364(7) 0.4971(3) 0.2658(6)
C2 C 0.2393(6) 0.5129(3) 0.2500(5)
H1 H 0.2346 0.5397 0.2298
H2 H 0.2290 0.5123 0.3026
H3 H 0.1918 0.4969 0.2076
C3 C 0.3461(7) 0.4553(3) 0.2976(5)
H4 H 0.3034 0.4386 0.2532
H5 H 0.3303 0.4540 0.3472
H6 H 0.4107 0.4466 0.3126
C4 C 0.3558(6) 0.4997(3) 0.1858(5)
C5 C 0.4294(6) 0.5246(3) 0.1977(5)
C6 C 0.4719(6) 0.5348(3) 0.2859(5)
C7 C 0.4147(6) 0.5213(3) 0.3246(5)
C8 C 0.6092(6) 0.5763(3) 0.2970(5)
C9 C 0.4251(7) 0.5314(3) 0.4096(6)
H7 H 0.4746 0.5483 0.4417
O1 O 0.3728(5) 0.51893(19) 0.4415(4)
C10 C 0.3108(6) 0.4807(3) 0.1111(5)
H8 H 0.2622 0.4627 0.1052
C11 C 0.3364(6) 0.4878(3) 0.0449(5)
C12 C 0.4012(6) 0.5185(3) 0.0496(5)
C13 C 0.4506(6) 0.5373(3) 0.1285(5)
C14 C 0.2924(6) 0.4672(3) -0.0364(5)
C15 C 0.3085(6) 0.4792(3) -0.1061(5)
C16 C 0.3643(6) 0.5129(3) -0.1018(6)
C17 C 0.4124(6) 0.5316(3) -0.0241(5)
C18 C 0.2319(6) 0.4356(3) -0.0425(6)
H9 H 0.2224 0.4273 0.0061
C19 C 0.1864(6) 0.4165(3) -0.1179(6)
C20 C 0.2033(6) 0.4272(3) -0.1881(5)
H10 H 0.1736 0.4138 -0.2399
C21 C 0.2637(6) 0.4575(3) -0.1820(5)
H11 H 0.2760 0.4643 -0.2301
C22 C 0.1142(7) 0.3844(3) -0.1298(6)
C23 C 0.1033(7) 0.3727(3) -0.0485(5)
H12 H 0.1616 0.3608 -0.0097
H13 H 0.0518 0.3541 -0.0615
H14 H 0.0894 0.3958 -0.0222
C24 C 0.0182(6) 0.3979(3) -0.1915(6)
H15 H 0.0096 0.4253 -0.1813
H16 H -0.0308 0.3824 -0.1835
H17 H 0.0141 0.3946 -0.2493
C25 C 0.1404(7) 0.3478(3) -0.1661(6)
H18 H 0.1383 0.3534 -0.2226
H19 H 0.0960 0.3270 -0.1696
H20 H 0.2039 0.3396 -0.1295
C26 C 0.3657(6) 0.5295(3) -0.1744(6)
H21 H 0.3337 0.5166 -0.2265
C27 C 0.4109(6) 0.5634(3) -0.1748(6)
C28 C 0.4668(6) 0.5813(3) -0.0973(5)
C29 C 0.4646(6) 0.5654(3) -0.0207(5)
C30 C 0.3862(6) 0.5826(3) -0.2593(5)
C31 C 0.3930(6) 0.5638(3) -0.3277(5)
H22 H 0.4221 0.5390 -0.3194
C32 C 0.3588(7) 0.5798(3) -0.4084(6)
H23 H 0.3648 0.5662 -0.4539
C33 C 0.3165(7) 0.6152(3) -0.4210(6)
C34 C 0.3096(7) 0.6356(3) -0.3531(6)
H24 H 0.2813 0.6606 -0.3622
C35 C 0.3434(7) 0.6197(3) -0.2733(6)
H25 H 0.3381 0.6336 -0.2278
C36 C 0.2752(11) 0.6319(4) -0.5098(7)
C37 C 0.2109(13) 0.6053(5) -0.5707(8)
H26 H 0.2350 0.5989 -0.6139
H27 H 0.1493 0.6175 -0.5973
H28 H 0.2052 0.5815 -0.5419
C38 C 0.3533(13) 0.6397(5) -0.5414(9)
H29 H 0.4105 0.6475 -0.4939
H30 H 0.3339 0.6606 -0.5833
H31 H 0.3655 0.6161 -0.5671
C39 C 0.2306(14) 0.6697(5) -0.5166(8)
H32 H 0.1709 0.6667 -0.5102
H33 H 0.2192 0.6810 -0.5719
H34 H 0.2718 0.6869 -0.4724
C40 C 0.5288(6) 0.6134(3) -0.0933(6)
C41 C 0.5599(6) 0.6371(3) -0.0230(6)
C42 C 0.5409(6) 0.6245(3) 0.0516(6)
C43 C 0.5071(6) 0.5877(3) 0.0562(5)
C44 C 0.5660(6) 0.6193(3) -0.1552(5)
H35 H 0.5496 0.6018 -0.2012
C45 C 0.6249(7) 0.6495(3) -0.1513(6)
H36 H 0.6462 0.6536 -0.1953
C46 C 0.6529(7) 0.6739(3) -0.0827(6)
H37 H 0.6936 0.6951 -0.0789
C47 C 0.6208(7) 0.6672(3) -0.0192(6)
H38 H 0.6413 0.6838 0.0286
C48 C 0.5660(6) 0.6488(3) 0.1227(6)
C49 C 0.5960(6) 0.6305(3) 0.2019(5)
C50 C 0.5686(6) 0.5922(3) 0.2100(5)
C51 C 0.5076(6) 0.5723(3) 0.1335(5)
C52 C 0.5602(7) 0.6905(3) 0.1231(6)
C53 C 0.6197(7) 0.7118(3) 0.1928(6)
C54 C 0.6712(6) 0.6503(3) 0.2693(5)
C55 C 0.4919(7) 0.7113(3) 0.0576(6)
H39 H 0.4548 0.6983 0.0070
C56 C 0.4780(8) 0.7500(3) 0.0656(6)
H40 H 0.4287 0.7629 0.0217
C57 C 0.5318(8) 0.7702(3) 0.1335(6)
H41 H 0.5212 0.7972 0.1371
C58 C 0.6021(7) 0.7519(3) 0.1977(6)
H42 H 0.6396 0.7662 0.2462
C59 C 0.6902(6) 0.6893(3) 0.2608(5)
C60 C 0.7782(7) 0.7046(3) 0.3168(6)
C61 C 0.8372(6) 0.6814(3) 0.3814(5)
H43 H 0.8951 0.6919 0.4189
C62 C 0.8150(7) 0.6432(3) 0.3938(5)
C63 C 0.7302(6) 0.6293(3) 0.3384(5)
C64 C 0.8098(7) 0.7433(3) 0.3050(6)
C65 C 0.8138(7) 0.7540(3) 0.2297(6)
H44 H 0.7970 0.7357 0.1850
C66 C 0.8421(8) 0.7912(3) 0.2178(7)
H45 H 0.8452 0.7977 0.1654
C67 C 0.8656(8) 0.8186(4) 0.2805(8)
C68 C 0.8635(7) 0.8082(3) 0.3554(7)
H46 H 0.8809 0.8264 0.4003
C69 C 0.8364(6) 0.7716(3) 0.3663(6)
H47 H 0.8359 0.7652 0.4197
C70 C 0.8938(13) 0.8592(4) 0.2592(11)
C71 C 0.8156(14) 0.8750(4) 0.1724(10)
H48 H 0.8020 0.8550 0.1289
H49 H 0.8389 0.8983 0.1546
H50 H 0.7582 0.8812 0.1809
C72 C 0.9812(13) 0.8563(4) 0.2416(12)
H51 H 1.0363 0.8583 0.2945
H52 H 0.9821 0.8774 0.2038
H53 H 0.9821 0.8313 0.2148
C73 C 0.8966(12) 0.8872(4) 0.3262(9)
H54 H 0.8472 0.8808 0.3461
H55 H 0.8867 0.9136 0.3031
H56 H 0.9578 0.8857 0.3733
C74 C 0.8786(7) 0.6187(3) 0.4607(5)
C75 C 0.8457(7) 0.5823(3) 0.4755(5)
C76 C 0.7509(7) 0.5712(3) 0.4274(5)
C77 C 0.6988(6) 0.5919(3) 0.3520(5)
C78 C 0.9738(7) 0.6285(3) 0.5084(6)
H57 H 0.9975 0.6526 0.4987
C79 C 1.0326(7) 0.6036(3) 0.5686(6)
H58 H 1.0958 0.6110 0.5999
C80 C 1.0011(7) 0.5681(3) 0.5841(6)
C81 C 0.9096(7) 0.5581(3) 0.5387(5)
H59 H 0.8878 0.5338 0.5500
C82 C 1.0700(8) 0.5398(3) 0.6441(6)
C83 C 1.1207(7) 0.5582(3) 0.7323(6)
H60 H 1.1597 0.5799 0.7282
H61 H 1.1604 0.5387 0.7713
H62 H 1.0742 0.5678 0.7531
C84 C 1.0232(8) 0.5025(4) 0.6535(8)
H63 H 0.9659 0.5086 0.6622
H64 H 1.0661 0.4879 0.7019
H65 H 1.0073 0.4869 0.6023
C85 C 1.1438(7) 0.5283(3) 0.6097(6)
H66 H 1.1125 0.5199 0.5510
H67 H 1.1821 0.5070 0.6434
H68 H 1.1840 0.5506 0.6125
C86 C 0.7099(6) 0.5395(3) 0.4522(5)
H69 H 0.7459 0.5251 0.5011
C87 C 0.6188(6) 0.5294(3) 0.4066(5)
H70 H 0.5896 0.5102 0.4275
C88 C 0.5674(6) 0.5476(3) 0.3278(5)
loop_
_geom_bond_atom_site_label_1
_geom_bond_atom_site_label_2
_geom_bond_site_symmetry_1
_geom_bond_site_symmetry_2
C1 C2 1_555 1_555
C2 H1 1_555 1_555
H2 C2 1_555 1_555
H3 C2 1_555 1_555
C3 C1 1_555 1_555
H4 C3 1_555 1_555
H5 C3 1_555 1_555
H6 C3 1_555 1_555
C4 C1 1_555 1_555
C5 C4 1_555 1_555
C6 C5 1_555 1_555
C7 C1 1_555 1_555
C8 C50 1_555 1_555
C9 C7 1_555 1_555
H7 C9 1_555 1_555
O1 C9 1_555 1_555
C10 C4 1_555 1_555
H8 C10 1_555 1_555
C11 C10 1_555 1_555
C12 C11 1_555 1_555
C13 C5 1_555 1_555
C14 C11 1_555 1_555
C15 C14 1_555 1_555
C16 C15 1_555 1_555
C17 C12 1_555 1_555
C18 C14 1_555 1_555
H9 C18 1_555 1_555
C19 C18 1_555 1_555
C20 C19 1_555 1_555
H10 C20 1_555 1_555
C21 C15 1_555 1_555
H11 C21 1_555 1_555
C22 C19 1_555 1_555
C23 C22 1_555 1_555
H12 C23 1_555 1_555
H13 C23 1_555 1_555
H14 C23 1_555 1_555
C24 C22 1_555 1_555
H15 C24 1_555 1_555
H16 C24 1_555 1_555
H17 C24 1_555 1_555
C25 C22 1_555 1_555
H18 C25 1_555 1_555
H19 C25 1_555 1_555
H20 C25 1_555 1_555
C26 C16 1_555 1_555
H21 C26 1_555 1_555
C27 C26 1_555 1_555
C28 C27 1_555 1_555
C29 C17 1_555 1_555
C30 C27 1_555 1_555
C31 C30 1_555 1_555
H22 C31 1_555 1_555
C32 C31 1_555 1_555
H23 C32 1_555 1_555
C33 C32 1_555 1_555
C34 C33 1_555 1_555
H24 C34 1_555 1_555
C35 C30 1_555 1_555
H25 C35 1_555 1_555
C36 C33 1_555 1_555
C37 C36 1_555 1_555
H26 C37 1_555 1_555
H27 C37 1_555 1_555
H28 C37 1_555 1_555
C38 C36 1_555 1_555
H29 C38 1_555 1_555
H30 C38 1_555 1_555
H31 C38 1_555 1_555
C39 C36 1_555 1_555
H32 C39 1_555 1_555
H33 C39 1_555 1_555
H34 C39 1_555 1_555
C40 C28 1_555 1_555
C41 C40 1_555 1_555
C42 C41 1_555 1_555
C43 C29 1_555 1_555
C44 C40 1_555 1_555
H35 C44 1_555 1_555
C45 C44 1_555 1_555
H36 C45 1_555 1_555
C46 C45 1_555 1_555
H37 C46 1_555 1_555
C47 C41 1_555 1_555
H38 C47 1_555 1_555
C48 C42 1_555 1_555
C49 C48 1_555 1_555
C50 C49 1_555 1_555
C51 C13 1_555 1_555
C52 C48 1_555 1_555
C53 C52 1_555 1_555
C54 C49 1_555 1_555
C55 C52 1_555 1_555
H39 C55 1_555 1_555
C56 C55 1_555 1_555
H40 C56 1_555 1_555
C57 C56 1_555 1_555
H41 C57 1_555 1_555
C58 C53 1_555 1_555
H42 C58 1_555 1_555
C59 C53 1_555 1_555
C60 C59 1_555 1_555
C61 C60 1_555 1_555
H43 C61 1_555 1_555
C62 C61 1_555 1_555
C63 C54 1_555 1_555
C64 C60 1_555 1_555
C65 C64 1_555 1_555
H44 C65 1_555 1_555
C66 C65 1_555 1_555
H45 C66 1_555 1_555
C67 C66 1_555 1_555
C68 C67 1_555 1_555
H46 C68 1_555 1_555
C69 C64 1_555 1_555
H47 C69 1_555 1_555
C70 C67 1_555 1_555
C71 C70 1_555 1_555
H48 C71 1_555 1_555
H49 C71 1_555 1_555
H50 C71 1_555 1_555
C72 C70 1_555 1_555
H51 C72 1_555 1_555
H52 C72 1_555 1_555
H53 C72 1_555 1_555
C73 C70 1_555 1_555
H54 C73 1_555 1_555
H55 C73 1_555 1_555
H56 C73 1_555 1_555
C74 C62 1_555 1_555
C75 C74 1_555 1_555
C76 C75 1_555 1_555
C77 C8 1_555 1_555
C78 C74 1_555 1_555
H57 C78 1_555 1_555
C79 C78 1_555 1_555
H58 C79 1_555 1_555
C80 C79 1_555 1_555
C81 C75 1_555 1_555
H59 C81 1_555 1_555
C82 C80 1_555 1_555
C83 C82 1_555 1_555
H60 C83 1_555 1_555
H61 C83 1_555 1_555
H62 C83 1_555 1_555
C84 C82 1_555 1_555
H63 C84 1_555 1_555
H64 C84 1_555 1_555
H65 C84 1_555 1_555
C85 C82 1_555 1_555
H66 C85 1_555 1_555
H67 C85 1_555 1_555
H68 C85 1_555 1_555
C86 C76 1_555 1_555
H69 C86 1_555 1_555
C87 C86 1_555 1_555
H70 C87 1_555 1_555
C88 C6 1_555 1_555
C6 C7 1_555 1_555
C8 C88 1_555 1_555
C12 C13 1_555 1_555
C16 C17 1_555 1_555
C20 C21 1_555 1_555
C28 C29 1_555 1_555
C34 C35 1_555 1_555
C42 C43 1_555 1_555
C43 C51 1_555 1_555
C46 C47 1_555 1_555
C50 C51 1_555 1_555
C54 C59 1_555 1_555
C57 C58 1_555 1_555
C62 C63 1_555 1_555
C63 C77 1_555 1_555
C68 C69 1_555 1_555
C76 C77 1_555 1_555
C80 C81 1_555 1_555
C87 C88 1_555 1_555

#END
