
#######################################################################
#
#                 Cambridge Crystallographic Data Centre
#                                CCDC 
#
#######################################################################
#
# If this CIF has been generated from an entry in the Cambridge 
# Structural Database, then it will include bibliographic, chemical, 
# crystal, experimental, refinement or atomic coordinate data resulting 
# from the CCDC's data processing and validation procedures.
#
#######################################################################

data_AWUXUM
_chemical_formula_moiety         'C25 H15 F1 N4,H2 O1'
_chemical_name_systematic        
'2-(4-Fluorophenyl)-1-phenyl-1H-imidazo[4,5-f]-[1,10]phenanthroline monohydrate'
_symmetry_cell_setting           triclinic
_symmetry_space_group_name_H-M   'P -1'
_symmetry_Int_Tables_number      2
_space_group_name_Hall           '-P 1'
loop_
_symmetry_equiv_pos_site_id
_symmetry_equiv_pos_as_xyz
1 x,y,z
2 -x,-y,-z
_cell_length_a                   9.0103(10)
_cell_length_b                   10.0946(9)
_cell_length_c                   11.3994(9)
_cell_angle_alpha                86.987(7)
_cell_angle_beta                 75.950(8)
_cell_angle_gamma                82.396(8)
_cell_volume                     996.749
_exptl_crystal_colour            'pale yellow'
_exptl_crystal_description       block
_chemical_melting_point          '567 K'
_cell_formula_units_Z            2
_exptl_crystal_recrystallization_method dichloromethane
loop_
_atom_site_label
_atom_site_type_symbol
_atom_site_fract_x
_atom_site_fract_y
_atom_site_fract_z
F1 F 0.97668(13) -0.28116(12) 0.54415(10)
N1 N 0.92907(12) 0.16988(11) 0.12069(9)
N2 N 1.18158(12) 0.09894(11) 0.08946(10)
N3 N 1.01571(15) 0.48776(13) -0.23133(12)
N4 N 1.31915(15) 0.39690(13) -0.26380(11)
C1 C 1.04372(15) 0.08612(13) 0.15819(11)
C2 C 1.15633(15) 0.19490(13) 0.00436(11)
C3 C 1.00239(15) 0.24120(13) 0.02073(11)
C4 C 0.94466(15) 0.34434(13) -0.05427(12)
C5 C 0.79054(17) 0.40253(15) -0.03881(14)
C6 C 0.75310(18) 0.49897(16) -0.11884(15)
C7 C 0.8689(2) 0.53716(17) -0.21396(16)
C8 C 1.05532(16) 0.39312(13) -0.15231(12)
C9 C 1.21950(16) 0.34406(14) -0.17030(12)
C10 C 1.46849(18) 0.35781(17) -0.27695(15)
C11 C 1.52874(18) 0.26431(17) -0.20121(15)
C12 C 1.42936(16) 0.20624(16) -0.10893(13)
C13 C 1.27071(15) 0.24631(14) -0.09146(12)
C14 C 0.76897(14) 0.19088(13) 0.18319(11)
C15 C 0.66066(16) 0.13798(15) 0.13745(13)
C16 C 0.50721(17) 0.15814(17) 0.19911(14)
C17 C 0.46428(17) 0.22966(18) 0.30488(15)
C18 C 0.57309(18) 0.28226(17) 0.34889(14)
C19 C 0.72683(17) 0.26361(14) 0.28769(13)
C20 C 1.01826(15) -0.00849(13) 0.26178(12)
C21 C 0.88803(18) -0.07485(15) 0.29655(13)
C22 C 0.87439(19) -0.16753(16) 0.39112(14)
C23 C 0.99130(19) -0.19174(16) 0.45003(14)
C24 C 1.12160(18) -0.12905(18) 0.41907(15)
C25 C 1.13416(16) -0.03709(16) 0.32457(14)
H1 H 0.71305 0.37486 0.02691
H2 H 0.64960 0.53925 -0.10958
H3 H 0.84085 0.60287 -0.27007
H4 H 1.53858 0.39588 -0.34194
H5 H 1.63700 0.24125 -0.21342
H6 H 1.46717 0.13990 -0.05757
H7 H 0.69131 0.08871 0.06496
H8 H 0.43144 0.12293 0.16887
H9 H 0.35903 0.24259 0.34746
H10 H 0.54251 0.33145 0.42142
H11 H 0.80214 0.30036 0.31725
H12 H 0.80786 -0.05634 0.25498
H13 H 0.78593 -0.21339 0.41473
H14 H 1.20088 -0.14836 0.46145
H15 H 1.22349 0.00773 0.30171
O1 O 0.26297(19) 0.49467(15) 0.50499(13)
H16 H 0.260(3) 0.470(3) 0.588(3)
H17 H 0.161(4) 0.521(3) 0.507(3)
loop_
_geom_bond_atom_site_label_1
_geom_bond_atom_site_label_2
_geom_bond_site_symmetry_1
_geom_bond_site_symmetry_2
F1 C23 1_555 1_555
N1 C1 1_555 1_555
N2 C1 1_555 1_555
N3 C7 1_555 1_555
N4 C9 1_555 1_555
C1 C20 1_555 1_555
C2 N2 1_555 1_555
C3 N1 1_555 1_555
C4 C3 1_555 1_555
C5 C4 1_555 1_555
C6 C5 1_555 1_555
C7 C6 1_555 1_555
C8 N3 1_555 1_555
C9 C8 1_555 1_555
C10 N4 1_555 1_555
C11 C10 1_555 1_555
C12 C11 1_555 1_555
C13 C2 1_555 1_555
C14 N1 1_555 1_555
C15 C14 1_555 1_555
C16 C15 1_555 1_555
C17 C16 1_555 1_555
C18 C17 1_555 1_555
C19 C14 1_555 1_555
C20 C21 1_555 1_555
C21 C22 1_555 1_555
C22 C23 1_555 1_555
C23 C24 1_555 1_555
C24 C25 1_555 1_555
C25 C20 1_555 1_555
O1 H16 1_555 1_555
H1 C5 1_555 1_555
H2 C6 1_555 1_555
H3 C7 1_555 1_555
H4 C10 1_555 1_555
H5 C11 1_555 1_555
H6 C12 1_555 1_555
H7 C15 1_555 1_555
H8 C16 1_555 1_555
H9 C17 1_555 1_555
H10 C18 1_555 1_555
H11 C19 1_555 1_555
H12 C21 1_555 1_555
H13 C22 1_555 1_555
H14 C24 1_555 1_555
H15 C25 1_555 1_555
H17 O1 1_555 1_555
C2 C3 1_555 1_555
C4 C8 1_555 1_555
C9 C13 1_555 1_555
C12 C13 1_555 1_555
C18 C19 1_555 1_555

#END
