
#######################################################################
#
#                 Cambridge Crystallographic Data Centre
#                                CCDC 
#
#######################################################################
#
# If this CIF has been generated from an entry in the Cambridge 
# Structural Database, then it will include bibliographic, chemical, 
# crystal, experimental, refinement or atomic coordinate data resulting 
# from the CCDC's data processing and validation procedures.
#
#######################################################################

data_AWUYEW
_chemical_formula_moiety         'C14 H20 O5,C7 H10 N1 1+,Cl1 O4 1-'
_chemical_name_systematic        
'Benzo-15-crown-5 benzylammonium clathrate perchlorate'
_symmetry_cell_setting           triclinic
_symmetry_space_group_name_H-M   'P -1'
_symmetry_Int_Tables_number      2
_space_group_name_Hall           '-P 1'
loop_
_symmetry_equiv_pos_site_id
_symmetry_equiv_pos_as_xyz
1 x,y,z
2 -x,-y,-z
_cell_length_a                   10.185(8)
_cell_length_b                   10.403(8)
_cell_length_c                   21.769(17)
_cell_angle_alpha                86.006(16)
_cell_angle_beta                 85.321(15)
_cell_angle_gamma                81.085(15)
_cell_volume                     2267.26
_exptl_crystal_colour            colorless
_exptl_crystal_description       block
_cell_formula_units_Z            4
_exptl_crystal_recrystallization_method methanol
loop_
_atom_site_label
_atom_site_type_symbol
_atom_site_fract_x
_atom_site_fract_y
_atom_site_fract_z
O1 O 0.6712(3) 1.0220(3) 0.02448(12)
O15 O 0.5107(2) 0.9353(2) 0.10681(11)
O16 O 0.6086(2) 0.6975(2) 0.16522(11)
O17 O 0.9135(3) 0.8671(3) 0.00926(11)
O18 O 0.8061(3) 0.6433(2) 0.06750(10)
C22 C 0.4973(4) 1.0669(4) 0.09984(18)
C23 C 0.6629(4) 0.5703(4) 0.14784(16)
H31 H 0.5969 0.5129 0.1583
H32 H 0.7392 0.5385 0.1715
C24 C 0.4713(4) 0.7350(4) 0.15299(17)
H33 H 0.4152 0.6905 0.1828
H34 H 0.4569 0.7112 0.1120
C25 C 0.5833(4) 1.1158(4) 0.05352(18)
C26 C 0.8538(4) 0.9424(4) -0.04122(17)
H35 H 0.7964 0.8929 -0.0602
H36 H 0.9222 0.9643 -0.0721
C27 C 0.7059(4) 0.5637(4) 0.07990(17)
H37 H 0.7403 0.4746 0.0702
H38 H 0.6311 0.5950 0.0552
C28 C 0.7753(4) 1.0623(4) -0.01753(18)
H39 H 0.8312 1.1098 0.0036
H40 H 0.7377 1.1184 -0.0512
C29 C 0.4366(4) 0.8779(4) 0.15734(17)
H41 H 0.3417 0.9049 0.1543
H42 H 0.4608 0.9039 0.1963
C30 C 0.5763(4) 1.2474(4) 0.0414(2)
H43 H 0.6324 1.2801 0.0103
C31 C 0.4088(4) 1.1528(4) 0.1349(2)
H44 H 0.3536 1.1211 0.1666
C32 C 0.8494(4) 0.6529(4) 0.00347(17)
H45 H 0.7758 0.6928 -0.0204
H46 H 0.8813 0.5668 -0.0111
C33 C 0.9595(4) 0.7348(4) -0.00422(19)
H47 H 1.0284 0.6985 0.0230
H48 H 0.9986 0.7319 -0.0463
C34 C 0.4841(4) 1.3326(4) 0.0762(2)
H49 H 0.4782 1.4220 0.0675
C35 C 0.4030(4) 1.2867(4) 0.1225(2)
H50 H 0.3438 1.3446 0.1459
Cl1 Cl 0.36438(9) 0.89191(9) 0.33889(4)
O2 O 0.3029(3) 0.8442(3) 0.29040(11)
O3 O 0.3838(3) 0.7917(3) 0.38741(13)
O4 O 0.4928(3) 0.9212(3) 0.31622(15)
O5 O 0.2824(4) 1.0027(4) 0.3607(2)
N1 N 0.6762(3) 0.6880(3) 0.37501(13)
H1 H 0.5901 0.7200 0.3804
H2 H 0.7248 0.7511 0.3781
H3 H 0.6969 0.6247 0.4038
C1 C 0.6468(4) 0.5136(3) 0.30695(15)
C2 C 0.5137(4) 0.5180(4) 0.29703(16)
H4 H 0.4572 0.5974 0.2965
C3 C 0.7045(4) 0.6347(4) 0.31257(16)
H5 H 0.6688 0.7003 0.2820
H6 H 0.8002 0.6167 0.3036
C4 C 0.7299(4) 0.3953(4) 0.30816(16)
H7 H 0.8196 0.3917 0.3146
C5 C 0.6798(5) 0.2823(4) 0.29985(18)
H8 H 0.7356 0.2026 0.3010
C6 C 0.5468(5) 0.2875(4) 0.28981(18)
H9 H 0.5134 0.2111 0.2844
C7 C 0.4640(4) 0.4043(4) 0.28783(18)
H10 H 0.3749 0.4076 0.2804
Cl2 Cl 0.10363(10) 0.61455(9) 0.16724(4)
O6 O -0.0250(3) 0.6380(4) 0.20213(14)
O7 O 0.2053(3) 0.5796(3) 0.20888(15)
O8 O 0.1022(4) 0.5135(3) 0.12737(16)
O9 O 0.1212(4) 0.7303(3) 0.13208(15)
O10 O 0.9681(2) 0.6393(2) 0.39628(11)
O11 O 0.8343(2) 0.5051(2) 0.47121(11)
O12 O 0.5800(2) 0.6241(2) 0.50194(11)
O13 O 0.8458(3) 0.8872(2) 0.36549(12)
C8 C 1.0006(3) 0.5082(3) 0.39105(17)
O14 O 0.6524(3) 0.8774(2) 0.46951(13)
C9 C 0.9291(3) 0.4330(3) 0.43345(16)
C10 C 1.0945(4) 0.4473(4) 0.34809(17)
H11 H 1.1403 0.4964 0.3188
C11 C 0.7430(4) 0.4377(3) 0.50978(17)
H12 H 0.7911 0.3743 0.5379
H13 H 0.6926 0.3922 0.4848
C12 C 0.9542(4) 0.3008(4) 0.43375(18)
H14 H 0.9073 0.2508 0.4621
C13 C 0.9861(4) 0.8573(3) 0.37295(17)
H15 H 1.0029 0.8630 0.4158
H16 H 1.0329 0.9193 0.3481
C14 C 0.5169(4) 0.7419(4) 0.52799(18)
H17 H 0.4789 0.7216 0.5692
H18 H 0.4444 0.7808 0.5032
C15 C 1.0342(4) 0.7240(4) 0.35340(16)
H19 H 1.0116 0.7153 0.3116
H20 H 1.1301 0.7035 0.3550
C16 C 0.6517(4) 0.5375(4) 0.54513(16)
H21 H 0.5904 0.4956 0.5734
H22 H 0.7026 0.5850 0.5689
C17 C 1.0504(4) 0.2401(4) 0.3915(2)
H23 H 1.0682 0.1496 0.3918
C18 C 1.1182(4) 0.3144(4) 0.34953(19)
H24 H 1.1819 0.2734 0.3214
C19 C 0.6090(4) 0.8382(4) 0.53164(18)
H25 H 0.5637 0.9132 0.5529
H26 H 0.6850 0.7993 0.5542
C20 C 0.7496(4) 0.9599(4) 0.4666(2)
H27 H 0.8290 0.9157 0.4851
H28 H 0.7162 1.0375 0.4886
C21 C 0.7811(4) 0.9955(4) 0.3999(2)
H29 H 0.6990 1.0320 0.3814
H30 H 0.8382 1.0625 0.3968
N2 N 0.8076(3) -0.1394(3) 0.13766(13)
H51 H 0.8107 -0.0948 0.1013
H52 H 0.7461 -0.1917 0.1386
H53 H 0.8868 -0.1868 0.1432
C36 C 0.8413(4) 0.1721(4) 0.16623(17)
H54 H 0.7619 0.1991 0.1476
C37 C 0.8706(4) 0.0455(3) 0.18928(16)
C38 C 1.0463(4) 0.2209(4) 0.19747(18)
H55 H 1.1054 0.2799 0.1998
C39 C 1.0771(4) 0.0953(4) 0.22098(17)
H56 H 1.1559 0.0695 0.2403
C40 C 0.9908(4) 0.0068(4) 0.21591(17)
H57 H 1.0134 -0.0793 0.2305
C41 C 0.7731(4) -0.0471(4) 0.18761(17)
H58 H 0.7686 -0.0965 0.2270
H59 H 0.6856 0.0022 0.1820
C42 C 0.9288(4) 0.2600(4) 0.17051(18)
H60 H 0.9077 0.3457 0.1550
loop_
_geom_bond_atom_site_label_1
_geom_bond_atom_site_label_2
_geom_bond_site_symmetry_1
_geom_bond_site_symmetry_2
O1 C25 1_555 1_555
Cl1 O2 1_555 1_555
O3 Cl1 1_555 1_555
O4 Cl1 1_555 1_555
O5 Cl1 1_555 1_555
N1 H1 1_555 1_555
H2 N1 1_555 1_555
H3 N1 1_555 1_555
C1 C2 1_555 1_555
C2 H4 1_555 1_555
C3 N1 1_555 1_555
H5 C3 1_555 1_555
H6 C3 1_555 1_555
C4 C1 1_555 1_555
H7 C4 1_555 1_555
C5 C4 1_555 1_555
H8 C5 1_555 1_555
C6 C5 1_555 1_555
H9 C6 1_555 1_555
C7 C2 1_555 1_555
H10 C7 1_555 1_555
Cl2 O6 1_555 1_555
O7 Cl2 1_555 1_555
O8 Cl2 1_555 1_555
O9 Cl2 1_555 1_555
O10 C8 1_555 1_555
O11 C9 1_555 1_555
O12 C14 1_555 1_555
O13 C13 1_555 1_555
C8 C9 1_555 1_555
O14 C19 1_555 1_555
C9 C12 1_555 1_555
C10 C8 1_555 1_555
H11 C10 1_555 1_555
C11 O11 1_555 1_555
H12 C11 1_555 1_555
H13 C11 1_555 1_555
C12 H14 1_555 1_555
C13 H15 1_555 1_555
H16 C13 1_555 1_555
C14 H17 1_555 1_555
H18 C14 1_555 1_555
C15 O10 1_555 1_555
H19 C15 1_555 1_555
H20 C15 1_555 1_555
C16 O12 1_555 1_555
H21 C16 1_555 1_555
H22 C16 1_555 1_555
C17 C12 1_555 1_555
H23 C17 1_555 1_555
C18 C10 1_555 1_555
H24 C18 1_555 1_555
C19 C14 1_555 1_555
H25 C19 1_555 1_555
H26 C19 1_555 1_555
C20 O14 1_555 1_555
H27 C20 1_555 1_555
H28 C20 1_555 1_555
C21 O13 1_555 1_555
H29 C21 1_555 1_555
H30 C21 1_555 1_555
O15 C22 1_555 1_555
O16 C23 1_555 1_555
O17 C26 1_555 1_555
O18 C27 1_555 1_555
C22 C25 1_555 1_555
C23 H31 1_555 1_555
H32 C23 1_555 1_555
C24 O16 1_555 1_555
H33 C24 1_555 1_555
H34 C24 1_555 1_555
C25 C30 1_555 1_555
C26 H35 1_555 1_555
H36 C26 1_555 1_555
C27 C23 1_555 1_555
H37 C27 1_555 1_555
H38 C27 1_555 1_555
C28 O1 1_555 1_555
H39 C28 1_555 1_555
H40 C28 1_555 1_555
C29 O15 1_555 1_555
H41 C29 1_555 1_555
H42 C29 1_555 1_555
C30 H43 1_555 1_555
C31 C22 1_555 1_555
H44 C31 1_555 1_555
C32 O18 1_555 1_555
H45 C32 1_555 1_555
H46 C32 1_555 1_555
C33 O17 1_555 1_555
H47 C33 1_555 1_555
H48 C33 1_555 1_555
C34 C30 1_555 1_555
H49 C34 1_555 1_555
C35 C31 1_555 1_555
H50 C35 1_555 1_555
N2 H51 1_555 1_555
H52 N2 1_555 1_555
H53 N2 1_555 1_555
C36 H54 1_555 1_555
C37 C36 1_555 1_555
C38 H55 1_555 1_555
C39 C38 1_555 1_555
H56 C39 1_555 1_555
C40 C37 1_555 1_555
H57 C40 1_555 1_555
C41 N2 1_555 1_555
H58 C41 1_555 1_555
H59 C41 1_555 1_555
C42 C36 1_555 1_555
H60 C42 1_555 1_555
C1 C3 1_555 1_555
C6 C7 1_555 1_555
C11 C16 1_555 1_555
C13 C15 1_555 1_555
C17 C18 1_555 1_555
C20 C21 1_555 1_555
C24 C29 1_555 1_555
C26 C28 1_555 1_555
C32 C33 1_555 1_555
C34 C35 1_555 1_555
C37 C41 1_555 1_555
C38 C42 1_555 1_555
C39 C40 1_555 1_555

#END
