
#######################################################################
#
#                 Cambridge Crystallographic Data Centre
#                                CCDC 
#
#######################################################################
#
# If this CIF has been generated from an entry in the Cambridge 
# Structural Database, then it will include bibliographic, chemical, 
# crystal, experimental, refinement or atomic coordinate data resulting 
# from the CCDC's data processing and validation procedures.
#
#######################################################################

data_AXACIM
_chemical_formula_moiety         'C14 H13 N1 O1'
_chemical_name_systematic        2,2-Diphenylacetamide
_symmetry_cell_setting           monoclinic
_symmetry_space_group_name_H-M   'P 21'
_symmetry_Int_Tables_number      4
_space_group_name_Hall           'P 2yb'
loop_
_symmetry_equiv_pos_site_id
_symmetry_equiv_pos_as_xyz
1 x,y,z
2 -x,1/2+y,-z
_cell_length_a                   5.1687(3)
_cell_length_b                   28.5511(13)
_cell_length_c                   7.8006(4)
_cell_angle_alpha                90
_cell_angle_beta                 98.152(5)
_cell_angle_gamma                90
_cell_volume                     1139.52
_exptl_crystal_colour            colorless
_exptl_crystal_description       block
_cell_formula_units_Z            4
loop_
_atom_site_label
_atom_site_type_symbol
_atom_site_fract_x
_atom_site_fract_y
_atom_site_fract_z
N1 N 0.9797(3) 0.54261(6) 0.6365(2)
H1 H 1.121(3) 0.5307(8) 0.600(3)
H2 H 0.984(5) 0.5667(6) 0.706(3)
O2 O 0.5496(2) 0.53784(5) 0.64407(16)
C1 C 0.7494(3) 0.52226(5) 0.5965(2)
C2 C 0.7440(3) 0.47718(6) 0.4902(2)
H5 H 0.9097 0.4758 0.4381
C3 C 0.5167(3) 0.47744(6) 0.3416(2)
C4 C 0.4550(5) 0.51789(8) 0.2469(3)
H6 H 0.5534 0.5456 0.2759
C5 C 0.2520(6) 0.51860(10) 0.1106(4)
H7 H 0.2130 0.5467 0.0469
C6 C 0.1062(5) 0.47893(10) 0.0666(3)
H8 H -0.0353 0.4796 -0.0254
C7 C 0.1684(4) 0.43851(9) 0.1575(3)
H9 H 0.0707 0.4108 0.1272
C8 C 0.3724(4) 0.43764(7) 0.2933(2)
H10 H 0.4138 0.4092 0.3543
C9 C 0.7419(3) 0.43519(5) 0.6105(2)
C10 C 0.5760(4) 0.43225(7) 0.7334(3)
H11 H 0.4577 0.4571 0.7451
C11 C 0.5795(5) 0.39352(9) 0.8402(3)
H12 H 0.4630 0.3921 0.9239
C12 C 0.7488(5) 0.35715(8) 0.8270(3)
H13 H 0.7521 0.3309 0.9020
C13 C 0.9135(5) 0.35925(9) 0.7036(4)
H14 H 1.0288 0.3340 0.6910
C14 C 0.9117(4) 0.39807(8) 0.5981(3)
H15 H 1.0294 0.3994 0.5151
O1 O 1.0081(2) 0.62240(4) -0.11977(17)
N2 N 0.5779(3) 0.61736(6) -0.1120(2)
H3 H 0.561(5) 0.5935(6) -0.185(3)
H4 H 0.431(3) 0.6281(9) -0.080(3)
C15 C 0.8083(3) 0.63780(6) -0.0712(2)
C16 C 0.8143(3) 0.68289(5) 0.0360(2)
H16 H 0.6495 0.6841 0.0892
C17 C 0.8148(3) 0.72535(6) -0.0840(2)
C18 C 0.9825(4) 0.72830(7) -0.2076(2)
H17 H 1.1005 0.7034 -0.2201
C19 C 0.9779(4) 0.76758(8) -0.3129(3)
H18 H 1.0941 0.7694 -0.3967
C20 C 0.8089(5) 0.80352(7) -0.2976(3)
H19 H 0.8061 0.8301 -0.3710
C21 C 0.6427(5) 0.80100(8) -0.1751(3)
H20 H 0.5257 0.8260 -0.1627
C22 C 0.6461(4) 0.76191(7) -0.0699(3)
H21 H 0.5294 0.7603 0.0137
C23 C 1.0422(3) 0.68233(6) 0.1827(2)
C24 C 1.1076(5) 0.64165(8) 0.2764(3)
H22 H 1.0119 0.6137 0.2462
C25 C 1.3098(6) 0.64110(11) 0.4128(3)
H23 H 1.3508 0.6129 0.4757
C26 C 1.4513(5) 0.68078(11) 0.4580(3)
H24 H 1.5922 0.6801 0.5505
C27 C 1.3884(4) 0.72136(9) 0.3690(3)
H25 H 1.4847 0.7491 0.4008
C28 C 1.1853(4) 0.72226(7) 0.2329(2)
H26 H 1.1432 0.7508 0.1727
loop_
_geom_bond_atom_site_label_1
_geom_bond_atom_site_label_2
_geom_bond_site_symmetry_1
_geom_bond_site_symmetry_2
N1 H1 1_555 1_555
H2 N1 1_555 1_555
O1 C15 1_555 1_555
O2 C1 1_555 1_555
N2 H3 1_555 1_555
H4 N2 1_555 1_555
C1 N1 1_555 1_555
C2 C1 1_555 1_555
H5 C2 1_555 1_555
C3 C2 1_555 1_555
C4 C3 1_555 1_555
H6 C4 1_555 1_555
C5 C4 1_555 1_555
H7 C5 1_555 1_555
C6 C5 1_555 1_555
H8 C6 1_555 1_555
C7 C6 1_555 1_555
H9 C7 1_555 1_555
C8 C3 1_555 1_555
H10 C8 1_555 1_555
C9 C2 1_555 1_555
C10 C9 1_555 1_555
H11 C10 1_555 1_555
C11 C10 1_555 1_555
H12 C11 1_555 1_555
C12 C11 1_555 1_555
H13 C12 1_555 1_555
C13 C12 1_555 1_555
H14 C13 1_555 1_555
C14 C9 1_555 1_555
H15 C14 1_555 1_555
C15 N2 1_555 1_555
C16 C15 1_555 1_555
H16 C16 1_555 1_555
C17 C16 1_555 1_555
C18 C17 1_555 1_555
H17 C18 1_555 1_555
C19 C18 1_555 1_555
H18 C19 1_555 1_555
C20 C19 1_555 1_555
H19 C20 1_555 1_555
C21 C20 1_555 1_555
H20 C21 1_555 1_555
C22 C17 1_555 1_555
H21 C22 1_555 1_555
C23 C16 1_555 1_555
C24 C23 1_555 1_555
H22 C24 1_555 1_555
C25 C24 1_555 1_555
H23 C25 1_555 1_555
C26 C25 1_555 1_555
H24 C26 1_555 1_555
C27 C26 1_555 1_555
H25 C27 1_555 1_555
C28 C23 1_555 1_555
H26 C28 1_555 1_555
C7 C8 1_555 1_555
C13 C14 1_555 1_555
C21 C22 1_555 1_555
C27 C28 1_555 1_555

#END
