
#######################################################################
#
#                 Cambridge Crystallographic Data Centre
#                                CCDC 
#
#######################################################################
#
# If this CIF has been generated from an entry in the Cambridge 
# Structural Database, then it will include bibliographic, chemical, 
# crystal, experimental, refinement or atomic coordinate data resulting 
# from the CCDC's data processing and validation procedures.
#
#######################################################################

data_AXAGOW
_chemical_formula_moiety         'C25 H22 N2 O1 Se1'
_chemical_name_systematic        
1-(2-Naphthyl)-3-phenyl-3-(4,5,6,7-tetrahydro-1,2,3-benzoselenadiazol-4-yl)propan-1-one
_symmetry_cell_setting           triclinic
_symmetry_space_group_name_H-M   'P -1'
_symmetry_Int_Tables_number      2
_space_group_name_Hall           '-P 1'
loop_
_symmetry_equiv_pos_site_id
_symmetry_equiv_pos_as_xyz
1 x,y,z
2 -x,-y,-z
_cell_length_a                   8.0600(4)
_cell_length_b                   10.1215(5)
_cell_length_c                   13.0827(6)
_cell_angle_alpha                81.479(4)
_cell_angle_beta                 76.478(4)
_cell_angle_gamma                82.087(4)
_cell_volume                     1020.33
_exptl_crystal_colour            blue
_exptl_crystal_description       block
_cell_formula_units_Z            2
loop_
_atom_site_label
_atom_site_type_symbol
_atom_site_fract_x
_atom_site_fract_y
_atom_site_fract_z
Se1 Se 0.62678(4) 0.82915(3) 0.61536(3)
O1 O 0.3614(3) 0.5213(2) 0.20388(17)
N1 N 0.5844(3) 0.6746(2) 0.48187(19)
N2 N 0.7071(3) 0.7047(3) 0.5160(2)
C1 C 0.4227(3) 0.7366(2) 0.5202(2)
C2 C 0.4117(4) 0.8232(3) 0.5918(2)
C3 C 0.2505(4) 0.8991(3) 0.6443(2)
H1 H 0.2499 0.9934 0.6163
H2 H 0.2451 0.8916 0.7197
C4 C 0.0939(4) 0.8443(3) 0.62557(19)
H3 H 0.0714 0.7629 0.6736
H4 H -0.0057 0.9098 0.6406
C5 C 0.1215(3) 0.8137(3) 0.5122(2)
H5 H 0.1464 0.8947 0.4642
H6 H 0.0169 0.7858 0.5016
C6 C 0.2686(3) 0.7034(3) 0.48589(19)
H7 H 0.2328 0.6210 0.5303
C7 C 0.3076(3) 0.6729(2) 0.36983(19)
H8 H 0.4113 0.6089 0.3604
C8 C 0.3471(3) 0.7946(3) 0.28883(18)
C9 C 0.5157(4) 0.8233(3) 0.2486(2)
H9 H 0.6049 0.7671 0.2711
C10 C 0.5519(5) 0.9349(3) 0.1752(2)
H10 H 0.6651 0.9530 0.1493
C11 C 0.4227(5) 1.0187(3) 0.1405(2)
H11 H 0.4479 1.0933 0.0912
C12 C 0.2555(5) 0.9919(3) 0.1790(2)
H12 H 0.1669 1.0484 0.1560
C13 C 0.2194(4) 0.8812(3) 0.2518(2)
H13 H 0.1057 0.8639 0.2770
C14 C 0.1634(3) 0.6015(3) 0.3511(2)
H14 H 0.1320 0.5334 0.4105
H15 H 0.0635 0.6662 0.3483
C15 C 0.2124(4) 0.5363(3) 0.2507(2)
C16 C 0.0773(3) 0.4844(2) 0.2104(2)
C17 C 0.1294(3) 0.4041(2) 0.13129(19)
H16 H 0.2463 0.3836 0.1048
C18 C 0.0114(3) 0.3514(2) 0.08876(19)
C19 C -0.1658(3) 0.3833(3) 0.12857(19)
C20 C -0.2175(3) 0.4677(3) 0.2103(2)
H17 H -0.3339 0.4906 0.2366
C21 C -0.1000(3) 0.5157(3) 0.2508(2)
H18 H -0.1367 0.5694 0.3055
C22 C -0.2856(4) 0.3321(3) 0.0848(2)
H19 H -0.4026 0.3538 0.1098
C23 C -0.2302(4) 0.2516(3) 0.0068(2)
H20 H -0.3095 0.2182 -0.0214
C24 C -0.0545(4) 0.2186(3) -0.0316(2)
H21 H -0.0184 0.1623 -0.0845
C25 C 0.0639(4) 0.2670(3) 0.0068(2)
H22 H 0.1802 0.2450 -0.0205
loop_
_geom_bond_atom_site_label_1
_geom_bond_atom_site_label_2
_geom_bond_site_symmetry_1
_geom_bond_site_symmetry_2
Se1 N2 1_555 1_555
O1 C15 1_555 1_555
N1 N2 1_555 1_555
C1 N1 1_555 1_555
C2 Se1 1_555 1_555
C3 C2 1_555 1_555
H1 C3 1_555 1_555
H2 C3 1_555 1_555
C4 C3 1_555 1_555
H3 C4 1_555 1_555
H4 C4 1_555 1_555
C5 C4 1_555 1_555
H5 C5 1_555 1_555
H6 C5 1_555 1_555
C6 C1 1_555 1_555
H7 C6 1_555 1_555
C7 C6 1_555 1_555
H8 C7 1_555 1_555
C8 C7 1_555 1_555
C9 C8 1_555 1_555
H9 C9 1_555 1_555
C10 C9 1_555 1_555
H10 C10 1_555 1_555
C11 C10 1_555 1_555
H11 C11 1_555 1_555
C12 C11 1_555 1_555
H12 C12 1_555 1_555
C13 C8 1_555 1_555
H13 C13 1_555 1_555
C14 C7 1_555 1_555
H14 C14 1_555 1_555
H15 C14 1_555 1_555
C15 C14 1_555 1_555
C16 C15 1_555 1_555
C17 C16 1_555 1_555
H16 C17 1_555 1_555
C18 C17 1_555 1_555
C19 C18 1_555 1_555
C20 C19 1_555 1_555
H17 C20 1_555 1_555
C21 C16 1_555 1_555
H18 C21 1_555 1_555
C22 C19 1_555 1_555
H19 C22 1_555 1_555
C23 C22 1_555 1_555
H20 C23 1_555 1_555
C24 C23 1_555 1_555
H21 C24 1_555 1_555
C25 C18 1_555 1_555
H22 C25 1_555 1_555
C1 C2 1_555 1_555
C5 C6 1_555 1_555
C12 C13 1_555 1_555
C20 C21 1_555 1_555
C24 C25 1_555 1_555

#END
