
#######################################################################
#
#                 Cambridge Crystallographic Data Centre
#                                CCDC 
#
#######################################################################
#
# If this CIF has been generated from an entry in the Cambridge 
# Structural Database, then it will include bibliographic, chemical, 
# crystal, experimental, refinement or atomic coordinate data resulting 
# from the CCDC's data processing and validation procedures.
#
#######################################################################

data_AXAJAL
_chemical_formula_moiety         'C16 H14 N2 O3,4(H2 O1)'
_chemical_name_systematic        
'4-(1H-Benzimidazol-2-ylmethoxy)-3-methoxybenzaldehyde tetrahydrate'
_symmetry_cell_setting           triclinic
_symmetry_space_group_name_H-M   'P -1'
_symmetry_Int_Tables_number      2
_space_group_name_Hall           '-P 1'
loop_
_symmetry_equiv_pos_site_id
_symmetry_equiv_pos_as_xyz
1 x,y,z
2 -x,-y,-z
_cell_length_a                   6.8953(6)
_cell_length_b                   11.4266(13)
_cell_length_c                   11.7287(14)
_cell_angle_alpha                107.965(10)
_cell_angle_beta                 90.906(8)
_cell_angle_gamma                91.769(8)
_cell_volume                     878.317
_exptl_crystal_colour            'pale yellow'
_exptl_crystal_description       block
_cell_formula_units_Z            2
loop_
_atom_site_label
_atom_site_type_symbol
_atom_site_fract_x
_atom_site_fract_y
_atom_site_fract_z
O1 O 0.25247(16) 0.50917(9) 0.48675(9)
O2 O 0.27855(17) 0.27445(9) 0.41320(10)
O3 O 0.3989(4) 0.3155(2) -0.0763(2)
N1 N 0.18875(16) 0.59173(10) 0.72323(11)
H9 H 0.192(2) 0.5154(12) 0.6960(14)
N2 N 0.19911(17) 0.78893(10) 0.72974(10)
C1 C 0.16508(18) 0.65805(12) 0.84166(12)
C2 C 0.1383(2) 0.62248(15) 0.94340(14)
H10 H 0.1349 0.5383 0.9401
C3 C 0.1168(2) 0.71524(17) 1.04909(15)
H11 H 0.0961 0.6948 1.1207
C4 C 0.1248(3) 0.83881(17) 1.05371(15)
H12 H 0.1095 0.9004 1.1285
C5 C 0.1541(2) 0.87414(14) 0.95290(14)
H13 H 0.1614 0.9586 0.9573
C6 C 0.17285(18) 0.78171(12) 0.84452(12)
C7 C 0.20690(18) 0.67405(11) 0.66209(12)
C8 C 0.2316(2) 0.63843(12) 0.53048(12)
H14 H 0.1171 0.6617 0.4915
H15 H 0.3480 0.6816 0.5122
C9 C 0.28517(18) 0.46020(12) 0.36761(12)
C10 C 0.3059(2) 0.52749(13) 0.28790(13)
H16 H 0.2975 0.6145 0.3152
C11 C 0.3390(2) 0.46721(14) 0.16864(13)
H17 H 0.3551 0.5132 0.1141
C12 C 0.34859(19) 0.34084(14) 0.12823(13)
C13 C 0.32778(19) 0.27242(13) 0.20786(13)
H18 H 0.3346 0.1853 0.1796
C14 C 0.29751(18) 0.33106(12) 0.32700(13)
C15 C 0.2914(3) 0.14435(14) 0.37694(19)
H19 H 0.2866 0.1158 0.4476
H20 H 0.4139 0.1212 0.3363
H21 H 0.1825 0.1063 0.3219
C16 C 0.3838(12) 0.2765(6) 0.0018(4)
H22 H 0.3959 0.1900 -0.0179
O4 O 0.1293(2) 0.86262(11) 0.38472(13)
H1 H 0.161(3) 0.8992(19) 0.4568(14)
H2 H 0.045(3) 0.9090(19) 0.3647(19)
O5 O 0.18563(19) 0.98294(11) 0.63137(12)
H3 H 0.192(3) 0.9297(16) 0.6684(18)
H4 H 0.286(3) 1.0304(17) 0.6559(18)
O6 O 0.1819(3) 0.33687(14) 0.6899(2)
H5 H 0.101(3) 0.276(2) 0.674(2)
H6 H 0.246(4) 0.326(3) 0.626(2)
O7 O 0.4891(2) 0.15864(14) -0.29388(13)
H7 H 0.603(3) 0.158(2) -0.3182(19)
H8 H 0.493(3) 0.192(2) -0.2216(14)
C17? C 0.3765(19) 0.2805(10) 0.0036(9)
H23? H 0.3785 0.3337 -0.0447
O8? O 0.3970(4) 0.1784(3) -0.0482(2)
loop_
_geom_bond_atom_site_label_1
_geom_bond_atom_site_label_2
_geom_bond_site_symmetry_1
_geom_bond_site_symmetry_2
O1 C8 1_555 1_555
O2 C14 1_555 1_555
O3 C16 1_555 1_555
O4 H1 1_555 1_555
H2 O4 1_555 1_555
O5 H3 1_555 1_555
H4 O5 1_555 1_555
O6 H5 1_555 1_555
H6 O6 1_555 1_555
O7 H7 1_555 1_555
H8 O7 1_555 1_555
N1 H9 1_555 1_555
N2 C6 1_555 1_555
C1 N1 1_555 1_555
C2 C1 1_555 1_555
H10 C2 1_555 1_555
C3 C2 1_555 1_555
H11 C3 1_555 1_555
C4 C3 1_555 1_555
H12 C4 1_555 1_555
C5 C4 1_555 1_555
H13 C5 1_555 1_555
C6 C1 1_555 1_555
C7 N1 1_555 1_555
C8 C7 1_555 1_555
H14 C8 1_555 1_555
H15 C8 1_555 1_555
C9 O1 1_555 1_555
C10 C9 1_555 1_555
H16 C10 1_555 1_555
C11 C10 1_555 1_555
H17 C11 1_555 1_555
C12 C11 1_555 1_555
C13 C12 1_555 1_555
H18 C13 1_555 1_555
C14 C9 1_555 1_555
C15 O2 1_555 1_555
H19 C15 1_555 1_555
H20 C15 1_555 1_555
H21 C15 1_555 1_555
C16 C12 1_555 1_555
H22 C16 1_555 1_555
N2 C7 1_555 1_555
C5 C6 1_555 1_555
C13 C14 1_555 1_555

#END
