
#######################################################################
#
#                 Cambridge Crystallographic Data Centre
#                                CCDC 
#
#######################################################################
#
# If this CIF has been generated from an entry in the Cambridge 
# Structural Database, then it will include bibliographic, chemical, 
# crystal, experimental, refinement or atomic coordinate data resulting 
# from the CCDC's data processing and validation procedures.
#
#######################################################################

data_AXAKUG
_chemical_formula_moiety         '1.5(C10 H8 N2),2(C7 H5 N1 O4)'
_chemical_name_systematic        
"sesquikis(4,4'-Bipyridine) bis(pyridine-3,5-dicarboxylic acid)"
_symmetry_cell_setting           monoclinic
_symmetry_space_group_name_H-M   'P 21/n'
_symmetry_Int_Tables_number      14
_space_group_name_Hall           '-P 2yn'
loop_
_symmetry_equiv_pos_site_id
_symmetry_equiv_pos_as_xyz
1 x,y,z
2 1/2-x,1/2+y,1/2-z
3 -x,-y,-z
4 1/2+x,1/2-y,1/2+z
_cell_length_a                   13.8461(4)
_cell_length_b                   11.0564(3)
_cell_length_c                   18.1060(4)
_cell_angle_alpha                90
_cell_angle_beta                 110.511(1)
_cell_angle_gamma                90
_cell_volume                     2596.09
_exptl_crystal_colour            colorless
_exptl_crystal_description       bar
_cell_formula_units_Z            4
loop_
_atom_site_label
_atom_site_type_symbol
_atom_site_fract_x
_atom_site_fract_y
_atom_site_fract_z
O1 O 0.89232(10) 0.36614(11) 1.13048(7)
O2 O 0.91840(11) 0.19752(11) 1.20316(7)
H1 H 0.9475 0.2439 1.2395
O3 O 0.74670(12) 0.28184(12) 0.82900(7)
O4 O 0.71741(11) 0.08686(12) 0.79668(7)
H2 H 0.7058 0.1124 0.7519
N1 N 0.75488(11) -0.01589(13) 1.02110(8)
C1 C 0.88290(13) 0.25840(16) 1.13706(9)
C2 C 0.82884(12) 0.17824(14) 1.06824(9)
C3 C 0.79903(13) 0.06220(15) 1.07946(9)
H5 H 0.8105 0.0371 1.1309
C4 C 0.74003(12) 0.02231(15) 0.94810(9)
H6 H 0.7118 -0.0317 0.9067
C5 C 0.76425(12) 0.13790(15) 0.93021(9)
C6 C 0.80869(12) 0.21694(15) 0.99183(9)
H7 H 0.8249 0.2955 0.9819
C7 C 0.74147(13) 0.17741(17) 0.84653(9)
O5 O 0.87147(10) 0.21216(11) 0.58878(6)
H3 H 0.8940 0.2100 0.6371
O6 O 0.91991(11) 0.01904(12) 0.60066(7)
O7 O 0.79322(9) -0.10426(10) 0.23327(6)
H4 H 0.7969 -0.1689 0.2123
O8 O 0.84624(11) -0.21541(11) 0.34327(7)
N2 N 0.76208(10) 0.19983(11) 0.34879(7)
C8 C 0.88248(12) 0.10611(15) 0.56092(9)
C9 C 0.84316(11) 0.10225(13) 0.47271(8)
C10 C 0.79689(12) 0.20178(14) 0.42774(9)
H8 H 0.7897 0.2724 0.4533
C11 C 0.77338(12) 0.09854(14) 0.31231(9)
H9 H 0.7507 0.0980 0.2575
C12 C 0.81732(11) -0.00551(13) 0.35251(8)
C13 C 0.85226(12) -0.00289(14) 0.43401(9)
H10 H 0.8818 -0.0715 0.4628
C14 C 0.82183(12) -0.11939(14) 0.30945(9)
N3 N 1.06273(12) 0.77515(15) 0.25843(8)
N4 N 0.83365(12) 0.65049(16) -0.14945(8)
C15 C 1.05291(14) 0.66299(18) 0.23018(10)
H11 H 1.0778 0.5997 0.2656
C16 C 1.00790(13) 0.63556(17) 0.15141(10)
H12 H 1.0007 0.5554 0.1348
C17 C 0.97328(12) 0.72881(15) 0.09689(9)
C18 C 0.92417(12) 0.70293(16) 0.01128(9)
C19 C 0.88180(13) 0.58973(16) -0.01519(9)
H13 H 0.8830 0.5294 0.0209
C20 C 0.83816(14) 0.56738(18) -0.09498(10)
H14 H 0.8107 0.4911 -0.1115
C21 C 0.87225(15) 0.75957(19) -0.12476(10)
H15 H 0.8684 0.8187 -0.1622
C22 C 0.91764(14) 0.78877(17) -0.04623(10)
H16 H 0.9439 0.8660 -0.0317
C23 C 0.98663(14) 0.84544(17) 0.12672(10)
H17 H 0.9666 0.9110 0.0926
C24 C 1.02949(15) 0.86454(18) 0.20685(11)
H18 H 1.0354 0.9435 0.2256
N5 N 0.51891(10) 0.82688(12) 0.16936(7)
C25 C 0.48131(13) 0.77880(15) 0.09709(9)
H19 H 0.4599 0.6985 0.0919
C26 C 0.47296(12) 0.84300(14) 0.02999(9)
H20 H 0.4469 0.8057 -0.0191
C27 C 0.50350(11) 0.96381(14) 0.03536(8)
C28 C 0.54147(13) 1.01290(15) 0.11086(9)
H21 H 0.5624 1.0933 0.1180
C29 C 0.54790(13) 0.94206(16) 0.17488(9)
H22 H 0.5740 0.9767 0.2248
N5B N 0.48109(10) 1.17312(12) -0.16936(7)
C25B C 0.51869(13) 1.22120(15) -0.09709(9)
H19B H 0.5401 1.3015 -0.0919
C26B C 0.52704(12) 1.15700(14) -0.02999(9)
H20B H 0.5531 1.1943 0.0191
C27B C 0.49650(11) 1.03619(14) -0.03536(8)
C28B C 0.45853(13) 0.98710(15) -0.11086(9)
H21B H 0.4376 0.9067 -0.1180
C29B C 0.45210(13) 1.05794(16) -0.17488(9)
H22B H 0.4260 1.0233 -0.2248
loop_
_geom_bond_atom_site_label_1
_geom_bond_atom_site_label_2
_geom_bond_site_symmetry_1
_geom_bond_site_symmetry_2
O1 C1 1_555 1_555
O2 H1 1_555 1_555
O3 C7 1_555 1_555
O4 H2 1_555 1_555
O5 H3 1_555 1_555
O6 C8 1_555 1_555
O7 H4 1_555 1_555
O8 C14 1_555 1_555
N1 C3 1_555 1_555
N2 C10 1_555 1_555
N3 C15 1_555 1_555
N4 C20 1_555 1_555
N5 C25 1_555 1_555
C1 O2 1_555 1_555
C2 C1 1_555 1_555
C3 C2 1_555 1_555
H5 C3 1_555 1_555
C4 N1 1_555 1_555
H6 C4 1_555 1_555
C5 C4 1_555 1_555
C6 C2 1_555 1_555
H7 C6 1_555 1_555
C7 O4 1_555 1_555
C8 O5 1_555 1_555
C9 C8 1_555 1_555
C10 C9 1_555 1_555
H8 C10 1_555 1_555
C11 N2 1_555 1_555
H9 C11 1_555 1_555
C12 C11 1_555 1_555
C13 C9 1_555 1_555
H10 C13 1_555 1_555
C14 O7 1_555 1_555
C15 H11 1_555 1_555
C16 C15 1_555 1_555
H12 C16 1_555 1_555
C17 C16 1_555 1_555
C18 C17 1_555 1_555
C19 C18 1_555 1_555
H13 C19 1_555 1_555
C20 C19 1_555 1_555
H14 C20 1_555 1_555
C21 N4 1_555 1_555
H15 C21 1_555 1_555
C22 C18 1_555 1_555
H16 C22 1_555 1_555
C23 C17 1_555 1_555
H17 C23 1_555 1_555
C24 N3 1_555 1_555
H18 C24 1_555 1_555
C25 H19 1_555 1_555
C26 C25 1_555 1_555
H20 C26 1_555 1_555
C27 C26 1_555 1_555
C28 C27 1_555 1_555
H21 C28 1_555 1_555
C29 N5 1_555 1_555
H22 C29 1_555 1_555
N5B C25B 1_555 1_555
C25B H19B 1_555 1_555
C26B C25B 1_555 1_555
H20B C26B 1_555 1_555
C27B C27 1_555 1_555
C28B C27B 1_555 1_555
H21B C28B 1_555 1_555
C29B N5B 1_555 1_555
H22B C29B 1_555 1_555
C5 C6 1_555 1_555
C5 C7 1_555 1_555
C12 C13 1_555 1_555
C12 C14 1_555 1_555
C21 C22 1_555 1_555
C23 C24 1_555 1_555
C28 C29 1_555 1_555
C26B C27B 1_555 1_555
C28B C29B 1_555 1_555

#END
