
#######################################################################
#
#                 Cambridge Crystallographic Data Centre
#                                CCDC 
#
#######################################################################
#
# If this CIF has been generated from an entry in the Cambridge 
# Structural Database, then it will include bibliographic, chemical, 
# crystal, experimental, refinement or atomic coordinate data resulting 
# from the CCDC's data processing and validation procedures.
#
#######################################################################

data_AXAKOB
_chemical_formula_moiety         'C14 H12 I1 N1'
_chemical_name_systematic        9-(2-iodoethyl)-9H-carbazole
_symmetry_cell_setting           monoclinic
_symmetry_space_group_name_H-M   'P 21/c'
_symmetry_Int_Tables_number      14
_space_group_name_Hall           '-P 2ybc'
loop_
_symmetry_equiv_pos_site_id
_symmetry_equiv_pos_as_xyz
1 x,y,z
2 -x,1/2+y,1/2-z
3 -x,-y,-z
4 x,1/2-y,1/2+z
_cell_length_a                   5.5702(3)
_cell_length_b                   12.2317(8)
_cell_length_c                   17.8865(12)
_cell_angle_alpha                90
_cell_angle_beta                 97.608(6)
_cell_angle_gamma                90
_cell_volume                     1207.93
_cell_formula_units_Z            4
loop_
_atom_site_label
_atom_site_type_symbol
_atom_site_fract_x
_atom_site_fract_y
_atom_site_fract_z
I1 I 0.25031(5) -0.07607(2) 0.56752(2)
N1 N 0.4612(6) 0.1292(3) 0.69866(19)
C1 C 0.4732(7) 0.1170(3) 0.7761(2)
C2 C 0.1563(7) 0.2306(3) 0.7364(2)
C3 C 0.2707(7) 0.1987(3) 0.6740(2)
C4 C 0.2852(7) 0.1775(3) 0.8018(2)
C5 C 0.2633(8) 0.1766(3) 0.8788(2)
H1 H 0.1379 0.2142 0.8969
C6 C -0.0409(7) 0.3026(3) 0.7254(3)
H2 H -0.1184 0.3247 0.7658
C7 C 0.1902(8) 0.2369(3) 0.6002(3)
H3 H 0.2650 0.2157 0.5591
C8 C 0.6394(8) 0.0590(3) 0.8255(3)
H4 H 0.7628 0.0192 0.8080
C9 C 0.6165(9) 0.0621(3) 0.9009(3)
H5 H 0.7285 0.0251 0.9350
C10 C -0.1176(8) 0.3398(4) 0.6537(3)
H6 H -0.2478 0.3879 0.6458
C11 C 0.6261(8) 0.0772(3) 0.6536(3)
H7 H 0.7902 0.0867 0.6787
H8 H 0.6147 0.1141 0.6053
C12 C 0.4294(9) 0.1193(4) 0.9274(3)
H9 H 0.4164 0.1189 0.9787
C13 C -0.0038(8) 0.3068(4) 0.5928(3)
H10 H -0.0617 0.3332 0.5450
C14 C 0.5803(7) -0.0431(3) 0.6400(3)
H11 H 0.5745 -0.0791 0.6881
H12 H 0.7146 -0.0740 0.6178
loop_
_geom_bond_atom_site_label_1
_geom_bond_atom_site_label_2
_geom_bond_site_symmetry_1
_geom_bond_site_symmetry_2
I1 C14 1_555 1_555
N1 C1 1_555 1_555
C1 C4 1_555 1_555
C2 C3 1_555 1_555
C3 N1 1_555 1_555
C4 C2 1_555 1_555
C5 C4 1_555 1_555
H1 C5 1_555 1_555
C6 C2 1_555 1_555
H2 C6 1_555 1_555
C7 C3 1_555 1_555
H3 C7 1_555 1_555
C8 C1 1_555 1_555
H4 C8 1_555 1_555
C9 C8 1_555 1_555
H5 C9 1_555 1_555
C10 C6 1_555 1_555
H6 C10 1_555 1_555
C11 N1 1_555 1_555
H7 C11 1_555 1_555
H8 C11 1_555 1_555
C12 C5 1_555 1_555
H9 C12 1_555 1_555
C13 C7 1_555 1_555
H10 C13 1_555 1_555
C14 C11 1_555 1_555
H11 C14 1_555 1_555
H12 C14 1_555 1_555
C9 C12 1_555 1_555
C10 C13 1_555 1_555

#END
