
#######################################################################
#
#                 Cambridge Crystallographic Data Centre
#                                CCDC 
#
#######################################################################
#
# If this CIF has been generated from an entry in the Cambridge 
# Structural Database, then it will include bibliographic, chemical, 
# crystal, experimental, refinement or atomic coordinate data resulting 
# from the CCDC's data processing and validation procedures.
#
#######################################################################

data_AXAKIV
_chemical_formula_moiety         'C12 H14 N1 O1 1+,F6 P1 1-'
_chemical_name_systematic        
'1-ethyl-6-methoxyquinolinium hexafluorophosphate'
_symmetry_cell_setting           monoclinic
_symmetry_space_group_name_H-M   'P 21/c'
_symmetry_Int_Tables_number      14
_space_group_name_Hall           '-P 2ybc'
loop_
_symmetry_equiv_pos_site_id
_symmetry_equiv_pos_as_xyz
1 x,y,z
2 -x,1/2+y,1/2-z
3 -x,-y,-z
4 x,1/2-y,1/2+z
_cell_length_a                   6.2940(4)
_cell_length_b                   20.6070(16)
_cell_length_c                   11.2176(8)
_cell_angle_alpha                90
_cell_angle_beta                 96.233(8)
_cell_angle_gamma                90
_cell_volume                     1446.33
_cell_formula_units_Z            4
loop_
_atom_site_label
_atom_site_type_symbol
_atom_site_fract_x
_atom_site_fract_y
_atom_site_fract_z
P1 P 0.65025(15) 0.33560(6) 0.40372(9)
F1 F 0.6240(7) 0.3761(2) 0.2848(3)
F2 F 0.6831(8) 0.2923(4) 0.5183(5)
F3 F 0.6260(9) 0.2724(2) 0.3277(6)
F4 F 0.6691(10) 0.4002(3) 0.4747(5)
F5 F 0.3990(5) 0.3347(3) 0.4053(4)
F6 F 0.9018(5) 0.3358(2) 0.4094(4)
O1 O 0.8813(5) 0.00095(15) 0.3138(3)
N1 N 0.2504(5) 0.16916(16) 0.4265(3)
C1 C 0.3947(6) 0.10186(17) 0.2804(3)
C2 C 0.4023(6) 0.12468(17) 0.3998(3)
C3 C 0.5547(6) 0.05907(18) 0.2489(3)
H1 H 0.5512 0.0441 0.1705
C4 C 0.2268(7) 0.1232(2) 0.1958(3)
H2 H 0.2200 0.1091 0.1168
C5 C 0.7145(6) 0.03955(17) 0.3335(4)
C6 C 0.2592(7) 0.2008(2) 0.5484(4)
H3 H 0.4057 0.2019 0.5855
H4 H 0.2078 0.2452 0.5398
C7 C 0.5632(6) 0.10185(19) 0.4868(3)
H5 H 0.5665 0.1151 0.5663
C8 C 0.7134(6) 0.06034(19) 0.4535(4)
H6 H 0.8187 0.0451 0.5113
C9 C 0.1269(9) 0.1644(3) 0.6241(4)
H7 H 0.1722 0.1199 0.6281
H8 H -0.0200 0.1666 0.5906
H9 H 0.1414 0.1826 0.7033
C10 C 0.0762(7) 0.1640(2) 0.2289(4)
H10 H -0.0383 0.1761 0.1740
C11 C 0.0929(7) 0.1875(2) 0.3440(4)
H11 H -0.0083 0.2170 0.3651
C12 C 0.8954(9) -0.0205(2) 0.1932(5)
H12 H 0.8997 0.0164 0.1415
H13 H 0.7728 -0.0466 0.1668
H14 H 1.0229 -0.0458 0.1906
F7? F 0.582(6) 0.3481(12) 0.5246(18)
F8? F 0.675(4) 0.2605(11) 0.433(2)
F9? F 0.794(5) 0.3159(10) 0.287(2)
F10? F 0.452(3) 0.2990(15) 0.348(2)
F11? F 0.604(4) 0.3979(11) 0.3432(16)
F12? F 0.843(3) 0.3787(13) 0.456(2)
loop_
_geom_bond_atom_site_label_1
_geom_bond_atom_site_label_2
_geom_bond_site_symmetry_1
_geom_bond_site_symmetry_2
P1 F1 1_555 1_555
F2 P1 1_555 1_555
F3 P1 1_555 1_555
F4 P1 1_555 1_555
F5 P1 1_555 1_555
F6 P1 1_555 1_555
O1 C5 1_555 1_555
N1 C2 1_555 1_555
C1 C2 1_555 1_555
C2 C7 1_555 1_555
C3 C1 1_555 1_555
H1 C3 1_555 1_555
C4 C1 1_555 1_555
H2 C4 1_555 1_555
C5 C3 1_555 1_555
C6 N1 1_555 1_555
H3 C6 1_555 1_555
H4 C6 1_555 1_555
C7 H5 1_555 1_555
C8 C5 1_555 1_555
H6 C8 1_555 1_555
C9 C6 1_555 1_555
H7 C9 1_555 1_555
H8 C9 1_555 1_555
H9 C9 1_555 1_555
C10 C4 1_555 1_555
H10 C10 1_555 1_555
C11 N1 1_555 1_555
H11 C11 1_555 1_555
C12 O1 1_555 1_555
H12 C12 1_555 1_555
H13 C12 1_555 1_555
H14 C12 1_555 1_555
C7 C8 1_555 1_555
C10 C11 1_555 1_555

#END
