
#######################################################################
#
#                 Cambridge Crystallographic Data Centre
#                                CCDC 
#
#######################################################################
#
# If this CIF has been generated from an entry in the Cambridge 
# Structural Database, then it will include bibliographic, chemical, 
# crystal, experimental, refinement or atomic coordinate data resulting 
# from the CCDC's data processing and validation procedures.
#
#######################################################################

data_AXALAM
_chemical_formula_moiety         'C11 H13 N3 O3'
_chemical_name_systematic        '3-(Salicyloylhydrazono)butan-2-one oxime'
_symmetry_cell_setting           monoclinic
_symmetry_space_group_name_H-M   'P 21/n'
_symmetry_Int_Tables_number      14
_space_group_name_Hall           '-P 2yn'
loop_
_symmetry_equiv_pos_site_id
_symmetry_equiv_pos_as_xyz
1 x,y,z
2 1/2+x,1/2-y,1/2+z
3 -x,-y,-z
4 1/2-x,1/2+y,1/2-z
_cell_length_a                   4.5187(2)
_cell_length_b                   20.8680(14)
_cell_length_c                   12.2448(9)
_cell_angle_alpha                90
_cell_angle_beta                 94.974(3)
_cell_angle_gamma                90
_cell_volume                     1150.29
_exptl_crystal_colour            yellow
_exptl_crystal_description       prism
_cell_formula_units_Z            4
loop_
_atom_site_label
_atom_site_type_symbol
_atom_site_fract_x
_atom_site_fract_y
_atom_site_fract_z
C1 C -0.2179(3) 0.30256(7) 0.49199(11)
C2 C -0.1522(3) 0.30592(7) 0.38241(11)
C3 C -0.2753(4) 0.35628(9) 0.31863(13)
H1 H -0.2181 0.3604 0.2462
C4 C -0.4596(4) 0.40142(9) 0.36020(15)
H2 H -0.5268 0.4380 0.3176
C5 C -0.5235(4) 0.39669(9) 0.46807(14)
H3 H -0.6530 0.4232 0.4970
C6 C -0.4054(4) 0.34793(8) 0.53291(12)
H4 H -0.4521 0.3429 0.6000
C7 C 0.0404(3) 0.26016(7) 0.32642(11)
C8 C 0.4727(3) 0.12690(7) 0.40873(11)
C9 C 0.6609(3) 0.08002(7) 0.35610(11)
C10 C 0.6618(5) 0.07744(10) 0.23456(13)
H5 H 0.8448 0.0682 0.2120
H6 H 0.5959 0.1179 0.2041
H7 H 0.5230 0.0453 0.2068
C11 C 0.4470(4) 0.12306(8) 0.52964(12)
H8 H 0.6012 0.1376 0.5666
H9 H 0.4171 0.0792 0.5497
H10 H 0.2764 0.1471 0.5473
N1 N 0.1692(3) 0.21285(6) 0.38916(9)
H11 H 0.1451 0.2126 0.4577
N2 N 0.3450(3) 0.16851(6) 0.34321(10)
N3 N 0.8181(3) 0.04343(6) 0.42214(10)
O1 O -0.0990(3) 0.25527(5) 0.55857(9)
H12 H -0.1665 0.2550 0.6170
O2 O 0.0761(3) 0.26589(6) 0.22879(9)
O3 O 0.9968(3) 0.00102(6) 0.36758(9)
H13 H 1.0869 -0.0195 0.4190
loop_
_geom_bond_atom_site_label_1
_geom_bond_atom_site_label_2
_geom_bond_site_symmetry_1
_geom_bond_site_symmetry_2
C1 C2 1_555 1_555
C2 C3 1_555 1_555
C3 H1 1_555 1_555
C4 C3 1_555 1_555
H2 C4 1_555 1_555
C5 C4 1_555 1_555
H3 C5 1_555 1_555
C6 C1 1_555 1_555
H4 C6 1_555 1_555
C7 C2 1_555 1_555
C8 C9 1_555 1_555
C9 C10 1_555 1_555
C10 H5 1_555 1_555
H6 C10 1_555 1_555
H7 C10 1_555 1_555
C11 C8 1_555 1_555
H8 C11 1_555 1_555
H9 C11 1_555 1_555
H10 C11 1_555 1_555
N1 C7 1_555 1_555
H11 N1 1_555 1_555
N2 C8 1_555 1_555
N3 C9 1_555 1_555
O1 C1 1_555 1_555
H12 O1 1_555 1_555
O2 C7 1_555 1_555
O3 N3 1_555 1_555
H13 O3 1_555 1_555
C5 C6 1_555 1_555
N1 N2 1_555 1_555

#END
