
#######################################################################
#
#                 Cambridge Crystallographic Data Centre
#                                CCDC 
#
#######################################################################
#
# If this CIF has been generated from an entry in the Cambridge 
# Structural Database, then it will include bibliographic, chemical, 
# crystal, experimental, refinement or atomic coordinate data resulting 
# from the CCDC's data processing and validation procedures.
#
#######################################################################

data_AXAMUJ
_chemical_formula_moiety         '2(C15 H21 O3 1-),C4 H14 N2 2+,2(H2 O1)'
_chemical_name_systematic        
'butane-1,4-diaminium 5-(2,5-dimethylphenoxy)-2,2-dimethylpentanoate dihydrate'
_symmetry_cell_setting           monoclinic
_symmetry_space_group_name_H-M   'P 21/c'
_symmetry_Int_Tables_number      14
_space_group_name_Hall           '-P 2ybc'
loop_
_symmetry_equiv_pos_site_id
_symmetry_equiv_pos_as_xyz
1 x,y,z
2 -x,1/2+y,1/2-z
3 -x,-y,-z
4 x,1/2-y,1/2+z
_cell_length_a                   9.5307(8)
_cell_length_b                   39.909(3)
_cell_length_c                   9.9713(8)
_cell_angle_alpha                90
_cell_angle_beta                 91.480(3)
_cell_angle_gamma                90
_cell_volume                     3791.43
_exptl_crystal_colour            colorless
_exptl_crystal_description       block
_cell_formula_units_Z            4
loop_
_atom_site_label
_atom_site_type_symbol
_atom_site_fract_x
_atom_site_fract_y
_atom_site_fract_z
O1 O 0.1937(2) 0.04978(5) 0.6683(2)
C1 C 0.3139(3) 0.06176(7) 0.6513(3)
O2 O 0.4223(2) 0.04542(6) 0.6759(2)
C2 C 0.3231(3) 0.09823(7) 0.6015(3)
O3 O 0.2594(2) 0.17025(5) 0.9286(2)
C3 C 0.2641(3) 0.11999(7) 0.7175(3)
H1 H 0.1678 0.1133 0.7318
H2 H 0.3177 0.1150 0.7992
C4 C 0.2673(4) 0.15763(8) 0.6951(3)
H3 H 0.3641 0.1651 0.6943
H4 H 0.2246 0.1627 0.6080
C5 C 0.1906(4) 0.17671(8) 0.8020(3)
H5 H 0.1921 0.2005 0.7827
H6 H 0.0935 0.1695 0.8041
C6 C 0.2061(3) 0.18473(7) 1.0416(3)
C7 C 0.0963(3) 0.20735(7) 1.0384(3)
H7 H 0.0538 0.2131 0.9567
C8 C 0.0485(3) 0.22162(8) 1.1565(3)
C9 C 0.1136(4) 0.21268(8) 1.2756(3)
H8 H 0.0832 0.2218 1.3556
C10 C 0.2243(4) 0.19013(8) 1.2780(3)
H9 H 0.2679 0.1847 1.3597
C11 C 0.2714(3) 0.17558(7) 1.1617(3)
C12 C 0.3895(4) 0.15030(10) 1.1645(4)
H10 H 0.3529 0.1286 1.1420
H11 H 0.4323 0.1496 1.2527
H12 H 0.4584 0.1566 1.1007
C13 C -0.0715(4) 0.24614(10) 1.1515(4)
H13 H -0.0372 0.2679 1.1275
H14 H -0.1133 0.2473 1.2380
H15 H -0.1405 0.2389 1.0859
C14 C 0.2279(4) 0.10140(8) 0.4753(3)
H16 H 0.2600 0.0864 0.4074
H17 H 0.2310 0.1240 0.4425
H18 H 0.1332 0.0958 0.4971
C15 C 0.4732(4) 0.10794(9) 0.5714(4)
H19 H 0.5311 0.1052 0.6509
H20 H 0.4757 0.1309 0.5429
H21 H 0.5075 0.0938 0.5016
O4 O 0.9193(2) 0.06968(6) 0.6922(2)
H22 H 1.0052 0.0662 0.6763
H23 H 0.9312 0.0690 0.7769
N1 N 0.3072(3) -0.03295(6) 0.4062(2)
H24 H 0.3872 -0.0411 0.3757
H25 H 0.2360 -0.0457 0.3776
H26 H 0.3108 -0.0328 0.4955
N2 N 0.1809(3) 0.02488(6) -0.0740(2)
H27 H 0.1872 0.0301 -0.1604
H28 H 0.0983 0.0316 -0.0442
H29 H 0.1888 0.0028 -0.0641
C16 C 0.2868(4) 0.00142(8) 0.3564(3)
H30 H 0.3597 0.0158 0.3944
H31 H 0.1970 0.0098 0.3854
C17 C 0.2911(3) 0.00279(8) 0.2043(3)
H32 H 0.3784 -0.0070 0.1750
H33 H 0.2143 -0.0104 0.1663
C18 C 0.2796(4) 0.03841(9) 0.1532(3)
H34 H 0.1891 0.0474 0.1771
H35 H 0.3514 0.0519 0.1981
C19 C 0.2952(4) 0.04178(9) 0.0040(3)
H36 H 0.2961 0.0654 -0.0194
H37 H 0.3845 0.0323 -0.0208
O5 O 0.6261(3) 0.02423(6) 0.3248(2)
H38 H 0.6741 0.0343 0.2664
H39 H 0.6242 0.0030 0.3174
O6 O 0.9327(3) 0.05748(6) 0.9676(2)
O7 O 0.7719(4) 0.04233(6) 1.1046(3)
O8 O 0.7520(2) 0.17070(5) 0.7651(2)
C20 C 0.8453(4) 0.06412(8) 1.0552(3)
C21 C 0.8305(3) 0.10056(7) 1.1000(3)
C22 C 0.7641(3) 0.12039(7) 0.9799(3)
H40 H 0.8166 0.1154 0.9003
H41 H 0.6689 0.1125 0.9643
C23 C 0.7604(3) 0.15819(7) 0.9988(3)
H42 H 0.7166 0.1631 1.0833
H43 H 0.8560 0.1665 1.0045
C24 C 0.6822(3) 0.17664(8) 0.8877(3)
H44 H 0.5861 0.1687 0.8805
H45 H 0.6806 0.2005 0.9069
C25 C 0.6999(3) 0.18553(7) 0.6499(3)
C26 C 0.5901(3) 0.20818(7) 0.6473(3)
H46 H 0.5467 0.2137 0.7268
C27 C 0.5439(3) 0.22272(8) 0.5282(3)
C28 C 0.6109(4) 0.21424(8) 0.4118(3)
H47 H 0.5816 0.2237 0.3305
C29 C 0.7208(4) 0.19185(8) 0.4155(3)
H48 H 0.7651 0.1867 0.3361
C30 C 0.7674(3) 0.17686(7) 0.5329(3)
C31 C 0.8870(4) 0.15235(10) 0.5360(4)
H49 H 0.9583 0.1599 0.5986
H50 H 0.9255 0.1507 0.4482
H51 H 0.8536 0.1308 0.5632
C32 C 0.4236(4) 0.24765(10) 0.5269(4)
H52 H 0.3497 0.2393 0.5814
H53 H 0.3887 0.2507 0.4365
H54 H 0.4563 0.2687 0.5620
C33 C 0.7357(4) 0.10258(8) 1.2214(3)
H55 H 0.6436 0.0946 1.1967
H56 H 0.7297 0.1254 1.2509
H57 H 0.7743 0.0890 1.2928
C34 C 0.9752(4) 0.11408(10) 1.1389(4)
H58 H 1.0163 0.1004 1.2086
H59 H 0.9667 0.1367 1.1705
H60 H 1.0338 0.1137 1.0621
loop_
_geom_bond_atom_site_label_1
_geom_bond_atom_site_label_2
_geom_bond_site_symmetry_1
_geom_bond_site_symmetry_2
O1 C1 1_555 1_555
C1 O2 1_555 1_555
C2 C1 1_555 1_555
O3 C5 1_555 1_555
C3 C2 1_555 1_555
H1 C3 1_555 1_555
H2 C3 1_555 1_555
C4 C3 1_555 1_555
H3 C4 1_555 1_555
H4 C4 1_555 1_555
C5 C4 1_555 1_555
H5 C5 1_555 1_555
H6 C5 1_555 1_555
C6 O3 1_555 1_555
C7 C6 1_555 1_555
H7 C7 1_555 1_555
C8 C7 1_555 1_555
C9 C8 1_555 1_555
H8 C9 1_555 1_555
C10 C9 1_555 1_555
H9 C10 1_555 1_555
C11 C6 1_555 1_555
C12 C11 1_555 1_555
H10 C12 1_555 1_555
H11 C12 1_555 1_555
H12 C12 1_555 1_555
C13 C8 1_555 1_555
H13 C13 1_555 1_555
H14 C13 1_555 1_555
H15 C13 1_555 1_555
C14 C2 1_555 1_555
H16 C14 1_555 1_555
H17 C14 1_555 1_555
H18 C14 1_555 1_555
C15 C2 1_555 1_555
H19 C15 1_555 1_555
H20 C15 1_555 1_555
H21 C15 1_555 1_555
O4 H22 1_555 1_555
H23 O4 1_555 1_555
N1 H24 1_555 1_555
H25 N1 1_555 1_555
H26 N1 1_555 1_555
N2 H27 1_555 1_555
H28 N2 1_555 1_555
H29 N2 1_555 1_555
C16 N1 1_555 1_555
H30 C16 1_555 1_555
H31 C16 1_555 1_555
C17 C16 1_555 1_555
H32 C17 1_555 1_555
H33 C17 1_555 1_555
C18 C17 1_555 1_555
H34 C18 1_555 1_555
H35 C18 1_555 1_555
C19 N2 1_555 1_555
H36 C19 1_555 1_555
H37 C19 1_555 1_555
O5 H38 1_555 1_555
H39 O5 1_555 1_555
O6 C20 1_555 1_555
O7 C20 1_555 1_555
O8 C24 1_555 1_555
C20 C21 1_555 1_555
C21 C22 1_555 1_555
C22 H40 1_555 1_555
H41 C22 1_555 1_555
C23 C22 1_555 1_555
H42 C23 1_555 1_555
H43 C23 1_555 1_555
C24 C23 1_555 1_555
H44 C24 1_555 1_555
H45 C24 1_555 1_555
C25 O8 1_555 1_555
C26 C25 1_555 1_555
H46 C26 1_555 1_555
C27 C26 1_555 1_555
C28 C27 1_555 1_555
H47 C28 1_555 1_555
C29 C28 1_555 1_555
H48 C29 1_555 1_555
C30 C25 1_555 1_555
C31 C30 1_555 1_555
H49 C31 1_555 1_555
H50 C31 1_555 1_555
H51 C31 1_555 1_555
C32 C27 1_555 1_555
H52 C32 1_555 1_555
H53 C32 1_555 1_555
H54 C32 1_555 1_555
C33 C21 1_555 1_555
H55 C33 1_555 1_555
H56 C33 1_555 1_555
H57 C33 1_555 1_555
C34 C21 1_555 1_555
H58 C34 1_555 1_555
H59 C34 1_555 1_555
H60 C34 1_555 1_555
C10 C11 1_555 1_555
C18 C19 1_555 1_555
C29 C30 1_555 1_555

#END
