
#######################################################################
#
#                 Cambridge Crystallographic Data Centre
#                                CCDC 
#
#######################################################################
#
# If this CIF has been generated from an entry in the Cambridge 
# Structural Database, then it will include bibliographic, chemical, 
# crystal, experimental, refinement or atomic coordinate data resulting 
# from the CCDC's data processing and validation procedures.
#
#######################################################################

data_AXANUJ
_chemical_formula_moiety         'C20 H30 Cl1 N1 O3'
_chemical_name_systematic        
(5S)-3-Chloro-4-diallylamino-5-((1R,2S,5R)-2-isopropyl-5-methylcyclohexyloxy)furan-2(5H)-one
_symmetry_cell_setting           orthorhombic
_symmetry_space_group_name_H-M   'P 21 21 21'
_symmetry_Int_Tables_number      19
_space_group_name_Hall           'P 2ac 2ab'
loop_
_symmetry_equiv_pos_site_id
_symmetry_equiv_pos_as_xyz
1 x,y,z
2 1/2-x,-y,1/2+z
3 -x,1/2+y,1/2-z
4 1/2+x,1/2-y,-z
_cell_length_a                   8.4540(17)
_cell_length_b                   11.722(2)
_cell_length_c                   20.648(4)
_cell_angle_alpha                90
_cell_angle_beta                 90
_cell_angle_gamma                90
_cell_volume                     2046.17
_exptl_crystal_colour            colorless
_exptl_crystal_description       block
_cell_formula_units_Z            4
loop_
_atom_site_label
_atom_site_type_symbol
_atom_site_fract_x
_atom_site_fract_y
_atom_site_fract_z
Cl1 Cl 0.27814(9) 0.46092(4) 0.91712(3)
C1 C 0.3852(2) 0.68664(15) 0.92440(10)
C2 C 0.3084(3) 0.60235(16) 1.01887(11)
C3 C 0.3270(3) 0.58965(15) 0.95061(10)
C4 C 0.3995(3) 0.77169(15) 0.97949(9)
H1 H 0.5078 0.8009 0.9827
C5 C 0.2172(3) 1.05546(15) 0.97288(11)
H2 H 0.1096 1.0295 0.9827
C6 C 0.3116(3) 0.95600(17) 1.07345(10)
H3 H 0.3896 0.9024 1.0895
H4 H 0.2077 0.9252 1.0830
C7 C 0.3297(3) 0.96703(16) 1.00113(9)
H5 H 0.4389 0.9890 0.9911
C8 C 0.2206(4) 1.1564(2) 1.08117(14)
H6 H 0.2396 1.2296 1.1017
H7 H 0.1125 1.1341 1.0905
C9 C 0.6469(3) 0.81529(18) 0.81335(11)
H8 H 0.7300 0.7852 0.8374
C10 C 0.2408(4) 1.16881(17) 1.00889(14)
H9 H 0.3461 1.1976 0.9999
H10 H 0.1652 1.2242 0.9928
C11 C 0.4919(3) 0.82587(17) 0.84594(11)
H11 H 0.5042 0.8718 0.8847
H12 H 0.4189 0.8652 0.8174
C12 C 0.6762(4) 0.8440(2) 0.75483(13)
H13 H 0.5963 0.8744 0.7291
H14 H 0.7774 0.8345 0.7380
C13 C 0.3794(3) 0.6432(2) 0.80906(11)
H15 H 0.3966 0.5640 0.8207
H16 H 0.4479 0.6606 0.7727
C14 C 0.2284(3) 1.06627(18) 0.89904(12)
H17 H 0.2244 0.9886 0.8815
C15 C 0.0861(4) 1.1300(3) 0.87141(16)
H18 H 0.0887 1.1263 0.8250
H19 H 0.0897 1.2083 0.8850
H20 H -0.0096 1.0954 0.8869
C16 C 0.3313(3) 1.0696(2) 1.10909(12)
H21 H 0.4397 1.0964 1.1019
C17 C 0.1074(4) 0.7219(3) 0.81581(15)
H22 H 0.1338 0.7650 0.8521
H23 H 0.0053 0.7251 0.7991
C18 C 0.2130(5) 0.6574(3) 0.78848(13)
H24 H 0.1808 0.6161 0.7524
C19 C 0.3837(4) 1.1195(3) 0.87538(15)
H25 H 0.4714 1.0808 0.8952
H26 H 0.3862 1.1988 0.8870
H27 H 0.3908 1.1121 0.8292
C20 C 0.3083(5) 1.0534(3) 1.18160(13)
H28 H 0.2053 1.0221 1.1896
H29 H 0.3177 1.1258 1.2030
H30 H 0.3876 1.0023 1.1979
O1 O 0.29340(17) 0.86000(10) 0.96896(6)
O2 O 0.2592(2) 0.53592(13) 1.05869(8)
O3 O 0.3578(2) 0.70923(11) 1.03625(6)
N1 N 0.4245(2) 0.71508(14) 0.86380(8)
loop_
_geom_bond_atom_site_label_1
_geom_bond_atom_site_label_2
_geom_bond_site_symmetry_1
_geom_bond_site_symmetry_2
Cl1 C3 1_555 1_555
C1 C3 1_555 1_555
C2 C3 1_555 1_555
C4 C1 1_555 1_555
H1 C4 1_555 1_555
C5 H2 1_555 1_555
C6 H3 1_555 1_555
H4 C6 1_555 1_555
C7 C5 1_555 1_555
H5 C7 1_555 1_555
C8 H6 1_555 1_555
H7 C8 1_555 1_555
C9 H8 1_555 1_555
C10 C5 1_555 1_555
H9 C10 1_555 1_555
H10 C10 1_555 1_555
C11 C9 1_555 1_555
H11 C11 1_555 1_555
H12 C11 1_555 1_555
C12 C9 1_555 1_555
H13 C12 1_555 1_555
H14 C12 1_555 1_555
C13 H15 1_555 1_555
H16 C13 1_555 1_555
C14 C5 1_555 1_555
H17 C14 1_555 1_555
C15 C14 1_555 1_555
H18 C15 1_555 1_555
H19 C15 1_555 1_555
H20 C15 1_555 1_555
C16 C6 1_555 1_555
H21 C16 1_555 1_555
C17 H22 1_555 1_555
H23 C17 1_555 1_555
C18 C13 1_555 1_555
H24 C18 1_555 1_555
C19 C14 1_555 1_555
H25 C19 1_555 1_555
H26 C19 1_555 1_555
H27 C19 1_555 1_555
C20 C16 1_555 1_555
H28 C20 1_555 1_555
H29 C20 1_555 1_555
H30 C20 1_555 1_555
O1 C4 1_555 1_555
O2 C2 1_555 1_555
O3 C2 1_555 1_555
N1 C1 1_555 1_555
C4 O3 1_555 1_555
C6 C7 1_555 1_555
C7 O1 1_555 1_555
C8 C10 1_555 1_555
C8 C16 1_555 1_555
C11 N1 1_555 1_555
C13 N1 1_555 1_555
C17 C18 1_555 1_555

#END
