
#######################################################################
#
#                 Cambridge Crystallographic Data Centre
#                                CCDC 
#
#######################################################################
#
# If this CIF has been generated from an entry in the Cambridge 
# Structural Database, then it will include bibliographic, chemical, 
# crystal, experimental, refinement or atomic coordinate data resulting 
# from the CCDC's data processing and validation procedures.
#
#######################################################################

data_AXANAQ02
_chemical_formula_moiety         'C15 H14 Cl2 O4'
_chemical_name_systematic        
2a,8b-dichloro-1-methoxy-1-(1-methoxyvinyl)-1,2,2a,8b-tetrahydro-3H-cyclobuta[c]chromen-3-one
_symmetry_cell_setting           monoclinic
_symmetry_space_group_name_H-M   'P 21/c'
_symmetry_Int_Tables_number      14
_space_group_name_Hall           '-P 2ybc'
loop_
_symmetry_equiv_pos_site_id
_symmetry_equiv_pos_as_xyz
1 x,y,z
2 -x,1/2+y,1/2-z
3 -x,-y,-z
4 x,1/2-y,1/2+z
_cell_length_a                   13.0766(3)
_cell_length_b                   8.0857(2)
_cell_length_c                   14.0760(4)
_cell_angle_alpha                90
_cell_angle_beta                 90.350(2)
_cell_angle_gamma                90
_cell_volume                     1488.28
_exptl_crystal_colour            colorless
_exptl_crystal_description       block
_chemical_melting_point          '174-176 deg.C'
_cell_formula_units_Z            4
loop_
_atom_site_label
_atom_site_type_symbol
_atom_site_fract_x
_atom_site_fract_y
_atom_site_fract_z
C1 C 0.13800(18) 0.6400(3) 0.02150(15)
Cl1 Cl 0.22388(3) 1.08268(6) -0.00783(3)
Cl2 Cl 0.07727(4) 1.28340(6) 0.13034(4)
O1 O 0.23346(8) 0.81975(13) 0.22655(7)
O2 O 0.24512(9) 1.17184(17) 0.30398(8)
O3 O 0.08563(9) 1.10660(17) 0.33054(9)
C2 C 0.23241(10) 1.03833(18) 0.11577(10)
C3 C 0.33132(11) 1.09663(18) 0.15726(12)
C4 C 0.13547(11) 1.09647(18) 0.16800(11)
O4 O 0.31370(10) 0.70158(17) 0.05610(11)
C5 C 0.21114(13) 0.7244(2) 0.06457(11)
C6 C 0.19195(10) 0.85726(18) 0.13561(10)
C7 C 0.15229(12) 1.12102(19) 0.27389(11)
C8 C 0.33221(12) 1.1615(2) 0.24741(12)
C9 C 0.08336(11) 0.9317(2) 0.14554(12)
H1 H 0.0438 0.9320 0.0870
H2 H 0.0443 0.8864 0.1978
C10 C 0.42387(13) 1.0892(2) 0.10899(15)
H3 H 0.4258 1.0453 0.0480
C11 C 0.19505(15) 0.6705(2) 0.26767(14)
H4 H 0.2262 0.6537 0.3288
H5 H 0.2109 0.5787 0.2270
H6 H 0.1223 0.6788 0.2747
C12 C 0.42098(15) 1.2192(3) 0.29039(16)
H7 H 0.4195 1.2625 0.3516
C13 C 0.51122(16) 1.2113(3) 0.2411(2)
H8 H 0.5714 1.2500 0.2688
C14 C 0.51274(14) 1.1465(3) 0.15109(19)
H9 H 0.5741 1.1411 0.1181
C15 C 0.3452(2) 0.5598(3) 0.0035(3)
H10 H 0.4185 0.5559 0.0015
H11 H 0.3184 0.5665 -0.0600
H12 H 0.3199 0.4617 0.0336
H13 H 0.1516(17) 0.555(3) -0.0212(17)
H14 H 0.0668(19) 0.672(3) 0.0371(17)
loop_
_geom_bond_atom_site_label_1
_geom_bond_atom_site_label_2
_geom_bond_site_symmetry_1
_geom_bond_site_symmetry_2
C1 C5 1_555 1_555
Cl1 C2 1_555 1_555
Cl2 C4 1_555 1_555
O1 C6 1_555 1_555
O2 C7 1_555 1_555
O3 C7 1_555 1_555
C2 C3 1_555 1_555
C3 C8 1_555 1_555
C4 C2 1_555 1_555
O4 C5 1_555 1_555
C5 C6 1_555 1_555
C6 C2 1_555 1_555
C7 C4 1_555 1_555
C8 O2 1_555 1_555
C9 C4 1_555 1_555
H1 C9 1_555 1_555
H2 C9 1_555 1_555
C10 C3 1_555 1_555
H3 C10 1_555 1_555
C11 O1 1_555 1_555
H4 C11 1_555 1_555
H5 C11 1_555 1_555
H6 C11 1_555 1_555
C12 C8 1_555 1_555
H7 C12 1_555 1_555
C13 C12 1_555 1_555
H8 C13 1_555 1_555
C14 C10 1_555 1_555
H9 C14 1_555 1_555
C15 O4 1_555 1_555
H10 C15 1_555 1_555
H11 C15 1_555 1_555
H12 C15 1_555 1_555
H13 C1 1_555 1_555
H14 C1 1_555 1_555
C6 C9 1_555 1_555
C13 C14 1_555 1_555

#END
