
#######################################################################
#
#                 Cambridge Crystallographic Data Centre
#                                CCDC 
#
#######################################################################
#
# If this CIF has been generated from an entry in the Cambridge 
# Structural Database, then it will include bibliographic, chemical, 
# crystal, experimental, refinement or atomic coordinate data resulting 
# from the CCDC's data processing and validation procedures.
#
#######################################################################

data_AXANIX
_chemical_formula_moiety         'C9 H9 N2 1+,0.5(C8 H4 O4 2-),H2 O1'
_chemical_name_systematic        
'2-Phenyl-1H-imidazol-3-ium hemikis(benzene-1,3-dicarboxylate) monohydrate'
_symmetry_cell_setting           monoclinic
_symmetry_space_group_name_H-M   'C 2/c'
_symmetry_Int_Tables_number      15
_space_group_name_Hall           '-C 2yn'
loop_
_symmetry_equiv_pos_site_id
_symmetry_equiv_pos_as_xyz
1 x,y,z
2 -x,y,1/2-z
3 1/2+x,1/2+y,z
4 1/2-x,1/2+y,1/2-z
5 -x,-y,-z
6 x,-y,1/2+z
7 1/2-x,1/2-y,-z
8 1/2+x,1/2-y,1/2+z
_cell_length_a                   17.092(5)
_cell_length_b                   7.152(4)
_cell_length_c                   20.322(5)
_cell_angle_alpha                90
_cell_angle_beta                 108.449(3)
_cell_angle_gamma                90
_cell_volume                     2356.53
_exptl_crystal_colour            colorless
_exptl_crystal_description       block
_cell_formula_units_Z            8
loop_
_atom_site_label
_atom_site_type_symbol
_atom_site_fract_x
_atom_site_fract_y
_atom_site_fract_z
C1 C 0.24852(14) 0.4967(3) 0.50929(13)
C2 C 0.20650(15) 0.4816(4) 0.60149(13)
H1 H 0.1734 0.4629 0.6294
C3 C 0.28571(15) 0.5424(4) 0.62248(13)
H2 H 0.3173 0.5726 0.6676
C4 C 0.24990(14) 0.4906(3) 0.43856(12)
C5 C 0.17948(15) 0.4488(4) 0.38343(13)
H3 H 0.1305 0.4193 0.3919
C6 C 0.18210(17) 0.4509(4) 0.31638(14)
H4 H 0.1348 0.4238 0.2797
C7 C 0.2544(2) 0.4929(5) 0.30332(16)
H5 H 0.2561 0.4949 0.2580
C8 C 0.32373(19) 0.5315(5) 0.35745(16)
H6 H 0.3726 0.5589 0.3485
C9 C 0.32284(16) 0.5307(4) 0.42428(14)
H7 H 0.3708 0.5569 0.4604
N1 N 0.18476(11) 0.4532(3) 0.53205(10)
H11 H 0.1374 0.4135 0.5064
N2 N 0.31015(12) 0.5509(3) 0.56483(10)
H12 H 0.3581 0.5859 0.5643
C10 C 0.0000 1.1129(5) 0.2500
H8 H 0.0000 1.2429 0.2500
C11 C 0.00630(13) 1.0179(3) 0.31049(12)
H9 H 0.0122 1.0838 0.3512
C12 C 0.00388(12) 0.8237(3) 0.31058(11)
C13 C 0.0000 0.7293(4) 0.2500
H10 H 0.0000 0.5993 0.2500
C14 C 0.00529(13) 0.7151(4) 0.37391(12)
O1 O -0.03238(11) 0.5623(2) 0.36545(9)
O2 O 0.04493(10) 0.7828(3) 0.43224(8)
C11A C -0.00630(13) 1.0179(3) 0.18951(12)
H9A H -0.0122 1.0838 0.1488
C12A C -0.00388(12) 0.8237(3) 0.18942(11)
C14A C -0.00529(13) 0.7151(4) 0.12609(12)
O1A O 0.03238(11) 0.5623(2) 0.13455(9)
O2A O -0.04493(10) 0.7828(3) 0.06776(8)
O3 O 0.03320(10) 0.3051(3) 0.46633(9)
H13 H 0.0013(19) 0.383(4) 0.4395(15)
H14 H 0.0109(18) 0.273(4) 0.4965(12)
loop_
_geom_bond_atom_site_label_1
_geom_bond_atom_site_label_2
_geom_bond_site_symmetry_1
_geom_bond_site_symmetry_2
C1 C4 1_555 1_555
C2 H1 1_555 1_555
C3 C2 1_555 1_555
H2 C3 1_555 1_555
C4 C5 1_555 1_555
C5 H3 1_555 1_555
C6 C5 1_555 1_555
H4 C6 1_555 1_555
C7 C6 1_555 1_555
H5 C7 1_555 1_555
C8 C7 1_555 1_555
H6 C8 1_555 1_555
C9 C4 1_555 1_555
H7 C9 1_555 1_555
C10 H8 1_555 1_555
C11 C10 1_555 1_555
H9 C11 1_555 1_555
C12 C11 1_555 1_555
C13 C12 1_555 1_555
H10 C13 1_555 1_555
C14 C12 1_555 1_555
N1 C1 1_555 1_555
H11 N1 1_555 1_555
N2 C1 1_555 1_555
H12 N2 1_555 1_555
O1 C14 1_555 1_555
O2 C14 1_555 1_555
O3 H13 1_555 1_555
H14 O3 1_555 1_555
C11A C10 1_555 1_555
H9A C11A 1_555 1_555
C12A C13 1_555 1_555
C14A C12A 1_555 1_555
O1A C14A 1_555 1_555
O2A C14A 1_555 1_555
C2 N1 1_555 1_555
C3 N2 1_555 1_555
C8 C9 1_555 1_555
C11A C12A 1_555 1_555

#END
