
#######################################################################
#
#                 Cambridge Crystallographic Data Centre
#                                CCDC 
#
#######################################################################
#
# If this CIF has been generated from an entry in the Cambridge 
# Structural Database, then it will include bibliographic, chemical, 
# crystal, experimental, refinement or atomic coordinate data resulting 
# from the CCDC's data processing and validation procedures.
#
#######################################################################

data_AXANEU02
_chemical_formula_moiety         'C15 H11 Br1 O2'
_chemical_name_systematic        2-bromo-8,9-dimethyl-6H-benzo[c]chromen-6-one
_symmetry_cell_setting           triclinic
_symmetry_space_group_name_H-M   'P -1'
_symmetry_Int_Tables_number      2
_space_group_name_Hall           '-P 1'
loop_
_symmetry_equiv_pos_site_id
_symmetry_equiv_pos_as_xyz
1 x,y,z
2 -x,-y,-z
_cell_length_a                   7.8650(11)
_cell_length_b                   8.6070(11)
_cell_length_c                   10.2615(15)
_cell_angle_alpha                92.788(6)
_cell_angle_beta                 112.186(6)
_cell_angle_gamma                105.046(4)
_cell_volume                     612.75
_exptl_crystal_colour            yellow
_exptl_crystal_description       needle
_chemical_melting_point          '214-216 deg.C'
_cell_formula_units_Z            2
loop_
_atom_site_label
_atom_site_type_symbol
_atom_site_fract_x
_atom_site_fract_y
_atom_site_fract_z
Br1 Br 0.35160(5) 1.31383(4) 0.54300(3)
O1 O 0.8379(3) 1.0421(3) 0.3213(2)
O2 O 0.8879(3) 0.8844(3) 0.1753(3)
C1 C 0.4994(5) 1.2234(4) 0.4702(3)
C2 C 0.7694(5) 0.9254(4) 0.2036(3)
C3 C 0.4101(4) 1.1109(3) 0.3476(3)
H1 H 0.2766 1.0785 0.3005
C4 C 0.4366(4) 0.9206(3) 0.1653(3)
C5 C 0.5184(4) 1.0446(3) 0.2929(3)
C6 C 0.2921(5) 0.6758(4) -0.0746(3)
C7 C 0.2396(4) 0.8553(4) 0.0843(3)
H2 H 0.1547 0.8930 0.1106
C8 C 0.5612(4) 0.8627(4) 0.1241(3)
C9 C 0.4880(5) 0.7409(4) 0.0048(3)
H3 H 0.5728 0.7031 -0.0216
C10 C 0.6991(5) 1.2725(4) 0.5442(4)
H4 H 0.7582 1.3480 0.6280
C11 C 0.1669(4) 0.7363(4) -0.0340(3)
C12 C 0.7179(4) 1.0978(4) 0.3671(3)
C13 C 0.8065(5) 1.2082(4) 0.4921(4)
H5 H 0.9397 1.2390 0.5410
C14 C -0.0488(5) 0.6704(5) -0.1181(4)
H6 H -0.1121 0.7244 -0.0754
H7 H -0.0905 0.5553 -0.1177
H8 H -0.0805 0.6896 -0.2147
C15 C 0.2186(6) 0.5425(5) -0.2010(4)
H9 H 0.0804 0.5102 -0.2439
H10 H 0.2609 0.4504 -0.1699
H11 H 0.2676 0.5821 -0.2696
loop_
_geom_bond_atom_site_label_1
_geom_bond_atom_site_label_2
_geom_bond_site_symmetry_1
_geom_bond_site_symmetry_2
Br1 C1 1_555 1_555
O1 C2 1_555 1_555
O2 C2 1_555 1_555
C1 C3 1_555 1_555
C2 C8 1_555 1_555
C3 H1 1_555 1_555
C4 C5 1_555 1_555
C5 C3 1_555 1_555
C6 C9 1_555 1_555
C7 C4 1_555 1_555
H2 C7 1_555 1_555
C8 C4 1_555 1_555
C9 C8 1_555 1_555
H3 C9 1_555 1_555
C10 C1 1_555 1_555
H4 C10 1_555 1_555
C11 C6 1_555 1_555
C12 O1 1_555 1_555
C13 C10 1_555 1_555
H5 C13 1_555 1_555
C14 C11 1_555 1_555
H6 C14 1_555 1_555
H7 C14 1_555 1_555
H8 C14 1_555 1_555
C15 C6 1_555 1_555
H9 C15 1_555 1_555
H10 C15 1_555 1_555
H11 C15 1_555 1_555
C5 C12 1_555 1_555
C7 C11 1_555 1_555
C12 C13 1_555 1_555

#END
