
#######################################################################
#
#                 Cambridge Crystallographic Data Centre
#                                CCDC 
#
#######################################################################
#
# If this CIF has been generated from an entry in the Cambridge 
# Structural Database, then it will include bibliographic, chemical, 
# crystal, experimental, refinement or atomic coordinate data resulting 
# from the CCDC's data processing and validation procedures.
#
#######################################################################

data_AXAQUM
_chemical_formula_moiety         'C23 H23 N2 O1 1+,F6 P1 1-'
_chemical_name_systematic        
'1-Benzyl-3-[3-(naphthalen-2-yloxy)propyl]imidazolium hexafluorophosphate'
_symmetry_cell_setting           monoclinic
_symmetry_space_group_name_H-M   'C 2/c'
_symmetry_Int_Tables_number      15
_space_group_name_Hall           '-C 2yn'
loop_
_symmetry_equiv_pos_site_id
_symmetry_equiv_pos_as_xyz
1 x,y,z
2 -x,y,1/2-z
3 1/2+x,1/2+y,z
4 1/2-x,1/2+y,1/2-z
5 -x,-y,-z
6 x,-y,1/2+z
7 1/2-x,1/2-y,-z
8 1/2+x,1/2-y,1/2+z
_cell_length_a                   28.3309(5)
_cell_length_b                   10.2447(2)
_cell_length_c                   20.0969(4)
_cell_angle_alpha                90
_cell_angle_beta                 130.2960(10)
_cell_angle_gamma                90
_cell_volume                     4448.87
_exptl_crystal_colour            colorless
_exptl_crystal_description       block
_cell_formula_units_Z            8
_exptl_crystal_recrystallization_method 'acetonitrile/diethyl ether'
loop_
_atom_site_label
_atom_site_type_symbol
_atom_site_fract_x
_atom_site_fract_y
_atom_site_fract_z
O1 O 0.06916(7) 0.87976(16) -0.00405(10)
N1 N 0.20226(8) 1.10961(17) 0.27117(11)
N2 N 0.27187(8) 1.03723(18) 0.40219(11)
C1 C -0.00745(9) 0.9740(2) -0.14818(13)
C2 C 0.02224(10) 0.8706(2) -0.09241(13)
C3 C 0.00510(10) 0.7413(2) -0.12412(15)
C4 C -0.04215(10) 0.7189(2) -0.21032(15)
C5 C -0.12511(11) 0.8038(3) -0.35933(15)
C6 C -0.15535(11) 0.9062(3) -0.41528(15)
C7 C -0.13672(11) 1.0334(3) -0.38480(15)
C8 C -0.08860(10) 1.0564(2) -0.29828(15)
C9 C -0.05671(9) 0.9525(2) -0.23861(13)
C10 C -0.07497(9) 0.8233(2) -0.27019(13)
C11 C 0.08538(10) 1.0064(2) 0.03396(14)
C12 C 0.13234(10) 0.9878(2) 0.13195(14)
C13 C 0.14909(9) 1.1174(2) 0.17730(13)
C14 C 0.22160(9) 1.0060(2) 0.32192(13)
C15 C 0.28478(12) 1.1662(2) 0.40219(16)
C16 C 0.24136(11) 1.2109(2) 0.32116(16)
C17 C 0.30690(10) 0.9486(3) 0.47728(14)
C18 C 0.37109(10) 0.9213(2) 0.50999(14)
C19 C 0.38433(11) 0.9188(3) 0.45503(16)
C20 C 0.44286(13) 0.8888(3) 0.4866(2)
C21 C 0.48900(14) 0.8610(3) 0.5734(2)
C22 C 0.47645(13) 0.8651(3) 0.6284(2)
C23 C 0.41781(12) 0.8944(3) 0.59729(16)
H1 H 0.00460 1.05870 -0.12690
H2 H 0.02620 0.67140 -0.08600
H3 H -0.05320 0.63340 -0.23040
H4 H -0.13790 0.71910 -0.38050
H5 H -0.18850 0.89110 -0.47400
H6 H -0.15700 1.10310 -0.42340
H7 H -0.07680 1.14190 -0.27850
H8 H 0.04910 1.05140 0.01760
H9 H 0.10310 1.05770 0.01420
H10 H 0.11520 0.93120 0.15040
H11 H 0.16920 0.94650 0.14780
H12 H 0.15860 1.17850 0.15050
H13 H 0.11370 1.15110 0.16920
H14 H 0.20300 0.92410 0.30420
H15 H 0.31760 1.21370 0.44970
H16 H 0.23820 1.29570 0.30210
H17 H 0.28460 0.86680 0.46090
H18 H 0.30990 0.98660 0.52410
H19 H 0.35340 0.93770 0.39610
H20 H 0.45130 0.88720 0.44890
H21 H 0.52850 0.83950 0.59450
H22 H 0.50780 0.84800 0.68750
H23 H 0.40970 0.89610 0.63530
P1 P 0.19683(3) 0.60238(6) 0.31472(4)
F1 F 0.19758(14) 0.6908(2) 0.37951(18)
F2 F 0.20206(13) 0.5170(2) 0.25553(14)
F4 F 0.2482(4) 0.6998(10) 0.3320(8)
F5 F 0.1558(4) 0.7068(5) 0.2407(3)
F6 F 0.1349(3) 0.5355(9) 0.2739(7)
F7 F 0.2462(7) 0.5115(12) 0.3909(7)
F3? F 0.2634(5) 0.6501(17) 0.3723(11)
F8? F 0.2118(8) 0.4825(11) 0.3762(7)
F9? F 0.2173(9) 0.7164(9) 0.2875(11)
F10? F 0.1325(7) 0.617(2) 0.2333(15)
F11? F 0.1395(9) 0.665(3) 0.2819(19)
F12? F 0.1705(8) 0.4928(12) 0.3317(10)
F13? F 0.2609(7) 0.540(3) 0.3665(14)
F14? F 0.2639(11) 0.566(4) 0.3971(15)
loop_
_geom_bond_atom_site_label_1
_geom_bond_atom_site_label_2
_geom_bond_site_symmetry_1
_geom_bond_site_symmetry_2
O1 C2 1_555 1_555
N1 C13 1_555 1_555
N2 C14 1_555 1_555
C1 C2 1_555 1_555
C2 C3 1_555 1_555
C3 C4 1_555 1_555
C4 C10 1_555 1_555
C5 C6 1_555 1_555
C6 C7 1_555 1_555
C7 C8 1_555 1_555
C8 C9 1_555 1_555
C9 C1 1_555 1_555
C10 C5 1_555 1_555
C11 O1 1_555 1_555
C12 C11 1_555 1_555
C13 C12 1_555 1_555
C14 N1 1_555 1_555
C15 N2 1_555 1_555
C16 N1 1_555 1_555
C17 N2 1_555 1_555
C18 C17 1_555 1_555
C19 C18 1_555 1_555
C20 C19 1_555 1_555
C21 C20 1_555 1_555
C22 C21 1_555 1_555
C23 C18 1_555 1_555
H1 C1 1_555 1_555
H2 C3 1_555 1_555
H3 C4 1_555 1_555
H4 C5 1_555 1_555
H5 C6 1_555 1_555
H6 C7 1_555 1_555
H7 C8 1_555 1_555
H8 C11 1_555 1_555
H9 C11 1_555 1_555
H10 C12 1_555 1_555
H11 C12 1_555 1_555
H12 C13 1_555 1_555
H13 C13 1_555 1_555
H14 C14 1_555 1_555
H15 C15 1_555 1_555
H16 C16 1_555 1_555
H17 C17 1_555 1_555
H18 C17 1_555 1_555
H19 C19 1_555 1_555
H20 C20 1_555 1_555
H21 C21 1_555 1_555
H22 C22 1_555 1_555
H23 C23 1_555 1_555
P1 F1 1_555 1_555
F2 P1 1_555 1_555
F4 P1 1_555 1_555
F5 P1 1_555 1_555
F6 P1 1_555 1_555
F7 P1 1_555 1_555
C9 C10 1_555 1_555
C15 C16 1_555 1_555
C22 C23 1_555 1_555

#END
