
#######################################################################
#
#                 Cambridge Crystallographic Data Centre
#                                CCDC 
#
#######################################################################
#
# If this CIF has been generated from an entry in the Cambridge 
# Structural Database, then it will include bibliographic, chemical, 
# crystal, experimental, refinement or atomic coordinate data resulting 
# from the CCDC's data processing and validation procedures.
#
#######################################################################

data_AXARIB
_chemical_formula_moiety         'C29 H37 N1 O2'
_chemical_name_systematic        
(Z)-3\a-(1,3-Dioxoisoindolin-2-yl)-17(20)-pregnene
_symmetry_cell_setting           monoclinic
_symmetry_space_group_name_H-M   'P 21'
_symmetry_Int_Tables_number      4
_space_group_name_Hall           'P 2yb'
loop_
_symmetry_equiv_pos_site_id
_symmetry_equiv_pos_as_xyz
1 x,y,z
2 -x,1/2+y,-z
_cell_length_a                   7.5895(10)
_cell_length_b                   31.355(3)
_cell_length_c                   9.8912(12)
_cell_angle_alpha                90
_cell_angle_beta                 93.056(6)
_cell_angle_gamma                90
_cell_volume                     2350.45
_exptl_crystal_colour            colorless
_exptl_crystal_description       prism
_cell_formula_units_Z            4
_exptl_crystal_recrystallization_method methanol/dichloromethane
loop_
_atom_site_label
_atom_site_type_symbol
_atom_site_fract_x
_atom_site_fract_y
_atom_site_fract_z
O1 O 0.0919(2) 0.42410(5) 0.94269(15)
O2 O -0.0642(2) 0.30027(5) 1.15244(15)
N1 N -0.0051(2) 0.35800(5) 1.01138(16)
C1 C -0.2120(3) 0.27009(6) 0.8787(2)
H1 H -0.3231 0.2561 0.8459
H2 H -0.1964 0.2647 0.9772
C2 C -0.2298(3) 0.31824(7) 0.8555(2)
H3 H -0.3138 0.3296 0.9197
H4 H -0.2824 0.3229 0.7629
C3 C -0.0590(3) 0.34439(6) 0.87136(19)
H5 H -0.0820 0.3712 0.8188
C4 C 0.0929(3) 0.32200(6) 0.80395(19)
H6 H 0.0725 0.3237 0.7044
H7 H 0.2045 0.3371 0.8286
C5 C 0.1118(3) 0.27542(6) 0.84529(18)
H8 H 0.1287 0.2749 0.9462
C6 C 0.2767(3) 0.25537(7) 0.78951(19)
H9 H 0.2656 0.2555 0.6893
H10 H 0.3814 0.2726 0.8183
C7 C 0.3024(2) 0.20970(6) 0.83963(19)
H11 H 0.3314 0.2101 0.9384
H12 H 0.4033 0.1968 0.7951
C8 C 0.1381(2) 0.18215(6) 0.81060(19)
H13 H 0.1181 0.1790 0.7103
C9 C -0.0256(2) 0.20368(6) 0.86728(18)
H14 H 0.0025 0.2076 0.9664
C10 C -0.0571(3) 0.24924(6) 0.80799(18)
C11 C -0.1900(3) 0.17485(7) 0.8555(2)
H15 H -0.2851 0.1884 0.9052
H16 H -0.2312 0.1730 0.7591
C12 C -0.1595(3) 0.12943(7) 0.9107(2)
H17 H -0.1375 0.1306 1.0102
H18 H -0.2667 0.1120 0.8909
C13 C -0.0016(3) 0.10837(6) 0.84645(19)
C14 C 0.1594(2) 0.13797(6) 0.87296(18)
H19 H 0.1701 0.1425 0.9732
C15 C 0.3180(3) 0.11070(7) 0.8388(2)
H20 H 0.4285 0.1218 0.8837
H21 H 0.3313 0.1095 0.7399
C16 C 0.2700(3) 0.06657(7) 0.8955(2)
H22 H 0.3051 0.0436 0.8336
H23 H 0.3308 0.0619 0.9853
C17 C 0.0697(3) 0.06678(7) 0.90705(19)
C18 C -0.0176(3) 0.03466(7) 0.9622(2)
H24 H 0.0521 0.0113 0.9946
C19 C -0.2132(3) 0.03103(8) 0.9792(3)
H25 H -0.2483 0.0516 1.0474
H26 H -0.2412 0.0021 1.0085
H27 H -0.2772 0.0371 0.8927
C20 C -0.0439(3) 0.10017(7) 0.6943(2)
H28 H 0.0583 0.0869 0.6546
H29 H -0.0710 0.1273 0.6486
H30 H -0.1459 0.0811 0.6832
C21 C -0.0997(3) 0.24812(7) 0.65418(19)
H31 H -0.1986 0.2286 0.6341
H32 H 0.0040 0.2382 0.6083
H33 H -0.1316 0.2768 0.6222
C22 C 0.0686(3) 0.39855(7) 1.0316(2)
C23 C -0.0088(3) 0.33577(7) 1.13435(19)
C24 C 0.0676(3) 0.36517(7) 1.24055(19)
C25 C 0.1115(3) 0.40315(7) 1.1793(2)
C26 C 0.1802(3) 0.43709(7) 1.2540(2)
H34 H 0.2100 0.4632 1.2120
C27 C 0.2040(4) 0.43139(8) 1.3936(2)
H35 H 0.2503 0.4542 1.4480
C28 C 0.1616(3) 0.39320(9) 1.4547(2)
H36 H 0.1806 0.3902 1.5499
C29 C 0.0919(3) 0.35916(8) 1.3792(2)
H37 H 0.0623 0.3330 1.4207
O3 O 0.6594(2) 0.33129(5) 0.49697(15)
O4 O 0.4062(2) 0.30622(5) 0.07334(14)
N2 N 0.5259(2) 0.30729(5) 0.29473(16)
C30 C 0.6180(3) 0.18753(7) 0.2866(2)
H38 H 0.7183 0.1847 0.3541
H39 H 0.6414 0.1685 0.2097
C31 C 0.6114(3) 0.23375(7) 0.2351(2)
H40 H 0.7330 0.2448 0.2291
H41 H 0.5527 0.2346 0.1433
C32 C 0.5104(3) 0.26194(6) 0.3308(2)
H42 H 0.5656 0.2582 0.4240
C33 C 0.3173(3) 0.24763(7) 0.3335(2)
H43 H 0.2446 0.2651 0.2685
H44 H 0.2748 0.2528 0.4250
C34 C 0.2920(3) 0.20021(6) 0.29740(19)
H45 H 0.2892 0.1982 0.1964
C35 C 0.1129(3) 0.18443(7) 0.3409(2)
H46 H 0.1073 0.1880 0.4401
H47 H 0.0184 0.2021 0.2967
C36 C 0.0799(3) 0.13791(7) 0.3046(2)
H48 H 0.0666 0.1351 0.2049
H49 H -0.0318 0.1286 0.3425
C37 C 0.2294(2) 0.10888(6) 0.35822(18)
H50 H 0.2339 0.1096 0.4594
C38 C 0.4080(3) 0.12490(6) 0.30987(19)
H51 H 0.3969 0.1247 0.2087
C39 C 0.4472(2) 0.17192(6) 0.35221(18)
C40 C 0.5592(3) 0.09406(7) 0.3504(2)
H52 H 0.6672 0.1036 0.3071
H53 H 0.5829 0.0956 0.4497
C41 C 0.5217(3) 0.04757(7) 0.3106(2)
H54 H 0.6196 0.0293 0.3470
H55 H 0.5159 0.0450 0.2107
C42 C 0.3478(3) 0.03193(7) 0.3651(2)
C43 C 0.2021(3) 0.06299(6) 0.31204(18)
H56 H 0.2081 0.0634 0.2113
C44 C 0.0288(3) 0.04034(7) 0.3408(2)
H57 H -0.0691 0.0504 0.2787
H58 H -0.0030 0.0451 0.4354
C45 C 0.0704(3) -0.00700(7) 0.3158(2)
H59 H 0.0266 -0.0249 0.3893
H60 H 0.0138 -0.0166 0.2286
C46 C 0.2709(3) -0.01020(7) 0.3130(2)
C47 C 0.3507(4) -0.04530(8) 0.2710(2)
H61 H 0.2742 -0.0674 0.2378
C48 C 0.5431(4) -0.05482(8) 0.2688(3)
H62 H 0.5838 -0.0492 0.1782
H63 H 0.5637 -0.0849 0.2919
H64 H 0.6082 -0.0367 0.3349
C49 C 0.3627(3) 0.02932(7) 0.5214(2)
H65 H 0.2481 0.0214 0.5550
H66 H 0.3989 0.0571 0.5587
H67 H 0.4508 0.0078 0.5496
C50 C 0.4707(3) 0.17570(7) 0.5074(2)
H68 H 0.4909 0.2056 0.5324
H69 H 0.5720 0.1585 0.5401
H70 H 0.3640 0.1654 0.5484
C51 C 0.6074(3) 0.33777(7) 0.3812(2)
C52 C 0.4818(3) 0.32479(6) 0.16710(19)
C53 C 0.5465(3) 0.36949(6) 0.17163(19)
C54 C 0.6196(3) 0.37753(6) 0.30028(19)
C55 C 0.6941(3) 0.41651(7) 0.3343(2)
H71 H 0.7417 0.4223 0.4233
C56 C 0.6962(3) 0.44707(7) 0.2317(2)
H72 H 0.7488 0.4740 0.2508
C57 C 0.6231(3) 0.43903(7) 0.1023(2)
H73 H 0.6266 0.4605 0.0349
C58 C 0.5448(3) 0.39987(7) 0.0701(2)
H74 H 0.4927 0.3943 -0.0175
loop_
_geom_bond_atom_site_label_1
_geom_bond_atom_site_label_2
_geom_bond_site_symmetry_1
_geom_bond_site_symmetry_2
O1 C22 1_555 1_555
O2 C23 1_555 1_555
O3 C51 1_555 1_555
O4 C52 1_555 1_555
N1 C3 1_555 1_555
N2 C32 1_555 1_555
C1 H1 1_555 1_555
H2 C1 1_555 1_555
C2 C1 1_555 1_555
H3 C2 1_555 1_555
H4 C2 1_555 1_555
C3 C2 1_555 1_555
H5 C3 1_555 1_555
C4 C3 1_555 1_555
H6 C4 1_555 1_555
H7 C4 1_555 1_555
C5 C4 1_555 1_555
H8 C5 1_555 1_555
C6 C5 1_555 1_555
H9 C6 1_555 1_555
H10 C6 1_555 1_555
C7 C6 1_555 1_555
H11 C7 1_555 1_555
H12 C7 1_555 1_555
C8 C7 1_555 1_555
H13 C8 1_555 1_555
C9 C8 1_555 1_555
H14 C9 1_555 1_555
C10 C1 1_555 1_555
C11 C9 1_555 1_555
H15 C11 1_555 1_555
H16 C11 1_555 1_555
C12 C11 1_555 1_555
H17 C12 1_555 1_555
H18 C12 1_555 1_555
C13 C12 1_555 1_555
C14 C8 1_555 1_555
H19 C14 1_555 1_555
C15 C14 1_555 1_555
H20 C15 1_555 1_555
H21 C15 1_555 1_555
C16 C15 1_555 1_555
H22 C16 1_555 1_555
H23 C16 1_555 1_555
C17 C13 1_555 1_555
C18 C17 1_555 1_555
H24 C18 1_555 1_555
C19 C18 1_555 1_555
H25 C19 1_555 1_555
H26 C19 1_555 1_555
H27 C19 1_555 1_555
C20 C13 1_555 1_555
H28 C20 1_555 1_555
H29 C20 1_555 1_555
H30 C20 1_555 1_555
C21 C10 1_555 1_555
H31 C21 1_555 1_555
H32 C21 1_555 1_555
H33 C21 1_555 1_555
C22 N1 1_555 1_555
C23 N1 1_555 1_555
C24 C23 1_555 1_555
C25 C22 1_555 1_555
C26 C25 1_555 1_555
H34 C26 1_555 1_555
C27 C26 1_555 1_555
H35 C27 1_555 1_555
C28 C27 1_555 1_555
H36 C28 1_555 1_555
C29 C24 1_555 1_555
H37 C29 1_555 1_555
C30 H38 1_555 1_555
H39 C30 1_555 1_555
C31 C30 1_555 1_555
H40 C31 1_555 1_555
H41 C31 1_555 1_555
C32 C31 1_555 1_555
H42 C32 1_555 1_555
C33 C32 1_555 1_555
H43 C33 1_555 1_555
H44 C33 1_555 1_555
C34 C33 1_555 1_555
H45 C34 1_555 1_555
C35 C34 1_555 1_555
H46 C35 1_555 1_555
H47 C35 1_555 1_555
C36 C35 1_555 1_555
H48 C36 1_555 1_555
H49 C36 1_555 1_555
C37 C36 1_555 1_555
H50 C37 1_555 1_555
C38 C37 1_555 1_555
H51 C38 1_555 1_555
C39 C30 1_555 1_555
C40 C38 1_555 1_555
H52 C40 1_555 1_555
H53 C40 1_555 1_555
C41 C40 1_555 1_555
H54 C41 1_555 1_555
H55 C41 1_555 1_555
C42 C41 1_555 1_555
C43 C37 1_555 1_555
H56 C43 1_555 1_555
C44 C43 1_555 1_555
H57 C44 1_555 1_555
H58 C44 1_555 1_555
C45 C44 1_555 1_555
H59 C45 1_555 1_555
H60 C45 1_555 1_555
C46 C42 1_555 1_555
C47 C46 1_555 1_555
H61 C47 1_555 1_555
C48 C47 1_555 1_555
H62 C48 1_555 1_555
H63 C48 1_555 1_555
H64 C48 1_555 1_555
C49 C42 1_555 1_555
H65 C49 1_555 1_555
H66 C49 1_555 1_555
H67 C49 1_555 1_555
C50 C39 1_555 1_555
H68 C50 1_555 1_555
H69 C50 1_555 1_555
H70 C50 1_555 1_555
C51 N2 1_555 1_555
C52 N2 1_555 1_555
C53 C52 1_555 1_555
C54 C51 1_555 1_555
C55 C54 1_555 1_555
H71 C55 1_555 1_555
C56 C55 1_555 1_555
H72 C56 1_555 1_555
C57 C56 1_555 1_555
H73 C57 1_555 1_555
C58 C53 1_555 1_555
H74 C58 1_555 1_555
C5 C10 1_555 1_555
C9 C10 1_555 1_555
C13 C14 1_555 1_555
C16 C17 1_555 1_555
C24 C25 1_555 1_555
C28 C29 1_555 1_555
C34 C39 1_555 1_555
C38 C39 1_555 1_555
C42 C43 1_555 1_555
C45 C46 1_555 1_555
C53 C54 1_555 1_555
C57 C58 1_555 1_555

#END
