
#######################################################################
#
#                 Cambridge Crystallographic Data Centre
#                                CCDC 
#
#######################################################################
#
# If this CIF has been generated from an entry in the Cambridge 
# Structural Database, then it will include bibliographic, chemical, 
# crystal, experimental, refinement or atomic coordinate data resulting 
# from the CCDC's data processing and validation procedures.
#
#######################################################################

data_AXASOI
_chemical_formula_moiety         'C16 H13 I1 N2'
_chemical_name_systematic        
2-(4-Iodophenyl)-1,2,3,4-tetrahydroisoquinoline-1-carbonitrile
_symmetry_cell_setting           monoclinic
_symmetry_space_group_name_H-M   'P 21/c'
_symmetry_Int_Tables_number      14
_space_group_name_Hall           '-P 2ybc'
loop_
_symmetry_equiv_pos_site_id
_symmetry_equiv_pos_as_xyz
1 x,y,z
2 -x,1/2+y,1/2-z
3 -x,-y,-z
4 x,1/2-y,1/2+z
_cell_length_a                   7.347(4)
_cell_length_b                   14.832(8)
_cell_length_c                   13.149(7)
_cell_angle_alpha                90
_cell_angle_beta                 100.157(6)
_cell_angle_gamma                90
_cell_volume                     1410.4
_exptl_crystal_colour            colorless
_exptl_crystal_description       block
_cell_formula_units_Z            4
_exptl_crystal_recrystallization_method 'ethyl acetate'
loop_
_atom_site_label
_atom_site_type_symbol
_atom_site_fract_x
_atom_site_fract_y
_atom_site_fract_z
C1 C 0.2714(3) -0.15209(17) 0.6261(2)
C2 C 0.3306(4) -0.21738(19) 0.5630(2)
H1 H 0.3822 -0.2001 0.5064
C3 C 0.3126(4) -0.3078(2) 0.5845(3)
H2 H 0.3516 -0.3511 0.5420
C4 C 0.2371(4) -0.3340(2) 0.6686(3)
H3 H 0.2256 -0.3949 0.6832
C5 C 0.1793(4) -0.2698(2) 0.7306(2)
H4 H 0.1289 -0.2879 0.7874
C6 C 0.1940(4) -0.17800(19) 0.7107(2)
C7 C 0.1195(4) -0.1080(2) 0.7750(2)
H5 H -0.0136 -0.1043 0.7538
H6 H 0.1448 -0.1265 0.8468
C8 C 0.2025(4) -0.01582(19) 0.76536(19)
H7 H 0.1375 0.0287 0.7995
H8 H 0.3314 -0.0158 0.7985
C9 C 0.2960(3) -0.05317(17) 0.60181(19)
H9 H 0.2557 -0.0446 0.5273
C10 C 0.4980(4) -0.02988(18) 0.6277(2)
C11 C 0.2096(3) 0.10006(16) 0.63235(19)
C12 C 0.1592(4) 0.12960(18) 0.53047(19)
H10 H 0.1136 0.0883 0.4790
C13 C 0.1760(4) 0.21893(18) 0.5050(2)
H11 H 0.1421 0.2377 0.4368
C14 C 0.2433(3) 0.28069(17) 0.5812(2)
C15 C 0.2939(4) 0.2529(2) 0.6825(2)
H12 H 0.3388 0.2945 0.7337
C16 C 0.2777(4) 0.16344(18) 0.7076(2)
H13 H 0.3128 0.1451 0.7759
I1 I 0.26329(3) 0.417129(13) 0.542901(16)
N1 N 0.1875(3) 0.00726(14) 0.65543(15)
N2 N 0.6490(4) -0.01027(19) 0.6491(2)
loop_
_geom_bond_atom_site_label_1
_geom_bond_atom_site_label_2
_geom_bond_site_symmetry_1
_geom_bond_site_symmetry_2
C1 C2 1_555 1_555
C2 H1 1_555 1_555
C3 C2 1_555 1_555
H2 C3 1_555 1_555
C4 C3 1_555 1_555
H3 C4 1_555 1_555
C5 C4 1_555 1_555
H4 C5 1_555 1_555
C6 C1 1_555 1_555
C7 C6 1_555 1_555
H5 C7 1_555 1_555
H6 C7 1_555 1_555
C8 C7 1_555 1_555
H7 C8 1_555 1_555
H8 C8 1_555 1_555
C9 C1 1_555 1_555
H9 C9 1_555 1_555
C10 C9 1_555 1_555
C11 C12 1_555 1_555
C12 H10 1_555 1_555
C13 C12 1_555 1_555
H11 C13 1_555 1_555
C14 C13 1_555 1_555
C15 C14 1_555 1_555
H12 C15 1_555 1_555
C16 C11 1_555 1_555
H13 C16 1_555 1_555
I1 C14 1_555 1_555
N1 C8 1_555 1_555
N2 C10 1_555 1_555
C5 C6 1_555 1_555
C9 N1 1_555 1_555
C11 N1 1_555 1_555
C15 C16 1_555 1_555

#END
