
#######################################################################
#
#                 Cambridge Crystallographic Data Centre
#                                CCDC 
#
#######################################################################
#
# If this CIF has been generated from an entry in the Cambridge 
# Structural Database, then it will include bibliographic, chemical, 
# crystal, experimental, refinement or atomic coordinate data resulting 
# from the CCDC's data processing and validation procedures.
#
#######################################################################

data_AXATEA
_chemical_formula_moiety         'C5 H8 N3 1+,I1 1-'
_chemical_name_systematic        '1-vinyl-1,2,4-triazolium iodide'
_symmetry_cell_setting           monoclinic
_symmetry_space_group_name_H-M   'P 21/c'
_symmetry_Int_Tables_number      14
_space_group_name_Hall           '-P 2ybc'
loop_
_symmetry_equiv_pos_site_id
_symmetry_equiv_pos_as_xyz
1 x,y,z
2 -x,1/2+y,1/2-z
3 -x,-y,-z
4 x,1/2-y,1/2+z
_cell_length_a                   5.0409(5)
_cell_length_b                   25.591(4)
_cell_length_c                   6.9793(8)
_cell_angle_alpha                90
_cell_angle_beta                 103.817(11)
_cell_angle_gamma                90
_cell_volume                     874.289
_exptl_crystal_colour            colorless
_exptl_crystal_description       plate
_cell_formula_units_Z            4
_chemical_properties_physical    Heat-sensitive
_exptl_crystal_recrystallization_method acetone
loop_
_atom_site_label
_atom_site_type_symbol
_atom_site_fract_x
_atom_site_fract_y
_atom_site_fract_z
N1 N 0.2042(9) 0.84247(19) 0.9651(6)
N2 N 0.1163(14) 0.9249(3) 0.9996(9)
N3 N 0.2483(12) 0.9168(3) 0.8547(8)
C1 C 0.2056(19) 0.7861(3) 0.9907(12)
H1 H 0.2423 0.7779 1.1288
H2 H 0.3448 0.7709 0.9352
H3 H 0.0308 0.7721 0.9250
C2 C 0.0944(13) 0.8780(3) 1.0640(9)
H4 H 0.0125 0.8700 1.1665
C3 C 0.2945(11) 0.8679(3) 0.8350(9)
H5 H 0.3788 0.8534 0.7426
C4 C 0.333(2) 0.9565(5) 0.7215(17)
H6 H 0.4269 0.9474 0.6271
C5 C 0.273(2) 0.9982(5) 0.7444(18)
H7 H 0.1788 1.0059 0.8403
H8 H 0.3186 1.0248 0.6673
I1 I -0.28575(7) 0.840437(17) 0.46607(6)
loop_
_geom_bond_atom_site_label_1
_geom_bond_atom_site_label_2
_geom_bond_site_symmetry_1
_geom_bond_site_symmetry_2
N1 C1 1_555 1_555
N2 N3 1_555 1_555
N3 C3 1_555 1_555
C1 H1 1_555 1_555
H2 C1 1_555 1_555
H3 C1 1_555 1_555
C2 N1 1_555 1_555
H4 C2 1_555 1_555
C3 N1 1_555 1_555
H5 C3 1_555 1_555
C4 N3 1_555 1_555
H6 C4 1_555 1_555
C5 C4 1_555 1_555
H7 C5 1_555 1_555
H8 C5 1_555 1_555
N2 C2 1_555 1_555

#END
