
#######################################################################
#
#                 Cambridge Crystallographic Data Centre
#                                CCDC 
#
#######################################################################
#
# If this CIF has been generated from an entry in the Cambridge 
# Structural Database, then it will include bibliographic, chemical, 
# crystal, experimental, refinement or atomic coordinate data resulting 
# from the CCDC's data processing and validation procedures.
#
#######################################################################

data_AXAWIG
_chemical_formula_moiety         'C14 H14 N2 O2'
_chemical_name_systematic        1-(3-(Hydroxymethyl)phenyl)-3-phenylurea
_symmetry_cell_setting           monoclinic
_symmetry_space_group_name_H-M   'P 21/c'
_symmetry_Int_Tables_number      14
_space_group_name_Hall           '-P 2ybc'
loop_
_symmetry_equiv_pos_site_id
_symmetry_equiv_pos_as_xyz
1 x,y,z
2 -x,1/2+y,1/2-z
3 -x,-y,-z
4 x,1/2-y,1/2+z
_cell_length_a                   14.6207(8)
_cell_length_b                   7.0692(4)
_cell_length_c                   12.4019(5)
_cell_angle_alpha                90
_cell_angle_beta                 109.818(3)
_cell_angle_gamma                90
_cell_volume                     1205.9
_exptl_crystal_colour            colorless
_exptl_crystal_description       plate
_chemical_melting_point          '446 K'
_cell_formula_units_Z            4
loop_
_atom_site_label
_atom_site_type_symbol
_atom_site_fract_x
_atom_site_fract_y
_atom_site_fract_z
C1 C 0.13667(11) 0.36148(19) 0.11590(11)
C2 C 0.07277(11) 0.2820(2) 0.01677(13)
H1 H 0.0933 0.2595 -0.0453
C3 C -0.02094(12) 0.2359(2) 0.00922(14)
H2 H -0.0632 0.1839 -0.0581
C4 C -0.05198(12) 0.2664(2) 0.10023(15)
H3 H -0.1149 0.2343 0.0955
C5 C 0.01144(13) 0.3456(3) 0.19916(15)
H4 H -0.0093 0.3672 0.2611
C6 C 0.10517(12) 0.3932(2) 0.20757(12)
H5 H 0.147 0.4464 0.2748
N1 N 0.22912(9) 0.41144(18) 0.11382(11)
H6 H 0.2359(11) 0.410(2) 0.0471(14)
C7 C 0.31390(11) 0.42001(18) 0.20514(11)
O1 O 0.31723(8) 0.41011(14) 0.30535(8)
N2 N 0.39322(9) 0.44032(17) 0.17245(10)
H7 H 0.3815(11) 0.444(2) 0.0964(15)
C8 C 0.49231(11) 0.43970(18) 0.24098(11)
C9 C 0.52658(11) 0.44241(19) 0.35949(12)
H8 H 0.4834 0.4428 0.3999
C10 C 0.62598(12) 0.4446(2) 0.41732(13)
H9 H 0.6491 0.4462 0.497
C11 C 0.69114(12) 0.4444(2) 0.35936(13)
H10 H 0.7576 0.4466 0.3997
C12 C 0.65760(11) 0.44079(19) 0.24059(12)
C13 C 0.55875(11) 0.43755(19) 0.18285(12)
H11 H 0.5359 0.4338 0.1032
C14 C 0.72705(12) 0.4432(2) 0.17456(14)
H12 H 0.7921 0.4684 0.2272
H13 H 0.7276 0.319 0.1415
O2 O 0.70325(8) 0.58030(19) 0.08550(9)
H14 H 0.6949(15) 0.685(3) 0.1155(18)
loop_
_geom_bond_atom_site_label_1
_geom_bond_atom_site_label_2
_geom_bond_site_symmetry_1
_geom_bond_site_symmetry_2
C1 C2 1_555 1_555
C2 H1 1_555 1_555
C3 C2 1_555 1_555
H2 C3 1_555 1_555
C4 C3 1_555 1_555
H3 C4 1_555 1_555
C5 C4 1_555 1_555
H4 C5 1_555 1_555
C6 C1 1_555 1_555
H5 C6 1_555 1_555
N1 C1 1_555 1_555
H6 N1 1_555 1_555
C7 N1 1_555 1_555
O1 C7 1_555 1_555
N2 C7 1_555 1_555
H7 N2 1_555 1_555
C8 N2 1_555 1_555
C9 C8 1_555 1_555
H8 C9 1_555 1_555
C10 C9 1_555 1_555
H9 C10 1_555 1_555
C11 C10 1_555 1_555
H10 C11 1_555 1_555
C12 C11 1_555 1_555
C13 C8 1_555 1_555
H11 C13 1_555 1_555
C14 C12 1_555 1_555
H12 C14 1_555 1_555
H13 C14 1_555 1_555
O2 C14 1_555 1_555
H14 O2 1_555 1_555
C5 C6 1_555 1_555
C12 C13 1_555 1_555

#END
