
#######################################################################
#
#                 Cambridge Crystallographic Data Centre
#                                CCDC 
#
#######################################################################
#
# If this CIF has been generated from an entry in the Cambridge 
# Structural Database, then it will include bibliographic, chemical, 
# crystal, experimental, refinement or atomic coordinate data resulting 
# from the CCDC's data processing and validation procedures.
#
#######################################################################

data_AXEFIT
_chemical_formula_moiety         'C16 H11 N3'
_chemical_name_systematic        
(5-(4-(Dimethylamino)phenyl)penta-2,4-diyn-1-ylidene)malononitrile
_symmetry_cell_setting           monoclinic
_symmetry_space_group_name_H-M   'P 21/c'
_symmetry_Int_Tables_number      14
_space_group_name_Hall           '-P 2ybc'
loop_
_symmetry_equiv_pos_site_id
_symmetry_equiv_pos_as_xyz
1 x,y,z
2 -x,1/2+y,1/2-z
3 -x,-y,-z
4 x,1/2-y,1/2+z
_cell_length_a                   14.8880(5)
_cell_length_b                   6.9699(3)
_cell_length_c                   25.5845(11)
_cell_angle_alpha                90
_cell_angle_beta                 90.539(2)
_cell_angle_gamma                90
_cell_volume                     2654.73
_exptl_crystal_colour            black
_exptl_crystal_description       needle
_cell_formula_units_Z            8
loop_
_atom_site_label
_atom_site_type_symbol
_atom_site_fract_x
_atom_site_fract_y
_atom_site_fract_z
N1 N 1.02390(17) 0.0861(4) -0.07147(11)
N2 N 0.76197(17) 0.2151(4) -0.14434(10)
N3 N 0.12192(14) 0.3319(4) 0.08768(9)
C1 C 0.80247(18) 0.1830(4) -0.10708(12)
C2 C 0.85348(16) 0.1412(4) -0.06105(10)
C3 C 0.81615(17) 0.1309(4) -0.01358(12)
C4 C 0.72562(17) 0.1627(4) -0.00307(11)
C5 C 0.64862(17) 0.1966(4) 0.00874(10)
C6 C 0.56220(17) 0.2360(4) 0.02193(10)
C7 C 0.94754(18) 0.1092(4) -0.06730(11)
C8 C 0.48542(17) 0.2669(4) 0.03384(11)
C9 C 0.39390(16) 0.2915(4) 0.04798(10)
C10 C 0.36651(17) 0.2699(4) 0.09943(11)
C11 C 0.27765(17) 0.2852(5) 0.11280(11)
C12 C 0.21113(16) 0.3233(4) 0.07463(10)
C13 C 0.23905(17) 0.3480(4) 0.02300(10)
C14 C 0.32804(17) 0.3343(4) 0.01029(11)
C15 C 0.0549(2) 0.3762(6) 0.04802(14)
C16 C 0.0929(2) 0.3262(7) 0.14150(13)
H1 H 0.2618(15) 0.267(3) 0.1476(10)
H2 H 0.3426(15) 0.358(3) -0.0247(10)
H3 H 0.1952(19) 0.382(4) -0.0064(11)
H4 H 0.4072(16) 0.244(3) 0.1270(10)
H5 H 0.8550(18) 0.109(4) 0.0144(11)
H6 H -0.009(2) 0.377(5) 0.0645(14)
H7 H 0.060(2) 0.277(5) 0.0183(14)
H8 H 0.063(2) 0.504(6) 0.0289(14)
H9 H 0.113(2) 0.438(5) 0.1606(14)
H10 H 0.029(2) 0.334(5) 0.1429(12)
H11 H 0.115(2) 0.215(6) 0.1618(15)
N4 N 0.46903(13) 0.3614(3) 0.34097(8)
N5 N -0.16692(17) 0.4052(5) 0.09777(11)
N6 N -0.43711(16) 0.3799(4) 0.16793(10)
C17 C 0.10521(17) 0.4284(4) 0.28384(11)
C18 C 0.19737(15) 0.4183(4) 0.29877(10)
C19 C 0.22320(17) 0.3946(4) 0.35089(11)
C20 C 0.31279(17) 0.3787(4) 0.36486(11)
C21 C 0.38074(15) 0.3828(4) 0.32727(10)
C22 C 0.35442(17) 0.4114(4) 0.27473(11)
C23 C 0.26454(18) 0.4286(4) 0.26155(11)
C24 C 0.4961(2) 0.3076(6) 0.39398(12)
C25 C 0.5381(2) 0.3639(7) 0.30165(15)
C26 C -0.36080(18) 0.3913(4) 0.17233(11)
C27 C -0.26506(16) 0.4050(4) 0.17966(10)
C28 C -0.23030(17) 0.4143(4) 0.22856(11)
C29 C -0.13782(17) 0.4261(4) 0.24083(10)
C30 C -0.06033(16) 0.4302(4) 0.25498(10)
C31 C 0.02727(17) 0.4314(4) 0.27053(11)
C32 C -0.21013(18) 0.4051(4) 0.13422(11)
H12 H -0.2722(18) 0.414(4) 0.2588(11)
H13 H 0.1785(17) 0.387(3) 0.3786(10)
H14 H 0.470(2) 0.388(5) 0.4198(13)
H15 H 0.3972(17) 0.417(4) 0.2482(10)
H16 H 0.2508(18) 0.444(4) 0.2276(12)
H17 H 0.474(2) 0.170(6) 0.4054(14)
H18 H 0.3266(18) 0.359(4) 0.4003(12)
H19 H 0.537(2) 0.483(6) 0.2821(14)
H20 H 0.528(2) 0.257(6) 0.2748(15)
H21 H 0.596(3) 0.340(7) 0.3189(18)
H22 H 0.564(3) 0.288(6) 0.3938(15)
loop_
_geom_bond_atom_site_label_1
_geom_bond_atom_site_label_2
_geom_bond_site_symmetry_1
_geom_bond_site_symmetry_2
N1 C7 1_555 1_555
N2 C1 1_555 1_555
N3 C12 1_555 1_555
C1 C2 1_555 1_555
C2 C3 1_555 1_555
C3 C4 1_555 1_555
C4 C5 1_555 1_555
C5 C6 1_555 1_555
C6 C8 1_555 1_555
C7 C2 1_555 1_555
C8 C9 1_555 1_555
C9 C10 1_555 1_555
C10 C11 1_555 1_555
C11 C12 1_555 1_555
C12 C13 1_555 1_555
C13 C14 1_555 1_555
C14 C9 1_555 1_555
C15 N3 1_555 1_555
C16 N3 1_555 1_555
H1 C11 1_555 1_555
H2 C14 1_555 1_555
H3 C13 1_555 1_555
H4 C10 1_555 1_555
H5 C3 1_555 1_555
H6 C15 1_555 1_555
H7 C15 1_555 1_555
H8 C15 1_555 1_555
H9 C16 1_555 1_555
H10 C16 1_555 1_555
H11 C16 1_555 1_555
N4 C21 1_555 1_555
N5 C32 1_555 1_555
N6 C26 1_555 1_555
C17 C18 1_555 1_555
C18 C19 1_555 1_555
C19 C20 1_555 1_555
C20 C21 1_555 1_555
C21 C22 1_555 1_555
C22 C23 1_555 1_555
C23 C18 1_555 1_555
C24 N4 1_555 1_555
C25 N4 1_555 1_555
C26 C27 1_555 1_555
C27 C28 1_555 1_555
C28 C29 1_555 1_555
C29 C30 1_555 1_555
C30 C31 1_555 1_555
C31 C17 1_555 1_555
C32 C27 1_555 1_555
H12 C28 1_555 1_555
H13 C19 1_555 1_555
H14 C24 1_555 1_555
H15 C22 1_555 1_555
H16 C23 1_555 1_555
H17 C24 1_555 1_555
H18 C20 1_555 1_555
H19 C25 1_555 1_555
H20 C25 1_555 1_555
H21 C25 1_555 1_555
H22 C24 1_555 1_555

#END
