
#######################################################################
#
#                 Cambridge Crystallographic Data Centre
#                                CCDC 
#
#######################################################################
#
# If this CIF has been generated from an entry in the Cambridge 
# Structural Database, then it will include bibliographic, chemical, 
# crystal, experimental, refinement or atomic coordinate data resulting 
# from the CCDC's data processing and validation procedures.
#
#######################################################################

data_AXEJUJ
_chemical_formula_moiety         'C18 H21 N1 O5'
_chemical_name_systematic        
1-(13-(1,3-Dioxolan-2-ylmethyl)-5,7-dioxa-12-azatetracyclo[10.2.1.0^2,10^.0^4,8^]pentadeca-2(10),3,8-trien-14-yl)ethanone
_symmetry_cell_setting           monoclinic
_symmetry_space_group_name_H-M   'P 21/c'
_symmetry_Int_Tables_number      14
_space_group_name_Hall           '-P 2ybc'
loop_
_symmetry_equiv_pos_site_id
_symmetry_equiv_pos_as_xyz
1 x,y,z
2 -x,1/2+y,1/2-z
3 -x,-y,-z
4 x,1/2-y,1/2+z
_cell_length_a                   12.0026(11)
_cell_length_b                   5.7261(5)
_cell_length_c                   24.210(2)
_cell_angle_alpha                90
_cell_angle_beta                 103.928(2)
_cell_angle_gamma                90
_cell_volume                     1614.99
_exptl_crystal_colour            colorless
_exptl_crystal_description       needle
_cell_formula_units_Z            4
loop_
_atom_site_label
_atom_site_type_symbol
_atom_site_fract_x
_atom_site_fract_y
_atom_site_fract_z
O1 O 0.33792(18) 0.0596(3) 0.35791(8)
O2 O 0.39574(18) 0.3850(3) 0.40850(7)
O3 O 0.2484(2) -0.0409(4) 0.00127(9)
O4 O 0.0951(2) 0.2133(5) -0.02154(8)
O5 O 0.06098(17) 0.1227(4) 0.19564(9)
C1 C 0.0552(2) 0.3324(5) 0.19113(10)
C2 C -0.0548(2) 0.4504(6) 0.16255(13)
H1 H -0.1049 0.3398 0.1390
H2 H -0.0391 0.5766 0.1395
H3 H -0.0912 0.5103 0.1909
C3 C 0.3695(2) 0.2936(4) 0.35345(10)
H4 H 0.4384 0.2987 0.3385
C4 C 0.2763(2) 0.4302(4) 0.31482(10)
H5 H 0.2925 0.5955 0.3208
H6 H 0.2042 0.3984 0.3248
C5 C 0.26340(19) 0.3743(4) 0.25236(10)
H7 H 0.2582 0.2047 0.2469
N1 N 0.36476(16) 0.4639(3) 0.23391(8)
C6 C 0.4000(2) 0.3095(4) 0.19308(10)
H8 H 0.4137 0.1549 0.2097
H9 H 0.4721 0.3661 0.1868
C7 C 0.3143(2) 0.2889(4) 0.13606(10)
C8 C 0.3305(2) 0.1222(5) 0.09664(11)
H10 H 0.3938 0.0231 0.1046
C9 C 0.2506(2) 0.1093(5) 0.04597(11)
C10 C 0.1600(2) 0.2594(6) 0.03299(11)
C11 C 0.1429(2) 0.4274(5) 0.07002(11)
H11 H 0.0812 0.5300 0.0604
C12 C 0.2210(2) 0.4402(4) 0.12284(10)
C13 C 0.2047(2) 0.6122(4) 0.16746(11)
H12 H 0.1588 0.7478 0.1508
C14 C 0.1562(2) 0.4914(4) 0.21407(10)
H13 H 0.1306 0.6140 0.2365
C15 C 0.3217(2) 0.6819(4) 0.20430(12)
H14 H 0.3721 0.7363 0.1811
H15 H 0.3144 0.8034 0.2311
C16 C 0.1452(3) 0.0111(7) -0.03918(14)
H16 H 0.0925 -0.1195 -0.0425
H17 H 0.1609 0.0378 -0.0761
C17 C 0.3835(4) -0.0096(6) 0.41456(14)
H18 H 0.4391 -0.1340 0.4161
H19 H 0.3228 -0.0660 0.4313
C18 C 0.4387(3) 0.1950(5) 0.44543(13)
H20 H 0.4179 0.2118 0.4816
H21 H 0.5215 0.1843 0.4524
loop_
_geom_bond_atom_site_label_1
_geom_bond_atom_site_label_2
_geom_bond_site_symmetry_1
_geom_bond_site_symmetry_2
O1 C3 1_555 1_555
O2 C3 1_555 1_555
O3 C9 1_555 1_555
O4 C10 1_555 1_555
O5 C1 1_555 1_555
C1 C2 1_555 1_555
C2 H1 1_555 1_555
H2 C2 1_555 1_555
H3 C2 1_555 1_555
C3 H4 1_555 1_555
C4 C3 1_555 1_555
H5 C4 1_555 1_555
H6 C4 1_555 1_555
C5 C4 1_555 1_555
H7 C5 1_555 1_555
N1 C5 1_555 1_555
C6 N1 1_555 1_555
H8 C6 1_555 1_555
H9 C6 1_555 1_555
C7 C6 1_555 1_555
C8 C7 1_555 1_555
H10 C8 1_555 1_555
C9 C8 1_555 1_555
C10 C9 1_555 1_555
C11 C10 1_555 1_555
H11 C11 1_555 1_555
C12 C7 1_555 1_555
C13 C12 1_555 1_555
H12 C13 1_555 1_555
C14 C1 1_555 1_555
H13 C14 1_555 1_555
C15 N1 1_555 1_555
H14 C15 1_555 1_555
H15 C15 1_555 1_555
C16 O3 1_555 1_555
H16 C16 1_555 1_555
H17 C16 1_555 1_555
C17 O1 1_555 1_555
H18 C17 1_555 1_555
H19 C17 1_555 1_555
C18 O2 1_555 1_555
H20 C18 1_555 1_555
H21 C18 1_555 1_555
O4 C16 1_555 1_555
C5 C14 1_555 1_555
C11 C12 1_555 1_555
C13 C14 1_555 1_555
C13 C15 1_555 1_555
C17 C18 1_555 1_555

#END
