
#######################################################################
#
#                 Cambridge Crystallographic Data Centre
#                                CCDC 
#
#######################################################################
#
# If this CIF has been generated from an entry in the Cambridge 
# Structural Database, then it will include bibliographic, chemical, 
# crystal, experimental, refinement or atomic coordinate data resulting 
# from the CCDC's data processing and validation procedures.
#
#######################################################################

data_AXEKEU
_chemical_formula_moiety         'C18 H21 N1 O5'
_chemical_name_systematic        
1-(13-(1,3-Dioxolan-2-ylmethyl)-5,7-dioxa-12-azatetracyclo[10.2.1.0^2,10^.0^4,8^]pentadeca-2(10),3,8-trien-14-yl)ethanone
_symmetry_cell_setting           monoclinic
_symmetry_space_group_name_H-M   'P 21/c'
_symmetry_Int_Tables_number      14
_space_group_name_Hall           '-P 2ybc'
loop_
_symmetry_equiv_pos_site_id
_symmetry_equiv_pos_as_xyz
1 x,y,z
2 -x,1/2+y,1/2-z
3 -x,-y,-z
4 x,1/2-y,1/2+z
_cell_length_a                   6.5866(6)
_cell_length_b                   24.702(2)
_cell_length_c                   10.0072(9)
_cell_angle_alpha                90
_cell_angle_beta                 100.850(2)
_cell_angle_gamma                90
_cell_volume                     1599.09
_exptl_crystal_colour            colorless
_exptl_crystal_description       rectangular
_cell_formula_units_Z            4
loop_
_atom_site_label
_atom_site_type_symbol
_atom_site_fract_x
_atom_site_fract_y
_atom_site_fract_z
O1 O 0.1474(2) 0.63806(5) 0.52359(14)
O2 O -0.0628(2) 0.56732(5) 0.52251(13)
O3 O 0.6433(2) 0.78930(5) -0.10964(14)
O4 O 0.7640(2) 0.71043(5) -0.19253(14)
O5 O 0.2896(2) 0.48607(5) 0.13069(15)
C1 C 0.4114(3) 0.51607(7) 0.19825(17)
C2 C 0.5816(4) 0.49397(8) 0.3027(2)
H1 H 0.5474 0.4579 0.3262
H2 H 0.6003 0.5165 0.3823
H3 H 0.7071 0.4933 0.2670
C3 C 0.0244(3) 0.60146(7) 0.43653(17)
H4 H -0.0854 0.6211 0.3760
C4 C 0.1524(3) 0.57041(7) 0.35355(17)
H5 H 0.0647 0.5448 0.2959
H6 H 0.2573 0.5500 0.4141
C5 C 0.2571(2) 0.60742(6) 0.26482(15)
H7 H 0.3396 0.6344 0.3231
N1 N 0.09790(19) 0.63576(5) 0.16519(13)
C6 C 0.1613(3) 0.69076(6) 0.13427(17)
H8 H 0.2128 0.7092 0.2195
H9 H 0.0400 0.7103 0.0888
C7 C 0.3255(2) 0.69393(6) 0.04631(15)
C8 C 0.4008(3) 0.74455(6) 0.01510(17)
H10 H 0.3530 0.7765 0.0476
C9 C 0.5474(2) 0.74507(6) -0.06504(17)
C10 C 0.6189(2) 0.69813(7) -0.11430(16)
C11 C 0.5477(2) 0.64832(7) -0.08604(16)
H11 H 0.5976 0.6169 -0.1195
C12 C 0.3962(2) 0.64646(6) -0.00433(15)
C13 C 0.3068(2) 0.59338(6) 0.03150(15)
H12 H 0.3221 0.5648 -0.0338
C14 C 0.4019(2) 0.57698(6) 0.17850(15)
H13 H 0.5420 0.5918 0.2020
C15 C 0.0808(2) 0.60236(7) 0.04168(16)
H14 H 0.0066 0.6213 -0.0376
H15 H 0.0117 0.5683 0.0516
C16 C 0.7886(3) 0.76767(8) -0.1846(2)
H16 H 0.7652 0.7831 -0.2753
H17 H 0.9281 0.7766 -0.1396
C17 C 0.0490(4) 0.64607(9) 0.6361(2)
H18 H -0.0180 0.6812 0.6308
H19 H 0.1483 0.6439 0.7208
C18 C -0.1074(4) 0.60146(9) 0.6273(2)
H20 H -0.0925 0.5820 0.7128
H21 H -0.2469 0.6157 0.6041
loop_
_geom_bond_atom_site_label_1
_geom_bond_atom_site_label_2
_geom_bond_site_symmetry_1
_geom_bond_site_symmetry_2
O1 C3 1_555 1_555
O2 C3 1_555 1_555
O3 C9 1_555 1_555
O4 C10 1_555 1_555
O5 C1 1_555 1_555
C1 C2 1_555 1_555
C2 H1 1_555 1_555
H2 C2 1_555 1_555
H3 C2 1_555 1_555
C3 H4 1_555 1_555
C4 C3 1_555 1_555
H5 C4 1_555 1_555
H6 C4 1_555 1_555
C5 C4 1_555 1_555
H7 C5 1_555 1_555
N1 C5 1_555 1_555
C6 N1 1_555 1_555
H8 C6 1_555 1_555
H9 C6 1_555 1_555
C7 C6 1_555 1_555
C8 C7 1_555 1_555
H10 C8 1_555 1_555
C9 C8 1_555 1_555
C10 C9 1_555 1_555
C11 C10 1_555 1_555
H11 C11 1_555 1_555
C12 C7 1_555 1_555
C13 C12 1_555 1_555
H12 C13 1_555 1_555
C14 C1 1_555 1_555
H13 C14 1_555 1_555
C15 N1 1_555 1_555
H14 C15 1_555 1_555
H15 C15 1_555 1_555
C16 O3 1_555 1_555
H16 C16 1_555 1_555
H17 C16 1_555 1_555
C17 O1 1_555 1_555
H18 C17 1_555 1_555
H19 C17 1_555 1_555
C18 O2 1_555 1_555
H20 C18 1_555 1_555
H21 C18 1_555 1_555
O4 C16 1_555 1_555
C5 C14 1_555 1_555
C11 C12 1_555 1_555
C13 C14 1_555 1_555
C13 C15 1_555 1_555
C17 C18 1_555 1_555

#END
