
#######################################################################
#
#                 Cambridge Crystallographic Data Centre
#                                CCDC 
#
#######################################################################
#
# If this CIF has been generated from an entry in the Cambridge 
# Structural Database, then it will include bibliographic, chemical, 
# crystal, experimental, refinement or atomic coordinate data resulting 
# from the CCDC's data processing and validation procedures.
#
#######################################################################

data_AXEKIY
_chemical_formula_moiety         'C18 H21 N1 O6'
_chemical_name_systematic        1-Acetoxy-1,11a-dihydropancracine
_symmetry_cell_setting           monoclinic
_symmetry_space_group_name_H-M   'P 21/c'
_symmetry_Int_Tables_number      14
_space_group_name_Hall           '-P 2ybc'
loop_
_symmetry_equiv_pos_site_id
_symmetry_equiv_pos_as_xyz
1 x,y,z
2 -x,1/2+y,1/2-z
3 -x,-y,-z
4 x,1/2-y,1/2+z
_cell_length_a                   11.2290(10)
_cell_length_b                   7.5350(6)
_cell_length_c                   21.5650(17)
_cell_angle_alpha                90
_cell_angle_beta                 113.710(2)
_cell_angle_gamma                90
_cell_volume                     1670.61
_exptl_crystal_colour            colorless
_exptl_crystal_description       needle
_cell_formula_units_Z            4
loop_
_atom_site_label
_atom_site_type_symbol
_atom_site_fract_x
_atom_site_fract_y
_atom_site_fract_z
O1 O 0.8198(2) 0.5670(3) 0.16492(12)
O2 O 0.6398(2) 0.3618(3) -0.10693(12)
N1 N 0.5421(2) 0.1887(3) 0.15238(13)
C1 C 0.7799(3) 0.2689(4) -0.00274(17)
O3 O 0.8554(2) 0.2972(4) -0.03965(13)
O4 O 0.6863(2) 0.6835(4) 0.32578(13)
H1 H 0.6144 0.6747 0.3269
O5 O 0.8916(2) 0.4799(3) 0.34226(11)
H2 H 0.8594 0.5111 0.3685
C2 C 0.8185(3) 0.2105(4) 0.06300(17)
H3 H 0.9051 0.1831 0.0892
C3 C 0.7221(3) 0.1934(4) 0.08949(17)
O6 O 1.0204(2) 0.5255(4) 0.16575(14)
C4 C 0.7589(3) 0.1390(4) 0.16262(16)
H4 H 0.8379 0.0663 0.1802
C5 C 0.5952(3) 0.4375(4) 0.24385(15)
H5 H 0.6170 0.3557 0.2816
H6 H 0.5045 0.4710 0.2289
C6 C 0.4855(3) 0.2112(4) 0.07754(16)
H7 H 0.4299 0.3152 0.0657
H8 H 0.4318 0.1089 0.0568
C7 C 0.6205(3) 0.3518(4) 0.18549(16)
H9 H 0.6047 0.4419 0.1503
C8 C 0.6835(3) 0.6032(4) 0.26491(17)
H10 H 0.6491 0.6908 0.2284
C9 C 0.6501(3) 0.3077(4) -0.04273(16)
C10 C 0.5532(3) 0.2900(4) -0.01898(16)
H11 H 0.4669 0.3152 -0.0464
C11 C 0.8524(3) 0.4574(4) 0.22529(16)
H12 H 0.9437 0.4204 0.2423
C12 C 0.7642(3) 0.2953(4) 0.21116(15)
H13 H 0.7845 0.2404 0.2554
C13 C 0.8288(3) 0.5707(4) 0.27919(16)
H14 H 0.8713 0.6860 0.2824
C14 C 0.5901(3) 0.2320(4) 0.04855(16)
C15 C 0.9125(3) 0.5892(4) 0.13975(17)
C16 C 0.6416(3) 0.0439(4) 0.16826(17)
H15 H 0.6105 -0.0524 0.1359
H16 H 0.6641 -0.0026 0.2135
C17 C 0.8624(4) 0.7016(5) 0.07686(19)
H17 H 0.9177 0.6873 0.0529
H18 H 0.8619 0.8240 0.0892
H19 H 0.7755 0.6654 0.0483
C18 C 0.7720(3) 0.3933(6) -0.09917(18)
H20 H 0.7844 0.3513 -0.1387
H21 H 0.7917 0.5191 -0.0937
loop_
_geom_bond_atom_site_label_1
_geom_bond_atom_site_label_2
_geom_bond_site_symmetry_1
_geom_bond_site_symmetry_2
O1 C11 1_555 1_555
O2 C9 1_555 1_555
N1 C6 1_555 1_555
C1 O3 1_555 1_555
O3 C18 1_555 1_555
O4 H1 1_555 1_555
O5 H2 1_555 1_555
C2 C1 1_555 1_555
H3 C2 1_555 1_555
C3 C2 1_555 1_555
O6 C15 1_555 1_555
C4 C3 1_555 1_555
H4 C4 1_555 1_555
C5 H5 1_555 1_555
H6 C5 1_555 1_555
C6 H7 1_555 1_555
H8 C6 1_555 1_555
C7 N1 1_555 1_555
H9 C7 1_555 1_555
C8 O4 1_555 1_555
H10 C8 1_555 1_555
C9 C1 1_555 1_555
C10 C9 1_555 1_555
H11 C10 1_555 1_555
C11 H12 1_555 1_555
C12 C4 1_555 1_555
H13 C12 1_555 1_555
C13 O5 1_555 1_555
H14 C13 1_555 1_555
C14 C3 1_555 1_555
C15 O1 1_555 1_555
C16 N1 1_555 1_555
H15 C16 1_555 1_555
H16 C16 1_555 1_555
C17 C15 1_555 1_555
H17 C17 1_555 1_555
H18 C17 1_555 1_555
H19 C17 1_555 1_555
C18 O2 1_555 1_555
H20 C18 1_555 1_555
H21 C18 1_555 1_555
C4 C16 1_555 1_555
C5 C7 1_555 1_555
C5 C8 1_555 1_555
C6 C14 1_555 1_555
C7 C12 1_555 1_555
C8 C13 1_555 1_555
C10 C14 1_555 1_555
C11 C12 1_555 1_555
C11 C13 1_555 1_555

#END
