
#######################################################################
#
#                 Cambridge Crystallographic Data Centre
#                                CCDC 
#
#######################################################################
#
# If this CIF has been generated from an entry in the Cambridge 
# Structural Database, then it will include bibliographic, chemical, 
# crystal, experimental, refinement or atomic coordinate data resulting 
# from the CCDC's data processing and validation procedures.
#
#######################################################################

data_AXELEU
_chemical_formula_moiety         'C18 H21 Br1 O3'
_chemical_name_systematic        
2-Acetyl-3-(4-bromophenyl)-1-hydroxy-6-methylbicyclo(4.3.0)nonan-7-one
_symmetry_cell_setting           orthorhombic
_symmetry_space_group_name_H-M   'P 21 21 21'
_symmetry_Int_Tables_number      19
_space_group_name_Hall           'P 2ac 2ab'
loop_
_symmetry_equiv_pos_site_id
_symmetry_equiv_pos_as_xyz
1 x,y,z
2 1/2-x,-y,1/2+z
3 1/2+x,1/2-y,-z
4 -x,1/2+y,1/2-z
_cell_length_a                   9.7053(1)
_cell_length_b                   16.0705(3)
_cell_length_c                   21.2116(4)
_cell_angle_alpha                90
_cell_angle_beta                 90
_cell_angle_gamma                90
_cell_volume                     3308.35
_exptl_crystal_colour            colorless
_exptl_crystal_description       prisms
_cell_formula_units_Z            8
_exptl_crystal_recrystallization_method hexanes
loop_
_atom_site_label
_atom_site_type_symbol
_atom_site_fract_x
_atom_site_fract_y
_atom_site_fract_z
Br1 Br 1.45832(4) 0.20134(2) 0.470032(19)
C1 C 0.6875(4) -0.0653(2) 0.64038(17)
C2 C 0.7477(4) -0.1505(2) 0.65324(17)
H1 H 0.6849 -0.1829 0.6781
H2 H 0.8336 -0.1458 0.6754
C3 C 0.7693(4) -0.1904(2) 0.58813(16)
H3 H 0.6964 -0.2287 0.5784
H4 H 0.8559 -0.2190 0.5858
C4 C 0.7695(3) -0.1161(2) 0.54275(16)
C5 C 0.9120(3) -0.0716(2) 0.54380(16)
H5 H 0.9346 -0.0596 0.5869
C6 C 0.9074(3) 0.0116(2) 0.50806(16)
H6 H 0.8720 0.0001 0.4667
C7 C 0.8044(4) 0.0691(2) 0.54139(17)
H7 H 0.8000 0.1214 0.5196
H8 H 0.8358 0.0795 0.5836
C8 C 0.6614(3) 0.0299(2) 0.54404(17)
H9 H 0.6240 0.0292 0.5021
H10 H 0.6023 0.0640 0.5696
C9 C 0.6578(3) -0.0581(2) 0.57006(16)
O1 O 0.6647(3) -0.01225(18) 0.67986(12)
O2 O 0.7320(2) -0.13827(16) 0.47968(12)
C10 C 1.0247(3) -0.1274(2) 0.51746(16)
O3 O 1.0111(2) -0.16189(18) 0.46685(13)
C11 C 1.1522(3) -0.1387(3) 0.55648(19)
H11 H 1.2151 -0.1747 0.5346
H12 H 1.1954 -0.0858 0.5637
H13 H 1.1275 -0.1633 0.5961
C12 C 1.0462(4) 0.0527(2) 0.50035(15)
C13 C 1.1187(4) 0.0858(2) 0.55119(17)
H14 H 1.0832 0.0788 0.5931
C14 C 1.2417(4) 0.1284(2) 0.54281(17)
H15 H 1.2916 0.1503 0.5782
C15 C 1.2931(4) 0.1387(2) 0.48260(16)
C16 C 1.2269(3) 0.1064(2) 0.43175(17)
H16 H 1.2646 0.1135 0.3903
C17 C 1.1032(4) 0.0631(2) 0.44038(16)
H17 H 1.0563 0.0408 0.4043
C18 C 0.5111(3) -0.0942(3) 0.56035(19)
H18 H 0.5078 -0.1500 0.5765
H19 H 0.4466 -0.0601 0.5830
H20 H 0.4875 -0.0946 0.5164
H41 H 0.797(4) -0.158(3) 0.4643(18)
Br2 Br 0.30956(4) 0.34059(3) 0.64082(2)
C19 C 1.0481(4) 0.0171(2) 0.75055(18)
C20 C 0.9579(4) -0.0349(2) 0.79277(17)
H21 H 1.0038 -0.0857 0.8041
H22 H 0.8733 -0.0483 0.7716
C21 C 0.9297(4) 0.0198(2) 0.85080(16)
H23 H 0.9908 0.0053 0.8847
H24 H 0.8362 0.0139 0.8649
C22 C 0.9568(4) 0.1091(2) 0.82764(16)
C23 C 0.8321(3) 0.1415(2) 0.78825(15)
H25 H 0.8104 0.1001 0.7572
C24 C 0.8658(3) 0.2225(2) 0.75208(16)
H26 H 0.8993 0.2624 0.7821
C25 C 0.9820(3) 0.2034(2) 0.70491(16)
H27 H 1.0042 0.2529 0.6817
H28 H 0.9503 0.1621 0.6757
C26 C 1.1089(3) 0.1717(2) 0.73853(17)
H29 H 1.1474 0.2164 0.7628
H30 H 1.1764 0.1553 0.7078
C27 C 1.0827(3) 0.0989(2) 0.78315(17)
O4 O 1.0864(3) -0.00419(18) 0.69816(13)
O5 O 0.9898(2) 0.16447(18) 0.87709(12)
C28 C 0.7052(3) 0.1551(3) 0.82912(16)
O6 O 0.7004(2) 0.21358(16) 0.86528(11)
C29 C 0.5863(4) 0.0972(3) 0.82096(19)
H31 H 0.5137 0.1123 0.8495
H32 H 0.5530 0.1001 0.7784
H33 H 0.6165 0.0416 0.8299
C30 C 0.7363(3) 0.2564(2) 0.72153(16)
C31 C 0.6698(4) 0.2106(3) 0.67406(17)
H34 H 0.7114 0.1608 0.6579
C32 C 0.5446(4) 0.2370(2) 0.65007(17)
H35 H 0.4998 0.2065 0.6170
C33 C 0.4843(3) 0.3081(2) 0.67353(16)
C34 C 0.5483(4) 0.3550(2) 0.71925(16)
H36 H 0.5062 0.4051 0.7346
C35 C 0.6745(4) 0.3293(2) 0.74251(16)
H37 H 0.7205 0.3617 0.7741
C36 C 1.2157(3) 0.0818(3) 0.82127(19)
H38 H 1.2934 0.0755 0.7937
H39 H 1.2306 0.1285 0.8487
H40 H 1.2047 0.0323 0.8461
H42 H 0.926(5) 0.165(3) 0.904(2)
loop_
_geom_bond_atom_site_label_1
_geom_bond_atom_site_label_2
_geom_bond_site_symmetry_1
_geom_bond_site_symmetry_2
Br1 C15 1_555 1_555
C1 C2 1_555 1_555
C2 H1 1_555 1_555
H2 C2 1_555 1_555
C3 C2 1_555 1_555
H3 C3 1_555 1_555
H4 C3 1_555 1_555
C4 C3 1_555 1_555
C5 C4 1_555 1_555
H5 C5 1_555 1_555
C6 C5 1_555 1_555
H6 C6 1_555 1_555
C7 C6 1_555 1_555
H7 C7 1_555 1_555
H8 C7 1_555 1_555
C8 C7 1_555 1_555
H9 C8 1_555 1_555
H10 C8 1_555 1_555
C9 C1 1_555 1_555
O1 C1 1_555 1_555
O2 C4 1_555 1_555
C10 C5 1_555 1_555
O3 C10 1_555 1_555
C11 C10 1_555 1_555
H11 C11 1_555 1_555
H12 C11 1_555 1_555
H13 C11 1_555 1_555
C12 C6 1_555 1_555
C13 C12 1_555 1_555
H14 C13 1_555 1_555
C14 C13 1_555 1_555
H15 C14 1_555 1_555
C15 C14 1_555 1_555
C16 C15 1_555 1_555
H16 C16 1_555 1_555
C17 C12 1_555 1_555
H17 C17 1_555 1_555
C18 C9 1_555 1_555
H18 C18 1_555 1_555
H19 C18 1_555 1_555
H20 C18 1_555 1_555
Br2 C33 1_555 1_555
C19 C20 1_555 1_555
C20 H21 1_555 1_555
H22 C20 1_555 1_555
C21 C20 1_555 1_555
H23 C21 1_555 1_555
H24 C21 1_555 1_555
C22 C21 1_555 1_555
C23 C22 1_555 1_555
H25 C23 1_555 1_555
C24 C23 1_555 1_555
H26 C24 1_555 1_555
C25 C24 1_555 1_555
H27 C25 1_555 1_555
H28 C25 1_555 1_555
C26 C25 1_555 1_555
H29 C26 1_555 1_555
H30 C26 1_555 1_555
C27 C19 1_555 1_555
O4 C19 1_555 1_555
O5 C22 1_555 1_555
C28 C23 1_555 1_555
O6 C28 1_555 1_555
C29 C28 1_555 1_555
H31 C29 1_555 1_555
H32 C29 1_555 1_555
H33 C29 1_555 1_555
C30 C24 1_555 1_555
C31 C30 1_555 1_555
H34 C31 1_555 1_555
C32 C31 1_555 1_555
H35 C32 1_555 1_555
C33 C32 1_555 1_555
C34 C33 1_555 1_555
H36 C34 1_555 1_555
C35 C30 1_555 1_555
H37 C35 1_555 1_555
C36 C27 1_555 1_555
H38 C36 1_555 1_555
H39 C36 1_555 1_555
H40 C36 1_555 1_555
H41 O2 1_555 1_555
H42 O5 1_555 1_555
C4 C9 1_555 1_555
C8 C9 1_555 1_555
C16 C17 1_555 1_555
C22 C27 1_555 1_555
C26 C27 1_555 1_555
C34 C35 1_555 1_555

#END
