
#######################################################################
#
#                 Cambridge Crystallographic Data Centre
#                                CCDC 
#
#######################################################################
#
# If this CIF has been generated from an entry in the Cambridge 
# Structural Database, then it will include bibliographic, chemical, 
# crystal, experimental, refinement or atomic coordinate data resulting 
# from the CCDC's data processing and validation procedures.
#
#######################################################################

data_AXELUL
_chemical_formula_moiety         'C13 H26 N2 O3'
_chemical_name_systematic        
N-(3-(Isobutylamino)-2-methyl-3-oxopropoxy)-2,2-dimethylpropanamide
_symmetry_cell_setting           monoclinic
_symmetry_space_group_name_H-M   'P 21'
_symmetry_Int_Tables_number      4
_space_group_name_Hall           'P 2yb'
loop_
_symmetry_equiv_pos_site_id
_symmetry_equiv_pos_as_xyz
1 x,y,z
2 -x,1/2+y,-z
_cell_length_a                   9.644(4)
_cell_length_b                   14.916(6)
_cell_length_c                   11.475(5)
_cell_angle_alpha                90
_cell_angle_beta                 105.33(6)
_cell_angle_gamma                90
_cell_volume                     1591.95
_exptl_crystal_colour            colorless
_exptl_crystal_description       block
_cell_formula_units_Z            4
loop_
_atom_site_label
_atom_site_type_symbol
_atom_site_fract_x
_atom_site_fract_y
_atom_site_fract_z
C1 C 0.5904(4) 0.5569(3) 0.4456(4)
H1 H 0.5908 0.5804 0.3669
H2 H 0.6701 0.5154 0.4714
C2 C 0.6054(5) 0.6321(3) 0.5348(4)
H3 H 0.7011 0.6576 0.5430
C3 C 0.4988(5) 0.7100(2) 0.4959(4)
C4 C 0.6048(7) 0.5989(3) 0.6596(4)
H4 H 0.5105 0.5778 0.6584
H5 H 0.6310 0.6471 0.7166
H6 H 0.6727 0.5508 0.6828
C5 C 0.3535(5) 0.4771(3) 0.2361(4)
C6 C 0.3171(5) 0.4043(3) 0.1386(4)
C7 C 0.1971(6) 0.3472(4) 0.1657(5)
H7 H 0.1638 0.3043 0.1021
H8 H 0.1188 0.3853 0.1712
H9 H 0.2336 0.3162 0.2410
C8 C 0.4483(6) 0.3450(3) 0.1416(5)
H10 H 0.4270 0.3062 0.0723
H11 H 0.4708 0.3095 0.2139
H12 H 0.5291 0.3822 0.1403
C9 C 0.2657(7) 0.4491(4) 0.0130(4)
H13 H 0.3421 0.4848 -0.0019
H14 H 0.1844 0.4868 0.0111
H15 H 0.2386 0.4037 -0.0481
C10 C 0.2914(7) 0.7743(4) 0.3530(5)
H16 H 0.3215 0.8278 0.4011
H17 H 0.2011 0.7546 0.3668
C11 C 0.2671(6) 0.7974(5) 0.2238(7)
H18 H 0.2156 0.7437 0.1861
C12 C 0.1458(6) 0.8669(5) 0.1917(7)
H19 H 0.1719 0.9183 0.2432
H20 H 0.0591 0.8411 0.2030
H21 H 0.1306 0.8848 0.1089
C13 C 0.3665(9) 0.8039(6) 0.1632(7)
H22 H 0.3209 0.8040 0.0780
H23 H 0.4310 0.7538 0.1827
H24 H 0.4195 0.8586 0.1850
N1 N 0.4279(4) 0.4493(2) 0.3430(3)
N2 N 0.3989(4) 0.7045(2) 0.3944(3)
O1 O 0.3226(4) 0.55606(19) 0.2161(3)
O2 O 0.4560(3) 0.51161(17) 0.4390(2)
O3 O 0.5130(4) 0.7760(2) 0.5613(3)
H50 H 0.454(4) 0.3964(16) 0.372(3)
H51 H 0.385(4) 0.6564(17) 0.358(3)
C14 C 0.0836(4) 0.4700(2) 0.4594(4)
H25 H 0.1532 0.5173 0.4882
H26 H 0.0975 0.4467 0.3844
C15 C 0.1034(4) 0.3956(3) 0.5528(4)
H27 H 0.0632 0.4178 0.6174
C16 C 0.0263(5) 0.3091(3) 0.5085(4)
C17 C 0.2632(5) 0.3792(4) 0.6099(5)
H28 H 0.3084 0.3609 0.5486
H29 H 0.2745 0.3330 0.6699
H30 H 0.3073 0.4334 0.6472
C18 C -0.1576(4) 0.5274(3) 0.2330(3)
C19 C -0.1983(4) 0.5935(3) 0.1282(3)
C20 C -0.2280(14) 0.5423(8) 0.0153(8)
H31 H -0.3052 0.5010 0.0125
H32 H -0.1435 0.5098 0.0116
H33 H -0.2550 0.5827 -0.0521
C21 C -0.3224(11) 0.6480(8) 0.1467(8)
H34 H -0.2931 0.6791 0.2225
H35 H -0.4014 0.6090 0.1471
H36 H -0.3518 0.6908 0.0823
C22 C -0.0727(10) 0.6574(7) 0.1348(8)
H37 H -0.0520 0.6898 0.2097
H38 H -0.0977 0.6989 0.0686
H39 H 0.0105 0.6237 0.1302
C23 C -0.1691(6) 0.2319(3) 0.3591(4)
H40 H -0.2691 0.2473 0.3498
H41 H -0.1452 0.1830 0.4167
C24 C -0.1525(7) 0.2004(5) 0.2415(6)
H42 H -0.1576 0.2527 0.1888
C25 C -0.2720(11) 0.1402(7) 0.1852(11)
H43 H -0.2548 0.0821 0.2222
H44 H -0.2792 0.1350 0.1004
H45 H -0.3600 0.1641 0.1961
C26 C -0.0091(9) 0.1584(6) 0.2584(8)
H46 H 0.0644 0.2013 0.2931
H47 H 0.0019 0.1389 0.1816
H48 H -0.0009 0.1077 0.3114
N3 N -0.0920(4) 0.5622(2) 0.3414(3)
N4 N -0.0799(4) 0.3095(2) 0.4085(4)
O4 O -0.1775(4) 0.44760(19) 0.2196(3)
O5 O -0.0592(3) 0.50434(17) 0.4400(2)
O6 O 0.0630(4) 0.2397(2) 0.5691(3)
H49 H -0.091(4) 0.6177(14) 0.360(3)
H52 H -0.100(6) 0.354(3) 0.357(5)
C27? C -0.3434(13) 0.5623(8) 0.0455(11)
C28? C -0.2109(19) 0.6897(6) 0.1618(9)
C29? C -0.0869(11) 0.5854(10) 0.0574(11)
H53? H -0.3365 0.5005 0.0244
H54? H -0.3672 0.5981 -0.0266
H55? H -0.4170 0.5688 0.0872
H56? H -0.2823 0.6950 0.2060
H57? H -0.2386 0.7255 0.0899
H58? H -0.1199 0.7102 0.2112
H59? H -0.0783 0.5238 0.0362
H60? H 0.0042 0.6065 0.1059
H61? H -0.1159 0.6209 -0.0148
loop_
_geom_bond_atom_site_label_1
_geom_bond_atom_site_label_2
_geom_bond_site_symmetry_1
_geom_bond_site_symmetry_2
C1 H1 1_555 1_555
H2 C1 1_555 1_555
C2 C1 1_555 1_555
H3 C2 1_555 1_555
C3 C2 1_555 1_555
C4 C2 1_555 1_555
H4 C4 1_555 1_555
H5 C4 1_555 1_555
H6 C4 1_555 1_555
C5 C6 1_555 1_555
C6 C7 1_555 1_555
C7 H7 1_555 1_555
H8 C7 1_555 1_555
H9 C7 1_555 1_555
C8 C6 1_555 1_555
H10 C8 1_555 1_555
H11 C8 1_555 1_555
H12 C8 1_555 1_555
C9 C6 1_555 1_555
H13 C9 1_555 1_555
H14 C9 1_555 1_555
H15 C9 1_555 1_555
C10 H16 1_555 1_555
H17 C10 1_555 1_555
C11 C10 1_555 1_555
H18 C11 1_555 1_555
C12 C11 1_555 1_555
H19 C12 1_555 1_555
H20 C12 1_555 1_555
H21 C12 1_555 1_555
C13 C11 1_555 1_555
H22 C13 1_555 1_555
H23 C13 1_555 1_555
H24 C13 1_555 1_555
C14 H25 1_555 1_555
H26 C14 1_555 1_555
C15 C14 1_555 1_555
H27 C15 1_555 1_555
C16 C15 1_555 1_555
C17 C15 1_555 1_555
H28 C17 1_555 1_555
H29 C17 1_555 1_555
H30 C17 1_555 1_555
C18 C19 1_555 1_555
C19 C20 1_555 1_555
C20 H31 1_555 1_555
H32 C20 1_555 1_555
H33 C20 1_555 1_555
C21 C19 1_555 1_555
H34 C21 1_555 1_555
H35 C21 1_555 1_555
H36 C21 1_555 1_555
C22 C19 1_555 1_555
H37 C22 1_555 1_555
H38 C22 1_555 1_555
H39 C22 1_555 1_555
C23 H40 1_555 1_555
H41 C23 1_555 1_555
C24 C23 1_555 1_555
H42 C24 1_555 1_555
C25 C24 1_555 1_555
H43 C25 1_555 1_555
H44 C25 1_555 1_555
H45 C25 1_555 1_555
C26 C24 1_555 1_555
H46 C26 1_555 1_555
H47 C26 1_555 1_555
H48 C26 1_555 1_555
N1 C5 1_555 1_555
N2 C3 1_555 1_555
N3 C18 1_555 1_555
N4 C16 1_555 1_555
O1 C5 1_555 1_555
O2 C1 1_555 1_555
O3 C3 1_555 1_555
O4 C18 1_555 1_555
O5 C14 1_555 1_555
O6 C16 1_555 1_555
H49 N3 1_555 1_555
H50 N1 1_555 1_555
H51 N2 1_555 1_555
H52 N4 1_555 1_555
C10 N2 1_555 1_555
C23 N4 1_555 1_555
N1 O2 1_555 1_555
N3 O5 1_555 1_555

#END
