
#######################################################################
#
#                 Cambridge Crystallographic Data Centre
#                                CCDC 
#
#######################################################################
#
# If this CIF has been generated from an entry in the Cambridge 
# Structural Database, then it will include bibliographic, chemical, 
# crystal, experimental, refinement or atomic coordinate data resulting 
# from the CCDC's data processing and validation procedures.
#
#######################################################################

data_AXENIC
_chemical_formula_moiety         'C11 H10 F1 N3 O1'
_chemical_name_systematic        
1-(2-fluorophenyl)-3-(1H-1,2,4-triazol-1-yl)propan-1-one
_symmetry_cell_setting           monoclinic
_symmetry_space_group_name_H-M   'P 21/c'
_symmetry_Int_Tables_number      14
_space_group_name_Hall           '-P 2ybc'
loop_
_symmetry_equiv_pos_site_id
_symmetry_equiv_pos_as_xyz
1 x,y,z
2 -x,1/2+y,1/2-z
3 -x,-y,-z
4 x,1/2-y,1/2+z
_cell_length_a                   11.761(15)
_cell_length_b                   4.912(6)
_cell_length_c                   21.51(3)
_cell_angle_alpha                90
_cell_angle_beta                 118.13(6)
_cell_angle_gamma                90
_cell_volume                     1095.85
_exptl_crystal_colour            colorless
_exptl_crystal_description       block
_cell_formula_units_Z            4
loop_
_atom_site_label
_atom_site_type_symbol
_atom_site_fract_x
_atom_site_fract_y
_atom_site_fract_z
F1 F 0.4190(3) -0.7998(8) -0.0688(2)
O1 O 0.1006(3) -0.6818(9) -0.0342(2)
N1 N 0.2920(3) -0.5500(8) 0.1190(2)
N2 N 0.2238(4) -0.7735(11) 0.1840(3)
N3 N 0.3945(4) -0.7061(9) 0.1647(2)
C1 C 0.1945(5) -1.2827(11) -0.1914(3)
H1 H 0.1910 -1.4095 -0.2243
C2 C 0.0879(5) -1.2473(11) -0.1800(3)
C3 C 0.0939(4) -1.0618(10) -0.1299(2)
C4 C 0.2051(4) -0.9053(9) -0.0904(2)
C5 C 0.3083(4) -0.9471(9) -0.1044(3)
C6 C 0.3044(5) -1.1313(12) -0.1542(3)
C7 C 0.3205(4) -0.5458(10) 0.0117(2)
H2 H 0.3426 -0.4231 -0.0164
H3 H 0.3924 -0.6694 0.0361
C8 C 0.3010(6) -0.3806(11) 0.0659(3)
C9 C 0.2017(4) -0.7095(9) -0.0373(2)
C10 C 0.3468(5) -0.8331(14) 0.2011(3)
C11 C 0.1920(5) -0.5937(13) 0.1311(3)
H4 H 0.013(6) -1.363(12) -0.201(3)
H5 H 0.014(4) -1.051(8) -0.122(2)
H6 H 0.370(6) -1.120(12) -0.165(4)
H7 H 0.363(6) -0.244(10) 0.091(4)
H8 H 0.222(7) -0.288(12) 0.043(4)
H9 H 0.396(6) -0.941(12) 0.238(3)
loop_
_geom_bond_atom_site_label_1
_geom_bond_atom_site_label_2
_geom_bond_site_symmetry_1
_geom_bond_site_symmetry_2
F1 C5 1_555 1_555
O1 C9 1_555 1_555
N1 N3 1_555 1_555
N2 C10 1_555 1_555
N3 C10 1_555 1_555
C1 H1 1_555 1_555
C2 C1 1_555 1_555
C3 C2 1_555 1_555
C4 C3 1_555 1_555
C5 C4 1_555 1_555
C6 C1 1_555 1_555
C7 H2 1_555 1_555
H3 C7 1_555 1_555
C8 N1 1_555 1_555
C9 C4 1_555 1_555
C10 H9 1_555 1_555
C11 N1 1_555 1_555
H4 C2 1_555 1_555
H5 C3 1_555 1_555
H6 C6 1_555 1_555
H7 C8 1_555 1_555
H8 C8 1_555 1_555
N2 C11 1_555 1_555
C5 C6 1_555 1_555
C7 C8 1_555 1_555
C7 C9 1_555 1_555

#END
