
#######################################################################
#
#                 Cambridge Crystallographic Data Centre
#                                CCDC 
#
#######################################################################
#
# If this CIF has been generated from an entry in the Cambridge 
# Structural Database, then it will include bibliographic, chemical, 
# crystal, experimental, refinement or atomic coordinate data resulting 
# from the CCDC's data processing and validation procedures.
#
#######################################################################

data_AXEQIF
_chemical_formula_moiety         'C16 H12 N4,C2 H6 O1'
_chemical_name_systematic        
'2-(1-phenyl-1H-pyrazol-4-yl)-1H-benzimidazole ethanol solvate'
_symmetry_cell_setting           orthorhombic
_symmetry_space_group_name_H-M   'P 21 21 21'
_symmetry_Int_Tables_number      19
_space_group_name_Hall           'P 2ac 2ab'
loop_
_symmetry_equiv_pos_site_id
_symmetry_equiv_pos_as_xyz
1 x,y,z
2 1/2-x,-y,1/2+z
3 1/2+x,1/2-y,-z
4 -x,1/2+y,1/2-z
_cell_length_a                   7.6078(8)
_cell_length_b                   14.2029(15)
_cell_length_c                   15.0102(15)
_cell_angle_alpha                90
_cell_angle_beta                 90
_cell_angle_gamma                90
_cell_volume                     1621.89
_exptl_crystal_colour            yellow
_exptl_crystal_description       block
_cell_formula_units_Z            4
loop_
_atom_site_label
_atom_site_type_symbol
_atom_site_fract_x
_atom_site_fract_y
_atom_site_fract_z
N1 N 1.0351(3) 0.15761(13) 0.81554(14)
N2 N 1.0711(3) 0.30805(14) 0.77534(15)
N3 N 0.5756(3) 0.26752(17) 0.63252(17)
N4 N 0.5490(3) 0.18184(13) 0.66938(14)
C1 C 1.1894(3) 0.18758(16) 0.85525(16)
C2 C 1.3094(4) 0.1431(2) 0.91068(19)
H1 H 1.2948 0.0806 0.9275
C3 C 1.4502(4) 0.1947(3) 0.9396(2)
H2 H 1.5323 0.1669 0.9772
C4 C 1.4728(5) 0.2881(3) 0.9140(2)
H3 H 1.5699 0.3213 0.9346
C5 C 1.3555(4) 0.3316(2) 0.8593(2)
H4 H 1.3721 0.3939 0.8421
C6 C 1.2107(3) 0.28110(18) 0.82970(17)
C7 C 0.9714(3) 0.23254(16) 0.76904(16)
C8 C 0.8059(3) 0.22781(16) 0.72037(17)
C9 C 0.7298(4) 0.2947(2) 0.6644(2)
H5 H 0.7817 0.3523 0.6510
C10 C 0.6854(3) 0.15639(17) 0.72125(17)
H6 H 0.6958 0.1000 0.7523
C11 C 0.3945(3) 0.12955(17) 0.64835(16)
C12 C 0.3661(4) 0.04178(18) 0.68688(18)
H7 H 0.4460 0.0179 0.7279
C13 C 0.2206(4) -0.0091(2) 0.6643(2)
H8 H 0.2030 -0.0680 0.6899
C14 C 0.1000(4) 0.0249(2) 0.6045(2)
H9 H 0.0014 -0.0105 0.5895
C15 C 0.2747(4) 0.1638(2) 0.58831(19)
H10 H 0.2929 0.2221 0.5618
C16 C 0.1270(4) 0.1120(2) 0.5671(2)
H11 H 0.0452 0.1362 0.5272
C17 C 0.1428(8) 0.4471(6) 0.5299(3)
H12 H 0.0557 0.3982 0.5320
H13 H 0.2256 0.4336 0.4833
H14 H 0.0867 0.5064 0.5182
C18 C 0.2271(7) 0.4513(3) 0.6082(2)
H15 H 0.3210 0.4974 0.6037
H16 H 0.2807 0.3906 0.6200
O1 O 0.1171(4) 0.47586(13) 0.68186(14)
H17 H 0.0951 0.4285 0.7111
loop_
_geom_bond_atom_site_label_1
_geom_bond_atom_site_label_2
_geom_bond_site_symmetry_1
_geom_bond_site_symmetry_2
N1 C1 1_555 1_555
N2 C6 1_555 1_555
N3 N4 1_555 1_555
N4 C10 1_555 1_555
C1 C2 1_555 1_555
C2 H1 1_555 1_555
C3 C2 1_555 1_555
H2 C3 1_555 1_555
C4 C3 1_555 1_555
H3 C4 1_555 1_555
C5 C4 1_555 1_555
H4 C5 1_555 1_555
C6 C1 1_555 1_555
C7 N1 1_555 1_555
C8 C7 1_555 1_555
C9 N3 1_555 1_555
H5 C9 1_555 1_555
C10 C8 1_555 1_555
H6 C10 1_555 1_555
C11 N4 1_555 1_555
C12 C11 1_555 1_555
H7 C12 1_555 1_555
C13 C12 1_555 1_555
H8 C13 1_555 1_555
C14 C13 1_555 1_555
H9 C14 1_555 1_555
C15 C11 1_555 1_555
H10 C15 1_555 1_555
C16 C14 1_555 1_555
H11 C16 1_555 1_555
C17 H12 1_555 1_555
H13 C17 1_555 1_555
H14 C17 1_555 1_555
C18 C17 1_555 1_555
H15 C18 1_555 1_555
H16 C18 1_555 1_555
O1 C18 1_555 1_555
H17 O1 1_555 1_555
N2 C7 1_555 1_555
C5 C6 1_555 1_555
C8 C9 1_555 1_555
C15 C16 1_555 1_555

#END
