
#######################################################################
#
#                 Cambridge Crystallographic Data Centre
#                                CCDC 
#
#######################################################################
#
# If this CIF has been generated from an entry in the Cambridge 
# Structural Database, then it will include bibliographic, chemical, 
# crystal, experimental, refinement or atomic coordinate data resulting 
# from the CCDC's data processing and validation procedures.
#
#######################################################################

data_AXERUQ
_chemical_formula_moiety         'C9 H10 Cl1 N5 O1'
_chemical_name_systematic        
1-((6-Chloropyridin-3-yl)methyl)-2-(nitrosoimino)imidazolidine
_symmetry_cell_setting           monoclinic
_symmetry_space_group_name_H-M   'P 21/c'
_symmetry_Int_Tables_number      14
_space_group_name_Hall           '-P 2ybc'
loop_
_symmetry_equiv_pos_site_id
_symmetry_equiv_pos_as_xyz
1 x,y,z
2 x,1/2-y,1/2+z
3 -x,-y,-z
4 -x,1/2+y,1/2-z
_cell_length_a                   18.492(2)
_cell_length_b                   13.894(2)
_cell_length_c                   8.3091(12)
_cell_angle_alpha                90
_cell_angle_beta                 102.642(10)
_cell_angle_gamma                90
_cell_volume                     2083.08
_exptl_crystal_colour            yellow
_exptl_crystal_description       plate
_cell_formula_units_Z            8
_exptl_crystal_recrystallization_method ethanol
loop_
_atom_site_label
_atom_site_type_symbol
_atom_site_fract_x
_atom_site_fract_y
_atom_site_fract_z
Cl1 Cl 0.47403(4) 0.42876(5) 0.13107(10)
O1 O 0.13913(11) 0.13569(17) 0.6404(2)
N1 N 0.45661(13) 0.24410(18) 0.1674(3)
N2 N 0.23007(12) 0.08589(17) 0.1900(3)
N3 N 0.11211(13) 0.1177(2) 0.1630(3)
H1 H 0.0683(9) 0.129(2) 0.184(4)
N4 N 0.19216(13) 0.11438(18) 0.4364(3)
N5 N 0.12976(13) 0.12880(18) 0.4879(3)
C1 C 0.41828(16) 0.1667(2) 0.1965(4)
H2 H 0.4400 0.1052 0.1909
C2 C 0.34899(15) 0.1707(2) 0.2344(3)
C3 C 0.31848(16) 0.2611(2) 0.2429(4)
H3 H 0.2711 0.2673 0.2683
C4 C 0.35694(16) 0.3417(2) 0.2144(4)
H4 H 0.3371 0.4043 0.2200
C5 C 0.42491(15) 0.3282(2) 0.1777(4)
C6 C 0.30843(15) 0.0806(2) 0.2647(4)
H5 H 0.3303 0.0246 0.2190
H6 H 0.3150 0.0707 0.3850
C7 C 0.20203(16) 0.0853(3) 0.0113(4)
H7 H 0.2096 0.0217 -0.0363
H8 H 0.2264 0.1354 -0.0428
C8 C 0.11904(16) 0.1070(2) -0.0070(4)
H9 H 0.1047 0.1669 -0.0705
H10 H 0.0881 0.0532 -0.0621
C9 C 0.17635(15) 0.1077(2) 0.2679(3)
Cl2 Cl 0.58956(4) 0.06609(6) 0.04827(10)
O2 O 0.94234(11) 0.36401(17) -0.4919(2)
N6 N 0.70285(13) 0.14239(17) -0.0435(3)
N7 N 0.84639(12) 0.38181(17) -0.0423(3)
N8 N 0.96665(13) 0.3726(2) -0.0132(3)
H11 H 1.0114(8) 0.370(2) -0.030(3)
N9 N 0.88755(12) 0.37538(18) -0.2887(3)
N10 N 0.95071(13) 0.36799(19) -0.3386(3)
C10 C 0.74300(16) 0.2173(2) -0.0778(4)
H12 H 0.7895 0.2040 -0.1039
C11 C 0.72102(15) 0.3123(2) -0.0775(3)
C12 C 0.65315(15) 0.3304(2) -0.0363(4)
H13 H 0.6360 0.3947 -0.0338
C13 C 0.61104(16) 0.2554(2) 0.0007(4)
H14 H 0.5646 0.2661 0.0291
C14 C 0.63930(16) 0.1641(2) -0.0054(4)
C15 C 0.76823(15) 0.3933(2) -0.1193(4)
H15 H 0.7625 0.3963 -0.2404
H16 H 0.7503 0.4550 -0.0828
C16 C 0.87401(15) 0.3722(2) 0.1362(3)
H17 H 0.8598 0.3094 0.1762
H18 H 0.8549 0.4245 0.1964
C17 C 0.95802(15) 0.3797(2) 0.1566(4)
H19 H 0.9770 0.4419 0.2068
H20 H 0.9839 0.3264 0.2249
C18 C 0.90213(15) 0.3772(2) -0.1202(4)
loop_
_geom_bond_atom_site_label_1
_geom_bond_atom_site_label_2
_geom_bond_site_symmetry_1
_geom_bond_site_symmetry_2
Cl1 C5 1_555 1_555
O1 N5 1_555 1_555
N1 C1 1_555 1_555
N2 C6 1_555 1_555
N3 H1 1_555 1_555
N4 N5 1_555 1_555
C1 H2 1_555 1_555
C2 C1 1_555 1_555
C3 C2 1_555 1_555
H3 C3 1_555 1_555
C4 C3 1_555 1_555
H4 C4 1_555 1_555
C5 N1 1_555 1_555
C6 C2 1_555 1_555
H5 C6 1_555 1_555
H6 C6 1_555 1_555
C7 N2 1_555 1_555
H7 C7 1_555 1_555
H8 C7 1_555 1_555
C8 N3 1_555 1_555
H9 C8 1_555 1_555
H10 C8 1_555 1_555
C9 N2 1_555 1_555
Cl2 C14 1_555 1_555
O2 N10 1_555 1_555
N6 C10 1_555 1_555
N7 C15 1_555 1_555
N8 H11 1_555 1_555
N9 N10 1_555 1_555
C10 H12 1_555 1_555
C11 C10 1_555 1_555
C12 C11 1_555 1_555
H13 C12 1_555 1_555
C13 C12 1_555 1_555
H14 C13 1_555 1_555
C14 N6 1_555 1_555
C15 C11 1_555 1_555
H15 C15 1_555 1_555
H16 C15 1_555 1_555
C16 N7 1_555 1_555
H17 C16 1_555 1_555
H18 C16 1_555 1_555
C17 N8 1_555 1_555
H19 C17 1_555 1_555
H20 C17 1_555 1_555
C18 N7 1_555 1_555
N3 C9 1_555 1_555
N4 C9 1_555 1_555
C4 C5 1_555 1_555
C7 C8 1_555 1_555
N8 C18 1_555 1_555
N9 C18 1_555 1_555
C13 C14 1_555 1_555
C16 C17 1_555 1_555

#END
