
#######################################################################
#
#                 Cambridge Crystallographic Data Centre
#                                CCDC 
#
#######################################################################
#
# If this CIF has been generated from an entry in the Cambridge 
# Structural Database, then it will include bibliographic, chemical, 
# crystal, experimental, refinement or atomic coordinate data resulting 
# from the CCDC's data processing and validation procedures.
#
#######################################################################

data_AXESIF
_chemical_formula_moiety         'C9 H9 Cl1 N4 O2 S1'
_chemical_name_systematic        
3-((6-Chloropyridin-3-yl)methyl)-2-(nitroimino)thiazolidine
_symmetry_cell_setting           monoclinic
_symmetry_space_group_name_H-M   'C 2/c'
_symmetry_Int_Tables_number      15
_space_group_name_Hall           '-C 2yn'
loop_
_symmetry_equiv_pos_site_id
_symmetry_equiv_pos_as_xyz
1 x,y,z
2 1/2+x,1/2+y,z
3 x,-y,1/2+z
4 1/2+x,1/2-y,1/2+z
5 -x,-y,-z
6 1/2-x,1/2-y,-z
7 -x,y,1/2-z
8 1/2-x,1/2+y,1/2-z
_cell_length_a                   24.707(8)
_cell_length_b                   6.876(2)
_cell_length_c                   13.696(5)
_cell_angle_alpha                90
_cell_angle_beta                 101.49(3)
_cell_angle_gamma                90
_cell_volume                     2280.12
_exptl_crystal_colour            colorless
_exptl_crystal_description       block
_cell_formula_units_Z            8
loop_
_atom_site_label
_atom_site_type_symbol
_atom_site_fract_x
_atom_site_fract_y
_atom_site_fract_z
Cl1 Cl 0.42487(3) 0.86569(12) 0.35495(7)
S1 S 0.75004(3) 0.45082(9) 0.29860(4)
O1 O 0.79910(8) 0.5764(3) 0.61006(13)
O2 O 0.81748(7) 0.5227(3) 0.46389(13)
N1 N 0.73039(8) 0.4805(3) 0.49229(15)
N2 N 0.78439(9) 0.5282(3) 0.52114(16)
N3 N 0.66094(9) 0.3898(3) 0.36445(15)
N4 N 0.47517(9) 0.5325(4) 0.36305(16)
C1 C 0.71341(11) 0.4427(4) 0.39496(19)
C2 C 0.68605(12) 0.4256(4) 0.20657(19)
H1 H 0.6717 0.5547 0.1820
H2 H 0.6922 0.3469 0.1492
C3 C 0.64614(11) 0.3247(4) 0.26008(19)
H3 H 0.6076 0.3616 0.2305
H4 H 0.6498 0.1817 0.2558
C4 C 0.62238(11) 0.3510(4) 0.4305(2)
H5 H 0.6418 0.3665 0.5006
H6 H 0.6093 0.2149 0.4214
C5 C 0.57365(11) 0.4859(4) 0.40999(18)
C6 C 0.58056(12) 0.6849(5) 0.4234(3)
H7 H 0.6164 0.7387 0.4440
C7 C 0.53494(14) 0.8033(5) 0.4066(3)
H8 H 0.5385 0.9400 0.4156
C8 C 0.48390(12) 0.7182(4) 0.3762(2)
C9 C 0.52025(11) 0.4193(4) 0.38058(19)
H9 H 0.5150 0.2830 0.3721
loop_
_geom_bond_atom_site_label_1
_geom_bond_atom_site_label_2
_geom_bond_site_symmetry_1
_geom_bond_site_symmetry_2
Cl1 C8 1_555 1_555
S1 C1 1_555 1_555
O1 N2 1_555 1_555
O2 N2 1_555 1_555
N1 N2 1_555 1_555
N3 C1 1_555 1_555
N4 C8 1_555 1_555
C1 N1 1_555 1_555
C2 S1 1_555 1_555
H1 C2 1_555 1_555
H2 C2 1_555 1_555
C3 N3 1_555 1_555
H3 C3 1_555 1_555
H4 C3 1_555 1_555
C4 N3 1_555 1_555
H5 C4 1_555 1_555
H6 C4 1_555 1_555
C5 C4 1_555 1_555
C6 C5 1_555 1_555
H7 C6 1_555 1_555
C7 C6 1_555 1_555
H8 C7 1_555 1_555
C8 C7 1_555 1_555
C9 N4 1_555 1_555
H9 C9 1_555 1_555
C2 C3 1_555 1_555
C5 C9 1_555 1_555

#END
