
#######################################################################
#
#                 Cambridge Crystallographic Data Centre
#                                CCDC 
#
#######################################################################
#
# If this CIF has been generated from an entry in the Cambridge 
# Structural Database, then it will include bibliographic, chemical, 
# crystal, experimental, refinement or atomic coordinate data resulting 
# from the CCDC's data processing and validation procedures.
#
#######################################################################

data_AXEXAE01
_chemical_name_common            'Apatinib mesylate'
_chemical_formula_moiety         'C24 H24 N5 O1 1+,C1 H3 O3 S1 1-'
_chemical_name_systematic        
'4-{[(3-{[4-(1-cyanocyclopentyl)phenyl]carbamoyl}pyridin-2-yl)amino]methyl}pyridin-1-ium methanesulfonate'
_chemical_properties_biological  
'Orally administered anticancer agent for the treatment of advanced gastric cancer.'
_symmetry_cell_setting           triclinic
_symmetry_space_group_name_H-M   'P -1'
_symmetry_Int_Tables_number      2
_space_group_name_Hall           '-P 1'
loop_
_symmetry_equiv_pos_site_id
_symmetry_equiv_pos_as_xyz
1 x,y,z
2 -x,-y,-z
_cell_length_a                   9.0053(6)
_cell_length_b                   9.4059(6)
_cell_length_c                   16.4243(9)
_cell_angle_alpha                102.949(4)
_cell_angle_beta                 94.827(4)
_cell_angle_gamma                114.346(4)
_cell_volume                     1210.58
_exptl_crystal_colour            'light white'
_exptl_crystal_description       prism
_chemical_melting_point          '470 K'
_cell_formula_units_Z            2
loop_
_atom_site_label
_atom_site_type_symbol
_atom_site_fract_x
_atom_site_fract_y
_atom_site_fract_z
S1 S 1.3538(2) 0.17970(16) 0.49094(8)
O1 O 1.3784(4) 0.3346(4) 0.5433(2)
C1 C 1.3290(10) 0.0524(8) 0.5541(4)
H1 H 1.4273 0.0968 0.5976
H2 H 1.3109 -0.0527 0.5199
H3 H 1.2351 0.0417 0.5803
O2 O 1.1617(9) 0.1024(10) 0.4563(6)
O3 O 1.4382(15) 0.1701(11) 0.4288(5)
O6 O 0.3977(4) 0.3588(4) 0.74415(18)
N1 N 0.3585(4) 0.4801(4) 0.8700(2)
H4 H 0.4059 0.5567 0.9170
N2 N 0.9024(5) 0.7118(4) 0.8038(2)
N3 N 0.6823(5) 0.5316(5) 0.6963(2)
H5 H 0.5831 0.4537 0.6788
N4 N 1.1485(5) 0.4135(5) 0.6017(2)
H6 H 1.2208 0.3774 0.5922
C2 C -0.1570(5) 0.2012(5) 0.8476(2)
C3 C 0.4577(5) 0.4617(5) 0.8143(2)
C4 C -0.0779(5) 0.3678(5) 0.8862(3)
H7 H -0.1398 0.4196 0.9089
C5 C 0.1853(5) 0.3849(5) 0.8574(2)
C6 C 0.9153(5) 0.5245(5) 0.6279(2)
C7 C 0.0904(5) 0.4588(5) 0.8918(3)
H8 H 0.1404 0.5701 0.9188
C8 C 0.7411(5) 0.6041(5) 0.7811(2)
C9 C 0.7134(5) 0.6497(5) 0.9279(3)
H9 H 0.6508 0.6285 0.9698
C10 C 0.1076(6) 0.2189(5) 0.8159(3)
H10 H 0.1690 0.1677 0.7918
C11 C -0.0617(6) 0.1299(5) 0.8107(3)
H11 H -0.1128 0.0195 0.7816
C12 C -0.3419(5) 0.1031(5) 0.8418(2)
C13 C 1.0602(6) 0.6156(6) 0.6032(3)
H12 H 1.0781 0.7155 0.5948
C14 C 0.6380(5) 0.5711(5) 0.8420(2)
N5 N -0.4438(5) 0.2433(5) 0.9664(3)
C15 C 0.8792(6) 0.7580(5) 0.9509(3)
H13 H 0.9305 0.8106 1.0079
C16 C 0.9665(6) 0.7857(5) 0.8868(3)
H14 H 1.0780 0.8611 0.9023
C17 C -0.3979(6) 0.1835(5) 0.9118(3)
C18 C 0.7833(6) 0.5828(6) 0.6346(3)
H15 H 0.8363 0.7008 0.6498
H16 H 0.7112 0.5430 0.5790
C19 C 1.1760(6) 0.5598(6) 0.5910(3)
H17 H 1.2738 0.6221 0.5754
C20 C -0.4028(6) -0.0759(5) 0.8434(3)
H18 H -0.3413 -0.1253 0.8121
H19 H -0.3884 -0.0817 0.9016
C21 C -0.4485(6) 0.0816(5) 0.7566(3)
H20 H -0.4587 0.1803 0.7567
H21 H -0.3997 0.0538 0.7086
C22 C 0.8955(7) 0.3778(6) 0.6407(3)
H22 H 0.8013 0.3157 0.6590
C23 C 1.0117(7) 0.3234(7) 0.6267(3)
H23 H 0.9962 0.2236 0.6345
C24 C -0.6166(7) -0.0571(6) 0.7522(4)
H24 H -0.6894 -0.0148 0.7769
H25 H -0.6688 -0.1201 0.6934
C25 C -0.5848(7) -0.1611(7) 0.8016(4)
H26 H -0.6118 -0.2674 0.7638
H27 H -0.6531 -0.1755 0.8445
O4? O 1.265(2) 0.1073(11) 0.4109(4)
O5? O 1.5418(14) 0.2184(12) 0.4899(10)
loop_
_geom_bond_atom_site_label_1
_geom_bond_atom_site_label_2
_geom_bond_site_symmetry_1
_geom_bond_site_symmetry_2
S1 O1 1_555 1_555
C1 S1 1_555 1_555
H1 C1 1_555 1_555
H2 C1 1_555 1_555
H3 C1 1_555 1_555
O2 S1 1_555 1_555
O3 S1 1_555 1_555
O6 C3 1_555 1_555
N1 H4 1_555 1_555
N2 C8 1_555 1_555
N3 H5 1_555 1_555
N4 H6 1_555 1_555
C2 C4 1_555 1_555
C3 N1 1_555 1_555
C4 H7 1_555 1_555
C5 N1 1_555 1_555
C6 C13 1_555 1_555
C7 C4 1_555 1_555
H8 C7 1_555 1_555
C8 N3 1_555 1_555
C9 H9 1_555 1_555
C10 C5 1_555 1_555
H10 C10 1_555 1_555
C11 C2 1_555 1_555
H11 C11 1_555 1_555
C12 C2 1_555 1_555
C13 H12 1_555 1_555
C14 C3 1_555 1_555
N5 C17 1_555 1_555
C15 C9 1_555 1_555
H13 C15 1_555 1_555
C16 N2 1_555 1_555
H14 C16 1_555 1_555
C17 C12 1_555 1_555
C18 N3 1_555 1_555
H15 C18 1_555 1_555
H16 C18 1_555 1_555
C19 N4 1_555 1_555
H17 C19 1_555 1_555
C20 C12 1_555 1_555
H18 C20 1_555 1_555
H19 C20 1_555 1_555
C21 C12 1_555 1_555
H20 C21 1_555 1_555
H21 C21 1_555 1_555
C22 C6 1_555 1_555
H22 C22 1_555 1_555
C23 N4 1_555 1_555
H23 C23 1_555 1_555
C24 C21 1_555 1_555
H24 C24 1_555 1_555
H25 C24 1_555 1_555
C25 C20 1_555 1_555
H26 C25 1_555 1_555
H27 C25 1_555 1_555
C5 C7 1_555 1_555
C6 C18 1_555 1_555
C8 C14 1_555 1_555
C9 C14 1_555 1_555
C10 C11 1_555 1_555
C13 C19 1_555 1_555
C15 C16 1_555 1_555
C22 C23 1_555 1_555
C24 C25 1_555 1_555

#END
