
#######################################################################
#
#                 Cambridge Crystallographic Data Centre
#                                CCDC 
#
#######################################################################
#
# If this CIF has been generated from an entry in the Cambridge 
# Structural Database, then it will include bibliographic, chemical, 
# crystal, experimental, refinement or atomic coordinate data resulting 
# from the CCDC's data processing and validation procedures.
#
#######################################################################

data_AXEXAE
_chemical_name_common            'Apatinib mesylate'
_chemical_formula_moiety         'C24 H24 N5 O1 1+,C1 H3 O3 S1 1-'
_chemical_name_systematic        
'4-{[(3-{[4-(1-cyanocyclopentyl)phenyl]carbamoyl}pyridin-2-yl)amino]methyl}pyridin-1-ium methanesulfonate'
_chemical_properties_biological  
'Orally administered anticancer agent for the treatment of advanced gastric cancer.'
_symmetry_cell_setting           triclinic
_symmetry_space_group_name_H-M   'P -1'
_symmetry_Int_Tables_number      2
_space_group_name_Hall           '-P 1'
loop_
_symmetry_equiv_pos_site_id
_symmetry_equiv_pos_as_xyz
1 x,y,z
2 -x,-y,-z
_cell_length_a                   5.4479(4)
_cell_length_b                   12.8981(9)
_cell_length_c                   17.6634(12)
_cell_angle_alpha                74.743(3)
_cell_angle_beta                 81.344(4)
_cell_angle_gamma                80.495(3)
_cell_volume                     1173.48
_exptl_crystal_colour            'light white'
_exptl_crystal_description       trapezoid
_chemical_melting_point          '464 K'
_cell_formula_units_Z            2
loop_
_atom_site_label
_atom_site_type_symbol
_atom_site_fract_x
_atom_site_fract_y
_atom_site_fract_z
S1 S 0.79840(6) 0.73972(3) 0.44674(2)
O1 O 0.7686(2) 0.62744(8) 0.48991(6)
O2 O 1.0417(2) 0.76662(9) 0.45233(7)
O3 O 0.7386(2) 0.76259(8) 0.36576(6)
C1 C 0.5710(3) 0.82138(13) 0.49512(9)
H1 H 0.5929 0.8031 0.5514
H2 H 0.4035 0.8086 0.4890
H3 H 0.5900 0.8979 0.4719
N1 N 0.5308(3) 0.27145(10) 0.22800(8)
O4 O 0.7830(2) 0.12080(9) 0.15244(7)
N2 N 0.8423(2) -0.04967(10) 0.23139(7)
H4 H 0.7852 -0.0928 0.2757
N3 N 0.6117(2) 0.51766(10) 0.40155(7)
H5 H 0.6547 0.5483 0.4357
N4 N 0.2106(2) 0.21236(10) 0.32223(8)
C2 C 1.7013(3) -0.39206(13) -0.02737(10)
H6 H 1.6258 -0.4094 -0.0694
H7 H 1.7959 -0.4591 0.0021
N5 N 1.9399(3) -0.41165(12) 0.15630(9)
C3 C 1.8104(3) -0.34984(12) 0.11594(9)
C4 C 1.6410(3) -0.27410(11) 0.06198(8)
C5 C 1.4558(3) -0.20241(11) 0.10653(8)
C6 C 1.3005(3) -0.11548(12) 0.06598(9)
H8 H 1.3317 -0.0926 0.0101
C7 C 1.1007(3) -0.06138(12) 0.10522(9)
H9 H 0.9970 -0.0021 0.0763
C8 C 1.0529(3) -0.09423(11) 0.18701(9)
C9 C 0.7198(3) 0.05248(11) 0.21262(9)
C10 C 0.5001(3) 0.07770(11) 0.26973(8)
C11 C 0.4111(3) 0.18712(11) 0.27321(8)
C12 C 0.4281(3) 0.38314(12) 0.22587(9)
H10 H 0.2440 0.3902 0.2269
H11 H 0.4935 0.4296 0.1752
C13 C 0.4852(3) 0.42562(11) 0.29238(8)
C14 C 0.3358(3) 0.51560(11) 0.31173(9)
H12 H 0.1879 0.5457 0.2871
C15 C 0.4037(3) 0.56067(12) 0.36668(9)
H13 H 0.3030 0.6223 0.3799
C16 C 0.0899(3) 0.13150(13) 0.36852(9)
H14 H -0.0531 0.1499 0.4028
C17 C 0.1597(3) 0.02414(12) 0.36943(9)
H15 H 0.0681 -0.0303 0.4032
C18 C 0.3691(3) -0.00217(12) 0.31925(9)
H16 H 0.4232 -0.0760 0.3189
C19 C 1.8010(3) -0.21852(12) -0.01322(9)
H17 H 1.7031 -0.1526 -0.0428
H18 H 1.9523 -0.1978 0.0007
C20 C 1.8743(3) -0.30336(13) -0.06298(9)
H19 H 2.0522 -0.3347 -0.0600
H20 H 1.8494 -0.2697 -0.1190
C21 C 1.5002(3) -0.34372(12) 0.02791(9)
H21 H 1.4295 -0.4014 0.0705
H22 H 1.3630 -0.2983 -0.0013
C22 C 1.4130(3) -0.23011(12) 0.18849(9)
H23 H 1.5229 -0.2863 0.2177
C23 C 1.2140(3) -0.17766(12) 0.22826(9)
H24 H 1.1870 -0.1988 0.2843
C24 C 0.6960(3) 0.38211(12) 0.33136(9)
H25 H 0.7984 0.3196 0.3202
C25 C 0.7561(3) 0.42951(13) 0.38596(9)
H26 H 0.9001 0.3998 0.4127
H27 H 0.637(4) 0.2575(15) 0.1910(12)
loop_
_geom_bond_atom_site_label_1
_geom_bond_atom_site_label_2
_geom_bond_site_symmetry_1
_geom_bond_site_symmetry_2
S1 O1 1_555 1_555
O2 S1 1_555 1_555
O3 S1 1_555 1_555
C1 S1 1_555 1_555
H1 C1 1_555 1_555
H2 C1 1_555 1_555
H3 C1 1_555 1_555
N1 C11 1_555 1_555
O4 C9 1_555 1_555
N2 H4 1_555 1_555
N3 H5 1_555 1_555
N4 C11 1_555 1_555
C2 H6 1_555 1_555
H7 C2 1_555 1_555
N5 C3 1_555 1_555
C3 C4 1_555 1_555
C4 C5 1_555 1_555
C5 C6 1_555 1_555
C6 H8 1_555 1_555
C7 C6 1_555 1_555
H9 C7 1_555 1_555
C8 N2 1_555 1_555
C9 N2 1_555 1_555
C10 C9 1_555 1_555
C11 C10 1_555 1_555
C12 N1 1_555 1_555
H10 C12 1_555 1_555
H11 C12 1_555 1_555
C13 C12 1_555 1_555
C14 C13 1_555 1_555
H12 C14 1_555 1_555
C15 N3 1_555 1_555
H13 C15 1_555 1_555
C16 N4 1_555 1_555
H14 C16 1_555 1_555
C17 C16 1_555 1_555
H15 C17 1_555 1_555
C18 C10 1_555 1_555
H16 C18 1_555 1_555
C19 C4 1_555 1_555
H17 C19 1_555 1_555
H18 C19 1_555 1_555
C20 C2 1_555 1_555
H19 C20 1_555 1_555
H20 C20 1_555 1_555
C21 C2 1_555 1_555
H21 C21 1_555 1_555
H22 C21 1_555 1_555
C22 C5 1_555 1_555
H23 C22 1_555 1_555
C23 C8 1_555 1_555
H24 C23 1_555 1_555
C24 C13 1_555 1_555
H25 C24 1_555 1_555
C25 N3 1_555 1_555
H26 C25 1_555 1_555
H27 N1 1_555 1_555
C4 C21 1_555 1_555
C7 C8 1_555 1_555
C14 C15 1_555 1_555
C17 C18 1_555 1_555
C19 C20 1_555 1_555
C22 C23 1_555 1_555
C24 C25 1_555 1_555

#END
