
#######################################################################
#
#                 Cambridge Crystallographic Data Centre
#                                CCDC 
#
#######################################################################
#
# If this CIF has been generated from an entry in the Cambridge 
# Structural Database, then it will include bibliographic, chemical, 
# crystal, experimental, refinement or atomic coordinate data resulting 
# from the CCDC's data processing and validation procedures.
#
#######################################################################

data_AXEXOS
_chemical_name_common            'Apatinib mesylate hemihydrate'
_chemical_formula_moiety         'C24 H24 N5 O1 1+,C1 H3 O3 S1 1-,0.5(H2 O1)'
_chemical_name_systematic        
'4-{[(3-{[4-(1-cyanocyclopentyl)phenyl]carbamoyl}pyridin-2-yl)amino]methyl}pyridin-1-ium methanesulfonate hemihydrate'
_chemical_properties_biological  
'Apatinib mesylate is an orally administered anticancer agent for the treatment of advanced gastric cancer.'
_symmetry_cell_setting           monoclinic
_symmetry_space_group_name_H-M   'C c'
_symmetry_Int_Tables_number      9
_space_group_name_Hall           'C -2yc'
loop_
_symmetry_equiv_pos_site_id
_symmetry_equiv_pos_as_xyz
1 x,y,z
2 x,-y,1/2+z
3 1/2+x,1/2+y,z
4 1/2+x,1/2-y,1/2+z
_cell_length_a                   8.88310(10)
_cell_length_b                   16.8392(2)
_cell_length_c                   19.2653(2)
_cell_angle_alpha                90
_cell_angle_beta                 99.0480(10)
_cell_angle_gamma                90
_cell_volume                     2845.93
_exptl_crystal_colour            white
_exptl_crystal_description       block
_cell_formula_units_Z            4
loop_
_atom_site_label
_atom_site_type_symbol
_atom_site_fract_x
_atom_site_fract_y
_atom_site_fract_z
S1 S 0.84649(13) 0.32336(9) 0.80239(7)
O1 O 0.9530(9) 0.3476(4) 0.7588(3)
O2 O 0.9170(6) 0.2801(5) 0.8630(3)
O3 O 0.7185(7) 0.2816(6) 0.7670(4)
C1 C 0.778(2) 0.4104(10) 0.8383(10)
H1 H 0.8627 0.4422 0.8595
H2 H 0.7169 0.3961 0.8733
H3 H 0.7173 0.4402 0.8017
N1 N -0.3231(5) 0.1541(3) 0.0699(3)
C2 C -0.2170(6) 0.2038(3) 0.0524(3)
O4 O 0.0104(4) 0.3185(3) 0.0242(2)
C3 C -0.1007(5) 0.2365(3) 0.1036(3)
N2 N -0.2274(5) 0.2209(3) -0.0173(3)
H4 H -0.1743 0.2594 -0.0301
C4 C -0.1072(6) 0.2203(3) 0.1731(3)
H5 H -0.0354 0.2424 0.2081
N3 N -0.7866(7) 0.2490(5) -0.1145(4)
H6 H -0.8816 0.2613 -0.1235
C5 C -0.2200(7) 0.1713(4) 0.1912(4)
H7 H -0.2259 0.1603 0.2380
N4 N 0.1511(5) 0.2949(3) 0.1304(2)
H8 H 0.1557 0.2696 0.1695
C6 C -0.3242(7) 0.1390(3) 0.1373(4)
H9 H -0.3987 0.1050 0.1491
N5 N 0.9055(8) 0.4346(4) 0.1972(4)
C7 C -0.3248(7) 0.1764(4) -0.0698(3)
H10 H -0.3262 0.1215 -0.0545
H11 H -0.2814 0.1773 -0.1129
C8 C -0.4873(6) 0.2060(3) -0.0856(3)
C9 C -0.5473(7) 0.2601(4) -0.0431(3)
H12 H -0.4855 0.2821 -0.0044
C10 C -0.5848(10) 0.1764(5) -0.1423(4)
H13 H -0.5485 0.1399 -0.1719
C11 C -0.6998(8) 0.2814(6) -0.0584(4)
H14 H -0.7411 0.3177 -0.0302
C12 C -0.7310(10) 0.1993(6) -0.1556(5)
H15 H -0.7939 0.1793 -0.1949
C13 C 0.0220(5) 0.2873(3) 0.0823(3)
C14 C 0.2775(6) 0.3416(3) 0.1202(3)
C15 C 0.2648(6) 0.4157(3) 0.0892(4)
H16 H 0.1689 0.4361 0.0718
H17 H 0.440(7) 0.262(4) 0.167(3)
C16 C 0.4224(6) 0.3120(3) 0.1460(3)
C17 C 0.3933(7) 0.4597(3) 0.0838(4)
H18 H 0.3829 0.5093 0.0624
C18 C 0.5499(6) 0.3571(3) 0.1403(3)
H19 H 0.6460 0.3369 0.1574
C19 C 0.5375(6) 0.4316(3) 0.1097(3)
C20 C 0.6804(6) 0.4792(3) 0.1006(3)
C21 C 0.6644(8) 0.5720(3) 0.1058(4)
H20 H 0.5587 0.5869 0.1053
H21 H 0.7243 0.5918 0.1488
C22 C 0.7270(7) 0.4663(3) 0.0266(3)
H22 H 0.7933 0.4205 0.0267
H23 H 0.6378 0.4587 -0.0089
C23 C 0.7222(18) 0.6047(5) 0.0431(7)
H24 H 0.6373 0.6216 0.0082
H25 H 0.7865 0.6505 0.0566
C24 C 0.8107(11) 0.5427(5) 0.0132(5)
H26 H 0.9155 0.5416 0.0369
H27 H 0.8097 0.5511 -0.0367
C25 C 0.8082(7) 0.4543(3) 0.1540(4)
O5 O 0.8612(16) 0.0156(7) 0.8441(6)
loop_
_geom_bond_atom_site_label_1
_geom_bond_atom_site_label_2
_geom_bond_site_symmetry_1
_geom_bond_site_symmetry_2
S1 O1 1_555 1_555
O2 S1 1_555 1_555
O3 S1 1_555 1_555
C1 S1 1_555 1_555
H1 C1 1_555 1_555
H2 C1 1_555 1_555
H3 C1 1_555 1_555
N1 C2 1_555 1_555
C2 C3 1_555 1_555
O4 C13 1_555 1_555
C3 C4 1_555 1_555
N2 C2 1_555 1_555
H4 N2 1_555 1_555
C4 H5 1_555 1_555
N3 H6 1_555 1_555
C5 C4 1_555 1_555
H7 C5 1_555 1_555
N4 H8 1_555 1_555
C6 N1 1_555 1_555
H9 C6 1_555 1_555
N5 C25 1_555 1_555
C7 N2 1_555 1_555
H10 C7 1_555 1_555
H11 C7 1_555 1_555
C8 C7 1_555 1_555
C9 C8 1_555 1_555
H12 C9 1_555 1_555
C10 C8 1_555 1_555
H13 C10 1_555 1_555
C11 N3 1_555 1_555
H14 C11 1_555 1_555
C12 N3 1_555 1_555
H15 C12 1_555 1_555
C13 C3 1_555 1_555
C14 N4 1_555 1_555
C15 C14 1_555 1_555
H16 C15 1_555 1_555
H17 C16 1_555 1_555
C16 C14 1_555 1_555
C17 C15 1_555 1_555
H18 C17 1_555 1_555
C18 C16 1_555 1_555
H19 C18 1_555 1_555
C19 C17 1_555 1_555
C20 C19 1_555 1_555
C21 C20 1_555 1_555
H20 C21 1_555 1_555
H21 C21 1_555 1_555
C22 C20 1_555 1_555
H22 C22 1_555 1_555
H23 C22 1_555 1_555
C23 C21 1_555 1_555
H24 C23 1_555 1_555
H25 C23 1_555 1_555
C24 C22 1_555 1_555
H26 C24 1_555 1_555
H27 C24 1_555 1_555
C25 C20 1_555 1_555
C5 C6 1_555 1_555
N4 C13 1_555 1_555
C9 C11 1_555 1_555
C10 C12 1_555 1_555
C18 C19 1_555 1_555
C23 C24 1_555 1_555

#END
