
#######################################################################
#
#                 Cambridge Crystallographic Data Centre
#                                CCDC 
#
#######################################################################
#
# If this CIF has been generated from an entry in the Cambridge 
# Structural Database, then it will include bibliographic, chemical, 
# crystal, experimental, refinement or atomic coordinate data resulting 
# from the CCDC's data processing and validation procedures.
#
#######################################################################

data_AXEXIM
_chemical_name_common            'Apatinib mesylate monohydrate'
_chemical_formula_moiety         'C24 H24 N5 O1 1+,C1 H3 O3 S1 1-,H2 O1'
_chemical_name_systematic        
'4-{[(3-{[4-(1-cyanocyclopentyl)phenyl]carbamoyl}pyridin-2-yl)amino]methyl}pyridin-1-ium methanesulfonate monohydrate'
_chemical_properties_biological  
'Apatinib mesylate is an orally administered anticancer agent for the treatment of advanced gastric cancer.'
_symmetry_cell_setting           triclinic
_symmetry_space_group_name_H-M   'P -1'
_symmetry_Int_Tables_number      2
_space_group_name_Hall           '-P 1'
loop_
_symmetry_equiv_pos_site_id
_symmetry_equiv_pos_as_xyz
1 x,y,z
2 -x,-y,-z
_cell_length_a                   8.6361(5)
_cell_length_b                   9.4346(5)
_cell_length_c                   17.0863(10)
_cell_angle_alpha                79.507(3)
_cell_angle_beta                 85.010(3)
_cell_angle_gamma                64.790(3)
_cell_volume                     1238.43
_exptl_crystal_colour            'light white'
_exptl_crystal_description       needle
_chemical_melting_point          '470 K'
_cell_formula_units_Z            2
loop_
_atom_site_label
_atom_site_type_symbol
_atom_site_fract_x
_atom_site_fract_y
_atom_site_fract_z
S1 S 0.84877(10) 0.74155(9) 0.56058(5)
O1 O 0.8371(3) 0.8002(3) 0.47651(14)
O2 O 0.6878(3) 0.7475(3) 0.59532(14)
O3 O 0.9843(3) 0.5823(2) 0.57920(13)
C1 C 0.9069(5) 0.8644(4) 0.6070(2)
H1 H 1.0126 0.8644 0.5843
H2 H 0.9209 0.8248 0.6630
H3 H 0.8188 0.9707 0.5989
O4 O -0.0117(3) 0.5709(2) 0.76752(12)
N1 N 0.1244(3) 0.4764(3) 0.88553(14)
H4 H 0.1408 0.4095 0.9289
C2 C 0.3790(4) 1.0500(3) 0.85589(19)
H5 H 0.2653 1.0657 0.8761
H6 H 0.4314 1.0861 0.8913
N2 N 0.7270(4) 0.7582(3) 0.95897(18)
N3 N -0.6844(4) 0.4727(3) 0.60643(16)
H7 H -0.7912 0.5030 0.5975
C3 C -0.5687(5) 0.3693(4) 0.5646(2)
H8 H -0.6038 0.3312 0.5262
C4 C -0.3986(4) 0.3186(3) 0.57767(18)
H9 H -0.3181 0.2474 0.5476
C5 C -0.3449(4) 0.3732(3) 0.63615(16)
C6 C -0.1562(4) 0.3128(4) 0.64967(18)
H10 H -0.1076 0.1978 0.6616
H11 H -0.1031 0.3418 0.6008
N4 N -0.1137(3) 0.3723(3) 0.71338(14)
H12 H -0.0830 0.4492 0.7011
C7 C -0.1199(3) 0.3132(3) 0.79039(17)
C8 C -0.0617(3) 0.3642(3) 0.85200(17)
C9 C 0.0158(4) 0.4795(3) 0.83097(17)
C10 C 0.2113(4) 0.5760(3) 0.87529(16)
C11 C 0.3778(4) 0.5130(3) 0.90096(17)
H13 H 0.4312 0.4063 0.9230
C12 C 0.4666(4) 0.6080(3) 0.89412(17)
H14 H 0.5787 0.5636 0.9119
C13 C 0.3914(3) 0.7675(3) 0.86132(16)
C14 C 0.3694(5) 1.1413(4) 0.7715(2)
C15 C 0.6237(4) 0.8062(3) 0.91119(18)
C16 C -0.6403(4) 0.5310(4) 0.6617(2)
H15 H -0.7242 0.6046 0.6896
C17 C -0.4689(4) 0.4815(4) 0.67768(18)
H16 H -0.4376 0.5214 0.7165
N5 N -0.1808(3) 0.2014(3) 0.80765(15)
C18 C -0.1918(4) 0.1414(4) 0.8845(2)
H17 H -0.2329 0.0633 0.8961
C19 C -0.1457(4) 0.1886(4) 0.94728(19)
H18 H -0.1594 0.1464 0.9996
C20 C -0.0795(4) 0.2990(3) 0.93029(17)
H19 H -0.0458 0.3312 0.9717
C21 C 0.1339(4) 0.7356(3) 0.84162(17)
H20 H 0.0220 0.7792 0.8237
C22 C 0.2220(4) 0.8287(3) 0.83484(17)
H21 H 0.1684 0.9350 0.8121
C23 C 0.4900(4) 0.8711(3) 0.85038(17)
C24 C 0.5736(4) 0.8743(4) 0.76569(19)
C25 C 0.5512(11) 1.0393(9) 0.7384(5)
O5 O 0.3230(3) 0.8693(3) 0.57783(19)
H22 H 0.2742 0.9700 0.5723
H23 H 0.4301 0.8380 0.5830
C26? C 0.4633(14) 1.0200(11) 0.7174(5)
loop_
_geom_bond_atom_site_label_1
_geom_bond_atom_site_label_2
_geom_bond_site_symmetry_1
_geom_bond_site_symmetry_2
S1 O1 1_555 1_555
O2 S1 1_555 1_555
O3 S1 1_555 1_555
C1 S1 1_555 1_555
H1 C1 1_555 1_555
H2 C1 1_555 1_555
H3 C1 1_555 1_555
O4 C9 1_555 1_555
N1 H4 1_555 1_555
C2 H5 1_555 1_555
H6 C2 1_555 1_555
N2 C15 1_555 1_555
N3 H7 1_555 1_555
C3 N3 1_555 1_555
H8 C3 1_555 1_555
C4 C3 1_555 1_555
H9 C4 1_555 1_555
C5 C4 1_555 1_555
C6 C5 1_555 1_555
H10 C6 1_555 1_555
H11 C6 1_555 1_555
N4 C6 1_555 1_555
H12 N4 1_555 1_555
C7 N4 1_555 1_555
C8 C7 1_555 1_555
C9 N1 1_555 1_555
C10 N1 1_555 1_555
C11 C10 1_555 1_555
H13 C11 1_555 1_555
C12 C11 1_555 1_555
H14 C12 1_555 1_555
C13 C12 1_555 1_555
C14 C2 1_555 1_555
C15 C23 1_555 1_555
C16 N3 1_555 1_555
H15 C16 1_555 1_555
C17 C5 1_555 1_555
H16 C17 1_555 1_555
N5 C7 1_555 1_555
C18 N5 1_555 1_555
H17 C18 1_555 1_555
C19 C18 1_555 1_555
H18 C19 1_555 1_555
C20 C8 1_555 1_555
H19 C20 1_555 1_555
C21 C10 1_555 1_555
H20 C21 1_555 1_555
C22 C13 1_555 1_555
H21 C22 1_555 1_555
C23 C2 1_555 1_555
C24 C23 1_555 1_555
C25 C14 1_555 1_555
O5 H22 1_555 1_555
H23 O5 1_555 1_555
C8 C9 1_555 1_555
C13 C23 1_555 1_555
C16 C17 1_555 1_555
C19 C20 1_555 1_555
C21 C22 1_555 1_555
C24 C25 1_555 1_555

#END
