
#######################################################################
#
#                 Cambridge Crystallographic Data Centre
#                                CCDC 
#
#######################################################################
#
# If this CIF has been generated from an entry in the Cambridge 
# Structural Database, then it will include bibliographic, chemical, 
# crystal, experimental, refinement or atomic coordinate data resulting 
# from the CCDC's data processing and validation procedures.
#
#######################################################################

data_AXICAM
_chemical_formula_moiety         'C23 H33 N1 O6'
_chemical_name_systematic        
'Methyl 8-hydroxy-3-methyl-9-oxo-15-(3-oxopentyl)-13-oxa-3-azapentacyclo[9.4.2.0^1,12^.0^5,15^.0^8,12^]heptadecane-17-carboxylate'
_symmetry_cell_setting           orthorhombic
_symmetry_space_group_name_H-M   'P 21 21 21'
_symmetry_Int_Tables_number      19
_space_group_name_Hall           'P 2ac 2ab'
loop_
_symmetry_equiv_pos_site_id
_symmetry_equiv_pos_as_xyz
1 x,y,z
2 1/2-x,-y,1/2+z
3 1/2+x,1/2-y,-z
4 -x,1/2+y,1/2-z
_cell_length_a                   8.145(6)
_cell_length_b                   14.890(7)
_cell_length_c                   18.096(8)
_cell_angle_alpha                90
_cell_angle_beta                 90
_cell_angle_gamma                90
_cell_volume                     2194.67
_exptl_crystal_colour            colorless
_exptl_crystal_description       block
_chemical_melting_point          '415-417 K'
_cell_formula_units_Z            4
_chemical_properties_physical    Heat-sensitive
_exptl_crystal_recrystallization_method methanol
loop_
_atom_site_label
_atom_site_type_symbol
_atom_site_fract_x
_atom_site_fract_y
_atom_site_fract_z
N1 N -0.2399(2) 0.02663(11) -0.83079(7)
O1 O -0.35157(15) -0.09366(7) -0.62325(6)
O2 O -0.3147(2) -0.20707(14) -0.86696(9)
O3 O -0.47782(17) -0.21502(9) -0.71220(9)
H1 H -0.5457 -0.1946 -0.6833
O4 O 0.26948(18) -0.17883(13) -0.60450(9)
O5 O 0.03201(18) -0.19126(13) -0.54719(8)
O6 O -0.1301(2) 0.31784(11) -0.60937(11)
C1 C -0.1103(2) 0.00574(10) -0.77982(8)
H2 H -0.0369 0.0569 -0.7764
H3 H -0.0477 -0.0446 -0.7990
C2 C -0.2457(2) 0.28781(12) -0.57602(10)
C3 C -0.3127(3) 0.19571(12) -0.59121(11)
H4 H -0.4221 0.2017 -0.6119
H5 H -0.3228 0.1638 -0.5447
C4 C -0.2089(2) 0.13953(10) -0.64381(9)
H6 H -0.1070 0.1240 -0.6192
H7 H -0.1815 0.1759 -0.6866
C5 C -0.29207(19) 0.05253(9) -0.67058(8)
C6 C -0.4245(2) 0.07495(11) -0.72981(9)
H8 H -0.4790 0.1298 -0.7126
C7 C -0.3429(3) 0.09934(13) -0.80328(10)
H9 H -0.4270 0.1129 -0.8395
H10 H -0.2764 0.1528 -0.7967
C8 C -0.17229(17) -0.01769(9) -0.70267(8)
C9 C -0.26842(18) -0.10629(9) -0.69249(8)
C10 C -0.3950(2) -0.14232(11) -0.74910(10)
C11 C -0.5184(2) -0.07938(14) -0.78463(13)
H11 H -0.6187 -0.1128 -0.7937
H12 H -0.4755 -0.0609 -0.8323
C12 C -0.5620(2) 0.00497(14) -0.74068(12)
H13 H -0.6002 -0.0136 -0.6923
H14 H -0.6532 0.0343 -0.7653
C13 C -0.02095(19) -0.03619(10) -0.65350(9)
H15 H 0.0688 0.0037 -0.6664
H16 H -0.0478 -0.0278 -0.6017
C14 C 0.0257(2) -0.13484(10) -0.66905(9)
H17 H 0.0944 -0.1367 -0.7135
C15 C -0.1388(2) -0.18213(10) -0.68625(9)
H18 H -0.1679 -0.2231 -0.6459
C16 C -0.1436(2) -0.23215(12) -0.76060(11)
H19 H -0.0424 -0.2223 -0.7877
H20 H -0.1567 -0.2962 -0.7526
C17 C -0.2876(2) -0.19534(12) -0.80309(10)
C18 C -0.3348(3) 0.34186(14) -0.51900(12)
H21 H -0.3198 0.3139 -0.4711
H22 H -0.4513 0.3411 -0.5302
C19 C -0.2767(4) 0.43905(18) -0.51484(18)
H23 H -0.3296 0.4686 -0.4741
H24 H -0.3041 0.4694 -0.5600
H25 H -0.1599 0.4404 -0.5078
C20 C -0.3614(2) -0.00004(10) -0.60528(8)
H26 H -0.2983 0.0125 -0.5610
H27 H -0.4746 0.0170 -0.5964
C21 C 0.1239(2) -0.17093(11) -0.60493(10)
C22 C 0.1152(3) -0.2220(2) -0.48183(13)
H28 H 0.0358 -0.2364 -0.4445
H29 H 0.1867 -0.1756 -0.4640
H30 H 0.1786 -0.2745 -0.4934
C23 C -0.1768(5) 0.0462(2) -0.90360(12)
H31 H -0.1201 -0.0055 -0.9224
H32 H -0.1021 0.0959 -0.9008
H33 H -0.2661 0.0610 -0.9360
loop_
_geom_bond_atom_site_label_1
_geom_bond_atom_site_label_2
_geom_bond_site_symmetry_1
_geom_bond_site_symmetry_2
N1 C1 1_555 1_555
O1 C9 1_555 1_555
O2 C17 1_555 1_555
O3 H1 1_555 1_555
O4 C21 1_555 1_555
O5 C21 1_555 1_555
O6 C2 1_555 1_555
C1 H2 1_555 1_555
H3 C1 1_555 1_555
C2 C3 1_555 1_555
C3 H4 1_555 1_555
H5 C3 1_555 1_555
C4 C3 1_555 1_555
H6 C4 1_555 1_555
H7 C4 1_555 1_555
C5 C4 1_555 1_555
C6 C5 1_555 1_555
H8 C6 1_555 1_555
C7 N1 1_555 1_555
H9 C7 1_555 1_555
H10 C7 1_555 1_555
C8 C1 1_555 1_555
C9 C8 1_555 1_555
C10 O3 1_555 1_555
C11 C10 1_555 1_555
H11 C11 1_555 1_555
H12 C11 1_555 1_555
C12 C6 1_555 1_555
H13 C12 1_555 1_555
H14 C12 1_555 1_555
C13 C8 1_555 1_555
H15 C13 1_555 1_555
H16 C13 1_555 1_555
C14 C13 1_555 1_555
H17 C14 1_555 1_555
C15 C9 1_555 1_555
H18 C15 1_555 1_555
C16 C15 1_555 1_555
H19 C16 1_555 1_555
H20 C16 1_555 1_555
C17 C10 1_555 1_555
C18 C2 1_555 1_555
H21 C18 1_555 1_555
H22 C18 1_555 1_555
C19 C18 1_555 1_555
H23 C19 1_555 1_555
H24 C19 1_555 1_555
H25 C19 1_555 1_555
C20 O1 1_555 1_555
H26 C20 1_555 1_555
H27 C20 1_555 1_555
C21 C14 1_555 1_555
C22 O5 1_555 1_555
H28 C22 1_555 1_555
H29 C22 1_555 1_555
H30 C22 1_555 1_555
C23 N1 1_555 1_555
H31 C23 1_555 1_555
H32 C23 1_555 1_555
H33 C23 1_555 1_555
C5 C8 1_555 1_555
C5 C20 1_555 1_555
C6 C7 1_555 1_555
C9 C10 1_555 1_555
C11 C12 1_555 1_555
C14 C15 1_555 1_555
C16 C17 1_555 1_555

#END
