
#######################################################################
#
#                 Cambridge Crystallographic Data Centre
#                                CCDC 
#
#######################################################################
#
# If this CIF has been generated from an entry in the Cambridge 
# Structural Database, then it will include bibliographic, chemical, 
# crystal, experimental, refinement or atomic coordinate data resulting 
# from the CCDC's data processing and validation procedures.
#
#######################################################################

data_AXICUF
_chemical_formula_moiety         'C22 H14 Se2'
_chemical_name_systematic        2,6-Diphenylbenzo(1,2-b:4,5-b')diselenophene
_symmetry_cell_setting           monoclinic
_symmetry_space_group_name_H-M   'P 21/n'
_symmetry_Int_Tables_number      14
_space_group_name_Hall           '-P 2yn'
loop_
_symmetry_equiv_pos_site_id
_symmetry_equiv_pos_as_xyz
1 x,y,z
2 1/2+x,1/2-y,1/2+z
3 -x,-y,-z
4 1/2-x,1/2+y,1/2-z
_cell_length_a                   36.836(5)
_cell_length_b                   7.619(1)
_cell_length_c                   5.8860(8)
_cell_angle_alpha                90
_cell_angle_beta                 92.92(1)
_cell_angle_gamma                90
_cell_volume                     1649.78
_exptl_crystal_colour            colorless
_exptl_crystal_description       plate
_chemical_melting_point          'above 300 deg.C'
_cell_formula_units_Z            4
_exptl_crystal_recrystallization_method benzonitrile
loop_
_atom_site_label
_atom_site_type_symbol
_atom_site_fract_x
_atom_site_fract_y
_atom_site_fract_z
Se1 Se 0.66335(3) 0.1559(2) 0.7931(2)
Se2 Se 0.80308(3) 0.3521(2) 0.2141(2)
C1 C 0.6369(3) 0.262(1) 0.538(2)
C2 C 0.6589(3) 0.323(1) 0.384(2)
C3 C 0.6982(3) 0.299(1) 0.439(1)
C4 C 0.7055(3) 0.212(1) 0.651(2)
C5 C 0.8301(3) 0.245(1) 0.461(2)
C6 C 0.8074(3) 0.175(1) 0.626(2)
C7 C 0.7699(3) 0.212(1) 0.577(2)
C8 C 0.7614(3) 0.301(1) 0.372(2)
C9 C 0.7405(3) 0.168(1) 0.729(1)
C10 C 0.7254(3) 0.344(2) 0.301(2)
C11 C 0.5966(3) 0.259(1) 0.534(2)
C12 C 0.5765(3) 0.339(2) 0.356(2)
C13 C 0.5401(4) 0.330(2) 0.346(2)
C14 C 0.5211(3) 0.252(2) 0.504(2)
C15 C 0.5401(3) 0.164(2) 0.683(2)
C16 C 0.5773(3) 0.170(2) 0.691(2)
C17 C 0.8695(3) 0.242(1) 0.463(2)
C18 C 0.8905(3) 0.152(2) 0.637(2)
C19 C 0.9271(4) 0.158(2) 0.638(2)
C20 C 0.9460(3) 0.248(2) 0.478(2)
C21 C 0.9257(3) 0.331(2) 0.307(2)
C22 C 0.8883(4) 0.333(2) 0.298(2)
H1 H 0.6496 0.3777 0.2471
H2 H 0.8166 0.1075 0.7566
H3 H 0.7459 0.1188 0.8746
H4 H 0.7206 0.3999 0.1510
H5 H 0.5890 0.3848 0.2327
H6 H 0.5264 0.3900 0.2199
H7 H 0.4944 0.2524 0.4918
H8 H 0.5274 0.1097 0.7975
H9 H 0.5904 0.1134 0.8157
H10 H 0.8787 0.0719 0.7440
H11 H 0.9395 0.1215 0.7723
H12 H 0.9728 0.2444 0.4783
H13 H 0.9385 0.3984 0.1881
H14 H 0.8737 0.4037 0.1790
loop_
_geom_bond_atom_site_label_1
_geom_bond_atom_site_label_2
_geom_bond_site_symmetry_1
_geom_bond_site_symmetry_2
Se1 C1 1_555 1_555
Se2 C5 1_555 1_555
C1 C2 1_555 1_555
C2 C3 1_555 1_555
C3 C4 1_555 1_555
C4 Se1 1_555 1_555
C5 C6 1_555 1_555
C6 C7 1_555 1_555
C7 C8 1_555 1_555
C8 Se2 1_555 1_555
C9 C4 1_555 1_555
C10 C3 1_555 1_555
C11 C1 1_555 1_555
C12 C11 1_555 1_555
C13 C12 1_555 1_555
C14 C13 1_555 1_555
C15 C14 1_555 1_555
C16 C11 1_555 1_555
C17 C5 1_555 1_555
C18 C17 1_555 1_555
C19 C18 1_555 1_555
C20 C19 1_555 1_555
C21 C20 1_555 1_555
C22 C17 1_555 1_555
H1 C2 1_555 1_555
H2 C6 1_555 1_555
H3 C9 1_555 1_555
H4 C10 1_555 1_555
H5 C12 1_555 1_555
H6 C13 1_555 1_555
H7 C14 1_555 1_555
H8 C15 1_555 1_555
H9 C16 1_555 1_555
H10 C18 1_555 1_555
H11 C19 1_555 1_555
H12 C20 1_555 1_555
H13 C21 1_555 1_555
H14 C22 1_555 1_555
C7 C9 1_555 1_555
C8 C10 1_555 1_555
C15 C16 1_555 1_555
C21 C22 1_555 1_555

#END
