
#######################################################################
#
#                 Cambridge Crystallographic Data Centre
#                                CCDC 
#
#######################################################################
#
# If this CIF has been generated from an entry in the Cambridge 
# Structural Database, then it will include bibliographic, chemical, 
# crystal, experimental, refinement or atomic coordinate data resulting 
# from the CCDC's data processing and validation procedures.
#
#######################################################################

data_AXIJOI
_chemical_formula_moiety         'C30 H22 F9 N1 O2 S1'
_chemical_name_systematic        
2-(2-((2-anilino-3,3,3-trifluoro-1,2-diphenylpropyl)sulfinyl)phenyl)-1,1,1,3,3,3-hexafluoropropan-2-ol
_symmetry_cell_setting           orthorhombic
_symmetry_space_group_name_H-M   'P 21 21 21'
_symmetry_Int_Tables_number      19
_space_group_name_Hall           'P 2ac 2ab'
loop_
_symmetry_equiv_pos_site_id
_symmetry_equiv_pos_as_xyz
1 x,y,z
2 1/2-x,-y,1/2+z
3 1/2+x,1/2-y,-z
4 -x,1/2+y,1/2-z
_cell_length_a                   17.092(5)
_cell_length_b                   17.579(6)
_cell_length_c                   9.006(3)
_cell_angle_alpha                90
_cell_angle_beta                 90
_cell_angle_gamma                90
_cell_volume                     2705.95
_exptl_crystal_colour            colorless
_exptl_crystal_description       Block
_cell_formula_units_Z            4
loop_
_atom_site_label
_atom_site_type_symbol
_atom_site_fract_x
_atom_site_fract_y
_atom_site_fract_z
C1 C 0.72009(8) 0.24395(7) 0.66817(14)
C2 C 0.73152(7) 0.31956(7) 0.71953(14)
C3 C 0.67334(8) 0.34916(8) 0.81191(16)
H1 H 0.6794 0.3994 0.8489
C4 C 0.60710(8) 0.30838(9) 0.85200(16)
H2 H 0.5684 0.3313 0.9131
C5 C 0.59720(8) 0.23449(9) 0.80324(16)
H3 H 0.5522 0.2061 0.8307
C6 C 0.65432(8) 0.20261(8) 0.71339(15)
H4 H 0.6487 0.1514 0.6817
C7 C 0.80249(8) 0.37019(7) 0.68150(14)
O1 O 0.85119(6) 0.34287(5) 0.56931(11)
H5 H 0.8652 0.2983 0.5897
C8 C 0.85465(8) 0.38308(7) 0.82064(16)
F1 F 0.91012(6) 0.43529(5) 0.79389(11)
F2 F 0.89128(5) 0.31820(5) 0.85451(9)
F3 F 0.81550(5) 0.40550(5) 0.94104(10)
C9 C 0.77399(9) 0.44838(8) 0.62033(15)
F4 F 0.83149(6) 0.48532(5) 0.55042(11)
F5 F 0.71606(6) 0.43844(5) 0.52316(9)
F6 F 0.74778(6) 0.49489(5) 0.72704(10)
S1 S 0.782696(18) 0.183349(17) 0.55877(3)
O2 O 0.86661(6) 0.19980(5) 0.60487(11)
C10 C 0.77408(7) 0.22341(7) 0.36739(13)
H6 H 0.8086 0.2693 0.3638
C11 C 0.69173(7) 0.25053(7) 0.33566(14)
C12 C 0.62636(8) 0.20398(8) 0.35532(15)
H7 H 0.6331 0.1530 0.3879
C13 C 0.55138(8) 0.23168(9) 0.32759(16)
H8 H 0.5072 0.1998 0.3429
C14 C 0.54108(8) 0.30584(9) 0.27760(17)
H9 H 0.4901 0.3245 0.2570
C15 C 0.60598(9) 0.35256(9) 0.25802(17)
H10 H 0.5992 0.4034 0.2246
C16 C 0.68068(8) 0.32516(8) 0.28717(15)
H11 H 0.7246 0.3575 0.2740
C17 C 0.80995(7) 0.16328(7) 0.25377(14)
N1 N 0.87731(7) 0.12846(7) 0.32542(13)
H12 H 0.9010(11) 0.1574(11) 0.381(2)
C18 C 0.92645(7) 0.07037(7) 0.27072(15)
C19 C 0.91111(8) 0.02497(8) 0.14699(16)
H13 H 0.8653 0.0333 0.0896
C20 C 0.96322(9) -0.03270(8) 0.10772(18)
H14 H 0.9529 -0.0624 0.0219
C21 C 1.02956(9) -0.04767(8) 0.19068(19)
H15 H 1.0640 -0.0878 0.1640
C22 C 1.04463(8) -0.00253(9) 0.31403(18)
H16 H 1.0898 -0.0121 0.3725
C23 C 0.99466(8) 0.05636(8) 0.35301(16)
H17 H 1.0067 0.0875 0.4362
C24 C 0.83941(8) 0.21174(8) 0.12094(15)
F7 F 0.89888(5) 0.25699(5) 0.16367(10)
F8 F 0.86644(5) 0.16904(5) 0.00901(9)
F9 F 0.78445(5) 0.25770(4) 0.06377(9)
C25 C 0.74881(7) 0.10395(7) 0.20906(14)
C26 C 0.74007(8) 0.03957(7) 0.29895(15)
H18 H 0.7748 0.0316 0.3799
C27 C 0.68089(9) -0.01300(8) 0.27076(16)
H19 H 0.6760 -0.0569 0.3316
C28 C 0.62914(8) -0.00158(8) 0.15432(16)
H20 H 0.5881 -0.0369 0.1366
C29 C 0.63751(8) 0.06172(8) 0.06377(16)
H21 H 0.6025 0.0694 -0.0167
C30 C 0.69725(8) 0.11410(7) 0.09059(15)
H22 H 0.7029 0.1571 0.0275
loop_
_geom_bond_atom_site_label_1
_geom_bond_atom_site_label_2
_geom_bond_site_symmetry_1
_geom_bond_site_symmetry_2
C1 C2 1_555 1_555
C2 C3 1_555 1_555
C3 H1 1_555 1_555
C4 C3 1_555 1_555
H2 C4 1_555 1_555
C5 C4 1_555 1_555
H3 C5 1_555 1_555
C6 C1 1_555 1_555
H4 C6 1_555 1_555
C7 C2 1_555 1_555
O1 C7 1_555 1_555
H5 O1 1_555 1_555
C8 C7 1_555 1_555
F1 C8 1_555 1_555
F2 C8 1_555 1_555
F3 C8 1_555 1_555
C9 C7 1_555 1_555
F4 C9 1_555 1_555
F5 C9 1_555 1_555
F6 C9 1_555 1_555
S1 C1 1_555 1_555
O2 S1 1_555 1_555
C10 S1 1_555 1_555
H6 C10 1_555 1_555
C11 C10 1_555 1_555
C12 C11 1_555 1_555
H7 C12 1_555 1_555
C13 C12 1_555 1_555
H8 C13 1_555 1_555
C14 C13 1_555 1_555
H9 C14 1_555 1_555
C15 C14 1_555 1_555
H10 C15 1_555 1_555
C16 C11 1_555 1_555
H11 C16 1_555 1_555
C17 C10 1_555 1_555
N1 C17 1_555 1_555
H12 N1 1_555 1_555
C18 N1 1_555 1_555
C19 C18 1_555 1_555
H13 C19 1_555 1_555
C20 C19 1_555 1_555
H14 C20 1_555 1_555
C21 C20 1_555 1_555
H15 C21 1_555 1_555
C22 C21 1_555 1_555
H16 C22 1_555 1_555
C23 C18 1_555 1_555
H17 C23 1_555 1_555
C24 C17 1_555 1_555
F7 C24 1_555 1_555
F8 C24 1_555 1_555
F9 C24 1_555 1_555
C25 C17 1_555 1_555
C26 C25 1_555 1_555
H18 C26 1_555 1_555
C27 C26 1_555 1_555
H19 C27 1_555 1_555
C28 C27 1_555 1_555
H20 C28 1_555 1_555
C29 C28 1_555 1_555
H21 C29 1_555 1_555
C30 C25 1_555 1_555
H22 C30 1_555 1_555
C5 C6 1_555 1_555
C15 C16 1_555 1_555
C22 C23 1_555 1_555
C29 C30 1_555 1_555

#END
