
#######################################################################
#
#                 Cambridge Crystallographic Data Centre
#                                CCDC 
#
#######################################################################
#
# If this CIF has been generated from an entry in the Cambridge 
# Structural Database, then it will include bibliographic, chemical, 
# crystal, experimental, refinement or atomic coordinate data resulting 
# from the CCDC's data processing and validation procedures.
#
#######################################################################

data_AXILID
_chemical_formula_moiety         'C9 H7 Br1 N2 O4'
_chemical_name_systematic        
5-Bromo-3-hydroxy-3-(nitromethyl)-1,3-dihydro-2H-indol-2-one
_symmetry_cell_setting           monoclinic
_symmetry_space_group_name_H-M   'P 21'
_symmetry_Int_Tables_number      4
_space_group_name_Hall           'P 2yb'
loop_
_symmetry_equiv_pos_site_id
_symmetry_equiv_pos_as_xyz
1 x,y,z
2 -x,1/2+y,-z
_cell_length_a                   7.437(15)
_cell_length_b                   6.480(13)
_cell_length_c                   10.87(2)
_cell_angle_alpha                90
_cell_angle_beta                 90.185(17)
_cell_angle_gamma                90
_cell_volume                     523.842
_exptl_crystal_colour            colorless
_exptl_crystal_description       block
_cell_formula_units_Z            2
loop_
_atom_site_label
_atom_site_type_symbol
_atom_site_fract_x
_atom_site_fract_y
_atom_site_fract_z
Br1 Br 0.36442(9) 0.67559(11) 0.67691(5)
C1 C 0.2098(8) 0.6023(9) 0.3166(5)
C2 C 0.2800(7) 0.6830(16) 0.4235(4)
H1 H 0.3268 0.8160 0.4262
C3 C 0.2783(9) 0.5585(12) 0.5267(6)
C4 C 0.2135(10) 0.3604(12) 0.5241(7)
H2 H 0.2174 0.2801 0.5950
C5 C 0.1419(10) 0.2787(11) 0.4164(6)
H3 H 0.0961 0.1452 0.4142
C6 C 0.1406(8) 0.4017(10) 0.3123(6)
C7 C 0.0974(10) 0.5194(11) 0.1162(6)
C8 C 0.1835(8) 0.7006(13) 0.1925(5)
C9 C 0.3486(10) 0.7839(12) 0.1304(7)
H4 H 0.3183 0.8237 0.0468
H5 H 0.3889 0.9065 0.1737
N1 N 0.0743(9) 0.3590(9) 0.1941(5)
H6 H 0.0247 0.2441 0.1735
N2 N 0.4988(9) 0.6294(14) 0.1275(5)
O1 O 0.0571(7) 0.8633(7) 0.2003(4)
H7 H 0.0074 0.8785 0.1334
O2 O 0.0540(7) 0.5372(8) 0.0087(4)
O3 O 0.4603(8) 0.4483(12) 0.1103(6)
O4 O 0.6534(8) 0.689(2) 0.1417(8)
loop_
_geom_bond_atom_site_label_1
_geom_bond_atom_site_label_2
_geom_bond_site_symmetry_1
_geom_bond_site_symmetry_2
Br1 C3 1_555 1_555
C1 C2 1_555 1_555
C2 H1 1_555 1_555
C3 C2 1_555 1_555
C4 C3 1_555 1_555
H2 C4 1_555 1_555
C5 C4 1_555 1_555
H3 C5 1_555 1_555
C6 C1 1_555 1_555
C7 C8 1_555 1_555
C8 C1 1_555 1_555
C9 C8 1_555 1_555
H4 C9 1_555 1_555
H5 C9 1_555 1_555
N1 C6 1_555 1_555
H6 N1 1_555 1_555
N2 C9 1_555 1_555
O1 C8 1_555 1_555
H7 O1 1_555 1_555
O2 C7 1_555 1_555
O3 N2 1_555 1_555
O4 N2 1_555 1_555
C5 C6 1_555 1_555
C7 N1 1_555 1_555

#END
