
#######################################################################
#
#                 Cambridge Crystallographic Data Centre
#                                CCDC 
#
#######################################################################
#
# If this CIF has been generated from an entry in the Cambridge 
# Structural Database, then it will include bibliographic, chemical, 
# crystal, experimental, refinement or atomic coordinate data resulting 
# from the CCDC's data processing and validation procedures.
#
#######################################################################

data_AXIMOK
_chemical_formula_moiety         'C15 H14 Br1 N1 O3'
_chemical_name_systematic        
8-Bromo-1,2,4,4a-tetrahydro-9bH-spiro[dibenzo[b,d]furan-3,2'-[1,3]dioxolane]-9b-carbonitrile
_symmetry_cell_setting           orthorhombic
_symmetry_space_group_name_H-M   'P 21 21 21'
_symmetry_Int_Tables_number      19
_space_group_name_Hall           'P 2ac 2ab'
loop_
_symmetry_equiv_pos_site_id
_symmetry_equiv_pos_as_xyz
1 x,y,z
2 1/2-x,-y,1/2+z
3 -x,1/2+y,1/2-z
4 1/2+x,1/2-y,-z
_cell_length_a                   6.271(3)
_cell_length_b                   9.685(4)
_cell_length_c                   23.106(9)
_cell_angle_alpha                90
_cell_angle_beta                 90
_cell_angle_gamma                90
_cell_volume                     1403.33
_exptl_crystal_colour            colorless
_exptl_crystal_description       block
_cell_formula_units_Z            4
loop_
_atom_site_label
_atom_site_type_symbol
_atom_site_fract_x
_atom_site_fract_y
_atom_site_fract_z
Br1 Br -0.03836(9) 1.43780(6) 0.27356(3)
C1 C 0.2716(7) 1.1435(5) 0.3707(2)
C2 C 0.1214(7) 1.2362(5) 0.3524(2)
H1 H 0.0033 1.2575 0.3751
C3 C 0.1525(8) 1.2970(5) 0.2986(2)
C4 C 0.3243(8) 1.2631(5) 0.2641(2)
H2 H 0.3401 1.3050 0.2281
C5 C 0.4732(8) 1.1673(5) 0.2825(2)
H3 H 0.5883 1.1426 0.2593
C6 C 0.4443(8) 1.1099(5) 0.3365(2)
C7 C 0.5125(7) 0.9947(5) 0.4208(2)
H4 H 0.6079 1.0491 0.4455
C8 C 0.2798(6) 1.0547(5) 0.42498(18)
C9 C 0.1080(6) 0.9412(5) 0.4245(2)
H5 H 0.0890 0.9052 0.4633
H6 H -0.0268 0.9800 0.4118
C10 C 0.1734(7) 0.8254(5) 0.3842(2)
H7 H 0.0565 0.7604 0.3804
H8 H 0.2036 0.8630 0.3461
C11 C 0.3682(8) 0.7511(5) 0.4066(2)
C12 C 0.5234(7) 0.8458(5) 0.4384(2)
H9 H 0.4956 0.8394 0.4796
H10 H 0.6673 0.8126 0.4317
C13 C 0.4932(9) 0.5395(5) 0.3762(3)
H11 H 0.6309 0.5233 0.3941
H12 H 0.4783 0.4794 0.3429
C14 C 0.3148(9) 0.5175(5) 0.4187(2)
H13 H 0.1805 0.5002 0.3992
H14 H 0.3454 0.4417 0.4449
C15 C 0.2612(7) 1.1368(5) 0.4788(2)
N1 N 0.2516(7) 1.1966(5) 0.5212(2)
O1 O 0.4688(6) 0.6807(3) 0.36031(13)
O2 O 0.5756(5) 1.0115(3) 0.36036(14)
O3 O 0.3129(5) 0.6458(3) 0.44802(13)
loop_
_geom_bond_atom_site_label_1
_geom_bond_atom_site_label_2
_geom_bond_site_symmetry_1
_geom_bond_site_symmetry_2
Br1 C3 1_555 1_555
C1 C2 1_555 1_555
C2 H1 1_555 1_555
C3 C2 1_555 1_555
C4 C3 1_555 1_555
H2 C4 1_555 1_555
C5 C4 1_555 1_555
H3 C5 1_555 1_555
C6 C1 1_555 1_555
C7 H4 1_555 1_555
C8 C1 1_555 1_555
C9 C8 1_555 1_555
H5 C9 1_555 1_555
H6 C9 1_555 1_555
C10 C9 1_555 1_555
H7 C10 1_555 1_555
H8 C10 1_555 1_555
C11 C10 1_555 1_555
C12 C7 1_555 1_555
H9 C12 1_555 1_555
H10 C12 1_555 1_555
C13 H11 1_555 1_555
H12 C13 1_555 1_555
C14 C13 1_555 1_555
H13 C14 1_555 1_555
H14 C14 1_555 1_555
C15 C8 1_555 1_555
N1 C15 1_555 1_555
O1 C11 1_555 1_555
O2 C6 1_555 1_555
O3 C11 1_555 1_555
C5 C6 1_555 1_555
C7 C8 1_555 1_555
C7 O2 1_555 1_555
C11 C12 1_555 1_555
C13 O1 1_555 1_555
C14 O3 1_555 1_555

#END
