
#######################################################################
#
#                 Cambridge Crystallographic Data Centre
#                                CCDC 
#
#######################################################################
#
# If this CIF has been generated from an entry in the Cambridge 
# Structural Database, then it will include bibliographic, chemical, 
# crystal, experimental, refinement or atomic coordinate data resulting 
# from the CCDC's data processing and validation procedures.
#
#######################################################################

data_AXISEG
_chemical_formula_moiety         'C15 H18 N1 O8 P1'
_chemical_name_systematic        
'Diisopropyl 6-nitro-2-oxo-2H-chromen-7-yl phosphate'
_symmetry_cell_setting           triclinic
_symmetry_space_group_name_H-M   'P -1'
_symmetry_Int_Tables_number      2
_space_group_name_Hall           '-P 1'
loop_
_symmetry_equiv_pos_site_id
_symmetry_equiv_pos_as_xyz
1 x,y,z
2 -x,-y,-z
_cell_length_a                   7.9673(16)
_cell_length_b                   8.5550(17)
_cell_length_c                   13.771(3)
_cell_angle_alpha                76.10(3)
_cell_angle_beta                 87.97(3)
_cell_angle_gamma                72.19(3)
_cell_volume                     866.747
_exptl_crystal_colour            colorless
_exptl_crystal_description       prismatic
_cell_formula_units_Z            2
loop_
_atom_site_label
_atom_site_type_symbol
_atom_site_fract_x
_atom_site_fract_y
_atom_site_fract_z
P1 P 0.04326(9) 0.57181(8) 0.78151(5)
O1 O 0.3344(3) 0.0092(2) 1.09122(14)
O2 O 0.5285(3) -0.1764(3) 1.20542(16)
O3 O 0.0189(4) 0.1192(3) 0.66596(18)
O4 O -0.1927(3) 0.3085(3) 0.71553(18)
O5 O 0.1848(2) 0.5944(2) 0.83630(14)
O6 O -0.0486(2) 0.4396(2) 0.84373(13)
O7 O -0.1166(2) 0.7345(2) 0.75418(14)
O8 O 0.0964(2) 0.5014(2) 0.68720(13)
N1 N -0.0501(4) 0.1972(3) 0.72827(19)
C1 C 0.4414(4) -0.1545(3) 1.1313(2)
C2 C 0.4359(4) -0.2828(4) 1.0795(2)
H1 H 0.5018 -0.3949 1.1057
C3 C 0.3383(4) -0.2430(3) 0.9952(2)
H2 H 0.3365 -0.3275 0.9639
C4 C 0.1388(4) -0.0173(3) 0.86145(19)
H3 H 0.1370 -0.0958 0.8253
C5 C 0.0466(3) 0.1494(3) 0.82530(19)
C6 C 0.0468(3) 0.2705(3) 0.87856(18)
C7 C 0.1423(3) 0.2204(3) 0.96817(19)
H4 H 0.1431 0.2990 1.0044
C8 C 0.2364(3) 0.0525(3) 1.00325(18)
C9 C 0.2357(3) -0.0706(3) 0.95228(19)
C10 C -0.2720(4) 0.7503(4) 0.6920(2)
H5 H -0.2438 0.6583 0.6575
C11 C -0.4211(5) 0.7387(5) 0.7605(3)
H6 H -0.3894 0.6297 0.8068
H7 H -0.5249 0.7536 0.7216
H8 H -0.4441 0.8253 0.7968
C12 C -0.3095(6) 0.9166(5) 0.6169(3)
H9 H -0.2100 0.9164 0.5755
H10 H -0.3309 1.0059 0.6510
H11 H -0.4117 0.9341 0.5759
C13 C 0.2498(4) 0.5245(4) 0.6281(2)
H12 H 0.3528 0.4936 0.6736
C14 C 0.2102(5) 0.7058(4) 0.5727(3)
H13 H 0.1918 0.7755 0.6197
H14 H 0.1057 0.7384 0.5306
H15 H 0.3076 0.7198 0.5322
C15 C 0.2817(5) 0.4008(5) 0.5629(3)
H16 H 0.3060 0.2881 0.6043
H17 H 0.3806 0.4084 0.5222
H18 H 0.1787 0.4269 0.5206
loop_
_geom_bond_atom_site_label_1
_geom_bond_atom_site_label_2
_geom_bond_site_symmetry_1
_geom_bond_site_symmetry_2
P1 O5 1_555 1_555
O1 C1 1_555 1_555
O2 C1 1_555 1_555
O3 N1 1_555 1_555
O4 N1 1_555 1_555
O6 P1 1_555 1_555
O7 P1 1_555 1_555
O8 P1 1_555 1_555
N1 C5 1_555 1_555
C1 C2 1_555 1_555
C2 H1 1_555 1_555
C3 C2 1_555 1_555
H2 C3 1_555 1_555
C4 H3 1_555 1_555
C5 C4 1_555 1_555
C6 O6 1_555 1_555
C7 C6 1_555 1_555
H4 C7 1_555 1_555
C8 O1 1_555 1_555
C9 C3 1_555 1_555
C10 O7 1_555 1_555
H5 C10 1_555 1_555
C11 C10 1_555 1_555
H6 C11 1_555 1_555
H7 C11 1_555 1_555
H8 C11 1_555 1_555
C12 C10 1_555 1_555
H9 C12 1_555 1_555
H10 C12 1_555 1_555
H11 C12 1_555 1_555
C13 O8 1_555 1_555
H12 C13 1_555 1_555
C14 C13 1_555 1_555
H13 C14 1_555 1_555
H14 C14 1_555 1_555
H15 C14 1_555 1_555
C15 C13 1_555 1_555
H16 C15 1_555 1_555
H17 C15 1_555 1_555
H18 C15 1_555 1_555
C4 C9 1_555 1_555
C5 C6 1_555 1_555
C7 C8 1_555 1_555
C8 C9 1_555 1_555

#END
