
#######################################################################
#
#                 Cambridge Crystallographic Data Centre
#                                CCDC 
#
#######################################################################
#
# If this CIF has been generated from an entry in the Cambridge 
# Structural Database, then it will include bibliographic, chemical, 
# crystal, experimental, refinement or atomic coordinate data resulting 
# from the CCDC's data processing and validation procedures.
#
#######################################################################

data_AXIYOW
_chemical_formula_moiety         'C21 H13 Br1 O1 S1'
_chemical_name_systematic        
5-Bromo-3-phenyl-2-(phenylsulfanyl)-1H-inden-1-one
_symmetry_cell_setting           monoclinic
_symmetry_space_group_name_H-M   'P 21/n'
_symmetry_Int_Tables_number      14
_space_group_name_Hall           '-P 2yn'
loop_
_symmetry_equiv_pos_site_id
_symmetry_equiv_pos_as_xyz
1 x,y,z
2 1/2-x,1/2+y,1/2-z
3 -x,-y,-z
4 1/2+x,1/2-y,1/2+z
_cell_length_a                   10.242(2)
_cell_length_b                   10.457(3)
_cell_length_c                   16.296(4)
_cell_angle_alpha                90
_cell_angle_beta                 104.422(8)
_cell_angle_gamma                90
_cell_volume                     1690.31
_exptl_crystal_colour            red
_exptl_crystal_description       block
_cell_formula_units_Z            4
loop_
_atom_site_label
_atom_site_type_symbol
_atom_site_fract_x
_atom_site_fract_y
_atom_site_fract_z
Br1 Br 0.29704(4) 0.85155(3) 0.66605(3)
S1 S -0.01268(9) 0.14128(8) 0.54537(6)
O1 O -0.1928(2) 0.3682(2) 0.59361(17)
C1 C -0.0945(3) 0.0714(3) 0.6184(2)
C2 C -0.0535(4) 0.0913(4) 0.7055(2)
H1 H 0.0161 0.1495 0.7281
C3 C -0.1155(5) 0.0252(5) 0.7581(3)
H2 H -0.0885 0.0394 0.8169
C4 C -0.2172(4) -0.0622(4) 0.7261(3)
H3 H -0.2575 -0.1083 0.7628
C5 C -0.2579(4) -0.0805(3) 0.6406(3)
H4 H -0.3278 -0.1385 0.6185
C6 C -0.1982(3) -0.0152(3) 0.5859(2)
H5 H -0.2271 -0.0290 0.5272
C7 C 0.0284(3) 0.2950(3) 0.5848(2)
C8 C 0.1466(3) 0.3567(3) 0.5900(2)
C9 C 0.1302(3) 0.4935(3) 0.6119(2)
C10 C -0.0011(3) 0.5119(3) 0.6207(2)
C11 C -0.0741(3) 0.3886(3) 0.6005(2)
C12 C 0.2208(4) 0.5932(3) 0.6263(2)
H6 H 0.3094 0.5825 0.6210
C13 C 0.1757(4) 0.7108(3) 0.6492(2)
C14 C 0.0476(4) 0.7301(3) 0.6592(2)
H7 H 0.0217 0.8106 0.6754
C15 C -0.0429(4) 0.6285(3) 0.6450(2)
H8 H -0.1308 0.6389 0.6517
C16 C 0.2757(3) 0.3058(3) 0.5794(2)
C17 C 0.3306(3) 0.1956(3) 0.6224(2)
H9 H 0.2828 0.1513 0.6559
C18 C 0.4548(4) 0.1509(3) 0.6162(3)
H10 H 0.4916 0.0769 0.6460
C19 C 0.5249(4) 0.2146(4) 0.5664(3)
H11 H 0.6094 0.1842 0.5623
C20 C 0.4707(4) 0.3229(4) 0.5228(3)
H12 H 0.5182 0.3659 0.4887
C21 C 0.3474(3) 0.3686(3) 0.5289(2)
H13 H 0.3113 0.4425 0.4989
loop_
_geom_bond_atom_site_label_1
_geom_bond_atom_site_label_2
_geom_bond_site_symmetry_1
_geom_bond_site_symmetry_2
Br1 C13 1_555 1_555
S1 C1 1_555 1_555
O1 C11 1_555 1_555
C1 C2 1_555 1_555
C2 H1 1_555 1_555
C3 C2 1_555 1_555
H2 C3 1_555 1_555
C4 C3 1_555 1_555
H3 C4 1_555 1_555
C5 C4 1_555 1_555
H4 C5 1_555 1_555
C6 C1 1_555 1_555
H5 C6 1_555 1_555
C7 S1 1_555 1_555
C8 C7 1_555 1_555
C9 C8 1_555 1_555
C10 C9 1_555 1_555
C11 C7 1_555 1_555
C12 C9 1_555 1_555
H6 C12 1_555 1_555
C13 C12 1_555 1_555
C14 C13 1_555 1_555
H7 C14 1_555 1_555
C15 C10 1_555 1_555
H8 C15 1_555 1_555
C16 C8 1_555 1_555
C17 C16 1_555 1_555
H9 C17 1_555 1_555
C18 C17 1_555 1_555
H10 C18 1_555 1_555
C19 C18 1_555 1_555
H11 C19 1_555 1_555
C20 C19 1_555 1_555
H12 C20 1_555 1_555
C21 C16 1_555 1_555
H13 C21 1_555 1_555
C5 C6 1_555 1_555
C10 C11 1_555 1_555
C14 C15 1_555 1_555
C20 C21 1_555 1_555

#END
