
#######################################################################
#
#                 Cambridge Crystallographic Data Centre
#                                CCDC 
#
#######################################################################
#
# If this CIF has been generated from an entry in the Cambridge 
# Structural Database, then it will include bibliographic, chemical, 
# crystal, experimental, refinement or atomic coordinate data resulting 
# from the CCDC's data processing and validation procedures.
#
#######################################################################

data_AXOLIJ
_chemical_formula_moiety         'C22 H23 Cl1 O5'
_chemical_name_systematic        
'Diethyl (1-chloro-3-oxo-1,3-diphenylpropan-2-yl)malonate'
_symmetry_cell_setting           triclinic
_symmetry_space_group_name_H-M   'P -1'
_symmetry_Int_Tables_number      2
_space_group_name_Hall           '-P 1'
loop_
_symmetry_equiv_pos_site_id
_symmetry_equiv_pos_as_xyz
1 x,y,z
2 -x,-y,-z
_cell_length_a                   9.2997(11)
_cell_length_b                   11.2333(14)
_cell_length_c                   11.4700(14)
_cell_angle_alpha                109.9200(10)
_cell_angle_beta                 101.435(2)
_cell_angle_gamma                102.394(2)
_cell_volume                     1051.13
_cell_formula_units_Z            2
loop_
_atom_site_label
_atom_site_type_symbol
_atom_site_fract_x
_atom_site_fract_y
_atom_site_fract_z
Cl1 Cl 0.18289(9) 0.94122(8) 0.35518(7)
C1 C 0.1377(2) 0.7958(2) 0.0561(2)
H1 H 0.1633 0.8928 0.0976
C2 C 0.2246(2) 0.7483(2) 0.1501(2)
H2 H 0.2072 0.6528 0.1045
O1 O 0.4420(2) 0.93518(19) 0.2031(2)
C3 C 0.5112(3) 0.7504(2) 0.2204(2)
O2 O -0.1064(2) 0.8252(2) 0.0250(2)
C4 C 0.2391(3) 0.7148(3) 0.3620(2)
O3 O 0.1227(2) 0.8092(2) -0.14476(18)
C5 C 0.1662(3) 0.7690(2) 0.2707(2)
H3 H 0.0559 0.7201 0.2384
C6 C 0.1867(3) 0.7600(3) -0.0669(3)
C7 C 0.3982(3) 0.8191(3) 0.1908(2)
O4 O -0.0991(2) 0.6192(2) -0.0154(2)
C8 C -0.0356(3) 0.7353(3) 0.0179(2)
O5 O 0.2733(3) 0.6977(2) -0.0892(2)
C9 C 0.6560(3) 0.8293(3) 0.3033(2)
H4 H 0.6784 0.9213 0.3385
C10 C 0.4802(3) 0.6148(3) 0.1685(3)
H5 H 0.3827 0.5607 0.1134
C11 C 0.7356(3) 0.6376(4) 0.2816(3)
H6 H 0.8110 0.5996 0.3028
C12 C 0.3687(3) 0.7899(3) 0.4673(3)
H7 H 0.4116 0.8793 0.4851
C13 C 0.7671(3) 0.7726(4) 0.3342(3)
H8 H 0.8638 0.8263 0.3910
C14 C 0.5934(3) 0.5582(3) 0.1977(3)
H9 H 0.5728 0.4664 0.1605
C15 C 0.1764(4) 0.5827(3) 0.3377(3)
H10 H 0.0891 0.5300 0.2678
C16 C 0.4351(4) 0.7363(4) 0.5456(3)
H11 H 0.5230 0.7884 0.6151
C17 C 0.1657(4) 0.7889(4) -0.2636(3)
H12 H 0.1518 0.6953 -0.3110
H13 H 0.2729 0.8384 -0.2438
C18 C 0.0653(4) 0.8362(4) -0.3411(3)
H14 H -0.0399 0.7835 -0.3636
H15 H 0.0936 0.8286 -0.4188
H16 H 0.0765 0.9277 -0.2915
C19 C 0.3720(5) 0.6067(5) 0.5213(4)
H17 H 0.4158 0.5700 0.5753
C20 C -0.2744(3) 0.7777(4) -0.0190(4)
H18 H -0.3077 0.6813 -0.0535
H19 H -0.3120 0.8093 0.0553
C21 C 0.2437(5) 0.5290(4) 0.4174(4)
H20 H 0.2020 0.4398 0.4007
C22 C -0.3348(5) 0.8134(6) -0.1039(6)
H21 H -0.3096 0.9085 -0.0686
H22 H -0.4447 0.7744 -0.1310
H23 H -0.2964 0.7846 -0.1772
loop_
_geom_bond_atom_site_label_1
_geom_bond_atom_site_label_2
_geom_bond_site_symmetry_1
_geom_bond_site_symmetry_2
Cl1 C5 1_555 1_555
C1 H1 1_555 1_555
C2 C1 1_555 1_555
H2 C2 1_555 1_555
O1 C7 1_555 1_555
C3 C7 1_555 1_555
O2 C8 1_555 1_555
C4 C5 1_555 1_555
O3 C6 1_555 1_555
C5 C2 1_555 1_555
H3 C5 1_555 1_555
C6 C1 1_555 1_555
C7 C2 1_555 1_555
O4 C8 1_555 1_555
C8 C1 1_555 1_555
O5 C6 1_555 1_555
C9 C3 1_555 1_555
H4 C9 1_555 1_555
C10 C3 1_555 1_555
H5 C10 1_555 1_555
C11 H6 1_555 1_555
C12 C4 1_555 1_555
H7 C12 1_555 1_555
C13 C9 1_555 1_555
H8 C13 1_555 1_555
C14 C10 1_555 1_555
H9 C14 1_555 1_555
C15 C4 1_555 1_555
H10 C15 1_555 1_555
C16 C12 1_555 1_555
H11 C16 1_555 1_555
C17 O3 1_555 1_555
H12 C17 1_555 1_555
H13 C17 1_555 1_555
C18 C17 1_555 1_555
H14 C18 1_555 1_555
H15 C18 1_555 1_555
H16 C18 1_555 1_555
C19 C16 1_555 1_555
H17 C19 1_555 1_555
C20 O2 1_555 1_555
H18 C20 1_555 1_555
H19 C20 1_555 1_555
C21 C15 1_555 1_555
H20 C21 1_555 1_555
C22 C20 1_555 1_555
H21 C22 1_555 1_555
H22 C22 1_555 1_555
H23 C22 1_555 1_555
C11 C13 1_555 1_555
C11 C14 1_555 1_555
C19 C21 1_555 1_555

#END
