
#######################################################################
#
#                 Cambridge Crystallographic Data Centre
#                                CCDC 
#
#######################################################################
#
# If this CIF has been generated from an entry in the Cambridge 
# Structural Database, then it will include bibliographic, chemical, 
# crystal, experimental, refinement or atomic coordinate data resulting 
# from the CCDC's data processing and validation procedures.
#
#######################################################################

data_AXOLEF
_chemical_formula_moiety         'C29 H28 O6'
_chemical_name_systematic        
'Diethyl 4-benzoyl-2,5-diphenyldihydrofuran-3,3(2H)-dicarboxylate'
_symmetry_cell_setting           triclinic
_symmetry_space_group_name_H-M   'P -1'
_symmetry_Int_Tables_number      2
_space_group_name_Hall           '-P 1'
loop_
_symmetry_equiv_pos_site_id
_symmetry_equiv_pos_as_xyz
1 x,y,z
2 -x,-y,-z
_cell_length_a                   9.752(3)
_cell_length_b                   11.530(3)
_cell_length_c                   13.417(6)
_cell_angle_alpha                106.912(4)
_cell_angle_beta                 101.977(4)
_cell_angle_gamma                110.918(3)
_cell_volume                     1263.76
_cell_formula_units_Z            2
loop_
_atom_site_label
_atom_site_type_symbol
_atom_site_fract_x
_atom_site_fract_y
_atom_site_fract_z
O1 O 0.15509(13) 1.06330(11) 0.38956(8)
O2 O 0.35708(13) 0.77287(11) 0.24276(9)
O3 O -0.06826(13) 0.77330(11) 0.22544(9)
O4 O 0.20566(16) 0.93991(13) 0.48048(9)
O5 O 0.04455(14) 0.81541(13) 0.10258(9)
C1 C 0.05321(18) 0.82358(15) 0.19493(12)
C2 C 0.34432(17) 0.97721(15) 0.26583(11)
H1 H 0.3047 0.9672 0.1890
C3 C 0.18904(17) 0.96377(16) 0.39913(11)
C4 C 0.25740(18) 0.77562(16) 0.30658(12)
H2 H 0.3203 0.8076 0.3848
O6 O 0.51373(16) 1.16444(13) 0.43507(10)
C5 C 0.20735(17) 0.88755(15) 0.29249(10)
C6 C 0.42547(18) 1.12711(16) 0.34153(12)
C7 C 0.39608(18) 1.22613(16) 0.30144(13)
C8 C 0.55396(19) 0.92894(18) 0.19974(12)
C9 C 0.45816(18) 0.91223(17) 0.27383(12)
H3 H 0.5284 0.9509 0.3511
C10 C 0.2678(2) 1.18670(18) 0.20896(13)
H4 H 0.2006 1.0952 0.1676
C11 C 0.1294(2) 0.63584(16) 0.27160(13)
C12 C 0.0638(2) 0.54285(18) 0.16212(15)
H5 H 0.1004 0.5661 0.1086
C13 C 0.7104(2) 1.01402(19) 0.24490(15)
H6 H 0.7581 1.0581 0.3217
C14 C 0.2397(3) 1.2830(2) 0.17806(18)
H7 H 0.1538 1.2563 0.1161
C15 C 0.0764(3) 0.5981(2) 0.35024(17)
H8 H 0.1221 0.6582 0.4245
C16 C 0.1659(3) 1.16096(18) 0.49236(16)
H9 H 0.2695 1.2005 0.5476
H10 H 0.0895 1.1164 0.5218
C17 C 0.7325(3) 0.9715(2) 0.06623(17)
H11 H 0.7923 0.9869 0.0215
C18 C 0.4938(2) 1.3628(2) 0.36219(19)
H12 H 0.5798 1.3908 0.4245
C19 C 0.7993(3) 1.0358(2) 0.17811(17)
H13 H 0.9056 1.0951 0.2104
C20 C -0.2208(2) 0.6924(2) 0.13605(19)
H14 H -0.2528 0.7508 0.1080
H15 H -0.2136 0.6269 0.0754
C21 C 0.1350(3) 1.2675(2) 0.46664(19)
H16 H 0.2088 1.3088 0.4352
H17 H 0.1455 1.3349 0.5336
H18 H 0.0306 1.2279 0.4144
C22 C 0.4864(2) 0.8613(3) 0.08576(15)
H19 H 0.3806 0.8006 0.0532
C23 C 0.3387(3) 1.4178(2) 0.2391(2)
H20 H 0.3204 1.4825 0.2180
C24 C -0.0551(3) 0.4163(2) 0.1322(2)
H21 H -0.0980 0.3544 0.0586
C25 C -0.0445(3) 0.4711(2) 0.3193(2)
H22 H -0.0811 0.4468 0.3724
C26 C 0.5773(3) 0.8842(3) 0.01950(17)
H23 H 0.5314 0.8393 -0.0574
C27 C 0.4642(3) 1.4576(2) 0.3308(2)
H24 H 0.5301 1.5494 0.3723
C28 C -0.1105(3) 0.3809(2) 0.2097(2)
H25 H -0.1927 0.2960 0.1886
C29 C -0.3327(3) 0.6243(4) 0.1774(3)
H26 H -0.3026 0.5642 0.2025
H27 H -0.4336 0.5732 0.1194
H28 H -0.3379 0.6895 0.2383
loop_
_geom_bond_atom_site_label_1
_geom_bond_atom_site_label_2
_geom_bond_site_symmetry_1
_geom_bond_site_symmetry_2
O1 C3 1_555 1_555
O2 C4 1_555 1_555
O3 C1 1_555 1_555
O4 C3 1_555 1_555
O5 C1 1_555 1_555
C1 C5 1_555 1_555
C2 H1 1_555 1_555
C3 C5 1_555 1_555
C4 H2 1_555 1_555
O6 C6 1_555 1_555
C5 C2 1_555 1_555
C6 C2 1_555 1_555
C7 C6 1_555 1_555
C8 C9 1_555 1_555
C9 O2 1_555 1_555
H3 C9 1_555 1_555
C10 C7 1_555 1_555
H4 C10 1_555 1_555
C11 C4 1_555 1_555
C12 C11 1_555 1_555
H5 C12 1_555 1_555
C13 C8 1_555 1_555
H6 C13 1_555 1_555
C14 C10 1_555 1_555
H7 C14 1_555 1_555
C15 C11 1_555 1_555
H8 C15 1_555 1_555
C16 O1 1_555 1_555
H9 C16 1_555 1_555
H10 C16 1_555 1_555
C17 H11 1_555 1_555
C18 C7 1_555 1_555
H12 C18 1_555 1_555
C19 C13 1_555 1_555
H13 C19 1_555 1_555
C20 O3 1_555 1_555
H14 C20 1_555 1_555
H15 C20 1_555 1_555
C21 C16 1_555 1_555
H16 C21 1_555 1_555
H17 C21 1_555 1_555
H18 C21 1_555 1_555
C22 C8 1_555 1_555
H19 C22 1_555 1_555
C23 C14 1_555 1_555
H20 C23 1_555 1_555
C24 C12 1_555 1_555
H21 C24 1_555 1_555
C25 C15 1_555 1_555
H22 C25 1_555 1_555
C26 C17 1_555 1_555
H23 C26 1_555 1_555
C27 C18 1_555 1_555
H24 C27 1_555 1_555
C28 C24 1_555 1_555
H25 C28 1_555 1_555
C29 C20 1_555 1_555
H26 C29 1_555 1_555
H27 C29 1_555 1_555
H28 C29 1_555 1_555
C2 C9 1_555 1_555
C4 C5 1_555 1_555
C17 C19 1_555 1_555
C22 C26 1_555 1_555
C23 C27 1_555 1_555
C25 C28 1_555 1_555

#END
