
#######################################################################
#
#                 Cambridge Crystallographic Data Centre
#                                CCDC 
#
#######################################################################
#
# If this CIF has been generated from an entry in the Cambridge 
# Structural Database, then it will include bibliographic, chemical, 
# crystal, experimental, refinement or atomic coordinate data resulting 
# from the CCDC's data processing and validation procedures.
#
#######################################################################

data_AXOLUV
_chemical_formula_moiety         'C30 H30 O7'
_chemical_name_systematic        
'Diethyl 4-benzoyl-2-(4-methoxyphenyl)-5-phenyldihydrofuran-3,3(2H)-dicarboxylate'
_symmetry_cell_setting           monoclinic
_symmetry_space_group_name_H-M   'C c'
_symmetry_Int_Tables_number      9
_space_group_name_Hall           'C -2yc'
loop_
_symmetry_equiv_pos_site_id
_symmetry_equiv_pos_as_xyz
1 x,y,z
2 x,-y,1/2+z
3 1/2+x,1/2+y,z
4 1/2+x,1/2-y,1/2+z
_cell_length_a                   25.425(8)
_cell_length_b                   8.233(3)
_cell_length_c                   16.032(5)
_cell_angle_alpha                90
_cell_angle_beta                 128.514(3)
_cell_angle_gamma                90
_cell_volume                     2625.83
_cell_formula_units_Z            4
loop_
_atom_site_label
_atom_site_type_symbol
_atom_site_fract_x
_atom_site_fract_y
_atom_site_fract_z
C1 C 0.34802(13) 0.8959(3) 0.8784(2)
C2 C 0.33959(16) 0.9683(3) 0.9472(2)
H1 H 0.2967 0.9773 0.9275
C3 C 0.41283(15) 0.8839(4) 0.9105(2)
H2 H 0.4196 0.8351 0.8656
C4 C 0.46739(17) 0.9434(4) 1.0082(3)
H3 H 0.5105 0.9353 1.0288
C5 C 0.39403(19) 1.0274(4) 1.0446(3)
H4 H 0.3878 1.0762 1.0902
C6 C 0.45708(19) 1.0144(4) 1.0741(3)
H5 H 0.4936 1.0543 1.1401
C7 C 0.19694(14) 0.6295(3) 0.7692(2)
C8 C 0.19937(18) 0.6496(4) 0.8570(3)
H6 H 0.1830 0.7439 0.8653
C9 C 0.22088(16) 0.4882(4) 0.7586(3)
H7 H 0.2193 0.4738 0.6995
C10 C 0.24741(19) 0.3666(4) 0.8345(3)
H8 H 0.2631 0.2710 0.8259
C11 C 0.25052(19) 0.3873(5) 0.9222(3)
H9 H 0.2688 0.3065 0.9739
C12 C 0.2268(2) 0.5261(6) 0.9331(3)
H10 H 0.2289 0.5396 0.9927
C13 C 0.09382(13) 0.8378(3) 0.4185(2)
C14 C 0.09854(15) 0.8687(4) 0.3388(2)
H11 H 0.1405 0.8656 0.3547
C15 C 0.03052(14) 0.8370(3) 0.3911(2)
H12 H 0.0258 0.8146 0.4430
C16 C -0.02607(15) 0.8689(4) 0.2879(2)
H13 H -0.0684 0.8649 0.2706
C17 C -0.01978(16) 0.9068(4) 0.2105(2)
C18 C 0.04260(17) 0.9041(4) 0.2360(3)
H14 H 0.0473 0.9262 0.1840
O1 O -0.07811(13) 0.9429(3) 0.11251(18)
C19 C -0.0742(3) 1.0050(7) 0.0349(3)
H15 H -0.0527 1.1094 0.0573
H16 H -0.1187 1.0160 -0.0315
H17 H -0.0486 0.9322 0.0260
O2 O 0.14243(10) 0.7046(2) 0.58615(15)
C20 C 0.15616(14) 0.8096(3) 0.5310(2)
H18 H 0.1895 0.7563 0.5282
C21 C 0.16982(14) 0.7654(3) 0.6892(2)
H19 H 0.1332 0.8173 0.6841
C22 C 0.29170(13) 0.8369(3) 0.7701(2)
O3 O 0.30184(10) 0.7432(3) 0.72274(16)
C23 C 0.22051(12) 0.8994(3) 0.7146(2)
H20 H 0.2209 0.9851 0.7574
C24 C 0.18915(13) 0.9643(3) 0.6017(2)
C25 C 0.13621(14) 1.0936(3) 0.5701(2)
C26 C 0.24156(13) 1.0364(3) 0.5946(2)
O4 O 0.12746(10) 1.1958(2) 0.49903(15)
O5 O 0.10579(12) 1.0964(3) 0.6038(2)
O6 O 0.27914(10) 1.1437(3) 0.67309(15)
O7 O 0.24925(11) 1.0002(3) 0.53076(17)
C27 C 0.3371(2) 1.2074(6) 0.6848(3)
H21 H 0.3647 1.1189 0.6915
H22 H 0.3222 1.2715 0.6228
C28 C 0.3751(2) 1.3072(6) 0.7793(5)
H23 H 0.3518 1.4077 0.7654
H24 H 0.4186 1.3290 0.7990
H25 H 0.3802 1.2512 0.8365
C29 C 0.07491(19) 1.3186(4) 0.4593(3)
H26 H 0.0390 1.2743 0.4577
H27 H 0.0934 1.4124 0.5061
C30 C 0.0487(3) 1.3669(6) 0.3523(4)
H28 H 0.0842 1.4135 0.3546
H29 H 0.0136 1.4457 0.3251
H30 H 0.0310 1.2734 0.3065
loop_
_geom_bond_atom_site_label_1
_geom_bond_atom_site_label_2
_geom_bond_site_symmetry_1
_geom_bond_site_symmetry_2
C1 C2 1_555 1_555
C2 H1 1_555 1_555
C3 C1 1_555 1_555
H2 C3 1_555 1_555
C4 C3 1_555 1_555
H3 C4 1_555 1_555
C5 C2 1_555 1_555
H4 C5 1_555 1_555
C6 C4 1_555 1_555
H5 C6 1_555 1_555
C7 C8 1_555 1_555
C8 H6 1_555 1_555
C9 C7 1_555 1_555
H7 C9 1_555 1_555
C10 C9 1_555 1_555
H8 C10 1_555 1_555
C11 C10 1_555 1_555
H9 C11 1_555 1_555
C12 C8 1_555 1_555
H10 C12 1_555 1_555
C13 C14 1_555 1_555
C14 H11 1_555 1_555
C15 C13 1_555 1_555
H12 C15 1_555 1_555
C16 C15 1_555 1_555
H13 C16 1_555 1_555
C17 C16 1_555 1_555
C18 C14 1_555 1_555
H14 C18 1_555 1_555
O1 C17 1_555 1_555
C19 O1 1_555 1_555
H15 C19 1_555 1_555
H16 C19 1_555 1_555
H17 C19 1_555 1_555
O2 C20 1_555 1_555
C20 C13 1_555 1_555
H18 C20 1_555 1_555
C21 C7 1_555 1_555
H19 C21 1_555 1_555
C22 C1 1_555 1_555
O3 C22 1_555 1_555
C23 C21 1_555 1_555
H20 C23 1_555 1_555
C24 C20 1_555 1_555
C25 C24 1_555 1_555
C26 C24 1_555 1_555
O4 C25 1_555 1_555
O5 C25 1_555 1_555
O6 C26 1_555 1_555
O7 C26 1_555 1_555
C27 O6 1_555 1_555
H21 C27 1_555 1_555
H22 C27 1_555 1_555
C28 C27 1_555 1_555
H23 C28 1_555 1_555
H24 C28 1_555 1_555
H25 C28 1_555 1_555
C29 O4 1_555 1_555
H26 C29 1_555 1_555
H27 C29 1_555 1_555
C30 C29 1_555 1_555
H28 C30 1_555 1_555
H29 C30 1_555 1_555
H30 C30 1_555 1_555
C5 C6 1_555 1_555
C11 C12 1_555 1_555
C17 C18 1_555 1_555
O2 C21 1_555 1_555
C22 C23 1_555 1_555
C23 C24 1_555 1_555

#END
