
#######################################################################
#
#                 Cambridge Crystallographic Data Centre
#                                CCDC 
#
#######################################################################
#
# If this CIF has been generated from an entry in the Cambridge 
# Structural Database, then it will include bibliographic, chemical, 
# crystal, experimental, refinement or atomic coordinate data resulting 
# from the CCDC's data processing and validation procedures.
#
#######################################################################

data_AXOLOP
_chemical_formula_moiety         'C29 H26 Cl2 O6'
_chemical_name_systematic        
'Diethyl 4-benzoyl-2-(2,4-dichlorophenyl)-5-phenyldihydrofuran-3,3(2H)-dicarboxylate'
_symmetry_cell_setting           triclinic
_symmetry_space_group_name_H-M   'P -1'
_symmetry_Int_Tables_number      2
_space_group_name_Hall           '-P 1'
loop_
_symmetry_equiv_pos_site_id
_symmetry_equiv_pos_as_xyz
1 x,y,z
2 -x,-y,-z
_cell_length_a                   8.565(4)
_cell_length_b                   10.946(5)
_cell_length_c                   14.765(7)
_cell_angle_alpha                77.125(6)
_cell_angle_beta                 89.991(6)
_cell_angle_gamma                83.694(5)
_cell_volume                     1340.87
_cell_formula_units_Z            2
loop_
_atom_site_label
_atom_site_type_symbol
_atom_site_fract_x
_atom_site_fract_y
_atom_site_fract_z
Cl1 Cl 0.47990(14) 0.82150(11) 0.37875(8)
Cl2 Cl 0.10379(15) 1.07592(12) 0.09324(8)
O1 O 0.2783(3) 0.4933(2) 0.33722(17)
O2 O 0.7652(3) 0.5936(3) 0.34238(18)
O3 O 0.3642(3) 0.4219(3) 0.15677(18)
O4 O 0.7140(3) 0.4679(3) 0.17492(17)
O5 O 0.5804(4) 0.6620(3) 0.1508(2)
O6 O 0.7005(4) 0.4187(3) 0.4381(2)
C1 C 0.5485(4) 0.5034(3) 0.2944(2)
C2 C 0.3962(4) 0.5793(4) 0.3264(2)
H1 H 0.4198 0.5935 0.3879
C3 C 0.6811(4) 0.4970(4) 0.3673(3)
C4 C 0.3557(4) 0.8173(4) 0.2850(2)
C5 C 0.5224(4) 0.2272(4) 0.1806(3)
C6 C 0.6117(5) 0.5586(4) 0.1975(3)
C7 C 0.2889(4) 0.9321(4) 0.2321(3)
H2 H 0.3111 1.0074 0.2458
C8 C 0.1888(5) 0.9324(4) 0.1589(3)
C9 C 0.3282(4) 0.7029(4) 0.2667(2)
C10 C 0.2447(5) 0.2721(4) 0.3675(3)
C11 C 0.4542(5) 0.3441(4) 0.2089(3)
C12 C 0.1573(5) 0.8205(4) 0.1383(3)
H3 H 0.0897 0.8211 0.0889
C13 C 0.5019(4) 0.3686(4) 0.3033(2)
H4 H 0.5869 0.3052 0.3334
C14 C 0.2785(5) 0.1523(4) 0.4191(3)
H5 H 0.3722 0.1304 0.4536
C15 C 0.3566(4) 0.3696(4) 0.3674(3)
H6 H 0.3953 0.3602 0.4313
C16 C 0.6147(5) 0.1282(4) 0.2389(3)
H7 H 0.6319 0.1308 0.3006
C17 C 0.4984(5) 0.2188(4) 0.0892(3)
H8 H 0.4344 0.2826 0.0496
C18 C 0.6813(5) 0.0257(4) 0.2059(4)
H9 H 0.7417 -0.0406 0.2455
C19 C 0.2272(5) 0.7075(4) 0.1916(3)
H10 H 0.2063 0.6324 0.1771
C20 C 0.6574(6) 0.0224(5) 0.1132(4)
H11 H 0.7033 -0.0454 0.0904
C21 C 0.8915(5) 0.6009(5) 0.4082(3)
H12 H 0.9801 0.5393 0.4040
H13 H 0.8539 0.5824 0.4713
C22 C 0.1748(7) 0.0615(5) 0.4212(3)
H14 H 0.1990 -0.0200 0.4568
C23 C 0.7727(6) 0.4968(5) 0.0807(3)
H15 H 0.8341 0.5676 0.0729
H16 H 0.6853 0.5196 0.0362
C24 C 0.1038(5) 0.3036(4) 0.3150(3)
H17 H 0.0801 0.3845 0.2783
C25 C -0.0005(6) 0.2145(6) 0.3175(4)
H18 H -0.0949 0.2365 0.2837
C26 C 0.5665(6) 0.1189(5) 0.0561(4)
H19 H 0.5507 0.1168 -0.0058
C27 C 0.9411(5) 0.7294(5) 0.3854(3)
H20 H 0.9710 0.7495 0.3216
H21 H 1.0289 0.7329 0.4248
H22 H 0.8555 0.7892 0.3950
C28 C 0.8708(7) 0.3856(5) 0.0641(4)
H23 H 0.9650 0.3710 0.1020
H24 H 0.8978 0.3998 -0.0002
H25 H 0.8137 0.3133 0.0797
C29 C 0.0349(7) 0.0948(6) 0.3693(4)
H26 H -0.0348 0.0352 0.3699
loop_
_geom_bond_atom_site_label_1
_geom_bond_atom_site_label_2
_geom_bond_site_symmetry_1
_geom_bond_site_symmetry_2
Cl1 C4 1_555 1_555
Cl2 C8 1_555 1_555
O1 C2 1_555 1_555
O2 C3 1_555 1_555
O3 C11 1_555 1_555
O4 C6 1_555 1_555
O5 C6 1_555 1_555
O6 C3 1_555 1_555
C1 C2 1_555 1_555
C2 H1 1_555 1_555
C3 C1 1_555 1_555
C4 C7 1_555 1_555
C5 C11 1_555 1_555
C6 C1 1_555 1_555
C7 H2 1_555 1_555
C8 C7 1_555 1_555
C9 C2 1_555 1_555
C10 C14 1_555 1_555
C11 C13 1_555 1_555
C12 C8 1_555 1_555
H3 C12 1_555 1_555
C13 C1 1_555 1_555
H4 C13 1_555 1_555
C14 H5 1_555 1_555
C15 O1 1_555 1_555
H6 C15 1_555 1_555
C16 C5 1_555 1_555
H7 C16 1_555 1_555
C17 C5 1_555 1_555
H8 C17 1_555 1_555
C18 C16 1_555 1_555
H9 C18 1_555 1_555
C19 C9 1_555 1_555
H10 C19 1_555 1_555
C20 C18 1_555 1_555
H11 C20 1_555 1_555
C21 O2 1_555 1_555
H12 C21 1_555 1_555
H13 C21 1_555 1_555
C22 C14 1_555 1_555
H14 C22 1_555 1_555
C23 O4 1_555 1_555
H15 C23 1_555 1_555
H16 C23 1_555 1_555
C24 C10 1_555 1_555
H17 C24 1_555 1_555
C25 C24 1_555 1_555
H18 C25 1_555 1_555
C26 C17 1_555 1_555
H19 C26 1_555 1_555
C27 C21 1_555 1_555
H20 C27 1_555 1_555
H21 C27 1_555 1_555
H22 C27 1_555 1_555
C28 C23 1_555 1_555
H23 C28 1_555 1_555
H24 C28 1_555 1_555
H25 C28 1_555 1_555
C29 C22 1_555 1_555
H26 C29 1_555 1_555
C4 C9 1_555 1_555
C10 C15 1_555 1_555
C12 C19 1_555 1_555
C13 C15 1_555 1_555
C20 C26 1_555 1_555
C25 C29 1_555 1_555

#END
