
#######################################################################
#
#                 Cambridge Crystallographic Data Centre
#                                CCDC 
#
#######################################################################
#
# If this CIF has been generated from an entry in the Cambridge 
# Structural Database, then it will include bibliographic, chemical, 
# crystal, experimental, refinement or atomic coordinate data resulting 
# from the CCDC's data processing and validation procedures.
#
#######################################################################

data_AXOPIN
_chemical_formula_moiety         'C16 H20 O8,2(C20 H14 N2)'
_chemical_name_systematic        
"3,4-bis(2-carboxyprop-1-en-1-yl)-1,2-dimethylcyclobutane-1,2-dicarboxylic acid bis(4,4'-naphthalene-1,8-diyldipyridine)"
_symmetry_cell_setting           monoclinic
_symmetry_space_group_name_H-M   'C 2/c'
_symmetry_Int_Tables_number      15
_space_group_name_Hall           '-C 2yn'
loop_
_symmetry_equiv_pos_site_id
_symmetry_equiv_pos_as_xyz
1 x,y,z
2 -x,y,1/2-z
3 1/2+x,1/2+y,z
4 1/2-x,1/2+y,1/2-z
5 -x,-y,-z
6 x,-y,1/2+z
7 1/2-x,1/2-y,-z
8 1/2+x,1/2-y,1/2+z
_cell_length_a                   31.686(4)
_cell_length_b                   9.6115(11)
_cell_length_c                   29.601(3)
_cell_angle_alpha                90
_cell_angle_beta                 93.685(5)
_cell_angle_gamma                90
_cell_volume                     8996.35
_exptl_crystal_colour            colorless
_exptl_crystal_description       plate
_cell_formula_units_Z            8
loop_
_atom_site_label
_atom_site_type_symbol
_atom_site_fract_x
_atom_site_fract_y
_atom_site_fract_z
C1 C 0.16087(8) 0.7304(3) 0.41154(9)
C2 C 0.12392(8) 0.7991(3) 0.38520(9)
C3 C 0.11554(8) 0.9573(3) 0.39251(9)
C4 C 0.14625(8) 1.0479(3) 0.41823(9)
C5 C 0.09566(9) 1.2355(3) 0.43203(10)
C6 C 0.08486(8) 0.7127(3) 0.39528(10)
C7 C 0.17310(9) 1.2566(3) 0.46035(11)
C8 C 0.17565(8) 0.8132(2) 0.32419(8)
C9 C 0.12920(8) 0.8250(3) 0.33245(9)
C10 C 0.11418(8) 0.9787(3) 0.33826(9)
C11 C 0.13907(8) 1.0959(3) 0.32116(9)
C12 C 0.12597(8) 1.2200(3) 0.30511(9)
C13 C 0.08031(8) 1.2609(3) 0.30129(9)
C14 C 0.10101(8) 0.7418(3) 0.29851(9)
C15 C 0.15688(9) 1.3285(3) 0.29151(12)
C49 C 0.13868(8) 1.1734(3) 0.43562(9)
H1 H 0.1929 0.5808 0.4058
H2 H 0.2092 0.7089 0.2925
H3 H 0.0872 0.9707 0.4033
H4 H 0.1737 1.0141 0.4228
H5 H 0.0687 1.3888 0.4455
H6 H 0.0885 0.6188 0.3852
H7 H 0.0602 0.7522 0.3797
H8 H 0.0814 0.713 0.4273
H9 H 0.0502 1.415 0.3031
H10 H 0.1989 1.2039 0.462
H11 H 0.1651 1.277 0.4904
H12 H 0.1773 1.342 0.4444
H13 H 0.0847 0.9873 0.3264
H14 H 0.1681 1.081 0.3216
H15 H 0.104 0.7771 0.2686
H16 H 0.0721 0.7502 0.3059
H17 H 0.1092 0.6456 0.2998
H18 H 0.1569 1.4051 0.3123
H19 H 0.1488 1.3608 0.2615
H20 H 0.1847 1.2888 0.292
O1 O 0.17323(6) 0.61686(19) 0.39071(6)
O2 O 0.17605(6) 0.7685(2) 0.44797(7)
O3 O 0.18413(5) 0.7304(2) 0.29023(6)
O4 O 0.20282(5) 0.87318(18) 0.34765(6)
O5 O 0.09309(6) 1.3603(2) 0.44939(8)
O6 O 0.06509(8) 1.1807(3) 0.41494(13)
O7 O 0.07545(6) 1.39637(19) 0.30330(8)
O8 O 0.05112(6) 1.1808(2) 0.29496(7)
C16 C 0.22383(9) 0.0985(3) 0.05193(10)
C17 C 0.18026(8) 0.0859(3) 0.04983(9)
C18 C 0.16157(8) -0.0111(3) 0.07742(8)
C19 C 0.18862(7) -0.0986(3) 0.10282(8)
C20 C 0.23181(8) -0.0805(3) 0.10241(9)
C21 C 0.11462(7) -0.0174(2) 0.07801(8)
C22 C 0.09102(7) -0.0059(2) 0.11776(8)
C23 C 0.10856(7) 0.0232(2) 0.16295(8)
C24 C 0.08233(8) 0.0249(3) 0.19863(9)
C25 C 0.03839(8) 0.0081(3) 0.19230(10)
C26 C 0.02079(8) -0.0119(3) 0.14967(10)
C27 C 0.04608(8) -0.0219(3) 0.11197(9)
C28 C 0.02627(8) -0.0440(3) 0.06851(10)
C29 C 0.04943(9) -0.0513(3) 0.03129(10)
C30 C 0.09328(8) -0.0382(3) 0.03618(9)
C31 C 0.15306(7) 0.0657(2) 0.17532(8)
C32 C 0.17736(8) -0.0045(3) 0.20930(8)
C33 C 0.21761(8) 0.0407(3) 0.22147(9)
C34 C 0.21189(7) 0.2199(3) 0.17054(9)
C35 C 0.17128(7) 0.1816(2) 0.15650(8)
H21 H 0.2357 0.1657 0.034
H22 H 0.1635 0.1416 0.0302
H23 H 0.1777 -0.1693 0.1201
H24 H 0.2493 -0.1403 0.1197
H25 H 0.0943 0.0376 0.2279
H26 H 0.0215 0.0107 0.2169
H27 H -0.0084 -0.0193 0.1451
H28 H -0.003 -0.0537 0.0652
H29 H 0.036 -0.0651 0.0028
H30 H 0.1087 -0.0435 0.0106
H31 H 0.1663 -0.0813 0.2236
H32 H 0.2334 -0.008 0.2438
H33 H 0.2237 0.2969 0.1571
H34 H 0.1561 0.2333 0.1344
N1 N 0.24979(7) 0.0194(2) 0.07828(8)
N2 N 0.23518(6) 0.1516(2) 0.20266(7)
C36 C 0.01567(9) 0.3373(3) 0.05208(11)
C37 C 0.05934(8) 0.3430(3) 0.05627(10)
C38 C 0.07905(7) 0.4689(3) 0.06613(8)
C39 C 0.05315(8) 0.5839(3) 0.06801(9)
C40 C 0.00979(8) 0.5685(3) 0.06245(9)
C41 C 0.12602(8) 0.4780(2) 0.07154(8)
C42 C 0.14977(7) 0.5229(2) 0.11198(8)
C43 C 0.13254(7) 0.5551(2) 0.15481(8)
C44 C 0.15853(8) 0.6070(3) 0.18955(9)
C45 C 0.20222(8) 0.6238(3) 0.18605(9)
C46 C 0.21981(8) 0.5862(2) 0.14747(9)
C47 C 0.19466(7) 0.5363(2) 0.10979(8)
C48 C 0.21423(8) 0.4983(3) 0.06980(9)
C50 C 0.19096(8) 0.4517(3) 0.03283(9)
C51 C 0.14706(8) 0.4434(3) 0.03373(9)
C52 C 0.08791(7) 0.5286(2) 0.16585(8)
C53 C 0.07063(9) 0.3967(3) 0.16648(10)
C54 C 0.02999(9) 0.3779(3) 0.17881(11)
C55 C 0.02174(8) 0.6067(3) 0.19107(9)
C56 C 0.06208(8) 0.6355(3) 0.17936(9)
H35 H 0.0031 0.2513 0.0461
H36 H 0.0753 0.2631 0.0525
H37 H 0.0649 0.6717 0.073
H38 H -0.0069 0.648 0.0633
H39 H 0.1468 0.6321 0.2164
H40 H 0.219 0.6605 0.2101
H41 H 0.2489 0.5934 0.1457
H42 H 0.2434 0.5053 0.069
H43 H 0.2042 0.4255 0.007
H44 H 0.1314 0.4134 0.0079
H45 H 0.0866 0.3203 0.1585
H46 H 0.0193 0.2879 0.1786
H47 H 0.0051 0.6807 0.1996
H48 H 0.0721 0.7265 0.1805
N3 N -0.00949(7) 0.4465(2) 0.05599(8)
N4 N 0.00510(7) 0.4803(2) 0.19100(8)
loop_
_geom_bond_atom_site_label_1
_geom_bond_atom_site_label_2
_geom_bond_site_symmetry_1
_geom_bond_site_symmetry_2
C1 C2 1_555 1_555
C2 C3 1_555 1_555
C3 C4 1_555 1_555
C4 C49 1_555 1_555
C5 C49 1_555 1_555
C6 C2 1_555 1_555
C7 C49 1_555 1_555
C8 C9 1_555 1_555
C9 C2 1_555 1_555
C10 C3 1_555 1_555
C11 C10 1_555 1_555
C12 C11 1_555 1_555
C13 C12 1_555 1_555
C14 C9 1_555 1_555
C15 C12 1_555 1_555
C16 C17 1_555 1_555
C17 C18 1_555 1_555
C18 C19 1_555 1_555
C19 C20 1_555 1_555
C20 H24 1_555 1_555
C21 C18 1_555 1_555
C22 C21 1_555 1_555
C23 C22 1_555 1_555
C24 C23 1_555 1_555
C25 C24 1_555 1_555
C26 C25 1_555 1_555
C27 C22 1_555 1_555
C28 C27 1_555 1_555
C29 C28 1_555 1_555
C30 C21 1_555 1_555
C31 C23 1_555 1_555
C32 C31 1_555 1_555
C33 C32 1_555 1_555
C34 C35 1_555 1_555
C35 C31 1_555 1_555
C36 C37 1_555 1_555
C37 C38 1_555 1_555
C38 C39 1_555 1_555
C39 C40 1_555 1_555
C40 H38 1_555 1_555
C41 C38 1_555 1_555
C42 C41 1_555 1_555
C43 C42 1_555 1_555
C44 C43 1_555 1_555
C45 C44 1_555 1_555
C46 C45 1_555 1_555
C47 C42 1_555 1_555
C48 C47 1_555 1_555
C50 C48 1_555 1_555
C51 C41 1_555 1_555
C52 C43 1_555 1_555
C53 C52 1_555 1_555
C54 C53 1_555 1_555
C55 C56 1_555 1_555
C56 C52 1_555 1_555
H1 O1 1_555 1_555
H2 O3 1_555 1_555
H3 C3 1_555 1_555
H4 C4 1_555 1_555
H5 O5 1_555 1_555
H6 C6 1_555 1_555
H7 C6 1_555 1_555
H8 C6 1_555 1_555
H9 O7 1_555 1_555
H10 C7 1_555 1_555
H11 C7 1_555 1_555
H12 C7 1_555 1_555
H13 C10 1_555 1_555
H14 C11 1_555 1_555
H15 C14 1_555 1_555
H16 C14 1_555 1_555
H17 C14 1_555 1_555
H18 C15 1_555 1_555
H19 C15 1_555 1_555
H20 C15 1_555 1_555
H21 C16 1_555 1_555
H22 C17 1_555 1_555
H23 C19 1_555 1_555
H25 C24 1_555 1_555
H26 C25 1_555 1_555
H27 C26 1_555 1_555
H28 C28 1_555 1_555
H29 C29 1_555 1_555
H30 C30 1_555 1_555
H31 C32 1_555 1_555
H32 C33 1_555 1_555
H33 C34 1_555 1_555
H34 C35 1_555 1_555
H35 C36 1_555 1_555
H36 C37 1_555 1_555
H37 C39 1_555 1_555
H39 C44 1_555 1_555
H40 C45 1_555 1_555
H41 C46 1_555 1_555
H42 C48 1_555 1_555
H43 C50 1_555 1_555
H44 C51 1_555 1_555
H45 C53 1_555 1_555
H46 C54 1_555 1_555
H47 C55 1_555 1_555
H48 C56 1_555 1_555
N1 C16 1_555 1_555
N2 C33 1_555 1_555
N3 C36 1_555 1_555
N4 C54 1_555 1_555
O1 C1 1_555 1_555
O2 C1 1_555 1_555
O3 C8 1_555 1_555
O4 C8 1_555 1_555
O5 C5 1_555 1_555
O6 C5 1_555 1_555
O7 C13 1_555 1_555
O8 C13 1_555 1_555
C9 C10 1_555 1_555
C20 N1 1_555 1_555
C26 C27 1_555 1_555
C29 C30 1_555 1_555
C34 N2 1_555 1_555
C40 N3 1_555 1_555
C46 C47 1_555 1_555
C50 C51 1_555 1_555
C55 N4 1_555 1_555

#END
