
#######################################################################
#
#                 Cambridge Crystallographic Data Centre
#                                CCDC 
#
#######################################################################
#
# If this CIF has been generated from an entry in the Cambridge 
# Structural Database, then it will include bibliographic, chemical, 
# crystal, experimental, refinement or atomic coordinate data resulting 
# from the CCDC's data processing and validation procedures.
#
#######################################################################

data_AXOSOW01
_chemical_name_common            2-Propenal
_chemical_formula_moiety         'C3 H4 O1'
_chemical_name_systematic        Acrylaldehyde
_symmetry_cell_setting           orthorhombic
_symmetry_space_group_name_H-M   'P b c a'
_symmetry_Int_Tables_number      61
_space_group_name_Hall           '-P 2ac 2ab'
loop_
_symmetry_equiv_pos_site_id
_symmetry_equiv_pos_as_xyz
1 x,y,z
2 1/2+x,1/2-y,-z
3 -x,1/2+y,1/2-z
4 1/2-x,-y,1/2+z
5 -x,-y,-z
6 1/2-x,1/2+y,z
7 x,1/2-y,1/2+z
8 1/2+x,y,1/2-z
_cell_length_a                   6.970(3)
_cell_length_b                   9.514(5)
_cell_length_c                   9.752(5)
_cell_angle_alpha                90
_cell_angle_beta                 90
_cell_angle_gamma                90
_cell_volume                     646.68
_exptl_crystal_colour            colorless
_exptl_crystal_description       cylinder
_cell_formula_units_Z            8
loop_
_atom_site_label
_atom_site_type_symbol
_atom_site_fract_x
_atom_site_fract_y
_atom_site_fract_z
C1 C 0.8803(3) 0.2131(2) 0.4800(2)
C2 C 0.9203(3) 0.1717(2) 0.3568(2)
C3 C 0.8581(3) 0.0378(2) 0.3071(2)
O1 O 0.8889(2) -0.00711(14) 0.19511(17)
H1 H 0.785(3) -0.0142(19) 0.3756(17)
H2 H 0.807(3) 0.1547(18) 0.5407(17)
H3 H 0.924(3) 0.3025(14) 0.516(2)
H4 H 0.989(3) 0.2300(18) 0.2936(16)
loop_
_geom_bond_atom_site_label_1
_geom_bond_atom_site_label_2
_geom_bond_site_symmetry_1
_geom_bond_site_symmetry_2
C1 C2 1_555 1_555
C2 C3 1_555 1_555
C3 O1 1_555 1_555
H1 C3 1_555 1_555
H2 C1 1_555 1_555
H3 C1 1_555 1_555
H4 C2 1_555 1_555

#END
