
#######################################################################
#
#                 Cambridge Crystallographic Data Centre
#                                CCDC 
#
#######################################################################
#
# If this CIF has been generated from an entry in the Cambridge 
# Structural Database, then it will include bibliographic, chemical, 
# crystal, experimental, refinement or atomic coordinate data resulting 
# from the CCDC's data processing and validation procedures.
#
#######################################################################

data_AXUBOM
_chemical_formula_moiety         'C36 H32 F2 N2 O2'
_chemical_name_systematic        
5-(3-ethyl-1H-indol-2-yl)-3-(4-fluorobenzyl)-4-(4-fluorophenyl)-1-(2-propionylphenyl)pyrrolidin-2-one
_symmetry_cell_setting           orthorhombic
_symmetry_space_group_name_H-M   'P 21 21 21'
_symmetry_Int_Tables_number      19
_space_group_name_Hall           'P 2ac 2ab'
loop_
_symmetry_equiv_pos_site_id
_symmetry_equiv_pos_as_xyz
1 x,y,z
2 1/2-x,-y,1/2+z
3 -x,1/2+y,1/2-z
4 1/2+x,1/2-y,-z
_cell_length_a                   11.5593(3)
_cell_length_b                   14.0068(3)
_cell_length_c                   17.8914(4)
_cell_angle_alpha                90
_cell_angle_beta                 90
_cell_angle_gamma                90
_cell_volume                     2896.78
_exptl_crystal_colour            colorless
_exptl_crystal_description       block
_cell_formula_units_Z            4
loop_
_atom_site_label
_atom_site_type_symbol
_atom_site_fract_x
_atom_site_fract_y
_atom_site_fract_z
F1 F 0.88379(15) 0.27035(14) 0.84456(9)
F2 F 0.07712(16) -0.03779(12) 0.75503(12)
O1 O 0.38110(17) 0.46813(13) 0.98239(10)
O2 O 0.53918(17) 0.53765(13) 0.85814(10)
N1 N 0.30910(19) 0.45273(15) 0.86317(11)
N2 N 0.43898(19) 0.42303(14) 0.72654(12)
H1 H 0.4880 0.4303 0.7638
C1 C 0.2762(2) 0.37758(17) 0.80965(14)
H2 H 0.1900 0.3715 0.8074
C2 C 0.3298(2) 0.28645(18) 0.84550(14)
H3 H 0.4100 0.2793 0.8253
C3 C 0.3402(2) 0.31038(18) 0.92874(14)
H4 H 0.2653 0.2925 0.9530
C4 C 0.3487(2) 0.41908(18) 0.93000(13)
C5 C 0.3234(2) 0.39856(16) 0.73336(14)
C6 C 0.2733(2) 0.39188(18) 0.66409(14)
C7 C 0.3627(2) 0.41410(17) 0.61106(14)
C8 C 0.3656(3) 0.4196(2) 0.53263(15)
H5 H 0.2981 0.4070 0.5040
C9 C 0.4683(3) 0.4434(2) 0.49795(15)
H6 H 0.4712 0.4466 0.4449
C10 C 0.5675(3) 0.4628(2) 0.53926(17)
H7 H 0.6367 0.4794 0.5137
C11 C 0.5682(3) 0.45861(19) 0.61668(16)
H8 H 0.6362 0.4719 0.6446
C12 C 0.4646(2) 0.43405(17) 0.65171(14)
C13 C 0.1503(3) 0.3660(2) 0.64556(16)
H9 H 0.1202 0.4115 0.6080
H10 H 0.1024 0.3723 0.6912
C14 C 0.1381(3) 0.2648(3) 0.6152(2)
H11 H 0.1841 0.2583 0.5695
H12 H 0.0566 0.2518 0.6040
H13 H 0.1658 0.2191 0.6527
C15 C 0.2831(2) 0.55036(18) 0.84831(14)
C16 C 0.1750(3) 0.5740(2) 0.81931(15)
H14 H 0.1210 0.5250 0.8078
C17 C 0.1457(3) 0.6691(2) 0.80707(16)
H15 H 0.0725 0.6848 0.7863
C18 C 0.2231(3) 0.7407(2) 0.82516(18)
H16 H 0.2028 0.8056 0.8176
C19 C 0.3294(3) 0.7175(2) 0.85412(17)
H17 H 0.3816 0.7672 0.8673
C20 C 0.3626(3) 0.62258(19) 0.86470(14)
C21 C 0.4835(3) 0.60041(18) 0.88925(15)
C22 C 0.5351(3) 0.6615(2) 0.94951(19)
H18 H 0.4748 0.6751 0.9873
H19 H 0.5591 0.7232 0.9273
C23 C 0.6379(3) 0.6176(3) 0.9883(2)
H20 H 0.6945 0.5968 0.9508
H21 H 0.6126 0.5624 1.0177
H22 H 0.6735 0.6649 1.0214
C24 C 0.4376(2) 0.25871(18) 0.97121(15)
H23 H 0.4431 0.2867 1.0219
H24 H 0.4153 0.1909 0.9771
C25 C 0.5558(2) 0.26246(18) 0.93564(14)
C26 C 0.6210(3) 0.34663(19) 0.93606(15)
H25 H 0.5899 0.4026 0.9583
C27 C 0.7306(3) 0.3496(2) 0.90441(15)
H26 H 0.7742 0.4070 0.9042
C28 C 0.7745(3) 0.2675(2) 0.87335(15)
C29 C 0.7140(3) 0.1832(2) 0.87188(17)
H27 H 0.7464 0.1275 0.8501
C30 C 0.6042(3) 0.1818(2) 0.90321(16)
H28 H 0.5610 0.1241 0.9024
C31 C 0.2631(2) 0.19745(17) 0.82480(14)
C32 C 0.3039(2) 0.13894(18) 0.76839(15)
H29 H 0.3761 0.1532 0.7456
C33 C 0.2415(3) 0.05948(18) 0.74417(16)
H30 H 0.2697 0.0201 0.7050
C34 C 0.1386(3) 0.04001(19) 0.77842(17)
C35 C 0.0947(3) 0.0952(2) 0.83539(19)
H31 H 0.0236 0.0792 0.8588
C36 C 0.1571(3) 0.1745(2) 0.85760(17)
H32 H 0.1271 0.2143 0.8960
loop_
_geom_bond_atom_site_label_1
_geom_bond_atom_site_label_2
_geom_bond_site_symmetry_1
_geom_bond_site_symmetry_2
F1 C28 1_555 1_555
F2 C34 1_555 1_555
O1 C4 1_555 1_555
O2 C21 1_555 1_555
N1 C1 1_555 1_555
N2 H1 1_555 1_555
C1 H2 1_555 1_555
C2 C1 1_555 1_555
H3 C2 1_555 1_555
C3 C2 1_555 1_555
H4 C3 1_555 1_555
C4 N1 1_555 1_555
C5 N2 1_555 1_555
C6 C5 1_555 1_555
C7 C6 1_555 1_555
C8 C7 1_555 1_555
H5 C8 1_555 1_555
C9 C8 1_555 1_555
H6 C9 1_555 1_555
C10 C9 1_555 1_555
H7 C10 1_555 1_555
C11 C10 1_555 1_555
H8 C11 1_555 1_555
C12 N2 1_555 1_555
C13 C6 1_555 1_555
H9 C13 1_555 1_555
H10 C13 1_555 1_555
C14 C13 1_555 1_555
H11 C14 1_555 1_555
H12 C14 1_555 1_555
H13 C14 1_555 1_555
C15 N1 1_555 1_555
C16 C15 1_555 1_555
H14 C16 1_555 1_555
C17 C16 1_555 1_555
H15 C17 1_555 1_555
C18 C17 1_555 1_555
H16 C18 1_555 1_555
C19 C18 1_555 1_555
H17 C19 1_555 1_555
C20 C15 1_555 1_555
C21 C20 1_555 1_555
C22 C21 1_555 1_555
H18 C22 1_555 1_555
H19 C22 1_555 1_555
C23 C22 1_555 1_555
H20 C23 1_555 1_555
H21 C23 1_555 1_555
H22 C23 1_555 1_555
C24 C3 1_555 1_555
H23 C24 1_555 1_555
H24 C24 1_555 1_555
C25 C24 1_555 1_555
C26 C25 1_555 1_555
H25 C26 1_555 1_555
C27 C26 1_555 1_555
H26 C27 1_555 1_555
C28 C27 1_555 1_555
C29 C28 1_555 1_555
H27 C29 1_555 1_555
C30 C25 1_555 1_555
H28 C30 1_555 1_555
C31 C2 1_555 1_555
C32 C31 1_555 1_555
H29 C32 1_555 1_555
C33 C32 1_555 1_555
H30 C33 1_555 1_555
C34 C33 1_555 1_555
C35 C34 1_555 1_555
H31 C35 1_555 1_555
C36 C31 1_555 1_555
H32 C36 1_555 1_555
C1 C5 1_555 1_555
C3 C4 1_555 1_555
C7 C12 1_555 1_555
C11 C12 1_555 1_555
C19 C20 1_555 1_555
C29 C30 1_555 1_555
C35 C36 1_555 1_555

#END
