
#######################################################################
#
#                 Cambridge Crystallographic Data Centre
#                                CCDC 
#
#######################################################################
#
# If this CIF has been generated from an entry in the Cambridge 
# Structural Database, then it will include bibliographic, chemical, 
# crystal, experimental, refinement or atomic coordinate data resulting 
# from the CCDC's data processing and validation procedures.
#
#######################################################################

data_AXUBUR03
_chemical_formula_moiety         'C8 H5 F1'
_chemical_name_systematic        1-ethynyl-2-fluorobenzene
_symmetry_cell_setting           monoclinic
_symmetry_space_group_name_H-M   'P 21'
_symmetry_Int_Tables_number      4
_space_group_name_Hall           'P 2yb'
loop_
_symmetry_equiv_pos_site_id
_symmetry_equiv_pos_as_xyz
1 x,y,z
2 -x,1/2+y,-z
_cell_length_a                   7.031(4)
_cell_length_b                   5.924(4)
_cell_length_c                   7.441(5)
_cell_angle_alpha                90
_cell_angle_beta                 103.563(17)
_cell_angle_gamma                90
_cell_volume                     301.287
_exptl_crystal_colour            'light colorless'
_exptl_crystal_description       Cylinder
_cell_formula_units_Z            2
loop_
_atom_site_label
_atom_site_type_symbol
_atom_site_fract_x
_atom_site_fract_y
_atom_site_fract_z
F1 F 1.0049(4) 0.2516(5) 0.3617(5)
C1 C 0.7507(9) 0.0046(8) 0.2314(9)
C2 C 0.8097(8) 0.2054(8) 0.3201(9)
C3 C 0.5492(9) -0.0398(11) 0.1876(9)
H1 H 0.5016 -0.1736 0.1284
C4 C 0.4877(10) 0.3114(11) 0.3258(10)
H2 H 0.4001 0.4114 0.3593
C5 C 0.6874(9) 0.3580(11) 0.3695(10)
H3 H 0.7357 0.4902 0.4310
C6 C 0.8873(9) -0.1526(11) 0.1863(10)
C7 C 0.4217(9) 0.1156(14) 0.2325(9)
H4 H 0.2880 0.0872 0.1989
C8 C 1.0013(10) -0.2772(13) 0.1465(10)
H5 H 1.0914 -0.3756 0.1151
loop_
_geom_bond_atom_site_label_1
_geom_bond_atom_site_label_2
_geom_bond_site_symmetry_1
_geom_bond_site_symmetry_2
F1 C2 1_555 1_555
C1 C2 1_555 1_555
C2 C5 1_555 1_555
C3 C1 1_555 1_555
H1 C3 1_555 1_555
C4 H2 1_555 1_555
C5 C4 1_555 1_555
H3 C5 1_555 1_555
C6 C1 1_555 1_555
C7 C3 1_555 1_555
H4 C7 1_555 1_555
C8 C6 1_555 1_555
H5 C8 1_555 1_555
C4 C7 1_555 1_555

#END
