
#######################################################################
#
#                 Cambridge Crystallographic Data Centre
#                                CCDC 
#
#######################################################################
#
# If this CIF has been generated from an entry in the Cambridge 
# Structural Database, then it will include bibliographic, chemical, 
# crystal, experimental, refinement or atomic coordinate data resulting 
# from the CCDC's data processing and validation procedures.
#
#######################################################################

data_AXUGUX
_chemical_formula_moiety         'C24 H22 N6 O5,C2 H3 N1'
_chemical_name_systematic        
'N-(2-(5-cyano-4-methyl-3-((2-nitrophenyl)hydrazono)-2,6-dioxo-3,6-dihydropyridin-1(2H)-yl)ethyl)-N-ethylbenzamide acetonitrile solvate'
_symmetry_cell_setting           monoclinic
_symmetry_space_group_name_H-M   'P 21/c'
_symmetry_Int_Tables_number      14
_space_group_name_Hall           '-P 2ybc'
loop_
_symmetry_equiv_pos_site_id
_symmetry_equiv_pos_as_xyz
1 x,y,z
2 -x,1/2+y,1/2-z
3 -x,-y,-z
4 x,1/2-y,1/2+z
_cell_length_a                   9.1414(17)
_cell_length_b                   17.714(3)
_cell_length_c                   17.405(3)
_cell_angle_alpha                90
_cell_angle_beta                 114.274(8)
_cell_angle_gamma                90
_cell_volume                     2569.23
_exptl_crystal_colour            yellow
_exptl_crystal_description       block
_cell_formula_units_Z            4
loop_
_atom_site_label
_atom_site_type_symbol
_atom_site_fract_x
_atom_site_fract_y
_atom_site_fract_z
C1 C 0.5934(2) -0.06603(11) 0.41477(14)
C2 C 0.5042(3) -0.09738(12) 0.33591(15)
C3 C 0.4031(3) -0.15785(13) 0.3266(2)
H1 H 0.3450 -0.1781 0.2733
C4 C 0.3879(3) -0.18794(15) 0.3945(2)
H2 H 0.3208 -0.2291 0.3879
C5 C 0.4723(3) -0.15739(14) 0.4735(2)
H3 H 0.4605 -0.1776 0.5199
C6 C 0.5743(3) -0.09674(12) 0.48388(16)
H4 H 0.6304 -0.0764 0.5373
C7 C 0.8915(2) 0.07167(10) 0.51889(12)
C8 C 0.9281(2) 0.10855(10) 0.45289(13)
N1 N 1.04314(19) 0.16527(9) 0.47823(10)
C9 C 1.1202(2) 0.18991(11) 0.56076(13)
C10 C 1.0806(2) 0.15136(11) 0.62390(13)
C11 C 0.9748(3) 0.09371(11) 0.60578(13)
C12 C 1.1630(3) 0.17773(13) 0.70827(16)
C13 C 0.9417(3) 0.05246(13) 0.67164(14)
H5 H 0.9933 0.0780 0.7247
H6 H 0.9825 0.0019 0.6767
H7 H 0.8280 0.0509 0.6559
C14 C 1.0743(3) 0.20535(12) 0.41235(13)
H8 H 1.0819 0.1690 0.3725
H9 H 1.1763 0.2315 0.4380
C15 C 0.9428(3) 0.26212(12) 0.36556(13)
H10 H 0.9719 0.2893 0.3255
H11 H 0.8440 0.2350 0.3339
C16 C 0.8036(3) 0.29873(12) 0.45083(14)
C17 C 0.7860(3) 0.34709(12) 0.51593(14)
C18 C 0.6372(3) 0.37335(14) 0.50507(17)
H12 H 0.5486 0.3649 0.4546
C19 C 0.6198(4) 0.41282(16) 0.5703(2)
H13 H 0.5203 0.4323 0.5625
C20 C 0.7481(4) 0.42275(18) 0.6449(2)
H14 H 0.7352 0.4480 0.6886
C21 C 0.8946(4) 0.39622(19) 0.6565(2)
H15 H 0.9817 0.4032 0.7079
C22 C 0.9147(3) 0.35917(15) 0.59267(17)
H16 H 1.0161 0.3418 0.6008
C23 C 0.9773(3) 0.39333(13) 0.42382(19)
H17 H 0.9375 0.4128 0.3667
H18 H 0.9347 0.4252 0.4551
C24 C 1.1532(4) 0.39985(19) 0.4622(3)
H19 H 1.1936 0.3859 0.5206
H20 H 1.1833 0.4510 0.4575
H21 H 1.1976 0.3669 0.4335
N2 N 0.5099(3) -0.06767(12) 0.25940(13)
N3 N 0.7020(2) -0.00670(9) 0.42716(11)
N4 N 0.7855(2) 0.01738(9) 0.50357(11)
N5 N 1.2268(3) 0.19851(15) 0.77580(15)
N6 N 0.9141(2) 0.31639(9) 0.42078(12)
O1 O 0.4109(3) -0.08828(16) 0.19201(13)
O2 O 0.6151(2) -0.02235(10) 0.26501(10)
O3 O 0.86285(17) 0.09010(8) 0.37886(9)
O4 O 1.21709(18) 0.24130(8) 0.57928(10)
O5 O 0.72378(19) 0.24024(8) 0.42948(11)
H22 H 0.718(3) 0.0145(12) 0.3837(15)
C25 C 0.3843(4) 0.11634(17) 0.2749(2)
C26 C 0.4755(3) 0.16502(17) 0.24645(19)
H23 H 0.5094 0.2083 0.2826
H24 H 0.4106 0.1811 0.1899
H25 H 0.5680 0.1385 0.2476
N7 N 0.3158(4) 0.0776(2) 0.3002(3)
loop_
_geom_bond_atom_site_label_1
_geom_bond_atom_site_label_2
_geom_bond_site_symmetry_1
_geom_bond_site_symmetry_2
C1 C2 1_555 1_555
C2 C3 1_555 1_555
C3 H1 1_555 1_555
C4 C3 1_555 1_555
H2 C4 1_555 1_555
C5 C4 1_555 1_555
H3 C5 1_555 1_555
C6 C1 1_555 1_555
H4 C6 1_555 1_555
C7 C8 1_555 1_555
C8 N1 1_555 1_555
N1 C9 1_555 1_555
C9 C10 1_555 1_555
C10 C11 1_555 1_555
C11 C7 1_555 1_555
C12 C10 1_555 1_555
C13 C11 1_555 1_555
H5 C13 1_555 1_555
H6 C13 1_555 1_555
H7 C13 1_555 1_555
C14 N1 1_555 1_555
H8 C14 1_555 1_555
H9 C14 1_555 1_555
C15 C14 1_555 1_555
H10 C15 1_555 1_555
H11 C15 1_555 1_555
C16 C17 1_555 1_555
C17 C18 1_555 1_555
C18 H12 1_555 1_555
C19 C18 1_555 1_555
H13 C19 1_555 1_555
C20 C19 1_555 1_555
H14 C20 1_555 1_555
C21 C20 1_555 1_555
H15 C21 1_555 1_555
C22 C17 1_555 1_555
H16 C22 1_555 1_555
C23 H17 1_555 1_555
H18 C23 1_555 1_555
C24 C23 1_555 1_555
H19 C24 1_555 1_555
H20 C24 1_555 1_555
H21 C24 1_555 1_555
N2 C2 1_555 1_555
N3 C1 1_555 1_555
N4 C7 1_555 1_555
N5 C12 1_555 1_555
N6 C15 1_555 1_555
O1 N2 1_555 1_555
O2 N2 1_555 1_555
O3 C8 1_555 1_555
O4 C9 1_555 1_555
O5 C16 1_555 1_555
H22 N3 1_555 1_555
C25 C26 1_555 1_555
C26 H23 1_555 1_555
H24 C26 1_555 1_555
H25 C26 1_555 1_555
N7 C25 1_555 1_555
C5 C6 1_555 1_555
C16 N6 1_555 1_555
C21 C22 1_555 1_555
C23 N6 1_555 1_555
N3 N4 1_555 1_555

#END
