
#######################################################################
#
#                 Cambridge Crystallographic Data Centre
#                                CCDC 
#
#######################################################################
#
# If this CIF has been generated from an entry in the Cambridge 
# Structural Database, then it will include bibliographic, chemical, 
# crystal, experimental, refinement or atomic coordinate data resulting 
# from the CCDC's data processing and validation procedures.
#
#######################################################################

data_AXUJIO
_chemical_formula_moiety         'C44 H50 N2'
_chemical_name_systematic        
1-(4-t-butylbenzyl)-2-(4-t-butylphenyl)-9-ethyl-3-(3-ethyl-1H-indol-2-yl)-2,3-dihydro-1H-pyrrolo[1,2-a]indole
_symmetry_cell_setting           monoclinic
_symmetry_space_group_name_H-M   'P 21/c'
_symmetry_Int_Tables_number      14
_space_group_name_Hall           '-P 2ybc'
loop_
_symmetry_equiv_pos_site_id
_symmetry_equiv_pos_as_xyz
1 x,y,z
2 -x,1/2+y,1/2-z
3 -x,-y,-z
4 x,1/2-y,1/2+z
_cell_length_a                   19.661(13)
_cell_length_b                   10.710(7)
_cell_length_c                   17.118(11)
_cell_angle_alpha                90
_cell_angle_beta                 97.306(11)
_cell_angle_gamma                90
_cell_volume                     3575.26
_exptl_crystal_colour            colorless
_exptl_crystal_description       block
_cell_formula_units_Z            4
loop_
_atom_site_label
_atom_site_type_symbol
_atom_site_fract_x
_atom_site_fract_y
_atom_site_fract_z
N1 N 0.67422(16) 0.2274(3) 0.42238(17)
N2 N 0.59165(15) 0.0970(3) 0.29152(17)
H1 H 0.5714 0.1673 0.3018
C1 C 0.63436(19) 0.1968(3) 0.4808(2)
C2 C 0.6027(2) 0.0859(4) 0.4977(2)
H2 H 0.6074 0.0124 0.4677
C3 C 0.5640(2) 0.0864(4) 0.5602(2)
H3 H 0.5420 0.0117 0.5733
C4 C 0.5566(2) 0.1951(4) 0.6044(2)
H4 H 0.5298 0.1933 0.6468
C5 C 0.5883(2) 0.3046(4) 0.5865(2)
H5 H 0.5831 0.3780 0.6163
C6 C 0.6279(2) 0.3075(4) 0.5250(2)
C7 C 0.6678(2) 0.4041(3) 0.4926(2)
C8 C 0.69512(19) 0.3503(3) 0.4305(2)
C9 C 0.7394(2) 0.3826(3) 0.3680(2)
H6 H 0.7886 0.3812 0.3914
C10 C 0.72515(19) 0.2712(3) 0.3093(2)
H7 H 0.6838 0.2931 0.2716
C11 C 0.70493(19) 0.1599(3) 0.3614(2)
H8 H 0.7475 0.1166 0.3858
C12 C 0.65839(18) 0.0671(3) 0.3174(2)
C13 C 0.67337(19) -0.0505(3) 0.2918(2)
C14 C 0.61137(19) -0.0933(3) 0.2459(2)
C15 C 0.5951(2) -0.2009(3) 0.2002(2)
H9 H 0.6275 -0.2663 0.1988
C16 C 0.5310(2) -0.2089(4) 0.1578(2)
H10 H 0.5199 -0.2800 0.1255
C17 C 0.4818(2) -0.1159(4) 0.1607(2)
H11 H 0.4380 -0.1248 0.1308
C18 C 0.4963(2) -0.0101(3) 0.2068(2)
H12 H 0.4627 0.0527 0.2103
C19 C 0.56083(19) 0.0002(3) 0.2469(2)
C20 C 0.7403(2) -0.1183(3) 0.3048(2)
H13 H 0.7318 -0.2051 0.3209
H14 H 0.7698 -0.0779 0.3488
C21 C 0.7792(2) -0.1220(4) 0.2329(3)
H15 H 0.7524 -0.1689 0.1904
H16 H 0.8237 -0.1629 0.2471
H17 H 0.7865 -0.0366 0.2151
C22 C 0.78160(18) 0.2367(3) 0.2616(2)
C23 C 0.8474(2) 0.2100(3) 0.2946(2)
H18 H 0.8589 0.2180 0.3499
C24 C 0.8976(2) 0.1717(3) 0.2499(2)
H19 H 0.9422 0.1529 0.2754
C25 C 0.88377(19) 0.1602(3) 0.1675(2)
C26 C 0.8182(2) 0.1882(3) 0.1344(2)
H20 H 0.8066 0.1807 0.0790
C27 C 0.76808(19) 0.2272(3) 0.1800(2)
H21 H 0.7237 0.2479 0.1546
C28 C 0.9396(2) 0.1129(4) 0.1202(2)
C29 C 0.9997(2) 0.2040(4) 0.1280(3)
H22 H 0.9837 0.2862 0.1085
H23 H 1.0350 0.1735 0.0971
H24 H 1.0190 0.2107 0.1835
C30 C 0.9128(2) 0.0977(5) 0.0328(3)
H25 H 0.8740 0.0397 0.0270
H26 H 0.9494 0.0648 0.0048
H27 H 0.8978 0.1791 0.0106
C31 C 0.9650(2) -0.0155(4) 0.1519(3)
H28 H 0.9816 -0.0088 0.2081
H29 H 1.0024 -0.0440 0.1234
H30 H 0.9271 -0.0756 0.1441
C32 C 0.7226(2) 0.5092(3) 0.3296(2)
H31 H 0.6726 0.5135 0.3123
H32 H 0.7341 0.5755 0.3694
C33 C 0.7604(2) 0.5348(3) 0.2596(2)
C34 C 0.8304(2) 0.5543(3) 0.2685(2)
H33 H 0.8551 0.5543 0.3199
C35 C 0.8657(2) 0.5739(3) 0.2042(2)
H34 H 0.9140 0.5863 0.2128
C36 C 0.8325(2) 0.5758(3) 0.1279(2)
C37 C 0.7621(2) 0.5563(3) 0.1190(2)
H35 H 0.7373 0.5573 0.0676
C38 C 0.7270(2) 0.5351(3) 0.1839(3)
H36 H 0.6789 0.5206 0.1755
C39 C 0.8698(2) 0.5985(3) 0.0557(2)
C40 C 0.8383(2) 0.7121(4) 0.0101(3)
H37 H 0.7894 0.6973 -0.0061
H38 H 0.8615 0.7257 -0.0366
H39 H 0.8440 0.7861 0.0440
C41 C 0.9467(2) 0.6212(4) 0.0769(2)
H40 H 0.9539 0.6949 0.1109
H41 H 0.9677 0.6350 0.0287
H42 H 0.9677 0.5482 0.1048
C42 C 0.8605(2) 0.4823(4) 0.0022(3)
H43 H 0.8824 0.4102 0.0303
H44 H 0.8818 0.4973 -0.0457
H45 H 0.8115 0.4655 -0.0121
C43 C 0.6756(2) 0.5362(4) 0.5226(3)
H46 H 0.7202 0.5693 0.5109
H47 H 0.6765 0.5354 0.5806
C44 C 0.6188(3) 0.6238(4) 0.4873(3)
H48 H 0.6220 0.6356 0.4311
H49 H 0.6238 0.7047 0.5142
H50 H 0.5741 0.5876 0.4939
loop_
_geom_bond_atom_site_label_1
_geom_bond_atom_site_label_2
_geom_bond_site_symmetry_1
_geom_bond_site_symmetry_2
N1 C1 1_555 1_555
N2 H1 1_555 1_555
C1 C2 1_555 1_555
C2 H2 1_555 1_555
C3 C2 1_555 1_555
H3 C3 1_555 1_555
C4 C3 1_555 1_555
H4 C4 1_555 1_555
C5 C4 1_555 1_555
H5 C5 1_555 1_555
C6 C1 1_555 1_555
C7 C6 1_555 1_555
C8 N1 1_555 1_555
C9 C8 1_555 1_555
H6 C9 1_555 1_555
C10 C9 1_555 1_555
H7 C10 1_555 1_555
C11 N1 1_555 1_555
H8 C11 1_555 1_555
C12 N2 1_555 1_555
C13 C12 1_555 1_555
C14 C13 1_555 1_555
C15 C14 1_555 1_555
H9 C15 1_555 1_555
C16 C15 1_555 1_555
H10 C16 1_555 1_555
C17 C16 1_555 1_555
H11 C17 1_555 1_555
C18 C17 1_555 1_555
H12 C18 1_555 1_555
C19 N2 1_555 1_555
C20 C13 1_555 1_555
H13 C20 1_555 1_555
H14 C20 1_555 1_555
C21 C20 1_555 1_555
H15 C21 1_555 1_555
H16 C21 1_555 1_555
H17 C21 1_555 1_555
C22 C10 1_555 1_555
C23 C22 1_555 1_555
H18 C23 1_555 1_555
C24 C23 1_555 1_555
H19 C24 1_555 1_555
C25 C24 1_555 1_555
C26 C25 1_555 1_555
H20 C26 1_555 1_555
C27 C22 1_555 1_555
H21 C27 1_555 1_555
C28 C25 1_555 1_555
C29 C28 1_555 1_555
H22 C29 1_555 1_555
H23 C29 1_555 1_555
H24 C29 1_555 1_555
C30 C28 1_555 1_555
H25 C30 1_555 1_555
H26 C30 1_555 1_555
H27 C30 1_555 1_555
C31 C28 1_555 1_555
H28 C31 1_555 1_555
H29 C31 1_555 1_555
H30 C31 1_555 1_555
C32 C9 1_555 1_555
H31 C32 1_555 1_555
H32 C32 1_555 1_555
C33 C32 1_555 1_555
C34 C33 1_555 1_555
H33 C34 1_555 1_555
C35 C34 1_555 1_555
H34 C35 1_555 1_555
C36 C35 1_555 1_555
C37 C36 1_555 1_555
H35 C37 1_555 1_555
C38 C33 1_555 1_555
H36 C38 1_555 1_555
C39 C36 1_555 1_555
C40 C39 1_555 1_555
H37 C40 1_555 1_555
H38 C40 1_555 1_555
H39 C40 1_555 1_555
C41 C39 1_555 1_555
H40 C41 1_555 1_555
H41 C41 1_555 1_555
H42 C41 1_555 1_555
C42 C39 1_555 1_555
H43 C42 1_555 1_555
H44 C42 1_555 1_555
H45 C42 1_555 1_555
C43 C7 1_555 1_555
H46 C43 1_555 1_555
H47 C43 1_555 1_555
C44 C43 1_555 1_555
H48 C44 1_555 1_555
H49 C44 1_555 1_555
H50 C44 1_555 1_555
C5 C6 1_555 1_555
C7 C8 1_555 1_555
C10 C11 1_555 1_555
C11 C12 1_555 1_555
C14 C19 1_555 1_555
C18 C19 1_555 1_555
C26 C27 1_555 1_555
C37 C38 1_555 1_555

#END
