
#######################################################################
#
#                 Cambridge Crystallographic Data Centre
#                                CCDC 
#
#######################################################################
#
# If this CIF has been generated from an entry in the Cambridge 
# Structural Database, then it will include bibliographic, chemical, 
# crystal, experimental, refinement or atomic coordinate data resulting 
# from the CCDC's data processing and validation procedures.
#
#######################################################################

data_AXUKOV
_chemical_formula_moiety         'C156 H72 B12 F60 O12'
_chemical_name_systematic        
dodeca((2',3',4',5',6'-pentafluorobiphenyl-4-yl)methanolate)-closo-dodecaborate
_symmetry_cell_setting           triclinic
_symmetry_space_group_name_H-M   'P -1'
_symmetry_Int_Tables_number      2
_space_group_name_Hall           '-P 1'
loop_
_symmetry_equiv_pos_site_id
_symmetry_equiv_pos_as_xyz
1 x,y,z
2 -x,-y,-z
_cell_length_a                   19.211(3)
_cell_length_b                   19.674(3)
_cell_length_c                   22.866(4)
_cell_angle_alpha                97.606(5)
_cell_angle_beta                 114.089(5)
_cell_angle_gamma                109.756(5)
_cell_volume                     7048.24
_exptl_crystal_colour            orange
_exptl_crystal_description       block
_cell_formula_units_Z            2
loop_
_atom_site_label
_atom_site_type_symbol
_atom_site_fract_x
_atom_site_fract_y
_atom_site_fract_z
F1 F 0.9211(2) 0.74914(15) 0.95195(13)
F2 F 1.0464(2) 0.82173(16) 1.08037(14)
F3 F 1.15035(16) 0.97125(15) 1.11975(12)
F4 F 1.13200(17) 1.04676(15) 1.02740(13)
F5 F 1.00778(17) 0.97521(15) 0.89886(13)
F6 F 0.88197(18) 0.93300(16) 0.73162(14)
F7 F 0.96574(18) 1.07247(17) 0.82153(14)
F8 F 0.95866(18) 1.19484(16) 0.77992(15)
F9 F 0.86702(19) 1.17456(16) 0.64652(16)
F10 F 0.78427(18) 1.03547(14) 0.55623(14)
F11 F 0.31443(16) 0.10686(15) 0.15865(13)
F12 F 0.27112(18) -0.02956(16) 0.07930(14)
F13 F 0.37208(18) -0.04989(15) 0.02966(14)
F14 F 0.52122(17) 0.06934(14) 0.06496(13)
F15 F 0.56685(17) 0.20596(14) 0.14484(13)
F16 F 0.03271(16) 0.47332(15) 0.08899(13)
F17 F -0.09312(17) 0.39908(16) -0.03712(14)
F18 F -0.07218(17) 0.31438(15) -0.12809(13)
F19 F 0.08029(17) 0.31120(14) -0.09007(12)
F20 F 0.20721(15) 0.38616(13) 0.03595(12)
F21 F -0.13163(17) 0.37753(17) 0.24793(16)
F22 F -0.27802(18) 0.3222(2) 0.13195(17)
F23 F -0.28470(18) 0.2725(2) 0.01309(16)
F24 F -0.14307(19) 0.2733(2) 0.01159(15)
F25 F 0.00354(17) 0.32938(17) 0.12572(14)
F26 F 0.5462(3) 0.96080(19) 0.75809(15)
F27 F 0.6215(3) 1.1042(2) 0.83900(18)
F28 F 0.7259(2) 1.21747(19) 0.8160(2)
F29 F 0.7517(2) 1.18340(19) 0.7087(3)
F30 F 0.67438(19) 1.04067(16) 0.6266(2)
O1 O 0.63963(16) 0.62599(14) 0.63634(13)
O2 O 0.65181(16) 0.62139(15) 0.49322(13)
O3 O 0.56219(17) 0.44092(14) 0.40655(13)
O4 O 0.44985(16) 0.53947(15) 0.36302(13)
O5 O 0.32826(16) 0.51178(14) 0.43252(13)
O6 O 0.50995(16) 0.66370(14) 0.51229(13)
C1 C 0.6997(3) 0.6992(2) 0.6421(2)
C2 C 0.7659(3) 0.7401(2) 0.7152(2)
C3 C 0.7567(3) 0.7886(4) 0.7572(3)
C4 C 0.8195(4) 0.8270(4) 0.8238(3)
C5 C 0.8921(3) 0.8181(2) 0.8491(2)
C6 C 0.9016(4) 0.7705(3) 0.8072(3)
C7 C 0.8397(4) 0.7322(3) 0.7407(3)
C8 C 0.9601(3) 0.8588(2) 0.9207(2)
C9 C 1.0154(3) 0.9349(3) 0.9420(2)
C10 C 1.0791(3) 0.9728(3) 1.0084(2)
C11 C 1.0892(3) 0.9349(3) 1.0551(2)
C12 C 1.0368(3) 0.8594(3) 1.0357(2)
C13 C 0.9735(3) 0.8235(3) 0.9691(2)
C14 C 0.6436(3) 0.6720(2) 0.4531(2)
C15 C 0.6915(3) 0.7532(2) 0.4989(2)
C16 C 0.6502(3) 0.7978(2) 0.5027(2)
C17 C 0.6941(3) 0.8712(2) 0.5473(2)
C18 C 0.7810(3) 0.9010(2) 0.5902(2)
C19 C 0.8221(3) 0.8565(3) 0.5858(2)
C20 C 0.7781(3) 0.7835(2) 0.5403(2)
C21 C 0.8277(3) 0.9786(3) 0.6405(2)
C22 C 0.8266(3) 1.0425(3) 0.6219(2)
C23 C 0.8694(3) 1.1143(3) 0.6675(3)
C24 C 0.9164(3) 1.1245(3) 0.7351(3)
C25 C 0.9195(3) 1.0626(3) 0.7554(3)
C26 C 0.8762(3) 0.9914(3) 0.7092(2)
C27 C 0.5534(3) 0.4533(2) 0.3436(2)
C28 C 0.5247(3) 0.3787(2) 0.2941(2)
C29 C 0.5776(3) 0.3433(3) 0.3030(2)
C30 C 0.5513(3) 0.2735(2) 0.2585(2)
C31 C 0.4700(3) 0.2376(2) 0.2029(2)
C32 C 0.4164(3) 0.2718(3) 0.1934(2)
C33 C 0.4436(3) 0.3420(3) 0.2385(2)
C34 C 0.4422(3) 0.1620(3) 0.1551(2)
C35 C 0.4934(3) 0.1487(3) 0.1300(2)
C36 C 0.4706(3) 0.0789(3) 0.0884(2)
C37 C 0.3950(3) 0.0189(3) 0.0702(2)
C38 C 0.3435(3) 0.0294(3) 0.0938(2)
C39 C 0.3671(3) 0.0999(3) 0.1353(2)
C40 C 0.4019(3) 0.5819(2) 0.3432(2)
C41 C 0.3298(3) 0.5426(2) 0.2715(2)
C42 C 0.3006(3) 0.4653(2) 0.2399(2)
C43 C 0.2335(3) 0.4303(2) 0.1743(2)
C44 C 0.1951(3) 0.4715(2) 0.1392(2)
C45 C 0.2229(3) 0.5474(2) 0.1711(2)
C46 C 0.2898(3) 0.5829(2) 0.2370(2)
C47 C 0.1251(3) 0.4326(2) 0.0677(2)
C48 C 0.1330(3) 0.3905(2) 0.0195(2)
C49 C 0.0684(3) 0.3515(2) -0.0456(2)
C50 C -0.0077(3) 0.3536(2) -0.0643(2)
C51 C -0.0184(3) 0.3955(3) -0.0196(2)
C52 C 0.0480(3) 0.4347(3) 0.0459(2)
C53 C 0.2577(3) 0.4783(2) 0.4439(2)
C54 C 0.1768(3) 0.4466(2) 0.3776(2)
C55 C 0.1722(3) 0.4717(2) 0.3234(2)
C56 C 0.0965(3) 0.4420(3) 0.2627(2)
C57 C 0.0237(3) 0.3869(2) 0.2561(2)
C58 C 0.0284(3) 0.3606(3) 0.3104(2)
C59 C 0.1044(3) 0.3895(3) 0.3703(2)
C60 C -0.0577(3) 0.3565(3) 0.1918(2)
C61 C -0.0649(3) 0.3296(3) 0.1301(3)
C62 C -0.1402(3) 0.3002(3) 0.0696(3)
C63 C -0.2108(3) 0.2996(3) 0.0718(3)
C64 C -0.2071(3) 0.3249(3) 0.1315(3)
C65 C -0.1323(3) 0.3527(3) 0.1907(3)
C66 C 0.4454(3) 0.6843(2) 0.5144(2)
C67 C 0.4874(3) 0.7648(2) 0.5597(2)
C68 C 0.4797(3) 0.8232(2) 0.5339(2)
C69 C 0.5192(3) 0.8973(3) 0.5759(2)
C70 C 0.5668(3) 0.9147(2) 0.6444(2)
C71 C 0.5750(3) 0.8567(3) 0.6709(2)
C72 C 0.5364(3) 0.7826(2) 0.6287(2)
C73 C 0.6085(3) 0.9943(3) 0.6897(3)
C74 C 0.5975(4) 1.0148(3) 0.7445(3)
C75 C 0.6362(5) 1.0884(4) 0.7868(3)
C76 C 0.6886(4) 1.1456(4) 0.7756(4)
C77 C 0.7011(4) 1.1283(3) 0.7218(4)
C78 C 0.6615(3) 1.0545(3) 0.6797(3)
B1 B 0.5819(3) 0.5729(3) 0.5748(2)
B2 B 0.5821(3) 0.5712(3) 0.4961(2)
B3 B 0.5334(3) 0.4713(3) 0.4448(2)
B4 B 0.4730(3) 0.5234(3) 0.4248(2)
B5 B 0.4042(3) 0.5067(2) 0.4656(2)
B6 B 0.5019(3) 0.5903(3) 0.5036(2)
H1 H 0.6698 0.7302 0.6246
H2 H 0.7270 0.6912 0.6150
H3 H 0.7067 0.7961 0.7405
H4 H 0.9519 0.7635 0.8239
H5 H 0.8485 0.7000 0.7123
H6 H 0.5831 0.6600 0.4255
H7 H 0.6664 0.6650 0.4222
H8 H 0.5909 0.7778 0.4742
H9 H 0.6648 0.9013 0.5487
H10 H 0.8814 0.8761 0.6145
H11 H 0.8077 0.7542 0.5375
H12 H 0.6083 0.4903 0.3506
H13 H 0.5115 0.4742 0.3262
H14 H 0.6332 0.3673 0.3405
H15 H 0.5886 0.2500 0.2659
H16 H 0.3608 0.2476 0.1560
H17 H 0.4061 0.3653 0.2314
H18 H 0.4394 0.6332 0.3468
H19 H 0.3789 0.5883 0.3741
H20 H 0.3267 0.4367 0.2631
H21 H 0.2136 0.3776 0.1532
H22 H 0.1961 0.5757 0.1481
H23 H 0.3083 0.6352 0.2584
H24 H 0.2575 0.5172 0.4761
H25 H 0.2624 0.4371 0.4636
H26 H 0.2215 0.5100 0.3274
H27 H 0.0950 0.4597 0.2256
H28 H -0.0209 0.3224 0.3066
H29 H 0.1068 0.3700 0.4066
H30 H 0.4138 0.6497 0.5318
H31 H 0.4050 0.6799 0.4684
H32 H 0.4469 0.8123 0.4866
H33 H 0.5134 0.9366 0.5572
H34 H 0.8116 0.8601 0.8521
H35 H 0.6073 0.8678 0.7183
H36 H 0.5437 0.7435 0.6473
F1A F 0.0789(2) 0.25086(15) 0.04805(13)
F2A F -0.0464(2) 0.17827(16) -0.08037(14)
F3A F -0.15035(16) 0.02875(15) -0.11975(12)
F4A F -0.13200(17) -0.04676(15) -0.02740(13)
F5A F -0.00778(17) 0.02479(15) 0.10114(13)
F6A F 0.11803(18) 0.06700(16) 0.26838(14)
F7A F 0.03426(18) -0.07247(17) 0.17847(14)
F8A F 0.04134(18) -0.19484(16) 0.22008(15)
F9A F 0.13298(19) -0.17456(16) 0.35348(16)
F10A F 0.21573(18) -0.03547(14) 0.44377(14)
F11A F 0.68557(16) 0.89314(15) 0.84135(13)
F12A F 0.72888(18) 1.02956(16) 0.92070(14)
F13A F 0.62792(18) 1.04989(15) 0.97034(14)
F14A F 0.47878(17) 0.93066(14) 0.93504(13)
F15A F 0.43315(17) 0.79404(14) 0.85516(13)
F16A F 0.96729(16) 0.52668(15) 0.91101(13)
F17A F 1.09312(17) 0.60092(16) 1.03712(14)
F18A F 1.07218(17) 0.68562(15) 1.12809(13)
F19A F 0.91971(17) 0.68880(14) 1.09007(12)
F20A F 0.79279(15) 0.61384(13) 0.96405(12)
F21A F 1.13163(17) 0.62247(17) 0.75207(16)
F22A F 1.27802(18) 0.6778(2) 0.86805(17)
F23A F 1.28470(18) 0.7275(2) 0.98691(16)
F24A F 1.14307(19) 0.7267(2) 0.98841(15)
F25A F 0.99646(17) 0.67062(17) 0.87428(14)
F26A F 0.4538(3) 0.03920(19) 0.24191(15)
F27A F 0.3785(3) -0.1042(2) 0.16100(18)
F28A F 0.2741(2) -0.21747(19) 0.1840(2)
F29A F 0.2483(2) -0.18340(19) 0.2913(3)
F30A F 0.32562(19) -0.04067(16) 0.3734(2)
O1A O 0.36037(16) 0.37401(14) 0.36366(13)
O2A O 0.34819(16) 0.37861(15) 0.50678(13)
O3A O 0.43781(17) 0.55908(14) 0.59345(13)
O4A O 0.55015(16) 0.46053(15) 0.63698(13)
O5A O 0.67174(16) 0.48822(14) 0.56748(13)
O6A O 0.49005(16) 0.33630(14) 0.48771(13)
C1A C 0.3003(3) 0.3008(2) 0.3579(2)
C2A C 0.2341(3) 0.2599(2) 0.2848(2)
C3A C 0.2433(3) 0.2114(4) 0.2428(3)
C4A C 0.1805(4) 0.1730(4) 0.1762(3)
C5A C 0.1079(3) 0.1819(2) 0.1509(2)
C6A C 0.0984(4) 0.2295(3) 0.1928(3)
C7A C 0.1603(4) 0.2678(3) 0.2593(3)
C8A C 0.0399(3) 0.1412(2) 0.0793(2)
C9A C -0.0154(3) 0.0651(3) 0.0580(2)
C10A C -0.0791(3) 0.0272(3) -0.0084(2)
C11A C -0.0892(3) 0.0651(3) -0.0551(2)
C12A C -0.0368(3) 0.1406(3) -0.0357(2)
C13A C 0.0265(3) 0.1765(3) 0.0309(2)
C14A C 0.3564(3) 0.3280(2) 0.5469(2)
C15A C 0.3085(3) 0.2468(2) 0.5011(2)
C16A C 0.3498(3) 0.2022(2) 0.4973(2)
C17A C 0.3059(3) 0.1288(2) 0.4527(2)
C18A C 0.2190(3) 0.0990(2) 0.4098(2)
C19A C 0.1779(3) 0.1435(3) 0.4142(2)
C20A C 0.2219(3) 0.2165(2) 0.4597(2)
C21A C 0.1723(3) 0.0214(3) 0.3595(2)
C22A C 0.1734(3) -0.0425(3) 0.3781(2)
C23A C 0.1306(3) -0.1143(3) 0.3325(3)
C24A C 0.0836(3) -0.1245(3) 0.2649(3)
C25A C 0.0805(3) -0.0626(3) 0.2446(3)
C26A C 0.1238(3) 0.0086(3) 0.2908(2)
C27A C 0.4466(3) 0.5467(2) 0.6564(2)
C28A C 0.4753(3) 0.6213(2) 0.7059(2)
C29A C 0.4224(3) 0.6567(3) 0.6970(2)
C30A C 0.4487(3) 0.7265(2) 0.7415(2)
C31A C 0.5300(3) 0.7624(2) 0.7971(2)
C32A C 0.5836(3) 0.7282(3) 0.8066(2)
C33A C 0.5564(3) 0.6580(3) 0.7615(2)
C34A C 0.5578(3) 0.8380(3) 0.8449(2)
C35A C 0.5066(3) 0.8513(3) 0.8700(2)
C36A C 0.5294(3) 0.9211(3) 0.9116(2)
C37A C 0.6050(3) 0.9811(3) 0.9298(2)
C38A C 0.6565(3) 0.9706(3) 0.9062(2)
C39A C 0.6329(3) 0.9001(3) 0.8647(2)
C40A C 0.5981(3) 0.4181(2) 0.6568(2)
C41A C 0.6702(3) 0.4574(2) 0.7285(2)
C42A C 0.6994(3) 0.5347(2) 0.7601(2)
C43A C 0.7665(3) 0.5697(2) 0.8257(2)
C44A C 0.8049(3) 0.5285(2) 0.8608(2)
C45A C 0.7771(3) 0.4526(2) 0.8289(2)
C46A C 0.7102(3) 0.4171(2) 0.7630(2)
C47A C 0.8749(3) 0.5674(2) 0.9323(2)
C48A C 0.8670(3) 0.6095(2) 0.9805(2)
C49A C 0.9316(3) 0.6485(2) 1.0456(2)
C50A C 1.0077(3) 0.6464(2) 1.0643(2)
C51A C 1.0184(3) 0.6045(3) 1.0196(2)
C52A C 0.9520(3) 0.5653(3) 0.9541(2)
C53A C 0.7423(3) 0.5217(2) 0.5561(2)
C54A C 0.8232(3) 0.5534(2) 0.6224(2)
C55A C 0.8278(3) 0.5283(2) 0.6766(2)
C56A C 0.9035(3) 0.5580(3) 0.7373(2)
C57A C 0.9763(3) 0.6131(2) 0.7439(2)
C58A C 0.9716(3) 0.6394(3) 0.6896(2)
C59A C 0.8956(3) 0.6105(3) 0.6297(2)
C60A C 1.0577(3) 0.6435(3) 0.8082(2)
C61A C 1.0649(3) 0.6704(3) 0.8699(3)
C62A C 1.1402(3) 0.6998(3) 0.9304(3)
C63A C 1.2108(3) 0.7004(3) 0.9282(3)
C64A C 1.2071(3) 0.6751(3) 0.8685(3)
C65A C 1.1323(3) 0.6473(3) 0.8093(3)
C66A C 0.5546(3) 0.3157(2) 0.4856(2)
C67A C 0.5126(3) 0.2352(2) 0.4403(2)
C68A C 0.5203(3) 0.1768(2) 0.4661(2)
C69A C 0.4808(3) 0.1027(3) 0.4241(2)
C70A C 0.4332(3) 0.0853(2) 0.3556(2)
C71A C 0.4250(3) 0.1433(3) 0.3291(2)
C72A C 0.4636(3) 0.2174(2) 0.3713(2)
C73A C 0.3915(3) 0.0057(3) 0.3103(3)
C74A C 0.4025(4) -0.0148(3) 0.2555(3)
C75A C 0.3638(5) -0.0884(4) 0.2132(3)
C76A C 0.3114(4) -0.1456(4) 0.2244(4)
C77A C 0.2989(4) -0.1283(3) 0.2782(4)
C78A C 0.3385(3) -0.0545(3) 0.3203(3)
B1A B 0.4181(3) 0.4271(3) 0.4252(2)
B2A B 0.4179(3) 0.4288(3) 0.5039(2)
B3A B 0.4666(3) 0.5287(3) 0.5552(2)
B4A B 0.5270(3) 0.4766(3) 0.5752(2)
B5A B 0.5958(3) 0.4933(2) 0.5344(2)
B6A B 0.4981(3) 0.4097(3) 0.4964(2)
H1A H 0.3302 0.2698 0.3754
H2A H 0.2730 0.3088 0.3850
H3A H 0.2933 0.2039 0.2595
H4A H 0.0481 0.2365 0.1761
H5A H 0.1515 0.3000 0.2877
H6A H 0.4169 0.3400 0.5745
H7A H 0.3336 0.3350 0.5778
H8A H 0.4091 0.2222 0.5258
H9A H 0.3352 0.0987 0.4513
H10A H 0.1186 0.1239 0.3855
H11A H 0.1923 0.2458 0.4625
H12A H 0.3917 0.5097 0.6494
H13A H 0.4885 0.5258 0.6738
H14A H 0.3668 0.6327 0.6595
H15A H 0.4114 0.7500 0.7341
H16A H 0.6392 0.7524 0.8440
H17A H 0.5939 0.6347 0.7686
H18A H 0.5606 0.3668 0.6532
H19A H 0.6211 0.4117 0.6259
H20A H 0.6733 0.5633 0.7369
H21A H 0.7864 0.6224 0.8468
H22A H 0.8039 0.4243 0.8519
H23A H 0.6917 0.3648 0.7416
H24A H 0.7425 0.4828 0.5239
H25A H 0.7376 0.5629 0.5364
H26A H 0.7785 0.4900 0.6726
H27A H 0.9050 0.5403 0.7744
H28A H 1.0209 0.6776 0.6934
H29A H 0.8932 0.6300 0.5934
H30A H 0.5862 0.3503 0.4682
H31A H 0.5950 0.3201 0.5316
H32A H 0.5531 0.1877 0.5134
H33A H 0.4866 0.0634 0.4428
H34A H 0.1884 0.1399 0.1479
H35A H 0.3927 0.1322 0.2817
H36A H 0.4563 0.2565 0.3527
F31 F 0.8579(3) 0.4860(3) 0.46435(18)
F32 F 1.0023(3) 0.5496(3) 0.5807(2)
F33 F 1.1204(3) 0.6907(4) 0.6079(2)
F34 F 1.0949(3) 0.7640(3) 0.5133(2)
F35 F 0.9553(2) 0.6965(2) 0.3935(2)
F36 F 1.02584(17) 0.96650(16) 0.39830(14)
F37 F 1.14256(17) 1.03519(16) 0.52880(14)
F38 F 1.13042(18) 0.96692(19) 0.62324(14)
F39 F 0.9958(2) 0.8296(2) 0.58327(15)
F40 F 0.87656(18) 0.76322(18) 0.45419(14)
F41 F 0.78918(19) 1.03080(15) 0.05057(17)
F42 F 0.8788(2) 1.16756(17) 0.1458(2)
F43 F 0.9739(2) 1.18061(18) 0.27716(18)
F44 F 0.97620(19) 1.05348(18) 0.31083(15)
F45 F 0.88751(18) 0.91822(17) 0.21683(14)
F46 F 0.6830(2) 1.04570(17) 0.1172(2)
F47 F 0.7504(3) 1.1905(2) 0.1931(3)
F48 F 0.7253(3) 1.2254(2) 0.3001(3)
F49 F 0.6361(3) 1.1118(2) 0.3333(2)
F50 F 0.5684(3) 0.9672(2) 0.25710(17)
F51 F 0.01341(19) 0.4457(3) -0.35172(16)
F52 F -0.1324(2) 0.3873(3) -0.46854(17)
F53 F -0.28091(18) 0.3089(2) -0.47404(15)
F54 F -0.28369(18) 0.2940(2) -0.35893(16)
F55 F -0.13835(17) 0.34672(19) -0.24184(16)
F56 F 0.43946(17) 0.80325(14) 0.35541(13)
F57 F 0.48857(18) 0.93880(14) 0.43940(13)
F58 F 0.63791(18) 1.05734(14) 0.47446(14)
F59 F 0.73804(17) 1.03736(15) 0.42320(14)
F60 F 0.69082(16) 0.90065(15) 0.34136(13)
O7 O 0.55201(16) 0.46861(14) 0.13999(13)
O8 O 0.64410(16) 0.62855(14) 0.13285(13)
O9 O 0.65135(15) 0.61418(14) -0.01251(13)
O10 O 0.51366(16) 0.66421(14) 0.00734(13)
O11 O 0.33171(15) 0.51682(14) -0.06725(13)
O12 O 0.44355(16) 0.56867(14) 0.09370(13)
C79 C 0.6002(3) 0.4268(2) 0.1621(2)
C80 C 0.6773(3) 0.4715(3) 0.2303(2)
C81 C 0.7264(3) 0.4357(3) 0.2611(2)
C82 C 0.7977(3) 0.4746(4) 0.3234(3)
C83 C 0.8209(3) 0.5484(4) 0.3571(2)
C84 C 0.7735(3) 0.5855(3) 0.3264(2)
C85 C 0.7017(3) 0.5466(3) 0.2626(2)
C86 C 0.8984(4) 0.5875(4) 0.4248(3)
C87 C 0.9167(5) 0.5561(5) 0.4751(3)
C88 C 0.9903(6) 0.5887(7) 0.5340(3)
C89 C 1.0462(6) 0.6556(7) 0.5509(5)
C90 C 1.0348(5) 0.6942(6) 0.5022(5)
C91 C 0.9607(5) 0.6573(5) 0.4405(3)
C92 C 0.7084(3) 0.6982(2) 0.1382(2)
C93 C 0.7697(3) 0.7409(2) 0.2112(2)
C94 C 0.8555(3) 0.7598(3) 0.2363(2)
C95 C 0.9127(3) 0.7999(3) 0.3044(2)
C96 C 0.8852(3) 0.8210(3) 0.3481(2)
C97 C 0.8000(3) 0.8028(3) 0.3229(2)
C98 C 0.7438(3) 0.7634(3) 0.2558(2)
C99 C 0.9477(3) 0.8620(3) 0.4215(2)
C100 C 1.0176(3) 0.9316(3) 0.4436(3)
C101 C 1.0775(3) 0.9673(3) 0.5103(3)
C102 C 1.0709(3) 0.9331(3) 0.5578(3)
C103 C 1.0029(4) 0.8647(3) 0.5378(3)
C104 C 0.9419(3) 0.8314(3) 0.4706(3)
C105 C 0.6425(3) 0.6620(2) -0.0551(2)
C106 C 0.6920(3) 0.7439(2) -0.0122(2)
C107 C 0.6524(3) 0.7897(2) -0.0060(2)
C108 C 0.6975(3) 0.8632(2) 0.0379(2)
C109 C 0.7845(3) 0.8926(2) 0.0775(2)
C110 C 0.8252(3) 0.8474(2) 0.0708(2)
C111 C 0.7795(3) 0.7748(2) 0.0260(2)
C112 C 0.8346(3) 0.9691(3) 0.1297(2)
C113 C 0.8838(3) 0.9781(3) 0.1969(3)
C114 C 0.9296(3) 1.0481(3) 0.2458(3)
C115 C 0.9289(4) 1.1117(3) 0.2295(3)
C116 C 0.8809(4) 1.1059(3) 0.1636(3)
C117 C 0.8341(3) 1.0348(3) 0.1146(3)
C118 C 0.4525(3) 0.6883(2) 0.0122(2)
C119 C 0.4985(3) 0.7693(2) 0.0574(2)
C120 C 0.4854(3) 0.8263(2) 0.0316(2)
C121 C 0.5281(3) 0.9016(2) 0.0732(2)
C122 C 0.5833(3) 0.9199(2) 0.1413(3)
C123 C 0.5968(3) 0.8629(3) 0.1665(2)
C124 C 0.5552(3) 0.7888(3) 0.1246(2)
C125 C 0.6252(3) 1.0010(3) 0.1852(3)
C126 C 0.6717(4) 1.0600(3) 0.1721(4)
C127 C 0.7072(4) 1.1364(4) 0.2094(5)
C128 C 0.6942(5) 1.1528(4) 0.2638(5)
C129 C 0.6486(5) 1.0959(5) 0.2802(4)
C130 C 0.6144(4) 1.0209(4) 0.2405(3)
C131 C 0.2648(2) 0.4950(2) -0.0507(2)
C132 C 0.1826(2) 0.4712(2) -0.1130(2)
C133 C 0.1184(3) 0.4880(2) -0.1114(2)
C134 C 0.0411(3) 0.4621(2) -0.1688(2)
C135 C 0.0267(3) 0.4207(3) -0.2295(2)
C136 C 0.0909(3) 0.4049(3) -0.2320(2)
C137 C 0.1682(3) 0.4305(3) -0.1738(2)
C138 C -0.0562(3) 0.3934(3) -0.2933(2)
C139 C -0.1340(3) 0.3563(3) -0.2972(3)
C140 C -0.2092(3) 0.3288(3) -0.3568(3)
C141 C -0.2082(3) 0.3370(3) -0.4143(3)
C142 C -0.1333(4) 0.3759(4) -0.4123(3)
C143 C -0.0588(3) 0.4044(4) -0.3517(3)
C144 C 0.4477(3) 0.5553(2) 0.1553(2)
C145 C 0.4780(3) 0.6304(2) 0.2051(2)
C146 C 0.5521(3) 0.6593(2) 0.2660(2)
C147 C 0.5800(3) 0.7297(3) 0.3112(2)
C148 C 0.5350(3) 0.7720(2) 0.2968(2)
C149 C 0.4602(3) 0.7430(3) 0.2358(2)
C150 C 0.4326(3) 0.6733(3) 0.1911(2)
C151 C 0.5640(3) 0.8470(2) 0.3453(2)
C152 C 0.5139(3) 0.8600(2) 0.3715(2)
C153 C 0.5388(3) 0.9296(3) 0.4149(2)
C154 C 0.6142(3) 0.9895(3) 0.4328(2)
C155 C 0.6651(3) 0.9783(3) 0.4077(2)
C156 C 0.6392(3) 0.9079(3) 0.3655(2)
B7 B 0.5285(3) 0.4812(2) 0.0770(2)
B8 B 0.5843(3) 0.5742(2) 0.0725(2)
B9 B 0.5824(3) 0.5671(2) -0.0069(2)
B10 B 0.5040(3) 0.5900(2) 0.0008(2)
B11 B 0.4064(3) 0.5096(2) -0.0339(2)
B12 B 0.4697(3) 0.5343(2) 0.0557(2)
H37 H 0.4217 0.6552 0.0311
H38 H 0.4109 0.6843 -0.0331
H39 H 0.2743 0.5384 -0.0162
H40 H 0.2635 0.4524 -0.0318
H41 H 0.4873 0.5322 0.1734
H42 H 0.3911 0.5199 0.1466
H43 H 0.6180 0.4139 0.1289
H44 H 0.5644 0.3787 0.1646
H45 H 0.7109 0.3843 0.2392
H46 H 0.8316 0.4497 0.3436
H47 H 0.7896 0.6370 0.3485
H48 H 0.6694 0.5722 0.2413
H49 H 0.6818 0.7297 0.1166
H50 H 0.7384 0.6860 0.1149
H51 H 0.8751 0.7453 0.2069
H52 H 0.9711 0.8128 0.3209
H53 H 0.7804 0.8176 0.3522
H54 H 0.6855 0.7512 0.2395
H55 H 0.5820 0.6505 -0.0820
H56 H 0.6635 0.6519 -0.0867
H57 H 0.8083 0.7453 0.0212
H58 H 0.8849 0.8671 0.0974
H59 H 0.6689 0.8934 0.0411
H60 H 0.5927 0.7701 -0.0328
H61 H 0.4470 0.8140 -0.0149
H62 H 0.5194 0.9405 0.0550
H63 H 0.6351 0.8748 0.2129
H64 H 0.5658 0.7503 0.1426
H65 H 0.2118 0.4198 -0.1761
H66 H 0.0820 0.3765 -0.2735
H67 H -0.0025 0.4729 -0.1665
H68 H 0.1279 0.5176 -0.0702
H69 H 0.3811 0.6542 0.1498
H70 H 0.4280 0.7714 0.2249
H71 H 0.6312 0.7488 0.3527
H72 H 0.5843 0.6309 0.2771
F31A F 0.1421(3) 0.5140(3) -0.46435(18)
F32A F -0.0023(3) 0.4504(3) -0.5807(2)
F33A F -0.1204(3) 0.3093(4) -0.6079(2)
F34A F -0.0949(3) 0.2360(3) -0.5133(2)
F35A F 0.0447(2) 0.3035(2) -0.3935(2)
F36A F -0.02584(17) 0.03350(16) -0.39830(14)
F37A F -0.14256(17) -0.03519(16) -0.52880(14)
F38A F -0.13042(18) 0.03308(19) -0.62324(14)
F39A F 0.0042(2) 0.1704(2) -0.58327(15)
F40A F 0.12344(18) 0.23678(18) -0.45419(14)
F41A F 0.21082(19) -0.03080(15) -0.05057(17)
F42A F 0.1212(2) -0.16756(17) -0.1458(2)
F43A F 0.0261(2) -0.18061(18) -0.27716(18)
F44A F 0.02380(19) -0.05348(18) -0.31083(15)
F45A F 0.11249(18) 0.08178(17) -0.21683(14)
F46A F 0.3170(2) -0.04570(17) -0.1172(2)
F47A F 0.2496(3) -0.1905(2) -0.1931(3)
F48A F 0.2747(3) -0.2254(2) -0.3001(3)
F49A F 0.3639(3) -0.1118(2) -0.3333(2)
F50A F 0.4316(3) 0.0328(2) -0.25710(17)
F51A F 0.98659(19) 0.5543(3) 0.35172(16)
F52A F 1.1324(2) 0.6127(3) 0.46854(17)
F53A F 1.28091(18) 0.6911(2) 0.47404(15)
F54A F 1.28369(18) 0.7060(2) 0.35893(16)
F55A F 1.13835(17) 0.65328(19) 0.24184(16)
F56A F 0.56054(17) 0.19675(14) -0.35541(13)
F57A F 0.51143(18) 0.06120(14) -0.43940(13)
F58A F 0.36209(18) -0.05734(14) -0.47446(14)
F59A F 0.26196(17) -0.03736(15) -0.42320(14)
F60A F 0.30918(16) 0.09935(15) -0.34136(13)
O7A O 0.44799(16) 0.53139(14) -0.13999(13)
O8A O 0.35590(16) 0.37145(14) -0.13285(13)
O9A O 0.34865(15) 0.38582(14) 0.01251(13)
O10A O 0.48634(16) 0.33579(14) -0.00734(13)
O11A O 0.66829(15) 0.48318(14) 0.06725(13)
O12A O 0.55645(16) 0.43133(14) -0.09370(13)
C79A C 0.3998(3) 0.5732(2) -0.1621(2)
C80A C 0.3227(3) 0.5285(3) -0.2303(2)
C81A C 0.2736(3) 0.5643(3) -0.2611(2)
C82A C 0.2023(3) 0.5254(4) -0.3234(3)
C83A C 0.1791(3) 0.4516(4) -0.3571(2)
C84A C 0.2265(3) 0.4145(3) -0.3264(2)
C85A C 0.2983(3) 0.4534(3) -0.2626(2)
C86A C 0.1016(4) 0.4125(4) -0.4248(3)
C87A C 0.0833(5) 0.4439(5) -0.4751(3)
C88A C 0.0097(6) 0.4113(7) -0.5340(3)
C89A C -0.0462(6) 0.3444(7) -0.5509(5)
C90A C -0.0348(5) 0.3058(6) -0.5022(5)
C91A C 0.0393(5) 0.3427(5) -0.4405(3)
C92A C 0.2916(3) 0.3018(2) -0.1382(2)
C93A C 0.2303(3) 0.2591(2) -0.2112(2)
C94A C 0.1445(3) 0.2402(3) -0.2363(2)
C95A C 0.0873(3) 0.2001(3) -0.3044(2)
C96A C 0.1148(3) 0.1790(3) -0.3481(2)
C97A C 0.2000(3) 0.1972(3) -0.3229(2)
C98A C 0.2562(3) 0.2366(3) -0.2558(2)
C99A C 0.0523(3) 0.1380(3) -0.4215(2)
C100A C -0.0176(3) 0.0684(3) -0.4436(3)
C101A C -0.0775(3) 0.0327(3) -0.5103(3)
C102A C -0.0709(3) 0.0669(3) -0.5578(3)
C103A C -0.0029(4) 0.1353(3) -0.5378(3)
C104A C 0.0581(3) 0.1686(3) -0.4706(3)
C105A C 0.3575(3) 0.3380(2) 0.0551(2)
C106A C 0.3080(3) 0.2561(2) 0.0122(2)
C107A C 0.3476(3) 0.2103(2) 0.0060(2)
C108A C 0.3025(3) 0.1368(2) -0.0379(2)
C109A C 0.2155(3) 0.1074(2) -0.0775(2)
C110A C 0.1748(3) 0.1526(2) -0.0708(2)
C111A C 0.2205(3) 0.2252(2) -0.0260(2)
C112A C 0.1654(3) 0.0309(3) -0.1297(2)
C113A C 0.1162(3) 0.0219(3) -0.1969(3)
C114A C 0.0704(3) -0.0481(3) -0.2458(3)
C115A C 0.0711(4) -0.1117(3) -0.2295(3)
C116A C 0.1191(4) -0.1059(3) -0.1636(3)
C117A C 0.1659(3) -0.0348(3) -0.1146(3)
C118A C 0.5475(3) 0.3117(2) -0.0122(2)
C119A C 0.5015(3) 0.2307(2) -0.0574(2)
C120A C 0.5146(3) 0.1737(2) -0.0316(2)
C121A C 0.4719(3) 0.0984(2) -0.0732(2)
C122A C 0.4167(3) 0.0801(2) -0.1413(3)
C123A C 0.4032(3) 0.1371(3) -0.1665(2)
C124A C 0.4448(3) 0.2112(3) -0.1246(2)
C125A C 0.3748(3) -0.0010(3) -0.1852(3)
C126A C 0.3283(4) -0.0600(3) -0.1721(4)
C127A C 0.2928(4) -0.1364(4) -0.2094(5)
C128A C 0.3058(5) -0.1528(4) -0.2638(5)
C129A C 0.3514(5) -0.0959(5) -0.2802(4)
C130A C 0.3856(4) -0.0209(4) -0.2405(3)
C131A C 0.7352(2) 0.5050(2) 0.0507(2)
C132A C 0.8174(2) 0.5288(2) 0.1130(2)
C133A C 0.8816(3) 0.5120(2) 0.1114(2)
C134A C 0.9589(3) 0.5379(2) 0.1688(2)
C135A C 0.9733(3) 0.5793(3) 0.2295(2)
C136A C 0.9091(3) 0.5951(3) 0.2320(2)
C137A C 0.8318(3) 0.5695(3) 0.1738(2)
C138A C 1.0562(3) 0.6066(3) 0.2933(2)
C139A C 1.1340(3) 0.6437(3) 0.2972(3)
C140A C 1.2092(3) 0.6712(3) 0.3568(3)
C141A C 1.2082(3) 0.6630(3) 0.4143(3)
C142A C 1.1333(4) 0.6241(4) 0.4123(3)
C143A C 1.0588(3) 0.5956(4) 0.3517(3)
C144A C 0.5523(3) 0.4447(2) -0.1553(2)
C145A C 0.5220(3) 0.3696(2) -0.2051(2)
C146A C 0.4479(3) 0.3407(2) -0.2660(2)
C147A C 0.4200(3) 0.2703(3) -0.3112(2)
C148A C 0.4650(3) 0.2280(2) -0.2968(2)
C149A C 0.5398(3) 0.2570(3) -0.2358(2)
C150A C 0.5674(3) 0.3267(3) -0.1911(2)
C151A C 0.4360(3) 0.1530(2) -0.3453(2)
C152A C 0.4861(3) 0.1400(2) -0.3715(2)
C153A C 0.4612(3) 0.0704(3) -0.4149(2)
C154A C 0.3858(3) 0.0105(3) -0.4328(2)
C155A C 0.3349(3) 0.0217(3) -0.4077(2)
C156A C 0.3608(3) 0.0921(3) -0.3655(2)
B7A B 0.4715(3) 0.5188(2) -0.0770(2)
B8A B 0.4157(3) 0.4258(2) -0.0725(2)
B9A B 0.4176(3) 0.4329(2) 0.0069(2)
B10A B 0.4960(3) 0.4100(2) -0.0008(2)
B11A B 0.5936(3) 0.4904(2) 0.0339(2)
B12A B 0.5303(3) 0.4657(2) -0.0557(2)
H37A H 0.5783 0.3448 -0.0311
H38A H 0.5891 0.3157 0.0331
H39A H 0.7257 0.4616 0.0162
H40A H 0.7365 0.5476 0.0318
H41A H 0.5127 0.4678 -0.1734
H42A H 0.6089 0.4801 -0.1466
H43A H 0.3820 0.5861 -0.1289
H44A H 0.4356 0.6213 -0.1646
H45A H 0.2891 0.6157 -0.2392
H46A H 0.1684 0.5503 -0.3436
H47A H 0.2104 0.3630 -0.3485
H48A H 0.3306 0.4278 -0.2413
H49A H 0.3182 0.2703 -0.1166
H50A H 0.2616 0.3140 -0.1149
H51A H 0.1249 0.2547 -0.2069
H52A H 0.0289 0.1872 -0.3209
H53A H 0.2196 0.1824 -0.3522
H54A H 0.3145 0.2488 -0.2395
H55A H 0.4180 0.3495 0.0820
H56A H 0.3365 0.3481 0.0867
H57A H 0.1917 0.2547 -0.0212
H58A H 0.1151 0.1329 -0.0974
H59A H 0.3311 0.1066 -0.0411
H60A H 0.4073 0.2299 0.0328
H61A H 0.5530 0.1860 0.0149
H62A H 0.4806 0.0595 -0.0550
H63A H 0.3649 0.1252 -0.2129
H64A H 0.4342 0.2497 -0.1426
H65A H 0.7882 0.5802 0.1761
H66A H 0.9180 0.6235 0.2735
H67A H 1.0025 0.5271 0.1665
H68A H 0.8721 0.4824 0.0702
H69A H 0.6189 0.3458 -0.1498
H70A H 0.5720 0.2286 -0.2249
H71A H 0.3688 0.2512 -0.3527
H72A H 0.4157 0.3691 -0.2771
loop_
_geom_bond_atom_site_label_1
_geom_bond_atom_site_label_2
_geom_bond_site_symmetry_1
_geom_bond_site_symmetry_2
F1 C13 1_555 1_555
F2 C12 1_555 1_555
F3 C11 1_555 1_555
F4 C10 1_555 1_555
F5 C9 1_555 1_555
F6 C26 1_555 1_555
F7 C25 1_555 1_555
F8 C24 1_555 1_555
F9 C23 1_555 1_555
F10 C22 1_555 1_555
F11 C39 1_555 1_555
F12 C38 1_555 1_555
F13 C37 1_555 1_555
F14 C36 1_555 1_555
F15 C35 1_555 1_555
F16 C52 1_555 1_555
F17 C51 1_555 1_555
F18 C50 1_555 1_555
F19 C49 1_555 1_555
F20 C48 1_555 1_555
F21 C65 1_555 1_555
F22 C64 1_555 1_555
F23 C63 1_555 1_555
F24 C62 1_555 1_555
F25 C61 1_555 1_555
F26 C74 1_555 1_555
F27 C75 1_555 1_555
F28 C76 1_555 1_555
F29 C77 1_555 1_555
F30 C78 1_555 1_555
O1 C1 1_555 1_555
O2 C14 1_555 1_555
O3 C27 1_555 1_555
O4 C40 1_555 1_555
O5 C53 1_555 1_555
O6 C66 1_555 1_555
C1 C2 1_555 1_555
C2 C3 1_555 1_555
C3 C4 1_555 1_555
C4 C5 1_555 1_555
C5 C6 1_555 1_555
C6 C7 1_555 1_555
C7 C2 1_555 1_555
C8 C5 1_555 1_555
C9 C8 1_555 1_555
C10 C9 1_555 1_555
C11 C10 1_555 1_555
C12 C11 1_555 1_555
C13 C8 1_555 1_555
C14 C15 1_555 1_555
C15 C16 1_555 1_555
C16 C17 1_555 1_555
C17 C18 1_555 1_555
C18 C19 1_555 1_555
C19 C20 1_555 1_555
C20 C15 1_555 1_555
C21 C18 1_555 1_555
C22 C21 1_555 1_555
C23 C22 1_555 1_555
C24 C23 1_555 1_555
C25 C24 1_555 1_555
C26 C21 1_555 1_555
C27 C28 1_555 1_555
C28 C29 1_555 1_555
C29 C30 1_555 1_555
C30 C31 1_555 1_555
C31 C32 1_555 1_555
C32 C33 1_555 1_555
C33 C28 1_555 1_555
C34 C31 1_555 1_555
C35 C34 1_555 1_555
C36 C35 1_555 1_555
C37 C36 1_555 1_555
C38 C37 1_555 1_555
C39 C34 1_555 1_555
C40 C41 1_555 1_555
C41 C42 1_555 1_555
C42 C43 1_555 1_555
C43 C44 1_555 1_555
C44 C45 1_555 1_555
C45 C46 1_555 1_555
C46 C41 1_555 1_555
C47 C44 1_555 1_555
C48 C47 1_555 1_555
C49 C48 1_555 1_555
C50 C49 1_555 1_555
C51 C50 1_555 1_555
C52 C47 1_555 1_555
C53 C54 1_555 1_555
C54 C55 1_555 1_555
C55 C56 1_555 1_555
C56 C57 1_555 1_555
C57 C58 1_555 1_555
C58 C59 1_555 1_555
C59 C54 1_555 1_555
C60 C57 1_555 1_555
C61 C60 1_555 1_555
C62 C61 1_555 1_555
C63 C62 1_555 1_555
C64 C63 1_555 1_555
C65 C60 1_555 1_555
C66 C67 1_555 1_555
C67 C68 1_555 1_555
C68 C69 1_555 1_555
C69 C70 1_555 1_555
C70 C71 1_555 1_555
C71 C72 1_555 1_555
C72 C67 1_555 1_555
C73 C70 1_555 1_555
C74 C73 1_555 1_555
C75 C74 1_555 1_555
C76 C75 1_555 1_555
C77 C76 1_555 1_555
C78 C73 1_555 1_555
B1 O1 1_555 1_555
B2 O2 1_555 1_555
B3 O3 1_555 1_555
B4 O4 1_555 1_555
B5 O5 1_555 1_555
B6 O6 1_555 1_555
H1 C1 1_555 1_555
H2 C1 1_555 1_555
H3 C3 1_555 1_555
H4 C6 1_555 1_555
H5 C7 1_555 1_555
H6 C14 1_555 1_555
H7 C14 1_555 1_555
H8 C16 1_555 1_555
H9 C17 1_555 1_555
H10 C19 1_555 1_555
H11 C20 1_555 1_555
H12 C27 1_555 1_555
H13 C27 1_555 1_555
H14 C29 1_555 1_555
H15 C30 1_555 1_555
H16 C32 1_555 1_555
H17 C33 1_555 1_555
H18 C40 1_555 1_555
H19 C40 1_555 1_555
H20 C42 1_555 1_555
H21 C43 1_555 1_555
H22 C45 1_555 1_555
H23 C46 1_555 1_555
H24 C53 1_555 1_555
H25 C53 1_555 1_555
H26 C55 1_555 1_555
H27 C56 1_555 1_555
H28 C58 1_555 1_555
H29 C59 1_555 1_555
H30 C66 1_555 1_555
H31 C66 1_555 1_555
H32 C68 1_555 1_555
H33 C69 1_555 1_555
H34 C4 1_555 1_555
H35 C71 1_555 1_555
H36 C72 1_555 1_555
F31 C87 1_555 1_555
F32 C88 1_555 1_555
F33 C89 1_555 1_555
F34 C90 1_555 1_555
F35 C91 1_555 1_555
F36 C100 1_555 1_555
F37 C101 1_555 1_555
F38 C102 1_555 1_555
F39 C103 1_555 1_555
F40 C104 1_555 1_555
F41 C117 1_555 1_555
F42 C116 1_555 1_555
F43 C115 1_555 1_555
F44 C114 1_555 1_555
F45 C113 1_555 1_555
F46 C126 1_555 1_555
F47 C127 1_555 1_555
F48 C128 1_555 1_555
F49 C129 1_555 1_555
F50 C130 1_555 1_555
F51 C143 1_555 1_555
F52 C142 1_555 1_555
F53 C141 1_555 1_555
F54 C140 1_555 1_555
F55 C139 1_555 1_555
F56 C152 1_555 1_555
F57 C153 1_555 1_555
F58 C154 1_555 1_555
F59 C155 1_555 1_555
F60 C156 1_555 1_555
O7 C79 1_555 1_555
O8 C92 1_555 1_555
O9 C105 1_555 1_555
O10 C118 1_555 1_555
O11 C131 1_555 1_555
O12 C144 1_555 1_555
C79 C80 1_555 1_555
C80 C81 1_555 1_555
C81 C82 1_555 1_555
C82 C83 1_555 1_555
C83 C84 1_555 1_555
C84 C85 1_555 1_555
C85 C80 1_555 1_555
C86 C83 1_555 1_555
C87 C86 1_555 1_555
C88 C87 1_555 1_555
C89 C88 1_555 1_555
C90 C89 1_555 1_555
C91 C86 1_555 1_555
C92 C93 1_555 1_555
C93 C94 1_555 1_555
C94 C95 1_555 1_555
C95 C96 1_555 1_555
C96 C97 1_555 1_555
C97 C98 1_555 1_555
C98 C93 1_555 1_555
C99 C96 1_555 1_555
C100 C99 1_555 1_555
C101 C100 1_555 1_555
C102 C101 1_555 1_555
C103 C102 1_555 1_555
C104 C99 1_555 1_555
C105 C106 1_555 1_555
C106 C107 1_555 1_555
C107 C108 1_555 1_555
C108 C109 1_555 1_555
C109 C110 1_555 1_555
C110 C111 1_555 1_555
C111 C106 1_555 1_555
C112 C109 1_555 1_555
C113 C112 1_555 1_555
C114 C113 1_555 1_555
C115 C114 1_555 1_555
C116 C115 1_555 1_555
C117 C112 1_555 1_555
C118 C119 1_555 1_555
C119 C120 1_555 1_555
C120 C121 1_555 1_555
C121 C122 1_555 1_555
C122 C123 1_555 1_555
C123 C124 1_555 1_555
C124 C119 1_555 1_555
C125 C122 1_555 1_555
C126 C125 1_555 1_555
C127 C126 1_555 1_555
C128 C127 1_555 1_555
C129 C128 1_555 1_555
C130 C125 1_555 1_555
C131 C132 1_555 1_555
C132 C133 1_555 1_555
C133 C134 1_555 1_555
C134 C135 1_555 1_555
C135 C136 1_555 1_555
C136 C137 1_555 1_555
C137 C132 1_555 1_555
C138 C135 1_555 1_555
C139 C138 1_555 1_555
C140 C139 1_555 1_555
C141 C140 1_555 1_555
C142 C141 1_555 1_555
C143 C138 1_555 1_555
C144 C145 1_555 1_555
C145 C146 1_555 1_555
C146 C147 1_555 1_555
C147 C148 1_555 1_555
C148 C149 1_555 1_555
C149 C150 1_555 1_555
C150 C145 1_555 1_555
C151 C148 1_555 1_555
C152 C151 1_555 1_555
C153 C152 1_555 1_555
C154 C153 1_555 1_555
C155 C154 1_555 1_555
C156 C151 1_555 1_555
B7 O7 1_555 1_555
B8 O8 1_555 1_555
B9 O9 1_555 1_555
B10 O10 1_555 1_555
B11 O11 1_555 1_555
B12 O12 1_555 1_555
H37 C118 1_555 1_555
H38 C118 1_555 1_555
H39 C131 1_555 1_555
H40 C131 1_555 1_555
H41 C144 1_555 1_555
H42 C144 1_555 1_555
H43 C79 1_555 1_555
H44 C79 1_555 1_555
H45 C81 1_555 1_555
H46 C82 1_555 1_555
H47 C84 1_555 1_555
H48 C85 1_555 1_555
H49 C92 1_555 1_555
H50 C92 1_555 1_555
H51 C94 1_555 1_555
H52 C95 1_555 1_555
H53 C97 1_555 1_555
H54 C98 1_555 1_555
H55 C105 1_555 1_555
H56 C105 1_555 1_555
H57 C111 1_555 1_555
H58 C110 1_555 1_555
H59 C108 1_555 1_555
H60 C107 1_555 1_555
H61 C120 1_555 1_555
H62 C121 1_555 1_555
H63 C123 1_555 1_555
H64 C124 1_555 1_555
H65 C137 1_555 1_555
H66 C136 1_555 1_555
H67 C134 1_555 1_555
H68 C133 1_555 1_555
H69 C150 1_555 1_555
H70 C149 1_555 1_555
H71 C147 1_555 1_555
H72 C146 1_555 1_555
F1A C13A 1_555 1_555
F2A C12A 1_555 1_555
F3A C11A 1_555 1_555
F4A C10A 1_555 1_555
F5A C9A 1_555 1_555
F6A C26A 1_555 1_555
F7A C25A 1_555 1_555
F8A C24A 1_555 1_555
F9A C23A 1_555 1_555
F10A C22A 1_555 1_555
F11A C39A 1_555 1_555
F12A C38A 1_555 1_555
F13A C37A 1_555 1_555
F14A C36A 1_555 1_555
F15A C35A 1_555 1_555
F16A C52A 1_555 1_555
F17A C51A 1_555 1_555
F18A C50A 1_555 1_555
F19A C49A 1_555 1_555
F20A C48A 1_555 1_555
F21A C65A 1_555 1_555
F22A C64A 1_555 1_555
F23A C63A 1_555 1_555
F24A C62A 1_555 1_555
F25A C61A 1_555 1_555
F26A C74A 1_555 1_555
F27A C75A 1_555 1_555
F28A C76A 1_555 1_555
F29A C77A 1_555 1_555
F30A C78A 1_555 1_555
O1A C1A 1_555 1_555
O2A C14A 1_555 1_555
O3A C27A 1_555 1_555
O4A C40A 1_555 1_555
O5A C53A 1_555 1_555
O6A C66A 1_555 1_555
C1A C2A 1_555 1_555
C2A C3A 1_555 1_555
C3A C4A 1_555 1_555
C4A C5A 1_555 1_555
C5A C6A 1_555 1_555
C6A C7A 1_555 1_555
C7A C2A 1_555 1_555
C8A C5A 1_555 1_555
C9A C8A 1_555 1_555
C10A C9A 1_555 1_555
C11A C10A 1_555 1_555
C12A C11A 1_555 1_555
C13A C8A 1_555 1_555
C14A C15A 1_555 1_555
C15A C16A 1_555 1_555
C16A C17A 1_555 1_555
C17A C18A 1_555 1_555
C18A C19A 1_555 1_555
C19A C20A 1_555 1_555
C20A C15A 1_555 1_555
C21A C18A 1_555 1_555
C22A C21A 1_555 1_555
C23A C22A 1_555 1_555
C24A C23A 1_555 1_555
C25A C24A 1_555 1_555
C26A C21A 1_555 1_555
C27A C28A 1_555 1_555
C28A C29A 1_555 1_555
C29A C30A 1_555 1_555
C30A C31A 1_555 1_555
C31A C32A 1_555 1_555
C32A C33A 1_555 1_555
C33A C28A 1_555 1_555
C34A C31A 1_555 1_555
C35A C34A 1_555 1_555
C36A C35A 1_555 1_555
C37A C36A 1_555 1_555
C38A C37A 1_555 1_555
C39A C34A 1_555 1_555
C40A C41A 1_555 1_555
C41A C42A 1_555 1_555
C42A C43A 1_555 1_555
C43A C44A 1_555 1_555
C44A C45A 1_555 1_555
C45A C46A 1_555 1_555
C46A C41A 1_555 1_555
C47A C44A 1_555 1_555
C48A C47A 1_555 1_555
C49A C48A 1_555 1_555
C50A C49A 1_555 1_555
C51A C50A 1_555 1_555
C52A C47A 1_555 1_555
C53A C54A 1_555 1_555
C54A C55A 1_555 1_555
C55A C56A 1_555 1_555
C56A C57A 1_555 1_555
C57A C58A 1_555 1_555
C58A C59A 1_555 1_555
C59A C54A 1_555 1_555
C60A C57A 1_555 1_555
C61A C60A 1_555 1_555
C62A C61A 1_555 1_555
C63A C62A 1_555 1_555
C64A C63A 1_555 1_555
C65A C60A 1_555 1_555
C66A C67A 1_555 1_555
C67A C68A 1_555 1_555
C68A C69A 1_555 1_555
C69A C70A 1_555 1_555
C70A C71A 1_555 1_555
C71A C72A 1_555 1_555
C72A C67A 1_555 1_555
C73A C70A 1_555 1_555
C74A C73A 1_555 1_555
C75A C74A 1_555 1_555
C76A C75A 1_555 1_555
C77A C76A 1_555 1_555
C78A C73A 1_555 1_555
B1A B3 1_555 1_555
B2A B5 1_555 1_555
B3A B1 1_555 1_555
B4A B1 1_555 1_555
B5A B1 1_555 1_555
B6A B3 1_555 1_555
H1A C1A 1_555 1_555
H2A C1A 1_555 1_555
H3A C3A 1_555 1_555
H4A C6A 1_555 1_555
H5A C7A 1_555 1_555
H6A C14A 1_555 1_555
H7A C14A 1_555 1_555
H8A C16A 1_555 1_555
H9A C17A 1_555 1_555
H10A C19A 1_555 1_555
H11A C20A 1_555 1_555
H12A C27A 1_555 1_555
H13A C27A 1_555 1_555
H14A C29A 1_555 1_555
H15A C30A 1_555 1_555
H16A C32A 1_555 1_555
H17A C33A 1_555 1_555
H18A C40A 1_555 1_555
H19A C40A 1_555 1_555
H20A C42A 1_555 1_555
H21A C43A 1_555 1_555
H22A C45A 1_555 1_555
H23A C46A 1_555 1_555
H24A C53A 1_555 1_555
H25A C53A 1_555 1_555
H26A C55A 1_555 1_555
H27A C56A 1_555 1_555
H28A C58A 1_555 1_555
H29A C59A 1_555 1_555
H30A C66A 1_555 1_555
H31A C66A 1_555 1_555
H32A C68A 1_555 1_555
H33A C69A 1_555 1_555
H34A C4A 1_555 1_555
H35A C71A 1_555 1_555
H36A C72A 1_555 1_555
F31A C87A 1_555 1_555
F32A C88A 1_555 1_555
F33A C89A 1_555 1_555
F34A C90A 1_555 1_555
F35A C91A 1_555 1_555
F36A C100A 1_555 1_555
F37A C101A 1_555 1_555
F38A C102A 1_555 1_555
F39A C103A 1_555 1_555
F40A C104A 1_555 1_555
F41A C117A 1_555 1_555
F42A C116A 1_555 1_555
F43A C115A 1_555 1_555
F44A C114A 1_555 1_555
F45A C113A 1_555 1_555
F46A C126A 1_555 1_555
F47A C127A 1_555 1_555
F48A C128A 1_555 1_555
F49A C129A 1_555 1_555
F50A C130A 1_555 1_555
F51A C143A 1_555 1_555
F52A C142A 1_555 1_555
F53A C141A 1_555 1_555
F54A C140A 1_555 1_555
F55A C139A 1_555 1_555
F56A C152A 1_555 1_555
F57A C153A 1_555 1_555
F58A C154A 1_555 1_555
F59A C155A 1_555 1_555
F60A C156A 1_555 1_555
O7A C79A 1_555 1_555
O8A C92A 1_555 1_555
O9A C105A 1_555 1_555
O10A C118A 1_555 1_555
O11A C131A 1_555 1_555
O12A C144A 1_555 1_555
C79A C80A 1_555 1_555
C80A C81A 1_555 1_555
C81A C82A 1_555 1_555
C82A C83A 1_555 1_555
C83A C84A 1_555 1_555
C84A C85A 1_555 1_555
C85A C80A 1_555 1_555
C86A C83A 1_555 1_555
C87A C86A 1_555 1_555
C88A C87A 1_555 1_555
C89A C88A 1_555 1_555
C90A C89A 1_555 1_555
C91A C86A 1_555 1_555
C92A C93A 1_555 1_555
C93A C94A 1_555 1_555
C94A C95A 1_555 1_555
C95A C96A 1_555 1_555
C96A C97A 1_555 1_555
C97A C98A 1_555 1_555
C98A C93A 1_555 1_555
C99A C96A 1_555 1_555
C100A C99A 1_555 1_555
C101A C100A 1_555 1_555
C102A C101A 1_555 1_555
C103A C102A 1_555 1_555
C104A C99A 1_555 1_555
C105A C106A 1_555 1_555
C106A C107A 1_555 1_555
C107A C108A 1_555 1_555
C108A C109A 1_555 1_555
C109A C110A 1_555 1_555
C110A C111A 1_555 1_555
C111A C106A 1_555 1_555
C112A C109A 1_555 1_555
C113A C112A 1_555 1_555
C114A C113A 1_555 1_555
C115A C114A 1_555 1_555
C116A C115A 1_555 1_555
C117A C112A 1_555 1_555
C118A C119A 1_555 1_555
C119A C120A 1_555 1_555
C120A C121A 1_555 1_555
C121A C122A 1_555 1_555
C122A C123A 1_555 1_555
C123A C124A 1_555 1_555
C124A C119A 1_555 1_555
C125A C122A 1_555 1_555
C126A C125A 1_555 1_555
C127A C126A 1_555 1_555
C128A C127A 1_555 1_555
C129A C128A 1_555 1_555
C130A C125A 1_555 1_555
C131A C132A 1_555 1_555
C132A C133A 1_555 1_555
C133A C134A 1_555 1_555
C134A C135A 1_555 1_555
C135A C136A 1_555 1_555
C136A C137A 1_555 1_555
C137A C132A 1_555 1_555
C138A C135A 1_555 1_555
C139A C138A 1_555 1_555
C140A C139A 1_555 1_555
C141A C140A 1_555 1_555
C142A C141A 1_555 1_555
C143A C138A 1_555 1_555
C144A C145A 1_555 1_555
C145A C146A 1_555 1_555
C146A C147A 1_555 1_555
C147A C148A 1_555 1_555
C148A C149A 1_555 1_555
C149A C150A 1_555 1_555
C150A C145A 1_555 1_555
C151A C148A 1_555 1_555
C152A C151A 1_555 1_555
C153A C152A 1_555 1_555
C154A C153A 1_555 1_555
C155A C154A 1_555 1_555
C156A C151A 1_555 1_555
B7A B9 1_555 1_555
B8A B11 1_555 1_555
B9A B7 1_555 1_555
B10A B7 1_555 1_555
B11A B7 1_555 1_555
B12A B9 1_555 1_555
H37A C118A 1_555 1_555
H38A C118A 1_555 1_555
H39A C131A 1_555 1_555
H40A C131A 1_555 1_555
H41A C144A 1_555 1_555
H42A C144A 1_555 1_555
H43A C79A 1_555 1_555
H44A C79A 1_555 1_555
H45A C81A 1_555 1_555
H46A C82A 1_555 1_555
H47A C84A 1_555 1_555
H48A C85A 1_555 1_555
H49A C92A 1_555 1_555
H50A C92A 1_555 1_555
H51A C94A 1_555 1_555
H52A C95A 1_555 1_555
H53A C97A 1_555 1_555
H54A C98A 1_555 1_555
H55A C105A 1_555 1_555
H56A C105A 1_555 1_555
H57A C111A 1_555 1_555
H58A C110A 1_555 1_555
H59A C108A 1_555 1_555
H60A C107A 1_555 1_555
H61A C120A 1_555 1_555
H62A C121A 1_555 1_555
H63A C123A 1_555 1_555
H64A C124A 1_555 1_555
H65A C137A 1_555 1_555
H66A C136A 1_555 1_555
H67A C134A 1_555 1_555
H68A C133A 1_555 1_555
H69A C150A 1_555 1_555
H70A C149A 1_555 1_555
H71A C147A 1_555 1_555
H72A C146A 1_555 1_555
C12 C13 1_555 1_555
C25 C26 1_555 1_555
C38 C39 1_555 1_555
C51 C52 1_555 1_555
C64 C65 1_555 1_555
C77 C78 1_555 1_555
B1 B2 1_555 1_555
B1 B6 1_555 1_555
B2 B3 1_555 1_555
B2 B4 1_555 1_555
B2 B6 1_555 1_555
B2 B5A 1_555 1_555
B3 B4 1_555 1_555
B3 B5A 1_555 1_555
B4 B5 1_555 1_555
B4 B6 1_555 1_555
B4 B1A 1_555 1_555
B5 B6 1_555 1_555
B5 B1A 1_555 1_555
B5 B3A 1_555 1_555
B6 B3A 1_555 1_555
C90 C91 1_555 1_555
C103 C104 1_555 1_555
C116 C117 1_555 1_555
C129 C130 1_555 1_555
C142 C143 1_555 1_555
C155 C156 1_555 1_555
B7 B8 1_555 1_555
B7 B12 1_555 1_555
B8 B9 1_555 1_555
B8 B10 1_555 1_555
B8 B12 1_555 1_555
B8 B11A 1_555 1_555
B9 B10 1_555 1_555
B9 B11A 1_555 1_555
B10 B11 1_555 1_555
B10 B12 1_555 1_555
B10 B7A 1_555 1_555
B11 B12 1_555 1_555
B11 B7A 1_555 1_555
B11 B9A 1_555 1_555
B12 B9A 1_555 1_555
O1A B1A 1_555 1_555
O2A B2A 1_555 1_555
O3A B3A 1_555 1_555
O4A B4A 1_555 1_555
O5A B5A 1_555 1_555
O6A B6A 1_555 1_555
C12A C13A 1_555 1_555
C25A C26A 1_555 1_555
C38A C39A 1_555 1_555
C51A C52A 1_555 1_555
C64A C65A 1_555 1_555
C77A C78A 1_555 1_555
B1A B2A 1_555 1_555
B1A B6A 1_555 1_555
B2A B3A 1_555 1_555
B2A B4A 1_555 1_555
B2A B6A 1_555 1_555
B3A B4A 1_555 1_555
B4A B5A 1_555 1_555
B4A B6A 1_555 1_555
B5A B6A 1_555 1_555
O7A B7A 1_555 1_555
O8A B8A 1_555 1_555
O9A B9A 1_555 1_555
O10A B10A 1_555 1_555
O11A B11A 1_555 1_555
O12A B12A 1_555 1_555
C90A C91A 1_555 1_555
C103A C104A 1_555 1_555
C116A C117A 1_555 1_555
C129A C130A 1_555 1_555
C142A C143A 1_555 1_555
C155A C156A 1_555 1_555
B7A B8A 1_555 1_555
B7A B12A 1_555 1_555
B8A B9A 1_555 1_555
B8A B10A 1_555 1_555
B8A B12A 1_555 1_555
B9A B10A 1_555 1_555
B10A B11A 1_555 1_555
B10A B12A 1_555 1_555
B11A B12A 1_555 1_555

#END
