
#######################################################################
#
#                 Cambridge Crystallographic Data Centre
#                                CCDC 
#
#######################################################################
#
# If this CIF has been generated from an entry in the Cambridge 
# Structural Database, then it will include bibliographic, chemical, 
# crystal, experimental, refinement or atomic coordinate data resulting 
# from the CCDC's data processing and validation procedures.
#
#######################################################################

data_AXULEL
_chemical_name_common            'eucomic acid methanol solvate'
_chemical_formula_moiety         'C11 H12 O6,C1 H4 O1'
_chemical_name_systematic        
'2-hydroxy-2-(4-hydroxybenzyl)butanedioic acid methanol solvate'
_symmetry_cell_setting           orthorhombic
_symmetry_space_group_name_H-M   'P 21 21 21'
_symmetry_Int_Tables_number      19
_space_group_name_Hall           'P 2ac 2ab'
loop_
_symmetry_equiv_pos_site_id
_symmetry_equiv_pos_as_xyz
1 x,y,z
2 1/2-x,-y,1/2+z
3 1/2+x,1/2-y,-z
4 -x,1/2+y,1/2-z
_cell_length_a                   5.8970(2)
_cell_length_b                   7.2088(3)
_cell_length_c                   31.3290(4)
_cell_angle_alpha                90
_cell_angle_beta                 90
_cell_angle_gamma                90
_cell_volume                     1331.8
_exptl_crystal_colour            colorless
_exptl_crystal_description       prism
_cell_formula_units_Z            4
loop_
_atom_site_label
_atom_site_type_symbol
_atom_site_fract_x
_atom_site_fract_y
_atom_site_fract_z
O1 O 0.5195(3) 0.2588(3) 0.38870(6)
H1 H 0.6358 0.3081 0.3799
O2 O -0.0623(2) 0.3712(2) 0.37354(5)
H2 H -0.0175 0.4478 0.3561
O3 O 0.2583(3) 0.1398(3) 0.18267(5)
H3 H 0.3811 0.0962 0.1756
O4 O 0.3496(3) 0.4842(3) 0.35125(5)
C1 C -0.0136(4) 0.1541(3) 0.28608(7)
H4 H -0.1536 0.1885 0.2972
C2 C 0.1514(4) 0.0859(3) 0.31338(7)
C3 C 0.2305(4) 0.1201(3) 0.22599(7)
C4 C 0.1204(4) 0.2530(3) 0.38545(7)
C5 C 0.3574(4) 0.0333(3) 0.29570(7)
H5 H 0.4705 -0.0139 0.3133
O5 O -0.0015(5) 0.3883(3) 0.49413(6)
H6 H 0.0124 0.4873 0.5068
C6 C 0.0240(4) 0.1722(3) 0.24286(7)
H7 H -0.0889 0.2193 0.2252
O6 O 0.2358(4) 0.5185(3) 0.44936(6)
C7 C 0.3419(4) 0.3486(4) 0.37382(7)
C8 C 0.3976(4) 0.0497(4) 0.25230(7)
H8 H 0.5365 0.0136 0.2409
C9 C 0.1074(4) 0.0688(3) 0.36073(7)
H9 H 0.2170 -0.0167 0.3728
H10 H -0.0421 0.0156 0.3649
C10 C 0.1187(4) 0.3916(4) 0.45945(7)
C11 C 0.0974(4) 0.2185(4) 0.43323(7)
H11 H -0.0491 0.1622 0.4388
H12 H 0.2134 0.1311 0.4421
O7 O 0.0058(6) 0.6834(4) 0.54040(10)
H13 H -0.0761 0.7730 0.5357
C12 C 0.1744(7) 0.7337(6) 0.56770(13)
H14 H 0.3167 0.6874 0.5573
H15 H 0.1446 0.6828 0.5954
H16 H 0.1808 0.8666 0.5696
loop_
_geom_bond_atom_site_label_1
_geom_bond_atom_site_label_2
_geom_bond_site_symmetry_1
_geom_bond_site_symmetry_2
O1 H1 1_555 1_555
O2 H2 1_555 1_555
O3 H3 1_555 1_555
O4 C7 1_555 1_555
C1 H4 1_555 1_555
C2 C1 1_555 1_555
C3 O3 1_555 1_555
C4 O2 1_555 1_555
C5 C2 1_555 1_555
H5 C5 1_555 1_555
O5 H6 1_555 1_555
C6 C1 1_555 1_555
H7 C6 1_555 1_555
O6 C10 1_555 1_555
C7 O1 1_555 1_555
C8 C3 1_555 1_555
H8 C8 1_555 1_555
C9 C2 1_555 1_555
H9 C9 1_555 1_555
H10 C9 1_555 1_555
C10 O5 1_555 1_555
C11 C4 1_555 1_555
H11 C11 1_555 1_555
H12 C11 1_555 1_555
O7 H13 1_555 1_555
C12 O7 1_555 1_555
H14 C12 1_555 1_555
H15 C12 1_555 1_555
H16 C12 1_555 1_555
C3 C6 1_555 1_555
C4 C7 1_555 1_555
C4 C9 1_555 1_555
C5 C8 1_555 1_555
C10 C11 1_555 1_555

#END
