
#######################################################################
#
#                 Cambridge Crystallographic Data Centre
#                                CCDC 
#
#######################################################################
#
# If this CIF has been generated from an entry in the Cambridge 
# Structural Database, then it will include bibliographic, chemical, 
# crystal, experimental, refinement or atomic coordinate data resulting 
# from the CCDC's data processing and validation procedures.
#
#######################################################################

data_AYATID
_chemical_formula_moiety         'C72 H32 O11,0.5(C1 S2)'
_chemical_name_systematic        
'5,30-bis(t-butylperoxy)-1,2-epoxy-3,11-dihydroxy-4,9,12,25-tetramethoxy-1,2,3,4,9,11,12,15,25,30-decahydro[C60]fullerene carbon disulfide solvate'
_symmetry_cell_setting           triclinic
_symmetry_space_group_name_H-M   'P -1'
_symmetry_Int_Tables_number      2
_space_group_name_Hall           '-P 1'
loop_
_symmetry_equiv_pos_site_id
_symmetry_equiv_pos_as_xyz
1 x,y,z
2 -x,-y,-z
_cell_length_a                   10.124(2)
_cell_length_b                   10.340(2)
_cell_length_c                   23.975(5)
_cell_angle_alpha                98.93(3)
_cell_angle_beta                 96.53(3)
_cell_angle_gamma                105.99(3)
_cell_volume                     2350.83
_exptl_crystal_colour            red-brown
_exptl_crystal_description       Block
_cell_formula_units_Z            2
_exptl_crystal_recrystallization_method 'carbon disulfide/ethanol'
loop_
_atom_site_label
_atom_site_type_symbol
_atom_site_fract_x
_atom_site_fract_y
_atom_site_fract_z
S1 S 0.1305(3) -0.4219(3) -0.02204(12)
C73 C 0.0000 -0.5000 0.0000
S1A S -0.1305(3) -0.5781(3) 0.02204(12)
O1 O -0.2194(3) 0.2499(4) 0.30535(14)
O2 O -0.3681(4) 0.3706(5) 0.38682(14)
O3 O -0.3369(4) 0.5751(4) 0.34261(15)
H1 H -0.3275 0.5321 0.3811
O4 O -0.4099(4) -0.1431(4) 0.2698(2)
O5 O -0.7657(5) -0.0747(6) 0.3443(3)
O6 O -0.1180(3) 0.4655(3) 0.24997(15)
O7 O -0.3317(4) 0.6688(4) 0.14989(15)
O8 O -0.7139(5) 0.3213(8) 0.38642(18)
O9 O -0.6630(6) -0.1442(7) 0.3555(3)
O11 O -0.8271(8) 0.3504(7) 0.3936(3)
O12 O -0.3946(4) 0.0427(5) 0.35288(18)
H2 H -0.4699 -0.0460 0.3485
C1 C -0.3675(5) 0.2238(5) 0.2983(2)
C2 C -0.4331(5) 0.3227(5) 0.3291(2)
C3 C -0.5832(5) 0.2311(7) 0.3227(2)
C4 C -0.5938(5) 0.1015(7) 0.3085(2)
C5 C -0.4532(5) 0.0737(5) 0.3009(2)
C6 C -0.2904(4) 0.2545(5) 0.2509(2)
C7 C -0.2616(4) 0.3933(5) 0.2295(2)
C8 C -0.2951(4) 0.3524(5) 0.1652(2)
C9 C -0.3127(4) 0.2075(5) 0.1511(2)
C10 C -0.3164(5) 0.1462(5) 0.2010(2)
C11 C -0.4224(5) 0.4611(5) 0.3031(2)
C12 C -0.5636(5) 0.4796(5) 0.28440(19)
C13 C -0.5598(5) 0.5369(5) 0.2337(2)
C14 C -0.4337(5) 0.5238(4) 0.2119(2)
C15 C -0.3638(5) 0.4651(4) 0.2469(2)
C16 C -0.7069(6) 0.2855(6) 0.3274(2)
C17 C -0.8374(5) 0.1817(7) 0.2918(2)
C18 C -0.9053(5) 0.2522(7) 0.2540(2)
C19 C -0.8151(5) 0.3872(6) 0.2560(2)
C20 C -0.6904(5) 0.4064(6) 0.2962(2)
C21 C -0.7286(6) -0.0101(7) 0.2952(3)
C22 C -0.7317(6) -0.1016(6) 0.2394(3)
C23 C -0.8569(6) -0.1185(6) 0.2009(4)
C24 C -0.9271(5) -0.0261(6) 0.2240(3)
C25 C -0.8480(6) 0.0496(7) 0.2771(3)
C26 C -0.4632(5) -0.0388(5) 0.2496(3)
C27 C -0.6132(6) -0.1094(5) 0.2185(3)
C28 C -0.6160(6) -0.1359(5) 0.1594(3)
C29 C -0.4835(6) -0.0566(5) 0.1477(3)
C30 C -0.3988(5) 0.0144(5) 0.1999(2)
C31 C -0.9105(6) 0.1681(7) 0.0615(2)
C32 C -0.8410(6) 0.0742(7) 0.0397(2)
C33 C -0.7080(5) 0.1526(6) 0.0267(2)
C34 C -0.6969(6) 0.2977(6) 0.0436(2)
C35 C -0.8207(5) 0.3068(6) 0.0652(2)
C36 C -0.9890(5) 0.1359(6) 0.1048(3)
C37 C -0.9786(5) 0.2422(6) 0.1525(3)
C38 C -0.9851(5) 0.1813(6) 0.2041(3)
C39 C -0.9980(5) 0.0384(6) 0.1873(3)
C40 C -0.9997(5) 0.0129(7) 0.1271(3)
C41 C -0.8525(6) -0.0453(6) 0.0594(3)
C42 C -0.9321(6) -0.0804(6) 0.1042(3)
C43 C -0.8625(6) -0.1457(6) 0.1427(4)
C44 C -0.7331(7) -0.1552(6) 0.1202(4)
C45 C -0.7303(7) -0.0946(6) 0.0688(3)
C46 C -0.5936(6) 0.1062(7) 0.0361(2)
C47 C -0.6025(6) -0.0193(6) 0.0585(3)
C48 C -0.4766(6) -0.0014(7) 0.0965(3)
C49 C -0.3880(5) 0.1374(6) 0.0998(2)
C50 C -0.4584(5) 0.2020(6) 0.0620(2)
C51 C -0.5691(6) 0.3877(6) 0.0687(2)
C52 C -0.4464(5) 0.3408(6) 0.0775(2)
C53 C -0.3603(5) 0.4159(5) 0.12931(19)
C54 C -0.4153(5) 0.5345(5) 0.1517(2)
C55 C -0.5607(5) 0.4931(5) 0.1137(2)
C56 C -0.8113(5) 0.4045(6) 0.1098(2)
C57 C -0.6796(5) 0.5003(5) 0.1349(2)
C58 C -0.6811(5) 0.5251(5) 0.1965(2)
C59 C -0.8089(5) 0.4489(5) 0.2084(2)
C60 C -0.8936(5) 0.3723(6) 0.1554(2)
C61 C -0.3118(6) 0.6992(6) 0.0960(3)
H3 H -0.2540 0.7921 0.1005
H4 H -0.4004 0.6882 0.0735
H5 H -0.2675 0.6381 0.0770
C62 C -0.4049(8) 0.2931(10) 0.4303(3)
H6 H -0.3488 0.3420 0.4664
H7 H -0.3891 0.2056 0.4207
H8 H -0.5015 0.2798 0.4329
C63 C -0.0706(5) 0.5956(6) 0.2354(3)
H9 H 0.0263 0.6367 0.2511
H10 H -0.1232 0.6532 0.2506
H11 H -0.0828 0.5856 0.1945
C64 C -0.2636(6) -0.1168(6) 0.2753(3)
H12 H -0.2381 -0.1904 0.2890
H13 H -0.2182 -0.0323 0.3020
H14 H -0.2355 -0.1097 0.2387
C65 C -0.6875(11) -0.2083(8) 0.4027(3)
C66 C -0.8246(17) -0.279(2) 0.4082(9)
H15 H -0.8848 -0.2241 0.4016
H16 H -0.8255 -0.2987 0.4461
H17 H -0.8569 -0.3641 0.3807
C67 C -0.5735(10) -0.2724(9) 0.4116(4)
H18 H -0.4858 -0.2071 0.4108
H19 H -0.5897 -0.3511 0.3817
H20 H -0.5716 -0.3001 0.4480
C68 C -0.681(3) -0.087(2) 0.4520(5)
H21 H -0.5909 -0.0211 0.4590
H22 H -0.6990 -0.1221 0.4862
H23 H -0.7508 -0.0446 0.4411
C69 C -0.8978(15) 0.2730(9) 0.4382(5)
C70 C -1.0057(13) 0.3535(13) 0.4415(5)
H24 H -0.9593 0.4473 0.4596
H25 H -1.0742 0.3133 0.4635
H26 H -1.0507 0.3499 0.4036
C71 C -0.8012(12) 0.329(2) 0.4917(4)
H27 H -0.7603 0.4257 0.4947
H28 H -0.7293 0.2848 0.4926
H29 H -0.8502 0.3131 0.5232
C72 C -0.9853(13) 0.1465(16) 0.4105(5)
H30 H -0.9322 0.0832 0.4044
H31 H -1.0305 0.1543 0.3743
H32 H -1.0542 0.1137 0.4335
O10? O -0.7569(11) 0.2356(10) 0.4151(4)
loop_
_geom_bond_atom_site_label_1
_geom_bond_atom_site_label_2
_geom_bond_site_symmetry_1
_geom_bond_site_symmetry_2
S1 C73 1_555 1_555
O1 C1 1_555 1_555
O2 C2 1_555 1_555
O3 H1 1_555 1_555
O4 C26 1_555 1_555
O5 O9 1_555 1_555
O6 C7 1_555 1_555
O7 C54 1_555 1_555
O8 O11 1_555 1_555
O9 C65 1_555 1_555
O11 C69 1_555 1_555
O12 H2 1_555 1_555
C1 C2 1_555 1_555
C2 C3 1_555 1_555
C3 C4 1_555 1_555
C4 C5 1_555 1_555
C5 O12 1_555 1_555
C6 O1 1_555 1_555
C7 C6 1_555 1_555
C8 C7 1_555 1_555
C9 C8 1_555 1_555
C10 C6 1_555 1_555
C11 O3 1_555 1_555
C12 C11 1_555 1_555
C13 C12 1_555 1_555
C14 C13 1_555 1_555
C15 C7 1_555 1_555
C16 O8 1_555 1_555
C17 C16 1_555 1_555
C18 C17 1_555 1_555
C19 C18 1_555 1_555
C20 C12 1_555 1_555
C21 O5 1_555 1_555
C22 C21 1_555 1_555
C23 C22 1_555 1_555
C24 C23 1_555 1_555
C25 C17 1_555 1_555
C26 C5 1_555 1_555
C27 C22 1_555 1_555
C28 C27 1_555 1_555
C29 C28 1_555 1_555
C30 C10 1_555 1_555
C31 C32 1_555 1_555
C32 C33 1_555 1_555
C33 C34 1_555 1_555
C34 C35 1_555 1_555
C35 C31 1_555 1_555
C36 C31 1_555 1_555
C37 C36 1_555 1_555
C38 C18 1_555 1_555
C39 C24 1_555 1_555
C40 C36 1_555 1_555
C41 C32 1_555 1_555
C42 C40 1_555 1_555
C43 C23 1_555 1_555
C44 C28 1_555 1_555
C45 C41 1_555 1_555
C46 C33 1_555 1_555
C47 C45 1_555 1_555
C48 C29 1_555 1_555
C49 C9 1_555 1_555
C50 C46 1_555 1_555
C51 C34 1_555 1_555
C52 C50 1_555 1_555
C53 C8 1_555 1_555
C54 C14 1_555 1_555
C55 C51 1_555 1_555
C56 C35 1_555 1_555
C57 C55 1_555 1_555
C58 C13 1_555 1_555
C59 C19 1_555 1_555
C60 C37 1_555 1_555
C61 O7 1_555 1_555
H3 C61 1_555 1_555
H4 C61 1_555 1_555
H5 C61 1_555 1_555
C62 O2 1_555 1_555
H6 C62 1_555 1_555
H7 C62 1_555 1_555
H8 C62 1_555 1_555
C63 O6 1_555 1_555
H9 C63 1_555 1_555
H10 C63 1_555 1_555
H11 C63 1_555 1_555
C64 O4 1_555 1_555
H12 C64 1_555 1_555
H13 C64 1_555 1_555
H14 C64 1_555 1_555
C65 C66 1_555 1_555
C66 H15 1_555 1_555
H16 C66 1_555 1_555
H17 C66 1_555 1_555
C67 C65 1_555 1_555
H18 C67 1_555 1_555
H19 C67 1_555 1_555
H20 C67 1_555 1_555
C68 C65 1_555 1_555
H21 C68 1_555 1_555
H22 C68 1_555 1_555
H23 C68 1_555 1_555
C69 C70 1_555 1_555
C70 H24 1_555 1_555
H25 C70 1_555 1_555
H26 C70 1_555 1_555
C71 C69 1_555 1_555
H27 C71 1_555 1_555
H28 C71 1_555 1_555
H29 C71 1_555 1_555
C72 C69 1_555 1_555
H30 C72 1_555 1_555
H31 C72 1_555 1_555
H32 C72 1_555 1_555
C73 S1A 1_555 1_555
C1 C5 1_555 1_555
C1 C6 1_555 1_555
C2 C11 1_555 1_555
C3 C16 1_555 1_555
C4 C21 1_555 1_555
C9 C10 1_555 1_555
C11 C15 1_555 1_555
C14 C15 1_555 1_555
C16 C20 1_555 1_555
C19 C20 1_555 1_555
C21 C25 1_555 1_555
C24 C25 1_555 1_555
C26 C30 1_555 1_555
C26 C27 1_555 1_555
C29 C30 1_555 1_555
C37 C38 1_555 1_555
C38 C39 1_555 1_555
C39 C40 1_555 1_555
C41 C42 1_555 1_555
C42 C43 1_555 1_555
C43 C44 1_555 1_555
C44 C45 1_555 1_555
C46 C47 1_555 1_555
C47 C48 1_555 1_555
C48 C49 1_555 1_555
C49 C50 1_555 1_555
C51 C52 1_555 1_555
C52 C53 1_555 1_555
C53 C54 1_555 1_555
C54 C55 1_555 1_555
C56 C60 1_555 1_555
C56 C57 1_555 1_555
C57 C58 1_555 1_555
C58 C59 1_555 1_555
C59 C60 1_555 1_555

#END
