
#######################################################################
#
#                 Cambridge Crystallographic Data Centre
#                                CCDC 
#
#######################################################################
#
# If this CIF has been generated from an entry in the Cambridge 
# Structural Database, then it will include bibliographic, chemical, 
# crystal, experimental, refinement or atomic coordinate data resulting 
# from the CCDC's data processing and validation procedures.
#
#######################################################################

data_AYAVAY
_chemical_formula_moiety         'C18 H16 N2 O3'
_chemical_name_systematic        
'2-Oxo-4-((1-phenylethyl)amino)-1,2-dihydroquinoline-3-carboxylic acid'
_symmetry_cell_setting           monoclinic
_symmetry_space_group_name_H-M   'P 21'
_symmetry_Int_Tables_number      4
_space_group_name_Hall           'P 2yb'
loop_
_symmetry_equiv_pos_site_id
_symmetry_equiv_pos_as_xyz
1 x,y,z
2 -x,1/2+y,-z
_cell_length_a                   5.2967(5)
_cell_length_b                   12.564(1)
_cell_length_c                   11.273(1)
_cell_angle_alpha                90
_cell_angle_beta                 92.806(8)
_cell_angle_gamma                90
_cell_volume                     749.293
_exptl_crystal_colour            colorless
_exptl_crystal_description       stick
_chemical_melting_point          '230-232 deg.C (dec.)'
_cell_formula_units_Z            2
loop_
_atom_site_label
_atom_site_type_symbol
_atom_site_fract_x
_atom_site_fract_y
_atom_site_fract_z
O1 O -0.04560(18) 0.31299(8) 0.39388(7)
O2 O -0.16100(17) 0.07013(7) 0.62016(8)
O3 O -0.26775(18) 0.15648(8) 0.45503(8)
H1 H -0.203(5) 0.221(2) 0.399(2)
N1 N 0.2942(2) 0.37392(10) 0.49798(10)
H2 H 0.304(2) 0.4211(10) 0.4487(11)
N2 N 0.2441(2) 0.13302(9) 0.74354(9)
H3 H 0.105(2) 0.0920(11) 0.7246(11)
C1 C 0.4677(2) 0.37463(10) 0.59336(10)
C2 C 0.6520(3) 0.45465(11) 0.59897(14)
H4 H 0.646(3) 0.5029(14) 0.5277(13)
C3 C 0.8188(3) 0.45985(12) 0.69387(14)
H5 H 0.946(2) 0.5119(11) 0.7019(10)
C4 C 0.8041(3) 0.38905(12) 0.78703(14)
H6 H 0.916(2) 0.3941(8) 0.8571(9)
C5 C 0.6250(3) 0.30944(12) 0.78088(12)
H7 H 0.621(2) 0.2613(10) 0.8497(10)
C6 C 0.4550(2) 0.29787(10) 0.68246(10)
C7 C 0.2637(2) 0.21437(10) 0.66789(11)
C8 C 0.0871(2) 0.22096(10) 0.57045(10)
C9 C 0.1053(2) 0.30296(10) 0.48455(10)
C10 C -0.1201(2) 0.14388(11) 0.55136(11)
C11 C 0.4185(3) 0.08518(11) 0.83223(11)
H8 H 0.585(2) 0.1010(10) 0.8091(11)
C12 C 0.3678(6) -0.03473(14) 0.8277(2)
H9 H 0.415(4) -0.0567(16) 0.7519(19)
H10 H 0.493(3) -0.0665(12) 0.8851(13)
H11 H 0.184(4) -0.0426(14) 0.8519(15)
C13 C 0.3944(2) 0.12741(10) 0.95670(11)
C14 C 0.2007(3) 0.19077(13) 0.98819(14)
H12 H 0.082(2) 0.2121(10) 0.9299(11)
C15 C 0.1865(4) 0.22726(16) 1.10598(18)
H13 H 0.064(3) 0.2726(16) 1.1091(15)
C16 C 0.3660(4) 0.19902(15) 1.18921(15)
H14 H 0.364(3) 0.2328(13) 1.2836(16)
C17 C 0.5601(4) 0.13665(17) 1.15911(15)
H15 H 0.685(4) 0.1244(19) 1.225(2)
C18 C 0.5739(3) 0.10083(14) 1.04360(14)
H16 H 0.701(3) 0.0559(12) 1.0278(14)
loop_
_geom_bond_atom_site_label_1
_geom_bond_atom_site_label_2
_geom_bond_site_symmetry_1
_geom_bond_site_symmetry_2
O1 C9 1_555 1_555
O2 C10 1_555 1_555
O3 H1 1_555 1_555
N1 H2 1_555 1_555
N2 H3 1_555 1_555
C1 N1 1_555 1_555
C2 C1 1_555 1_555
H4 C2 1_555 1_555
C3 C2 1_555 1_555
H5 C3 1_555 1_555
C4 C3 1_555 1_555
H6 C4 1_555 1_555
C5 C4 1_555 1_555
H7 C5 1_555 1_555
C6 C1 1_555 1_555
C7 N2 1_555 1_555
C8 C7 1_555 1_555
C9 N1 1_555 1_555
C10 O3 1_555 1_555
C11 N2 1_555 1_555
H8 C11 1_555 1_555
C12 C11 1_555 1_555
H9 C12 1_555 1_555
H10 C12 1_555 1_555
H11 C12 1_555 1_555
C13 C11 1_555 1_555
C14 C13 1_555 1_555
H12 C14 1_555 1_555
C15 C14 1_555 1_555
H13 C15 1_555 1_555
C16 C15 1_555 1_555
H14 C16 1_555 1_555
C17 C16 1_555 1_555
H15 C17 1_555 1_555
C18 C13 1_555 1_555
H16 C18 1_555 1_555
C5 C6 1_555 1_555
C6 C7 1_555 1_555
C8 C9 1_555 1_555
C8 C10 1_555 1_555
C17 C18 1_555 1_555

#END
