
#######################################################################
#
#                 Cambridge Crystallographic Data Centre
#                                CCDC 
#
#######################################################################
#
# If this CIF has been generated from an entry in the Cambridge 
# Structural Database, then it will include bibliographic, chemical, 
# crystal, experimental, refinement or atomic coordinate data resulting 
# from the CCDC's data processing and validation procedures.
#
#######################################################################

data_AYAVUT
_chemical_formula_moiety         'C21 H17 N1 O2'
_chemical_name_systematic        'ethyl 4-(9H-carbazol-9-yl)benzoate'
_symmetry_cell_setting           monoclinic
_symmetry_space_group_name_H-M   'P 21/c'
_symmetry_Int_Tables_number      14
_space_group_name_Hall           '-P 2ybc'
loop_
_symmetry_equiv_pos_site_id
_symmetry_equiv_pos_as_xyz
1 x,y,z
2 -x,1/2+y,1/2-z
3 -x,-y,-z
4 x,1/2-y,1/2+z
_cell_length_a                   16.4815(9)
_cell_length_b                   24.8758(14)
_cell_length_c                   39.975(2)
_cell_angle_alpha                90
_cell_angle_beta                 90.0317(19)
_cell_angle_gamma                90
_cell_volume                     16389.4
_exptl_crystal_colour            colorless
_exptl_crystal_description       plate
_cell_formula_units_Z            40
loop_
_atom_site_label
_atom_site_type_symbol
_atom_site_fract_x
_atom_site_fract_y
_atom_site_fract_z
C1 C 0.3114(3) 0.14853(16) -0.01801(10)
C2 C 0.3667(3) 0.13870(17) 0.00745(11)
H1 H 0.3531 0.1167 0.0260
C3 C 0.4432(3) 0.1625(2) 0.00467(12)
H2 H 0.4824 0.1568 0.0217
C4 C 0.4629(3) 0.1944(2) -0.02286(13)
H3 H 0.5153 0.2102 -0.0242
C5 C 0.4076(3) 0.20346(18) -0.04808(12)
H4 H 0.4219 0.2248 -0.0669
C6 C 0.3304(3) 0.18095(16) -0.04569(10)
C7 C 0.2590(3) 0.18261(15) -0.06676(10)
C8 C 0.2399(3) 0.21081(17) -0.09585(10)
H5 H 0.2793 0.2332 -0.1061
C9 C 0.1633(3) 0.20596(16) -0.10963(11)
H6 H 0.1498 0.2253 -0.1294
C10 C 0.1052(3) 0.17236(17) -0.09444(10)
H7 H 0.0531 0.1687 -0.1044
C11 C 0.1224(3) 0.14447(16) -0.06521(10)
H8 H 0.0830 0.1220 -0.0550
C12 C 0.1997(3) 0.15059(14) -0.05131(9)
N1 N 0.2313(2) 0.12960(12) -0.02150(8)
C13 C 0.1907(2) 0.09443(14) 0.00079(9)
C14 C 0.1906(2) 0.10429(14) 0.03526(9)
H9 H 0.2170 0.1352 0.0440
C15 C 0.1520(2) 0.06884(15) 0.05661(9)
H10 H 0.1541 0.0746 0.0801
C16 C 0.1098(2) 0.02447(14) 0.04388(9)
C17 C 0.1081(2) 0.01596(14) 0.00938(9)
H11 H 0.0787 -0.0137 0.0006
C18 C 0.1485(2) 0.05021(14) -0.01203(8)
H12 H 0.1477 0.0438 -0.0355
C19 C 0.0690(2) -0.01572(15) 0.06560(9)
O1 O 0.08134(18) -0.00678(11) 0.09816(6)
O2 O 0.02904(19) -0.05266(11) 0.05473(7)
C20 C 0.0441(3) -0.04615(18) 0.12072(10)
H13 H 0.0665 -0.0825 0.1166
H14 H -0.0154 -0.0473 0.1173
C21 C 0.0638(5) -0.0279(3) 0.15582(13)
H15 H 0.0372 -0.0517 0.1720
H16 H 0.0444 0.0090 0.1590
H17 H 0.1227 -0.0290 0.1592
C24 C 0.2452(3) 0.16136(14) 0.15317(9)
C25 C 0.1629(3) 0.15471(16) 0.14584(10)
H23 H 0.1302 0.1303 0.1582
C26 C 0.1307(3) 0.18493(17) 0.11999(12)
H24 H 0.0746 0.1818 0.1149
C27 C 0.1788(3) 0.22018(18) 0.10106(11)
H25 H 0.1556 0.2396 0.0830
C28 C 0.2606(3) 0.22667(15) 0.10876(10)
H26 H 0.2933 0.2510 0.0963
C29 C 0.2935(3) 0.19717(14) 0.13480(9)
C30 C 0.3743(2) 0.19576(14) 0.14961(8)
C31 C 0.4468(3) 0.22243(16) 0.14226(9)
H27 H 0.4493 0.2485 0.1249
C32 C 0.5150(3) 0.20970(17) 0.16101(10)
H28 H 0.5647 0.2277 0.1566
C33 C 0.5119(3) 0.17121(16) 0.18605(10)
H29 H 0.5602 0.1628 0.1980
C34 C 0.4409(2) 0.14456(15) 0.19431(9)
H30 H 0.4392 0.1185 0.2117
C35 C 0.3717(2) 0.15804(15) 0.17565(8)
N2 N 0.2929(2) 0.13744(12) 0.17794(7)
C36 C 0.2643(2) 0.10626(14) 0.20505(8)
C37 C 0.2219(2) 0.05854(15) 0.19907(9)
H31 H 0.2117 0.0472 0.1768
C38 C 0.1948(2) 0.02809(16) 0.22555(9)
H32 H 0.1652 -0.0041 0.2216
C39 C 0.2114(3) 0.04499(16) 0.25857(10)
C40 C 0.2520(3) 0.09270(17) 0.26423(9)
H33 H 0.2622 0.1042 0.2865
C41 C 0.2779(3) 0.12377(16) 0.23750(9)
H34 H 0.3049 0.1569 0.2414
C42 C 0.1876(3) 0.01256(16) 0.28819(10)
O3 O 0.1398(2) -0.02932(12) 0.28023(7)
O4 O 0.2103(2) 0.02194(14) 0.31633(7)
C43 C 0.1130(3) -0.0611(2) 0.30872(11)
H35 H 0.0884 -0.0376 0.3259
H36 H 0.1595 -0.0804 0.3189
C44 C 0.0516(3) -0.10048(19) 0.29588(11)
H37 H 0.0114 -0.0815 0.2822
H38 H 0.0243 -0.1178 0.3148
H39 H 0.0789 -0.1278 0.2823
C54 C 0.3271(3) 0.1627(2) 0.37328(12)
C55 C 0.3955(3) 0.15629(19) 0.39307(12)
H49 H 0.3950 0.1329 0.4118
C56 C 0.4649(4) 0.1851(2) 0.38465(16)
H50 H 0.5123 0.1817 0.3980
C57 C 0.4655(3) 0.21921(19) 0.35663(12)
H51 H 0.5132 0.2390 0.3515
C58 C 0.3981(3) 0.22441(18) 0.33647(12)
H52 H 0.3992 0.2467 0.3172
C59 C 0.3273(3) 0.19573(19) 0.34532(12)
C60 C 0.2469(4) 0.1933(3) 0.33043(17)
C61 C 0.2117(4) 0.2190(3) 0.30299(15)
H53 H 0.2426 0.2431 0.2897
C62 C 0.1315(4) 0.2090(3) 0.29540(14)
H54 H 0.1072 0.2264 0.2767
C63 C 0.0856(4) 0.1735(3) 0.31504(14)
H55 H 0.0308 0.1666 0.3090
C64 C 0.1175(4) 0.1484(3) 0.34251(13)
H56 H 0.0853 0.1253 0.3560
C65 C 0.2001(5) 0.1581(4) 0.3503(2)
N3 N 0.2489(3) 0.1389(2) 0.37618(10)
C66 C 0.2230(4) 0.10537(19) 0.40250(11)
C67 C 0.2433(3) 0.11741(18) 0.43550(10)
H57 H 0.2734 0.1489 0.4406
C68 C 0.2191(3) 0.08289(18) 0.46090(11)
H58 H 0.2320 0.0913 0.4835
C69 C 0.1762(3) 0.03627(19) 0.45366(11)
C70 C 0.1533(3) 0.02551(18) 0.42083(11)
H59 H 0.1208 -0.0050 0.4159
C71 C 0.1784(4) 0.0598(2) 0.39522(12)
H60 H 0.1648 0.0517 0.3727
C72 C 0.1565(3) -0.0017(2) 0.48167(11)
O7 O 0.1165(2) -0.04511(14) 0.47147(9)
O8 O 0.1771(3) 0.00589(15) 0.50996(8)
C73 C 0.0992(4) -0.0865(2) 0.49630(13)
H61 H 0.1439 -0.0878 0.5128
H62 H 0.0962 -0.1220 0.4851
C74 C 0.0229(4) -0.0760(3) 0.51362(14)
H63 H 0.0134 -0.1041 0.5303
H64 H -0.0217 -0.0758 0.4974
H65 H 0.0258 -0.0409 0.5248
C96 C 0.2249(3) 0.15697(16) 0.55133(10)
C97 C 0.1490(3) 0.15821(18) 0.53636(10)
H83 H 0.1046 0.1389 0.5455
C98 C 0.1400(3) 0.18882(18) 0.50737(10)
H84 H 0.0886 0.1905 0.4967
C99 C 0.2052(4) 0.21699(18) 0.49376(10)
H85 H 0.1973 0.2381 0.4742
C100 C 0.2816(3) 0.21445(18) 0.50845(11)
H86 H 0.3262 0.2333 0.4990
C101 C 0.2916(3) 0.18387(17) 0.53718(10)
C102 C 0.3603(3) 0.17328(16) 0.55909(10)
C103 C 0.4435(3) 0.18522(19) 0.55745(11)
H87 H 0.4643 0.2064 0.5396
C104 C 0.4948(3) 0.1658(2) 0.58198(12)
H88 H 0.5515 0.1724 0.5804
C105 C 0.4645(3) 0.13706(19) 0.60869(12)
H89 H 0.5008 0.1254 0.6257
C106 C 0.3820(3) 0.12441(16) 0.61162(11)
H90 H 0.3614 0.1050 0.6302
C107 C 0.3320(3) 0.14187(15) 0.58582(10)
N5 N 0.2485(2) 0.13189(13) 0.58113(8)
C108 C 0.2002(2) 0.09754(15) 0.60095(9)
C109 C 0.1590(3) 0.05458(16) 0.58579(10)
H91 H 0.1622 0.0495 0.5623
C110 C 0.1138(3) 0.01974(16) 0.60524(10)
H92 H 0.0855 -0.0091 0.5949
C111 C 0.1094(3) 0.02660(15) 0.63999(10)
C112 C 0.1497(3) 0.06954(15) 0.65491(9)
H93 H 0.1471 0.0744 0.6785
C113 C 0.1936(2) 0.10513(15) 0.63553(9)
H94 H 0.2195 0.1350 0.6458
C114 C 0.0651(3) -0.01476(17) 0.65983(11)
O11 O 0.0743(2) -0.00737(11) 0.69287(7)
O12 O 0.0274(2) -0.05156(13) 0.64741(8)
C115 C 0.0388(3) -0.04841(17) 0.71453(12)
H95 H 0.0651 -0.0836 0.7105
H96 H -0.0200 -0.0520 0.7100
C116 C 0.0526(4) -0.0307(2) 0.74972(13)
H97 H 0.0239 0.0032 0.7537
H98 H 0.1108 -0.0255 0.7535
H99 H 0.0321 -0.0583 0.7651
C117 C 0.3600(2) 0.16142(14) 0.77568(9)
C118 C 0.4307(2) 0.15061(15) 0.79360(9)
H100 H 0.4317 0.1241 0.8107
C119 C 0.4996(3) 0.18000(15) 0.78555(9)
H101 H 0.5484 0.1739 0.7977
C120 C 0.4989(3) 0.21849(15) 0.75995(10)
H102 H 0.5466 0.2386 0.7553
C121 C 0.4294(3) 0.22743(15) 0.74132(10)
H103 H 0.4292 0.2528 0.7236
C122 C 0.3594(2) 0.19832(14) 0.74919(9)
C123 C 0.2786(3) 0.19742(15) 0.73498(9)
C124 C 0.2428(3) 0.22607(16) 0.70896(9)
H104 H 0.2739 0.2503 0.6958
C125 C 0.1612(3) 0.21858(18) 0.70271(10)
H105 H 0.1359 0.2377 0.6850
C126 C 0.1154(3) 0.18314(18) 0.72220(11)
H106 H 0.0592 0.1790 0.7176
C127 C 0.1502(3) 0.15377(16) 0.74808(10)
H107 H 0.1187 0.1298 0.7613
C128 C 0.2332(2) 0.16070(14) 0.75403(8)
N6 N 0.2831(2) 0.13867(11) 0.77854(7)
C129 C 0.2568(2) 0.10563(14) 0.80572(8)
C130 C 0.2789(2) 0.11928(14) 0.83820(9)
H108 H 0.3092 0.1511 0.8422
C131 C 0.2570(2) 0.08670(14) 0.86450(9)
H109 H 0.2736 0.0955 0.8866
C132 C 0.2106(2) 0.04096(14) 0.85874(9)
C133 C 0.1863(2) 0.02792(14) 0.82635(9)
H110 H 0.1531 -0.0027 0.8225
C134 C 0.2107(2) 0.05980(14) 0.79977(9)
H111 H 0.1960 0.0504 0.7776
C135 C 0.1912(2) 0.00669(14) 0.88824(9)
O13 O 0.13631(17) -0.03190(10) 0.88142(6)
O14 O 0.21996(18) 0.01300(11) 0.91570(6)
C136 C 0.1117(3) -0.06400(16) 0.91006(9)
H112 H 0.0900 -0.0405 0.9279
H113 H 0.1588 -0.0840 0.9191
C137 C 0.0477(3) -0.10245(17) 0.89850(10)
H114 H 0.0247 -0.1212 0.9179
H115 H 0.0719 -0.1287 0.8832
H116 H 0.0048 -0.0826 0.8869
C138 C 0.8654(2) 0.15946(14) 0.02383(9)
C139 C 0.9358(2) 0.14582(15) 0.00650(9)
H117 H 0.9359 0.1187 -0.0102
C140 C 1.0058(2) 0.17387(16) 0.01498(9)
H118 H 1.0550 0.1659 0.0036
C141 C 1.0058(3) 0.21361(16) 0.03981(9)
H119 H 1.0545 0.2325 0.0446
C142 C 0.9362(3) 0.22579(15) 0.05741(9)
H120 H 0.9369 0.2525 0.0744
C143 C 0.8646(2) 0.19804(14) 0.04971(9)
C144 C 0.7838(2) 0.20006(15) 0.06277(9)
C145 C 0.7467(3) 0.23130(17) 0.08745(10)
H121 H 0.7776 0.2560 0.1003
C146 C 0.6641(3) 0.22570(18) 0.09281(10)
H122 H 0.6382 0.2468 0.1095
C147 C 0.6186(3) 0.18924(18) 0.07394(11)
H123 H 0.5620 0.1861 0.0781
C148 C 0.6536(3) 0.15745(16) 0.04928(10)
H124 H 0.6222 0.1329 0.0365
C149 C 0.7369(3) 0.16312(15) 0.04405(9)
N7 N 0.78663(19) 0.13791(12) 0.02054(8)
C150 C 0.7605(2) 0.10527(14) -0.00664(9)
C151 C 0.7806(2) 0.11922(15) -0.03904(9)
H125 H 0.8108 0.1510 -0.0432
C152 C 0.7567(2) 0.08704(14) -0.06534(9)
H126 H 0.7711 0.0965 -0.0876
C153 C 0.7117(2) 0.04068(14) -0.05938(9)
C154 C 0.6896(2) 0.02749(14) -0.02683(9)
H127 H 0.6569 -0.0032 -0.0228
C155 C 0.7155(2) 0.05928(15) -0.00012(9)
H128 H 0.7026 0.0496 0.0222
C156 C 0.6899(2) 0.00649(14) -0.08871(9)
O15 O 0.63588(17) -0.03172(10) -0.08121(6)
O16 O 0.71731(19) 0.01312(12) -0.11645(6)
C157 C 0.6087(3) -0.06368(16) -0.10930(10)
H129 H 0.6549 -0.0838 -0.1191
H130 H 0.5853 -0.0402 -0.1268
C158 C 0.5456(3) -0.10207(16) -0.09644(10)
H131 H 0.5208 -0.1212 -0.1153
H132 H 0.5037 -0.0820 -0.0843
H133 H 0.5711 -0.1281 -0.0813
C159 C 0.8215(3) 0.14002(14) 0.21528(9)
C160 C 0.8761(3) 0.12702(17) 0.18989(10)
H134 H 0.8607 0.1047 0.1717
C161 C 0.9536(3) 0.1481(2) 0.19244(12)
H135 H 0.9917 0.1405 0.1753
C162 C 0.9777(3) 0.1802(2) 0.21950(11)
H136 H 1.0316 0.1936 0.2205
C163 C 0.9244(3) 0.19239(18) 0.24446(11)
H137 H 0.9409 0.2143 0.2627
C164 C 0.8451(3) 0.17220(15) 0.24296(10)
C165 C 0.7756(3) 0.17796(15) 0.26384(9)
C166 C 0.7594(4) 0.20833(15) 0.29266(10)
H138 H 0.8004 0.2302 0.3024
C167 C 0.6833(4) 0.20595(17) 0.30664(11)
H139 H 0.6720 0.2264 0.3262
C168 C 0.6219(3) 0.17382(17) 0.29257(10)
H140 H 0.5702 0.1727 0.3030
C169 C 0.6349(3) 0.14374(16) 0.26393(9)
H141 H 0.5934 0.1220 0.2545
C170 C 0.7124(3) 0.14686(14) 0.24951(9)
N8 N 0.7409(2) 0.12425(13) 0.21972(8)
C171 C 0.6959(2) 0.09047(14) 0.19778(9)
C172 C 0.6947(2) 0.10079(15) 0.16347(9)
H142 H 0.7227 0.1311 0.1547
C173 C 0.6527(2) 0.06670(15) 0.14220(9)
H143 H 0.6520 0.0735 0.1188
C174 C 0.6110(2) 0.02210(14) 0.15524(9)
C175 C 0.6107(2) 0.01364(15) 0.18964(9)
H144 H 0.5803 -0.0154 0.1987
C176 C 0.6540(2) 0.04693(14) 0.21092(9)
H145 H 0.6549 0.0400 0.2343
C177 C 0.5684(2) -0.01742(14) 0.13386(9)
O17 O 0.57791(18) -0.00830(11) 0.10114(6)
O18 O 0.53060(18) -0.05552(11) 0.14441(7)
C178 C 0.5418(3) -0.04755(17) 0.07876(10)
H146 H 0.4829 -0.0506 0.0831
H147 H 0.5670 -0.0833 0.0822
C179 C 0.5565(4) -0.0285(2) 0.04395(11)
H148 H 0.5357 -0.0551 0.0280
H149 H 0.6149 -0.0236 0.0404
H150 H 0.5286 0.0059 0.0405
C180 C 0.8509(3) 0.16183(15) 0.42487(9)
C181 C 0.9233(3) 0.15717(16) 0.40694(10)
H151 H 0.9278 0.1331 0.3886
C182 C 0.9880(3) 0.18860(17) 0.41675(10)
H152 H 1.0378 0.1865 0.4049
C183 C 0.9811(3) 0.22376(17) 0.44418(10)
H153 H 1.0258 0.2461 0.4499
C184 C 0.9111(3) 0.22649(15) 0.46286(10)
H154 H 0.9084 0.2492 0.4819
C185 C 0.8441(3) 0.19557(15) 0.45359(9)
C186 C 0.7632(3) 0.19032(15) 0.46678(9)
C187 C 0.7220(3) 0.21329(18) 0.49373(10)
H155 H 0.7493 0.2373 0.5084
C188 C 0.6416(3) 0.2009(2) 0.49898(12)
H156 H 0.6132 0.2168 0.5171
C189 C 0.6014(3) 0.1648(2) 0.47752(11)
H157 H 0.5460 0.1565 0.4815
C190 C 0.6408(3) 0.14128(18) 0.45085(11)
H158 H 0.6129 0.1173 0.4364
C191 C 0.7226(3) 0.15345(16) 0.44554(10)
N9 N 0.7758(2) 0.13622(13) 0.42034(7)
C192 C 0.7555(3) 0.10204(14) 0.39326(9)
C193 C 0.7786(3) 0.11628(15) 0.36073(9)
H159 H 0.8074 0.1488 0.3569
C194 C 0.7593(3) 0.08286(15) 0.33433(9)
H160 H 0.7761 0.0920 0.3123
C195 C 0.7157(3) 0.03614(15) 0.33965(9)
C196 C 0.6902(3) 0.02302(15) 0.37195(9)
H161 H 0.6578 -0.0080 0.3755
C197 C 0.7122(3) 0.05519(15) 0.39874(10)
H162 H 0.6977 0.0451 0.4209
C198 C 0.6964(3) 0.00225(15) 0.31004(10)
O19 O 0.64159(18) -0.03612(11) 0.31668(7)
O20 O 0.7270(2) 0.00853(12) 0.28265(7)
C199 C 0.6141(3) -0.06633(17) 0.28777(10)
H163 H 0.6587 -0.0889 0.2790
H164 H 0.5963 -0.0415 0.2699
C200 C 0.5449(3) -0.10088(17) 0.29875(11)
H165 H 0.5220 -0.1196 0.2793
H166 H 0.5030 -0.0784 0.3091
H167 H 0.5642 -0.1273 0.3151
C201 C 0.7323(3) 0.1594(2) 0.65287(10)
C202 C 0.6548(3) 0.1570(2) 0.66630(13)
H168 H 0.6149 0.1337 0.6571
C203 C 0.6374(3) 0.1895(2) 0.69339(12)
H169 H 0.5844 0.1889 0.7027
C204 C 0.6964(3) 0.2231(2) 0.70727(13)
H170 H 0.6832 0.2446 0.7261
C205 C 0.7730(4) 0.2255(3) 0.69414(14)
H171 H 0.8125 0.2486 0.7038
C206 C 0.7926(4) 0.1941(6) 0.6665(2)
C207 C 0.8644(4) 0.1859(3) 0.64734(19)
C208 C 0.9435(3) 0.2075(4) 0.64878(15)
H172 H 0.9565 0.2357 0.6639
C209 C 1.0013(3) 0.1866(2) 0.62752(14)
H173 H 1.0554 0.1996 0.6287
C210 C 0.9822(4) 0.1471(2) 0.60463(14)
H174 H 1.0240 0.1335 0.5906
C211 C 0.9040(4) 0.12612(19) 0.60109(13)
H175 H 0.8912 0.0996 0.5848
C212 C 0.8456(4) 0.14684(19) 0.62312(12)
N10 N 0.7659(3) 0.13130(15) 0.62629(10)
C213 C 0.7215(3) 0.09391(19) 0.60509(11)
C214 C 0.6835(3) 0.04966(19) 0.62016(11)
H176 H 0.6863 0.0444 0.6437
C215 C 0.6418(3) 0.0137(2) 0.59993(11)
H177 H 0.6150 -0.0163 0.6097
C216 C 0.6390(3) 0.02132(17) 0.56553(11)
C217 C 0.6765(3) 0.06564(19) 0.55125(12)
H178 H 0.6742 0.0708 0.5277
C218 C 0.7172(3) 0.10231(18) 0.57092(12)
H179 H 0.7420 0.1330 0.5611
C219 C 0.5972(3) -0.02025(18) 0.54446(11)
O21 O 0.6103(3) -0.01257(14) 0.51208(9)
O22 O 0.5576(2) -0.05772(13) 0.55584(8)
C220 C 0.5749(5) -0.0535(2) 0.48957(15)
H180 H 0.5155 -0.0560 0.4927
H181 H 0.5993 -0.0892 0.4937
C221 C 0.5948(4) -0.0341(2) 0.45505(12)
H182 H 0.5654 -0.0558 0.4386
H183 H 0.6533 -0.0374 0.4512
H184 H 0.5787 0.0037 0.4528
C243 C 0.8066(2) 0.15101(15) 0.81822(10)
C244 C 0.8636(3) 0.13974(18) 0.79332(11)
H202 H 0.8512 0.1169 0.7749
C245 C 0.9385(3) 0.1634(2) 0.79680(12)
H203 H 0.9784 0.1565 0.7802
C246 C 0.9584(3) 0.19648(19) 0.82323(12)
H204 H 1.0111 0.2118 0.8243
C247 C 0.9021(3) 0.20789(17) 0.84853(11)
H205 H 0.9157 0.2305 0.8668
C248 C 0.8246(3) 0.18446(16) 0.84578(10)
C249 C 0.7532(3) 0.18801(15) 0.86660(9)
C250 C 0.7344(3) 0.21609(16) 0.89536(10)
H206 H 0.7735 0.2388 0.9056
C251 C 0.6581(3) 0.21075(16) 0.90904(10)
H207 H 0.6445 0.2300 0.9288
C252 C 0.6004(3) 0.17697(17) 0.89392(10)
H208 H 0.5482 0.1736 0.9038
C253 C 0.6173(2) 0.14843(15) 0.86496(9)
H209 H 0.5779 0.1257 0.8548
C254 C 0.6944(3) 0.15449(14) 0.85138(9)
N12 N 0.7268(2) 0.13278(12) 0.82191(8)
C255 C 0.6855(3) 0.09674(16) 0.79983(10)
C256 C 0.6894(3) 0.10336(18) 0.76510(11)
H210 H 0.7172 0.1335 0.7561
C257 C 0.6538(3) 0.06711(18) 0.74380(9)
H211 H 0.6587 0.0718 0.7203
C258 C 0.6110(3) 0.02404(15) 0.75627(9)
C259 C 0.6041(3) 0.01748(15) 0.79138(10)
H212 H 0.5725 -0.0110 0.8003
C260 C 0.6442(3) 0.05312(19) 0.81281(9)
H213 H 0.6430 0.0474 0.8363
C261 C 0.5739(3) -0.01836(17) 0.73457(9)
O25 O 0.6017(2) -0.01522(15) 0.70281(8)
O26 O 0.5291(2) -0.05328(12) 0.74440(7)
C262 C 0.5832(4) -0.0614(2) 0.68122(12)
H214 H 0.5821 -0.0948 0.6947
H215 H 0.6257 -0.0653 0.6639
C263 C 0.5027(4) -0.0532(2) 0.66491(15)
H216 H 0.4599 -0.0540 0.6819
H217 H 0.4932 -0.0818 0.6485
H218 H 0.5021 -0.0183 0.6536
C22? C 0.075(4) -0.0556(16) 0.1192(13)
H18? H 0.1290 -0.0721 0.1237
H19? H 0.0378 -0.0827 0.1098
C23? C 0.041(4) -0.027(4) 0.1493(15)
H20? H 0.0319 -0.0534 0.1673
H21? H 0.0793 0.0002 0.1570
H22? H -0.0106 -0.0102 0.1433
C45? C 0.232(3) 0.0907(16) 0.1947(8)
C46? C 0.189(3) 0.0485(15) 0.1786(7)
H40? H 0.1897 0.0455 0.1550
C47? C 0.148(3) 0.0121(15) 0.1979(6)
H41? H 0.1173 -0.0153 0.1870
C48? C 0.148(3) 0.0136(14) 0.2333(6)
C49? C 0.187(3) 0.0561(17) 0.2486(8)
H42? H 0.1869 0.0589 0.2723
C50? C 0.225(3) 0.0949(15) 0.2292(8)
H43? H 0.2473 0.1256 0.2400
C51? C 0.108(3) -0.0289(15) 0.2537(6)
O5? O 0.117(3) -0.0198(16) 0.2867(6)
O6? O 0.061(2) -0.0608(15) 0.2416(8)
C52? C 0.087(4) -0.060(2) 0.3098(9)
H44? H 0.1141 -0.0948 0.3059
H45? H 0.0278 -0.0648 0.3071
C53? C 0.106(3) -0.039(2) 0.3441(8)
H46? H 0.0682 -0.0553 0.3602
H47? H 0.1008 -0.0002 0.3445
H48? H 0.1617 -0.0496 0.3501
C75? C 0.3069(12) 0.1509(10) 0.3835(5)
C76? C 0.3642(13) 0.1395(9) 0.4078(5)
H66? H 0.3531 0.1155 0.4257
C77? C 0.4382(14) 0.1647(10) 0.4047(6)
H67? H 0.4770 0.1600 0.4220
C78? C 0.4596(17) 0.1975(13) 0.3770(7)
H68? H 0.5122 0.2130 0.3754
C79? C 0.4026(12) 0.2064(9) 0.3524(6)
H69? H 0.4152 0.2274 0.3332
C80? C 0.3245(12) 0.1833(11) 0.3563(6)
C81? C 0.2516(17) 0.187(2) 0.3360(10)
C82? C 0.2353(18) 0.2155(16) 0.3069(8)
H70? H 0.2753 0.2381 0.2973
C83? C 0.1607(18) 0.2104(15) 0.2923(8)
H71? H 0.1490 0.2282 0.2718
C84? C 0.1019(18) 0.1785(17) 0.3078(8)
H72? H 0.0481 0.1796 0.2992
C85? C 0.1176(17) 0.1458(16) 0.3347(8)
H73? H 0.0785 0.1208 0.3426
C86? C 0.195(2) 0.151(2) 0.3502(11)
N4? N 0.2258(13) 0.1327(10) 0.3809(5)
C87? C 0.1886(18) 0.0963(10) 0.4032(4)
C88? C 0.1922(17) 0.1029(8) 0.4379(4)
H74? H 0.2193 0.1329 0.4473
C89? C 0.1553(17) 0.0647(9) 0.4584(5)
H75? H 0.1591 0.0681 0.4820
C90? C 0.1128(16) 0.0214(8) 0.4445(4)
C91? C 0.1059(17) 0.0159(9) 0.4101(4)
H76? H 0.0732 -0.0115 0.4005
C92? C 0.149(2) 0.0521(10) 0.3900(5)
H77? H 0.1507 0.0462 0.3665
C93? C 0.0766(17) -0.0206(9) 0.4670(4)
O9? O 0.1098(12) -0.0194(7) 0.4966(4)
O10? O 0.0337(12) -0.0559(7) 0.4559(4)
C94? C 0.0942(16) -0.0638(9) 0.5189(6)
H78? H 0.1380 -0.0662 0.5358
H79? H 0.0935 -0.0978 0.5060
C95? C 0.0151(18) -0.0562(14) 0.5358(7)
H80? H -0.0277 -0.0522 0.5190
H81? H 0.0173 -0.0238 0.5498
H82? H 0.0035 -0.0875 0.5499
C222? C 0.7422(16) 0.1599(16) 0.6441(7)
C223? C 0.6642(16) 0.1541(15) 0.6549(7)
H185? H 0.6293 0.1297 0.6437
C224? C 0.6351(18) 0.1828(15) 0.6817(7)
H186? H 0.5806 0.1770 0.6886
C225? C 0.6819(19) 0.2199(17) 0.6991(8)
H187? H 0.6600 0.2403 0.7170
C226? C 0.762(2) 0.226(2) 0.6892(11)
H188? H 0.7955 0.2514 0.7001
C227? C 0.793(2) 0.195(4) 0.6631(18)
C228? C 0.8694(17) 0.193(3) 0.6460(13)
C229? C 0.9453(17) 0.215(2) 0.6561(11)
H189? H 0.9488 0.2329 0.6768
C230? C 1.0151(16) 0.2097(13) 0.6366(7)
H190? H 1.0628 0.2305 0.6399
C231? C 1.0068(16) 0.1705(13) 0.6114(8)
H191? H 1.0539 0.1608 0.5991
C232? C 0.9338(16) 0.1449(13) 0.6032(7)
H192? H 0.9348 0.1176 0.5865
C233? C 0.8584(13) 0.1574(15) 0.6184(8)
N11? N 0.7767(13) 0.1417(10) 0.6145(5)
C234? C 0.7199(15) 0.1196(9) 0.5838(5)
C235? C 0.7178(19) 0.0647(9) 0.6000(5)
H193? H 0.7303 0.0561 0.6226
C236? C 0.693(2) 0.0290(9) 0.5745(5)
H194? H 0.6720 -0.0057 0.5793
C237? C 0.702(2) 0.0479(9) 0.5421(5)
C238? C 0.7453(18) 0.0943(9) 0.5338(5)
H195? H 0.7536 0.1037 0.5111
C239? C 0.7759(17) 0.1262(10) 0.5590(5)
H196? H 0.8238 0.1475 0.5591
C240? C 0.6827(19) 0.0127(10) 0.5128(5)
O23? O 0.6337(17) -0.0287(9) 0.5201(6)
O24? O 0.6994(17) 0.0232(10) 0.4839(4)
C241? C 0.574(3) -0.0384(11) 0.4927(11)
H197? H 0.5241 -0.0162 0.4949
H198? H 0.5974 -0.0339 0.4701
C242? C 0.5605(16) -0.0948(8) 0.5016(5)
H199? H 0.5202 -0.1106 0.4865
H200? H 0.5408 -0.0970 0.5247
H201? H 0.6117 -0.1146 0.4997
C264? C 0.704(3) 0.0891(13) 0.7938(7)
C265? C 0.705(3) 0.1182(15) 0.7640(9)
H219? H 0.7302 0.1520 0.7608
C266? C 0.662(3) 0.0903(13) 0.7397(7)
H220? H 0.6436 0.1073 0.7198
C267? C 0.648(2) 0.0364(12) 0.7459(6)
C268? C 0.616(2) 0.0216(14) 0.7776(7)
H221? H 0.5788 -0.0070 0.7806
C269? C 0.646(4) 0.054(2) 0.8042(7)
H222? H 0.6270 0.0512 0.8267
C270? C 0.6362(18) 0.0039(13) 0.7149(6)
O27? O 0.5555(17) 0.0015(13) 0.7053(7)
O28? O 0.674(2) 0.0142(15) 0.6893(7)
C271? C 0.534(3) -0.0393(16) 0.6806(7)
H223? H 0.4755 -0.0466 0.6824
H224? H 0.5633 -0.0729 0.6865
C272? C 0.553(3) -0.0256(18) 0.6449(7)
H225? H 0.6123 -0.0216 0.6422
H226? H 0.5265 0.0081 0.6388
H227? H 0.5340 -0.0545 0.6303
loop_
_geom_bond_atom_site_label_1
_geom_bond_atom_site_label_2
_geom_bond_site_symmetry_1
_geom_bond_site_symmetry_2
C1 C2 1_555 1_555
C2 H1 1_555 1_555
C3 C2 1_555 1_555
H2 C3 1_555 1_555
C4 C3 1_555 1_555
H3 C4 1_555 1_555
C5 C4 1_555 1_555
H4 C5 1_555 1_555
C6 C1 1_555 1_555
C7 C6 1_555 1_555
C8 C7 1_555 1_555
H5 C8 1_555 1_555
C9 C8 1_555 1_555
H6 C9 1_555 1_555
C10 C9 1_555 1_555
H7 C10 1_555 1_555
C11 C10 1_555 1_555
H8 C11 1_555 1_555
C12 C7 1_555 1_555
N1 C1 1_555 1_555
C13 N1 1_555 1_555
C14 C13 1_555 1_555
H9 C14 1_555 1_555
C15 C14 1_555 1_555
H10 C15 1_555 1_555
C16 C15 1_555 1_555
C17 C16 1_555 1_555
H11 C17 1_555 1_555
C18 C13 1_555 1_555
H12 C18 1_555 1_555
C19 C16 1_555 1_555
O1 C19 1_555 1_555
O2 C19 1_555 1_555
C20 O1 1_555 1_555
H13 C20 1_555 1_555
H14 C20 1_555 1_555
C21 C20 1_555 1_555
H15 C21 1_555 1_555
H16 C21 1_555 1_555
H17 C21 1_555 1_555
C24 C25 1_555 1_555
C25 H23 1_555 1_555
C26 C25 1_555 1_555
H24 C26 1_555 1_555
C27 C26 1_555 1_555
H25 C27 1_555 1_555
C28 C27 1_555 1_555
H26 C28 1_555 1_555
C29 C24 1_555 1_555
C30 C29 1_555 1_555
C31 C30 1_555 1_555
H27 C31 1_555 1_555
C32 C31 1_555 1_555
H28 C32 1_555 1_555
C33 C32 1_555 1_555
H29 C33 1_555 1_555
C34 C33 1_555 1_555
H30 C34 1_555 1_555
C35 C30 1_555 1_555
N2 C24 1_555 1_555
C36 N2 1_555 1_555
C37 C36 1_555 1_555
H31 C37 1_555 1_555
C38 C37 1_555 1_555
H32 C38 1_555 1_555
C39 C38 1_555 1_555
C40 C39 1_555 1_555
H33 C40 1_555 1_555
C41 C36 1_555 1_555
H34 C41 1_555 1_555
C42 C39 1_555 1_555
O3 C42 1_555 1_555
O4 C42 1_555 1_555
C43 O3 1_555 1_555
H35 C43 1_555 1_555
H36 C43 1_555 1_555
C44 C43 1_555 1_555
H37 C44 1_555 1_555
H38 C44 1_555 1_555
H39 C44 1_555 1_555
C54 C55 1_555 1_555
C55 H49 1_555 1_555
C56 C55 1_555 1_555
H50 C56 1_555 1_555
C57 C56 1_555 1_555
H51 C57 1_555 1_555
C58 C57 1_555 1_555
H52 C58 1_555 1_555
C59 C54 1_555 1_555
C60 C59 1_555 1_555
C61 C60 1_555 1_555
H53 C61 1_555 1_555
C62 C61 1_555 1_555
H54 C62 1_555 1_555
C63 C62 1_555 1_555
H55 C63 1_555 1_555
C64 C63 1_555 1_555
H56 C64 1_555 1_555
C65 C60 1_555 1_555
N3 C54 1_555 1_555
C66 N3 1_555 1_555
C67 C66 1_555 1_555
H57 C67 1_555 1_555
C68 C67 1_555 1_555
H58 C68 1_555 1_555
C69 C68 1_555 1_555
C70 C69 1_555 1_555
H59 C70 1_555 1_555
C71 C66 1_555 1_555
H60 C71 1_555 1_555
C72 C69 1_555 1_555
O7 C72 1_555 1_555
O8 C72 1_555 1_555
C73 O7 1_555 1_555
H61 C73 1_555 1_555
H62 C73 1_555 1_555
C74 C73 1_555 1_555
H63 C74 1_555 1_555
H64 C74 1_555 1_555
H65 C74 1_555 1_555
C96 C97 1_555 1_555
C97 H83 1_555 1_555
C98 C97 1_555 1_555
H84 C98 1_555 1_555
C99 C98 1_555 1_555
H85 C99 1_555 1_555
C100 C99 1_555 1_555
H86 C100 1_555 1_555
C101 C96 1_555 1_555
C102 C101 1_555 1_555
C103 C102 1_555 1_555
H87 C103 1_555 1_555
C104 C103 1_555 1_555
H88 C104 1_555 1_555
C105 C104 1_555 1_555
H89 C105 1_555 1_555
C106 C105 1_555 1_555
H90 C106 1_555 1_555
C107 C102 1_555 1_555
N5 C96 1_555 1_555
C108 N5 1_555 1_555
C109 C108 1_555 1_555
H91 C109 1_555 1_555
C110 C109 1_555 1_555
H92 C110 1_555 1_555
C111 C110 1_555 1_555
C112 C111 1_555 1_555
H93 C112 1_555 1_555
C113 C108 1_555 1_555
H94 C113 1_555 1_555
C114 C111 1_555 1_555
O11 C114 1_555 1_555
O12 C114 1_555 1_555
C115 O11 1_555 1_555
H95 C115 1_555 1_555
H96 C115 1_555 1_555
C116 C115 1_555 1_555
H97 C116 1_555 1_555
H98 C116 1_555 1_555
H99 C116 1_555 1_555
C117 C118 1_555 1_555
C118 H100 1_555 1_555
C119 C118 1_555 1_555
H101 C119 1_555 1_555
C120 C119 1_555 1_555
H102 C120 1_555 1_555
C121 C120 1_555 1_555
H103 C121 1_555 1_555
C122 C117 1_555 1_555
C123 C122 1_555 1_555
C124 C123 1_555 1_555
H104 C124 1_555 1_555
C125 C124 1_555 1_555
H105 C125 1_555 1_555
C126 C125 1_555 1_555
H106 C126 1_555 1_555
C127 C126 1_555 1_555
H107 C127 1_555 1_555
C128 C123 1_555 1_555
N6 C117 1_555 1_555
C129 N6 1_555 1_555
C130 C129 1_555 1_555
H108 C130 1_555 1_555
C131 C130 1_555 1_555
H109 C131 1_555 1_555
C132 C131 1_555 1_555
C133 C132 1_555 1_555
H110 C133 1_555 1_555
C134 C129 1_555 1_555
H111 C134 1_555 1_555
C135 C132 1_555 1_555
O13 C135 1_555 1_555
O14 C135 1_555 1_555
C136 O13 1_555 1_555
H112 C136 1_555 1_555
H113 C136 1_555 1_555
C137 C136 1_555 1_555
H114 C137 1_555 1_555
H115 C137 1_555 1_555
H116 C137 1_555 1_555
C138 C139 1_555 1_555
C139 H117 1_555 1_555
C140 C139 1_555 1_555
H118 C140 1_555 1_555
C141 C140 1_555 1_555
H119 C141 1_555 1_555
C142 C141 1_555 1_555
H120 C142 1_555 1_555
C143 C138 1_555 1_555
C144 C143 1_555 1_555
C145 C144 1_555 1_555
H121 C145 1_555 1_555
C146 C145 1_555 1_555
H122 C146 1_555 1_555
C147 C146 1_555 1_555
H123 C147 1_555 1_555
C148 C147 1_555 1_555
H124 C148 1_555 1_555
C149 C144 1_555 1_555
N7 C138 1_555 1_555
C150 N7 1_555 1_555
C151 C150 1_555 1_555
H125 C151 1_555 1_555
C152 C151 1_555 1_555
H126 C152 1_555 1_555
C153 C152 1_555 1_555
C154 C153 1_555 1_555
H127 C154 1_555 1_555
C155 C150 1_555 1_555
H128 C155 1_555 1_555
C156 C153 1_555 1_555
O15 C156 1_555 1_555
O16 C156 1_555 1_555
C157 O15 1_555 1_555
H129 C157 1_555 1_555
H130 C157 1_555 1_555
C158 C157 1_555 1_555
H131 C158 1_555 1_555
H132 C158 1_555 1_555
H133 C158 1_555 1_555
C159 C160 1_555 1_555
C160 H134 1_555 1_555
C161 C160 1_555 1_555
H135 C161 1_555 1_555
C162 C161 1_555 1_555
H136 C162 1_555 1_555
C163 C162 1_555 1_555
H137 C163 1_555 1_555
C164 C159 1_555 1_555
C165 C164 1_555 1_555
C166 C165 1_555 1_555
H138 C166 1_555 1_555
C167 C166 1_555 1_555
H139 C167 1_555 1_555
C168 C167 1_555 1_555
H140 C168 1_555 1_555
C169 C168 1_555 1_555
H141 C169 1_555 1_555
C170 C165 1_555 1_555
N8 C159 1_555 1_555
C171 N8 1_555 1_555
C172 C171 1_555 1_555
H142 C172 1_555 1_555
C173 C172 1_555 1_555
H143 C173 1_555 1_555
C174 C173 1_555 1_555
C175 C174 1_555 1_555
H144 C175 1_555 1_555
C176 C171 1_555 1_555
H145 C176 1_555 1_555
C177 C174 1_555 1_555
O17 C177 1_555 1_555
O18 C177 1_555 1_555
C178 O17 1_555 1_555
H146 C178 1_555 1_555
H147 C178 1_555 1_555
C179 C178 1_555 1_555
H148 C179 1_555 1_555
H149 C179 1_555 1_555
H150 C179 1_555 1_555
C180 C181 1_555 1_555
C181 H151 1_555 1_555
C182 C181 1_555 1_555
H152 C182 1_555 1_555
C183 C182 1_555 1_555
H153 C183 1_555 1_555
C184 C183 1_555 1_555
H154 C184 1_555 1_555
C185 C180 1_555 1_555
C186 C185 1_555 1_555
C187 C186 1_555 1_555
H155 C187 1_555 1_555
C188 C187 1_555 1_555
H156 C188 1_555 1_555
C189 C188 1_555 1_555
H157 C189 1_555 1_555
C190 C189 1_555 1_555
H158 C190 1_555 1_555
C191 C186 1_555 1_555
N9 C180 1_555 1_555
C192 N9 1_555 1_555
C193 C192 1_555 1_555
H159 C193 1_555 1_555
C194 C193 1_555 1_555
H160 C194 1_555 1_555
C195 C194 1_555 1_555
C196 C195 1_555 1_555
H161 C196 1_555 1_555
C197 C192 1_555 1_555
H162 C197 1_555 1_555
C198 C195 1_555 1_555
O19 C198 1_555 1_555
O20 C198 1_555 1_555
C199 O19 1_555 1_555
H163 C199 1_555 1_555
H164 C199 1_555 1_555
C200 C199 1_555 1_555
H165 C200 1_555 1_555
H166 C200 1_555 1_555
H167 C200 1_555 1_555
C201 C202 1_555 1_555
C202 H168 1_555 1_555
C203 C202 1_555 1_555
H169 C203 1_555 1_555
C204 C203 1_555 1_555
H170 C204 1_555 1_555
C205 C204 1_555 1_555
H171 C205 1_555 1_555
C206 C201 1_555 1_555
C207 C206 1_555 1_555
C208 C207 1_555 1_555
H172 C208 1_555 1_555
C209 C208 1_555 1_555
H173 C209 1_555 1_555
C210 C209 1_555 1_555
H174 C210 1_555 1_555
C211 C210 1_555 1_555
H175 C211 1_555 1_555
C212 C207 1_555 1_555
N10 C201 1_555 1_555
C213 N10 1_555 1_555
C214 C213 1_555 1_555
H176 C214 1_555 1_555
C215 C214 1_555 1_555
H177 C215 1_555 1_555
C216 C215 1_555 1_555
C217 C216 1_555 1_555
H178 C217 1_555 1_555
C218 C213 1_555 1_555
H179 C218 1_555 1_555
C219 C216 1_555 1_555
O21 C219 1_555 1_555
O22 C219 1_555 1_555
C220 O21 1_555 1_555
H180 C220 1_555 1_555
H181 C220 1_555 1_555
C221 C220 1_555 1_555
H182 C221 1_555 1_555
H183 C221 1_555 1_555
H184 C221 1_555 1_555
C243 C244 1_555 1_555
C244 H202 1_555 1_555
C245 C244 1_555 1_555
H203 C245 1_555 1_555
C246 C245 1_555 1_555
H204 C246 1_555 1_555
C247 C246 1_555 1_555
H205 C247 1_555 1_555
C248 C243 1_555 1_555
C249 C248 1_555 1_555
C250 C249 1_555 1_555
H206 C250 1_555 1_555
C251 C250 1_555 1_555
H207 C251 1_555 1_555
C252 C251 1_555 1_555
H208 C252 1_555 1_555
C253 C252 1_555 1_555
H209 C253 1_555 1_555
C254 C249 1_555 1_555
N12 C243 1_555 1_555
C255 N12 1_555 1_555
C256 C255 1_555 1_555
H210 C256 1_555 1_555
C257 C256 1_555 1_555
H211 C257 1_555 1_555
C258 C257 1_555 1_555
C259 C258 1_555 1_555
H212 C259 1_555 1_555
C260 C255 1_555 1_555
H213 C260 1_555 1_555
C261 C258 1_555 1_555
O25 C261 1_555 1_555
O26 C261 1_555 1_555
C262 O25 1_555 1_555
H214 C262 1_555 1_555
H215 C262 1_555 1_555
C263 C262 1_555 1_555
H216 C263 1_555 1_555
H217 C263 1_555 1_555
H218 C263 1_555 1_555
C5 C6 1_555 1_555
C11 C12 1_555 1_555
C12 N1 1_555 1_555
C17 C18 1_555 1_555
C28 C29 1_555 1_555
C34 C35 1_555 1_555
C35 N2 1_555 1_555
C40 C41 1_555 1_555
C58 C59 1_555 1_555
C64 C65 1_555 1_555
C65 N3 1_555 1_555
C70 C71 1_555 1_555
C100 C101 1_555 1_555
C106 C107 1_555 1_555
C107 N5 1_555 1_555
C112 C113 1_555 1_555
C121 C122 1_555 1_555
C127 C128 1_555 1_555
C128 N6 1_555 1_555
C133 C134 1_555 1_555
C142 C143 1_555 1_555
C148 C149 1_555 1_555
C149 N7 1_555 1_555
C154 C155 1_555 1_555
C163 C164 1_555 1_555
C169 C170 1_555 1_555
C170 N8 1_555 1_555
C175 C176 1_555 1_555
C184 C185 1_555 1_555
C190 C191 1_555 1_555
C191 N9 1_555 1_555
C196 C197 1_555 1_555
C205 C206 1_555 1_555
C211 C212 1_555 1_555
C212 N10 1_555 1_555
C217 C218 1_555 1_555
C247 C248 1_555 1_555
C253 C254 1_555 1_555
C254 N12 1_555 1_555
C259 C260 1_555 1_555

#END
