
#######################################################################
#
#                 Cambridge Crystallographic Data Centre
#                                CCDC 
#
#######################################################################
#
# If this CIF has been generated from an entry in the Cambridge 
# Structural Database, then it will include bibliographic, chemical, 
# crystal, experimental, refinement or atomic coordinate data resulting 
# from the CCDC's data processing and validation procedures.
#
#######################################################################

data_AYAWED
_chemical_formula_moiety         'C8 H12 I1 N2 S2 1+,I1 1-'
_chemical_name_systematic        
'6-Iodo-2,5,5-trimethyl-6,7-dihydro-5H-[1,3,4]thiadiazolo[2,3-b][1,3]thiazin-4-ium iodide'
_symmetry_cell_setting           monoclinic
_symmetry_space_group_name_H-M   'P 21/n'
_symmetry_Int_Tables_number      14
_space_group_name_Hall           '-P 2yn'
loop_
_symmetry_equiv_pos_site_id
_symmetry_equiv_pos_as_xyz
1 x,y,z
2 1/2-x,1/2+y,1/2-z
3 -x,-y,-z
4 1/2+x,1/2-y,1/2+z
_cell_length_a                   6.7607(2)
_cell_length_b                   18.4770(6)
_cell_length_c                   10.6587(3)
_cell_angle_alpha                90
_cell_angle_beta                 100.836(2)
_cell_angle_gamma                90
_cell_volume                     1307.72
_exptl_crystal_colour            'light yellow'
_exptl_crystal_description       prism
_chemical_melting_point          '116 deg.C (dec.)'
_cell_formula_units_Z            4
loop_
_atom_site_label
_atom_site_type_symbol
_atom_site_fract_x
_atom_site_fract_y
_atom_site_fract_z
I1 I 0.23464(3) 0.233375(13) 0.26031(2)
S1 S -0.58512(12) 0.02444(5) 0.13963(8)
S2 S -0.38335(13) 0.14842(5) 0.03540(9)
N1 N -0.2766(4) 0.08288(14) 0.2673(2)
N2 N -0.3223(4) 0.02949(15) 0.3465(3)
C1 C -0.3989(4) 0.08859(17) 0.1548(3)
C2 C -0.1767(6) 0.2040(2) 0.1164(4)
H1 H -0.1145 0.2285 0.0532
H2 H -0.2292 0.2407 0.1664
C3 C -0.4770(5) -0.00663(18) 0.2911(3)
C4 C -0.0209(5) 0.16064(19) 0.2023(3)
H3 H 0.0220 0.1211 0.1522
C5 C -0.0922(5) 0.12745(17) 0.3195(3)
C6 C -0.1529(6) 0.1808(2) 0.4125(4)
H4 H -0.1945 0.1550 0.4814
H5 H -0.2624 0.2100 0.3695
H6 H -0.0404 0.2113 0.4460
C7 C -0.5551(5) -0.0710(2) 0.3488(4)
H7 H -0.4756 -0.0795 0.4321
H8 H -0.5477 -0.1125 0.2956
H9 H -0.6927 -0.0628 0.3561
C8 C 0.0688(5) 0.0752(2) 0.3864(4)
H10 H 0.0260 0.0545 0.4595
H11 H 0.1929 0.1009 0.4134
H12 H 0.0887 0.0374 0.3283
I2 I -0.09487(4) -0.114232(16) 0.14838(3)
loop_
_geom_bond_atom_site_label_1
_geom_bond_atom_site_label_2
_geom_bond_site_symmetry_1
_geom_bond_site_symmetry_2
I1 C4 1_555 1_555
S1 C1 1_555 1_555
S2 C1 1_555 1_555
N1 N2 1_555 1_555
N2 C3 1_555 1_555
C1 N1 1_555 1_555
C2 S2 1_555 1_555
H1 C2 1_555 1_555
H2 C2 1_555 1_555
C3 S1 1_555 1_555
C4 C2 1_555 1_555
H3 C4 1_555 1_555
C5 N1 1_555 1_555
C6 C5 1_555 1_555
H4 C6 1_555 1_555
H5 C6 1_555 1_555
H6 C6 1_555 1_555
C7 C3 1_555 1_555
H7 C7 1_555 1_555
H8 C7 1_555 1_555
H9 C7 1_555 1_555
C8 C5 1_555 1_555
H10 C8 1_555 1_555
H11 C8 1_555 1_555
H12 C8 1_555 1_555
C4 C5 1_555 1_555

#END
