
#######################################################################
#
#                 Cambridge Crystallographic Data Centre
#                                CCDC 
#
#######################################################################
#
# If this CIF has been generated from an entry in the Cambridge 
# Structural Database, then it will include bibliographic, chemical, 
# crystal, experimental, refinement or atomic coordinate data resulting 
# from the CCDC's data processing and validation procedures.
#
#######################################################################

data_AYECEM
_chemical_formula_moiety         'C10 H12 N4 O5'
_chemical_name_systematic        
3-(3-Ethyl-1-methyl-4-nitro-1H-pyrazol-5-ylcarbonyl)oxazolidin-2-one
_symmetry_cell_setting           monoclinic
_symmetry_space_group_name_H-M   'P 21/n'
_symmetry_Int_Tables_number      14
_space_group_name_Hall           '-P 2yn'
loop_
_symmetry_equiv_pos_site_id
_symmetry_equiv_pos_as_xyz
1 x,y,z
2 1/2+x,1/2-y,1/2+z
3 -x,-y,-z
4 1/2-x,1/2+y,1/2-z
_cell_length_a                   15.2175(3)
_cell_length_b                   5.29700(10)
_cell_length_c                   15.8185(3)
_cell_angle_alpha                90
_cell_angle_beta                 104.893(4)
_cell_angle_gamma                90
_cell_volume                     1232.25
_exptl_crystal_colour            colorless
_exptl_crystal_description       block
_chemical_melting_point          '414-415 K'
_cell_formula_units_Z            4
_exptl_crystal_recrystallization_method ethanol
loop_
_atom_site_label
_atom_site_type_symbol
_atom_site_fract_x
_atom_site_fract_y
_atom_site_fract_z
O1 O 0.7832(2) 0.4240(6) 0.6271(2)
O2 O 0.6775(2) 0.3917(5) 0.7024(2)
O3 O 0.6433(2) -0.1824(5) 0.4905(2)
O4 O 0.5784(2) 0.3380(5) 0.3902(2)
O5 O 0.6402(2) 0.5719(6) 0.3084(2)
N1 N 0.6672(2) 0.1260(5) 0.5918(2)
N2 N 0.8363(2) 0.0864(5) 0.4936(2)
N3 N 0.8811(2) 0.2257(5) 0.4452(2)
N4 N 0.6448(2) 0.4170(5) 0.3669(2)
C1 C 0.7154(3) 0.3253(6) 0.6382(2)
C2 C 0.5977(3) 0.2385(8) 0.6982(3)
C3 C 0.5969(3) 0.0365(8) 0.6328(3)
C4 C 0.6823(2) 0.0108(6) 0.5191(2)
C5 C 0.7475(2) 0.1396(6) 0.4753(2)
C6 C 0.7325(2) 0.3163(6) 0.4096(2)
C7 C 0.8169(2) 0.3702(6) 0.3929(2)
C8 C 0.8419(2) 0.5541(6) 0.3305(2)
C9 C 0.9430(3) 0.5555(9) 0.3338(3)
C10 C 0.8880(3) -0.0840(8) 0.5609(3)
H1 H 0.6016 0.1651 0.7552
H2 H 0.5431 0.3403 0.6806
H3 H 0.5384 0.0247 0.5904
H4 H 0.6129 -0.1264 0.6605
H5 H 0.8081 0.5121 0.2713
H6 H 0.8244 0.7211 0.3454
H7 H 0.9736 0.6748 0.3771
H8 H 0.9518 0.6015 0.2778
H9 H 0.9673 0.3898 0.3494
H10 H 0.8916 -0.2475 0.5358
H11 H 0.8578 -0.0983 0.6070
H12 H 0.9482 -0.0186 0.5842
loop_
_geom_bond_atom_site_label_1
_geom_bond_atom_site_label_2
_geom_bond_site_symmetry_1
_geom_bond_site_symmetry_2
O1 C1 1_555 1_555
O2 C1 1_555 1_555
O3 C4 1_555 1_555
O4 N4 1_555 1_555
O5 N4 1_555 1_555
N1 C1 1_555 1_555
N2 N3 1_555 1_555
N3 C7 1_555 1_555
N4 C6 1_555 1_555
C2 O2 1_555 1_555
C3 N1 1_555 1_555
C4 N1 1_555 1_555
C5 N2 1_555 1_555
C6 C5 1_555 1_555
C7 C6 1_555 1_555
C8 C7 1_555 1_555
C9 C8 1_555 1_555
C10 N2 1_555 1_555
H1 C2 1_555 1_555
H2 C2 1_555 1_555
H3 C3 1_555 1_555
H4 C3 1_555 1_555
H5 C8 1_555 1_555
H6 C8 1_555 1_555
H7 C9 1_555 1_555
H8 C9 1_555 1_555
H9 C9 1_555 1_555
H10 C10 1_555 1_555
H11 C10 1_555 1_555
H12 C10 1_555 1_555
C2 C3 1_555 1_555
C4 C5 1_555 1_555

#END
