
#######################################################################
#
#                 Cambridge Crystallographic Data Centre
#                                CCDC 
#
#######################################################################
#
# If this CIF has been generated from an entry in the Cambridge 
# Structural Database, then it will include bibliographic, chemical, 
# crystal, experimental, refinement or atomic coordinate data resulting 
# from the CCDC's data processing and validation procedures.
#
#######################################################################

data_AYEFOZ
_chemical_formula_moiety         'C22 H21 N5'
_chemical_name_systematic        
4-(4-t-Butylphenyl)-3,5-bis(pyrid-2-yl)-4H-1,2,4-triazole
_symmetry_cell_setting           monoclinic
_symmetry_space_group_name_H-M   'P 21/n'
_symmetry_Int_Tables_number      14
_space_group_name_Hall           '-P 2yn'
loop_
_symmetry_equiv_pos_site_id
_symmetry_equiv_pos_as_xyz
1 x,y,z
2 1/2+x,1/2-y,1/2+z
3 -x,-y,-z
4 1/2-x,1/2+y,1/2-z
_cell_length_a                   15.348(9)
_cell_length_b                   5.980(3)
_cell_length_c                   20.909(12)
_cell_angle_alpha                90
_cell_angle_beta                 102.488(9)
_cell_angle_gamma                90
_cell_volume                     1873.65
_exptl_crystal_colour            colorless
_exptl_crystal_description       prism
_cell_formula_units_Z            4
_exptl_crystal_recrystallization_method acetone
loop_
_atom_site_label
_atom_site_type_symbol
_atom_site_fract_x
_atom_site_fract_y
_atom_site_fract_z
N1 N 0.24495(12) 0.6544(4) 0.05314(9)
N2 N 0.11155(14) 0.7464(4) -0.00249(11)
N3 N 0.14452(14) 0.5798(4) -0.03680(11)
N4 N 0.20371(13) 0.9412(4) 0.16009(11)
N5 N 0.36857(15) 0.4220(4) -0.01650(11)
C1 C 0.17158(16) 0.7878(5) 0.05063(12)
C2 C 0.22370(17) 0.5285(4) -0.00300(12)
C3 C 0.15839(15) 0.9605(5) 0.09796(13)
C4 C 0.10000(16) 1.1331(5) 0.07583(14)
H1 H 0.0693 1.1409 0.0307
C5 C 0.08673(18) 1.2951(5) 0.11971(16)
H2 H 0.0459 1.4161 0.1060
C6 C 0.13302(18) 1.2783(5) 0.18322(15)
H3 H 0.1261 1.3901 0.2147
C7 C 0.18969(18) 1.1016(5) 0.20124(14)
H4 H 0.2209 1.0917 0.2462
C8 C 0.28309(17) 0.3630(5) -0.02364(12)
C9 C 0.24925(19) 0.1621(5) -0.04929(12)
H5 H 0.1870 0.1282 -0.0543
C10 C 0.3061(2) 0.0109(5) -0.06792(13)
H6 H 0.2844 -0.1312 -0.0860
C11 C 0.3940(2) 0.0651(6) -0.06024(15)
H7 H 0.4355 -0.0386 -0.0722
C12 C 0.4218(2) 0.2703(6) -0.03522(15)
H8 H 0.4837 0.3080 -0.0307
C13 C 0.32402(15) 0.6264(4) 0.10375(11)
C14 C 0.33884(16) 0.4222(4) 0.13367(12)
H9 H 0.2949 0.3061 0.1231
C15 C 0.41724(17) 0.3831(5) 0.17933(13)
H10 H 0.4270 0.2383 0.1994
C16 C 0.48145(16) 0.5464(5) 0.19678(12)
C17 C 0.46322(15) 0.7511(5) 0.16626(12)
H11 H 0.5057 0.8701 0.1778
C18 C 0.38619(16) 0.7910(5) 0.11983(12)
H12 H 0.3765 0.9346 0.0990
C19 C 0.56866(18) 0.4972(5) 0.24472(15)
C20 C 0.6300(2) 0.3789(8) 0.2088(2)
H13 H 0.6412 0.4724 0.1741
H14 H 0.6854 0.3437 0.2382
H15 H 0.6015 0.2433 0.1906
C21 C 0.5536(2) 0.3423(7) 0.29965(18)
H16 H 0.6092 0.3124 0.3297
H17 H 0.5134 0.4139 0.3225
H18 H 0.5279 0.2042 0.2811
C22 C 0.6128(2) 0.7005(6) 0.27807(18)
H19 H 0.6248 0.8037 0.2459
H20 H 0.5734 0.7690 0.3023
H21 H 0.6678 0.6609 0.3075
loop_
_geom_bond_atom_site_label_1
_geom_bond_atom_site_label_2
_geom_bond_site_symmetry_1
_geom_bond_site_symmetry_2
N1 C1 1_555 1_555
N2 N3 1_555 1_555
N3 C2 1_555 1_555
N4 C3 1_555 1_555
N5 C8 1_555 1_555
C1 N2 1_555 1_555
C2 N1 1_555 1_555
C3 C1 1_555 1_555
C4 C3 1_555 1_555
H1 C4 1_555 1_555
C5 C4 1_555 1_555
H2 C5 1_555 1_555
C6 C5 1_555 1_555
H3 C6 1_555 1_555
C7 N4 1_555 1_555
H4 C7 1_555 1_555
C8 C2 1_555 1_555
C9 C8 1_555 1_555
H5 C9 1_555 1_555
C10 C9 1_555 1_555
H6 C10 1_555 1_555
C11 C10 1_555 1_555
H7 C11 1_555 1_555
C12 N5 1_555 1_555
H8 C12 1_555 1_555
C13 N1 1_555 1_555
C14 C13 1_555 1_555
H9 C14 1_555 1_555
C15 C14 1_555 1_555
H10 C15 1_555 1_555
C16 C15 1_555 1_555
C17 C16 1_555 1_555
H11 C17 1_555 1_555
C18 C13 1_555 1_555
H12 C18 1_555 1_555
C19 C16 1_555 1_555
C20 C19 1_555 1_555
H13 C20 1_555 1_555
H14 C20 1_555 1_555
H15 C20 1_555 1_555
C21 C19 1_555 1_555
H16 C21 1_555 1_555
H17 C21 1_555 1_555
H18 C21 1_555 1_555
C22 C19 1_555 1_555
H19 C22 1_555 1_555
H20 C22 1_555 1_555
H21 C22 1_555 1_555
C6 C7 1_555 1_555
C11 C12 1_555 1_555
C17 C18 1_555 1_555

#END
