
#######################################################################
#
#                 Cambridge Crystallographic Data Centre
#                                CCDC 
#
#######################################################################
#
# If this CIF has been generated from an entry in the Cambridge 
# Structural Database, then it will include bibliographic, chemical, 
# crystal, experimental, refinement or atomic coordinate data resulting 
# from the CCDC's data processing and validation procedures.
#
#######################################################################

data_AYEGIU
_chemical_formula_moiety         'C34 H32 N10,2(C2 H6 O2)'
_chemical_name_systematic        
"N,N,N',N'-tetrakis((1H-Benzimidazol-2-yl)methyl)ethane-1,2-diamine ethylene glycol solvate"
_symmetry_cell_setting           triclinic
_symmetry_space_group_name_H-M   'P -1'
_symmetry_Int_Tables_number      2
_space_group_name_Hall           '-P 1'
loop_
_symmetry_equiv_pos_site_id
_symmetry_equiv_pos_as_xyz
1 x,y,z
2 -x,-y,-z
_cell_length_a                   9.2367(15)
_cell_length_b                   9.7383(16)
_cell_length_c                   11.5791(19)
_cell_angle_alpha                85.764(3)
_cell_angle_beta                 76.748(3)
_cell_angle_gamma                66.394(3)
_cell_volume                     928.78
_exptl_crystal_colour            colorless
_exptl_crystal_description       block
_cell_formula_units_Z            1
loop_
_atom_site_label
_atom_site_type_symbol
_atom_site_fract_x
_atom_site_fract_y
_atom_site_fract_z
C1 C 0.2053(4) 0.4922(4) 0.2594(3)
C2 C 0.1950(4) 0.3802(4) 0.4297(3)
C3 C 0.1825(5) 0.2893(5) 0.5258(4)
H1 H 0.1458 0.2136 0.5239
C4 C 0.2272(6) 0.3164(6) 0.6243(4)
H2 H 0.2198 0.2574 0.6905
C5 C 0.2817(6) 0.4262(6) 0.6289(4)
H3 H 0.3105 0.4399 0.6977
C6 C 0.2951(5) 0.5171(5) 0.5346(4)
H4 H 0.3308 0.5931 0.5383
C7 C 0.2529(4) 0.4906(4) 0.4331(3)
C8 C 0.1841(5) 0.5368(4) 0.1367(3)
H5 H 0.0836 0.6242 0.1408
H6 H 0.2719 0.5648 0.0956
C9 C 0.0889(4) 0.4788(4) -0.0245(3)
H7 H 0.1266 0.4044 -0.0877
H8 H 0.1071 0.5663 -0.0577
C10 C 0.3460(4) 0.3086(4) 0.0211(3)
H9 H 0.4031 0.2744 0.0852
H10 H 0.4039 0.3565 -0.0367
C11 C 0.3434(4) 0.1777(4) -0.0358(3)
C12 C 0.2863(4) -0.0055(4) -0.0750(3)
C13 C 0.2256(5) -0.1141(5) -0.0743(4)
H11 H 0.1491 -0.1238 -0.0099
C14 C 0.2829(5) -0.2078(5) -0.1726(5)
H12 H 0.2450 -0.2828 -0.1742
C15 C 0.3960(5) -0.1928(5) -0.2698(4)
H13 H 0.4304 -0.2566 -0.3354
C16 C 0.4574(4) -0.0870(4) -0.2707(3)
H14 H 0.5344 -0.0780 -0.3351
C17 C 0.4003(4) 0.0072(4) -0.1715(3)
N1 N 0.1662(3) 0.3836(3) 0.3178(2)
H15 H 0.1299 0.3268 0.2906
N2 N 0.2592(3) 0.5606(3) 0.3225(3)
N3 N 0.4350(3) 0.1236(3) -0.1438(2)
H16 H 0.5028 0.1561 -0.1876
N4 N 0.2519(3) 0.1040(3) 0.0094(3)
N5 N 0.1809(3) 0.4180(3) 0.0683(2)
C9A C -0.0889(4) 0.5212(4) 0.0245(3)
H7A H -0.1266 0.5956 0.0877
H8A H -0.1071 0.4337 0.0577
N5A N -0.1809(3) 0.5820(3) -0.0683(2)
C8A C -0.1841(5) 0.4632(4) -0.1367(3)
C1A C -0.2053(4) 0.5078(4) -0.2594(3)
N1A N -0.1662(3) 0.6164(3) -0.3178(2)
C2A C -0.1950(4) 0.6198(4) -0.4297(3)
C3A C -0.1825(5) 0.7107(5) -0.5258(4)
H1A H -0.1458 0.7864 -0.5239
C4A C -0.2272(6) 0.6836(6) -0.6243(4)
H2A H -0.2198 0.7426 -0.6905
C5A C -0.2817(6) 0.5738(6) -0.6289(4)
H3A H -0.3105 0.5601 -0.6977
C6A C -0.2951(5) 0.4829(5) -0.5346(4)
H4A H -0.3308 0.4069 -0.5383
C7A C -0.2529(4) 0.5094(4) -0.4331(3)
N2A N -0.2592(3) 0.4394(3) -0.3225(3)
H15A H -0.1299 0.6732 -0.2906
H5A H -0.0836 0.3758 -0.1408
H6A H -0.2719 0.4352 -0.0956
C10A C -0.3460(4) 0.6914(4) -0.0211(3)
H9A H -0.4031 0.7256 -0.0852
H10A H -0.4039 0.6435 0.0367
C11A C -0.3434(4) 0.8223(4) 0.0358(3)
N3A N -0.4350(3) 0.8764(3) 0.1438(2)
C17A C -0.4003(4) 0.9928(4) 0.1715(3)
C12A C -0.2863(4) 1.0055(4) 0.0750(3)
C13A C -0.2256(5) 1.1141(5) 0.0743(4)
H11A H -0.1491 1.1238 0.0099
C14A C -0.2829(5) 1.2078(5) 0.1726(5)
H12A H -0.2450 1.2828 0.1742
C15A C -0.3960(5) 1.1928(5) 0.2698(4)
H13A H -0.4304 1.2566 0.3354
C16A C -0.4574(4) 1.0870(4) 0.2707(3)
H14A H -0.5344 1.0780 0.3351
N4A N -0.2519(3) 0.8960(3) -0.0094(3)
H16A H -0.5028 0.8439 0.1876
C18 C 0.0603(6) 1.0397(6) 0.3095(5)
H17 H 0.0165 0.9998 0.2581
H18 H -0.0272 1.0907 0.3759
C19 C 0.1834(7) 0.9153(6) 0.3547(5)
H19 H 0.2354 0.9549 0.3995
H20 H 0.1313 0.8595 0.4088
O1 O 0.1136(5) 1.1449(4) 0.2466(3)
H21 H 0.1554 1.1155 0.1776
O2 O 0.3022(4) 0.8170(3) 0.2660(3)
H22 H 0.2943 0.7357 0.2713
loop_
_geom_bond_atom_site_label_1
_geom_bond_atom_site_label_2
_geom_bond_site_symmetry_1
_geom_bond_site_symmetry_2
C1 C8 1_555 1_555
C2 C3 1_555 1_555
C3 H1 1_555 1_555
C4 C3 1_555 1_555
H2 C4 1_555 1_555
C5 C4 1_555 1_555
H3 C5 1_555 1_555
C6 C5 1_555 1_555
H4 C6 1_555 1_555
C7 C2 1_555 1_555
C8 H5 1_555 1_555
H6 C8 1_555 1_555
C9 H7 1_555 1_555
H8 C9 1_555 1_555
C10 H9 1_555 1_555
H10 C10 1_555 1_555
C11 C10 1_555 1_555
C12 C13 1_555 1_555
C13 H11 1_555 1_555
C14 C13 1_555 1_555
H12 C14 1_555 1_555
C15 C14 1_555 1_555
H13 C15 1_555 1_555
C16 C15 1_555 1_555
H14 C16 1_555 1_555
C17 C12 1_555 1_555
N1 C1 1_555 1_555
H15 N1 1_555 1_555
N2 C1 1_555 1_555
N3 C11 1_555 1_555
H16 N3 1_555 1_555
N4 C11 1_555 1_555
N5 C8 1_555 1_555
C18 H17 1_555 1_555
H18 C18 1_555 1_555
C19 C18 1_555 1_555
H19 C19 1_555 1_555
H20 C19 1_555 1_555
O1 C18 1_555 1_555
H21 O1 1_555 1_555
O2 C19 1_555 1_555
H22 O2 1_555 1_555
C9A C9 1_555 1_555
H7A C9A 1_555 1_555
H8A C9A 1_555 1_555
N5A C9A 1_555 1_555
C8A N5A 1_555 1_555
C1A C8A 1_555 1_555
N1A C1A 1_555 1_555
C2A N1A 1_555 1_555
C3A C2A 1_555 1_555
H1A C3A 1_555 1_555
C4A C3A 1_555 1_555
H2A C4A 1_555 1_555
C5A C4A 1_555 1_555
H3A C5A 1_555 1_555
C6A C5A 1_555 1_555
H4A C6A 1_555 1_555
C7A C2A 1_555 1_555
N2A C1A 1_555 1_555
H15A N1A 1_555 1_555
H5A C8A 1_555 1_555
H6A C8A 1_555 1_555
C10A N5A 1_555 1_555
H9A C10A 1_555 1_555
H10A C10A 1_555 1_555
C11A C10A 1_555 1_555
N3A C11A 1_555 1_555
C17A N3A 1_555 1_555
C12A C17A 1_555 1_555
C13A C12A 1_555 1_555
H11A C13A 1_555 1_555
C14A C13A 1_555 1_555
H12A C14A 1_555 1_555
C15A C14A 1_555 1_555
H13A C15A 1_555 1_555
C16A C17A 1_555 1_555
H14A C16A 1_555 1_555
N4A C11A 1_555 1_555
H16A N3A 1_555 1_555
C2 N1 1_555 1_555
C6 C7 1_555 1_555
C7 N2 1_555 1_555
C9 N5 1_555 1_555
C10 N5 1_555 1_555
C12 N4 1_555 1_555
C16 C17 1_555 1_555
C17 N3 1_555 1_555
C6A C7A 1_555 1_555
C7A N2A 1_555 1_555
C12A N4A 1_555 1_555
C15A C16A 1_555 1_555

#END
