
#######################################################################
#
#                 Cambridge Crystallographic Data Centre
#                                CCDC 
#
#######################################################################
#
# If this CIF has been generated from an entry in the Cambridge 
# Structural Database, then it will include bibliographic, chemical, 
# crystal, experimental, refinement or atomic coordinate data resulting 
# from the CCDC's data processing and validation procedures.
#
#######################################################################

data_AYELEX
_chemical_formula_moiety         'C27 H26 N4 O6 S1'
_chemical_name_systematic        
"ethyl 8-((4-methylphenyl)sulfonyl)-13b-nitro-5,6,8,8a,13b,13c-hexahydro-9H-indolo[2',3':3,4]pyrazolo[5,1-a]isoquinoline-9-carboxylate"
_symmetry_cell_setting           monoclinic
_symmetry_space_group_name_H-M   'P 21/n'
_symmetry_Int_Tables_number      14
_space_group_name_Hall           '-P 2yn'
loop_
_symmetry_equiv_pos_site_id
_symmetry_equiv_pos_as_xyz
1 x,y,z
2 1/2-x,1/2+y,1/2-z
3 -x,-y,-z
4 1/2+x,1/2-y,1/2+z
_cell_length_a                   17.4184(11)
_cell_length_b                   8.2542(5)
_cell_length_c                   18.8202(12)
_cell_angle_alpha                90
_cell_angle_beta                 104.911(7)
_cell_angle_gamma                90
_cell_volume                     2614.76
_exptl_crystal_colour            colorless
_exptl_crystal_description       block
_cell_formula_units_Z            4
loop_
_atom_site_label
_atom_site_type_symbol
_atom_site_fract_x
_atom_site_fract_y
_atom_site_fract_z
S1 S 0.96821(4) 0.75796(9) 0.23929(4)
O1 O 1.26576(15) 0.8959(4) 0.22045(12)
O2 O 1.14272(13) 0.7970(3) 0.17382(11)
O3 O 1.17869(15) 0.3791(3) 0.43315(12)
O4 O 1.07937(15) 0.3905(3) 0.33715(13)
O5 O 0.98394(12) 0.6673(3) 0.17963(11)
O6 O 0.91803(12) 0.6872(3) 0.28004(12)
N1 N 1.19590(13) 0.7746(3) 0.29269(11)
N2 N 1.05706(13) 0.8093(3) 0.29336(11)
N3 N 1.05126(13) 0.8562(3) 0.36538(11)
N4 N 1.13425(16) 0.4520(3) 0.38291(14)
C1 C 1.25527(16) 0.7713(3) 0.35960(14)
C2 C 1.33035(18) 0.8387(4) 0.37601(18)
H1 H 1.3490 0.8931 0.3405
C3 C 1.37686(19) 0.8221(5) 0.44737(18)
H2 H 1.4280 0.8648 0.4597
C4 C 1.34912(19) 0.7437(4) 0.50068(17)
H3 H 1.3816 0.7347 0.5482
C5 C 1.27406(18) 0.6788(4) 0.48411(15)
H4 H 1.2551 0.6275 0.5202
C6 C 1.22698(16) 0.6912(3) 0.41273(14)
C7 C 1.14344(16) 0.6349(3) 0.37996(14)
C8 C 1.12346(16) 0.6945(3) 0.29933(14)
H5 H 1.1087 0.6046 0.2645
C9 C 1.07495(16) 0.7099(3) 0.40992(14)
H6 H 1.0300 0.6345 0.3975
C10 C 1.09307(16) 0.7411(4) 0.49122(15)
C11 C 1.09476(17) 0.6099(4) 0.53868(16)
H7 H 1.0855 0.5057 0.5196
C12 C 1.1101(2) 0.6339(5) 0.61359(18)
H8 H 1.1117 0.5464 0.6450
C13 C 1.1230(2) 0.7887(5) 0.64133(18)
H9 H 1.1338 0.8057 0.6918
C14 C 1.1199(2) 0.9181(5) 0.59488(17)
H10 H 1.1280 1.0222 0.6143
C15 C 1.10479(17) 0.8966(4) 0.51939(16)
C16 C 1.09639(19) 1.0405(4) 0.46872(16)
H11 H 1.1377 1.1184 0.4899
H12 H 1.0456 1.0919 0.4656
C17 C 1.10170(17) 0.9990(3) 0.39174(15)
H13 H 1.0838 1.0902 0.3592
H14 H 1.1564 0.9755 0.3921
C18 C 1.2070(2) 0.8285(4) 0.22753(17)
C19 C 1.1452(3) 0.8472(7) 0.10065(19)
H15 H 1.1532 0.9635 0.1002
H16 H 1.1898 0.7954 0.0879
C20 C 1.0762(3) 0.8074(7) 0.0492(2)
H17 H 1.0825 0.8283 0.0008
H18 H 1.0332 0.8716 0.0572
H19 H 1.0648 0.6947 0.0537
C21 C 0.92819(17) 0.9477(4) 0.20716(14)
C22 C 0.97461(19) 1.0763(4) 0.19810(17)
H20 H 1.0297 1.0669 0.2118
C23 C 0.9398(2) 1.2196(4) 0.16875(19)
H21 H 0.9717 1.3070 0.1640
C24 C 0.8583(2) 1.2355(4) 0.14633(18)
C25 C 0.8128(2) 1.1049(4) 0.15520(19)
H22 H 0.7577 1.1136 0.1402
C26 C 0.84626(18) 0.9616(4) 0.18563(17)
H23 H 0.8142 0.8752 0.1916
C27 C 0.8208(3) 1.3938(5) 0.1137(3)
H24 H 0.7945 1.4437 0.1471
H25 H 0.7828 1.3727 0.0678
H26 H 0.8613 1.4650 0.1057
loop_
_geom_bond_atom_site_label_1
_geom_bond_atom_site_label_2
_geom_bond_site_symmetry_1
_geom_bond_site_symmetry_2
S1 O5 1_555 1_555
O1 C18 1_555 1_555
O2 C18 1_555 1_555
O3 N4 1_555 1_555
O4 N4 1_555 1_555
O6 S1 1_555 1_555
N1 C1 1_555 1_555
N2 S1 1_555 1_555
N3 N2 1_555 1_555
N4 C7 1_555 1_555
C1 C2 1_555 1_555
C2 H1 1_555 1_555
C3 C2 1_555 1_555
H2 C3 1_555 1_555
C4 C3 1_555 1_555
H3 C4 1_555 1_555
C5 C4 1_555 1_555
H4 C5 1_555 1_555
C6 C1 1_555 1_555
C7 C6 1_555 1_555
C8 N1 1_555 1_555
H5 C8 1_555 1_555
C9 N3 1_555 1_555
H6 C9 1_555 1_555
C10 C9 1_555 1_555
C11 C10 1_555 1_555
H7 C11 1_555 1_555
C12 C11 1_555 1_555
H8 C12 1_555 1_555
C13 C12 1_555 1_555
H9 C13 1_555 1_555
C14 C13 1_555 1_555
H10 C14 1_555 1_555
C15 C10 1_555 1_555
C16 C15 1_555 1_555
H11 C16 1_555 1_555
H12 C16 1_555 1_555
C17 N3 1_555 1_555
H13 C17 1_555 1_555
H14 C17 1_555 1_555
C18 N1 1_555 1_555
C19 O2 1_555 1_555
H15 C19 1_555 1_555
H16 C19 1_555 1_555
C20 C19 1_555 1_555
H17 C20 1_555 1_555
H18 C20 1_555 1_555
H19 C20 1_555 1_555
C21 S1 1_555 1_555
C22 C21 1_555 1_555
H20 C22 1_555 1_555
C23 C22 1_555 1_555
H21 C23 1_555 1_555
C24 C23 1_555 1_555
C25 C24 1_555 1_555
H22 C25 1_555 1_555
C26 C21 1_555 1_555
H23 C26 1_555 1_555
C27 C24 1_555 1_555
H24 C27 1_555 1_555
H25 C27 1_555 1_555
H26 C27 1_555 1_555
N2 C8 1_555 1_555
C5 C6 1_555 1_555
C7 C8 1_555 1_555
C7 C9 1_555 1_555
C14 C15 1_555 1_555
C16 C17 1_555 1_555
C25 C26 1_555 1_555

#END
