
#######################################################################
#
#                 Cambridge Crystallographic Data Centre
#                                CCDC 
#
#######################################################################
#
# If this CIF has been generated from an entry in the Cambridge 
# Structural Database, then it will include bibliographic, chemical, 
# crystal, experimental, refinement or atomic coordinate data resulting 
# from the CCDC's data processing and validation procedures.
#
#######################################################################

data_AYENOI
_chemical_compound_source        'peganum harmala'
_chemical_name_common            'peganidine hydrochloride'
_chemical_formula_moiety         'C14 H17 N2 O2 1+,Cl1 1-'
_chemical_name_systematic        
'3-Hydroxy-9-(2-oxopropyl)-2,3,4,9-tetrahydro-1H-pyrrolo[2,1-b]quinazolin-10-ium chloride'
_symmetry_cell_setting           orthorhombic
_symmetry_space_group_name_H-M   'P n a 21'
_symmetry_Int_Tables_number      33
_space_group_name_Hall           'P 2c -2n'
loop_
_symmetry_equiv_pos_site_id
_symmetry_equiv_pos_as_xyz
1 x,y,z
2 -x,-y,1/2+z
3 1/2+x,1/2-y,z
4 1/2-x,1/2+y,1/2+z
_cell_length_a                   18.136(4)
_cell_length_b                   13.179(3)
_cell_length_c                   5.796(1)
_cell_angle_alpha                90
_cell_angle_beta                 90
_cell_angle_gamma                90
_cell_volume                     1385.33
_exptl_crystal_colour            colorless
_exptl_crystal_description       prism
_chemical_melting_point          '457 K'
_cell_formula_units_Z            4
_exptl_crystal_recrystallization_method methanol
loop_
_atom_site_label
_atom_site_type_symbol
_atom_site_fract_x
_atom_site_fract_y
_atom_site_fract_z
O1 O 0.6074(4) 0.4964(5) 0.5146(12)
H1 H 0.5888 0.5531 0.5138
O2 O 0.7551(4) 0.2560(7) 0.5434(12)
N1 N 0.5847(3) 0.2772(5) 0.4662(12)
H2 H 0.5587 0.3010 0.5780
C1 C 0.6146(5) 0.3384(6) 0.3121(16)
N2 N 0.6594(4) 0.3094(6) 0.1505(13)
C2 C 0.6860(4) 0.2048(6) 0.1156(16)
H3 H 0.6763 0.1856 -0.0449
C3 C 0.6429(4) 0.1340(6) 0.2709(17)
C4 C 0.6503(5) 0.0296(7) 0.248(2)
H4 H 0.6810 0.0034 0.1344
C5 C 0.6124(5) -0.0358(6) 0.392(2)
H5 H 0.6175 -0.1056 0.3742
C6 C 0.5671(5) 0.0019(7) 0.5619(18)
H6 H 0.5418 -0.0430 0.6569
C7 C 0.5585(4) 0.1056(6) 0.5944(19)
H7 H 0.5288 0.1312 0.7116
C8 C 0.5965(4) 0.1701(6) 0.4428(19)
C9 C 0.5979(5) 0.4511(6) 0.2984(19)
H8 H 0.5474 0.4619 0.2429
C10 C 0.6537(7) 0.4855(8) 0.116(2)
H9 H 0.6307 0.5320 0.0080
H10 H 0.6950 0.5196 0.1887
C11 C 0.6796(5) 0.3919(7) -0.0071(19)
H11 H 0.6550 0.3844 -0.1547
H12 H 0.7325 0.3938 -0.0322
C12 C 0.7696(5) 0.2010(7) 0.1555(17)
H13 H 0.7858 0.1312 0.1393
H14 H 0.7935 0.2402 0.0351
C13 C 0.7957(5) 0.2402(7) 0.386(2)
C14 C 0.8766(5) 0.2621(7) 0.403(2)
H15 H 0.8936 0.2474 0.5561
H16 H 0.8853 0.3324 0.3687
H17 H 0.9029 0.2207 0.2941
Cl1 Cl 0.48591(12) 0.31702(16) 0.9047(5)
loop_
_geom_bond_atom_site_label_1
_geom_bond_atom_site_label_2
_geom_bond_site_symmetry_1
_geom_bond_site_symmetry_2
O1 H1 1_555 1_555
O2 C13 1_555 1_555
N1 H2 1_555 1_555
C1 N1 1_555 1_555
N2 C1 1_555 1_555
C2 N2 1_555 1_555
H3 C2 1_555 1_555
C3 C2 1_555 1_555
C4 C3 1_555 1_555
H4 C4 1_555 1_555
C5 C4 1_555 1_555
H5 C5 1_555 1_555
C6 C5 1_555 1_555
H6 C6 1_555 1_555
C7 C6 1_555 1_555
H7 C7 1_555 1_555
C8 N1 1_555 1_555
C9 O1 1_555 1_555
H8 C9 1_555 1_555
C10 C9 1_555 1_555
H9 C10 1_555 1_555
H10 C10 1_555 1_555
C11 N2 1_555 1_555
H11 C11 1_555 1_555
H12 C11 1_555 1_555
C12 C2 1_555 1_555
H13 C12 1_555 1_555
H14 C12 1_555 1_555
C13 C12 1_555 1_555
C14 C13 1_555 1_555
H15 C14 1_555 1_555
H16 C14 1_555 1_555
H17 C14 1_555 1_555
C1 C9 1_555 1_555
C3 C8 1_555 1_555
C7 C8 1_555 1_555
C10 C11 1_555 1_555

#END
