
#######################################################################
#
#                 Cambridge Crystallographic Data Centre
#                                CCDC 
#
#######################################################################
#
# If this CIF has been generated from an entry in the Cambridge 
# Structural Database, then it will include bibliographic, chemical, 
# crystal, experimental, refinement or atomic coordinate data resulting 
# from the CCDC's data processing and validation procedures.
#
#######################################################################

data_AYESOO
_chemical_formula_moiety         'C48 H40 O4 S8'
_chemical_name_systematic        
5'',5'''-(2,15-dioxa-18,23-dithiatetracyclo[14.5.5.0^17,21^.0^22,26^]hexacosa-1(21),16,19,22(26),24-pentaene-19,24-diyl)bis(2,2':5',2''-terthiophene-5-carbaldehyde)
_symmetry_cell_setting           monoclinic
_symmetry_space_group_name_H-M   'P 21/c'
_symmetry_Int_Tables_number      14
_space_group_name_Hall           '-P 2ybc'
loop_
_symmetry_equiv_pos_site_id
_symmetry_equiv_pos_as_xyz
1 x,y,z
2 -x,1/2+y,1/2-z
3 -x,-y,-z
4 x,1/2-y,1/2+z
_cell_length_a                   19.7883(17)
_cell_length_b                   10.4567(9)
_cell_length_c                   20.9060(18)
_cell_angle_alpha                90
_cell_angle_beta                 95.9400(10)
_cell_angle_gamma                90
_cell_volume                     4302.65
_exptl_crystal_colour            red
_exptl_crystal_description       rhombic
_cell_formula_units_Z            4
_exptl_crystal_recrystallization_method o-dichlorobenzene
_exptl_crystal_preparation       Luminescent
loop_
_atom_site_label
_atom_site_type_symbol
_atom_site_fract_x
_atom_site_fract_y
_atom_site_fract_z
S1 S 0.76552(5) -0.00014(11) 0.61257(6)
S2 S 0.28286(6) -0.19079(13) 0.23663(6)
S3 S 1.06232(6) 0.03527(12) 0.87924(6)
S4 S 0.09254(6) -0.36793(12) 0.15639(6)
S5 S -0.01634(6) -0.24154(13) -0.02558(6)
S6 S 0.95901(5) 0.15968(11) 0.69436(5)
S7 S 0.40728(6) -0.28815(14) 0.41352(6)
S8 S 0.63816(7) 0.11619(14) 0.43809(7)
O1 O -0.1246(2) -0.2355(4) -0.14087(17)
C1 C 0.4681(2) -0.0815(5) 0.3784(2)
C2 C 0.8323(2) 0.1933(4) 0.5795(2)
H1 H 0.8648 0.2572 0.5785
C3 C 0.3717(2) -0.2055(5) 0.3467(2)
C4 C 0.8338(2) 0.1032(4) 0.6266(2)
C5 C 0.0040(2) -0.3198(4) 0.0467(2)
C6 C 0.4737(2) -0.1793(4) 0.4240(2)
O2 O 1.1755(2) 0.0196(5) 0.9917(2)
C7 C 0.6363(2) -0.0747(5) 0.5222(2)
H2 H 0.6483 -0.1296 0.5564
C8 C 0.2664(2) -0.3476(5) 0.3270(2)
H3 H 0.2725 -0.3939 0.3652
C9 C 0.9290(2) 0.0032(5) 0.7815(2)
H4 H 0.9309 -0.0460 0.8187
C10 C 0.1645(2) -0.2735(5) 0.1703(2)
C11 C 0.1664(2) -0.1845(5) 0.1230(2)
H5 H 0.2012 -0.1250 0.1223
C12 C 0.9805(2) 0.0823(4) 0.7671(2)
C13 C 0.8809(2) 0.0835(4) 0.6837(2)
C14 C 1.0969(2) 0.1835(5) 0.7904(2)
H6 H 1.0969 0.2280 0.7519
C15 C 0.3096(2) -0.2544(4) 0.3111(2)
C16 C 0.2123(2) -0.2889(4) 0.2274(2)
C17 C 0.2112(2) -0.3669(5) 0.2792(2)
H7 H 0.1774 -0.4273 0.2830
C18 C 0.7347(2) 0.0802(4) 0.5432(2)
C19 C 0.6725(2) 0.0339(4) 0.5072(2)
C20 C 0.0660(2) -0.2858(5) 0.0862(2)
C21 C 0.8731(2) 0.0039(5) 0.7345(2)
H8 H 0.8343 -0.0450 0.7376
C22 C 1.1502(3) 0.1874(5) 0.8401(2)
H9 H 1.1892 0.2364 0.8382
C23 C -0.0973(2) -0.4141(5) 0.0083(2)
H10 H -0.1340 -0.4697 0.0085
C24 C 0.7761(2) 0.1803(4) 0.5323(2)
H11 H 0.7683 0.2348 0.4972
C25 C 0.5756(2) -0.0888(4) 0.4750(2)
C26 C 0.5268(2) -0.1853(5) 0.4727(2)
C27 C -0.0898(2) -0.3297(5) -0.0405(2)
C28 C 0.5710(2) 0.0087(4) 0.4281(2)
C29 C 1.0447(2) 0.1063(4) 0.8052(2)
C30 C 0.1110(2) -0.1906(5) 0.0755(2)
H12 H 0.1055 -0.1357 0.0404
C31 C 0.4060(2) -0.0914(6) 0.3328(2)
H13 H 0.3920 -0.0330 0.3006
C32 C 1.1396(2) 0.1124(5) 0.8914(2)
C33 C -0.1348(3) -0.3108(5) -0.0988(2)
H14 H -0.1741 -0.3598 -0.1044
C34 C 1.1845(3) 0.0942(5) 0.9493(2)
H15 H 1.2237 0.1440 0.9545
C35 C 0.5169(3) 0.0146(5) 0.3797(3)
C36 C -0.0440(2) -0.4082(5) 0.0578(2)
H16 H -0.0417 -0.4592 0.0944
C37 C 0.5365(8) 0.0567(15) 0.2573(7)
H17 H 0.5432 0.1319 0.2316
H18 H 0.4987 0.0082 0.2364
C38 C 0.6030(6) -0.0280(13) 0.2640(6)
H19 H 0.6423 0.0273 0.2724
H20 H 0.6018 -0.0849 0.3006
C39 C 0.650(2) -0.199(4) 0.1947(15)
H21 H 0.6175 -0.2641 0.1785
H22 H 0.6708 -0.1683 0.1577
C40 C 0.6095(14) -0.096(3) 0.2127(13)
H23 H 0.6169 -0.0311 0.1809
H24 H 0.5636 -0.1262 0.2008
O3 O 0.5215(4) 0.0959(8) 0.3240(4)
C41 C 0.7099(13) -0.356(2) 0.3359(13)
H25 H 0.7422 -0.3391 0.3730
H26 H 0.7274 -0.4299 0.3145
C42 C 0.5991(7) -0.4657(13) 0.4439(6)
H27 H 0.5744 -0.5416 0.4544
H28 H 0.5693 -0.4161 0.4136
C43 C 0.5694(10) -0.344(2) 0.5429(10)
H29 H 0.5449 -0.4180 0.5560
H30 H 0.5937 -0.3084 0.5815
C44 C 0.6151(10) -0.385(2) 0.5066(9)
H31 H 0.6473 -0.4346 0.5345
H32 H 0.6394 -0.3097 0.4942
C45 C 0.6564(8) -0.5043(15) 0.4130(9)
H33 H 0.6519 -0.5900 0.3953
H34 H 0.6989 -0.4959 0.4403
C46 C 0.6466(14) -0.401(3) 0.3620(14)
H35 H 0.6156 -0.4330 0.3266
H36 H 0.6250 -0.3280 0.3800
O4 O 0.5282(4) -0.2671(9) 0.5235(4)
C47 C 0.701(3) -0.264(7) 0.2323(12)
H37 H 0.6925 -0.3543 0.2238
H38 H 0.7428 -0.2439 0.2142
C48 C 0.7146(6) -0.2544(11) 0.2946(5)
H39 H 0.6854 -0.1877 0.3085
H40 H 0.7608 -0.2225 0.3022
C49? C 0.6753(12) -0.334(2) 0.3069(8)
H41? H 0.6370 -0.2856 0.3198
H42? H 0.6549 -0.4136 0.2912
O5? O 0.5267(6) -0.2968(11) 0.5090(5)
C50? C 0.5416(7) -0.0400(14) 0.2282(7)
H43? H 0.5055 0.0022 0.2012
H44? H 0.5211 -0.1024 0.2546
O6? O 0.4975(4) 0.1239(7) 0.3460(4)
C51? C 0.5481(5) 0.1602(11) 0.3020(5)
H45? H 0.5259 0.2154 0.2690
H46? H 0.5832 0.2105 0.3262
C52? C 0.5806(10) 0.0575(19) 0.2707(9)
H47? H 0.6071 0.0099 0.3044
H48? H 0.6129 0.0969 0.2449
C53? C 0.5910(7) -0.1094(16) 0.1849(8)
H49? H 0.5957 -0.0509 0.1496
H50? H 0.5653 -0.1817 0.1662
C54? C 0.6747(11) -0.2709(17) 0.2403(8)
H51? H 0.7194 -0.2959 0.2296
H52? H 0.6440 -0.3284 0.2152
C55? C 0.6541(7) -0.5121(13) 0.4623(6)
H53? H 0.6270 -0.5861 0.4711
H54? H 0.7012 -0.5314 0.4768
C56? C 0.6472(14) -0.487(3) 0.3886(14)
H55? H 0.6558 -0.5656 0.3659
H56? H 0.6015 -0.4586 0.3742
C57? C 0.6653(9) -0.1633(19) 0.2040(9)
H57? H 0.6856 -0.1785 0.1644
H58? H 0.6914 -0.0957 0.2267
C58? C 0.6997(5) -0.3831(10) 0.3741(5)
H59? H 0.7007 -0.3145 0.4055
H60? H 0.7449 -0.4194 0.3750
C59? C 0.5553(5) -0.3941(10) 0.4989(5)
H61? H 0.5361 -0.4245 0.4571
H62? H 0.5429 -0.4558 0.5303
C60? C 0.6319(6) -0.4008(12) 0.4993(6)
H63? H 0.6480 -0.3226 0.4810
H64? H 0.6524 -0.4067 0.5434
loop_
_geom_bond_atom_site_label_1
_geom_bond_atom_site_label_2
_geom_bond_site_symmetry_1
_geom_bond_site_symmetry_2
S1 C4 1_555 1_555
S2 C15 1_555 1_555
S3 C29 1_555 1_555
S4 C10 1_555 1_555
S5 C5 1_555 1_555
S6 C12 1_555 1_555
S7 C3 1_555 1_555
S8 C19 1_555 1_555
O1 C33 1_555 1_555
C1 C6 1_555 1_555
C2 H1 1_555 1_555
C3 C15 1_555 1_555
C4 C2 1_555 1_555
C5 C20 1_555 1_555
C6 S7 1_555 1_555
O2 C34 1_555 1_555
C7 H2 1_555 1_555
C8 H3 1_555 1_555
C9 H4 1_555 1_555
C10 C11 1_555 1_555
C11 H5 1_555 1_555
C12 C9 1_555 1_555
C13 S6 1_555 1_555
C14 H6 1_555 1_555
C15 C8 1_555 1_555
C16 S2 1_555 1_555
C17 C8 1_555 1_555
H7 C17 1_555 1_555
C18 S1 1_555 1_555
C19 C7 1_555 1_555
C20 S4 1_555 1_555
C21 C9 1_555 1_555
H8 C21 1_555 1_555
C22 C14 1_555 1_555
H9 C22 1_555 1_555
C23 H10 1_555 1_555
C24 C2 1_555 1_555
H11 C24 1_555 1_555
C25 C7 1_555 1_555
C26 C6 1_555 1_555
C27 S5 1_555 1_555
C28 S8 1_555 1_555
C29 C12 1_555 1_555
C30 C11 1_555 1_555
H12 C30 1_555 1_555
C31 C1 1_555 1_555
H13 C31 1_555 1_555
C32 S3 1_555 1_555
C33 C27 1_555 1_555
H14 C33 1_555 1_555
C34 C32 1_555 1_555
H15 C34 1_555 1_555
C35 C1 1_555 1_555
C36 C5 1_555 1_555
H16 C36 1_555 1_555
C37 H17 1_555 1_555
H18 C37 1_555 1_555
C38 C37 1_555 1_555
H19 C38 1_555 1_555
H20 C38 1_555 1_555
C39 H21 1_555 1_555
H22 C39 1_555 1_555
C40 C38 1_555 1_555
H23 C40 1_555 1_555
H24 C40 1_555 1_555
O3 C35 1_555 1_555
C41 H25 1_555 1_555
H26 C41 1_555 1_555
C42 H27 1_555 1_555
H28 C42 1_555 1_555
C43 H29 1_555 1_555
H30 C43 1_555 1_555
C44 C42 1_555 1_555
H31 C44 1_555 1_555
H32 C44 1_555 1_555
C45 C42 1_555 1_555
H33 C45 1_555 1_555
H34 C45 1_555 1_555
C46 C41 1_555 1_555
H35 C46 1_555 1_555
H36 C46 1_555 1_555
O4 C26 1_555 1_555
C47 C39 1_555 1_555
H37 C47 1_555 1_555
H38 C47 1_555 1_555
C48 C41 1_555 1_555
H39 C48 1_555 1_555
H40 C48 1_555 1_555
C3 C31 1_555 1_555
C4 C13 1_555 1_555
C10 C16 1_555 1_555
C13 C21 1_555 1_555
C14 C29 1_555 1_555
C16 C17 1_555 1_555
C18 C19 1_555 1_555
C18 C24 1_555 1_555
C20 C30 1_555 1_555
C22 C32 1_555 1_555
C23 C27 1_555 1_555
C23 C36 1_555 1_555
C25 C26 1_555 1_555
C25 C28 1_555 1_555
C28 C35 1_555 1_555
C37 O3 1_555 1_555
C39 C40 1_555 1_555
C43 C44 1_555 1_555
C43 O4 1_555 1_555
C45 C46 1_555 1_555
C47 C48 1_555 1_555

#END
