
#######################################################################
#
#                 Cambridge Crystallographic Data Centre
#                                CCDC 
#
#######################################################################
#
# If this CIF has been generated from an entry in the Cambridge 
# Structural Database, then it will include bibliographic, chemical, 
# crystal, experimental, refinement or atomic coordinate data resulting 
# from the CCDC's data processing and validation procedures.
#
#######################################################################

data_AYETEF
_chemical_formula_moiety         'C5 H2 N9 O6 1-,C1 H9 N6 1+'
_chemical_name_systematic        
'1-(dihydrazinylmethylidene)hydrazinium 4-(5-amino-3-nitro-1H-1,2,4-triazol-1-yl)-3,5-dinitropyrazol-1-ide'
_symmetry_cell_setting           triclinic
_symmetry_space_group_name_H-M   'P -1'
_symmetry_Int_Tables_number      2
_space_group_name_Hall           '-P 1'
loop_
_symmetry_equiv_pos_site_id
_symmetry_equiv_pos_as_xyz
1 x,y,z
2 -x,-y,-z
_cell_length_a                   7.3978(6)
_cell_length_b                   10.4201(8)
_cell_length_c                   10.9154(7)
_cell_angle_alpha                112.439(7)
_cell_angle_beta                 95.970(6)
_cell_angle_gamma                99.090(6)
_cell_volume                     755.401
_exptl_crystal_colour            yellow
_exptl_crystal_description       block
_cell_formula_units_Z            2
loop_
_atom_site_label
_atom_site_type_symbol
_atom_site_fract_x
_atom_site_fract_y
_atom_site_fract_z
O1 O 0.45078(17) 0.24912(14) 0.02524(13)
N1 N 0.9185(2) 0.17059(16) -0.51727(14)
O2 O 0.65423(19) -0.08248(14) -0.43247(13)
O3 O 0.58163(18) 0.13841(14) 0.13160(12)
N2 N 1.0223(2) 0.29932(15) -0.43095(15)
O4 O 1.16509(18) 0.54415(13) -0.20727(13)
O5 O 1.1438(2) 0.42323(15) -0.08352(13)
N3 N 0.8381(2) 0.09092(15) -0.03033(14)
N4 N 0.6993(2) 0.20793(15) -0.13944(14)
N5 N 0.84991(19) 0.16414(15) -0.19444(14)
O6 O 0.69823(18) -0.09374(14) -0.62952(13)
N6 N 0.5686(2) 0.18458(16) 0.04351(14)
N7 N 1.1125(2) 0.43439(16) -0.19089(15)
N8 N 1.0778(2) 0.03813(16) -0.15960(15)
H1 H 1.1220 -0.0059 -0.1150
H2 H 1.1286 0.0458 -0.2246
N9 N 0.7248(2) -0.03197(16) -0.50643(15)
C1 C 0.9310(2) 0.09438(18) -0.12818(17)
C2 C 1.0112(2) 0.30959(18) -0.30621(17)
C3 C 0.8993(2) 0.19038(18) -0.30485(17)
C4 C 0.7046(2) 0.16006(18) -0.04510(17)
C5 C 0.8445(2) 0.10744(18) -0.44146(17)
N10 N 0.6809(2) 0.51971(16) -0.23160(15)
H3 H 0.7586 0.5888 -0.1675
N11 N 0.6226(2) 0.33115(16) -0.58905(14)
H4 H 0.5139 0.3056 -0.6415
H5 H 0.6753 0.2573 -0.6153
N12 N 0.5361(2) 0.43381(16) -0.20430(15)
H6 H 0.4748 0.4903 -0.1525
H7 H 0.5863 0.3910 -0.1605
N13 N 0.5970(2) 0.36574(16) -0.45481(14)
H8 H 0.5216 0.3083 -0.4345
N14 N 0.8022(2) 0.58015(16) -0.39260(15)
H9 H 0.8151 0.5616 -0.4746
N15 N 0.8977(2) 0.70928(16) -0.28554(15)
H10 H 0.8942 0.7768 -0.3108
H11 H 1.0171 0.7028 -0.2751
C6 C 0.6921(2) 0.48934(18) -0.36046(17)
loop_
_geom_bond_atom_site_label_1
_geom_bond_atom_site_label_2
_geom_bond_site_symmetry_1
_geom_bond_site_symmetry_2
O1 N6 1_555 1_555
N1 N2 1_555 1_555
O2 N9 1_555 1_555
O3 N6 1_555 1_555
N2 C2 1_555 1_555
O4 N7 1_555 1_555
O5 N7 1_555 1_555
N3 C1 1_555 1_555
N4 N5 1_555 1_555
N5 C1 1_555 1_555
O6 N9 1_555 1_555
N6 C4 1_555 1_555
N7 C2 1_555 1_555
N8 H1 1_555 1_555
H2 N8 1_555 1_555
N9 C5 1_555 1_555
C1 N8 1_555 1_555
C2 C3 1_555 1_555
C3 N5 1_555 1_555
C4 N3 1_555 1_555
C5 N1 1_555 1_555
N10 H3 1_555 1_555
N11 H4 1_555 1_555
H5 N11 1_555 1_555
N12 N10 1_555 1_555
H6 N12 1_555 1_555
H7 N12 1_555 1_555
N13 N11 1_555 1_555
H8 N13 1_555 1_555
N14 H9 1_555 1_555
N15 N14 1_555 1_555
H10 N15 1_555 1_555
H11 N15 1_555 1_555
C6 N10 1_555 1_555
N4 C4 1_555 1_555
C3 C5 1_555 1_555
N13 C6 1_555 1_555
N14 C6 1_555 1_555

#END
