
#######################################################################
#
#                 Cambridge Crystallographic Data Centre
#                                CCDC 
#
#######################################################################
#
# If this CIF has been generated from an entry in the Cambridge 
# Structural Database, then it will include bibliographic, chemical, 
# crystal, experimental, refinement or atomic coordinate data resulting 
# from the CCDC's data processing and validation procedures.
#
#######################################################################

data_AYETAB
_chemical_formula_moiety         'C5 H2 N9 O6 1-,C2 H7 N6 1+'
_chemical_name_systematic        
'3,4,5-triamino-4H-1,2,4-triazol-1-ium 4-(5-amino-3-nitro-1H-1,2,4-triazol-1-yl)-3,5-dinitropyrazol-1-ide'
_symmetry_cell_setting           triclinic
_symmetry_space_group_name_H-M   'P -1'
_symmetry_Int_Tables_number      2
_space_group_name_Hall           '-P 1'
loop_
_symmetry_equiv_pos_site_id
_symmetry_equiv_pos_as_xyz
1 x,y,z
2 -x,-y,-z
_cell_length_a                   8.0128(8)
_cell_length_b                   9.8962(10)
_cell_length_c                   10.5912(10)
_cell_angle_alpha                92.344(8)
_cell_angle_beta                 108.659(9)
_cell_angle_gamma                104.967(9)
_cell_volume                     761.673
_exptl_crystal_colour            yellow
_exptl_crystal_description       block
_cell_formula_units_Z            2
loop_
_atom_site_label
_atom_site_type_symbol
_atom_site_fract_x
_atom_site_fract_y
_atom_site_fract_z
O1 O 0.10101(17) 0.37346(14) 0.17642(13)
O2 O -0.12641(18) 0.46598(14) 0.10511(14)
N1 N -0.0491(2) 0.37442(16) 0.09905(15)
N2 N -0.75249(19) -0.02057(15) -0.46846(14)
O3 O -0.24247(18) 0.33545(14) -0.36891(13)
O4 O -0.60696(17) -0.09711(14) -0.13869(13)
O5 O -0.43452(19) 0.30363(14) -0.57368(13)
N3 N -0.28823(19) 0.26664(15) -0.10870(14)
N4 N -0.3875(2) 0.27291(15) -0.45839(15)
N5 N -0.08975(19) 0.14102(15) -0.01140(14)
O6 O -0.84977(19) -0.20579(15) -0.30891(14)
C1 C -0.4837(2) 0.09807(18) -0.30631(17)
N6 N -0.2241(2) -0.06674(15) -0.17290(15)
H1 H -0.2716 -0.0906 -0.2576
H2 H -0.1265 -0.0931 -0.1345
N7 N -0.33342(19) 0.13746(14) -0.18560(14)
N8 N -0.66842(19) 0.08557(15) -0.52264(14)
C2 C -0.1455(2) 0.25786(18) -0.00993(17)
N9 N -0.7051(2) -0.11210(16) -0.25773(15)
C3 C -0.5095(2) 0.15522(17) -0.42677(17)
C4 C -0.2122(2) 0.06446(18) -0.12565(17)
C5 C -0.6450(2) -0.01235(18) -0.34052(17)
N10 N -0.66939(19) 0.35886(15) -0.23723(15)
N11 N -0.8710(2) 0.16369(16) -0.22486(15)
N12 N -0.9204(2) 0.20534(15) -0.35273(15)
H3 H -1.0199 0.1596 -0.4202
N13 N -0.5148(2) 0.47656(15) -0.20964(15)
H4 H -0.4165 0.4460 -0.1874
H5 H -0.5110 0.5338 -0.1430
N14 N -0.6184(2) 0.27363(16) -0.02285(15)
H6 H -0.6685 0.2112 0.0172
H7 H -0.5042 0.2771 -0.0067
N15 N -0.7967(2) 0.39079(16) -0.46414(15)
H8 H -0.8861 0.3662 -0.5384
H9 H -0.7259 0.4754 -0.4517
C6 C -0.8003(2) 0.32136(18) -0.36043(18)
C7 C -0.7193(2) 0.26008(18) -0.15701(18)
loop_
_geom_bond_atom_site_label_1
_geom_bond_atom_site_label_2
_geom_bond_site_symmetry_1
_geom_bond_site_symmetry_2
O1 N1 1_555 1_555
O2 N1 1_555 1_555
N1 C2 1_555 1_555
N2 N8 1_555 1_555
O3 N4 1_555 1_555
O4 N9 1_555 1_555
O5 N4 1_555 1_555
N3 N7 1_555 1_555
N4 C3 1_555 1_555
N5 C2 1_555 1_555
O6 N9 1_555 1_555
C1 N7 1_555 1_555
N6 H1 1_555 1_555
H2 N6 1_555 1_555
N7 C4 1_555 1_555
N8 C3 1_555 1_555
C2 N3 1_555 1_555
N9 C5 1_555 1_555
C3 C1 1_555 1_555
C4 N5 1_555 1_555
C5 N2 1_555 1_555
N10 N13 1_555 1_555
N11 N12 1_555 1_555
N12 H3 1_555 1_555
N13 H4 1_555 1_555
H5 N13 1_555 1_555
N14 H6 1_555 1_555
H7 N14 1_555 1_555
N15 H8 1_555 1_555
H9 N15 1_555 1_555
C6 N10 1_555 1_555
C7 N10 1_555 1_555
C1 C5 1_555 1_555
N6 C4 1_555 1_555
N11 C7 1_555 1_555
N12 C6 1_555 1_555
N14 C7 1_555 1_555
N15 C6 1_555 1_555

#END
