
#######################################################################
#
#                 Cambridge Crystallographic Data Centre
#                                CCDC 
#
#######################################################################
#
# If this CIF has been generated from an entry in the Cambridge 
# Structural Database, then it will include bibliographic, chemical, 
# crystal, experimental, refinement or atomic coordinate data resulting 
# from the CCDC's data processing and validation procedures.
#
#######################################################################

data_AYICUI
_chemical_formula_moiety         'C21 H19 N1 O2 S1'
_chemical_name_systematic        
'methyl 4,9-dimethyl-2-phenyl-2,9-dihydrothiopyrano[2,3-b]indole-3-carboxylate'
_symmetry_cell_setting           triclinic
_symmetry_space_group_name_H-M   'P -1'
_symmetry_Int_Tables_number      2
_space_group_name_Hall           '-P 1'
loop_
_symmetry_equiv_pos_site_id
_symmetry_equiv_pos_as_xyz
1 x,y,z
2 -x,-y,-z
_cell_length_a                   7.754(3)
_cell_length_b                   10.149(5)
_cell_length_c                   11.964(5)
_cell_angle_alpha                97.693(9)
_cell_angle_beta                 108.065(8)
_cell_angle_gamma                95.123(9)
_cell_volume                     878.453
_exptl_crystal_colour            colorless
_exptl_crystal_description       block
_cell_formula_units_Z            2
loop_
_atom_site_label
_atom_site_type_symbol
_atom_site_fract_x
_atom_site_fract_y
_atom_site_fract_z
S1 S 0.50441(10) 0.91042(7) 0.23910(7)
O1 O 0.4747(5) 0.4075(2) 0.1885(3)
O2 O 0.5777(4) 0.5449(3) 0.3607(2)
C1 C 0.1349(4) 0.7709(3) -0.0766(2)
C2 C 0.4384(3) 0.7581(2) 0.2910(2)
H1 H 0.5434 0.7483 0.3590
C3 C 0.2797(3) 0.7725(2) 0.3388(2)
C4 C 0.4099(3) 0.6339(2) 0.1979(2)
C5 C -0.0059(4) 0.7984(3) 0.4327(3)
H2 H -0.1008 0.8064 0.4642
C6 C 0.1000(3) 0.7179(3) 0.2719(2)
H3 H 0.0746 0.6718 0.1948
C7 C 0.2566(3) 0.7499(2) 0.0372(2)
N1 N 0.2817(3) 0.9724(2) 0.0340(2)
C8 C 0.3132(3) 0.6295(2) 0.0808(2)
C9 C 0.3115(4) 0.8411(3) 0.4536(2)
H4 H 0.4300 0.8794 0.4998
C10 C -0.0410(4) 0.7314(3) 0.3186(3)
H5 H -0.1603 0.6948 0.2725
C11 C 0.2610(4) 0.5031(3) -0.0115(3)
H6 H 0.3450 0.4407 0.0141
H7 H 0.2658 0.5247 -0.0863
H8 H 0.1391 0.4636 -0.0210
C12 C 0.1550(4) 0.9113(3) -0.0737(3)
C13 C 0.3384(3) 0.8765(2) 0.0999(2)
C14 C 0.4847(4) 0.5162(3) 0.2436(3)
C15 C 0.1708(4) 0.8535(3) 0.5002(2)
H9 H 0.1951 0.8993 0.5774
C16 C 0.0075(4) 0.6905(3) -0.1785(3)
H10 H -0.0120 0.5978 -0.1833
C17 C 0.3406(5) 1.1165(3) 0.0709(3)
H11 H 0.4010 1.1361 0.1557
H12 H 0.2358 1.1632 0.0504
H13 H 0.4237 1.1450 0.0311
C18 C 0.6634(8) 0.4358(5) 0.4113(4)
H14 H 0.5788 0.3827 0.4370
H15 H 0.7706 0.4718 0.4784
H16 H 0.6978 0.3807 0.3522
C19 C -0.0663(6) 0.8872(5) -0.2663(3)
H17 H -0.1347 0.9241 -0.3300
C20 C 0.0560(5) 0.9694(4) -0.1677(3)
H18 H 0.0722 1.0620 -0.1641
C21 C -0.0880(5) 0.7498(4) -0.2709(3)
H19 H -0.1701 0.6956 -0.3389
loop_
_geom_bond_atom_site_label_1
_geom_bond_atom_site_label_2
_geom_bond_site_symmetry_1
_geom_bond_site_symmetry_2
S1 C2 1_555 1_555
O1 C14 1_555 1_555
O2 C14 1_555 1_555
C1 C7 1_555 1_555
C2 H1 1_555 1_555
C3 C2 1_555 1_555
C4 C2 1_555 1_555
C5 H2 1_555 1_555
C6 C3 1_555 1_555
H3 C6 1_555 1_555
C7 C8 1_555 1_555
N1 C12 1_555 1_555
C8 C4 1_555 1_555
C9 C3 1_555 1_555
H4 C9 1_555 1_555
C10 C5 1_555 1_555
H5 C10 1_555 1_555
C11 C8 1_555 1_555
H6 C11 1_555 1_555
H7 C11 1_555 1_555
H8 C11 1_555 1_555
C12 C1 1_555 1_555
C13 S1 1_555 1_555
C14 C4 1_555 1_555
C15 C5 1_555 1_555
H9 C15 1_555 1_555
C16 C1 1_555 1_555
H10 C16 1_555 1_555
C17 N1 1_555 1_555
H11 C17 1_555 1_555
H12 C17 1_555 1_555
H13 C17 1_555 1_555
C18 O2 1_555 1_555
H14 C18 1_555 1_555
H15 C18 1_555 1_555
H16 C18 1_555 1_555
C19 H17 1_555 1_555
C20 C12 1_555 1_555
H18 C20 1_555 1_555
C21 C16 1_555 1_555
H19 C21 1_555 1_555
C6 C10 1_555 1_555
C7 C13 1_555 1_555
N1 C13 1_555 1_555
C9 C15 1_555 1_555
C19 C20 1_555 1_555
C19 C21 1_555 1_555

#END
