
#######################################################################
#
#                 Cambridge Crystallographic Data Centre
#                                CCDC 
#
#######################################################################
#
# If this CIF has been generated from an entry in the Cambridge 
# Structural Database, then it will include bibliographic, chemical, 
# crystal, experimental, refinement or atomic coordinate data resulting 
# from the CCDC's data processing and validation procedures.
#
#######################################################################

data_AYOHIF
_chemical_formula_moiety         'C10 H8 O2'
_chemical_name_systematic        1-(Methoxycarbonyl)-4-ethynylbenzene
_symmetry_cell_setting           orthorhombic
_symmetry_space_group_name_H-M   'P b c a'
_symmetry_Int_Tables_number      61
_space_group_name_Hall           '-P 2ac 2ab'
loop_
_symmetry_equiv_pos_site_id
_symmetry_equiv_pos_as_xyz
1 x,y,z
2 1/2+x,y,1/2-z
3 x,1/2-y,1/2+z
4 1/2-x,1/2+y,z
5 -x,-y,-z
6 1/2-x,-y,1/2+z
7 -x,1/2+y,1/2-z
8 1/2+x,1/2-y,-z
_cell_length_a                   13.962(3)
_cell_length_b                   6.052(1)
_cell_length_c                   19.542(3)
_cell_angle_alpha                90
_cell_angle_beta                 90
_cell_angle_gamma                90
_cell_volume                     1651.26
_exptl_crystal_colour            colorless
_exptl_crystal_description       block
_cell_formula_units_Z            8
_exptl_crystal_recrystallization_method sublimation
loop_
_atom_site_label
_atom_site_type_symbol
_atom_site_fract_x
_atom_site_fract_y
_atom_site_fract_z
O1 O 0.65622(6) 0.11208(13) 0.68178(4)
O2 O 0.58544(6) 0.39509(15) 0.73562(4)
C1 C 0.61722(7) 0.42581(18) 0.61617(5)
C2 C 0.65884(7) 0.33100(19) 0.55829(6)
H1 H 0.6883(10) 0.189(3) 0.5615(7)
C3 C 0.65699(7) 0.44255(19) 0.49650(6)
H2 H 0.6850(10) 0.377(2) 0.4569(8)
C4 C 0.61434(7) 0.65123(19) 0.49187(6)
C5 C 0.57268(8) 0.74509(19) 0.55011(6)
H3 H 0.5429(10) 0.890(2) 0.5472(7)
C6 C 0.57384(8) 0.63306(18) 0.61166(6)
H4 H 0.5432(11) 0.695(2) 0.6520(8)
C7 C 0.61720(7) 0.31371(19) 0.68380(5)
C8 C 0.61353(8) 0.77102(19) 0.42832(6)
C9 C 0.61174(9) 0.8754(2) 0.37680(6)
H5 H 0.6066(12) 0.955(3) 0.3356(9)
C10 C 0.65550(9) -0.0071(2) 0.74611(6)
H6 H 0.6816(12) -0.152(3) 0.7342(8)
H7 H 0.6986(11) 0.071(3) 0.7793(8)
H8 H 0.5892(11) -0.017(3) 0.7642(8)
loop_
_geom_bond_atom_site_label_1
_geom_bond_atom_site_label_2
_geom_bond_site_symmetry_1
_geom_bond_site_symmetry_2
O1 C7 1_555 1_555
O2 C7 1_555 1_555
C1 C2 1_555 1_555
C2 H1 1_555 1_555
C3 C2 1_555 1_555
H2 C3 1_555 1_555
C4 C3 1_555 1_555
C5 C4 1_555 1_555
H3 C5 1_555 1_555
C6 C1 1_555 1_555
H4 C6 1_555 1_555
C7 C1 1_555 1_555
C8 C4 1_555 1_555
C9 C8 1_555 1_555
H5 C9 1_555 1_555
C10 O1 1_555 1_555
H6 C10 1_555 1_555
H7 C10 1_555 1_555
H8 C10 1_555 1_555
C5 C6 1_555 1_555

#END
