
#######################################################################
#
#                 Cambridge Crystallographic Data Centre
#                                CCDC 
#
#######################################################################
#
# If this CIF has been generated from an entry in the Cambridge 
# Structural Database, then it will include bibliographic, chemical, 
# crystal, experimental, refinement or atomic coordinate data resulting 
# from the CCDC's data processing and validation procedures.
#
#######################################################################

data_AYOHUR
_chemical_formula_moiety         'C9 H4 F4 O1'
_chemical_name_systematic        4-Ethynyl-2,3,5,6-tetrafluoroanisole
_symmetry_cell_setting           triclinic
_symmetry_space_group_name_H-M   'P 1'
_symmetry_Int_Tables_number      1
_space_group_name_Hall           'P 1'
loop_
_symmetry_equiv_pos_site_id
_symmetry_equiv_pos_as_xyz
1 x,y,z
_cell_length_a                   4.0302(6)
_cell_length_b                   6.240(1)
_cell_length_c                   8.220(1)
_cell_angle_alpha                104.97(1)
_cell_angle_beta                 92.28(3)
_cell_angle_gamma                91.73(1)
_cell_volume                     199.371
_exptl_crystal_colour            'light brown'
_exptl_crystal_description       block
_chemical_melting_point          '329-330 K'
_cell_formula_units_Z            1
_exptl_crystal_recrystallization_method hexane
loop_
_atom_site_label
_atom_site_type_symbol
_atom_site_fract_x
_atom_site_fract_y
_atom_site_fract_z
F1 F 0.0812(6) 0.6961(4) 0.3631(3)
F2 F 0.3024(6) 0.9191(4) 0.6759(3)
F3 F 0.8600(6) 0.2860(4) 0.7362(3)
F4 F 0.6504(6) 0.0659(4) 0.4209(3)
O1 O 0.2429(7) 0.2563(4) 0.2292(3)
C1 C 0.3610(10) 0.3758(6) 0.3846(5)
C2 C 0.2788(10) 0.5957(7) 0.4533(5)
C3 C 0.3916(10) 0.7106(6) 0.6150(5)
C4 C 0.5881(10) 0.6098(6) 0.7157(4)
C5 C 0.6671(9) 0.3899(6) 0.6456(4)
C6 C 0.5593(10) 0.2765(6) 0.4836(5)
C7 C 0.3705(9) 0.3281(6) 0.0885(4)
H1 H 0.624(13) 0.329(8) 0.096(6)
H2 H 0.316(17) 0.474(12) 0.095(8)
H3 H 0.261(16) 0.204(11) -0.019(9)
C8 C 0.7130(10) 0.7287(6) 0.8817(5)
C9 C 0.8235(10) 0.8272(6) 1.0177(5)
H4 H 0.913(16) 0.928(11) 1.132(8)
loop_
_geom_bond_atom_site_label_1
_geom_bond_atom_site_label_2
_geom_bond_site_symmetry_1
_geom_bond_site_symmetry_2
F1 C2 1_555 1_555
F2 C3 1_555 1_555
F3 C5 1_555 1_555
F4 C6 1_555 1_555
O1 C1 1_555 1_555
C1 C2 1_555 1_555
C2 C3 1_555 1_555
C3 C4 1_555 1_555
C4 C5 1_555 1_555
C5 C6 1_555 1_555
C6 C1 1_555 1_555
C7 O1 1_555 1_555
H1 C7 1_555 1_555
H2 C7 1_555 1_555
H3 C7 1_555 1_555
C8 C4 1_555 1_555
C9 C8 1_555 1_555
H4 C9 1_555 1_555

#END
