
#######################################################################
#
#                 Cambridge Crystallographic Data Centre
#                                CCDC 
#
#######################################################################
#
# If this CIF has been generated from an entry in the Cambridge 
# Structural Database, then it will include bibliographic, chemical, 
# crystal, experimental, refinement or atomic coordinate data resulting 
# from the CCDC's data processing and validation procedures.
#
#######################################################################

data_AYOJED
_chemical_formula_moiety         'C9 H8'
_chemical_name_systematic        4-Ethynyltoluene
_symmetry_cell_setting           monoclinic
_symmetry_space_group_name_H-M   'P 21/n'
_symmetry_Int_Tables_number      14
_space_group_name_Hall           '-P 2yn'
loop_
_symmetry_equiv_pos_site_id
_symmetry_equiv_pos_as_xyz
1 x,y,z
2 1/2+x,1/2-y,1/2+z
3 -x,-y,-z
4 1/2-x,1/2+y,1/2-z
_cell_length_a                   5.9008(5)
_cell_length_b                   10.0652(8)
_cell_length_c                   11.6577(9)
_cell_angle_alpha                90
_cell_angle_beta                 102.919(3)
_cell_angle_gamma                90
_cell_volume                     674.856
_exptl_crystal_colour            colorless
_exptl_crystal_description       needle
_cell_formula_units_Z            4
_exptl_crystal_recrystallization_method sublimation
loop_
_atom_site_label
_atom_site_type_symbol
_atom_site_fract_x
_atom_site_fract_y
_atom_site_fract_z
C1 C 0.3524(2) 0.24039(12) 0.45434(11)
C2 C 0.5821(2) 0.27202(13) 0.50591(11)
H1 H 0.663(2) 0.2258(14) 0.5779(12)
C3 C 0.7023(2) 0.36908(12) 0.46018(11)
H2 H 0.864(2) 0.3930(13) 0.4982(10)
C4 C 0.5921(2) 0.43902(11) 0.35915(10)
C5 C 0.3606(2) 0.41015(13) 0.30803(11)
H3 H 0.280(2) 0.4607(13) 0.2385(10)
C6 C 0.2433(2) 0.31215(13) 0.35456(11)
H4 H 0.081(2) 0.2919(12) 0.3168(10)
C7 C 0.2248(3) 0.13368(16) 0.50467(15)
H5 H 0.313(3) 0.055(2) 0.5213(15)
H6 H 0.193(3) 0.1576(18) 0.5781(17)
H7 H 0.071(4) 0.112(2) 0.4542(17)
C8 C 0.7180(2) 0.53744(13) 0.30874(11)
C9 C 0.8248(2) 0.61582(14) 0.26623(11)
H8 H 0.916(3) 0.6773(15) 0.2330(12)
loop_
_geom_bond_atom_site_label_1
_geom_bond_atom_site_label_2
_geom_bond_site_symmetry_1
_geom_bond_site_symmetry_2
C1 C2 1_555 1_555
C2 H1 1_555 1_555
C3 C2 1_555 1_555
H2 C3 1_555 1_555
C4 C3 1_555 1_555
C5 C4 1_555 1_555
H3 C5 1_555 1_555
C6 C1 1_555 1_555
H4 C6 1_555 1_555
C7 C1 1_555 1_555
H5 C7 1_555 1_555
H6 C7 1_555 1_555
H7 C7 1_555 1_555
C8 C4 1_555 1_555
C9 C8 1_555 1_555
H8 C9 1_555 1_555
C5 C6 1_555 1_555

#END
