
#######################################################################
#
#                 Cambridge Crystallographic Data Centre
#                                CCDC 
#
#######################################################################
#
# If this CIF has been generated from an entry in the Cambridge 
# Structural Database, then it will include bibliographic, chemical, 
# crystal, experimental, refinement or atomic coordinate data resulting 
# from the CCDC's data processing and validation procedures.
#
#######################################################################

data_AYONEI
_chemical_formula_moiety         'C5 H3 Cl2 N1'
_chemical_name_systematic        2,3-Dichloropyridine
_symmetry_cell_setting           monoclinic
_symmetry_space_group_name_H-M   'C 2/c'
_symmetry_Int_Tables_number      15
_space_group_name_Hall           '-C 2yn'
loop_
_symmetry_equiv_pos_site_id
_symmetry_equiv_pos_as_xyz
1 x,y,z
2 -x,y,1/2-z
3 1/2+x,1/2+y,z
4 1/2-x,1/2+y,1/2-z
5 -x,-y,-z
6 x,-y,1/2+z
7 1/2-x,1/2-y,-z
8 1/2+x,1/2-y,1/2+z
_cell_length_a                   3.805(3)
_cell_length_b                   14.196(12)
_cell_length_c                   10.680(10)
_cell_angle_alpha                90
_cell_angle_beta                 97.221(14)
_cell_angle_gamma                90
_cell_volume                     572.313
_exptl_crystal_colour            colorless
_exptl_crystal_description       prism
_cell_formula_units_Z            4
loop_
_atom_site_label
_atom_site_type_symbol
_atom_site_fract_x
_atom_site_fract_y
_atom_site_fract_z
Cl1 Cl 0.73082(10) 0.32961(3) 0.88463(4)
C1 C 0.6017(4) 0.43421(10) 0.80902(13)
C2 C 0.7049(3) 0.51548(10) 0.86725(12)
H1 H 0.862(6) 0.514(2) 0.9430(16)
C3 C 0.6029(4) 0.59762(10) 0.80809(15)
H2 H 0.688(4) 0.6559(8) 0.8439(15)
Cl1A Cl 0.26918(10) 0.32961(3) 0.61537(4)
C1A C 0.3983(4) 0.43421(10) 0.69098(13)
C2A C 0.2951(3) 0.51548(10) 0.63275(12)
H1A H 0.138(6) 0.514(2) 0.5570(16)
C3A C 0.3971(4) 0.59762(10) 0.69191(15)
H2A H 0.312(4) 0.6559(8) 0.6561(15)
N1? N 0.7049(3) 0.51548(10) 0.86725(12)
loop_
_geom_bond_atom_site_label_1
_geom_bond_atom_site_label_2
_geom_bond_site_symmetry_1
_geom_bond_site_symmetry_2
Cl1 C1 1_555 1_555
C1 C2 1_555 1_555
C2 H1 1_555 1_555
C3 C2 1_555 1_555
H2 C3 1_555 1_555
Cl1A C1A 1_555 1_555
C1A C1 1_555 1_555
C2A C1A 1_555 1_555
H1A C2A 1_555 1_555
C3A C3 1_555 1_555
H2A C3A 1_555 1_555
C2A C3A 1_555 1_555

#END
