
#######################################################################
#
#                 Cambridge Crystallographic Data Centre
#                                CCDC 
#
#######################################################################
#
# If this CIF has been generated from an entry in the Cambridge 
# Structural Database, then it will include bibliographic, chemical, 
# crystal, experimental, refinement or atomic coordinate data resulting 
# from the CCDC's data processing and validation procedures.
#
#######################################################################

data_AYOQOV
_chemical_formula_moiety         'C20 H14 Br2 N2 O2'
_chemical_name_systematic        
4,4'-Dibromo-2,2'-(1,3-phenylene-bis(nitrilomethanylylidene))diphenol
_symmetry_cell_setting           orthorhombic
_symmetry_space_group_name_H-M   'P n m a'
_symmetry_Int_Tables_number      62
_space_group_name_Hall           '-P 2ac 2n'
loop_
_symmetry_equiv_pos_site_id
_symmetry_equiv_pos_as_xyz
1 x,y,z
2 1/2-x,-y,1/2+z
3 -x,1/2+y,-z
4 1/2+x,1/2-y,1/2-z
5 -x,-y,-z
6 1/2+x,y,1/2-z
7 x,1/2-y,z
8 1/2-x,1/2+y,1/2+z
_cell_length_a                   12.326(2)
_cell_length_b                   37.226(6)
_cell_length_c                   3.8726(7)
_cell_angle_alpha                90
_cell_angle_beta                 90
_cell_angle_gamma                90
_cell_volume                     1776.93
_exptl_crystal_colour            yellow
_exptl_crystal_description       stick
_cell_formula_units_Z            4
loop_
_atom_site_label
_atom_site_type_symbol
_atom_site_fract_x
_atom_site_fract_y
_atom_site_fract_z
Br1 Br 0.34154(4) 0.027860(11) 0.17780(12)
O1 O 0.6141(3) 0.14597(9) 0.8028(10)
H1 H 0.575(4) 0.1631(12) 0.844(12)
N1 N 0.4386(3) 0.18548(9) 0.8276(9)
C1 C 0.4402(3) 0.12540(10) 0.6019(11)
C2 C 0.5508(4) 0.12003(10) 0.6591(11)
C3 C 0.5980(4) 0.08728(12) 0.5711(12)
H2 H 0.6731 0.0834 0.6119
C4 C 0.5359(4) 0.06033(11) 0.4244(12)
H3 H 0.5686 0.0381 0.3621
C5 C 0.4268(4) 0.06563(11) 0.3688(11)
C6 C 0.3776(3) 0.09764(10) 0.4542(11)
H4 H 0.3022 0.1010 0.4141
C7 C 0.3858(4) 0.15904(11) 0.6948(11)
H5 H 0.3100 0.1614 0.6563
C8 C 0.3799(4) 0.21767(10) 0.9126(11)
C9 C 0.2764(4) 0.21769(11) 1.0496(12)
H6 H 0.2403 0.1957 1.0956
C10 C 0.2259(5) 0.2500 1.1193(16)
H7 H 0.1552 0.2500 1.2168
C11 C 0.4341(5) 0.2500 0.8520(16)
H8 H 0.5068 0.2500 0.7706
Br1F Br 0.34154(4) 0.472140(11) 0.17780(12)
O1F O 0.6141(3) 0.35403(9) 0.8028(10)
H1F H 0.575(4) 0.3369(12) 0.844(12)
N1F N 0.4386(3) 0.31452(9) 0.8276(9)
C1F C 0.4402(3) 0.37460(10) 0.6019(11)
C2F C 0.5508(4) 0.37997(10) 0.6591(11)
C3F C 0.5980(4) 0.41272(12) 0.5711(12)
H2F H 0.6731 0.4166 0.6119
C4F C 0.5359(4) 0.43967(11) 0.4244(12)
H3F H 0.5686 0.4619 0.3621
C5F C 0.4268(4) 0.43437(11) 0.3688(11)
C6F C 0.3776(3) 0.40236(10) 0.4542(11)
H4F H 0.3022 0.3990 0.4141
C7F C 0.3858(4) 0.34096(11) 0.6948(11)
H5F H 0.3100 0.3386 0.6563
C8F C 0.3799(4) 0.28233(10) 0.9126(11)
C9F C 0.2764(4) 0.28231(11) 1.0496(12)
H6F H 0.2403 0.3043 1.0956
loop_
_geom_bond_atom_site_label_1
_geom_bond_atom_site_label_2
_geom_bond_site_symmetry_1
_geom_bond_site_symmetry_2
Br1 C5 1_555 1_555
O1 H1 1_555 1_555
N1 C7 1_555 1_555
C1 C2 1_555 1_555
C2 O1 1_555 1_555
C3 C2 1_555 1_555
H2 C3 1_555 1_555
C4 C3 1_555 1_555
H3 C4 1_555 1_555
C5 C4 1_555 1_555
C6 C1 1_555 1_555
H4 C6 1_555 1_555
C7 C1 1_555 1_555
H5 C7 1_555 1_555
C8 N1 1_555 1_555
C9 C8 1_555 1_555
H6 C9 1_555 1_555
C10 C9 1_555 1_555
H7 C10 1_555 1_555
C11 C8 1_555 1_555
H8 C11 1_555 1_555
Br1F C5F 1_555 1_555
O1F H1F 1_555 1_555
N1F C7F 1_555 1_555
C1F C2F 1_555 1_555
C2F O1F 1_555 1_555
C3F C2F 1_555 1_555
H2F C3F 1_555 1_555
C4F C3F 1_555 1_555
H3F C4F 1_555 1_555
C5F C4F 1_555 1_555
C6F C1F 1_555 1_555
H4F C6F 1_555 1_555
C7F C1F 1_555 1_555
H5F C7F 1_555 1_555
C8F C11 1_555 1_555
C9F C10 1_555 1_555
H6F C9F 1_555 1_555
C5 C6 1_555 1_555
N1F C8F 1_555 1_555
C5F C6F 1_555 1_555
C8F C9F 1_555 1_555

#END
