
#######################################################################
#
#                 Cambridge Crystallographic Data Centre
#                                CCDC 
#
#######################################################################
#
# If this CIF has been generated from an entry in the Cambridge 
# Structural Database, then it will include bibliographic, chemical, 
# crystal, experimental, refinement or atomic coordinate data resulting 
# from the CCDC's data processing and validation procedures.
#
#######################################################################

data_AYORIP
_chemical_formula_moiety         'C67 H76 O5 P2,2(C7 H8)'
_chemical_name_systematic        
'5,11,17,23,29-Penta-t-butyl-35-hydroxycalix(5)arene-31,32;33,34-tetrayl bis(phenylphosphite) toluene solvate'
_symmetry_cell_setting           monoclinic
_symmetry_space_group_name_H-M   'P 21/n'
_symmetry_Int_Tables_number      14
_space_group_name_Hall           '-P 2yn'
loop_
_symmetry_equiv_pos_site_id
_symmetry_equiv_pos_as_xyz
1 x,y,z
2 1/2+x,1/2-y,1/2+z
3 -x,-y,-z
4 1/2-x,1/2+y,1/2-z
_cell_length_a                   17.269(1)
_cell_length_b                   24.363(1)
_cell_length_c                   17.584(1)
_cell_angle_alpha                90
_cell_angle_beta                 109.621(5)
_cell_angle_gamma                90
_cell_volume                     6968.45
_exptl_crystal_colour            colorless
_exptl_crystal_description       plates
_chemical_melting_point          238-240deg.C
_cell_formula_units_Z            4
_chemical_properties_physical    air-sensitive
loop_
_atom_site_label
_atom_site_type_symbol
_atom_site_fract_x
_atom_site_fract_y
_atom_site_fract_z
P1 P 0.79957(9) 0.25235(6) 0.32389(9)
P2 P 0.59593(9) 0.23651(6) 0.15192(9)
O1 O 0.6274(2) 0.31262(17) 0.3001(2)
H1 H 0.5916 0.3049 0.2573
O2 O 0.8558(2) 0.25702(14) 0.4203(2)
O3 O 0.7805(2) 0.18702(13) 0.3117(2)
O4 O 0.5978(2) 0.18475(13) 0.0922(2)
O5 O 0.4964(2) 0.25137(13) 0.1241(2)
C1 C 0.5920(4) 0.32187(19) 0.3583(3)
C2 C 0.5063(3) 0.3280(2) 0.3319(3)
C3 C 0.4712(3) 0.3413(2) 0.3889(4)
H2 H 0.4147 0.3468 0.3716
C4 C 0.5147(3) 0.3470(2) 0.4710(3)
C5 C 0.5985(4) 0.3391(2) 0.4930(3)
H3 H 0.6297 0.3421 0.5474
C6 C 0.6391(3) 0.3269(2) 0.4389(3)
C7 C 0.4714(4) 0.3618(3) 0.5304(4)
C8 C 0.3942(5) 0.3271(4) 0.5146(5)
H4 H 0.3722 0.3326 0.5575
H5 H 0.4077 0.2890 0.5123
H6 H 0.3540 0.3378 0.4642
C9 C 0.4503(6) 0.4224(3) 0.5223(5)
H7 H 0.4229 0.4321 0.5598
H8 H 0.4147 0.4300 0.4683
H9 H 0.4998 0.4436 0.5337
C10 C 0.5259(4) 0.3511(3) 0.6180(4)
H10 H 0.4955 0.3590 0.6534
H11 H 0.5736 0.3742 0.6314
H12 H 0.5426 0.3133 0.6239
C11 C 0.8166(3) 0.2314(2) 0.4693(3)
C12 C 0.7574(3) 0.2584(2) 0.4921(3)
C13 C 0.7215(4) 0.2282(2) 0.5386(3)
H13 H 0.6813 0.2454 0.5544
C14 C 0.7412(4) 0.1746(2) 0.5628(3)
C15 C 0.8025(3) 0.1500(2) 0.5390(3)
H14 H 0.8187 0.1143 0.5555
C16 C 0.8399(3) 0.1776(2) 0.4914(3)
C17 C 0.6968(4) 0.1456(2) 0.6132(4)
C18 C 0.7276(5) 0.0866(3) 0.6351(4)
H15 H 0.7200 0.0661 0.5865
H16 H 0.6971 0.0697 0.6654
H17 H 0.7849 0.0873 0.6669
C19 C 0.6045(4) 0.1433(3) 0.5655(4)
H18 H 0.5956 0.1225 0.5169
H19 H 0.5839 0.1799 0.5520
H20 H 0.5763 0.1260 0.5978
C20 C 0.7090(4) 0.1773(3) 0.6914(4)
H21 H 0.6789 0.1596 0.7216
H22 H 0.6893 0.2142 0.6787
H23 H 0.7664 0.1780 0.7230
C21 C 0.8351(3) 0.1441(2) 0.3136(3)
C22 C 0.8933(3) 0.1259(2) 0.3865(3)
C23 C 0.9420(4) 0.0815(2) 0.3807(4)
H24 H 0.9806 0.0687 0.4282
C24 C 0.9372(4) 0.0552(2) 0.3102(4)
C25 C 0.8762(4) 0.0744(2) 0.2395(4)
H25 H 0.8705 0.0576 0.1905
C26 C 0.8246(3) 0.1176(2) 0.2411(3)
C27 C 0.9936(4) 0.0078(2) 0.3063(4)
C28 C 1.0555(14) 0.0281(8) 0.2733(15)
H26 H 1.0287 0.0443 0.2213
H27 H 1.0894 -0.0019 0.2679
H28 H 1.0891 0.0552 0.3090
C29 C 0.9418(13) -0.0381(7) 0.2502(12)
H29 H 0.9190 -0.0244 0.1960
H30 H 0.8980 -0.0492 0.2690
H31 H 0.9764 -0.0691 0.2509
C30 C 1.0325(12) -0.0181(7) 0.3871(12)
H32 H 0.9908 -0.0274 0.4098
H33 H 1.0707 0.0071 0.4223
H34 H 1.0611 -0.0508 0.3813
C34 C 0.5984(4) 0.1317(2) 0.1225(3)
C35 C 0.6744(3) 0.1047(2) 0.1557(3)
C36 C 0.6723(4) 0.0498(2) 0.1768(3)
H44 H 0.7218 0.0313 0.1996
C37 C 0.5992(4) 0.0213(2) 0.1653(3)
C38 C 0.5263(4) 0.0515(2) 0.1362(3)
H45 H 0.4767 0.0340 0.1300
C39 C 0.5254(3) 0.1069(2) 0.1161(3)
C40 C 0.5974(4) -0.0405(2) 0.1784(4)
C41 C 0.5404(5) -0.0550(3) 0.2264(4)
H46 H 0.5397 -0.0940 0.2333
H47 H 0.4858 -0.0423 0.1976
H48 H 0.5602 -0.0376 0.2784
C42 C 0.5634(5) -0.0678(3) 0.0950(4)
H49 H 0.5611 -0.1069 0.1015
H50 H 0.5987 -0.0596 0.0644
H51 H 0.5092 -0.0541 0.0670
C43 C 0.6828(5) -0.0644(3) 0.2234(5)
H52 H 0.6785 -0.1033 0.2293
H53 H 0.7045 -0.0478 0.2758
H54 H 0.7189 -0.0570 0.1933
C44 C 0.4531(3) 0.2261(2) 0.1693(3)
C45 C 0.4280(3) 0.1718(2) 0.1527(3)
C46 C 0.3844(3) 0.1483(2) 0.1981(3)
H55 H 0.3670 0.1122 0.1874
C47 C 0.3655(3) 0.1760(2) 0.2586(3)
C48 C 0.3913(3) 0.2301(2) 0.2709(3)
H56 H 0.3793 0.2499 0.3107
C49 C 0.4339(3) 0.2565(2) 0.2274(3)
C50 C 0.3179(4) 0.1503(2) 0.3087(4)
C51 C 0.3649(5) 0.1586(3) 0.3992(4)
H57 H 0.3732 0.1971 0.4105
H58 H 0.4172 0.1405 0.4134
H59 H 0.3337 0.1434 0.4301
C52 C 0.3034(5) 0.0895(3) 0.2940(5)
H60 H 0.3550 0.0712 0.3031
H61 H 0.2683 0.0835 0.2393
H62 H 0.2776 0.0750 0.3304
C53 C 0.2350(5) 0.1793(3) 0.2880(5)
H63 H 0.2437 0.2175 0.3015
H64 H 0.2037 0.1631 0.3181
H65 H 0.2054 0.1756 0.2312
C54 C 0.7323(3) 0.3177(2) 0.4695(3)
H66 H 0.7542 0.3292 0.4280
H67 H 0.7568 0.3407 0.5165
C55 C 0.9090(4) 0.1513(2) 0.4688(3)
H68 H 0.9510 0.1792 0.4758
H69 H 0.9328 0.1230 0.5085
C56 C 0.7549(3) 0.1333(2) 0.1642(3)
H70 H 0.7465 0.1727 0.1638
H71 H 0.7709 0.1242 0.1178
C57 C 0.4455(3) 0.1388(2) 0.0873(3)
H72 H 0.4471 0.1636 0.0447
H73 H 0.4006 0.1133 0.0643
C58 C 0.4573(3) 0.3172(2) 0.2448(3)
H74 H 0.4890 0.3288 0.2115
H75 H 0.4074 0.3390 0.2298
C59 C 0.8797(4) 0.2648(2) 0.2815(4)
C60 C 0.9623(4) 0.2545(3) 0.3193(5)
H76 H 0.9804 0.2403 0.3714
C61 C 1.0184(5) 0.2649(3) 0.2807(6)
H77 H 1.0739 0.2576 0.3066
C62 C 0.9918(6) 0.2864(3) 0.2033(6)
H78 H 1.0295 0.2934 0.1771
C63 C 0.9116(5) 0.2971(3) 0.1659(5)
H79 H 0.8940 0.3119 0.1142
C64 C 0.8552(4) 0.2863(2) 0.2041(4)
H80 H 0.7998 0.2935 0.1774
C65 C 0.6216(3) 0.2885(2) 0.0897(3)
C66 C 0.6385(5) 0.2758(3) 0.0211(4)
H81 H 0.6352 0.2396 0.0037
C67 C 0.6607(7) 0.3169(3) -0.0230(5)
H82 H 0.6711 0.3080 -0.0701
C68 C 0.6671(5) 0.3695(3) 0.0027(5)
H83 H 0.6825 0.3967 -0.0266
C69 C 0.6512(4) 0.3832(3) 0.0714(4)
H84 H 0.6555 0.4194 0.0890
C70 C 0.6287(4) 0.3424(2) 0.1143(4)
H85 H 0.6180 0.3516 0.1611
C71 C 0.6972(5) 0.0704(3) 0.9214(5)
C72 C 0.7025(5) 0.0336(3) 0.9814(4)
H86 H 0.6776 0.0412 1.0196
C73 C 0.7454(7) -0.0156(4) 0.9857(6)
H87 H 0.7494 -0.0407 1.0266
C74 C 0.7814(6) -0.0263(4) 0.9293(7)
H88 H 0.8107 -0.0586 0.9317
C75 C 0.7742(6) 0.0102(4) 0.8703(6)
H89 H 0.7973 0.0023 0.8308
C76 C 0.7345(5) 0.0579(4) 0.8671(5)
H90 H 0.7325 0.0829 0.8266
C77 C 0.6561(6) 0.1254(4) 0.9191(6)
H91 H 0.6958 0.1542 0.9255
H92 H 0.6336 0.1274 0.9621
H93 H 0.6127 0.1297 0.8683
C78 C 0.8842(5) 0.5728(3) 0.1199(4)
C79 C 0.8058(6) 0.5505(4) 0.0973(5)
H94 H 0.7639 0.5695 0.1080
C80 C 0.7912(8) 0.5037(5) 0.0614(6)
H95 H 0.7385 0.4891 0.0476
C81 C 0.8492(11) 0.4750(5) 0.0433(6)
H96 H 0.8343 0.4421 0.0155
C82 C 0.9325(10) 0.4928(5) 0.0647(8)
H97 H 0.9735 0.4731 0.0534
C83 C 0.9459(6) 0.5460(4) 0.1067(6)
H98 H 0.9983 0.5612 0.1245
C84 C 0.8936(6) 0.6282(4) 0.1573(5)
H99 H 0.9467 0.6428 0.1620
H100 H 0.8888 0.6255 0.2100
H101 H 0.8515 0.6521 0.1242
C31? C 0.979(3) -0.013(2) 0.225(3)
H35? H 1.0160 -0.0436 0.2277
H36? H 0.9892 0.0150 0.1918
H37? H 0.9235 -0.0259 0.2024
C32? C 0.999(7) -0.038(3) 0.364(6)
H38? H 1.0064 -0.0229 0.4168
H39? H 1.0447 -0.0610 0.3668
H40? H 0.9491 -0.0589 0.3463
C33? C 1.088(3) 0.036(3) 0.325(6)
H41? H 1.1081 0.0499 0.3795
H42? H 1.0846 0.0659 0.2882
H43? H 1.1255 0.0089 0.3185
loop_
_geom_bond_atom_site_label_1
_geom_bond_atom_site_label_2
_geom_bond_site_symmetry_1
_geom_bond_site_symmetry_2
P1 O2 1_555 1_555
P2 O4 1_555 1_555
O1 H1 1_555 1_555
O2 C11 1_555 1_555
O3 P1 1_555 1_555
O4 C34 1_555 1_555
O5 P2 1_555 1_555
C1 O1 1_555 1_555
C2 C1 1_555 1_555
C3 C2 1_555 1_555
H2 C3 1_555 1_555
C4 C3 1_555 1_555
C5 C4 1_555 1_555
H3 C5 1_555 1_555
C6 C1 1_555 1_555
C7 C4 1_555 1_555
C8 C7 1_555 1_555
H4 C8 1_555 1_555
H5 C8 1_555 1_555
H6 C8 1_555 1_555
C9 C7 1_555 1_555
H7 C9 1_555 1_555
H8 C9 1_555 1_555
H9 C9 1_555 1_555
C10 C7 1_555 1_555
H10 C10 1_555 1_555
H11 C10 1_555 1_555
H12 C10 1_555 1_555
C11 C12 1_555 1_555
C12 C13 1_555 1_555
C13 H13 1_555 1_555
C14 C13 1_555 1_555
C15 C14 1_555 1_555
H14 C15 1_555 1_555
C16 C11 1_555 1_555
C17 C14 1_555 1_555
C18 C17 1_555 1_555
H15 C18 1_555 1_555
H16 C18 1_555 1_555
H17 C18 1_555 1_555
C19 C17 1_555 1_555
H18 C19 1_555 1_555
H19 C19 1_555 1_555
H20 C19 1_555 1_555
C20 C17 1_555 1_555
H21 C20 1_555 1_555
H22 C20 1_555 1_555
H23 C20 1_555 1_555
C21 O3 1_555 1_555
C22 C21 1_555 1_555
C23 C22 1_555 1_555
H24 C23 1_555 1_555
C24 C23 1_555 1_555
C25 C24 1_555 1_555
H25 C25 1_555 1_555
C26 C21 1_555 1_555
C27 C24 1_555 1_555
C28 C27 1_555 1_555
H26 C28 1_555 1_555
H27 C28 1_555 1_555
H28 C28 1_555 1_555
C29 C27 1_555 1_555
H29 C29 1_555 1_555
H30 C29 1_555 1_555
H31 C29 1_555 1_555
C30 C27 1_555 1_555
H32 C30 1_555 1_555
H33 C30 1_555 1_555
H34 C30 1_555 1_555
C34 C35 1_555 1_555
C35 C36 1_555 1_555
C36 H44 1_555 1_555
C37 C36 1_555 1_555
C38 C37 1_555 1_555
H45 C38 1_555 1_555
C39 C34 1_555 1_555
C40 C37 1_555 1_555
C41 C40 1_555 1_555
H46 C41 1_555 1_555
H47 C41 1_555 1_555
H48 C41 1_555 1_555
C42 C40 1_555 1_555
H49 C42 1_555 1_555
H50 C42 1_555 1_555
H51 C42 1_555 1_555
C43 C40 1_555 1_555
H52 C43 1_555 1_555
H53 C43 1_555 1_555
H54 C43 1_555 1_555
C44 O5 1_555 1_555
C45 C44 1_555 1_555
C46 C45 1_555 1_555
H55 C46 1_555 1_555
C47 C46 1_555 1_555
C48 C47 1_555 1_555
H56 C48 1_555 1_555
C49 C44 1_555 1_555
C50 C47 1_555 1_555
C51 C50 1_555 1_555
H57 C51 1_555 1_555
H58 C51 1_555 1_555
H59 C51 1_555 1_555
C52 C50 1_555 1_555
H60 C52 1_555 1_555
H61 C52 1_555 1_555
H62 C52 1_555 1_555
C53 C50 1_555 1_555
H63 C53 1_555 1_555
H64 C53 1_555 1_555
H65 C53 1_555 1_555
C54 C6 1_555 1_555
H66 C54 1_555 1_555
H67 C54 1_555 1_555
C55 C16 1_555 1_555
H68 C55 1_555 1_555
H69 C55 1_555 1_555
C56 C26 1_555 1_555
H70 C56 1_555 1_555
H71 C56 1_555 1_555
C57 C39 1_555 1_555
H72 C57 1_555 1_555
H73 C57 1_555 1_555
C58 C2 1_555 1_555
H74 C58 1_555 1_555
H75 C58 1_555 1_555
C59 P1 1_555 1_555
C60 C59 1_555 1_555
H76 C60 1_555 1_555
C61 C60 1_555 1_555
H77 C61 1_555 1_555
C62 C61 1_555 1_555
H78 C62 1_555 1_555
C63 C62 1_555 1_555
H79 C63 1_555 1_555
C64 C59 1_555 1_555
H80 C64 1_555 1_555
C65 P2 1_555 1_555
C66 C65 1_555 1_555
H81 C66 1_555 1_555
C67 C66 1_555 1_555
H82 C67 1_555 1_555
C68 C67 1_555 1_555
H83 C68 1_555 1_555
C69 C68 1_555 1_555
H84 C69 1_555 1_555
C70 C65 1_555 1_555
H85 C70 1_555 1_555
C71 C72 1_555 1_555
C72 H86 1_555 1_555
C73 C72 1_555 1_555
H87 C73 1_555 1_555
C74 C73 1_555 1_555
H88 C74 1_555 1_555
C75 C74 1_555 1_555
H89 C75 1_555 1_555
C76 C71 1_555 1_555
H90 C76 1_555 1_555
C77 C71 1_555 1_555
H91 C77 1_555 1_555
H92 C77 1_555 1_555
H93 C77 1_555 1_555
C78 C79 1_555 1_555
C79 H94 1_555 1_555
C80 C79 1_555 1_555
H95 C80 1_555 1_555
C81 C80 1_555 1_555
H96 C81 1_555 1_555
C82 C81 1_555 1_555
H97 C82 1_555 1_555
C83 C78 1_555 1_555
H98 C83 1_555 1_555
C84 C78 1_555 1_555
H99 C84 1_555 1_555
H100 C84 1_555 1_555
H101 C84 1_555 1_555
C5 C6 1_555 1_555
C12 C54 1_555 1_555
C15 C16 1_555 1_555
C22 C55 1_555 1_555
C25 C26 1_555 1_555
C35 C56 1_555 1_555
C38 C39 1_555 1_555
C45 C57 1_555 1_555
C48 C49 1_555 1_555
C49 C58 1_555 1_555
C63 C64 1_555 1_555
C69 C70 1_555 1_555
C75 C76 1_555 1_555
C82 C83 1_555 1_555

#END
