
#######################################################################
#
#                 Cambridge Crystallographic Data Centre
#                                CCDC 
#
#######################################################################
#
# If this CIF has been generated from an entry in the Cambridge 
# Structural Database, then it will include bibliographic, chemical, 
# crystal, experimental, refinement or atomic coordinate data resulting 
# from the CCDC's data processing and validation procedures.
#
#######################################################################

data_AYORUB
_chemical_formula_moiety         'C55 H67 O5 P1,0.5(C7 H8),0.25(C6 H6)'
_chemical_name_systematic        
'5,11,17,23,29-Penta-t-butyl-34,35-dihydroxycalix(5)arene-31,32,33-triyl phosphite benzene toluene solvate'
_symmetry_cell_setting           triclinic
_symmetry_space_group_name_H-M   'P -1'
_symmetry_Int_Tables_number      2
_space_group_name_Hall           '-P 1'
loop_
_symmetry_equiv_pos_site_id
_symmetry_equiv_pos_as_xyz
1 x,y,z
2 -x,-y,-z
_cell_length_a                   13.744(1)
_cell_length_b                   17.404(1)
_cell_length_c                   21.924(2)
_cell_angle_alpha                89.395(1)
_cell_angle_beta                 84.826(1)
_cell_angle_gamma                83.546(1)
_cell_volume                     5189.76
_exptl_crystal_colour            colorless
_exptl_crystal_description       plates
_chemical_melting_point          324-328deg.C
_cell_formula_units_Z            4
loop_
_atom_site_label
_atom_site_type_symbol
_atom_site_fract_x
_atom_site_fract_y
_atom_site_fract_z
P1 P 0.97020(5) 0.62146(4) 0.31127(3)
O1 O 0.97116(13) 0.57418(10) 0.37579(8)
O2 O 0.92379(13) 0.56194(10) 0.26812(8)
O3 O 0.86920(13) 0.67762(10) 0.33314(8)
O4 O 1.07015(15) 0.83628(13) 0.32606(10)
H1 H 1.1120 0.8267 0.3503
O5 O 0.97344(14) 0.76147(11) 0.49397(10)
H2 H 0.9442 0.7986 0.4775
C1 C 1.04905(18) 0.52095(14) 0.39297(12)
C2 C 1.08777(18) 0.53693(15) 0.44739(12)
C3 C 1.16017(19) 0.48283(15) 0.46852(12)
H5 H 1.1859 0.4927 0.5051
C4 C 1.19517(19) 0.41504(15) 0.43715(12)
C5 C 1.15251(19) 0.40139(15) 0.38391(13)
H6 H 1.1741 0.3558 0.3626
C6 C 1.07856(18) 0.45252(15) 0.36033(12)
C7 C 1.2771(2) 0.36037(17) 0.46248(14)
C8 C 1.3672(2) 0.4045(2) 0.4670(2)
H7 H 1.4208 0.3697 0.4798
H8 H 1.3511 0.4455 0.4964
H9 H 1.3860 0.4259 0.4278
C9 C 1.2428(3) 0.3324(2) 0.52614(16)
H10 H 1.1912 0.3001 0.5231
H11 H 1.2186 0.3761 0.5517
H12 H 1.2969 0.3033 0.5438
C10 C 1.3081(3) 0.2906(2) 0.42176(18)
H13 H 1.2531 0.2615 0.4193
H14 H 1.3606 0.2586 0.4386
H15 H 1.3301 0.3074 0.3815
C11 C 0.8718(2) 0.50276(15) 0.29419(12)
C12 C 0.9287(2) 0.43367(15) 0.30575(12)
C13 C 0.8802(2) 0.37041(15) 0.32500(12)
H16 H 0.9172 0.3237 0.3323
C14 C 0.7781(2) 0.37485(16) 0.33359(13)
C15 C 0.7262(2) 0.44740(16) 0.32592(13)
H17 H 0.6581 0.4524 0.3332
C16 C 0.7715(2) 0.51296(15) 0.30781(12)
C17 C 0.7271(2) 0.30272(17) 0.35004(14)
C18 C 0.7769(3) 0.2557(2) 0.3982(2)
H18 H 0.7388 0.2145 0.4112
H19 H 0.7825 0.2880 0.4326
H20 H 0.8412 0.2344 0.3818
C19 C 0.7305(6) 0.2541(3) 0.2935(2)
H21 H 0.7975 0.2426 0.2768
H22 H 0.6931 0.2818 0.2638
H23 H 0.7032 0.2067 0.3039
C20 C 0.6217(3) 0.3219(3) 0.3758(3)
H24 H 0.5940 0.2751 0.3873
H25 H 0.5846 0.3484 0.3453
H26 H 0.6193 0.3545 0.4111
C21 C 0.80719(19) 0.70347(15) 0.28750(12)
C22 C 0.73066(19) 0.66090(15) 0.27629(12)
C23 C 0.66730(19) 0.69022(15) 0.23388(12)
H27 H 0.6160 0.6623 0.2259
C24 C 0.67666(19) 0.75947(15) 0.20262(12)
C25 C 0.75530(19) 0.79856(15) 0.21460(12)
H28 H 0.7640 0.8446 0.1939
C26 C 0.82177(19) 0.77167(14) 0.25636(12)
C27 C 0.6004(2) 0.78989(16) 0.15881(12)
C28 C 0.5995(3) 0.7322(2) 0.10684(14)
H29 H 0.6615 0.7283 0.0825
H30 H 0.5478 0.7497 0.0816
H31 H 0.5886 0.6825 0.1237
C29 C 0.4989(2) 0.8015(2) 0.19471(15)
H32 H 0.4801 0.7522 0.2084
H33 H 0.4516 0.8255 0.1688
H34 H 0.5015 0.8339 0.2295
C30 C 0.6212(2) 0.86796(18) 0.13090(15)
H35 H 0.6216 0.9049 0.1630
H36 H 0.5710 0.8856 0.1047
H37 H 0.6840 0.8623 0.1075
C31 C 0.9827(2) 0.86380(15) 0.35729(13)
C32 C 0.8979(2) 0.85733(15) 0.32805(13)
C33 C 0.8083(2) 0.88840(16) 0.35625(14)
H38 H 0.7520 0.8853 0.3362
C34 C 0.7988(2) 0.92425(16) 0.41364(14)
C35 C 0.8845(2) 0.92677(15) 0.44219(14)
H39 H 0.8801 0.9492 0.4808
C36 C 0.9766(2) 0.89720(15) 0.41550(14)
C37 C 0.6991(2) 0.96004(19) 0.44288(16)
C38 C 0.6178(3) 0.9146(3) 0.4300(3)
H40 H 0.5559 0.9430 0.4438
H41 H 0.6248 0.8660 0.4511
H42 H 0.6202 0.9056 0.3867
C39 C 0.6778(4) 1.0394(3) 0.4156(4)
H43 H 0.6807 1.0354 0.3718
H44 H 0.7256 1.0718 0.4265
H45 H 0.6133 1.0617 0.4311
C40 C 0.6984(4) 0.9693(6) 0.5104(3)
H46 H 0.6334 0.9882 0.5272
H47 H 0.7433 1.0054 0.5190
H48 H 0.7182 0.9202 0.5285
C41 C 1.07019(19) 0.75182(15) 0.47009(13)
C42 C 1.1217(2) 0.81422(15) 0.45232(13)
C43 C 1.2204(2) 0.80007(16) 0.43282(13)
H49 H 1.2547 0.8418 0.4214
C44 C 1.2709(2) 0.72544(17) 0.42950(12)
C45 C 1.2152(2) 0.66516(16) 0.44458(12)
H50 H 1.2460 0.6148 0.4414
C46 C 1.1154(2) 0.67646(15) 0.46434(12)
C47 C 1.3803(2) 0.71414(18) 0.40908(14)
C48 C 1.4360(2) 0.7656(2) 0.44647(19)
H51 H 1.4132 0.8189 0.4396
H52 H 1.5051 0.7564 0.4340
H53 H 1.4246 0.7537 0.4892
C49 C 1.4253(2) 0.6302(2) 0.41743(16)
H54 H 1.4158 0.6160 0.4598
H55 H 1.4944 0.6258 0.4046
H56 H 1.3938 0.5966 0.3931
C50 C 1.3964(3) 0.7345(3) 0.34092(17)
H57 H 1.3599 0.7032 0.3176
H58 H 1.4650 0.7248 0.3275
H59 H 1.3742 0.7881 0.3350
C104 C 1.0388(2) 0.43036(16) 0.30128(13)
H124 H 1.0597 0.4649 0.2689
H125 H 1.0670 0.3783 0.2900
C105 C 0.7072(2) 0.59006(15) 0.31310(13)
H126 H 0.6420 0.5800 0.3042
H127 H 0.7022 0.6049 0.3559
C106 C 0.9069(2) 0.81628(15) 0.26670(13)
H128 H 0.9129 0.8544 0.2344
H129 H 0.9668 0.7808 0.2635
C107 C 1.0673(2) 0.89573(16) 0.45020(15)
H130 H 1.0482 0.9140 0.4916
H131 H 1.1111 0.9304 0.4305
C108 C 1.05528(19) 0.61006(15) 0.48269(12)
H132 H 1.0595 0.5995 0.5260
H133 H 0.9869 0.6261 0.4768
P2 P 0.12790(5) 0.27960(4) 0.04543(3)
O6 O 0.15743(12) 0.23243(10) -0.01995(8)
O7 O 0.05796(12) 0.35242(9) 0.02094(8)
O8 O 0.23248(13) 0.31554(10) 0.04538(8)
O9 O 0.40567(16) 0.13131(11) 0.01553(8)
H3 H 0.3753 0.1003 -0.0007
O10 O 0.18095(14) 0.06742(12) 0.09342(9)
H4 H 0.2283 0.0606 0.1138
C51 C 0.07435(17) 0.22502(14) -0.05200(12)
C52 C 0.01750(18) 0.16529(14) -0.03765(12)
C53 C -0.0660(2) 0.16158(15) -0.06810(13)
H60 H -0.1043 0.1215 -0.0587
C54 C -0.0950(2) 0.21532(15) -0.11217(13)
C55 C -0.0345(2) 0.27377(15) -0.12574(12)
H61 H -0.0514 0.3099 -0.1557
C56 C 0.05001(19) 0.28025(15) -0.09628(12)
C57 C -0.1910(2) 0.21072(17) -0.14153(14)
C58 C -0.1897(2) 0.13233(19) -0.17193(16)
H62 H -0.1380 0.1264 -0.2046
H63 H -0.2517 0.1290 -0.1882
H64 H -0.1786 0.0921 -0.1422
C59 C -0.2088(3) 0.2740(2) -0.18972(18)
H65 H -0.2125 0.3239 -0.1708
H66 H -0.2695 0.2689 -0.2070
H67 H -0.1557 0.2689 -0.2215
C60 C -0.2754(2) 0.2220(2) -0.09034(17)
H68 H -0.2647 0.1836 -0.0592
H69 H -0.3366 0.2168 -0.1070
H70 H -0.2777 0.2725 -0.0728
C61 C 0.09876(17) 0.41289(14) -0.01138(12)
C62 C 0.11831(18) 0.41122(14) -0.07454(12)
C63 C 0.15427(19) 0.47647(14) -0.10136(12)
H71 H 0.1669 0.4774 -0.1437
C64 C 0.1724(2) 0.54040(15) -0.06815(13)
C65 C 0.15552(19) 0.53639(15) -0.00490(13)
H72 H 0.1680 0.5778 0.0186
C66 C 0.12055(18) 0.47265(14) 0.02449(11)
C67 C 0.2118(2) 0.60976(16) -0.10173(14)
C68 C 0.1385(3) 0.64317(17) -0.14646(15)
H73 H 0.1295 0.6040 -0.1753
H74 H 0.1636 0.6862 -0.1680
H75 H 0.0767 0.6602 -0.1241
C69 C 0.3103(3) 0.5826(2) -0.13812(18)
H76 H 0.3562 0.5602 -0.1106
H77 H 0.3359 0.6259 -0.1588
H78 H 0.3004 0.5446 -0.1677
C70 C 0.2283(3) 0.67277(19) -0.05732(17)
H79 H 0.1672 0.6904 -0.0343
H80 H 0.2527 0.7153 -0.0799
H81 H 0.2753 0.6524 -0.0298
C71 C 0.25970(19) 0.35635(14) 0.09509(11)
C72 C 0.20576(19) 0.42492(15) 0.11769(12)
C73 C 0.2439(2) 0.46282(15) 0.16430(12)
H82 H 0.2078 0.5074 0.1807
C74 C 0.3324(2) 0.43800(16) 0.18770(13)
C75 C 0.3843(2) 0.37176(16) 0.16216(13)
H83 H 0.4448 0.3545 0.1762
C76 C 0.35048(19) 0.32969(15) 0.11654(12)
C77 C 0.3738(2) 0.48550(18) 0.23623(14)
C78 C 0.4413(4) 0.4350(3) 0.2747(2)
H84 H 0.4059 0.3960 0.2947
H85 H 0.4648 0.4661 0.3048
H86 H 0.4960 0.4108 0.2488
C79 C 0.2921(3) 0.5293(2) 0.27791(15)
H87 H 0.2526 0.5648 0.2540
H88 H 0.3203 0.5573 0.3081
H89 H 0.2517 0.4933 0.2980
C80 C 0.4327(3) 0.5465(2) 0.20298(19)
H90 H 0.4874 0.5209 0.1779
H91 H 0.4564 0.5782 0.2327
H92 H 0.3909 0.5782 0.1777
C81 C 0.39859(19) 0.11968(16) 0.07786(12)
C82 C 0.40167(19) 0.18280(15) 0.11536(12)
C83 C 0.3988(2) 0.17042(17) 0.17833(13)
H93 H 0.4013 0.2124 0.2038
C84 C 0.3925(2) 0.09788(17) 0.20481(13)
C85 C 0.3875(2) 0.03680(16) 0.16546(13)
H94 H 0.3828 -0.0122 0.1821
C86 C 0.3892(2) 0.04548(16) 0.10236(13)
C87 C 0.3937(3) 0.0834(2) 0.27386(14)
C88 C 0.3804(6) 0.1556(3) 0.3102(2)
H95 H 0.3726 0.1432 0.3530
H96 H 0.3229 0.1873 0.2992
H97 H 0.4369 0.1830 0.3019
C89 C 0.4874(5) 0.0328(5) 0.2852(3)
H98 H 0.4869 0.0203 0.3280
H99 H 0.5431 0.0599 0.2730
H100 H 0.4916 -0.0140 0.2618
C90 C 0.3046(4) 0.0353(4) 0.2959(2)
H101 H 0.3128 -0.0134 0.2749
H102 H 0.2438 0.0639 0.2869
H103 H 0.3038 0.0264 0.3392
C94 C 0.2066(2) 0.03686(15) 0.03588(12)
C95 C 0.2955(2) -0.00805(15) 0.01902(12)
C96 C 0.3082(2) -0.04215(15) -0.03886(12)
H113 H 0.3669 -0.0726 -0.0501
C97 C 0.2374(2) -0.03284(15) -0.08040(12)
C98 C 0.15329(19) 0.01807(14) -0.06317(12)
H114 H 0.1066 0.0287 -0.0912
C99 C 0.13661(19) 0.05327(14) -0.00629(12)
C100 C 0.2441(2) -0.07836(16) -0.14026(13)
C101 C 0.3408(2) -0.1302(2) -0.15065(15)
H115 H 0.3944 -0.0990 -0.1534
H116 H 0.3418 -0.1586 -0.1880
H117 H 0.3473 -0.1657 -0.1171
C102 C 0.2342(3) -0.02378(19) -0.19586(14)
H118 H 0.1744 0.0105 -0.1895
H119 H 0.2329 -0.0538 -0.2322
H120 H 0.2892 0.0060 -0.2004
C103 C 0.1591(2) -0.12867(18) -0.13698(15)
H121 H 0.1616 -0.1610 -0.1013
H122 H 0.1648 -0.1604 -0.1729
H123 H 0.0977 -0.0961 -0.1346
C109 C 0.1145(2) 0.34210(15) -0.11534(12)
H134 H 0.0952 0.3620 -0.1545
H135 H 0.1811 0.3170 -0.1227
C110 C 0.11251(19) 0.46401(15) 0.09318(11)
H136 H 0.0586 0.4340 0.1055
H137 H 0.0969 0.5148 0.1116
C111 C 0.4144(2) 0.26161(15) 0.08699(13)
H138 H 0.4826 0.2707 0.0881
H139 H 0.4016 0.2598 0.0443
C112 C 0.3767(2) -0.02218(16) 0.06184(13)
H140 H 0.3635 -0.0659 0.0879
H141 H 0.4383 -0.0365 0.0374
C113 C 0.04385(19) 0.10616(14) 0.01107(12)
H142 H 0.0516 0.1331 0.0485
H143 H -0.0102 0.0751 0.0194
C114 C 0.0801(3) 0.1763(3) 0.25957(18)
C115 C 0.0481(4) 0.1089(4) 0.2410(3)
H144 H 0.0529 0.0959 0.1997
C116 C 0.0102(5) 0.0631(5) 0.2829(5)
H145 H -0.0107 0.0176 0.2697
C117 C 0.0001(5) 0.0776(4) 0.3427(5)
H146 H -0.0301 0.0447 0.3702
C118 C 0.0359(4) 0.1433(3) 0.3628(2)
H147 H 0.0334 0.1539 0.4044
C119 C 0.0751(3) 0.1925(2) 0.32063(17)
H148 H 0.0985 0.2371 0.3337
C120 C 0.1217(5) 0.2285(4) 0.2132(3)
H149 H 0.0704 0.2660 0.2010
H150 H 0.1508 0.1989 0.1781
H151 H 0.1710 0.2545 0.2302
C121 C 0.4289(4) 0.4525(4) -0.0052(2)
H152 H 0.3789 0.4217 -0.0096
C122 C 0.4090(3) 0.5173(4) 0.0296(2)
H153 H 0.3473 0.5274 0.0509
C123 C 0.5217(4) 0.4308(4) -0.0345(2)
H154 H 0.5367 0.3847 -0.0561
C123A C 0.4783(4) 0.5692(4) 0.0345(2)
C121A C 0.5711(4) 0.5475(4) 0.0052(2)
H152A H 0.6211 0.5783 0.0096
C122A C 0.5910(3) 0.4827(4) -0.0296(2)
H153A H 0.6527 0.4726 -0.0509
H154A H 0.4633 0.6153 0.0561
C91? C 0.4808(15) 0.1368(13) 0.2988(7)
H104? H 0.4887 0.1253 0.3411
H105? H 0.4597 0.1909 0.2944
H106? H 0.5423 0.1239 0.2749
C92? C 0.425(3) 0.0064(14) 0.2945(10)
H107? H 0.4273 0.0066 0.3381
H108? H 0.4891 -0.0106 0.2751
H109? H 0.3792 -0.0281 0.2839
C93? C 0.3002(15) 0.1191(15) 0.3066(7)
H110? H 0.2457 0.0988 0.2905
H111? H 0.2946 0.1742 0.3009
H112? H 0.3000 0.1075 0.3495
loop_
_geom_bond_atom_site_label_1
_geom_bond_atom_site_label_2
_geom_bond_site_symmetry_1
_geom_bond_site_symmetry_2
P1 O1 1_555 1_555
P2 O6 1_555 1_555
O1 C1 1_555 1_555
O2 P1 1_555 1_555
O3 P1 1_555 1_555
O4 H1 1_555 1_555
O5 H2 1_555 1_555
O6 C51 1_555 1_555
O7 P2 1_555 1_555
O8 P2 1_555 1_555
O9 H3 1_555 1_555
O10 H4 1_555 1_555
C1 C2 1_555 1_555
C2 C3 1_555 1_555
C3 H5 1_555 1_555
C4 C3 1_555 1_555
C5 C4 1_555 1_555
H6 C5 1_555 1_555
C6 C1 1_555 1_555
C7 C4 1_555 1_555
C8 C7 1_555 1_555
H7 C8 1_555 1_555
H8 C8 1_555 1_555
H9 C8 1_555 1_555
C9 C7 1_555 1_555
H10 C9 1_555 1_555
H11 C9 1_555 1_555
H12 C9 1_555 1_555
C10 C7 1_555 1_555
H13 C10 1_555 1_555
H14 C10 1_555 1_555
H15 C10 1_555 1_555
C11 O2 1_555 1_555
C12 C11 1_555 1_555
C13 C12 1_555 1_555
H16 C13 1_555 1_555
C14 C13 1_555 1_555
C15 C14 1_555 1_555
H17 C15 1_555 1_555
C16 C11 1_555 1_555
C17 C14 1_555 1_555
C18 C17 1_555 1_555
H18 C18 1_555 1_555
H19 C18 1_555 1_555
H20 C18 1_555 1_555
C19 C17 1_555 1_555
H21 C19 1_555 1_555
H22 C19 1_555 1_555
H23 C19 1_555 1_555
C20 C17 1_555 1_555
H24 C20 1_555 1_555
H25 C20 1_555 1_555
H26 C20 1_555 1_555
C21 O3 1_555 1_555
C22 C21 1_555 1_555
C23 C22 1_555 1_555
H27 C23 1_555 1_555
C24 C23 1_555 1_555
C25 C24 1_555 1_555
H28 C25 1_555 1_555
C26 C21 1_555 1_555
C27 C24 1_555 1_555
C28 C27 1_555 1_555
H29 C28 1_555 1_555
H30 C28 1_555 1_555
H31 C28 1_555 1_555
C29 C27 1_555 1_555
H32 C29 1_555 1_555
H33 C29 1_555 1_555
H34 C29 1_555 1_555
C30 C27 1_555 1_555
H35 C30 1_555 1_555
H36 C30 1_555 1_555
H37 C30 1_555 1_555
C31 O4 1_555 1_555
C32 C31 1_555 1_555
C33 C32 1_555 1_555
H38 C33 1_555 1_555
C34 C33 1_555 1_555
C35 C34 1_555 1_555
H39 C35 1_555 1_555
C36 C31 1_555 1_555
C37 C34 1_555 1_555
C38 C37 1_555 1_555
H40 C38 1_555 1_555
H41 C38 1_555 1_555
H42 C38 1_555 1_555
C39 C37 1_555 1_555
H43 C39 1_555 1_555
H44 C39 1_555 1_555
H45 C39 1_555 1_555
C40 C37 1_555 1_555
H46 C40 1_555 1_555
H47 C40 1_555 1_555
H48 C40 1_555 1_555
C41 O5 1_555 1_555
C42 C41 1_555 1_555
C43 C42 1_555 1_555
H49 C43 1_555 1_555
C44 C43 1_555 1_555
C45 C44 1_555 1_555
H50 C45 1_555 1_555
C46 C41 1_555 1_555
C47 C44 1_555 1_555
C48 C47 1_555 1_555
H51 C48 1_555 1_555
H52 C48 1_555 1_555
H53 C48 1_555 1_555
C49 C47 1_555 1_555
H54 C49 1_555 1_555
H55 C49 1_555 1_555
H56 C49 1_555 1_555
C50 C47 1_555 1_555
H57 C50 1_555 1_555
H58 C50 1_555 1_555
H59 C50 1_555 1_555
C51 C52 1_555 1_555
C52 C53 1_555 1_555
C53 H60 1_555 1_555
C54 C53 1_555 1_555
C55 C54 1_555 1_555
H61 C55 1_555 1_555
C56 C51 1_555 1_555
C57 C54 1_555 1_555
C58 C57 1_555 1_555
H62 C58 1_555 1_555
H63 C58 1_555 1_555
H64 C58 1_555 1_555
C59 C57 1_555 1_555
H65 C59 1_555 1_555
H66 C59 1_555 1_555
H67 C59 1_555 1_555
C60 C57 1_555 1_555
H68 C60 1_555 1_555
H69 C60 1_555 1_555
H70 C60 1_555 1_555
C61 O7 1_555 1_555
C62 C61 1_555 1_555
C63 C62 1_555 1_555
H71 C63 1_555 1_555
C64 C63 1_555 1_555
C65 C64 1_555 1_555
H72 C65 1_555 1_555
C66 C61 1_555 1_555
C67 C64 1_555 1_555
C68 C67 1_555 1_555
H73 C68 1_555 1_555
H74 C68 1_555 1_555
H75 C68 1_555 1_555
C69 C67 1_555 1_555
H76 C69 1_555 1_555
H77 C69 1_555 1_555
H78 C69 1_555 1_555
C70 C67 1_555 1_555
H79 C70 1_555 1_555
H80 C70 1_555 1_555
H81 C70 1_555 1_555
C71 O8 1_555 1_555
C72 C71 1_555 1_555
C73 C72 1_555 1_555
H82 C73 1_555 1_555
C74 C73 1_555 1_555
C75 C74 1_555 1_555
H83 C75 1_555 1_555
C76 C71 1_555 1_555
C77 C74 1_555 1_555
C78 C77 1_555 1_555
H84 C78 1_555 1_555
H85 C78 1_555 1_555
H86 C78 1_555 1_555
C79 C77 1_555 1_555
H87 C79 1_555 1_555
H88 C79 1_555 1_555
H89 C79 1_555 1_555
C80 C77 1_555 1_555
H90 C80 1_555 1_555
H91 C80 1_555 1_555
H92 C80 1_555 1_555
C81 O9 1_555 1_555
C82 C81 1_555 1_555
C83 C82 1_555 1_555
H93 C83 1_555 1_555
C84 C83 1_555 1_555
C85 C84 1_555 1_555
H94 C85 1_555 1_555
C86 C81 1_555 1_555
C87 C84 1_555 1_555
C88 C87 1_555 1_555
H95 C88 1_555 1_555
H96 C88 1_555 1_555
H97 C88 1_555 1_555
C89 C87 1_555 1_555
H98 C89 1_555 1_555
H99 C89 1_555 1_555
H100 C89 1_555 1_555
C90 C87 1_555 1_555
H101 C90 1_555 1_555
H102 C90 1_555 1_555
H103 C90 1_555 1_555
C94 O10 1_555 1_555
C95 C94 1_555 1_555
C96 C95 1_555 1_555
H113 C96 1_555 1_555
C97 C96 1_555 1_555
C98 C97 1_555 1_555
H114 C98 1_555 1_555
C99 C94 1_555 1_555
C100 C97 1_555 1_555
C101 C100 1_555 1_555
H115 C101 1_555 1_555
H116 C101 1_555 1_555
H117 C101 1_555 1_555
C102 C100 1_555 1_555
H118 C102 1_555 1_555
H119 C102 1_555 1_555
H120 C102 1_555 1_555
C103 C100 1_555 1_555
H121 C103 1_555 1_555
H122 C103 1_555 1_555
H123 C103 1_555 1_555
C104 C6 1_555 1_555
H124 C104 1_555 1_555
H125 C104 1_555 1_555
C105 C16 1_555 1_555
H126 C105 1_555 1_555
H127 C105 1_555 1_555
C106 C26 1_555 1_555
H128 C106 1_555 1_555
H129 C106 1_555 1_555
C107 C36 1_555 1_555
H130 C107 1_555 1_555
H131 C107 1_555 1_555
C108 C2 1_555 1_555
H132 C108 1_555 1_555
H133 C108 1_555 1_555
C109 C56 1_555 1_555
H134 C109 1_555 1_555
H135 C109 1_555 1_555
C110 C66 1_555 1_555
H136 C110 1_555 1_555
H137 C110 1_555 1_555
C111 C76 1_555 1_555
H138 C111 1_555 1_555
H139 C111 1_555 1_555
C112 C86 1_555 1_555
H140 C112 1_555 1_555
H141 C112 1_555 1_555
C113 C52 1_555 1_555
H142 C113 1_555 1_555
H143 C113 1_555 1_555
C114 C115 1_555 1_555
C115 H144 1_555 1_555
C116 C115 1_555 1_555
H145 C116 1_555 1_555
C117 C116 1_555 1_555
H146 C117 1_555 1_555
C118 C117 1_555 1_555
H147 C118 1_555 1_555
C119 C114 1_555 1_555
H148 C119 1_555 1_555
C120 C114 1_555 1_555
H149 C120 1_555 1_555
H150 C120 1_555 1_555
H151 C120 1_555 1_555
C121 H152 1_555 1_555
C122 C121 1_555 1_555
H153 C122 1_555 1_555
C123 C121 1_555 1_555
H154 C123 1_555 1_555
C123A C122 1_555 1_555
C121A C123A 1_555 1_555
H152A C121A 1_555 1_555
C122A C123 1_555 1_555
H153A C122A 1_555 1_555
H154A C123A 1_555 1_555
C5 C6 1_555 1_555
C12 C104 1_555 1_555
C15 C16 1_555 1_555
C22 C105 1_555 1_555
C25 C26 1_555 1_555
C32 C106 1_555 1_555
C35 C36 1_555 1_555
C42 C107 1_555 1_555
C45 C46 1_555 1_555
C46 C108 1_555 1_555
C55 C56 1_555 1_555
C62 C109 1_555 1_555
C65 C66 1_555 1_555
C72 C110 1_555 1_555
C75 C76 1_555 1_555
C82 C111 1_555 1_555
C85 C86 1_555 1_555
C95 C112 1_555 1_555
C98 C99 1_555 1_555
C99 C113 1_555 1_555
C118 C119 1_555 1_555
C121A C122A 1_555 1_555

#END
