
#######################################################################
#
#                 Cambridge Crystallographic Data Centre
#                                CCDC 
#
#######################################################################
#
# If this CIF has been generated from an entry in the Cambridge 
# Structural Database, then it will include bibliographic, chemical, 
# crystal, experimental, refinement or atomic coordinate data resulting 
# from the CCDC's data processing and validation procedures.
#
#######################################################################

data_AYOROV
_chemical_formula_moiety         'C55 H66 Cl2 O5 P2,C7 H8'
_chemical_name_systematic        
'5,11,17,23,29-Penta-t-butyl-35-hydroxy-calix(5)arene-31,32;33,34-tetrayl bis(chlorophosphite) toluene solvate'
_symmetry_cell_setting           triclinic
_symmetry_space_group_name_H-M   'P -1'
_symmetry_Int_Tables_number      2
_space_group_name_Hall           '-P 1'
loop_
_symmetry_equiv_pos_site_id
_symmetry_equiv_pos_as_xyz
1 x,y,z
2 -x,-y,-z
_cell_length_a                   14.353(1)
_cell_length_b                   14.612(1)
_cell_length_c                   14.916(1)
_cell_angle_alpha                102.288(7)
_cell_angle_beta                 102.074(8)
_cell_angle_gamma                96.007(8)
_cell_volume                     2952.34
_exptl_crystal_colour            colorless
_exptl_crystal_description       plates
_chemical_melting_point          269-272deg.C
_cell_formula_units_Z            2
_exptl_crystal_recrystallization_method hexane/toluene
loop_
_atom_site_label
_atom_site_type_symbol
_atom_site_fract_x
_atom_site_fract_y
_atom_site_fract_z
P1 P 0.25005(9) 0.45320(9) 0.53854(9)
P2 P 0.29400(11) 0.23936(11) 0.64669(11)
Cl1 Cl 0.26732(10) 0.59837(9) 0.56828(11)
Cl2 Cl 0.33034(15) 0.11974(13) 0.56873(13)
O1 O 0.0596(3) 0.2388(2) 0.6444(2)
H1 H 0.0517 0.2313 0.5871
O2 O 0.1456(2) 0.4366(2) 0.4616(2)
O3 O 0.3263(2) 0.4450(2) 0.4709(2)
O4 O 0.3957(2) 0.3073(2) 0.6842(2)
O5 O 0.2838(2) 0.1948(2) 0.7368(2)
C1 C 0.0849(3) 0.3340(3) 0.6879(3)
C2 C 0.1333(3) 0.3587(3) 0.7831(3)
C3 C 0.1549(4) 0.4531(4) 0.8288(4)
H2 H 0.1879 0.4693 0.8920
C4 C 0.1306(4) 0.5254(4) 0.7862(4)
C5 C 0.0814(4) 0.4974(4) 0.6909(4)
H3 H 0.0644 0.5442 0.6598
C6 C 0.0569(3) 0.4039(3) 0.6409(3)
C7 C 0.1495(5) 0.6295(4) 0.8418(4)
C8 C 0.0535(9) 0.6562(9) 0.8595(14)
H4 H 0.0639 0.7200 0.8973
H5 H 0.0271 0.6137 0.8922
H6 H 0.0092 0.6516 0.8002
C9 C 0.1889(17) 0.6941(7) 0.7858(8)
H7 H 0.1405 0.6925 0.7301
H8 H 0.2449 0.6727 0.7681
H9 H 0.2061 0.7579 0.8242
C10 C 0.2227(11) 0.6466(6) 0.9350(9)
H10 H 0.2820 0.6271 0.9240
H11 H 0.1985 0.6106 0.9744
H12 H 0.2341 0.7128 0.9659
C14 C 0.0981(3) 0.3421(3) 0.4272(3)
C15 C 0.0229(3) 0.3128(3) 0.4651(3)
C16 C -0.0260(4) 0.2204(3) 0.4266(3)
H22 H -0.0776 0.1999 0.4498
C17 C -0.0002(4) 0.1575(4) 0.3544(4)
C18 C 0.0734(4) 0.1910(4) 0.3178(3)
H23 H 0.0905 0.1507 0.2687
C19 C 0.1230(3) 0.2834(3) 0.3519(3)
C20 C -0.0527(5) 0.0546(4) 0.3158(4)
C21 C -0.1129(12) 0.0236(8) 0.3769(9)
H24 H -0.1350 -0.0435 0.3550
H25 H -0.1675 0.0566 0.3744
H26 H -0.0753 0.0375 0.4408
C22 C 0.0346(10) -0.0098(7) 0.3331(11)
H27 H 0.0644 0.0035 0.3993
H28 H 0.0819 0.0056 0.2995
H29 H 0.0081 -0.0759 0.3104
C23 C -0.0950(11) 0.0326(8) 0.2187(8)
H30 H -0.1314 -0.0301 0.1997
H31 H -0.0455 0.0356 0.1845
H32 H -0.1371 0.0774 0.2052
C27 C 0.3543(3) 0.3556(3) 0.4395(3)
C28 C 0.3008(3) 0.2952(3) 0.3577(3)
C29 C 0.3345(4) 0.2123(4) 0.3217(3)
H42 H 0.2988 0.1712 0.2656
C30 C 0.4206(4) 0.1899(4) 0.3683(4)
C31 C 0.4714(4) 0.2526(3) 0.4521(3)
H43 H 0.5288 0.2382 0.4843
C32 C 0.4398(3) 0.3365(3) 0.4903(3)
C33 C 0.4577(5) 0.0975(4) 0.3302(4)
C34 C 0.5461(15) 0.0835(12) 0.3958(12)
H44 H 0.5354 0.0910 0.4581
H45 H 0.5994 0.1296 0.3970
H46 H 0.5603 0.0210 0.3743
C35 C 0.4716(18) 0.0895(15) 0.2339(13)
H47 H 0.5131 0.1448 0.2324
H48 H 0.4103 0.0842 0.1907
H49 H 0.5003 0.0341 0.2157
C36 C 0.3765(17) 0.0109(10) 0.3246(15)
H50 H 0.4004 -0.0479 0.3084
H51 H 0.3199 0.0114 0.2773
H52 H 0.3605 0.0173 0.3848
C40 C 0.4936(3) 0.2992(3) 0.6989(3)
C41 C 0.5463(3) 0.3486(3) 0.6506(3)
C42 C 0.6442(3) 0.3445(4) 0.6645(4)
H62 H 0.6800 0.3763 0.6322
C43 C 0.6906(4) 0.2942(4) 0.7253(4)
C44 C 0.6357(4) 0.2489(4) 0.7733(4)
H63 H 0.6662 0.2165 0.8154
C45 C 0.5366(4) 0.2491(3) 0.7619(3)
C46 C 0.7990(4) 0.2889(5) 0.7336(5)
C47 C 0.8555(5) 0.3864(6) 0.7565(6)
H64 H 0.8406 0.4249 0.8108
H65 H 0.8390 0.4142 0.7036
H66 H 0.9232 0.3826 0.7697
C48 C 0.8087(5) 0.2311(5) 0.6366(5)
H67 H 0.8734 0.2175 0.6420
H68 H 0.7944 0.2673 0.5901
H69 H 0.7643 0.1727 0.6177
C49 C 0.8380(5) 0.2352(7) 0.8062(6)
H70 H 0.9034 0.2276 0.8048
H71 H 0.7991 0.1740 0.7918
H72 H 0.8363 0.2700 0.8680
C50 C 0.3235(3) 0.2468(3) 0.8304(3)
C51 C 0.4197(3) 0.2489(3) 0.8711(3)
C52 C 0.4557(4) 0.2977(3) 0.9638(3)
H73 H 0.5207 0.3000 0.9913
C53 C 0.3981(4) 0.3440(3) 1.0186(4)
C54 C 0.3023(4) 0.3379(3) 0.9745(3)
H74 H 0.2623 0.3676 1.0091
C55 C 0.2624(3) 0.2901(3) 0.8815(3)
C56 C 0.4418(4) 0.3940(4) 1.1220(4)
C57 C 0.4872(7) 0.3220(6) 1.1753(5)
H75 H 0.5383 0.2998 1.1483
H76 H 0.4386 0.2692 1.1694
H77 H 0.5127 0.3528 1.2409
C58 C 0.5189(6) 0.4756(5) 1.1308(5)
H78 H 0.4908 0.5222 1.1020
H79 H 0.5672 0.4531 1.0996
H80 H 0.5480 0.5036 1.1964
C59 C 0.3654(6) 0.4295(7) 1.1730(5)
H81 H 0.3939 0.4517 1.2395
H82 H 0.3134 0.3786 1.1626
H83 H 0.3412 0.4805 1.1489
C60 C -0.0085(3) 0.3778(3) 0.5423(3)
H84 H -0.0709 0.3484 0.5462
H85 H -0.0178 0.4361 0.5230
C61 C 0.2039(4) 0.3163(4) 0.3090(3)
H86 H 0.2080 0.3840 0.3143
H87 H 0.1891 0.2848 0.2424
C62 C 0.4982(3) 0.4015(3) 0.5831(3)
H88 H 0.5470 0.4448 0.5703
H89 H 0.4559 0.4391 0.6125
C63 C 0.4827(4) 0.1941(4) 0.8158(4)
H90 H 0.5294 0.1714 0.8595
H91 H 0.4422 0.1390 0.7712
C64 C 0.1558(3) 0.2829(4) 0.8358(4)
H92 H 0.1338 0.2212 0.7922
H93 H 0.1199 0.2871 0.8845
C65 C 0.2783(7) 0.0052(7) -0.0027(6)
C66 C 0.2638(8) 0.0958(6) 0.0020(6)
H94 H 0.3050 0.1370 -0.0172
C67 C 0.1871(9) 0.1263(7) 0.0357(6)
H95 H 0.1773 0.1886 0.0387
C68 C 0.1273(8) 0.0701(9) 0.0636(6)
H96 H 0.0757 0.0919 0.0857
C69 C 0.1438(10) -0.0236(9) 0.0591(7)
H97 H 0.1023 -0.0640 0.0790
C70 C 0.2188(9) -0.0576(7) 0.0264(7)
H98 H 0.2293 -0.1198 0.0238
C71 C 0.3596(8) -0.0314(10) -0.0409(9)
H99 H 0.3404 -0.0495 -0.1087
H100 H 0.3753 -0.0854 -0.0173
H101 H 0.4150 0.0174 -0.0212
C11? C 0.075(4) 0.639(4) 0.908(4)
H13? H 0.0642 0.7041 0.9227
H14? H 0.1008 0.6212 0.9648
H15? H 0.0150 0.5992 0.8750
C12? C 0.133(5) 0.694(5) 0.787(5)
H16? H 0.1494 0.7569 0.8267
H17? H 0.0662 0.6825 0.7546
H18? H 0.1722 0.6864 0.7419
C13? C 0.254(4) 0.653(4) 0.894(5)
H19? H 0.2932 0.6644 0.8513
H20? H 0.2729 0.6017 0.9203
H21? H 0.2632 0.7095 0.9441
C24? C -0.043(2) 0.0073(17) 0.3860(17)
H33? H -0.0739 -0.0574 0.3605
H34? H -0.0732 0.0371 0.4341
H35? H 0.0240 0.0089 0.4130
C25? C -0.036(2) 0.0017(18) 0.2236(18)
H36? H 0.0318 0.0059 0.2277
H37? H -0.0654 0.0292 0.1737
H38? H -0.0645 -0.0636 0.2105
C26? C -0.1776(16) 0.0632(16) 0.2855(16)
H39? H -0.2146 0.0007 0.2631
H40? H -0.1895 0.0971 0.2368
H41? H -0.1962 0.0963 0.3402
C37? C 0.4549(19) 0.0341(13) 0.3927(14)
H53? H 0.4756 -0.0240 0.3665
H54? H 0.3902 0.0207 0.3996
H55? H 0.4970 0.0636 0.4535
C38? C 0.5669(14) 0.1285(14) 0.3217(17)
H56? H 0.6062 0.1608 0.3829
H57? H 0.5661 0.1700 0.2796
H58? H 0.5928 0.0730 0.2974
C39? C 0.4024(18) 0.0500(15) 0.2291(14)
H59? H 0.4372 0.0032 0.2015
H60? H 0.3957 0.0968 0.1927
H61? H 0.3397 0.0200 0.2293
loop_
_geom_bond_atom_site_label_1
_geom_bond_atom_site_label_2
_geom_bond_site_symmetry_1
_geom_bond_site_symmetry_2
P1 Cl1 1_555 1_555
P2 Cl2 1_555 1_555
O1 H1 1_555 1_555
O2 P1 1_555 1_555
O3 P1 1_555 1_555
O4 P2 1_555 1_555
O5 P2 1_555 1_555
C1 O1 1_555 1_555
C2 C1 1_555 1_555
C3 C2 1_555 1_555
H2 C3 1_555 1_555
C4 C3 1_555 1_555
C5 C4 1_555 1_555
H3 C5 1_555 1_555
C6 C1 1_555 1_555
C7 C4 1_555 1_555
C8 C7 1_555 1_555
H4 C8 1_555 1_555
H5 C8 1_555 1_555
H6 C8 1_555 1_555
C9 C7 1_555 1_555
H7 C9 1_555 1_555
H8 C9 1_555 1_555
H9 C9 1_555 1_555
C10 C7 1_555 1_555
H10 C10 1_555 1_555
H11 C10 1_555 1_555
H12 C10 1_555 1_555
C14 O2 1_555 1_555
C15 C14 1_555 1_555
C16 C15 1_555 1_555
H22 C16 1_555 1_555
C17 C16 1_555 1_555
C18 C17 1_555 1_555
H23 C18 1_555 1_555
C19 C14 1_555 1_555
C20 C17 1_555 1_555
C21 C20 1_555 1_555
H24 C21 1_555 1_555
H25 C21 1_555 1_555
H26 C21 1_555 1_555
C22 C20 1_555 1_555
H27 C22 1_555 1_555
H28 C22 1_555 1_555
H29 C22 1_555 1_555
C23 C20 1_555 1_555
H30 C23 1_555 1_555
H31 C23 1_555 1_555
H32 C23 1_555 1_555
C27 O3 1_555 1_555
C28 C27 1_555 1_555
C29 C28 1_555 1_555
H42 C29 1_555 1_555
C30 C29 1_555 1_555
C31 C30 1_555 1_555
H43 C31 1_555 1_555
C32 C27 1_555 1_555
C33 C30 1_555 1_555
C34 C33 1_555 1_555
H44 C34 1_555 1_555
H45 C34 1_555 1_555
H46 C34 1_555 1_555
C35 C33 1_555 1_555
H47 C35 1_555 1_555
H48 C35 1_555 1_555
H49 C35 1_555 1_555
C36 C33 1_555 1_555
H50 C36 1_555 1_555
H51 C36 1_555 1_555
H52 C36 1_555 1_555
C40 O4 1_555 1_555
C41 C40 1_555 1_555
C42 C41 1_555 1_555
H62 C42 1_555 1_555
C43 C42 1_555 1_555
C44 C43 1_555 1_555
H63 C44 1_555 1_555
C45 C40 1_555 1_555
C46 C43 1_555 1_555
C47 C46 1_555 1_555
H64 C47 1_555 1_555
H65 C47 1_555 1_555
H66 C47 1_555 1_555
C48 C46 1_555 1_555
H67 C48 1_555 1_555
H68 C48 1_555 1_555
H69 C48 1_555 1_555
C49 C46 1_555 1_555
H70 C49 1_555 1_555
H71 C49 1_555 1_555
H72 C49 1_555 1_555
C50 O5 1_555 1_555
C51 C50 1_555 1_555
C52 C51 1_555 1_555
H73 C52 1_555 1_555
C53 C52 1_555 1_555
C54 C53 1_555 1_555
H74 C54 1_555 1_555
C55 C50 1_555 1_555
C56 C53 1_555 1_555
C57 C56 1_555 1_555
H75 C57 1_555 1_555
H76 C57 1_555 1_555
H77 C57 1_555 1_555
C58 C56 1_555 1_555
H78 C58 1_555 1_555
H79 C58 1_555 1_555
H80 C58 1_555 1_555
C59 C56 1_555 1_555
H81 C59 1_555 1_555
H82 C59 1_555 1_555
H83 C59 1_555 1_555
C60 C6 1_555 1_555
H84 C60 1_555 1_555
H85 C60 1_555 1_555
C61 C19 1_555 1_555
H86 C61 1_555 1_555
H87 C61 1_555 1_555
C62 C32 1_555 1_555
H88 C62 1_555 1_555
H89 C62 1_555 1_555
C63 C45 1_555 1_555
H90 C63 1_555 1_555
H91 C63 1_555 1_555
C64 C2 1_555 1_555
H92 C64 1_555 1_555
H93 C64 1_555 1_555
C65 C66 1_555 1_555
C66 H94 1_555 1_555
C67 C66 1_555 1_555
H95 C67 1_555 1_555
C68 C67 1_555 1_555
H96 C68 1_555 1_555
C69 C68 1_555 1_555
H97 C69 1_555 1_555
C70 C65 1_555 1_555
H98 C70 1_555 1_555
C71 C65 1_555 1_555
H99 C71 1_555 1_555
H100 C71 1_555 1_555
H101 C71 1_555 1_555
C5 C6 1_555 1_555
C15 C60 1_555 1_555
C18 C19 1_555 1_555
C28 C61 1_555 1_555
C31 C32 1_555 1_555
C41 C62 1_555 1_555
C44 C45 1_555 1_555
C51 C63 1_555 1_555
C54 C55 1_555 1_555
C55 C64 1_555 1_555
C69 C70 1_555 1_555

#END
