
#######################################################################
#
#                 Cambridge Crystallographic Data Centre
#                                CCDC 
#
#######################################################################
#
# If this CIF has been generated from an entry in the Cambridge 
# Structural Database, then it will include bibliographic, chemical, 
# crystal, experimental, refinement or atomic coordinate data resulting 
# from the CCDC's data processing and validation procedures.
#
#######################################################################

data_AYORIQ
_chemical_formula_moiety         'C10 H9 N1 O3 S1'
_chemical_name_systematic        
'Ethyl 3-oxo-1,2-benzothiazole-2(3H)-carboxylate'
_symmetry_cell_setting           monoclinic
_symmetry_space_group_name_H-M   'P 21/c'
_symmetry_Int_Tables_number      14
_space_group_name_Hall           '-P 2ybc'
loop_
_symmetry_equiv_pos_site_id
_symmetry_equiv_pos_as_xyz
1 x,y,z
2 -x,1/2+y,1/2-z
3 -x,-y,-z
4 x,1/2-y,1/2+z
_cell_length_a                   16.904(5)
_cell_length_b                   4.8912(13)
_cell_length_c                   12.676(4)
_cell_angle_alpha                90
_cell_angle_beta                 110.929(4)
_cell_angle_gamma                90
_cell_volume                     978.915
_exptl_crystal_colour            colorless
_exptl_crystal_description       block
_cell_formula_units_Z            4
loop_
_atom_site_label
_atom_site_type_symbol
_atom_site_fract_x
_atom_site_fract_y
_atom_site_fract_z
S1 S 0.27279(2) 0.29920(8) 0.34210(3)
O1 O 0.18146(7) 0.2458(2) 0.01861(9)
O2 O 0.31201(7) -0.1043(2) 0.10660(10)
O3 O 0.37405(7) -0.0967(2) 0.29680(10)
N1 N 0.26376(8) 0.1848(2) 0.20927(10)
C1 C 0.18919(9) 0.5239(3) 0.28158(11)
C2 C 0.15658(10) 0.7092(3) 0.33898(12)
H1 H 0.1792 0.7220 0.4190
C3 C 0.09010(10) 0.8740(3) 0.27524(13)
H2 H 0.0672 1.0030 0.3125
C4 C 0.05574(10) 0.8556(3) 0.15727(13)
H3 H 0.0095 0.9691 0.1158
C5 C 0.08898(9) 0.6725(3) 0.10098(12)
H4 H 0.0666 0.6606 0.0209
C6 C 0.15598(9) 0.5061(3) 0.16423(11)
C7 C 0.19790(9) 0.3036(3) 0.11718(12)
C8 C 0.32227(9) -0.0189(3) 0.20969(13)
C9 C 0.37419(11) -0.3059(4) 0.10007(17)
H5 H 0.3489 -0.4204 0.0319
H6 H 0.3901 -0.4269 0.1670
C10 C 0.45105(12) -0.1664(5) 0.0952(2)
H7 H 0.4349 -0.0427 0.0301
H8 H 0.4910 -0.3033 0.0876
H9 H 0.4778 -0.0613 0.1647
loop_
_geom_bond_atom_site_label_1
_geom_bond_atom_site_label_2
_geom_bond_site_symmetry_1
_geom_bond_site_symmetry_2
S1 N1 1_555 1_555
O1 C7 1_555 1_555
O2 C8 1_555 1_555
O3 C8 1_555 1_555
N1 C7 1_555 1_555
C1 S1 1_555 1_555
C2 C1 1_555 1_555
H1 C2 1_555 1_555
C3 C2 1_555 1_555
H2 C3 1_555 1_555
C4 C3 1_555 1_555
H3 C4 1_555 1_555
C5 C4 1_555 1_555
H4 C5 1_555 1_555
C6 C1 1_555 1_555
C7 C6 1_555 1_555
C8 N1 1_555 1_555
C9 O2 1_555 1_555
H5 C9 1_555 1_555
H6 C9 1_555 1_555
C10 C9 1_555 1_555
H7 C10 1_555 1_555
H8 C10 1_555 1_555
H9 C10 1_555 1_555
C5 C6 1_555 1_555

#END
