
#######################################################################
#
#                 Cambridge Crystallographic Data Centre
#                                CCDC 
#
#######################################################################
#
# If this CIF has been generated from an entry in the Cambridge 
# Structural Database, then it will include bibliographic, chemical, 
# crystal, experimental, refinement or atomic coordinate data resulting 
# from the CCDC's data processing and validation procedures.
#
#######################################################################

data_AYOSAK
_chemical_formula_moiety         'C4 N10 O8 2-,2(H4 N1 1+)'
_chemical_name_systematic        
'diammonium (3,6-dinitropyrazolo[4,3-c]pyrazole-1,4-diyl)bis(nitroazanide)'
_symmetry_cell_setting           monoclinic
_symmetry_space_group_name_H-M   'P 21/c'
_symmetry_Int_Tables_number      14
_space_group_name_Hall           '-P 2ybc'
loop_
_symmetry_equiv_pos_site_id
_symmetry_equiv_pos_as_xyz
1 x,y,z
2 -x,1/2+y,1/2-z
3 -x,-y,-z
4 x,1/2-y,1/2+z
_cell_length_a                   5.1443(8)
_cell_length_b                   11.7015(17)
_cell_length_c                   10.5262(15)
_cell_angle_alpha                90
_cell_angle_beta                 95.278(9)
_cell_angle_gamma                90
_cell_volume                     630.949
_exptl_crystal_colour            yellow
_exptl_crystal_description       needle
_cell_formula_units_Z            2
loop_
_atom_site_label
_atom_site_type_symbol
_atom_site_fract_x
_atom_site_fract_y
_atom_site_fract_z
O1 O 0.8284(4) 0.38815(19) 0.56319(19)
O2 O 1.0659(5) 0.33451(18) 0.7344(2)
N1 N 0.8791(5) 0.38813(19) 0.6820(2)
N2 N 0.7185(5) 0.4523(2) 0.7441(2)
N3 N 0.8031(4) 0.45067(19) 0.8731(2)
C1 C 1.0037(5) 0.5106(2) 0.9365(3)
N4 N 0.6691(5) 0.39152(19) 0.9559(2)
C2 C 0.7856(5) 0.4144(2) 1.0710(3)
N5 N 0.6845(5) 0.36984(19) 1.1830(2)
O3 O 0.4864(4) 0.31026(17) 1.1705(2)
O4 O 0.8010(4) 0.39581(18) 1.28595(19)
O1B O 1.1716(4) 0.61185(19) 1.43681(19)
O2B O 0.9341(5) 0.66549(18) 1.2656(2)
N1B N 1.1209(5) 0.61187(19) 1.3180(2)
N2B N 1.2815(5) 0.5477(2) 1.2559(2)
N3B N 1.1969(4) 0.54933(19) 1.1269(2)
C1B C 0.9963(5) 0.4894(2) 1.0635(3)
N4B N 1.3309(5) 0.60848(19) 1.0441(2)
C2B C 1.2144(5) 0.5856(2) 0.9290(3)
N5B N 1.3155(5) 0.63016(19) 0.8170(2)
O3B O 1.5136(4) 0.68974(17) 0.8295(2)
O4B O 1.1990(4) 0.60419(18) 0.71405(19)
N6 N 0.3082(5) 0.3390(2) 0.4410(3)
H1 H 0.167(8) 0.344(3) 0.483(4)
H2 H 0.453(8) 0.355(3) 0.492(4)
H3 H 0.246(7) 0.262(3) 0.421(3)
H4 H 0.290(7) 0.384(3) 0.382(4)
loop_
_geom_bond_atom_site_label_1
_geom_bond_atom_site_label_2
_geom_bond_site_symmetry_1
_geom_bond_site_symmetry_2
O1 N1 1_555 1_555
O2 N1 1_555 1_555
N1 N2 1_555 1_555
N2 N3 1_555 1_555
N3 C1 1_555 1_555
C1 C1B 1_555 1_555
N4 N3 1_555 1_555
C2 N4 1_555 1_555
N5 C2 1_555 1_555
O3 N5 1_555 1_555
O4 N5 1_555 1_555
N6 H1 1_555 1_555
H2 N6 1_555 1_555
H3 N6 1_555 1_555
H4 N6 1_555 1_555
O1B N1B 1_555 1_555
O2B N1B 1_555 1_555
N1B N2B 1_555 1_555
N2B N3B 1_555 1_555
N3B C1B 1_555 1_555
C1B C2 1_555 1_555
N4B N3B 1_555 1_555
C2B C1 1_555 1_555
N5B C2B 1_555 1_555
O3B N5B 1_555 1_555
O4B N5B 1_555 1_555
N4B C2B 1_555 1_555

#END
