
#######################################################################
#
#                 Cambridge Crystallographic Data Centre
#                                CCDC 
#
#######################################################################
#
# If this CIF has been generated from an entry in the Cambridge 
# Structural Database, then it will include bibliographic, chemical, 
# crystal, experimental, refinement or atomic coordinate data resulting 
# from the CCDC's data processing and validation procedures.
#
#######################################################################

data_AYOTIS01
_chemical_formula_moiety         'C13 H11 Cl2 N1 O2 S1'
_chemical_name_systematic        
N-(2,4-dichlorophenyl)-4-methylbenzenesulfonamide
_symmetry_cell_setting           triclinic
_symmetry_space_group_name_H-M   'P -1'
_symmetry_Int_Tables_number      2
_space_group_name_Hall           '-P 1'
loop_
_symmetry_equiv_pos_site_id
_symmetry_equiv_pos_as_xyz
1 x,y,z
2 -x,-y,-z
_cell_length_a                   9.6791(5)
_cell_length_b                   10.7934(4)
_cell_length_c                   13.9053(6)
_cell_angle_alpha                99.660(3)
_cell_angle_beta                 96.433(4)
_cell_angle_gamma                103.382(4)
_cell_volume                     1375.86
_exptl_crystal_colour            white
_exptl_crystal_description       parallelepiped
_cell_formula_units_Z            4
loop_
_atom_site_label
_atom_site_type_symbol
_atom_site_fract_x
_atom_site_fract_y
_atom_site_fract_z
S1 S 0.49929(10) 0.20761(9) 0.46914(8)
Cl1 Cl 0.19647(13) -0.10959(10) 0.28687(9)
Cl2 Cl 0.1678(2) 0.16191(15) -0.00073(10)
O1 O 0.5481(3) 0.1526(3) 0.5498(2)
O2 O 0.5864(3) 0.3242(3) 0.4500(3)
N1 N 0.4742(4) 0.0923(3) 0.3703(3)
H1 H 0.447(5) 0.024(5) 0.387(4)
C1 C 0.2718(4) 0.0195(4) 0.2346(3)
C2 C 0.2002(5) 0.0349(4) 0.1464(3)
H2 H 0.1121 -0.0252 0.1152
C3 C 0.2587(6) 0.1381(4) 0.1055(3)
C4 C 0.3869(6) 0.2254(4) 0.1491(4)
H3 H 0.4252 0.2971 0.1203
C5 C 0.4595(5) 0.2079(4) 0.2351(4)
H4 H 0.5500 0.2659 0.2637
C6 C 0.4012(4) 0.1059(4) 0.2804(3)
C7 C 0.3296(4) 0.2329(3) 0.4818(3)
C8 C 0.2886(4) 0.3340(3) 0.4464(3)
H5 H 0.3536 0.3918 0.4177
C9 C 0.1520(4) 0.3498(4) 0.4535(3)
H6 H 0.1236 0.4184 0.4286
C10 C 0.0557(4) 0.2676(4) 0.4960(3)
C11 C 0.0998(4) 0.1685(4) 0.5327(3)
H7 H 0.0359 0.1126 0.5634
C12 C 0.2356(4) 0.1496(3) 0.5252(3)
H8 H 0.2638 0.0805 0.5494
C13 C -0.0925(5) 0.2850(5) 0.5022(4)
H9 H -0.1450 0.2185 0.5342
H10 H -0.1437 0.2764 0.4356
H11 H -0.0857 0.3714 0.5410
S2 S 0.00957(9) 0.49027(10) 0.83362(6)
Cl3 Cl 0.33342(10) 0.77795(9) 1.01697(7)
Cl4 Cl 0.3365(2) 1.09869(13) 0.76437(10)
O3 O -0.0558(3) 0.4042(3) 0.8931(2)
O4 O -0.0657(3) 0.4908(3) 0.73932(19)
N2 N 0.0392(3) 0.6363(3) 0.9025(3)
H12 H 0.049(5) 0.636(5) 0.956(4)
C14 C 0.2480(4) 0.8200(4) 0.9154(3)
C15 C 0.3172(5) 0.9296(4) 0.8837(3)
H13 H 0.4088 0.9809 0.9171
C16 C 0.2502(6) 0.9626(4) 0.8024(3)
C17 C 0.1154(6) 0.8925(5) 0.7556(3)
H14 H 0.0701 0.9180 0.7007
C18 C 0.0462(5) 0.7847(4) 0.7888(3)
H15 H -0.0472 0.7361 0.7568
C19 C 0.1125(4) 0.7467(4) 0.8692(3)
C20 C 0.1784(4) 0.4645(3) 0.8160(2)
C21 C 0.2278(4) 0.4781(3) 0.7270(3)
H16 H 0.1701 0.4993 0.6755
C22 C 0.3622(4) 0.4601(4) 0.7149(3)
H17 H 0.3963 0.4693 0.6544
C23 C 0.4485(4) 0.4292(4) 0.7891(3)
C24 C 0.3967(5) 0.4163(4) 0.8773(3)
H18 H 0.4544 0.3949 0.9287
C25 C 0.2633(5) 0.4341(4) 0.8915(3)
H19 H 0.2297 0.4257 0.9523
C26 C 0.5943(5) 0.4104(6) 0.7746(4)
H20 H 0.6122 0.4229 0.7085
H21 H 0.5978 0.3223 0.7815
H22 H 0.6679 0.4739 0.8244
loop_
_geom_bond_atom_site_label_1
_geom_bond_atom_site_label_2
_geom_bond_site_symmetry_1
_geom_bond_site_symmetry_2
S1 O1 1_555 1_555
Cl1 C1 1_555 1_555
Cl2 C3 1_555 1_555
O2 S1 1_555 1_555
N1 S1 1_555 1_555
H1 N1 1_555 1_555
C1 C2 1_555 1_555
C2 H2 1_555 1_555
C3 C2 1_555 1_555
C4 C3 1_555 1_555
H3 C4 1_555 1_555
C5 C4 1_555 1_555
H4 C5 1_555 1_555
C6 N1 1_555 1_555
C7 S1 1_555 1_555
C8 C7 1_555 1_555
H5 C8 1_555 1_555
C9 C8 1_555 1_555
H6 C9 1_555 1_555
C10 C9 1_555 1_555
C11 C10 1_555 1_555
H7 C11 1_555 1_555
C12 C7 1_555 1_555
H8 C12 1_555 1_555
C13 C10 1_555 1_555
H9 C13 1_555 1_555
H10 C13 1_555 1_555
H11 C13 1_555 1_555
S2 O3 1_555 1_555
Cl3 C14 1_555 1_555
Cl4 C16 1_555 1_555
O4 S2 1_555 1_555
N2 S2 1_555 1_555
H12 N2 1_555 1_555
C14 C15 1_555 1_555
C15 H13 1_555 1_555
C16 C15 1_555 1_555
C17 C16 1_555 1_555
H14 C17 1_555 1_555
C18 C17 1_555 1_555
H15 C18 1_555 1_555
C19 N2 1_555 1_555
C20 S2 1_555 1_555
C21 C20 1_555 1_555
H16 C21 1_555 1_555
C22 C21 1_555 1_555
H17 C22 1_555 1_555
C23 C22 1_555 1_555
C24 C23 1_555 1_555
H18 C24 1_555 1_555
C25 C20 1_555 1_555
H19 C25 1_555 1_555
C26 C23 1_555 1_555
H20 C26 1_555 1_555
H21 C26 1_555 1_555
H22 C26 1_555 1_555
C1 C6 1_555 1_555
C5 C6 1_555 1_555
C11 C12 1_555 1_555
C14 C19 1_555 1_555
C18 C19 1_555 1_555
C24 C25 1_555 1_555

#END
