
#######################################################################
#
#                 Cambridge Crystallographic Data Centre
#                                CCDC 
#
#######################################################################
#
# If this CIF has been generated from an entry in the Cambridge 
# Structural Database, then it will include bibliographic, chemical, 
# crystal, experimental, refinement or atomic coordinate data resulting 
# from the CCDC's data processing and validation procedures.
#
#######################################################################

data_AYUBIH
_chemical_formula_moiety         'C27 H30 N4 O3 S3'
_chemical_name_systematic        
2,2',2''-nitrilotris(N-(2-(methylsulfanyl)phenyl)acetamide)
_symmetry_cell_setting           triclinic
_symmetry_space_group_name_H-M   'P -1'
_symmetry_Int_Tables_number      2
_space_group_name_Hall           '-P 1'
loop_
_symmetry_equiv_pos_site_id
_symmetry_equiv_pos_as_xyz
1 x,y,z
2 -x,-y,-z
_cell_length_a                   8.5161(3)
_cell_length_b                   12.5469(4)
_cell_length_c                   14.4605(4)
_cell_angle_alpha                66.5470(10)
_cell_angle_beta                 85.114(2)
_cell_angle_gamma                73.979(2)
_cell_volume                     1361.88
_exptl_crystal_colour            colorless
_exptl_crystal_description       needle
_cell_formula_units_Z            2
loop_
_atom_site_label
_atom_site_type_symbol
_atom_site_fract_x
_atom_site_fract_y
_atom_site_fract_z
S1 S 0.82792(7) 0.23148(6) 0.56356(4)
S2 S 0.57072(10) 0.63869(8) 0.87212(6)
S3 S 0.87227(8) 0.37640(7) 0.28327(5)
O1 O 0.5556(2) 0.47482(17) 0.69996(15)
O2 O 0.6417(2) 0.91944(17) 0.58782(14)
O3 O 0.87939(19) 0.66120(18) 0.38576(13)
N1 N 0.8027(2) 0.34824(18) 0.70011(15)
N2 N 0.4965(3) 0.78064(19) 0.65423(15)
N3 N 0.7215(2) 0.6069(2) 0.30299(15)
N4 N 0.6543(2) 0.65590(18) 0.54224(14)
C1 C 0.8475(5) 0.1127(3) 0.5235(2)
H1 H 0.9198 0.0388 0.5710
H2 H 0.8940 0.1334 0.4562
H3 H 0.7397 0.1001 0.5211
C2 C 0.7594(3) 0.1717(2) 0.68707(17)
C3 C 0.7081(3) 0.0656(2) 0.7294(2)
H4 H 0.7125 0.0178 0.6917
C4 C 0.6508(4) 0.0311(3) 0.8268(2)
H5 H 0.6165 -0.0410 0.8555
C5 C 0.6428(5) 0.0993(3) 0.8827(2)
H6 H 0.6027 0.0746 0.9492
C6 C 0.6935(4) 0.2040(3) 0.8413(2)
H7 H 0.6878 0.2516 0.8793
C7 C 0.7523(3) 0.2394(2) 0.74497(18)
C8 C 0.6991(3) 0.4572(2) 0.67680(17)
C9 C 0.7730(3) 0.5618(2) 0.61742(18)
H8 H 0.8039 0.5938 0.6637
H9 H 0.8728 0.5336 0.5840
C10 C 0.5993(5) 0.6214(4) 0.9991(2)
H10 H 0.6915 0.5515 1.0314
H11 H 0.5000 0.6093 1.0366
H12 H 0.6221 0.6940 0.9987
C11 C 0.4195(3) 0.7769(2) 0.82292(19)
C12 C 0.3200(4) 0.8319(3) 0.8817(2)
H13 H 0.3276 0.7920 0.9531
C13 C 0.2108(4) 0.9432(3) 0.8381(2)
H14 H 0.1441 0.9792 0.8795
C14 C 0.1976(3) 1.0027(3) 0.7347(2)
H15 H 0.1250 1.0806 0.7044
C15 C 0.2923(3) 0.9467(2) 0.6758(2)
H16 H 0.2819 0.9864 0.6045
C16 C 0.4013(3) 0.8346(2) 0.71793(18)
C17 C 0.6046(3) 0.8318(2) 0.58947(17)
C18 C 0.6753(3) 0.7756(2) 0.51396(18)
H17 H 0.6217 0.8284 0.4471
H18 H 0.7933 0.7713 0.5077
C19 C 1.0026(4) 0.2693(3) 0.2382(2)
H19 H 0.9988 0.1877 0.2837
H20 H 1.1151 0.2759 0.2357
H21 H 0.9653 0.2858 0.1704
C20 C 0.9052(3) 0.5150(2) 0.20026(17)
C21 C 1.0087(3) 0.5289(3) 0.11779(19)
H22 H 1.0651 0.4606 0.1037
C22 C 1.0292(4) 0.6406(3) 0.0571(2)
H23 H 1.1020 0.6481 0.0026
C23 C 0.9463(4) 0.7409(3) 0.0741(2)
H24 H 0.9596 0.8178 0.0309
C24 C 0.8423(4) 0.7298(3) 0.1552(2)
H25 H 0.7838 0.7992 0.1672
C25 C 0.8242(3) 0.6176(2) 0.21812(17)
C26 C 0.7550(3) 0.6330(2) 0.37996(17)
C27 C 0.6238(3) 0.6265(2) 0.45919(18)
H26 H 0.5192 0.6819 0.4251
H27 H 0.6096 0.5439 0.4874
H28 H 0.9004(14) 0.344(3) 0.679(2)
H29 H 0.489(3) 0.7129(13) 0.656(2)
H30 H 0.634(2) 0.584(3) 0.307(2)
loop_
_geom_bond_atom_site_label_1
_geom_bond_atom_site_label_2
_geom_bond_site_symmetry_1
_geom_bond_site_symmetry_2
S1 C1 1_555 1_555
S2 C10 1_555 1_555
S3 C19 1_555 1_555
O1 C8 1_555 1_555
O2 C17 1_555 1_555
O3 C26 1_555 1_555
N1 C7 1_555 1_555
N2 C16 1_555 1_555
N3 C25 1_555 1_555
N4 C9 1_555 1_555
C1 H1 1_555 1_555
H2 C1 1_555 1_555
H3 C1 1_555 1_555
C2 S1 1_555 1_555
C3 C2 1_555 1_555
H4 C3 1_555 1_555
C4 C3 1_555 1_555
H5 C4 1_555 1_555
C5 C4 1_555 1_555
H6 C5 1_555 1_555
C6 C5 1_555 1_555
H7 C6 1_555 1_555
C7 C2 1_555 1_555
C8 N1 1_555 1_555
C9 C8 1_555 1_555
H8 C9 1_555 1_555
H9 C9 1_555 1_555
C10 H10 1_555 1_555
H11 C10 1_555 1_555
H12 C10 1_555 1_555
C11 S2 1_555 1_555
C12 C11 1_555 1_555
H13 C12 1_555 1_555
C13 C12 1_555 1_555
H14 C13 1_555 1_555
C14 C13 1_555 1_555
H15 C14 1_555 1_555
C15 C14 1_555 1_555
H16 C15 1_555 1_555
C16 C11 1_555 1_555
C17 N2 1_555 1_555
C18 N4 1_555 1_555
H17 C18 1_555 1_555
H18 C18 1_555 1_555
C19 H19 1_555 1_555
H20 C19 1_555 1_555
H21 C19 1_555 1_555
C20 S3 1_555 1_555
C21 C20 1_555 1_555
H22 C21 1_555 1_555
C22 C21 1_555 1_555
H23 C22 1_555 1_555
C23 C22 1_555 1_555
H24 C23 1_555 1_555
C24 C23 1_555 1_555
H25 C24 1_555 1_555
C25 C20 1_555 1_555
C26 N3 1_555 1_555
C27 N4 1_555 1_555
H26 C27 1_555 1_555
H27 C27 1_555 1_555
H28 N1 1_555 1_555
H29 N2 1_555 1_555
H30 N3 1_555 1_555
C6 C7 1_555 1_555
C15 C16 1_555 1_555
C17 C18 1_555 1_555
C24 C25 1_555 1_555
C26 C27 1_555 1_555

#END
