
#######################################################################
#
#                 Cambridge Crystallographic Data Centre
#                                CCDC 
#
#######################################################################
#
# If this CIF has been generated from an entry in the Cambridge 
# Structural Database, then it will include bibliographic, chemical, 
# crystal, experimental, refinement or atomic coordinate data resulting 
# from the CCDC's data processing and validation procedures.
#
#######################################################################

data_AYUCUT
_chemical_formula_moiety         'C25 H30 O8'
_chemical_name_systematic        
(E)-3-(3,4-bis(Methoxymethoxy)phenyl)-1-(7-hydroxy-5-methoxy-2,2-dimethyl-3,4-dihydro-2H-chromen-8-yl)prop-2-en-1-one
_symmetry_cell_setting           monoclinic
_symmetry_space_group_name_H-M   'P c'
_symmetry_Int_Tables_number      7
_space_group_name_Hall           'P -2yc'
loop_
_symmetry_equiv_pos_site_id
_symmetry_equiv_pos_as_xyz
1 x,y,z
2 x,-y,1/2+z
_cell_length_a                   9.5990(8)
_cell_length_b                   8.3294(7)
_cell_length_c                   14.7444(12)
_cell_angle_alpha                90
_cell_angle_beta                 107.6840(10)
_cell_angle_gamma                90
_cell_volume                     1123.17
_exptl_crystal_colour            orange
_exptl_crystal_description       prism
_chemical_melting_point          '363-368 K'
_cell_formula_units_Z            2
loop_
_atom_site_label
_atom_site_type_symbol
_atom_site_fract_x
_atom_site_fract_y
_atom_site_fract_z
O1 O 0.50254(17) 0.07085(17) 0.49935(10)
O2 O 0.69328(17) 0.04190(19) 0.83437(11)
O3 O 0.79441(18) 0.4985(2) 0.67354(12)
H1 H 0.777(4) 0.526(4) 0.612(3)
O4 O 0.68542(17) 0.51474(19) 0.49826(11)
O5 O 0.01705(16) 0.23344(18) 0.10555(10)
O6 O 0.06369(19) 0.0284(2) 0.22016(12)
O7 O 0.05288(16) 0.41671(18) -0.02881(10)
O8 O 0.05354(17) 0.66810(19) -0.10124(11)
C1 C 0.4074(2) -0.0676(2) 0.49859(16)
C2 C 0.3732(3) -0.1334(3) 0.39786(16)
H2 H 0.4635 -0.1720 0.3874
H3 H 0.3304 -0.0482 0.3520
H4 H 0.3036 -0.2224 0.3894
C3 C 0.2692(2) -0.0069(3) 0.51717(18)
H5 H 0.2199 0.0701 0.4675
H6 H 0.2949 0.0460 0.5795
H7 H 0.2038 -0.0975 0.5165
C4 C 0.4918(2) -0.1879(3) 0.57238(15)
H8 H 0.5793 -0.2241 0.5559
H9 H 0.4295 -0.2829 0.5718
C5 C 0.5390(2) -0.1138(3) 0.67197(15)
H10 H 0.4542 -0.1096 0.6969
H11 H 0.6152 -0.1819 0.7153
C6 C 0.5981(2) 0.0529(2) 0.66954(15)
C7 C 0.5763(2) 0.1365(3) 0.58478(15)
C8 C 0.6366(2) 0.2927(3) 0.58144(15)
C9 C 0.7257(2) 0.3568(3) 0.66940(15)
C10 C 0.7437(2) 0.2780(3) 0.75539(15)
H12 H 0.7988 0.3259 0.8137
C11 C 0.6798(2) 0.1281(3) 0.75453(15)
C12 C 0.7820(3) 0.1083(3) 0.92334(15)
H13 H 0.7826 0.0346 0.9753
H14 H 0.7416 0.2120 0.9342
H15 H 0.8822 0.1233 0.9211
C13 C 0.6066(2) 0.3942(3) 0.49629(14)
C14 C 0.4826(2) 0.3661(3) 0.41004(15)
H16 H 0.4162 0.2807 0.4081
C15 C 0.4642(2) 0.4620(3) 0.33424(15)
H17 H 0.5348 0.5446 0.3407
C16 C 0.3495(2) 0.4553(3) 0.24339(15)
C17 C 0.3573(2) 0.5633(2) 0.17258(15)
H18 H 0.4318 0.6428 0.1869
C18 C 0.2588(2) 0.5565(3) 0.08200(15)
H19 H 0.2660 0.6310 0.0349
C19 C 0.1493(2) 0.4408(3) 0.05985(14)
C20 C 0.1330(2) 0.3372(2) 0.13222(15)
C21 C 0.2341(2) 0.3429(2) 0.22193(15)
H20 H 0.2257 0.2703 0.2697
C22 C -0.0247(2) 0.1575(3) 0.18001(15)
H21 H -0.0210 0.2375 0.2303
H22 H -0.1270 0.1199 0.1543
C23 C 0.0360(3) -0.1112(3) 0.16131(19)
H23 H 0.1017 -0.1979 0.1934
H24 H 0.0531 -0.0866 0.1006
H25 H -0.0657 -0.1451 0.1496
C24 C 0.0800(2) 0.5048(3) -0.10506(15)
H26 H 0.1831 0.4887 -0.1030
H27 H 0.0171 0.4616 -0.1664
C25 C -0.0952(3) 0.7036(3) -0.10670(18)
H28 H -0.1074 0.8200 -0.1034
H29 H -0.1188 0.6520 -0.0535
H30 H -0.1607 0.6630 -0.1670
loop_
_geom_bond_atom_site_label_1
_geom_bond_atom_site_label_2
_geom_bond_site_symmetry_1
_geom_bond_site_symmetry_2
O1 C1 1_555 1_555
O2 C11 1_555 1_555
O3 H1 1_555 1_555
O4 C13 1_555 1_555
O5 C20 1_555 1_555
O6 C22 1_555 1_555
O7 C19 1_555 1_555
O8 C24 1_555 1_555
C1 C2 1_555 1_555
C2 H2 1_555 1_555
H3 C2 1_555 1_555
H4 C2 1_555 1_555
C3 C1 1_555 1_555
H5 C3 1_555 1_555
H6 C3 1_555 1_555
H7 C3 1_555 1_555
C4 C1 1_555 1_555
H8 C4 1_555 1_555
H9 C4 1_555 1_555
C5 C4 1_555 1_555
H10 C5 1_555 1_555
H11 C5 1_555 1_555
C6 C5 1_555 1_555
C7 O1 1_555 1_555
C8 C7 1_555 1_555
C9 O3 1_555 1_555
C10 C9 1_555 1_555
H12 C10 1_555 1_555
C11 C6 1_555 1_555
C12 O2 1_555 1_555
H13 C12 1_555 1_555
H14 C12 1_555 1_555
H15 C12 1_555 1_555
C13 C8 1_555 1_555
C14 C13 1_555 1_555
H16 C14 1_555 1_555
C15 C14 1_555 1_555
H17 C15 1_555 1_555
C16 C15 1_555 1_555
C17 C16 1_555 1_555
H18 C17 1_555 1_555
C18 C17 1_555 1_555
H19 C18 1_555 1_555
C19 C18 1_555 1_555
C20 C19 1_555 1_555
C21 C16 1_555 1_555
H20 C21 1_555 1_555
C22 O5 1_555 1_555
H21 C22 1_555 1_555
H22 C22 1_555 1_555
C23 O6 1_555 1_555
H23 C23 1_555 1_555
H24 C23 1_555 1_555
H25 C23 1_555 1_555
C24 O7 1_555 1_555
H26 C24 1_555 1_555
H27 C24 1_555 1_555
C25 O8 1_555 1_555
H28 C25 1_555 1_555
H29 C25 1_555 1_555
H30 C25 1_555 1_555
C6 C7 1_555 1_555
C8 C9 1_555 1_555
C10 C11 1_555 1_555
C20 C21 1_555 1_555

#END
