
#######################################################################
#
#                 Cambridge Crystallographic Data Centre
#                                CCDC 
#
#######################################################################
#
# If this CIF has been generated from an entry in the Cambridge 
# Structural Database, then it will include bibliographic, chemical, 
# crystal, experimental, refinement or atomic coordinate data resulting 
# from the CCDC's data processing and validation procedures.
#
#######################################################################

data_AYUCAZ
_chemical_formula_moiety         'C24 H18 O3'
_chemical_name_systematic        
5-(Biphenyl-4-yl)-3-(3-methoxybenzylidene)furan-2(3H)-one
_symmetry_cell_setting           monoclinic
_symmetry_space_group_name_H-M   'P 21/c'
_symmetry_Int_Tables_number      14
_space_group_name_Hall           '-P 2ybc'
loop_
_symmetry_equiv_pos_site_id
_symmetry_equiv_pos_as_xyz
1 x,y,z
2 -x,1/2+y,1/2-z
3 -x,-y,-z
4 x,1/2-y,1/2+z
_cell_length_a                   19.8766(8)
_cell_length_b                   6.9914(3)
_cell_length_c                   13.2603(6)
_cell_angle_alpha                90
_cell_angle_beta                 107.735(4)
_cell_angle_gamma                90
_cell_volume                     1755.15
_exptl_crystal_colour            'pale yellow'
_exptl_crystal_description       block
_chemical_melting_point          '411-413 K'
_cell_formula_units_Z            4
_exptl_crystal_recrystallization_method 2-butanone
loop_
_atom_site_label
_atom_site_type_symbol
_atom_site_fract_x
_atom_site_fract_y
_atom_site_fract_z
O1 O 0.71593(5) 0.14726(16) 0.22178(7)
O2 O 0.63009(6) 0.13953(19) 0.06638(8)
O3 O 0.28081(5) 0.15321(18) 0.15671(9)
C1 C 1.04917(7) 0.3141(2) 0.59764(12)
H1 H 1.0398 0.3604 0.5274
C2 C 1.11564(8) 0.3377(2) 0.66876(14)
H2 H 1.1514 0.4004 0.6473
C3 C 1.13016(8) 0.2703(3) 0.77084(13)
H3 H 1.1759 0.2862 0.8199
C4 C 1.07787(9) 0.1797(3) 0.80145(13)
H4 H 1.0879 0.1325 0.8717
C5 C 1.01101(8) 0.1571(2) 0.73078(12)
H5 H 0.9753 0.0958 0.7531
C6 C 0.99552(7) 0.2235(2) 0.62704(11)
C7 C 0.92411(7) 0.19992(19) 0.55035(10)
C8 C 0.86347(7) 0.2076(2) 0.58311(11)
H6 H 0.8685 0.2235 0.6562
C9 C 0.79673(7) 0.1927(2) 0.51171(11)
H7 H 0.7565 0.1986 0.5361
C10 C 0.78789(7) 0.16882(19) 0.40409(10)
C11 C 0.84804(7) 0.1561(2) 0.37113(11)
H8 H 0.8431 0.1359 0.2984
C12 C 0.91467(7) 0.1724(2) 0.44324(11)
H9 H 0.9549 0.1646 0.4190
C13 C 0.71770(7) 0.1588(2) 0.32790(10)
C14 C 0.65258(7) 0.16084(19) 0.33828(10)
H10 H 0.6416 0.1683 0.4030
C15 C 0.60244(7) 0.14966(19) 0.23409(10)
C16 C 0.64589(7) 0.1442(2) 0.16115(11)
C17 C 0.53146(7) 0.1432(2) 0.19272(10)
H11 H 0.5149 0.1351 0.1177
C18 C 0.47600(7) 0.14655(19) 0.24314(10)
C19 C 0.40626(7) 0.1452(2) 0.17584(11)
H12 H 0.3975 0.1408 0.1013
C20 C 0.35005(7) 0.1504(2) 0.21690(11)
C21 C 0.36229(8) 0.1503(2) 0.32559(12)
H13 H 0.3238 0.1504 0.3540
C22 C 0.43071(8) 0.1501(2) 0.39204(12)
H14 H 0.4390 0.1498 0.4665
C23 C 0.48761(7) 0.1505(2) 0.35246(11)
H15 H 0.5344 0.1534 0.3995
C24 C 0.26584(9) 0.1751(3) 0.04562(13)
H16 H 0.2147 0.1852 0.0125
H17 H 0.2838 0.0640 0.0168
H18 H 0.2888 0.2913 0.0309
loop_
_geom_bond_atom_site_label_1
_geom_bond_atom_site_label_2
_geom_bond_site_symmetry_1
_geom_bond_site_symmetry_2
O1 C13 1_555 1_555
O2 C16 1_555 1_555
O3 C20 1_555 1_555
C1 H1 1_555 1_555
C2 C1 1_555 1_555
H2 C2 1_555 1_555
C3 C2 1_555 1_555
H3 C3 1_555 1_555
C4 C3 1_555 1_555
H4 C4 1_555 1_555
C5 C4 1_555 1_555
H5 C5 1_555 1_555
C6 C1 1_555 1_555
C7 C6 1_555 1_555
C8 C7 1_555 1_555
H6 C8 1_555 1_555
C9 C8 1_555 1_555
H7 C9 1_555 1_555
C10 C9 1_555 1_555
C11 C10 1_555 1_555
H8 C11 1_555 1_555
C12 C7 1_555 1_555
H9 C12 1_555 1_555
C13 C10 1_555 1_555
C14 C13 1_555 1_555
H10 C14 1_555 1_555
C15 C14 1_555 1_555
C16 O1 1_555 1_555
C17 C15 1_555 1_555
H11 C17 1_555 1_555
C18 C17 1_555 1_555
C19 C18 1_555 1_555
H12 C19 1_555 1_555
C20 C19 1_555 1_555
C21 C20 1_555 1_555
H13 C21 1_555 1_555
C22 C21 1_555 1_555
H14 C22 1_555 1_555
C23 C18 1_555 1_555
H15 C23 1_555 1_555
C24 O3 1_555 1_555
H16 C24 1_555 1_555
H17 C24 1_555 1_555
H18 C24 1_555 1_555
C5 C6 1_555 1_555
C11 C12 1_555 1_555
C15 C16 1_555 1_555
C22 C23 1_555 1_555

#END
