
#######################################################################
#
#                 Cambridge Crystallographic Data Centre
#                                CCDC 
#
#######################################################################
#
# If this CIF has been generated from an entry in the Cambridge 
# Structural Database, then it will include bibliographic, chemical, 
# crystal, experimental, refinement or atomic coordinate data resulting 
# from the CCDC's data processing and validation procedures.
#
#######################################################################

data_AYUDAA
_chemical_formula_moiety         'C22 H22 O6'
_chemical_name_systematic        
(E)-3-(2H-1,3-Benzodioxol-5-yl)-1-(7-hydroxy-5-methoxy-2,2-dimethylchroman-8-yl)prop-2-en-1-one
_symmetry_cell_setting           triclinic
_symmetry_space_group_name_H-M   'P -1'
_symmetry_Int_Tables_number      2
_space_group_name_Hall           '-P 1'
loop_
_symmetry_equiv_pos_site_id
_symmetry_equiv_pos_as_xyz
1 x,y,z
2 -x,-y,-z
_cell_length_a                   9.4531(7)
_cell_length_b                   10.4462(8)
_cell_length_c                   10.8426(8)
_cell_angle_alpha                113.866(1)
_cell_angle_beta                 90.120(1)
_cell_angle_gamma                109.882(1)
_cell_volume                     908.554
_exptl_crystal_colour            yellow-orange
_exptl_crystal_description       block
_chemical_melting_point          '395-399 K'
_cell_formula_units_Z            2
loop_
_atom_site_label
_atom_site_type_symbol
_atom_site_fract_x
_atom_site_fract_y
_atom_site_fract_z
O1 O 0.24900(10) 0.26722(10) 0.37397(9)
O2 O 0.14558(11) 0.35255(11) 0.81933(9)
O3 O 0.65288(11) 0.43380(11) 0.73541(10)
H1 H 0.695(2) 0.423(2) 0.6631(14)
O4 O 0.70562(11) 0.37601(11) 0.50151(10)
O5 O 0.54846(12) 0.07418(12) -0.34009(10)
O6 O 0.33410(11) 0.02763(12) -0.23687(9)
C1 C 0.08521(14) 0.19138(15) 0.32290(13)
C2 C 0.06859(17) 0.19318(18) 0.18445(14)
H2 H 0.0903 0.2968 0.1971
H3 H -0.0358 0.1293 0.1361
H4 H 0.1405 0.1547 0.1308
C3 C 0.03668(17) 0.03067(15) 0.30829(15)
H5 H 0.0422 0.0322 0.3992
H6 H 0.1048 -0.0163 0.2569
H7 H -0.0682 -0.0274 0.2594
C4 C 0.00435(15) 0.28290(15) 0.42117(13)
H8 H -0.1065 0.2362 0.3862
H9 H 0.0423 0.3864 0.4273
C5 C 0.03195(15) 0.28986(16) 0.56239(13)
H10 H 0.0064 0.3728 0.6305
H11 H -0.0353 0.1941 0.5633
C6 C 0.19652(15) 0.31572(14) 0.60088(13)
C7 C 0.29656(15) 0.30719(14) 0.50733(13)
C8 C 0.45543(14) 0.34365(14) 0.54542(12)
C9 C 0.50582(15) 0.39096(14) 0.68644(13)
C10 C 0.40485(16) 0.39162(15) 0.77956(13)
H12 H 0.4402 0.4177 0.8718
C11 C 0.25254(15) 0.35386(14) 0.73640(13)
C12 C 0.19315(18) 0.38194(19) 0.95672(14)
H13 H 0.1055 0.3751 1.0053
H14 H 0.2718 0.4834 1.0033
H15 H 0.2347 0.3074 0.9556
C13 C 0.56815(15) 0.33381(14) 0.45276(13)
C14 C 0.52921(15) 0.27293(15) 0.30357(13)
H16 H 0.4253 0.2236 0.2613
C15 C 0.63933(15) 0.28671(14) 0.22708(13)
H17 H 0.7415 0.3368 0.2738
C16 C 0.61775(15) 0.23228(14) 0.07876(13)
C17 C 0.74549(16) 0.25991(15) 0.01505(14)
H18 H 0.8436 0.3131 0.0699
C18 C 0.73502(16) 0.21236(16) -0.12671(14)
H19 H 0.8229 0.2326 -0.1688
C19 C 0.59114(16) 0.13521(15) -0.20110(13)
C20 C 0.46250(15) 0.10673(14) -0.13959(14)
C21 C 0.47095(15) 0.15306(15) -0.00160(13)
H20 H 0.3817 0.1329 0.0388
C22 C 0.38461(16) 0.01443(15) -0.36479(14)
H21 H 0.3466 0.0718 -0.4011
H22 H 0.3454 -0.0927 -0.4325
loop_
_geom_bond_atom_site_label_1
_geom_bond_atom_site_label_2
_geom_bond_site_symmetry_1
_geom_bond_site_symmetry_2
O1 C1 1_555 1_555
O2 C11 1_555 1_555
O3 H1 1_555 1_555
O4 C13 1_555 1_555
O5 C19 1_555 1_555
O6 C20 1_555 1_555
C1 C2 1_555 1_555
C2 H2 1_555 1_555
H3 C2 1_555 1_555
H4 C2 1_555 1_555
C3 C1 1_555 1_555
H5 C3 1_555 1_555
H6 C3 1_555 1_555
H7 C3 1_555 1_555
C4 C1 1_555 1_555
H8 C4 1_555 1_555
H9 C4 1_555 1_555
C5 C4 1_555 1_555
H10 C5 1_555 1_555
H11 C5 1_555 1_555
C6 C5 1_555 1_555
C7 O1 1_555 1_555
C8 C7 1_555 1_555
C9 O3 1_555 1_555
C10 C9 1_555 1_555
H12 C10 1_555 1_555
C11 C6 1_555 1_555
C12 O2 1_555 1_555
H13 C12 1_555 1_555
H14 C12 1_555 1_555
H15 C12 1_555 1_555
C13 C8 1_555 1_555
C14 C13 1_555 1_555
H16 C14 1_555 1_555
C15 C14 1_555 1_555
H17 C15 1_555 1_555
C16 C15 1_555 1_555
C17 C16 1_555 1_555
H18 C17 1_555 1_555
C18 C17 1_555 1_555
H19 C18 1_555 1_555
C19 C18 1_555 1_555
C20 C19 1_555 1_555
C21 C16 1_555 1_555
H20 C21 1_555 1_555
C22 O5 1_555 1_555
H21 C22 1_555 1_555
H22 C22 1_555 1_555
O6 C22 1_555 1_555
C6 C7 1_555 1_555
C8 C9 1_555 1_555
C10 C11 1_555 1_555
C20 C21 1_555 1_555

#END
