
#######################################################################
#
#                 Cambridge Crystallographic Data Centre
#                                CCDC 
#
#######################################################################
#
# If this CIF has been generated from an entry in the Cambridge 
# Structural Database, then it will include bibliographic, chemical, 
# crystal, experimental, refinement or atomic coordinate data resulting 
# from the CCDC's data processing and validation procedures.
#
#######################################################################

data_AYUFUW
_chemical_formula_moiety         'C17 H14 N2 O1'
_chemical_name_systematic        
1-(4-Methoxyphenyl)-2-methyl-1H-indole-3-carbonitrile
_symmetry_cell_setting           triclinic
_symmetry_space_group_name_H-M   'P -1'
_symmetry_Int_Tables_number      2
_space_group_name_Hall           '-P 1'
loop_
_symmetry_equiv_pos_site_id
_symmetry_equiv_pos_as_xyz
1 x,y,z
2 -x,-y,-z
_cell_length_a                   7.7381(10)
_cell_length_b                   9.4598(14)
_cell_length_c                   9.7976(16)
_cell_angle_alpha                95.983(2)
_cell_angle_beta                 95.464(4)
_cell_angle_gamma                106.295(5)
_cell_volume                     678.789
_exptl_crystal_colour            colorless
_exptl_crystal_description       prism
_cell_formula_units_Z            2
_exptl_crystal_recrystallization_method 'ethyl acetate/petroleum ether'
loop_
_atom_site_label
_atom_site_type_symbol
_atom_site_fract_x
_atom_site_fract_y
_atom_site_fract_z
O1 O 1.23428(10) 0.89022(9) 0.06414(8)
N1 N 0.63352(12) 0.69683(10) 0.34222(9)
N2 N 0.27094(14) 0.77814(11) 0.68887(10)
C1 C 1.34704(16) 0.79705(15) 0.03434(14)
H1 H 1.3990 0.7732 0.1211
H2 H 1.4452 0.8492 -0.0148
H3 H 1.2741 0.7050 -0.0237
C2 C 1.08888(14) 0.83382(12) 0.13188(11)
C3 C 1.04548(15) 0.69409(12) 0.17549(11)
H4 H 1.1173 0.6293 0.1573
C4 C 0.89572(14) 0.65052(12) 0.24598(11)
H5 H 0.8661 0.5558 0.2771
C5 C 0.78939(14) 0.74363(12) 0.27134(11)
C6 C 0.83139(14) 0.88247(12) 0.22493(11)
H6 H 0.7570 0.9457 0.2400
C7 C 0.98146(14) 0.92716(12) 0.15712(11)
H7 H 1.0119 1.0225 0.1274
C8 C 0.48670(14) 0.57024(11) 0.29653(11)
C9 C 0.45885(14) 0.46469(12) 0.17956(11)
H8 H 0.5482 0.4695 0.1186
C10 C 0.29541(15) 0.35277(13) 0.15628(12)
H9 H 0.2715 0.2794 0.0774
C11 C 0.16419(15) 0.34554(12) 0.24707(12)
H10 H 0.0531 0.2676 0.2283
C12 C 0.19364(15) 0.44962(12) 0.36305(12)
H11 H 0.1051 0.4429 0.4248
C13 C 0.35650(14) 0.56517(12) 0.38782(11)
C14 C 0.42996(15) 0.69530(12) 0.48926(11)
C15 C 0.59797(14) 0.77272(12) 0.45929(11)
C16 C 0.72912(15) 0.91064(12) 0.53687(11)
H12 H 0.7311 0.9943 0.4852
H13 H 0.8506 0.8976 0.5486
H14 H 0.6920 0.9310 0.6280
C17 C 0.34392(15) 0.74071(12) 0.60128(12)
loop_
_geom_bond_atom_site_label_1
_geom_bond_atom_site_label_2
_geom_bond_site_symmetry_1
_geom_bond_site_symmetry_2
O1 C1 1_555 1_555
N1 C5 1_555 1_555
N2 C17 1_555 1_555
C1 H1 1_555 1_555
H2 C1 1_555 1_555
H3 C1 1_555 1_555
C2 O1 1_555 1_555
C3 C2 1_555 1_555
H4 C3 1_555 1_555
C4 C3 1_555 1_555
H5 C4 1_555 1_555
C5 C4 1_555 1_555
C6 C5 1_555 1_555
H6 C6 1_555 1_555
C7 C2 1_555 1_555
H7 C7 1_555 1_555
C8 N1 1_555 1_555
C9 C8 1_555 1_555
H8 C9 1_555 1_555
C10 C9 1_555 1_555
H9 C10 1_555 1_555
C11 C10 1_555 1_555
H10 C11 1_555 1_555
C12 C11 1_555 1_555
H11 C12 1_555 1_555
C13 C8 1_555 1_555
C14 C13 1_555 1_555
C15 N1 1_555 1_555
C16 C15 1_555 1_555
H12 C16 1_555 1_555
H13 C16 1_555 1_555
H14 C16 1_555 1_555
C17 C14 1_555 1_555
C6 C7 1_555 1_555
C12 C13 1_555 1_555
C14 C15 1_555 1_555

#END
