
#######################################################################
#
#                 Cambridge Crystallographic Data Centre
#                                CCDC 
#
#######################################################################
#
# If this CIF has been generated from an entry in the Cambridge 
# Structural Database, then it will include bibliographic, chemical, 
# crystal, experimental, refinement or atomic coordinate data resulting 
# from the CCDC's data processing and validation procedures.
#
#######################################################################

data_AYUNUE
_chemical_name_common            'Tramadol hydrochloride benzoic acid'
_chemical_formula_moiety         'C16 H26 N1 O2 1+,Cl1 1-,C7 H6 O2'
_chemical_name_systematic        
'(2-Hydroxy-2-(3-methoxyphenyl)cyclohexylmethyl)-N,N-dimethylammonium chloride benzoic acid'
_chemical_properties_biological  
'Tramadol is used for perioperative pain relief'
_symmetry_cell_setting           monoclinic
_symmetry_space_group_name_H-M   'P c'
_symmetry_Int_Tables_number      7
_space_group_name_Hall           'P -2yc'
loop_
_symmetry_equiv_pos_site_id
_symmetry_equiv_pos_as_xyz
1 x,y,z
2 x,-y,1/2+z
_cell_length_a                   8.9721(2)
_cell_length_b                   10.4086(2)
_cell_length_c                   12.5189(3)
_cell_angle_alpha                90
_cell_angle_beta                 101.646(2)
_cell_angle_gamma                90
_cell_volume                     1145.03
_exptl_crystal_colour            colorless
_exptl_crystal_description       block
_chemical_melting_point          '405-408 K'
_cell_formula_units_Z            2
loop_
_atom_site_label
_atom_site_type_symbol
_atom_site_fract_x
_atom_site_fract_y
_atom_site_fract_z
O1 O 0.52336(9) 0.94842(8) 0.34245(7)
H1 H 0.6170 0.9644 0.3579
O2 O 0.50785(17) 0.37596(10) 0.40095(13)
N1 N 0.05818(11) 0.84734(11) 0.28462(9)
H2 H 0.0310 0.9119 0.3284
C1 C 0.0099(2) 0.72349(19) 0.32402(18)
H3 H -0.1006 0.7241 0.3189
H4 H 0.0610 0.7106 0.4002
H5 H 0.0371 0.6535 0.2792
C2 C -0.02187(17) 0.87309(19) 0.17005(12)
H6 H -0.1321 0.8698 0.1655
H7 H 0.0074 0.8080 0.1216
H8 H 0.0066 0.9584 0.1478
C3 C 0.22703(13) 0.85528(12) 0.29216(10)
H9 H 0.2504 0.9364 0.2577
H10 H 0.2586 0.7835 0.2498
C4 C 0.32126(12) 0.85020(11) 0.40805(9)
H11 H 0.2915 0.7718 0.4449
C5 C 0.29134(14) 0.96879(14) 0.47321(11)
H12 H 0.3075 1.0471 0.4321
H13 H 0.1838 0.9681 0.4812
C6 C 0.39380(16) 0.97406(16) 0.58564(12)
H14 H 0.3656 0.9037 0.6309
H15 H 0.3771 1.0565 0.6209
C7 C 0.56191(15) 0.96186(14) 0.58141(11)
H16 H 0.5947 1.0390 0.5460
H17 H 0.6230 0.9570 0.6566
C8 C 0.59035(13) 0.84261(12) 0.51835(9)
H18 H 0.5686 0.7653 0.5587
H19 H 0.6990 0.8398 0.5134
C9 C 0.49169(12) 0.83936(10) 0.40268(9)
C10 C 0.52315(12) 0.71504(10) 0.34583(9)
C11 C 0.50053(15) 0.59804(12) 0.39240(11)
H20 H 0.4621 0.5960 0.4577
C12 C 0.53321(16) 0.48312(13) 0.34504(13)
C13 C 0.58753(17) 0.48517(15) 0.24902(14)
H21 H 0.6103 0.4073 0.2161
C14 C 0.60801(17) 0.60191(16) 0.20207(12)
H22 H 0.6450 0.6037 0.1361
C15 C 0.57602(14) 0.71689(13) 0.24871(11)
H23 H 0.5901 0.7963 0.2146
C16 C 0.5307(3) 0.25388(16) 0.3558(2)
H24 H 0.5050 0.1860 0.4032
H25 H 0.6375 0.2453 0.3499
H26 H 0.4654 0.2463 0.2832
O3 O -0.10582(14) 1.25355(13) 0.22279(12)
H27 H -0.1056 1.1872 0.2611
O4 O 0.13609(18) 1.20037(17) 0.23538(18)
C17 C 0.03083(18) 1.27036(16) 0.20051(14)
C18 C 0.04087(16) 1.38280(15) 0.12968(13)
C19 C -0.08709(18) 1.44113(17) 0.06800(15)
H28 H -0.1856 1.4105 0.0718
C20 C -0.0714(2) 1.54327(19) 0.00136(17)
H29 H -0.1593 1.5816 -0.0419
C21 C 0.0714(2) 1.5907(2) -0.00322(17)
H30 H 0.0813 1.6621 -0.0486
C22 C 0.1979(2) 1.53427(19) 0.05796(19)
H31 H 0.2960 1.5669 0.0554
C23 C 0.18366(19) 1.42998(19) 0.12347(17)
H32 H 0.2722 1.3902 0.1646
Cl1 Cl -0.13063(4) 1.04083(3) 0.38725(3)
loop_
_geom_bond_atom_site_label_1
_geom_bond_atom_site_label_2
_geom_bond_site_symmetry_1
_geom_bond_site_symmetry_2
O1 H1 1_555 1_555
O2 C12 1_555 1_555
N1 H2 1_555 1_555
C1 N1 1_555 1_555
H3 C1 1_555 1_555
H4 C1 1_555 1_555
H5 C1 1_555 1_555
C2 N1 1_555 1_555
H6 C2 1_555 1_555
H7 C2 1_555 1_555
H8 C2 1_555 1_555
C3 N1 1_555 1_555
H9 C3 1_555 1_555
H10 C3 1_555 1_555
C4 C3 1_555 1_555
H11 C4 1_555 1_555
C5 C4 1_555 1_555
H12 C5 1_555 1_555
H13 C5 1_555 1_555
C6 C5 1_555 1_555
H14 C6 1_555 1_555
H15 C6 1_555 1_555
C7 C6 1_555 1_555
H16 C7 1_555 1_555
H17 C7 1_555 1_555
C8 C7 1_555 1_555
H18 C8 1_555 1_555
H19 C8 1_555 1_555
C9 O1 1_555 1_555
C10 C9 1_555 1_555
C11 C10 1_555 1_555
H20 C11 1_555 1_555
C12 C11 1_555 1_555
C13 C12 1_555 1_555
H21 C13 1_555 1_555
C14 C13 1_555 1_555
H22 C14 1_555 1_555
C15 C10 1_555 1_555
H23 C15 1_555 1_555
C16 O2 1_555 1_555
H24 C16 1_555 1_555
H25 C16 1_555 1_555
H26 C16 1_555 1_555
O3 H27 1_555 1_555
O4 C17 1_555 1_555
C17 O3 1_555 1_555
C18 C17 1_555 1_555
C19 C18 1_555 1_555
H28 C19 1_555 1_555
C20 C19 1_555 1_555
H29 C20 1_555 1_555
C21 C20 1_555 1_555
H30 C21 1_555 1_555
C22 C21 1_555 1_555
H31 C22 1_555 1_555
C23 C18 1_555 1_555
H32 C23 1_555 1_555
C4 C9 1_555 1_555
C8 C9 1_555 1_555
C14 C15 1_555 1_555
C22 C23 1_555 1_555

#END
