
#######################################################################
#
#                 Cambridge Crystallographic Data Centre
#                                CCDC 
#
#######################################################################
#
# If this CIF has been generated from an entry in the Cambridge 
# Structural Database, then it will include bibliographic, chemical, 
# crystal, experimental, refinement or atomic coordinate data resulting 
# from the CCDC's data processing and validation procedures.
#
#######################################################################

data_AYUNOY
_chemical_formula_moiety         'C8 H6 N2 O3'
_chemical_name_systematic        
2,4-Dioxo-1-(prop-2-yn-1-yl)-1,2,3,4-tetrahydropyrimidine-5-carbaldehyde
_symmetry_cell_setting           monoclinic
_symmetry_space_group_name_H-M   'P 21/n'
_symmetry_Int_Tables_number      14
_space_group_name_Hall           '-P 2yn'
loop_
_symmetry_equiv_pos_site_id
_symmetry_equiv_pos_as_xyz
1 x,y,z
2 1/2-x,1/2+y,1/2-z
3 -x,-y,-z
4 1/2+x,1/2-y,1/2+z
_cell_length_a                   5.1756(7)
_cell_length_b                   8.4877(12)
_cell_length_c                   18.565(3)
_cell_angle_alpha                90
_cell_angle_beta                 90.611(2)
_cell_angle_gamma                90
_cell_volume                     815.494
_exptl_crystal_colour            colorless
_exptl_crystal_description       block
_cell_formula_units_Z            4
_exptl_crystal_recrystallization_method dichloromethane/methanol
loop_
_atom_site_label
_atom_site_type_symbol
_atom_site_fract_x
_atom_site_fract_y
_atom_site_fract_z
C1 C 0.7042(3) 0.8893(2) 0.44458(8)
C2 C 0.5046(3) 0.8128(2) 0.40196(8)
C3 C 0.4934(3) 0.84333(19) 0.33033(8)
H1 H 0.3631 0.7959 0.3031
C4 C 0.8652(3) 1.01190(19) 0.33360(8)
C5 C 0.3180(4) 0.7061(2) 0.43522(10)
H2 H 0.3435 0.6787 0.4833
C6 C 0.6377(3) 0.9724(2) 0.21870(8)
H3 H 0.4685 0.9390 0.2017
H4 H 0.6512 1.0851 0.2110
C7 C 0.8363(4) 0.8923(2) 0.17686(9)
C8 C 0.9931(4) 0.8282(3) 0.14242(11)
H5 H 1.1175 0.7773 0.1151
N1 N 0.6616(2) 0.93903(17) 0.29646(7)
N2 N 0.8664(3) 0.98582(16) 0.40649(7)
H6 H 0.9818 1.0356 0.4312
O1 O 0.7344(2) 0.87340(16) 0.51012(6)
O2 O 1.0262(2) 1.09061(15) 0.30334(6)
O3 O 0.1324(3) 0.65141(19) 0.40376(8)
loop_
_geom_bond_atom_site_label_1
_geom_bond_atom_site_label_2
_geom_bond_site_symmetry_1
_geom_bond_site_symmetry_2
C1 C2 1_555 1_555
C2 C3 1_555 1_555
C3 H1 1_555 1_555
C4 N1 1_555 1_555
C5 C2 1_555 1_555
H2 C5 1_555 1_555
C6 H3 1_555 1_555
H4 C6 1_555 1_555
C7 C6 1_555 1_555
C8 C7 1_555 1_555
H5 C8 1_555 1_555
N1 C3 1_555 1_555
N2 C1 1_555 1_555
H6 N2 1_555 1_555
O1 C1 1_555 1_555
O2 C4 1_555 1_555
O3 C5 1_555 1_555
C4 N2 1_555 1_555
C6 N1 1_555 1_555

#END
