
#######################################################################
#
#                 Cambridge Crystallographic Data Centre
#                                CCDC 
#
#######################################################################
#
# If this CIF has been generated from an entry in the Cambridge 
# Structural Database, then it will include bibliographic, chemical, 
# crystal, experimental, refinement or atomic coordinate data resulting 
# from the CCDC's data processing and validation procedures.
#
#######################################################################

data_AYUQOB
_chemical_formula_moiety         'C17 H19 N1 O5'
_chemical_name_systematic        
'Dimethyl 4-(4-hydroxyphenyl)-2,6-dimethyl-1,4-dihydropyridine-3,5-dicarboxylate'
_symmetry_cell_setting           monoclinic
_symmetry_space_group_name_H-M   'P 21/n'
_symmetry_Int_Tables_number      14
_space_group_name_Hall           '-P 2yn'
loop_
_symmetry_equiv_pos_site_id
_symmetry_equiv_pos_as_xyz
1 x,y,z
2 1/2-x,1/2+y,1/2-z
3 -x,-y,-z
4 1/2+x,1/2-y,1/2+z
_cell_length_a                   13.245(3)
_cell_length_b                   9.3480(19)
_cell_length_c                   13.754(3)
_cell_angle_alpha                90
_cell_angle_beta                 110.14(3)
_cell_angle_gamma                90
_cell_volume                     1598.81
_exptl_crystal_colour            yellow
_exptl_crystal_description       block
_cell_formula_units_Z            4
_exptl_crystal_recrystallization_method ethanol
loop_
_atom_site_label
_atom_site_type_symbol
_atom_site_fract_x
_atom_site_fract_y
_atom_site_fract_z
N1 N 0.6521(3) 0.2025(3) 0.3016(2)
H1 H 0.6515 0.1445 0.2529
O1 O 1.0141(2) -0.0866(3) 0.7601(2)
H2 H 0.9967 -0.1157 0.8083
C1 C 0.8797(3) 0.1492(4) 0.5474(3)
H3 H 0.8910 0.1793 0.4875
O2 O 0.5444(2) 0.3203(4) 0.5778(2)
C2 C 0.9528(3) 0.0542(4) 0.6113(3)
H4 H 1.0116 0.0232 0.5947
O3 O 0.4353(2) 0.1763(3) 0.4605(2)
C3 C 0.9371(3) 0.0055(4) 0.7006(3)
O4 O 0.8684(2) 0.5538(3) 0.3923(2)
C4 C 0.8511(3) 0.0495(4) 0.7228(3)
H5 H 0.8396 0.0157 0.7816
O5 O 0.8363(2) 0.5462(3) 0.5423(2)
C5 C 0.7786(3) 0.1468(4) 0.6570(3)
H6 H 0.7195 0.1763 0.6735
C6 C 0.7922(3) 0.2018(4) 0.5662(3)
C7 C 0.7113(3) 0.3079(4) 0.4988(3)
H7 H 0.7036 0.3853 0.5438
C8 C 0.5986(3) 0.2431(4) 0.4446(3)
C9 C 0.5808(3) 0.1810(4) 0.3502(3)
C10 C 0.7253(3) 0.3108(4) 0.3254(3)
C11 C 0.7525(3) 0.3737(4) 0.4184(3)
C12 C 0.4874(3) 0.0857(4) 0.2903(3)
H8 H 0.4384 0.0774 0.3276
H9 H 0.5139 -0.0073 0.2819
H10 H 0.4508 0.1269 0.2234
C13 C 0.7703(3) 0.3459(5) 0.2409(3)
H11 H 0.8426 0.3807 0.2715
H12 H 0.7266 0.4180 0.1962
H13 H 0.7703 0.2613 0.2013
C14 C 0.5229(3) 0.2511(4) 0.4999(3)
C15 C 0.3573(3) 0.1894(5) 0.5099(3)
H14 H 0.2957 0.1319 0.4740
H15 H 0.3359 0.2877 0.5088
H16 H 0.3878 0.1575 0.5804
C16 C 0.8259(3) 0.4957(4) 0.4461(3)
C17 C 0.9061(3) 0.6675(4) 0.5735(3)
H17 H 0.9123 0.6948 0.6426
H18 H 0.8770 0.7457 0.5271
H19 H 0.9759 0.6433 0.5717
loop_
_geom_bond_atom_site_label_1
_geom_bond_atom_site_label_2
_geom_bond_site_symmetry_1
_geom_bond_site_symmetry_2
N1 H1 1_555 1_555
O1 H2 1_555 1_555
C1 H3 1_555 1_555
O2 C14 1_555 1_555
C2 C1 1_555 1_555
H4 C2 1_555 1_555
O3 C14 1_555 1_555
C3 O1 1_555 1_555
O4 C16 1_555 1_555
C4 C3 1_555 1_555
H5 C4 1_555 1_555
O5 C16 1_555 1_555
C5 C4 1_555 1_555
H6 C5 1_555 1_555
C6 C1 1_555 1_555
C7 C6 1_555 1_555
H7 C7 1_555 1_555
C8 C7 1_555 1_555
C9 N1 1_555 1_555
C10 N1 1_555 1_555
C11 C7 1_555 1_555
C12 C9 1_555 1_555
H8 C12 1_555 1_555
H9 C12 1_555 1_555
H10 C12 1_555 1_555
C13 C10 1_555 1_555
H11 C13 1_555 1_555
H12 C13 1_555 1_555
H13 C13 1_555 1_555
C14 C8 1_555 1_555
C15 O3 1_555 1_555
H14 C15 1_555 1_555
H15 C15 1_555 1_555
H16 C15 1_555 1_555
C16 C11 1_555 1_555
C17 O5 1_555 1_555
H17 C17 1_555 1_555
H18 C17 1_555 1_555
H19 C17 1_555 1_555
C2 C3 1_555 1_555
C5 C6 1_555 1_555
C8 C9 1_555 1_555
C10 C11 1_555 1_555

#END
