
#######################################################################
#
#                 Cambridge Crystallographic Data Centre
#                                CCDC 
#
#######################################################################
#
# If this CIF has been generated from an entry in the Cambridge 
# Structural Database, then it will include bibliographic, chemical, 
# crystal, experimental, refinement or atomic coordinate data resulting 
# from the CCDC's data processing and validation procedures.
#
#######################################################################

data_AZABAF
_chemical_formula_moiety         'C12 H14 N2 O4'
_chemical_name_systematic        
'(E)-4-[2-(2-Hydroxybenzoyl)hydrazinylidene]pentanoic acid'
_symmetry_cell_setting           monoclinic
_symmetry_space_group_name_H-M   'C 2/c'
_symmetry_Int_Tables_number      15
_space_group_name_Hall           '-C 2yn'
loop_
_symmetry_equiv_pos_site_id
_symmetry_equiv_pos_as_xyz
1 x,y,z
2 -x,y,1/2-z
3 1/2+x,1/2+y,z
4 1/2-x,1/2+y,1/2-z
5 -x,-y,-z
6 x,-y,1/2+z
7 1/2-x,1/2-y,-z
8 1/2+x,1/2-y,1/2+z
_cell_length_a                   24.445(2)
_cell_length_b                   8.4683(8)
_cell_length_c                   13.1204(12)
_cell_angle_alpha                90
_cell_angle_beta                 118.5600(10)
_cell_angle_gamma                90
_cell_volume                     2385.53
_exptl_crystal_colour            colorless
_exptl_crystal_description       block
_cell_formula_units_Z            8
_exptl_crystal_recrystallization_method methanol
loop_
_atom_site_label
_atom_site_type_symbol
_atom_site_fract_x
_atom_site_fract_y
_atom_site_fract_z
N1 N 0.39247(9) 0.4503(3) 0.29554(19)
N2 N 0.45430(9) 0.4964(3) 0.34082(18)
H1 H 0.4823 0.4263 0.3536
O1 O 0.18399(10) 0.3011(3) 0.2303(2)
H2 H 0.1496 0.2591 0.2013
O2 O 0.17818(9) 0.2415(2) 0.0602(2)
O3 O 0.43347(9) 0.7535(2) 0.35295(18)
O4 O 0.57296(8) 0.4200(2) 0.43211(16)
H3 H 0.6050 0.3692 0.4522
C1 C 0.20548(13) 0.2976(3) 0.1566(3)
C2 C 0.26898(12) 0.3703(3) 0.2044(3)
H4 H 0.2796 0.4225 0.2774
H5 H 0.2689 0.4491 0.1506
C3 C 0.31687(12) 0.2454(3) 0.2235(3)
H6 H 0.3143 0.1641 0.2732
H7 H 0.3062 0.1969 0.1494
C4 C 0.38293(12) 0.3024(3) 0.2768(2)
C5 C 0.43127(12) 0.1791(3) 0.3004(3)
H8 H 0.4466 0.1895 0.2456
H9 H 0.4133 0.0763 0.2931
H10 H 0.4651 0.1924 0.3776
C6 C 0.47095(13) 0.6478(4) 0.3649(2)
C7 C 0.53770(12) 0.6864(3) 0.4048(2)
C8 C 0.58579(12) 0.5776(3) 0.4357(2)
C9 C 0.64610(13) 0.6295(4) 0.4698(2)
H11 H 0.6779 0.5562 0.4897
C10 C 0.65900(15) 0.7874(4) 0.4743(3)
H12 H 0.6994 0.8208 0.4969
C11 C 0.61268(15) 0.8956(4) 0.4456(3)
H13 H 0.6215 1.0029 0.4492
C12 C 0.55293(13) 0.8455(3) 0.4115(2)
H14 H 0.5217 0.9205 0.3922
loop_
_geom_bond_atom_site_label_1
_geom_bond_atom_site_label_2
_geom_bond_site_symmetry_1
_geom_bond_site_symmetry_2
N1 N2 1_555 1_555
N2 H1 1_555 1_555
O1 H2 1_555 1_555
O2 C1 1_555 1_555
O3 C6 1_555 1_555
O4 H3 1_555 1_555
C1 O1 1_555 1_555
C2 C1 1_555 1_555
H4 C2 1_555 1_555
H5 C2 1_555 1_555
C3 C2 1_555 1_555
H6 C3 1_555 1_555
H7 C3 1_555 1_555
C4 N1 1_555 1_555
C5 C4 1_555 1_555
H8 C5 1_555 1_555
H9 C5 1_555 1_555
H10 C5 1_555 1_555
C6 N2 1_555 1_555
C7 C6 1_555 1_555
C8 O4 1_555 1_555
C9 C8 1_555 1_555
H11 C9 1_555 1_555
C10 C9 1_555 1_555
H12 C10 1_555 1_555
C11 C10 1_555 1_555
H13 C11 1_555 1_555
C12 C7 1_555 1_555
H14 C12 1_555 1_555
C3 C4 1_555 1_555
C7 C8 1_555 1_555
C11 C12 1_555 1_555

#END
