
#######################################################################
#
#                 Cambridge Crystallographic Data Centre
#                                CCDC 
#
#######################################################################
#
# If this CIF has been generated from an entry in the Cambridge 
# Structural Database, then it will include bibliographic, chemical, 
# crystal, experimental, refinement or atomic coordinate data resulting 
# from the CCDC's data processing and validation procedures.
#
#######################################################################

data_AZAFAK
_chemical_formula_moiety         '2(C12 H12 N2),2(C8 H3 Br2 O4 1-),Ca1 2+'
_chemical_name_systematic        
"calcium bis(5,5'-dimethyl-2,2'-bipyridine) bis(2,5-dibromo-4-carboxybenzoate)"
_symmetry_cell_setting           orthorhombic
_symmetry_space_group_name_H-M   'P n n n'
_symmetry_Int_Tables_number      48
_space_group_name_Hall           '-P 2ab 2bc'
loop_
_symmetry_equiv_pos_site_id
_symmetry_equiv_pos_as_xyz
1 x,y,z
2 1/2-x,1/2-y,z
3 1/2-x,y,1/2-z
4 x,1/2-y,1/2-z
5 -x,-y,-z
6 1/2+x,1/2+y,-z
7 1/2+x,-y,1/2+z
8 -x,1/2+y,1/2+z
_cell_length_a                   11.0693(5)
_cell_length_b                   12.9647(3)
_cell_length_c                   13.6267(4)
_cell_angle_alpha                90
_cell_angle_beta                 90
_cell_angle_gamma                90
_cell_volume                     1955.57
_exptl_crystal_colour            colorless
_exptl_crystal_description       plate
_cell_formula_units_Z            2
loop_
_atom_site_label
_atom_site_type_symbol
_atom_site_fract_x
_atom_site_fract_y
_atom_site_fract_z
Br1 Br 0.55011(6) 0.11477(3) 0.70840(3)
O1 O 0.4143(2) 0.13491(17) 0.27406(17)
C1 C 0.5278(3) 0.1029(2) 0.5040(3)
H1 H 0.5468 0.1727 0.5080
O2 O 0.6004(2) 0.1837(2) 0.3153(2)
C2 C 0.5235(3) 0.0448(2) 0.5887(2)
C3 C 0.5048(3) 0.1303(2) 0.3259(2)
C4 C 0.5045(3) 0.0598(2) 0.4137(2)
Br1D Br 0.44989(6) -0.11477(3) 0.29160(3)
O1D O 0.5857(2) -0.13491(17) 0.72594(17)
C1D C 0.4722(3) -0.1029(2) 0.4960(3)
H1D H 0.4532 -0.1727 0.4920
O2D O 0.3996(2) -0.1837(2) 0.6847(2)
C2D C 0.4765(3) -0.0448(2) 0.4113(2)
C3D C 0.4952(3) -0.1303(2) 0.6741(2)
C4D C 0.4955(3) -0.0598(2) 0.5863(2)
Ca1 Ca 0.2500 0.2500 0.2500
N1 N 0.2089(3) 0.3474(2) 0.0778(2)
C5 C 0.1694(3) 0.5096(3) -0.0015(3)
C6 C 0.2314(3) 0.3053(2) -0.0094(2)
C7 C 0.1792(3) 0.4477(3) 0.0800(3)
H2 H 0.1642 0.4774 0.1410
C8 C 0.2216(4) 0.3617(3) -0.0950(3)
H3 H 0.2357 0.3306 -0.1554
C9 C 0.1905(4) 0.4648(3) -0.0901(3)
H4 H 0.1841 0.5036 -0.1473
C10 C 0.1384(4) 0.6226(3) 0.0082(4)
H5 H 0.0525 0.6303 0.0147
H6 H 0.1655 0.6589 -0.0491
H7 H 0.1776 0.6505 0.0652
N1A N 0.2911(3) 0.1526(2) 0.0778(2)
C5A C 0.3306(3) -0.0096(3) -0.0015(3)
C6A C 0.2686(3) 0.1947(2) -0.0094(2)
C7A C 0.3208(3) 0.0523(3) 0.0800(3)
H2A H 0.3358 0.0226 0.1410
C8A C 0.2784(4) 0.1383(3) -0.0950(3)
H3A H 0.2643 0.1694 -0.1554
C9A C 0.3095(4) 0.0352(3) -0.0901(3)
H4A H 0.3159 -0.0036 -0.1473
C10A C 0.3616(4) -0.1226(3) 0.0082(4)
H5A H 0.4475 -0.1303 0.0147
H6A H 0.3345 -0.1589 -0.0491
H7A H 0.3224 -0.1505 0.0652
H8? H 0.603(9) 0.2500 0.2500
loop_
_geom_bond_atom_site_label_1
_geom_bond_atom_site_label_2
_geom_bond_site_symmetry_1
_geom_bond_site_symmetry_2
Br1 C2 1_555 1_555
O1 C3 1_555 1_555
C1 H1 1_555 1_555
O2 C3 1_555 1_555
C2 C1 1_555 1_555
C3 C4 1_555 1_555
C4 C1 1_555 1_555
N1 C6 1_555 1_555
C5 C7 1_555 1_555
C6 C8 1_555 1_555
C7 N1 1_555 1_555
H2 C7 1_555 1_555
C8 H3 1_555 1_555
C9 C5 1_555 1_555
H4 C9 1_555 1_555
C10 C5 1_555 1_555
H5 C10 1_555 1_555
H6 C10 1_555 1_555
H7 C10 1_555 1_555
Br1D C2D 1_555 1_555
O1D C3D 1_555 1_555
C1D H1D 1_555 1_555
O2D C3D 1_555 1_555
C2D C4 1_555 1_555
C3D C4D 1_555 1_555
C4D C2 1_555 1_555
N1A C6A 1_555 1_555
C5A C7A 1_555 1_555
C6A C6 1_555 1_555
C7A N1A 1_555 1_555
H2A C7A 1_555 1_555
C8A C6A 1_555 1_555
H3A C8A 1_555 1_555
C9A C5A 1_555 1_555
H4A C9A 1_555 1_555
C10A C5A 1_555 1_555
H5A C10A 1_555 1_555
H6A C10A 1_555 1_555
H7A C10A 1_555 1_555
C8 C9 1_555 1_555
C1D C2D 1_555 1_555
C1D C4D 1_555 1_555
C8A C9A 1_555 1_555

#END
