
#######################################################################
#
#                 Cambridge Crystallographic Data Centre
#                                CCDC 
#
#######################################################################
#
# If this CIF has been generated from an entry in the Cambridge 
# Structural Database, then it will include bibliographic, chemical, 
# crystal, experimental, refinement or atomic coordinate data resulting 
# from the CCDC's data processing and validation procedures.
#
#######################################################################

data_AZAHUF
_chemical_formula_moiety         'C20 H23 N3 O3 S3'
_chemical_name_systematic        
N-((2S)-3-Hydroxy-4-[(5-methyl-1,3,4-thiadiazol-2-yl)sulfanyl]-1-phenyl-2-butyl)-4-methylbenzenesulfonamide
_symmetry_cell_setting           orthorhombic
_symmetry_space_group_name_H-M   'P 21 21 21'
_symmetry_Int_Tables_number      19
_space_group_name_Hall           'P 2ac 2ab'
loop_
_symmetry_equiv_pos_site_id
_symmetry_equiv_pos_as_xyz
1 x,y,z
2 1/2-x,-y,1/2+z
3 1/2+x,1/2-y,-z
4 -x,1/2+y,1/2-z
_cell_length_a                   5.0420(2)
_cell_length_b                   18.4840(8)
_cell_length_c                   22.9650(8)
_cell_angle_alpha                90
_cell_angle_beta                 90
_cell_angle_gamma                90
_cell_volume                     2140.25
_exptl_crystal_colour            colorless
_exptl_crystal_description       needle
_cell_formula_units_Z            4
loop_
_atom_site_label
_atom_site_type_symbol
_atom_site_fract_x
_atom_site_fract_y
_atom_site_fract_z
S1 S 0.1474(5) 0.17021(13) 0.05038(10)
S2 S 0.3692(5) 0.07316(15) 0.14153(11)
S3 S 0.2827(4) 0.01335(13) -0.18450(11)
O1 O -0.1857(12) 0.1270(3) -0.0645(3)
H1 H -0.23(2) 0.097(4) -0.039(3)
O2 O 0.1680(13) -0.0208(3) -0.2346(3)
O3 O 0.5507(12) 0.0390(4) -0.1872(3)
N1 N 0.5551(15) 0.0748(5) 0.0380(4)
N2 N 0.7075(16) 0.0234(4) 0.0689(4)
N3 N 0.0990(15) 0.0809(4) -0.1688(3)
H2 H -0.074(3) 0.078(5) -0.173(4)
C1 C 0.3774(19) 0.1027(5) 0.0713(4)
C2 C 0.632(2) 0.0174(5) 0.1215(4)
C3 C 0.757(2) -0.0339(6) 0.1642(5)
H3 H 0.6187 -0.0634 0.1825
H4 H 0.8512 -0.0063 0.1943
H5 H 0.8827 -0.0655 0.1438
C4 C 0.215(2) 0.1833(5) -0.0267(4)
H6 H 0.1495 0.2316 -0.0384
H7 H 0.4099 0.1829 -0.0326
C5 C 0.0909(18) 0.1267(5) -0.0661(4)
H8 H 0.1553 0.0778 -0.0539
C6 C 0.1811(18) 0.1406(5) -0.1295(4)
H9 H 0.3791 0.1436 -0.1299
C7 C 0.264(2) -0.0480(5) -0.1259(4)
C8 C 0.058(2) -0.0988(6) -0.1256(5)
H10 H -0.0527 -0.1045 -0.1587
C9 C 0.020(2) -0.1406(6) -0.0763(5)
H11 H -0.1215 -0.1746 -0.0750
C10 C 0.189(3) -0.1329(6) -0.0285(5)
C11 C 0.395(3) -0.0845(6) -0.0296(5)
H12 H 0.5110 -0.0797 0.0029
C12 C 0.431(2) -0.0421(6) -0.0799(5)
H13 H 0.5749 -0.0090 -0.0816
C13 C 0.135(4) -0.1739(7) 0.0276(6)
H14 H 0.2824 -0.1666 0.0546
H15 H 0.1159 -0.2255 0.0190
H16 H -0.0296 -0.1559 0.0452
C14 C 0.071(2) 0.2108(5) -0.1548(5)
H17 H -0.1230 0.2056 -0.1598
H18 H 0.1017 0.2504 -0.1265
C15 C 0.190(2) 0.2317(5) -0.2115(4)
C16 C 0.399(2) 0.2813(6) -0.2132(5)
H19 H 0.4615 0.3017 -0.1777
C17 C 0.519(2) 0.3018(6) -0.2654(5)
H20 H 0.6593 0.3359 -0.2655
C18 C 0.433(2) 0.2729(7) -0.3151(6)
H21 H 0.5146 0.2859 -0.3509
C19 C 0.227(3) 0.2243(6) -0.3145(5)
H22 H 0.1661 0.2042 -0.3501
C20 C 0.108(3) 0.2043(6) -0.2634(5)
H23 H -0.0348 0.1707 -0.2642
loop_
_geom_bond_atom_site_label_1
_geom_bond_atom_site_label_2
_geom_bond_site_symmetry_1
_geom_bond_site_symmetry_2
S1 C1 1_555 1_555
S2 C1 1_555 1_555
S3 O2 1_555 1_555
O1 H1 1_555 1_555
O3 S3 1_555 1_555
N1 N2 1_555 1_555
N2 C2 1_555 1_555
N3 S3 1_555 1_555
H2 N3 1_555 1_555
C1 N1 1_555 1_555
C2 S2 1_555 1_555
C3 C2 1_555 1_555
H3 C3 1_555 1_555
H4 C3 1_555 1_555
H5 C3 1_555 1_555
C4 S1 1_555 1_555
H6 C4 1_555 1_555
H7 C4 1_555 1_555
C5 O1 1_555 1_555
H8 C5 1_555 1_555
C6 N3 1_555 1_555
H9 C6 1_555 1_555
C7 S3 1_555 1_555
C8 C7 1_555 1_555
H10 C8 1_555 1_555
C9 C8 1_555 1_555
H11 C9 1_555 1_555
C10 C9 1_555 1_555
C11 C10 1_555 1_555
H12 C11 1_555 1_555
C12 C7 1_555 1_555
H13 C12 1_555 1_555
C13 C10 1_555 1_555
H14 C13 1_555 1_555
H15 C13 1_555 1_555
H16 C13 1_555 1_555
C14 C6 1_555 1_555
H17 C14 1_555 1_555
H18 C14 1_555 1_555
C15 C14 1_555 1_555
C16 C15 1_555 1_555
H19 C16 1_555 1_555
C17 C16 1_555 1_555
H20 C17 1_555 1_555
C18 C17 1_555 1_555
H21 C18 1_555 1_555
C19 C18 1_555 1_555
H22 C19 1_555 1_555
C20 C15 1_555 1_555
H23 C20 1_555 1_555
C4 C5 1_555 1_555
C5 C6 1_555 1_555
C11 C12 1_555 1_555
C19 C20 1_555 1_555

#END
