
#######################################################################
#
#                 Cambridge Crystallographic Data Centre
#                                CCDC 
#
#######################################################################
#
# If this CIF has been generated from an entry in the Cambridge 
# Structural Database, then it will include bibliographic, chemical, 
# crystal, experimental, refinement or atomic coordinate data resulting 
# from the CCDC's data processing and validation procedures.
#
#######################################################################

data_AZAKAP
_chemical_formula_moiety         'C15 H16 N2 O3'
_chemical_name_systematic        
N-(2-(1-methyl-2,5-dioxopyrrolidin-3-yl)-1-phenylvinyl)acetamide
_symmetry_cell_setting           monoclinic
_symmetry_space_group_name_H-M   'P 21/n'
_symmetry_Int_Tables_number      14
_space_group_name_Hall           '-P 2yn'
loop_
_symmetry_equiv_pos_site_id
_symmetry_equiv_pos_as_xyz
1 x,y,z
2 1/2-x,1/2+y,1/2-z
3 -x,-y,-z
4 1/2+x,1/2-y,1/2+z
_cell_length_a                   9.3103(8)
_cell_length_b                   4.8793(5)
_cell_length_c                   30.741(3)
_cell_angle_alpha                90
_cell_angle_beta                 96.596(8)
_cell_angle_gamma                90
_cell_volume                     1387.25
_exptl_crystal_colour            colorless
_exptl_crystal_description       needle
_cell_formula_units_Z            4
loop_
_atom_site_label
_atom_site_type_symbol
_atom_site_fract_x
_atom_site_fract_y
_atom_site_fract_z
O1 O 0.32029(18) 0.8897(3) 0.39367(6)
O2 O 0.3429(2) 0.6065(5) 0.28683(7)
O3 O 0.6260(2) 0.0981(5) 0.20831(6)
N1 N 0.41006(19) 0.4613(4) 0.39377(6)
H1 H 0.3927 0.2906 0.3978
N2 N 0.4752(2) 0.3868(5) 0.23968(6)
C1 C 0.7553(3) 0.8606(6) 0.40515(9)
H2 H 0.7787 0.8512 0.3766
C2 C 0.8381(3) 1.0211(7) 0.43554(11)
H3 H 0.9170 1.1171 0.4274
C3 C 0.8043(4) 1.0390(8) 0.47752(12)
H4 H 0.8601 1.1471 0.4979
C4 C 0.6891(4) 0.8989(8) 0.48959(10)
H5 H 0.6660 0.9125 0.5181
C5 C 0.6056(3) 0.7352(6) 0.45946(8)
H6 H 0.5273 0.6393 0.4681
C6 C 0.6381(2) 0.7139(5) 0.41665(7)
C7 C 0.5513(2) 0.5362(5) 0.38440(7)
C8 C 0.3029(3) 0.6410(5) 0.39666(7)
C9 C 0.1597(3) 0.5204(6) 0.40401(9)
H7 H 0.1264 0.6032 0.4293
H8 H 0.1701 0.3264 0.4085
H9 H 0.0910 0.5543 0.3789
C10 C 0.6017(3) 0.4338(5) 0.34910(7)
H10 H 0.6976 0.4727 0.3457
C11 C 0.5200(3) 0.2617(5) 0.31409(8)
H11 H 0.4550 0.1369 0.3274
C12 C 0.4332(3) 0.4400(6) 0.28041(8)
C13 C 0.5774(3) 0.1840(6) 0.24079(9)
C14 C 0.6179(3) 0.0966(6) 0.28682(8)
H12 H 0.7189 0.1363 0.2960
H13 H 0.6019 -0.0984 0.2900
C15 C 0.4132(3) 0.5226(7) 0.19984(9)
H14 H 0.3406 0.4071 0.1846
H15 H 0.4878 0.5575 0.1814
H16 H 0.3702 0.6928 0.2071
loop_
_geom_bond_atom_site_label_1
_geom_bond_atom_site_label_2
_geom_bond_site_symmetry_1
_geom_bond_site_symmetry_2
O1 C8 1_555 1_555
O2 C12 1_555 1_555
O3 C13 1_555 1_555
N1 H1 1_555 1_555
N2 C12 1_555 1_555
C1 H2 1_555 1_555
C2 C1 1_555 1_555
H3 C2 1_555 1_555
C3 C2 1_555 1_555
H4 C3 1_555 1_555
C4 C3 1_555 1_555
H5 C4 1_555 1_555
C5 C4 1_555 1_555
H6 C5 1_555 1_555
C6 C1 1_555 1_555
C7 N1 1_555 1_555
C8 N1 1_555 1_555
C9 C8 1_555 1_555
H7 C9 1_555 1_555
H8 C9 1_555 1_555
H9 C9 1_555 1_555
C10 C7 1_555 1_555
H10 C10 1_555 1_555
C11 C10 1_555 1_555
H11 C11 1_555 1_555
C12 C11 1_555 1_555
C13 N2 1_555 1_555
C14 C11 1_555 1_555
H12 C14 1_555 1_555
H13 C14 1_555 1_555
C15 N2 1_555 1_555
H14 C15 1_555 1_555
H15 C15 1_555 1_555
H16 C15 1_555 1_555
C5 C6 1_555 1_555
C6 C7 1_555 1_555
C13 C14 1_555 1_555

#END
