
#######################################################################
#
#                 Cambridge Crystallographic Data Centre
#                                CCDC 
#
#######################################################################
#
# If this CIF has been generated from an entry in the Cambridge 
# Structural Database, then it will include bibliographic, chemical, 
# crystal, experimental, refinement or atomic coordinate data resulting 
# from the CCDC's data processing and validation procedures.
#
#######################################################################

data_AZAKIW
_chemical_formula_moiety         'C10 H9 N1 O1'
_chemical_name_systematic        Spiro[cyclopropane-1,3'-indolin]-2'-one
_symmetry_cell_setting           orthorhombic
_symmetry_space_group_name_H-M   'P b c a'
_symmetry_Int_Tables_number      61
_space_group_name_Hall           '-P 2ac 2ab'
loop_
_symmetry_equiv_pos_site_id
_symmetry_equiv_pos_as_xyz
1 x,y,z
2 1/2-x,-y,1/2+z
3 -x,1/2+y,1/2-z
4 1/2+x,1/2-y,-z
5 -x,-y,-z
6 1/2+x,y,1/2-z
7 x,1/2-y,1/2+z
8 1/2-x,1/2+y,z
_cell_length_a                   7.4348(6)
_cell_length_b                   14.0589(11)
_cell_length_c                   15.6401(16)
_cell_angle_alpha                90
_cell_angle_beta                 90
_cell_angle_gamma                90
_cell_volume                     1634.78
_exptl_crystal_colour            colorless
_exptl_crystal_description       block
_cell_formula_units_Z            8
loop_
_atom_site_label
_atom_site_type_symbol
_atom_site_fract_x
_atom_site_fract_y
_atom_site_fract_z
N1 N 0.59216(19) 0.65349(11) 0.54786(9)
H1 H 0.6712 0.6798 0.5154
O1 O 0.38643(18) 0.77529(9) 0.55038(10)
C1 C 0.4374(2) 0.69564(13) 0.57235(12)
C2 C 0.3453(2) 0.62839(13) 0.63111(11)
C3 C 0.4605(2) 0.54356(12) 0.63342(11)
C4 C 0.6083(2) 0.56211(12) 0.58160(11)
C5 C 0.7419(3) 0.49602(16) 0.56891(13)
H2 H 0.8403 0.5091 0.5341
C6 C 0.7245(4) 0.40906(16) 0.60998(17)
H3 H 0.8131 0.3630 0.6029
C7 C 0.5787(4) 0.38995(16) 0.66098(17)
H4 H 0.5697 0.3311 0.6877
C8 C 0.4454(3) 0.45660(14) 0.67318(14)
H5 H 0.3468 0.4431 0.7077
C9 C 0.1417(2) 0.62741(16) 0.63580(14)
H6 H 0.0765 0.6704 0.5985
H7 H 0.0831 0.5668 0.6456
C10 C 0.2446(3) 0.66937(17) 0.70712(13)
H8 H 0.2490 0.6343 0.7605
H9 H 0.2424 0.7380 0.7134
loop_
_geom_bond_atom_site_label_1
_geom_bond_atom_site_label_2
_geom_bond_site_symmetry_1
_geom_bond_site_symmetry_2
N1 H1 1_555 1_555
O1 C1 1_555 1_555
C1 N1 1_555 1_555
C2 C1 1_555 1_555
C3 C2 1_555 1_555
C4 N1 1_555 1_555
C5 C4 1_555 1_555
H2 C5 1_555 1_555
C6 C5 1_555 1_555
H3 C6 1_555 1_555
C7 C6 1_555 1_555
H4 C7 1_555 1_555
C8 C3 1_555 1_555
H5 C8 1_555 1_555
C9 C2 1_555 1_555
H6 C9 1_555 1_555
H7 C9 1_555 1_555
C10 C2 1_555 1_555
H8 C10 1_555 1_555
H9 C10 1_555 1_555
C3 C4 1_555 1_555
C7 C8 1_555 1_555
C9 C10 1_555 1_555

#END
