
#######################################################################
#
#                 Cambridge Crystallographic Data Centre
#                                CCDC 
#
#######################################################################
#
# If this CIF has been generated from an entry in the Cambridge 
# Structural Database, then it will include bibliographic, chemical, 
# crystal, experimental, refinement or atomic coordinate data resulting 
# from the CCDC's data processing and validation procedures.
#
#######################################################################

data_AZAKOC
_chemical_formula_moiety         'C17 H11 N11'
_chemical_name_systematic        
2-(3-(6-(3-(Pyrazin-2-yl)-1H-1,2,4-triazol-5-yl)pyridin-2-yl)-1H-1,2,4-triazol-5-yl)pyrazine
_symmetry_cell_setting           monoclinic
_symmetry_space_group_name_H-M   'P 21/c'
_symmetry_Int_Tables_number      14
_space_group_name_Hall           '-P 2ybc'
loop_
_symmetry_equiv_pos_site_id
_symmetry_equiv_pos_as_xyz
1 x,y,z
2 -x,1/2+y,1/2-z
3 -x,-y,-z
4 x,1/2-y,1/2+z
_cell_length_a                   10.751(2)
_cell_length_b                   13.721(3)
_cell_length_c                   11.385(2)
_cell_angle_alpha                90
_cell_angle_beta                 102.57(3)
_cell_angle_gamma                90
_cell_volume                     1639.2
_exptl_crystal_colour            colorless
_exptl_crystal_description       prism
_cell_formula_units_Z            4
_exptl_crystal_recrystallization_method dimethylformamide/ethanol
loop_
_atom_site_label
_atom_site_type_symbol
_atom_site_fract_x
_atom_site_fract_y
_atom_site_fract_z
N1 N 0.80331(17) 0.04695(12) 0.48120(15)
N2 N 0.65636(17) 0.55996(12) 0.51910(15)
N3 N 0.74831(16) 0.30212(12) 0.54161(15)
N4 N 0.67651(19) 0.77043(13) 0.71611(16)
N5 N 0.73685(19) 0.56738(13) 0.71244(16)
H1 H 0.764(2) 0.5883(17) 0.791(2)
N6 N 0.75302(19) 0.47317(13) 0.68211(16)
C1 C 0.9825(2) -0.15553(16) 0.66349(19)
H2 H 1.0142 -0.1196 0.7328
C2 C 0.90635(19) -0.10896(14) 0.56482(18)
N7 N 0.91344(18) 0.04313(13) 0.67510(16)
C3 C 0.64501(19) 0.72112(15) 0.61304(18)
C4 C 0.6795(2) 0.61778(15) 0.61474(18)
N8 N 0.86523(18) 0.13308(13) 0.64512(17)
H3 H 0.887(2) 0.1853(17) 0.702(2)
C5 C 0.87349(19) -0.00581(14) 0.57292(18)
N9 N 0.86310(17) -0.15592(13) 0.46165(16)
N10 N 1.01117(18) -0.24929(13) 0.66175(17)
C6 C 0.6963(2) 0.38491(14) 0.48938(18)
C7 C 0.8012(2) 0.13480(15) 0.52990(18)
C8 C 0.7024(2) 0.47236(14) 0.56489(18)
C9 C 0.6893(2) 0.22266(16) 0.34824(19)
H4 H 0.6895 0.1666 0.3023
C10 C 0.6418(3) 0.86407(17) 0.7106(2)
H5 H 0.6623 0.9015 0.7802
C11 C 0.74258(19) 0.22300(14) 0.47064(18)
C12 C 0.8945(2) -0.25062(16) 0.4604(2)
H6 H 0.8673 -0.2861 0.3899
N11 N 0.54644(19) 0.85860(14) 0.50318(17)
C13 C 0.9652(2) -0.29676(16) 0.5592(2)
H7 H 0.9816 -0.3631 0.5548
C14 C 0.6359(2) 0.30832(16) 0.2967(2)
H8 H 0.5992 0.3110 0.2149
C15 C 0.5771(2) 0.90720(17) 0.6064(2)
H9 H 0.5541 0.9724 0.6081
C16 C 0.6376(2) 0.38988(15) 0.36799(19)
H10 H 0.5999 0.4476 0.3352
C17 C 0.5812(2) 0.76535(16) 0.5078(2)
H11 H 0.5619 0.7285 0.4377
loop_
_geom_bond_atom_site_label_1
_geom_bond_atom_site_label_2
_geom_bond_site_symmetry_1
_geom_bond_site_symmetry_2
N1 C5 1_555 1_555
N2 C4 1_555 1_555
N3 C6 1_555 1_555
N4 C3 1_555 1_555
N5 H1 1_555 1_555
N6 N5 1_555 1_555
C1 H2 1_555 1_555
C2 C1 1_555 1_555
N7 N8 1_555 1_555
C3 C4 1_555 1_555
C4 N5 1_555 1_555
N8 H3 1_555 1_555
C5 C2 1_555 1_555
N9 C2 1_555 1_555
N10 C1 1_555 1_555
C6 C8 1_555 1_555
C7 N1 1_555 1_555
C8 N2 1_555 1_555
C9 H4 1_555 1_555
C10 N4 1_555 1_555
H5 C10 1_555 1_555
C11 N3 1_555 1_555
C12 N9 1_555 1_555
H6 C12 1_555 1_555
N11 C15 1_555 1_555
C13 N10 1_555 1_555
H7 C13 1_555 1_555
C14 C9 1_555 1_555
H8 C14 1_555 1_555
C15 C10 1_555 1_555
H9 C15 1_555 1_555
C16 C6 1_555 1_555
H10 C16 1_555 1_555
C17 C3 1_555 1_555
H11 C17 1_555 1_555
N6 C8 1_555 1_555
N7 C5 1_555 1_555
N8 C7 1_555 1_555
C7 C11 1_555 1_555
C9 C11 1_555 1_555
C12 C13 1_555 1_555
N11 C17 1_555 1_555
C14 C16 1_555 1_555

#END
