
#######################################################################
#
#                 Cambridge Crystallographic Data Centre
#                                CCDC 
#
#######################################################################
#
# If this CIF has been generated from an entry in the Cambridge 
# Structural Database, then it will include bibliographic, chemical, 
# crystal, experimental, refinement or atomic coordinate data resulting 
# from the CCDC's data processing and validation procedures.
#
#######################################################################

data_AZAXIK
_chemical_name_common            "bis(nitrofurantoin) 2,2'-bipyridine"
_chemical_formula_moiety         '2(C8 H6 N4 O5),C10 H8 N2'
_chemical_name_systematic        
"1-(((5-nitro-2-furyl)methylene)amino)imidazolidine-2,4-dione 2,2'-bipyridine"
_symmetry_cell_setting           monoclinic
_symmetry_space_group_name_H-M   'P 21/c'
_symmetry_Int_Tables_number      14
_space_group_name_Hall           '-P 2ybc'
loop_
_symmetry_equiv_pos_site_id
_symmetry_equiv_pos_as_xyz
1 x,y,z
2 -x,1/2+y,1/2-z
3 -x,-y,-z
4 x,1/2-y,1/2+z
_cell_length_a                   6.6135(4)
_cell_length_b                   13.7714(9)
_cell_length_c                   14.4655(9)
_cell_angle_alpha                90
_cell_angle_beta                 100.1210(10)
_cell_angle_gamma                90
_cell_volume                     1296.98
_exptl_crystal_colour            red
_exptl_crystal_description       block
_cell_formula_units_Z            2
loop_
_atom_site_label
_atom_site_type_symbol
_atom_site_fract_x
_atom_site_fract_y
_atom_site_fract_z
O1 O 0.22861(14) -0.24348(6) 0.30665(5)
O2 O 0.39516(13) -0.11529(6) 0.60220(5)
O3 O 0.23263(15) 0.31669(6) 0.71993(6)
O4 O 0.10642(13) 0.45295(6) 0.65804(6)
O5 O 0.16961(11) 0.22934(5) 0.55699(5)
N1 N 0.22597(13) 0.04355(6) 0.49417(6)
N2 N 0.25455(14) -0.04591(6) 0.45895(6)
N3 N 0.33665(14) -0.20211(6) 0.46211(6)
H1 H 0.3839 -0.2576 0.4829
N4 N 0.15463(14) 0.36672(7) 0.65291(6)
C1 C 0.02572(16) 0.36082(7) 0.47756(7)
H2 H -0.0241 0.4234 0.4648
C2 C 0.11438(16) 0.32374(7) 0.56184(7)
C3 C 0.33612(15) -0.11978(7) 0.51850(7)
C4 C 0.11349(16) 0.20543(7) 0.46370(7)
C5 C 0.25378(16) -0.18470(7) 0.36996(7)
C6 C 0.14970(16) 0.10822(7) 0.43385(7)
H3 H 0.1177 0.0921 0.3705
C7 C 0.02567(16) 0.28321(7) 0.41305(7)
H4 H -0.0243 0.2849 0.3488
C8 C 0.19590(17) -0.07785(7) 0.36229(7)
H5 H 0.2722 -0.0435 0.3210
H6 H 0.0499 -0.0693 0.3400
C9 C 0.39290(17) 0.53907(8) 0.37619(7)
C10 C 0.47664(15) 0.48012(7) 0.45128(7)
C11 C 0.39284(17) 0.40321(8) 0.27372(7)
H7 H 0.3654 0.3750 0.2144
C12 C 0.35106(17) 0.50038(8) 0.28617(7)
H8 H 0.2960 0.5390 0.2352
C13 C 0.47682(17) 0.34881(8) 0.35213(7)
H9 H 0.5055 0.2837 0.3435
N5 N 0.51876(14) 0.38512(6) 0.43954(6)
H10 H 0.363(2) 0.6054(12) 0.3835(11)
C9B C 0.60710(17) 0.46093(8) 0.62381(7)
C10B C 0.52336(15) 0.51988(7) 0.54872(7)
C11B C 0.60716(17) 0.59679(8) 0.72628(7)
H7B H 0.6346 0.6250 0.7856
C12B C 0.64894(17) 0.49962(8) 0.71383(7)
H8B H 0.7040 0.4610 0.7648
C13B C 0.52318(17) 0.65119(8) 0.64787(7)
H9B H 0.4945 0.7163 0.6565
N5B N 0.48124(14) 0.61488(6) 0.56046(6)
H10B H 0.637(2) 0.3946(12) 0.6165(11)
loop_
_geom_bond_atom_site_label_1
_geom_bond_atom_site_label_2
_geom_bond_site_symmetry_1
_geom_bond_site_symmetry_2
O1 C5 1_555 1_555
O2 C3 1_555 1_555
O3 N4 1_555 1_555
O4 N4 1_555 1_555
O5 C2 1_555 1_555
N1 N2 1_555 1_555
N2 C3 1_555 1_555
N3 H1 1_555 1_555
N4 C2 1_555 1_555
C1 H2 1_555 1_555
C2 C1 1_555 1_555
C3 N3 1_555 1_555
C4 O5 1_555 1_555
C5 N3 1_555 1_555
C6 N1 1_555 1_555
H3 C6 1_555 1_555
C7 C1 1_555 1_555
H4 C7 1_555 1_555
C8 N2 1_555 1_555
H5 C8 1_555 1_555
H6 C8 1_555 1_555
C9 C10 1_555 1_555
C10 N5 1_555 1_555
C11 H7 1_555 1_555
C12 C9 1_555 1_555
H8 C12 1_555 1_555
C13 C11 1_555 1_555
H9 C13 1_555 1_555
N5 C13 1_555 1_555
H10 C9 1_555 1_555
C9B C10B 1_555 1_555
C10B C10 1_555 1_555
C11B H7B 1_555 1_555
C12B C9B 1_555 1_555
H8B C12B 1_555 1_555
C13B C11B 1_555 1_555
H9B C13B 1_555 1_555
N5B C10B 1_555 1_555
H10B C9B 1_555 1_555
C4 C6 1_555 1_555
C4 C7 1_555 1_555
C5 C8 1_555 1_555
C11 C12 1_555 1_555
C11B C12B 1_555 1_555
C13B N5B 1_555 1_555

#END
