
#######################################################################
#
#                 Cambridge Crystallographic Data Centre
#                                CCDC 
#
#######################################################################
#
# If this CIF has been generated from an entry in the Cambridge 
# Structural Database, then it will include bibliographic, chemical, 
# crystal, experimental, refinement or atomic coordinate data resulting 
# from the CCDC's data processing and validation procedures.
#
#######################################################################

data_AZAXOQ
_chemical_name_common            'nitrofurantoin 1,10-phenanthroline'
_chemical_formula_moiety         'C8 H6 N4 O5,C12 H8 N2'
_chemical_name_systematic        
'1-(((5-nitro-2-furyl)methylene)amino)imidazolidine-2,4-dione 1,10-phenanthroline'
_symmetry_cell_setting           triclinic
_symmetry_space_group_name_H-M   'P -1'
_symmetry_Int_Tables_number      2
_space_group_name_Hall           '-P 1'
loop_
_symmetry_equiv_pos_site_id
_symmetry_equiv_pos_as_xyz
1 x,y,z
2 -x,-y,-z
_cell_length_a                   5.4793(4)
_cell_length_b                   10.9784(7)
_cell_length_c                   15.0993(10)
_cell_angle_alpha                97.5680(10)
_cell_angle_beta                 91.8940(10)
_cell_angle_gamma                93.1470(10)
_cell_volume                     898.268
_exptl_crystal_colour            'dark green'
_exptl_crystal_description       block
_cell_formula_units_Z            2
loop_
_atom_site_label
_atom_site_type_symbol
_atom_site_fract_x
_atom_site_fract_y
_atom_site_fract_z
O1 O 0.66745(17) 1.12906(8) 0.49508(6)
O2 O 0.33872(17) 1.13544(9) 0.41063(7)
O3 O 0.18450(15) 0.48242(8) -0.10769(5)
O4 O 0.46674(14) 0.94806(7) 0.29813(5)
O5 O -0.13935(15) 0.83107(8) 0.02864(6)
N1 N 0.53458(18) 1.09274(9) 0.42803(6)
N2 N -0.01744(16) 0.65744(9) -0.06048(6)
H1 H -0.1305 0.6508 -0.1020
N3 N 0.28587(17) 0.81037(9) 0.13524(6)
N4 N 0.21307(17) 0.73379(9) 0.05957(6)
C1 C 0.4895(2) 0.78589(10) 0.17207(7)
H2 H 0.5718 0.7193 0.1461
C2 C 0.33204(19) 0.62521(10) 0.02204(7)
H3 H 0.3413 0.5660 0.0642
H4 H 0.4953 0.6462 0.0037
C3 C 0.5939(2) 0.85814(10) 0.25209(7)
C4 C 0.8340(2) 0.93948(11) 0.36996(8)
H5 H 0.9635 0.9565 0.4120
C5 C 0.16316(19) 0.57683(10) -0.05755(7)
C6 C 0.6187(2) 0.99483(10) 0.36863(7)
C7 C 0.00209(19) 0.75181(10) 0.01145(7)
C8 C 0.8174(2) 0.85051(11) 0.29345(8)
H6 H 0.9362 0.7966 0.2746
N5 N 0.29054(17) 0.45805(9) 0.22876(6)
N6 N 0.47363(18) 0.24491(9) 0.15253(6)
C9 C 0.5839(2) 0.30246(10) 0.22969(7)
C10 C 0.7905(2) 0.25840(11) 0.27075(8)
C11 C 0.4825(2) 0.41413(10) 0.27133(7)
C12 C 0.5862(2) 0.47294(11) 0.35404(7)
C13 C 0.5680(2) 0.14284(11) 0.11487(8)
H7 H 0.4902 0.1011 0.0631
C14 C 0.2883(2) 0.62418(11) 0.35014(8)
H8 H 0.2164 0.6949 0.3750
C15 C 0.8900(2) 0.32026(13) 0.35483(8)
H9 H 1.0249 0.2902 0.3820
C16 C 0.7788(2) 0.09409(11) 0.14856(9)
H10 H 0.8408 0.0236 0.1187
C17 C 0.7895(2) 0.42187(13) 0.39491(8)
H11 H 0.8536 0.4594 0.4502
C18 C 0.4841(2) 0.58134(11) 0.39281(8)
H12 H 0.5489 0.6233 0.4467
C19 C 0.1982(2) 0.55922(11) 0.26824(8)
H13 H 0.0652 0.5892 0.2399
C20 C 0.8906(2) 0.15258(11) 0.22627(9)
H14 H 1.0314 0.1228 0.2495
loop_
_geom_bond_atom_site_label_1
_geom_bond_atom_site_label_2
_geom_bond_site_symmetry_1
_geom_bond_site_symmetry_2
O1 N1 1_555 1_555
O2 N1 1_555 1_555
O3 C5 1_555 1_555
O4 C3 1_555 1_555
O5 C7 1_555 1_555
N1 C6 1_555 1_555
N2 H1 1_555 1_555
N3 N4 1_555 1_555
N4 C2 1_555 1_555
C1 N3 1_555 1_555
H2 C1 1_555 1_555
C2 H3 1_555 1_555
H4 C2 1_555 1_555
C3 C1 1_555 1_555
C4 H5 1_555 1_555
C5 N2 1_555 1_555
C6 O4 1_555 1_555
C7 N2 1_555 1_555
C8 C3 1_555 1_555
H6 C8 1_555 1_555
N5 C11 1_555 1_555
N6 C9 1_555 1_555
C9 C10 1_555 1_555
C10 C15 1_555 1_555
C11 C9 1_555 1_555
C12 C11 1_555 1_555
C13 N6 1_555 1_555
H7 C13 1_555 1_555
C14 H8 1_555 1_555
C15 H9 1_555 1_555
C16 C13 1_555 1_555
H10 C16 1_555 1_555
C17 C12 1_555 1_555
H11 C17 1_555 1_555
C18 C12 1_555 1_555
H12 C18 1_555 1_555
C19 N5 1_555 1_555
H13 C19 1_555 1_555
C20 C10 1_555 1_555
H14 C20 1_555 1_555
N4 C7 1_555 1_555
C2 C5 1_555 1_555
C4 C6 1_555 1_555
C4 C8 1_555 1_555
C14 C18 1_555 1_555
C14 C19 1_555 1_555
C15 C17 1_555 1_555
C16 C20 1_555 1_555

#END
