
#######################################################################
#
#                 Cambridge Crystallographic Data Centre
#                                CCDC 
#
#######################################################################
#
# If this CIF has been generated from an entry in the Cambridge 
# Structural Database, then it will include bibliographic, chemical, 
# crystal, experimental, refinement or atomic coordinate data resulting 
# from the CCDC's data processing and validation procedures.
#
#######################################################################

data_AZECUF
_chemical_formula_moiety         
'3(C16 H18 N1 O1 1+),C10 H6 O2,3(Cl1 O4 1-),0.25(H2 O1)'
_chemical_name_systematic        
'1-ethyl-4-(2-(4-methoxyphenyl)vinyl)pyridinium perchlorate naphthalene-2,7-diol hydrate'
_symmetry_cell_setting           monoclinic
_symmetry_space_group_name_H-M   'P 21/n'
_symmetry_Int_Tables_number      14
_space_group_name_Hall           '-P 2yn'
loop_
_symmetry_equiv_pos_site_id
_symmetry_equiv_pos_as_xyz
1 x,y,z
2 1/2-x,1/2+y,1/2-z
3 -x,-y,-z
4 1/2+x,1/2-y,1/2+z
_cell_length_a                   13.5464(17)
_cell_length_b                   31.004(4)
_cell_length_c                   13.4411(18)
_cell_angle_alpha                90
_cell_angle_beta                 97.141(4)
_cell_angle_gamma                90
_cell_volume                     5601.37
_exptl_crystal_colour            yellow
_exptl_crystal_description       plate
_cell_formula_units_Z            4
loop_
_atom_site_label
_atom_site_type_symbol
_atom_site_fract_x
_atom_site_fract_y
_atom_site_fract_z
Cl1 Cl 0.40119(14) 0.35996(6) 0.71696(14)
O1 O 0.3634(4) 0.31879(16) 0.6782(4)
O2 O 0.3469(4) 0.39241(16) 0.6593(4)
O3 O 0.5042(4) 0.36358(19) 0.7057(5)
O4 O 0.3858(4) 0.36384(18) 0.8202(4)
Cl2 Cl 0.23092(15) 0.06001(7) 0.91921(15)
O5 O 0.2977(6) 0.0870(2) 0.8748(6)
O6 O 0.1749(14) 0.0834(5) 0.9902(14)
O7 O 0.1603(11) 0.0393(6) 0.8455(10)
O8 O 0.2895(10) 0.0250(5) 0.9735(13)
Cl3 Cl 0.10916(16) 0.43626(7) 1.04056(17)
O12 O 0.0424(4) 0.45388(18) 0.9608(5)
O13 O 0.1800(4) 0.41032(19) 0.9990(5)
O14 O 0.1568(5) 0.4695(2) 1.0989(5)
O15 O 0.0500(6) 0.4107(2) 1.1021(6)
O16 O 0.0599(4) 0.43769(19) 0.6832(4)
N1 N -0.0535(4) 0.09766(18) 0.6057(4)
C1 C 0.0201(6) 0.1075(3) 0.6798(6)
H1 H 0.0548 0.0848 0.7168
C2 C 0.0459(6) 0.1498(2) 0.7028(5)
H2 H 0.0976 0.1556 0.7556
C3 C -0.0016(5) 0.1834(2) 0.6509(5)
C4 C -0.0801(5) 0.1727(3) 0.5737(5)
H3 H -0.1160 0.1946 0.5354
C5 C -0.1021(6) 0.1306(2) 0.5565(6)
H4 H -0.1555 0.1238 0.5062
C6 C 0.0252(6) 0.2271(3) 0.6752(6)
H5 H 0.0790 0.2322 0.7262
C7 C -0.0212(6) 0.2608(3) 0.6302(6)
H6 H -0.0753 0.2547 0.5802
C8 C 0.0026(5) 0.3076(2) 0.6494(5)
C9 C -0.0572(5) 0.3386(3) 0.6002(6)
H7 H -0.1138 0.3299 0.5557
C10 C -0.0372(6) 0.3819(3) 0.6138(6)
H8 H -0.0798 0.4030 0.5799
C11 C 0.0454(6) 0.3941(3) 0.6772(6)
C12 C 0.1045(6) 0.3649(3) 0.7304(6)
H9 H 0.1590 0.3741 0.7769
C13 C 0.0849(5) 0.3218(3) 0.7166(5)
H10 H 0.1271 0.3011 0.7527
C14 C 0.1538(7) 0.4532(3) 0.7431(7)
H11 H 0.1552 0.4848 0.7427
H12 H 0.2113 0.4420 0.7134
H13 H 0.1565 0.4428 0.8122
C15 C -0.0842(7) 0.0522(3) 0.5838(7)
H14 H -0.1518 0.0475 0.6025
H15 H -0.0380 0.0325 0.6246
C16 C -0.0839(7) 0.0419(3) 0.4745(8)
H16 H -0.1035 0.0117 0.4622
H17 H -0.0169 0.0464 0.4559
H18 H -0.1310 0.0608 0.4340
O17 O 0.2129(4) 0.06676(15) 0.5298(4)
N2 N 0.0867(6) 0.40267(19) 0.4128(6)
C17 C 0.0304(7) 0.3764(3) 0.3564(7)
H19 H -0.0200 0.3886 0.3093
C18 C 0.0380(6) 0.3335(3) 0.3595(6)
H20 H -0.0034 0.3156 0.3144
C19 C 0.1089(6) 0.3161(2) 0.4315(6)
C20 C 0.1691(5) 0.3427(2) 0.4902(5)
H21 H 0.2182 0.3309 0.5392
C21 C 0.1608(6) 0.3854(3) 0.4804(6)
H22 H 0.2059 0.4038 0.5200
C22 C 0.1143(6) 0.2688(3) 0.4346(7)
H23 H 0.0700 0.2530 0.3876
C23 C 0.1777(6) 0.2464(3) 0.4996(6)
H24 H 0.2211 0.2632 0.5452
C24 C 0.1889(5) 0.2007(2) 0.5095(5)
C25 C 0.2607(5) 0.1821(2) 0.5773(5)
H25 H 0.3032 0.2005 0.6198
C26 C 0.2743(5) 0.1380(2) 0.5871(5)
H26 H 0.3267 0.1266 0.6331
C27 C 0.2087(5) 0.1101(2) 0.5272(5)
C28 C 0.1370(5) 0.1279(2) 0.4576(5)
H27 H 0.0943 0.1094 0.4154
C29 C 0.1259(5) 0.1718(2) 0.4478(5)
H28 H 0.0755 0.1830 0.3993
C30 C 0.2922(7) 0.0475(3) 0.5970(7)
H29 H 0.2877 0.0160 0.5919
H30 H 0.2862 0.0564 0.6660
H31 H 0.3565 0.0571 0.5787
C31 C 0.0562(12) 0.4504(4) 0.4239(12)
H32 H -0.0162 0.4528 0.4270
H33 H 0.0921 0.4631 0.4857
C32 C 0.0825(14) 0.4720(4) 0.3377(13)
H34 H 0.0649 0.5025 0.3407
H35 H 0.0465 0.4590 0.2773
H36 H 0.1543 0.4692 0.3355
O18 O 0.3616(4) 0.43830(16) 0.3689(4)
N3 N 0.2933(4) 0.09639(18) 0.2709(5)
C35 C 0.3652(6) 0.1069(3) 0.3416(5)
H42 H 0.4035 0.0846 0.3763
C36 C 0.3867(5) 0.1487(2) 0.3667(5)
H43 H 0.4393 0.1552 0.4181
C37 C 0.3316(5) 0.1822(2) 0.3174(5)
C38 C 0.2542(5) 0.1693(2) 0.2425(5)
H44 H 0.2133 0.1906 0.2072
C39 C 0.2380(5) 0.1272(2) 0.2209(5)
H45 H 0.1868 0.1193 0.1694
C40 C 0.3526(5) 0.2271(2) 0.3457(6)
H46 H 0.4017 0.2324 0.4012
C41 C 0.3071(6) 0.2618(2) 0.2984(5)
H47 H 0.2562 0.2557 0.2450
C42 C 0.3268(5) 0.3073(2) 0.3198(5)
C43 C 0.2733(5) 0.3373(2) 0.2595(5)
H48 H 0.2266 0.3279 0.2052
C44 C 0.2873(5) 0.3814(2) 0.2777(5)
H49 H 0.2513 0.4021 0.2355
C45 C 0.3541(5) 0.3945(2) 0.3578(5)
C46 C 0.4085(5) 0.3645(2) 0.4173(5)
H50 H 0.4561 0.3737 0.4711
C47 C 0.3940(5) 0.3228(2) 0.3991(5)
H51 H 0.4309 0.3026 0.4419
C48 C 0.4220(6) 0.4551(2) 0.4554(6)
H52 H 0.4205 0.4867 0.4533
H53 H 0.4906 0.4451 0.4557
H54 H 0.3961 0.4451 0.5162
C49 C 0.2749(6) 0.0509(2) 0.2403(6)
H55 H 0.3279 0.0323 0.2749
H56 H 0.2763 0.0480 0.1672
C50 C 0.1743(8) 0.0365(3) 0.2672(8)
H57 H 0.1624 0.0065 0.2467
H58 H 0.1220 0.0549 0.2323
H59 H 0.1736 0.0391 0.3397
O19 O 0.3585(5) 0.2439(2) 0.7886(5)
H60 H 0.3689 0.2702 0.7799
O20 O 0.0172(5) 0.3273(2) 1.1193(5)
H61 H 0.0300 0.3515 1.0957
C51 C 0.2528(6) 0.2733(3) 0.8952(5)
H62 H 0.2714 0.3016 0.8777
C52 C 0.2942(6) 0.2392(3) 0.8541(6)
C53 C 0.2651(6) 0.1961(3) 0.8805(6)
C54 C 0.1999(5) 0.1903(2) 0.9458(6)
H63 H 0.1827 0.1618 0.9627
C55 C 0.1559(5) 0.2250(2) 0.9901(5)
C56 C 0.0866(6) 0.2197(3) 1.0581(6)
H64 H 0.0686 0.1912 1.0744
C57 C 0.0429(6) 0.2536(3) 1.1026(6)
C58 C 0.0669(6) 0.2961(3) 1.0750(6)
C59 C 0.1348(6) 0.3021(2) 1.0095(6)
H65 H 0.1513 0.3309 0.9936
C60 C 0.1821(6) 0.2682(3) 0.9639(5)
O23 O -0.0722(12) 0.0111(6) 0.2489(16)
O9? O 0.260(2) 0.0216(6) 0.931(3)
O10? O 0.1491(13) 0.0632(13) 0.8506(14)
O11? O 0.213(2) 0.0811(7) 1.0037(15)
C33? C 0.1055(17) 0.4490(5) 0.3753(18)
H37? H 0.1741 0.4588 0.3985
H38? H 0.0935 0.4508 0.3012
C34? C 0.028(2) 0.4752(6) 0.424(2)
H39? H 0.0329 0.5056 0.4062
H40? H 0.0411 0.4721 0.4974
H41? H -0.0386 0.4644 0.4007
O21? O 0.3043(14) 0.1669(8) 0.8346(15)
H66? H 0.2848 0.1427 0.8528
O22? O -0.0222(15) 0.2534(6) 1.1654(14)
H67? H -0.0348 0.2278 1.1802
loop_
_geom_bond_atom_site_label_1
_geom_bond_atom_site_label_2
_geom_bond_site_symmetry_1
_geom_bond_site_symmetry_2
Cl1 O1 1_555 1_555
O2 Cl1 1_555 1_555
O3 Cl1 1_555 1_555
O4 Cl1 1_555 1_555
Cl2 O5 1_555 1_555
O6 Cl2 1_555 1_555
O7 Cl2 1_555 1_555
O8 Cl2 1_555 1_555
Cl3 O12 1_555 1_555
O13 Cl3 1_555 1_555
O14 Cl3 1_555 1_555
O15 Cl3 1_555 1_555
O16 C11 1_555 1_555
N1 C1 1_555 1_555
C1 H1 1_555 1_555
C2 C1 1_555 1_555
H2 C2 1_555 1_555
C3 C2 1_555 1_555
C4 C3 1_555 1_555
H3 C4 1_555 1_555
C5 N1 1_555 1_555
H4 C5 1_555 1_555
C6 C3 1_555 1_555
H5 C6 1_555 1_555
C7 C6 1_555 1_555
H6 C7 1_555 1_555
C8 C7 1_555 1_555
C9 C8 1_555 1_555
H7 C9 1_555 1_555
C10 C9 1_555 1_555
H8 C10 1_555 1_555
C11 C10 1_555 1_555
C12 C11 1_555 1_555
H9 C12 1_555 1_555
C13 C8 1_555 1_555
H10 C13 1_555 1_555
C14 O16 1_555 1_555
H11 C14 1_555 1_555
H12 C14 1_555 1_555
H13 C14 1_555 1_555
C15 N1 1_555 1_555
H14 C15 1_555 1_555
H15 C15 1_555 1_555
C16 C15 1_555 1_555
H16 C16 1_555 1_555
H17 C16 1_555 1_555
H18 C16 1_555 1_555
O17 C27 1_555 1_555
N2 C17 1_555 1_555
C17 H19 1_555 1_555
C18 C17 1_555 1_555
H20 C18 1_555 1_555
C19 C18 1_555 1_555
C20 C19 1_555 1_555
H21 C20 1_555 1_555
C21 N2 1_555 1_555
H22 C21 1_555 1_555
C22 C19 1_555 1_555
H23 C22 1_555 1_555
C23 C22 1_555 1_555
H24 C23 1_555 1_555
C24 C23 1_555 1_555
C25 C24 1_555 1_555
H25 C25 1_555 1_555
C26 C25 1_555 1_555
H26 C26 1_555 1_555
C27 C26 1_555 1_555
C28 C27 1_555 1_555
H27 C28 1_555 1_555
C29 C24 1_555 1_555
H28 C29 1_555 1_555
C30 O17 1_555 1_555
H29 C30 1_555 1_555
H30 C30 1_555 1_555
H31 C30 1_555 1_555
C31 N2 1_555 1_555
H32 C31 1_555 1_555
H33 C31 1_555 1_555
C32 C31 1_555 1_555
H34 C32 1_555 1_555
H35 C32 1_555 1_555
H36 C32 1_555 1_555
O18 C45 1_555 1_555
N3 C35 1_555 1_555
C35 H42 1_555 1_555
C36 C35 1_555 1_555
H43 C36 1_555 1_555
C37 C36 1_555 1_555
C38 C37 1_555 1_555
H44 C38 1_555 1_555
C39 N3 1_555 1_555
H45 C39 1_555 1_555
C40 C37 1_555 1_555
H46 C40 1_555 1_555
C41 C40 1_555 1_555
H47 C41 1_555 1_555
C42 C41 1_555 1_555
C43 C42 1_555 1_555
H48 C43 1_555 1_555
C44 C43 1_555 1_555
H49 C44 1_555 1_555
C45 C44 1_555 1_555
C46 C45 1_555 1_555
H50 C46 1_555 1_555
C47 C42 1_555 1_555
H51 C47 1_555 1_555
C48 O18 1_555 1_555
H52 C48 1_555 1_555
H53 C48 1_555 1_555
H54 C48 1_555 1_555
C49 N3 1_555 1_555
H55 C49 1_555 1_555
H56 C49 1_555 1_555
C50 C49 1_555 1_555
H57 C50 1_555 1_555
H58 C50 1_555 1_555
H59 C50 1_555 1_555
O19 H60 1_555 1_555
O20 H61 1_555 1_555
C51 H62 1_555 1_555
C52 O19 1_555 1_555
C53 C52 1_555 1_555
C54 C53 1_555 1_555
H63 C54 1_555 1_555
C55 C54 1_555 1_555
C56 C55 1_555 1_555
H64 C56 1_555 1_555
C57 C56 1_555 1_555
C58 O20 1_555 1_555
C59 C58 1_555 1_555
H65 C59 1_555 1_555
C60 C51 1_555 1_555
C4 C5 1_555 1_555
C12 C13 1_555 1_555
C20 C21 1_555 1_555
C28 C29 1_555 1_555
C38 C39 1_555 1_555
C46 C47 1_555 1_555
C51 C52 1_555 1_555
C55 C60 1_555 1_555
C57 C58 1_555 1_555
C59 C60 1_555 1_555

#END
