
#######################################################################
#
#                 Cambridge Crystallographic Data Centre
#                                CCDC 
#
#######################################################################
#
# If this CIF has been generated from an entry in the Cambridge 
# Structural Database, then it will include bibliographic, chemical, 
# crystal, experimental, refinement or atomic coordinate data resulting 
# from the CCDC's data processing and validation procedures.
#
#######################################################################

data_AZECIR
_chemical_formula_moiety         '2(H4 N1 1+),C1 N6 O2 2-'
_chemical_name_systematic        'Diammonium 5-nitramino-1,2,4-tetrazoldiide'
_symmetry_cell_setting           monoclinic
_symmetry_space_group_name_H-M   'P 2/c'
_symmetry_Int_Tables_number      13
_space_group_name_Hall           '-P 2yc'
loop_
_symmetry_equiv_pos_site_id
_symmetry_equiv_pos_as_xyz
1 x,y,z
2 -x,y,1/2-z
3 -x,-y,-z
4 x,-y,1/2+z
_cell_length_a                   7.272(1)
_cell_length_b                   8.643(1)
_cell_length_c                   10.427(1)
_cell_angle_alpha                90
_cell_angle_beta                 93.20(1)
_cell_angle_gamma                90
_cell_volume                     654.335
_chemical_melting_point          'decomposes without melting at 240-250deg.C'
_cell_formula_units_Z            4
_exptl_crystal_recrystallization_method water
loop_
_atom_site_label
_atom_site_type_symbol
_atom_site_fract_x
_atom_site_fract_y
_atom_site_fract_z
C1 C 0.7498(2) -0.2883(1) 0.2645(1)
N1 N 0.8070(2) -0.3571(1) 0.1587(1)
N2 N 0.7890(2) -0.5094(1) 0.1825(1)
N3 N 0.7241(2) -0.5292(1) 0.2962(1)
N4 N 0.6985(2) -0.3917(1) 0.3510(1)
N5 N 0.7467(2) -0.1334(1) 0.3034(1)
N6 N 0.7502(2) -0.0288(1) 0.2166(1)
O1 O 0.7537(2) -0.0529(1) 0.09681(9)
O2 O 0.7479(1) 0.1127(1) 0.25392(9)
N7 N 0.5031(2) 0.2554(1) 0.4425(1)
H1 H 0.573(3) 0.321(2) 0.397(2)
H2 H 0.444(3) 0.312(2) 0.498(2)
H3 H 0.563(3) 0.185(2) 0.482(2)
H4 H 0.426(3) 0.202(2) 0.388(2)
N8 N 0.9923(2) 0.2383(1) 0.0522(1)
H5 H 0.932(3) 0.320(2) 0.088(2)
H6 H 1.052(3) 0.280(2) -0.011(2)
H7 H 1.071(3) 0.194(2) 0.112(2)
H8 H 0.923(3) 0.163(2) 0.027(2)
loop_
_geom_bond_atom_site_label_1
_geom_bond_atom_site_label_2
_geom_bond_site_symmetry_1
_geom_bond_site_symmetry_2
C1 N1 1_555 1_555
N1 N2 1_555 1_555
N2 N3 1_555 1_555
N3 N4 1_555 1_555
N4 C1 1_555 1_555
N5 C1 1_555 1_555
N6 N5 1_555 1_555
O1 N6 1_555 1_555
O2 N6 1_555 1_555
N7 H1 1_555 1_555
N8 H5 1_555 1_555
H2 N7 1_555 1_555
H3 N7 1_555 1_555
H4 N7 1_555 1_555
H6 N8 1_555 1_555
H7 N8 1_555 1_555
H8 N8 1_555 1_555

#END
