
#######################################################################
#
#                 Cambridge Crystallographic Data Centre
#                                CCDC 
#
#######################################################################
#
# If this CIF has been generated from an entry in the Cambridge 
# Structural Database, then it will include bibliographic, chemical, 
# crystal, experimental, refinement or atomic coordinate data resulting 
# from the CCDC's data processing and validation procedures.
#
#######################################################################

data_AZEDEQ
_chemical_formula_moiety         'C16 H18 N1 O1 1+,0.5(C10 H8 O2),Cl1 O4 1-'
_chemical_name_systematic        
'1-ethyl-4-(2-(4-methoxyphenyl)vinyl)pyridinium perchlorate hemikis(naphthalene-2,6-diol)'
_symmetry_cell_setting           triclinic
_symmetry_space_group_name_H-M   'P -1'
_symmetry_Int_Tables_number      2
_space_group_name_Hall           '-P 1'
loop_
_symmetry_equiv_pos_site_id
_symmetry_equiv_pos_as_xyz
1 x,y,z
2 -x,-y,-z
_cell_length_a                   7.2583(3)
_cell_length_b                   11.0679(4)
_cell_length_c                   12.8390(4)
_cell_angle_alpha                82.8560(10)
_cell_angle_beta                 77.0640(10)
_cell_angle_gamma                82.9920(10)
_cell_volume                     992.69
_exptl_crystal_colour            'light yellow'
_exptl_crystal_description       block
_cell_formula_units_Z            2
loop_
_atom_site_label
_atom_site_type_symbol
_atom_site_fract_x
_atom_site_fract_y
_atom_site_fract_z
O1 O 0.04300(18) 0.45112(10) 0.69862(9)
N1 N 0.38901(18) -0.28219(11) 1.27164(10)
C1 C 0.3549(2) -0.16260(13) 1.28913(13)
C2 C 0.3116(2) -0.07543(14) 1.21094(12)
C3 C 0.3007(2) -0.10829(13) 1.11017(12)
C4 C 0.3371(2) -0.23291(14) 1.09533(12)
C5 C 0.3811(2) -0.31707(14) 1.17580(13)
C6 C 0.2534(2) -0.02046(14) 1.02306(12)
C7 C 0.2166(2) 0.10040(14) 1.02799(13)
C8 C 0.1728(2) 0.19103(13) 0.94193(12)
C9 C 0.1454(2) 0.31496(14) 0.95840(13)
C10 C 0.1031(2) 0.40569(14) 0.87989(14)
C11 C 0.0873(2) 0.37159(13) 0.78168(13)
C12 C 0.1177(2) 0.24873(14) 0.76239(13)
C13 C 0.1591(2) 0.15976(14) 0.84132(12)
C14 C -0.0155(3) 0.57599(16) 0.71854(17)
C15 C 0.4362(2) -0.37442(14) 1.35887(13)
C16 C 0.2683(3) -0.38511(18) 1.45284(15)
H1 H 0.252(3) -0.0566(16) 0.9587(15)
H2 H 0.222(3) 0.1358(18) 1.0942(17)
H3 H 0.358(3) -0.1434(16) 1.3612(15)
H4 H 0.329(3) -0.2609(18) 1.0294(17)
H5 H 0.475(3) -0.4525(17) 1.3267(15)
H6 H 0.546(3) -0.3473(16) 1.3800(14)
H7 H 0.293(3) 0.0065(18) 1.2268(15)
H8 H -0.123(3) 0.5798(17) 0.7768(16)
H9 H 0.090(3) 0.4891(19) 0.8951(16)
H10 H 0.155(3) 0.3389(17) 1.0245(16)
H11 H 0.409(3) -0.3980(18) 1.1708(16)
H12 H 0.097(3) 0.2269(17) 0.6918(15)
H13 H 0.177(3) 0.0801(18) 0.8267(15)
H14 H -0.058(3) 0.615(2) 0.652(2)
H15 H 0.094(3) 0.616(2) 0.7296(18)
H16 H 0.294(3) -0.452(2) 1.506(2)
H17 H 0.236(3) -0.306(2) 1.4852(18)
H18 H 0.163(3) -0.409(2) 1.4341(18)
O2 O 0.57284(18) 0.82488(12) 0.49008(11)
C17 C 0.8334(2) 0.88014(14) 0.55689(12)
C18 C 0.7182(2) 0.89610(14) 0.48440(13)
C19 C 0.7461(2) 0.98770(15) 0.39671(13)
C20 C 1.1092(2) 0.93990(14) 0.61712(12)
C21 C 0.9850(2) 0.95437(13) 0.54421(11)
H19 H 0.814(3) 0.8176(16) 0.6151(15)
H20 H 0.662(2) 0.9990(16) 0.3498(15)
H21 H 1.089(3) 0.8780(18) 0.6755(16)
H22 H 0.556(3) 0.791(2) 0.5431(19)
O2A O 1.42716(18) 1.17512(12) 0.50992(11)
C17A C 1.1666(2) 1.11986(14) 0.44311(12)
C18A C 1.2818(2) 1.10390(14) 0.51560(13)
C19A C 1.2539(2) 1.01230(15) 0.60329(13)
C20A C 0.8908(2) 1.06010(14) 0.38288(12)
C21A C 1.0150(2) 1.04563(13) 0.45579(11)
H19A H 1.186(3) 1.1824(16) 0.3849(15)
H20A H 1.338(2) 1.0010(16) 0.6502(15)
H21A H 0.911(3) 1.1220(18) 0.3245(16)
H22A H 1.444(3) 1.209(2) 0.4569(19)
Cl1 Cl 0.43976(5) 0.71172(3) 0.79316(3)
O3 O 0.4648(11) 0.6870(5) 0.6800(4)
O4 O 0.4811(8) 0.6043(4) 0.8630(4)
O5 O 0.5624(7) 0.8019(4) 0.7947(3)
O6 O 0.2408(6) 0.7600(5) 0.8290(3)
O7? O 0.5021(8) 0.6673(5) 0.6864(4)
O8? O 0.4303(8) 0.6019(5) 0.8636(5)
O9? O 0.6087(7) 0.7738(4) 0.8020(4)
O10? O 0.2785(7) 0.7923(5) 0.8172(4)
O11? O 0.4405(10) 0.6718(7) 0.6899(5)
O12? O 0.5260(8) 0.6181(5) 0.8607(5)
O13? O 0.5060(8) 0.8277(5) 0.7877(4)
O14? O 0.2342(8) 0.7265(5) 0.8407(5)
loop_
_geom_bond_atom_site_label_1
_geom_bond_atom_site_label_2
_geom_bond_site_symmetry_1
_geom_bond_site_symmetry_2
O1 C11 1_555 1_555
N1 C1 1_555 1_555
C1 C2 1_555 1_555
C2 C3 1_555 1_555
C3 C4 1_555 1_555
C4 C5 1_555 1_555
C5 N1 1_555 1_555
C6 C3 1_555 1_555
C7 C6 1_555 1_555
C8 C7 1_555 1_555
C9 C8 1_555 1_555
C10 C9 1_555 1_555
C11 C10 1_555 1_555
C12 C11 1_555 1_555
C13 C8 1_555 1_555
C14 O1 1_555 1_555
C15 N1 1_555 1_555
C16 C15 1_555 1_555
H1 C6 1_555 1_555
H2 C7 1_555 1_555
H3 C1 1_555 1_555
H4 C4 1_555 1_555
H5 C15 1_555 1_555
H6 C15 1_555 1_555
H7 C2 1_555 1_555
H8 C14 1_555 1_555
H9 C10 1_555 1_555
H10 C9 1_555 1_555
H11 C5 1_555 1_555
H12 C12 1_555 1_555
H13 C13 1_555 1_555
H14 C14 1_555 1_555
H15 C14 1_555 1_555
H16 C16 1_555 1_555
H17 C16 1_555 1_555
H18 C16 1_555 1_555
O2 C18 1_555 1_555
C17 C18 1_555 1_555
C18 C19 1_555 1_555
C19 H20 1_555 1_555
C20 C21 1_555 1_555
C21 C17 1_555 1_555
H19 C17 1_555 1_555
H21 C20 1_555 1_555
H22 O2 1_555 1_555
Cl1 O3 1_555 1_555
O4 Cl1 1_555 1_555
O5 Cl1 1_555 1_555
O6 Cl1 1_555 1_555
O2A C18A 1_555 1_555
C17A C18A 1_555 1_555
C18A C19A 1_555 1_555
C19A C20 1_555 1_555
C20A C19 1_555 1_555
C21A C21 1_555 1_555
H19A C17A 1_555 1_555
H20A C19A 1_555 1_555
H21A C20A 1_555 1_555
H22A O2A 1_555 1_555
C12 C13 1_555 1_555
C17A C21A 1_555 1_555
C20A C21A 1_555 1_555

#END
