
#######################################################################
#
#                 Cambridge Crystallographic Data Centre
#                                CCDC 
#
#######################################################################
#
# If this CIF has been generated from an entry in the Cambridge 
# Structural Database, then it will include bibliographic, chemical, 
# crystal, experimental, refinement or atomic coordinate data resulting 
# from the CCDC's data processing and validation procedures.
#
#######################################################################

data_AZEDOA
_chemical_formula_moiety         
'C16 H18 N1 O1 1+,0.5(C10 H8 O2),Cl1 O4 1-,C2 H3 N1'
_chemical_name_systematic        
'1-Ethyl-4-(2-(4-methoxyphenyl)vinyl)pyridinium hemikis(1,5-dihydroxynaphthalene) perchlorate acetonitrile solvate'
_symmetry_cell_setting           triclinic
_symmetry_space_group_name_H-M   'P -1'
_symmetry_Int_Tables_number      2
_space_group_name_Hall           '-P 1'
loop_
_symmetry_equiv_pos_site_id
_symmetry_equiv_pos_as_xyz
1 x,y,z
2 -x,-y,-z
_cell_length_a                   7.3591(5)
_cell_length_b                   9.1287(6)
_cell_length_c                   17.2322(12)
_cell_angle_alpha                104.890(2)
_cell_angle_beta                 99.050(2)
_cell_angle_gamma                92.490(2)
_cell_volume                     1100.57
_exptl_crystal_colour            yellow
_exptl_crystal_description       block
_cell_formula_units_Z            2
loop_
_atom_site_label
_atom_site_type_symbol
_atom_site_fract_x
_atom_site_fract_y
_atom_site_fract_z
Cl1 Cl 0.66881(8) 0.17697(7) 0.40951(3)
O1 O 0.7899(4) 0.2661(3) 0.47933(14)
O2 O 0.7615(3) 0.1416(3) 0.34170(14)
O3 O 0.5126(3) 0.2563(3) 0.39021(15)
O4 O 0.6086(3) 0.0389(2) 0.42594(13)
O5 O 0.1336(3) 0.5483(2) 1.29374(10)
N1 N 0.3876(3) 0.3831(2) 0.68333(12)
C1 C 0.4138(3) 0.5285(3) 0.72946(16)
C2 C 0.3800(3) 0.5662(3) 0.80728(16)
C3 C 0.3154(3) 0.4543(3) 0.84192(15)
C4 C 0.2860(3) 0.3043(3) 0.79117(15)
C5 C 0.3234(4) 0.2724(3) 0.71396(16)
C6 C 0.2857(3) 0.4981(3) 0.92542(15)
C7 C 0.2311(3) 0.4012(3) 0.96569(15)
C8 C 0.2040(3) 0.4423(3) 1.05058(14)
C9 C 0.2297(3) 0.5912(3) 1.10155(15)
C10 C 0.2041(3) 0.6223(3) 1.18111(16)
C11 C 0.1504(3) 0.5041(3) 1.21359(14)
C12 C 0.1218(3) 0.3560(3) 1.16483(14)
C13 C 0.1485(3) 0.3268(3) 1.08448(15)
C14 C 0.0934(4) 0.4308(3) 1.33170(17)
C15 C 0.4224(4) 0.3444(4) 0.59732(16)
C16 C 0.2473(4) 0.3492(4) 0.53938(18)
H1 H 0.466(4) 0.603(3) 0.7037(16)
H2 H 0.393(4) 0.664(3) 0.8391(16)
H3 H 0.240(3) 0.222(3) 0.8104(15)
H4 H 0.307(4) 0.170(3) 0.6805(17)
H5 H 0.319(4) 0.605(3) 0.9532(16)
H6 H 0.210(4) 0.287(3) 0.9361(17)
H7 H 0.264(4) 0.672(3) 1.0785(17)
H8 H 0.219(4) 0.726(3) 1.2120(16)
H9 H 0.080(3) 0.275(3) 1.1878(15)
H10 H 0.128(3) 0.226(3) 1.0491(15)
H11 H 0.100(4) 0.479(3) 1.3913(18)
H12 H 0.522(4) 0.421(3) 0.6011(17)
H13 H 0.263(4) 0.321(3) 0.4807(18)
H14 H 0.187(4) 0.356(3) 1.3275(15)
H15 H -0.028(4) 0.378(3) 1.3094(17)
H16 H 0.458(5) 0.238(4) 0.584(2)
H17 H 0.218(4) 0.466(4) 0.553(2)
H18 H 0.137(6) 0.276(5) 0.547(3)
N2 N 0.8645(3) -0.0133(3) 0.74594(14)
C17 C 0.8626(3) 0.0071(3) 0.68401(15)
C18 C 0.8592(5) 0.0396(4) 0.60537(18)
H19 H 0.954(6) -0.036(5) 0.582(3)
H20 H 0.873(5) 0.154(5) 0.613(2)
H21 H 0.762(5) 0.019(4) 0.576(2)
O6 O 0.8115(2) 0.0333(2) 0.91073(11)
C19 C 0.5932(3) 0.0125(2) 0.99605(14)
C20 C 0.6304(3) 0.0080(3) 0.91610(15)
C21 C 0.4902(3) -0.0196(3) 0.85017(15)
H22 H 0.514(3) -0.028(3) 0.7995(16)
C22 C 0.3048(3) -0.0435(3) 0.86042(16)
H23 H 0.211(4) -0.063(3) 0.8150(15)
C23 C 0.2629(3) -0.0396(3) 0.93571(15)
H24 H 0.133(4) -0.045(3) 0.9447(16)
H25 H 0.820(5) 0.021(4) 0.857(2)
O6A O 0.1885(2) -0.0333(2) 1.08927(11)
C19A C 0.4068(3) -0.0125(2) 1.00395(14)
C20A C 0.3696(3) -0.0080(3) 1.08390(15)
C21A C 0.5098(3) 0.0196(3) 1.14983(15)
H22A H 0.486(3) 0.028(3) 1.2005(16)
C22A C 0.6952(3) 0.0435(3) 1.13958(16)
H23A H 0.789(4) 0.063(3) 1.1850(15)
C23A C 0.7371(3) 0.0396(3) 1.06429(15)
H24A H 0.867(4) 0.045(3) 1.0553(16)
H25A H 0.180(5) -0.021(4) 1.143(2)
loop_
_geom_bond_atom_site_label_1
_geom_bond_atom_site_label_2
_geom_bond_site_symmetry_1
_geom_bond_site_symmetry_2
Cl1 O1 1_555 1_555
O2 Cl1 1_555 1_555
O3 Cl1 1_555 1_555
O4 Cl1 1_555 1_555
O5 C11 1_555 1_555
N1 C1 1_555 1_555
C1 C2 1_555 1_555
C2 C3 1_555 1_555
C3 C4 1_555 1_555
C4 C5 1_555 1_555
C5 N1 1_555 1_555
C6 C3 1_555 1_555
C7 C6 1_555 1_555
C8 C7 1_555 1_555
C9 C8 1_555 1_555
C10 C9 1_555 1_555
C11 C10 1_555 1_555
C12 C11 1_555 1_555
C13 C8 1_555 1_555
C14 O5 1_555 1_555
C15 N1 1_555 1_555
C16 C15 1_555 1_555
H1 C1 1_555 1_555
H2 C2 1_555 1_555
H3 C4 1_555 1_555
H4 C5 1_555 1_555
H5 C6 1_555 1_555
H6 C7 1_555 1_555
H7 C9 1_555 1_555
H8 C10 1_555 1_555
H9 C12 1_555 1_555
H10 C13 1_555 1_555
H11 C14 1_555 1_555
H12 C15 1_555 1_555
H13 C16 1_555 1_555
H14 C14 1_555 1_555
H15 C14 1_555 1_555
H16 C15 1_555 1_555
H17 C16 1_555 1_555
H18 C16 1_555 1_555
N2 C17 1_555 1_555
C17 C18 1_555 1_555
C18 H19 1_555 1_555
H20 C18 1_555 1_555
H21 C18 1_555 1_555
O6 C20 1_555 1_555
C19 C20 1_555 1_555
C20 C21 1_555 1_555
C21 H22 1_555 1_555
C22 C21 1_555 1_555
H23 C22 1_555 1_555
C23 C22 1_555 1_555
H24 C23 1_555 1_555
H25 O6 1_555 1_555
O6A C20A 1_555 1_555
C19A C19 1_555 1_555
C20A C19A 1_555 1_555
C21A C20A 1_555 1_555
H22A C21A 1_555 1_555
C22A C21A 1_555 1_555
H23A C22A 1_555 1_555
C23A C19 1_555 1_555
H24A C23A 1_555 1_555
H25A O6A 1_555 1_555
C12 C13 1_555 1_555
C23 C19A 1_555 1_555
C22A C23A 1_555 1_555

#END
