
#######################################################################
#
#                 Cambridge Crystallographic Data Centre
#                                CCDC 
#
#######################################################################
#
# If this CIF has been generated from an entry in the Cambridge 
# Structural Database, then it will include bibliographic, chemical, 
# crystal, experimental, refinement or atomic coordinate data resulting 
# from the CCDC's data processing and validation procedures.
#
#######################################################################

data_AZEDAM
_chemical_formula_moiety         'C32 H36 N2 O2 2+,C10 H8 O2,2(Cl1 O4 1-)'
_chemical_name_systematic        
"4,4'-(2,4-bis(4-methoxyphenyl)cyclobutane-1,3-diyl)bis(1-ethylpyridinium) diperchlorate naphthalene-2,6-diol"
_symmetry_cell_setting           triclinic
_symmetry_space_group_name_H-M   'P -1'
_symmetry_Int_Tables_number      2
_space_group_name_Hall           '-P 1'
loop_
_symmetry_equiv_pos_site_id
_symmetry_equiv_pos_as_xyz
1 x,y,z
2 -x,-y,-z
_cell_length_a                   7.4052(12)
_cell_length_b                   11.9011(18)
_cell_length_c                   11.9464(18)
_cell_angle_alpha                83.762(5)
_cell_angle_beta                 76.214(4)
_cell_angle_gamma                83.384(5)
_cell_volume                     1012.09
_exptl_crystal_colour            'pale yellow'
_exptl_crystal_description       block
_cell_formula_units_Z            1
_exptl_crystal_preparation       'irradiated crystal'
loop_
_atom_site_label
_atom_site_type_symbol
_atom_site_fract_x
_atom_site_fract_y
_atom_site_fract_z
Cl1 Cl 0.5862(2) -0.17376(12) 0.21740(12)
O1 O 0.5538(14) -0.1042(9) 0.1210(8)
O2 O 0.7445(13) -0.1584(8) 0.2634(8)
O3 O 0.4133(12) -0.1542(8) 0.3132(7)
O4 O 0.5869(16) -0.2965(9) 0.2054(9)
O5 O 1.0439(7) 0.1262(5) 0.2128(5)
N1 N 0.6231(11) 0.8055(7) -0.3254(7)
C1 C 0.5780(10) 0.8407(7) -0.2165(7)
H1 H 0.5444 0.9188 -0.2052
C2 C 0.5815(10) 0.7620(7) -0.1222(7)
H2 H 0.5504 0.7881 -0.0470
C3 C 0.6280(10) 0.6476(8) -0.1328(6)
C4 C 0.6724(14) 0.6165(10) -0.2439(8)
H3 H 0.7071 0.5387 -0.2567
C5 C 0.6684(17) 0.6938(9) -0.3369(7)
H4 H 0.6985 0.6678 -0.4122
C6 C 0.5946(11) 0.5679(6) -0.0287(6)
C7 C 0.6192(10) 0.4390(6) -0.0375(5)
C8 C 0.7614(11) 0.3661(6) 0.0180(6)
C9 C 0.7928(11) 0.3857(6) 0.1241(7)
H5 H 0.7474 0.4569 0.1539
C10 C 0.8856(10) 0.3076(8) 0.1872(8)
H6 H 0.9001 0.3243 0.2604
C11 C 0.9598(9) 0.2026(7) 0.1448(7)
C12 C 0.9443(11) 0.1852(9) 0.0344(9)
H7 H 1.0009 0.1175 0.0003
C13 C 0.8453(12) 0.2675(7) -0.0262(7)
H8 H 0.8361 0.2540 -0.1015
C14 C 1.1045(12) 0.0147(8) 0.1726(8)
H9 H 1.1596 -0.0331 0.2303
H10 H 1.1979 0.0215 0.0993
H11 H 0.9971 -0.0197 0.1609
C15 C 0.6227(17) 0.8886(7) -0.4240(8)
H12 H 0.5430 0.9577 -0.3975
H13 H 0.5672 0.8573 -0.4802
C16 C 0.8108(15) 0.9202(9) -0.4825(8)
H14 H 0.8023 0.9756 -0.5485
H15 H 0.8902 0.8524 -0.5099
H16 H 0.8650 0.9537 -0.4281
H17 H 0.6642 0.5852 0.0257
H18 H 0.6375 0.4234 -0.1186
O5A O -0.0439(7) 0.8738(5) -0.2128(5)
N1A N 0.3769(11) 0.1945(7) 0.3254(7)
C1A C 0.4220(10) 0.1593(7) 0.2165(7)
H1A H 0.4556 0.0812 0.2052
C2A C 0.4185(10) 0.2380(7) 0.1222(7)
H2A H 0.4496 0.2119 0.0470
C3A C 0.3720(10) 0.3524(8) 0.1328(6)
C4A C 0.3276(14) 0.3835(10) 0.2439(8)
H3A H 0.2929 0.4613 0.2567
C5A C 0.3316(17) 0.3062(9) 0.3369(7)
H4A H 0.3015 0.3322 0.4122
C6A C 0.4054(11) 0.4321(6) 0.0287(6)
C7A C 0.3808(10) 0.5610(6) 0.0375(5)
C8A C 0.2386(11) 0.6339(6) -0.0180(6)
C9A C 0.2072(11) 0.6143(6) -0.1241(7)
H5A H 0.2526 0.5431 -0.1539
C10A C 0.1144(10) 0.6924(8) -0.1872(8)
H6A H 0.0999 0.6757 -0.2604
C11A C 0.0402(9) 0.7974(7) -0.1448(7)
C12A C 0.0557(11) 0.8148(9) -0.0344(9)
H7A H -0.0009 0.8825 -0.0003
C13A C 0.1547(12) 0.7325(7) 0.0262(7)
H8A H 0.1639 0.7460 0.1015
C14A C -0.1045(12) 0.9853(8) -0.1726(8)
H9A H -0.1596 1.0331 -0.2303
H10A H -0.1979 0.9785 -0.0993
H11A H 0.0029 1.0197 -0.1609
C15A C 0.3773(17) 0.1114(7) 0.4240(8)
H12A H 0.4570 0.0423 0.3975
H13A H 0.4328 0.1427 0.4802
C16A C 0.1892(15) 0.0798(9) 0.4825(8)
H14A H 0.1977 0.0244 0.5485
H15A H 0.1098 0.1476 0.5099
H16A H 0.1350 0.0463 0.4281
H17A H 0.3358 0.4148 -0.0257
H18A H 0.3625 0.5766 0.1186
O6 O 0.3984(7) 0.6902(4) 0.4868(3)
C17 C 0.2738(18) 0.6082(13) 0.5041(11)
C18 C 0.2718(15) 0.5160(9) 0.5862(8)
H19 H 0.3668 0.5048 0.6287
C19 C 0.1387(16) 0.4406(8) 0.6087(7)
H20 H 0.1377 0.3795 0.6670
C20 C 0.1374(18) 0.6252(9) 0.4386(9)
H21 H 0.1353 0.6882 0.3827
C21 C -0.002(2) 0.5425(11) 0.4592(9)
O6A O -0.3984(7) 0.3098(4) 0.5132(3)
C17A C -0.2738(18) 0.3918(13) 0.4959(11)
C18A C -0.2718(15) 0.4840(9) 0.4138(8)
H19A H -0.3668 0.4952 0.3713
C19A C -0.1387(16) 0.5594(8) 0.3913(7)
H20A H -0.1377 0.6205 0.3330
C20A C -0.1374(18) 0.3748(9) 0.5614(9)
H21A H -0.1353 0.3118 0.6173
C21A C 0.002(2) 0.4575(11) 0.5408(9)
N2? N 0.577(3) 0.7836(14) -0.2879(14)
O7? O 0.992(2) 0.0744(17) 0.2714(17)
C22? C 0.563(3) 0.7982(15) -0.1722(16)
H22? H 0.5247 0.8709 -0.1442
C23? C 0.605(3) 0.706(2) -0.0974(12)
H23? H 0.5954 0.7162 -0.0184
C24? C 0.661(3) 0.5999(17) -0.1384(19)
C25? C 0.675(4) 0.5853(14) -0.254(2)
H24? H 0.7127 0.5126 -0.2821
C26? C 0.633(4) 0.6772(18) -0.3289(14)
H25? H 0.6420 0.6672 -0.4080
C27? C 0.723(5) 0.528(3) -0.035(3)
H26? H 0.7046 0.5532 0.0397
C28? C 0.797(4) 0.439(2) -0.063(3)
H27? H 0.8220 0.4185 -0.1399
C29? C 0.853(3) 0.3517(16) 0.0445(18)
C30? C 0.839(3) 0.3653(15) 0.1605(19)
H28? H 0.7967 0.4371 0.1897
C31? C 0.888(3) 0.274(2) 0.2336(15)
H29? H 0.8785 0.2830 0.3128
C32? C 0.950(4) 0.1687(18) 0.191(2)
C33? C 0.964(4) 0.1551(16) 0.075(2)
H30? H 1.0066 0.0833 0.0456
C34? C 0.915(3) 0.247(2) 0.0017(15)
H31? H 0.9247 0.2373 -0.0775
C35? C 0.718(5) 0.901(3) -0.455(3)
H32? H 0.6903 0.9668 -0.5069
H33? H 0.7715 0.8363 -0.5001
H34? H 0.8072 0.9192 -0.4123
C36? C 0.537(4) 0.870(2) -0.369(2)
H35? H 0.4749 0.9380 -0.3287
H36? H 0.4499 0.8457 -0.4108
C37? C 1.056(4) -0.025(2) 0.233(3)
H37? H 1.0779 -0.0790 0.2971
H38? H 1.1735 -0.0177 0.1749
H39? H 0.9644 -0.0521 0.1973
O8? O 0.616(3) -0.0964(17) 0.1145(15)
O9? O 0.612(3) -0.0646(15) 0.1304(15)
O10? O 0.462(2) -0.1151(12) 0.3060(12)
O11? O 0.477(3) -0.1478(19) 0.3307(17)
O12? O 0.572(3) -0.2696(16) 0.1778(15)
O13? O 0.457(4) -0.2336(19) 0.1781(19)
O14? O 0.778(2) -0.1872(15) 0.2408(15)
O15? O 0.704(4) -0.275(2) 0.197(2)
C38? C -0.020(2) 0.6178(13) 0.3838(13)
H40? H 0.0894 0.3590 0.6733
C39? C 0.067(3) 0.475(2) 0.541(2)
C40? C 0.227(4) 0.640(2) 0.472(2)
H41? H 0.1574 0.7453 0.3364
C41? C 0.127(3) 0.6799(19) 0.3877(18)
C42? C 0.196(3) 0.545(2) 0.547(2)
H42? H 0.2658 0.5283 0.6046
loop_
_geom_bond_atom_site_label_1
_geom_bond_atom_site_label_2
_geom_bond_site_symmetry_1
_geom_bond_site_symmetry_2
Cl1 O1 1_555 1_555
O2 Cl1 1_555 1_555
O3 Cl1 1_555 1_555
O4 Cl1 1_555 1_555
O5 C11 1_555 1_555
N1 C1 1_555 1_555
C1 H1 1_555 1_555
C2 C1 1_555 1_555
H2 C2 1_555 1_555
C3 C2 1_555 1_555
C4 C3 1_555 1_555
H3 C4 1_555 1_555
C5 N1 1_555 1_555
H4 C5 1_555 1_555
C6 C3 1_555 1_555
C7 C6 1_555 1_555
C8 C7 1_555 1_555
C9 C8 1_555 1_555
H5 C9 1_555 1_555
C10 C9 1_555 1_555
H6 C10 1_555 1_555
C11 C10 1_555 1_555
C12 C11 1_555 1_555
H7 C12 1_555 1_555
C13 C8 1_555 1_555
H8 C13 1_555 1_555
C14 O5 1_555 1_555
H9 C14 1_555 1_555
H10 C14 1_555 1_555
H11 C14 1_555 1_555
C15 N1 1_555 1_555
H12 C15 1_555 1_555
H13 C15 1_555 1_555
C16 C15 1_555 1_555
H14 C16 1_555 1_555
H15 C16 1_555 1_555
H16 C16 1_555 1_555
H17 C6 1_555 1_555
H18 C7 1_555 1_555
O6 C17 1_555 1_555
C17 C18 1_555 1_555
C18 H19 1_555 1_555
C19 C18 1_555 1_555
H20 C19 1_555 1_555
C20 C17 1_555 1_555
H21 C20 1_555 1_555
C21 C20 1_555 1_555
O5A C11A 1_555 1_555
N1A C1A 1_555 1_555
C1A H1A 1_555 1_555
C2A C1A 1_555 1_555
H2A C2A 1_555 1_555
C3A C2A 1_555 1_555
C4A C3A 1_555 1_555
H3A C4A 1_555 1_555
C5A N1A 1_555 1_555
H4A C5A 1_555 1_555
C6A C7 1_555 1_555
C7A C6 1_555 1_555
C8A C7A 1_555 1_555
C9A C8A 1_555 1_555
H5A C9A 1_555 1_555
C10A C9A 1_555 1_555
H6A C10A 1_555 1_555
C11A C10A 1_555 1_555
C12A C11A 1_555 1_555
H7A C12A 1_555 1_555
C13A C8A 1_555 1_555
H8A C13A 1_555 1_555
C14A O5A 1_555 1_555
H9A C14A 1_555 1_555
H10A C14A 1_555 1_555
H11A C14A 1_555 1_555
C15A N1A 1_555 1_555
H12A C15A 1_555 1_555
H13A C15A 1_555 1_555
C16A C15A 1_555 1_555
H14A C16A 1_555 1_555
H15A C16A 1_555 1_555
H16A C16A 1_555 1_555
H17A C6A 1_555 1_555
H18A C7A 1_555 1_555
O6A C17A 1_555 1_555
C17A C18A 1_555 1_555
C18A H19A 1_555 1_555
C19A C21 1_555 1_555
H20A C19A 1_555 1_555
C20A C17A 1_555 1_555
H21A C20A 1_555 1_555
C21A C19 1_555 1_555
C4 C5 1_555 1_555
C12 C13 1_555 1_555
C21 C21A 1_555 1_555
C3A C6A 1_555 1_555
C4A C5A 1_555 1_555
C6A C7A 1_555 1_555
C12A C13A 1_555 1_555
C18A C19A 1_555 1_555
C20A C21A 1_555 1_555

#END
