
#######################################################################
#
#                 Cambridge Crystallographic Data Centre
#                                CCDC 
#
#######################################################################
#
# If this CIF has been generated from an entry in the Cambridge 
# Structural Database, then it will include bibliographic, chemical, 
# crystal, experimental, refinement or atomic coordinate data resulting 
# from the CCDC's data processing and validation procedures.
#
#######################################################################

data_AZEDUG
_chemical_formula_moiety         'C16 H18 N1 O1 1+,0.5(C6 H7 N1 O1),Cl1 O4 1-'
_chemical_name_systematic        
'1-ethyl-4-(2-(4-methoxyphenyl)vinyl)pyridinium perchlorate hemikis(4-aminophenol)'
_symmetry_cell_setting           triclinic
_symmetry_space_group_name_H-M   'P -1'
_symmetry_Int_Tables_number      2
_space_group_name_Hall           '-P 1'
loop_
_symmetry_equiv_pos_site_id
_symmetry_equiv_pos_as_xyz
1 x,y,z
2 -x,-y,-z
_cell_length_a                   7.1207(2)
_cell_length_b                   11.0058(3)
_cell_length_c                   24.2910(7)
_cell_angle_alpha                92.7320(10)
_cell_angle_beta                 94.5630(10)
_cell_angle_gamma                96.5930(10)
_cell_volume                     1881.97
_exptl_crystal_colour            brown
_exptl_crystal_description       block
_cell_formula_units_Z            4
loop_
_atom_site_label
_atom_site_type_symbol
_atom_site_fract_x
_atom_site_fract_y
_atom_site_fract_z
O1 O 0.10823(15) 0.93616(8) 0.15236(4)
N1 N -0.54470(16) 0.22157(9) -0.13988(4)
C1 C -0.4993(2) 0.34099(11) -0.14947(5)
C2 C -0.41349(19) 0.42316(11) -0.10810(5)
C3 C -0.36886(17) 0.38396(11) -0.05476(5)
C4 C -0.41890(19) 0.25982(11) -0.04656(5)
C5 C -0.5061(2) 0.18124(11) -0.08929(5)
C6 C -0.27650(18) 0.46627(11) -0.00927(5)
C7 C -0.21030(19) 0.58375(11) -0.01471(5)
C8 C -0.12227(18) 0.67233(11) 0.02913(5)
C9 C -0.0786(2) 0.79394(12) 0.01592(5)
C10 C -0.0022(2) 0.88506(12) 0.05584(6)
C11 C 0.03440(18) 0.85400(11) 0.11012(5)
C12 C -0.00409(18) 0.73258(11) 0.12430(5)
C13 C -0.08264(18) 0.64290(11) 0.08420(5)
C14 C 0.1685(2) 1.05872(13) 0.13860(6)
C15 C -0.6392(2) 0.13600(13) -0.18581(5)
C16 C -0.5046(2) 0.11120(14) -0.22875(5)
H1 H -0.535(2) 0.3601(15) -0.1859(7)
H2 H -0.390(2) 0.5049(16) -0.1170(7)
H3 H -0.400(3) 0.2246(16) -0.0110(8)
H4 H -0.542(2) 0.0985(16) -0.0866(7)
H5 H -0.260(2) 0.4253(16) 0.0276(7)
H6 H -0.219(3) 0.6219(17) -0.0510(7)
H7 H -0.111(3) 0.8160(17) -0.0224(8)
H8 H 0.027(3) 0.9677(19) 0.0436(8)
H9 H 0.027(2) 0.7097(15) 0.1607(7)
H10 H -0.104(2) 0.5630(16) 0.0964(7)
H11 H 0.232(3) 1.1037(19) 0.1693(8)
H12 H 0.068(3) 1.1023(17) 0.1290(7)
H13 H 0.259(3) 1.0612(17) 0.1116(8)
H14 H -0.751(3) 0.1704(17) -0.2015(7)
H15 H -0.685(3) 0.0669(17) -0.1682(7)
H16 H -0.566(3) 0.0508(17) -0.2548(7)
H17 H -0.392(3) 0.0824(18) -0.2129(8)
H18 H -0.461(3) 0.1875(18) -0.2457(8)
O2 O 1.61304(14) 0.94381(8) 0.65385(4)
N2 N 0.96270(15) 0.22278(9) 0.36451(4)
C17 C 0.98658(19) 0.34380(11) 0.35549(5)
C18 C 1.07421(19) 0.42819(11) 0.39562(5)
C19 C 1.14154(17) 0.38975(11) 0.44729(5)
C20 C 1.11214(18) 0.26383(11) 0.45513(5)
C21 C 1.02380(19) 0.18292(11) 0.41364(5)
C22 C 1.23575(18) 0.47347(11) 0.49188(5)
C23 C 1.27567(18) 0.59459(11) 0.48767(5)
C24 C 1.36467(18) 0.68358(11) 0.53140(5)
C25 C 1.3859(2) 0.80740(12) 0.52036(5)
C26 C 1.4671(2) 0.89790(12) 0.56001(5)
C27 C 1.53025(18) 0.86371(11) 0.61206(5)
C28 C 1.50959(18) 0.74007(11) 0.62422(5)
C29 C 1.42791(18) 0.65121(11) 0.58449(5)
C30 C 1.6675(2) 1.06767(12) 0.64059(6)
C31 C 0.8684(2) 0.13479(12) 0.31956(5)
C32 C 0.9944(2) 0.12221(14) 0.27246(5)
H19 H 0.940(2) 0.3641(15) 0.3222(7)
H20 H 1.082(2) 0.5097(16) 0.3884(7)
H21 H 1.155(3) 0.2285(18) 0.4895(8)
H22 H 1.000(2) 0.0994(16) 0.4153(7)
H23 H 1.276(2) 0.4324(15) 0.5261(7)
H24 H 1.249(2) 0.6344(16) 0.4543(7)
H25 H 1.341(3) 0.8313(16) 0.4827(7)
H26 H 1.473(3) 0.9851(18) 0.5522(8)
H27 H 1.554(2) 0.7161(15) 0.6582(7)
H28 H 1.424(3) 0.5704(17) 0.5948(8)
H29 H 1.739(3) 1.1096(18) 0.6701(8)
H30 H 1.559(2) 1.1150(15) 0.6360(7)
H31 H 1.741(3) 1.0719(17) 0.6079(7)
H32 H 0.745(2) 0.1609(15) 0.3078(7)
H33 H 0.834(3) 0.0609(16) 0.3377(7)
H34 H 1.116(3) 0.0962(17) 0.2857(7)
H35 H 1.016(3) 0.2000(18) 0.2536(7)
H36 H 0.932(3) 0.0590(17) 0.2471(8)
O3 O 1.66857(15) 0.38236(10) 0.24970(4)
N3 N 1.0022(2) 0.60394(13) 0.25874(6)
C33 C 1.5001(2) 0.43242(12) 0.25153(5)
C34 C 1.4952(2) 0.53152(12) 0.28971(5)
C35 C 1.3309(2) 0.58615(12) 0.29257(5)
C36 C 1.1670(2) 0.54562(12) 0.25807(5)
C37 C 1.1738(2) 0.44565(12) 0.22026(5)
C38 C 1.3376(2) 0.38997(12) 0.21754(5)
H37 H 0.886(3) 0.5637(18) 0.2502(8)
H38 H 0.983(3) 0.6588(19) 0.2877(8)
H39 H 1.640(3) 0.317(2) 0.2194(10)
H40 H 1.611(2) 0.5616(15) 0.3150(7)
H41 H 1.319(3) 0.6577(16) 0.3205(7)
H42 H 1.055(2) 0.4237(14) 0.1956(6)
H43 H 1.337(2) 0.3162(15) 0.1903(7)
Cl1 Cl 0.67693(5) 0.22006(3) 0.115398(11)
O4 O 0.65935(17) 0.18691(9) 0.17217(4)
O5 O 0.68517(19) 0.11064(9) 0.08163(5)
O6 O 0.84676(18) 0.30239(11) 0.11273(5)
O7 O 0.51570(17) 0.27812(11) 0.09641(5)
Cl2 Cl 0.83579(5) 0.78631(3) 0.385206(11)
O8 O 0.8837(2) 0.89253(9) 0.42243(5)
O9 O 0.66886(18) 0.71524(11) 0.40105(5)
O10 O 0.80366(18) 0.82378(11) 0.32983(4)
O11 O 0.99121(19) 0.71380(11) 0.38741(5)
loop_
_geom_bond_atom_site_label_1
_geom_bond_atom_site_label_2
_geom_bond_site_symmetry_1
_geom_bond_site_symmetry_2
O1 C11 1_555 1_555
N1 C1 1_555 1_555
C1 C2 1_555 1_555
C2 C3 1_555 1_555
C3 C4 1_555 1_555
C4 C5 1_555 1_555
C5 N1 1_555 1_555
C6 C3 1_555 1_555
C7 C6 1_555 1_555
C8 C7 1_555 1_555
C9 C8 1_555 1_555
C10 C9 1_555 1_555
C11 C10 1_555 1_555
C12 C11 1_555 1_555
C13 C8 1_555 1_555
C14 O1 1_555 1_555
C15 N1 1_555 1_555
C16 C15 1_555 1_555
H1 C1 1_555 1_555
H2 C2 1_555 1_555
H3 C4 1_555 1_555
H4 C5 1_555 1_555
H5 C6 1_555 1_555
H6 C7 1_555 1_555
H7 C9 1_555 1_555
H8 C10 1_555 1_555
H9 C12 1_555 1_555
H10 C13 1_555 1_555
H11 C14 1_555 1_555
H12 C14 1_555 1_555
H13 C14 1_555 1_555
H14 C15 1_555 1_555
H15 C15 1_555 1_555
H16 C16 1_555 1_555
H17 C16 1_555 1_555
H18 C16 1_555 1_555
O2 C27 1_555 1_555
N2 C17 1_555 1_555
C17 C18 1_555 1_555
C18 C19 1_555 1_555
C19 C20 1_555 1_555
C20 C21 1_555 1_555
C21 N2 1_555 1_555
C22 C19 1_555 1_555
C23 C22 1_555 1_555
C24 C23 1_555 1_555
C25 C24 1_555 1_555
C26 C25 1_555 1_555
C27 C26 1_555 1_555
C28 C27 1_555 1_555
C29 C24 1_555 1_555
C30 O2 1_555 1_555
C31 N2 1_555 1_555
C32 C31 1_555 1_555
H19 C17 1_555 1_555
H20 C18 1_555 1_555
H21 C20 1_555 1_555
H22 C21 1_555 1_555
H23 C22 1_555 1_555
H24 C23 1_555 1_555
H25 C25 1_555 1_555
H26 C26 1_555 1_555
H27 C28 1_555 1_555
H28 C29 1_555 1_555
H29 C30 1_555 1_555
H30 C30 1_555 1_555
H31 C30 1_555 1_555
H32 C31 1_555 1_555
H33 C31 1_555 1_555
H34 C32 1_555 1_555
H35 C32 1_555 1_555
H36 C32 1_555 1_555
O3 C33 1_555 1_555
N3 C36 1_555 1_555
C33 C34 1_555 1_555
C34 C35 1_555 1_555
C35 C36 1_555 1_555
C36 C37 1_555 1_555
C37 C38 1_555 1_555
C38 C33 1_555 1_555
H37 N3 1_555 1_555
H38 N3 1_555 1_555
H39 O3 1_555 1_555
H40 C34 1_555 1_555
H41 C35 1_555 1_555
H42 C37 1_555 1_555
H43 C38 1_555 1_555
Cl1 O4 1_555 1_555
O5 Cl1 1_555 1_555
O6 Cl1 1_555 1_555
O7 Cl1 1_555 1_555
Cl2 O8 1_555 1_555
O9 Cl2 1_555 1_555
O10 Cl2 1_555 1_555
O11 Cl2 1_555 1_555
C12 C13 1_555 1_555
C28 C29 1_555 1_555

#END
