
#######################################################################
#
#                 Cambridge Crystallographic Data Centre
#                                CCDC 
#
#######################################################################
#
# If this CIF has been generated from an entry in the Cambridge 
# Structural Database, then it will include bibliographic, chemical, 
# crystal, experimental, refinement or atomic coordinate data resulting 
# from the CCDC's data processing and validation procedures.
#
#######################################################################

data_AZEDIU
_chemical_formula_moiety         
'0.844(C16 H18 N1 O1 1+),0.078(C32 H36 N2 O2 2+),0.5(C10 H8 O2),Cl1 O4 1-,C2 H3 N1'
_chemical_name_systematic        
"(1-Ethyl-4-(2-(4-methoxyphenyl)vinyl)pyridinium 4,4'-(2,4-bis(4-methoxyphenyl)cyclobutane-1,3-diyl)bis(1-ethylpyridin-1-ium)) hemikis(1,5-dihydroxynaphthalene) perchlorate acetonitrile solvate"
_symmetry_cell_setting           triclinic
_symmetry_space_group_name_H-M   'P -1'
_symmetry_Int_Tables_number      2
_space_group_name_Hall           '-P 1'
loop_
_symmetry_equiv_pos_site_id
_symmetry_equiv_pos_as_xyz
1 x,y,z
2 -x,-y,-z
_cell_length_a                   7.3616(6)
_cell_length_b                   9.1433(8)
_cell_length_c                   17.2289(13)
_cell_angle_alpha                104.992(2)
_cell_angle_beta                 99.140(2)
_cell_angle_gamma                92.695(2)
_cell_volume                     1101.24
_exptl_crystal_colour            yellow
_exptl_crystal_description       block
_cell_formula_units_Z            2
_exptl_crystal_preparation       
'irradiated product; Crystal irradiated by visible light from 60W incandescent lamp for 12h prior to data collection.'
loop_
_atom_site_label
_atom_site_type_symbol
_atom_site_fract_x
_atom_site_fract_y
_atom_site_fract_z
O2 O 0.6898 -0.0342 0.0897
C17 C 0.8701 -0.0094 0.0838
C18 C 0.9068 -0.0126 0.0043
C19 C 0.7618 -0.0388 -0.0642
C20 C 0.8029 -0.0412 -0.1396
C21 C 0.9882 -0.0173 -0.1501
H19 H 0.7122 -0.0722 -0.1894
H20 H 0.6307 -0.0502 -0.0568
H21 H 1.0136 -0.0261 -0.1995
H22 H 0.6935 -0.0207 0.1439
O2A O 1.3102 0.0342 -0.0897
C17A C 1.1299 0.0094 -0.0838
C18A C 1.0932 0.0126 -0.0043
C19A C 1.2382 0.0388 0.0642
C20A C 1.1971 0.0412 0.1396
C21A C 1.0118 0.0173 0.1501
H19A H 1.2878 0.0722 0.1894
H20A H 1.3693 0.0502 0.0568
H21A H 0.9864 0.0261 0.1995
H22A H 1.3065 0.0207 -0.1439
N2 N 0.6377 0.0125 0.2540
C22 C 0.6409 -0.0055 0.3169
C23 C 0.6468 -0.0363 0.3959
H23 H 0.5738 0.0412 0.4199
H24 H 0.7577 -0.0098 0.4286
H25 H 0.6189 -0.1561 0.3881
Cl1 Cl 0.1737 0.1756 0.4086
O3 O 0.1030 0.0340 0.4229
O4 O 0.0135 0.2534 0.3902
O5 O 0.2510 0.1359 0.3357
O6 O 0.3043 0.2752 0.4746
O1 O 0.6366(4) 0.5477(3) 1.29441(16)
N1 N 0.8866(3) 0.3821(3) 0.68278(14)
C1 C 0.8221(4) 0.2704(3) 0.71327(17)
H1 H 0.8036 0.1682 0.6803
C2 C 0.7835(4) 0.3036(4) 0.7909(2)
H2 H 0.7355 0.2248 0.8108
C3 C 0.8144(4) 0.4532(4) 0.8412(2)
C4 C 0.8757(6) 0.5643(5) 0.8066(3)
H3 H 0.8919 0.6679 0.8375
C5 C 0.9129(4) 0.5266(3) 0.72871(18)
H4 H 0.9579 0.6039 0.7070
C6 C 0.7838(4) 0.4975(3) 0.92518(16)
H5 H 0.8045 0.6024 0.9536
C7 C 0.7287(3) 0.4011(3) 0.96538(16)
H6 H 0.7048 0.2969 0.9359
C8 C 0.7018(4) 0.4409(3) 1.05015(17)
C9 C 0.6477(5) 0.3262(3) 1.0840(2)
H7 H 0.6276 0.2244 1.0507
C10 C 0.6220(6) 0.3552(3) 1.1647(3)
H8 H 0.5851 0.2747 1.1860
C11 C 0.6512(8) 0.5030(5) 1.2132(3)
C12 C 0.7035(6) 0.6202(4) 1.1798(3)
H9 H 0.7224 0.7222 1.2130
C13 C 0.7273(4) 0.5899(3) 1.1008(2)
H10 H 0.7618 0.6712 1.0795
C14 C 0.9193(6) 0.3424(5) 0.5976(3)
H11 H 0.9592 0.2384 0.5833
H12 H 1.0198 0.4135 0.5927
C15 C 0.7488(4) 0.3501(4) 0.53907(18)
H13 H 0.7749 0.3239 0.4833
H14 H 0.7098 0.4533 0.5527
H15 H 0.6499 0.2780 0.5429
C16 C 0.5945 0.4276 1.3325
H16 H 0.5818 0.4810 1.3872
H17 H 0.4785 0.3655 1.3101
H18 H 0.6906 0.3643 1.3295
O7? O 0.578(2) 0.533(2) 1.2952(11)
N3? N 0.794(2) 0.3985(17) 0.6988(9)
C24? C 0.757(2) 0.2958(19) 0.7405(12)
H26? H 0.7166 0.1927 0.7126
C25? C 0.780(2) 0.344(2) 0.8217(11)
H27? H 0.7526 0.2699 0.8487
C26? C 0.836(3) 0.483(2) 0.8696(12)
C27? C 0.884(4) 0.599(3) 0.8239(15)
H28? H 0.9364 0.6995 0.8512
C28? C 0.847(2) 0.5470(19) 0.7436(11)
H29? H 0.8590 0.6196 0.7136
C29? C 0.7655(19) 0.4588(13) 1.0774(7)
C30? C 0.701(2) 0.3356(12) 1.1020(9)
H30? H 0.7007 0.2351 1.0685
C31? C 0.638(3) 0.3596(19) 1.1757(11)
H31? H 0.5936 0.2754 1.1925
C32? C 0.638(4) 0.507(2) 1.2247(10)
C33? C 0.703(3) 0.6298(16) 1.2001(8)
H32? H 0.7030 0.7303 1.2336
C34? C 0.766(2) 0.6058(12) 1.1264(8)
H33? H 0.8101 0.6900 1.1096
C35? C 0.780(3) 0.353(2) 0.6091(12)
H34? H 0.7107 0.2515 0.5859
H35? H 0.7127 0.4266 0.5852
C36? C 0.965(3) 0.348(3) 0.5885(16)
H36? H 0.9558 0.3172 0.5290
H37? H 1.0314 0.2744 0.6120
H38? H 1.0330 0.4489 0.6108
H39? H 0.8268 0.6271 0.9813
H40? H 0.8619 0.3262 0.9780
O8? O 0.1540 0.0256 0.4164
O9? O 0.0065 0.2209 0.3686
O10? O 0.2964 0.1848 0.3535
O11? O 0.2530 0.2664 0.4890
O12? O 0.1017 0.0607 0.4405
O13? O 0.0455 0.2915 0.4060
O14? O 0.2721 0.1054 0.3420
O15? O 0.3300 0.2397 0.4742
C37? C 0.890(2) 0.5410(17) 0.9602(9)
C38? C 0.893(2) 0.4281(17) 1.0125(9)
loop_
_geom_bond_atom_site_label_1
_geom_bond_atom_site_label_2
_geom_bond_site_symmetry_1
_geom_bond_site_symmetry_2
O1 C11 1_555 1_555
N1 C1 1_555 1_555
C1 H1 1_555 1_555
C2 C1 1_555 1_555
H2 C2 1_555 1_555
C3 C2 1_555 1_555
C4 C3 1_555 1_555
H3 C4 1_555 1_555
C5 N1 1_555 1_555
H4 C5 1_555 1_555
C6 C3 1_555 1_555
H5 C6 1_555 1_555
C7 C6 1_555 1_555
H6 C7 1_555 1_555
C8 C7 1_555 1_555
C9 C8 1_555 1_555
H7 C9 1_555 1_555
C10 C9 1_555 1_555
H8 C10 1_555 1_555
C11 C10 1_555 1_555
C12 C11 1_555 1_555
H9 C12 1_555 1_555
C13 C8 1_555 1_555
H10 C13 1_555 1_555
C14 N1 1_555 1_555
H11 C14 1_555 1_555
H12 C14 1_555 1_555
C15 C14 1_555 1_555
H13 C15 1_555 1_555
H14 C15 1_555 1_555
H15 C15 1_555 1_555
C16 O1 1_555 1_555
H16 C16 1_555 1_555
H17 C16 1_555 1_555
H18 C16 1_555 1_555
O2 C17 1_555 1_555
C17 C18 1_555 1_555
C18 C19 1_555 1_555
C19 C20 1_555 1_555
C20 C21 1_555 1_555
C21 H21 1_555 1_555
H19 C20 1_555 1_555
H20 C19 1_555 1_555
H22 O2 1_555 1_555
N2 C22 1_555 1_555
C22 C23 1_555 1_555
C23 H23 1_555 1_555
H24 C23 1_555 1_555
H25 C23 1_555 1_555
Cl1 O3 1_555 1_555
O4 Cl1 1_555 1_555
O5 Cl1 1_555 1_555
O6 Cl1 1_555 1_555
O2A C17A 1_555 1_555
C17A C21 1_555 1_555
C18A C18 1_555 1_555
C19A C18A 1_555 1_555
C20A C19A 1_555 1_555
C21A C17 1_555 1_555
H19A C20A 1_555 1_555
H20A C19A 1_555 1_555
H21A C21A 1_555 1_555
H22A O2A 1_555 1_555
C4 C5 1_555 1_555
C12 C13 1_555 1_555
C17A C18A 1_555 1_555
C20A C21A 1_555 1_555

#END
