
#######################################################################
#
#                 Cambridge Crystallographic Data Centre
#                                CCDC 
#
#######################################################################
#
# If this CIF has been generated from an entry in the Cambridge 
# Structural Database, then it will include bibliographic, chemical, 
# crystal, experimental, refinement or atomic coordinate data resulting 
# from the CCDC's data processing and validation procedures.
#
#######################################################################

data_AZEFAN
_chemical_formula_moiety         'C20 H24 Cl1 N1 O8'
_chemical_name_systematic        
'2,2-Diethyl 3,4-dimethyl 5-(4-chlorophenyl)pyrrolidine-2,2,3,4-tetracarboxylate'
_symmetry_cell_setting           monoclinic
_symmetry_space_group_name_H-M   'P 21'
_symmetry_Int_Tables_number      4
_space_group_name_Hall           'P 2yb'
loop_
_symmetry_equiv_pos_site_id
_symmetry_equiv_pos_as_xyz
1 x,y,z
2 -x,1/2+y,-z
_cell_length_a                   11.3360(15)
_cell_length_b                   6.2113(7)
_cell_length_c                   15.8921(19)
_cell_angle_alpha                90
_cell_angle_beta                 100.095(13)
_cell_angle_gamma                90
_cell_volume                     1101.66
_exptl_crystal_colour            colorless
_exptl_crystal_description       block
_cell_formula_units_Z            2
loop_
_atom_site_label
_atom_site_type_symbol
_atom_site_fract_x
_atom_site_fract_y
_atom_site_fract_z
Cl1 Cl 1.18184(12) 0.6916(3) 0.05478(11)
O1 O 0.4675(2) 0.5087(5) 0.10535(16)
O2 O 0.6379(3) 0.2513(5) 0.37376(18)
O3 O 0.6240(3) 0.2927(5) 0.15250(17)
O4 O 0.4240(2) 0.5259(6) 0.28144(19)
N1 N 0.6491(3) 0.8048(6) 0.1866(2)
O5 O 0.6368(3) 0.5685(5) 0.4385(2)
O6 O 0.4487(3) 0.8793(6) 0.2605(2)
C1 C 0.6989(3) 0.5504(6) 0.3015(2)
H1 H 0.7471 0.4399 0.2795
O7 O 0.9501(3) 0.5339(7) 0.3663(2)
O8 O 0.9546(3) 0.8857(7) 0.3976(2)
C2 C 0.5653(3) 0.4497(7) 0.1596(2)
C3 C 0.7745(3) 0.7537(6) 0.3225(2)
H2 H 0.7371 0.8437 0.3612
C4 C 0.4826(3) 0.6956(9) 0.2588(2)
C5 C 0.5968(3) 0.6262(6) 0.2279(2)
C6 C 0.9731(4) 0.5935(8) 0.1045(3)
H3 H 0.9777 0.4636 0.0762
C7 C 0.6545(4) 0.4643(7) 0.3791(3)
C8 C 0.9022(4) 0.7048(10) 0.3649(3)
C9 C 0.8690(4) 0.8254(7) 0.1886(2)
C10 C 0.7665(3) 0.8731(7) 0.2356(2)
H4 H 0.7641 1.0285 0.2459
C11 C 0.4264(4) 0.3659(7) 0.0334(2)
H5 H 0.4949 0.3066 0.0125
H6 H 0.3789 0.4470 -0.0127
C12 C 1.0611(4) 0.7432(9) 0.1065(3)
C13 C 1.0560(5) 0.9349(10) 0.1487(4)
H7 H 1.1160 1.0375 0.1497
C14 C 0.8770(4) 0.6344(8) 0.1447(3)
H8 H 0.8165 0.5323 0.1422
C15 C 0.5849(5) 0.1522(9) 0.4414(3)
H9 H 0.6427 0.1501 0.4934
H10 H 0.5610 0.0076 0.4254
H11 H 0.5161 0.2338 0.4501
C16 C 0.9598(4) 0.9730(8) 0.1898(3)
H12 H 0.9566 1.1020 0.2191
C17 C 0.3073(4) 0.5647(10) 0.3051(4)
H13 H 0.3167 0.6474 0.3576
H14 H 0.2570 0.6460 0.2605
C18 C 0.3522(4) 0.1858(9) 0.0598(3)
H15 H 0.4008 0.0997 0.1027
H16 H 0.3223 0.0978 0.0111
H17 H 0.2861 0.2447 0.0826
C19 C 1.0816(4) 0.8703(14) 0.4336(4)
H18 H 1.0928 0.7694 0.4801
H19 H 1.1109 1.0091 0.4541
H20 H 1.1249 0.8222 0.3903
C20 C 0.2518(6) 0.3578(14) 0.3168(6)
H21 H 0.2519 0.2699 0.2671
H22 H 0.1708 0.3804 0.3250
H23 H 0.2962 0.2869 0.3661
H24 H 0.596(5) 0.908(9) 0.178(3)
loop_
_geom_bond_atom_site_label_1
_geom_bond_atom_site_label_2
_geom_bond_site_symmetry_1
_geom_bond_site_symmetry_2
Cl1 C12 1_555 1_555
O1 C2 1_555 1_555
O2 C7 1_555 1_555
O3 C2 1_555 1_555
O4 C4 1_555 1_555
N1 C5 1_555 1_555
O5 C7 1_555 1_555
O6 C4 1_555 1_555
C1 H1 1_555 1_555
O7 C8 1_555 1_555
O8 C8 1_555 1_555
C2 C5 1_555 1_555
C3 C1 1_555 1_555
H2 C3 1_555 1_555
C4 C5 1_555 1_555
C5 C1 1_555 1_555
C6 H3 1_555 1_555
C7 C1 1_555 1_555
C8 C3 1_555 1_555
C9 C10 1_555 1_555
C10 N1 1_555 1_555
H4 C10 1_555 1_555
C11 O1 1_555 1_555
H5 C11 1_555 1_555
H6 C11 1_555 1_555
C12 C6 1_555 1_555
C13 C12 1_555 1_555
H7 C13 1_555 1_555
C14 C6 1_555 1_555
H8 C14 1_555 1_555
C15 O2 1_555 1_555
H9 C15 1_555 1_555
H10 C15 1_555 1_555
H11 C15 1_555 1_555
C16 C9 1_555 1_555
H12 C16 1_555 1_555
C17 O4 1_555 1_555
H13 C17 1_555 1_555
H14 C17 1_555 1_555
C18 C11 1_555 1_555
H15 C18 1_555 1_555
H16 C18 1_555 1_555
H17 C18 1_555 1_555
C19 O8 1_555 1_555
H18 C19 1_555 1_555
H19 C19 1_555 1_555
H20 C19 1_555 1_555
C20 C17 1_555 1_555
H21 C20 1_555 1_555
H22 C20 1_555 1_555
H23 C20 1_555 1_555
H24 N1 1_555 1_555
C3 C10 1_555 1_555
C9 C14 1_555 1_555
C13 C16 1_555 1_555

#END
