
#######################################################################
#
#                 Cambridge Crystallographic Data Centre
#                                CCDC 
#
#######################################################################
#
# If this CIF has been generated from an entry in the Cambridge 
# Structural Database, then it will include bibliographic, chemical, 
# crystal, experimental, refinement or atomic coordinate data resulting 
# from the CCDC's data processing and validation procedures.
#
#######################################################################

data_AZEFER
_chemical_formula_moiety         'C18 H22 Cl1 N1 O5'
_chemical_name_systematic        
'Diethyl 4-acetyl-5-(3-chlorophenyl)pyrrolidine-2,2-dicarboxylate'
_symmetry_cell_setting           monoclinic
_symmetry_space_group_name_H-M   'P 21'
_symmetry_Int_Tables_number      4
_space_group_name_Hall           'P 2yb'
loop_
_symmetry_equiv_pos_site_id
_symmetry_equiv_pos_as_xyz
1 x,y,z
2 -x,1/2+y,-z
_cell_length_a                   12.6724(6)
_cell_length_b                   5.5879(3)
_cell_length_c                   14.6076(6)
_cell_angle_alpha                90
_cell_angle_beta                 110.988(5)
_cell_angle_gamma                90
_cell_volume                     965.768
_exptl_crystal_colour            colorless
_exptl_crystal_description       needle
_cell_formula_units_Z            2
loop_
_atom_site_label
_atom_site_type_symbol
_atom_site_fract_x
_atom_site_fract_y
_atom_site_fract_z
Cl1 Cl 0.58481(11) 0.2832(3) 0.27316(10)
O1 O 1.1090(2) 0.5810(5) 0.43089(17)
N1 N 0.9335(2) 0.7880(6) 0.2547(2)
O2 O 1.1370(3) 0.9396(6) 0.2402(3)
O3 O 0.7867(3) 0.3322(6) -0.0036(2)
O4 O 0.9967(3) 0.2792(6) 0.35389(19)
O5 O 1.2157(2) 0.5829(6) 0.2859(2)
C1 C 0.8992(3) 0.6492(6) 0.0919(2)
H1 H 0.9506 0.7457 0.0704
C2 C 0.8510(3) 0.8132(7) 0.1544(2)
H2 H 0.8510 0.9795 0.1331
C3 C 1.0218(3) 0.6159(6) 0.2599(2)
C4 C 0.9702(3) 0.4660(7) 0.1665(3)
H3 H 1.0285 0.3977 0.1459
H4 H 0.9234 0.3382 0.1761
C5 C 0.7331(3) 0.7478(7) 0.1498(2)
C6 C 0.7144(3) 0.5595(7) 0.2047(3)
H5 H 0.7745 0.4666 0.2440
C7 C 0.6061(3) 0.5126(8) 0.2002(3)
C8 C 0.6414(3) 0.8802(7) 0.0916(3)
H6 H 0.6526 1.0060 0.0544
C9 C 0.7557(4) 0.7089(7) -0.0816(3)
H7 H 0.7922 0.6958 -0.1287
H8 H 0.7621 0.8703 -0.0577
H9 H 0.6773 0.6676 -0.1121
C10 C 1.1361(4) 0.4611(10) 0.5251(3)
H10 H 1.0691 0.3826 0.5280
H11 H 1.1606 0.5784 0.5775
C11 C 0.5155(3) 0.6416(9) 0.1423(3)
H12 H 0.4429 0.6042 0.1395
C12 C 1.3241(4) 0.6660(12) 0.2898(4)
H13 H 1.3142 0.7911 0.2414
H14 H 1.3649 0.5353 0.2739
C13 C 0.5331(3) 0.8283(9) 0.0878(3)
H15 H 0.4723 0.9193 0.0486
C14 C 1.2279(5) 0.2791(13) 0.5394(4)
H16 H 1.1987 0.1472 0.4955
H17 H 1.2542 0.2226 0.6058
H18 H 1.2895 0.3514 0.5259
C15 C 1.3892(5) 0.7577(16) 0.3855(5)
H19 H 1.3776 0.9272 0.3870
H20 H 1.4680 0.7259 0.3997
H21 H 1.3655 0.6811 0.4338
C16 C 0.8109(3) 0.5427(7) 0.0019(3)
C17 C 1.0417(3) 0.4679(7) 0.3523(3)
C18 C 1.1306(3) 0.7369(8) 0.2613(3)
H22 H 0.965(3) 0.927(5) 0.275(3)
loop_
_geom_bond_atom_site_label_1
_geom_bond_atom_site_label_2
_geom_bond_site_symmetry_1
_geom_bond_site_symmetry_2
Cl1 C7 1_555 1_555
O1 C10 1_555 1_555
N1 C2 1_555 1_555
O2 C18 1_555 1_555
O3 C16 1_555 1_555
O4 C17 1_555 1_555
O5 C12 1_555 1_555
C1 H1 1_555 1_555
C2 C1 1_555 1_555
H2 C2 1_555 1_555
C3 N1 1_555 1_555
C4 C1 1_555 1_555
H3 C4 1_555 1_555
H4 C4 1_555 1_555
C5 C2 1_555 1_555
C6 C5 1_555 1_555
H5 C6 1_555 1_555
C7 C6 1_555 1_555
C8 C5 1_555 1_555
H6 C8 1_555 1_555
C9 H7 1_555 1_555
H8 C9 1_555 1_555
H9 C9 1_555 1_555
C10 H10 1_555 1_555
H11 C10 1_555 1_555
C11 C7 1_555 1_555
H12 C11 1_555 1_555
C12 H13 1_555 1_555
H14 C12 1_555 1_555
C13 C8 1_555 1_555
H15 C13 1_555 1_555
C14 C10 1_555 1_555
H16 C14 1_555 1_555
H17 C14 1_555 1_555
H18 C14 1_555 1_555
C15 C12 1_555 1_555
H19 C15 1_555 1_555
H20 C15 1_555 1_555
H21 C15 1_555 1_555
C16 C1 1_555 1_555
C17 O1 1_555 1_555
C18 O5 1_555 1_555
H22 N1 1_555 1_555
C3 C4 1_555 1_555
C3 C17 1_555 1_555
C3 C18 1_555 1_555
C9 C16 1_555 1_555
C11 C13 1_555 1_555

#END
