
#######################################################################
#
#                 Cambridge Crystallographic Data Centre
#                                CCDC 
#
#######################################################################
#
# If this CIF has been generated from an entry in the Cambridge 
# Structural Database, then it will include bibliographic, chemical, 
# crystal, experimental, refinement or atomic coordinate data resulting 
# from the CCDC's data processing and validation procedures.
#
#######################################################################

data_AZELAC03
_chemical_name_common            'Heptane-1,7-dicarboxylic acid'
_chemical_formula_moiety         'C9 H16 O4'
_chemical_name_systematic        'Azelaic acid'
_chemical_properties_biological  'antibacterial activity'
_symmetry_cell_setting           monoclinic
_symmetry_space_group_name_H-M   'C 2/c'
_symmetry_Int_Tables_number      15
_space_group_name_Hall           '-C 2yn'
loop_
_symmetry_equiv_pos_site_id
_symmetry_equiv_pos_as_xyz
1 x,y,z
2 1/2+x,1/2+y,z
3 -x,y,1/2-z
4 1/2-x,1/2+y,1/2-z
5 -x,-y,-z
6 1/2-x,1/2-y,-z
7 x,-y,1/2+z
8 1/2+x,1/2-y,1/2+z
_cell_length_a                   22.622(2)
_cell_length_b                   4.7348(2)
_cell_length_c                   9.6864(7)
_cell_angle_alpha                90
_cell_angle_beta                 110.559(3)
_cell_angle_gamma                90
_cell_volume                     971.438
_exptl_crystal_colour            colorless
_exptl_crystal_description       plate
_chemical_melting_point          382-384K
_cell_formula_units_Z            4
_exptl_crystal_recrystallization_method ethanol
loop_
_atom_site_label
_atom_site_type_symbol
_atom_site_fract_x
_atom_site_fract_y
_atom_site_fract_z
O1 O 0.18109(4) 0.17201(19) 0.01920(10)
O2 O 0.24341(4) 0.54364(19) 0.11100(10)
H1 H 0.2682(9) 0.465(4) 0.057(2)
C1 C 0.19218(5) 0.3923(3) 0.09015(12)
C2 C 0.14794(6) 0.5227(3) 0.15576(14)
H2 H 0.1264 0.6833 0.0927
H3 H 0.1732 0.6004 0.2536
C3 C 0.09798(5) 0.3284(3) 0.17462(14)
H4 H 0.1183 0.1874 0.2523
H5 H 0.0767 0.2257 0.0813
C4 C 0.04919(5) 0.4949(3) 0.21683(13)
H6 H 0.0715 0.6108 0.3048
H7 H 0.0272 0.6258 0.1353
C5 C 0.0000 0.3150(4) 0.2500
H8 H -0.0213 0.1920 0.1643
C4B C -0.04919(5) 0.4949(3) 0.28317(13)
C3B C -0.09798(5) 0.3284(3) 0.32538(14)
C2B C -0.14794(6) 0.5227(3) 0.34424(14)
C1B C -0.19218(5) 0.3923(3) 0.40985(12)
O1B O -0.18109(4) 0.17201(19) 0.48080(10)
O2B O -0.24341(4) 0.54364(19) 0.38900(10)
H1B H -0.2682(9) 0.465(4) 0.443(2)
H2B H -0.1264 0.6833 0.4073
H3B H -0.1732 0.6004 0.2464
H4B H -0.1183 0.1874 0.2477
H5B H -0.0767 0.2257 0.4187
H6B H -0.0715 0.6108 0.1952
H7B H -0.0272 0.6258 0.3647
H8B H 0.0213 0.1920 0.3357
loop_
_geom_bond_atom_site_label_1
_geom_bond_atom_site_label_2
_geom_bond_site_symmetry_1
_geom_bond_site_symmetry_2
O1 C1 1_555 1_555
O2 H1 1_555 1_555
C1 O2 1_555 1_555
C2 C1 1_555 1_555
H2 C2 1_555 1_555
H3 C2 1_555 1_555
C3 C2 1_555 1_555
H4 C3 1_555 1_555
H5 C3 1_555 1_555
C4 C3 1_555 1_555
H6 C4 1_555 1_555
H7 C4 1_555 1_555
C5 C4 1_555 1_555
H8 C5 1_555 1_555
C4B C5 1_555 1_555
C3B C4B 1_555 1_555
C2B C3B 1_555 1_555
C1B C2B 1_555 1_555
O1B C1B 1_555 1_555
O2B C1B 1_555 1_555
H1B O2B 1_555 1_555
H2B C2B 1_555 1_555
H3B C2B 1_555 1_555
H4B C3B 1_555 1_555
H5B C3B 1_555 1_555
H6B C4B 1_555 1_555
H7B C4B 1_555 1_555
H8B C5 1_555 1_555

#END
