
#######################################################################
#
#                 Cambridge Crystallographic Data Centre
#                                CCDC 
#
#######################################################################
#
# If this CIF has been generated from an entry in the Cambridge 
# Structural Database, then it will include bibliographic, chemical, 
# crystal, experimental, refinement or atomic coordinate data resulting 
# from the CCDC's data processing and validation procedures.
#
#######################################################################

data_AZENOJ
_chemical_formula_moiety         'C14 H20 O6,3(H2 O1)'
_chemical_name_systematic        
'2,3,5,6,8,9,11,12-Octahydro-1,4,7,10,13-benzopentaoxacyclopentadecin-15-ol trihydrate'
_symmetry_cell_setting           monoclinic
_symmetry_space_group_name_H-M   'P 21/n'
_symmetry_Int_Tables_number      14
_space_group_name_Hall           '-P 2yn'
loop_
_symmetry_equiv_pos_site_id
_symmetry_equiv_pos_as_xyz
1 x,y,z
2 1/2-x,1/2+y,1/2-z
3 -x,-y,-z
4 1/2+x,1/2-y,1/2+z
_cell_length_a                   10.4734(8)
_cell_length_b                   14.0197(10)
_cell_length_c                   12.8619(9)
_cell_angle_alpha                90
_cell_angle_beta                 113.561(3)
_cell_angle_gamma                90
_cell_volume                     1731.12
_exptl_crystal_colour            colorless
_exptl_crystal_description       plate
_cell_formula_units_Z            4
_exptl_crystal_recrystallization_method dichloromethane/hexane
loop_
_atom_site_label
_atom_site_type_symbol
_atom_site_fract_x
_atom_site_fract_y
_atom_site_fract_z
O1 O 0.8742(2) 0.15974(16) 0.3120(2)
H1 H 0.879(3) 0.102(2) 0.327(2)
H2 H 0.852(3) 0.162(2) 0.247(3)
O2 O 0.8022(2) -0.06563(13) 0.08410(16)
H3 H 0.746(3) -0.035(2) 0.105(3)
H4 H 0.888(4) -0.035(3) 0.111(3)
O3 O 0.7142(2) 0.24023(14) 0.41848(17)
H5 H 0.761(3) 0.226(2) 0.382(3)
H6 H 0.711(3) 0.306(3) 0.413(3)
O4 O 0.99453(17) 0.10123(13) 0.11856(15)
O5 O 0.72385(18) 0.16463(12) 0.06497(15)
O6 O 0.61996(16) 0.02154(12) 0.16643(15)
O7 O 0.85544(17) -0.04452(12) 0.35193(15)
O8 O 1.07607(17) -0.01762(12) 0.28532(14)
O9 O 1.5304(2) 0.12886(14) 0.45254(17)
H7 H 1.590(5) 0.177(3) 0.433(5)
C1 C 1.0965(3) -0.06461(19) 0.3898(2)
C2 C 1.1738(2) 0.04914(17) 0.2882(2)
C3 C 1.3073(3) 0.05432(19) 0.3723(2)
C4 C 1.3978(2) 0.12576(18) 0.3671(2)
C5 C 1.3555(3) 0.19082(18) 0.2789(2)
H8 H 1.4168 0.2399 0.2765
C6 C 1.2203(3) 0.18345(19) 0.1927(2)
C7 C 1.1293(2) 0.11411(18) 0.1974(2)
C8 C 0.9356(3) 0.1774(2) 0.0392(2)
C9 C 0.7814(3) 0.1595(2) -0.0188(2)
C10 C 0.5813(3) 0.1364(2) 0.0218(3)
C11 C 0.5452(3) 0.1080(2) 0.1190(2)
C12 C 0.6135(3) -0.0075(2) 0.2709(2)
C13 C 0.7197(3) -0.0849(2) 0.3213(2)
C14 C 0.9626(3) -0.11437(18) 0.3742(2)
H9 H 1.116(3) -0.013(2) 0.449(2)
H10 H 1.172(3) -0.114(2) 0.409(2)
H11 H 1.335(3) 0.008(2) 0.427(2)
H12 H 1.193(3) 0.2273(19) 0.130(2)
H13 H 0.978(3) 0.1774(19) -0.021(2)
H14 H 0.955(3) 0.240(2) 0.077(2)
H15 H 0.736(3) 0.214(2) -0.072(2)
H16 H 0.768(3) 0.092(2) -0.055(2)
H17 H 0.570(2) 0.0824(18) -0.031(2)
H18 H 0.525(3) 0.187(2) -0.019(2)
H19 H 0.574(3) 0.1572(19) 0.176(2)
H20 H 0.446(3) 0.0986(17) 0.092(2)
H21 H 0.513(3) -0.0333(19) 0.259(2)
H22 H 0.632(2) 0.0477(17) 0.317(2)
H23 H 0.715(3) -0.115(2) 0.390(3)
H24 H 0.706(3) -0.138(2) 0.263(2)
H25 H 0.943(3) -0.159(2) 0.311(3)
H26 H 0.974(2) -0.1539(17) 0.441(2)
loop_
_geom_bond_atom_site_label_1
_geom_bond_atom_site_label_2
_geom_bond_site_symmetry_1
_geom_bond_site_symmetry_2
O1 H1 1_555 1_555
H2 O1 1_555 1_555
O2 H3 1_555 1_555
H4 O2 1_555 1_555
O3 H5 1_555 1_555
H6 O3 1_555 1_555
O4 C7 1_555 1_555
O5 C9 1_555 1_555
O6 C11 1_555 1_555
O7 C13 1_555 1_555
O8 C1 1_555 1_555
O9 H7 1_555 1_555
C1 C14 1_555 1_555
C2 O8 1_555 1_555
C3 C2 1_555 1_555
C4 O9 1_555 1_555
C5 C4 1_555 1_555
H8 C5 1_555 1_555
C6 C5 1_555 1_555
C7 C2 1_555 1_555
C8 O4 1_555 1_555
C9 C8 1_555 1_555
C10 O5 1_555 1_555
C11 C10 1_555 1_555
C12 O6 1_555 1_555
C13 C12 1_555 1_555
C14 O7 1_555 1_555
H9 C1 1_555 1_555
H10 C1 1_555 1_555
H11 C3 1_555 1_555
H12 C6 1_555 1_555
H13 C8 1_555 1_555
H14 C8 1_555 1_555
H15 C9 1_555 1_555
H16 C9 1_555 1_555
H17 C10 1_555 1_555
H18 C10 1_555 1_555
H19 C11 1_555 1_555
H20 C11 1_555 1_555
H21 C12 1_555 1_555
H22 C12 1_555 1_555
H23 C13 1_555 1_555
H24 C13 1_555 1_555
H25 C14 1_555 1_555
H26 C14 1_555 1_555
C3 C4 1_555 1_555
C6 C7 1_555 1_555

#END
