
#######################################################################
#
#                 Cambridge Crystallographic Data Centre
#                                CCDC 
#
#######################################################################
#
# If this CIF has been generated from an entry in the Cambridge 
# Structural Database, then it will include bibliographic, chemical, 
# crystal, experimental, refinement or atomic coordinate data resulting 
# from the CCDC's data processing and validation procedures.
#
#######################################################################

data_AZENID
_chemical_formula_moiety         'C14 H20 O6 S1'
_chemical_name_systematic        
'2,3,5,6,8,9,11,12-Octahydro-1,4,7,10,13-benzotetraoxathiacyclopentadecin-15-ol 13-oxide'
_symmetry_cell_setting           monoclinic
_symmetry_space_group_name_H-M   'P 21/n'
_symmetry_Int_Tables_number      14
_space_group_name_Hall           '-P 2yn'
loop_
_symmetry_equiv_pos_site_id
_symmetry_equiv_pos_as_xyz
1 x,y,z
2 1/2-x,1/2+y,1/2-z
3 -x,-y,-z
4 1/2+x,1/2-y,1/2+z
_cell_length_a                   11.7912(19)
_cell_length_b                   8.0915(13)
_cell_length_c                   15.899(3)
_cell_angle_alpha                90
_cell_angle_beta                 93.454(5)
_cell_angle_gamma                90
_cell_volume                     1514.14
_exptl_crystal_colour            colorless
_exptl_crystal_description       block
_chemical_melting_point          '151-2deg. C'
_cell_formula_units_Z            4
_exptl_crystal_recrystallization_method dichloromethane/hexane
loop_
_atom_site_label
_atom_site_type_symbol
_atom_site_fract_x
_atom_site_fract_y
_atom_site_fract_z
S1 S 0.85111(5) 0.68199(8) 0.01630(4)
O1 O 0.93096(15) 0.4077(2) 0.11716(11)
O2 O 0.74039(15) 0.2497(2) 0.17430(11)
O3 O 0.53282(15) 0.4106(2) 0.12144(11)
O4 O 0.55094(15) 0.7596(2) 0.11244(12)
O5 O 0.85195(15) 0.8484(2) -0.02557(12)
O6 O 1.21529(16) 0.9471(2) 0.15143(12)
C1 C 0.7470(2) 0.6968(3) 0.09523(15)
C2 C 0.97614(19) 0.6797(3) 0.08567(14)
C3 C 1.0447(2) 0.8175(3) 0.09049(15)
C4 C 1.14360(19) 0.8144(3) 0.14329(15)
C5 C 1.1698(2) 0.6745(3) 0.19056(15)
C6 C 1.1000(2) 0.5347(3) 0.18383(15)
C7 C 1.0034(2) 0.5359(3) 0.13111(14)
C8 C 0.9407(2) 0.2710(3) 0.17381(16)
C9 C 0.8400(2) 0.1619(3) 0.15489(18)
C10 C 0.6406(2) 0.1636(3) 0.14590(18)
C11 C 0.5388(2) 0.2618(3) 0.16843(17)
C12 C 0.4434(2) 0.5152(3) 0.14706(17)
C13 C 0.4457(2) 0.6740(3) 0.09792(17)
C14 C 0.6322(2) 0.7285(4) 0.04987(17)
H1 H 0.6368 0.8252 0.0121
H2 H 0.6085 0.6313 0.0154
H3 H 1.194(3) 1.021(5) 0.116(3)
H4 H 0.747(2) 0.596(4) 0.1213(18)
H5 H 0.768(3) 0.779(4) 0.135(2)
H6 H 1.027(2) 0.912(4) 0.0596(18)
H7 H 1.239(3) 0.672(4) 0.2308(19)
H8 H 1.118(2) 0.444(4) 0.2148(19)
H9 H 0.939(2) 0.311(3) 0.2298(18)
H10 H 1.009(3) 0.216(4) 0.1696(19)
H11 H 0.836(3) 0.130(4) 0.094(2)
H12 H 0.849(2) 0.059(4) 0.1887(17)
H13 H 0.637(3) 0.060(4) 0.173(2)
H14 H 0.639(2) 0.148(4) 0.0833(19)
H15 H 0.473(3) 0.203(4) 0.1571(18)
H16 H 0.543(3) 0.289(4) 0.228(2)
H17 H 0.447(2) 0.533(3) 0.2077(12)
H18 H 0.368(2) 0.461(4) 0.142(2)
H19 H 0.432(3) 0.654(4) 0.0359(13)
H20 H 0.385(2) 0.754(3) 0.1169(19)
loop_
_geom_bond_atom_site_label_1
_geom_bond_atom_site_label_2
_geom_bond_site_symmetry_1
_geom_bond_site_symmetry_2
S1 O5 1_555 1_555
O1 C7 1_555 1_555
O2 C9 1_555 1_555
O3 C11 1_555 1_555
O4 C13 1_555 1_555
O6 C4 1_555 1_555
C1 S1 1_555 1_555
C2 S1 1_555 1_555
C3 C2 1_555 1_555
C4 C3 1_555 1_555
C5 C4 1_555 1_555
C6 C5 1_555 1_555
C7 C2 1_555 1_555
C8 O1 1_555 1_555
C9 C8 1_555 1_555
C10 O2 1_555 1_555
C11 C10 1_555 1_555
C12 O3 1_555 1_555
C13 C12 1_555 1_555
C14 O4 1_555 1_555
H1 C14 1_555 1_555
H2 C14 1_555 1_555
H3 O6 1_555 1_555
H4 C1 1_555 1_555
H5 C1 1_555 1_555
H6 C3 1_555 1_555
H7 C5 1_555 1_555
H8 C6 1_555 1_555
H9 C8 1_555 1_555
H10 C8 1_555 1_555
H11 C9 1_555 1_555
H12 C9 1_555 1_555
H13 C10 1_555 1_555
H14 C10 1_555 1_555
H15 C11 1_555 1_555
H16 C11 1_555 1_555
H17 C12 1_555 1_555
H18 C12 1_555 1_555
H19 C13 1_555 1_555
H20 C13 1_555 1_555
C1 C14 1_555 1_555
C6 C7 1_555 1_555

#END
