
#######################################################################
#
#                 Cambridge Crystallographic Data Centre
#                                CCDC 
#
#######################################################################
#
# If this CIF has been generated from an entry in the Cambridge 
# Structural Database, then it will include bibliographic, chemical, 
# crystal, experimental, refinement or atomic coordinate data resulting 
# from the CCDC's data processing and validation procedures.
#
#######################################################################

data_AZEPIE
_chemical_formula_moiety         'C34 H62 N4 O2 P2 S2'
_chemical_name_systematic        
1,7-bis(bis(N,N-Diisopropylamido)thiophosphato)naphthalene
_symmetry_cell_setting           monoclinic
_symmetry_space_group_name_H-M   'C 2/c'
_symmetry_Int_Tables_number      15
_space_group_name_Hall           '-C 2yn'
loop_
_symmetry_equiv_pos_site_id
_symmetry_equiv_pos_as_xyz
1 x,y,z
2 1/2+x,1/2+y,z
3 x,-y,1/2+z
4 1/2+x,1/2-y,1/2+z
5 -x,-y,-z
6 1/2-x,1/2-y,-z
7 -x,y,1/2-z
8 1/2-x,1/2+y,1/2-z
_cell_length_a                   36.040(6)
_cell_length_b                   8.106(2)
_cell_length_c                   27.560(6)
_cell_angle_alpha                90
_cell_angle_beta                 101.38(3)
_cell_angle_gamma                90
_cell_volume                     7893.1
_exptl_crystal_colour            colorless
_exptl_crystal_description       plate
_chemical_melting_point          '212-213 deg.C'
_cell_formula_units_Z            8
loop_
_atom_site_label
_atom_site_type_symbol
_atom_site_fract_x
_atom_site_fract_y
_atom_site_fract_z
S1 S 0.11593(5) 0.0900(2) 0.05388(5)
S2 S 0.14719(6) 0.7312(2) 0.37846(7)
P1 P 0.10930(4) 0.0850(2) 0.12190(5)
P2 P 0.14127(4) 0.4954(2) 0.38124(6)
O1 O 0.12459(10) 0.2485(5) 0.15398(13)
O2 O 0.14162(10) 0.4028(5) 0.32972(13)
N1 N 0.06523(12) 0.0938(6) 0.13086(15)
N2 N 0.12961(13) -0.0705(6) 0.15441(16)
N3 N 0.10002(12) 0.4212(7) 0.38908(15)
N4 N 0.17398(12) 0.4032(6) 0.42183(15)
C1 C 0.16165(15) 0.3073(7) 0.1639(2)
C2 C 0.18484(18) 0.3105(8) 0.1309(2)
C3 C 0.22077(19) 0.3813(9) 0.1441(2)
C4 C 0.23301(16) 0.4512(8) 0.1884(2)
C5 C 0.22149(16) 0.5176(9) 0.2719(2)
C6 C 0.19931(17) 0.5068(9) 0.3068(2)
C7 C 0.16422(16) 0.4276(7) 0.2954(2)
C8 C 0.15159(15) 0.3638(7) 0.2497(2)
C9 C 0.17359(16) 0.3726(7) 0.21258(19)
C10 C 0.20988(15) 0.4493(7) 0.2245(2)
C11 C 0.04242(18) -0.0579(8) 0.1172(2)
C12 C 0.0207(2) -0.0645(10) 0.0640(3)
C13 C 0.0163(2) -0.0915(10) 0.1538(3)
C14 C 0.04223(17) 0.2474(8) 0.1264(3)
C15 C 0.0479(2) 0.3424(11) 0.1751(3)
C16 C 0.0460(2) 0.3577(9) 0.0839(3)
C17 C 0.12829(18) -0.0777(8) 0.2081(2)
C18 C 0.1675(2) -0.0603(9) 0.2404(2)
C19 C 0.1088(2) -0.2310(9) 0.2215(3)
C20 C 0.15184(19) -0.2064(9) 0.1368(3)
C21 C 0.1877(2) -0.1472(10) 0.1216(3)
C22 C 0.1281(2) -0.3103(9) 0.0971(3)
C23 C 0.06763(18) 0.3866(12) 0.3483(3)
C24 C 0.0595(2) 0.5137(12) 0.3079(3)
C25 C 0.0699(2) 0.2168(14) 0.3277(3)
C26 C 0.08975(19) 0.4594(13) 0.4371(2)
C27 C 0.0712(2) 0.3157(16) 0.4569(3)
C28 C 0.0657(3) 0.6102(15) 0.4359(4)
C29 C 0.17409(19) 0.2179(8) 0.4206(2)
C30 C 0.2078(2) 0.1519(10) 0.4015(3)
C31 C 0.1712(2) 0.1401(10) 0.4694(3)
C32 C 0.20372(19) 0.4806(10) 0.4599(2)
C33 C 0.1891(2) 0.5719(10) 0.4995(2)
C34 C 0.2346(2) 0.5648(11) 0.4419(3)
H1 H 0.1756 0.2676 0.0974
H2 H 0.2379 0.3749 0.1204
H3 H 0.2579 0.5056 0.1964
H4 H 0.2456 0.5715 0.2795
H5 H 0.2084 0.5556 0.3403
H6 H 0.1268 0.3134 0.2430
H7 H 0.0607 -0.1534 0.1220
H8 H 0.0399 -0.0492 0.0407
H9 H 0.0092 -0.1686 0.0543
H10 H 0.0036 0.0228 0.0564
H11 H 0.0296 -0.0869 0.1876
H12 H -0.0030 -0.0011 0.1499
H13 H 0.0027 -0.1926 0.1478
H14 H 0.0151 0.2102 0.1196
H15 H 0.0447 0.2710 0.2017
H16 H 0.0731 0.3874 0.1818
H17 H 0.0300 0.4323 0.1729
H18 H 0.0413 0.2938 0.0517
H19 H 0.0278 0.4468 0.0784
H20 H 0.0709 0.4019 0.0873
H21 H 0.1136 0.0191 0.2149
H22 H 0.1810 0.0360 0.2328
H23 H 0.1667 -0.0587 0.2752
H24 H 0.1833 -0.1570 0.2353
H25 H 0.0835 -0.2440 0.2015
H26 H 0.1230 -0.3301 0.2160
H27 H 0.1065 -0.2319 0.2559
H28 H 0.1597 -0.2808 0.1650
H29 H 0.2028 -0.0824 0.1475
H30 H 0.2027 -0.2390 0.1141
H31 H 0.1813 -0.0789 0.0922
H32 H 0.1052 -0.3483 0.1069
H33 H 0.1204 -0.2445 0.0670
H34 H 0.1418 -0.4046 0.0888
H35 H 0.0450 0.3807 0.3635
H36 H 0.0588 0.6266 0.3218
H37 H 0.0822 0.5215 0.2907
H38 H 0.0382 0.4980 0.2832
H39 H 0.0744 0.1263 0.3533
H40 H 0.0481 0.1804 0.3035
H41 H 0.0921 0.2039 0.3110
H42 H 0.1134 0.4821 0.4603
H43 H 0.0864 0.2159 0.4571
H44 H 0.0670 0.3338 0.4897
H45 H 0.0466 0.2920 0.4354
H46 H 0.0785 0.7119 0.4239
H47 H 0.0416 0.6042 0.4145
H48 H 0.0620 0.6460 0.4688
H49 H 0.1516 0.1844 0.3964
H50 H 0.2101 0.1951 0.3706
H51 H 0.2311 0.1715 0.4257
H52 H 0.2059 0.0290 0.3982
H53 H 0.1494 0.1825 0.4815
H54 H 0.1684 0.0210 0.4668
H55 H 0.1936 0.1635 0.4943
H56 H 0.2171 0.3843 0.4784
H57 H 0.1690 0.5140 0.5119
H58 H 0.2083 0.6014 0.5282
H59 H 0.1774 0.6790 0.4864
H60 H 0.2436 0.5024 0.4169
H61 H 0.2245 0.6702 0.4261
H62 H 0.2554 0.5927 0.4679
loop_
_geom_bond_atom_site_label_1
_geom_bond_atom_site_label_2
_geom_bond_site_symmetry_1
_geom_bond_site_symmetry_2
S1 P1 1_555 1_555
S2 P2 1_555 1_555
P1 O1 1_555 1_555
P2 O2 1_555 1_555
O1 C1 1_555 1_555
O2 C7 1_555 1_555
N1 P1 1_555 1_555
N2 P1 1_555 1_555
N3 P2 1_555 1_555
N4 P2 1_555 1_555
C1 C2 1_555 1_555
C2 C3 1_555 1_555
C3 C4 1_555 1_555
C4 C10 1_555 1_555
C5 C6 1_555 1_555
C6 C7 1_555 1_555
C7 C8 1_555 1_555
C8 C9 1_555 1_555
C9 C1 1_555 1_555
C10 C5 1_555 1_555
C11 N1 1_555 1_555
C12 C11 1_555 1_555
C13 C11 1_555 1_555
C14 N1 1_555 1_555
C15 C14 1_555 1_555
C16 C14 1_555 1_555
C17 N2 1_555 1_555
C18 C17 1_555 1_555
C19 C17 1_555 1_555
C20 N2 1_555 1_555
C21 C20 1_555 1_555
C22 C20 1_555 1_555
C23 N3 1_555 1_555
C24 C23 1_555 1_555
C25 C23 1_555 1_555
C26 N3 1_555 1_555
C27 C26 1_555 1_555
C28 C26 1_555 1_555
C29 N4 1_555 1_555
C30 C29 1_555 1_555
C31 C29 1_555 1_555
C32 N4 1_555 1_555
C33 C32 1_555 1_555
C34 C32 1_555 1_555
H1 C2 1_555 1_555
H2 C3 1_555 1_555
H3 C4 1_555 1_555
H4 C5 1_555 1_555
H5 C6 1_555 1_555
H6 C8 1_555 1_555
H7 C11 1_555 1_555
H8 C12 1_555 1_555
H9 C12 1_555 1_555
H10 C12 1_555 1_555
H11 C13 1_555 1_555
H12 C13 1_555 1_555
H13 C13 1_555 1_555
H14 C14 1_555 1_555
H15 C15 1_555 1_555
H16 C15 1_555 1_555
H17 C15 1_555 1_555
H18 C16 1_555 1_555
H19 C16 1_555 1_555
H20 C16 1_555 1_555
H21 C17 1_555 1_555
H22 C18 1_555 1_555
H23 C18 1_555 1_555
H24 C18 1_555 1_555
H25 C19 1_555 1_555
H26 C19 1_555 1_555
H27 C19 1_555 1_555
H28 C20 1_555 1_555
H29 C21 1_555 1_555
H30 C21 1_555 1_555
H31 C21 1_555 1_555
H32 C22 1_555 1_555
H33 C22 1_555 1_555
H34 C22 1_555 1_555
H35 C23 1_555 1_555
H36 C24 1_555 1_555
H37 C24 1_555 1_555
H38 C24 1_555 1_555
H39 C25 1_555 1_555
H40 C25 1_555 1_555
H41 C25 1_555 1_555
H42 C26 1_555 1_555
H43 C27 1_555 1_555
H44 C27 1_555 1_555
H45 C27 1_555 1_555
H46 C28 1_555 1_555
H47 C28 1_555 1_555
H48 C28 1_555 1_555
H49 C29 1_555 1_555
H50 C30 1_555 1_555
H51 C30 1_555 1_555
H52 C30 1_555 1_555
H53 C31 1_555 1_555
H54 C31 1_555 1_555
H55 C31 1_555 1_555
H56 C32 1_555 1_555
H57 C33 1_555 1_555
H58 C33 1_555 1_555
H59 C33 1_555 1_555
H60 C34 1_555 1_555
H61 C34 1_555 1_555
H62 C34 1_555 1_555
C9 C10 1_555 1_555

#END
