
#######################################################################
#
#                 Cambridge Crystallographic Data Centre
#                                CCDC 
#
#######################################################################
#
# If this CIF has been generated from an entry in the Cambridge 
# Structural Database, then it will include bibliographic, chemical, 
# crystal, experimental, refinement or atomic coordinate data resulting 
# from the CCDC's data processing and validation procedures.
#
#######################################################################

data_AZEPOK
_chemical_formula_moiety         'C24 H24 N2 O4 P2'
_chemical_name_systematic        
Cyclo(bis(naphthalene-1,7-diyl(dimethylamido)phosphite))
_symmetry_cell_setting           monoclinic
_symmetry_space_group_name_H-M   'P 21/c'
_symmetry_Int_Tables_number      14
_space_group_name_Hall           '-P 2ybc'
loop_
_symmetry_equiv_pos_site_id
_symmetry_equiv_pos_as_xyz
1 x,y,z
2 x,1/2-y,1/2+z
3 -x,-y,-z
4 -x,1/2+y,1/2-z
_cell_length_a                   8.247(2)
_cell_length_b                   10.546(2)
_cell_length_c                   12.965(3)
_cell_angle_alpha                90
_cell_angle_beta                 96.74(3)
_cell_angle_gamma                90
_cell_volume                     1119.81
_exptl_crystal_colour            colorless
_exptl_crystal_description       prism
_chemical_melting_point          '191-192 deg.C'
_cell_formula_units_Z            2
loop_
_atom_site_label
_atom_site_type_symbol
_atom_site_fract_x
_atom_site_fract_y
_atom_site_fract_z
P1 P 0.58233(6) 0.24514(5) 0.59468(4)
O1 O 0.42256(16) 0.33516(12) 0.61435(10)
O2 O 0.71367(17) 0.33337(13) 0.66908(10)
N1 N 0.5724(2) 0.12729(16) 0.67674(14)
C1 C 0.2714(2) 0.30138(18) 0.56250(15)
C2 C 0.1885(3) 0.1981(2) 0.5923(2)
C3 C 0.0372(3) 0.1654(2) 0.5387(2)
C4 C -0.0271(3) 0.2326(2) 0.4545(2)
C5 C 1.0080(3) 0.5851(2) 0.66436(18)
C6 C 0.9304(3) 0.4790(2) 0.69210(18)
C7 C 0.7855(2) 0.44049(18) 0.63338(15)
C8 C 0.7194(2) 0.50907(18) 0.54989(15)
C9 C 0.2034(2) 0.37911(17) 0.47887(15)
C10 C 0.0545(2) 0.3412(2) 0.42253(16)
C11 C 0.5382(4) 0.1442(3) 0.7836(2)
C12 C 0.5923(6) -0.0014(3) 0.6433(3)
H1 H 0.239(3) 0.150(2) 0.6474(19)
H2 H -0.017(3) 0.097(2) 0.5622(18)
H3 H -0.129(3) 0.209(2) 0.416(2)
H4 H 1.102(3) 0.614(2) 0.703(2)
H5 H 0.975(3) 0.429(2) 0.7496(18)
H6 H 0.628(2) 0.4813(18) 0.5111(14)
H7 H 0.453(5) 0.082(4) 0.797(3)
H8 H 0.499(6) 0.216(5) 0.791(4)
H9 H 0.617(4) 0.101(3) 0.831(3)
H10 H 0.630(3) 0.002(3) 0.571(2)
H11 H 0.492(5) -0.046(4) 0.645(3)
H12 H 0.670(4) -0.047(3) 0.686(3)
C5B C -0.0080(3) 0.4149(2) 0.33564(18)
C6B C 0.0696(3) 0.5210(2) 0.30790(18)
C7B C 0.2145(2) 0.55951(18) 0.36662(15)
O2B O 0.28633(17) 0.66663(13) 0.33092(10)
P1B P 0.41767(6) 0.75486(5) 0.40532(4)
O1B O 0.57744(16) 0.66484(12) 0.38565(10)
C1B C 0.7286(2) 0.69862(18) 0.43750(15)
C2B C 0.8115(3) 0.8019(2) 0.4077(2)
C3B C 0.9628(3) 0.8346(2) 0.4613(2)
C4B C 1.0271(3) 0.7674(2) 0.5455(2)
C10B C 0.9455(2) 0.6588(2) 0.57747(16)
C9B C 0.7966(2) 0.62089(17) 0.52113(15)
H3B H 1.129(3) 0.791(2) 0.584(2)
H2B H 1.017(3) 0.903(2) 0.4378(18)
H1B H 0.761(3) 0.850(2) 0.3526(19)
N1B N 0.4276(2) 0.87271(16) 0.32326(14)
C11B C 0.4618(4) 0.8558(3) 0.2164(2)
H7B H 0.547(5) 0.918(4) 0.203(3)
H8B H 0.501(6) 0.784(5) 0.209(4)
H9B H 0.383(4) 0.899(3) 0.169(3)
C12B C 0.4077(6) 1.0014(3) 0.3567(3)
H10B H 0.370(3) 0.998(3) 0.429(2)
H11B H 0.508(5) 1.046(4) 0.355(3)
H12B H 0.330(4) 1.047(3) 0.314(3)
C8B C 0.2806(2) 0.49093(18) 0.45011(15)
H6B H 0.372(2) 0.5187(18) 0.4889(14)
H5B H 0.025(3) 0.571(2) 0.2504(18)
H4B H -0.102(3) 0.386(2) 0.297(2)
loop_
_geom_bond_atom_site_label_1
_geom_bond_atom_site_label_2
_geom_bond_site_symmetry_1
_geom_bond_site_symmetry_2
P1 O1 1_555 1_555
O1 C1 1_555 1_555
O2 P1 1_555 1_555
N1 P1 1_555 1_555
C1 C2 1_555 1_555
C2 C3 1_555 1_555
C3 C4 1_555 1_555
C4 C10 1_555 1_555
C5 C6 1_555 1_555
C6 C7 1_555 1_555
C7 O2 1_555 1_555
C8 C7 1_555 1_555
C9 C1 1_555 1_555
C10 C9 1_555 1_555
C11 N1 1_555 1_555
C12 N1 1_555 1_555
H1 C2 1_555 1_555
H2 C3 1_555 1_555
H3 C4 1_555 1_555
H4 C5 1_555 1_555
H5 C6 1_555 1_555
H6 C8 1_555 1_555
H7 C11 1_555 1_555
H8 C11 1_555 1_555
H9 C11 1_555 1_555
H10 C12 1_555 1_555
H11 C12 1_555 1_555
H12 C12 1_555 1_555
C5B C10 1_555 1_555
C6B C5B 1_555 1_555
C7B C6B 1_555 1_555
O2B C7B 1_555 1_555
P1B O2B 1_555 1_555
O1B P1B 1_555 1_555
C1B O1B 1_555 1_555
C2B C1B 1_555 1_555
C3B C2B 1_555 1_555
C4B C3B 1_555 1_555
C10B C5 1_555 1_555
C9B C8 1_555 1_555
H3B C4B 1_555 1_555
H2B C3B 1_555 1_555
H1B C2B 1_555 1_555
N1B P1B 1_555 1_555
C11B N1B 1_555 1_555
H7B C11B 1_555 1_555
H8B C11B 1_555 1_555
H9B C11B 1_555 1_555
C12B N1B 1_555 1_555
H10B C12B 1_555 1_555
H11B C12B 1_555 1_555
H12B C12B 1_555 1_555
C8B C9 1_555 1_555
H6B C8B 1_555 1_555
H5B C6B 1_555 1_555
H4B C5B 1_555 1_555
C7B C8B 1_555 1_555
C1B C9B 1_555 1_555
C4B C10B 1_555 1_555
C10B C9B 1_555 1_555

#END
