
#######################################################################
#
#                 Cambridge Crystallographic Data Centre
#                                CCDC 
#
#######################################################################
#
# If this CIF has been generated from an entry in the Cambridge 
# Structural Database, then it will include bibliographic, chemical, 
# crystal, experimental, refinement or atomic coordinate data resulting 
# from the CCDC's data processing and validation procedures.
#
#######################################################################

data_AZEXOT
_chemical_formula_moiety         'C30 H23 I1 O2 P2 S2'
_chemical_name_systematic        
"O,O'-2-iodo-1,3-phenylene bis(diphenylphosphinothioate)"
_symmetry_cell_setting           monoclinic
_symmetry_space_group_name_H-M   'P 21/c'
_symmetry_Int_Tables_number      14
_space_group_name_Hall           '-P 2ybc'
loop_
_symmetry_equiv_pos_site_id
_symmetry_equiv_pos_as_xyz
1 x,y,z
2 -x,1/2+y,1/2-z
3 -x,-y,-z
4 x,1/2-y,1/2+z
_cell_length_a                   12.5467(11)
_cell_length_b                   13.4389(9)
_cell_length_c                   18.0010(13)
_cell_angle_alpha                90
_cell_angle_beta                 108.299(8)
_cell_angle_gamma                90
_cell_volume                     2881.73
_exptl_crystal_colour            colorless
_exptl_crystal_description       prismatic
_cell_formula_units_Z            4
loop_
_atom_site_label
_atom_site_type_symbol
_atom_site_fract_x
_atom_site_fract_y
_atom_site_fract_z
I1 I 0.19393(2) 0.150065(17) 0.148128(12)
S1 S 0.07696(8) -0.12781(8) 0.35968(6)
S2 S 0.52162(7) 0.42008(7) 0.36702(5)
P1 P 0.16934(7) -0.13367(6) 0.29185(5)
P2 P 0.36544(7) 0.41688(6) 0.30439(5)
O1 O 0.20214(19) -0.02722(15) 0.26108(12)
O2 O 0.31642(19) 0.30818(15) 0.27040(12)
C1 C 0.2609(2) 0.1405(2) 0.26925(17)
C2 C 0.3132(3) 0.2224(2) 0.31251(18)
C3 C 0.3597(3) 0.2160(2) 0.3933(2)
H1 H 0.3942 0.2711 0.4222
C4 C 0.3540(3) 0.1268(3) 0.4300(2)
H2 H 0.3855 0.1222 0.4840
C5 C 0.3026(3) 0.0446(2) 0.3880(2)
H3 H 0.2997 -0.0150 0.4136
C6 C 0.2555(3) 0.0513(2) 0.30779(19)
C7 C 0.1040(3) -0.1909(2) 0.1982(2)
C8 C 0.0146(4) -0.2534(3) 0.1896(3)
H4 H -0.0130 -0.2636 0.2313
C9 C -0.0347(4) -0.3012(4) 0.1193(3)
H5 H -0.0945 -0.3445 0.1141
C10 C 0.0039(4) -0.2852(4) 0.0571(3)
H6 H -0.0303 -0.3167 0.0095
C11 C 0.0925(4) -0.2230(3) 0.0651(2)
H7 H 0.1188 -0.2122 0.0229
C12 C 0.1433(4) -0.1762(3) 0.1353(2)
H8 H 0.2043 -0.1345 0.1404
C13 C 0.3030(3) -0.1930(2) 0.33497(18)
C14 C 0.3933(3) -0.1716(3) 0.3081(2)
H9 H 0.3847 -0.1264 0.2675
C15 C 0.4951(3) -0.2175(3) 0.3418(2)
H10 H 0.5553 -0.2027 0.3239
C16 C 0.5088(3) -0.2845(3) 0.4011(2)
H11 H 0.5777 -0.3157 0.4231
C17 C 0.4206(3) -0.3054(3) 0.4278(2)
H12 H 0.4301 -0.3507 0.4685
C18 C 0.3181(3) -0.2603(2) 0.3955(2)
H13 H 0.2589 -0.2751 0.4143
C19 C 0.2699(3) 0.4596(2) 0.35398(18)
C20 C 0.3034(3) 0.4685(2) 0.4346(2)
H14 H 0.3772 0.4545 0.4639
C21 C 0.2278(3) 0.4980(3) 0.4715(2)
H15 H 0.2506 0.5028 0.5258
C22 C 0.1204(3) 0.5202(3) 0.4293(3)
H16 H 0.0697 0.5404 0.4546
C23 C 0.0868(3) 0.5128(4) 0.3497(3)
H17 H 0.0130 0.5278 0.3210
C24 C 0.1605(3) 0.4835(3) 0.3112(2)
H18 H 0.1369 0.4797 0.2569
C25 C 0.3351(3) 0.4819(2) 0.21277(19)
C26 C 0.2499(3) 0.4536(3) 0.1471(2)
H19 H 0.2061 0.3983 0.1487
C27 C 0.2295(4) 0.5079(3) 0.0784(2)
H20 H 0.1722 0.4884 0.0340
C28 C 0.2926(4) 0.5895(3) 0.0756(3)
H21 H 0.2785 0.6252 0.0293
C29 C 0.3764(4) 0.6185(3) 0.1407(3)
H22 H 0.4186 0.6747 0.1389
C30 C 0.3990(3) 0.5647(3) 0.2097(2)
H23 H 0.4570 0.5842 0.2538
loop_
_geom_bond_atom_site_label_1
_geom_bond_atom_site_label_2
_geom_bond_site_symmetry_1
_geom_bond_site_symmetry_2
I1 C1 1_555 1_555
S1 P1 1_555 1_555
S2 P2 1_555 1_555
P1 O1 1_555 1_555
P2 O2 1_555 1_555
O1 C6 1_555 1_555
O2 C2 1_555 1_555
C1 C2 1_555 1_555
C2 C3 1_555 1_555
C3 H1 1_555 1_555
C4 C3 1_555 1_555
H2 C4 1_555 1_555
C5 C4 1_555 1_555
H3 C5 1_555 1_555
C6 C1 1_555 1_555
C7 P1 1_555 1_555
C8 C7 1_555 1_555
H4 C8 1_555 1_555
C9 C8 1_555 1_555
H5 C9 1_555 1_555
C10 C9 1_555 1_555
H6 C10 1_555 1_555
C11 C10 1_555 1_555
H7 C11 1_555 1_555
C12 C7 1_555 1_555
H8 C12 1_555 1_555
C13 P1 1_555 1_555
C14 C13 1_555 1_555
H9 C14 1_555 1_555
C15 C14 1_555 1_555
H10 C15 1_555 1_555
C16 C15 1_555 1_555
H11 C16 1_555 1_555
C17 C16 1_555 1_555
H12 C17 1_555 1_555
C18 C13 1_555 1_555
H13 C18 1_555 1_555
C19 P2 1_555 1_555
C20 C19 1_555 1_555
H14 C20 1_555 1_555
C21 C20 1_555 1_555
H15 C21 1_555 1_555
C22 C21 1_555 1_555
H16 C22 1_555 1_555
C23 C22 1_555 1_555
H17 C23 1_555 1_555
C24 C19 1_555 1_555
H18 C24 1_555 1_555
C25 P2 1_555 1_555
C26 C25 1_555 1_555
H19 C26 1_555 1_555
C27 C26 1_555 1_555
H20 C27 1_555 1_555
C28 C27 1_555 1_555
H21 C28 1_555 1_555
C29 C28 1_555 1_555
H22 C29 1_555 1_555
C30 C25 1_555 1_555
H23 C30 1_555 1_555
C5 C6 1_555 1_555
C11 C12 1_555 1_555
C17 C18 1_555 1_555
C23 C24 1_555 1_555
C29 C30 1_555 1_555

#END
