
#######################################################################
#
#                 Cambridge Crystallographic Data Centre
#                                CCDC 
#
#######################################################################
#
# If this CIF has been generated from an entry in the Cambridge 
# Structural Database, then it will include bibliographic, chemical, 
# crystal, experimental, refinement or atomic coordinate data resulting 
# from the CCDC's data processing and validation procedures.
#
#######################################################################

data_AZEYAH
_chemical_formula_moiety         'C17 H24 O2 S1 Si1'
_chemical_name_systematic        
'ethyl 2-phenyl-4-((trimethylsilyl)methyl)-4,5-dihydrothiophene-3-carboxylate'
_symmetry_cell_setting           monoclinic
_symmetry_space_group_name_H-M   'P 21/c'
_symmetry_Int_Tables_number      14
_space_group_name_Hall           '-P 2ybc'
loop_
_symmetry_equiv_pos_site_id
_symmetry_equiv_pos_as_xyz
1 x,y,z
2 -x,1/2+y,1/2-z
3 -x,-y,-z
4 x,1/2-y,1/2+z
_cell_length_a                   10.1244(4)
_cell_length_b                   18.7208(8)
_cell_length_c                   9.5787(4)
_cell_angle_alpha                90
_cell_angle_beta                 91.3035(18)
_cell_angle_gamma                90
_cell_volume                     1815.05
_exptl_crystal_colour            colorless
_exptl_crystal_description       block
_cell_formula_units_Z            4
loop_
_atom_site_label
_atom_site_type_symbol
_atom_site_fract_x
_atom_site_fract_y
_atom_site_fract_z
C1 C 0.8478(3) -0.05616(17) 0.5293(3)
H1 H 0.9051 -0.0617 0.4556
C2 C 0.8720(4) -0.0921(2) 0.6538(4)
H2 H 0.9447 -0.1223 0.6626
C3 C 0.7894(4) -0.0836(2) 0.7640(3)
H3 H 0.8054 -0.1079 0.8473
C4 C 0.6823(3) -0.0385(2) 0.7503(3)
H4 H 0.6267 -0.032 0.8252
C5 C 0.6569(3) -0.00298(18) 0.6274(3)
H5 H 0.5843 0.0273 0.6196
C6 C 0.7392(3) -0.01216(16) 0.5144(3)
C7 C 0.7130(3) 0.02746(15) 0.3831(3)
C8 C 0.6875(3) 0.00474(14) 0.2518(3)
C9 C 0.6878(3) 0.06327(15) 0.1415(3)
H6 H 0.6189 0.0531 0.0708
C10 C 0.6509(4) 0.13098(17) 0.2207(4)
H7 H 0.5557 0.1361 0.2235
H8 H 0.6872 0.1728 0.1758
C11 C 0.6682(3) -0.07008(15) 0.2079(3)
C12 C 0.6522(4) -0.19049(16) 0.2861(4)
H9 H 0.7336 -0.2066 0.2449
H10 H 0.5796 -0.2007 0.2213
C13 C 0.6319(6) -0.2272(2) 0.4196(5)
H11 H 0.7043 -0.2168 0.4828
H12 H 0.6272 -0.2778 0.404
H13 H 0.551 -0.211 0.4592
C14 C 0.8224(3) 0.06636(15) 0.0706(3)
H14 H 0.8348 0.0214 0.0222
H15 H 0.8902 0.0691 0.1437
C15 C 0.9670(4) 0.1071(2) -0.1927(4)
H16 H 0.9827 0.1443 -0.2593
H17 H 0.9275 0.0668 -0.2395
H18 H 1.0492 0.0929 -0.1493
C16 C 0.6958(4) 0.1697(2) -0.1437(4)
H19 H 0.7147 0.1947 -0.2285
H20 H 0.6491 0.2008 -0.0823
H21 H 0.6423 0.1286 -0.165
C17 C 0.9327(4) 0.21833(19) 0.0348(5)
H22 H 1.0111 0.2027 0.0839
H23 H 0.8721 0.2382 0.0999
H24 H 0.9555 0.2541 -0.0324
O1 O 0.6578(3) -0.08887(13) 0.0885(2)
O2 O 0.6588(2) -0.11494(11) 0.3144(2)
S1 S 0.72048(11) 0.12117(5) 0.39600(9)
Si1 Si 0.85364(8) 0.14058(4) -0.05714(9)
loop_
_geom_bond_atom_site_label_1
_geom_bond_atom_site_label_2
_geom_bond_site_symmetry_1
_geom_bond_site_symmetry_2
C1 H1 1_555 1_555
C2 C1 1_555 1_555
H2 C2 1_555 1_555
C3 C2 1_555 1_555
H3 C3 1_555 1_555
C4 C3 1_555 1_555
H4 C4 1_555 1_555
C5 C4 1_555 1_555
H5 C5 1_555 1_555
C6 C1 1_555 1_555
C7 C6 1_555 1_555
C8 C7 1_555 1_555
C9 C8 1_555 1_555
H6 C9 1_555 1_555
C10 C9 1_555 1_555
H7 C10 1_555 1_555
H8 C10 1_555 1_555
C11 C8 1_555 1_555
C12 H9 1_555 1_555
H10 C12 1_555 1_555
C13 C12 1_555 1_555
H11 C13 1_555 1_555
H12 C13 1_555 1_555
H13 C13 1_555 1_555
C14 C9 1_555 1_555
H14 C14 1_555 1_555
H15 C14 1_555 1_555
C15 H16 1_555 1_555
H17 C15 1_555 1_555
H18 C15 1_555 1_555
C16 H19 1_555 1_555
H20 C16 1_555 1_555
H21 C16 1_555 1_555
C17 H22 1_555 1_555
H23 C17 1_555 1_555
H24 C17 1_555 1_555
O1 C11 1_555 1_555
O2 C11 1_555 1_555
S1 C7 1_555 1_555
Si1 C14 1_555 1_555
C5 C6 1_555 1_555
C10 S1 1_555 1_555
C12 O2 1_555 1_555
C15 Si1 1_555 1_555
C16 Si1 1_555 1_555
C17 Si1 1_555 1_555

#END
