
#######################################################################
#
#                 Cambridge Crystallographic Data Centre
#                                CCDC 
#
#######################################################################
#
# If this CIF has been generated from an entry in the Cambridge 
# Structural Database, then it will include bibliographic, chemical, 
# crystal, experimental, refinement or atomic coordinate data resulting 
# from the CCDC's data processing and validation procedures.
#
#######################################################################

data_AZIJOK
_chemical_formula_moiety         'C15 H23 N3 O1'
_chemical_name_systematic        
(2,2-dimethylhexahydro-5H,9H-[1,3]oxazolo[2',3':2,3]pyrimido[1,2-a]azepin-3(2H)-ylidene)acetonitrile
_symmetry_cell_setting           monoclinic
_symmetry_space_group_name_H-M   'P 21/n'
_symmetry_Int_Tables_number      14
_space_group_name_Hall           '-P 2yn'
loop_
_symmetry_equiv_pos_site_id
_symmetry_equiv_pos_as_xyz
1 x,y,z
2 1/2-x,1/2+y,1/2-z
3 -x,-y,-z
4 1/2+x,1/2-y,1/2+z
_cell_length_a                   13.6561(5)
_cell_length_b                   7.6488(3)
_cell_length_c                   13.9726(6)
_cell_angle_alpha                90
_cell_angle_beta                 101.7420(10)
_cell_angle_gamma                90
_cell_volume                     1428.94
_exptl_crystal_colour            white
_exptl_crystal_description       prism-like
_cell_formula_units_Z            4
loop_
_atom_site_label
_atom_site_type_symbol
_atom_site_fract_x
_atom_site_fract_y
_atom_site_fract_z
O1 O 0.30844(14) 1.0653(2) 0.59703(13)
N1 N 0.34047(19) 0.5097(3) 0.31463(17)
N2 N 0.38744(16) 0.8400(3) 0.53931(15)
N3 N 0.34886(16) 0.8173(3) 0.69691(15)
C1 C 0.30793(19) 0.6272(4) 0.34918(18)
C2 C 0.26410(19) 0.7728(3) 0.38757(18)
H1 H 0.2041 0.8137 0.3506
C3 C 0.30045(19) 0.8592(3) 0.47285(18)
C4 C 0.38413(19) 0.9388(3) 0.62908(17)
C5 C 0.4813(2) 1.0347(4) 0.66661(19)
H2 H 0.4946 1.1107 0.6152
H3 H 0.5350 0.9496 0.6804
C6 C 0.4836(2) 1.1454(4) 0.7590(2)
H4 H 0.5370 1.2307 0.7643
H5 H 0.4211 1.2090 0.7518
C7 C 0.4991(2) 1.0404(4) 0.8530(2)
H6 H 0.5194 1.1205 0.9073
H7 H 0.5543 0.9604 0.8534
C8 C 0.4484(2) 0.6799(3) 0.55155(19)
H8 H 0.5180 0.7088 0.5770
H9 H 0.4436 0.6221 0.4890
C9 C 0.4097(2) 0.5597(4) 0.6226(2)
H10 H 0.3423 0.5216 0.5941
H11 H 0.4520 0.4570 0.6358
C10 C 0.41003(19) 0.6583(3) 0.71719(18)
H12 H 0.3835 0.5841 0.7621
H13 H 0.4781 0.6897 0.7476
C11 C 0.32534(19) 0.8994(4) 0.78431(19)
H14 H 0.2767 0.8259 0.8069
H15 H 0.2927 1.0101 0.7646
C12 C 0.4107(2) 0.9351(4) 0.87197(19)
H16 H 0.3829 0.9959 0.9213
H17 H 0.4356 0.8234 0.8996
C13 C 0.24230(19) 1.0083(3) 0.50696(18)
C14 C 0.2315(2) 1.1641(4) 0.4387(2)
H18 H 0.2042 1.2610 0.4682
H19 H 0.1875 1.1345 0.3781
H20 H 0.2959 1.1954 0.4264
C15 C 0.1436(2) 0.9455(4) 0.5277(2)
H21 H 0.1546 0.8434 0.5684
H22 H 0.0989 0.9175 0.4673
H23 H 0.1146 1.0360 0.5607
loop_
_geom_bond_atom_site_label_1
_geom_bond_atom_site_label_2
_geom_bond_site_symmetry_1
_geom_bond_site_symmetry_2
O1 C4 1_555 1_555
N1 C1 1_555 1_555
N2 C3 1_555 1_555
N3 C4 1_555 1_555
C1 C2 1_555 1_555
C2 H1 1_555 1_555
C3 C2 1_555 1_555
C4 N2 1_555 1_555
C5 C4 1_555 1_555
H2 C5 1_555 1_555
H3 C5 1_555 1_555
C6 C5 1_555 1_555
H4 C6 1_555 1_555
H5 C6 1_555 1_555
C7 C6 1_555 1_555
H6 C7 1_555 1_555
H7 C7 1_555 1_555
C8 N2 1_555 1_555
H8 C8 1_555 1_555
H9 C8 1_555 1_555
C9 C8 1_555 1_555
H10 C9 1_555 1_555
H11 C9 1_555 1_555
C10 N3 1_555 1_555
H12 C10 1_555 1_555
H13 C10 1_555 1_555
C11 N3 1_555 1_555
H14 C11 1_555 1_555
H15 C11 1_555 1_555
C12 C7 1_555 1_555
H16 C12 1_555 1_555
H17 C12 1_555 1_555
C13 O1 1_555 1_555
C14 C13 1_555 1_555
H18 C14 1_555 1_555
H19 C14 1_555 1_555
H20 C14 1_555 1_555
C15 C13 1_555 1_555
H21 C15 1_555 1_555
H22 C15 1_555 1_555
H23 C15 1_555 1_555
C3 C13 1_555 1_555
C9 C10 1_555 1_555
C11 C12 1_555 1_555

#END
