
#######################################################################
#
#                 Cambridge Crystallographic Data Centre
#                                CCDC 
#
#######################################################################
#
# If this CIF has been generated from an entry in the Cambridge 
# Structural Database, then it will include bibliographic, chemical, 
# crystal, experimental, refinement or atomic coordinate data resulting 
# from the CCDC's data processing and validation procedures.
#
#######################################################################

data_AZIJEA
_chemical_formula_moiety         'C21 H28 N2 O2'
_chemical_name_systematic        
2-(2,2-dimethylhexahydro-5H,9H-[1,3]oxazolo[2',3':2,3]pyrimido[1,2-a]azepin-3(2H)-ylidene)-1-phenylethanone
_symmetry_cell_setting           monoclinic
_symmetry_space_group_name_H-M   'P 21/c'
_symmetry_Int_Tables_number      14
_space_group_name_Hall           '-P 2ybc'
loop_
_symmetry_equiv_pos_site_id
_symmetry_equiv_pos_as_xyz
1 x,y,z
2 -x,1/2+y,1/2-z
3 -x,-y,-z
4 x,1/2-y,1/2+z
_cell_length_a                   10.4752(4)
_cell_length_b                   18.9619(6)
_cell_length_c                   9.5096(3)
_cell_angle_alpha                90
_cell_angle_beta                 109.4570(10)
_cell_angle_gamma                90
_cell_volume                     1781.02
_exptl_crystal_colour            white
_exptl_crystal_description       prism
_cell_formula_units_Z            4
loop_
_atom_site_label
_atom_site_type_symbol
_atom_site_fract_x
_atom_site_fract_y
_atom_site_fract_z
O1 O 0.16465(10) 0.12869(5) 0.42120(10)
O2 O 0.33137(12) -0.00921(6) 0.83149(11)
N1 N 0.14818(12) 0.01483(6) 0.35061(12)
N2 N 0.27097(12) 0.09303(6) 0.25079(12)
C1 C 0.07289(16) 0.19251(8) 0.00024(16)
H1 H 0.0425 0.2374 -0.0482
H2 H 0.0412 0.1561 -0.0750
C2 C 0.00471(15) 0.18122(7) 0.11738(15)
H3 H -0.0902 0.1937 0.0742
H4 H 0.0453 0.2131 0.2001
C3 C 0.01467(14) 0.10602(7) 0.17786(15)
H5 H -0.0562 0.0993 0.2212
H6 H -0.0025 0.0735 0.0949
C4 C 0.14986(14) 0.08690(7) 0.29453(14)
C5 C 0.20658(13) 0.01198(7) 0.50084(14)
C6 C 0.24302(15) -0.04960(7) 0.58021(15)
H7 H 0.2288 -0.0909 0.5245
C7 C 0.30101(14) -0.05770(7) 0.74038(15)
C8 C 0.32653(14) -0.13229(7) 0.79897(15)
C9 C 0.26274(16) -0.19145(7) 0.71887(16)
H8 H 0.2012 -0.1861 0.6231
C10 C 0.29061(17) -0.25838(8) 0.78135(17)
H9 H 0.2482 -0.2976 0.7268
C11 C 0.38125(17) -0.26693(8) 0.92447(18)
H10 H 0.3999 -0.3118 0.9659
C12 C 0.22861(16) 0.19202(8) 0.05522(16)
H11 H 0.2576 0.1632 -0.0129
H12 H 0.2593 0.2398 0.0484
C13 C 0.30115(15) 0.16516(7) 0.21430(15)
H13 H 0.3979 0.1683 0.2334
H14 H 0.2799 0.1971 0.2830
C14 C 0.22439(14) 0.08775(7) 0.55674(14)
C15 C 0.14893(15) -0.04220(7) 0.24760(15)
H15 H 0.0672 -0.0404 0.1612
H16 H 0.1519 -0.0874 0.2963
C16 C 0.27234(16) -0.03393(8) 0.19935(17)
H17 H 0.2687 -0.0681 0.1223
H18 H 0.3538 -0.0427 0.2835
C17 C 0.27700(15) 0.04031(8) 0.14004(16)
H19 H 0.3599 0.0464 0.1172
H20 H 0.2012 0.0470 0.0487
C18 C 0.41657(15) -0.14151(8) 0.94390(16)
H21 H 0.4585 -0.1025 0.9995
C19 C 0.44381(16) -0.20857(8) 1.00541(17)
H22 H 0.5045 -0.2142 1.1016
C20 C 0.14076(16) 0.10557(8) 0.65580(16)
H23 H 0.1464 0.1553 0.6761
H24 H 0.1752 0.0800 0.7479
H25 H 0.0480 0.0927 0.6059
C21 C 0.37310(15) 0.10677(8) 0.62473(16)
H26 H 0.4196 0.0942 0.5568
H27 H 0.4120 0.0816 0.7167
H28 H 0.3818 0.1566 0.6438
loop_
_geom_bond_atom_site_label_1
_geom_bond_atom_site_label_2
_geom_bond_site_symmetry_1
_geom_bond_site_symmetry_2
O1 C4 1_555 1_555
O2 C7 1_555 1_555
N1 C4 1_555 1_555
N2 C4 1_555 1_555
C1 H1 1_555 1_555
H2 C1 1_555 1_555
C2 C1 1_555 1_555
H3 C2 1_555 1_555
H4 C2 1_555 1_555
C3 C2 1_555 1_555
H5 C3 1_555 1_555
H6 C3 1_555 1_555
C4 C3 1_555 1_555
C5 N1 1_555 1_555
C6 C5 1_555 1_555
H7 C6 1_555 1_555
C7 C6 1_555 1_555
C8 C7 1_555 1_555
C9 C8 1_555 1_555
H8 C9 1_555 1_555
C10 C9 1_555 1_555
H9 C10 1_555 1_555
C11 C10 1_555 1_555
H10 C11 1_555 1_555
C12 C1 1_555 1_555
H11 C12 1_555 1_555
H12 C12 1_555 1_555
C13 N2 1_555 1_555
H13 C13 1_555 1_555
H14 C13 1_555 1_555
C14 O1 1_555 1_555
C15 N1 1_555 1_555
H15 C15 1_555 1_555
H16 C15 1_555 1_555
C16 C15 1_555 1_555
H17 C16 1_555 1_555
H18 C16 1_555 1_555
C17 N2 1_555 1_555
H19 C17 1_555 1_555
H20 C17 1_555 1_555
C18 C8 1_555 1_555
H21 C18 1_555 1_555
C19 C11 1_555 1_555
H22 C19 1_555 1_555
C20 C14 1_555 1_555
H23 C20 1_555 1_555
H24 C20 1_555 1_555
H25 C20 1_555 1_555
C21 C14 1_555 1_555
H26 C21 1_555 1_555
H27 C21 1_555 1_555
H28 C21 1_555 1_555
C5 C14 1_555 1_555
C12 C13 1_555 1_555
C16 C17 1_555 1_555
C18 C19 1_555 1_555

#END
