
#######################################################################
#
#                 Cambridge Crystallographic Data Centre
#                                CCDC 
#
#######################################################################
#
# If this CIF has been generated from an entry in the Cambridge 
# Structural Database, then it will include bibliographic, chemical, 
# crystal, experimental, refinement or atomic coordinate data resulting 
# from the CCDC's data processing and validation procedures.
#
#######################################################################

data_AZIJAW
_chemical_formula_moiety         'C16 H15 N3 O3'
_chemical_name_systematic        
'3-methyl-1-(5-methylpyrimidin-2-yl)-2-oxo-2,3-dihydro-1H-indol-3-yl acetate'
_symmetry_cell_setting           monoclinic
_symmetry_space_group_name_H-M   'P 21/c'
_symmetry_Int_Tables_number      14
_space_group_name_Hall           '-P 2ybc'
loop_
_symmetry_equiv_pos_site_id
_symmetry_equiv_pos_as_xyz
1 x,y,z
2 -x,1/2+y,1/2-z
3 -x,-y,-z
4 x,1/2-y,1/2+z
_cell_length_a                   6.5138(12)
_cell_length_b                   28.886(5)
_cell_length_c                   8.0370(15)
_cell_angle_alpha                90
_cell_angle_beta                 100.174(3)
_cell_angle_gamma                90
_cell_volume                     1488.44
_exptl_crystal_colour            colorless
_exptl_crystal_description       block
_cell_formula_units_Z            4
loop_
_atom_site_label
_atom_site_type_symbol
_atom_site_fract_x
_atom_site_fract_y
_atom_site_fract_z
C1 C 1.0866(2) 0.15824(5) 0.06806(17)
C2 C 1.2411(3) 0.19066(6) 0.1107(2)
H1 H 1.3158 0.2016 0.0304
C3 C 1.2837(3) 0.20675(7) 0.2764(2)
H2 H 1.3838 0.2296 0.3066
C4 C 1.1776(3) 0.18884(7) 0.3958(2)
H3 H 1.2100 0.1994 0.5067
C5 C 1.0234(3) 0.15546(6) 0.35479(19)
H4 H 0.9534 0.1434 0.4363
C6 C 0.9776(2) 0.14077(5) 0.18833(18)
C7 C 0.8277(3) 0.10545(5) -0.06128(18)
C8 C 1.0125(2) 0.13463(5) -0.09738(17)
C9 C 0.6815(2) 0.08478(5) 0.19380(17)
C10 C 0.4734(3) 0.08614(7) 0.3884(2)
H5 H 0.4295 0.1002 0.4802
C11 C 0.3830(3) 0.04483(6) 0.3301(2)
C12 C 0.4675(3) 0.02453(6) 0.2026(2)
H6 H 0.4154 -0.0040 0.1617
C13 C 0.2068(3) 0.02316(8) 0.4013(3)
H7 H 0.2201 0.0310 0.5188
H8 H 0.2120 -0.0099 0.3895
H9 H 0.0762 0.0345 0.3410
C14 C 0.7797(2) 0.19302(5) -0.23094(18)
C15 C 0.7461(3) 0.22671(8) -0.3726(2)
H10 H 0.6198 0.2437 -0.3707
H11 H 0.7350 0.2104 -0.4780
H12 H 0.8617 0.2478 -0.3608
C16 C 1.1747(3) 0.10378(7) -0.1553(3)
H13 H 1.1140 0.0883 -0.2578
H14 H 1.2226 0.0812 -0.0694
H15 H 1.2903 0.1223 -0.1752
N1 N 0.8305(2) 0.10729(4) 0.11341(15)
N2 N 0.6213(3) 0.10718(5) 0.3194(2)
N3 N 0.6200(3) 0.04354(5) 0.13472(19)
O1 O 0.7081(2) 0.08418(5) -0.16519(14)
O2 O 0.94897(17) 0.16647(4) -0.23549(12)
O3 O 0.6739(2) 0.18924(5) -0.12380(16)
loop_
_geom_bond_atom_site_label_1
_geom_bond_atom_site_label_2
_geom_bond_site_symmetry_1
_geom_bond_site_symmetry_2
C1 C2 1_555 1_555
C2 H1 1_555 1_555
C3 C2 1_555 1_555
H2 C3 1_555 1_555
C4 C3 1_555 1_555
H3 C4 1_555 1_555
C5 C4 1_555 1_555
H4 C5 1_555 1_555
C6 C1 1_555 1_555
C7 C8 1_555 1_555
C8 C1 1_555 1_555
C9 N1 1_555 1_555
C10 H5 1_555 1_555
C11 C10 1_555 1_555
C12 C11 1_555 1_555
H6 C12 1_555 1_555
C13 C11 1_555 1_555
H7 C13 1_555 1_555
H8 C13 1_555 1_555
H9 C13 1_555 1_555
C14 C15 1_555 1_555
C15 H10 1_555 1_555
H11 C15 1_555 1_555
H12 C15 1_555 1_555
C16 C8 1_555 1_555
H13 C16 1_555 1_555
H14 C16 1_555 1_555
H15 C16 1_555 1_555
N1 C6 1_555 1_555
N2 C9 1_555 1_555
N3 C9 1_555 1_555
O1 C7 1_555 1_555
O2 C8 1_555 1_555
O3 C14 1_555 1_555
C5 C6 1_555 1_555
C7 N1 1_555 1_555
C10 N2 1_555 1_555
C12 N3 1_555 1_555
C14 O2 1_555 1_555

#END
