
#######################################################################
#
#                 Cambridge Crystallographic Data Centre
#                                CCDC 
#
#######################################################################
#
# If this CIF has been generated from an entry in the Cambridge 
# Structural Database, then it will include bibliographic, chemical, 
# crystal, experimental, refinement or atomic coordinate data resulting 
# from the CCDC's data processing and validation procedures.
#
#######################################################################

data_AZIJIE
_chemical_formula_moiety         'C16 H24 N2 O3'
_chemical_name_systematic        
1-(3-((2-oxo-1-oxaspiro[4.5]dec-3-en-4-yl)amino)propyl)pyrrolidin-2-one
_symmetry_cell_setting           triclinic
_symmetry_space_group_name_H-M   'P -1'
_symmetry_Int_Tables_number      2
_space_group_name_Hall           '-P 1'
loop_
_symmetry_equiv_pos_site_id
_symmetry_equiv_pos_as_xyz
1 x,y,z
2 -x,-y,-z
_cell_length_a                   6.9787(4)
_cell_length_b                   10.0413(5)
_cell_length_c                   11.0013(6)
_cell_angle_alpha                83.863(2)
_cell_angle_beta                 85.021(2)
_cell_angle_gamma                75.488(2)
_cell_volume                     740.602
_exptl_crystal_colour            colorless
_exptl_crystal_description       block
_cell_formula_units_Z            2
loop_
_atom_site_label
_atom_site_type_symbol
_atom_site_fract_x
_atom_site_fract_y
_atom_site_fract_z
O1 O 0.50566(12) 0.38227(9) 0.32173(8)
O2 O 0.20677(12) 0.45541(10) 0.24470(8)
O3 O 0.67755(14) 1.09092(9) 0.04333(9)
N1 N 0.72647(15) 0.92037(11) 0.20181(9)
N2 N 0.81956(14) 0.57945(10) 0.14910(9)
H1 H 0.9357 0.5503 0.1810
C1 C 0.4327(2) 0.98639(16) 0.32533(14)
H2 H 0.3134 0.9510 0.3495
H3 H 0.4521 1.0431 0.3894
C2 C 0.61504(19) 0.86769(13) 0.30662(12)
H4 H 0.6937 0.8457 0.3800
H5 H 0.5766 0.7838 0.2886
C3 C 0.92882(17) 0.85032(13) 0.16331(11)
H6 H 0.9859 0.7829 0.2310
H7 H 1.0096 0.9193 0.1482
C4 C 0.94411(17) 0.77463(12) 0.04781(11)
H8 H 0.9261 0.8437 -0.0242
H9 H 1.0793 0.7139 0.0384
C5 C 0.79443(17) 0.68774(12) 0.04773(11)
H10 H 0.6585 0.7479 0.0547
H11 H 0.8111 0.6451 -0.0308
C6 C 0.67126(17) 0.52372(12) 0.19442(10)
C7 C 0.70246(16) 0.40874(11) 0.29692(10)
C8 C 0.84405(17) 0.27707(12) 0.25391(11)
H12 H 0.7870 0.2464 0.1857
H13 H 0.9718 0.2976 0.2226
C9 C 0.88156(18) 0.16070(12) 0.35679(11)
H14 H 0.9800 0.0797 0.3268
H15 H 0.7568 0.1326 0.3820
C10 C 0.95849(18) 0.20722(12) 0.46690(11)
H16 H 1.0865 0.2313 0.4428
H17 H 0.9811 0.1308 0.5329
C11 C 0.37846(17) 0.46609(12) 0.24092(11)
C12 C 0.47868(17) 0.55450(12) 0.16342(11)
H18 H 0.4214 0.6225 0.1014
C13 C 0.41228(19) 1.07016(13) 0.20178(12)
H19 H 0.3709 1.1703 0.2120
H20 H 0.3135 1.0454 0.1547
C14 C 0.61778(18) 1.03248(12) 0.13748(11)
C15 C 0.76658(17) 0.45200(12) 0.41314(10)
H21 H 0.6609 0.5287 0.4440
H22 H 0.8878 0.4863 0.3930
C16 C 0.80800(18) 0.33278(12) 0.51389(11)
H23 H 0.8601 0.3631 0.5844
H24 H 0.6828 0.3068 0.5425
loop_
_geom_bond_atom_site_label_1
_geom_bond_atom_site_label_2
_geom_bond_site_symmetry_1
_geom_bond_site_symmetry_2
O1 C7 1_555 1_555
O2 C11 1_555 1_555
O3 C14 1_555 1_555
N1 C2 1_555 1_555
N2 H1 1_555 1_555
C1 H2 1_555 1_555
H3 C1 1_555 1_555
C2 C1 1_555 1_555
H4 C2 1_555 1_555
H5 C2 1_555 1_555
C3 N1 1_555 1_555
H6 C3 1_555 1_555
H7 C3 1_555 1_555
C4 C3 1_555 1_555
H8 C4 1_555 1_555
H9 C4 1_555 1_555
C5 N2 1_555 1_555
H10 C5 1_555 1_555
H11 C5 1_555 1_555
C6 N2 1_555 1_555
C7 C6 1_555 1_555
C8 C7 1_555 1_555
H12 C8 1_555 1_555
H13 C8 1_555 1_555
C9 C8 1_555 1_555
H14 C9 1_555 1_555
H15 C9 1_555 1_555
C10 C9 1_555 1_555
H16 C10 1_555 1_555
H17 C10 1_555 1_555
C11 O1 1_555 1_555
C12 C6 1_555 1_555
H18 C12 1_555 1_555
C13 C1 1_555 1_555
H19 C13 1_555 1_555
H20 C13 1_555 1_555
C14 N1 1_555 1_555
C15 C7 1_555 1_555
H21 C15 1_555 1_555
H22 C15 1_555 1_555
C16 C10 1_555 1_555
H23 C16 1_555 1_555
H24 C16 1_555 1_555
C4 C5 1_555 1_555
C11 C12 1_555 1_555
C13 C14 1_555 1_555
C15 C16 1_555 1_555

#END
