
#######################################################################
#
#                 Cambridge Crystallographic Data Centre
#                                CCDC 
#
#######################################################################
#
# If this CIF has been generated from an entry in the Cambridge 
# Structural Database, then it will include bibliographic, chemical, 
# crystal, experimental, refinement or atomic coordinate data resulting 
# from the CCDC's data processing and validation procedures.
#
#######################################################################

data_AZILUS
_chemical_formula_moiety         'C33 H23 B1 F2 O4'
_chemical_name_systematic        
Difluoro-(1,3-bis(4-((4-methoxyphenyl)ethynyl)phenyl)-3-oxoprop-1-en-1-olato)-boron
_symmetry_cell_setting           orthorhombic
_symmetry_space_group_name_H-M   'P b c n'
_symmetry_Int_Tables_number      60
_space_group_name_Hall           '-P 2n 2ab'
loop_
_symmetry_equiv_pos_site_id
_symmetry_equiv_pos_as_xyz
1 x,y,z
2 1/2-x,1/2-y,1/2+z
3 1/2+x,1/2-y,-z
4 -x,y,1/2-z
5 -x,-y,-z
6 1/2+x,1/2+y,1/2-z
7 1/2-x,1/2+y,z
8 x,-y,1/2+z
_cell_length_a                   27.864(2)
_cell_length_b                   7.1619(6)
_cell_length_c                   13.0993(8)
_cell_angle_alpha                90
_cell_angle_beta                 90
_cell_angle_gamma                90
_cell_volume                     2614.09
_exptl_crystal_colour            'intense gold'
_exptl_crystal_description       rhombohedral
_cell_formula_units_Z            4
loop_
_atom_site_label
_atom_site_type_symbol
_atom_site_fract_x
_atom_site_fract_y
_atom_site_fract_z
C1 C 0.42223(9) 0.6838(4) 0.50218(19)
C2 C 0.41498(9) 0.3792(4) 0.57862(19)
C3 C 0.34341(10) 0.9366(4) 0.8741(2)
C4 C 0.30505(9) 0.8518(4) 1.03130(19)
C5 C 0.36175(9) 0.6976(4) 0.7448(2)
C6 C 0.30031(9) 0.6708(4) 0.9974(2)
C7 C 0.31811(10) 0.6215(4) 0.9026(2)
C8 C 0.32561(10) 0.9861(4) 0.9684(2)
B1 B 0.5000 0.0308(7) 0.2500
C9 C 0.40608(8) 0.5710(4) 0.58250(18)
C10 C 0.34038(9) 0.7529(4) 0.84010(18)
C11 C 0.5000 0.4211(5) 0.2500
C12 C 0.38083(9) 0.6474(4) 0.66927(19)
C13 C 0.44574(9) 0.6054(4) 0.41976(19)
C14 C 0.43886(9) 0.3024(4) 0.49729(19)
H1 H 0.4055(9) 0.295(3) 0.6366(18)
C15 C 0.47852(8) 0.3263(3) 0.32933(17)
H2 H 0.2865(9) 0.575(3) 1.0406(17)
H3 H 0.4468(9) 0.170(3) 0.4941(17)
C16 C 0.45411(8) 0.4137(3) 0.41595(17)
H4 H 0.3152(9) 0.490(4) 0.8822(18)
H5 H 0.5000 0.555(5) 0.2500
O1 O 0.29084(7) 0.9139(3) 1.12550(13)
H6 H 0.3585(9) 1.031(3) 0.8290(17)
H7 H 0.4162(9) 0.823(3) 0.5038(17)
C17 C 0.27286(11) 0.7794(4) 1.19584(19)
H8 H 0.2432 0.7290 1.1705
H9 H 0.2674 0.8380 1.2607
H10 H 0.2958 0.6806 1.2037
O2 O 0.47891(7) 0.1432(2) 0.33164(12)
H11 H 0.3273(10) 1.108(4) 0.9949(19)
H12 H 0.4559(8) 0.688(3) 0.3640(16)
F1 F 0.4568(4) -0.0533(18) 0.2018(12)
C1C C 0.57777(9) 0.6838(4) -0.00218(19)
C2C C 0.58502(9) 0.3792(4) -0.07862(19)
C3C C 0.65659(10) 0.9366(4) -0.3741(2)
C4C C 0.69495(9) 0.8518(4) -0.53130(19)
C5C C 0.63825(9) 0.6976(4) -0.2448(2)
C6C C 0.69969(9) 0.6708(4) -0.4974(2)
C7C C 0.68189(10) 0.6215(4) -0.4026(2)
C8C C 0.67439(10) 0.9861(4) -0.4684(2)
C9C C 0.59392(8) 0.5710(4) -0.08250(18)
C10C C 0.65962(9) 0.7529(4) -0.34010(18)
C12C C 0.61917(9) 0.6474(4) -0.16927(19)
C13C C 0.55426(9) 0.6054(4) 0.08024(19)
C14C C 0.56114(9) 0.3024(4) 0.00271(19)
H1C H 0.5945(9) 0.295(3) -0.1366(18)
C15C C 0.52148(8) 0.3263(3) 0.17067(17)
H2C H 0.7135(9) 0.575(3) -0.5406(17)
H3C H 0.5532(9) 0.170(3) 0.0059(17)
C16C C 0.54589(8) 0.4137(3) 0.08405(17)
H4C H 0.6848(9) 0.490(4) -0.3822(18)
O1C O 0.70916(7) 0.9139(3) -0.62550(13)
H6C H 0.6415(9) 1.031(3) -0.3290(17)
H7C H 0.5838(9) 0.823(3) -0.0038(17)
C17C C 0.72714(11) 0.7794(4) -0.69584(19)
H8C H 0.7568 0.7290 -0.6705
H9C H 0.7326 0.8380 -0.7607
H10C H 0.7042 0.6806 -0.7037
O2C O 0.52109(7) 0.1432(2) 0.16836(12)
H11C H 0.6727(10) 1.108(4) -0.4949(19)
H12C H 0.5441(8) 0.688(3) 0.1360(16)
F1C F 0.5432(4) -0.0533(18) 0.2982(12)
F2? F 0.4732(4) -0.0999(17) 0.2171(11)
loop_
_geom_bond_atom_site_label_1
_geom_bond_atom_site_label_2
_geom_bond_site_symmetry_1
_geom_bond_site_symmetry_2
C1 C9 1_555 1_555
C2 C9 1_555 1_555
C3 C8 1_555 1_555
C4 C6 1_555 1_555
C5 C10 1_555 1_555
C6 C7 1_555 1_555
C7 C10 1_555 1_555
C8 C4 1_555 1_555
B1 O2 1_555 1_555
C9 C12 1_555 1_555
C10 C3 1_555 1_555
C11 C15 1_555 1_555
C12 C5 1_555 1_555
C13 C1 1_555 1_555
C14 C2 1_555 1_555
H1 C2 1_555 1_555
C15 C16 1_555 1_555
H2 C6 1_555 1_555
H3 C14 1_555 1_555
C16 C13 1_555 1_555
H4 C7 1_555 1_555
H5 C11 1_555 1_555
O1 C4 1_555 1_555
H6 C3 1_555 1_555
H7 C1 1_555 1_555
C17 O1 1_555 1_555
H8 C17 1_555 1_555
H9 C17 1_555 1_555
H10 C17 1_555 1_555
O2 C15 1_555 1_555
H11 C8 1_555 1_555
H12 C13 1_555 1_555
F1 B1 1_555 1_555
C1C C9C 1_555 1_555
C2C C9C 1_555 1_555
C3C C8C 1_555 1_555
C4C C6C 1_555 1_555
C5C C10C 1_555 1_555
C6C C7C 1_555 1_555
C7C C10C 1_555 1_555
C8C C4C 1_555 1_555
C9C C12C 1_555 1_555
C10C C3C 1_555 1_555
C12C C5C 1_555 1_555
C13C C1C 1_555 1_555
C14C C2C 1_555 1_555
H1C C2C 1_555 1_555
C15C C11 1_555 1_555
H2C C6C 1_555 1_555
H3C C14C 1_555 1_555
C16C C13C 1_555 1_555
H4C C7C 1_555 1_555
O1C C4C 1_555 1_555
H6C C3C 1_555 1_555
H7C C1C 1_555 1_555
C17C O1C 1_555 1_555
H8C C17C 1_555 1_555
H9C C17C 1_555 1_555
H10C C17C 1_555 1_555
O2C B1 1_555 1_555
H11C C8C 1_555 1_555
H12C C13C 1_555 1_555
F1C B1 1_555 1_555
C14 C16 1_555 1_555
C14C C16C 1_555 1_555
C15C C16C 1_555 1_555
C15C O2C 1_555 1_555

#END
