
#######################################################################
#
#                 Cambridge Crystallographic Data Centre
#                                CCDC 
#
#######################################################################
#
# If this CIF has been generated from an entry in the Cambridge 
# Structural Database, then it will include bibliographic, chemical, 
# crystal, experimental, refinement or atomic coordinate data resulting 
# from the CCDC's data processing and validation procedures.
#
#######################################################################

data_AZILIG
_chemical_formula_moiety         'C11 H10 N4 O2,2(H2 O1)'
_chemical_name_systematic        
"4-hydroxy-N'-(1H-imidazol-5-ylmethylene)benzohydrazide dihydrate"
_symmetry_cell_setting           triclinic
_symmetry_space_group_name_H-M   'P -1'
_symmetry_Int_Tables_number      2
_space_group_name_Hall           '-P 1'
loop_
_symmetry_equiv_pos_site_id
_symmetry_equiv_pos_as_xyz
1 x,y,z
2 -x,-y,-z
_cell_length_a                   7.0321(14)
_cell_length_b                   7.3723(15)
_cell_length_c                   13.008(3)
_cell_angle_alpha                98.66(3)
_cell_angle_beta                 101.69(3)
_cell_angle_gamma                92.25(3)
_cell_volume                     651.156
_exptl_crystal_colour            yellow
_exptl_crystal_description       block
_cell_formula_units_Z            2
loop_
_atom_site_label
_atom_site_type_symbol
_atom_site_fract_x
_atom_site_fract_y
_atom_site_fract_z
O1 O 0.36856(17) 1.33313(17) 0.60906(8)
H1 H 0.4920 1.3608 0.6205
O2 O 0.38595(13) 0.96388(14) 0.13778(7)
C1 C 0.46060(19) 1.1408(2) 0.34981(11)
H2 H 0.5625 1.1333 0.3140
C2 C 0.4941(2) 1.2312(2) 0.45353(11)
H3 H 0.6180 1.2830 0.4869
C3 C 0.3450(2) 1.2448(2) 0.50775(10)
C4 C 0.1601(2) 1.1677(2) 0.45691(11)
H4 H 0.0581 1.1776 0.4926
C5 C 0.1276(2) 1.0761(2) 0.35337(11)
H5 H 0.0035 1.0240 0.3204
C6 C 0.27600(18) 1.06063(17) 0.29782(9)
C7 C 0.25075(17) 0.96693(17) 0.18590(9)
C8 C -0.11710(17) 0.71449(18) -0.00715(9)
H6 H -0.2158 0.7191 0.0310
C9 C -0.15217(19) 0.61606(18) -0.11472(10)
C10 C -0.1016(2) 0.4991(2) -0.27002(11)
H7 H -0.0392 0.4678 -0.3261
C11 C -0.3187(2) 0.5237(2) -0.17627(11)
H8 H -0.4367 0.5116 -0.1552
N1 N 0.07400(14) 0.88446(15) 0.13836(7)
H9 H -0.0207 0.8875 0.1712
N2 N 0.05051(15) 0.79501(15) 0.03512(7)
N3 N -0.01529(17) 0.59794(16) -0.17607(8)
H10 H 0.1040 0.6419 -0.1577
N4 N -0.28479(19) 0.45169(17) -0.27370(9)
O3 O -0.26851(14) 0.80507(18) 0.21679(8)
H11 H -0.3760 0.8489 0.1897
H12 H -0.2750 0.7640 0.2757
O4 O 0.3566(2) 0.7704(2) -0.08690(11)
H13 H 0.4365 0.8560 -0.1002
H14 H 0.3263 0.8294 -0.0280
loop_
_geom_bond_atom_site_label_1
_geom_bond_atom_site_label_2
_geom_bond_site_symmetry_1
_geom_bond_site_symmetry_2
O1 H1 1_555 1_555
O2 C7 1_555 1_555
C1 H2 1_555 1_555
C2 C1 1_555 1_555
H3 C2 1_555 1_555
C3 O1 1_555 1_555
C4 C3 1_555 1_555
H4 C4 1_555 1_555
C5 C4 1_555 1_555
H5 C5 1_555 1_555
C6 C1 1_555 1_555
C7 C6 1_555 1_555
C8 H6 1_555 1_555
C9 C8 1_555 1_555
C10 H7 1_555 1_555
C11 C9 1_555 1_555
H8 C11 1_555 1_555
N1 C7 1_555 1_555
H9 N1 1_555 1_555
N2 C8 1_555 1_555
N3 C9 1_555 1_555
H10 N3 1_555 1_555
N4 C10 1_555 1_555
O3 H11 1_555 1_555
H12 O3 1_555 1_555
O4 H13 1_555 1_555
H14 O4 1_555 1_555
C2 C3 1_555 1_555
C5 C6 1_555 1_555
C10 N3 1_555 1_555
C11 N4 1_555 1_555
N1 N2 1_555 1_555

#END
