
#######################################################################
#
#                 Cambridge Crystallographic Data Centre
#                                CCDC 
#
#######################################################################
#
# If this CIF has been generated from an entry in the Cambridge 
# Structural Database, then it will include bibliographic, chemical, 
# crystal, experimental, refinement or atomic coordinate data resulting 
# from the CCDC's data processing and validation procedures.
#
#######################################################################

data_AZIQEH
_chemical_formula_moiety         'C21 H16 N4 O2,3(H2 O1)'
_chemical_name_systematic        
'3-((2-oxo-2,3-dihydroimidazo[1,2-a]pyridin-3-yl)(phenyl)methyl)imidazo[1,2-a]pyridin-1-ium-2-olate trihydrate'
_symmetry_cell_setting           triclinic
_symmetry_space_group_name_H-M   'P -1'
_symmetry_Int_Tables_number      2
_space_group_name_Hall           '-P 1'
loop_
_symmetry_equiv_pos_site_id
_symmetry_equiv_pos_as_xyz
1 x,y,z
2 -x,-y,-z
_cell_length_a                   9.5512(4)
_cell_length_b                   10.9960(5)
_cell_length_c                   21.0330(10)
_cell_angle_alpha                101.309(4)
_cell_angle_beta                 95.953(4)
_cell_angle_gamma                109.943(4)
_cell_volume                     2001.03
_exptl_crystal_colour            red
_exptl_crystal_description       block
_cell_formula_units_Z            4
loop_
_atom_site_label
_atom_site_type_symbol
_atom_site_fract_x
_atom_site_fract_y
_atom_site_fract_z
N1 N 0.1468(2) 0.1945(2) 0.61366(10)
N2 N -0.06561(19) 0.02091(18) 0.58690(9)
N3 N -0.2798(2) 0.30243(18) 0.69359(9)
O1 O 0.05771(18) 0.36801(16) 0.64136(9)
O2 O -0.5124(2) 0.1874(2) 0.53850(9)
C1 C 0.0310(2) 0.2438(2) 0.62233(11)
C2 C 0.0890(2) 0.0608(2) 0.59180(11)
C3 C -0.1030(2) 0.1333(2) 0.60697(11)
C4 C -0.4189(3) 0.3042(2) 0.70344(13)
N4 N -0.5225(2) 0.2632(2) 0.64736(11)
C5 C -0.3472(2) 0.0208(2) 0.64481(11)
C6 C -0.2901(2) 0.2498(2) 0.62300(11)
H1 H -0.2202 0.3169 0.6049
C7 C -0.4548(3) 0.2304(2) 0.59757(12)
C8 C -0.1559(3) -0.1107(2) 0.56273(12)
H2 H -0.2607 -0.1375 0.5579
C9 C 0.1555(3) -0.0313(3) 0.57482(13)
H3 H 0.2602 -0.0041 0.5787
C10 C -0.2761(3) 0.0227(3) 0.70633(12)
H4 H -0.1766 0.0812 0.7231
C11 C -0.2661(2) 0.1161(2) 0.60472(11)
H5 H -0.3165 0.0743 0.5586
C12 C -0.1739(3) 0.3858(3) 0.80595(13)
H6 H -0.0923 0.4128 0.8406
C13 C -0.4933(3) -0.0701(2) 0.62002(13)
H7 H -0.5415 -0.0745 0.5784
C14 C -0.0912(3) -0.2018(3) 0.54583(13)
H8 H -0.1524 -0.2916 0.5297
C15 C -0.4355(3) 0.3484(3) 0.76838(14)
H9 H -0.5278 0.3512 0.7773
C16 C -0.3152(4) 0.3869(3) 0.81809(14)
H10 H -0.3266 0.4148 0.8613
C17 C 0.0653(3) -0.1630(3) 0.55220(14)
H11 H 0.1083 -0.2266 0.5411
C18 C -0.3520(3) -0.0616(3) 0.74281(14)
H12 H -0.3041 -0.0584 0.7842
C19 C -0.1582(3) 0.3447(2) 0.74294(13)
H13 H -0.0648 0.3455 0.7337
C20 C -0.4981(3) -0.1500(3) 0.71813(16)
H14 H -0.5490 -0.2065 0.7429
C21 C -0.5686(3) -0.1550(3) 0.65697(16)
H15 H -0.6672 -0.2154 0.6401
H16 H 0.248(4) 0.238(3) 0.6246(15)
O3 O 0.2814(2) 0.63907(19) 0.84963(10)
O4 O -0.0934(2) 0.8149(2) 0.95642(9)
N5 N 0.4563(2) 0.9840(2) 0.91271(10)
N6 N -0.0323(2) 0.71095(19) 0.79794(10)
N7 N 0.5206(2) 0.8112(2) 0.88596(11)
N8 N -0.2242(2) 0.7328(2) 0.84909(11)
C22 C -0.1813(3) 0.6977(2) 0.79106(13)
C23 C 0.5779(3) 0.9443(3) 0.91063(12)
C24 C 0.0357(3) 0.7591(2) 0.86808(12)
H17 H 0.0631 0.6899 0.8831
C25 C 0.3611(3) 0.7625(3) 0.87220(13)
C26 C -0.1007(3) 0.7726(3) 0.89716(13)
C27 C 0.3217(3) 0.8738(2) 0.88845(12)
C28 C 0.2173(3) 1.0038(3) 0.79298(13)
H18 H 0.2645 0.9464 0.7762
C29 C 0.4797(3) 1.1158(3) 0.93729(13)
H19 H 0.3977 1.1427 0.9398
C30 C 0.1734(2) 0.8921(2) 0.88834(12)
H20 H 0.1735 0.9318 0.9343
C31 C 0.0873(3) 1.0782(3) 0.87362(13)
H21 H 0.0461 1.0714 0.9115
C32 C 0.1569(2) 0.9918(2) 0.84976(12)
C33 C 0.7474(3) 1.1662(3) 0.95417(15)
H22 H 0.8456 1.2294 0.9674
C34 C -0.2696(3) 0.6491(3) 0.72819(14)
H23 H -0.3721 0.6358 0.7220
C35 C 0.7243(3) 1.0362(3) 0.93156(14)
H24 H 0.8060 1.0086 0.9301
C36 C 0.6228(3) 1.2063(3) 0.95777(15)
H25 H 0.6390 1.2958 0.9744
C37 C -0.2026(4) 0.6210(3) 0.67520(15)
H26 H -0.2592 0.5919 0.6327
C38 C 0.0332(3) 0.6795(3) 0.74640(14)
H27 H 0.1341 0.6878 0.7531
C39 C 0.2080(3) 1.0999(3) 0.76127(14)
H28 H 0.2484 1.1066 0.7231
C40 C -0.0510(3) 0.6358(3) 0.68478(14)
H29 H -0.0071 0.6156 0.6487
C41 C 0.0785(3) 1.1750(3) 0.84156(16)
H30 H 0.0313 1.2326 0.8579
C42 C 0.1397(3) 1.1855(3) 0.78558(16)
H31 H 0.1346 1.2508 0.7642
H32 H 0.576(4) 0.763(4) 0.8710(18)
O5 O 0.1245(4) 0.5260(3) 0.54986(15)
H33 H 0.196(5) 0.504(8) 0.566(4)
H34 H 0.043(4) 0.487(8) 0.563(4)
O6 O 0.4397(3) 0.4852(3) 0.90124(15)
H35 H 0.4381 0.4103 0.9068
H36 H 0.3768 0.5078 0.9217
O7 O 0.3328(3) 0.5150(3) 0.72862(16)
H37 H 0.2523 0.4716 0.7000
H38 H 0.3111 0.5535 0.7632
O8 O 0.6880(4) 0.6292(4) 1.00015(15)
H39 H 0.738(10) 0.702(5) 0.990(5)
H40 H 0.615(7) 0.598(8) 0.967(3)
O9 O 0.3937(5) 0.5638(4) 0.5010(2)
H41 H 0.347(8) 0.620(6) 0.510(4)
H42 H 0.423(5) 0.555(9) 0.542(2)
O10 O 0.0956(6) 0.4898(5) 0.9504(3)
H43 H 0.1190 0.4646 0.9843
H44 H 0.176(5) 0.543(7) 0.941(2)
loop_
_geom_bond_atom_site_label_1
_geom_bond_atom_site_label_2
_geom_bond_site_symmetry_1
_geom_bond_site_symmetry_2
N1 C1 1_555 1_555
N2 C2 1_555 1_555
N3 C4 1_555 1_555
O1 C1 1_555 1_555
O2 C7 1_555 1_555
C1 C3 1_555 1_555
C2 N1 1_555 1_555
C3 N2 1_555 1_555
C4 N4 1_555 1_555
N4 C7 1_555 1_555
C5 C10 1_555 1_555
C6 N3 1_555 1_555
H1 C6 1_555 1_555
C7 C6 1_555 1_555
C8 N2 1_555 1_555
H2 C8 1_555 1_555
C9 C2 1_555 1_555
H3 C9 1_555 1_555
C10 H4 1_555 1_555
C11 C3 1_555 1_555
H5 C11 1_555 1_555
C12 H6 1_555 1_555
C13 C5 1_555 1_555
H7 C13 1_555 1_555
C14 C8 1_555 1_555
H8 C14 1_555 1_555
C15 C4 1_555 1_555
H9 C15 1_555 1_555
C16 C12 1_555 1_555
H10 C16 1_555 1_555
C17 C9 1_555 1_555
H11 C17 1_555 1_555
C18 C10 1_555 1_555
H12 C18 1_555 1_555
C19 N3 1_555 1_555
H13 C19 1_555 1_555
C20 C18 1_555 1_555
H14 C20 1_555 1_555
C21 C13 1_555 1_555
H15 C21 1_555 1_555
H16 N1 1_555 1_555
O3 C25 1_555 1_555
O4 C26 1_555 1_555
N5 C23 1_555 1_555
N6 C22 1_555 1_555
N7 C23 1_555 1_555
N8 C22 1_555 1_555
C22 C34 1_555 1_555
C23 C35 1_555 1_555
C24 N6 1_555 1_555
H17 C24 1_555 1_555
C25 N7 1_555 1_555
C26 N8 1_555 1_555
C27 N5 1_555 1_555
C28 H18 1_555 1_555
C29 N5 1_555 1_555
H19 C29 1_555 1_555
C30 C24 1_555 1_555
H20 C30 1_555 1_555
C31 H21 1_555 1_555
C32 C28 1_555 1_555
C33 H22 1_555 1_555
C34 H23 1_555 1_555
C35 C33 1_555 1_555
H24 C35 1_555 1_555
C36 C29 1_555 1_555
H25 C36 1_555 1_555
C37 C34 1_555 1_555
H26 C37 1_555 1_555
C38 N6 1_555 1_555
H27 C38 1_555 1_555
C39 C28 1_555 1_555
H28 C39 1_555 1_555
C40 C37 1_555 1_555
H29 C40 1_555 1_555
C41 C31 1_555 1_555
H30 C41 1_555 1_555
C42 C39 1_555 1_555
H31 C42 1_555 1_555
H32 N7 1_555 1_555
O5 H33 1_555 1_555
H34 O5 1_555 1_555
O6 H35 1_555 1_555
H36 O6 1_555 1_555
O7 H37 1_555 1_555
H38 O7 1_555 1_555
O8 H39 1_555 1_555
H40 O8 1_555 1_555
O9 H41 1_555 1_555
H42 O9 1_555 1_555
O10 H43 1_555 1_555
H44 O10 1_555 1_555
C5 C11 1_555 1_555
C6 C11 1_555 1_555
C12 C19 1_555 1_555
C14 C17 1_555 1_555
C15 C16 1_555 1_555
C20 C21 1_555 1_555
C24 C26 1_555 1_555
C25 C27 1_555 1_555
C27 C30 1_555 1_555
C30 C32 1_555 1_555
C31 C32 1_555 1_555
C33 C36 1_555 1_555
C38 C40 1_555 1_555
C41 C42 1_555 1_555

#END
