
#######################################################################
#
#                 Cambridge Crystallographic Data Centre
#                                CCDC 
#
#######################################################################
#
# If this CIF has been generated from an entry in the Cambridge 
# Structural Database, then it will include bibliographic, chemical, 
# crystal, experimental, refinement or atomic coordinate data resulting 
# from the CCDC's data processing and validation procedures.
#
#######################################################################

data_AZIVUC
_chemical_formula_moiety         'C108 H98,6(C1 H1 Cl3)'
_chemical_name_systematic        
'4,11,15,22-tetrakis(4-t-butylphenyl)-2,13-di-t-butyl-7,8:18,19:23,24:25,26-tetrabenzo-6,9,17,20-tetrahydro-6,9:17,20-diethenodibenzo[jk,a^1^b^1^]octacene chloroform solvate'
_symmetry_cell_setting           triclinic
_symmetry_space_group_name_H-M   'P -1'
_symmetry_Int_Tables_number      2
_space_group_name_Hall           '-P 1'
loop_
_symmetry_equiv_pos_site_id
_symmetry_equiv_pos_as_xyz
1 x,y,z
2 -x,-y,-z
_cell_length_a                   12.8279(3)
_cell_length_b                   14.0622(3)
_cell_length_c                   15.1079(4)
_cell_angle_alpha                106.392(2)
_cell_angle_beta                 96.849(2)
_cell_angle_gamma                94.752(2)
_cell_volume                     2576.37
_exptl_crystal_colour            yellow
_exptl_crystal_description       polyhedron
_cell_formula_units_Z            1
loop_
_atom_site_label
_atom_site_type_symbol
_atom_site_fract_x
_atom_site_fract_y
_atom_site_fract_z
C1 C 0.2288(2) 0.61930(19) 0.50866(19)
C2 C 0.1872(2) 0.6752(2) 0.58724(19)
C3 C 0.0812(2) 0.7021(2) 0.5797(2)
H1 H 0.0335 0.6731 0.5234
C4 C 0.0489(2) 0.7686(2) 0.6526(2)
C5 C -0.0570(2) 0.8108(2) 0.6529(2)
H2 H -0.1065 0.7805 0.5932
C6 C -0.1013(2) 0.7949(2) 0.7373(2)
C7 C -0.1974(2) 0.7407(2) 0.7366(3)
H3 H -0.2448 0.7127 0.6800
C8 C -0.2234(3) 0.7281(3) 0.8196(3)
H4 H -0.2888 0.6911 0.8196
C9 C -0.1543(3) 0.7690(3) 0.9026(3)
H5 H -0.1727 0.7597 0.9589
C10 C -0.0577(3) 0.8241(3) 0.9036(2)
H6 H -0.0104 0.8523 0.9602
C11 C -0.0322(2) 0.8367(2) 0.8210(2)
C12 C -0.0258(2) 0.9227(2) 0.6725(2)
C13 C -0.0547(3) 0.9803(2) 0.6149(2)
H7 H -0.1027 0.9519 0.5587
C14 C -0.0123(3) 1.0807(3) 0.6407(3)
H8 H -0.0309 1.1204 0.6011
C15 C 0.0564(3) 1.1231(2) 0.7234(3)
H9 H 0.0852 1.1913 0.7399
C16 C 0.0835(2) 1.0650(2) 0.7827(3)
H10 H 0.1294 1.0939 0.8400
C17 C 0.0425(2) 0.9655(2) 0.7568(2)
C18 C 0.0708(2) 0.8904(2) 0.8081(2)
H11 H 0.1197 0.9211 0.8681
C19 C 0.1185(2) 0.8119(2) 0.73782(19)
C20 C 0.2170(2) 0.7841(2) 0.7494(2)
H12 H 0.2622 0.8127 0.8072
C21 C 0.2534(2) 0.71230(19) 0.67560(19)
C22 C 0.3531(2) 0.6761(2) 0.68855(19)
C23 C 0.3871(2) 0.60871(19) 0.61256(19)
C24 C 0.4759(2) 0.55003(19) 0.62437(19)
C25 C 0.5088(2) 0.5346(2) 0.7107(2)
H13 H 0.4762 0.5658 0.7629
C26 C 0.5878(2) 0.4749(2) 0.72215(19)
C27 C 0.6399(2) 0.4364(2) 0.6464(2)
H14 H 0.6969 0.3991 0.6545
C28 C 0.6121(2) 0.45018(19) 0.55942(19)
C29 C 0.5219(2) 0.50001(19) 0.54588(19)
C30 C 0.3322(2) 0.59246(19) 0.52006(19)
C31 C 0.1561(2) 0.5901(2) 0.4179(2)
C32 C 0.1225(2) 0.6634(2) 0.3781(2)
H15 H 0.1507 0.7313 0.4066
C33 C 0.0490(2) 0.6380(2) 0.2982(2)
H16 H 0.0281 0.6893 0.2729
C34 C 0.0043(2) 0.5396(2) 0.2532(2)
C35 C 0.0382(2) 0.4667(2) 0.2933(2)
H17 H 0.0103 0.3987 0.2648
C36 C 0.1125(2) 0.4923(2) 0.3743(2)
H18 H 0.1335 0.4413 0.4001
C37 C -0.0808(2) 0.5155(2) 0.1675(2)
C38 C 0.4164(2) 0.7185(2) 0.78317(19)
C39 C 0.5070(2) 0.7852(2) 0.7975(2)
H19 H 0.5332 0.7984 0.7454
C40 C 0.5607(2) 0.8335(2) 0.8879(2)
H20 H 0.6221 0.8796 0.8958
C41 C 0.5258(2) 0.8153(2) 0.96595(19)
C42 C 0.4348(2) 0.7463(2) 0.9506(2)
H21 H 0.4093 0.7317 1.0024
C43 C 0.3814(2) 0.6994(2) 0.8614(2)
H22 H 0.3200 0.6533 0.8533
C44 C 0.5826(2) 0.8651(2) 1.0652(2)
C45 C 0.6147(2) 0.4474(2) 0.8126(2)
C46 C 0.5763(3) 0.3363(3) 0.7932(3)
H23 H 0.6092 0.2968 0.7419
H24 H 0.5958 0.3161 0.8494
H25 H 0.4992 0.3249 0.7759
C47 C 0.7351(3) 0.4628(3) 0.8433(2)
H26 H 0.7693 0.4239 0.7927
H27 H 0.7614 0.5338 0.8580
H28 H 0.7513 0.4405 0.8988
C48 C 0.5638(4) 0.5081(4) 0.8917(3)
H29 H 0.5834 0.4878 0.9478
H30 H 0.5883 0.5792 0.9043
H31 H 0.4867 0.4966 0.8743
C49 C -0.0523(3) 0.5779(3) 0.1030(2)
H32 H -0.1073 0.5618 0.0484
H33 H -0.0471 0.6491 0.1369
H34 H 0.0157 0.5625 0.0827
C50 C -0.0932(3) 0.4047(2) 0.1112(2)
H35 H -0.1482 0.3921 0.0570
H36 H -0.0259 0.3876 0.0901
H37 H -0.1133 0.3637 0.1507
C51 C -0.1865(3) 0.5416(3) 0.1999(3)
H38 H -0.2417 0.5265 0.1454
H39 H -0.2054 0.5021 0.2410
H40 H -0.1799 0.6129 0.2339
C52 C 0.6393(2) 0.7875(2) 1.0996(2)
H41 H 0.6760 0.8186 1.1634
H42 H 0.5873 0.7321 1.0990
H43 H 0.6908 0.7622 1.0585
C53 C 0.6641(3) 0.9533(2) 1.0712(2)
H44 H 0.6983 0.9827 1.1359
H45 H 0.7176 0.9300 1.0315
H46 H 0.6286 1.0037 1.0499
C54 C 0.5028(3) 0.9052(3) 1.1300(2)
H47 H 0.5402 0.9369 1.1935
H48 H 0.4661 0.9544 1.1078
H49 H 0.4512 0.8499 1.1303
C1A C 0.7712(2) 0.38070(19) 0.49134(19)
C2A C 0.8128(2) 0.3248(2) 0.41276(19)
C3A C 0.9188(2) 0.2979(2) 0.4203(2)
H1A H 0.9665 0.3269 0.4766
C4A C 0.9511(2) 0.2314(2) 0.3474(2)
C5A C 1.0570(2) 0.1892(2) 0.3471(2)
H2A H 1.1065 0.2195 0.4068
C6A C 1.1013(2) 0.2051(2) 0.2627(2)
C7A C 1.1974(2) 0.2593(2) 0.2634(3)
H3A H 1.2448 0.2873 0.3200
C8A C 1.2234(3) 0.2719(3) 0.1804(3)
H4A H 1.2888 0.3089 0.1804
C9A C 1.1543(3) 0.2310(3) 0.0974(3)
H5A H 1.1727 0.2403 0.0411
C10A C 1.0577(3) 0.1759(3) 0.0964(2)
H6A H 1.0104 0.1477 0.0398
C11A C 1.0322(2) 0.1633(2) 0.1790(2)
C12A C 1.0258(2) 0.0773(2) 0.3275(2)
C13A C 1.0547(3) 0.0197(2) 0.3851(2)
H7A H 1.1027 0.0481 0.4413
C14A C 1.0123(3) -0.0807(3) 0.3593(3)
H8A H 1.0309 -0.1204 0.3989
C15A C 0.9436(3) -0.1231(2) 0.2766(3)
H9A H 0.9148 -0.1913 0.2601
C16A C 0.9165(2) -0.0650(2) 0.2173(3)
H10A H 0.8706 -0.0939 0.1600
C17A C 0.9575(2) 0.0345(2) 0.2432(2)
C18A C 0.9292(2) 0.1096(2) 0.1919(2)
H11A H 0.8803 0.0789 0.1319
C19A C 0.8815(2) 0.1881(2) 0.26218(19)
C20A C 0.7830(2) 0.2159(2) 0.2506(2)
H12A H 0.7378 0.1873 0.1928
C21A C 0.7466(2) 0.28770(19) 0.32440(19)
C22A C 0.6469(2) 0.3239(2) 0.31145(19)
C23A C 0.6129(2) 0.39129(19) 0.38744(19)
C24A C 0.5241(2) 0.44997(19) 0.37563(19)
C25A C 0.4912(2) 0.4654(2) 0.2893(2)
H13A H 0.5238 0.4342 0.2371
C26A C 0.4122(2) 0.5251(2) 0.27785(19)
C27A C 0.3601(2) 0.5636(2) 0.3536(2)
H14A H 0.3031 0.6009 0.3455
C28A C 0.3879(2) 0.54982(19) 0.44058(19)
C29A C 0.4781(2) 0.49999(19) 0.45412(19)
C30A C 0.6678(2) 0.40754(19) 0.47994(19)
C31A C 0.8439(2) 0.4099(2) 0.5821(2)
C32A C 0.8775(2) 0.3366(2) 0.6219(2)
H15A H 0.8493 0.2687 0.5934
C33A C 0.9510(2) 0.3620(2) 0.7018(2)
H16A H 0.9719 0.3107 0.7271
C34A C 0.9957(2) 0.4604(2) 0.7468(2)
C35A C 0.9618(2) 0.5333(2) 0.7067(2)
H17A H 0.9897 0.6013 0.7352
C36A C 0.8875(2) 0.5077(2) 0.6257(2)
H18A H 0.8665 0.5587 0.5999
C37A C 1.0808(2) 0.4845(2) 0.8325(2)
C38A C 0.5836(2) 0.2815(2) 0.21683(19)
C39A C 0.4930(2) 0.2148(2) 0.2025(2)
H19A H 0.4668 0.2016 0.2546
C40A C 0.4393(2) 0.1665(2) 0.1121(2)
H20A H 0.3779 0.1204 0.1042
C41A C 0.4742(2) 0.1847(2) 0.03405(19)
C42A C 0.5652(2) 0.2537(2) 0.0494(2)
H21A H 0.5907 0.2683 -0.0024
C43A C 0.6186(2) 0.3006(2) 0.1386(2)
H22A H 0.6800 0.3467 0.1467
C44A C 0.4174(2) 0.1349(2) -0.0652(2)
C45A C 0.3853(2) 0.5526(2) 0.1874(2)
C46A C 0.4237(3) 0.6637(3) 0.2068(3)
H23A H 0.3908 0.7032 0.2581
H24A H 0.4042 0.6839 0.1506
H25A H 0.5008 0.6751 0.2241
C47A C 0.2649(3) 0.5372(3) 0.1567(2)
H26A H 0.2307 0.5761 0.2073
H27A H 0.2386 0.4662 0.1420
H28A H 0.2487 0.5595 0.1012
C48A C 0.4362(4) 0.4919(4) 0.1083(3)
H29A H 0.4166 0.5122 0.0522
H30A H 0.4117 0.4208 0.0957
H31A H 0.5133 0.5034 0.1257
C49A C 1.0523(3) 0.4221(3) 0.8970(2)
H32A H 1.1073 0.4382 0.9516
H33A H 1.0471 0.3509 0.8631
H34A H 0.9843 0.4375 0.9173
C50A C 1.0932(3) 0.5953(2) 0.8888(2)
H35A H 1.1482 0.6079 0.9430
H36A H 1.0259 0.6124 0.9099
H37A H 1.1133 0.6363 0.8493
C51A C 1.1865(3) 0.4584(3) 0.8001(3)
H38A H 1.2417 0.4735 0.8546
H39A H 1.2054 0.4979 0.7590
H40A H 1.1799 0.3871 0.7661
C52A C 0.3607(2) 0.2125(2) -0.0996(2)
H41A H 0.3240 0.1814 -0.1634
H42A H 0.4127 0.2679 -0.0990
H43A H 0.3092 0.2378 -0.0585
C53A C 0.3359(3) 0.0467(2) -0.0712(2)
H44A H 0.3017 0.0173 -0.1359
H45A H 0.2824 0.0700 -0.0315
H46A H 0.3714 -0.0037 -0.0499
C54A C 0.4972(3) 0.0948(3) -0.1300(2)
H47A H 0.4598 0.0631 -0.1935
H48A H 0.5339 0.0456 -0.1078
H49A H 0.5488 0.1501 -0.1303
C55 C 0.3537(7) 0.2957(6) 0.5731(6)
H50 H 0.4148 0.3410 0.6157
Cl1 Cl 0.3963(3) 0.2377(3) 0.4672(3)
Cl2 Cl 0.3123(5) 0.2051(3) 0.6251(3)
Cl3 Cl 0.2498(4) 0.3672(3) 0.5586(4)
C57 C 0.3399(4) 0.8852(4) 0.5504(3)
H52 H 0.3390 0.8190 0.5628
Cl7 Cl 0.4537(4) 0.9658(5) 0.6140(3)
Cl8 Cl 0.2221(4) 0.9343(5) 0.5706(3)
Cl9 Cl 0.3463(6) 0.8713(6) 0.4322(3)
C60 C 0.8050(3) 1.0731(3) 0.8123(3)
H55 H 0.8733 1.0538 0.7913
Cl16 Cl 0.70154(10) 0.99343(13) 0.73336(10)
Cl17 Cl 0.79815(14) 1.19792(10) 0.81535(16)
Cl18 Cl 0.8034(2) 1.0591(3) 0.92363(19)
C56? C 0.341(2) 0.2830(17) 0.5693(14)
H51? H 0.4083 0.3195 0.6093
Cl4? Cl 0.368(3) 0.210(2) 0.4604(9)
Cl5? Cl 0.275(2) 0.2078(8) 0.6268(7)
Cl6? Cl 0.2575(10) 0.3687(10) 0.5437(12)
C58? C 0.3464(9) 0.9394(13) 0.5396(8)
H53? H 0.3606 1.0041 0.5254
Cl10? Cl 0.4407(9) 0.9397(14) 0.6323(7)
Cl11? Cl 0.2314(8) 0.9455(10) 0.5974(10)
Cl12? Cl 0.3576(8) 0.8423(9) 0.4390(7)
C59? C 0.317(2) 0.925(3) 0.572(2)
H54? H 0.3229 0.9947 0.6155
Cl13? Cl 0.4264(14) 0.8677(18) 0.6016(19)
Cl14? Cl 0.199(2) 0.857(5) 0.580(4)
Cl15? Cl 0.312(3) 0.931(3) 0.456(2)
C61? C 0.814(2) 1.0836(15) 0.8161(15)
H56? H 0.8787 1.0596 0.7911
Cl19? Cl 0.7039(13) 1.045(3) 0.7273(10)
Cl20? Cl 0.8335(18) 1.2140(10) 0.8652(19)
Cl21? Cl 0.7929(12) 1.0391(13) 0.9110(14)
loop_
_geom_bond_atom_site_label_1
_geom_bond_atom_site_label_2
_geom_bond_site_symmetry_1
_geom_bond_site_symmetry_2
C1 C2 1_555 1_555
C2 C3 1_555 1_555
C3 H1 1_555 1_555
C4 C3 1_555 1_555
C5 C4 1_555 1_555
H2 C5 1_555 1_555
C6 C5 1_555 1_555
C7 C6 1_555 1_555
H3 C7 1_555 1_555
C8 C7 1_555 1_555
H4 C8 1_555 1_555
C9 C8 1_555 1_555
H5 C9 1_555 1_555
C10 C9 1_555 1_555
H6 C10 1_555 1_555
C11 C6 1_555 1_555
C12 C5 1_555 1_555
C13 C12 1_555 1_555
H7 C13 1_555 1_555
C14 C13 1_555 1_555
H8 C14 1_555 1_555
C15 C14 1_555 1_555
H9 C15 1_555 1_555
C16 C15 1_555 1_555
H10 C16 1_555 1_555
C17 C12 1_555 1_555
C18 C11 1_555 1_555
H11 C18 1_555 1_555
C19 C4 1_555 1_555
C20 C19 1_555 1_555
H12 C20 1_555 1_555
C21 C2 1_555 1_555
C22 C21 1_555 1_555
C23 C22 1_555 1_555
C24 C23 1_555 1_555
C25 C24 1_555 1_555
H13 C25 1_555 1_555
C26 C25 1_555 1_555
C27 C26 1_555 1_555
H14 C27 1_555 1_555
C28 C27 1_555 1_555
C29 C24 1_555 1_555
C30 C1 1_555 1_555
C31 C1 1_555 1_555
C32 C31 1_555 1_555
H15 C32 1_555 1_555
C33 C32 1_555 1_555
H16 C33 1_555 1_555
C34 C33 1_555 1_555
C35 C34 1_555 1_555
H17 C35 1_555 1_555
C36 C31 1_555 1_555
H18 C36 1_555 1_555
C37 C34 1_555 1_555
C38 C22 1_555 1_555
C39 C38 1_555 1_555
H19 C39 1_555 1_555
C40 C39 1_555 1_555
H20 C40 1_555 1_555
C41 C40 1_555 1_555
C42 C41 1_555 1_555
H21 C42 1_555 1_555
C43 C38 1_555 1_555
H22 C43 1_555 1_555
C44 C41 1_555 1_555
C45 C26 1_555 1_555
C46 C45 1_555 1_555
H23 C46 1_555 1_555
H24 C46 1_555 1_555
H25 C46 1_555 1_555
C47 C45 1_555 1_555
H26 C47 1_555 1_555
H27 C47 1_555 1_555
H28 C47 1_555 1_555
C48 C45 1_555 1_555
H29 C48 1_555 1_555
H30 C48 1_555 1_555
H31 C48 1_555 1_555
C49 C37 1_555 1_555
H32 C49 1_555 1_555
H33 C49 1_555 1_555
H34 C49 1_555 1_555
C50 C37 1_555 1_555
H35 C50 1_555 1_555
H36 C50 1_555 1_555
H37 C50 1_555 1_555
C51 C37 1_555 1_555
H38 C51 1_555 1_555
H39 C51 1_555 1_555
H40 C51 1_555 1_555
C52 C44 1_555 1_555
H41 C52 1_555 1_555
H42 C52 1_555 1_555
H43 C52 1_555 1_555
C53 C44 1_555 1_555
H44 C53 1_555 1_555
H45 C53 1_555 1_555
H46 C53 1_555 1_555
C54 C44 1_555 1_555
H47 C54 1_555 1_555
H48 C54 1_555 1_555
H49 C54 1_555 1_555
C55 H50 1_555 1_555
Cl1 C55 1_555 1_555
Cl2 C55 1_555 1_555
Cl3 C55 1_555 1_555
C57 H52 1_555 1_555
Cl7 C57 1_555 1_555
Cl8 C57 1_555 1_555
Cl9 C57 1_555 1_555
C60 H55 1_555 1_555
Cl16 C60 1_555 1_555
Cl17 C60 1_555 1_555
Cl18 C60 1_555 1_555
C1A C2A 1_555 1_555
C2A C3A 1_555 1_555
C3A H1A 1_555 1_555
C4A C3A 1_555 1_555
C5A C4A 1_555 1_555
H2A C5A 1_555 1_555
C6A C5A 1_555 1_555
C7A C6A 1_555 1_555
H3A C7A 1_555 1_555
C8A C7A 1_555 1_555
H4A C8A 1_555 1_555
C9A C8A 1_555 1_555
H5A C9A 1_555 1_555
C10A C9A 1_555 1_555
H6A C10A 1_555 1_555
C11A C6A 1_555 1_555
C12A C5A 1_555 1_555
C13A C12A 1_555 1_555
H7A C13A 1_555 1_555
C14A C13A 1_555 1_555
H8A C14A 1_555 1_555
C15A C14A 1_555 1_555
H9A C15A 1_555 1_555
C16A C15A 1_555 1_555
H10A C16A 1_555 1_555
C17A C12A 1_555 1_555
C18A C11A 1_555 1_555
H11A C18A 1_555 1_555
C19A C4A 1_555 1_555
C20A C19A 1_555 1_555
H12A C20A 1_555 1_555
C21A C2A 1_555 1_555
C22A C21A 1_555 1_555
C23A C22A 1_555 1_555
C24A C23A 1_555 1_555
C25A C24A 1_555 1_555
H13A C25A 1_555 1_555
C26A C25A 1_555 1_555
C27A C26A 1_555 1_555
H14A C27A 1_555 1_555
C28A C30 1_555 1_555
C29A C29 1_555 1_555
C30A C28 1_555 1_555
C31A C1A 1_555 1_555
C32A C31A 1_555 1_555
H15A C32A 1_555 1_555
C33A C32A 1_555 1_555
H16A C33A 1_555 1_555
C34A C33A 1_555 1_555
C35A C34A 1_555 1_555
H17A C35A 1_555 1_555
C36A C31A 1_555 1_555
H18A C36A 1_555 1_555
C37A C34A 1_555 1_555
C38A C22A 1_555 1_555
C39A C38A 1_555 1_555
H19A C39A 1_555 1_555
C40A C39A 1_555 1_555
H20A C40A 1_555 1_555
C41A C40A 1_555 1_555
C42A C41A 1_555 1_555
H21A C42A 1_555 1_555
C43A C38A 1_555 1_555
H22A C43A 1_555 1_555
C44A C41A 1_555 1_555
C45A C26A 1_555 1_555
C46A C45A 1_555 1_555
H23A C46A 1_555 1_555
H24A C46A 1_555 1_555
H25A C46A 1_555 1_555
C47A C45A 1_555 1_555
H26A C47A 1_555 1_555
H27A C47A 1_555 1_555
H28A C47A 1_555 1_555
C48A C45A 1_555 1_555
H29A C48A 1_555 1_555
H30A C48A 1_555 1_555
H31A C48A 1_555 1_555
C49A C37A 1_555 1_555
H32A C49A 1_555 1_555
H33A C49A 1_555 1_555
H34A C49A 1_555 1_555
C50A C37A 1_555 1_555
H35A C50A 1_555 1_555
H36A C50A 1_555 1_555
H37A C50A 1_555 1_555
C51A C37A 1_555 1_555
H38A C51A 1_555 1_555
H39A C51A 1_555 1_555
H40A C51A 1_555 1_555
C52A C44A 1_555 1_555
H41A C52A 1_555 1_555
H42A C52A 1_555 1_555
H43A C52A 1_555 1_555
C53A C44A 1_555 1_555
H44A C53A 1_555 1_555
H45A C53A 1_555 1_555
H46A C53A 1_555 1_555
C54A C44A 1_555 1_555
H47A C54A 1_555 1_555
H48A C54A 1_555 1_555
H49A C54A 1_555 1_555
C10 C11 1_555 1_555
C16 C17 1_555 1_555
C17 C18 1_555 1_555
C18 C19 1_555 1_555
C20 C21 1_555 1_555
C23 C30 1_555 1_555
C28 C29 1_555 1_555
C35 C36 1_555 1_555
C42 C43 1_555 1_555
C1A C30A 1_555 1_555
C10A C11A 1_555 1_555
C16A C17A 1_555 1_555
C17A C18A 1_555 1_555
C18A C19A 1_555 1_555
C20A C21A 1_555 1_555
C23A C30A 1_555 1_555
C24A C29A 1_555 1_555
C27A C28A 1_555 1_555
C28A C29A 1_555 1_555
C35A C36A 1_555 1_555
C42A C43A 1_555 1_555

#END
