
#######################################################################
#
#                 Cambridge Crystallographic Data Centre
#                                CCDC 
#
#######################################################################
#
# If this CIF has been generated from an entry in the Cambridge 
# Structural Database, then it will include bibliographic, chemical, 
# crystal, experimental, refinement or atomic coordinate data resulting 
# from the CCDC's data processing and validation procedures.
#
#######################################################################

data_AZIWAJ
_chemical_formula_moiety         'C66 H58'
_chemical_name_systematic        
9,24,28,50-tetra-t-butyltetradecacyclo[34.6.6.2^12,19^.0^2,35^.0^4,33^.0^5,14^.0^6,11^.0^13,18^.0^15,32^.0^16,25^.0^17,22^.0^26,31^.0^37,42^.0^43,48^]pentaconta-2,4,6,8,10,12(50),13,15,17,19(49),20,22,24,26,28,30,32,34,37,39,41,43,45,47-tetracosaene
_symmetry_cell_setting           monoclinic
_symmetry_space_group_name_H-M   'P 21/c'
_symmetry_Int_Tables_number      14
_space_group_name_Hall           '-P 2ybc'
loop_
_symmetry_equiv_pos_site_id
_symmetry_equiv_pos_as_xyz
1 x,y,z
2 -x,1/2+y,1/2-z
3 -x,-y,-z
4 x,1/2-y,1/2+z
_cell_length_a                   14.0133(17)
_cell_length_b                   24.004(3)
_cell_length_c                   14.1842(16)
_cell_angle_alpha                90
_cell_angle_beta                 90.712(3)
_cell_angle_gamma                90
_cell_volume                     4770.85
_exptl_crystal_colour            orange
_exptl_crystal_description       polyhedron
_cell_formula_units_Z            4
loop_
_atom_site_label
_atom_site_type_symbol
_atom_site_fract_x
_atom_site_fract_y
_atom_site_fract_z
C1 C 0.4723(4) 0.3578(3) 0.6575(4)
H1 H 0.5330 0.3393 0.6778
C2 C 0.3147(5) 0.4051(3) 0.6065(4)
H2 H 0.2535 0.4234 0.5868
C3 C 0.5728(4) 0.3581(3) 0.2352(4)
C4 C 0.6347(4) 0.3279(3) 0.1727(4)
C5 C 0.5994(4) 0.3120(3) 0.0828(4)
C6 C 0.5062(4) 0.3296(3) 0.0505(4)
C7 C 0.4487(4) 0.3636(3) 0.1074(4)
C8 C 0.4799(4) 0.3759(3) 0.2030(4)
C9 C 0.4494(5) 0.4090(3) 0.7154(5)
C10 C 0.4993(5) 0.4289(3) 0.7919(5)
H3 H 0.5563 0.4106 0.8115
C11 C 0.4685(6) 0.4750(3) 0.8410(5)
H4 H 0.5032 0.4882 0.8945
C12 C 0.3849(6) 0.5018(3) 0.8103(5)
H5 H 0.3637 0.5343 0.8419
C13 C 0.3329(5) 0.4813(3) 0.7344(5)
H6 H 0.2756 0.4993 0.7150
C14 C 0.3641(5) 0.4351(3) 0.6869(4)
C15 C 0.3857(5) 0.3196(3) 0.6639(4)
C16 C 0.3854(5) 0.2646(3) 0.6925(4)
H7 H 0.4438 0.2461 0.7067
C17 C 0.2992(5) 0.2365(3) 0.7003(5)
H8 H 0.2979 0.1988 0.7202
C18 C 0.2165(5) 0.2638(3) 0.6790(5)
H9 H 0.1577 0.2449 0.6876
C19 C 0.2145(5) 0.3180(3) 0.6454(5)
H10 H 0.1561 0.3354 0.6273
C20 C 0.3007(5) 0.3460(3) 0.6391(4)
C21 C 0.4739(4) 0.3777(3) 0.5555(4)
C22 C 0.5443(4) 0.3698(3) 0.4923(4)
H11 H 0.6042 0.3558 0.5135
C23 C 0.5307(4) 0.3819(3) 0.3956(4)
C24 C 0.6026(4) 0.3691(3) 0.3271(4)
C25 C 0.7046(4) 0.3697(3) 0.3455(4)
C26 C 0.7449(5) 0.4022(3) 0.4181(4)
H12 H 0.7040 0.4173 0.4646
C27 C 0.8404(4) 0.4129(3) 0.4244(4)
H13 H 0.8649 0.4347 0.4751
C28 C 0.9028(4) 0.3917(3) 0.3559(5)
C29 C 0.8639(4) 0.3589(3) 0.2856(5)
H14 H 0.9049 0.3451 0.2382
C30 C 0.7660(4) 0.3447(3) 0.2805(4)
C31 C 0.7285(4) 0.3129(3) 0.2017(4)
C32 C 0.7779(4) 0.2710(3) 0.1482(5)
C33 C 0.7424(4) 0.2581(3) 0.0600(4)
H15 H 0.7783 0.2336 0.0217
C34 C 0.6559(4) 0.2793(3) 0.0235(4)
C35 C 0.6220(5) 0.2655(3) -0.0682(5)
H16 H 0.6610 0.2442 -0.1090
C36 C 0.5347(5) 0.2824(3) -0.0981(5)
H17 H 0.5132 0.2727 -0.1597
C37 C 0.4748(4) 0.3144(3) -0.0395(4)
C38 C 0.3790(4) 0.3264(3) -0.0637(5)
H18 H 0.3554 0.3126 -0.1223
C39 C 0.3171(4) 0.3565(3) -0.0089(4)
C40 C 0.3578(4) 0.3815(3) 0.0745(4)
C41 C 0.3170(4) 0.4279(3) 0.1256(4)
C42 C 0.2610(4) 0.4682(3) 0.0784(5)
H19 H 0.2460 0.4623 0.0136
C43 C 0.2275(4) 0.5148(3) 0.1201(5)
C44 C 0.2520(4) 0.5239(3) 0.2161(5)
H20 H 0.2275 0.5555 0.2478
C45 C 0.3101(5) 0.4877(3) 0.2632(5)
H21 H 0.3270 0.4954 0.3269
C46 C 0.3463(4) 0.4388(3) 0.2204(4)
C47 C 0.4212(4) 0.4052(3) 0.2639(4)
C48 C 0.4399(4) 0.4020(3) 0.3635(4)
C49 C 0.3701(4) 0.4124(3) 0.4327(4)
H22 H 0.3103 0.4277 0.4136
C50 C 0.3858(4) 0.4013(3) 0.5261(4)
C51 C 1.0078(5) 0.4088(4) 0.3574(5)
C52 C 1.0627(5) 0.3864(5) 0.2781(6)
H23 H 1.0323 0.3976 0.2185
H24 H 1.1280 0.4010 0.2810
H25 H 1.0644 0.3456 0.2821
C53 C 1.0519(6) 0.3927(5) 0.4504(6)
H26 H 1.0139 0.4082 0.5017
H27 H 1.0535 0.3520 0.4557
H28 H 1.1170 0.4074 0.4546
C54 C 1.0165(7) 0.4721(4) 0.3550(7)
H29 H 0.9805 0.4882 0.4072
H30 H 1.0838 0.4826 0.3613
H31 H 0.9908 0.4861 0.2950
C55 C 0.8602(5) 0.2329(3) 0.1835(5)
C56 C 0.8322(5) 0.1720(3) 0.1595(5)
H32 H 0.8182 0.1689 0.0919
H33 H 0.8852 0.1471 0.1763
H34 H 0.7756 0.1615 0.1953
C57 C 0.9524(5) 0.2464(3) 0.1297(5)
H35 H 0.9389 0.2460 0.0618
H36 H 0.9756 0.2833 0.1484
H37 H 1.0011 0.2184 0.1448
C58 C 0.8805(5) 0.2335(3) 0.2897(5)
H38 H 0.8217 0.2249 0.3235
H39 H 0.9291 0.2054 0.3050
H40 H 0.9037 0.2704 0.3086
C59 C 0.2091(4) 0.3518(3) -0.0373(4)
C60 C 0.1884(5) 0.2902(3) -0.0626(5)
H41 H 0.2013 0.2666 -0.0075
H42 H 0.1214 0.2862 -0.0819
H43 H 0.2295 0.2787 -0.1145
C61 C 0.1882(5) 0.3867(3) -0.1247(4)
H44 H 0.2330 0.3766 -0.1744
H45 H 0.1227 0.3795 -0.1467
H46 H 0.1954 0.4263 -0.1093
C62 C 0.1409(4) 0.3660(3) 0.0427(4)
H47 H 0.1562 0.3429 0.0979
H48 H 0.1477 0.4054 0.0594
H49 H 0.0751 0.3587 0.0221
C63 C 0.1693(5) 0.5590(3) 0.0674(5)
C64 C 0.1442(6) 0.5413(3) -0.0329(5)
H50 H 0.1070 0.5067 -0.0315
H51 H 0.1065 0.5706 -0.0638
H52 H 0.2030 0.5351 -0.0682
C65 C 0.0776(5) 0.5704(4) 0.1192(5)
H53 H 0.0399 0.5360 0.1226
H54 H 0.0926 0.5834 0.1831
H55 H 0.0409 0.5990 0.0854
C66 C 0.2265(6) 0.6122(3) 0.0628(6)
H56 H 0.2861 0.6053 0.0294
H57 H 0.1894 0.6408 0.0292
H58 H 0.2411 0.6252 0.1269
loop_
_geom_bond_atom_site_label_1
_geom_bond_atom_site_label_2
_geom_bond_site_symmetry_1
_geom_bond_site_symmetry_2
C1 H1 1_555 1_555
C2 H2 1_555 1_555
C3 C4 1_555 1_555
C4 C5 1_555 1_555
C5 C6 1_555 1_555
C6 C7 1_555 1_555
C7 C8 1_555 1_555
C8 C3 1_555 1_555
C9 C1 1_555 1_555
C10 C9 1_555 1_555
H3 C10 1_555 1_555
C11 C10 1_555 1_555
H4 C11 1_555 1_555
C12 C11 1_555 1_555
H5 C12 1_555 1_555
C13 C12 1_555 1_555
H6 C13 1_555 1_555
C14 C2 1_555 1_555
C15 C1 1_555 1_555
C16 C15 1_555 1_555
H7 C16 1_555 1_555
C17 C16 1_555 1_555
H8 C17 1_555 1_555
C18 C17 1_555 1_555
H9 C18 1_555 1_555
C19 C18 1_555 1_555
H10 C19 1_555 1_555
C20 C2 1_555 1_555
C21 C1 1_555 1_555
C22 C21 1_555 1_555
H11 C22 1_555 1_555
C23 C22 1_555 1_555
C24 C3 1_555 1_555
C25 C24 1_555 1_555
C26 C25 1_555 1_555
H12 C26 1_555 1_555
C27 C26 1_555 1_555
H13 C27 1_555 1_555
C28 C27 1_555 1_555
C29 C28 1_555 1_555
H14 C29 1_555 1_555
C30 C25 1_555 1_555
C31 C4 1_555 1_555
C32 C31 1_555 1_555
C33 C32 1_555 1_555
H15 C33 1_555 1_555
C34 C5 1_555 1_555
C35 C34 1_555 1_555
H16 C35 1_555 1_555
C36 C35 1_555 1_555
H17 C36 1_555 1_555
C37 C6 1_555 1_555
C38 C37 1_555 1_555
H18 C38 1_555 1_555
C39 C38 1_555 1_555
C40 C7 1_555 1_555
C41 C40 1_555 1_555
C42 C41 1_555 1_555
H19 C42 1_555 1_555
C43 C42 1_555 1_555
C44 C43 1_555 1_555
H20 C44 1_555 1_555
C45 C44 1_555 1_555
H21 C45 1_555 1_555
C46 C41 1_555 1_555
C47 C8 1_555 1_555
C48 C23 1_555 1_555
C49 C48 1_555 1_555
H22 C49 1_555 1_555
C50 C2 1_555 1_555
C51 C28 1_555 1_555
C52 C51 1_555 1_555
H23 C52 1_555 1_555
H24 C52 1_555 1_555
H25 C52 1_555 1_555
C53 C51 1_555 1_555
H26 C53 1_555 1_555
H27 C53 1_555 1_555
H28 C53 1_555 1_555
C54 C51 1_555 1_555
H29 C54 1_555 1_555
H30 C54 1_555 1_555
H31 C54 1_555 1_555
C55 C32 1_555 1_555
C56 C55 1_555 1_555
H32 C56 1_555 1_555
H33 C56 1_555 1_555
H34 C56 1_555 1_555
C57 C55 1_555 1_555
H35 C57 1_555 1_555
H36 C57 1_555 1_555
H37 C57 1_555 1_555
C58 C55 1_555 1_555
H38 C58 1_555 1_555
H39 C58 1_555 1_555
H40 C58 1_555 1_555
C59 C39 1_555 1_555
C60 C59 1_555 1_555
H41 C60 1_555 1_555
H42 C60 1_555 1_555
H43 C60 1_555 1_555
C61 C59 1_555 1_555
H44 C61 1_555 1_555
H45 C61 1_555 1_555
H46 C61 1_555 1_555
C62 C59 1_555 1_555
H47 C62 1_555 1_555
H48 C62 1_555 1_555
H49 C62 1_555 1_555
C63 C43 1_555 1_555
C64 C63 1_555 1_555
H50 C64 1_555 1_555
H51 C64 1_555 1_555
H52 C64 1_555 1_555
C65 C63 1_555 1_555
H53 C65 1_555 1_555
H54 C65 1_555 1_555
H55 C65 1_555 1_555
C66 C63 1_555 1_555
H56 C66 1_555 1_555
H57 C66 1_555 1_555
H58 C66 1_555 1_555
C9 C14 1_555 1_555
C13 C14 1_555 1_555
C15 C20 1_555 1_555
C19 C20 1_555 1_555
C21 C50 1_555 1_555
C23 C24 1_555 1_555
C29 C30 1_555 1_555
C30 C31 1_555 1_555
C33 C34 1_555 1_555
C36 C37 1_555 1_555
C39 C40 1_555 1_555
C45 C46 1_555 1_555
C46 C47 1_555 1_555
C47 C48 1_555 1_555
C49 C50 1_555 1_555

#END
