
#######################################################################
#
#                 Cambridge Crystallographic Data Centre
#                                CCDC 
#
#######################################################################
#
# If this CIF has been generated from an entry in the Cambridge 
# Structural Database, then it will include bibliographic, chemical, 
# crystal, experimental, refinement or atomic coordinate data resulting 
# from the CCDC's data processing and validation procedures.
#
#######################################################################

data_AZOKIJ
_chemical_compound_source        
'leaves of Pseudolarix kaempferi Gord. (Pinaceae)'
_chemical_formula_moiety         'C30 H44 O7'
_chemical_name_systematic        'Pseudolarolide S'
_symmetry_cell_setting           orthorhombic
_symmetry_space_group_name_H-M   'P 21 21 21'
_symmetry_Int_Tables_number      19
_space_group_name_Hall           'P 2ac 2ab'
loop_
_symmetry_equiv_pos_site_id
_symmetry_equiv_pos_as_xyz
1 x,y,z
2 1/2-x,-y,1/2+z
3 1/2+x,1/2-y,-z
4 -x,1/2+y,1/2-z
_cell_length_a                   12.561(3)
_cell_length_b                   13.515(3)
_cell_length_c                   16.354(3)
_cell_angle_alpha                90
_cell_angle_beta                 90
_cell_angle_gamma                90
_cell_volume                     2776.29
_exptl_crystal_colour            colorless
_exptl_crystal_description       prism
_chemical_melting_point          '233-234 deg.C'
_cell_formula_units_Z            4
_exptl_crystal_recrystallization_method acetonitrile
loop_
_atom_site_label
_atom_site_type_symbol
_atom_site_fract_x
_atom_site_fract_y
_atom_site_fract_z
O1 O 0.36332(18) 1.00452(19) 1.21381(15)
O2 O 0.53250(17) 1.04278(15) 1.21765(12)
O3 O 0.48156(14) 0.77032(15) 1.15730(11)
O4 O 0.52639(16) 0.67492(15) 1.12914(11)
O5 O 0.60694(15) 0.68610(15) 0.71410(11)
O6 O 0.3673(2) 0.6861(2) 0.54059(16)
O7 O 0.46392(17) 0.61839(16) 0.64109(12)
C1 C 0.5421(2) 0.7985(2) 1.23003(16)
H1 H 0.5455 0.7408 1.2662
C2 C 0.4731(3) 0.8778(2) 1.27264(18)
H2 H 0.4041 0.8482 1.2833
H3 H 0.5053 0.8913 1.3254
C3 C 0.4530(3) 0.9779(3) 1.23113(19)
C4 C 0.6480(2) 1.0185(2) 1.22127(19)
C5 C 0.6718(2) 0.9278(2) 1.16592(17)
H4 H 0.7484 0.9316 1.1546
C6 C 0.6175(2) 0.9390(2) 1.08121(17)
H5 H 0.5416 0.9285 1.0877
H6 H 0.6278 1.0062 1.0621
C7 C 0.6594(2) 0.8672(2) 1.01541(17)
H7 H 0.6499 0.8983 0.9624
H8 H 0.7353 0.8590 1.0238
C8 C 0.6086(2) 0.7641(2) 1.01199(16)
H9 H 0.5315 0.7751 1.0101
C9 C 0.6289(2) 0.6947(2) 1.08883(17)
C10 C 0.6555(2) 0.8259(2) 1.20658(18)
H10 H 0.6963 0.8274 1.2576
C11 C 0.6689(2) 0.5881(2) 1.07023(18)
H11 H 0.7460 0.5897 1.0730
H12 H 0.6449 0.5463 1.1148
C12 C 0.6388(3) 0.5347(2) 0.98954(17)
H13 H 0.7029 0.5079 0.9649
H14 H 0.5919 0.4798 1.0021
C13 C 0.5837(2) 0.6027(2) 0.92758(17)
C14 C 0.6374(2) 0.7091(2) 0.93075(16)
C15 C 0.5932(2) 0.7605(2) 0.85324(16)
H15 H 0.5316 0.8008 0.8665
H16 H 0.6470 0.8022 0.8284
C16 C 0.5618(2) 0.6751(2) 0.79499(16)
H17 H 0.4840 0.6731 0.7903
C17 C 0.5999(2) 0.5790(2) 0.83538(16)
H18 H 0.6770 0.5758 0.8265
C18 C 0.4629(2) 0.6063(2) 0.94742(17)
H19 H 0.4305 0.5446 0.9324
H20 H 0.4303 0.6592 0.9172
H21 H 0.4532 0.6175 1.0049
C19 C 0.7014(2) 0.7377(2) 1.15514(18)
H22 H 0.7667 0.7598 1.1293
H23 H 0.7201 0.6848 1.1925
C20 C 0.5521(2) 0.4909(2) 0.78962(17)
H24 H 0.4742 0.4956 0.7909
C21 C 0.5863(3) 0.3892(2) 0.8226(2)
H25 H 0.6626 0.3850 0.8230
H26 H 0.5578 0.3380 0.7882
H27 H 0.5598 0.3810 0.8773
C22 C 0.5913(2) 0.5037(2) 0.70031(18)
H28 H 0.6664 0.4872 0.6986
H29 H 0.5543 0.4559 0.6664
C23 C 0.5770(2) 0.6058(2) 0.66195(18)
C24 C 0.6343(3) 0.6217(3) 0.58055(18)
H30 H 0.7044 0.6499 0.5892
H31 H 0.6418 0.5597 0.5512
C25 C 0.5639(3) 0.6925(4) 0.5341(2)
H32 H 0.5806 0.7579 0.5565
C26 C 0.4533(4) 0.6676(3) 0.5679(2)
C27 C 0.5722(4) 0.7039(4) 0.4468(3)
H33 H 0.6409 0.7306 0.4333
H34 H 0.5177 0.7481 0.4279
H35 H 0.5637 0.6406 0.4209
C28 C 0.6977(2) 1.1155(2) 1.1871(2)
H36 H 0.6717 1.1272 1.1328
H37 H 0.7739 1.1093 1.1858
H38 H 0.6784 1.1700 1.2217
C29 C 0.6848(2) 1.0083(3) 1.31065(17)
H39 H 0.6680 1.0678 1.3400
H40 H 0.7603 0.9974 1.3121
H41 H 0.6491 0.9532 1.3356
C30 C 0.7600(2) 0.7031(2) 0.92204(19)
H42 H 0.7777 0.6624 0.8759
H43 H 0.7898 0.6747 0.9707
H44 H 0.7883 0.7683 0.9141
loop_
_geom_bond_atom_site_label_1
_geom_bond_atom_site_label_2
_geom_bond_site_symmetry_1
_geom_bond_site_symmetry_2
O1 C3 1_555 1_555
O2 C3 1_555 1_555
O3 O4 1_555 1_555
O4 C9 1_555 1_555
O5 C16 1_555 1_555
O6 C26 1_555 1_555
O7 C23 1_555 1_555
C1 O3 1_555 1_555
H1 C1 1_555 1_555
C2 C1 1_555 1_555
H2 C2 1_555 1_555
H3 C2 1_555 1_555
C3 C2 1_555 1_555
C4 O2 1_555 1_555
C5 C4 1_555 1_555
H4 C5 1_555 1_555
C6 C5 1_555 1_555
H5 C6 1_555 1_555
H6 C6 1_555 1_555
C7 C6 1_555 1_555
H7 C7 1_555 1_555
H8 C7 1_555 1_555
C8 C7 1_555 1_555
H9 C8 1_555 1_555
C9 C8 1_555 1_555
C10 C1 1_555 1_555
H10 C10 1_555 1_555
C11 C9 1_555 1_555
H11 C11 1_555 1_555
H12 C11 1_555 1_555
C12 C11 1_555 1_555
H13 C12 1_555 1_555
H14 C12 1_555 1_555
C13 C12 1_555 1_555
C14 C8 1_555 1_555
C15 C14 1_555 1_555
H15 C15 1_555 1_555
H16 C15 1_555 1_555
C16 C15 1_555 1_555
H17 C16 1_555 1_555
C17 C13 1_555 1_555
H18 C17 1_555 1_555
C18 C13 1_555 1_555
H19 C18 1_555 1_555
H20 C18 1_555 1_555
H21 C18 1_555 1_555
C19 C9 1_555 1_555
H22 C19 1_555 1_555
H23 C19 1_555 1_555
C20 C17 1_555 1_555
H24 C20 1_555 1_555
C21 C20 1_555 1_555
H25 C21 1_555 1_555
H26 C21 1_555 1_555
H27 C21 1_555 1_555
C22 C20 1_555 1_555
H28 C22 1_555 1_555
H29 C22 1_555 1_555
C23 O5 1_555 1_555
C24 C23 1_555 1_555
H30 C24 1_555 1_555
H31 C24 1_555 1_555
C25 C24 1_555 1_555
H32 C25 1_555 1_555
C26 O7 1_555 1_555
C27 C25 1_555 1_555
H33 C27 1_555 1_555
H34 C27 1_555 1_555
H35 C27 1_555 1_555
C28 C4 1_555 1_555
H36 C28 1_555 1_555
H37 C28 1_555 1_555
H38 C28 1_555 1_555
C29 C4 1_555 1_555
H39 C29 1_555 1_555
H40 C29 1_555 1_555
H41 C29 1_555 1_555
C30 C14 1_555 1_555
H42 C30 1_555 1_555
H43 C30 1_555 1_555
H44 C30 1_555 1_555
C5 C10 1_555 1_555
C10 C19 1_555 1_555
C13 C14 1_555 1_555
C16 C17 1_555 1_555
C22 C23 1_555 1_555
C25 C26 1_555 1_555

#END
