
#######################################################################
#
#                 Cambridge Crystallographic Data Centre
#                                CCDC 
#
#######################################################################
#
# If this CIF has been generated from an entry in the Cambridge 
# Structural Database, then it will include bibliographic, chemical, 
# crystal, experimental, refinement or atomic coordinate data resulting 
# from the CCDC's data processing and validation procedures.
#
#######################################################################

data_AZOKAB
_chemical_compound_source        
'leaves of Pseudolarix kaempferi Gord. (Pinaceae)'
_chemical_formula_moiety         'C30 H42 O7'
_chemical_name_systematic        'Pseudolarolide Q'
_symmetry_cell_setting           monoclinic
_symmetry_space_group_name_H-M   'P 21'
_symmetry_Int_Tables_number      4
_space_group_name_Hall           'P 2yb'
loop_
_symmetry_equiv_pos_site_id
_symmetry_equiv_pos_as_xyz
1 x,y,z
2 -x,1/2+y,-z
_cell_length_a                   6.7640(10)
_cell_length_b                   12.042(2)
_cell_length_c                   16.776(3)
_cell_angle_alpha                90
_cell_angle_beta                 90.15(3)
_cell_angle_gamma                90
_cell_volume                     1366.44
_exptl_crystal_colour            colorless
_exptl_crystal_description       prism
_chemical_melting_point          '244-246 deg.C'
_cell_formula_units_Z            2
loop_
_atom_site_label
_atom_site_type_symbol
_atom_site_fract_x
_atom_site_fract_y
_atom_site_fract_z
O1 O -0.1973(5) 0.1440(3) -0.07856(18)
O2 O -0.3116(4) 0.2513(2) 0.01451(15)
O3 O -0.0171(3) 0.24109(17) 0.23442(13)
O4 O 0.0580(3) 0.16847(17) 0.29887(12)
O5 O -0.4959(3) 0.19410(18) 0.64032(12)
O6 O -0.3724(4) 0.4364(2) 0.80673(17)
O7 O -0.3066(3) 0.28295(16) 0.73759(14)
C1 C 0.0093(5) 0.1374(3) 0.1151(2)
H1 H 0.1300 0.1094 0.1326
C2 C -0.0072(6) 0.1435(3) 0.0368(2)
H2 H 0.1041 0.1217 0.0083
C3 C -0.1765(7) 0.1797(4) -0.0119(2)
C4 C -0.3077(6) 0.3124(3) 0.0909(2)
C5 C -0.3232(5) 0.2281(3) 0.1591(2)
H3 H -0.4144 0.1705 0.1403
C6 C -0.4211(5) 0.2790(3) 0.2337(2)
H4 H -0.3406 0.3412 0.2510
H5 H -0.5485 0.3087 0.2178
C7 C -0.4541(4) 0.2030(3) 0.30603(19)
H6 H -0.5086 0.1334 0.2869
H7 H -0.5533 0.2371 0.3397
C8 C -0.2725(4) 0.1762(3) 0.35827(17)
H8 H -0.2066 0.2475 0.3676
C9 C -0.1141(4) 0.1004(2) 0.31726(19)
C10 C -0.1299(4) 0.1670(3) 0.18087(18)
C11 C -0.0346(5) 0.0002(2) 0.3651(2)
H9 H -0.1071 -0.0648 0.3475
H10 H 0.1021 -0.0107 0.3496
C12 C -0.0404(5) 0.0011(2) 0.4571(2)
H11 H -0.1133 -0.0633 0.4755
H12 H 0.0935 -0.0046 0.4776
C13 C -0.1366(4) 0.1060(2) 0.49040(18)
C14 C -0.3283(4) 0.1326(2) 0.44102(19)
C15 C -0.4350(4) 0.2187(3) 0.49510(19)
H13 H -0.4111 0.2936 0.4763
H14 H -0.5764 0.2053 0.4954
C16 C -0.3479(4) 0.2026(3) 0.57842(18)
H15 H -0.2608 0.2654 0.5905
C17 C -0.2240(4) 0.0969(2) 0.57485(19)
H16 H -0.3163 0.0342 0.5744
C18 C 0.0123(4) 0.2010(3) 0.4877(2)
H17 H 0.1061 0.1925 0.5303
H18 H -0.0558 0.2704 0.4935
H19 H 0.0804 0.1998 0.4376
C19 C -0.1684(4) 0.0639(2) 0.23292(19)
H20 H -0.3061 0.0418 0.2300
H21 H -0.0865 0.0021 0.2161
C20 C -0.1021(5) 0.0876(3) 0.6510(2)
H22 H -0.0185 0.1537 0.6562
C21 C 0.0283(5) -0.0159(3) 0.6555(2)
H23 H -0.0477 -0.0799 0.6405
H24 H 0.0763 -0.0251 0.7090
H25 H 0.1382 -0.0078 0.6199
C22 C -0.2534(5) 0.0868(3) 0.7191(2)
H26 H -0.3222 0.0161 0.7183
H27 H -0.1825 0.0916 0.7693
C23 C -0.4066(5) 0.1795(3) 0.71638(19)
C24 C -0.5714(5) 0.1703(3) 0.7770(2)
H28 H -0.6851 0.1324 0.7545
H29 H -0.5274 0.1304 0.8240
C25 C -0.6210(5) 0.2896(3) 0.7970(2)
H30 H -0.7144 0.3169 0.7567
C26 C -0.4271(5) 0.3464(3) 0.7838(2)
C27 C -0.7102(6) 0.3105(4) 0.8785(2)
H31 H -0.8413 0.2801 0.8802
H32 H -0.7158 0.3890 0.8883
H33 H -0.6299 0.2756 0.9186
C28 C -0.4657(5) 0.0297(3) 0.4326(2)
H34 H -0.5879 0.0516 0.4080
H35 H -0.4919 -0.0007 0.4844
H36 H -0.4020 -0.0254 0.4002
C29 C -0.1296(7) 0.3889(3) 0.0948(3)
H37 H -0.0112 0.3454 0.0993
H38 H -0.1408 0.4367 0.1404
H39 H -0.1241 0.4331 0.0473
C30 C -0.4967(7) 0.3812(3) 0.0813(3)
H40 H -0.4889 0.4244 0.0333
H41 H -0.5110 0.4299 0.1262
H42 H -0.6088 0.3324 0.0783
loop_
_geom_bond_atom_site_label_1
_geom_bond_atom_site_label_2
_geom_bond_site_symmetry_1
_geom_bond_site_symmetry_2
O1 C3 1_555 1_555
O2 C3 1_555 1_555
O3 O4 1_555 1_555
O4 C9 1_555 1_555
O5 C16 1_555 1_555
O6 C26 1_555 1_555
O7 C23 1_555 1_555
C1 H1 1_555 1_555
C2 C1 1_555 1_555
H2 C2 1_555 1_555
C3 C2 1_555 1_555
C4 O2 1_555 1_555
C5 C4 1_555 1_555
H3 C5 1_555 1_555
C6 C5 1_555 1_555
H4 C6 1_555 1_555
H5 C6 1_555 1_555
C7 C6 1_555 1_555
H6 C7 1_555 1_555
H7 C7 1_555 1_555
C8 C7 1_555 1_555
H8 C8 1_555 1_555
C9 C8 1_555 1_555
C10 O3 1_555 1_555
C11 C9 1_555 1_555
H9 C11 1_555 1_555
H10 C11 1_555 1_555
C12 C11 1_555 1_555
H11 C12 1_555 1_555
H12 C12 1_555 1_555
C13 C12 1_555 1_555
C14 C8 1_555 1_555
C15 C14 1_555 1_555
H13 C15 1_555 1_555
H14 C15 1_555 1_555
C16 C15 1_555 1_555
H15 C16 1_555 1_555
C17 C13 1_555 1_555
H16 C17 1_555 1_555
C18 C13 1_555 1_555
H17 C18 1_555 1_555
H18 C18 1_555 1_555
H19 C18 1_555 1_555
C19 C9 1_555 1_555
H20 C19 1_555 1_555
H21 C19 1_555 1_555
C20 C17 1_555 1_555
H22 C20 1_555 1_555
C21 C20 1_555 1_555
H23 C21 1_555 1_555
H24 C21 1_555 1_555
H25 C21 1_555 1_555
C22 C20 1_555 1_555
H26 C22 1_555 1_555
H27 C22 1_555 1_555
C23 O5 1_555 1_555
C24 C23 1_555 1_555
H28 C24 1_555 1_555
H29 C24 1_555 1_555
C25 C24 1_555 1_555
H30 C25 1_555 1_555
C26 O7 1_555 1_555
C27 C25 1_555 1_555
H31 C27 1_555 1_555
H32 C27 1_555 1_555
H33 C27 1_555 1_555
C28 C14 1_555 1_555
H34 C28 1_555 1_555
H35 C28 1_555 1_555
H36 C28 1_555 1_555
C29 C4 1_555 1_555
H37 C29 1_555 1_555
H38 C29 1_555 1_555
H39 C29 1_555 1_555
C30 C4 1_555 1_555
H40 C30 1_555 1_555
H41 C30 1_555 1_555
H42 C30 1_555 1_555
C1 C10 1_555 1_555
C5 C10 1_555 1_555
C10 C19 1_555 1_555
C13 C14 1_555 1_555
C16 C17 1_555 1_555
C22 C23 1_555 1_555
C25 C26 1_555 1_555

#END
