
#######################################################################
#
#                 Cambridge Crystallographic Data Centre
#                                CCDC 
#
#######################################################################
#
# If this CIF has been generated from an entry in the Cambridge 
# Structural Database, then it will include bibliographic, chemical, 
# crystal, experimental, refinement or atomic coordinate data resulting 
# from the CCDC's data processing and validation procedures.
#
#######################################################################

data_AZOKEF
_chemical_compound_source        
'leaves of Pseudolarix kaempferi Gord. (Pinaceae)'
_chemical_formula_moiety         'C30 H40 O7'
_chemical_name_systematic        'Pseudolarolide R'
_symmetry_cell_setting           monoclinic
_symmetry_space_group_name_H-M   'P 21'
_symmetry_Int_Tables_number      4
_space_group_name_Hall           'P 2yb'
loop_
_symmetry_equiv_pos_site_id
_symmetry_equiv_pos_as_xyz
1 x,y,z
2 -x,1/2+y,-z
_cell_length_a                   6.7000(10)
_cell_length_b                   11.714(2)
_cell_length_c                   16.861(3)
_cell_angle_alpha                90
_cell_angle_beta                 93.34(3)
_cell_angle_gamma                90
_cell_volume                     1321.07
_exptl_crystal_colour            colorless
_exptl_crystal_description       prism
_chemical_melting_point          '219-221 deg.C'
_cell_formula_units_Z            2
_exptl_crystal_recrystallization_method acetone/ethanol
loop_
_atom_site_label
_atom_site_type_symbol
_atom_site_fract_x
_atom_site_fract_y
_atom_site_fract_z
O1 O 0.3004(4) 0.6561(3) -0.07239(14)
O2 O 0.1989(3) 0.7745(2) 0.01631(12)
O3 O 0.4784(3) 0.75129(17) 0.24453(10)
O4 O 0.5332(3) 0.67429(16) 0.31160(10)
O5 O -0.0508(3) 0.74440(17) 0.63118(10)
O6 O 0.1290(4) 0.9442(2) 0.84183(14)
O7 O 0.1367(3) 0.82492(18) 0.73815(12)
C1 C 0.4894(5) 0.6388(3) 0.12832(19)
H1 H 0.6016 0.6007 0.1499
C2 C 0.4788(5) 0.6449(3) 0.04953(19)
H2 H 0.5885 0.6149 0.0254
C3 C 0.3230(5) 0.6912(3) -0.0051(2)
C4 C 0.2152(5) 0.8405(3) 0.09146(17)
C5 C 0.1728(4) 0.7574(3) 0.15995(16)
H3 H 0.0693 0.7049 0.1386
C6 C 0.0822(4) 0.8197(3) 0.22997(17)
H4 H 0.1774 0.8769 0.2497
H5 H -0.0365 0.8599 0.2095
C7 C 0.0247(4) 0.7465(3) 0.30075(16)
H6 H -0.0442 0.6789 0.2802
H7 H -0.0695 0.7895 0.3306
C8 C 0.1990(4) 0.7078(2) 0.35893(15)
H8 H 0.2803 0.7762 0.3700
C9 C 0.3432(4) 0.6178(2) 0.32429(16)
C10 C 0.3522(4) 0.6823(3) 0.18837(17)
C11 C 0.3964(4) 0.5117(3) 0.37525(18)
H9 H 0.5296 0.4878 0.3629
H10 H 0.3056 0.4511 0.3577
C12 C 0.3924(4) 0.5192(2) 0.46648(17)
H11 H 0.3111 0.4574 0.4852
H12 H 0.5273 0.5089 0.4896
C13 C 0.3107(4) 0.6317(2) 0.49545(16)
C14 C 0.1243(4) 0.6697(2) 0.43998(16)
C15 C 0.0317(4) 0.7655(2) 0.48890(15)
H13 H 0.0747 0.8398 0.4711
H14 H -0.1131 0.7622 0.4834
C16 C 0.1064(4) 0.7444(3) 0.57596(15)
H15 H 0.2032 0.8041 0.5919
C17 C 0.2151(4) 0.6297(2) 0.57621(15)
H16 H 0.1118 0.5704 0.5729
C18 C 0.4794(4) 0.7212(3) 0.49819(17)
H17 H 0.5433 0.7207 0.4487
H18 H 0.5757 0.7032 0.5407
H19 H 0.4242 0.7955 0.5069
C19 C 0.2848(4) 0.5817(2) 0.23939(17)
H20 H 0.1416 0.5699 0.2321
H21 H 0.3527 0.5118 0.2259
C20 C 0.3295(4) 0.6156(3) 0.65685(17)
H22 H 0.4209 0.6804 0.6654
C21 C 0.4487(5) 0.5051(3) 0.6659(2)
H23 H 0.5555 0.5061 0.6303
H24 H 0.3624 0.4414 0.6533
H25 H 0.5031 0.4983 0.7196
C22 C 0.1689(5) 0.6213(3) 0.71797(17)
H26 H 0.0901 0.5518 0.7139
H27 H 0.2349 0.6231 0.7707
C23 C 0.0277(4) 0.7229(3) 0.70946(16)
C24 C -0.1436(5) 0.7161(3) 0.76367(18)
H28 H -0.2548 0.6690 0.7562
C25 C -0.1091(5) 0.7896(3) 0.8250(2)
C26 C 0.0616(5) 0.8626(3) 0.80683(19)
C27 C -0.2439(5) 0.8187(4) 0.88940(19)
H29 H -0.1925 0.7855 0.9385
H30 H -0.3753 0.7891 0.8761
H31 H -0.2507 0.9001 0.8951
C28 C 0.4132(6) 0.9031(3) 0.0999(2)
H32 H 0.4431 0.9352 0.0495
H33 H 0.5170 0.8507 0.1171
H34 H 0.4050 0.9631 0.1383
C29 C 0.0477(6) 0.9262(3) 0.0754(2)
H35 H -0.0789 0.8877 0.0752
H36 H 0.0618 0.9614 0.0246
H37 H 0.0541 0.9836 0.1161
C30 C -0.0316(4) 0.5734(3) 0.42688(17)
H38 H -0.1446 0.6016 0.3952
H39 H -0.0743 0.5481 0.4773
H40 H 0.0273 0.5107 0.4000
loop_
_geom_bond_atom_site_label_1
_geom_bond_atom_site_label_2
_geom_bond_site_symmetry_1
_geom_bond_site_symmetry_2
O1 C3 1_555 1_555
O2 C3 1_555 1_555
O3 O4 1_555 1_555
O4 C9 1_555 1_555
O5 C16 1_555 1_555
O6 C26 1_555 1_555
O7 C23 1_555 1_555
C1 H1 1_555 1_555
C2 C1 1_555 1_555
H2 C2 1_555 1_555
C3 C2 1_555 1_555
C4 O2 1_555 1_555
C5 C4 1_555 1_555
H3 C5 1_555 1_555
C6 C5 1_555 1_555
H4 C6 1_555 1_555
H5 C6 1_555 1_555
C7 C6 1_555 1_555
H6 C7 1_555 1_555
H7 C7 1_555 1_555
C8 C7 1_555 1_555
H8 C8 1_555 1_555
C9 C8 1_555 1_555
C10 O3 1_555 1_555
C11 C9 1_555 1_555
H9 C11 1_555 1_555
H10 C11 1_555 1_555
C12 C11 1_555 1_555
H11 C12 1_555 1_555
H12 C12 1_555 1_555
C13 C12 1_555 1_555
C14 C8 1_555 1_555
C15 C14 1_555 1_555
H13 C15 1_555 1_555
H14 C15 1_555 1_555
C16 C15 1_555 1_555
H15 C16 1_555 1_555
C17 C13 1_555 1_555
H16 C17 1_555 1_555
C18 C13 1_555 1_555
H17 C18 1_555 1_555
H18 C18 1_555 1_555
H19 C18 1_555 1_555
C19 C9 1_555 1_555
H20 C19 1_555 1_555
H21 C19 1_555 1_555
C20 C17 1_555 1_555
H22 C20 1_555 1_555
C21 C20 1_555 1_555
H23 C21 1_555 1_555
H24 C21 1_555 1_555
H25 C21 1_555 1_555
C22 C20 1_555 1_555
H26 C22 1_555 1_555
H27 C22 1_555 1_555
C23 O5 1_555 1_555
C24 C23 1_555 1_555
H28 C24 1_555 1_555
C25 C24 1_555 1_555
C26 O7 1_555 1_555
C27 C25 1_555 1_555
H29 C27 1_555 1_555
H30 C27 1_555 1_555
H31 C27 1_555 1_555
C28 C4 1_555 1_555
H32 C28 1_555 1_555
H33 C28 1_555 1_555
H34 C28 1_555 1_555
C29 C4 1_555 1_555
H35 C29 1_555 1_555
H36 C29 1_555 1_555
H37 C29 1_555 1_555
C30 C14 1_555 1_555
H38 C30 1_555 1_555
H39 C30 1_555 1_555
H40 C30 1_555 1_555
C1 C10 1_555 1_555
C5 C10 1_555 1_555
C10 C19 1_555 1_555
C13 C14 1_555 1_555
C16 C17 1_555 1_555
C22 C23 1_555 1_555
C25 C26 1_555 1_555

#END
