
#######################################################################
#
#                 Cambridge Crystallographic Data Centre
#                                CCDC 
#
#######################################################################
#
# If this CIF has been generated from an entry in the Cambridge 
# Structural Database, then it will include bibliographic, chemical, 
# crystal, experimental, refinement or atomic coordinate data resulting 
# from the CCDC's data processing and validation procedures.
#
#######################################################################

data_AZOMUY
_chemical_formula_moiety         'C17 H20 N4 O2'
_chemical_name_systematic        1,1'-Propane-1,3-diylbis(3-phenylurea)
_symmetry_cell_setting           monoclinic
_symmetry_space_group_name_H-M   'C 2/c'
_symmetry_Int_Tables_number      15
_space_group_name_Hall           '-C 2yn'
loop_
_symmetry_equiv_pos_site_id
_symmetry_equiv_pos_as_xyz
1 x,y,z
2 -x,y,1/2-z
3 1/2+x,1/2+y,z
4 1/2-x,1/2+y,1/2-z
5 -x,-y,-z
6 x,-y,1/2+z
7 1/2-x,1/2-y,-z
8 1/2+x,1/2-y,1/2+z
_cell_length_a                   33.811(7)
_cell_length_b                   4.5980(10)
_cell_length_c                   9.891(2)
_cell_angle_alpha                90
_cell_angle_beta                 98.957(4)
_cell_angle_gamma                90
_cell_volume                     1518.93
_exptl_crystal_colour            colorless
_exptl_crystal_description       plate
_chemical_melting_point          '504 K'
_cell_formula_units_Z            4
loop_
_atom_site_label
_atom_site_type_symbol
_atom_site_fract_x
_atom_site_fract_y
_atom_site_fract_z
O1 O 0.42150(2) 0.94129(16) 0.45600(10)
N1 N 0.39232(3) 0.5132(2) 0.37683(12)
H1 H 0.3915(4) 0.335(4) 0.3917(18)
N2 N 0.44667(3) 0.5183(2) 0.54828(11)
H2 H 0.4448(5) 0.331(4) 0.5513(17)
C1 C 0.36029(3) 0.6418(2) 0.28699(11)
C2 C 0.36739(3) 0.8527(3) 0.19350(13)
H3 H 0.3940 0.9150 0.1897
C3 C 0.33567(4) 0.9726(3) 0.10557(14)
H4 H 0.3405 1.1188 0.0423
C4 C 0.29688(4) 0.8801(3) 0.10954(14)
H5 H 0.2752 0.9631 0.0494
C5 C 0.28992(4) 0.6679(3) 0.20069(14)
H6 H 0.2633 0.6025 0.2023
C6 C 0.32140(4) 0.5478(3) 0.29065(14)
H7 H 0.3164 0.4026 0.3541
C7 C 0.42011(3) 0.6716(2) 0.46010(12)
C8 C 0.47434(3) 0.6748(2) 0.64875(13)
H8 H 0.4590 0.8079 0.6998
H9 H 0.4921 0.7951 0.6007
C9 C 0.5000 0.4779(3) 0.7500
H10 H 0.4829 0.3523 0.7980
O1A O 0.57850(2) 0.94129(16) 1.04400(10)
N1A N 0.60768(3) 0.5132(2) 1.12317(12)
H1A H 0.6085(4) 0.335(4) 1.1083(18)
N2A N 0.55333(3) 0.5183(2) 0.95172(11)
H2A H 0.5552(5) 0.331(4) 0.9487(17)
C1A C 0.63971(3) 0.6418(2) 1.21301(11)
C2A C 0.63261(3) 0.8527(3) 1.30650(13)
H3A H 0.6060 0.9150 1.3103
C3A C 0.66433(4) 0.9726(3) 1.39443(14)
H4A H 0.6595 1.1188 1.4577
C4A C 0.70312(4) 0.8801(3) 1.39046(14)
H5A H 0.7248 0.9631 1.4506
C5A C 0.71008(4) 0.6679(3) 1.29931(14)
H6A H 0.7367 0.6025 1.2977
C6A C 0.67860(4) 0.5478(3) 1.20935(14)
H7A H 0.6836 0.4026 1.1459
C7A C 0.57989(3) 0.6716(2) 1.03990(12)
C8A C 0.52566(3) 0.6748(2) 0.85125(13)
H8A H 0.5410 0.8079 0.8002
H9A H 0.5079 0.7951 0.8993
H10A H 0.5171 0.3523 0.7020
loop_
_geom_bond_atom_site_label_1
_geom_bond_atom_site_label_2
_geom_bond_site_symmetry_1
_geom_bond_site_symmetry_2
O1 C7 1_555 1_555
N1 H1 1_555 1_555
N2 H2 1_555 1_555
C1 N1 1_555 1_555
C2 C1 1_555 1_555
H3 C2 1_555 1_555
C3 C2 1_555 1_555
H4 C3 1_555 1_555
C4 C3 1_555 1_555
H5 C4 1_555 1_555
C5 C4 1_555 1_555
H6 C5 1_555 1_555
C6 C1 1_555 1_555
H7 C6 1_555 1_555
C7 N1 1_555 1_555
C8 N2 1_555 1_555
H8 C8 1_555 1_555
H9 C8 1_555 1_555
C9 C8 1_555 1_555
H10 C9 1_555 1_555
O1A C7A 1_555 1_555
N1A H1A 1_555 1_555
N2A H2A 1_555 1_555
C1A N1A 1_555 1_555
C2A C1A 1_555 1_555
H3A C2A 1_555 1_555
C3A C2A 1_555 1_555
H4A C3A 1_555 1_555
C4A C3A 1_555 1_555
H5A C4A 1_555 1_555
C5A C4A 1_555 1_555
H6A C5A 1_555 1_555
C6A C1A 1_555 1_555
H7A C6A 1_555 1_555
C7A N1A 1_555 1_555
C8A C9 1_555 1_555
H8A C8A 1_555 1_555
H9A C8A 1_555 1_555
H10A C9 1_555 1_555
N2 C7 1_555 1_555
C5 C6 1_555 1_555
N2A C7A 1_555 1_555
N2A C8A 1_555 1_555
C5A C6A 1_555 1_555

#END
