
#######################################################################
#
#                 Cambridge Crystallographic Data Centre
#                                CCDC 
#
#######################################################################
#
# If this CIF has been generated from an entry in the Cambridge 
# Structural Database, then it will include bibliographic, chemical, 
# crystal, experimental, refinement or atomic coordinate data resulting 
# from the CCDC's data processing and validation procedures.
#
#######################################################################

data_AZOMEH
_chemical_formula_moiety         'C66 H82 N2 O8'
_chemical_name_systematic        
5,11,17,23-Tetra-t-butyl-25,27-bis(2-(N-(3,4-dimethoxybenzylidene)amino)ethoxy)-26,28-dihydroxycalix(4)arene
_symmetry_cell_setting           monoclinic
_symmetry_space_group_name_H-M   'P 21/c'
_symmetry_Int_Tables_number      14
_space_group_name_Hall           '-P 2ybc'
loop_
_symmetry_equiv_pos_site_id
_symmetry_equiv_pos_as_xyz
1 x,y,z
2 x,1/2-y,1/2+z
3 -x,-y,-z
4 -x,1/2+y,1/2-z
_cell_length_a                   20.98(3)
_cell_length_b                   17.52(2)
_cell_length_c                   18.03(2)
_cell_angle_alpha                90
_cell_angle_beta                 113.21(2)
_cell_angle_gamma                90
_cell_volume                     6090.91
_cell_formula_units_Z            4
loop_
_atom_site_label
_atom_site_type_symbol
_atom_site_fract_x
_atom_site_fract_y
_atom_site_fract_z
N1 N 0.07583(18) 0.48330(19) 0.3408(2)
N2 N -0.01446(18) 0.3217(2) -0.0933(2)
O1 O 0.16295(13) 0.37826(13) 0.29437(16)
O2 O 0.15635(13) 0.48699(14) 0.17952(17)
H1 H 0.1632 0.4586 0.2180
O3 O 0.11284(12) 0.41328(14) -0.00502(16)
O4 O 0.16163(13) 0.30785(13) 0.13353(17)
H2 H 0.1517 0.3333 0.0923
O5 O 0.16120(15) 0.76178(17) 0.4169(2)
O6 O 0.04959(15) 0.84071(16) 0.3899(2)
O7 O -0.1737(3) 0.0403(2) -0.2656(3)
O8 O -0.13852(19) -0.01864(19) -0.1260(2)
C1 C 0.23293(19) 0.2064(2) 0.2047(3)
C2 C 0.2187(2) 0.2287(2) 0.2777(2)
H3 H 0.1700 0.2413 0.2611
H4 H 0.2291 0.1861 0.3149
C3 C 0.2624(2) 0.2965(2) 0.3192(2)
C4 C 0.3344(2) 0.2906(2) 0.3474(3)
H5 H 0.3536 0.2429 0.3465
C5 C 0.3792(2) 0.3525(2) 0.3768(3)
C6 C 0.3485(2) 0.4229(2) 0.3782(3)
H6 H 0.3770 0.4652 0.3976
C7 C 0.2772(2) 0.4323(2) 0.3517(2)
C8 C 0.2468(2) 0.5119(2) 0.3520(2)
H7 H 0.1998 0.5065 0.3488
H8 H 0.2739 0.5370 0.4026
C9 C 0.2459(2) 0.5618(2) 0.2829(3)
C10 C 0.2911(2) 0.6245(2) 0.2986(3)
H9 H 0.3209 0.6343 0.3517
C11 C 0.2931(2) 0.6727(2) 0.2383(3)
C12 C 0.2496(2) 0.6540(2) 0.1595(3)
H10 H 0.2498 0.6852 0.1179
C13 C 0.20603(19) 0.5910(2) 0.1401(3)
C14 C 0.1685(2) 0.5651(2) 0.0535(3)
H11 H 0.1638 0.6076 0.0171
H12 H 0.1224 0.5472 0.0450
C15 C 0.2100(2) 0.5007(2) 0.0362(2)
C16 C 0.2788(2) 0.5133(2) 0.0486(2)
H13 H 0.2974 0.5618 0.0642
C17 C 0.3213(2) 0.4561(2) 0.0388(3)
C18 C 0.2932(2) 0.3830(2) 0.0211(3)
H14 H 0.3213 0.3432 0.0176
C19 C 0.2247(2) 0.3673(2) 0.0086(2)
C20 C 0.1990(2) 0.2853(2) -0.0051(3)
H15 H 0.1487 0.2855 -0.0262
H16 H 0.2126 0.2624 -0.0456
C21 C 0.2262(2) 0.2371(2) 0.0697(3)
C22 C 0.2722(2) 0.1771(2) 0.0777(3)
H17 H 0.2865 0.1681 0.0358
C23 C 0.2980(2) 0.1300(2) 0.1454(3)
C24 C 0.2771(2) 0.1463(2) 0.2077(3)
H18 H 0.2934 0.1157 0.2535
C25 C 0.20671(19) 0.2504(2) 0.1341(3)
C26 C 0.18284(19) 0.4277(2) 0.0125(2)
C27 C 0.20334(19) 0.5464(2) 0.2028(3)
C28 C 0.2348(2) 0.3684(2) 0.3240(2)
C29 C 0.4569(2) 0.3433(3) 0.4020(4)
C30 C 0.4728(4) 0.3610(9) 0.3311(7)
H19 H 0.5217 0.3561 0.3453
H20 H 0.4586 0.4124 0.3138
H21 H 0.4483 0.3262 0.2882
C31 C 0.4826(3) 0.2675(4) 0.4248(8)
H22 H 0.5318 0.2668 0.4394
H23 H 0.4606 0.2335 0.3803
H24 H 0.4727 0.2514 0.4700
C32 C 0.4978(3) 0.3972(5) 0.4656(6)
H25 H 0.5463 0.3893 0.4786
H26 H 0.4882 0.3890 0.5128
H27 H 0.4855 0.4486 0.4468
C33 C 0.3443(3) 0.7403(3) 0.2586(3)
C34 C 0.4161(3) 0.7095(4) 0.2802(6)
H28 H 0.4278 0.6759 0.3257
H29 H 0.4486 0.7510 0.2935
H30 H 0.4180 0.6819 0.2351
C35 C 0.3293(5) 0.7930(4) 0.1872(5)
H31 H 0.3619 0.8344 0.2022
H32 H 0.2831 0.8130 0.1706
H33 H 0.3332 0.7651 0.1433
C36 C 0.3436(4) 0.7856(4) 0.3278(5)
H34 H 0.3534 0.7527 0.3736
H35 H 0.2987 0.8084 0.3136
H36 H 0.3781 0.8249 0.3409
C37 C 0.3950(2) 0.4732(3) 0.0469(4)
C38 C 0.3948(4) 0.4664(7) -0.0380(5)
H37 H 0.4405 0.4767 -0.0357
H38 H 0.3626 0.5025 -0.0732
H39 H 0.3812 0.4156 -0.0581
C39 C 0.4454(3) 0.4152(5) 0.0941(6)
H40 H 0.4493 0.4162 0.1489
H41 H 0.4899 0.4260 0.0928
H42 H 0.4301 0.3656 0.0714
C40 C 0.4201(3) 0.5491(4) 0.0771(7)
H43 H 0.4215 0.5547 0.1306
H44 H 0.3897 0.5867 0.0423
H45 H 0.4659 0.5558 0.0783
C41 C 0.3479(3) 0.0639(3) 0.1500(3)
C42 C 0.4099(4) 0.0951(4) 0.1381(6)
H46 H 0.4333 0.1315 0.1798
H47 H 0.3950 0.1197 0.0864
H48 H 0.4410 0.0541 0.1404
C43 C 0.3102(4) 0.0064(3) 0.0844(4)
H49 H 0.3409 -0.0352 0.0870
H50 H 0.2957 0.0307 0.0326
H51 H 0.2704 -0.0126 0.0920
C44 C 0.3719(3) 0.0217(3) 0.2291(4)
H52 H 0.3973 0.0558 0.2723
H53 H 0.4013 -0.0200 0.2281
H54 H 0.3323 0.0022 0.2373
C45 C 0.1318(2) 0.3594(2) 0.3507(3)
H55 H 0.1627 0.3741 0.4048
H56 H 0.1241 0.3048 0.3502
C46 C 0.0637(2) 0.4010(2) 0.3275(3)
H57 H 0.0351 0.3915 0.2711
H58 H 0.0392 0.3821 0.3595
C47 C 0.0245(2) 0.5267(2) 0.3220(3)
H59 H -0.0194 0.5053 0.2977
C48 C 0.0296(2) 0.6092(2) 0.3361(3)
C49 C 0.0948(2) 0.6452(2) 0.3676(3)
H60 H 0.1347 0.6167 0.3767
C50 C 0.1003(2) 0.7218(2) 0.3848(3)
C51 C 0.0394(2) 0.7649(2) 0.3707(3)
C52 C -0.0237(2) 0.7304(2) 0.3399(3)
H61 H -0.0637 0.7586 0.3304
C53 C -0.0283(2) 0.6519(2) 0.3226(3)
H62 H -0.0716 0.6286 0.3016
C54 C 0.2237(2) 0.7201(3) 0.4429(4)
H63 H 0.2622 0.7547 0.4635
H64 H 0.2260 0.6921 0.3982
H65 H 0.2253 0.6852 0.4846
C55 C -0.0060(2) 0.8789(2) 0.4006(3)
H66 H 0.0061 0.9316 0.4135
H67 H -0.0146 0.8553 0.4439
H68 H -0.0470 0.8757 0.3518
C56 C 0.07154(19) 0.4173(2) -0.0907(3)
H69 H 0.0889 0.3807 -0.1185
H70 H 0.0758 0.4679 -0.1102
C57 C -0.0029(2) 0.4011(2) -0.1093(3)
H71 H -0.0187 0.4342 -0.0769
H72 H -0.0301 0.4125 -0.1656
C58 C -0.0618(2) 0.2859(2) -0.1494(3)
H73 H -0.0852 0.3110 -0.1980
C59 C -0.0815(2) 0.2065(2) -0.1412(3)
C60 C -0.1203(2) 0.1639(3) -0.2099(3)
H74 H -0.1340 0.1860 -0.2607
C61 C -0.1383(3) 0.0892(3) -0.2029(3)
C62 C -0.1179(2) 0.0562(3) -0.1259(3)
C63 C -0.0811(2) 0.0975(3) -0.0593(3)
H75 H -0.0687 0.0761 -0.0084
C64 C -0.0619(2) 0.1724(3) -0.0671(3)
H76 H -0.0353 0.1997 -0.0211
C65 C -0.1902(3) 0.0615(4) -0.3412(4)
H77 H -0.2151 0.0210 -0.3767
H78 H -0.1487 0.0725 -0.3495
H79 H -0.2187 0.1063 -0.3522
C66 C -0.1175(3) -0.0562(3) -0.0503(3)
H80 H -0.1348 -0.1075 -0.0584
H81 H -0.1357 -0.0293 -0.0165
H82 H -0.0678 -0.0570 -0.0249
loop_
_geom_bond_atom_site_label_1
_geom_bond_atom_site_label_2
_geom_bond_site_symmetry_1
_geom_bond_site_symmetry_2
N1 C46 1_555 1_555
N2 C57 1_555 1_555
O1 C28 1_555 1_555
O2 H1 1_555 1_555
O3 C26 1_555 1_555
O4 H2 1_555 1_555
O5 C50 1_555 1_555
O6 C51 1_555 1_555
O7 C61 1_555 1_555
O8 C62 1_555 1_555
C1 C2 1_555 1_555
C2 H3 1_555 1_555
H4 C2 1_555 1_555
C3 C2 1_555 1_555
C4 C3 1_555 1_555
H5 C4 1_555 1_555
C5 C4 1_555 1_555
C6 C5 1_555 1_555
H6 C6 1_555 1_555
C7 C6 1_555 1_555
C8 C7 1_555 1_555
H7 C8 1_555 1_555
H8 C8 1_555 1_555
C9 C8 1_555 1_555
C10 C9 1_555 1_555
H9 C10 1_555 1_555
C11 C10 1_555 1_555
C12 C11 1_555 1_555
H10 C12 1_555 1_555
C13 C12 1_555 1_555
C14 C13 1_555 1_555
H11 C14 1_555 1_555
H12 C14 1_555 1_555
C15 C14 1_555 1_555
C16 C15 1_555 1_555
H13 C16 1_555 1_555
C17 C16 1_555 1_555
C18 C17 1_555 1_555
H14 C18 1_555 1_555
C19 C18 1_555 1_555
C20 C19 1_555 1_555
H15 C20 1_555 1_555
H16 C20 1_555 1_555
C21 C20 1_555 1_555
C22 C21 1_555 1_555
H17 C22 1_555 1_555
C23 C22 1_555 1_555
C24 C1 1_555 1_555
H18 C24 1_555 1_555
C25 O4 1_555 1_555
C26 C15 1_555 1_555
C27 O2 1_555 1_555
C28 C3 1_555 1_555
C29 C5 1_555 1_555
C30 C29 1_555 1_555
H19 C30 1_555 1_555
H20 C30 1_555 1_555
H21 C30 1_555 1_555
C31 C29 1_555 1_555
H22 C31 1_555 1_555
H23 C31 1_555 1_555
H24 C31 1_555 1_555
C32 C29 1_555 1_555
H25 C32 1_555 1_555
H26 C32 1_555 1_555
H27 C32 1_555 1_555
C33 C11 1_555 1_555
C34 C33 1_555 1_555
H28 C34 1_555 1_555
H29 C34 1_555 1_555
H30 C34 1_555 1_555
C35 C33 1_555 1_555
H31 C35 1_555 1_555
H32 C35 1_555 1_555
H33 C35 1_555 1_555
C36 C33 1_555 1_555
H34 C36 1_555 1_555
H35 C36 1_555 1_555
H36 C36 1_555 1_555
C37 C17 1_555 1_555
C38 C37 1_555 1_555
H37 C38 1_555 1_555
H38 C38 1_555 1_555
H39 C38 1_555 1_555
C39 C37 1_555 1_555
H40 C39 1_555 1_555
H41 C39 1_555 1_555
H42 C39 1_555 1_555
C40 C37 1_555 1_555
H43 C40 1_555 1_555
H44 C40 1_555 1_555
H45 C40 1_555 1_555
C41 C23 1_555 1_555
C42 C41 1_555 1_555
H46 C42 1_555 1_555
H47 C42 1_555 1_555
H48 C42 1_555 1_555
C43 C41 1_555 1_555
H49 C43 1_555 1_555
H50 C43 1_555 1_555
H51 C43 1_555 1_555
C44 C41 1_555 1_555
H52 C44 1_555 1_555
H53 C44 1_555 1_555
H54 C44 1_555 1_555
C45 O1 1_555 1_555
H55 C45 1_555 1_555
H56 C45 1_555 1_555
C46 C45 1_555 1_555
H57 C46 1_555 1_555
H58 C46 1_555 1_555
C47 N1 1_555 1_555
H59 C47 1_555 1_555
C48 C47 1_555 1_555
C49 C48 1_555 1_555
H60 C49 1_555 1_555
C50 C49 1_555 1_555
C51 C50 1_555 1_555
C52 C51 1_555 1_555
H61 C52 1_555 1_555
C53 C48 1_555 1_555
H62 C53 1_555 1_555
C54 O5 1_555 1_555
H63 C54 1_555 1_555
H64 C54 1_555 1_555
H65 C54 1_555 1_555
C55 O6 1_555 1_555
H66 C55 1_555 1_555
H67 C55 1_555 1_555
H68 C55 1_555 1_555
C56 O3 1_555 1_555
H69 C56 1_555 1_555
H70 C56 1_555 1_555
C57 C56 1_555 1_555
H71 C57 1_555 1_555
H72 C57 1_555 1_555
C58 N2 1_555 1_555
H73 C58 1_555 1_555
C59 C58 1_555 1_555
C60 C59 1_555 1_555
H74 C60 1_555 1_555
C61 C60 1_555 1_555
C62 C61 1_555 1_555
C63 C62 1_555 1_555
H75 C63 1_555 1_555
C64 C59 1_555 1_555
H76 C64 1_555 1_555
C65 O7 1_555 1_555
H77 C65 1_555 1_555
H78 C65 1_555 1_555
H79 C65 1_555 1_555
C66 O8 1_555 1_555
H80 C66 1_555 1_555
H81 C66 1_555 1_555
H82 C66 1_555 1_555
C1 C25 1_555 1_555
C7 C28 1_555 1_555
C9 C27 1_555 1_555
C13 C27 1_555 1_555
C19 C26 1_555 1_555
C21 C25 1_555 1_555
C23 C24 1_555 1_555
C52 C53 1_555 1_555
C63 C64 1_555 1_555

#END
