
#######################################################################
#
#                 Cambridge Crystallographic Data Centre
#                                CCDC 
#
#######################################################################
#
# If this CIF has been generated from an entry in the Cambridge 
# Structural Database, then it will include bibliographic, chemical, 
# crystal, experimental, refinement or atomic coordinate data resulting 
# from the CCDC's data processing and validation procedures.
#
#######################################################################

data_AZONUZ
_chemical_formula_moiety         'C18 H17 N5 O2'
_chemical_name_systematic        
N^4^,N^6^-Dimethyl-5-nitro-N^4^,N^6^-diphenylpyrimidine-4,6-diamine
_symmetry_cell_setting           monoclinic
_symmetry_space_group_name_H-M   'P 21/c'
_symmetry_Int_Tables_number      14
_space_group_name_Hall           '-P 2ybc'
loop_
_symmetry_equiv_pos_site_id
_symmetry_equiv_pos_as_xyz
1 x,y,z
2 -x,1/2+y,1/2-z
3 -x,-y,-z
4 x,1/2-y,1/2+z
_cell_length_a                   10.794(2)
_cell_length_b                   7.0019(14)
_cell_length_c                   23.650(6)
_cell_angle_alpha                90
_cell_angle_beta                 109.02(3)
_cell_angle_gamma                90
_cell_volume                     1689.85
_exptl_crystal_colour            colorless
_exptl_crystal_description       block
_cell_formula_units_Z            4
loop_
_atom_site_label
_atom_site_type_symbol
_atom_site_fract_x
_atom_site_fract_y
_atom_site_fract_z
O1 O 0.84317(18) 0.0703(3) 0.35192(9)
O2 O 0.85674(17) 0.2808(3) 0.42079(8)
N1 N 0.5774(2) 0.2175(3) 0.41820(9)
N2 N 0.45045(19) 0.3519(3) 0.32882(10)
N3 N 0.52690(19) 0.3954(3) 0.24557(9)
N4 N 0.7997(2) 0.2043(3) 0.37282(10)
N5 N 0.74616(19) 0.3627(3) 0.25459(9)
C1 C 0.7275(3) -0.2635(4) 0.44234(13)
H1 H 0.7216 -0.3782 0.4218
C2 C 0.8135(3) -0.2471(5) 0.49962(14)
H2 H 0.8663 -0.3498 0.5176
C3 C 0.8210(3) -0.0796(5) 0.53010(13)
H3 H 0.8784 -0.0692 0.5690
C4 C 0.6587(2) 0.0578(4) 0.44551(10)
C5 C 0.6500(3) -0.1108(4) 0.41512(11)
H4 H 0.5921 -0.1224 0.3763
C6 C 0.7441(3) 0.0745(4) 0.50349(12)
H5 H 0.7496 0.1885 0.5243
C7 C 0.4741(3) 0.2699(5) 0.44293(13)
H6 H 0.4531 0.4028 0.4354
H7 H 0.5041 0.2470 0.4853
H8 H 0.3975 0.1943 0.4243
C8 C 0.6703(2) 0.2779(3) 0.33805(10)
C9 C 0.5681(2) 0.2799(3) 0.36205(11)
C10 C 0.6494(2) 0.3447(3) 0.27970(11)
C11 C 0.4380(2) 0.3965(4) 0.27283(13)
H9 H 0.3545 0.4341 0.2493
C12 C 0.8912(3) 0.5770(4) 0.32865(12)
H10 H 0.8181 0.6442 0.3303
C13 C 0.9840(3) 0.3278(4) 0.28633(12)
H11 H 0.9742 0.2256 0.2601
C14 C 1.0143(3) 0.6310(4) 0.36414(13)
H12 H 1.0246 0.7332 0.3904
C15 C 1.1078(3) 0.3861(4) 0.32153(13)
H13 H 1.1815 0.3241 0.3184
C16 C 1.1223(3) 0.5339(5) 0.36078(13)
H14 H 1.2056 0.5690 0.3853
C17 C 0.8759(2) 0.4228(3) 0.29054(10)
C18 C 0.7094(3) 0.3940(4) 0.19040(10)
H15 H 0.6509 0.2945 0.1697
H16 H 0.7865 0.3927 0.1786
H17 H 0.6664 0.5154 0.1805
loop_
_geom_bond_atom_site_label_1
_geom_bond_atom_site_label_2
_geom_bond_site_symmetry_1
_geom_bond_site_symmetry_2
O1 N4 1_555 1_555
O2 N4 1_555 1_555
N1 C4 1_555 1_555
N2 C9 1_555 1_555
N3 C10 1_555 1_555
N4 C8 1_555 1_555
N5 C10 1_555 1_555
C1 H1 1_555 1_555
C2 C1 1_555 1_555
H2 C2 1_555 1_555
C3 C2 1_555 1_555
H3 C3 1_555 1_555
C4 C5 1_555 1_555
C5 C1 1_555 1_555
H4 C5 1_555 1_555
C6 C3 1_555 1_555
H5 C6 1_555 1_555
C7 N1 1_555 1_555
H6 C7 1_555 1_555
H7 C7 1_555 1_555
H8 C7 1_555 1_555
C8 C9 1_555 1_555
C9 N1 1_555 1_555
C10 C8 1_555 1_555
C11 N2 1_555 1_555
H9 C11 1_555 1_555
C12 H10 1_555 1_555
C13 H11 1_555 1_555
C14 C12 1_555 1_555
H12 C14 1_555 1_555
C15 C13 1_555 1_555
H13 C15 1_555 1_555
C16 C14 1_555 1_555
H14 C16 1_555 1_555
C17 N5 1_555 1_555
C18 N5 1_555 1_555
H15 C18 1_555 1_555
H16 C18 1_555 1_555
H17 C18 1_555 1_555
N3 C11 1_555 1_555
C4 C6 1_555 1_555
C12 C17 1_555 1_555
C13 C17 1_555 1_555
C15 C16 1_555 1_555

#END
