
#######################################################################
#
#                 Cambridge Crystallographic Data Centre
#                                CCDC 
#
#######################################################################
#
# If this CIF has been generated from an entry in the Cambridge 
# Structural Database, then it will include bibliographic, chemical, 
# crystal, experimental, refinement or atomic coordinate data resulting 
# from the CCDC's data processing and validation procedures.
#
#######################################################################

data_AZOWUH
_chemical_formula_moiety         'C13 H19 N5 O2'
_chemical_name_systematic        
3,6,9,12-Tetra-aza-1(2,6)-pyridinacyclotridecaphane-2,13-dione
_symmetry_cell_setting           monoclinic
_symmetry_space_group_name_H-M   'C 2/c'
_symmetry_Int_Tables_number      15
_space_group_name_Hall           '-C 2yn'
loop_
_symmetry_equiv_pos_site_id
_symmetry_equiv_pos_as_xyz
1 x,y,z
2 1/2+x,1/2+y,z
3 x,-y,1/2+z
4 1/2+x,1/2-y,1/2+z
5 -x,-y,-z
6 1/2-x,1/2-y,-z
7 -x,y,1/2-z
8 1/2-x,1/2+y,1/2-z
_cell_length_a                   13.9346(18)
_cell_length_b                   11.3632(14)
_cell_length_c                   17.801(2)
_cell_angle_alpha                90
_cell_angle_beta                 95.632(3)
_cell_angle_gamma                90
_cell_volume                     2805.03
_exptl_crystal_colour            colorless
_exptl_crystal_description       block
_cell_formula_units_Z            8
loop_
_atom_site_label
_atom_site_type_symbol
_atom_site_fract_x
_atom_site_fract_y
_atom_site_fract_z
O1 O -0.06864(10) 0.71685(12) 0.62105(6)
O2 O 0.12926(10) 0.96067(12) 0.31004(6)
N1 N 0.04986(9) 0.86661(11) 0.48290(6)
N2 N 0.07465(10) 0.81302(12) 0.62907(7)
H1 H 0.1112 0.8570 0.6037
N3 N 0.24488(10) 0.91674(13) 0.69319(7)
H2 H 0.2021 0.9722 0.6847
N4 N 0.34111(11) 0.97944(14) 0.55148(8)
H3 H 0.3064 1.0410 0.5593
N5 N 0.20137(10) 0.96213(13) 0.42928(7)
H4 H 0.1911 0.9508 0.4762
C1 C -0.02574(11) 0.82080(13) 0.51298(8)
C2 C -0.11562(12) 0.81000(15) 0.47305(9)
H5 H -0.1678 0.7785 0.4961
C3 C -0.12704(13) 0.84633(16) 0.39881(10)
H6 H -0.1878 0.8418 0.3709
C4 C -0.04855(12) 0.88935(15) 0.36590(9)
H7 H -0.0540 0.9116 0.3148
C5 C 0.03820(12) 0.89882(13) 0.41008(8)
C6 C -0.00891(12) 0.77904(14) 0.59368(8)
C7 C 0.11093(14) 0.78399(17) 0.70580(9)
H8 H 0.0939 0.7027 0.7172
H9 H 0.0822 0.8363 0.7412
C8 C 0.21892(14) 0.79825(17) 0.71379(10)
H10 H 0.2444 0.7824 0.7661
H11 H 0.2476 0.7414 0.6811
C9 C 0.34725(13) 0.93698(18) 0.68763(10)
H12 H 0.3848 0.8923 0.7274
H13 H 0.3614 1.0207 0.6962
C10 C 0.37894(14) 0.90129(18) 0.61140(10)
H14 H 0.4495 0.9016 0.6144
H15 H 0.3569 0.8209 0.5995
C11 C 0.36646(13) 0.94566(19) 0.47674(10)
H16 H 0.3655 0.8597 0.4723
H17 H 0.4320 0.9728 0.4704
C12 C 0.29703(14) 0.99807(18) 0.41566(9)
H18 H 0.3019 1.0841 0.4166
H19 H 0.3121 0.9702 0.3660
C13 C 0.12743(12) 0.94444(13) 0.37835(8)
loop_
_geom_bond_atom_site_label_1
_geom_bond_atom_site_label_2
_geom_bond_site_symmetry_1
_geom_bond_site_symmetry_2
O1 C6 1_555 1_555
O2 C13 1_555 1_555
N1 C1 1_555 1_555
N2 H1 1_555 1_555
N3 H2 1_555 1_555
N4 H3 1_555 1_555
N5 H4 1_555 1_555
C1 C2 1_555 1_555
C2 H5 1_555 1_555
C3 C2 1_555 1_555
H6 C3 1_555 1_555
C4 C3 1_555 1_555
H7 C4 1_555 1_555
C5 N1 1_555 1_555
C6 N2 1_555 1_555
C7 N2 1_555 1_555
H8 C7 1_555 1_555
H9 C7 1_555 1_555
C8 N3 1_555 1_555
H10 C8 1_555 1_555
H11 C8 1_555 1_555
C9 N3 1_555 1_555
H12 C9 1_555 1_555
H13 C9 1_555 1_555
C10 N4 1_555 1_555
H14 C10 1_555 1_555
H15 C10 1_555 1_555
C11 N4 1_555 1_555
H16 C11 1_555 1_555
H17 C11 1_555 1_555
C12 N5 1_555 1_555
H18 C12 1_555 1_555
H19 C12 1_555 1_555
C13 N5 1_555 1_555
C1 C6 1_555 1_555
C4 C5 1_555 1_555
C5 C13 1_555 1_555
C7 C8 1_555 1_555
C9 C10 1_555 1_555
C11 C12 1_555 1_555

#END
