
#######################################################################
#
#                 Cambridge Crystallographic Data Centre
#                                CCDC 
#
#######################################################################
#
# If this CIF has been generated from an entry in the Cambridge 
# Structural Database, then it will include bibliographic, chemical, 
# crystal, experimental, refinement or atomic coordinate data resulting 
# from the CCDC's data processing and validation procedures.
#
#######################################################################

data_AZOZOF
_chemical_formula_moiety         'C10 H12 Br2 O2'
_chemical_name_systematic        2,4-Dibromo-6-t-butylbenzene-1,3-diol
_symmetry_cell_setting           tetragonal
_symmetry_space_group_name_H-M   'P -4 b 2'
_symmetry_Int_Tables_number      117
_space_group_name_Hall           'P -4 -2ab'
loop_
_symmetry_equiv_pos_site_id
_symmetry_equiv_pos_as_xyz
1 x,y,z
2 y,-x,-z
3 -x,-y,z
4 -y,x,-z
5 1/2+y,1/2+x,-z
6 1/2-y,1/2-x,-z
7 1/2-x,1/2+y,z
8 1/2+x,1/2-y,z
_cell_length_a                   11.618(3)
_cell_length_b                   11.618(3)
_cell_length_c                   17.761(4)
_cell_angle_alpha                90
_cell_angle_beta                 90
_cell_angle_gamma                90
_cell_volume                     2397.34
_exptl_crystal_colour            colorless
_exptl_crystal_description       prismatic
_cell_formula_units_Z            8
_exptl_crystal_recrystallization_method acetonitrile
loop_
_atom_site_label
_atom_site_type_symbol
_atom_site_fract_x
_atom_site_fract_y
_atom_site_fract_z
Br1 Br 0.54152(12) 0.82654(10) 0.57359(5)
Br2 Br 0.26935(9) 0.44073(9) 0.65318(6)
O1 O 0.5347(6) 0.8647(5) 0.7424(3)
H1 H 0.5215 0.9175 0.7131
O2 O 0.4052(6) 0.6107(6) 0.5499(2)
H2 H 0.4250 0.5434 0.5444
C1 C 0.4723(7) 0.7689(7) 0.7214(4)
C2 C 0.4666(7) 0.7357(7) 0.6471(4)
C3 C 0.4069(7) 0.6383(8) 0.6250(4)
C4 C 0.3557(7) 0.5756(6) 0.6803(5)
C5 C 0.3603(7) 0.6096(7) 0.7559(4)
H3 H 0.3220 0.5655 0.7917
C6 C 0.4188(7) 0.7050(7) 0.7788(4)
C7 C 0.4255(8) 0.7422(9) 0.8617(4)
C8 C 0.3682(9) 0.8603(8) 0.8714(4)
H4 H 0.2916 0.8579 0.8512
H5 H 0.4123 0.9176 0.8452
H6 H 0.3648 0.8794 0.9240
C9 C 0.5530(9) 0.7473(11) 0.8882(5)
H7 H 0.5558 0.7698 0.9402
H8 H 0.5943 0.8024 0.8583
H9 H 0.5877 0.6728 0.8825
C10 C 0.3623(9) 0.6572(8) 0.9131(4)
H10 H 0.3963 0.5822 0.9082
H11 H 0.2827 0.6536 0.8990
H12 H 0.3684 0.6825 0.9644
loop_
_geom_bond_atom_site_label_1
_geom_bond_atom_site_label_2
_geom_bond_site_symmetry_1
_geom_bond_site_symmetry_2
Br1 C2 1_555 1_555
Br2 C4 1_555 1_555
O1 H1 1_555 1_555
O2 H2 1_555 1_555
C1 O1 1_555 1_555
C2 C1 1_555 1_555
C3 O2 1_555 1_555
C4 C3 1_555 1_555
C5 C4 1_555 1_555
H3 C5 1_555 1_555
C6 C1 1_555 1_555
C7 C6 1_555 1_555
C8 C7 1_555 1_555
H4 C8 1_555 1_555
H5 C8 1_555 1_555
H6 C8 1_555 1_555
C9 C7 1_555 1_555
H7 C9 1_555 1_555
H8 C9 1_555 1_555
H9 C9 1_555 1_555
C10 C7 1_555 1_555
H10 C10 1_555 1_555
H11 C10 1_555 1_555
H12 C10 1_555 1_555
C2 C3 1_555 1_555
C5 C6 1_555 1_555

#END
