
#######################################################################
#
#                 Cambridge Crystallographic Data Centre
#                                CCDC 
#
#######################################################################
#
# If this CIF has been generated from an entry in the Cambridge 
# Structural Database, then it will include bibliographic, chemical, 
# crystal, experimental, refinement or atomic coordinate data resulting 
# from the CCDC's data processing and validation procedures.
#
#######################################################################

data_AZTYMD
_chemical_formula_moiety         'C9 H13 N3 O5'
_chemical_name_systematic        6-Azathymidine
_symmetry_cell_setting           orthorhombic
_symmetry_space_group_name_H-M   'P 21 21 21'
_symmetry_Int_Tables_number      19
_space_group_name_Hall           'P 2ac 2ab'
loop_
_symmetry_equiv_pos_site_id
_symmetry_equiv_pos_as_xyz
1 x,y,z
2 1/2+x,1/2-y,-z
3 -x,1/2+y,1/2-z
4 1/2-x,-y,1/2+z
_cell_length_a                   8.169(4)
_cell_length_b                   7.412(4)
_cell_length_c                   18.287(9)
_cell_angle_alpha                90
_cell_angle_beta                 90
_cell_angle_gamma                90
_cell_volume                     1107.25
_chemical_melting_point          152-3deg.C
_cell_formula_units_Z            4
loop_
_atom_site_label
_atom_site_type_symbol
_atom_site_fract_x
_atom_site_fract_y
_atom_site_fract_z
N1 N -0.27590 -0.43310 -0.41340
C1 C -0.19790 -0.41950 -0.47950
O1 O -0.05280 -0.38090 -0.48620
N2 N -0.29510 -0.45370 -0.53970
C2 C -0.45750 -0.49740 -0.53670
O2 O -0.53760 -0.51960 -0.59230
C3 C -0.52300 -0.51500 -0.46210
N3 N -0.43540 -0.48380 -0.40480
C4 C -0.69860 -0.56910 -0.45240
O3 O -0.11090 -0.57340 -0.32350
C5 C -0.18200 -0.40860 -0.34540
C6 C -0.28800 -0.34310 -0.28230
C7 C -0.33980 -0.52020 -0.24720
O4 O -0.37530 -0.50760 -0.17050
C8 C -0.18910 -0.63940 -0.25730
C9 C -0.22220 -0.83640 -0.26430
O5 O -0.31330 -0.88200 -0.32860
H1 H -0.24570 -0.45910 -0.58900
H2 H -0.71890 -0.60100 -0.40400
H3 H -0.78020 -0.49570 -0.46880
H4 H -0.72930 -0.72270 -0.48040
H5 H -0.08170 -0.33730 -0.36090
H6 H -0.22670 -0.26990 -0.24450
H7 H -0.39340 -0.26670 -0.29520
H8 H -0.43820 -0.59090 -0.27850
H9 H -0.46090 -0.49410 -0.16190
H10 H -0.12070 -0.63210 -0.21360
H11 H -0.11430 -0.89230 -0.26180
H12 H -0.28770 -0.84620 -0.21950
H13 H -0.25270 -0.90090 -0.36960
loop_
_geom_bond_atom_site_label_1
_geom_bond_atom_site_label_2
_geom_bond_site_symmetry_1
_geom_bond_site_symmetry_2
N1 C1 1_555 1_555
C1 O1 1_555 1_555
N2 C1 1_555 1_555
C2 N2 1_555 1_555
O2 C2 1_555 1_555
C3 C2 1_555 1_555
N3 N1 1_555 1_555
C4 C3 1_555 1_555
O3 C5 1_555 1_555
C5 N1 1_555 1_555
C6 C5 1_555 1_555
C7 C6 1_555 1_555
O4 C7 1_555 1_555
C8 O3 1_555 1_555
C9 C8 1_555 1_555
O5 C9 1_555 1_555
H1 N2 1_555 1_555
H2 C4 1_555 1_555
H3 C4 1_555 1_555
H4 C4 1_555 1_555
H5 C5 1_555 1_555
H6 C6 1_555 1_555
H7 C6 1_555 1_555
H8 C7 1_555 1_555
H9 O4 1_555 1_555
H10 C8 1_555 1_555
H11 C9 1_555 1_555
H12 C9 1_555 1_555
H13 O5 1_555 1_555
C3 N3 1_555 1_555
C7 C8 1_555 1_555

#END
