
#######################################################################
#
#                 Cambridge Crystallographic Data Centre
#                                CCDC 
#
#######################################################################
#
# If this CIF has been generated from an entry in the Cambridge 
# Structural Database, then it will include bibliographic, chemical, 
# crystal, experimental, refinement or atomic coordinate data resulting 
# from the CCDC's data processing and validation procedures.
#
#######################################################################

data_AZUKAI
_chemical_formula_moiety         'C18 H18 N2 O4'
_chemical_name_systematic        "Diethyl 4,4'-(diazenediyl)dibenzoate"
_symmetry_cell_setting           monoclinic
_symmetry_space_group_name_H-M   'P 21/c'
_symmetry_Int_Tables_number      14
_space_group_name_Hall           '-P 2ybc'
loop_
_symmetry_equiv_pos_site_id
_symmetry_equiv_pos_as_xyz
1 x,y,z
2 -x,1/2+y,1/2-z
3 -x,-y,-z
4 x,1/2-y,1/2+z
_cell_length_a                   14.844(3)
_cell_length_b                   4.5731(9)
_cell_length_c                   11.814(2)
_cell_angle_alpha                90
_cell_angle_beta                 95.88(3)
_cell_angle_gamma                90
_cell_volume                     797.751
_exptl_crystal_colour            red
_exptl_crystal_description       block
_cell_formula_units_Z            2
_exptl_crystal_recrystallization_method dichloromethane
loop_
_atom_site_label
_atom_site_type_symbol
_atom_site_fract_x
_atom_site_fract_y
_atom_site_fract_z
C1 C 0.92686(8) 0.2685(3) 0.93120(11)
C2 C 0.86559(9) 0.3422(3) 1.00838(12)
H1 H 0.8699 0.2558 1.0800
C3 C 0.92142(9) 0.4028(3) 0.82545(11)
H2 H 0.9633 0.3565 0.7748
C4 C 0.85380(9) 0.6061(3) 0.79487(11)
H3 H 0.8502 0.6954 0.7238
C5 C 0.79835(9) 0.5450(3) 0.97752(12)
H4 H 0.7573 0.5946 1.0288
C6 C 0.79149(8) 0.6754(3) 0.87074(11)
C7 C 0.71536(9) 0.8857(3) 0.84138(13)
C8 C 0.64597(12) 1.2071(4) 0.69866(17)
H5 H 0.6696 1.3527 0.6498
H6 H 0.6251 1.3072 0.7635
C9 C 0.56912(14) 1.0525(6) 0.6352(2)
H7 H 0.5226 1.1908 0.6103
H8 H 0.5453 0.9099 0.6838
H9 H 0.5896 0.9565 0.5702
N1 N 0.99820(7) 0.0589(2) 0.95208(9)
O1 O 0.65887(8) 0.9411(3) 0.90410(11)
O2 O 0.71756(7) 1.0021(3) 0.73787(10)
C1B C 1.07314(8) -0.2685(3) 1.06880(11)
C2B C 1.13441(9) -0.3422(3) 0.99162(12)
H1B H 1.1301 -0.2558 0.9200
C3B C 1.07858(9) -0.4028(3) 1.17455(11)
H2B H 1.0367 -0.3565 1.2252
C4B C 1.14620(9) -0.6061(3) 1.20513(11)
H3B H 1.1498 -0.6954 1.2762
C5B C 1.20165(9) -0.5450(3) 1.02248(12)
H4B H 1.2427 -0.5946 0.9712
C6B C 1.20851(8) -0.6754(3) 1.12926(11)
C7B C 1.28464(9) -0.8857(3) 1.15862(13)
C8B C 1.35403(12) -1.2071(4) 1.30134(17)
H5B H 1.3304 -1.3527 1.3502
H6B H 1.3749 -1.3072 1.2365
C9B C 1.43088(14) -1.0525(6) 1.3648(2)
H7B H 1.4774 -1.1908 1.3897
H8B H 1.4547 -0.9099 1.3162
H9B H 1.4104 -0.9565 1.4298
N1B N 1.00180(7) -0.0589(2) 1.04792(9)
O1B O 1.34113(8) -0.9411(3) 1.09590(11)
O2B O 1.28244(7) -1.0021(3) 1.26213(10)
loop_
_geom_bond_atom_site_label_1
_geom_bond_atom_site_label_2
_geom_bond_site_symmetry_1
_geom_bond_site_symmetry_2
C1 C2 1_555 1_555
C2 H1 1_555 1_555
C3 C1 1_555 1_555
H2 C3 1_555 1_555
C4 C3 1_555 1_555
H3 C4 1_555 1_555
C5 C2 1_555 1_555
H4 C5 1_555 1_555
C6 C4 1_555 1_555
C7 C6 1_555 1_555
C8 H5 1_555 1_555
H6 C8 1_555 1_555
C9 C8 1_555 1_555
H7 C9 1_555 1_555
H8 C9 1_555 1_555
H9 C9 1_555 1_555
N1 C1 1_555 1_555
O1 C7 1_555 1_555
O2 C7 1_555 1_555
C1B C2B 1_555 1_555
C2B H1B 1_555 1_555
C3B C1B 1_555 1_555
H2B C3B 1_555 1_555
C4B C3B 1_555 1_555
H3B C4B 1_555 1_555
C5B C2B 1_555 1_555
H4B C5B 1_555 1_555
C6B C4B 1_555 1_555
C7B C6B 1_555 1_555
C8B H5B 1_555 1_555
H6B C8B 1_555 1_555
C9B C8B 1_555 1_555
H7B C9B 1_555 1_555
H8B C9B 1_555 1_555
H9B C9B 1_555 1_555
N1B N1 1_555 1_555
O1B C7B 1_555 1_555
O2B C7B 1_555 1_555
C5 C6 1_555 1_555
C8 O2 1_555 1_555
C1B N1B 1_555 1_555
C5B C6B 1_555 1_555
C8B O2B 1_555 1_555

#END
