
#######################################################################
#
#                 Cambridge Crystallographic Data Centre
#                                CCDC 
#
#######################################################################
#
# If this CIF has been generated from an entry in the Cambridge 
# Structural Database, then it will include bibliographic, chemical, 
# crystal, experimental, refinement or atomic coordinate data resulting 
# from the CCDC's data processing and validation procedures.
#
#######################################################################

data_AZULAJ
_chemical_formula_moiety         'C19 H27 N3 O2,H2 O1'
_chemical_name_systematic        
'1,3-Dicyclohexyl-3-[(pyridin-2-yl)carbonyl]urea monohydrate'
_symmetry_cell_setting           monoclinic
_symmetry_space_group_name_H-M   'P 21/c'
_symmetry_Int_Tables_number      14
_space_group_name_Hall           '-P 2ybc'
loop_
_symmetry_equiv_pos_site_id
_symmetry_equiv_pos_as_xyz
1 x,y,z
2 -x,1/2+y,1/2-z
3 -x,-y,-z
4 x,1/2-y,1/2+z
_cell_length_a                   18.639(19)
_cell_length_b                   5.035(5)
_cell_length_c                   21.59(2)
_cell_angle_alpha                90
_cell_angle_beta                 111.395(9)
_cell_angle_gamma                90
_cell_volume                     1886.54
_exptl_crystal_colour            colorless
_exptl_crystal_description       lath
_cell_formula_units_Z            4
loop_
_atom_site_label
_atom_site_type_symbol
_atom_site_fract_x
_atom_site_fract_y
_atom_site_fract_z
O1 O 0.70258(7) -0.1731(2) 0.59067(6)
O2 O 0.91282(6) 0.2990(2) 0.60869(5)
N1 N 0.69415(7) 0.2624(3) 0.61576(7)
H1 H 0.7086(10) 0.425(2) 0.6115(9)
N2 N 0.79274(7) 0.1277(3) 0.58142(6)
N3 N 0.83745(8) 0.0413(3) 0.72128(7)
C1 C 0.72692(9) 0.0548(3) 0.59806(7)
C2 C 0.62543(9) 0.2342(3) 0.63269(8)
H2 H 0.6196 0.0428 0.6423
C3 C 0.55414(10) 0.3205(4) 0.57442(8)
H3 H 0.5482 0.2074 0.5354
H4 H 0.5606 0.5065 0.5625
C4 C 0.48146(10) 0.2991(4) 0.59151(9)
H5 H 0.4366 0.3659 0.5537
H6 H 0.4719 0.1105 0.5988
C5 C 0.49011(10) 0.4583(4) 0.65350(9)
H7 H 0.4935 0.6496 0.6443
H8 H 0.4440 0.4314 0.6653
C6 C 0.56154(11) 0.3759(5) 0.71165(9)
H9 H 0.5553 0.1908 0.7243
H10 H 0.5673 0.4914 0.7503
C7 C 0.63413(10) 0.3957(4) 0.69461(8)
H11 H 0.6438 0.5840 0.6870
H12 H 0.6790 0.3294 0.7325
C8 C 0.78688(9) 0.0807(3) 0.51160(7)
H13 H 0.8211 0.2131 0.5015
C9 C 0.81573(9) -0.1941(3) 0.50312(8)
H14 H 0.7841 -0.3306 0.5141
H15 H 0.8697 -0.2155 0.5341
C10 C 0.81124(10) -0.2337(3) 0.43150(8)
H16 H 0.8470 -0.1091 0.4221
H17 H 0.8274 -0.4169 0.4261
C11 C 0.72974(10) -0.1862(4) 0.38230(8)
H18 H 0.6947 -0.3211 0.3891
H19 H 0.7287 -0.2052 0.3363
C12 C 0.70189(10) 0.0901(4) 0.39131(8)
H20 H 0.6483 0.1150 0.3599
H21 H 0.7346 0.2253 0.3812
C13 C 0.70517(9) 0.1285(3) 0.46261(8)
H22 H 0.6889 0.3113 0.4681
H23 H 0.6694 0.0028 0.4717
C14 C 0.85976(9) 0.2239(3) 0.62575(7)
C15 C 0.87147(9) 0.2303(3) 0.69852(7)
C16 C 0.85324(11) 0.0380(4) 0.78661(9)
H24 H 0.8300 -0.0960 0.8039
C17 C 0.90154(11) 0.2181(4) 0.83078(8)
H25 H 0.9112 0.2064 0.8770
C18 C 0.93532(11) 0.4146(4) 0.80637(9)
H26 H 0.9679 0.5435 0.8352
C19 C 0.92055(10) 0.4198(4) 0.73843(8)
H27 H 0.9436 0.5503 0.7199
O3 O 0.97088(8) 0.2514(3) 0.50550(6)
H28 H 0.9509(12) 0.257(5) 0.5347(9)
H29 H 0.998(2) 0.385(5) 0.507(2)
H30? H 0.994(2) 0.107(5) 0.508(2)
loop_
_geom_bond_atom_site_label_1
_geom_bond_atom_site_label_2
_geom_bond_site_symmetry_1
_geom_bond_site_symmetry_2
O1 C1 1_555 1_555
O2 C14 1_555 1_555
N1 H1 1_555 1_555
N2 C1 1_555 1_555
N3 C15 1_555 1_555
C1 N1 1_555 1_555
C2 N1 1_555 1_555
H2 C2 1_555 1_555
C3 C2 1_555 1_555
H3 C3 1_555 1_555
H4 C3 1_555 1_555
C4 C3 1_555 1_555
H5 C4 1_555 1_555
H6 C4 1_555 1_555
C5 C4 1_555 1_555
H7 C5 1_555 1_555
H8 C5 1_555 1_555
C6 C5 1_555 1_555
H9 C6 1_555 1_555
H10 C6 1_555 1_555
C7 C2 1_555 1_555
H11 C7 1_555 1_555
H12 C7 1_555 1_555
C8 N2 1_555 1_555
H13 C8 1_555 1_555
C9 C8 1_555 1_555
H14 C9 1_555 1_555
H15 C9 1_555 1_555
C10 C9 1_555 1_555
H16 C10 1_555 1_555
H17 C10 1_555 1_555
C11 C10 1_555 1_555
H18 C11 1_555 1_555
H19 C11 1_555 1_555
C12 C11 1_555 1_555
H20 C12 1_555 1_555
H21 C12 1_555 1_555
C13 C8 1_555 1_555
H22 C13 1_555 1_555
H23 C13 1_555 1_555
C14 N2 1_555 1_555
C15 C14 1_555 1_555
C16 N3 1_555 1_555
H24 C16 1_555 1_555
C17 C16 1_555 1_555
H25 C17 1_555 1_555
C18 C17 1_555 1_555
H26 C18 1_555 1_555
C19 C15 1_555 1_555
H27 C19 1_555 1_555
O3 H28 1_555 1_555
H29 O3 1_555 1_555
C6 C7 1_555 1_555
C12 C13 1_555 1_555
C18 C19 1_555 1_555

#END
