
#######################################################################
#
#                 Cambridge Crystallographic Data Centre
#                                CCDC 
#
#######################################################################
#
# If this CIF has been generated from an entry in the Cambridge 
# Structural Database, then it will include bibliographic, chemical, 
# crystal, experimental, refinement or atomic coordinate data resulting 
# from the CCDC's data processing and validation procedures.
#
#######################################################################

data_AZURUJ
_chemical_formula_moiety         'C19 H18 F6 N2 O2,C1 H4 O1'
_chemical_name_systematic        
'(R*,S*)-(+-)-1-(2-([2,8-bis(trifluoromethyl)quinolin-4-yl](hydroxy)methyl)piperidin-1-yl)ethanone methanol solvate'
_symmetry_cell_setting           triclinic
_symmetry_space_group_name_H-M   'P -1'
_symmetry_Int_Tables_number      2
_space_group_name_Hall           '-P 1'
loop_
_symmetry_equiv_pos_site_id
_symmetry_equiv_pos_as_xyz
1 x,y,z
2 -x,-y,-z
_cell_length_a                   9.4719(2)
_cell_length_b                   10.1223(3)
_cell_length_c                   11.9227(3)
_cell_angle_alpha                114.5670(10)
_cell_angle_beta                 90.343(2)
_cell_angle_gamma                102.795(2)
_cell_volume                     1007.61
_exptl_crystal_colour            colorless
_exptl_crystal_description       block
_cell_formula_units_Z            2
loop_
_atom_site_label
_atom_site_type_symbol
_atom_site_fract_x
_atom_site_fract_y
_atom_site_fract_z
F1 F 0.26612(10) 0.38078(10) 1.09873(8)
F2 F 0.29759(9) 0.17772(11) 1.10061(8)
F3 F 0.12314(9) 0.27028(11) 1.18989(8)
F4 F -0.46418(10) 0.20984(12) 0.96873(9)
F5 F -0.24743(11) 0.34198(11) 1.04600(10)
F6 F -0.32894(11) 0.13779(12) 1.06582(8)
O1 O 0.29182(10) -0.01823(11) 0.64457(9)
H1 H 0.315(2) 0.0724(12) 0.6576(18)
O2 O -0.10074(12) -0.28747(13) 0.38799(10)
N1 N -0.03724(12) 0.17012(13) 0.97451(11)
N2 N 0.11869(12) -0.30509(13) 0.44422(11)
C1 C 0.09757(14) 0.15791(15) 0.96899(12)
C2 C 0.15919(14) 0.08145(15) 0.86058(13)
H2 H 0.2584 0.0780 0.8646
C3 C 0.07291(14) 0.01209(14) 0.74906(12)
C4 C -0.07565(14) 0.02027(15) 0.74941(13)
C5 C -0.17571(15) -0.04706(16) 0.63970(13)
H3 H -0.1441 -0.1013 0.5620
C6 C -0.31640(16) -0.03461(17) 0.64485(14)
H4 H -0.3819 -0.0814 0.5709
C7 C -0.36548(15) 0.04705(17) 0.75876(14)
H5 H -0.4633 0.0558 0.7610
C8 C -0.27259(15) 0.11371(16) 0.86618(13)
C9 C -0.12550(14) 0.10137(15) 0.86463(12)
C10 C 0.19590(14) 0.24533(16) 1.09029(13)
C11 C -0.32713(16) 0.20071(18) 0.98679(14)
C12 C 0.13776(14) -0.06447(15) 0.62862(12)
H6 H 0.1016 -0.0346 0.5658
C13 C 0.09029(15) -0.23709(15) 0.57593(12)
H7 H -0.0178 -0.2641 0.5764
C14 C 0.26389(16) -0.33204(17) 0.41659(14)
H8 H 0.3357 -0.2349 0.4399
H9 H 0.2618 -0.3924 0.3263
C15 C 0.31159(18) -0.41381(18) 0.48644(15)
H10 H 0.2465 -0.5157 0.4563
H11 H 0.4119 -0.4240 0.4702
C16 C 0.30687(17) -0.32879(17) 0.62526(14)
H12 H 0.3781 -0.2301 0.6570
H13 H 0.3336 -0.3858 0.6689
C17 C 0.15401(15) -0.30642(16) 0.65061(13)
H14 H 0.1562 -0.2415 0.7400
H15 H 0.0876 -0.4049 0.6329
C18 C 0.01477(15) -0.32362(15) 0.35744(13)
C19 C 0.03672(18) -0.39287(17) 0.22186(13)
H16 H 0.0302 -0.4999 0.1944
H17 H 0.1329 -0.3435 0.2098
H18 H -0.0387 -0.3802 0.1732
O3 O 0.63629(12) 0.72872(12) 0.32218(11)
H19 H 0.7165(15) 0.711(2) 0.335(2)
C20 C 0.56930(19) 0.61623(19) 0.20456(17)
H20 H 0.4786 0.6367 0.1839
H21 H 0.5477 0.5182 0.2069
H22 H 0.6353 0.6160 0.1415
loop_
_geom_bond_atom_site_label_1
_geom_bond_atom_site_label_2
_geom_bond_site_symmetry_1
_geom_bond_site_symmetry_2
F1 C10 1_555 1_555
F2 C10 1_555 1_555
F3 C10 1_555 1_555
F4 C11 1_555 1_555
F5 C11 1_555 1_555
F6 C11 1_555 1_555
O1 H1 1_555 1_555
O2 C18 1_555 1_555
N1 C1 1_555 1_555
N2 C13 1_555 1_555
C1 C2 1_555 1_555
C2 H2 1_555 1_555
C3 C2 1_555 1_555
C4 C3 1_555 1_555
C5 C4 1_555 1_555
H3 C5 1_555 1_555
C6 C5 1_555 1_555
H4 C6 1_555 1_555
C7 C6 1_555 1_555
H5 C7 1_555 1_555
C8 C7 1_555 1_555
C9 N1 1_555 1_555
C10 C1 1_555 1_555
C11 C8 1_555 1_555
C12 O1 1_555 1_555
H6 C12 1_555 1_555
C13 C12 1_555 1_555
H7 C13 1_555 1_555
C14 N2 1_555 1_555
H8 C14 1_555 1_555
H9 C14 1_555 1_555
C15 C14 1_555 1_555
H10 C15 1_555 1_555
H11 C15 1_555 1_555
C16 C15 1_555 1_555
H12 C16 1_555 1_555
H13 C16 1_555 1_555
C17 C13 1_555 1_555
H14 C17 1_555 1_555
H15 C17 1_555 1_555
C18 N2 1_555 1_555
C19 C18 1_555 1_555
H16 C19 1_555 1_555
H17 C19 1_555 1_555
H18 C19 1_555 1_555
O3 H19 1_555 1_555
C20 O3 1_555 1_555
H20 C20 1_555 1_555
H21 C20 1_555 1_555
H22 C20 1_555 1_555
C3 C12 1_555 1_555
C4 C9 1_555 1_555
C8 C9 1_555 1_555
C16 C17 1_555 1_555

#END
