
#######################################################################
#
#                 Cambridge Crystallographic Data Centre
#                                CCDC 
#
#######################################################################
#
# If this CIF has been generated from an entry in the Cambridge 
# Structural Database, then it will include bibliographic, chemical, 
# crystal, experimental, refinement or atomic coordinate data resulting 
# from the CCDC's data processing and validation procedures.
#
#######################################################################

data_AZUSAQ
_chemical_formula_moiety         'C13 H9 Br1 Cl1 N3 O2'
_chemical_name_systematic        
(E)-N'-(3-Bromo-5-chloro-2-hydroxybenzylidene)nicotinohydrazide
_symmetry_cell_setting           monoclinic
_symmetry_space_group_name_H-M   'P 21/c'
_symmetry_Int_Tables_number      14
_space_group_name_Hall           '-P 2ybc'
loop_
_symmetry_equiv_pos_site_id
_symmetry_equiv_pos_as_xyz
1 x,y,z
2 -x,1/2+y,1/2-z
3 -x,-y,-z
4 x,1/2-y,1/2+z
_cell_length_a                   18.2217(5)
_cell_length_b                   7.4666(2)
_cell_length_c                   23.6916(5)
_cell_angle_alpha                90
_cell_angle_beta                 122.6850(10)
_cell_angle_gamma                90
_cell_volume                     2712.93
_exptl_crystal_colour            'pale yellow'
_exptl_crystal_description       block
_cell_formula_units_Z            8
loop_
_atom_site_label
_atom_site_type_symbol
_atom_site_fract_x
_atom_site_fract_y
_atom_site_fract_z
Br1 Br 0.750800(19) 0.43505(5) 0.256817(14)
Cl1 Cl 0.97541(6) 0.57738(16) 0.17505(5)
O1 O 0.41709(16) 0.7827(4) -0.01578(11)
O2 O 0.62074(13) 0.5694(3) 0.11875(10)
N1 N 0.31049(16) 1.0700(4) -0.22503(12)
N2 N 0.50665(16) 0.7928(4) -0.05295(12)
N3 N 0.57128(15) 0.7165(4) 0.00520(11)
C1 C 0.36031(18) 0.9139(4) -0.12190(14)
C2 C 0.37331(18) 0.9923(4) -0.16888(14)
H1 H 0.4293 0.9904 -0.1607
C3 C 0.2310(2) 1.0706(5) -0.23508(16)
H2 H 0.1857 1.1219 -0.2744
C4 C 0.2119(2) 1.0005(5) -0.19115(17)
H3 H 0.1555 1.0062 -0.2003
C5 C 0.2773(2) 0.9218(5) -0.13355(16)
H4 H 0.2661 0.8742 -0.1026
C6 C 0.42963(19) 0.8249(4) -0.05901(14)
C7 C 0.64618(19) 0.6968(5) 0.01529(14)
H5 H 0.6568 0.7285 -0.0176
C8 C 0.71621(18) 0.6234(4) 0.07931(14)
C9 C 0.70035(18) 0.5672(4) 0.12829(14)
C10 C 0.77050(19) 0.5086(4) 0.18998(14)
C11 C 0.85431(19) 0.5085(5) 0.20395(15)
H6 H 0.9005 0.4695 0.2454
C12 C 0.86859(19) 0.5669(5) 0.15582(17)
C13 C 0.8007(2) 0.6208(5) 0.09373(17)
H7 H 0.8115 0.6557 0.0612
H15 H 0.517(2) 0.813(5) -0.0833(13)
H17 H 0.5850(19) 0.618(5) 0.0836(11)
Br2 Br 0.92847(3) 0.37571(8) 0.62069(2)
Cl2 Cl 1.13001(5) 0.78996(14) 0.56676(6)
O3 O 0.56100(13) 0.6644(3) 0.35290(10)
O4 O 0.78596(14) 0.5308(4) 0.49132(11)
N4 N 0.34447(16) 0.7592(5) 0.16222(15)
N5 N 0.65084(14) 0.7503(4) 0.31986(11)
N6 N 0.72089(14) 0.7123(4) 0.38238(11)
C14 C 0.49790(16) 0.7151(4) 0.23663(13)
C15 C 0.50623(19) 0.6727(4) 0.18378(14)
H8 H 0.5603 0.6442 0.1909
C16 C 0.4322(2) 0.6739(5) 0.12011(15)
H9 H 0.4351 0.6456 0.0831
C17 C 0.3545(2) 0.7173(6) 0.11241(17)
H10 H 0.3050 0.7176 0.0691
C18 C 0.41587(18) 0.7556(5) 0.22332(16)
H11 H 0.4106 0.7817 0.2593
C19 C 0.57123(17) 0.7085(4) 0.30792(13)
C20 C 0.79620(18) 0.7645(4) 0.39838(15)
H12 H 0.8030 0.8357 0.3693
C21 C 0.87182(18) 0.7109(4) 0.46324(15)
C22 C 0.86279(18) 0.5946(4) 0.50526(15)
C23 C 0.9379(2) 0.5408(5) 0.56524(15)
C24 C 1.0189(2) 0.6014(5) 0.58363(16)
H13 H 1.0682 0.5644 0.6238
C25 C 1.02624(18) 0.7172(5) 0.54212(17)
C26 C 0.95434(18) 0.7721(5) 0.48211(16)
H14 H 0.9608 0.8496 0.4543
H16 H 0.655(2) 0.804(4) 0.2895(12)
H18 H 0.7488(19) 0.569(5) 0.4542(10)
loop_
_geom_bond_atom_site_label_1
_geom_bond_atom_site_label_2
_geom_bond_site_symmetry_1
_geom_bond_site_symmetry_2
Br1 C10 1_555 1_555
Br2 C23 1_555 1_555
Cl1 C12 1_555 1_555
Cl2 C25 1_555 1_555
O1 C6 1_555 1_555
O2 C9 1_555 1_555
O3 C19 1_555 1_555
O4 C22 1_555 1_555
N1 C2 1_555 1_555
N2 N3 1_555 1_555
N3 C7 1_555 1_555
N4 C17 1_555 1_555
N5 N6 1_555 1_555
N6 C20 1_555 1_555
C1 C2 1_555 1_555
C2 H1 1_555 1_555
C3 N1 1_555 1_555
H2 C3 1_555 1_555
C4 C3 1_555 1_555
H3 C4 1_555 1_555
C5 C1 1_555 1_555
H4 C5 1_555 1_555
C6 N2 1_555 1_555
C7 H5 1_555 1_555
C8 C7 1_555 1_555
C9 C8 1_555 1_555
C10 C9 1_555 1_555
C11 C10 1_555 1_555
H6 C11 1_555 1_555
C12 C11 1_555 1_555
C13 C8 1_555 1_555
H7 C13 1_555 1_555
C14 C15 1_555 1_555
C15 H8 1_555 1_555
C16 C15 1_555 1_555
H9 C16 1_555 1_555
C17 C16 1_555 1_555
H10 C17 1_555 1_555
C18 N4 1_555 1_555
H11 C18 1_555 1_555
C19 N5 1_555 1_555
C20 H12 1_555 1_555
C21 C20 1_555 1_555
C22 C21 1_555 1_555
C23 C22 1_555 1_555
C24 C23 1_555 1_555
H13 C24 1_555 1_555
C25 C24 1_555 1_555
C26 C21 1_555 1_555
H14 C26 1_555 1_555
H15 N2 1_555 1_555
H16 N5 1_555 1_555
H17 O2 1_555 1_555
H18 O4 1_555 1_555
C1 C6 1_555 1_555
C4 C5 1_555 1_555
C12 C13 1_555 1_555
C14 C18 1_555 1_555
C14 C19 1_555 1_555
C25 C26 1_555 1_555

#END
