
#######################################################################
#
#                 Cambridge Crystallographic Data Centre
#                                CCDC 
#
#######################################################################
#
# If this CIF has been generated from an entry in the Cambridge 
# Structural Database, then it will include bibliographic, chemical, 
# crystal, experimental, refinement or atomic coordinate data resulting 
# from the CCDC's data processing and validation procedures.
#
#######################################################################

data_AZUTAR
_chemical_name_common            
3-(4-((2-Hydroxybenzylidene)amino)-3-phenyl-5-thioxo-4,5-dihydro-1H-1,2,4-triazol-1-yl)-1,3-diphenylpropan-1-one
_chemical_formula_moiety         'C30 H24 N4 O2 S1'
_chemical_name_systematic        
rac-3-(4-[(2-Hydroxybenzylidene)amino]-3-phenyl-5-sulfanylidene-4,5-dihydro-1H-1,2,4-triazol-1-yl)-1,3-diphenylpropan-1-one
_symmetry_cell_setting           triclinic
_symmetry_space_group_name_H-M   'P -1'
_symmetry_Int_Tables_number      2
_space_group_name_Hall           '-P 1'
loop_
_symmetry_equiv_pos_site_id
_symmetry_equiv_pos_as_xyz
1 x,y,z
2 -x,-y,-z
_cell_length_a                   6.770(2)
_cell_length_b                   13.170(5)
_cell_length_c                   14.851(5)
_cell_angle_alpha                78.114(12)
_cell_angle_beta                 81.715(15)
_cell_angle_gamma                87.318(16)
_cell_volume                     1282.02
_exptl_crystal_colour            colorless
_exptl_crystal_description       prism
_cell_formula_units_Z            2
loop_
_atom_site_label
_atom_site_type_symbol
_atom_site_fract_x
_atom_site_fract_y
_atom_site_fract_z
S1 S 1.23731(6) 0.74106(3) 0.66002(2)
O1 O 1.1833(2) 0.82091(11) 0.92569(8)
O2 O 0.83353(15) 0.41453(9) 0.60325(8)
H1 H 0.828(3) 0.470(2) 0.6402(16)
N1 N 0.75550(17) 0.71629(9) 0.84047(8)
N2 N 0.92480(17) 0.76425(9) 0.79086(7)
N3 N 0.92676(16) 0.61510(9) 0.75493(7)
N4 N 0.95198(17) 0.53608(9) 0.70367(7)
C1 C 1.0334(2) 0.70663(11) 0.73499(9)
C2 C 0.7565(2) 0.62593(11) 0.81636(9)
C3 C 0.9499(2) 0.87572(11) 0.78459(9)
H2 H 1.0950 0.8915 0.7666
C4 C 0.8830(2) 0.90266(11) 0.87934(9)
H3 H 0.8801 0.9790 0.8728
H4 H 0.7457 0.8776 0.9023
C5 C 1.0196(3) 0.85503(12) 0.95006(11)
C6 C 0.9467(3) 0.85086(12) 1.05085(10)
C7 C 0.7628(3) 0.89039(14) 1.08254(11)
H5 H 0.6782 0.9243 1.0394
C8 C 0.7012(3) 0.88071(16) 1.17744(12)
H6 H 0.5743 0.9072 1.1993
C9 C 0.8262(4) 0.83231(17) 1.23954(13)
H7 H 0.7835 0.8245 1.3043
C10 C 1.0123(4) 0.79515(16) 1.20885(13)
H8 H 1.0989 0.7638 1.2521
C11 C 1.0712(3) 0.80400(13) 1.11513(11)
H9 H 1.1986 0.7778 1.0938
C12 C 0.8368(2) 0.93823(11) 0.71014(9)
C13 C 0.6371(2) 0.92297(14) 0.70853(11)
H10 H 0.5671 0.8718 0.7553
C14 C 0.5375(3) 0.98140(14) 0.63950(12)
H11 H 0.4007 0.9690 0.6389
C15 C 0.6345(3) 1.05683(13) 0.57213(11)
H12 H 0.5645 1.0986 0.5264
C16 C 0.8329(3) 1.07093(14) 0.57177(12)
H13 H 0.9025 1.1215 0.5243
C17 C 0.9338(3) 1.01215(14) 0.64007(11)
H14 H 1.0721 1.0229 0.6386
C18 C 0.5920(2) 0.55264(11) 0.84967(9)
C19 C 0.6105(2) 0.44711(12) 0.84903(10)
H15 H 0.7353 0.4187 0.8268
C20 C 0.4476(2) 0.38335(13) 0.88066(11)
H16 H 0.4609 0.3115 0.8794
C21 C 0.2664(2) 0.42313(13) 0.91398(10)
H17 H 0.1550 0.3791 0.9356
C22 C 0.2481(2) 0.52800(13) 0.91564(10)
H18 H 0.1237 0.5556 0.9392
C23 C 0.4081(2) 0.59262(12) 0.88353(9)
H19 H 0.3933 0.6645 0.8844
C24 C 1.1334(2) 0.50562(11) 0.68280(9)
H20 H 1.2383 0.5311 0.7077
C25 C 1.1778(2) 0.43255(11) 0.62150(9)
C26 C 1.0299(2) 0.39283(11) 0.58138(10)
C27 C 1.0835(2) 0.32828(12) 0.51852(10)
H21 H 0.9836 0.3018 0.4912
C28 C 1.2809(2) 0.30257(12) 0.49579(10)
H22 H 1.3162 0.2587 0.4524
C29 C 1.4298(2) 0.33974(13) 0.53524(11)
H23 H 1.5658 0.3209 0.5198
C30 C 1.3763(2) 0.40458(12) 0.59726(10)
H24 H 1.4773 0.4308 0.6240
loop_
_geom_bond_atom_site_label_1
_geom_bond_atom_site_label_2
_geom_bond_site_symmetry_1
_geom_bond_site_symmetry_2
S1 C1 1_555 1_555
O1 C5 1_555 1_555
O2 H1 1_555 1_555
N1 N2 1_555 1_555
N2 C1 1_555 1_555
N3 N4 1_555 1_555
N4 C24 1_555 1_555
C1 N3 1_555 1_555
C2 N1 1_555 1_555
C3 N2 1_555 1_555
H2 C3 1_555 1_555
C4 C3 1_555 1_555
H3 C4 1_555 1_555
H4 C4 1_555 1_555
C5 C4 1_555 1_555
C6 C5 1_555 1_555
C7 C6 1_555 1_555
H5 C7 1_555 1_555
C8 C7 1_555 1_555
H6 C8 1_555 1_555
C9 C8 1_555 1_555
H7 C9 1_555 1_555
C10 C9 1_555 1_555
H8 C10 1_555 1_555
C11 C6 1_555 1_555
H9 C11 1_555 1_555
C12 C3 1_555 1_555
C13 C12 1_555 1_555
H10 C13 1_555 1_555
C14 C13 1_555 1_555
H11 C14 1_555 1_555
C15 C14 1_555 1_555
H12 C15 1_555 1_555
C16 C15 1_555 1_555
H13 C16 1_555 1_555
C17 C12 1_555 1_555
H14 C17 1_555 1_555
C18 C2 1_555 1_555
C19 C18 1_555 1_555
H15 C19 1_555 1_555
C20 C19 1_555 1_555
H16 C20 1_555 1_555
C21 C20 1_555 1_555
H17 C21 1_555 1_555
C22 C21 1_555 1_555
H18 C22 1_555 1_555
C23 C18 1_555 1_555
H19 C23 1_555 1_555
C24 H20 1_555 1_555
C25 C24 1_555 1_555
C26 O2 1_555 1_555
C27 C26 1_555 1_555
H21 C27 1_555 1_555
C28 C27 1_555 1_555
H22 C28 1_555 1_555
C29 C28 1_555 1_555
H23 C29 1_555 1_555
C30 C25 1_555 1_555
H24 C30 1_555 1_555
N3 C2 1_555 1_555
C10 C11 1_555 1_555
C16 C17 1_555 1_555
C22 C23 1_555 1_555
C25 C26 1_555 1_555
C29 C30 1_555 1_555

#END
