
#######################################################################
#
#                 Cambridge Crystallographic Data Centre
#                                CCDC 
#
#######################################################################
#
# If this CIF has been generated from an entry in the Cambridge 
# Structural Database, then it will include bibliographic, chemical, 
# crystal, experimental, refinement or atomic coordinate data resulting 
# from the CCDC's data processing and validation procedures.
#
#######################################################################

data_AZUXUP
_chemical_formula_moiety         'C19 H20 O5'
_chemical_name_systematic        
4a-Hydroxy-9-(4-hydroxyphenyl)-3,4,4a,5,6,7,9,9a-octahydro-1H-xanthene-1,8(2H)-dione
_symmetry_cell_setting           monoclinic
_symmetry_space_group_name_H-M   'P 21'
_symmetry_Int_Tables_number      4
_space_group_name_Hall           'P 2yb'
loop_
_symmetry_equiv_pos_site_id
_symmetry_equiv_pos_as_xyz
1 x,y,z
2 -x,1/2+y,-z
_cell_length_a                   9.014(4)
_cell_length_b                   10.242(4)
_cell_length_c                   9.289(4)
_cell_angle_alpha                90
_cell_angle_beta                 108.194(4)
_cell_angle_gamma                90
_cell_volume                     814.699
_exptl_crystal_colour            colorless
_exptl_crystal_description       block
_cell_formula_units_Z            2
loop_
_atom_site_label
_atom_site_type_symbol
_atom_site_fract_x
_atom_site_fract_y
_atom_site_fract_z
C1 C 0.1903(3) 0.1561(2) 0.8768(3)
H1 H 0.1954 0.0612 0.8912
C2 C 0.3440(3) 0.2024(3) 0.8614(3)
C3 C 0.4337(3) 0.2922(3) 0.9542(3)
C4 C 0.1606(3) 0.2192(3) 1.0149(3)
H2 H 0.1037 0.3003 0.9782
C5 C 0.2735(3) 0.3317(3) 1.2653(3)
H3 H 0.2174 0.4116 1.2264
H4 H 0.3707 0.3551 1.3417
C6 C 0.0566(3) 0.1394(3) 1.0823(3)
C7 C 0.1760(4) 0.2471(4) 1.3358(4)
H5 H 0.1504 0.2962 1.4142
H6 H 0.2362 0.1712 1.3826
C8 C 0.4046(3) 0.1347(3) 0.7535(3)
C9 C 0.3076(3) 0.2586(3) 1.1383(3)
C10 C 0.5792(4) 0.3490(4) 0.9360(4)
H7 H 0.6694 0.3118 1.0114
H8 H 0.5803 0.4426 0.9525
C11 C 0.0251(4) 0.2026(4) 1.2164(4)
H9 H -0.0287 0.1409 1.2619
H10 H -0.0428 0.2774 1.1820
C12 C 0.5553(4) 0.1824(4) 0.7353(5)
H11 H 0.6403 0.1290 0.7971
H12 H 0.5513 0.1715 0.6304
C13 C 0.5892(6) 0.3217(5) 0.7787(6)
H13 H 0.5151 0.3768 0.7058
H14 H 0.6930 0.3433 0.7760
O1 O 0.4005(2) 0.34289(19) 1.0760(2)
O2 O 0.3391(3) 0.0380(2) 0.6848(3)
O3 O 0.3938(2) 0.1433(2) 1.1914(2)
H15 H 0.4795 0.1624 1.2506
O4 O -0.3220(3) 0.2708(3) 0.3538(3)
H16 H -0.3326 0.3497 0.3398
O5 O 0.0004(4) 0.0370(3) 1.0282(3)
C14 C -0.1962(3) 0.2473(3) 0.4795(3)
C15 C 0.0184(3) 0.3158(3) 0.6905(3)
H17 H 0.0782 0.3830 0.7472
C16 C 0.0564(3) 0.1873(3) 0.7339(3)
C17 C -0.1588(3) 0.1177(3) 0.5195(3)
H18 H -0.2179 0.0507 0.4616
C18 C -0.0334(3) 0.0891(3) 0.6455(3)
H19 H -0.0086 0.0024 0.6717
C19 C -0.1073(3) 0.3459(3) 0.5641(3)
H20 H -0.1312 0.4325 0.5367
loop_
_geom_bond_atom_site_label_1
_geom_bond_atom_site_label_2
_geom_bond_site_symmetry_1
_geom_bond_site_symmetry_2
C1 H1 1_555 1_555
C2 C1 1_555 1_555
C3 C2 1_555 1_555
C4 C1 1_555 1_555
H2 C4 1_555 1_555
C5 H3 1_555 1_555
H4 C5 1_555 1_555
C6 C4 1_555 1_555
C7 C5 1_555 1_555
H5 C7 1_555 1_555
H6 C7 1_555 1_555
C8 C2 1_555 1_555
C9 C4 1_555 1_555
C10 C3 1_555 1_555
H7 C10 1_555 1_555
H8 C10 1_555 1_555
C11 C6 1_555 1_555
H9 C11 1_555 1_555
H10 C11 1_555 1_555
C12 C8 1_555 1_555
H11 C12 1_555 1_555
H12 C12 1_555 1_555
C13 C10 1_555 1_555
H13 C13 1_555 1_555
H14 C13 1_555 1_555
O1 C3 1_555 1_555
O2 C8 1_555 1_555
O3 C9 1_555 1_555
H15 O3 1_555 1_555
O4 H16 1_555 1_555
O5 C6 1_555 1_555
C14 O4 1_555 1_555
C15 H17 1_555 1_555
C16 C1 1_555 1_555
C17 C14 1_555 1_555
H18 C17 1_555 1_555
C18 C16 1_555 1_555
H19 C18 1_555 1_555
C19 C14 1_555 1_555
H20 C19 1_555 1_555
C5 C9 1_555 1_555
C7 C11 1_555 1_555
C9 O1 1_555 1_555
C12 C13 1_555 1_555
C15 C16 1_555 1_555
C15 C19 1_555 1_555
C17 C18 1_555 1_555

#END
