
#######################################################################
#
#                 Cambridge Crystallographic Data Centre
#                                CCDC 
#
#######################################################################
#
# If this CIF has been generated from an entry in the Cambridge 
# Structural Database, then it will include bibliographic, chemical, 
# crystal, experimental, refinement or atomic coordinate data resulting 
# from the CCDC's data processing and validation procedures.
#
#######################################################################

data_AZUZAX
_chemical_name_common            5-Oxo-N-phenylprolinamide
_chemical_formula_moiety         'C11 H12 N2 O2'
_chemical_name_systematic        (S)-5-Oxo-N-phenylpyrrolidine-2-carboxamide
_symmetry_cell_setting           monoclinic
_symmetry_space_group_name_H-M   'P 21'
_symmetry_Int_Tables_number      4
_space_group_name_Hall           'P 2yb'
loop_
_symmetry_equiv_pos_site_id
_symmetry_equiv_pos_as_xyz
1 x,y,z
2 -x,1/2+y,-z
_cell_length_a                   4.919(3)
_cell_length_b                   9.995(7)
_cell_length_c                   10.382(7)
_cell_angle_alpha                90
_cell_angle_beta                 99.05(3)
_cell_angle_gamma                90
_cell_volume                     504.081
_exptl_crystal_colour            yellow
_exptl_crystal_description       block
_cell_formula_units_Z            2
loop_
_atom_site_label
_atom_site_type_symbol
_atom_site_fract_x
_atom_site_fract_y
_atom_site_fract_z
C1 C 0.5338(3) 0.92196(15) 0.78902(13)
C2 C 0.4415(4) 1.02616(18) 0.85717(15)
H1 H 0.4934 1.1134 0.8416
C3 C 0.2721(4) 1.0014(2) 0.94858(18)
H2 H 0.2118 1.0721 0.9951
C4 C 0.1922(4) 0.8728(2) 0.97111(16)
H3 H 0.0767 0.8561 1.0321
C5 C 0.2838(4) 0.7705(2) 0.90327(17)
H4 H 0.2297 0.6835 0.9185
C6 C 0.4553(4) 0.79267(18) 0.81216(16)
H5 H 0.5171 0.7214 0.7670
C7 C 0.7855(2) 0.87730(14) 0.60470(12)
C8 C 0.9689(3) 0.94686(15) 0.51984(13)
H6 H 1.0871 1.0137 0.5700
C9 C 0.7915(3) 1.01089(16) 0.40036(14)
H7 H 0.6115 1.0355 0.4197
H8 H 0.8801 1.0898 0.3719
C10 C 0.7685(3) 0.90159(17) 0.29767(14)
H9 H 0.6000 0.8508 0.2960
H10 H 0.7722 0.9391 0.2118
C11 C 1.0170(3) 0.81512(14) 0.33982(14)
N1 N 0.7110(2) 0.95458(13) 0.69845(11)
N2 N 1.1299(2) 0.85149(13) 0.46021(11)
O1 O 0.7047(2) 0.76321(11) 0.58091(10)
O2 O 1.1033(3) 0.72678(12) 0.27523(12)
H11 H 0.784(3) 1.0363(11) 0.7055(16)
H12 H 1.273(3) 0.8084(17) 0.5056(15)
loop_
_geom_bond_atom_site_label_1
_geom_bond_atom_site_label_2
_geom_bond_site_symmetry_1
_geom_bond_site_symmetry_2
C1 C2 1_555 1_555
C2 H1 1_555 1_555
C3 C2 1_555 1_555
H2 C3 1_555 1_555
C4 C3 1_555 1_555
H3 C4 1_555 1_555
C5 C4 1_555 1_555
H4 C5 1_555 1_555
C6 C1 1_555 1_555
H5 C6 1_555 1_555
C7 C8 1_555 1_555
C8 H6 1_555 1_555
C9 C8 1_555 1_555
H7 C9 1_555 1_555
H8 C9 1_555 1_555
C10 C9 1_555 1_555
H9 C10 1_555 1_555
H10 C10 1_555 1_555
C11 C10 1_555 1_555
N1 C1 1_555 1_555
N2 C8 1_555 1_555
O1 C7 1_555 1_555
O2 C11 1_555 1_555
H11 N1 1_555 1_555
H12 N2 1_555 1_555
C5 C6 1_555 1_555
C7 N1 1_555 1_555
C11 N2 1_555 1_555

#END
