
#######################################################################
#
#                 Cambridge Crystallographic Data Centre
#                                CCDC 
#
#######################################################################
#
# If this CIF has been generated from an entry in the Cambridge 
# Structural Database, then it will include bibliographic, chemical, 
# crystal, experimental, refinement or atomic coordinate data resulting 
# from the CCDC's data processing and validation procedures.
#
#######################################################################

data_BABCUF
_chemical_formula_moiety         'C19 H14 O3'
_chemical_name_systematic        
7-Benzoyl-2-(2-furyl)-4-methylcyclohepta-2,4,6-trien-1-one
_symmetry_cell_setting           triclinic
_symmetry_space_group_name_H-M   'P -1'
_symmetry_Int_Tables_number      2
_space_group_name_Hall           '-P 1'
loop_
_symmetry_equiv_pos_site_id
_symmetry_equiv_pos_as_xyz
1 x,y,z
2 -x,-y,-z
_cell_length_a                   6.866(5)
_cell_length_b                   10.240(7)
_cell_length_c                   11.188(7)
_cell_angle_alpha                69.311(11)
_cell_angle_beta                 72.734(12)
_cell_angle_gamma                83.093(13)
_cell_volume                     702.612
_exptl_crystal_colour            yellow
_exptl_crystal_description       Block
_cell_formula_units_Z            2
loop_
_atom_site_label
_atom_site_type_symbol
_atom_site_fract_x
_atom_site_fract_y
_atom_site_fract_z
O1 O 0.1810(4) 0.2280(2) 0.7862(2)
O2 O 0.2493(4) 0.1056(3) 0.5296(2)
O3 O 0.1701(4) 0.0797(2) 1.1833(2)
C1 C 0.2439(5) 0.1068(3) 0.8311(3)
C2 C 0.2376(5) 0.0440(3) 0.9732(3)
C3 C 0.2713(5) -0.0932(3) 1.0398(3)
H1 H 0.2561 -0.1115 1.1314
C4 C 0.3243(5) -0.2152(3) 1.0022(3)
C5 C 0.3688(5) -0.2195(3) 0.8758(3)
H2 H 0.4016 -0.3089 0.8666
C6 C 0.3716(5) -0.1069(4) 0.7582(3)
H3 H 0.4118 -0.1312 0.6797
C7 C 0.3265(5) 0.0307(3) 0.7379(3)
C8 C 0.3522(5) 0.1237(3) 0.5941(3)
C9 C 0.5120(5) 0.2321(3) 0.5356(3)
C10 C 0.6817(5) 0.2170(4) 0.5839(3)
H4 H 0.6940 0.1373 0.6575
C11 C 0.8330(6) 0.3168(4) 0.5258(3)
H5 H 0.9486 0.3049 0.5590
C12 C 0.8143(6) 0.4340(4) 0.4189(3)
H6 H 0.9158 0.5036 0.3798
C13 C 0.6474(6) 0.4493(4) 0.3692(3)
H7 H 0.6352 0.5298 0.2961
C14 C 0.4987(6) 0.3492(3) 0.4245(3)
H8 H 0.3875 0.3593 0.3876
C15 C 0.3267(6) -0.3490(4) 1.1150(3)
H9 H 0.1876 -0.3707 1.1723
H10 H 0.4132 -0.3388 1.1667
H11 H 0.3810 -0.4249 1.0796
C16 C 0.1803(5) 0.1399(3) 1.0495(3)
C17 C 0.1351(5) 0.2784(4) 1.0231(3)
H12 H 0.1314 0.3448 0.9392
C18 C 0.0945(5) 0.3053(4) 1.1447(3)
H13 H 0.0591 0.3928 1.1577
C19 C 0.1161(6) 0.1828(4) 1.2375(3)
H14 H 0.0962 0.1699 1.3287
loop_
_geom_bond_atom_site_label_1
_geom_bond_atom_site_label_2
_geom_bond_site_symmetry_1
_geom_bond_site_symmetry_2
O1 C1 1_555 1_555
O2 C8 1_555 1_555
O3 C16 1_555 1_555
C1 C2 1_555 1_555
C2 C3 1_555 1_555
C3 H1 1_555 1_555
C4 C3 1_555 1_555
C5 C4 1_555 1_555
H2 C5 1_555 1_555
C6 C5 1_555 1_555
H3 C6 1_555 1_555
C7 C1 1_555 1_555
C8 C7 1_555 1_555
C9 C8 1_555 1_555
C10 C9 1_555 1_555
H4 C10 1_555 1_555
C11 C10 1_555 1_555
H5 C11 1_555 1_555
C12 C11 1_555 1_555
H6 C12 1_555 1_555
C13 C12 1_555 1_555
H7 C13 1_555 1_555
C14 C9 1_555 1_555
H8 C14 1_555 1_555
C15 C4 1_555 1_555
H9 C15 1_555 1_555
H10 C15 1_555 1_555
H11 C15 1_555 1_555
C16 C2 1_555 1_555
C17 C16 1_555 1_555
H12 C17 1_555 1_555
C18 C17 1_555 1_555
H13 C18 1_555 1_555
C19 O3 1_555 1_555
H14 C19 1_555 1_555
C6 C7 1_555 1_555
C13 C14 1_555 1_555
C18 C19 1_555 1_555

#END
