
#######################################################################
#
#                 Cambridge Crystallographic Data Centre
#                                CCDC 
#
#######################################################################
#
# If this CIF has been generated from an entry in the Cambridge 
# Structural Database, then it will include bibliographic, chemical, 
# crystal, experimental, refinement or atomic coordinate data resulting 
# from the CCDC's data processing and validation procedures.
#
#######################################################################

data_BABDEQ
_chemical_formula_moiety         'C22 H14 O3'
_chemical_name_systematic        
10-Benzoyl-11-hydroxy-5H-dibenzo[a,d][7]annulen-5-one
_symmetry_cell_setting           orthorhombic
_symmetry_space_group_name_H-M   'P b c a'
_symmetry_Int_Tables_number      61
_space_group_name_Hall           '-P 2ac 2ab'
loop_
_symmetry_equiv_pos_site_id
_symmetry_equiv_pos_as_xyz
1 x,y,z
2 1/2+x,1/2-y,-z
3 -x,1/2+y,1/2-z
4 1/2-x,-y,1/2+z
5 -x,-y,-z
6 1/2-x,1/2+y,z
7 x,1/2-y,1/2+z
8 1/2+x,y,1/2-z
_cell_length_a                   12.5409(14)
_cell_length_b                   7.8473(8)
_cell_length_c                   31.588(3)
_cell_angle_alpha                90
_cell_angle_beta                 90
_cell_angle_gamma                90
_cell_volume                     3108.64
_exptl_crystal_colour            yellow
_exptl_crystal_description       block
_cell_formula_units_Z            8
loop_
_atom_site_label
_atom_site_type_symbol
_atom_site_fract_x
_atom_site_fract_y
_atom_site_fract_z
O1 O 1.05203(8) 0.86122(13) 0.40929(4)
O2 O 0.68295(8) 0.55148(15) 0.40646(4)
H1 H 0.6601 0.5100 0.3837
O3 O 0.68566(8) 0.43220(16) 0.33506(4)
C1 C 1.00507(11) 0.72694(17) 0.41414(4)
C2 C 1.03509(10) 0.57266(16) 0.38961(4)
C3 C 1.14435(10) 0.54386(17) 0.38529(4)
H2 H 1.1934 0.6266 0.3954
C4 C 1.18227(11) 0.39718(18) 0.36650(4)
H3 H 1.2567 0.3803 0.3629
C5 C 1.11033(11) 0.27491(18) 0.35297(4)
H4 H 1.1356 0.1712 0.3412
C6 C 1.00206(11) 0.30298(17) 0.35658(4)
H5 H 0.9538 0.2179 0.3471
C7 C 0.96161(10) 0.45387(16) 0.37392(4)
C8 C 0.84532(10) 0.48464(17) 0.37247(4)
C9 C 0.78829(11) 0.54677(18) 0.40662(5)
C10 C 0.83284(11) 0.61233(18) 0.44658(4)
C11 C 0.76899(13) 0.5967(2) 0.48268(5)
H6 H 0.7020 0.5407 0.4807
C12 C 0.80165(14) 0.6612(2) 0.52108(5)
H7 H 0.7582 0.6463 0.5454
C13 C 0.89728(14) 0.7473(2) 0.52440(5)
H8 H 0.9198 0.7914 0.5509
C14 C 0.96025(13) 0.7691(2) 0.48872(5)
H9 H 1.0253 0.8306 0.4908
C15 C 0.92931(11) 0.70177(18) 0.44988(4)
C16 C 0.78554(11) 0.44269(18) 0.33423(5)
C17 C 0.83733(11) 0.41934(17) 0.29224(5)
C18 C 0.92776(11) 0.50905(18) 0.27978(5)
H10 H 0.9618 0.5837 0.2992
C19 C 0.96854(12) 0.49052(19) 0.23932(5)
H11 H 1.0294 0.5542 0.2309
C20 C 0.92086(13) 0.37965(19) 0.21112(5)
H12 H 0.9495 0.3658 0.1835
C21 C 0.83157(14) 0.2891(2) 0.22315(5)
H13 H 0.7995 0.2114 0.2039
C22 C 0.78857(12) 0.31084(19) 0.26317(5)
H14 H 0.7254 0.2515 0.2708
loop_
_geom_bond_atom_site_label_1
_geom_bond_atom_site_label_2
_geom_bond_site_symmetry_1
_geom_bond_site_symmetry_2
O1 C1 1_555 1_555
O2 H1 1_555 1_555
O3 C16 1_555 1_555
C1 C2 1_555 1_555
C2 C3 1_555 1_555
C3 H2 1_555 1_555
C4 C3 1_555 1_555
H3 C4 1_555 1_555
C5 C4 1_555 1_555
H4 C5 1_555 1_555
C6 C5 1_555 1_555
H5 C6 1_555 1_555
C7 C2 1_555 1_555
C8 C7 1_555 1_555
C9 O2 1_555 1_555
C10 C9 1_555 1_555
C11 C10 1_555 1_555
H6 C11 1_555 1_555
C12 C11 1_555 1_555
H7 C12 1_555 1_555
C13 C12 1_555 1_555
H8 C13 1_555 1_555
C14 C13 1_555 1_555
H9 C14 1_555 1_555
C15 C1 1_555 1_555
C16 C8 1_555 1_555
C17 C16 1_555 1_555
C18 C17 1_555 1_555
H10 C18 1_555 1_555
C19 C18 1_555 1_555
H11 C19 1_555 1_555
C20 C19 1_555 1_555
H12 C20 1_555 1_555
C21 C20 1_555 1_555
H13 C21 1_555 1_555
C22 C17 1_555 1_555
H14 C22 1_555 1_555
C6 C7 1_555 1_555
C8 C9 1_555 1_555
C10 C15 1_555 1_555
C14 C15 1_555 1_555
C21 C22 1_555 1_555

#END
