
#######################################################################
#
#                 Cambridge Crystallographic Data Centre
#                                CCDC 
#
#######################################################################
#
# If this CIF has been generated from an entry in the Cambridge 
# Structural Database, then it will include bibliographic, chemical, 
# crystal, experimental, refinement or atomic coordinate data resulting 
# from the CCDC's data processing and validation procedures.
#
#######################################################################

data_BABDIU
_chemical_formula_moiety         'C17 H13 N1 O3'
_chemical_name_systematic        
4-Benzoyl-3-hydroxy-1-methylquinolin-2(1H)-one
_symmetry_cell_setting           monoclinic
_symmetry_space_group_name_H-M   'P 21/c'
_symmetry_Int_Tables_number      14
_space_group_name_Hall           '-P 2ybc'
loop_
_symmetry_equiv_pos_site_id
_symmetry_equiv_pos_as_xyz
1 x,y,z
2 -x,1/2+y,1/2-z
3 -x,-y,-z
4 x,1/2-y,1/2+z
_cell_length_a                   4.629(2)
_cell_length_b                   16.421(8)
_cell_length_c                   17.474(8)
_cell_angle_alpha                90
_cell_angle_beta                 91.158(10)
_cell_angle_gamma                90
_cell_volume                     1327.98
_exptl_crystal_colour            colorless
_exptl_crystal_description       block
_cell_formula_units_Z            4
loop_
_atom_site_label
_atom_site_type_symbol
_atom_site_fract_x
_atom_site_fract_y
_atom_site_fract_z
O1 O 0.7540(4) 0.54736(9) 0.95304(10)
O2 O 0.8429(4) 0.38801(9) 0.94883(10)
H1 H 0.9240 0.4257 0.9737
O3 O 0.6385(5) 0.25620(10) 0.78202(11)
N1 N 0.4047(4) 0.54211(10) 0.85958(12)
C1 C 0.6068(5) 0.50796(13) 0.90654(14)
C2 C 0.6453(5) 0.41970(13) 0.90037(14)
C3 C 0.5001(6) 0.37434(13) 0.84911(14)
C4 C 0.2981(5) 0.41345(14) 0.79733(14)
C5 C 0.1411(6) 0.37130(17) 0.74057(16)
H2 H 0.1696 0.3143 0.7351
C6 C -0.0521(6) 0.41003(19) 0.69294(17)
H3 H -0.1545 0.3802 0.6546
C7 C -0.0981(6) 0.49279(18) 0.70071(17)
H4 H -0.2338 0.5195 0.6678
C8 C 0.0503(6) 0.53663(16) 0.75548(17)
H5 H 0.0175 0.5935 0.7603
C9 C 0.2499(5) 0.49780(14) 0.80425(14)
C10 C 0.3590(6) 0.62997(14) 0.86643(17)
H6 H 0.4769 0.6512 0.9092
H7 H 0.1545 0.6408 0.8758
H8 H 0.4151 0.6568 0.8189
C11 C 0.5612(6) 0.28442(14) 0.84246(16)
C12 C 0.5232(6) 0.23111(13) 0.90973(15)
C13 C 0.6582(7) 0.15565(14) 0.9117(2)
H9 H 0.7795 0.1399 0.8711
C14 C 0.6172(7) 0.10369(15) 0.9721(2)
H10 H 0.7145 0.0528 0.9740
C15 C 0.4358(7) 0.12530(15) 1.02979(18)
H11 H 0.4028 0.0886 1.0707
C16 C 0.3021(7) 0.19977(15) 1.02838(18)
H12 H 0.1782 0.2148 1.0687
C17 C 0.3465(6) 0.25303(13) 0.96878(16)
H13 H 0.2553 0.3049 0.9684
loop_
_geom_bond_atom_site_label_1
_geom_bond_atom_site_label_2
_geom_bond_site_symmetry_1
_geom_bond_site_symmetry_2
O1 C1 1_555 1_555
O2 H1 1_555 1_555
O3 C11 1_555 1_555
N1 C1 1_555 1_555
C1 C2 1_555 1_555
C2 O2 1_555 1_555
C3 C2 1_555 1_555
C4 C3 1_555 1_555
C5 C4 1_555 1_555
H2 C5 1_555 1_555
C6 C5 1_555 1_555
H3 C6 1_555 1_555
C7 C6 1_555 1_555
H4 C7 1_555 1_555
C8 C7 1_555 1_555
H5 C8 1_555 1_555
C9 N1 1_555 1_555
C10 N1 1_555 1_555
H6 C10 1_555 1_555
H7 C10 1_555 1_555
H8 C10 1_555 1_555
C11 C3 1_555 1_555
C12 C11 1_555 1_555
C13 C12 1_555 1_555
H9 C13 1_555 1_555
C14 C13 1_555 1_555
H10 C14 1_555 1_555
C15 C14 1_555 1_555
H11 C15 1_555 1_555
C16 C15 1_555 1_555
H12 C16 1_555 1_555
C17 C12 1_555 1_555
H13 C17 1_555 1_555
C4 C9 1_555 1_555
C8 C9 1_555 1_555
C16 C17 1_555 1_555

#END
