
#######################################################################
#
#                 Cambridge Crystallographic Data Centre
#                                CCDC 
#
#######################################################################
#
# If this CIF has been generated from an entry in the Cambridge 
# Structural Database, then it will include bibliographic, chemical, 
# crystal, experimental, refinement or atomic coordinate data resulting 
# from the CCDC's data processing and validation procedures.
#
#######################################################################

data_BABNAW
_chemical_formula_moiety         'C23 H26 B10 F3 N1 O1'
_chemical_name_systematic        
1,2-(((2-Oxidophenyl)((4-(trifluoromethyl)phenyl)methyl)amino)(phenyl)methyl)-1,2-dicarba-closo-dodecaborane(10)
_symmetry_cell_setting           monoclinic
_symmetry_space_group_name_H-M   'P 21/c'
_symmetry_Int_Tables_number      14
_space_group_name_Hall           '-P 2ybc'
loop_
_symmetry_equiv_pos_site_id
_symmetry_equiv_pos_as_xyz
1 x,y,z
2 -x,1/2+y,1/2-z
3 -x,-y,-z
4 x,1/2-y,1/2+z
_cell_length_a                   11.0856(8)
_cell_length_b                   10.9931(7)
_cell_length_c                   21.7010(16)
_cell_angle_alpha                90
_cell_angle_beta                 93.530(2)
_cell_angle_gamma                90
_cell_volume                     2639.58
_exptl_crystal_colour            colorless
_exptl_crystal_description       block
_cell_formula_units_Z            4
loop_
_atom_site_label
_atom_site_type_symbol
_atom_site_fract_x
_atom_site_fract_y
_atom_site_fract_z
N1 N 0.05763(14) 0.34038(15) 0.35646(8)
O1 O 0.04547(12) 0.37399(12) 0.23196(7)
C1 C 0.14808(17) 0.30529(18) 0.22858(9)
C2 C 0.21704(16) 0.24528(17) 0.29283(9)
C3 C -0.05291(16) 0.31955(18) 0.25815(9)
C4 C -0.15407(18) 0.2935(2) 0.22057(11)
H1 H -0.1547 0.3074 0.1783
C5 C -0.2543(2) 0.2466(2) 0.24643(13)
H2 H -0.3233 0.2283 0.2216
C6 C -0.2521(2) 0.2268(2) 0.30906(12)
H3 H -0.3199 0.1949 0.3264
C7 C -0.15030(19) 0.2540(2) 0.34645(11)
H4 H -0.1504 0.2405 0.3888
C8 C -0.04754(17) 0.30114(17) 0.32149(9)
C9 C 0.0353(2) 0.3862(2) 0.41841(10)
H5 H 0.0281 0.3179 0.4463
H6 H -0.0406 0.4303 0.4166
C10 C 0.13496(19) 0.4686(2) 0.44328(9)
C11 C 0.1911(2) 0.4497(2) 0.50108(10)
H7 H 0.1670 0.3848 0.5249
C12 C 0.2821(2) 0.5253(3) 0.52409(10)
H8 H 0.3186 0.5114 0.5632
C13 C 0.3192(2) 0.6213(2) 0.48926(11)
C14 C 0.2637(2) 0.6417(2) 0.43140(12)
H9 H 0.2882 0.7065 0.4076
C15 C 0.1721(2) 0.5662(2) 0.40897(11)
H10 H 0.1346 0.5810 0.3702
C16 C 0.4171(2) 0.7016(3) 0.51419(13)
C17 C 0.16815(17) 0.26519(18) 0.35723(9)
H11 H 0.2300 0.3152 0.3792
C18 C 0.16288(18) 0.15007(19) 0.39597(9)
C19 C 0.0763(2) 0.0599(2) 0.38574(10)
H12 H 0.0203 0.0659 0.3522
C20 C 0.0727(2) -0.0388(2) 0.42503(12)
H13 H 0.0136 -0.0982 0.4181
C21 C 0.1560(3) -0.0496(3) 0.47428(13)
H14 H 0.1540 -0.1165 0.5004
C22 C 0.2417(3) 0.0381(3) 0.48468(14)
H15 H 0.2979 0.0308 0.5181
C23 C 0.2457(2) 0.1378(3) 0.44599(12)
H16 H 0.3045 0.1972 0.4536
B1 B 0.1460(2) 0.1493(2) 0.23857(11)
H17 H 0.0649 0.0956 0.2469
B2 B 0.1689(2) 0.2169(2) 0.16583(12)
H18 H 0.1025 0.2058 0.1264
B3 B 0.2490(2) 0.3564(2) 0.17938(13)
H19 H 0.2343 0.4356 0.1488
B4 B 0.2776(2) 0.3736(2) 0.26048(12)
H20 H 0.2807 0.4634 0.2829
B5 B 0.2897(2) 0.1136(2) 0.27442(12)
H21 H 0.3023 0.0354 0.3058
B6 B 0.2624(2) 0.0962(2) 0.19327(12)
H22 H 0.2579 0.0059 0.1714
B7 B 0.3265(2) 0.2235(3) 0.15680(14)
H23 H 0.3638 0.2163 0.1111
B8 B 0.3932(2) 0.3207(2) 0.21544(14)
H24 H 0.4734 0.3764 0.2080
B9 B 0.3708(2) 0.2517(2) 0.28758(14)
H25 H 0.4361 0.2624 0.3275
B10 B 0.4010(2) 0.1592(3) 0.22356(14)
H26 H 0.4868 0.1097 0.2213
F1 F 0.4644(3) 0.7724(3) 0.47279(11)
F2 F 0.5082(2) 0.6435(2) 0.54043(19)
F3 F 0.38431(18) 0.77918(19) 0.55494(9)
loop_
_geom_bond_atom_site_label_1
_geom_bond_atom_site_label_2
_geom_bond_site_symmetry_1
_geom_bond_site_symmetry_2
N1 C8 1_555 1_555
O1 C1 1_555 1_555
C1 C2 1_555 1_555
C2 C17 1_555 1_555
C3 O1 1_555 1_555
C4 C3 1_555 1_555
H1 C4 1_555 1_555
C5 C4 1_555 1_555
H2 C5 1_555 1_555
C6 C5 1_555 1_555
H3 C6 1_555 1_555
C7 C6 1_555 1_555
H4 C7 1_555 1_555
C8 C3 1_555 1_555
C9 N1 1_555 1_555
H5 C9 1_555 1_555
H6 C9 1_555 1_555
C10 C9 1_555 1_555
C11 C10 1_555 1_555
H7 C11 1_555 1_555
C12 C11 1_555 1_555
H8 C12 1_555 1_555
C13 C12 1_555 1_555
C14 C13 1_555 1_555
H9 C14 1_555 1_555
C15 C10 1_555 1_555
H10 C15 1_555 1_555
C16 C13 1_555 1_555
C17 N1 1_555 1_555
H11 C17 1_555 1_555
C18 C17 1_555 1_555
C19 C18 1_555 1_555
H12 C19 1_555 1_555
C20 C19 1_555 1_555
H13 C20 1_555 1_555
C21 C20 1_555 1_555
H14 C21 1_555 1_555
C22 C21 1_555 1_555
H15 C22 1_555 1_555
C23 C18 1_555 1_555
H16 C23 1_555 1_555
B1 C1 1_555 1_555
H17 B1 1_555 1_555
B2 C1 1_555 1_555
H18 B2 1_555 1_555
B3 C1 1_555 1_555
H19 B3 1_555 1_555
B4 C1 1_555 1_555
H20 B4 1_555 1_555
B5 C2 1_555 1_555
H21 B5 1_555 1_555
B6 B1 1_555 1_555
H22 B6 1_555 1_555
B7 B2 1_555 1_555
H23 B7 1_555 1_555
B8 B3 1_555 1_555
H24 B8 1_555 1_555
B9 C2 1_555 1_555
H25 B9 1_555 1_555
B10 B5 1_555 1_555
H26 B10 1_555 1_555
F1 C16 1_555 1_555
F2 C16 1_555 1_555
F3 C16 1_555 1_555
C2 B1 1_555 1_555
C2 B4 1_555 1_555
C7 C8 1_555 1_555
C14 C15 1_555 1_555
C22 C23 1_555 1_555
B1 B2 1_555 1_555
B1 B5 1_555 1_555
B2 B3 1_555 1_555
B2 B6 1_555 1_555
B3 B4 1_555 1_555
B3 B7 1_555 1_555
B4 B8 1_555 1_555
B4 B9 1_555 1_555
B5 B6 1_555 1_555
B5 B9 1_555 1_555
B6 B7 1_555 1_555
B6 B10 1_555 1_555
B7 B8 1_555 1_555
B7 B10 1_555 1_555
B8 B9 1_555 1_555
B8 B10 1_555 1_555
B9 B10 1_555 1_555

#END
