
#######################################################################
#
#                 Cambridge Crystallographic Data Centre
#                                CCDC 
#
#######################################################################
#
# If this CIF has been generated from an entry in the Cambridge 
# Structural Database, then it will include bibliographic, chemical, 
# crystal, experimental, refinement or atomic coordinate data resulting 
# from the CCDC's data processing and validation procedures.
#
#######################################################################

data_BABNEA
_chemical_formula_moiety         'C17 H25 B10 N1 O1'
_chemical_name_systematic        
1,2-(((2,6-Dimethyl-6-oxidocyclohexa-2,4-dien-1-ylidene)amino)(phenyl)methyl)-1,2-dicarba-closo-dodecaborane(10)
_symmetry_cell_setting           monoclinic
_symmetry_space_group_name_H-M   'P 21/n'
_symmetry_Int_Tables_number      14
_space_group_name_Hall           '-P 2yn'
loop_
_symmetry_equiv_pos_site_id
_symmetry_equiv_pos_as_xyz
1 x,y,z
2 1/2-x,1/2+y,1/2-z
3 -x,-y,-z
4 1/2+x,1/2-y,1/2+z
_cell_length_a                   10.8677(11)
_cell_length_b                   11.0938(12)
_cell_length_c                   17.5480(17)
_cell_angle_alpha                90
_cell_angle_beta                 102.555(6)
_cell_angle_gamma                90
_cell_volume                     2065.07
_exptl_crystal_colour            colorless
_exptl_crystal_description       block
_cell_formula_units_Z            4
loop_
_atom_site_label
_atom_site_type_symbol
_atom_site_fract_x
_atom_site_fract_y
_atom_site_fract_z
O1 O 0.20023(13) 0.71647(11) 1.02430(7)
N1 N 0.11748(14) 0.93147(13) 0.92058(9)
C1 C 0.22212(18) 0.66647(16) 0.95721(10)
C2 C 0.12928(17) 0.71880(16) 0.87664(10)
C3 C 0.23947(19) 0.83974(17) 1.04739(10)
C4 C 0.3753(2) 0.8405(2) 1.08763(11)
H1 H 0.4130 0.7704 1.1107
C5 C 0.4420(2) 0.9401(2) 1.09054(13)
H2 H 0.5241 0.9418 1.1201
C6 C 0.3898(2) 1.0466(2) 1.04866(12)
H3 H 0.4355 1.1181 1.0574
C7 C 0.27819(19) 1.04731(18) 0.99750(11)
C8 C 0.20434(17) 0.93474(16) 0.98263(10)
C9 C 0.1605(2) 0.8697(2) 1.10736(12)
H4 H 0.1794 0.9502 1.1265
H5 H 0.0726 0.8640 1.0831
H6 H 0.1801 0.8138 1.1500
C10 C 0.2298(2) 1.1558(2) 0.94963(15)
H7 H 0.1489 1.1378 0.9169
H8 H 0.2217 1.2218 0.9836
H9 H 0.2877 1.1773 0.9176
C11 C 0.04511(17) 0.82193(16) 0.89606(10)
H10 H 0.0092 0.7951 0.9398
C12 C -0.06354(17) 0.85117(16) 0.82847(11)
C13 C -0.18341(19) 0.8099(2) 0.82873(13)
H11 H -0.1963 0.7591 0.8684
C14 C -0.2846(2) 0.8442(2) 0.76977(15)
H12 H -0.3654 0.8175 0.7706
C15 C -0.2657(2) 0.9171(2) 0.71056(14)
H13 H -0.3335 0.9396 0.6710
C16 C -0.1464(2) 0.9572(2) 0.70953(13)
H14 H -0.1336 1.0060 0.6689
C17 C -0.0457(2) 0.92537(19) 0.76835(12)
H15 H 0.0345 0.9538 0.7677
B1 B 0.2918(2) 0.7439(2) 0.89288(12)
H16 H 0.3377 0.8324 0.9045
B2 B 0.3613(2) 0.6119(2) 0.94040(14)
H17 H 0.4522 0.6143 0.9828
B3 B 0.2382(3) 0.5136(2) 0.95302(14)
H18 H 0.2499 0.4535 1.0039
B4 B 0.0914(2) 0.58208(19) 0.91244(13)
H19 H 0.0076 0.5664 0.9368
B5 B 0.2002(2) 0.7050(2) 0.79952(12)
H20 H 0.1862 0.7687 0.7504
B6 B 0.3480(2) 0.6329(2) 0.83841(14)
H21 H 0.4312 0.6486 0.8136
B7 B 0.3165(2) 0.4897(2) 0.87517(14)
H22 H 0.3793 0.4121 0.8744
B8 B 0.1499(3) 0.4717(2) 0.85882(14)
H23 H 0.1049 0.3828 0.8477
B9 B 0.0792(2) 0.6047(2) 0.81166(13)
H24 H -0.0124 0.6033 0.7699
B10 B 0.2183(2) 0.5469(2) 0.78808(13)
H25 H 0.2176 0.5067 0.7307
loop_
_geom_bond_atom_site_label_1
_geom_bond_atom_site_label_2
_geom_bond_site_symmetry_1
_geom_bond_site_symmetry_2
O1 C1 1_555 1_555
N1 C8 1_555 1_555
C1 C2 1_555 1_555
C2 C11 1_555 1_555
C3 O1 1_555 1_555
C4 C3 1_555 1_555
H1 C4 1_555 1_555
C5 C4 1_555 1_555
H2 C5 1_555 1_555
C6 C5 1_555 1_555
H3 C6 1_555 1_555
C7 C6 1_555 1_555
C8 C3 1_555 1_555
C9 C3 1_555 1_555
H4 C9 1_555 1_555
H5 C9 1_555 1_555
H6 C9 1_555 1_555
C10 C7 1_555 1_555
H7 C10 1_555 1_555
H8 C10 1_555 1_555
H9 C10 1_555 1_555
C11 N1 1_555 1_555
H10 C11 1_555 1_555
C12 C11 1_555 1_555
C13 C12 1_555 1_555
H11 C13 1_555 1_555
C14 C13 1_555 1_555
H12 C14 1_555 1_555
C15 C14 1_555 1_555
H13 C15 1_555 1_555
C16 C15 1_555 1_555
H14 C16 1_555 1_555
C17 C12 1_555 1_555
H15 C17 1_555 1_555
B1 C1 1_555 1_555
H16 B1 1_555 1_555
B2 C1 1_555 1_555
H17 B2 1_555 1_555
B3 C1 1_555 1_555
H18 B3 1_555 1_555
B4 C1 1_555 1_555
H19 B4 1_555 1_555
B5 C2 1_555 1_555
H20 B5 1_555 1_555
B6 B1 1_555 1_555
H21 B6 1_555 1_555
B7 B2 1_555 1_555
H22 B7 1_555 1_555
B8 B3 1_555 1_555
H23 B8 1_555 1_555
B9 C2 1_555 1_555
H24 B9 1_555 1_555
B10 B5 1_555 1_555
H25 B10 1_555 1_555
C2 B1 1_555 1_555
C2 B4 1_555 1_555
C7 C8 1_555 1_555
C16 C17 1_555 1_555
B1 B2 1_555 1_555
B1 B5 1_555 1_555
B2 B3 1_555 1_555
B2 B6 1_555 1_555
B3 B4 1_555 1_555
B3 B7 1_555 1_555
B4 B8 1_555 1_555
B4 B9 1_555 1_555
B5 B6 1_555 1_555
B5 B9 1_555 1_555
B6 B7 1_555 1_555
B6 B10 1_555 1_555
B7 B8 1_555 1_555
B7 B10 1_555 1_555
B8 B9 1_555 1_555
B8 B10 1_555 1_555
B9 B10 1_555 1_555

#END
