
#######################################################################
#
#                 Cambridge Crystallographic Data Centre
#                                CCDC 
#
#######################################################################
#
# If this CIF has been generated from an entry in the Cambridge 
# Structural Database, then it will include bibliographic, chemical, 
# crystal, experimental, refinement or atomic coordinate data resulting 
# from the CCDC's data processing and validation procedures.
#
#######################################################################

data_BACBOZ
_chemical_formula_moiety         'C30 H24 N6 O6,C1 H4 O1'
_chemical_name_systematic        
"N'-(3,5-bis((Benzoylhydrazono)methyl)-2,4,6-trihydroxybenzylidene)benzohydrazide methanol solvate"
_symmetry_cell_setting           triclinic
_symmetry_space_group_name_H-M   'P -1'
_symmetry_Int_Tables_number      2
_space_group_name_Hall           '-P 1'
loop_
_symmetry_equiv_pos_site_id
_symmetry_equiv_pos_as_xyz
1 x,y,z
2 -x,-y,-z
_cell_length_a                   13.8028(5)
_cell_length_b                   15.1095(5)
_cell_length_c                   15.4786(5)
_cell_angle_alpha                70.541(3)
_cell_angle_beta                 66.375(3)
_cell_angle_gamma                88.032(3)
_cell_volume                     2770.19
_exptl_crystal_colour            'intense orange'
_exptl_crystal_description       block
_cell_formula_units_Z            4
loop_
_atom_site_label
_atom_site_type_symbol
_atom_site_fract_x
_atom_site_fract_y
_atom_site_fract_z
C1 C 0.06533(9) 0.42331(8) 0.40720(9)
C2 C 0.06030(9) 0.40665(8) 0.50400(9)
C3 C -0.02821(9) 0.35272(8) 0.59151(9)
C4 C -0.11052(9) 0.31288(8) 0.57928(9)
C5 C -0.10623(9) 0.32606(8) 0.48338(9)
C6 C -0.01932(10) 0.38412(8) 0.39827(9)
O1 O 0.14261(7) 0.44494(6) 0.50938(7)
O2 O -0.19332(7) 0.26043(7) 0.66299(7)
O3 O -0.01929(7) 0.39928(7) 0.30765(7)
C7 C 0.15835(10) 0.47855(9) 0.32093(9)
N1 N 0.15959(8) 0.50551(8) 0.23243(8)
N2 N 0.25421(9) 0.55431(8) 0.15356(8)
C8 C 0.24963(10) 0.61637(10) 0.06960(10)
O4 O 0.16456(8) 0.63754(8) 0.06476(7)
C9 C 0.35374(10) 0.65871(10) -0.01776(10)
C10 C 0.35316(12) 0.73922(11) -0.09437(11)
C11 C 0.44723(14) 0.78095(12) -0.17798(12)
C12 C 0.54146(12) 0.74297(12) -0.18552(12)
C13 C 0.54266(11) 0.66297(12) -0.11003(11)
C14 C 0.44854(11) 0.61999(11) -0.02578(10)
C15 C -0.03371(10) 0.33735(9) 0.69117(9)
N3 N 0.04879(9) 0.36616(8) 0.69751(8)
N4 N 0.04463(9) 0.35902(8) 0.78995(8)
C16 C 0.13968(10) 0.36013(10) 0.79610(10)
O5 O 0.22231(8) 0.35539(9) 0.72750(8)
C17 C 0.13939(11) 0.36727(10) 0.89059(10)
C18 C 0.23159(12) 0.34880(12) 0.90635(12)
C19 C 0.23779(13) 0.35389(13) 0.99160(13)
C20 C 0.15251(14) 0.37861(12) 1.06158(12)
C21 C 0.05949(14) 0.39376(13) 1.04872(13)
C22 C 0.05250(13) 0.38842(12) 0.96310(12)
C23 C -0.18649(10) 0.28121(9) 0.46895(9)
N5 N -0.26388(8) 0.22450(7) 0.54578(8)
N6 N -0.33809(8) 0.18525(8) 0.52682(8)
C24 C -0.42328(10) 0.12885(9) 0.60611(10)
O6 O -0.43004(8) 0.10539(7) 0.69283(7)
C25 C -0.50971(10) 0.09808(9) 0.58401(10)
C26 C -0.59712(11) 0.03946(10) 0.66617(11)
C27 C -0.68167(11) 0.00865(11) 0.65223(13)
C28 C -0.67934(11) 0.03603(11) 0.55696(13)
C29 C -0.59301(11) 0.09456(10) 0.47527(12)
C30 C -0.50807(10) 0.12577(9) 0.48811(11)
H1 H 0.1289(15) 0.4278(13) 0.5715(11)
H2 H -0.2362(14) 0.2373(13) 0.6452(14)
H3 H 0.0348(13) 0.4388(12) 0.2651(13)
H4 H 0.2178 0.4958 0.3312
H5 H 0.3124(11) 0.5464(11) 0.1628(11)
H6 H 0.2868 0.7644 -0.0892
H7 H 0.4460 0.8364 -0.2300
H8 H 0.6065 0.7733 -0.2430
H9 H 0.6082 0.6352 -0.1164
H10 H 0.4496 0.5622 0.0250
H11 H -0.0984 0.3065 0.7492
H12 H -0.0168(11) 0.3579(12) 0.8383(11)
H13 H 0.2909 0.3312 0.8576
H14 H 0.3014 0.3385 1.0036
H15 H 0.1594 0.3864 1.1173
H16 H 0.0001 0.4135 1.0961
H17 H -0.0116 0.4016 0.9532
H18 H -0.1811 0.2928 0.4024
H19 H -0.3289(11) 0.1988(11) 0.4639(10)
H20 H -0.5981 0.0202 0.7313
H21 H -0.7386 -0.0322 0.7084
H22 H -0.7373 0.0137 0.5476
H23 H -0.5921 0.1129 0.4106
H24 H -0.4497 0.1667 0.4315
C31 C 0.05434(9) 0.15554(8) 0.39695(9)
C32 C 0.12072(9) 0.18795(8) 0.43187(9)
C33 C 0.09010(9) 0.17061(8) 0.53510(9)
C34 C -0.00789(10) 0.11611(8) 0.60386(9)
C35 C -0.07764(9) 0.08469(8) 0.57196(9)
C36 C -0.04607(9) 0.10597(8) 0.46817(9)
O7 O 0.21455(7) 0.23725(7) 0.36254(7)
O8 O -0.03456(7) 0.09738(7) 0.70241(7)
O9 O -0.11497(7) 0.07736(7) 0.43935(7)
C37 C 0.09024(10) 0.16939(9) 0.29113(9)
N7 N 0.02400(8) 0.14609(8) 0.26104(8)
N8 N 0.06194(9) 0.14810(8) 0.16366(8)
C38 C -0.01047(10) 0.14527(9) 0.12587(9)
O10 O -0.10559(8) 0.15064(8) 0.17197(7)
C39 C 0.03136(11) 0.13374(9) 0.02521(10)
C40 C -0.04246(13) 0.12994(11) -0.01424(11)
C41 C -0.01113(15) 0.11300(12) -0.10360(12)
C42 C 0.09303(15) 0.10069(11) -0.15443(11)
C43 C 0.16772(14) 0.10756(12) -0.11798(12)
C44 C 0.13717(12) 0.12354(11) -0.02758(11)
C45 C 0.15537(10) 0.20953(9) 0.57044(9)
N9 N 0.24500(8) 0.25806(7) 0.50668(8)
N10 N 0.30724(8) 0.29320(8) 0.54068(8)
C46 C 0.40684(10) 0.33507(9) 0.47235(10)
O11 O 0.43657(8) 0.34928(7) 0.38232(7)
C47 C 0.47857(10) 0.35920(9) 0.51398(10)
C48 C 0.56999(11) 0.42183(10) 0.44665(11)
C49 C 0.64057(11) 0.44658(10) 0.48018(13)
C50 C 0.62090(12) 0.40850(11) 0.58071(13)
C51 C 0.53143(12) 0.34464(11) 0.64807(12)
C52 C 0.45983(11) 0.31998(10) 0.61515(11)
C53 C -0.18381(9) 0.03792(8) 0.64071(9)
N11 N -0.21338(8) 0.00988(8) 0.73646(8)
N12 N -0.32133(8) -0.02228(8) 0.79326(8)
C54 C -0.35230(10) -0.08710(9) 0.88647(9)
O12 O -0.28784(7) -0.13101(7) 0.91559(7)
C55 C -0.46903(10) -0.10451(9) 0.95318(9)
C56 C -0.50190(11) -0.17903(10) 1.04469(10)
C57 C -0.60794(12) -0.19741(11) 1.11259(11)
C58 C -0.68197(11) -0.14168(11) 1.08963(11)
C59 C -0.65028(11) -0.06771(11) 0.99873(11)
C60 C -0.54394(11) -0.04859(10) 0.93038(10)
H25 H 0.2439(15) 0.2554(13) 0.3929(14)
H26 H -0.0960(12) 0.0655(12) 0.7345(13)
H27 H -0.0846(14) 0.0952(13) 0.3755(11)
H28 H 0.1624 0.1931 0.2466
H29 H 0.1291(11) 0.1435(12) 0.1329(11)
H30 H -0.1150 0.1395 0.0206
H31 H -0.0619 0.1088 -0.1299
H32 H 0.1133 0.0866 -0.2142
H33 H 0.2392 0.1025 -0.1530
H34 H 0.1898 0.1262 -0.0031
H35 H 0.1310 0.1990 0.6398
H36 H 0.2809(11) 0.2954(11) 0.6025(11)
H37 H 0.5832 0.4476 0.3780
H38 H 0.7017 0.4919 0.4336
H39 H 0.6693 0.4270 0.6037
H40 H 0.5177 0.3174 0.7178
H41 H 0.3983 0.2753 0.6618
H42 H -0.2318 0.0273 0.6127
H43 H -0.3662(11) 0.0102(11) 0.7720(11)
H44 H -0.4498 -0.2186 1.0612
H45 H -0.6297 -0.2492 1.1737
H46 H -0.7543 -0.1549 1.1358
H47 H -0.7026 -0.0284 0.9814
H48 H -0.5240 0.0032 0.8703
O13 O 0.41413(9) 0.49374(9) 0.22771(9)
C61 C 0.52328(13) 0.52942(13) 0.18117(13)
H49 H 0.4083(19) 0.4418(13) 0.2752(15)
H50 H 0.5675 0.4898 0.1417
H51 H 0.5493 0.5303 0.2335
H52 H 0.5294 0.5974 0.1360
O14 O -0.25181(9) 0.23783(9) 0.30354(8)
C62 C -0.24866(17) 0.33157(15) 0.23919(14)
H53 H -0.2037(16) 0.2134(16) 0.2667(16)
H54 H -0.2162 0.3315 0.1712
H55 H -0.3230 0.3468 0.2539
H56 H -0.2064 0.3759 0.2492
loop_
_geom_bond_atom_site_label_1
_geom_bond_atom_site_label_2
_geom_bond_site_symmetry_1
_geom_bond_site_symmetry_2
C1 C2 1_555 1_555
C2 C3 1_555 1_555
C3 C4 1_555 1_555
C4 C5 1_555 1_555
C5 C6 1_555 1_555
C6 C1 1_555 1_555
O1 C2 1_555 1_555
O2 C4 1_555 1_555
O3 C6 1_555 1_555
C7 C1 1_555 1_555
N1 C7 1_555 1_555
N2 N1 1_555 1_555
C8 N2 1_555 1_555
O4 C8 1_555 1_555
C9 C8 1_555 1_555
C10 C9 1_555 1_555
C11 C10 1_555 1_555
C12 C11 1_555 1_555
C13 C12 1_555 1_555
C14 C9 1_555 1_555
C15 C3 1_555 1_555
N3 C15 1_555 1_555
N4 N3 1_555 1_555
C16 N4 1_555 1_555
O5 C16 1_555 1_555
C17 C16 1_555 1_555
C18 C17 1_555 1_555
C19 C18 1_555 1_555
C20 C19 1_555 1_555
C21 C20 1_555 1_555
C22 C17 1_555 1_555
C23 C5 1_555 1_555
N5 C23 1_555 1_555
N6 N5 1_555 1_555
C24 N6 1_555 1_555
O6 C24 1_555 1_555
C25 C24 1_555 1_555
C26 C25 1_555 1_555
C27 C26 1_555 1_555
C28 C27 1_555 1_555
C29 C28 1_555 1_555
C30 C25 1_555 1_555
H1 O1 1_555 1_555
H2 O2 1_555 1_555
H3 O3 1_555 1_555
H4 C7 1_555 1_555
H5 N2 1_555 1_555
H6 C10 1_555 1_555
H7 C11 1_555 1_555
H8 C12 1_555 1_555
H9 C13 1_555 1_555
H10 C14 1_555 1_555
H11 C15 1_555 1_555
H12 N4 1_555 1_555
H13 C18 1_555 1_555
H14 C19 1_555 1_555
H15 C20 1_555 1_555
H16 C21 1_555 1_555
H17 C22 1_555 1_555
H18 C23 1_555 1_555
H19 N6 1_555 1_555
H20 C26 1_555 1_555
H21 C27 1_555 1_555
H22 C28 1_555 1_555
H23 C29 1_555 1_555
H24 C30 1_555 1_555
C31 C32 1_555 1_555
C32 C33 1_555 1_555
C33 C34 1_555 1_555
C34 C35 1_555 1_555
C35 C36 1_555 1_555
C36 C31 1_555 1_555
O7 C32 1_555 1_555
O8 C34 1_555 1_555
O9 C36 1_555 1_555
C37 C31 1_555 1_555
N7 C37 1_555 1_555
N8 N7 1_555 1_555
C38 N8 1_555 1_555
O10 C38 1_555 1_555
C39 C38 1_555 1_555
C40 C39 1_555 1_555
C41 C40 1_555 1_555
C42 C41 1_555 1_555
C43 C42 1_555 1_555
C44 C39 1_555 1_555
C45 C33 1_555 1_555
N9 C45 1_555 1_555
N10 N9 1_555 1_555
C46 N10 1_555 1_555
O11 C46 1_555 1_555
C47 C46 1_555 1_555
C48 C47 1_555 1_555
C49 C48 1_555 1_555
C50 C49 1_555 1_555
C51 C50 1_555 1_555
C52 C47 1_555 1_555
C53 C35 1_555 1_555
N11 C53 1_555 1_555
N12 N11 1_555 1_555
C54 N12 1_555 1_555
O12 C54 1_555 1_555
C55 C54 1_555 1_555
C56 C55 1_555 1_555
C57 C56 1_555 1_555
C58 C57 1_555 1_555
C59 C58 1_555 1_555
C60 C55 1_555 1_555
H25 O7 1_555 1_555
H26 O8 1_555 1_555
H27 O9 1_555 1_555
H28 C37 1_555 1_555
H29 N8 1_555 1_555
H30 C40 1_555 1_555
H31 C41 1_555 1_555
H32 C42 1_555 1_555
H33 C43 1_555 1_555
H34 C44 1_555 1_555
H35 C45 1_555 1_555
H36 N10 1_555 1_555
H37 C48 1_555 1_555
H38 C49 1_555 1_555
H39 C50 1_555 1_555
H40 C51 1_555 1_555
H41 C52 1_555 1_555
H42 C53 1_555 1_555
H43 N12 1_555 1_555
H44 C56 1_555 1_555
H45 C57 1_555 1_555
H46 C58 1_555 1_555
H47 C59 1_555 1_555
H48 C60 1_555 1_555
O13 C61 1_555 1_555
C61 H50 1_555 1_555
H49 O13 1_555 1_555
H51 C61 1_555 1_555
H52 C61 1_555 1_555
O14 C62 1_555 1_555
C62 H54 1_555 1_555
H53 O14 1_555 1_555
H55 C62 1_555 1_555
H56 C62 1_555 1_555
C13 C14 1_555 1_555
C21 C22 1_555 1_555
C29 C30 1_555 1_555
C43 C44 1_555 1_555
C51 C52 1_555 1_555
C59 C60 1_555 1_555

#END
