
#######################################################################
#
#                 Cambridge Crystallographic Data Centre
#                                CCDC 
#
#######################################################################
#
# If this CIF has been generated from an entry in the Cambridge 
# Structural Database, then it will include bibliographic, chemical, 
# crystal, experimental, refinement or atomic coordinate data resulting 
# from the CCDC's data processing and validation procedures.
#
#######################################################################

data_BACCUF
_chemical_formula_moiety         'C14 H16 I2 O7 S2'
_chemical_name_systematic        
'4,6-diphenyl-4\l^3^,6\l^3^-diioda-3,5,7-trioxa-2,8-dithianonane 2,2,8,8-tetraoxide'
_symmetry_cell_setting           triclinic
_symmetry_space_group_name_H-M   'P -1'
_symmetry_Int_Tables_number      2
_space_group_name_Hall           '-P 1'
loop_
_symmetry_equiv_pos_site_id
_symmetry_equiv_pos_as_xyz
1 x,y,z
2 -x,-y,-z
_cell_length_a                   5.8908(2)
_cell_length_b                   11.5575(5)
_cell_length_c                   14.5665(6)
_cell_angle_alpha                102.550(1)
_cell_angle_beta                 98.206(1)
_cell_angle_gamma                101.364(1)
_cell_volume                     931.046
_exptl_crystal_colour            'pale yellow'
_exptl_crystal_description       'thin blade'
_cell_formula_units_Z            2
loop_
_atom_site_label
_atom_site_type_symbol
_atom_site_fract_x
_atom_site_fract_y
_atom_site_fract_z
I1 I 0.48714(10) 0.58379(5) 0.79306(4)
I2 I 0.65435(10) 0.37139(5) 0.90521(4)
S1 S 0.6866(4) 0.8191(2) 0.69531(15)
S2 S 0.9971(4) 0.23134(19) 1.01432(15)
O1 O 0.4237(10) 0.4739(6) 0.8819(4)
O2 O 0.5194(13) 0.6979(6) 0.6812(5)
O3 O 0.9197(14) 0.8178(7) 0.7397(5)
O4 O 0.6653(12) 0.8540(6) 0.6058(4)
O5 O 0.8932(12) 0.2329(6) 0.9144(4)
O6 O 1.2139(12) 0.1910(7) 1.0156(5)
O7 O 1.0154(14) 0.3493(6) 1.0799(4)
C1 C 0.0032(17) 0.5368(9) 0.6750(7)
H1 H -0.0014 0.6097 0.7191
C2 C -0.1857(19) 0.4785(9) 0.5984(7)
H2 H -0.3234 0.5094 0.5910
C3 C -0.1681(19) 0.3754(9) 0.5339(7)
H3 H -0.2934 0.3376 0.4804
C4 C 0.0259(19) 0.3251(9) 0.5443(6)
H4 H 0.0311 0.2527 0.4997
C5 C 0.2124(18) 0.3818(8) 0.6205(6)
H5 H 0.3482 0.3494 0.6281
C6 C 0.1990(15) 0.4857(8) 0.6852(6)
C7 C 0.582(2) 0.9204(9) 0.7765(7)
H6 H 0.6827 1.0026 0.7896
H7 H 0.5831 0.8947 0.8364
H8 H 0.4197 0.9207 0.7492
C8 C 0.2752(15) 0.1758(8) 0.7657(7)
H9 H 0.1915 0.1883 0.8168
C9 C 0.1683(17) 0.0915(8) 0.6779(7)
H10 H 0.0097 0.0462 0.6678
C10 C 0.3012(17) 0.0756(8) 0.6054(7)
H11 H 0.2301 0.0188 0.5457
C11 C 0.5307(18) 0.1396(9) 0.6181(6)
H12 H 0.6158 0.1258 0.5677
C12 C 0.6401(18) 0.2248(8) 0.7046(6)
H13 H 0.7985 0.2703 0.7146
C13 C 0.5034(16) 0.2396(7) 0.7760(6)
C14 C 0.7929(16) 0.1224(9) 1.0447(7)
H14 H 0.8507 0.1166 1.1097
H15 H 0.7713 0.0430 0.9993
H16 H 0.6417 0.1460 1.0422
loop_
_geom_bond_atom_site_label_1
_geom_bond_atom_site_label_2
_geom_bond_site_symmetry_1
_geom_bond_site_symmetry_2
I1 O1 1_555 1_555
I2 O1 1_555 1_555
S1 O2 1_555 1_555
S2 O5 1_555 1_555
O2 I1 1_555 1_555
O3 S1 1_555 1_555
O4 S1 1_555 1_555
O5 I2 1_555 1_555
O6 S2 1_555 1_555
O7 S2 1_555 1_555
C1 H1 1_555 1_555
C2 C1 1_555 1_555
H2 C2 1_555 1_555
C3 C2 1_555 1_555
H3 C3 1_555 1_555
C4 C3 1_555 1_555
H4 C4 1_555 1_555
C5 C4 1_555 1_555
H5 C5 1_555 1_555
C6 I1 1_555 1_555
C7 S1 1_555 1_555
H6 C7 1_555 1_555
H7 C7 1_555 1_555
H8 C7 1_555 1_555
C8 H9 1_555 1_555
C9 C8 1_555 1_555
H10 C9 1_555 1_555
C10 C9 1_555 1_555
H11 C10 1_555 1_555
C11 C10 1_555 1_555
H12 C11 1_555 1_555
C12 C11 1_555 1_555
H13 C12 1_555 1_555
C13 I2 1_555 1_555
C14 S2 1_555 1_555
H14 C14 1_555 1_555
H15 C14 1_555 1_555
H16 C14 1_555 1_555
C1 C6 1_555 1_555
C5 C6 1_555 1_555
C8 C13 1_555 1_555
C12 C13 1_555 1_555

#END
