
#######################################################################
#
#                 Cambridge Crystallographic Data Centre
#                                CCDC 
#
#######################################################################
#
# If this CIF has been generated from an entry in the Cambridge 
# Structural Database, then it will include bibliographic, chemical, 
# crystal, experimental, refinement or atomic coordinate data resulting 
# from the CCDC's data processing and validation procedures.
#
#######################################################################

data_BACCOA
_chemical_formula_moiety         'C25 H22 Br1 N3 O1'
_chemical_name_systematic        
2-(4-bromophenyl)-3-(methyl(phenyl)amino)-1-(1-phenyl-1H-imidazol-2-yl)propan-1-one
_symmetry_cell_setting           orthorhombic
_symmetry_space_group_name_H-M   'P 21 21 21'
_symmetry_Int_Tables_number      19
_space_group_name_Hall           'P 2ac 2ab'
loop_
_symmetry_equiv_pos_site_id
_symmetry_equiv_pos_as_xyz
1 x,y,z
2 1/2-x,-y,1/2+z
3 -x,1/2+y,1/2-z
4 1/2+x,1/2-y,-z
_cell_length_a                   6.9630(14)
_cell_length_b                   13.034(3)
_cell_length_c                   23.748(5)
_cell_angle_alpha                90
_cell_angle_beta                 90
_cell_angle_gamma                90
_cell_volume                     2155.27
_exptl_crystal_colour            colorless
_exptl_crystal_description       Block
_cell_formula_units_Z            4
loop_
_atom_site_label
_atom_site_type_symbol
_atom_site_fract_x
_atom_site_fract_y
_atom_site_fract_z
O1 O -0.1221(6) 0.0829(3) 0.09026(15)
Br1 Br 0.58159(10) 0.38947(5) 0.18539(3)
N1 N 0.1223(7) -0.1366(3) 0.03638(17)
N2 N -0.1165(6) -0.0540(3) -0.00486(17)
N3 N -0.1081(7) -0.1421(3) 0.17619(18)
C1 C -0.0100(8) 0.0116(4) 0.0893(2)
C2 C 0.1245(8) -0.0094(4) 0.13955(19)
H1 H 0.2180 -0.0641 0.1285
C3 C 0.0002(8) -0.0498(4) 0.1884(2)
H2 H 0.0848 -0.0635 0.2211
H3 H -0.0910 0.0048 0.1996
C4 C -0.3082(8) -0.1315(6) 0.1595(3)
H4 H -0.3619 -0.1993 0.1513
H5 H -0.3164 -0.0883 0.1258
H6 H -0.3810 -0.0995 0.1901
C5 C 0.0003(7) -0.0588(4) 0.0412(2)
C6 C 0.0857(10) -0.1824(4) -0.0129(2)
H7 H 0.1516 -0.2408 -0.0270
C7 C -0.0591(9) -0.1333(4) -0.0396(2)
H8 H -0.1112 -0.1500 -0.0754
C8 C -0.2650(8) 0.0188(4) -0.0185(2)
C9 C -0.2123(9) 0.1157(5) -0.0371(2)
H9 H -0.0808 0.1344 -0.0399
C10 C -0.3544(10) 0.1839(5) -0.0514(2)
H10 H -0.3202 0.2498 -0.0652
C11 C -0.5454(9) 0.1585(5) -0.0460(2)
H11 H -0.6421 0.2071 -0.0553
C12 C -0.5955(9) 0.0623(5) -0.0271(2)
H12 H -0.7271 0.0441 -0.0237
C13 C -0.4544(9) -0.0076(4) -0.0132(2)
H13 H -0.4887 -0.0738 0.0001
C14 C 0.2350(8) 0.0872(4) 0.1534(2)
C15 C 0.4178(8) 0.1025(5) 0.1313(2)
H14 H 0.4731 0.0502 0.1086
C16 C 0.5209(8) 0.1904(5) 0.1409(2)
H15 H 0.6457 0.1984 0.1253
C17 C 0.4408(9) 0.2673(4) 0.1737(2)
C18 C 0.2598(8) 0.2548(5) 0.1965(2)
H16 H 0.2048 0.3072 0.2192
C19 C 0.1591(8) 0.1648(4) 0.1860(2)
H17 H 0.0345 0.1566 0.2016
C20 C -0.0162(9) -0.2373(5) 0.1748(2)
C21 C 0.1715(8) -0.2519(4) 0.1923(2)
H18 H 0.2450 -0.1943 0.2039
C22 C 0.2533(9) -0.3469(5) 0.1932(3)
H19 H 0.3807 -0.3544 0.2069
C23 C 0.1564(12) -0.4310(6) 0.1750(3)
H20 H 0.2154 -0.4967 0.1763
C24 C -0.0261(13) -0.4206(6) 0.1548(3)
H21 H -0.0938 -0.4787 0.1411
C25 C -0.1132(9) -0.3234(5) 0.1545(2)
H22 H -0.2400 -0.3161 0.1402
H23? H 0.2106 -0.1546 0.0610
loop_
_geom_bond_atom_site_label_1
_geom_bond_atom_site_label_2
_geom_bond_site_symmetry_1
_geom_bond_site_symmetry_2
O1 C1 1_555 1_555
Br1 C17 1_555 1_555
N1 C5 1_555 1_555
N2 C5 1_555 1_555
N3 C3 1_555 1_555
C1 C2 1_555 1_555
C2 H1 1_555 1_555
C3 C2 1_555 1_555
H2 C3 1_555 1_555
H3 C3 1_555 1_555
C4 N3 1_555 1_555
H4 C4 1_555 1_555
H5 C4 1_555 1_555
H6 C4 1_555 1_555
C5 C1 1_555 1_555
C6 N1 1_555 1_555
H7 C6 1_555 1_555
C7 N2 1_555 1_555
H8 C7 1_555 1_555
C8 N2 1_555 1_555
C9 C8 1_555 1_555
H9 C9 1_555 1_555
C10 C9 1_555 1_555
H10 C10 1_555 1_555
C11 C10 1_555 1_555
H11 C11 1_555 1_555
C12 C11 1_555 1_555
H12 C12 1_555 1_555
C13 C8 1_555 1_555
H13 C13 1_555 1_555
C14 C2 1_555 1_555
C15 C14 1_555 1_555
H14 C15 1_555 1_555
C16 C15 1_555 1_555
H15 C16 1_555 1_555
C17 C16 1_555 1_555
C18 C17 1_555 1_555
H16 C18 1_555 1_555
C19 C14 1_555 1_555
H17 C19 1_555 1_555
C20 N3 1_555 1_555
C21 C20 1_555 1_555
H18 C21 1_555 1_555
C22 C21 1_555 1_555
H19 C22 1_555 1_555
C23 C22 1_555 1_555
H20 C23 1_555 1_555
C24 C23 1_555 1_555
H21 C24 1_555 1_555
C25 C20 1_555 1_555
H22 C25 1_555 1_555
C6 C7 1_555 1_555
C12 C13 1_555 1_555
C18 C19 1_555 1_555
C24 C25 1_555 1_555

#END
