
#######################################################################
#
#                 Cambridge Crystallographic Data Centre
#                                CCDC 
#
#######################################################################
#
# If this CIF has been generated from an entry in the Cambridge 
# Structural Database, then it will include bibliographic, chemical, 
# crystal, experimental, refinement or atomic coordinate data resulting 
# from the CCDC's data processing and validation procedures.
#
#######################################################################

data_BACDAM
_chemical_formula_moiety         'C16 H14 Cl2 I2 O5'
_chemical_name_systematic        
1,9-Dichloro-2,8-dioxo-4,6-diphenyl-4\l^3^,6\l^3^-diioda-3,5,7-trioxanonane
_symmetry_cell_setting           monoclinic
_symmetry_space_group_name_H-M   'P 21/c'
_symmetry_Int_Tables_number      14
_space_group_name_Hall           '-P 2ybc'
loop_
_symmetry_equiv_pos_site_id
_symmetry_equiv_pos_as_xyz
1 x,y,z
2 -x,1/2+y,1/2-z
3 -x,-y,-z
4 x,1/2-y,1/2+z
_cell_length_a                   9.7488(2)
_cell_length_b                   22.0264(3)
_cell_length_c                   18.2010(2)
_cell_angle_alpha                90
_cell_angle_beta                 90.516(1)
_cell_angle_gamma                90
_cell_volume                     3908.16
_exptl_crystal_colour            yellow
_exptl_crystal_description       needle
_cell_formula_units_Z            8
loop_
_atom_site_label
_atom_site_type_symbol
_atom_site_fract_x
_atom_site_fract_y
_atom_site_fract_z
I1 I 0.18333(5) 0.47645(2) 0.45403(2)
I2 I 0.04909(5) 0.619319(19) 0.39806(2)
Cl1 Cl 0.5759(2) 0.31489(9) 0.59770(12)
Cl2 Cl 0.0026(3) 0.87878(10) 0.38735(17)
O1 O 0.3260(7) 0.3939(3) 0.5760(3)
O2 O 0.3720(6) 0.4177(3) 0.4587(3)
O3 O 0.0180(5) 0.5310(2) 0.4285(3)
O4 O 0.0750(6) 0.7096(2) 0.3394(3)
O5 O 0.0307(8) 0.7533(3) 0.4472(3)
C1 C 0.5219(9) 0.3497(4) 0.5137(4)
H1 H 0.5983 0.3745 0.4946
H2 H 0.5020 0.3175 0.4772
C2 C 0.3934(7) 0.3905(3) 0.5213(4)
C3 C 0.2118(10) 0.4620(4) 0.2877(4)
H3 H 0.1370 0.4347 0.2921
C4 C 0.2719(12) 0.4739(4) 0.2195(5)
H4 H 0.2362 0.4551 0.1764
C5 C 0.3829(11) 0.5129(4) 0.2143(5)
H5 H 0.4247 0.5197 0.1680
C6 C 0.4326(9) 0.5416(4) 0.2756(6)
H6 H 0.5066 0.5694 0.2714
C7 C 0.3758(9) 0.5304(3) 0.3436(5)
H7 H 0.4124 0.5493 0.3864
C8 C 0.2664(8) 0.4918(3) 0.3483(4)
C9 C -0.1327(9) 0.5677(4) 0.2762(4)
H8 H -0.1968 0.5632 0.3148
C10 C -0.1645(12) 0.5473(5) 0.2064(5)
H9 H -0.2502 0.5283 0.1965
C11 C -0.0680(10) 0.5551(4) 0.1501(5)
H10 H -0.0887 0.5405 0.1021
C12 C 0.0570(11) 0.5837(4) 0.1635(4)
H11 H 0.1193 0.5897 0.1243
C13 C 0.0916(9) 0.6035(4) 0.2341(5)
H12 H 0.1778 0.6220 0.2441
C14 C -0.0048(8) 0.5952(3) 0.2897(4)
C15 C 0.0597(8) 0.7561(4) 0.3827(4)
C16 C 0.0820(10) 0.8163(3) 0.3426(5)
H13 H 0.0447 0.8129 0.2920
H14 H 0.1817 0.8241 0.3391
I3 I 0.87714(5) 0.71519(2) 0.57577(3)
I4 I 0.69717(6) 0.84804(2) 0.52404(3)
Cl3 Cl 1.3465(2) 0.56237(11) 0.64187(14)
Cl4 Cl 0.6003(3) 1.07267(9) 0.60092(12)
O6 O 1.1362(7) 0.6323(3) 0.5549(3)
O7 O 1.0183(6) 0.6618(3) 0.6545(3)
O8 O 0.7281(6) 0.7568(2) 0.5155(3)
O9 O 0.6279(6) 0.9445(2) 0.5478(3)
O10 O 0.7914(7) 0.9645(3) 0.4645(3)
C17 C 1.1908(13) 0.5919(7) 0.6737(6)
H15 H 1.1316 0.5574 0.6879
H16 H 1.2102 0.6157 0.7187
C18 C 1.1104(9) 0.6317(4) 0.6210(4)
C19 C 0.8057(11) 0.7579(4) 0.7301(5)
H17 H 0.8785 0.7859 0.7229
C20 C 0.7351(11) 0.7545(5) 0.7963(5)
H18 H 0.7596 0.7814 0.8350
C21 C 0.6318(11) 0.7136(4) 0.8073(5)
H19 H 0.5884 0.7113 0.8537
C22 C 0.5898(11) 0.6750(4) 0.7503(6)
H20 H 0.5156 0.6478 0.7576
C23 C 0.6559(9) 0.6764(4) 0.6834(5)
H21 H 0.6288 0.6499 0.6446
C24 C 0.7627(9) 0.7173(4) 0.6744(4)
C25 C 0.5158(9) 0.8298(4) 0.6583(4)
H22 H 0.5920 0.8456 0.6849
C26 C 0.3976(11) 0.8080(4) 0.6933(5)
H23 H 0.3922 0.8099 0.7453
C27 C 0.2883(12) 0.7838(4) 0.6531(6)
H24 H 0.2106 0.7685 0.6782
C28 C 0.2914(10) 0.7818(4) 0.5761(6)
H25 H 0.2162 0.7655 0.5490
C29 C 0.4058(10) 0.8039(4) 0.5399(5)
H26 H 0.4096 0.8034 0.4878
C30 C 0.5137(8) 0.8265(4) 0.5808(4)
C31 C 0.7065(9) 0.9807(3) 0.5089(4)
C32 C 0.6881(9) 1.0497(4) 0.5205(4)
H27 H 0.6380 1.0662 0.4773
H28 H 0.7802 1.0686 0.5213
loop_
_geom_bond_atom_site_label_1
_geom_bond_atom_site_label_2
_geom_bond_site_symmetry_1
_geom_bond_site_symmetry_2
I1 O2 1_555 1_555
I2 O3 1_555 1_555
Cl1 C1 1_555 1_555
Cl2 C16 1_555 1_555
O1 C2 1_555 1_555
O2 C2 1_555 1_555
O3 I1 1_555 1_555
O4 I2 1_555 1_555
O5 C15 1_555 1_555
C1 H1 1_555 1_555
H2 C1 1_555 1_555
C2 C1 1_555 1_555
C3 H3 1_555 1_555
C4 C3 1_555 1_555
H4 C4 1_555 1_555
C5 C4 1_555 1_555
H5 C5 1_555 1_555
C6 C5 1_555 1_555
H6 C6 1_555 1_555
C7 C6 1_555 1_555
H7 C7 1_555 1_555
C8 I1 1_555 1_555
C9 H8 1_555 1_555
C10 C9 1_555 1_555
H9 C10 1_555 1_555
C11 C10 1_555 1_555
H10 C11 1_555 1_555
C12 C11 1_555 1_555
H11 C12 1_555 1_555
C13 C12 1_555 1_555
H12 C13 1_555 1_555
C14 I2 1_555 1_555
C15 O4 1_555 1_555
C16 C15 1_555 1_555
H13 C16 1_555 1_555
H14 C16 1_555 1_555
I3 O7 1_555 1_555
I4 O8 1_555 1_555
Cl3 C17 1_555 1_555
Cl4 C32 1_555 1_555
O6 C18 1_555 1_555
O7 C18 1_555 1_555
O8 I3 1_555 1_555
O9 I4 1_555 1_555
O10 C31 1_555 1_555
C17 H15 1_555 1_555
H16 C17 1_555 1_555
C18 C17 1_555 1_555
C19 H17 1_555 1_555
C20 C19 1_555 1_555
H18 C20 1_555 1_555
C21 C20 1_555 1_555
H19 C21 1_555 1_555
C22 C21 1_555 1_555
H20 C22 1_555 1_555
C23 C22 1_555 1_555
H21 C23 1_555 1_555
C24 I3 1_555 1_555
C25 H22 1_555 1_555
C26 C25 1_555 1_555
H23 C26 1_555 1_555
C27 C26 1_555 1_555
H24 C27 1_555 1_555
C28 C27 1_555 1_555
H25 C28 1_555 1_555
C29 C28 1_555 1_555
H26 C29 1_555 1_555
C30 I4 1_555 1_555
C31 O9 1_555 1_555
C32 C31 1_555 1_555
H27 C32 1_555 1_555
H28 C32 1_555 1_555
C3 C8 1_555 1_555
C7 C8 1_555 1_555
C9 C14 1_555 1_555
C13 C14 1_555 1_555
C19 C24 1_555 1_555
C23 C24 1_555 1_555
C25 C30 1_555 1_555
C29 C30 1_555 1_555

#END
