
#######################################################################
#
#                 Cambridge Crystallographic Data Centre
#                                CCDC 
#
#######################################################################
#
# If this CIF has been generated from an entry in the Cambridge 
# Structural Database, then it will include bibliographic, chemical, 
# crystal, experimental, refinement or atomic coordinate data resulting 
# from the CCDC's data processing and validation procedures.
#
#######################################################################

data_BACGAN
_chemical_formula_moiety         'C8 H15 N1 O3 Si1'
_chemical_name_systematic        (Nitrilo-triethoxy)-vinyl-silane
_symmetry_cell_setting           orthorhombic
_symmetry_space_group_name_H-M   'P 21 21 21'
_symmetry_Int_Tables_number      19
_space_group_name_Hall           'P 2ac 2ab'
loop_
_symmetry_equiv_pos_site_id
_symmetry_equiv_pos_as_xyz
1 x,y,z
2 1/2+x,1/2-y,-z
3 -x,1/2+y,1/2-z
4 1/2-x,-y,1/2+z
_cell_length_a                   15.441(3)
_cell_length_b                   9.576(2)
_cell_length_c                   6.678(1)
_cell_angle_alpha                90
_cell_angle_beta                 90
_cell_angle_gamma                90
_cell_volume                     987.429
_cell_formula_units_Z            4
loop_
_atom_site_label
_atom_site_type_symbol
_atom_site_fract_x
_atom_site_fract_y
_atom_site_fract_z
Si1 Si 0.38370 0.85390 0.49710
O1 O 0.31610 0.9652 0.60610
C1 C 0.33110 1.11100 0.61110
C2 C 0.38670 1.15360 0.43700
N1 N 0.44730 1.04250 0.40260
C3 C 0.52850 1.05060 0.52640
C4 C 0.55090 0.90910 0.58660
O2 O 0.47780 0.82390 0.61310
O3 O 0.37830 0.82260 0.25290
C5 C 0.40170 0.92360 0.10700
C6 C 0.46970 1.01990 0.18770
C7 C 0.32180 0.69130 0.58420
C8 C 0.29550 0.59160 0.47720
loop_
_geom_bond_atom_site_label_1
_geom_bond_atom_site_label_2
_geom_bond_site_symmetry_1
_geom_bond_site_symmetry_2
Si1 O1 1_555 1_555
O1 C1 1_555 1_555
C1 C2 1_555 1_555
C2 N1 1_555 1_555
N1 Si1 1_555 1_555
C3 N1 1_555 1_555
C4 C3 1_555 1_555
O2 Si1 1_555 1_555
O3 Si1 1_555 1_555
C5 O3 1_555 1_555
C6 N1 1_555 1_555
C7 Si1 1_555 1_555
C8 C7 1_555 1_555
C4 O2 1_555 1_555
C5 C6 1_555 1_555

#END
