
#######################################################################
#
#                 Cambridge Crystallographic Data Centre
#                                CCDC 
#
#######################################################################
#
# If this CIF has been generated from an entry in the Cambridge 
# Structural Database, then it will include bibliographic, chemical, 
# crystal, experimental, refinement or atomic coordinate data resulting 
# from the CCDC's data processing and validation procedures.
#
#######################################################################

data_BACJOE
_chemical_formula_moiety         'C20 H14 O3'
_chemical_name_systematic        
(+-)-7\a,8\b-Dihydroxy-9\b,10\b-epoxy-7,8,9,10-tetrahydrobenzo(a)pyrene
_symmetry_cell_setting           monoclinic
_symmetry_space_group_name_H-M   'P 21/c'
_symmetry_Int_Tables_number      14
_space_group_name_Hall           '-P 2ybc'
loop_
_symmetry_equiv_pos_site_id
_symmetry_equiv_pos_as_xyz
1 x,y,z
2 -x,1/2+y,1/2-z
3 -x,-y,-z
4 x,1/2-y,1/2+z
_cell_length_a                   22.426(4)
_cell_length_b                   7.049(1)
_cell_length_c                   9.074(2)
_cell_angle_alpha                90
_cell_angle_beta                 100.52(1)
_cell_angle_gamma                90
_cell_volume                     1410.31
_cell_formula_units_Z            4
loop_
_atom_site_label
_atom_site_type_symbol
_atom_site_fract_x
_atom_site_fract_y
_atom_site_fract_z
C1 C 0.56390 0.08410 0.14380
C2 C 0.55030 -0.07500 0.20820
C3 C 0.58960 -0.21100 0.27220
C4 C 0.65190 -0.18620 0.26080
C5 C 0.69470 -0.32780 0.32070
C6 C 0.75490 -0.31230 0.31270
C7 C 0.77600 -0.14130 0.24300
C8 C 0.83460 -0.12080 0.22930
C9 C 0.85500 0.04130 0.17390
C10 C 0.92390 0.06290 0.17340
C11 C 0.93700 0.21220 0.06120
C12 C 0.90220 0.38700 0.06300
C13 C 0.84160 0.37990 0.09310
C14 C 0.81610 0.19380 0.12690
C15 C 0.75250 0.16710 0.12890
C16 C 0.70940 0.31350 0.06440
C17 C 0.64870 0.28290 0.07050
C18 C 0.62630 0.11760 0.13480
C19 C 0.67050 -0.02520 0.19500
C20 C 0.73280 0.00060 0.18850
O1 O 0.94880 -0.11640 0.13900
O2 O 1.00130 0.24390 0.08950
O3 O 0.89020 0.44460 0.20940
H1 H 0.54300 0.19800 0.09800
H2 H 0.50200 -0.07600 0.21400
H3 H 0.57200 -0.33400 0.30300
H4 H 0.68100 -0.46400 0.36100
H5 H 0.78800 -0.41100 0.36600
H6 H 0.86700 -0.23500 0.26100
H7 H 0.94800 0.11100 0.27700
H8 H 0.92300 0.14500 -0.04500
H9 H 0.92100 0.44400 -0.02500
H10 H 0.80000 0.41300 0.01900
H11 H 0.72600 0.44800 0.02900
H12 H 0.61700 0.39400 0.02000
H13 H 0.95500 -0.19600 0.23900
H14 H 1.00200 0.29200 -0.02100
loop_
_geom_bond_atom_site_label_1
_geom_bond_atom_site_label_2
_geom_bond_site_symmetry_1
_geom_bond_site_symmetry_2
C1 C2 1_555 1_555
C2 C3 1_555 1_555
C3 C4 1_555 1_555
C4 C5 1_555 1_555
C5 C6 1_555 1_555
C6 C7 1_555 1_555
C7 C8 1_555 1_555
C8 C9 1_555 1_555
C9 C10 1_555 1_555
C10 C11 1_555 1_555
C11 C12 1_555 1_555
C12 C13 1_555 1_555
C13 C14 1_555 1_555
C14 C9 1_555 1_555
C15 C14 1_555 1_555
C16 C15 1_555 1_555
C17 C16 1_555 1_555
C18 C1 1_555 1_555
C19 C4 1_555 1_555
C20 C7 1_555 1_555
O1 C10 1_555 1_555
O2 C11 1_555 1_555
O3 C12 1_555 1_555
H1 C1 1_555 1_555
H2 C2 1_555 1_555
H3 C3 1_555 1_555
H4 C5 1_555 1_555
H5 C6 1_555 1_555
H6 C8 1_555 1_555
H7 C10 1_555 1_555
H8 C11 1_555 1_555
H9 C12 1_555 1_555
H10 C13 1_555 1_555
H11 C16 1_555 1_555
H12 C17 1_555 1_555
H13 O1 1_555 1_555
H14 O2 1_555 1_555
C13 O3 1_555 1_555
C15 C20 1_555 1_555
C17 C18 1_555 1_555
C18 C19 1_555 1_555
C19 C20 1_555 1_555

#END
