
#######################################################################
#
#                 Cambridge Crystallographic Data Centre
#                                CCDC 
#
#######################################################################
#
# If this CIF has been generated from an entry in the Cambridge 
# Structural Database, then it will include bibliographic, chemical, 
# crystal, experimental, refinement or atomic coordinate data resulting 
# from the CCDC's data processing and validation procedures.
#
#######################################################################

data_BACLOH
_chemical_formula_moiety         'C22 H30 Ba1 Cl2 N8 O9,C1 H4 O1,1.5(H2 O1)'
_chemical_name_systematic        
"Aqua-(1,2,3,5,6,13a,14,15,16,18,19,26a-dodecahydro-9,13:22,26-diepiazenodiimidazo(1,2-d:1',2'-o)(1,4,12,15)tetrazacyclodocosine)-diperchlorato-barium methanol solvate sesquihydrate"
_symmetry_cell_setting           triclinic
_symmetry_space_group_name_H-M   'P -1'
_symmetry_Int_Tables_number      2
_space_group_name_Hall           '-P 1'
loop_
_symmetry_equiv_pos_site_id
_symmetry_equiv_pos_as_xyz
1 x,y,z
2 -x,-y,-z
_cell_length_a                   9.824(7)
_cell_length_b                   9.9177(13)
_cell_length_c                   17.739(2)
_cell_angle_alpha                77.157(6)
_cell_angle_beta                 79.90(2)
_cell_angle_gamma                86.55(2)
_cell_volume                     1658.58
_exptl_crystal_colour            colorless
_exptl_crystal_description       block
_cell_formula_units_Z            2
loop_
_atom_site_label
_atom_site_type_symbol
_atom_site_fract_x
_atom_site_fract_y
_atom_site_fract_z
Ba1 Ba 0.19737(3) 0.35578(3) 0.25961(2)
O1 O 0.4108(5) 0.1487(5) 0.2620(3)
H1 H 0.4439(5) 0.1073(5) 0.3024(3)
H2 H 0.4363(5) 0.1344(5) 0.2160(3)
N1 N 0.1068(5) 0.0943(4) 0.3618(3)
N2 N 0.0274(5) 0.1628(5) 0.2093(3)
N3 N -0.1752(5) 0.1499(6) 0.3004(3)
H3 H -0.2448(5) 0.0942(6) 0.3268(3)
N4 N 0.2893(5) 0.2792(5) 0.1143(3)
N5 N 0.4533(5) 0.4580(5) 0.1595(3)
N6 N 0.3883(5) 0.5264(5) 0.3108(3)
N7 N 0.3890(6) 0.7300(5) 0.2168(3)
H5 H 0.3444(6) 0.7118(5) 0.1800(3)
N8 N 0.2860(5) 0.2596(5) 0.4075(3)
C1 C 0.1733(6) 0.0438(6) 0.4232(3)
C2 C 0.1559(7) -0.0911(6) 0.4671(4)
H7 H 0.2032(7) -0.1238(6) 0.5088(4)
C3 C 0.0676(7) -0.1747(6) 0.4474(4)
H8 H 0.0531(7) -0.2646(6) 0.4764(4)
C4 C 0.0003(6) -0.1242(6) 0.3843(4)
H9 H -0.0589(6) -0.1798(6) 0.3697(4)
C5 C 0.0227(6) 0.0097(6) 0.3435(3)
C6 C -0.0528(6) 0.0694(6) 0.2753(4)
H10 H -0.0828(6) -0.0075(6) 0.2562(4)
C7 C -0.2102(8) 0.2317(10) 0.2268(5)
H11 H -0.2439(8) 0.3231(10) 0.2332(5)
H12 H -0.2817(8) 0.1870(10) 0.2104(5)
C8 C -0.0812(7) 0.2423(7) 0.1669(4)
H13 H -0.0940(7) 0.2024(7) 0.1235(4)
H14 H -0.0556(7) 0.3381(7) 0.1468(4)
C9 C 0.1275(7) 0.0881(6) 0.1598(4)
H15 H 0.0779(7) 0.0237(6) 0.1412(4)
H16 H 0.1913(7) 0.0347(6) 0.1915(4)
C10 C 0.2089(8) 0.1834(7) 0.0900(4)
H17 H 0.2705(8) 0.1286(7) 0.0590(4)
H18 H 0.1457(8) 0.2351(7) 0.0573(4)
C11 C 0.4122(7) 0.3029(6) 0.0785(3)
H19 H 0.4459(7) 0.2595(6) 0.0374(3)
C12 C 0.5037(6) 0.3965(6) 0.0996(3)
C13 C 0.6371(7) 0.4183(7) 0.0581(4)
H20 H 0.6690(7) 0.3745(7) 0.0169(4)
C14 C 0.7221(7) 0.5055(7) 0.0785(4)
H21 H 0.8114(7) 0.5216(7) 0.0510(4)
C15 C 0.6732(6) 0.5678(6) 0.1396(4)
H22 H 0.7288(6) 0.6263(6) 0.1545(4)
C16 C 0.5392(6) 0.5421(6) 0.1788(4)
C17 C 0.4775(6) 0.6139(6) 0.2437(4)
H23 H 0.5530(6) 0.6481(6) 0.2634(4)
C18 C 0.2897(8) 0.7506(7) 0.2856(5)
H24 H 0.1958(8) 0.7526(7) 0.2753(5)
H25 H 0.3062(8) 0.8371(7) 0.2991(5)
C19 C 0.3122(7) 0.6289(7) 0.3517(4)
H26 H 0.3660(7) 0.6554(7) 0.3868(4)
H27 H 0.2246(7) 0.5930(7) 0.3816(4)
C20 C 0.4711(7) 0.4288(7) 0.3610(4)
H28 H 0.5354(7) 0.4802(7) 0.3789(4)
H29 H 0.5247(7) 0.3683(7) 0.3302(4)
C21 C 0.3835(7) 0.3420(7) 0.4311(4)
H30 H 0.4429(7) 0.2808(7) 0.4625(4)
H31 H 0.3326(7) 0.4019(7) 0.4632(4)
C22 C 0.2689(6) 0.1348(6) 0.4438(3)
H32 H 0.3178(6) 0.0992(6) 0.4845(3)
Cl1 Cl -0.1307(2) 0.4928(2) 0.37234(13)
O2 O -0.1033(15) 0.4381(14) 0.3030(7)
O3 O -0.2174(24) 0.3987(25) 0.4280(15)
O4 O -0.2036(16) 0.6168(10) 0.3549(10)
O5 O 0.0074(9) 0.5140(21) 0.3742(15)
Cl2 Cl 0.0769(2) 0.6957(2) 0.10633(10)
O10 O 0.0927(49) 0.5700(24) 0.1556(21)
O11 O 0.2012(23) 0.7635(38) 0.0839(22)
O12 O -0.0242(21) 0.7650(24) 0.1480(17)
O13 O 0.0358(24) 0.6647(27) 0.0418(9)
O18 O -0.4201(7) 0.0227(8) 0.3753(4)
H33 H -0.4455(7) 0.0271(8) 0.4230(4)
C23 C -0.4056(17) -0.1068(18) 0.3619(9)
H34 H -0.3766(17) -0.1015(18) 0.3067(9)
H35 H -0.3380(17) -0.1590(18) 0.3902(9)
H36 H -0.4931(17) -0.1516(18) 0.3787(9)
O19 O 0.5149(7) 0.9864(6) 0.1532(4)
H37 H 0.6192(7) 0.9818(6) 0.1001(4)
O20 O 0.7844(15) 0.9971(15) 0.0713(8)
H4? H -0.1560(5) 0.2049(6) 0.3311(3)
H6? H 0.4393(6) 0.8063(5) 0.1958(3)
O6? O 0.0006(20) 0.4312(38) 0.3648(20)
O7? O -0.1054(29) 0.5469(22) 0.4360(9)
O8? O -0.1963(31) 0.5971(33) 0.3242(14)
O9? O -0.2163(31) 0.3841(27) 0.4157(17)
O14? O 0.1839(20) 0.7855(22) 0.0708(16)
O15? O 0.0663(42) 0.5883(41) 0.0701(26)
O16? O 0.1206(36) 0.6157(31) 0.1718(17)
O17? O -0.0465(22) 0.7660(34) 0.1197(22)
loop_
_geom_bond_atom_site_label_1
_geom_bond_atom_site_label_2
_geom_bond_site_symmetry_1
_geom_bond_site_symmetry_2
Ba1 O1 1_555 1_555
O1 H1 1_555 1_555
H2 O1 1_555 1_555
N1 Ba1 1_555 1_555
N2 Ba1 1_555 1_555
N3 H3 1_555 1_555
N4 Ba1 1_555 1_555
N5 Ba1 1_555 1_555
N6 Ba1 1_555 1_555
N7 H5 1_555 1_555
N8 Ba1 1_555 1_555
C1 N1 1_555 1_555
C2 C1 1_555 1_555
H7 C2 1_555 1_555
C3 C2 1_555 1_555
H8 C3 1_555 1_555
C4 C3 1_555 1_555
H9 C4 1_555 1_555
C5 N1 1_555 1_555
C6 N2 1_555 1_555
H10 C6 1_555 1_555
C7 N3 1_555 1_555
H11 C7 1_555 1_555
H12 C7 1_555 1_555
C8 N2 1_555 1_555
H13 C8 1_555 1_555
H14 C8 1_555 1_555
C9 N2 1_555 1_555
H15 C9 1_555 1_555
H16 C9 1_555 1_555
C10 N4 1_555 1_555
H17 C10 1_555 1_555
H18 C10 1_555 1_555
C11 N4 1_555 1_555
H19 C11 1_555 1_555
C12 N5 1_555 1_555
C13 C12 1_555 1_555
H20 C13 1_555 1_555
C14 C13 1_555 1_555
H21 C14 1_555 1_555
C15 C14 1_555 1_555
H22 C15 1_555 1_555
C16 N5 1_555 1_555
C17 N6 1_555 1_555
H23 C17 1_555 1_555
C18 N7 1_555 1_555
H24 C18 1_555 1_555
H25 C18 1_555 1_555
C19 N6 1_555 1_555
H26 C19 1_555 1_555
H27 C19 1_555 1_555
C20 N6 1_555 1_555
H28 C20 1_555 1_555
H29 C20 1_555 1_555
C21 N8 1_555 1_555
H30 C21 1_555 1_555
H31 C21 1_555 1_555
C22 N8 1_555 1_555
H32 C22 1_555 1_555
Cl1 O2 1_555 1_555
O2 Ba1 1_555 1_555
O3 Cl1 1_555 1_555
O4 Cl1 1_555 1_555
O5 Ba1 1_555 1_555
Cl2 O10 1_555 1_555
O10 Ba1 1_555 1_555
O11 Cl2 1_555 1_555
O12 Cl2 1_555 1_555
O13 Cl2 1_555 1_555
O18 H33 1_555 1_555
C23 O18 1_555 1_555
H34 C23 1_555 1_555
H35 C23 1_555 1_555
H36 C23 1_555 1_555
O19 H37 1_555 1_555
N3 C6 1_555 1_555
N7 C17 1_555 1_555
C1 C22 1_555 1_555
C4 C5 1_555 1_555
C5 C6 1_555 1_555
C7 C8 1_555 1_555
C9 C10 1_555 1_555
C11 C12 1_555 1_555
C15 C16 1_555 1_555
C16 C17 1_555 1_555
C18 C19 1_555 1_555
C20 C21 1_555 1_555
Cl1 O5 1_555 1_555

#END
