
#######################################################################
#
#                 Cambridge Crystallographic Data Centre
#                                CCDC 
#
#######################################################################
#
# If this CIF has been generated from an entry in the Cambridge 
# Structural Database, then it will include bibliographic, chemical, 
# crystal, experimental, refinement or atomic coordinate data resulting 
# from the CCDC's data processing and validation procedures.
#
#######################################################################

data_BACSUW
_chemical_formula_moiety         'C36 H27 B1 N4 O3,1.5(C6 H6)'
_chemical_name_systematic        
'9c-Methoxy-6,9-bis(4-methylphenyl)-3-(4-nitrophenyl)-9cH-8b\l^5^,9b,9d-triaza-9\L^5^-boratricyclopenta[cd,gh,kl]phenalene subporphyrin benzene solvate'
_symmetry_cell_setting           triclinic
_symmetry_space_group_name_H-M   'P -1'
_symmetry_Int_Tables_number      2
_space_group_name_Hall           '-P 1'
loop_
_symmetry_equiv_pos_site_id
_symmetry_equiv_pos_as_xyz
1 x,y,z
2 -x,-y,-z
_cell_length_a                   14.124(3)
_cell_length_b                   15.235(4)
_cell_length_c                   17.465(3)
_cell_angle_alpha                87.755(16)
_cell_angle_beta                 69.970(12)
_cell_angle_gamma                89.95(2)
_cell_volume                     3527.76
_exptl_crystal_colour            orange
_exptl_crystal_description       prism
_cell_formula_units_Z            4
_exptl_crystal_preparation       Luminescent
loop_
_atom_site_label
_atom_site_type_symbol
_atom_site_fract_x
_atom_site_fract_y
_atom_site_fract_z
O1 O 0.91677(19) 0.67646(18) 0.07079(18)
N1 N 1.0545(2) 0.7042(2) 0.1255(2)
N2 N 0.8935(2) 0.7689(2) 0.1841(2)
N3 N 0.9144(2) 0.6167(2) 0.2062(2)
C1 C 1.2164(3) 0.6806(2) 0.1021(2)
H1 H 1.2785 0.6517 0.0941
C2 C 1.0998(3) 0.7853(2) 0.1087(2)
C3 C 0.8173(3) 0.5211(3) 0.3002(3)
H2 H 0.7598 0.4933 0.3393
N4 N 0.3415(3) 0.6626(3) 0.4788(3)
C4 C 0.6516(3) 0.6795(3) 0.3354(3)
C5 C 0.9356(3) 0.8514(2) 0.1722(2)
C6 C 0.7803(3) 0.8552(3) 0.2689(3)
H3 H 0.7202 0.8756 0.3081
C7 C 0.8000(3) 0.7663(3) 0.2463(3)
C8 C 1.0814(3) 0.5574(2) 0.1685(3)
C9 C 0.7586(3) 0.6831(3) 0.2805(2)
C10 C 0.8205(3) 0.6075(3) 0.2634(3)
C11 C 1.1529(3) 0.4898(2) 0.1775(3)
C12 C 1.3013(3) 0.4028(3) 0.1179(3)
H4 H 1.3554 0.3864 0.0710
C13 C 0.6186(3) 0.6282(3) 0.4077(3)
H5 H 0.6663 0.5962 0.4245
C14 C 1.0417(3) 0.8620(2) 0.1273(2)
C15 C 1.2062(3) 0.7685(3) 0.0893(2)
H6 H 1.2593 0.8110 0.0710
C16 C 1.0847(3) 0.9512(3) 0.1155(2)
C17 C 1.2927(3) 0.3649(3) 0.1933(3)
C18 C 1.1199(3) 0.6391(3) 0.1292(3)
C19 C 1.1452(3) 0.4535(3) 0.2532(3)
H7 H 1.0920 0.4705 0.3003
C20 C 0.4790(3) 0.7235(3) 0.3597(3)
H8 H 0.4309 0.7560 0.3438
C21 C 1.0387(3) 1.0198(3) 0.0870(3)
H9 H 0.9818 1.0073 0.0718
C22 C 0.9765(3) 0.5483(3) 0.2106(3)
C23 C 1.1721(3) 0.9713(3) 0.1338(3)
H10 H 1.2077 0.9258 0.1505
O2 O 0.3157(3) 0.6093(3) 0.5354(3)
C24 C 0.8619(3) 0.9066(3) 0.2249(3)
H11 H 0.8684 0.9682 0.2287
C25 C 0.5801(3) 0.7283(3) 0.3129(3)
H12 H 0.6016 0.7653 0.2649
O3 O 0.2833(3) 0.7082(3) 0.4567(3)
C26 C 0.4491(3) 0.6703(3) 0.4300(3)
C27 C 1.2052(3) 1.0570(3) 0.1273(3)
H13 H 1.2635 1.0696 0.1405
C28 C 0.9113(3) 0.4856(3) 0.2693(3)
H14 H 0.9304 0.4294 0.2840
C29 C 1.1569(3) 1.1257(3) 0.1022(3)
C30 C 1.2324(3) 0.4643(3) 0.1093(3)
H15 H 1.2395 0.4890 0.0568
C31 C 1.0733(3) 1.1051(3) 0.0802(3)
H16 H 1.0403 1.1504 0.0606
C32 C 0.5174(3) 0.6230(3) 0.4555(3)
H17 H 0.4955 0.5878 0.5047
C33 C 1.1883(4) 1.2192(3) 0.1030(3)
H18 H 1.1659 1.2382 0.1594
H19 H 1.1578 1.2564 0.0710
H20 H 1.2619 1.2244 0.0793
C34 C 1.3660(4) 0.2956(3) 0.2017(3)
H21 H 1.4167 0.3227 0.2204
H22 H 1.3993 0.2700 0.1487
H23 H 1.3293 0.2494 0.2413
C35 C 1.2151(3) 0.3918(3) 0.2609(3)
H24 H 1.2093 0.3680 0.3134
C36 C 0.9582(3) 0.6063(3) 0.0222(3)
H25 H 1.0319 0.6106 0.0039
H26 H 0.9364 0.6080 -0.0254
H27 H 0.9356 0.5510 0.0537
B1 B 0.9430(3) 0.6897(3) 0.1419(3)
O4 O 0.4183(2) 0.8663(2) 0.07188(18)
N5 N 0.5528(2) 0.8268(2) 0.1267(2)
N6 N 0.4137(2) 0.9077(2) 0.2074(2)
N7 N 0.3923(2) 0.7578(2) 0.1841(2)
C37 C 0.5988(3) 0.7472(2) 0.1106(2)
C38 C 0.7162(3) 0.8530(3) 0.1034(2)
H28 H 0.7781 0.8829 0.0950
C39 C 0.1509(3) 0.8351(3) 0.3354(3)
C40 C 0.5798(3) 0.9705(3) 0.1694(3)
C41 C 0.2996(3) 0.7559(3) 0.2456(3)
C42 C 0.3196(3) 0.9126(3) 0.2647(3)
N8 N -0.1593(3) 0.8394(3) 0.4796(3)
C43 C 0.4340(3) 0.6767(2) 0.1725(3)
C44 C 0.2796(3) 0.6647(2) 0.2686(3)
H29 H 0.2194 0.6413 0.3080
C45 C 0.5399(3) 0.6696(2) 0.1293(2)
C46 C 0.7062(3) 0.7662(2) 0.0919(2)
H30 H 0.7594 0.7253 0.0749
C47 C 0.7033(3) 0.4744(3) 0.1299(3)
H31 H 0.7613 0.4609 0.1437
C48 C 0.3168(3) 0.9955(3) 0.3009(3)
H32 H 0.2597 1.0201 0.3402
C49 C 0.2564(3) 0.8356(3) 0.2803(3)
C50 C 0.5836(3) 0.5811(2) 0.1172(2)
C51 C 0.7948(3) 1.1598(3) 0.1896(3)
O5 O -0.2175(3) 0.7969(3) 0.4563(3)
C52 C 0.1185(3) 0.8794(3) 0.4077(3)
H33 H 0.1666 0.9094 0.4245
C53 C 0.8031(3) 1.1274(3) 0.1150(3)
H34 H 0.8576 1.1465 0.0677
C54 C 0.6192(3) 0.8920(2) 0.1298(3)
C55 C 0.5364(3) 0.5151(3) 0.0892(3)
H35 H 0.4793 0.5288 0.0743
C56 C 0.0797(3) 0.7881(3) 0.3127(3)
H36 H 0.1013 0.7553 0.2647
C57 C 0.4754(3) 0.9765(3) 0.2111(3)
C58 C 0.0175(3) 0.8806(3) 0.4559(3)
H37 H -0.0041 0.9115 0.5051
O6 O -0.1850(3) 0.8858(3) 0.5374(3)
C59 C 0.6458(3) 1.0682(3) 0.2524(3)
H38 H 0.5926 1.0481 0.3000
C60 C 0.4115(3) 1.0335(3) 0.2690(3)
H39 H 0.4309 1.0886 0.2831
C61 C -0.0514(3) 0.8355(3) 0.4304(3)
C62 C 0.3599(3) 0.6168(3) 0.2255(3)
H40 H 0.3660 0.5549 0.2298
C63 C 0.5721(3) 0.4300(3) 0.0830(3)
H41 H 0.5390 0.3860 0.0640
C64 C -0.0221(3) 0.7892(3) 0.3599(3)
H42 H -0.0704 0.7586 0.3439
C65 C 0.6527(3) 1.0370(3) 0.1768(3)
C66 C 0.6697(3) 0.5597(3) 0.1363(3)
H43 H 0.7046 0.6038 0.1535
C67 C 0.7327(3) 1.0670(3) 0.1079(3)
H44 H 0.7391 1.0461 0.0559
C68 C 0.6880(4) 0.3149(3) 0.1061(3)
H45 H 0.7613 0.3116 0.0807
H46 H 0.6556 0.2798 0.0759
H47 H 0.6677 0.2920 0.1627
C69 C 0.6565(3) 0.4078(3) 0.1046(3)
C70 C 0.7161(3) 1.1283(3) 0.2585(3)
H48 H 0.7108 1.1486 0.3106
B2 B 0.4430(3) 0.8412(3) 0.1427(3)
C71 C 0.8689(4) 1.2276(3) 0.1973(3)
H49 H 0.9210 1.1982 0.2139
H50 H 0.8333 1.2693 0.2384
H51 H 0.9004 1.2591 0.1447
C72 C 0.4635(6) 0.8354(6) 0.0018(6)
H52 H 0.5361 0.8470 -0.0142
H53 H 0.4379 0.8635 -0.0384
H54 H 0.4512 0.7719 0.0044
C74 C 0.8493(4) 0.1476(3) 0.4047(3)
H58 H 0.7793 0.1511 0.4347
C75 C 0.9901(4) 0.0634(3) 0.3291(3)
H59 H 1.0170 0.0093 0.3064
C76 C 1.0123(4) 0.2152(4) 0.3508(3)
H60 H 1.0552 0.2652 0.3430
C77 C 0.9100(4) 0.2212(3) 0.3942(3)
H61 H 0.8821 0.2753 0.4162
C78 C 0.8880(4) 0.0701(3) 0.3729(3)
H62 H 0.8450 0.0201 0.3807
C79 C 1.0518(4) 0.1359(4) 0.3190(3)
H63 H 1.1220 0.1316 0.2900
C80 C 0.3884(4) 0.4404(3) 0.3735(3)
H64 H 0.3452 0.4896 0.3807
C81 C 0.3498(4) 0.3592(3) 0.4060(3)
H65 H 0.2799 0.3527 0.4360
C82 C 0.4911(4) 0.4505(4) 0.3301(3)
H66 H 0.5185 0.5064 0.3073
C83 C 0.4110(4) 0.2870(3) 0.3957(3)
H67 H 0.3833 0.2310 0.4178
C84 C 0.5131(4) 0.2969(4) 0.3528(3)
H68 H 0.5562 0.2476 0.3455
C85 C 0.5521(4) 0.3791(4) 0.3206(3)
H69 H 0.6223 0.3859 0.2914
C86 C 0.9170(4) 0.4710(3) 0.4846(3)
H70 H 0.8593 0.4511 0.4737
C87 C 0.9665(4) 0.4140(3) 0.5196(3)
H71 H 0.9433 0.3550 0.5332
C88 C 0.9491(4) 0.5567(3) 0.4650(3)
H72 H 0.9137 0.5956 0.4410
C86A C 1.0830(4) 0.5290(3) 0.5154(3)
H70A H 1.1407 0.5489 0.5263
C87A C 1.0335(4) 0.5860(3) 0.4804(3)
H71A H 1.0567 0.6450 0.4668
C88A C 1.0509(4) 0.4433(3) 0.5350(3)
H72A H 1.0863 0.4044 0.5590
C89 C 0.4169(4) 0.0307(4) 0.4841(3)
H73 H 0.3601 0.0520 0.4721
C90 C 0.4650(4) 0.0837(4) 0.5212(3)
H74 H 0.4405 0.1408 0.5366
C91 C 0.4502(4) -0.0532(4) 0.4641(3)
H75 H 0.4149 -0.0902 0.4402
C89A C 0.5831(4) -0.0307(4) 0.5159(3)
H73A H 0.6399 -0.0520 0.5279
C90A C 0.5350(4) -0.0837(4) 0.4788(3)
H74A H 0.5595 -0.1408 0.4634
C91A C 0.5498(4) 0.0532(4) 0.5359(3)
H75A H 0.5851 0.0902 0.5598
C73? C 0.4623(6) 0.9321(5) 0.0190(6)
H55? H 0.4504 0.9876 0.0471
H56? H 0.4338 0.9350 -0.0250
H57? H 0.5350 0.9220 -0.0041
loop_
_geom_bond_atom_site_label_1
_geom_bond_atom_site_label_2
_geom_bond_site_symmetry_1
_geom_bond_site_symmetry_2
O1 C36 1_555 1_555
N1 C2 1_555 1_555
N2 C5 1_555 1_555
N3 C10 1_555 1_555
C1 H1 1_555 1_555
C2 C14 1_555 1_555
C3 H2 1_555 1_555
N4 O2 1_555 1_555
C4 C9 1_555 1_555
C5 C14 1_555 1_555
C6 H3 1_555 1_555
C7 N2 1_555 1_555
C8 C11 1_555 1_555
C9 C7 1_555 1_555
C10 C3 1_555 1_555
C11 C19 1_555 1_555
C12 H4 1_555 1_555
C13 C4 1_555 1_555
H5 C13 1_555 1_555
C14 C16 1_555 1_555
C15 C1 1_555 1_555
H6 C15 1_555 1_555
C16 C21 1_555 1_555
C17 C12 1_555 1_555
C18 N1 1_555 1_555
C19 H7 1_555 1_555
C20 H8 1_555 1_555
C21 H9 1_555 1_555
C22 N3 1_555 1_555
C23 C16 1_555 1_555
H10 C23 1_555 1_555
C24 C5 1_555 1_555
H11 C24 1_555 1_555
C25 C4 1_555 1_555
H12 C25 1_555 1_555
O3 N4 1_555 1_555
C26 N4 1_555 1_555
C27 C23 1_555 1_555
H13 C27 1_555 1_555
C28 C3 1_555 1_555
H14 C28 1_555 1_555
C29 C27 1_555 1_555
C30 C11 1_555 1_555
H15 C30 1_555 1_555
C31 C21 1_555 1_555
H16 C31 1_555 1_555
C32 C13 1_555 1_555
H17 C32 1_555 1_555
C33 C29 1_555 1_555
H18 C33 1_555 1_555
H19 C33 1_555 1_555
H20 C33 1_555 1_555
C34 C17 1_555 1_555
H21 C34 1_555 1_555
H22 C34 1_555 1_555
H23 C34 1_555 1_555
C35 C17 1_555 1_555
H24 C35 1_555 1_555
C36 H25 1_555 1_555
H26 C36 1_555 1_555
H27 C36 1_555 1_555
B1 O1 1_555 1_555
O4 B2 1_555 1_555
N5 C37 1_555 1_555
N6 C42 1_555 1_555
N7 C41 1_555 1_555
C37 C45 1_555 1_555
C38 H28 1_555 1_555
C39 C49 1_555 1_555
C40 C54 1_555 1_555
C41 C44 1_555 1_555
C42 C48 1_555 1_555
N8 O5 1_555 1_555
C43 N7 1_555 1_555
C44 H29 1_555 1_555
C45 C43 1_555 1_555
C46 C37 1_555 1_555
H30 C46 1_555 1_555
C47 H31 1_555 1_555
C48 H32 1_555 1_555
C49 C41 1_555 1_555
C50 C45 1_555 1_555
C51 C53 1_555 1_555
C52 C39 1_555 1_555
H33 C52 1_555 1_555
C53 H34 1_555 1_555
C54 N5 1_555 1_555
C55 C50 1_555 1_555
H35 C55 1_555 1_555
C56 C39 1_555 1_555
H36 C56 1_555 1_555
C57 N6 1_555 1_555
C58 C52 1_555 1_555
H37 C58 1_555 1_555
O6 N8 1_555 1_555
C59 H38 1_555 1_555
C60 C48 1_555 1_555
H39 C60 1_555 1_555
C61 N8 1_555 1_555
C62 C43 1_555 1_555
H40 C62 1_555 1_555
C63 C55 1_555 1_555
H41 C63 1_555 1_555
C64 C56 1_555 1_555
H42 C64 1_555 1_555
C65 C40 1_555 1_555
C66 C47 1_555 1_555
H43 C66 1_555 1_555
C67 C53 1_555 1_555
H44 C67 1_555 1_555
C68 H45 1_555 1_555
H46 C68 1_555 1_555
H47 C68 1_555 1_555
C69 C47 1_555 1_555
C70 C51 1_555 1_555
H48 C70 1_555 1_555
B2 N5 1_555 1_555
C71 C51 1_555 1_555
H49 C71 1_555 1_555
H50 C71 1_555 1_555
H51 C71 1_555 1_555
C72 O4 1_555 1_555
H52 C72 1_555 1_555
H53 C72 1_555 1_555
H54 C72 1_555 1_555
C74 H58 1_555 1_555
C75 H59 1_555 1_555
C76 H60 1_555 1_555
C77 C74 1_555 1_555
H61 C77 1_555 1_555
C78 C74 1_555 1_555
H62 C78 1_555 1_555
C79 C75 1_555 1_555
H63 C79 1_555 1_555
C80 H64 1_555 1_555
C81 C80 1_555 1_555
H65 C81 1_555 1_555
C82 C80 1_555 1_555
H66 C82 1_555 1_555
C83 C81 1_555 1_555
H67 C83 1_555 1_555
C84 C83 1_555 1_555
H68 C84 1_555 1_555
C85 C82 1_555 1_555
H69 C85 1_555 1_555
C86 H70 1_555 1_555
C87 C86 1_555 1_555
H71 C87 1_555 1_555
C88 C86 1_555 1_555
H72 C88 1_555 1_555
C89 H73 1_555 1_555
C90 C89 1_555 1_555
H74 C90 1_555 1_555
C91 C89 1_555 1_555
H75 C91 1_555 1_555
C86A H70A 1_555 1_555
C87A C88 1_555 1_555
H71A C87A 1_555 1_555
C88A C87 1_555 1_555
H72A C88A 1_555 1_555
C89A H73A 1_555 1_555
C90A C91 1_555 1_555
H74A C90A 1_555 1_555
C91A C90 1_555 1_555
H75A C91A 1_555 1_555
N1 B1 1_555 1_555
N2 B1 1_555 1_555
N3 B1 1_555 1_555
C1 C18 1_555 1_555
C2 C15 1_555 1_555
C6 C7 1_555 1_555
C6 C24 1_555 1_555
C8 C18 1_555 1_555
C8 C22 1_555 1_555
C9 C10 1_555 1_555
C12 C30 1_555 1_555
C19 C35 1_555 1_555
C20 C25 1_555 1_555
C20 C26 1_555 1_555
C22 C28 1_555 1_555
C26 C32 1_555 1_555
C29 C31 1_555 1_555
N6 B2 1_555 1_555
N7 B2 1_555 1_555
C38 C46 1_555 1_555
C38 C54 1_555 1_555
C40 C57 1_555 1_555
C42 C49 1_555 1_555
C44 C62 1_555 1_555
C50 C66 1_555 1_555
C57 C60 1_555 1_555
C58 C61 1_555 1_555
C59 C65 1_555 1_555
C59 C70 1_555 1_555
C61 C64 1_555 1_555
C63 C69 1_555 1_555
C65 C67 1_555 1_555
C68 C69 1_555 1_555
C75 C78 1_555 1_555
C76 C77 1_555 1_555
C76 C79 1_555 1_555
C84 C85 1_555 1_555
C86A C87A 1_555 1_555
C86A C88A 1_555 1_555
C89A C90A 1_555 1_555
C89A C91A 1_555 1_555

#END
