
#######################################################################
#
#                 Cambridge Crystallographic Data Centre
#                                CCDC 
#
#######################################################################
#
# If this CIF has been generated from an entry in the Cambridge 
# Structural Database, then it will include bibliographic, chemical, 
# crystal, experimental, refinement or atomic coordinate data resulting 
# from the CCDC's data processing and validation procedures.
#
#######################################################################

data_BADSUV
_chemical_formula_moiety         'C14 H13 N1 O5'
_chemical_name_systematic        
syn-1-Acetyl-3'-(acetyloxy)-2-oxo-1,2-dihydrospiro(indole-3,2'-oxetane)
_symmetry_cell_setting           triclinic
_symmetry_space_group_name_H-M   'P -1'
_symmetry_Int_Tables_number      2
_space_group_name_Hall           '-P 1'
loop_
_symmetry_equiv_pos_site_id
_symmetry_equiv_pos_as_xyz
1 x,y,z
2 -x,-y,-z
_cell_length_a                   8.3660(17)
_cell_length_b                   9.6653(19)
_cell_length_c                   9.7304(19)
_cell_angle_alpha                68.82(3)
_cell_angle_beta                 68.35(3)
_cell_angle_gamma                68.44(3)
_cell_volume                     656.531
_exptl_crystal_colour            colorless
_exptl_crystal_description       needles
_chemical_melting_point          113-115deg.C
_cell_formula_units_Z            2
_exptl_crystal_recrystallization_method '60-90 petroleum ether/ethyl acetate'
loop_
_atom_site_label
_atom_site_type_symbol
_atom_site_fract_x
_atom_site_fract_y
_atom_site_fract_z
O1 O 0.1242(4) 0.6285(4) -0.1631(3)
O2 O 0.1003(3) 0.7495(3) 0.0022(2)
O3 O 0.4560(3) 0.8535(3) -0.1097(3)
O4 O 0.6518(4) 0.5911(3) -0.2502(3)
O5 O 0.5301(4) 0.7223(4) -0.6656(3)
N1 N 0.4991(3) 0.7490(3) -0.4353(3)
C1 C -0.1678(5) 0.7512(6) -0.0263(5)
H1 H -0.2122 0.7147 -0.0809
H2 H -0.2077 0.8617 -0.0507
H3 H -0.2119 0.7097 0.0819
C2 C 0.0303(5) 0.7010(4) -0.0714(4)
C3 C 0.2893(4) 0.7059(4) -0.0357(4)
H4 H 0.3412 0.5943 -0.0196
C4 C 0.3606(5) 0.7758(6) 0.0383(4)
H5 H 0.2680 0.8458 0.0960
H6 H 0.4384 0.6998 0.1000
C5 C 0.3867(4) 0.7994(4) -0.1900(4)
C6 C 0.2855(4) 0.9197(4) -0.2979(4)
C7 C 0.1467(5) 1.0478(4) -0.2734(4)
H7 H 0.1031 1.0698 -0.1786
C8 C 0.0733(5) 1.1435(5) -0.3929(5)
H8 H -0.0202 1.2312 -0.3793
C9 C 0.1387(5) 1.1086(5) -0.5317(5)
H9 H 0.0861 1.1729 -0.6100
C10 C 0.2793(5) 0.9819(4) -0.5594(4)
H10 H 0.3236 0.9614 -0.6548
C11 C 0.3526(4) 0.8857(4) -0.4383(3)
C12 C 0.5316(4) 0.6982(4) -0.2902(4)
C13 C 0.5855(5) 0.6754(5) -0.5542(4)
C14 C 0.7434(6) 0.5368(5) -0.5361(5)
H11 H 0.7892 0.4982 -0.6252
H12 H 0.7067 0.4581 -0.4471
H13 H 0.8349 0.5658 -0.5244
loop_
_geom_bond_atom_site_label_1
_geom_bond_atom_site_label_2
_geom_bond_site_symmetry_1
_geom_bond_site_symmetry_2
O1 C2 1_555 1_555
O2 C2 1_555 1_555
O3 C4 1_555 1_555
O4 C12 1_555 1_555
O5 C13 1_555 1_555
N1 C11 1_555 1_555
C1 H1 1_555 1_555
H2 C1 1_555 1_555
H3 C1 1_555 1_555
C2 C1 1_555 1_555
C3 O2 1_555 1_555
H4 C3 1_555 1_555
C4 C3 1_555 1_555
H5 C4 1_555 1_555
H6 C4 1_555 1_555
C5 O3 1_555 1_555
C6 C5 1_555 1_555
C7 C6 1_555 1_555
H7 C7 1_555 1_555
C8 C7 1_555 1_555
H8 C8 1_555 1_555
C9 C8 1_555 1_555
H9 C9 1_555 1_555
C10 C9 1_555 1_555
H10 C10 1_555 1_555
C11 C6 1_555 1_555
C12 N1 1_555 1_555
C13 N1 1_555 1_555
C14 C13 1_555 1_555
H11 C14 1_555 1_555
H12 C14 1_555 1_555
H13 C14 1_555 1_555
C3 C5 1_555 1_555
C5 C12 1_555 1_555
C10 C11 1_555 1_555

#END
