
#######################################################################
#
#                 Cambridge Crystallographic Data Centre
#                                CCDC 
#
#######################################################################
#
# If this CIF has been generated from an entry in the Cambridge 
# Structural Database, then it will include bibliographic, chemical, 
# crystal, experimental, refinement or atomic coordinate data resulting 
# from the CCDC's data processing and validation procedures.
#
#######################################################################

data_BADTIM01
_chemical_formula_moiety         'C30 H22'
_chemical_name_systematic        5H,5'H-5,5'-bidibenzo[a,d][7]annulene
_symmetry_cell_setting           monoclinic
_symmetry_space_group_name_H-M   'P 21/n'
_symmetry_Int_Tables_number      14
_space_group_name_Hall           '-P 2yn'
loop_
_symmetry_equiv_pos_site_id
_symmetry_equiv_pos_as_xyz
1 x,y,z
2 1/2-x,1/2+y,1/2-z
3 -x,-y,-z
4 1/2+x,1/2-y,1/2+z
_cell_length_a                   10.291(2)
_cell_length_b                   8.3098(17)
_cell_length_c                   12.389(3)
_cell_angle_alpha                90
_cell_angle_beta                 108.914(6)
_cell_angle_gamma                90
_cell_volume                     1002.26
_exptl_crystal_colour            colorless
_cell_formula_units_Z            2
loop_
_atom_site_label
_atom_site_type_symbol
_atom_site_fract_x
_atom_site_fract_y
_atom_site_fract_z
C1 C -0.22682(19) 0.6716(2) 0.68201(16)
H1 H -0.2856 0.6215 0.7174
C2 C -0.13519(18) 0.7889(2) 0.73885(15)
H2 H -0.1329 0.8198 0.8133
C3 C -0.04549(18) 0.8640(2) 0.69030(14)
C4 C -0.05513(18) 0.8222(2) 0.57705(14)
C5 C 0.02509(18) 0.9105(2) 0.51230(14)
H3 H 0.0033 0.8563 0.4364
C6 C 0.4671(2) 0.9090(2) 0.65178(16)
H4 H 0.5646 0.9133 0.6802
C7 C 0.3911(2) 0.9696(2) 0.71600(15)
H5 H 0.4375 1.0158 0.7884
C8 C 0.24704(19) 0.9647(2) 0.67725(14)
C9 C 0.17590(19) 1.0239(2) 0.75421(14)
H6 H 0.2232 1.1039 0.8072
C10 C 0.05258(19) 0.9804(2) 0.76001(14)
H7 H 0.0253 1.0327 0.8174
C11 C 0.17948(18) 0.9018(2) 0.56730(14)
C12 C 0.2587(2) 0.8400(2) 0.50438(14)
H8 H 0.2139 0.7954 0.4311
C13 C 0.4010(2) 0.8420(2) 0.54588(16)
H9 H 0.4527 0.7977 0.5020
C14 C -0.2321(2) 0.6278(2) 0.57264(16)
H10 H -0.2935 0.5459 0.5331
C15 C -0.14772(19) 0.7036(2) 0.52130(14)
H11 H -0.1533 0.6738 0.4459
C1B C 0.22682(19) 1.3284(2) 0.31799(16)
H1B H 0.2856 1.3785 0.2826
C2B C 0.13519(18) 1.2111(2) 0.26115(15)
H2B H 0.1329 1.1802 0.1867
C3B C 0.04549(18) 1.1360(2) 0.30970(14)
C4B C 0.05513(18) 1.1778(2) 0.42295(14)
C5B C -0.02509(18) 1.0895(2) 0.48770(14)
H3B H -0.0033 1.1437 0.5636
C6B C -0.4671(2) 1.0910(2) 0.34822(16)
H4B H -0.5646 1.0867 0.3198
C7B C -0.3911(2) 1.0304(2) 0.28400(15)
H5B H -0.4375 0.9842 0.2116
C8B C -0.24704(19) 1.0353(2) 0.32275(14)
C9B C -0.17590(19) 0.9761(2) 0.24579(14)
H6B H -0.2232 0.8961 0.1928
C10B C -0.05258(19) 1.0196(2) 0.23999(14)
H7B H -0.0253 0.9673 0.1826
C11B C -0.17948(18) 1.0982(2) 0.43270(14)
C12B C -0.2587(2) 1.1600(2) 0.49562(14)
H8B H -0.2139 1.2046 0.5689
C13B C -0.4010(2) 1.1580(2) 0.45412(16)
H9B H -0.4527 1.2023 0.4980
C14B C 0.2321(2) 1.3722(2) 0.42736(16)
H10B H 0.2935 1.4541 0.4669
C15B C 0.14772(19) 1.2964(2) 0.47870(14)
H11B H 0.1533 1.3262 0.5541
loop_
_geom_bond_atom_site_label_1
_geom_bond_atom_site_label_2
_geom_bond_site_symmetry_1
_geom_bond_site_symmetry_2
C1 H1 1_555 1_555
C2 C1 1_555 1_555
H2 C2 1_555 1_555
C3 C2 1_555 1_555
C4 C3 1_555 1_555
C5 C4 1_555 1_555
H3 C5 1_555 1_555
C6 H4 1_555 1_555
C7 C6 1_555 1_555
H5 C7 1_555 1_555
C8 C7 1_555 1_555
C9 C8 1_555 1_555
H6 C9 1_555 1_555
C10 C3 1_555 1_555
H7 C10 1_555 1_555
C11 C5 1_555 1_555
C12 C11 1_555 1_555
H8 C12 1_555 1_555
C13 C6 1_555 1_555
H9 C13 1_555 1_555
C14 C1 1_555 1_555
H10 C14 1_555 1_555
C15 C4 1_555 1_555
H11 C15 1_555 1_555
C1B H1B 1_555 1_555
C2B C1B 1_555 1_555
H2B C2B 1_555 1_555
C3B C2B 1_555 1_555
C4B C3B 1_555 1_555
C5B C5 1_555 1_555
H3B C5B 1_555 1_555
C6B H4B 1_555 1_555
C7B C6B 1_555 1_555
H5B C7B 1_555 1_555
C8B C7B 1_555 1_555
C9B C8B 1_555 1_555
H6B C9B 1_555 1_555
C10B C3B 1_555 1_555
H7B C10B 1_555 1_555
C11B C5B 1_555 1_555
C12B C11B 1_555 1_555
H8B C12B 1_555 1_555
C13B C6B 1_555 1_555
H9B C13B 1_555 1_555
C14B C1B 1_555 1_555
H10B C14B 1_555 1_555
C15B C4B 1_555 1_555
H11B C15B 1_555 1_555
C8 C11 1_555 1_555
C9 C10 1_555 1_555
C12 C13 1_555 1_555
C14 C15 1_555 1_555
C4B C5B 1_555 1_555
C8B C11B 1_555 1_555
C9B C10B 1_555 1_555
C12B C13B 1_555 1_555
C14B C15B 1_555 1_555

#END
