
#######################################################################
#
#                 Cambridge Crystallographic Data Centre
#                                CCDC 
#
#######################################################################
#
# If this CIF has been generated from an entry in the Cambridge 
# Structural Database, then it will include bibliographic, chemical, 
# crystal, experimental, refinement or atomic coordinate data resulting 
# from the CCDC's data processing and validation procedures.
#
#######################################################################

data_BADVEK
_chemical_formula_moiety         
'C12 H24 K1 O6 1+,C20 H40 K1 O8 1+,C50 H52 B2 2-,C4 H8 O1'
_chemical_name_systematic        
'(18-Crown-6)-potassium (18-crown-6)-bis(tetrahydrofuran)-potassium 9,10-bis(dimesitylboranylidene)anthracene tetrahydrofuran solvate'
_symmetry_cell_setting           orthorhombic
_symmetry_space_group_name_H-M   'P n a 21'
_symmetry_Int_Tables_number      33
_space_group_name_Hall           'P 2c -2n'
loop_
_symmetry_equiv_pos_site_id
_symmetry_equiv_pos_as_xyz
1 x,y,z
2 -x,-y,1/2+z
3 1/2-x,1/2+y,1/2+z
4 1/2+x,1/2-y,z
_cell_length_a                   31.8119(8)
_cell_length_b                   12.3010(4)
_cell_length_c                   21.5850(5)
_cell_angle_alpha                90
_cell_angle_beta                 90
_cell_angle_gamma                90
_cell_volume                     8446.6
_exptl_crystal_colour            red
_exptl_crystal_description       plate
_cell_formula_units_Z            4
loop_
_atom_site_label
_atom_site_type_symbol
_atom_site_fract_x
_atom_site_fract_y
_atom_site_fract_z
K1 K 0.52302(3) 0.44661(8) 0.48074(4)
O1 O 0.46274(12) 0.5584(4) 0.5618(2)
O2 O 0.46534(13) 0.5985(3) 0.4342(2)
O3 O 0.48756(11) 0.4389(3) 0.34980(16)
O4 O 0.53934(12) 0.2722(3) 0.39497(18)
O5 O 0.53585(11) 0.2280(3) 0.52233(19)
O6 O 0.51496(12) 0.3895(5) 0.60543(17)
C1 C 0.51807(19) 0.3869(5) 0.3133(2)
H1 H 0.5454 0.4245 0.3174
H2 H 0.5096 0.3882 0.2691
C2 C 0.5216(2) 0.2728(5) 0.3354(3)
H3 H 0.4935 0.2387 0.3365
H4 H 0.5396 0.2305 0.3067
C3 C 0.5406(2) 0.1656(4) 0.4192(3)
H5 H 0.5564 0.1175 0.3907
H6 H 0.5116 0.1368 0.4232
C4 C 0.56110(17) 0.1670(4) 0.4803(4)
H7 H 0.5645 0.0918 0.4958
H8 H 0.5893 0.2005 0.4769
C5 C 0.5527(2) 0.2269(7) 0.5831(3)
H9 H 0.5798 0.2662 0.5840
H10 H 0.5577 0.1510 0.5965
C6 C 0.5221(2) 0.2805(8) 0.6259(3)
H11 H 0.4953 0.2397 0.6261
H12 H 0.5335 0.2810 0.6686
C7 C 0.4862(2) 0.4476(11) 0.6431(3)
H13 H 0.4963 0.4485 0.6866
H14 H 0.4584 0.4118 0.6422
C8 C 0.4826(2) 0.5617(10) 0.6192(4)
H15 H 0.4661 0.6066 0.6484
H16 H 0.5109 0.5943 0.6149
C9 C 0.4602(2) 0.6650(6) 0.5347(4)
H17 H 0.4888 0.6953 0.5294
H18 H 0.4442 0.7140 0.5624
C10 C 0.4393(2) 0.6582(5) 0.4746(4)
H19 H 0.4118 0.6215 0.4791
H20 H 0.4344 0.7320 0.4578
C11 C 0.4512(2) 0.6002(6) 0.3725(3)
H21 H 0.4459 0.6759 0.3592
H22 H 0.4247 0.5585 0.3686
C12 C 0.4842(2) 0.5507(5) 0.3336(3)
H23 H 0.4768 0.5581 0.2893
H24 H 0.5114 0.5879 0.3407
B1 B 0.61289(15) 0.7807(5) 0.6197(2)
B2 B 0.60014(15) 0.7948(4) 0.3669(2)
C13 C 0.59117(12) 0.7490(4) 0.56149(19)
C14 C 0.59922(12) 0.6515(4) 0.52346(19)
C15 C 0.61210(12) 0.5512(4) 0.5479(2)
H25 H 0.6155 0.5445 0.5937
C16 C 0.62075(13) 0.4603(4) 0.5109(2)
H26 H 0.6355 0.3961 0.5292
C17 C 0.61582(13) 0.4676(4) 0.4470(2)
H27 H 0.6291 0.4117 0.4196
C18 C 0.60235(13) 0.5659(4) 0.42145(19)
H28 H 0.6033 0.5741 0.3754
C19 C 0.59494(12) 0.6588(4) 0.4572(2)
C20 C 0.58206(13) 0.7614(3) 0.42735(19)
C21 C 0.55378(12) 0.8262(4) 0.4672(2)
C22 C 0.52052(14) 0.8910(4) 0.4442(2)
H29 H 0.5165 0.8958 0.4007
C23 C 0.49344(13) 0.9480(4) 0.4832(2)
H30 H 0.4710 0.9894 0.4664
C24 C 0.49942(13) 0.9441(4) 0.5461(2)
H31 H 0.4819 0.9850 0.5731
C25 C 0.53135(13) 0.8800(4) 0.5699(2)
H32 H 0.5346 0.8761 0.6136
C26 C 0.55886(12) 0.8208(4) 0.5327(2)
C27 C 0.61301(13) 0.9049(4) 0.6452(2)
C28 C 0.63175(15) 0.9918(4) 0.6122(2)
C29 C 0.63704(16) 1.0940(5) 0.6400(3)
H33 H 0.6516 1.1490 0.6177
C30 C 0.62193(18) 1.1179(5) 0.6986(3)
C31 C 0.60068(17) 1.0365(5) 0.7285(3)
H34 H 0.5885 1.0525 0.7677
C32 C 0.59586(14) 0.9315(5) 0.7050(2)
C33 C 0.64510(16) 0.9796(4) 0.5457(2)
H35 H 0.6513 1.0514 0.5283
H36 H 0.6224 0.9455 0.5220
H37 H 0.6703 0.9339 0.5436
C34 C 0.6271(2) 1.2308(6) 0.7264(4)
H38 H 0.5997 1.2577 0.7404
H39 H 0.6385 1.2802 0.6949
H40 H 0.6464 1.2273 0.7617
C35 C 0.57044(16) 0.8521(5) 0.7399(2)
H41 H 0.5593 0.8865 0.7774
H42 H 0.5881 0.7899 0.7515
H43 H 0.5471 0.8270 0.7140
C36 C 0.64284(13) 0.7014(4) 0.6618(2)
C37 C 0.68700(14) 0.7174(4) 0.6657(2)
C38 C 0.71151(15) 0.6563(5) 0.7061(2)
H44 H 0.7409 0.6695 0.7077
C39 C 0.69456(16) 0.5769(5) 0.7441(2)
C40 C 0.65205(17) 0.5584(4) 0.7398(2)
H45 H 0.6397 0.5033 0.7647
C41 C 0.62631(14) 0.6187(4) 0.6995(2)
C42 C 0.70822(14) 0.7995(5) 0.6243(3)
H46 H 0.7001 0.8731 0.6370
H47 H 0.6996 0.7873 0.5813
H48 H 0.7388 0.7916 0.6277
C43 C 0.58057(16) 0.5881(5) 0.6995(3)
H49 H 0.5774 0.5138 0.6837
H50 H 0.5649 0.6384 0.6729
H51 H 0.5696 0.5921 0.7418
C44 C 0.7219(2) 0.5108(6) 0.7880(3)
H52 H 0.7071 0.5007 0.8274
H53 H 0.7484 0.5494 0.7954
H54 H 0.7278 0.4396 0.7696
C45 C 0.58579(13) 0.8985(4) 0.32424(19)
C46 C 0.54847(13) 0.8972(4) 0.2881(2)
C47 C 0.54045(14) 0.9792(4) 0.2443(2)
H55 H 0.5153 0.9756 0.2206
C48 C 0.56752(14) 1.0644(3) 0.23451(18)
C49 C 0.60342(14) 1.0686(4) 0.2717(2)
H56 H 0.6224 1.1276 0.2667
C50 C 0.61228(13) 0.9890(3) 0.31579(18)
C51 C 0.65100(15) 1.0051(4) 0.3553(2)
H57 H 0.6730 0.9545 0.3419
H58 H 0.6440 0.9912 0.3988
H59 H 0.6611 1.0800 0.3507
C52 C 0.51611(14) 0.8094(4) 0.2945(2)
H60 H 0.4886 0.8423 0.3030
H61 H 0.5239 0.7611 0.3288
H62 H 0.5146 0.7675 0.2560
C53 C 0.55971(16) 1.1497(4) 0.1857(2)
H63 H 0.5738 1.1285 0.1471
H64 H 0.5709 1.2197 0.1998
H65 H 0.5294 1.1564 0.1783
C54 C 0.64157(13) 0.7380(3) 0.33694(19)
C55 C 0.64147(14) 0.6915(4) 0.2773(2)
C56 C 0.67837(15) 0.6569(4) 0.2484(2)
H66 H 0.6768 0.6251 0.2084
C57 C 0.71744(15) 0.6679(5) 0.2771(2)
C58 C 0.71807(14) 0.7095(4) 0.3362(2)
H67 H 0.7443 0.7162 0.3568
C59 C 0.68171(13) 0.7421(4) 0.3670(2)
C60 C 0.68638(14) 0.7794(4) 0.4334(2)
H68 H 0.6836 0.7169 0.4612
H69 H 0.6645 0.8329 0.4430
H70 H 0.7141 0.8127 0.4391
C61 C 0.60057(15) 0.6715(4) 0.2432(2)
H71 H 0.5882 0.7412 0.2310
H72 H 0.5810 0.6325 0.2703
H73 H 0.6061 0.6277 0.2061
C62 C 0.75726(17) 0.6325(6) 0.2433(3)
H74 H 0.7681 0.6933 0.2187
H75 H 0.7508 0.5712 0.2159
H76 H 0.7785 0.6102 0.2737
K2 K 0.31875(3) 0.14198(8) 0.49509(4)
O7 O 0.28973(10) 0.0521(3) 0.60655(16)
O8 O 0.36593(10) 0.1709(3) 0.60404(15)
O9 O 0.39823(10) 0.2316(3) 0.48771(16)
O10 O 0.34571(11) 0.2417(3) 0.38377(15)
O11 O 0.27805(10) 0.0952(3) 0.38402(16)
O12 O 0.23847(10) 0.0538(3) 0.49792(17)
C63 C 0.40878(15) 0.1667(6) 0.5891(2)
H77 H 0.4157 0.0953 0.5705
H78 H 0.4259 0.1757 0.6271
C64 C 0.41866(17) 0.2561(7) 0.5440(2)
H79 H 0.4086 0.3267 0.5603
H80 H 0.4494 0.2610 0.5375
C65 C 0.4024(2) 0.3148(6) 0.4422(3)
H81 H 0.4320 0.3395 0.4399
H82 H 0.3846 0.3779 0.4532
C66 C 0.38896(17) 0.2691(6) 0.3809(2)
H83 H 0.3937 0.3235 0.3478
H84 H 0.4057 0.2036 0.3710
C67 C 0.33294(15) 0.1845(5) 0.3300(2)
H85 H 0.3482 0.1146 0.3274
H86 H 0.3398 0.2277 0.2927
C68 C 0.28714(16) 0.1641(5) 0.3326(2)
H87 H 0.2719 0.2338 0.3371
H88 H 0.2778 0.1289 0.2937
C69 C 0.23461(14) 0.0692(5) 0.3881(3)
H89 H 0.2254 0.0317 0.3499
H90 H 0.2179 0.1365 0.3928
C70 C 0.22800(16) -0.0034(4) 0.4433(3)
H91 H 0.1983 -0.0270 0.4451
H92 H 0.2459 -0.0690 0.4395
C71 C 0.22926(15) -0.0061(5) 0.5529(3)
H93 H 0.2430 -0.0783 0.5512
H94 H 0.1985 -0.0174 0.5565
C72 C 0.24497(16) 0.0558(5) 0.6076(3)
H95 H 0.2352 0.1321 0.6056
H96 H 0.2343 0.0228 0.6463
C73 C 0.30810(18) 0.0993(5) 0.6602(2)
H97 H 0.2999 0.0576 0.6975
H98 H 0.2982 0.1751 0.6652
C74 C 0.35471(17) 0.0974(5) 0.6525(2)
H99 H 0.3685 0.1195 0.6916
H100 H 0.3641 0.0230 0.6420
O13 O 0.35793(11) -0.0588(3) 0.4746(3)
C75 C 0.34448(19) -0.1360(3) 0.5193(2)
H101 H 0.3205 -0.1066 0.5432
H102 H 0.3677 -0.1524 0.5484
C76 C 0.33218(17) -0.2318(3) 0.4874(4)
H103 H 0.3495 -0.2942 0.5012
H104 H 0.3023 -0.2484 0.4961
C77 C 0.33803(19) -0.2138(4) 0.4230(3)
H105 H 0.3110 -0.2218 0.4008
H106 H 0.3581 -0.2675 0.4060
C78 C 0.3539(2) -0.1069(4) 0.4151(2)
H107 H 0.3345 -0.0636 0.3891
H108 H 0.3817 -0.1093 0.3942
O14 O 0.27717(18) 0.3262(3) 0.5355(3)
C79 C 0.23562(17) 0.3436(4) 0.5204(4)
H109 H 0.2203 0.3878 0.5493
H110 H 0.2203 0.2795 0.5090
C80 C 0.2549(3) 0.4055(4) 0.4663(3)
H111 H 0.2328 0.4368 0.4394
H112 H 0.2731 0.3574 0.4411
C81 C 0.2823(2) 0.5006(3) 0.4989(4)
H113 H 0.2655 0.5655 0.5100
H114 H 0.3076 0.5216 0.4750
C82 C 0.2931(2) 0.4199(3) 0.5600(4)
H115 H 0.3236 0.4147 0.5685
H116 H 0.2780 0.4428 0.5980
O15 O 0.39120(13) 0.6044(4) 0.7177(2)
C83 C 0.3627(2) 0.6220(5) 0.7676(3)
H117 H 0.3744 0.6760 0.7969
H118 H 0.3578 0.5532 0.7903
C84 C 0.32216(19) 0.6630(7) 0.7409(3)
H119 H 0.3123 0.7286 0.7632
H120 H 0.3000 0.6066 0.7429
C85 C 0.3333(2) 0.6896(8) 0.6745(3)
H121 H 0.3431 0.7655 0.6702
H122 H 0.3091 0.6774 0.6465
C86 C 0.36841(19) 0.6090(6) 0.6623(3)
H123 H 0.3569 0.5366 0.6517
H124 H 0.3865 0.6342 0.6278
loop_
_geom_bond_atom_site_label_1
_geom_bond_atom_site_label_2
_geom_bond_site_symmetry_1
_geom_bond_site_symmetry_2
K1 O1 1_555 1_555
O1 C8 1_555 1_555
O2 K1 1_555 1_555
O3 K1 1_555 1_555
O4 K1 1_555 1_555
O5 K1 1_555 1_555
O6 K1 1_555 1_555
C1 O3 1_555 1_555
H1 C1 1_555 1_555
H2 C1 1_555 1_555
C2 O4 1_555 1_555
H3 C2 1_555 1_555
H4 C2 1_555 1_555
C3 O4 1_555 1_555
H5 C3 1_555 1_555
H6 C3 1_555 1_555
C4 O5 1_555 1_555
H7 C4 1_555 1_555
H8 C4 1_555 1_555
C5 O5 1_555 1_555
H9 C5 1_555 1_555
H10 C5 1_555 1_555
C6 O6 1_555 1_555
H11 C6 1_555 1_555
H12 C6 1_555 1_555
C7 O6 1_555 1_555
H13 C7 1_555 1_555
H14 C7 1_555 1_555
C8 C7 1_555 1_555
H15 C8 1_555 1_555
H16 C8 1_555 1_555
C9 O1 1_555 1_555
H17 C9 1_555 1_555
H18 C9 1_555 1_555
C10 O2 1_555 1_555
H19 C10 1_555 1_555
H20 C10 1_555 1_555
C11 O2 1_555 1_555
H21 C11 1_555 1_555
H22 C11 1_555 1_555
C12 O3 1_555 1_555
H23 C12 1_555 1_555
H24 C12 1_555 1_555
B1 C13 1_555 1_555
B2 C20 1_555 1_555
C13 C14 1_555 1_555
C14 C15 1_555 1_555
C15 H25 1_555 1_555
C16 C15 1_555 1_555
H26 C16 1_555 1_555
C17 C16 1_555 1_555
H27 C17 1_555 1_555
C18 C17 1_555 1_555
H28 C18 1_555 1_555
C19 C14 1_555 1_555
C20 C19 1_555 1_555
C21 C20 1_555 1_555
C22 C21 1_555 1_555
H29 C22 1_555 1_555
C23 C22 1_555 1_555
H30 C23 1_555 1_555
C24 C23 1_555 1_555
H31 C24 1_555 1_555
C25 C24 1_555 1_555
H32 C25 1_555 1_555
C26 C13 1_555 1_555
C27 B1 1_555 1_555
C28 C27 1_555 1_555
C29 C28 1_555 1_555
H33 C29 1_555 1_555
C30 C29 1_555 1_555
C31 C30 1_555 1_555
H34 C31 1_555 1_555
C32 C27 1_555 1_555
C33 C28 1_555 1_555
H35 C33 1_555 1_555
H36 C33 1_555 1_555
H37 C33 1_555 1_555
C34 C30 1_555 1_555
H38 C34 1_555 1_555
H39 C34 1_555 1_555
H40 C34 1_555 1_555
C35 C32 1_555 1_555
H41 C35 1_555 1_555
H42 C35 1_555 1_555
H43 C35 1_555 1_555
C36 B1 1_555 1_555
C37 C36 1_555 1_555
C38 C37 1_555 1_555
H44 C38 1_555 1_555
C39 C38 1_555 1_555
C40 C39 1_555 1_555
H45 C40 1_555 1_555
C41 C36 1_555 1_555
C42 C37 1_555 1_555
H46 C42 1_555 1_555
H47 C42 1_555 1_555
H48 C42 1_555 1_555
C43 C41 1_555 1_555
H49 C43 1_555 1_555
H50 C43 1_555 1_555
H51 C43 1_555 1_555
C44 C39 1_555 1_555
H52 C44 1_555 1_555
H53 C44 1_555 1_555
H54 C44 1_555 1_555
C45 B2 1_555 1_555
C46 C45 1_555 1_555
C47 C46 1_555 1_555
H55 C47 1_555 1_555
C48 C47 1_555 1_555
C49 C48 1_555 1_555
H56 C49 1_555 1_555
C50 C45 1_555 1_555
C51 C50 1_555 1_555
H57 C51 1_555 1_555
H58 C51 1_555 1_555
H59 C51 1_555 1_555
C52 C46 1_555 1_555
H60 C52 1_555 1_555
H61 C52 1_555 1_555
H62 C52 1_555 1_555
C53 C48 1_555 1_555
H63 C53 1_555 1_555
H64 C53 1_555 1_555
H65 C53 1_555 1_555
C54 B2 1_555 1_555
C55 C54 1_555 1_555
C56 C55 1_555 1_555
H66 C56 1_555 1_555
C57 C56 1_555 1_555
C58 C57 1_555 1_555
H67 C58 1_555 1_555
C59 C54 1_555 1_555
C60 C59 1_555 1_555
H68 C60 1_555 1_555
H69 C60 1_555 1_555
H70 C60 1_555 1_555
C61 C55 1_555 1_555
H71 C61 1_555 1_555
H72 C61 1_555 1_555
H73 C61 1_555 1_555
C62 C57 1_555 1_555
H74 C62 1_555 1_555
H75 C62 1_555 1_555
H76 C62 1_555 1_555
K2 O7 1_555 1_555
O7 C72 1_555 1_555
O8 K2 1_555 1_555
O9 K2 1_555 1_555
O10 K2 1_555 1_555
O11 K2 1_555 1_555
O12 K2 1_555 1_555
C63 O8 1_555 1_555
H77 C63 1_555 1_555
H78 C63 1_555 1_555
C64 O9 1_555 1_555
H79 C64 1_555 1_555
H80 C64 1_555 1_555
C65 O9 1_555 1_555
H81 C65 1_555 1_555
H82 C65 1_555 1_555
C66 O10 1_555 1_555
H83 C66 1_555 1_555
H84 C66 1_555 1_555
C67 O10 1_555 1_555
H85 C67 1_555 1_555
H86 C67 1_555 1_555
C68 O11 1_555 1_555
H87 C68 1_555 1_555
H88 C68 1_555 1_555
C69 O11 1_555 1_555
H89 C69 1_555 1_555
H90 C69 1_555 1_555
C70 O12 1_555 1_555
H91 C70 1_555 1_555
H92 C70 1_555 1_555
C71 O12 1_555 1_555
H93 C71 1_555 1_555
H94 C71 1_555 1_555
C72 C71 1_555 1_555
H95 C72 1_555 1_555
H96 C72 1_555 1_555
C73 O7 1_555 1_555
H97 C73 1_555 1_555
H98 C73 1_555 1_555
C74 O8 1_555 1_555
H99 C74 1_555 1_555
H100 C74 1_555 1_555
O13 K2 1_555 1_555
C75 O13 1_555 1_555
H101 C75 1_555 1_555
H102 C75 1_555 1_555
C76 C75 1_555 1_555
H103 C76 1_555 1_555
H104 C76 1_555 1_555
C77 C76 1_555 1_555
H105 C77 1_555 1_555
H106 C77 1_555 1_555
C78 O13 1_555 1_555
H107 C78 1_555 1_555
H108 C78 1_555 1_555
O14 K2 1_555 1_555
C79 O14 1_555 1_555
H109 C79 1_555 1_555
H110 C79 1_555 1_555
C80 C79 1_555 1_555
H111 C80 1_555 1_555
H112 C80 1_555 1_555
C81 C80 1_555 1_555
H113 C81 1_555 1_555
H114 C81 1_555 1_555
C82 O14 1_555 1_555
H115 C82 1_555 1_555
H116 C82 1_555 1_555
O15 C83 1_555 1_555
C83 H117 1_555 1_555
H118 C83 1_555 1_555
C84 C83 1_555 1_555
H119 C84 1_555 1_555
H120 C84 1_555 1_555
C85 C84 1_555 1_555
H121 C85 1_555 1_555
H122 C85 1_555 1_555
C86 O15 1_555 1_555
H123 C86 1_555 1_555
H124 C86 1_555 1_555
C1 C2 1_555 1_555
C3 C4 1_555 1_555
C5 C6 1_555 1_555
C9 C10 1_555 1_555
C11 C12 1_555 1_555
C18 C19 1_555 1_555
C21 C26 1_555 1_555
C25 C26 1_555 1_555
C31 C32 1_555 1_555
C40 C41 1_555 1_555
C49 C50 1_555 1_555
C58 C59 1_555 1_555
C63 C64 1_555 1_555
C65 C66 1_555 1_555
C67 C68 1_555 1_555
C69 C70 1_555 1_555
C73 C74 1_555 1_555
C77 C78 1_555 1_555
C81 C82 1_555 1_555
C85 C86 1_555 1_555

#END
