
#######################################################################
#
#                 Cambridge Crystallographic Data Centre
#                                CCDC 
#
#######################################################################
#
# If this CIF has been generated from an entry in the Cambridge 
# Structural Database, then it will include bibliographic, chemical, 
# crystal, experimental, refinement or atomic coordinate data resulting 
# from the CCDC's data processing and validation procedures.
#
#######################################################################

data_BAFMAZ
_chemical_formula_moiety         'C5 H9 N2 1+,I1 1-'
_chemical_name_systematic        '1,3-Dimethyl-1H-imidazolium iodide'
_symmetry_cell_setting           orthorhombic
_symmetry_space_group_name_H-M   'P b c a'
_symmetry_Int_Tables_number      61
_space_group_name_Hall           '-P 2ac 2ab'
loop_
_symmetry_equiv_pos_site_id
_symmetry_equiv_pos_as_xyz
1 x,y,z
2 1/2-x,-y,1/2+z
3 1/2+x,1/2-y,-z
4 -x,1/2+y,1/2-z
5 -x,-y,-z
6 1/2+x,y,1/2-z
7 1/2-x,1/2+y,z
8 x,1/2-y,1/2+z
_cell_length_a                   10.4779(4)
_cell_length_b                   8.9474(4)
_cell_length_c                   16.9010(7)
_cell_angle_alpha                90
_cell_angle_beta                 90
_cell_angle_gamma                90
_cell_volume                     1584.47
_exptl_crystal_colour            colorless
_exptl_crystal_description       block
_cell_formula_units_Z            8
_chemical_properties_physical    Hygroscropic
_exptl_crystal_recrystallization_method acetonitrile
loop_
_atom_site_label
_atom_site_type_symbol
_atom_site_fract_x
_atom_site_fract_y
_atom_site_fract_z
C1 C 0.57347(17) 0.4713(2) 0.64691(11)
H1 H 0.5178 0.4882 0.6904
C2 C 0.65141(19) 0.3903(2) 0.53406(12)
H2 H 0.6592 0.3397 0.4849
C3 C 0.73934(19) 0.4804(2) 0.56777(11)
H3 H 0.8206 0.5053 0.5466
C4 C 0.43345(18) 0.2941(3) 0.57381(14)
H4 H 0.4472 0.1954 0.5974
H5 H 0.4157 0.2829 0.5172
H6 H 0.3608 0.3428 0.5997
C5 C 0.7514(2) 0.6295(2) 0.69513(12)
H7 H 0.7221 0.7321 0.6861
H8 H 0.8441 0.6247 0.6882
H9 H 0.7293 0.5987 0.7491
N1 N 0.54831(15) 0.38584(18) 0.58457(10)
N2 N 0.68955(15) 0.52932(18) 0.63839(9)
I1 I 0.56785(2) 0.13953(2) 0.35580(2)
loop_
_geom_bond_atom_site_label_1
_geom_bond_atom_site_label_2
_geom_bond_site_symmetry_1
_geom_bond_site_symmetry_2
C1 H1 1_555 1_555
C2 H2 1_555 1_555
C3 C2 1_555 1_555
H3 C3 1_555 1_555
C4 H4 1_555 1_555
H5 C4 1_555 1_555
H6 C4 1_555 1_555
C5 H7 1_555 1_555
H8 C5 1_555 1_555
H9 C5 1_555 1_555
N1 C1 1_555 1_555
N2 C1 1_555 1_555
C2 N1 1_555 1_555
C3 N2 1_555 1_555
C4 N1 1_555 1_555
C5 N2 1_555 1_555

#END
