
#######################################################################
#
#                 Cambridge Crystallographic Data Centre
#                                CCDC 
#
#######################################################################
#
# If this CIF has been generated from an entry in the Cambridge 
# Structural Database, then it will include bibliographic, chemical, 
# crystal, experimental, refinement or atomic coordinate data resulting 
# from the CCDC's data processing and validation procedures.
#
#######################################################################

data_BAFNED
_chemical_formula_moiety         'C11 H17 N2 O1 S1 1+,Br1 1-'
_chemical_name_systematic        
'6-Ethyl-3,3,7-trimethyl-5-oxo-2,3-dihydro-5H-[1,3]thiazolo[3,2-a]pyrimidin-8-ium bromide'
_symmetry_cell_setting           monoclinic
_symmetry_space_group_name_H-M   'P 21/c'
_symmetry_Int_Tables_number      14
_space_group_name_Hall           '-P 2ybc'
loop_
_symmetry_equiv_pos_site_id
_symmetry_equiv_pos_as_xyz
1 x,y,z
2 -x,1/2+y,1/2-z
3 -x,-y,-z
4 x,1/2-y,1/2+z
_cell_length_a                   5.8883(6)
_cell_length_b                   9.6879(7)
_cell_length_c                   23.690(4)
_cell_angle_alpha                90
_cell_angle_beta                 94.601(10)
_cell_angle_gamma                90
_cell_volume                     1347.05
_exptl_crystal_colour            colorless
_exptl_crystal_description       needle
_chemical_melting_point          '165deg. C'
_cell_formula_units_Z            4
loop_
_atom_site_label
_atom_site_type_symbol
_atom_site_fract_x
_atom_site_fract_y
_atom_site_fract_z
Br1 Br 0.13615(9) 0.76606(5) 0.06060(3)
S1 S -0.7511(2) 1.38135(13) 0.03799(6)
N1 N -0.4988(6) 1.5486(3) 0.10688(16)
H1 H -0.5694 1.6156 0.0893
O1 O -0.1832(5) 1.2350(3) 0.18571(15)
C1 C -0.5407(7) 1.4219(4) 0.0891(2)
C2 C -0.2709(7) 1.3347(4) 0.1622(2)
C3 C -0.6607(7) 1.1199(5) 0.1365(2)
H2 H -0.7816 1.1842 0.1414
H3 H -0.5724 1.1069 0.1719
H4 H -0.7242 1.0331 0.1236
N2 N -0.4247(5) 1.3157(3) 0.11388(16)
C4 C -0.3133(7) 1.0778(4) 0.0832(2)
H5 H -0.2300 1.0566 0.1186
H6 H -0.2137 1.1216 0.0585
H7 H -0.3726 0.9941 0.0660
C5 C -0.0676(7) 1.4960(5) 0.2318(2)
H8 H -0.1009 1.5823 0.2502
H9 H -0.0854 1.4217 0.2585
C6 C -0.5106(7) 1.1752(4) 0.0935(2)
C7 C -0.2336(7) 1.4759(4) 0.1807(2)
C8 C -0.3463(7) 1.5784(4) 0.1525(2)
C9 C -0.3245(10) 1.7297(4) 0.1662(3)
H10 H -0.2184 1.7420 0.1988
H11 H -0.4706 1.7656 0.1742
H12 H -0.2708 1.7780 0.1345
C10 C -0.6420(8) 1.2062(4) 0.0369(2)
H13 H -0.7672 1.1417 0.0304
H14 H -0.5424 1.1962 0.0065
C11 C 0.1698(8) 1.4983(6) 0.2159(2)
H15 H 0.2716 1.5108 0.2492
H16 H 0.1885 1.5731 0.1901
H17 H 0.2036 1.4126 0.1980
loop_
_geom_bond_atom_site_label_1
_geom_bond_atom_site_label_2
_geom_bond_site_symmetry_1
_geom_bond_site_symmetry_2
S1 C1 1_555 1_555
N1 H1 1_555 1_555
O1 C2 1_555 1_555
C1 N1 1_555 1_555
C2 N2 1_555 1_555
C3 H2 1_555 1_555
H3 C3 1_555 1_555
H4 C3 1_555 1_555
N2 C1 1_555 1_555
C4 H5 1_555 1_555
H6 C4 1_555 1_555
H7 C4 1_555 1_555
C5 H8 1_555 1_555
H9 C5 1_555 1_555
C6 C3 1_555 1_555
C7 C2 1_555 1_555
C8 N1 1_555 1_555
C9 C8 1_555 1_555
H10 C9 1_555 1_555
H11 C9 1_555 1_555
H12 C9 1_555 1_555
C10 S1 1_555 1_555
H13 C10 1_555 1_555
H14 C10 1_555 1_555
C11 C5 1_555 1_555
H15 C11 1_555 1_555
H16 C11 1_555 1_555
H17 C11 1_555 1_555
N2 C6 1_555 1_555
C4 C6 1_555 1_555
C5 C7 1_555 1_555
C6 C10 1_555 1_555
C7 C8 1_555 1_555

#END
