
#######################################################################
#
#                 Cambridge Crystallographic Data Centre
#                                CCDC 
#
#######################################################################
#
# If this CIF has been generated from an entry in the Cambridge 
# Structural Database, then it will include bibliographic, chemical, 
# crystal, experimental, refinement or atomic coordinate data resulting 
# from the CCDC's data processing and validation procedures.
#
#######################################################################

data_BAFSOR
_chemical_formula_moiety         'C19 H24 N2 O7'
_chemical_name_systematic        
(5R,1'R,2'S)-5-(1'-Benzyloxy-2'-hydroxypropyl)-1-(1'',2''-dimethoxycarbonylethylidene)pyrazolidin-3-one
_symmetry_cell_setting           orthorhombic
_symmetry_space_group_name_H-M   'P 21 21 21'
_symmetry_Int_Tables_number      19
_space_group_name_Hall           'P 2ac 2ab'
loop_
_symmetry_equiv_pos_site_id
_symmetry_equiv_pos_as_xyz
1 x,y,z
2 1/2-x,-y,1/2+z
3 1/2+x,1/2-y,-z
4 -x,1/2+y,1/2-z
_cell_length_a                   8.4550(2)
_cell_length_b                   13.0770(3)
_cell_length_c                   18.0980(7)
_cell_angle_alpha                90
_cell_angle_beta                 90
_cell_angle_gamma                90
_cell_volume                     2001.02
_exptl_crystal_colour            colorless
_exptl_crystal_description       block
_chemical_melting_point          135-137deg.C
_cell_formula_units_Z            4
loop_
_atom_site_label
_atom_site_type_symbol
_atom_site_fract_x
_atom_site_fract_y
_atom_site_fract_z
N1 N 0.0349(3) 0.8718(2) -0.02798(18)
N2 N -0.1134(3) 0.8790(2) 0.0007(2)
C1 C -0.1050(4) 0.8573(3) 0.0738(3)
C2 C 0.0588(4) 0.8274(3) 0.0965(2)
H1 H 0.0664 0.7541 0.1040
H2 H 0.0897 0.8620 0.1417
C3 C 0.1611(3) 0.8615(2) 0.0317(2)
H3 H 0.2376 0.8082 0.0185
C4 C 0.2455(4) 0.9638(2) 0.04565(18)
H4 H 0.2912 0.9896 -0.0005
C5 C 0.3769(4) 0.9482(3) 0.1037(2)
O1 O 0.4635(3) 0.8601(2) 0.0844(2)
H6 H 0.4107 0.8247 0.0563
C6 C 0.4804(5) 1.0419(3) 0.1087(3)
H7 H 0.5331 1.0524 0.0623
H8 H 0.5577 1.0324 0.1469
H9 H 0.4164 1.1004 0.1200
C7 C 0.0885(6) 1.1142(3) 0.0248(2)
H10 H 0.0186 1.0849 -0.0120
H11 H 0.1793 1.1434 -0.0002
C8 C 0.0031(4) 1.1954(2) 0.0681(2)
C9 C 0.0530(5) 1.2954(3) 0.0650(3)
H12 H 0.1383 1.3131 0.0352
C10 C -0.0240(7) 1.3708(3) 0.1065(3)
H13 H 0.0104 1.4383 0.1051
C11 C -0.1515(8) 1.3434(4) 0.1494(3)
H14 H -0.2050 1.3927 0.1767
C12 C -0.1996(6) 1.2437(5) 0.1519(4)
H15 H -0.2857 1.2256 0.1810
C13 C -0.1228(5) 1.1707(3) 0.1122(3)
H16 H -0.1564 1.1030 0.1150
C14 C 0.0569(4) 0.8709(3) -0.0993(3)
C15 C 0.2180(5) 0.8705(3) -0.1313(2)
C16 C 0.3573(8) 0.8584(5) -0.2432(3)
H17 H 0.4182 0.8019 -0.2247
H18 H 0.4146 0.9208 -0.2354
H19 H 0.3384 0.8492 -0.2951
C17 C -0.0848(5) 0.8678(3) -0.1495(3)
H20 H -0.0598 0.8227 -0.1904
H21 H -0.1710 0.8364 -0.1223
C18 C -0.1430(5) 0.9634(3) -0.1802(2)
C19 C -0.10512(15) 1.13891(9) -0.19940(8)
H22 H -0.2143 1.1342 -0.2136
H23 H -0.0415 1.1519 -0.2423
H24 H -0.0922 1.1938 -0.1647
O2 O -0.22174(16) 0.85816(11) 0.11471(10)
O3 O 0.13831(18) 1.03731(9) 0.07561(7)
O4 O 0.34052(15) 0.87645(10) -0.09843(8)
O5 O 0.2102(2) 0.86301(10) -0.20512(7)
O6 O -0.2573(2) 0.96716(9) -0.21754(13)
O7 O -0.05603(15) 1.04378(9) -0.16564(8)
H5? H 0.573(6) 0.859(4) 0.092(3)
loop_
_geom_bond_atom_site_label_1
_geom_bond_atom_site_label_2
_geom_bond_site_symmetry_1
_geom_bond_site_symmetry_2
N1 N2 1_555 1_555
N2 C1 1_555 1_555
C1 C2 1_555 1_555
C2 H1 1_555 1_555
H2 C2 1_555 1_555
C3 N1 1_555 1_555
H3 C3 1_555 1_555
C4 C3 1_555 1_555
H4 C4 1_555 1_555
C5 C4 1_555 1_555
O1 C5 1_555 1_555
H6 O1 1_555 1_555
C6 C5 1_555 1_555
H7 C6 1_555 1_555
H8 C6 1_555 1_555
H9 C6 1_555 1_555
C7 H10 1_555 1_555
H11 C7 1_555 1_555
C8 C7 1_555 1_555
C9 C8 1_555 1_555
H12 C9 1_555 1_555
C10 C9 1_555 1_555
H13 C10 1_555 1_555
C11 C10 1_555 1_555
H14 C11 1_555 1_555
C12 C11 1_555 1_555
H15 C12 1_555 1_555
C13 C8 1_555 1_555
H16 C13 1_555 1_555
C14 N1 1_555 1_555
C15 C14 1_555 1_555
C16 H17 1_555 1_555
H18 C16 1_555 1_555
H19 C16 1_555 1_555
C17 C14 1_555 1_555
H20 C17 1_555 1_555
H21 C17 1_555 1_555
C18 C17 1_555 1_555
C19 H22 1_555 1_555
H23 C19 1_555 1_555
H24 C19 1_555 1_555
O2 C1 1_555 1_555
O3 C4 1_555 1_555
O4 C15 1_555 1_555
O5 C15 1_555 1_555
O6 C18 1_555 1_555
O7 C18 1_555 1_555
C2 C3 1_555 1_555
C7 O3 1_555 1_555
C12 C13 1_555 1_555
C16 O5 1_555 1_555
C19 O7 1_555 1_555

#END
