
#######################################################################
#
#                 Cambridge Crystallographic Data Centre
#                                CCDC 
#
#######################################################################
#
# If this CIF has been generated from an entry in the Cambridge 
# Structural Database, then it will include bibliographic, chemical, 
# crystal, experimental, refinement or atomic coordinate data resulting 
# from the CCDC's data processing and validation procedures.
#
#######################################################################

data_BAFTIM
_chemical_formula_moiety         'C20 H26 N2 O12'
_chemical_name_systematic        
(3S,4R,5R,5aS,7S,8R,8aR)-8-Acetoxy-3,4,5,5a-tetramethoxycarbonyl-7-methyl-6-oxa-2a,8b-diazaperhydroacenaphthylen-2-one
_symmetry_cell_setting           orthorhombic
_symmetry_space_group_name_H-M   'P 21 21 21'
_symmetry_Int_Tables_number      19
_space_group_name_Hall           'P 2ac 2ab'
loop_
_symmetry_equiv_pos_site_id
_symmetry_equiv_pos_as_xyz
1 x,y,z
2 1/2-x,-y,1/2+z
3 1/2+x,1/2-y,-z
4 -x,1/2+y,1/2-z
_cell_length_a                   8.5990(2)
_cell_length_b                   8.9180(2)
_cell_length_c                   29.1620(6)
_cell_angle_alpha                90
_cell_angle_beta                 90
_cell_angle_gamma                90
_cell_volume                     2236.31
_exptl_crystal_colour            colorless
_exptl_crystal_description       needle
_chemical_melting_point          181-183deg.C
_cell_formula_units_Z            4
loop_
_atom_site_label
_atom_site_type_symbol
_atom_site_fract_x
_atom_site_fract_y
_atom_site_fract_z
C1 C 0.3857(4) -0.0157(3) 0.24672(12)
H1 H 0.4953 -0.0355 0.2518
H2 H 0.3385 0.0141 0.2755
C2 C 0.3064(4) -0.1500(4) 0.22743(11)
O1 O 0.2765(3) -0.2674(3) 0.24622(9)
N1 N 0.2705(3) -0.1183(3) 0.18223(8)
C3 C 0.2670(4) -0.2347(3) 0.14754(11)
H3 H 0.2063 -0.3192 0.1595
C4 C 0.1791(4) -0.1678(3) 0.10655(11)
H4 H 0.0759 -0.1385 0.1177
C5 C 0.2588(4) -0.0247(3) 0.08942(10)
H5 H 0.3601 -0.0550 0.0771
C6 C 0.2917(3) 0.0894(3) 0.12841(11)
O2 O 0.1515(3) 0.1645(2) 0.13771(7)
C7 C 0.1638(4) 0.2746(3) 0.17427(12)
H6 H 0.2429 0.3490 0.1660
C8 C 0.2141(4) 0.1939(4) 0.21727(11)
H7 H 0.1308 0.1280 0.2282
C9 C 0.3637(4) 0.1048(4) 0.21055(10)
H8 H 0.4534 0.1726 0.2103
N2 N 0.3614(3) 0.0128(3) 0.16755(9)
C10 C 0.4323(4) -0.2892(4) 0.13835(12)
C11 C 0.6297(5) -0.3304(6) 0.08380(17)
H9 H 0.6994 -0.2682 0.1011
H10 H 0.6470 -0.3146 0.0516
H11 H 0.6483 -0.4338 0.0912
C12 C 0.1541(4) -0.2781(4) 0.06795(13)
C13 C 0.0418(6) -0.5127(5) 0.04961(17)
H12 H -0.0049 -0.4670 0.0232
H13 H -0.0296 -0.5834 0.0628
H14 H 0.1353 -0.5637 0.0407
C14 C 0.1707(5) 0.0505(4) 0.05030(12)
C15 C -0.0692(5) 0.0692(6) 0.01210(16)
H15 H -0.0537 0.1744 0.0068
H16 H -0.1775 0.0502 0.0175
H17 H -0.0356 0.0138 -0.0143
C16 C 0.4157(4) 0.2020(4) 0.11066(12)
C17 C 0.6838(5) 0.2361(6) 0.09652(19)
H18 H 0.6663 0.2718 0.0659
H19 H 0.7795 0.1808 0.0975
H20 H 0.6899 0.3198 0.1171
C18 C 0.0083(5) 0.3514(4) 0.17864(14)
H21 H -0.0180 0.3983 0.1500
H22 H 0.0136 0.4261 0.2023
H23 H -0.0698 0.2787 0.1863
C19 C 0.1695(4) 0.3090(4) 0.29107(12)
C20 C 0.2052(5) 0.4482(4) 0.31765(13)
H24 H 0.1237 0.4664 0.3394
H25 H 0.2129 0.5317 0.2970
H26 H 0.3021 0.4358 0.3336
O3 O 0.5221(4) -0.3152(4) 0.16852(11)
O4 O 0.4711(3) -0.2922(3) 0.09505(10)
O5 O 0.1933(3) -0.2594(3) 0.02864(9)
O6 O 0.0786(3) -0.3987(3) 0.08295(9)
O7 O 0.2346(4) 0.1249(3) 0.02143(9)
O8 O 0.0200(3) 0.0228(3) 0.05164(9)
O9 O 0.3895(3) 0.3259(3) 0.09839(10)
O10 O 0.5563(3) 0.1392(3) 0.11012(10)
O11 O 0.2467(3) 0.3088(2) 0.25086(9)
O12 O 0.0841(4) 0.2117(3) 0.30295(9)
loop_
_geom_bond_atom_site_label_1
_geom_bond_atom_site_label_2
_geom_bond_site_symmetry_1
_geom_bond_site_symmetry_2
C1 H1 1_555 1_555
H2 C1 1_555 1_555
C2 C1 1_555 1_555
O1 C2 1_555 1_555
N1 C2 1_555 1_555
C3 N1 1_555 1_555
H3 C3 1_555 1_555
C4 C3 1_555 1_555
H4 C4 1_555 1_555
C5 C4 1_555 1_555
H5 C5 1_555 1_555
C6 C5 1_555 1_555
O2 C6 1_555 1_555
C7 O2 1_555 1_555
H6 C7 1_555 1_555
C8 C7 1_555 1_555
H7 C8 1_555 1_555
C9 C1 1_555 1_555
H8 C9 1_555 1_555
N2 N1 1_555 1_555
C10 C3 1_555 1_555
C11 H9 1_555 1_555
H10 C11 1_555 1_555
H11 C11 1_555 1_555
C12 C4 1_555 1_555
C13 H12 1_555 1_555
H13 C13 1_555 1_555
H14 C13 1_555 1_555
C14 C5 1_555 1_555
C15 H15 1_555 1_555
H16 C15 1_555 1_555
H17 C15 1_555 1_555
C16 C6 1_555 1_555
C17 H18 1_555 1_555
H19 C17 1_555 1_555
H20 C17 1_555 1_555
C18 C7 1_555 1_555
H21 C18 1_555 1_555
H22 C18 1_555 1_555
H23 C18 1_555 1_555
C19 C20 1_555 1_555
C20 H24 1_555 1_555
H25 C20 1_555 1_555
H26 C20 1_555 1_555
O3 C10 1_555 1_555
O4 C10 1_555 1_555
O5 C12 1_555 1_555
O6 C12 1_555 1_555
O7 C14 1_555 1_555
O8 C14 1_555 1_555
O9 C16 1_555 1_555
O10 C16 1_555 1_555
O11 C8 1_555 1_555
O12 C19 1_555 1_555
C6 N2 1_555 1_555
C8 C9 1_555 1_555
C9 N2 1_555 1_555
C11 O4 1_555 1_555
C13 O6 1_555 1_555
C15 O8 1_555 1_555
C17 O10 1_555 1_555
C19 O11 1_555 1_555

#END
