
#######################################################################
#
#                 Cambridge Crystallographic Data Centre
#                                CCDC 
#
#######################################################################
#
# If this CIF has been generated from an entry in the Cambridge 
# Structural Database, then it will include bibliographic, chemical, 
# crystal, experimental, refinement or atomic coordinate data resulting 
# from the CCDC's data processing and validation procedures.
#
#######################################################################

data_BAFTEI
_chemical_formula_moiety         'C18 H24 N2 O10,C4 H8 O2'
_chemical_name_systematic        
"(Z)-(5R,1'R,2'S)-1-Acetyl-5-(1',2'-diacetoxypropyl)-2-(1',2'-dimethoxycarbonylethylenyl)pyrazolidin-3-one ethyl acetate solvate"
_symmetry_cell_setting           orthorhombic
_symmetry_space_group_name_H-M   'P 21 21 21'
_symmetry_Int_Tables_number      19
_space_group_name_Hall           'P 2ac 2ab'
loop_
_symmetry_equiv_pos_site_id
_symmetry_equiv_pos_as_xyz
1 x,y,z
2 1/2-x,-y,1/2+z
3 1/2+x,1/2-y,-z
4 -x,1/2+y,1/2-z
_cell_length_a                   13.4700(2)
_cell_length_b                   9.1200(1)
_cell_length_c                   21.2940(5)
_cell_angle_alpha                90
_cell_angle_beta                 90
_cell_angle_gamma                90
_cell_volume                     2615.89
_exptl_crystal_colour            colorless
_exptl_crystal_description       plate
_chemical_melting_point          53-55deg.C
_cell_formula_units_Z            4
loop_
_atom_site_label
_atom_site_type_symbol
_atom_site_fract_x
_atom_site_fract_y
_atom_site_fract_z
N1 N 0.76643(14) 0.6296(2) 0.68002(9)
N2 N 0.82906(15) 0.5734(2) 0.63246(9)
C1 C 0.78723(19) 0.4528(3) 0.60281(12)
C2 C 0.69069(19) 0.4214(3) 0.63455(13)
H1 H 0.6966 0.3370 0.6620
H2 H 0.6391 0.4024 0.6039
C3 C 0.66707(18) 0.5600(3) 0.67247(11)
H3 H 0.6403 0.5330 0.7137
C4 C 0.8048(2) 0.6509(3) 0.74050(12)
O1 O 0.74719(16) 0.6750(2) 0.78276(9)
C5 C 0.9148(2) 0.6526(4) 0.74783(13)
H4 H 0.9417 0.7357 0.7261
H5 H 0.9421 0.5642 0.7305
H6 H 0.9313 0.6589 0.7916
C6 C 0.89630(18) 0.6709(3) 0.60338(11)
C7 C 0.8555(2) 0.8225(3) 0.59316(12)
O2 O 0.77577(15) 0.8446(2) 0.57057(11)
O3 O 0.91883(15) 0.92398(19) 0.61180(9)
C8 C 0.8888(3) 1.0748(3) 0.59931(16)
H7 H 0.8988 1.0967 0.5557
H8 H 0.9280 1.1404 0.6244
H9 H 0.8199 1.0868 0.6096
C9 C 0.98288(19) 0.6294(3) 0.58000(13)
H10 H 1.0181 0.6974 0.5563
C10 C 1.02802(19) 0.4824(3) 0.58878(15)
O4 O 1.01484(16) 0.4023(3) 0.63277(11)
O5 O 1.09017(15) 0.4520(3) 0.54186(11)
C11 C 1.1376(3) 0.3098(4) 0.5444(2)
H11 H 1.1726 0.3000 0.5834
H12 H 1.1835 0.3008 0.5101
H13 H 1.0881 0.2344 0.5413
C12 C 0.59589(17) 0.6621(3) 0.63919(11)
H14 H 0.6207 0.6826 0.5968
O6 O 0.50234(12) 0.58432(19) 0.63487(8)
C13 C 0.4625(2) 0.5585(3) 0.57807(15)
O7 O 0.50383(19) 0.5877(4) 0.53026(10)
C14 C 0.3635(2) 0.4878(4) 0.58321(19)
H15 H 0.3126 0.5597 0.5763
H16 H 0.3559 0.4464 0.6244
H17 H 0.3580 0.4117 0.5523
C15 C 0.5775(2) 0.8051(3) 0.67318(13)
H18 H 0.6408 0.8560 0.6794
C16 C 0.5243(3) 0.7919(4) 0.73570(15)
H19 H 0.5163 0.8876 0.7538
H20 H 0.5626 0.7315 0.7635
H21 H 0.4602 0.7483 0.7293
O8 O 0.51517(14) 0.8910(2) 0.63178(10)
C17 C 0.5357(2) 1.0330(3) 0.62632(16)
O9 O 0.6055(2) 1.0893(3) 0.64950(17)
C18 C 0.4588(3) 1.1103(4) 0.5884(2)
H22 H 0.4024 1.1319 0.6143
H23 H 0.4386 1.0489 0.5541
H24 H 0.4859 1.2001 0.5722
O10 O 0.82340(15) 0.3914(2) 0.55797(9)
O11 O 0.7984(2) 0.2241(2) 0.84853(10)
O12 O 0.8196(3) 0.3095(3) 0.75269(12)
C19 C 0.8059(3) 0.2091(4) 0.78728(15)
C20 C 0.7990(3) 0.0552(4) 0.76716(16)
H25 H 0.7650 0.0499 0.7276
H26 H 0.7630 -0.0001 0.7980
H27 H 0.8646 0.0152 0.7627
C21 C 0.8044(4) 0.3732(4) 0.87389(17)
H28 H 0.8720 0.4092 0.8711
H29 H 0.7618 0.4385 0.8501
C22 C 0.7727(3) 0.3689(5) 0.93933(18)
H30 H 0.7025 0.3518 0.9412
H31 H 0.7879 0.4607 0.9591
H32 H 0.8070 0.2912 0.9607
loop_
_geom_bond_atom_site_label_1
_geom_bond_atom_site_label_2
_geom_bond_site_symmetry_1
_geom_bond_site_symmetry_2
N1 N2 1_555 1_555
N2 C1 1_555 1_555
C1 C2 1_555 1_555
C2 H1 1_555 1_555
H2 C2 1_555 1_555
C3 N1 1_555 1_555
H3 C3 1_555 1_555
C4 N1 1_555 1_555
O1 C4 1_555 1_555
C5 C4 1_555 1_555
H4 C5 1_555 1_555
H5 C5 1_555 1_555
H6 C5 1_555 1_555
C6 N2 1_555 1_555
C7 C6 1_555 1_555
O2 C7 1_555 1_555
O3 C7 1_555 1_555
C8 O3 1_555 1_555
H7 C8 1_555 1_555
H8 C8 1_555 1_555
H9 C8 1_555 1_555
C9 C6 1_555 1_555
H10 C9 1_555 1_555
C10 C9 1_555 1_555
O4 C10 1_555 1_555
O5 C10 1_555 1_555
C11 O5 1_555 1_555
H11 C11 1_555 1_555
H12 C11 1_555 1_555
H13 C11 1_555 1_555
C12 C3 1_555 1_555
H14 C12 1_555 1_555
O6 C12 1_555 1_555
C13 O6 1_555 1_555
O7 C13 1_555 1_555
C14 C13 1_555 1_555
H15 C14 1_555 1_555
H16 C14 1_555 1_555
H17 C14 1_555 1_555
C15 C12 1_555 1_555
H18 C15 1_555 1_555
C16 C15 1_555 1_555
H19 C16 1_555 1_555
H20 C16 1_555 1_555
H21 C16 1_555 1_555
O8 C15 1_555 1_555
C17 O8 1_555 1_555
O9 C17 1_555 1_555
C18 C17 1_555 1_555
H22 C18 1_555 1_555
H23 C18 1_555 1_555
H24 C18 1_555 1_555
O10 C1 1_555 1_555
O11 C19 1_555 1_555
O12 C19 1_555 1_555
C19 C20 1_555 1_555
C20 H25 1_555 1_555
H26 C20 1_555 1_555
H27 C20 1_555 1_555
C21 O11 1_555 1_555
H28 C21 1_555 1_555
H29 C21 1_555 1_555
C22 C21 1_555 1_555
H30 C22 1_555 1_555
H31 C22 1_555 1_555
H32 C22 1_555 1_555
C2 C3 1_555 1_555

#END
