
#######################################################################
#
#                 Cambridge Crystallographic Data Centre
#                                CCDC 
#
#######################################################################
#
# If this CIF has been generated from an entry in the Cambridge 
# Structural Database, then it will include bibliographic, chemical, 
# crystal, experimental, refinement or atomic coordinate data resulting 
# from the CCDC's data processing and validation procedures.
#
#######################################################################

data_BAFTAE
_chemical_formula_moiety         'C16 H22 N2 O9'
_chemical_name_systematic        
(Z)-4-O-Acetyl-2,3,6-trideoxy-3-(N-acetyl-(N'-(1',2'-dimethoxycarbonylethylenyl))hydrazino)-L-arabino-hexaldono-1,5-lactone
_symmetry_cell_setting           trigonal
_symmetry_space_group_name_H-M   'P 32'
_symmetry_Int_Tables_number      145
_space_group_name_Hall           'P 32'
loop_
_symmetry_equiv_pos_site_id
_symmetry_equiv_pos_as_xyz
1 x,y,z
2 -y,x-y,2/3+z
3 -x+y,-x,1/3+z
_cell_length_a                   11.2800(6)
_cell_length_b                   11.2800(6)
_cell_length_c                   13.0590(9)
_cell_angle_alpha                90
_cell_angle_beta                 90
_cell_angle_gamma                120
_cell_volume                     1438.99
_exptl_crystal_colour            colorless
_exptl_crystal_description       needle
_chemical_melting_point          214-217deg.C
_cell_formula_units_Z            3
loop_
_atom_site_label
_atom_site_type_symbol
_atom_site_fract_x
_atom_site_fract_y
_atom_site_fract_z
O1 O 0.6397(4) -0.1207(5) 0.3094(3)
C1 C 0.6309(7) -0.1737(7) 0.4027(4)
C2 C 0.5456(7) -0.1597(7) 0.4812(4)
H1 H 0.5960 -0.1358 0.5452
H2 H 0.4646 -0.2487 0.4907
C3 C 0.4993(6) -0.0573(6) 0.4625(4)
H3 H 0.5751 0.0343 0.4790
C4 C 0.4646(6) -0.0610(6) 0.3496(4)
H4 H 0.3869 -0.1503 0.3308
C5 C 0.5883(6) -0.0283(6) 0.2860(4)
H5 H 0.6603 0.0655 0.3015
N1 N 0.3817(5) -0.0864(5) 0.5289(3)
N2 N 0.2651(5) -0.2109(5) 0.5145(4)
H6 H 0.213(6) -0.218(5) 0.461(5)
C6 C 0.2290(7) -0.3210(7) 0.5784(5)
O2 O 0.2976(4) -0.3132(4) 0.6517(3)
C7 C 0.0981(7) -0.4469(6) 0.5490(5)
H7 H 0.1183 -0.5061 0.5091
H8 H 0.0428 -0.4212 0.5094
H9 H 0.0493 -0.4940 0.6098
C8 C 0.3784(6) -0.0010(6) 0.6018(4)
C9 C 0.5068(7) 0.1357(7) 0.6085(5)
O3 O 0.5246(5) 0.2315(5) 0.5587(3)
O4 O 0.5964(5) 0.1317(5) 0.6716(3)
C10 C 0.7237(9) 0.2650(9) 0.6825(7)
H10 H 0.7549 0.3050 0.6161
H11 H 0.7926 0.2515 0.7146
H12 H 0.7062 0.3249 0.7239
C11 C 0.2687(7) -0.0340(7) 0.6609(4)
H13 H 0.1890 -0.1166 0.6485
C12 C 0.2679(9) 0.0522(8) 0.7431(5)
O5 O 0.3586(6) 0.1616(5) 0.7685(3)
O6 O 0.1450(5) -0.0110(5) 0.7898(3)
C13 C 0.1283(10) 0.0545(9) 0.8786(5)
H14 H 0.1325 0.1384 0.8586
H15 H 0.2000 0.0738 0.9268
H16 H 0.0411 -0.0050 0.9097
O7 O 0.4364(5) 0.0484(4) 0.3262(3)
C14 C 0.3058(8) 0.0207(7) 0.3264(4)
O8 O 0.2099(5) -0.0893(5) 0.3471(3)
C15 C 0.2972(9) 0.1438(8) 0.2949(6)
H17 H 0.2856 0.1428 0.2220
H18 H 0.3799 0.2254 0.3142
H19 H 0.2206 0.1423 0.3282
O9 O 0.6885(6) -0.2381(5) 0.4174(3)
C16 C 0.5637(7) -0.0408(7) 0.1723(4)
H20 H 0.6472 -0.0185 0.1374
H21 H 0.5333 0.0211 0.1510
H22 H 0.4949 -0.1329 0.1558
loop_
_geom_bond_atom_site_label_1
_geom_bond_atom_site_label_2
_geom_bond_site_symmetry_1
_geom_bond_site_symmetry_2
O1 C1 1_555 1_555
C1 C2 1_555 1_555
C2 H1 1_555 1_555
H2 C2 1_555 1_555
C3 C2 1_555 1_555
H3 C3 1_555 1_555
C4 C3 1_555 1_555
H4 C4 1_555 1_555
C5 O1 1_555 1_555
H5 C5 1_555 1_555
N1 C3 1_555 1_555
N2 N1 1_555 1_555
H6 N2 1_555 1_555
C6 N2 1_555 1_555
O2 C6 1_555 1_555
C7 C6 1_555 1_555
H7 C7 1_555 1_555
H8 C7 1_555 1_555
H9 C7 1_555 1_555
C8 N1 1_555 1_555
C9 C8 1_555 1_555
O3 C9 1_555 1_555
O4 C9 1_555 1_555
C10 O4 1_555 1_555
H10 C10 1_555 1_555
H11 C10 1_555 1_555
H12 C10 1_555 1_555
C11 C8 1_555 1_555
H13 C11 1_555 1_555
C12 C11 1_555 1_555
O5 C12 1_555 1_555
O6 C12 1_555 1_555
C13 O6 1_555 1_555
H14 C13 1_555 1_555
H15 C13 1_555 1_555
H16 C13 1_555 1_555
O7 C4 1_555 1_555
C14 O7 1_555 1_555
O8 C14 1_555 1_555
C15 C14 1_555 1_555
H17 C15 1_555 1_555
H18 C15 1_555 1_555
H19 C15 1_555 1_555
O9 C1 1_555 1_555
C16 C5 1_555 1_555
H20 C16 1_555 1_555
H21 C16 1_555 1_555
H22 C16 1_555 1_555
C4 C5 1_555 1_555

#END
