
#######################################################################
#
#                 Cambridge Crystallographic Data Centre
#                                CCDC 
#
#######################################################################
#
# If this CIF has been generated from an entry in the Cambridge 
# Structural Database, then it will include bibliographic, chemical, 
# crystal, experimental, refinement or atomic coordinate data resulting 
# from the CCDC's data processing and validation procedures.
#
#######################################################################

data_BAFXAK
_chemical_formula_moiety         'C23 H25 N1 O5 S1'
_chemical_name_systematic        
(3aR*,7S*,7aR*)-7-(3-methoxybenzoyl)-2-((4-methylphenyl)sulfonyl)octahydro-1H-isoindol-1-one
_symmetry_cell_setting           monoclinic
_symmetry_space_group_name_H-M   'P 21/c'
_symmetry_Int_Tables_number      14
_space_group_name_Hall           '-P 2ybc'
loop_
_symmetry_equiv_pos_site_id
_symmetry_equiv_pos_as_xyz
1 x,y,z
2 -x,1/2+y,1/2-z
3 -x,-y,-z
4 x,1/2-y,1/2+z
_cell_length_a                   6.0902(6)
_cell_length_b                   14.6898(15)
_cell_length_c                   23.027(3)
_cell_angle_alpha                90
_cell_angle_beta                 91.588(7)
_cell_angle_gamma                90
_cell_volume                     2059.29
_exptl_crystal_colour            colorless
_exptl_crystal_description       prism
_cell_formula_units_Z            4
loop_
_atom_site_label
_atom_site_type_symbol
_atom_site_fract_x
_atom_site_fract_y
_atom_site_fract_z
C1 C 0.7962(7) 0.4766(3) 0.13393(16)
C2 C 0.6445(6) 0.5003(3) 0.09073(17)
H1 H 0.4997 0.4763 0.0913
C3 C 0.7024(7) 0.5588(3) 0.04672(17)
H2 H 0.5966 0.5753 0.0175
C4 C 0.9144(7) 0.5936(3) 0.04483(16)
C5 C 0.9818(7) 0.6537(3) -0.00427(17)
H3 H 0.8566 0.6627 -0.0313
H4 H 1.1026 0.6250 -0.0248
H5 H 1.0304 0.7128 0.0112
C6 C 1.0635(6) 0.5702(3) 0.08918(17)
H6 H 1.2075 0.5951 0.0889
C7 C 1.0084(6) 0.5120(3) 0.13361(18)
H7 H 1.1131 0.4965 0.1633
C8 C 1.0068(6) 0.2538(3) 0.17248(17)
H8 H 1.0502 0.2580 0.2141
H9 H 1.1234 0.2809 0.1489
C9 C 0.9584(6) 0.1557(3) 0.15450(16)
H10 H 1.0969 0.1248 0.1431
C10 C 0.8514(6) 0.1028(3) 0.20337(16)
H11 H 0.9666 0.0846 0.2323
H12 H 0.7472 0.1433 0.2231
C11 C 0.7301(7) 0.0186(3) 0.18255(18)
H13 H 0.6582 -0.0109 0.2157
H14 H 0.8354 -0.0253 0.1663
C12 C 0.5585(6) 0.0441(3) 0.13639(16)
H15 H 0.4534 0.0878 0.1529
H16 H 0.4757 -0.0110 0.1242
C13 C 0.6637(6) 0.0863(3) 0.08381(15)
H17 H 0.7660 0.0395 0.0684
C14 C 0.4992(7) 0.1084(3) 0.03443(16)
C15 C 0.5810(6) 0.1404(3) -0.02252(16)
C16 C 0.4362(6) 0.1882(3) -0.05842(16)
H18 H 0.2926 0.2011 -0.0456
C17 C 0.4977(7) 0.2177(3) -0.11280(17)
C18 C 0.4016(7) 0.3041(3) -0.19787(18)
H19 H 0.2752 0.3351 -0.2162
H20 H 0.4529 0.2561 -0.2237
H21 H 0.5201 0.3481 -0.1906
C19 C 0.7068(7) 0.1998(3) -0.13208(17)
H22 H 0.7500 0.2202 -0.1692
C20 C 0.8516(7) 0.1519(3) -0.09633(17)
H23 H 0.9948 0.1389 -0.1094
C21 C 0.7930(6) 0.1224(3) -0.04227(17)
H24 H 0.8956 0.0900 -0.0183
C22 C 0.8054(6) 0.1689(3) 0.10086(16)
H25 H 0.8990 0.1839 0.0672
C23 C 0.6750(6) 0.2532(3) 0.11550(16)
N1 N 0.7915(5) 0.2975(2) 0.16036(13)
O1 O 0.4910(4) 0.39964(19) 0.19267(11)
O2 O 0.8666(5) 0.41056(19) 0.23715(11)
O3 O 0.3028(4) 0.09773(19) 0.04100(11)
O4 O 0.3382(4) 0.2647(2) -0.14414(11)
O5 O 0.5076(4) 0.28027(18) 0.09226(11)
S1 S 0.72377(19) 0.39870(8) 0.18731(4)
loop_
_geom_bond_atom_site_label_1
_geom_bond_atom_site_label_2
_geom_bond_site_symmetry_1
_geom_bond_site_symmetry_2
C1 C2 1_555 1_555
C2 H1 1_555 1_555
C3 C2 1_555 1_555
H2 C3 1_555 1_555
C4 C3 1_555 1_555
C5 C4 1_555 1_555
H3 C5 1_555 1_555
H4 C5 1_555 1_555
H5 C5 1_555 1_555
C6 C4 1_555 1_555
H6 C6 1_555 1_555
C7 C1 1_555 1_555
H7 C7 1_555 1_555
C8 H8 1_555 1_555
H9 C8 1_555 1_555
C9 C8 1_555 1_555
H10 C9 1_555 1_555
C10 C9 1_555 1_555
H11 C10 1_555 1_555
H12 C10 1_555 1_555
C11 C10 1_555 1_555
H13 C11 1_555 1_555
H14 C11 1_555 1_555
C12 C11 1_555 1_555
H15 C12 1_555 1_555
H16 C12 1_555 1_555
C13 C12 1_555 1_555
H17 C13 1_555 1_555
C14 C13 1_555 1_555
C15 C14 1_555 1_555
C16 C15 1_555 1_555
H18 C16 1_555 1_555
C17 C16 1_555 1_555
C18 H19 1_555 1_555
H20 C18 1_555 1_555
H21 C18 1_555 1_555
C19 C17 1_555 1_555
H22 C19 1_555 1_555
C20 C19 1_555 1_555
H23 C20 1_555 1_555
C21 C15 1_555 1_555
H24 C21 1_555 1_555
C22 C9 1_555 1_555
H25 C22 1_555 1_555
C23 C22 1_555 1_555
N1 C8 1_555 1_555
O1 S1 1_555 1_555
O2 S1 1_555 1_555
O3 C14 1_555 1_555
O4 C17 1_555 1_555
O5 C23 1_555 1_555
S1 C1 1_555 1_555
C6 C7 1_555 1_555
C13 C22 1_555 1_555
C18 O4 1_555 1_555
C20 C21 1_555 1_555
C23 N1 1_555 1_555
N1 S1 1_555 1_555

#END
