
#######################################################################
#
#                 Cambridge Crystallographic Data Centre
#                                CCDC 
#
#######################################################################
#
# If this CIF has been generated from an entry in the Cambridge 
# Structural Database, then it will include bibliographic, chemical, 
# crystal, experimental, refinement or atomic coordinate data resulting 
# from the CCDC's data processing and validation procedures.
#
#######################################################################

data_BAFYAL
_chemical_formula_moiety         'C18 H23 N1 O4 S1'
_chemical_name_systematic        
'(3aR*,7S*,7aR*)-2-((4-methylphenyl)sulfonyl)-7-propionyloctahydro-1H-isoindol-1-one unknown solvate'
_symmetry_cell_setting           orthorhombic
_symmetry_space_group_name_H-M   'P n a 21'
_symmetry_Int_Tables_number      33
_space_group_name_Hall           'P 2c -2n'
loop_
_symmetry_equiv_pos_site_id
_symmetry_equiv_pos_as_xyz
1 x,y,z
2 -x,-y,1/2+z
3 1/2+x,1/2-y,z
4 1/2-x,1/2+y,1/2+z
_cell_length_a                   9.9926(5)
_cell_length_b                   14.1265(6)
_cell_length_c                   31.0675(15)
_cell_angle_alpha                90
_cell_angle_beta                 90
_cell_angle_gamma                90
_cell_volume                     4385.5
_exptl_crystal_colour            colorless
_exptl_crystal_description       prism
_cell_formula_units_Z            8
loop_
_atom_site_label
_atom_site_type_symbol
_atom_site_fract_x
_atom_site_fract_y
_atom_site_fract_z
C1 C 0.6567(8) 0.0662(9) 0.7865(3)
C2 C 0.6353(11) -0.0288(7) 0.7842(3)
H1 H 0.5542 -0.0566 0.7917
C3 C 0.7413(10) -0.0795(8) 0.7701(3)
H2 H 0.7281 -0.1445 0.7676
C4 C 0.8637(9) -0.0476(8) 0.7593(3)
C5 C 0.9754(11) -0.1059(9) 0.7429(4)
H3 H 0.9491 -0.1712 0.7425
H4 H 1.0520 -0.0982 0.7612
H5 H 0.9976 -0.0860 0.7142
C6 C 0.8818(9) 0.0451(9) 0.7638(3)
H6 H 0.9665 0.0696 0.7582
C7 C 0.7813(11) 0.1079(7) 0.7763(3)
H7 H 0.7953 0.1729 0.7778
C8 C 0.4693(7) 0.2020(6) 0.7188(3)
C9 C 0.3590(7) 0.1841(6) 0.6875(3)
H8 H 0.2903 0.2329 0.6914
C10 C 0.4032(8) 0.1838(8) 0.6394(3)
H9 H 0.3209 0.1825 0.6223
C11 C 0.4842(12) 0.0929(11) 0.6270(4)
H10 H 0.5718 0.0960 0.6403
H11 H 0.4969 0.0920 0.5960
C12 C 0.4091(15) -0.0076(11) 0.6420(7)
H12 H 0.3271 -0.0159 0.6258
H13 H 0.4673 -0.0609 0.6360
C13 C 0.3779(13) -0.0046(8) 0.6891(4)
H14 H 0.4609 -0.0083 0.7052
H15 H 0.3244 -0.0595 0.6965
C14 C 0.3010(9) 0.0867(8) 0.7030(3)
H16 H 0.2071 0.0816 0.6941
C15 C 0.3090(9) 0.0932(7) 0.7529(4)
H17 H 0.2304 0.1233 0.7650
H18 H 0.3212 0.0314 0.7660
C16 C 0.4703(10) 0.2660(7) 0.6282(3)
C17 C 0.3987(10) 0.3558(7) 0.6367(4)
H19 H 0.3876 0.3611 0.6676
H20 H 0.3098 0.3499 0.6245
C18 C 0.4599(11) 0.4533(9) 0.6200(5)
H21 H 0.4030 0.5046 0.6287
H22 H 0.4663 0.4520 0.5892
H23 H 0.5475 0.4620 0.6321
N1 N 0.4306(6) 0.1535(5) 0.7575(2)
O1 O 0.4451(5) 0.1049(4) 0.8335(2)
O2 O 0.5892(6) 0.2432(4) 0.8094(3)
O3 O 0.5688(6) 0.2449(4) 0.7125(3)
O4 O 0.5785(8) 0.2764(6) 0.6107(3)
S1 S 0.5283(2) 0.1501(2) 0.80131(8)
C19 C 0.5913(8) 0.5760(7) 0.8589(3)
C20 C 0.6137(9) 0.4813(8) 0.8602(3)
H24 H 0.6969 0.4580 0.8521
C21 C 0.5161(11) 0.4189(9) 0.8734(4)
H25 H 0.5343 0.3544 0.8751
C22 C 0.3928(12) 0.4527(9) 0.8840(3)
C23 C 0.2737(11) 0.3925(8) 0.8993(4)
H26 H 0.2999 0.3272 0.9007
H27 H 0.2007 0.3994 0.8795
H28 H 0.2461 0.4133 0.9274
C24 C 0.3715(11) 0.5486(9) 0.8837(3)
H29 H 0.2889 0.5714 0.8928
C25 C 0.4698(10) 0.6146(8) 0.8702(3)
H30 H 0.4533 0.6793 0.8690
C26 C 0.7832(10) 0.6980(7) 0.9262(3)
C27 C 0.8911(7) 0.6794(7) 0.9577(3)
H31 H 0.9592 0.7285 0.9537
C28 C 0.8470(11) 0.6829(7) 1.0041(4)
H32 H 0.9299 0.6799 1.0209
C29 C 0.7713(11) 0.5988(9) 1.0167(4)
H33 H 0.6869 0.5974 1.0012
H34 H 0.7518 0.6014 1.0472
C30 C 0.8512(10) 0.5081(8) 1.0066(4)
H35 H 0.9367 0.5092 1.0214
H36 H 0.8019 0.4526 1.0160
C31 C 0.8721(10) 0.5053(8) 0.9595(4)
H37 H 0.7856 0.5036 0.9454
H38 H 0.9192 0.4475 0.9522
C32 C 0.9500(9) 0.5885(6) 0.9428(3)
H39 H 1.0434 0.5840 0.9522
C33 C 0.9441(8) 0.5993(7) 0.8937(3)
H40 H 1.0210 0.6335 0.8827
H41 H 0.9377 0.5384 0.8794
C34 C 0.7775(11) 0.7892(8) 1.0168(3)
C35 C 0.8463(12) 0.8687(8) 1.0048(4)
H42 H 0.8466 0.8758 0.9737
H43 H 0.9380 0.8663 1.0149
C36 C 0.7694(19) 0.9496(15) 1.0262(7)
H44 H 0.8103 1.0089 1.0188
H45 H 0.7713 0.9415 1.0569
H46 H 0.6783 0.9493 1.0164
N2 N 0.8182(6) 0.6553(5) 0.8889(2)
O5 O 0.6792(8) 0.7413(5) 0.8379(3)
O6 O 0.8037(6) 0.6058(4) 0.8127(2)
O7 O 0.6805(8) 0.7458(4) 0.9292(3)
O8 O 0.6714(7) 0.7758(7) 1.0365(3)
S2 S 0.7223(2) 0.6495(2) 0.84456(8)
C37? C 0.8275(18) 0.9819(13) 1.0119(7)
H47? H 0.8987 1.0151 0.9977
H48? H 0.8296 0.9959 1.0421
H49? H 0.7432 1.0015 1.0001
loop_
_geom_bond_atom_site_label_1
_geom_bond_atom_site_label_2
_geom_bond_site_symmetry_1
_geom_bond_site_symmetry_2
C1 C2 1_555 1_555
C2 H1 1_555 1_555
C3 C2 1_555 1_555
H2 C3 1_555 1_555
C4 C3 1_555 1_555
C5 C4 1_555 1_555
H3 C5 1_555 1_555
H4 C5 1_555 1_555
H5 C5 1_555 1_555
C6 C4 1_555 1_555
H6 C6 1_555 1_555
C7 C1 1_555 1_555
H7 C7 1_555 1_555
C8 C9 1_555 1_555
C9 H8 1_555 1_555
C10 C9 1_555 1_555
H9 C10 1_555 1_555
C11 C10 1_555 1_555
H10 C11 1_555 1_555
H11 C11 1_555 1_555
C12 C11 1_555 1_555
H12 C12 1_555 1_555
H13 C12 1_555 1_555
C13 C12 1_555 1_555
H14 C13 1_555 1_555
H15 C13 1_555 1_555
C14 C9 1_555 1_555
H16 C14 1_555 1_555
C15 C14 1_555 1_555
H17 C15 1_555 1_555
H18 C15 1_555 1_555
C16 C10 1_555 1_555
C17 C16 1_555 1_555
H19 C17 1_555 1_555
H20 C17 1_555 1_555
C18 C17 1_555 1_555
H21 C18 1_555 1_555
H22 C18 1_555 1_555
H23 C18 1_555 1_555
N1 C8 1_555 1_555
O1 S1 1_555 1_555
O2 S1 1_555 1_555
O3 C8 1_555 1_555
O4 C16 1_555 1_555
S1 C1 1_555 1_555
C19 C20 1_555 1_555
C20 H24 1_555 1_555
C21 C20 1_555 1_555
H25 C21 1_555 1_555
C22 C21 1_555 1_555
C23 C22 1_555 1_555
H26 C23 1_555 1_555
H27 C23 1_555 1_555
H28 C23 1_555 1_555
C24 C22 1_555 1_555
H29 C24 1_555 1_555
C25 C19 1_555 1_555
H30 C25 1_555 1_555
C26 C27 1_555 1_555
C27 H31 1_555 1_555
C28 C27 1_555 1_555
H32 C28 1_555 1_555
C29 C28 1_555 1_555
H33 C29 1_555 1_555
H34 C29 1_555 1_555
C30 C29 1_555 1_555
H35 C30 1_555 1_555
H36 C30 1_555 1_555
C31 C30 1_555 1_555
H37 C31 1_555 1_555
H38 C31 1_555 1_555
C32 C27 1_555 1_555
H39 C32 1_555 1_555
C33 C32 1_555 1_555
H40 C33 1_555 1_555
H41 C33 1_555 1_555
C34 C28 1_555 1_555
C35 C34 1_555 1_555
H42 C35 1_555 1_555
H43 C35 1_555 1_555
C36 C35 1_555 1_555
H44 C36 1_555 1_555
H45 C36 1_555 1_555
H46 C36 1_555 1_555
N2 C26 1_555 1_555
O5 S2 1_555 1_555
O6 S2 1_555 1_555
O7 C26 1_555 1_555
O8 C34 1_555 1_555
S2 C19 1_555 1_555
C6 C7 1_555 1_555
C13 C14 1_555 1_555
C15 N1 1_555 1_555
N1 S1 1_555 1_555
C24 C25 1_555 1_555
C31 C32 1_555 1_555
C33 N2 1_555 1_555
N2 S2 1_555 1_555

#END
