
#######################################################################
#
#                 Cambridge Crystallographic Data Centre
#                                CCDC 
#
#######################################################################
#
# If this CIF has been generated from an entry in the Cambridge 
# Structural Database, then it will include bibliographic, chemical, 
# crystal, experimental, refinement or atomic coordinate data resulting 
# from the CCDC's data processing and validation procedures.
#
#######################################################################

data_BAFYUF
_chemical_formula_moiety         'C22 H23 N1 O4 S1'
_chemical_name_systematic        
(1R*,5R*,8S*)-8-benzoyl-3-((4-methylphenyl)sulfonyl)-3-azabicyclo[3.3.1]nonan-2-one
_symmetry_cell_setting           monoclinic
_symmetry_space_group_name_H-M   'P 21/n'
_symmetry_Int_Tables_number      14
_space_group_name_Hall           '-P 2yn'
loop_
_symmetry_equiv_pos_site_id
_symmetry_equiv_pos_as_xyz
1 x,y,z
2 1/2-x,1/2+y,1/2-z
3 -x,-y,-z
4 1/2+x,1/2-y,1/2+z
_cell_length_a                   16.9926(4)
_cell_length_b                   6.46980(10)
_cell_length_c                   18.8075(5)
_cell_angle_alpha                90
_cell_angle_beta                 109.7660(10)
_cell_angle_gamma                90
_cell_volume                     1945.85
_exptl_crystal_colour            colorless
_exptl_crystal_description       prism
_cell_formula_units_Z            4
loop_
_atom_site_label
_atom_site_type_symbol
_atom_site_fract_x
_atom_site_fract_y
_atom_site_fract_z
C1 C 0.26306(14) 0.1885(3) 0.14991(13)
C2 C 0.31596(16) 0.3560(3) 0.17557(14)
H1 H 0.3059 0.4820 0.1480
C3 C 0.38316(17) 0.3381(4) 0.24137(15)
H2 H 0.4189 0.4535 0.2594
C4 C 0.39975(15) 0.1541(4) 0.28202(14)
C5 C 0.47260(17) 0.1380(5) 0.35515(18)
H3 H 0.5019 0.2709 0.3661
H4 H 0.5112 0.0306 0.3504
H5 H 0.4520 0.1022 0.3963
C6 C 0.34704(16) -0.0136(4) 0.25387(14)
H6 H 0.3585 -0.1416 0.2801
C7 C 0.27870(15) 0.0025(3) 0.18885(13)
H7 H 0.2427 -0.1124 0.1708
C8 C 0.26028(14) 0.0994(3) -0.01408(12)
C9 C 0.28189(14) -0.0572(3) -0.06425(12)
H8 H 0.3441 -0.0714 -0.0475
C10 C 0.24428(16) -0.2688(3) -0.05942(14)
H9 H 0.2583 -0.3677 -0.0935
H10 H 0.2671 -0.3228 -0.0072
C11 C 0.15011(16) -0.2435(3) -0.08261(14)
H11 H 0.1258 -0.3842 -0.0822
C12 C 0.12922(15) -0.1141(3) -0.02386(14)
H12 H 0.0718 -0.0590 -0.0463
H13 H 0.1306 -0.2035 0.0193
C13 C 0.11417(18) -0.1614(4) -0.16328(15)
H14 H 0.1213 -0.2679 -0.1984
H15 H 0.0535 -0.1375 -0.1757
C14 C 0.15502(15) 0.0389(4) -0.17586(14)
H16 H 0.1387 0.1533 -0.1487
H17 H 0.1350 0.0728 -0.2304
C15 C 0.24998(15) 0.0181(3) -0.14762(12)
H18 H 0.2640 -0.0923 -0.1786
C16 C 0.29439(15) 0.2136(3) -0.15811(12)
C17 C 0.38680(15) 0.2095(3) -0.13939(13)
C18 C 0.43255(17) 0.3884(4) -0.11317(15)
H19 H 0.4048 0.5099 -0.1060
C19 C 0.51834(19) 0.3916(5) -0.09741(17)
H20 H 0.5494 0.5137 -0.0784
C20 C 0.55845(19) 0.2164(5) -0.10951(17)
H21 H 0.6170 0.2194 -0.0999
C21 C 0.51453(18) 0.0383(5) -0.13528(16)
H22 H 0.5427 -0.0815 -0.1434
C22 C 0.42928(17) 0.0329(4) -0.14953(15)
H23 H 0.3993 -0.0918 -0.1664
N1 N 0.18873(11) 0.0623(3) 0.00454(10)
O1 O 0.16244(11) 0.4234(2) 0.04621(10)
O2 O 0.10449(10) 0.1160(3) 0.08695(10)
O3 O 0.30387(10) 0.2500(2) 0.01076(9)
O4 O 0.25519(11) 0.3719(2) -0.18182(9)
S1 S 0.17196(4) 0.21381(8) 0.07054(3)
loop_
_geom_bond_atom_site_label_1
_geom_bond_atom_site_label_2
_geom_bond_site_symmetry_1
_geom_bond_site_symmetry_2
C1 C2 1_555 1_555
C2 H1 1_555 1_555
C3 C2 1_555 1_555
H2 C3 1_555 1_555
C4 C3 1_555 1_555
C5 C4 1_555 1_555
H3 C5 1_555 1_555
H4 C5 1_555 1_555
H5 C5 1_555 1_555
C6 C4 1_555 1_555
H6 C6 1_555 1_555
C7 C1 1_555 1_555
H7 C7 1_555 1_555
C8 C9 1_555 1_555
C9 H8 1_555 1_555
C10 C9 1_555 1_555
H9 C10 1_555 1_555
H10 C10 1_555 1_555
C11 C10 1_555 1_555
H11 C11 1_555 1_555
C12 C11 1_555 1_555
H12 C12 1_555 1_555
H13 C12 1_555 1_555
C13 C11 1_555 1_555
H14 C13 1_555 1_555
H15 C13 1_555 1_555
C14 C13 1_555 1_555
H16 C14 1_555 1_555
H17 C14 1_555 1_555
C15 C9 1_555 1_555
H18 C15 1_555 1_555
C16 C15 1_555 1_555
C17 C16 1_555 1_555
C18 C17 1_555 1_555
H19 C18 1_555 1_555
C19 C18 1_555 1_555
H20 C19 1_555 1_555
C20 C19 1_555 1_555
H21 C20 1_555 1_555
C21 C20 1_555 1_555
H22 C21 1_555 1_555
C22 C17 1_555 1_555
H23 C22 1_555 1_555
N1 C8 1_555 1_555
O1 S1 1_555 1_555
O2 S1 1_555 1_555
O3 C8 1_555 1_555
O4 C16 1_555 1_555
S1 C1 1_555 1_555
C6 C7 1_555 1_555
C12 N1 1_555 1_555
C14 C15 1_555 1_555
C21 C22 1_555 1_555
N1 S1 1_555 1_555

#END
