
#######################################################################
#
#                 Cambridge Crystallographic Data Centre
#                                CCDC 
#
#######################################################################
#
# If this CIF has been generated from an entry in the Cambridge 
# Structural Database, then it will include bibliographic, chemical, 
# crystal, experimental, refinement or atomic coordinate data resulting 
# from the CCDC's data processing and validation procedures.
#
#######################################################################

data_BAFYEP
_chemical_formula_moiety         'C28 H27 N1 O2 S1'
_chemical_name_systematic        
(3aR*,10bS*,10cS*)-5-((4-methylphenyl)sulfonyl)-9-phenyl-1,2,3,3a,4,5,10b,10c-octahydrodibenzo[cd,f]indole
_symmetry_cell_setting           orthorhombic
_symmetry_space_group_name_H-M   'P 21 21 21'
_symmetry_Int_Tables_number      19
_space_group_name_Hall           'P 2ac 2ab'
loop_
_symmetry_equiv_pos_site_id
_symmetry_equiv_pos_as_xyz
1 x,y,z
2 1/2-x,-y,1/2+z
3 -x,1/2+y,1/2-z
4 1/2+x,1/2-y,-z
_cell_length_a                   8.9560(7)
_cell_length_b                   14.3354(12)
_cell_length_c                   17.8668(14)
_cell_angle_alpha                90
_cell_angle_beta                 90
_cell_angle_gamma                90
_cell_volume                     2293.88
_exptl_crystal_colour            colorless
_exptl_crystal_description       prism
_cell_formula_units_Z            4
loop_
_atom_site_label
_atom_site_type_symbol
_atom_site_fract_x
_atom_site_fract_y
_atom_site_fract_z
C1 C 0.5945(8) 0.5560(4) 0.7849(3)
C2 C 0.5945(8) 0.6428(4) 0.7497(4)
H1 H 0.6839 0.6739 0.7407
C3 C 0.4600(8) 0.6822(5) 0.7285(4)
H2 H 0.4610 0.7405 0.7057
C4 C 0.3257(8) 0.6389(4) 0.7395(4)
C5 C 0.1837(8) 0.6850(5) 0.7173(4)
H3 H 0.1012 0.6448 0.7291
H4 H 0.1850 0.6972 0.6645
H5 H 0.1733 0.7427 0.7441
C6 C 0.3289(8) 0.5512(4) 0.7723(4)
H6 H 0.2396 0.5192 0.7789
C7 C 0.4606(8) 0.5096(4) 0.7954(3)
H7 H 0.4592 0.4510 0.8177
C8 C 0.7018(7) 0.4818(4) 0.9630(4)
H8 H 0.7493 0.4215 0.9693
H9 H 0.5974 0.4725 0.9505
C9 C 0.7179(7) 0.5406(4) 1.0328(4)
H10 H 0.6365 0.5272 1.0678
C10 C 0.8676(6) 0.5268(4) 1.0709(4)
H11 H 0.9460 0.5255 1.0334
H12 H 0.8680 0.4674 1.0968
C11 C 0.8989(8) 0.6051(4) 1.1267(4)
H13 H 0.8211 0.6065 1.1644
H14 H 0.9935 0.5938 1.1516
C12 C 0.9043(6) 0.6979(4) 1.0858(4)
H15 H 0.9821 0.6957 1.0481
H16 H 0.9294 0.7469 1.1211
C13 C 0.7556(7) 0.7208(3) 1.0486(3)
H17 H 0.6814 0.7331 1.0876
C14 C 0.7015(6) 0.6397(3) 1.0009(4)
H18 H 0.5953 0.6500 0.9906
C15 C 0.7795(6) 0.6336(4) 0.9275(3)
C16 C 0.8364(7) 0.7077(4) 0.8917(4)
H19 H 0.8861 0.7009 0.8464
C17 C 0.8184(6) 0.7999(4) 0.9261(4)
C18 C 0.7716(6) 0.8074(4) 1.0003(4)
C19 C 0.7505(7) 0.8965(4) 1.0313(3)
H20 H 0.7182 0.9013 1.0806
C20 C 0.7762(6) 0.9780(4) 0.9907(4)
C21 C 0.8229(7) 0.9678(4) 0.9174(4)
H21 H 0.8401 1.0210 0.8889
C22 C 0.8450(7) 0.8815(4) 0.8848(4)
H22 H 0.8775 0.8774 0.8355
C23 C 0.7510(7) 1.0704(4) 1.0256(4)
C24 C 0.6408(8) 1.0847(4) 1.0774(4)
H23 H 0.5802 1.0349 1.0913
C25 C 0.6173(8) 1.1706(5) 1.1094(4)
H24 H 0.5408 1.1782 1.1441
C26 C 0.7059(10) 1.2456(5) 1.0908(5)
H25 H 0.6883 1.3040 1.1115
C27 C 0.8202(10) 1.2325(4) 1.0413(5)
H26 H 0.8838 1.2817 1.0300
C28 C 0.8424(7) 1.1456(4) 1.0074(4)
H27 H 0.9186 1.1380 0.9726
N1 N 0.7793(6) 0.5383(3) 0.9042(3)
O1 O 0.7487(5) 0.4077(3) 0.8171(3)
O2 O 0.8826(6) 0.5505(3) 0.7759(3)
S1 S 0.7625(2) 0.50738(11) 0.81606(10)
loop_
_geom_bond_atom_site_label_1
_geom_bond_atom_site_label_2
_geom_bond_site_symmetry_1
_geom_bond_site_symmetry_2
C1 C2 1_555 1_555
C2 H1 1_555 1_555
C3 C2 1_555 1_555
H2 C3 1_555 1_555
C4 C3 1_555 1_555
C5 C4 1_555 1_555
H3 C5 1_555 1_555
H4 C5 1_555 1_555
H5 C5 1_555 1_555
C6 C4 1_555 1_555
H6 C6 1_555 1_555
C7 C1 1_555 1_555
H7 C7 1_555 1_555
C8 H8 1_555 1_555
H9 C8 1_555 1_555
C9 C8 1_555 1_555
H10 C9 1_555 1_555
C10 C9 1_555 1_555
H11 C10 1_555 1_555
H12 C10 1_555 1_555
C11 C10 1_555 1_555
H13 C11 1_555 1_555
H14 C11 1_555 1_555
C12 C11 1_555 1_555
H15 C12 1_555 1_555
H16 C12 1_555 1_555
C13 C12 1_555 1_555
H17 C13 1_555 1_555
C14 C9 1_555 1_555
H18 C14 1_555 1_555
C15 C14 1_555 1_555
C16 C15 1_555 1_555
H19 C16 1_555 1_555
C17 C16 1_555 1_555
C18 C13 1_555 1_555
C19 C18 1_555 1_555
H20 C19 1_555 1_555
C20 C19 1_555 1_555
C21 C20 1_555 1_555
H21 C21 1_555 1_555
C22 C17 1_555 1_555
H22 C22 1_555 1_555
C23 C20 1_555 1_555
C24 C23 1_555 1_555
H23 C24 1_555 1_555
C25 C24 1_555 1_555
H24 C25 1_555 1_555
C26 C25 1_555 1_555
H25 C26 1_555 1_555
C27 C26 1_555 1_555
H26 C27 1_555 1_555
C28 C23 1_555 1_555
H27 C28 1_555 1_555
N1 C8 1_555 1_555
O1 S1 1_555 1_555
O2 S1 1_555 1_555
S1 C1 1_555 1_555
C6 C7 1_555 1_555
C13 C14 1_555 1_555
C15 N1 1_555 1_555
C17 C18 1_555 1_555
C21 C22 1_555 1_555
C27 C28 1_555 1_555
N1 S1 1_555 1_555

#END
