
#######################################################################
#
#                 Cambridge Crystallographic Data Centre
#                                CCDC 
#
#######################################################################
#
# If this CIF has been generated from an entry in the Cambridge 
# Structural Database, then it will include bibliographic, chemical, 
# crystal, experimental, refinement or atomic coordinate data resulting 
# from the CCDC's data processing and validation procedures.
#
#######################################################################

data_BAFZAM
_chemical_formula_moiety         'C18 H25 N1 O3 S1'
_chemical_name_systematic        
N-((7-ethyl-8-oxobicyclo[4.2.0]octan-3-yl)methyl)-4-methylbenzenesulfonamide
_symmetry_cell_setting           monoclinic
_symmetry_space_group_name_H-M   'P 21/n'
_symmetry_Int_Tables_number      14
_space_group_name_Hall           '-P 2yn'
loop_
_symmetry_equiv_pos_site_id
_symmetry_equiv_pos_as_xyz
1 x,y,z
2 1/2-x,1/2+y,1/2-z
3 -x,-y,-z
4 1/2+x,1/2-y,1/2+z
_cell_length_a                   6.153(2)
_cell_length_b                   28.210(9)
_cell_length_c                   9.988(3)
_cell_angle_alpha                90
_cell_angle_beta                 90.590(7)
_cell_angle_gamma                90
_cell_volume                     1733.59
_exptl_crystal_colour            colorless
_exptl_crystal_description       prism
_cell_formula_units_Z            4
loop_
_atom_site_label
_atom_site_type_symbol
_atom_site_fract_x
_atom_site_fract_y
_atom_site_fract_z
C1 C 0.5327(11) 0.1623(2) 0.3496(6)
C2 C 0.3960(12) 0.1825(3) 0.2541(7)
H1 H 0.2551 0.1699 0.2378
C3 C 0.4692(14) 0.2217(3) 0.1827(7)
H2 H 0.3771 0.2358 0.1169
C4 C 0.6746(14) 0.2405(2) 0.2060(7)
C5 C 0.7532(19) 0.2821(3) 0.1270(9)
H3 H 0.8593 0.3000 0.1805
H4 H 0.6298 0.3027 0.1040
H5 H 0.8217 0.2709 0.0447
C6 C 0.8048(13) 0.2198(3) 0.3038(8)
H6 H 0.9441 0.2329 0.3224
C7 C 0.7361(12) 0.1802(2) 0.3756(7)
H7 H 0.8282 0.1659 0.4410
C8 C 0.7364(11) 0.0542(2) 0.3291(7)
H8 H 0.8199 0.0629 0.4107
H9 H 0.7928 0.0733 0.2538
C9 C 0.7696(11) 0.0014(2) 0.2992(7)
H10 H 0.6944 -0.0170 0.3706
C10 C 1.0122(13) -0.0104(3) 0.3082(9)
H11 H 1.0965 0.0182 0.2842
H12 H 1.0493 -0.0186 0.4020
C11 C 1.0813(11) -0.0513(3) 0.2175(7)
H13 H 1.1067 -0.0391 0.1261
H14 H 1.2195 -0.0649 0.2516
C12 C 0.9116(11) -0.0891(2) 0.2123(7)
H15 H 0.8899 -0.1056 0.2997
C13 C 0.6987(11) -0.0673(2) 0.1518(8)
H16 H 0.5680 -0.0839 0.1875
C14 C 0.6732(12) -0.0138(2) 0.1646(7)
H17 H 0.5176 -0.0051 0.1594
H18 H 0.7500 0.0023 0.0908
C15 C 0.7685(13) -0.0893(3) 0.0207(8)
C16 C 0.9239(13) -0.1238(3) 0.0884(8)
H19 H 0.8431 -0.1536 0.1101
C17 C 1.1383(13) -0.1369(3) 0.0263(7)
H20 H 1.2234 -0.1077 0.0096
H21 H 1.1115 -0.1526 -0.0609
C18 C 1.2686(14) -0.1699(3) 0.1175(8)
H22 H 1.2906 -0.1548 0.2050
H23 H 1.4100 -0.1765 0.0772
H24 H 1.1889 -0.1997 0.1290
N1 N 0.5057(9) 0.06547(18) 0.3487(6)
O1 O 0.5607(9) 0.10944(17) 0.5606(5)
O2 O 0.2082(8) 0.11280(18) 0.4384(5)
O3 O 0.7426(12) -0.0786(2) -0.0955(6)
H25 H 0.4348 0.0672 0.2609
S1 S 0.4400(3) 0.11132(5) 0.43748(16)
loop_
_geom_bond_atom_site_label_1
_geom_bond_atom_site_label_2
_geom_bond_site_symmetry_1
_geom_bond_site_symmetry_2
C1 C2 1_555 1_555
C2 H1 1_555 1_555
C3 C2 1_555 1_555
H2 C3 1_555 1_555
C4 C3 1_555 1_555
C5 C4 1_555 1_555
H3 C5 1_555 1_555
H4 C5 1_555 1_555
H5 C5 1_555 1_555
C6 C4 1_555 1_555
H6 C6 1_555 1_555
C7 C1 1_555 1_555
H7 C7 1_555 1_555
C8 H8 1_555 1_555
H9 C8 1_555 1_555
C9 C8 1_555 1_555
H10 C9 1_555 1_555
C10 C9 1_555 1_555
H11 C10 1_555 1_555
H12 C10 1_555 1_555
C11 C10 1_555 1_555
H13 C11 1_555 1_555
H14 C11 1_555 1_555
C12 C11 1_555 1_555
H15 C12 1_555 1_555
C13 C12 1_555 1_555
H16 C13 1_555 1_555
C14 C9 1_555 1_555
H17 C14 1_555 1_555
H18 C14 1_555 1_555
C15 C13 1_555 1_555
C16 C12 1_555 1_555
H19 C16 1_555 1_555
C17 C16 1_555 1_555
H20 C17 1_555 1_555
H21 C17 1_555 1_555
C18 C17 1_555 1_555
H22 C18 1_555 1_555
H23 C18 1_555 1_555
H24 C18 1_555 1_555
N1 C8 1_555 1_555
O1 S1 1_555 1_555
O2 S1 1_555 1_555
O3 C15 1_555 1_555
H25 N1 1_555 1_555
S1 C1 1_555 1_555
C6 C7 1_555 1_555
C13 C14 1_555 1_555
C15 C16 1_555 1_555
N1 S1 1_555 1_555

#END
