
#######################################################################
#
#                 Cambridge Crystallographic Data Centre
#                                CCDC 
#
#######################################################################
#
# If this CIF has been generated from an entry in the Cambridge 
# Structural Database, then it will include bibliographic, chemical, 
# crystal, experimental, refinement or atomic coordinate data resulting 
# from the CCDC's data processing and validation procedures.
#
#######################################################################

data_BAFZOA
_chemical_formula_moiety         'C22 H31 N1 O4 S1'
_chemical_name_systematic        
(1R*,5R*,8S*)-8-heptanoyl-3-((4-methylphenyl)sulfonyl)-3-azabicyclo[3.3.1]nonan-2-one
_symmetry_cell_setting           monoclinic
_symmetry_space_group_name_H-M   'C 2/c'
_symmetry_Int_Tables_number      15
_space_group_name_Hall           '-C 2yn'
loop_
_symmetry_equiv_pos_site_id
_symmetry_equiv_pos_as_xyz
1 x,y,z
2 -x,y,1/2-z
3 1/2+x,1/2+y,z
4 1/2-x,1/2+y,1/2-z
5 -x,-y,-z
6 x,-y,1/2+z
7 1/2-x,1/2-y,-z
8 1/2+x,1/2-y,1/2+z
_cell_length_a                   35.628(4)
_cell_length_b                   7.7768(9)
_cell_length_c                   15.986(3)
_cell_angle_alpha                90
_cell_angle_beta                 105.130(4)
_cell_angle_gamma                90
_cell_volume                     4275.73
_exptl_crystal_colour            colorless
_exptl_crystal_description       prism
_cell_formula_units_Z            8
loop_
_atom_site_label
_atom_site_type_symbol
_atom_site_fract_x
_atom_site_fract_y
_atom_site_fract_z
C1 C 0.12594(9) 0.7005(4) 0.9798(2)
C2 C 0.08740(10) 0.6521(5) 0.9470(2)
H1 H 0.0800 0.5346 0.9462
C3 C 0.05990(11) 0.7785(5) 0.9154(3)
H2 H 0.0335 0.7462 0.8929
C4 C 0.06999(12) 0.9500(5) 0.9157(3)
C5 C 0.03965(15) 1.0863(7) 0.8803(3)
H3 H 0.0521 1.1995 0.8855
H4 H 0.0200 1.0853 0.9133
H5 H 0.0272 1.0623 0.8192
C6 C 0.10859(12) 0.9953(5) 0.9491(2)
H6 H 0.1159 1.1129 0.9499
C7 C 0.13646(10) 0.8731(4) 0.9812(2)
H7 H 0.1628 0.9062 1.0042
C8 C 0.15821(9) 0.4314(4) 0.8608(2)
C9 C 0.17556(10) 0.4088(4) 0.7843(2)
H8 H 0.1539 0.4081 0.7300
C10 C 0.20304(11) 0.5556(4) 0.7788(2)
H9 H 0.1889 0.6664 0.7722
H10 H 0.2137 0.5395 0.7281
C11 C 0.23596(10) 0.5568(4) 0.8620(2)
H11 H 0.2541 0.6524 0.8573
C12 C 0.21951(9) 0.5957(4) 0.9390(2)
H12 H 0.2388 0.5608 0.9929
H13 H 0.2156 0.7214 0.9419
C13 C 0.25885(10) 0.3883(5) 0.8705(3)
H14 H 0.2797 0.3900 0.9253
H15 H 0.2713 0.3794 0.8221
C14 C 0.23320(9) 0.2301(4) 0.8698(2)
H16 H 0.2247 0.2271 0.9239
H17 H 0.2485 0.1248 0.8676
C15 C 0.19736(9) 0.2330(4) 0.7916(2)
H18 H 0.2075 0.2243 0.7390
C16 C 0.17167(10) 0.0761(4) 0.7899(2)
C17 C 0.13290(11) 0.0688(5) 0.7232(2)
H19 H 0.1362 0.1161 0.6680
H20 H 0.1145 0.1443 0.7426
C18 C 0.11503(11) -0.1086(5) 0.7058(3)
H21 H 0.1151 -0.1634 0.7618
H22 H 0.1313 -0.1798 0.6778
C19 C 0.07368(12) -0.1061(5) 0.6484(3)
H23 H 0.0567 -0.0524 0.6811
H24 H 0.0730 -0.0324 0.5976
C20 C 0.05707(13) -0.2807(6) 0.6164(3)
H25 H 0.0314 -0.2634 0.5748
H26 H 0.0743 -0.3350 0.5845
C21 C 0.05221(15) -0.4020(6) 0.6848(3)
H27 H 0.0349 -0.3486 0.7169
H28 H 0.0779 -0.4206 0.7264
C22 C 0.03533(19) -0.5761(7) 0.6499(4)
H29 H 0.0330 -0.6493 0.6982
H30 H 0.0526 -0.6314 0.6193
H31 H 0.0096 -0.5595 0.6099
N1 N 0.18182(7) 0.5073(3) 0.93521(16)
O1 O 0.14606(8) 0.3929(3) 1.04217(16)
O2 O 0.19306(7) 0.6293(3) 1.08245(14)
O3 O 0.12524(6) 0.3846(3) 0.85850(15)
O4 O 0.18266(8) -0.0404(3) 0.84040(17)
S1 S 0.16226(2) 0.54688(10) 1.01904(5)
loop_
_geom_bond_atom_site_label_1
_geom_bond_atom_site_label_2
_geom_bond_site_symmetry_1
_geom_bond_site_symmetry_2
C1 C2 1_555 1_555
C2 H1 1_555 1_555
C3 C2 1_555 1_555
H2 C3 1_555 1_555
C4 C3 1_555 1_555
C5 C4 1_555 1_555
H3 C5 1_555 1_555
H4 C5 1_555 1_555
H5 C5 1_555 1_555
C6 C4 1_555 1_555
H6 C6 1_555 1_555
C7 C1 1_555 1_555
H7 C7 1_555 1_555
C8 C9 1_555 1_555
C9 H8 1_555 1_555
C10 C9 1_555 1_555
H9 C10 1_555 1_555
H10 C10 1_555 1_555
C11 C10 1_555 1_555
H11 C11 1_555 1_555
C12 C11 1_555 1_555
H12 C12 1_555 1_555
H13 C12 1_555 1_555
C13 C11 1_555 1_555
H14 C13 1_555 1_555
H15 C13 1_555 1_555
C14 C13 1_555 1_555
H16 C14 1_555 1_555
H17 C14 1_555 1_555
C15 C9 1_555 1_555
H18 C15 1_555 1_555
C16 C15 1_555 1_555
C17 C16 1_555 1_555
H19 C17 1_555 1_555
H20 C17 1_555 1_555
C18 C17 1_555 1_555
H21 C18 1_555 1_555
H22 C18 1_555 1_555
C19 C18 1_555 1_555
H23 C19 1_555 1_555
H24 C19 1_555 1_555
C20 C19 1_555 1_555
H25 C20 1_555 1_555
H26 C20 1_555 1_555
C21 C20 1_555 1_555
H27 C21 1_555 1_555
H28 C21 1_555 1_555
C22 C21 1_555 1_555
H29 C22 1_555 1_555
H30 C22 1_555 1_555
H31 C22 1_555 1_555
N1 C8 1_555 1_555
O1 S1 1_555 1_555
O2 S1 1_555 1_555
O3 C8 1_555 1_555
O4 C16 1_555 1_555
S1 C1 1_555 1_555
C6 C7 1_555 1_555
C12 N1 1_555 1_555
C14 C15 1_555 1_555
N1 S1 1_555 1_555

#END
