
#######################################################################
#
#                 Cambridge Crystallographic Data Centre
#                                CCDC 
#
#######################################################################
#
# If this CIF has been generated from an entry in the Cambridge 
# Structural Database, then it will include bibliographic, chemical, 
# crystal, experimental, refinement or atomic coordinate data resulting 
# from the CCDC's data processing and validation procedures.
#
#######################################################################

data_BAGBAP
_chemical_formula_moiety         'C24 H25 N1 O6 S1'
_chemical_name_systematic        
'methyl 4-((1R*,5R*,6S*)-(3-((4-methylphenyl)sulfonyl)-4-oxo-3-azabicyclo[3.3.1]nonan-6-yl)carbonyl)benzoate'
_symmetry_cell_setting           monoclinic
_symmetry_space_group_name_H-M   'P 21/c'
_symmetry_Int_Tables_number      14
_space_group_name_Hall           '-P 2ybc'
loop_
_symmetry_equiv_pos_site_id
_symmetry_equiv_pos_as_xyz
1 x,y,z
2 -x,1/2+y,1/2-z
3 -x,-y,-z
4 x,1/2-y,1/2+z
_cell_length_a                   26.8944(10)
_cell_length_b                   6.4389(2)
_cell_length_c                   12.7221(5)
_cell_angle_alpha                90
_cell_angle_beta                 100.463(2)
_cell_angle_gamma                90
_cell_volume                     2166.46
_exptl_crystal_colour            colorless
_exptl_crystal_description       prism
_cell_formula_units_Z            4
loop_
_atom_site_label
_atom_site_type_symbol
_atom_site_fract_x
_atom_site_fract_y
_atom_site_fract_z
C1 C 0.11363(6) 0.4972(3) 0.72815(13)
C2 C 0.09887(7) 0.4316(3) 0.82147(14)
H1 H 0.1086 0.2985 0.8504
C3 C 0.06982(7) 0.5623(3) 0.87217(14)
H2 H 0.0594 0.5166 0.9358
C4 C 0.05555(7) 0.7584(3) 0.83231(15)
C5 C 0.02385(8) 0.8975(4) 0.88800(17)
H3 H 0.0004 0.8212 0.9159
H4 H 0.0428 0.9699 0.9395
H5 H 0.0094 1.0151 0.8421
C6 C 0.07135(7) 0.8219(3) 0.73891(15)
H6 H 0.0623 0.9560 0.7107
C7 C 0.10004(7) 0.6931(3) 0.68667(15)
H7 H 0.1104 0.7381 0.6229
C8 C 0.22462(6) 0.5571(3) 0.68152(13)
C9 C 0.26053(6) 0.6989(3) 0.63698(14)
H8 H 0.2711 0.8133 0.6895
C10 C 0.23552(8) 0.7953(3) 0.53066(15)
H9 H 0.2056 0.8776 0.5404
H10 H 0.2596 0.8888 0.5037
C11 C 0.21961(7) 0.6198(3) 0.45131(14)
H11 H 0.2042 0.6840 0.3814
C12 C 0.17931(7) 0.4864(3) 0.48843(13)
H12 H 0.1458 0.5499 0.4630
H13 H 0.1793 0.3473 0.4553
C13 C 0.26550(8) 0.4965(4) 0.43389(15)
H14 H 0.2881 0.5881 0.4013
H15 H 0.2543 0.3820 0.3831
C14 C 0.29494(7) 0.4062(3) 0.53714(16)
H16 H 0.3264 0.3409 0.5229
H17 H 0.2744 0.2972 0.5638
C15 C 0.30836(6) 0.5745(3) 0.62267(14)
H18 H 0.3320 0.6739 0.5966
C16 C 0.33588(7) 0.4840(3) 0.72749(16)
C17 C 0.36273(6) 0.6239(3) 0.81382(14)
C18 C 0.37387(7) 0.8315(3) 0.79619(15)
H19 H 0.3625 0.8925 0.7281
C19 C 0.40142(6) 0.9483(3) 0.87759(14)
H20 H 0.4095 1.0884 0.8644
C20 C 0.41743(6) 0.8640(3) 0.97815(14)
C21 C 0.40635(7) 0.6570(3) 0.99664(15)
H21 H 0.4174 0.5970 1.0651
C22 C 0.37927(7) 0.5400(3) 0.91523(15)
H22 H 0.3717 0.3993 0.9284
C23 C 0.44470(7) 1.0013(3) 1.06434(15)
C24 C 0.47592(8) 1.0369(3) 1.24902(16)
H23 H 0.4790 0.9567 1.3154
H24 H 0.4559 1.1623 1.2546
H25 H 0.5097 1.0763 1.2372
N1 N 0.18690(5) 0.4616(2) 0.60752(11)
O1 O 0.16762(5) 0.15941(19) 0.72469(11)
O2 O 0.10826(5) 0.2582(2) 0.56281(10)
O3 O 0.22760(5) 0.5270(2) 0.77645(9)
O4 O 0.33717(7) 0.2983(2) 0.74144(14)
O5 O 0.45109(5) 0.9119(2) 1.16035(10)
O6 O 0.45868(6) 1.1750(2) 1.04945(12)
S1 S 0.143948(16) 0.31877(7) 0.65559(3)
loop_
_geom_bond_atom_site_label_1
_geom_bond_atom_site_label_2
_geom_bond_site_symmetry_1
_geom_bond_site_symmetry_2
C1 C2 1_555 1_555
C2 H1 1_555 1_555
C3 C2 1_555 1_555
H2 C3 1_555 1_555
C4 C3 1_555 1_555
C5 C4 1_555 1_555
H3 C5 1_555 1_555
H4 C5 1_555 1_555
H5 C5 1_555 1_555
C6 C4 1_555 1_555
H6 C6 1_555 1_555
C7 C1 1_555 1_555
H7 C7 1_555 1_555
C8 C9 1_555 1_555
C9 H8 1_555 1_555
C10 C9 1_555 1_555
H9 C10 1_555 1_555
H10 C10 1_555 1_555
C11 C10 1_555 1_555
H11 C11 1_555 1_555
C12 C11 1_555 1_555
H12 C12 1_555 1_555
H13 C12 1_555 1_555
C13 C11 1_555 1_555
H14 C13 1_555 1_555
H15 C13 1_555 1_555
C14 C13 1_555 1_555
H16 C14 1_555 1_555
H17 C14 1_555 1_555
C15 C9 1_555 1_555
H18 C15 1_555 1_555
C16 C15 1_555 1_555
C17 C16 1_555 1_555
C18 C17 1_555 1_555
H19 C18 1_555 1_555
C19 C18 1_555 1_555
H20 C19 1_555 1_555
C20 C19 1_555 1_555
C21 C20 1_555 1_555
H21 C21 1_555 1_555
C22 C17 1_555 1_555
H22 C22 1_555 1_555
C23 C20 1_555 1_555
C24 H23 1_555 1_555
H24 C24 1_555 1_555
H25 C24 1_555 1_555
N1 C8 1_555 1_555
O1 S1 1_555 1_555
O2 S1 1_555 1_555
O3 C8 1_555 1_555
O4 C16 1_555 1_555
O5 C23 1_555 1_555
O6 C23 1_555 1_555
S1 C1 1_555 1_555
C6 C7 1_555 1_555
C12 N1 1_555 1_555
C14 C15 1_555 1_555
C21 C22 1_555 1_555
C24 O5 1_555 1_555
N1 S1 1_555 1_555

#END
