
#######################################################################
#
#                 Cambridge Crystallographic Data Centre
#                                CCDC 
#
#######################################################################
#
# If this CIF has been generated from an entry in the Cambridge 
# Structural Database, then it will include bibliographic, chemical, 
# crystal, experimental, refinement or atomic coordinate data resulting 
# from the CCDC's data processing and validation procedures.
#
#######################################################################

data_BAGBUJ
_chemical_formula_moiety         
'2(C50 H56 O16),3(C12 H14 N2 2+),4(C3 H6 O1),6(F6 P1 1-)'
_chemical_name_systematic        
"tris(1,1'-dimethyl-4,4'-bipyridin-1-ium) bis(14,61-dimethyl-5,11,17,23,30,33,36,39,42,45,48,51,54,57-tetradecaoxanonacyclo[25.17.13.1^3,43^.1^6,10^.1^9,13^.1^18,22^.1^25,29^.0^14,19^.0^15,61^]dohexaconta-1,3(58),6(62),7,9,18(60),19,21,25(59),26,28,43-dodecaene-12,16-dione) hexakis(hexafluorophosphate) acetone solvate"
_symmetry_cell_setting           triclinic
_symmetry_space_group_name_H-M   'P -1'
_symmetry_Int_Tables_number      2
_space_group_name_Hall           '-P 1'
loop_
_symmetry_equiv_pos_site_id
_symmetry_equiv_pos_as_xyz
1 x,y,z
2 -x,-y,-z
_cell_length_a                   12.9533(7)
_cell_length_b                   13.4370(6)
_cell_length_c                   26.4914(13)
_cell_angle_alpha                82.573(4)
_cell_angle_beta                 79.383(5)
_cell_angle_gamma                65.221(5)
_cell_volume                     4107.73
_exptl_crystal_colour            yellow
_exptl_crystal_description       plate
_cell_formula_units_Z            1
loop_
_atom_site_label
_atom_site_type_symbol
_atom_site_fract_x
_atom_site_fract_y
_atom_site_fract_z
P1 P 0.48726(15) 0.69509(14) 0.30412(7)
F1 F 0.5220(3) 0.7879(3) 0.31691(15)
F2 F 0.4521(4) 0.6024(4) 0.29097(19)
F3 F 0.5260(6) 0.6294(4) 0.3549(2)
F4 F 0.4413(6) 0.7631(4) 0.2547(2)
F5 F 0.3642(4) 0.7567(5) 0.3339(3)
F6 F 0.6087(4) 0.6342(5) 0.2757(3)
O1 O -0.0406(3) 0.5632(3) 0.29031(18)
O2 O 0.4516(3) 0.3628(3) 0.09744(15)
O3 O 0.5236(4) 0.6809(3) 0.09857(15)
O4 O -0.0573(4) 0.4043(3) 0.22516(18)
O5 O 0.7719(4) 0.3310(3) 0.48901(17)
C1 C 0.1015(4) 0.5577(5) 0.3403(2)
H1 H 0.1208 0.4827 0.3512
C2 C -0.0073(5) 0.7188(5) 0.2916(2)
H2 H -0.0640 0.7542 0.2695
O6 O 0.0158(4) 0.8823(3) 0.28695(19)
O7 O 0.2610(4) 0.4557(4) 0.4044(2)
C3 C 0.5380(5) 0.5795(4) 0.1206(2)
O8 O 0.6179(5) 0.3054(4) 0.25643(18)
O9 O 0.7322(4) 0.3114(4) 0.4154(2)
O10 O 0.0630(4) 1.0428(3) 0.2184(2)
C4 C 0.5529(4) 0.3726(4) 0.1599(2)
H3 H 0.5582 0.3018 0.1733
O11 O 0.0325(4) 0.4375(4) 0.11906(17)
C5 C 0.1552(5) 0.6165(5) 0.3567(2)
O12 O 0.4108(4) 0.9107(3) 0.10084(18)
C6 C 0.6882(4) 0.0453(4) 0.4770(2)
H4 H 0.7279 -0.0156 0.5018
C7 C 0.5986(4) 0.4277(4) 0.1830(2)
C8 C 0.3503(5) 0.3883(5) 0.4300(2)
O13 O 0.6321(5) -0.0775(4) 0.4448(2)
O14 O 0.5130(5) 0.0927(4) 0.4409(2)
O15 O 0.1928(4) 1.0842(4) 0.1280(2)
C9 C 0.5912(4) 0.5327(4) 0.1635(2)
H5 H 0.6225 0.5708 0.1797
C10 C 0.7793(4) 0.0839(4) 0.4424(2)
C11 C 0.7462(6) 0.2784(6) 0.4674(3)
C12 C 0.4901(5) 0.5245(5) 0.0971(2)
H6 H 0.4522 0.5580 0.0681
C13 C 0.0471(5) 0.7754(5) 0.3073(2)
C14 C 0.7396(4) 0.1436(5) 0.39263(19)
C15 C 0.5334(4) 0.2351(4) 0.47868(19)
C16 C 0.7500(5) 0.1660(4) 0.4831(2)
H7 H 0.8032 0.1313 0.5094
C17 C 0.5621(6) 0.7452(5) 0.1230(3)
H8 H 0.6463 0.7081 0.1227
H9 H 0.5245 0.7546 0.1592
O16 O 0.2545(5) 0.3394(5) 0.06354(19)
C18 C 0.1282(5) 0.7246(5) 0.3400(2)
H10 H 0.1653 0.7641 0.3509
C19 C 0.6537(5) 0.3816(5) 0.2310(2)
C20 C 0.6192(6) 0.0115(6) 0.4506(3)
C21 C 0.6582(6) 0.2545(6) 0.3015(2)
C22 C 0.6335(4) 0.1535(4) 0.50391(19)
C23 C 0.2437(5) 0.5652(5) 0.3922(3)
H11 H 0.3169 0.5693 0.3754
H12 H 0.2177 0.6057 0.4240
C24 C -0.0104(5) 0.4476(5) 0.3020(2)
H13 H -0.0207 0.4324 0.3398
H14 H 0.0712 0.4054 0.2883
C25 C 0.4067(6) 0.4239(5) 0.4561(4)
H15 H 0.3853 0.5002 0.4580
C26 C 0.0746(6) 0.9441(5) 0.2986(3)
H16 H 0.1581 0.9066 0.2868
H17 H 0.0628 0.9512 0.3362
C27 C -0.0841(6) 0.4733(6) 0.1402(3)
H18 H -0.1107 0.4146 0.1387
H19 H -0.1304 0.5386 0.1197
C28 C -0.1017(6) 0.5018(5) 0.1954(3)
C29 C 0.0521(6) 0.4202(6) 0.0665(3)
H20 H -0.0094 0.4789 0.0493
H21 H 0.0504 0.3490 0.0619
C30 C 0.4726(6) 0.2047(5) 0.4533(3)
C31 C 0.7281(7) 0.2457(5) 0.3790(3)
C32 C -0.0851(6) 0.4134(5) 0.2784(3)
H22 H -0.0810 0.3416 0.2948
H23 H -0.1656 0.4674 0.2861
C33 C 0.5313(6) 0.8551(5) 0.0938(3)
H24 H 0.5659 0.8982 0.1068
H25 H 0.5610 0.8452 0.0568
C34 C 0.4154(6) 0.3981(6) 0.0484(2)
H26 H 0.4813 0.3952 0.0220
H27 H 0.3566 0.4746 0.0488
C35 C 0.0266(6) 1.0553(5) 0.2713(3)
H28 H -0.0584 1.0874 0.2785
H29 H 0.0546 1.1051 0.2834
C36 C 0.3822(6) 0.2763(6) 0.4289(3)
H30 H 0.3422 0.2495 0.4114
C37 C 0.6705(9) 0.1493(8) 0.3128(3)
H31 H 0.6509 0.1128 0.2902
C38 C 0.3745(7) 1.0141(6) 0.0744(3)
H32 H 0.4115 1.0073 0.0381
H33 H 0.3964 1.0638 0.0903
C39 C 0.6057(6) 0.1440(6) 0.5621(2)
H34 H 0.5464 0.1150 0.5716
H35 H 0.5777 0.2166 0.5757
H36 H 0.6752 0.0941 0.5766
C40 C 0.7119(9) 0.0961(8) 0.3575(3)
H37 H 0.7218 0.0217 0.3643
C41 C 0.3658(6) 0.3221(6) 0.0366(3)
H38 H 0.3622 0.3299 -0.0008
H39 H 0.4190 0.2456 0.0447
C42 C 0.9013(5) -0.0062(6) 0.4346(3)
H40 H 0.9253 -0.0378 0.4681
H41 H 0.9541 0.0254 0.4157
H42 H 0.9027 -0.0638 0.4149
C43 C 0.4971(6) 0.3468(5) 0.4803(3)
H43 H 0.5359 0.3729 0.4989
C44 C 0.6926(8) 0.3011(6) 0.3339(3)
H44 H 0.6921 0.3722 0.3253
C45 C 0.1677(8) 0.4199(8) 0.0423(3)
H45 H 0.1791 0.4103 0.0050
H46 H 0.1685 0.4917 0.0467
C46 C 0.0738(7) 1.1200(6) 0.1341(4)
H47 H 0.0543 1.0634 0.1228
H48 H 0.0412 1.1879 0.1121
C47 C 0.2468(8) 1.0595(6) 0.0771(3)
H49 H 0.2207 1.1269 0.0542
H50 H 0.2249 1.0052 0.0651
C48 C 0.0227(6) 1.1417(5) 0.1879(3)
H51 H 0.0440 1.1964 0.1998
H52 H -0.0621 1.1719 0.1909
C49 C 0.0208(5) 0.6101(5) 0.3083(2)
C50 C 0.4982(5) 0.4217(5) 0.1164(2)
N1 N 0.2239(4) 0.6934(4) 0.1711(2)
C51 C 0.2618(4) 0.4784(5) 0.2040(2)
C52 C 0.3081(5) 0.5379(5) 0.2256(2)
H53 H 0.3542 0.5043 0.2521
C53 C 0.2874(5) 0.3629(5) 0.2180(2)
N2 N 0.3330(5) 0.1434(5) 0.2455(3)
C54 C 0.1772(5) 0.6396(5) 0.1509(3)
H54 H 0.1302 0.6765 0.1250
C55 C 0.1934(5) 0.5360(6) 0.1655(2)
H55 H 0.1584 0.5008 0.1498
C56 C 0.3375(6) 0.3101(6) 0.2625(3)
H56 H 0.3554 0.3500 0.2841
C57 C 0.2871(5) 0.6428(5) 0.2086(2)
H57 H 0.3185 0.6820 0.2239
C58 C 0.2060(7) 0.8075(5) 0.1530(3)
H58 H 0.1651 0.8291 0.1231
H59 H 0.2806 0.8123 0.1434
H60 H 0.1604 0.8568 0.1807
C59 C 0.2634(6) 0.2986(6) 0.1890(3)
H61 H 0.2298 0.3302 0.1587
C60 C 0.3605(7) 0.2005(7) 0.2744(4)
H62 H 0.3965 0.1650 0.3038
C61 C 0.2870(7) 0.1906(7) 0.2033(4)
H63 H 0.2700 0.1486 0.1824
C62 C 0.3604(7) 0.0257(6) 0.2597(4)
H64 H 0.4267 -0.0050 0.2784
H65 H 0.3785 -0.0139 0.2284
H66 H 0.2940 0.0182 0.2816
N3 N 0.2012(4) 0.3546(6) 0.5828(2)
C63 C 0.1773(7) 0.4586(8) 0.5696(3)
H67 H 0.2149 0.4946 0.5830
C64 C 0.0432(5) 0.4680(5) 0.5169(2)
C65 C 0.0685(7) 0.3591(7) 0.5325(4)
H68 H 0.0311 0.3219 0.5199
C66 C 0.1457(8) 0.3042(7) 0.5655(4)
H69 H 0.1604 0.2298 0.5763
C67 C 0.2847(6) 0.2921(7) 0.6195(4)
H70 H 0.3552 0.3043 0.6089
H71 H 0.3028 0.2136 0.6195
H72 H 0.2507 0.3174 0.6542
C68 C 0.1002(7) 0.5155(7) 0.5372(3)
H73 H 0.0852 0.5906 0.5282
N3A N -0.2012(4) 0.6454(6) 0.4172(2)
C63A C -0.1773(7) 0.5414(8) 0.4304(3)
H67A H -0.2149 0.5054 0.4170
C64A C -0.0432(5) 0.5320(5) 0.4831(2)
C65A C -0.0685(7) 0.6409(7) 0.4675(4)
H68A H -0.0311 0.6781 0.4801
C66A C -0.1457(8) 0.6958(7) 0.4345(4)
H69A H -0.1604 0.7702 0.4237
C67A C -0.2847(6) 0.7079(7) 0.3805(4)
H70A H -0.3552 0.6957 0.3911
H71A H -0.3028 0.7864 0.3805
H72A H -0.2507 0.6826 0.3458
C68A C -0.1002(7) 0.4845(7) 0.4628(3)
H73A H -0.0852 0.4094 0.4718
P2 P 0.12687(18) 0.17692(16) 0.39611(9)
F7 F 0.2634(4) 0.1238(4) 0.3914(3)
F8 F 0.1245(5) 0.2956(4) 0.3961(2)
F9 F 0.1333(4) 0.0592(4) 0.3957(3)
F10 F 0.1415(5) 0.1919(5) 0.3349(2)
F11 F -0.0040(4) 0.2298(5) 0.3948(3)
F12 F 0.1207(9) 0.1672(6) 0.4542(2)
P3 P -0.1020(2) 0.7950(2) 0.06749(10)
F13 F -0.0327(6) 0.8483(6) 0.0862(3)
F14 F -0.0765(6) 0.8365(7) 0.0116(3)
F15 F -0.1220(10) 0.7489(7) 0.1228(3)
F16 F 0.0090(5) 0.6890(5) 0.0579(3)
F17 F -0.2122(5) 0.9001(5) 0.0779(4)
F18 F -0.1732(6) 0.7392(6) 0.0511(4)
O17 O 0.7167(7) 0.3211(8) -0.0217(3)
C69 C 0.7575(8) 0.2636(10) 0.0128(4)
C70 C 0.8004(8) 0.3034(12) 0.0496(5)
H74 H 0.8692 0.3145 0.0328
H75 H 0.8199 0.2493 0.0787
H76 H 0.7411 0.3732 0.0620
C71 C 0.761(3) 0.1554(14) 0.0201(8)
H77 H 0.6954 0.1542 0.0075
H78 H 0.7587 0.1326 0.0569
H79 H 0.8327 0.1049 0.0011
O18 O 0.5867(8) 0.0656(7) 0.2012(4)
C72 C 0.6776(13) 0.0074(14) 0.2012(5)
C73 C 0.7074(11) -0.1120(14) 0.2219(6)
H80 H 0.7232 -0.1203 0.2573
H81 H 0.7754 -0.1608 0.2004
H82 H 0.6425 -0.1311 0.2213
C74 C 0.7813(11) 0.0279(14) 0.1855(6)
H83 H 0.7712 0.0803 0.1556
H84 H 0.8468 -0.0412 0.1766
H85 H 0.7956 0.0582 0.2139
H86? H 0.7066 0.4034 0.2419
H87? H -0.1368 0.5736 0.2076
loop_
_geom_bond_atom_site_label_1
_geom_bond_atom_site_label_2
_geom_bond_site_symmetry_1
_geom_bond_site_symmetry_2
P1 F1 1_555 1_555
F2 P1 1_555 1_555
F3 P1 1_555 1_555
F4 P1 1_555 1_555
F5 P1 1_555 1_555
F6 P1 1_555 1_555
O1 C24 1_555 1_555
O2 C34 1_555 1_555
O3 C3 1_555 1_555
O4 C28 1_555 1_555
O5 C11 1_555 1_555
C1 H1 1_555 1_555
C2 H2 1_555 1_555
O6 C13 1_555 1_555
O7 C8 1_555 1_555
C3 C9 1_555 1_555
O8 C19 1_555 1_555
O9 C11 1_555 1_555
O10 C35 1_555 1_555
C4 H3 1_555 1_555
O11 C27 1_555 1_555
C5 C1 1_555 1_555
O12 C33 1_555 1_555
C6 H4 1_555 1_555
C7 C4 1_555 1_555
C8 C25 1_555 1_555
O13 C20 1_555 1_555
O14 C20 1_555 1_555
O15 C46 1_555 1_555
C9 C7 1_555 1_555
H5 C9 1_555 1_555
C10 C6 1_555 1_555
C11 C16 1_555 1_555
C12 C3 1_555 1_555
H6 C12 1_555 1_555
C13 C2 1_555 1_555
C14 C10 1_555 1_555
C15 C22 1_555 1_555
C16 C10 1_555 1_555
H7 C16 1_555 1_555
C17 O3 1_555 1_555
H8 C17 1_555 1_555
H9 C17 1_555 1_555
O16 C41 1_555 1_555
C18 C5 1_555 1_555
H10 C18 1_555 1_555
C19 C7 1_555 1_555
C20 C6 1_555 1_555
C21 O8 1_555 1_555
C22 C6 1_555 1_555
C23 O7 1_555 1_555
H11 C23 1_555 1_555
H12 C23 1_555 1_555
C24 H13 1_555 1_555
H14 C24 1_555 1_555
C25 H15 1_555 1_555
C26 O6 1_555 1_555
H16 C26 1_555 1_555
H17 C26 1_555 1_555
C27 H18 1_555 1_555
H19 C27 1_555 1_555
C28 C27 1_555 1_555
C29 O11 1_555 1_555
H20 C29 1_555 1_555
H21 C29 1_555 1_555
C30 O14 1_555 1_555
C31 O9 1_555 1_555
C32 O4 1_555 1_555
H22 C32 1_555 1_555
H23 C32 1_555 1_555
C33 C17 1_555 1_555
H24 C33 1_555 1_555
H25 C33 1_555 1_555
C34 H26 1_555 1_555
H27 C34 1_555 1_555
C35 C26 1_555 1_555
H28 C35 1_555 1_555
H29 C35 1_555 1_555
C36 C8 1_555 1_555
H30 C36 1_555 1_555
C37 C21 1_555 1_555
H31 C37 1_555 1_555
C38 O12 1_555 1_555
H32 C38 1_555 1_555
H33 C38 1_555 1_555
C39 C22 1_555 1_555
H34 C39 1_555 1_555
H35 C39 1_555 1_555
H36 C39 1_555 1_555
C40 C14 1_555 1_555
H37 C40 1_555 1_555
C41 C34 1_555 1_555
H38 C41 1_555 1_555
H39 C41 1_555 1_555
C42 C10 1_555 1_555
H40 C42 1_555 1_555
H41 C42 1_555 1_555
H42 C42 1_555 1_555
C43 C15 1_555 1_555
H43 C43 1_555 1_555
C44 C21 1_555 1_555
H44 C44 1_555 1_555
C45 O16 1_555 1_555
H45 C45 1_555 1_555
H46 C45 1_555 1_555
C46 H47 1_555 1_555
H48 C46 1_555 1_555
C47 O15 1_555 1_555
H49 C47 1_555 1_555
H50 C47 1_555 1_555
C48 O10 1_555 1_555
H51 C48 1_555 1_555
H52 C48 1_555 1_555
C49 O1 1_555 1_555
C50 O2 1_555 1_555
N1 C54 1_555 1_555
C51 C52 1_555 1_555
C52 H53 1_555 1_555
C53 C51 1_555 1_555
N2 C60 1_555 1_555
C54 H54 1_555 1_555
C55 C51 1_555 1_555
H55 C55 1_555 1_555
C56 C53 1_555 1_555
H56 C56 1_555 1_555
C57 N1 1_555 1_555
H57 C57 1_555 1_555
C58 N1 1_555 1_555
H58 C58 1_555 1_555
H59 C58 1_555 1_555
H60 C58 1_555 1_555
C59 C53 1_555 1_555
H61 C59 1_555 1_555
C60 C56 1_555 1_555
H62 C60 1_555 1_555
C61 N2 1_555 1_555
H63 C61 1_555 1_555
C62 N2 1_555 1_555
H64 C62 1_555 1_555
H65 C62 1_555 1_555
H66 C62 1_555 1_555
N3 C63 1_555 1_555
C63 H67 1_555 1_555
C64 C65 1_555 1_555
C65 H68 1_555 1_555
C66 N3 1_555 1_555
H69 C66 1_555 1_555
C67 N3 1_555 1_555
H70 C67 1_555 1_555
H71 C67 1_555 1_555
H72 C67 1_555 1_555
C68 C63 1_555 1_555
H73 C68 1_555 1_555
P2 F7 1_555 1_555
F8 P2 1_555 1_555
F9 P2 1_555 1_555
F10 P2 1_555 1_555
F11 P2 1_555 1_555
F12 P2 1_555 1_555
P3 F13 1_555 1_555
F14 P3 1_555 1_555
F15 P3 1_555 1_555
F16 P3 1_555 1_555
F17 P3 1_555 1_555
F18 P3 1_555 1_555
O17 C69 1_555 1_555
C69 C70 1_555 1_555
C70 H74 1_555 1_555
H75 C70 1_555 1_555
H76 C70 1_555 1_555
C71 C69 1_555 1_555
H77 C71 1_555 1_555
H78 C71 1_555 1_555
H79 C71 1_555 1_555
O18 C72 1_555 1_555
C72 C73 1_555 1_555
C73 H80 1_555 1_555
H81 C73 1_555 1_555
H82 C73 1_555 1_555
C74 C72 1_555 1_555
H83 C74 1_555 1_555
H84 C74 1_555 1_555
H85 C74 1_555 1_555
N3A C63A 1_555 1_555
C63A H67A 1_555 1_555
C64A C64 1_555 1_555
C65A C64A 1_555 1_555
H68A C65A 1_555 1_555
C66A N3A 1_555 1_555
H69A C66A 1_555 1_555
C67A N3A 1_555 1_555
H70A C67A 1_555 1_555
H71A C67A 1_555 1_555
H72A C67A 1_555 1_555
C68A C63A 1_555 1_555
H73A C68A 1_555 1_555
C1 C49 1_555 1_555
C2 C49 1_555 1_555
C4 C50 1_555 1_555
C5 C23 1_555 1_555
C12 C50 1_555 1_555
C13 C18 1_555 1_555
C14 C31 1_555 1_555
C15 C30 1_555 1_555
C16 C22 1_555 1_555
C24 C32 1_555 1_555
C25 C43 1_555 1_555
C29 C45 1_555 1_555
C30 C36 1_555 1_555
C31 C44 1_555 1_555
C37 C40 1_555 1_555
C38 C47 1_555 1_555
C46 C48 1_555 1_555
C52 C57 1_555 1_555
C54 C55 1_555 1_555
C59 C61 1_555 1_555
C64 C68 1_555 1_555
C65 C66 1_555 1_555
C64A C68A 1_555 1_555
C65A C66A 1_555 1_555

#END
