
#######################################################################
#
#                 Cambridge Crystallographic Data Centre
#                                CCDC 
#
#######################################################################
#
# If this CIF has been generated from an entry in the Cambridge 
# Structural Database, then it will include bibliographic, chemical, 
# crystal, experimental, refinement or atomic coordinate data resulting 
# from the CCDC's data processing and validation procedures.
#
#######################################################################

data_BAGDIY
_chemical_formula_moiety         'C11 H12 Cl1 N5 O1'
_chemical_name_systematic        
8-((6-Chloropyridin-3-yl)methyl)-2,6,7,8-tetrahydroimidazo[2,1-c][1,2,4]triazin-3(4H)-one
_symmetry_cell_setting           monoclinic
_symmetry_space_group_name_H-M   'P 21/n'
_symmetry_Int_Tables_number      14
_space_group_name_Hall           '-P 2yn'
loop_
_symmetry_equiv_pos_site_id
_symmetry_equiv_pos_as_xyz
1 x,y,z
2 1/2-x,1/2+y,1/2-z
3 -x,-y,-z
4 1/2+x,1/2-y,1/2+z
_cell_length_a                   10.1095(3)
_cell_length_b                   10.4038(3)
_cell_length_c                   11.9047(3)
_cell_angle_alpha                90
_cell_angle_beta                 101.013(3)
_cell_angle_gamma                90
_cell_volume                     1229.04
_exptl_crystal_colour            'light brown'
_exptl_crystal_description       plate
_cell_formula_units_Z            4
loop_
_atom_site_label
_atom_site_type_symbol
_atom_site_fract_x
_atom_site_fract_y
_atom_site_fract_z
Cl1 Cl 0.13153(6) 0.32025(7) 0.98553(6)
N1 N -0.03071(16) 0.43211(18) 0.81809(16)
C1 C -0.1534(2) 0.4573(2) 0.75506(19)
C2 C -0.27145(17) 0.40293(18) 0.77427(16)
C3 C -0.2615(2) 0.31760(19) 0.86439(17)
C4 C -0.1377(2) 0.2907(2) 0.93118(18)
C5 C -0.02759(19) 0.3512(2) 0.90281(18)
C6 C -0.4044(2) 0.4357(3) 0.69906(18)
N2 N -0.49499(15) 0.49811(16) 0.76450(13)
C7 C -0.4454(2) 0.6082(2) 0.8375(2)
C8 C -0.5745(2) 0.6697(3) 0.8584(2)
N3 N -0.66874(15) 0.63313(16) 0.75521(14)
C9 C -0.8101(2) 0.6612(2) 0.7380(2)
C10 C -0.88372(17) 0.60046(17) 0.62963(15)
O1 O -1.00088(12) 0.63315(13) 0.58832(12)
N4 N -0.81922(15) 0.51071(15) 0.58214(13)
N5 N -0.68790(14) 0.46226(15) 0.62231(13)
C11 C -0.62372(17) 0.52781(17) 0.70761(15)
H1 H -0.155(2) 0.519(2) 0.6942(19)
H2 H -0.337(2) 0.281(2) 0.8798(19)
H3 H -0.127(2) 0.234(2) 0.990(2)
H4 H -0.450(2) 0.357(2) 0.664(2)
H5 H -0.389(2) 0.488(2) 0.639(2)
H6 H -0.388(2) 0.579(2) 0.905(2)
H7 H -0.391(2) 0.664(2) 0.799(2)
H8 H -0.604(2) 0.633(2) 0.922(2)
H9 H -0.566(2) 0.762(3) 0.863(2)
H10 H -0.824(2) 0.757(3) 0.732(2)
H11 H -0.849(3) 0.627(3) 0.801(2)
H12 H -0.866(2) 0.468(2) 0.5238(18)
loop_
_geom_bond_atom_site_label_1
_geom_bond_atom_site_label_2
_geom_bond_site_symmetry_1
_geom_bond_site_symmetry_2
Cl1 C5 1_555 1_555
N1 C1 1_555 1_555
C1 C2 1_555 1_555
C2 C3 1_555 1_555
C3 C4 1_555 1_555
C4 C5 1_555 1_555
C5 N1 1_555 1_555
C6 C2 1_555 1_555
N2 C6 1_555 1_555
C7 N2 1_555 1_555
C8 C7 1_555 1_555
N3 C8 1_555 1_555
C9 N3 1_555 1_555
C10 C9 1_555 1_555
O1 C10 1_555 1_555
N4 C10 1_555 1_555
N5 N4 1_555 1_555
C11 N2 1_555 1_555
H1 C1 1_555 1_555
H2 C3 1_555 1_555
H3 C4 1_555 1_555
H4 C6 1_555 1_555
H5 C6 1_555 1_555
H6 C7 1_555 1_555
H7 C7 1_555 1_555
H8 C8 1_555 1_555
H9 C8 1_555 1_555
H10 C9 1_555 1_555
H11 C9 1_555 1_555
H12 N4 1_555 1_555
N3 C11 1_555 1_555
N5 C11 1_555 1_555

#END
