
#######################################################################
#
#                 Cambridge Crystallographic Data Centre
#                                CCDC 
#
#######################################################################
#
# If this CIF has been generated from an entry in the Cambridge 
# Structural Database, then it will include bibliographic, chemical, 
# crystal, experimental, refinement or atomic coordinate data resulting 
# from the CCDC's data processing and validation procedures.
#
#######################################################################

data_BAGPEH
_chemical_formula_moiety         'C15 H14 Cl1 N1 O2 S1'
_chemical_name_systematic        
'3-(4-chlorophenyl)-2,3,4,5-tetrahydro-1,2-benzothiazepine 1,1-dioxide'
_symmetry_cell_setting           orthorhombic
_symmetry_space_group_name_H-M   'P c a 21'
_symmetry_Int_Tables_number      29
_space_group_name_Hall           'P 2c -2ac'
loop_
_symmetry_equiv_pos_site_id
_symmetry_equiv_pos_as_xyz
1 x,y,z
2 -x,-y,1/2+z
3 1/2+x,-y,z
4 1/2-x,y,1/2+z
_cell_length_a                   15.601(2)
_cell_length_b                   13.4615(18)
_cell_length_c                   7.0024(10)
_cell_angle_alpha                90
_cell_angle_beta                 90
_cell_angle_gamma                90
_cell_volume                     1470.59
_exptl_crystal_colour            colorless
_exptl_crystal_description       prismatic
_cell_formula_units_Z            4
loop_
_atom_site_label
_atom_site_type_symbol
_atom_site_fract_x
_atom_site_fract_y
_atom_site_fract_z
Cl1 Cl 0.32034(9) 0.30868(10) 1.1277(3)
S1 S 0.36760(6) 0.79003(6) 0.43357(14)
N1 N 0.3558(2) 0.7101(2) 0.6033(5)
O1 O 0.29249(17) 0.7833(2) 0.3164(4)
O2 O 0.44970(19) 0.7726(2) 0.3494(4)
C1 C 0.4282(3) 0.6859(3) 0.7317(6)
H1 H 0.4772 0.6691 0.6503
C2 C 0.4561(3) 0.7691(3) 0.8593(7)
H2 H 0.5002 0.7444 0.9448
H3 H 0.4077 0.7891 0.9372
C3 C 0.4909(3) 0.8609(3) 0.7561(7)
H4 H 0.5283 0.8963 0.8435
H5 H 0.5258 0.8386 0.6499
C4 C 0.4251(2) 0.9334(3) 0.6804(6)
C5 C 0.3668(2) 0.9097(3) 0.5365(6)
C6 C 0.3087(3) 0.9789(3) 0.4698(6)
H6 H 0.2697 0.9614 0.3751
C7 C 0.3086(3) 1.0730(3) 0.5430(8)
H7 H 0.2701 1.1198 0.4967
C8 C 0.3645(3) 1.0983(3) 0.6827(8)
H8 H 0.3638 1.1621 0.7333
C9 C 0.4217(3) 1.0301(3) 0.7492(7)
H9 H 0.4600 1.0491 0.8443
C10 C 0.4019(3) 0.5909(3) 0.8354(6)
C11 C 0.4242(3) 0.4993(3) 0.7643(8)
H10 H 0.4570 0.4956 0.6535
C12 C 0.3991(3) 0.4130(3) 0.8534(9)
H11 H 0.4148 0.3516 0.8033
C13 C 0.3515(3) 0.4182(3) 1.0142(8)
C14 C 0.3296(3) 0.5071(3) 1.0922(8)
H12 H 0.2983 0.5099 1.2051
C15 C 0.3548(3) 0.5933(3) 1.0005(8)
H13 H 0.3394 0.6544 1.0521
H14 H 0.308(2) 0.716(3) 0.651(7)
loop_
_geom_bond_atom_site_label_1
_geom_bond_atom_site_label_2
_geom_bond_site_symmetry_1
_geom_bond_site_symmetry_2
Cl1 C13 1_555 1_555
S1 N1 1_555 1_555
N1 C1 1_555 1_555
O1 S1 1_555 1_555
O2 S1 1_555 1_555
C1 H1 1_555 1_555
C2 C1 1_555 1_555
H2 C2 1_555 1_555
H3 C2 1_555 1_555
C3 C2 1_555 1_555
H4 C3 1_555 1_555
H5 C3 1_555 1_555
C4 C3 1_555 1_555
C5 S1 1_555 1_555
C6 C5 1_555 1_555
H6 C6 1_555 1_555
C7 C6 1_555 1_555
H7 C7 1_555 1_555
C8 C7 1_555 1_555
H8 C8 1_555 1_555
C9 C4 1_555 1_555
H9 C9 1_555 1_555
C10 C1 1_555 1_555
C11 C10 1_555 1_555
H10 C11 1_555 1_555
C12 C11 1_555 1_555
H11 C12 1_555 1_555
C13 C12 1_555 1_555
C14 C13 1_555 1_555
H12 C14 1_555 1_555
C15 C10 1_555 1_555
H13 C15 1_555 1_555
H14 N1 1_555 1_555
C4 C5 1_555 1_555
C8 C9 1_555 1_555
C14 C15 1_555 1_555

#END
