
#######################################################################
#
#                 Cambridge Crystallographic Data Centre
#                                CCDC 
#
#######################################################################
#
# If this CIF has been generated from an entry in the Cambridge 
# Structural Database, then it will include bibliographic, chemical, 
# crystal, experimental, refinement or atomic coordinate data resulting 
# from the CCDC's data processing and validation procedures.
#
#######################################################################

data_BAGQOR
_chemical_formula_moiety         'C33 H32 N2 O2'
_chemical_name_systematic        
1-(Diphenylmethyl)-4-(((diphenylmethyl)imino)methyl)-3-ethoxy-4-methylazetidin-2-one
_symmetry_cell_setting           monoclinic
_symmetry_space_group_name_H-M   'P 21/n'
_symmetry_Int_Tables_number      14
_space_group_name_Hall           '-P 2yn'
loop_
_symmetry_equiv_pos_site_id
_symmetry_equiv_pos_as_xyz
1 x,y,z
2 1/2-x,1/2+y,1/2-z
3 -x,-y,-z
4 1/2+x,1/2-y,1/2+z
_cell_length_a                   11.340(3)
_cell_length_b                   13.781(3)
_cell_length_c                   18.083(4)
_cell_angle_alpha                90
_cell_angle_beta                 90.852(19)
_cell_angle_gamma                90
_cell_volume                     2825.64
_exptl_crystal_colour            colorless
_exptl_crystal_description       prism
_chemical_melting_point          '122-123.5 deg.C'
_cell_formula_units_Z            4
_exptl_crystal_recrystallization_method ethanol
loop_
_atom_site_label
_atom_site_type_symbol
_atom_site_fract_x
_atom_site_fract_y
_atom_site_fract_z
O1 O 0.28136(18) 0.52868(13) 0.11980(9)
O2 O 0.46809(14) 0.37769(12) 0.06332(8)
N1 N 0.40681(17) 0.47903(13) 0.21654(10)
N2 N 0.58101(18) 0.26200(15) 0.23277(10)
C1 C 0.3406(2) 0.49706(17) 0.28426(13)
H1 H 0.2571 0.4887 0.2709
C2 C 0.3531(3) 0.60025(19) 0.31277(14)
C3 C 0.4354(3) 0.6642(2) 0.28777(17)
H2 H 0.4879 0.6445 0.2517
C4 C 0.4421(4) 0.7591(2) 0.3155(2)
H3 H 0.4985 0.8019 0.2979
C5 C 0.3652(4) 0.7883(3) 0.3686(2)
H4 H 0.3701 0.8509 0.3877
C6 C 0.2821(4) 0.7263(3) 0.39325(18)
H5 H 0.2289 0.7467 0.4287
C7 C 0.2758(3) 0.6322(2) 0.36590(14)
H6 H 0.2187 0.5901 0.3836
C8 C 0.3691(2) 0.41927(19) 0.34137(13)
C9 C 0.4590(2) 0.4314(2) 0.39295(14)
H7 H 0.4988 0.4903 0.3957
C10 C 0.4906(3) 0.3565(3) 0.44082(16)
H8 H 0.5512 0.3654 0.4753
C11 C 0.4326(4) 0.2705(3) 0.4370(2)
H9 H 0.4552 0.2201 0.4684
C12 C 0.3413(3) 0.2566(2) 0.3876(2)
H10 H 0.3011 0.1978 0.3860
C13 C 0.3094(3) 0.3318(2) 0.33968(16)
H11 H 0.2473 0.3229 0.3062
C14 C 0.3714(3) 0.49407(17) 0.14543(14)
C15 C 0.4850(2) 0.45149(18) 0.11566(12)
H12 H 0.5379 0.5021 0.0975
C16 C 0.5159(2) 0.42230(17) 0.19833(12)
C17 C 0.6312(2) 0.46093(19) 0.22977(13)
H13 H 0.6330 0.4522 0.2824
H14 H 0.6380 0.5287 0.2184
H15 H 0.6958 0.4263 0.2084
C18 C 0.4982(2) 0.31574(17) 0.21122(11)
H16 H 0.4239 0.2889 0.2030
C19 C 0.5554(2) 0.15808(16) 0.24043(12)
H17 H 0.4716 0.1484 0.2378
C20 C 0.6010(2) 0.12155(18) 0.31514(13)
C21 C 0.6937(2) 0.1654(2) 0.35201(14)
H18 H 0.7300 0.2194 0.3316
C22 C 0.7333(3) 0.1291(3) 0.41995(17)
H19 H 0.7955 0.1595 0.4448
C23 C 0.6819(4) 0.0497(3) 0.45009(18)
H20 H 0.7093 0.0252 0.4951
C24 C 0.5901(4) 0.0064(3) 0.41407(19)
H21 H 0.5544 -0.0478 0.4346
C25 C 0.5493(3) 0.0424(2) 0.34692(16)
H22 H 0.4859 0.0125 0.3231
C26 C 0.6121(4) 0.1042(3) 0.17734(15)
C27 C 0.5680(13) 0.0247(10) 0.1393(9)
H23 H 0.4968 -0.0031 0.1529
C28 C 0.6315(17) -0.0133(17) 0.0804(12)
H24 H 0.6010 -0.0669 0.0555
C29 C 0.7384(14) 0.0254(11) 0.0571(9)
H25 H 0.7789 -0.0026 0.0182
C30 C 0.7828(13) 0.1065(8) 0.0933(6)
H26 H 0.8518 0.1363 0.0779
C31 C 0.7195(12) 0.1427(13) 0.1547(10)
H27 H 0.7513 0.1946 0.1812
C32 C 0.5769(2) 0.3427(2) 0.03376(14)
H28 H 0.6299 0.3231 0.0736
H29 H 0.6149 0.3936 0.0057
C33 C 0.5500(3) 0.2583(2) -0.01518(16)
H30 H 0.6224 0.2300 -0.0317
H31 H 0.5042 0.2797 -0.0572
H32 H 0.5062 0.2108 0.0118
C34? C 0.6121(4) 0.1042(3) 0.17734(15)
C35? C 0.550(2) 0.0179(15) 0.1654(14)
C36? C 0.5808(16) -0.0473(17) 0.1097(10)
C37? C 0.6776(19) -0.0248(16) 0.0665(13)
C38? C 0.7407(19) 0.0607(12) 0.0789(9)
C39? C 0.7090(17) 0.1251(16) 0.1357(11)
H33? H 0.4863 0.0034 0.1954
H34? H 0.5379 -0.1039 0.1017
H35? H 0.7004 -0.0670 0.0292
H36? H 0.8045 0.0754 0.0493
H37? H 0.7530 0.1809 0.1449
loop_
_geom_bond_atom_site_label_1
_geom_bond_atom_site_label_2
_geom_bond_site_symmetry_1
_geom_bond_site_symmetry_2
O1 C14 1_555 1_555
O2 C15 1_555 1_555
N1 C1 1_555 1_555
N2 C18 1_555 1_555
C1 H1 1_555 1_555
C2 C1 1_555 1_555
C3 C2 1_555 1_555
H2 C3 1_555 1_555
C4 C3 1_555 1_555
H3 C4 1_555 1_555
C5 C4 1_555 1_555
H4 C5 1_555 1_555
C6 C5 1_555 1_555
H5 C6 1_555 1_555
C7 C2 1_555 1_555
H6 C7 1_555 1_555
C8 C1 1_555 1_555
C9 C8 1_555 1_555
H7 C9 1_555 1_555
C10 C9 1_555 1_555
H8 C10 1_555 1_555
C11 C10 1_555 1_555
H9 C11 1_555 1_555
C12 C11 1_555 1_555
H10 C12 1_555 1_555
C13 C8 1_555 1_555
H11 C13 1_555 1_555
C14 N1 1_555 1_555
C15 C14 1_555 1_555
H12 C15 1_555 1_555
C16 N1 1_555 1_555
C17 C16 1_555 1_555
H13 C17 1_555 1_555
H14 C17 1_555 1_555
H15 C17 1_555 1_555
C18 C16 1_555 1_555
H16 C18 1_555 1_555
C19 N2 1_555 1_555
H17 C19 1_555 1_555
C20 C19 1_555 1_555
C21 C20 1_555 1_555
H18 C21 1_555 1_555
C22 C21 1_555 1_555
H19 C22 1_555 1_555
C23 C22 1_555 1_555
H20 C23 1_555 1_555
C24 C23 1_555 1_555
H21 C24 1_555 1_555
C25 C20 1_555 1_555
H22 C25 1_555 1_555
C26 C19 1_555 1_555
C27 C26 1_555 1_555
H23 C27 1_555 1_555
C28 C27 1_555 1_555
H24 C28 1_555 1_555
C29 C28 1_555 1_555
H25 C29 1_555 1_555
C30 C29 1_555 1_555
H26 C30 1_555 1_555
C31 C26 1_555 1_555
H27 C31 1_555 1_555
C32 O2 1_555 1_555
H28 C32 1_555 1_555
H29 C32 1_555 1_555
C33 C32 1_555 1_555
H30 C33 1_555 1_555
H31 C33 1_555 1_555
H32 C33 1_555 1_555
C6 C7 1_555 1_555
C12 C13 1_555 1_555
C15 C16 1_555 1_555
C24 C25 1_555 1_555
C30 C31 1_555 1_555

#END
