
#######################################################################
#
#                 Cambridge Crystallographic Data Centre
#                                CCDC 
#
#######################################################################
#
# If this CIF has been generated from an entry in the Cambridge 
# Structural Database, then it will include bibliographic, chemical, 
# crystal, experimental, refinement or atomic coordinate data resulting 
# from the CCDC's data processing and validation procedures.
#
#######################################################################

data_BAGSUY
_chemical_formula_moiety         'C26 H33 N4 Se2 1+,Cl1 O4 1-'
_chemical_name_systematic        
'5-Methyl-1,4-bis(2-(phenylselanyl)cyclohexyl)-4H-1,2,3,4-tetraazol-1-ium perchlorate'
_symmetry_cell_setting           orthorhombic
_symmetry_space_group_name_H-M   'P n a 21'
_symmetry_Int_Tables_number      33
_space_group_name_Hall           'P 2c -2n'
loop_
_symmetry_equiv_pos_site_id
_symmetry_equiv_pos_as_xyz
1 x,y,z
2 -x,-y,1/2+z
3 1/2-x,1/2+y,1/2+z
4 1/2+x,1/2-y,z
_cell_length_a                   30.095(6)
_cell_length_b                   12.350(3)
_cell_length_c                   7.560(3)
_cell_angle_alpha                90
_cell_angle_beta                 90
_cell_angle_gamma                90
_cell_volume                     2809.85
_exptl_crystal_colour            'pale brown'
_exptl_crystal_description       block
_cell_formula_units_Z            4
_exptl_crystal_recrystallization_method dichloromethane/hexane
loop_
_atom_site_label
_atom_site_type_symbol
_atom_site_fract_x
_atom_site_fract_y
_atom_site_fract_z
Se1 Se 0.09584(2) 0.37071(6) -0.24528(12)
Se2 Se 0.11150(2) 0.00855(7) -0.00076(13)
N1 N 0.15415(18) 0.3397(4) 0.1073(9)
N2 N 0.11942(19) 0.3351(5) 0.2201(10)
N3 N 0.11976(19) 0.2442(5) 0.2963(9)
N4 N 0.15486(15) 0.1890(4) 0.2345(9)
C1 C 0.1769(2) 0.2474(5) 0.1175(10)
C2 C 0.1632(2) 0.4383(5) 0.0017(13)
H1 H 0.1843 0.4182 -0.0951
C3 C 0.1203(2) 0.4814(5) -0.0846(11)
H2 H 0.0981 0.4952 0.0110
C4 C 0.1298(3) 0.5879(6) -0.1780(12)
H3 H 0.1494 0.5740 -0.2807
H4 H 0.1015 0.6180 -0.2236
C5 C 0.1518(3) 0.6716(6) -0.0585(13)
H5 H 0.1310 0.6919 0.0375
H6 H 0.1584 0.7376 -0.1279
C6 C 0.1945(3) 0.6279(6) 0.0218(15)
H7 H 0.2166 0.6160 -0.0731
H8 H 0.2068 0.6817 0.1055
C7 C 0.1860(3) 0.5218(6) 0.1186(13)
H9 H 0.2147 0.4921 0.1606
H10 H 0.1672 0.5361 0.2234
C8 C 0.0354(2) 0.3739(6) -0.1695(10)
C9 C 0.0171(3) 0.2852(7) -0.0846(11)
H11 H 0.0356 0.2262 -0.0518
C10 C -0.0277(3) 0.2813(8) -0.0470(13)
H12 H -0.0402 0.2194 0.0085
C11 C -0.0540(3) 0.3685(9) -0.0909(13)
H13 H -0.0849 0.3665 -0.0646
C12 C -0.0366(3) 0.4576(8) -0.1715(12)
H14 H -0.0551 0.5177 -0.1988
C13 C 0.0078(2) 0.4605(6) -0.2132(11)
H15 H 0.0197 0.5219 -0.2722
C14 C 0.1640(2) 0.0770(5) 0.2986(9)
H16 H 0.1909 0.0488 0.2363
C15 C 0.1240(2) 0.0033(5) 0.2529(10)
H17 H 0.0973 0.0308 0.3176
C16 C 0.1335(3) -0.1106(6) 0.3155(11)
H18 H 0.1589 -0.1406 0.2485
H19 H 0.1073 -0.1570 0.2924
C17 C 0.1442(2) -0.1123(6) 0.5151(11)
H20 H 0.1179 -0.0879 0.5827
H21 H 0.1512 -0.1873 0.5520
C18 C 0.1831(2) -0.0396(6) 0.5570(11)
H22 H 0.2101 -0.0670 0.4967
H23 H 0.1888 -0.0400 0.6861
C19 C 0.1731(2) 0.0784(5) 0.4943(12)
H24 H 0.1469 0.1072 0.5583
H25 H 0.1988 0.1258 0.5198
C20 C 0.0545(2) -0.0617(5) 0.0101(11)
C21 C 0.0490(2) -0.1602(6) -0.0711(11)
H26 H 0.0736 -0.1937 -0.1281
C22 C 0.0083(3) -0.2108(7) -0.0710(12)
H27 H 0.0044 -0.2782 -0.1296
C23 C -0.0275(3) -0.1614(8) 0.0172(13)
H28 H -0.0556 -0.1961 0.0223
C24 C -0.0212(3) -0.0630(8) 0.0954(11)
H29 H -0.0454 -0.0279 0.1520
C25 C 0.0190(2) -0.0151(6) 0.0932(11)
H30 H 0.0227 0.0527 0.1507
C26 C 0.2174(2) 0.2204(6) 0.0199(15)
H31 H 0.2258 0.2815 -0.0558
H32 H 0.2121 0.1563 -0.0535
H33 H 0.2415 0.2053 0.1037
Cl1 Cl 0.23352(6) 0.39496(15) 0.5361(3)
O1 O 0.2527(3) 0.3559(8) 0.6936(10)
O2 O 0.2443(5) 0.3321(9) 0.3816(11)
O3 O 0.1903(3) 0.3652(11) 0.5456(19)
O4 O 0.2374(8) 0.4963(10) 0.510(2)
loop_
_geom_bond_atom_site_label_1
_geom_bond_atom_site_label_2
_geom_bond_site_symmetry_1
_geom_bond_site_symmetry_2
Se1 C3 1_555 1_555
Se2 C15 1_555 1_555
N1 N2 1_555 1_555
N2 N3 1_555 1_555
N3 N4 1_555 1_555
N4 C1 1_555 1_555
C1 N1 1_555 1_555
C2 N1 1_555 1_555
H1 C2 1_555 1_555
C3 C2 1_555 1_555
H2 C3 1_555 1_555
C4 C3 1_555 1_555
H3 C4 1_555 1_555
H4 C4 1_555 1_555
C5 C4 1_555 1_555
H5 C5 1_555 1_555
H6 C5 1_555 1_555
C6 C5 1_555 1_555
H7 C6 1_555 1_555
H8 C6 1_555 1_555
C7 C2 1_555 1_555
H9 C7 1_555 1_555
H10 C7 1_555 1_555
C8 Se1 1_555 1_555
C9 C8 1_555 1_555
H11 C9 1_555 1_555
C10 C9 1_555 1_555
H12 C10 1_555 1_555
C11 C10 1_555 1_555
H13 C11 1_555 1_555
C12 C11 1_555 1_555
H14 C12 1_555 1_555
C13 C8 1_555 1_555
H15 C13 1_555 1_555
C14 N4 1_555 1_555
H16 C14 1_555 1_555
C15 C14 1_555 1_555
H17 C15 1_555 1_555
C16 C15 1_555 1_555
H18 C16 1_555 1_555
H19 C16 1_555 1_555
C17 C16 1_555 1_555
H20 C17 1_555 1_555
H21 C17 1_555 1_555
C18 C17 1_555 1_555
H22 C18 1_555 1_555
H23 C18 1_555 1_555
C19 C14 1_555 1_555
H24 C19 1_555 1_555
H25 C19 1_555 1_555
C20 Se2 1_555 1_555
C21 C20 1_555 1_555
H26 C21 1_555 1_555
C22 C21 1_555 1_555
H27 C22 1_555 1_555
C23 C22 1_555 1_555
H28 C23 1_555 1_555
C24 C23 1_555 1_555
H29 C24 1_555 1_555
C25 C20 1_555 1_555
H30 C25 1_555 1_555
C26 C1 1_555 1_555
H31 C26 1_555 1_555
H32 C26 1_555 1_555
H33 C26 1_555 1_555
Cl1 O1 1_555 1_555
O2 Cl1 1_555 1_555
O3 Cl1 1_555 1_555
O4 Cl1 1_555 1_555
C6 C7 1_555 1_555
C12 C13 1_555 1_555
C18 C19 1_555 1_555
C24 C25 1_555 1_555

#END
