
#######################################################################
#
#                 Cambridge Crystallographic Data Centre
#                                CCDC 
#
#######################################################################
#
# If this CIF has been generated from an entry in the Cambridge 
# Structural Database, then it will include bibliographic, chemical, 
# crystal, experimental, refinement or atomic coordinate data resulting 
# from the CCDC's data processing and validation procedures.
#
#######################################################################

data_BAGTAF
_chemical_formula_moiety         'C19 H21 N1 O2 Se1'
_chemical_name_systematic        
N-((1R*,2R*)-2-(Phenylseleninyl)cyclohexyl)benzamide
_symmetry_cell_setting           monoclinic
_symmetry_space_group_name_H-M   'P 21/c'
_symmetry_Int_Tables_number      14
_space_group_name_Hall           '-P 2ybc'
loop_
_symmetry_equiv_pos_site_id
_symmetry_equiv_pos_as_xyz
1 x,y,z
2 -x,1/2+y,1/2-z
3 -x,-y,-z
4 x,1/2-y,1/2+z
_cell_length_a                   9.972(1)
_cell_length_b                   29.548(3)
_cell_length_c                   11.830(2)
_cell_angle_alpha                90
_cell_angle_beta                 105.25(1)
_cell_angle_gamma                90
_cell_volume                     3363
_exptl_crystal_colour            colorless
_exptl_crystal_description       block
_chemical_melting_point          '410-411.5 K'
_cell_formula_units_Z            8
_exptl_crystal_recrystallization_method 'ethyl acetate/methanol'
loop_
_atom_site_label
_atom_site_type_symbol
_atom_site_fract_x
_atom_site_fract_y
_atom_site_fract_z
Se1 Se -0.07142(5) -0.105994(14) -0.15579(4)
O1 O -0.0752(3) -0.10904(12) 0.1982(3)
O2 O -0.2326(3) -0.11683(10) -0.1467(3)
N1 N 0.0907(4) -0.11624(13) 0.1014(3)
C1 C 0.0356(5) -0.15839(14) 0.0471(3)
H1 H -0.0635 -0.1607 0.0499
C2 C 0.0384(4) -0.15936(14) -0.0817(3)
H2 H 0.1366 -0.1556 -0.0859
C3 C -0.0189(5) -0.20331(14) -0.1424(4)
H3 H -0.0101 -0.2031 -0.2238
H4 H -0.1186 -0.2061 -0.1453
C4 C 0.0606(5) -0.24349(15) -0.0764(4)
H5 H 0.1584 -0.2422 -0.0806
H6 H 0.0193 -0.2719 -0.1144
C5 C 0.0572(5) -0.24383(15) 0.0524(4)
H7 H -0.0396 -0.2482 0.0572
H8 H 0.1138 -0.2694 0.0936
C6 C 0.1142(5) -0.19933(15) 0.1115(4)
H9 H 0.2138 -0.1967 0.1136
H10 H 0.1067 -0.1995 0.1933
C7 C 0.0325(5) -0.09543(15) 0.1781(4)
C8 C 0.1053(5) -0.05451(15) 0.2418(4)
C9 C 0.0707(5) -0.04061(16) 0.3421(4)
H11 H 0.0001 -0.0561 0.3671
C10 C 0.1379(6) -0.00427(17) 0.4065(5)
H12 H 0.1135 0.0050 0.4754
C11 C 0.2394(5) 0.01839(16) 0.3713(5)
H13 H 0.2874 0.0427 0.4170
C12 C 0.2721(6) 0.00603(16) 0.2696(5)
H14 H 0.3402 0.0226 0.2439
C13 C 0.2062(5) -0.03069(15) 0.2041(4)
H15 H 0.2298 -0.0394 0.1345
C14 C -0.0763(4) -0.12261(14) -0.3148(4)
C15 C -0.2025(5) -0.13472(15) -0.3898(4)
H16 H -0.2838 -0.1368 -0.3625
C16 C -0.2074(5) -0.14368(16) -0.5053(4)
H17 H -0.2934 -0.1515 -0.5586
C17 C -0.0896(5) -0.14142(16) -0.5437(4)
H18 H -0.0944 -0.1476 -0.6235
C18 C 0.0361(5) -0.13021(16) -0.4674(4)
H19 H 0.1176 -0.1289 -0.4946
C19 C 0.0437(5) -0.12092(14) -0.3518(4)
H20 H 0.1301 -0.1135 -0.2985
H21 H 0.1799 -0.1071 0.1046
Se2 Se -0.47700(5) 0.093613(17) 0.00068(4)
O3 O -0.3276(4) 0.20941(14) 0.2344(3)
O4 O -0.3548(4) 0.10471(13) -0.0673(4)
N2 N -0.5239(4) 0.16991(13) 0.1603(3)
C20 C -0.5405(5) 0.18468(15) 0.0400(4)
H22 H -0.4464 0.1918 0.0296
C21 C -0.6033(4) 0.14594(14) -0.0437(4)
H23 H -0.6953 0.1377 -0.0305
C22 C -0.6256(5) 0.15915(16) -0.1708(4)
H24 H -0.5347 0.1653 -0.1868
H25 H -0.6703 0.1338 -0.2217
C23 C -0.7170(5) 0.20114(16) -0.1986(4)
H26 H -0.8105 0.1941 -0.1890
H27 H -0.7275 0.2101 -0.2810
C24 C -0.6536(6) 0.24024(16) -0.1176(4)
H28 H -0.7166 0.2667 -0.1347
H29 H -0.5639 0.2491 -0.1323
C25 C -0.6300(5) 0.22678(16) 0.0102(4)
H30 H -0.5844 0.2521 0.0608
H31 H -0.7209 0.2211 0.0267
C26 C -0.4155(5) 0.18285(16) 0.2476(4)
C27 C -0.4081(5) 0.16202(16) 0.3656(4)
C28 C -0.3672(5) 0.18937(18) 0.4648(4)
H32 H -0.3459 0.2203 0.4565
C29 C -0.3573(5) 0.1719(2) 0.5750(4)
H33 H -0.3317 0.1911 0.6417
C30 C -0.3838(5) 0.1278(2) 0.5882(5)
H34 H -0.3763 0.1161 0.6644
C31 C -0.4220(6) 0.09944(19) 0.4914(5)
H35 H -0.4386 0.0682 0.5016
C32 C -0.4360(5) 0.11680(17) 0.3793(5)
H36 H -0.4646 0.0977 0.3127
C33 C -0.5946(5) 0.05023(16) -0.0987(4)
C34 C -0.5712(6) 0.03955(19) -0.2044(5)
H37 H -0.4980 0.0538 -0.2286
C35 C -0.6546(8) 0.0079(2) -0.2759(6)
H38 H -0.6408 0.0006 -0.3503
C36 C -0.7560(8) -0.0127(2) -0.2383(9)
H39 H -0.8129 -0.0347 -0.2867
C37 C -0.7784(7) -0.0024(2) -0.1323(8)
H40 H -0.8506 -0.0172 -0.1078
C38 C -0.6969(6) 0.02913(19) -0.0610(5)
H41 H -0.7113 0.0362 0.0133
H42 H -0.5917 0.1520 0.1761
loop_
_geom_bond_atom_site_label_1
_geom_bond_atom_site_label_2
_geom_bond_site_symmetry_1
_geom_bond_site_symmetry_2
Se1 O2 1_555 1_555
O1 C7 1_555 1_555
N1 C1 1_555 1_555
C1 H1 1_555 1_555
C2 Se1 1_555 1_555
H2 C2 1_555 1_555
C3 C2 1_555 1_555
H3 C3 1_555 1_555
H4 C3 1_555 1_555
C4 C3 1_555 1_555
H5 C4 1_555 1_555
H6 C4 1_555 1_555
C5 C4 1_555 1_555
H7 C5 1_555 1_555
H8 C5 1_555 1_555
C6 C1 1_555 1_555
H9 C6 1_555 1_555
H10 C6 1_555 1_555
C7 N1 1_555 1_555
C8 C7 1_555 1_555
C9 C8 1_555 1_555
H11 C9 1_555 1_555
C10 C9 1_555 1_555
H12 C10 1_555 1_555
C11 C10 1_555 1_555
H13 C11 1_555 1_555
C12 C11 1_555 1_555
H14 C12 1_555 1_555
C13 C8 1_555 1_555
H15 C13 1_555 1_555
C14 Se1 1_555 1_555
C15 C14 1_555 1_555
H16 C15 1_555 1_555
C16 C15 1_555 1_555
H17 C16 1_555 1_555
C17 C16 1_555 1_555
H18 C17 1_555 1_555
C18 C17 1_555 1_555
H19 C18 1_555 1_555
C19 C14 1_555 1_555
H20 C19 1_555 1_555
H21 N1 1_555 1_555
Se2 O4 1_555 1_555
O3 C26 1_555 1_555
N2 C20 1_555 1_555
C20 H22 1_555 1_555
C21 Se2 1_555 1_555
H23 C21 1_555 1_555
C22 C21 1_555 1_555
H24 C22 1_555 1_555
H25 C22 1_555 1_555
C23 C22 1_555 1_555
H26 C23 1_555 1_555
H27 C23 1_555 1_555
C24 C23 1_555 1_555
H28 C24 1_555 1_555
H29 C24 1_555 1_555
C25 C20 1_555 1_555
H30 C25 1_555 1_555
H31 C25 1_555 1_555
C26 N2 1_555 1_555
C27 C26 1_555 1_555
C28 C27 1_555 1_555
H32 C28 1_555 1_555
C29 C28 1_555 1_555
H33 C29 1_555 1_555
C30 C29 1_555 1_555
H34 C30 1_555 1_555
C31 C30 1_555 1_555
H35 C31 1_555 1_555
C32 C27 1_555 1_555
H36 C32 1_555 1_555
C33 Se2 1_555 1_555
C34 C33 1_555 1_555
H37 C34 1_555 1_555
C35 C34 1_555 1_555
H38 C35 1_555 1_555
C36 C35 1_555 1_555
H39 C36 1_555 1_555
C37 C36 1_555 1_555
H40 C37 1_555 1_555
C38 C33 1_555 1_555
H41 C38 1_555 1_555
H42 N2 1_555 1_555
C1 C2 1_555 1_555
C5 C6 1_555 1_555
C12 C13 1_555 1_555
C18 C19 1_555 1_555
C20 C21 1_555 1_555
C24 C25 1_555 1_555
C31 C32 1_555 1_555
C37 C38 1_555 1_555

#END
