
#######################################################################
#
#                 Cambridge Crystallographic Data Centre
#                                CCDC 
#
#######################################################################
#
# If this CIF has been generated from an entry in the Cambridge 
# Structural Database, then it will include bibliographic, chemical, 
# crystal, experimental, refinement or atomic coordinate data resulting 
# from the CCDC's data processing and validation procedures.
#
#######################################################################

data_BAGVUB
_chemical_formula_moiety         'C21 H18 N2 O3 S1'
_chemical_name_systematic        
4-methyl-N-(2-methoxy-5-acridinyl)benzenesulfonamide
_symmetry_cell_setting           triclinic
_symmetry_space_group_name_H-M   'P -1'
_symmetry_Int_Tables_number      2
_space_group_name_Hall           '-P 1'
loop_
_symmetry_equiv_pos_site_id
_symmetry_equiv_pos_as_xyz
1 x,y,z
2 -x,-y,-z
_cell_length_a                   8.766(6)
_cell_length_b                   13.67(1)
_cell_length_c                   8.274(5)
_cell_angle_alpha                90.88(8)
_cell_angle_beta                 107.08(5)
_cell_angle_gamma                105.90(7)
_cell_volume                     906.53
_exptl_crystal_colour            yellow
_exptl_crystal_description       block
_cell_formula_units_Z            2
loop_
_atom_site_label
_atom_site_type_symbol
_atom_site_fract_x
_atom_site_fract_y
_atom_site_fract_z
S1 S 0.65707(9) 0.38234(4) 0.74960(8)
O1 O 0.7910(2) -0.26120(13) 1.0845(2)
O2 O 0.5190(3) 0.41783(15) 0.6654(3)
O3 O 0.7763(3) 0.43786(13) 0.9030(2)
N1 N 0.5882(2) 0.26814(14) 0.8045(2)
H1 H 0.6866 0.2517 0.8928
N2 N 0.6410(2) 0.09048(12) 0.8725(2)
C1 C 0.6029(3) -0.18688(16) 0.8869(3)
H2 H 0.5341 -0.2503 0.8314
C2 C 0.5638(3) -0.09550(15) 0.8319(3)
C3 C 0.7398(3) -0.18086(17) 1.0192(3)
C4 C 0.6895(4) -0.36084(19) 1.0103(4)
H3 H 0.7385 -0.4107 1.0673
H4 H 0.6810 -0.3678 0.8921
H5 H 0.5803 -0.3715 1.0214
C5 C 0.8455(3) -0.08443(19) 1.1040(3)
H6 H 0.9399 -0.0814 1.1947
C6 C 0.6691(2) 0.00141(15) 0.9170(3)
C7 C 0.8117(3) 0.00316(17) 1.0554(3)
H7 H 0.8827 0.0655 1.1134
C8 C 0.5060(3) 0.08691(16) 0.7408(3)
C9 C 0.4758(3) 0.18231(17) 0.6949(3)
C10 C 0.3429(3) 0.1843(2) 0.5603(3)
H8 H 0.3246 0.2464 0.5305
C11 C 0.2332(3) 0.0919(2) 0.4664(4)
H9 H 0.1438 0.0942 0.3738
C12 C 0.3923(3) -0.00570(18) 0.6463(3)
C13 C 0.2547(3) -0.0001(2) 0.5075(3)
H10 H 0.1790 -0.0599 0.4445
C14 C 0.4246(3) -0.09648(17) 0.6959(3)
H11 H 0.3527 -0.1585 0.6376
C15 C 0.7621(3) 0.36910(15) 0.6033(3)
C16 C 0.7217(3) 0.40594(16) 0.4463(3)
H12 H 0.6367 0.4370 0.4153
C17 C 0.8099(3) 0.39572(18) 0.3360(3)
H13 H 0.7836 0.4206 0.2305
C18 C 1.0293(4) 0.3369(2) 0.2581(4)
H14 H 1.1115 0.3032 0.3097
H15 H 1.0834 0.4029 0.2313
H16 H 0.9526 0.2965 0.1557
C19 C 0.9361(3) 0.34946(17) 0.3792(3)
C20 C 0.9743(3) 0.3142(2) 0.5382(3)
H17 H 1.0600 0.2837 0.5700
C21 C 0.8888(3) 0.32321(19) 0.6494(3)
H18 H 0.9157 0.2987 0.7552
loop_
_geom_bond_atom_site_label_1
_geom_bond_atom_site_label_2
_geom_bond_site_symmetry_1
_geom_bond_site_symmetry_2
S1 O2 1_555 1_555
O1 C3 1_555 1_555
O3 S1 1_555 1_555
N1 S1 1_555 1_555
H1 N1 1_555 1_555
N2 C6 1_555 1_555
C1 H2 1_555 1_555
C2 C1 1_555 1_555
C3 C1 1_555 1_555
C4 O1 1_555 1_555
H3 C4 1_555 1_555
H4 C4 1_555 1_555
H5 C4 1_555 1_555
C5 C3 1_555 1_555
H6 C5 1_555 1_555
C6 C2 1_555 1_555
C7 C5 1_555 1_555
H7 C7 1_555 1_555
C8 N2 1_555 1_555
C9 N1 1_555 1_555
C10 C9 1_555 1_555
H8 C10 1_555 1_555
C11 C10 1_555 1_555
H9 C11 1_555 1_555
C12 C8 1_555 1_555
C13 C11 1_555 1_555
H10 C13 1_555 1_555
C14 C2 1_555 1_555
H11 C14 1_555 1_555
C15 S1 1_555 1_555
C16 C15 1_555 1_555
H12 C16 1_555 1_555
C17 C16 1_555 1_555
H13 C17 1_555 1_555
C18 H14 1_555 1_555
H15 C18 1_555 1_555
H16 C18 1_555 1_555
C19 C17 1_555 1_555
C20 C19 1_555 1_555
H17 C20 1_555 1_555
C21 C15 1_555 1_555
H18 C21 1_555 1_555
C6 C7 1_555 1_555
C8 C9 1_555 1_555
C12 C13 1_555 1_555
C12 C14 1_555 1_555
C18 C19 1_555 1_555
C20 C21 1_555 1_555

#END
