
#######################################################################
#
#                 Cambridge Crystallographic Data Centre
#                                CCDC 
#
#######################################################################
#
# If this CIF has been generated from an entry in the Cambridge 
# Structural Database, then it will include bibliographic, chemical, 
# crystal, experimental, refinement or atomic coordinate data resulting 
# from the CCDC's data processing and validation procedures.
#
#######################################################################

data_BAGXIR
_chemical_formula_moiety         'C30 H23 Cl1 O6'
_chemical_name_systematic        
(Z)-3-(1,3-benzodioxol-5-yl)-3-chloro-1-(2,4-di(benzyloxy)-6-hydroxyphenyl)-2-propen-1-one
_symmetry_cell_setting           orthorhombic
_symmetry_space_group_name_H-M   'P 21 21 21'
_symmetry_Int_Tables_number      19
_space_group_name_Hall           'P 2ac 2ab'
loop_
_symmetry_equiv_pos_site_id
_symmetry_equiv_pos_as_xyz
1 x,y,z
2 1/2-x,-y,1/2+z
3 1/2+x,1/2-y,-z
4 -x,1/2+y,1/2-z
_cell_length_a                   17.17(1)
_cell_length_b                   19.346(4)
_cell_length_c                   14.525(4)
_cell_angle_alpha                90
_cell_angle_beta                 90
_cell_angle_gamma                90
_cell_volume                     4824.78
_exptl_crystal_colour            yellow
_exptl_crystal_description       block
_chemical_melting_point          388-389K
_cell_formula_units_Z            8
_exptl_crystal_recrystallization_method dichloromethane/hexane
loop_
_atom_site_label
_atom_site_type_symbol
_atom_site_fract_x
_atom_site_fract_y
_atom_site_fract_z
Cl1 Cl 0.28513(9) 0.43284(8) 0.61440(11)
O1 O 0.2394(2) 0.3083(2) 0.5166(3)
O2 O 0.4994(3) 0.4766(3) 0.8679(3)
O3 O 0.6235(2) 0.4536(2) 0.8120(3)
O4 O 0.1730(2) 0.2481(2) 0.3897(3)
H1 H 0.1779 0.2593 0.4471
O5 O 0.3127(2) 0.1904(2) 0.1199(3)
O6 O 0.4403(2) 0.3121(2) 0.3575(2)
C1 C 0.3034(3) 0.3098(3) 0.4738(4)
C2 C 0.3710(3) 0.3393(3) 0.5220(4)
H2 H 0.4205 0.3212 0.5054
C3 C 0.3709(3) 0.3887(3) 0.5864(4)
C4 C 0.4394(3) 0.4094(3) 0.6406(4)
C5 C 0.4301(4) 0.4383(3) 0.7287(4)
H3 H 0.3799 0.4482 0.7530
C6 C 0.4961(3) 0.4514(3) 0.7776(4)
C7 C 0.5687(3) 0.4382(3) 0.7461(4)
C8 C 0.5809(4) 0.4106(3) 0.6601(4)
H4 H 0.6318 0.4011 0.6377
C9 C 0.5145(3) 0.3973(3) 0.6071(4)
H5 H 0.5207 0.3794 0.5467
C10 C 0.5800(4) 0.4882(4) 0.8825(5)
H6 H 0.5954 0.4703 0.9437
H7 H 0.5911 0.5384 0.8808
C11 C 0.3086(3) 0.2787(3) 0.3826(4)
C12 C 0.2403(3) 0.2489(3) 0.3437(4)
C13 C 0.2394(3) 0.2179(3) 0.2569(4)
H8 H 0.1934 0.1969 0.2336
C14 C 0.3071(3) 0.2185(3) 0.2063(4)
C15 C 0.3753(3) 0.2481(3) 0.2392(4)
H9 H 0.4213 0.2468 0.2028
C16 C 0.3768(3) 0.2793(3) 0.3246(4)
C17 C 0.2426(4) 0.1661(3) 0.0790(4)
H10 H 0.2053 0.2048 0.0730
H11 H 0.2188 0.1305 0.1190
C18 C 0.2586(3) 0.1359(3) -0.0142(4)
C19 C 0.3325(4) 0.1235(3) -0.0464(4)
H12 H 0.3760 0.1357 -0.0095
C20 C 0.3450(4) 0.0933(4) -0.1326(5)
H13 H 0.3963 0.0855 -0.1548
C21 C 0.2802(4) 0.0750(4) -0.1851(5)
H14 H 0.2876 0.0540 -0.2436
C22 C 0.2070(4) 0.0868(3) -0.1542(5)
H15 H 0.1636 0.0744 -0.1912
C23 C 0.1951(4) 0.1170(3) -0.0685(4)
H16 H 0.1436 0.1248 -0.0469
C24 C 0.5080(3) 0.3152(3) 0.2982(4)
H17 H 0.4944 0.3382 0.2394
H18 H 0.5268 0.2680 0.2844
C25 C 0.5699(3) 0.3554(3) 0.3473(4)
C26 C 0.6343(3) 0.3243(3) 0.3820(4)
H19 H 0.6399 0.2757 0.3759
C27 C 0.6922(4) 0.3617(3) 0.4263(4)
H20 H 0.7368 0.3387 0.4499
C28 C 0.6849(4) 0.4322(3) 0.4359(4)
H21 H 0.7245 0.4581 0.4660
C29 C 0.6204(3) 0.4646(3) 0.4018(4)
H22 H 0.6151 0.5132 0.4088
C30 C 0.5627(3) 0.4278(3) 0.3574(4)
H23 H 0.5183 0.4510 0.3336
Cl2 Cl 0.44025(9) 0.44877(8) 0.09413(10)
O7 O 0.5045(2) 0.3338(2) -0.0117(3)
O8 O 0.2459(2) 0.4472(2) 0.3772(3)
O9 O 0.1229(2) 0.4141(2) 0.3304(3)
O10 O 0.5696(2) 0.2780(2) -0.1427(3)
H24 H 0.5590 0.3089 -0.0959
O11 O 0.4186(2) 0.1929(2) -0.3914(3)
O12 O 0.2932(2) 0.3050(2) -0.1434(3)
C31 C 0.4383(3) 0.3223(3) -0.0439(4)
C32 C 0.3709(3) 0.3395(3) 0.0149(4)
H25 H 0.3257 0.3119 0.0064
C33 C 0.3657(3) 0.3884(3) 0.0775(4)
C34 C 0.2987(3) 0.3986(3) 0.1398(4)
C35 C 0.3107(3) 0.4244(3) 0.2295(4)
H26 H 0.3606 0.4394 0.2494
C36 C 0.2473(3) 0.4270(3) 0.2868(4)
C37 C 0.1750(3) 0.4062(3) 0.2601(4)
C38 C 0.1610(4) 0.3820(3) 0.1722(4)
H27 H 0.1104 0.3686 0.1528
C39 C 0.2250(3) 0.3783(3) 0.1135(4)
H28 H 0.2176 0.3610 0.0529
C40 C 0.1658(3) 0.4458(3) 0.4046(4)
H29 H 0.1466 0.4934 0.4157
H30 H 0.1595 0.4187 0.4619
C41 C 0.4306(3) 0.2901(3) -0.1345(4)
C42 C 0.4987(3) 0.2682(3) -0.1805(4)
C43 C 0.4973(4) 0.2352(3) -0.2659(4)
H31 H 0.5442 0.2204 -0.2944
C44 C 0.4261(3) 0.2246(3) -0.3081(4)
C45 C 0.3566(3) 0.2462(3) -0.2678(4)
H32 H 0.3084 0.2386 -0.2984
C46 C 0.3579(3) 0.2787(3) -0.1829(4)
C47 C 0.4887(4) 0.1775(3) -0.4408(4)
H33 H 0.5213 0.1453 -0.4045
H34 H 0.5188 0.2205 -0.4511
C48 C 0.4678(3) 0.1449(3) -0.5326(4)
C49 C 0.3935(4) 0.1207(3) -0.5520(4)
H35 H 0.3532 0.1251 -0.5076
C50 C 0.3782(4) 0.0902(4) -0.6358(5)
H36 H 0.3274 0.0735 -0.6493
C51 C 0.4366(4) 0.0842(4) -0.6995(5)
H37 H 0.4256 0.0637 -0.7575
C52 C 0.5088(4) 0.1066(3) -0.6820(5)
H38 H 0.5482 0.1016 -0.7275
C53 C 0.5272(4) 0.1377(3) -0.5968(4)
H39 H 0.5785 0.1532 -0.5838
C54 C 0.2202(3) 0.2958(3) -0.1914(4)
H40 H 0.2064 0.2461 -0.1943
H41 H 0.2241 0.3138 -0.2550
C55 C 0.1594(3) 0.3354(3) -0.1379(4)
C56 C 0.0982(3) 0.3012(3) -0.0963(4)
H42 H 0.0939 0.2524 -0.1009
C57 C 0.0430(4) 0.3387(3) -0.0479(4)
H43 H 0.0005 0.3152 -0.0201
C58 C 0.0486(4) 0.4087(3) -0.0395(4)
H44 H 0.0103 0.4336 -0.0059
C59 C 0.1103(3) 0.4434(3) -0.0800(4)
H45 H 0.1151 0.4921 -0.0736
C60 C 0.1651(3) 0.4060(3) -0.1305(4)
H46 H 0.2068 0.4296 -0.1599
loop_
_geom_bond_atom_site_label_1
_geom_bond_atom_site_label_2
_geom_bond_site_symmetry_1
_geom_bond_site_symmetry_2
Cl1 C3 1_555 1_555
O1 C1 1_555 1_555
O2 C6 1_555 1_555
O3 C7 1_555 1_555
O4 H1 1_555 1_555
O5 C14 1_555 1_555
O6 C16 1_555 1_555
C1 C2 1_555 1_555
C2 H2 1_555 1_555
C3 C2 1_555 1_555
C4 C3 1_555 1_555
C5 C4 1_555 1_555
H3 C5 1_555 1_555
C6 C5 1_555 1_555
C7 C6 1_555 1_555
C8 C7 1_555 1_555
H4 C8 1_555 1_555
C9 C4 1_555 1_555
H5 C9 1_555 1_555
C10 O2 1_555 1_555
H6 C10 1_555 1_555
H7 C10 1_555 1_555
C11 C1 1_555 1_555
C12 O4 1_555 1_555
C13 C12 1_555 1_555
H8 C13 1_555 1_555
C14 C13 1_555 1_555
C15 C14 1_555 1_555
H9 C15 1_555 1_555
C16 C11 1_555 1_555
C17 O5 1_555 1_555
H10 C17 1_555 1_555
H11 C17 1_555 1_555
C18 C17 1_555 1_555
C19 C18 1_555 1_555
H12 C19 1_555 1_555
C20 C19 1_555 1_555
H13 C20 1_555 1_555
C21 C20 1_555 1_555
H14 C21 1_555 1_555
C22 C21 1_555 1_555
H15 C22 1_555 1_555
C23 C18 1_555 1_555
H16 C23 1_555 1_555
C24 O6 1_555 1_555
H17 C24 1_555 1_555
H18 C24 1_555 1_555
C25 C24 1_555 1_555
C26 C25 1_555 1_555
H19 C26 1_555 1_555
C27 C26 1_555 1_555
H20 C27 1_555 1_555
C28 C27 1_555 1_555
H21 C28 1_555 1_555
C29 C28 1_555 1_555
H22 C29 1_555 1_555
C30 C25 1_555 1_555
H23 C30 1_555 1_555
Cl2 C33 1_555 1_555
O7 C31 1_555 1_555
O8 C36 1_555 1_555
O9 C37 1_555 1_555
O10 H24 1_555 1_555
O11 C44 1_555 1_555
O12 C46 1_555 1_555
C31 C32 1_555 1_555
C32 H25 1_555 1_555
C33 C32 1_555 1_555
C34 C33 1_555 1_555
C35 C34 1_555 1_555
H26 C35 1_555 1_555
C36 C35 1_555 1_555
C37 C36 1_555 1_555
C38 C37 1_555 1_555
H27 C38 1_555 1_555
C39 C34 1_555 1_555
H28 C39 1_555 1_555
C40 O8 1_555 1_555
H29 C40 1_555 1_555
H30 C40 1_555 1_555
C41 C31 1_555 1_555
C42 O10 1_555 1_555
C43 C42 1_555 1_555
H31 C43 1_555 1_555
C44 C43 1_555 1_555
C45 C44 1_555 1_555
H32 C45 1_555 1_555
C46 C41 1_555 1_555
C47 O11 1_555 1_555
H33 C47 1_555 1_555
H34 C47 1_555 1_555
C48 C47 1_555 1_555
C49 C48 1_555 1_555
H35 C49 1_555 1_555
C50 C49 1_555 1_555
H36 C50 1_555 1_555
C51 C50 1_555 1_555
H37 C51 1_555 1_555
C52 C51 1_555 1_555
H38 C52 1_555 1_555
C53 C48 1_555 1_555
H39 C53 1_555 1_555
C54 O12 1_555 1_555
H40 C54 1_555 1_555
H41 C54 1_555 1_555
C55 C54 1_555 1_555
C56 C55 1_555 1_555
H42 C56 1_555 1_555
C57 C56 1_555 1_555
H43 C57 1_555 1_555
C58 C57 1_555 1_555
H44 C58 1_555 1_555
C59 C58 1_555 1_555
H45 C59 1_555 1_555
C60 C55 1_555 1_555
H46 C60 1_555 1_555
O3 C10 1_555 1_555
C8 C9 1_555 1_555
C11 C12 1_555 1_555
C15 C16 1_555 1_555
C22 C23 1_555 1_555
C29 C30 1_555 1_555
O9 C40 1_555 1_555
C38 C39 1_555 1_555
C41 C42 1_555 1_555
C45 C46 1_555 1_555
C52 C53 1_555 1_555
C59 C60 1_555 1_555

#END
