
#######################################################################
#
#                 Cambridge Crystallographic Data Centre
#                                CCDC 
#
#######################################################################
#
# If this CIF has been generated from an entry in the Cambridge 
# Structural Database, then it will include bibliographic, chemical, 
# crystal, experimental, refinement or atomic coordinate data resulting 
# from the CCDC's data processing and validation procedures.
#
#######################################################################

data_BAHDEU
_chemical_formula_moiety         'C60 H74 N8 O4,C2 H2 O4'
_chemical_name_systematic        
'1,8,15,22-tetrakis(2,4-dimethyl-3-pentyloxy)phthalocyanine oxalic acid clathrate'
_symmetry_cell_setting           monoclinic
_symmetry_space_group_name_H-M   'P 21/c'
_symmetry_Int_Tables_number      14
_space_group_name_Hall           '-P 2ybc'
loop_
_symmetry_equiv_pos_site_id
_symmetry_equiv_pos_as_xyz
1 x,y,z
2 x,1/2-y,1/2+z
3 -x,-y,-z
4 -x,1/2+y,1/2-z
_cell_length_a                   15.8962(15)
_cell_length_b                   8.8141(9)
_cell_length_c                   21.695(2)
_cell_angle_alpha                90
_cell_angle_beta                 99.911(2)
_cell_angle_gamma                90
_cell_volume                     2994.34
_exptl_crystal_colour            green
_exptl_crystal_description       'rhombic plate'
_cell_formula_units_Z            2
_exptl_crystal_recrystallization_method methanol/chloroform
loop_
_atom_site_label
_atom_site_type_symbol
_atom_site_fract_x
_atom_site_fract_y
_atom_site_fract_z
N1 N 0.62205(17) -0.0281(3) 0.49586(12)
H1 H 0.556(5) 0.001(2) 0.4996(3)
O1 O 0.63258(15) 0.3163(3) 0.29127(11)
C1 C 0.4118(2) 0.1917(4) 0.39598(14)
N2 N 0.62987(16) 0.1164(3) 0.40186(12)
O2 O 0.84298(15) -0.2809(3) 0.58456(12)
C2 C 0.4269(2) 0.2771(4) 0.34198(14)
N3 N 0.48592(16) 0.1238(3) 0.42353(12)
C3 C 0.3723(2) 0.3633(4) 0.29882(16)
H2 H 0.3148 0.3740 0.3015
N4 N 0.33641(17) 0.1900(3) 0.41407(12)
C4 C 0.4069(2) 0.4328(4) 0.25163(17)
H3 H 0.3719 0.4905 0.2217
C5 C 0.4923(2) 0.4177(4) 0.24835(17)
H4 H 0.5130 0.4647 0.2156
C6 C 0.5485(2) 0.3357(4) 0.29154(16)
C7 C 0.5132(2) 0.2612(4) 0.33879(14)
C8 C 0.5490(2) 0.1621(4) 0.39039(14)
C9 C 0.6619(2) 0.0283(4) 0.44982(15)
C10 C 0.7486(2) -0.0259(4) 0.45956(16)
C11 C 0.8136(2) -0.0036(5) 0.4250(2)
H5 H 0.8057 0.0563 0.3891
C12 C 0.8897(3) -0.0741(6) 0.4463(2)
H6 H 0.9343 -0.0615 0.4242
C13 C 0.6792(2) -0.1162(4) 0.53525(15)
C14 C 0.7596(2) -0.1177(4) 0.51292(16)
C15 C 0.8382(2) -0.1901(5) 0.53338(18)
C16 C 0.9028(3) -0.1636(5) 0.4998(2)
H7 H 0.9563 -0.2065 0.5132
C17 C 0.9134(2) -0.3822(5) 0.6049(2)
H8 H 0.9570 -0.3650 0.5787
C18 C 0.8808(3) -0.5439(6) 0.5946(2)
H9 H 0.8351 -0.5591 0.6190
C19 C 0.8450(6) -0.5730(9) 0.5267(3)
H10 H 0.8005 -0.5012 0.5126
H11 H 0.8896 -0.5624 0.5022
H12 H 0.8222 -0.6740 0.5220
C20 C 0.9495(5) -0.6608(7) 0.6149(3)
H13 H 0.9256 -0.7607 0.6080
H14 H 0.9946 -0.6483 0.5911
H15 H 0.9719 -0.6478 0.6586
C21 C 0.9507(3) -0.3388(6) 0.6720(2)
H16 H 0.9982 -0.4082 0.6864
C22 C 0.9871(4) -0.1787(7) 0.6745(3)
H17 H 1.0274 -0.1711 0.6464
H18 H 0.9416 -0.1073 0.6624
H19 H 1.0152 -0.1566 0.7164
C23 C 0.8876(3) -0.3553(7) 0.7159(2)
H20 H 0.8658 -0.4571 0.7137
H21 H 0.9155 -0.3341 0.7579
H22 H 0.8414 -0.2854 0.7041
C24 C 0.6828(3) 0.4256(5) 0.2625(2)
H23 H 0.6443 0.4988 0.2381
C25 C 0.7288(4) 0.3382(8) 0.2194(3)
H24 H 0.7571 0.2512 0.2423
C26 C 0.7917(5) 0.4201(10) 0.1896(4)
H25 H 0.8354 0.4612 0.2212
H26 H 0.7639 0.5010 0.1643
H27 H 0.8170 0.3514 0.1636
C27 C 0.6633(6) 0.2793(9) 0.1650(3)
H28 H 0.6919 0.2219 0.1371
H29 H 0.6340 0.3635 0.1428
H30 H 0.6229 0.2156 0.1807
C28 C 0.7386(4) 0.5077(8) 0.3161(4)
H31 H 0.7708 0.5840 0.2969
C29 C 0.8048(4) 0.4013(11) 0.3532(4)
H32 H 0.8366 0.3520 0.3251
H33 H 0.7763 0.3264 0.3742
H34 H 0.8430 0.4589 0.3835
C30 C 0.6875(6) 0.5922(9) 0.3560(4)
H35 H 0.6486 0.6591 0.3304
H36 H 0.7250 0.6503 0.3866
H37 H 0.6559 0.5217 0.3768
C13B C 0.3208(2) 0.1162(4) 0.46475(15)
N1B N 0.37795(17) 0.0281(3) 0.50414(12)
H1B H 0.444(5) -0.001(2) 0.5004(3)
C9B C 0.3381(2) -0.0283(4) 0.55018(15)
N2B N 0.37013(16) -0.1164(3) 0.59814(12)
C8B C 0.4510(2) -0.1621(4) 0.60961(14)
N3B N 0.51408(16) -0.1238(3) 0.57647(12)
C1B C 0.5882(2) -0.1917(4) 0.60402(14)
C2B C 0.5731(2) -0.2771(4) 0.65802(14)
C3B C 0.6277(2) -0.3633(4) 0.70118(16)
H2B H 0.6852 -0.3740 0.6985
C4B C 0.5931(2) -0.4328(4) 0.74837(17)
H3B H 0.6281 -0.4905 0.7783
C5B C 0.5077(2) -0.4177(4) 0.75165(17)
H4B H 0.4870 -0.4647 0.7844
C6B C 0.4515(2) -0.3357(4) 0.70846(16)
O1B O 0.36742(15) -0.3163(3) 0.70873(11)
C24B C 0.3172(3) -0.4256(5) 0.7375(2)
H23B H 0.3557 -0.4988 0.7619
C25B C 0.2712(4) -0.3382(8) 0.7806(3)
H24B H 0.2429 -0.2512 0.7577
C26B C 0.2083(5) -0.4201(10) 0.8104(4)
H25B H 0.1646 -0.4612 0.7788
H26B H 0.2361 -0.5010 0.8357
H27B H 0.1830 -0.3514 0.8364
C27B C 0.3367(6) -0.2793(9) 0.8350(3)
H28B H 0.3081 -0.2219 0.8629
H29B H 0.3660 -0.3635 0.8572
H30B H 0.3771 -0.2156 0.8193
C28B C 0.2614(4) -0.5077(8) 0.6839(4)
H31B H 0.2292 -0.5840 0.7031
C29B C 0.1952(4) -0.4013(11) 0.6468(4)
H32B H 0.1634 -0.3520 0.6749
H33B H 0.2237 -0.3264 0.6258
H34B H 0.1570 -0.4589 0.6165
C30B C 0.3125(6) -0.5922(9) 0.6440(4)
H35B H 0.3514 -0.6591 0.6696
H36B H 0.2750 -0.6503 0.6134
H37B H 0.3441 -0.5217 0.6232
C7B C 0.4868(2) -0.2612(4) 0.66121(14)
N4B N 0.66359(17) -0.1900(3) 0.58593(12)
C10B C 0.2514(2) 0.0259(4) 0.54044(16)
C11B C 0.1864(2) 0.0036(5) 0.5750(2)
H5B H 0.1943 -0.0563 0.6109
C12B C 0.1103(3) 0.0741(6) 0.5537(2)
H6B H 0.0657 0.0615 0.5758
C16B C 0.0972(3) 0.1636(5) 0.5002(2)
C15B C 0.1618(2) 0.1901(5) 0.46662(18)
O2B O 0.15702(15) 0.2809(3) 0.41544(12)
C17B C 0.0866(2) 0.3822(5) 0.3951(2)
H8B H 0.0430 0.3650 0.4213
C18B C 0.1192(3) 0.5439(6) 0.4054(2)
H9B H 0.1649 0.5591 0.3810
C19B C 0.1550(6) 0.5730(9) 0.4733(3)
H10B H 0.1995 0.5012 0.4874
H11B H 0.1104 0.5624 0.4978
H12B H 0.1778 0.6740 0.4780
C20B C 0.0505(5) 0.6608(7) 0.3851(3)
H13B H 0.0744 0.7607 0.3920
H14B H 0.0054 0.6483 0.4089
H15B H 0.0281 0.6478 0.3414
C21B C 0.0493(3) 0.3388(6) 0.3280(2)
H16B H 0.0018 0.4082 0.3136
C22B C 0.0129(4) 0.1787(7) 0.3255(3)
H17B H -0.0274 0.1711 0.3536
H18B H 0.0584 0.1073 0.3376
H19B H -0.0152 0.1566 0.2836
C23B C 0.1124(3) 0.3553(7) 0.2841(2)
H20B H 0.1342 0.4571 0.2863
H21B H 0.0845 0.3341 0.2421
H22B H 0.1586 0.2854 0.2959
C14B C 0.2404(2) 0.1177(4) 0.48708(16)
H7B H 0.0437 0.2065 0.4868
O3 O 0.3849(5) 0.5684(10) 0.4884(3)
O4 O 0.5166(5) 0.6435(11) 0.4454(4)
C31 C 0.4576(8) 0.5366(14) 0.4787(9)
H38 H 0.5142(8) 0.6876(16) 0.3998(7)
C31B C 0.5424(8) 0.4634(14) 0.5213(9)
O3B O 0.6151(5) 0.4316(10) 0.5116(3)
O4B O 0.4834(5) 0.3565(11) 0.5546(4)
H38B H 0.4858(8) 0.3124(16) 0.6002(7)
loop_
_geom_bond_atom_site_label_1
_geom_bond_atom_site_label_2
_geom_bond_site_symmetry_1
_geom_bond_site_symmetry_2
N1 H1 1_555 1_555
O1 C6 1_555 1_555
C1 C2 1_555 1_555
N2 C8 1_555 1_555
O2 C15 1_555 1_555
C2 C3 1_555 1_555
N3 C1 1_555 1_555
C3 H2 1_555 1_555
N4 C1 1_555 1_555
C4 C3 1_555 1_555
H3 C4 1_555 1_555
C5 C4 1_555 1_555
H4 C5 1_555 1_555
C6 C5 1_555 1_555
C7 C2 1_555 1_555
C8 N3 1_555 1_555
C9 N1 1_555 1_555
C10 C9 1_555 1_555
C11 C10 1_555 1_555
H5 C11 1_555 1_555
C12 C11 1_555 1_555
H6 C12 1_555 1_555
C13 N1 1_555 1_555
C14 C10 1_555 1_555
C15 C14 1_555 1_555
C16 C12 1_555 1_555
H7 C16 1_555 1_555
C17 O2 1_555 1_555
H8 C17 1_555 1_555
C18 C17 1_555 1_555
H9 C18 1_555 1_555
C19 C18 1_555 1_555
H10 C19 1_555 1_555
H11 C19 1_555 1_555
H12 C19 1_555 1_555
C20 C18 1_555 1_555
H13 C20 1_555 1_555
H14 C20 1_555 1_555
H15 C20 1_555 1_555
C21 C17 1_555 1_555
H16 C21 1_555 1_555
C22 C21 1_555 1_555
H17 C22 1_555 1_555
H18 C22 1_555 1_555
H19 C22 1_555 1_555
C23 C21 1_555 1_555
H20 C23 1_555 1_555
H21 C23 1_555 1_555
H22 C23 1_555 1_555
C24 O1 1_555 1_555
H23 C24 1_555 1_555
C25 C24 1_555 1_555
H24 C25 1_555 1_555
C26 C25 1_555 1_555
H25 C26 1_555 1_555
H26 C26 1_555 1_555
H27 C26 1_555 1_555
C27 C25 1_555 1_555
H28 C27 1_555 1_555
H29 C27 1_555 1_555
H30 C27 1_555 1_555
C28 C24 1_555 1_555
H31 C28 1_555 1_555
C29 C28 1_555 1_555
H32 C29 1_555 1_555
H33 C29 1_555 1_555
H34 C29 1_555 1_555
C30 C28 1_555 1_555
H35 C30 1_555 1_555
H36 C30 1_555 1_555
H37 C30 1_555 1_555
O3 C31 1_555 1_555
O4 C31 1_555 1_555
C31 C31B 1_555 1_555
H38 O4 1_555 1_555
C13B N4 1_555 1_555
N1B C13B 1_555 1_555
H1B N1B 1_555 1_555
C9B N1B 1_555 1_555
N2B C9B 1_555 1_555
C8B N2B 1_555 1_555
N3B C8B 1_555 1_555
C1B N3B 1_555 1_555
C2B C1B 1_555 1_555
C3B C2B 1_555 1_555
H2B C3B 1_555 1_555
C4B C3B 1_555 1_555
H3B C4B 1_555 1_555
C5B C4B 1_555 1_555
H4B C5B 1_555 1_555
C6B C5B 1_555 1_555
O1B C6B 1_555 1_555
C24B O1B 1_555 1_555
H23B C24B 1_555 1_555
C25B C24B 1_555 1_555
H24B C25B 1_555 1_555
C26B C25B 1_555 1_555
H25B C26B 1_555 1_555
H26B C26B 1_555 1_555
H27B C26B 1_555 1_555
C27B C25B 1_555 1_555
H28B C27B 1_555 1_555
H29B C27B 1_555 1_555
H30B C27B 1_555 1_555
C28B C24B 1_555 1_555
H31B C28B 1_555 1_555
C29B C28B 1_555 1_555
H32B C29B 1_555 1_555
H33B C29B 1_555 1_555
H34B C29B 1_555 1_555
C30B C28B 1_555 1_555
H35B C30B 1_555 1_555
H36B C30B 1_555 1_555
H37B C30B 1_555 1_555
C7B C8B 1_555 1_555
N4B C13 1_555 1_555
C10B C9B 1_555 1_555
C11B C10B 1_555 1_555
H5B C11B 1_555 1_555
C12B C11B 1_555 1_555
H6B C12B 1_555 1_555
C16B C12B 1_555 1_555
C15B C16B 1_555 1_555
O2B C15B 1_555 1_555
C17B O2B 1_555 1_555
H8B C17B 1_555 1_555
C18B C17B 1_555 1_555
H9B C18B 1_555 1_555
C19B C18B 1_555 1_555
H10B C19B 1_555 1_555
H11B C19B 1_555 1_555
H12B C19B 1_555 1_555
C20B C18B 1_555 1_555
H13B C20B 1_555 1_555
H14B C20B 1_555 1_555
H15B C20B 1_555 1_555
C21B C17B 1_555 1_555
H16B C21B 1_555 1_555
C22B C21B 1_555 1_555
H17B C22B 1_555 1_555
H18B C22B 1_555 1_555
H19B C22B 1_555 1_555
C23B C21B 1_555 1_555
H20B C23B 1_555 1_555
H21B C23B 1_555 1_555
H22B C23B 1_555 1_555
C14B C13B 1_555 1_555
H7B C16B 1_555 1_555
C31B O3B 1_555 1_555
O4B C31B 1_555 1_555
H38B O4B 1_555 1_555
N2 C9 1_555 1_555
C6 C7 1_555 1_555
C7 C8 1_555 1_555
C13 C14 1_555 1_555
C15 C16 1_555 1_555
C1B N4B 1_555 1_555
C2B C7B 1_555 1_555
C6B C7B 1_555 1_555
C10B C14B 1_555 1_555
C15B C14B 1_555 1_555

#END
