
#######################################################################
#
#                 Cambridge Crystallographic Data Centre
#                                CCDC 
#
#######################################################################
#
# If this CIF has been generated from an entry in the Cambridge 
# Structural Database, then it will include bibliographic, chemical, 
# crystal, experimental, refinement or atomic coordinate data resulting 
# from the CCDC's data processing and validation procedures.
#
#######################################################################

data_BAHGAU
_chemical_formula_moiety         'C33 H32 N2 O7 S1'
_chemical_name_systematic        
'cis-Dimethyl 5-(4-methoxyphenyl)-3-((4-methylphenyl)sulfonyl)-1,2-diphenylimidazolidine-4,4-dicarboxylate'
_symmetry_cell_setting           triclinic
_symmetry_space_group_name_H-M   'P -1'
_symmetry_Int_Tables_number      2
_space_group_name_Hall           '-P 1'
loop_
_symmetry_equiv_pos_site_id
_symmetry_equiv_pos_as_xyz
1 x,y,z
2 -x,-y,-z
_cell_length_a                   11.1170(8)
_cell_length_b                   11.1340(8)
_cell_length_c                   13.3257(9)
_cell_angle_alpha                100.072(6)
_cell_angle_beta                 107.413(6)
_cell_angle_gamma                101.612(6)
_cell_volume                     1492.03
_exptl_crystal_colour            colorless
_exptl_crystal_description       block
_cell_formula_units_Z            2
loop_
_atom_site_label
_atom_site_type_symbol
_atom_site_fract_x
_atom_site_fract_y
_atom_site_fract_z
S1 S 0.20500(6) 0.71754(5) 0.46610(5)
O1 O 0.15749(16) 0.81057(15) 0.51863(13)
O2 O 0.26177(17) 0.63506(15) 0.52374(13)
O3 O 0.14864(18) 0.57007(15) 0.17393(14)
O4 O 0.09206(16) 0.36385(14) 0.16581(13)
O5 O 0.06303(18) 0.37638(16) 0.43816(15)
O6 O 0.23030(18) 0.40936(17) 0.37755(14)
O7 O -0.3331(2) 0.01086(15) -0.07789(15)
N1 N -0.12815(17) 0.56861(15) 0.23632(14)
N2 N 0.08013(17) 0.63112(15) 0.35925(14)
C1 C -0.3496(2) 0.4942(2) 0.2455(2)
H1 H -0.3189 0.4457 0.2925
C2 C -0.4802(3) 0.4935(2) 0.2133(2)
H2 H -0.5370 0.4433 0.2380
C3 C -0.5271(3) 0.5658(2) 0.1453(2)
H3 H -0.6148 0.5658 0.1247
C4 C -0.4429(3) 0.6384(2) 0.1082(2)
H4 H -0.4737 0.6875 0.0618
C5 C -0.3132(2) 0.6388(2) 0.1393(2)
H5 H -0.2572 0.6883 0.1136
C6 C -0.2648(2) 0.5668(2) 0.20804(18)
C7 C -0.0408(2) 0.67560(19) 0.32686(18)
H6 H -0.0759 0.6833 0.3863
C8 C -0.0191(2) 0.80032(19) 0.29475(18)
C9 C -0.0453(2) 0.9025(2) 0.3504(2)
H7 H -0.0787 0.8935 0.4057
C10 C -0.0224(3) 1.0185(2) 0.3251(2)
H8 H -0.0407 1.0868 0.3630
C11 C 0.0274(3) 1.0321(2) 0.2441(2)
H9 H 0.0438 1.1101 0.2273
C12 C 0.0529(2) 0.9302(2) 0.1874(2)
H10 H 0.0857 0.9392 0.1318
C13 C 0.0302(2) 0.8150(2) 0.21298(19)
H11 H 0.0482 0.7467 0.1748
C14 C 0.3202(2) 0.7957(2) 0.41760(18)
C15 C 0.3175(2) 0.9129(2) 0.3987(2)
H12 H 0.2572 0.9530 0.4145
C16 C 0.4062(3) 0.9703(2) 0.3556(2)
H13 H 0.4038 1.0485 0.3408
C17 C 0.4987(3) 0.9122(3) 0.3342(2)
C18 C 0.5011(3) 0.7975(3) 0.3572(2)
H14 H 0.5643 0.7592 0.3453
C19 C 0.4128(2) 0.7381(2) 0.3970(2)
H15 H 0.4147 0.6591 0.4104
C20 C 0.5920(3) 0.9754(3) 0.2843(3)
H16 H 0.6784 0.9684 0.3198
H17 H 0.5936 1.0632 0.2933
H18 H 0.5633 0.9345 0.2083
C21 C 0.0570(2) 0.49829(19) 0.30438(17)
C22 C 0.1069(2) 0.4856(2) 0.20816(18)
C23 C 0.1225(3) 0.3344(3) 0.0684(2)
H19 H 0.0752 0.3721 0.0154
H20 H 0.0979 0.2442 0.0400
H21 H 0.2148 0.3673 0.0847
C24 C 0.1154(2) 0.4208(2) 0.38226(19)
C25 C 0.2975(3) 0.3449(3) 0.4519(3)
H22 H 0.3714 0.3291 0.4343
H23 H 0.2388 0.2658 0.4462
H24 H 0.3269 0.3967 0.5248
C26 C -0.0955(2) 0.45498(18) 0.26543(18)
H25 H -0.1216 0.4429 0.3278
C27 C -0.1645(2) 0.33749(18) 0.17353(18)
C28 C -0.1994(2) 0.2224(2) 0.1965(2)
H26 H -0.1847 0.2194 0.2684
C29 C -0.2558(2) 0.1113(2) 0.1155(2)
H27 H -0.2772 0.0344 0.1330
C30 C -0.2801(2) 0.1147(2) 0.0088(2)
C31 C -0.2496(2) 0.2304(2) -0.0167(2)
H28 H -0.2674 0.2338 -0.0888
C32 C -0.1929(2) 0.3396(2) 0.06529(19)
H29 H -0.1731 0.4168 0.0479
C33 C -0.3704(4) -0.1091(2) -0.0565(3)
H30 H -0.4087 -0.1734 -0.1237
H31 H -0.4332 -0.1080 -0.0203
H32 H -0.2946 -0.1270 -0.0109
loop_
_geom_bond_atom_site_label_1
_geom_bond_atom_site_label_2
_geom_bond_site_symmetry_1
_geom_bond_site_symmetry_2
S1 O1 1_555 1_555
O2 S1 1_555 1_555
O3 C22 1_555 1_555
O4 C22 1_555 1_555
O5 C24 1_555 1_555
O6 C24 1_555 1_555
O7 C30 1_555 1_555
N1 C6 1_555 1_555
N2 S1 1_555 1_555
C1 H1 1_555 1_555
C2 C1 1_555 1_555
H2 C2 1_555 1_555
C3 C2 1_555 1_555
H3 C3 1_555 1_555
C4 C3 1_555 1_555
H4 C4 1_555 1_555
C5 C4 1_555 1_555
H5 C5 1_555 1_555
C6 C1 1_555 1_555
C7 N1 1_555 1_555
H6 C7 1_555 1_555
C8 C7 1_555 1_555
C9 C8 1_555 1_555
H7 C9 1_555 1_555
C10 C9 1_555 1_555
H8 C10 1_555 1_555
C11 C10 1_555 1_555
H9 C11 1_555 1_555
C12 C11 1_555 1_555
H10 C12 1_555 1_555
C13 C8 1_555 1_555
H11 C13 1_555 1_555
C14 S1 1_555 1_555
C15 C14 1_555 1_555
H12 C15 1_555 1_555
C16 C15 1_555 1_555
H13 C16 1_555 1_555
C17 C16 1_555 1_555
C18 C17 1_555 1_555
H14 C18 1_555 1_555
C19 C14 1_555 1_555
H15 C19 1_555 1_555
C20 C17 1_555 1_555
H16 C20 1_555 1_555
H17 C20 1_555 1_555
H18 C20 1_555 1_555
C21 N2 1_555 1_555
C22 C21 1_555 1_555
C23 O4 1_555 1_555
H19 C23 1_555 1_555
H20 C23 1_555 1_555
H21 C23 1_555 1_555
C24 C21 1_555 1_555
C25 O6 1_555 1_555
H22 C25 1_555 1_555
H23 C25 1_555 1_555
H24 C25 1_555 1_555
C26 N1 1_555 1_555
H25 C26 1_555 1_555
C27 C26 1_555 1_555
C28 C27 1_555 1_555
H26 C28 1_555 1_555
C29 C28 1_555 1_555
H27 C29 1_555 1_555
C30 C29 1_555 1_555
C31 C30 1_555 1_555
H28 C31 1_555 1_555
C32 C27 1_555 1_555
H29 C32 1_555 1_555
C33 O7 1_555 1_555
H30 C33 1_555 1_555
H31 C33 1_555 1_555
H32 C33 1_555 1_555
N2 C7 1_555 1_555
C5 C6 1_555 1_555
C12 C13 1_555 1_555
C18 C19 1_555 1_555
C21 C26 1_555 1_555
C31 C32 1_555 1_555

#END
