
#######################################################################
#
#                 Cambridge Crystallographic Data Centre
#                                CCDC 
#
#######################################################################
#
# If this CIF has been generated from an entry in the Cambridge 
# Structural Database, then it will include bibliographic, chemical, 
# crystal, experimental, refinement or atomic coordinate data resulting 
# from the CCDC's data processing and validation procedures.
#
#######################################################################

data_BAHHEY
_chemical_name_common            (S)-Roscovitine
_chemical_formula_moiety         'C19 H26 N6 O1'
_chemical_name_systematic        
(S)-2-(6-benzylamino-9-isopropyl-9H-purin-2-ylamino)butan-1-ol
_chemical_properties_biological  'CDK-selective ATP antagonist'
_symmetry_cell_setting           orthorhombic
_symmetry_space_group_name_H-M   'P 21 21 21'
_symmetry_Int_Tables_number      19
_space_group_name_Hall           'P 2ac 2ab'
loop_
_symmetry_equiv_pos_site_id
_symmetry_equiv_pos_as_xyz
1 x,y,z
2 1/2+x,1/2-y,-z
3 -x,1/2+y,1/2-z
4 1/2-x,-y,1/2+z
_cell_length_a                   11.4045(11)
_cell_length_b                   15.4797(18)
_cell_length_c                   22.489(3)
_cell_angle_alpha                90
_cell_angle_beta                 90
_cell_angle_gamma                90
_cell_volume                     3970.17
_exptl_crystal_colour            colorless
_exptl_crystal_description       tablet
_chemical_melting_point          '108-109 deg.C'
_cell_formula_units_Z            8
_exptl_crystal_recrystallization_method 'ethyl acetate/hexane'
loop_
_atom_site_label
_atom_site_type_symbol
_atom_site_fract_x
_atom_site_fract_y
_atom_site_fract_z
N1 N 0.00645(17) -0.53426(11) -0.02222(7)
C1 C 0.0372(2) -0.61776(14) -0.0333(1)
N2 N 0.01336(18) -0.64440(11) -0.08728(8)
C2 C -0.03780(18) -0.57215(12) -0.11353(8)
C3 C -0.08056(17) -0.55580(12) -0.17174(8)
N3 N -0.11666(15) -0.4759(1) -0.18472(7)
C4 C -0.11617(18) -0.41465(12) -0.14213(8)
N4 N -0.08049(16) -0.4234(1) -0.08481(7)
C5 C -0.04170(18) -0.50374(12) -0.07463(8)
C6 C 0.0265(2) -0.48280(14) 0.03163(9)
C7 C 0.0121(8) -0.5357(5) 0.0873(2)
C8 C 0.1463(4) -0.4408(3) 0.0285(2)
N5 N -0.08403(15) -0.6167(1) -0.21380(7)
C11 C -0.11521(18) -0.59768(13) -0.27553(8)
C12 C -0.23487(17) -0.62752(12) -0.29482(8)
C13 C -0.3335(2) -0.61903(16) -0.2598(1)
C14 C -0.4426(2) -0.64571(19) -0.28140(13)
C15 C -0.4530(2) -0.6812(2) -0.33670(13)
C16 C -0.3565(3) -0.69008(19) -0.37175(11)
C17 C -0.2474(2) -0.66370(15) -0.35092(9)
N6 N -0.15370(17) -0.3355(1) -0.15856(7)
C18 C -0.19337(18) -0.31656(13) -0.21871(9)
C19 C -0.31427(18) -0.35317(13) -0.23230(9)
C20 C -0.3316(3) -0.3654(2) -0.29897(12)
C21 C -0.1874(2) -0.22007(14) -0.2269(1)
O1 O -0.25530(13) -0.1780(1) -0.18284(7)
H1 H -0.2280(18) -0.1248(12) -0.1779(9)
H3 H 0.0749 -0.6556 -0.0027
H4 H -0.0645 -0.6776 -0.2027
H5 H -0.3270 -0.5939 -0.2189
H6 H -0.5140 -0.6384 -0.2560
H7 H -0.5317 -0.7007 -0.3514
H8 H -0.3639 -0.7159 -0.4124
H9 H -0.1770 -0.6707 -0.3769
H10 H -0.1538 -0.2880 -0.1284
H11 H -0.0558 -0.6262 -0.3018
H12 H -0.1112 -0.5337 -0.2811
H13 H -0.3228 -0.4103 -0.2120
H14 H -0.3751 -0.3123 -0.2171
H15 H -0.2184 -0.2045 -0.2671
H16 H -0.1040 -0.2006 -0.2236
H17 H -0.0343 -0.4363 0.0335
H19 H -0.1412 -0.3462 -0.2480
H20 H 0.0266 -0.4987 0.1230
H21 H 0.0699 -0.5846 0.0870
H22 H -0.0692 -0.5597 0.0891
H23 H 0.1599 -0.4058 0.0653
H24 H 0.2080 -0.4866 0.0256
H25 H 0.1507 -0.4024 -0.0071
H32 H -0.4117 -0.3895 -0.3065
H33 H -0.2712 -0.4065 -0.3145
H34 H -0.3235 -0.3085 -0.3196
N7 N -0.18887(17) 0.08020(11) -0.23382(8)
C22 C -0.1535(2) 0.16355(14) -0.2425(1)
N8 N -0.07856(17) 0.1915(1) -0.20308(7)
C23 C -0.06324(18) 0.12094(12) -0.16591(8)
C24 C 0.01181(18) 0.10552(12) -0.11671(8)
N9 N 0.01164(15) 0.0275(1) -0.09146(7)
C25 C -0.06247(18) -0.03312(12) -0.11206(8)
N10 N -0.13745(14) -0.0259(1) -0.15846(7)
C26 C -0.13099(18) 0.05188(12) -0.18377(8)
C27 C -0.2715(3) 0.02944(15) -0.27030(13)
C28 C -0.2351(6) 0.0517(4) -0.3410(2)
C29 C -0.3879(8) 0.053(1) -0.2595(4)
N11 N 0.08380(16) 0.1672(1) -0.09596(7)
C32 C 0.1679(2) 0.15053(15) -0.04898(11)
C33 C 0.1269(2) 0.17507(14) 0.0123(1)
C34 C 0.0107(3) 0.16876(16) 0.0284(1)
C35 C -0.0238(4) 0.1917(2) 0.08599(13)
C36 C 0.0590(6) 0.2203(3) 0.12602(14)
C37 C 0.1746(6) 0.2260(3) 0.11013(19)
C38 C 0.2081(3) 0.2031(2) 0.05394(14)
N12 N -0.06078(16) -0.1107(1) -0.08425(7)
C39 C 0.0102(2) -0.13041(13) -0.03196(8)
C40 C -0.0362(2) -0.08849(15) 0.02494(9)
C41 C 0.0573(4) -0.0839(3) 0.07349(12)
C42 C 0.0187(2) -0.22748(14) -0.0272(1)
O2 O -0.09528(16) -0.26394(9) -0.02497(6)
H2 H -0.0923(13) -0.3178(11) -0.0366(11)
H35 H -0.1824 0.2002 -0.2761
H36 H 0.0794 0.2265 -0.1136
H37 H -0.0490 0.1476 -0.0010
H38 H -0.1080 0.1878 0.0981
H39 H 0.0353 0.2370 0.1671
H40 H 0.2347 0.2472 0.1392
H41 H 0.2928 0.2068 0.0425
H42 H -0.1116 -0.1578 -0.1007
H43 H 0.2408 0.1839 -0.0580
H44 H 0.1860 0.0873 -0.0491
H45 H -0.1039 -0.1231 0.0400
H46 H -0.0630 -0.0285 0.0155
H47 H 0.0611 -0.2505 -0.0628
H48 H 0.0624 -0.2430 0.0097
H49 H -0.2651 -0.0333 -0.2604
H51 H 0.0903 -0.1049 -0.0369
H52 H -0.2883 0.0192 -0.3680
H53 H -0.2440 0.1151 -0.3478
H54 H -0.1522 0.0342 -0.3479
H55 H -0.4434 0.0160 -0.2857
H56 H -0.4037 0.1146 -0.2696
H57 H -0.4114 0.0418 -0.2172
H64 H 0.0232 -0.0561 0.1097
H65 H 0.0842 -0.1436 0.0834
H66 H 0.1252 -0.0489 0.0589
C9? C -0.0627(19) -0.5201(14) 0.0748(7)
C10? C 0.1488(13) -0.4993(14) 0.0556(9)
C30? C -0.2315(7) -0.0067(6) -0.3198(4)
C31? C -0.3916(11) 0.0781(9) -0.2763(5)
H18? H 0.0196 -0.4191 0.0248
H26? H -0.0575 -0.4891 0.1136
H27? H -0.0474 -0.5828 0.0806
H28? H -0.1438 -0.5121 0.0578
H29? H 0.1612 -0.4642 0.0924
H30? H 0.1566 -0.5623 0.0658
H31? H 0.2081 -0.4836 0.0251
H50? H -0.2846 -0.0254 -0.2478
H58? H -0.2974 -0.0382 -0.3409
H59? H -0.2031 0.0405 -0.3482
H60? H -0.1665 -0.0469 -0.3120
H61? H -0.4435 0.0458 -0.3007
H62? H -0.3717 0.1367 -0.2953
H63? H -0.4210 0.0893 -0.2355
loop_
_geom_bond_atom_site_label_1
_geom_bond_atom_site_label_2
_geom_bond_site_symmetry_1
_geom_bond_site_symmetry_2
N1 C1 1_555 1_555
C1 N2 1_555 1_555
N2 C2 1_555 1_555
C2 C3 1_555 1_555
C3 N3 1_555 1_555
N3 C4 1_555 1_555
C4 N4 1_555 1_555
N4 C5 1_555 1_555
C5 N1 1_555 1_555
C6 N1 1_555 1_555
C7 C6 1_555 1_555
C8 C6 1_555 1_555
N5 C3 1_555 1_555
C11 N5 1_555 1_555
C12 C11 1_555 1_555
C13 C12 1_555 1_555
C14 C13 1_555 1_555
C15 C14 1_555 1_555
C16 C15 1_555 1_555
C17 C12 1_555 1_555
N6 C4 1_555 1_555
C18 N6 1_555 1_555
C19 C18 1_555 1_555
C20 C19 1_555 1_555
C21 C18 1_555 1_555
O1 C21 1_555 1_555
N7 C22 1_555 1_555
C22 N8 1_555 1_555
N8 C23 1_555 1_555
C23 C24 1_555 1_555
C24 N9 1_555 1_555
N9 C25 1_555 1_555
C25 N10 1_555 1_555
N10 C26 1_555 1_555
C26 N7 1_555 1_555
C27 N7 1_555 1_555
C28 C27 1_555 1_555
C29 C27 1_555 1_555
N11 C24 1_555 1_555
C32 N11 1_555 1_555
C33 C32 1_555 1_555
C34 C33 1_555 1_555
C35 C34 1_555 1_555
C36 C35 1_555 1_555
C37 C36 1_555 1_555
C38 C33 1_555 1_555
N12 C25 1_555 1_555
C39 N12 1_555 1_555
C40 C39 1_555 1_555
C41 C40 1_555 1_555
C42 C39 1_555 1_555
O2 C42 1_555 1_555
H1 O1 1_555 1_555
H2 O2 1_555 1_555
H3 C1 1_555 1_555
H4 N5 1_555 1_555
H5 C13 1_555 1_555
H6 C14 1_555 1_555
H7 C15 1_555 1_555
H8 C16 1_555 1_555
H9 C17 1_555 1_555
H10 N6 1_555 1_555
H11 C11 1_555 1_555
H12 C11 1_555 1_555
H13 C19 1_555 1_555
H14 C19 1_555 1_555
H15 C21 1_555 1_555
H16 C21 1_555 1_555
H17 C6 1_555 1_555
H19 C18 1_555 1_555
H20 C7 1_555 1_555
H21 C7 1_555 1_555
H22 C7 1_555 1_555
H23 C8 1_555 1_555
H24 C8 1_555 1_555
H25 C8 1_555 1_555
H32 C20 1_555 1_555
H33 C20 1_555 1_555
H34 C20 1_555 1_555
H35 C22 1_555 1_555
H36 N11 1_555 1_555
H37 C34 1_555 1_555
H38 C35 1_555 1_555
H39 C36 1_555 1_555
H40 C37 1_555 1_555
H41 C38 1_555 1_555
H42 N12 1_555 1_555
H43 C32 1_555 1_555
H44 C32 1_555 1_555
H45 C40 1_555 1_555
H46 C40 1_555 1_555
H47 C42 1_555 1_555
H48 C42 1_555 1_555
H49 C27 1_555 1_555
H51 C39 1_555 1_555
H52 C28 1_555 1_555
H53 C28 1_555 1_555
H54 C28 1_555 1_555
H55 C29 1_555 1_555
H56 C29 1_555 1_555
H57 C29 1_555 1_555
H64 C41 1_555 1_555
H65 C41 1_555 1_555
H66 C41 1_555 1_555
C2 C5 1_555 1_555
C16 C17 1_555 1_555
C23 C26 1_555 1_555
C37 C38 1_555 1_555

#END
