
#######################################################################
#
#                 Cambridge Crystallographic Data Centre
#                                CCDC 
#
#######################################################################
#
# If this CIF has been generated from an entry in the Cambridge 
# Structural Database, then it will include bibliographic, chemical, 
# crystal, experimental, refinement or atomic coordinate data resulting 
# from the CCDC's data processing and validation procedures.
#
#######################################################################

data_BAHJIF
_chemical_formula_moiety         'C10 H9 N5'
_chemical_name_systematic        
2-(1H-1,2,4-Triazol-1-ylmethyl)-1H-benzimidazole
_symmetry_cell_setting           orthorhombic
_symmetry_space_group_name_H-M   'P b c a'
_symmetry_Int_Tables_number      61
_space_group_name_Hall           '-P 2ac 2ab'
loop_
_symmetry_equiv_pos_site_id
_symmetry_equiv_pos_as_xyz
1 x,y,z
2 1/2-x,-y,1/2+z
3 -x,1/2+y,1/2-z
4 1/2+x,1/2-y,-z
5 -x,-y,-z
6 1/2+x,y,1/2-z
7 x,1/2-y,1/2+z
8 1/2-x,1/2+y,z
_cell_length_a                   6.4648(13)
_cell_length_b                   9.841(2)
_cell_length_c                   30.508(6)
_cell_angle_alpha                90
_cell_angle_beta                 90
_cell_angle_gamma                90
_cell_volume                     1940.92
_cell_formula_units_Z            8
loop_
_atom_site_label
_atom_site_type_symbol
_atom_site_fract_x
_atom_site_fract_y
_atom_site_fract_z
N1 N 0.2450(4) 0.5808(2) 0.11916(7)
N2 N 0.1676(4) 0.3599(2) 0.11509(8)
N3 N 0.5100(4) 0.3341(2) 0.05292(8)
C1 C 0.0740(4) 0.4152(3) 0.15219(9)
C2 C 0.2639(4) 0.4624(2) 0.09663(9)
C3 C 0.3788(4) 0.4544(3) 0.05443(10)
H1 H 0.2810 0.4516 0.0303
H2 H 0.4635 0.5350 0.0510
C4 C 0.1204(4) 0.5531(3) 0.15484(9)
N4 N 0.4484(5) 0.2178(3) 0.03401(10)
C5 C 0.5897(6) 0.1307(3) 0.04111(12)
H3 H 0.5859 0.0411 0.0314
C6 C -0.0825(6) 0.5735(4) 0.21863(12)
H4 H -0.1368 0.6253 0.2414
C7 C 0.0423(5) 0.6350(3) 0.18816(11)
H5 H 0.0733 0.7271 0.1897
C8 C -0.0534(5) 0.3540(3) 0.18363(12)
H6 H -0.0849 0.2618 0.1824
C9 C -0.1301(6) 0.4362(4) 0.21642(12)
H7 H -0.2160 0.3985 0.2376
N5 N 0.7438(6) 0.1846(4) 0.06416(13)
C10 C 0.6925(5) 0.3112(4) 0.07086(14)
H8 H 0.7718 0.3750 0.0858
loop_
_geom_bond_atom_site_label_1
_geom_bond_atom_site_label_2
_geom_bond_site_symmetry_1
_geom_bond_site_symmetry_2
N1 C2 1_555 1_555
N2 C1 1_555 1_555
N3 C3 1_555 1_555
C1 C4 1_555 1_555
C2 N2 1_555 1_555
C3 C2 1_555 1_555
H1 C3 1_555 1_555
H2 C3 1_555 1_555
C4 N1 1_555 1_555
N4 N3 1_555 1_555
C5 N4 1_555 1_555
H3 C5 1_555 1_555
C6 H4 1_555 1_555
C7 C4 1_555 1_555
H5 C7 1_555 1_555
C8 C1 1_555 1_555
H6 C8 1_555 1_555
C9 C6 1_555 1_555
H7 C9 1_555 1_555
N5 C5 1_555 1_555
C10 N3 1_555 1_555
H8 C10 1_555 1_555
C6 C7 1_555 1_555
C8 C9 1_555 1_555
N5 C10 1_555 1_555

#END
