
#######################################################################
#
#                 Cambridge Crystallographic Data Centre
#                                CCDC 
#
#######################################################################
#
# If this CIF has been generated from an entry in the Cambridge 
# Structural Database, then it will include bibliographic, chemical, 
# crystal, experimental, refinement or atomic coordinate data resulting 
# from the CCDC's data processing and validation procedures.
#
#######################################################################

data_BAHLOO
_chemical_formula_moiety         'C16 H15 Br1 O2'
_chemical_name_systematic        
'4-(3-bromophenyl)tricyclo[4.2.1.0^2,5^]non-3-ene-3-carboxylic acid'
_symmetry_cell_setting           monoclinic
_symmetry_space_group_name_H-M   'C 2'
_symmetry_Int_Tables_number      5
_space_group_name_Hall           'C 2y'
loop_
_symmetry_equiv_pos_site_id
_symmetry_equiv_pos_as_xyz
1 x,y,z
2 -x,y,-z
3 1/2+x,1/2+y,z
4 1/2-x,1/2+y,-z
_cell_length_a                   19.2401(6)
_cell_length_b                   7.48163(17)
_cell_length_c                   19.9656(6)
_cell_angle_alpha                90
_cell_angle_beta                 104.461(3)
_cell_angle_gamma                90
_cell_volume                     2782.94
_exptl_crystal_colour            colorless
_exptl_crystal_description       plate
_cell_formula_units_Z            8
loop_
_atom_site_label
_atom_site_type_symbol
_atom_site_fract_x
_atom_site_fract_y
_atom_site_fract_z
Br1 Br 0.60960(3) 1.53260(5) 0.99162(2)
O1 O 0.53327(14) 0.6434(4) 0.80382(14)
O2 O 0.41814(14) 0.5570(4) 0.77442(15)
H1 H 0.4338 0.4829 0.7502
C1 C 0.44482(18) 0.8014(5) 0.84647(17)
C2 C 0.47241(18) 0.9484(5) 0.88262(16)
C3 C 0.3591(2) 1.1556(6) 0.85260(19)
H2 H 0.3815 1.2765 0.8627
C4 C 0.40077(17) 1.0026(5) 0.89567(15)
H3 H 0.3988 1.0003 0.9452
C5 C 0.2806(2) 1.1421(7) 0.8581(2)
H4 H 0.2533 1.2511 0.8398
H5 H 0.2786 1.1243 0.9067
C6 C 0.2509(2) 0.9771(6) 0.8135(2)
H6 H 0.2341 0.8845 0.8412
H7 H 0.2107 1.0107 0.7739
C7 C 0.36868(18) 0.8327(5) 0.85216(17)
H8 H 0.3486 0.7388 0.8777
C8 C 0.31620(17) 0.9112(6) 0.78867(16)
H9 H 0.3045 0.8315 0.7472
C9 C 0.35185(19) 1.0881(5) 0.77864(17)
H10 H 0.3205 1.1653 0.7434
H11 H 0.3989 1.0715 0.7677
C10 C 0.4709(2) 0.6618(5) 0.80683(18)
C11 C 0.54147(17) 1.0402(5) 0.90199(14)
C12 C 0.6059(2) 0.9644(5) 0.89534(18)
H12 H 0.6055 0.8492 0.8752
C13 C 0.66999(19) 1.0554(6) 0.91776(18)
H13 H 0.7134 1.0008 0.9138
C14 C 0.6719(2) 1.2264(6) 0.94613(18)
H14 H 0.7160 1.2888 0.9613
C15 C 0.6088(2) 1.3024(5) 0.95168(17)
C16 C 0.54333(19) 1.2147(5) 0.92982(16)
H15 H 0.5003 1.2714 0.9335
Br2 Br 0.37840(2) -0.59469(5) 0.52086(2)
O3 O 0.46432(14) 0.3006(4) 0.70663(14)
O4 O 0.58045(14) 0.3547(4) 0.75453(17)
H16 H 0.5638 0.4486 0.7676
C17 C 0.55336(18) 0.0846(5) 0.69892(16)
C18 C 0.52282(17) -0.0643(5) 0.66411(15)
C19 C 0.59502(18) -0.1540(5) 0.67104(16)
H17 H 0.6027 -0.2661 0.6993
C20 C 0.62567(18) -0.1566(5) 0.60672(16)
H18 H 0.5982 -0.2312 0.5674
C21 C 0.7056(2) -0.2038(5) 0.63267(18)
H19 H 0.7271 -0.2291 0.5935
H20 H 0.7123 -0.3092 0.6636
C22 C 0.73927(19) -0.0343(5) 0.67254(19)
H21 H 0.7604 -0.0612 0.7220
H22 H 0.7769 0.0168 0.6522
C23 C 0.67476(19) 0.0939(5) 0.66353(18)
H23 H 0.6873 0.2235 0.6701
C24 C 0.62952(17) 0.0197(5) 0.71043(15)
H24 H 0.6558 0.0016 0.7599
C25 C 0.63024(18) 0.0421(6) 0.59066(17)
H25 H 0.5826 0.1008 0.5783
H26 H 0.6561 0.0647 0.5544
C26 C 0.52730(18) 0.2553(5) 0.71935(18)
C27 C 0.45227(18) -0.1287(5) 0.62838(15)
C28 C 0.38907(19) -0.0302(5) 0.62148(17)
H27 H 0.3910 0.0860 0.6410
C29 C 0.32350(17) -0.1017(6) 0.58622(16)
H28 H 0.2809 -0.0340 0.5823
C30 C 0.31922(19) -0.2704(5) 0.55656(17)
H29 H 0.2743 -0.3188 0.5323
C31 C 0.3822(2) -0.3662(5) 0.56334(17)
C32 C 0.44803(19) -0.3002(5) 0.59918(17)
H30 H 0.4901 -0.3703 0.6040
loop_
_geom_bond_atom_site_label_1
_geom_bond_atom_site_label_2
_geom_bond_site_symmetry_1
_geom_bond_site_symmetry_2
Br1 C15 1_555 1_555
O1 C10 1_555 1_555
O2 H1 1_555 1_555
C1 C2 1_555 1_555
C2 C4 1_555 1_555
C3 H2 1_555 1_555
C4 C3 1_555 1_555
H3 C4 1_555 1_555
C5 C3 1_555 1_555
H4 C5 1_555 1_555
H5 C5 1_555 1_555
C6 C5 1_555 1_555
H6 C6 1_555 1_555
H7 C6 1_555 1_555
C7 C1 1_555 1_555
H8 C7 1_555 1_555
C8 C6 1_555 1_555
H9 C8 1_555 1_555
C9 C3 1_555 1_555
H10 C9 1_555 1_555
H11 C9 1_555 1_555
C10 O2 1_555 1_555
C11 C2 1_555 1_555
C12 C11 1_555 1_555
H12 C12 1_555 1_555
C13 C12 1_555 1_555
H13 C13 1_555 1_555
C14 C13 1_555 1_555
H14 C14 1_555 1_555
C15 C14 1_555 1_555
C16 C11 1_555 1_555
H15 C16 1_555 1_555
Br2 C31 1_555 1_555
O3 C26 1_555 1_555
O4 H16 1_555 1_555
C17 C18 1_555 1_555
C18 C19 1_555 1_555
C19 H17 1_555 1_555
C20 C19 1_555 1_555
H18 C20 1_555 1_555
C21 C20 1_555 1_555
H19 C21 1_555 1_555
H20 C21 1_555 1_555
C22 C21 1_555 1_555
H21 C22 1_555 1_555
H22 C22 1_555 1_555
C23 C22 1_555 1_555
H23 C23 1_555 1_555
C24 C17 1_555 1_555
H24 C24 1_555 1_555
C25 C20 1_555 1_555
H25 C25 1_555 1_555
H26 C25 1_555 1_555
C26 O4 1_555 1_555
C27 C18 1_555 1_555
C28 C27 1_555 1_555
H27 C28 1_555 1_555
C29 C28 1_555 1_555
H28 C29 1_555 1_555
C30 C29 1_555 1_555
H29 C30 1_555 1_555
C31 C30 1_555 1_555
C32 C27 1_555 1_555
H30 C32 1_555 1_555
C1 C10 1_555 1_555
C4 C7 1_555 1_555
C7 C8 1_555 1_555
C8 C9 1_555 1_555
C15 C16 1_555 1_555
C17 C26 1_555 1_555
C19 C24 1_555 1_555
C23 C24 1_555 1_555
C23 C25 1_555 1_555
C31 C32 1_555 1_555

#END
