
#######################################################################
#
#                 Cambridge Crystallographic Data Centre
#                                CCDC 
#
#######################################################################
#
# If this CIF has been generated from an entry in the Cambridge 
# Structural Database, then it will include bibliographic, chemical, 
# crystal, experimental, refinement or atomic coordinate data resulting 
# from the CCDC's data processing and validation procedures.
#
#######################################################################

data_BAHPIK
_chemical_formula_moiety         '2(C1 H7 N4 O1 1+),C6 H1 N3 O8 2-'
_chemical_name_systematic        "bis(N-Amino-N'-ammoniourea) styphnate"
_symmetry_cell_setting           monoclinic
_symmetry_space_group_name_H-M   'C 2/c'
_symmetry_Int_Tables_number      15
_space_group_name_Hall           '-C 2yn'
loop_
_symmetry_equiv_pos_site_id
_symmetry_equiv_pos_as_xyz
1 x,y,z
2 -x,y,1/2-z
3 1/2+x,1/2+y,z
4 1/2-x,1/2+y,1/2-z
5 -x,-y,-z
6 x,-y,1/2+z
7 1/2-x,1/2-y,-z
8 1/2+x,1/2-y,1/2+z
_cell_length_a                   25.81(3)
_cell_length_b                   8.36(1)
_cell_length_c                   7.506(1)
_cell_angle_alpha                90
_cell_angle_beta                 95.18(1)
_cell_angle_gamma                90
_cell_volume                     1612.97
_cell_formula_units_Z            4
loop_
_atom_site_label
_atom_site_type_symbol
_atom_site_fract_x
_atom_site_fract_y
_atom_site_fract_z
O1 O 0.2918(1) 0.8077(1) 0.2066(2)
N1 N 0.3647(1) 0.6088(2) 0.3217(2)
N2 N 0.3118(1) 0.5713(2) 0.3451(2)
N3 N 0.2275(1) 0.6345(2) 0.2677(3)
N4 N 0.1872(1) 0.7317(2) 0.1889(2)
C1 C 0.2769(1) 0.6807(2) 0.2652(2)
O2 O 0.4098(1) 0.3479(1) 0.1606(2)
O3 O 0.3760(1) 0.0672(2) 0.0207(2)
O4 O 0.4160(1) -0.1451(2) 0.1150(2)
O5 O 0.5300(1) 0.5881(2) 0.1594(2)
N5 N 0.4134(1) 0.0022(2) 0.1038(2)
N6 N 0.5000 0.5180(2) 0.2500
C2 C 0.5000 0.3439(3) 0.2500
C3 C 0.4520(1) 0.2691(2) 0.1966(2)
C4 C 0.4558(1) 0.0967(2) 0.1841(2)
C5 C 0.5000 0.0161(3) 0.2500
O5A O 0.4700(1) 0.5881(2) 0.3406(2)
C3A C 0.5480(1) 0.2691(2) 0.3034(2)
O2A O 0.5902(1) 0.3479(1) 0.3394(2)
C4A C 0.5442(1) 0.0967(2) 0.3159(2)
N5A N 0.5866(1) 0.0022(2) 0.3962(2)
O3A O 0.6240(1) 0.0672(2) 0.4793(2)
O4A O 0.5840(1) -0.1451(2) 0.3850(2)
loop_
_geom_bond_atom_site_label_1
_geom_bond_atom_site_label_2
_geom_bond_site_symmetry_1
_geom_bond_site_symmetry_2
O1 C1 1_555 1_555
O2 C3 1_555 1_555
O3 N5 1_555 1_555
O4 N5 1_555 1_555
O5 N6 1_555 1_555
N1 N2 1_555 1_555
N2 C1 1_555 1_555
N3 N4 1_555 1_555
N5 C4 1_555 1_555
N6 C2 1_555 1_555
C1 N3 1_555 1_555
C2 C3 1_555 1_555
C3 C4 1_555 1_555
C4 C5 1_555 1_555
C5 C4A 1_555 1_555
O5A N6 1_555 1_555
C3A C2 1_555 1_555
O2A C3A 1_555 1_555
C4A C3A 1_555 1_555
N5A C4A 1_555 1_555
O3A N5A 1_555 1_555
O4A N5A 1_555 1_555

#END
