
#######################################################################
#
#                 Cambridge Crystallographic Data Centre
#                                CCDC 
#
#######################################################################
#
# If this CIF has been generated from an entry in the Cambridge 
# Structural Database, then it will include bibliographic, chemical, 
# crystal, experimental, refinement or atomic coordinate data resulting 
# from the CCDC's data processing and validation procedures.
#
#######################################################################

data_BAHSAF
_chemical_formula_moiety         'C19 H24 N1 O4'
_chemical_name_systematic        
(6S,9S,13R,14S)-7,8-Didehydro-3,7-dimethoxy-17-methylmorphinan-4,6-diol
_symmetry_cell_setting           orthorhombic
_symmetry_space_group_name_H-M   'P 21 21 21'
_symmetry_Int_Tables_number      19
_space_group_name_Hall           'P 2ac 2ab'
loop_
_symmetry_equiv_pos_site_id
_symmetry_equiv_pos_as_xyz
1 x,y,z
2 1/2-x,-y,1/2+z
3 1/2+x,1/2-y,-z
4 -x,1/2+y,1/2-z
_cell_length_a                   7.738(2)
_cell_length_b                   10.131(2)
_cell_length_c                   21.535(4)
_cell_angle_alpha                90
_cell_angle_beta                 90
_cell_angle_gamma                90
_cell_volume                     1688.21
_exptl_crystal_colour            colorless
_exptl_crystal_description       block
_chemical_melting_point          '214-216 deg.C'
_cell_formula_units_Z            4
loop_
_atom_site_label
_atom_site_type_symbol
_atom_site_fract_x
_atom_site_fract_y
_atom_site_fract_z
C1 C 0.4481(3) 0.4035(2) 1.1253(1)
C2 C 0.4749(3) 0.3371(2) 1.1804(1)
C3 C 0.6399(3) 0.3324(2) 1.2044(1)
C4 C 0.7764(3) 0.3952(2) 1.1730(1)
C5 C 1.0350(3) 0.6039(2) 1.1219(1)
C6 C 0.9711(3) 0.7205(2) 1.1605(1)
C7 C 0.8318(3) 0.7961(2) 1.1278(1)
C8 C 0.7673(3) 0.7617(2) 1.0726(1)
C9 C 0.6915(3) 0.5809(2) 0.9953(1)
C10 C 0.5352(3) 0.5391(2) 1.0340(1)
C11 C 0.5783(3) 0.4690(2) 1.0943(1)
C12 C 0.7475(3) 0.4688(2) 1.1190(1)
C13 C 0.8961(3) 0.5339(2) 1.0828(1)
C14 C 0.8270(3) 0.6413(2) 1.0384(1)
C15 C 0.9797(3) 0.4259(2) 1.0419(1)
C16 C 0.8537(4) 0.3730(2) 0.9935(1)
C17 C 0.5612(4) 0.2007(4) 1.2913(1)
C18 C 0.6737(5) 0.9974(3) 1.1332(2)
C19 C 0.6671(5) 0.4301(3) 0.9073(1)
N1 N 0.7767(3) 0.4803(2) 0.9571(1)
O1 O 0.6885(2) 0.2680(2) 1.2575(1)
O2 O 0.9412(2) 0.3867(2) 1.1965(1)
O3 O 0.9139(2) 0.6834(2) 1.2220(1)
O4 O 0.7903(3) 0.9062(2) 1.1615(1)
loop_
_geom_bond_atom_site_label_1
_geom_bond_atom_site_label_2
_geom_bond_site_symmetry_1
_geom_bond_site_symmetry_2
C1 C2 1_555 1_555
C2 C3 1_555 1_555
C3 C4 1_555 1_555
C4 C12 1_555 1_555
C5 C6 1_555 1_555
C6 C7 1_555 1_555
C7 C8 1_555 1_555
C8 C14 1_555 1_555
C9 C10 1_555 1_555
C10 C11 1_555 1_555
C11 C1 1_555 1_555
C12 C11 1_555 1_555
C13 C5 1_555 1_555
C14 C9 1_555 1_555
C15 C13 1_555 1_555
C16 C15 1_555 1_555
C17 O1 1_555 1_555
C18 O4 1_555 1_555
C19 N1 1_555 1_555
N1 C9 1_555 1_555
O1 C3 1_555 1_555
O2 C4 1_555 1_555
O3 C6 1_555 1_555
O4 C7 1_555 1_555
C12 C13 1_555 1_555
C13 C14 1_555 1_555
C16 N1 1_555 1_555

#END
