
#######################################################################
#
#                 Cambridge Crystallographic Data Centre
#                                CCDC 
#
#######################################################################
#
# If this CIF has been generated from an entry in the Cambridge 
# Structural Database, then it will include bibliographic, chemical, 
# crystal, experimental, refinement or atomic coordinate data resulting 
# from the CCDC's data processing and validation procedures.
#
#######################################################################

data_BAHTAI
_chemical_formula_moiety         
'C82 H60 F10 N4 S4 2+,4(C2 H1 F3 O2),2(C2 F3 O2 1-),2(C12 H26)'
_chemical_name_systematic        
'14,31-bis(pentafluorophenyl)-2,9,19,26-tetrakis(2,4,6-trimethylphenyl)-4,7,21,24-tetrathia-36,40-diaza-35,39-diazonianonacyclo[30.2.1.1^3,6^.1^5,8^.1^10,13^.1^15,18^.1^20,23^.1^22,25^.1^27,30^]dotetraconta-1,3(42),5,8(41),9,11,13,15(39),16,18,20(38),22,25(37),26,28,30,32(35),33-octadecaene bis(trifluoroacetate) trifluoroacetic acid dodecane solvate'
_symmetry_cell_setting           triclinic
_symmetry_space_group_name_H-M   'P -1'
_symmetry_Int_Tables_number      2
_space_group_name_Hall           '-P 1'
loop_
_symmetry_equiv_pos_site_id
_symmetry_equiv_pos_as_xyz
1 x,y,z
2 -x,-y,-z
_cell_length_a                   12.0743(16)
_cell_length_b                   13.2209(18)
_cell_length_c                   17.073(2)
_cell_angle_alpha                71.182(3)
_cell_angle_beta                 73.445(3)
_cell_angle_gamma                83.504(3)
_cell_volume                     2472.12
_exptl_crystal_colour            blue
_exptl_crystal_description       block
_chemical_melting_point          '300 K'
_cell_formula_units_Z            1
loop_
_atom_site_label
_atom_site_type_symbol
_atom_site_fract_x
_atom_site_fract_y
_atom_site_fract_z
C42 C -0.0105(4) 0.1756(3) 0.9011(2)
C43 C 0.0727(4) 0.2534(4) 0.8280(3)
F6 F 0.0387(3) 0.1181(2) 0.96136(18)
F7 F -0.0493(2) 0.1082(2) 0.87256(16)
F8 F -0.1003(2) 0.2294(2) 0.93528(19)
O1 O 0.0368(3) 0.3048(3) 0.7661(2)
O2 O 0.1692(3) 0.2624(4) 0.8375(3)
C44 C 0.9445(3) 0.5650(3) 0.8011(2)
C45 C 0.8211(3) 0.5230(3) 0.8441(2)
F9 F 0.7437(2) 0.6008(2) 0.82944(15)
F10 F 0.8036(2) 0.4504(2) 0.81068(17)
F11 F 0.8006(2) 0.4809(2) 0.92768(14)
O3 O 0.9601(2) 0.64478(19) 0.73957(14)
O4 O 1.0206(2) 0.5029(2) 0.83427(17)
H31 H 1.0008 0.4905 0.8865
C46 C 0.3669(5) 0.5831(6) 0.6120(5)
C47 C 0.2731(5) 0.5172(4) 0.6887(4)
F12 F 0.3969(4) 0.6663(5) 0.6284(4)
O5 O 0.2165(3) 0.5615(3) 0.7374(2)
F13 F 0.4702(7) 0.5416(6) 0.5939(6)
F14 F 0.3264(17) 0.6357(10) 0.5526(13)
O6 O 0.2846(4) 0.4213(4) 0.6990(3)
C1 C 0.3579(3) 1.0291(3) 0.79921(19)
C2 C 0.4342(3) 0.9728(3) 0.75034(19)
C3 C 0.3835(3) 0.9014(2) 0.72245(19)
H1 H 0.4226 0.8580 0.6895
C4 C 0.2599(3) 0.9107(3) 0.75590(19)
C5 C 0.1735(3) 0.8633(3) 0.73515(19)
C6 C 0.1922(3) 0.8605(3) 0.6534(2)
C7 C 0.2730(3) 0.9184(3) 0.5754(2)
H2 H 0.3298 0.9628 0.5721
C8 C 0.2533(3) 0.8980(3) 0.5083(2)
H3 H 0.2936 0.9263 0.4511
C9 C 0.1587(3) 0.8247(2) 0.54037(19)
C10 C 0.1055(3) 0.7809(2) 0.49596(18)
C11 C 0.1554(3) 0.7788(2) 0.41188(19)
C12 C 0.1048(3) 0.7434(2) 0.35905(19)
H4 H 0.0299 0.7190 0.3746
C13 C 0.1833(3) 0.7513(2) 0.28277(19)
H5 H 0.1726 0.7308 0.2382
C14 C 0.2861(3) 0.7967(2) 0.28255(19)
C15 C 0.3838(3) 0.8277(2) 0.21672(19)
C16 C 0.4685(3) 0.8967(3) 0.21772(19)
C17 C 0.5905(3) 0.8933(2) 0.17840(19)
H6 H 0.6290 0.8500 0.1451
C18 C 0.0637(3) 0.8250(3) 0.80150(19)
C19 C -0.0424(3) 0.8755(3) 0.7909(2)
C20 C -0.1427(3) 0.8360(3) 0.8538(2)
H7 H -0.2132 0.8688 0.8473
C21 C -0.1413(3) 0.7496(3) 0.9258(2)
C22 C -0.0369(3) 0.7014(3) 0.9348(2)
H8 H -0.0354 0.6428 0.9827
C23 C 0.0673(3) 0.7373(3) 0.8744(2)
C24 C -0.0486(4) 0.9743(3) 0.7172(3)
H9 H -0.1266 1.0023 0.7252
H10 H -0.0250 0.9566 0.6645
H11 H 0.0017 1.0271 0.7149
C25 C -0.2527(4) 0.7111(4) 0.9935(3)
H12 H -0.3173 0.7426 0.9711
H13 H -0.2563 0.7317 1.0432
H14 H -0.2552 0.6347 1.0091
C26 C 0.1790(3) 0.6823(3) 0.8880(2)
H15 H 0.2300 0.6805 0.8338
H16 H 0.1642 0.6106 0.9254
H17 H 0.2143 0.7205 0.9134
C27 C -0.0127(3) 0.7381(2) 0.54014(18)
C28 C -0.1033(3) 0.8058(3) 0.5651(2)
C29 C -0.2132(3) 0.7698(3) 0.6085(2)
C30 C -0.2364(3) 0.6637(3) 0.6263(2)
C31 C -0.1500(3) 0.5951(3) 0.6019(2)
C32 C -0.0398(3) 0.6318(2) 0.56080(19)
C33 C 0.4046(3) 0.7881(3) 0.1410(2)
C34 C 0.4425(3) 0.6820(3) 0.1476(2)
C35 C 0.4606(3) 0.6467(3) 0.0760(2)
H18 H 0.4852 0.5764 0.0800
C36 C 0.4428(3) 0.7138(3) -0.0007(2)
C37 C 0.4052(3) 0.8171(3) -0.0058(2)
H19 H 0.3923 0.8622 -0.0570
C38 C 0.3860(3) 0.8563(3) 0.0637(2)
C39 C 0.4656(4) 0.6075(3) 0.2291(2)
H20 H 0.5134 0.6420 0.2487
H21 H 0.5045 0.5438 0.2184
H22 H 0.3937 0.5889 0.2721
C40 C 0.4655(4) 0.6729(4) -0.0771(3)
H23 H 0.4483 0.7287 -0.1247
H24 H 0.4172 0.6131 -0.0627
H25 H 0.5452 0.6509 -0.0925
C41 C 0.3415(3) 0.9696(3) 0.0568(2)
H26 H 0.2713 0.9687 0.1011
H27 H 0.3266 1.0026 0.0017
H28 H 0.3984 1.0094 0.0632
F1 F -0.08382(17) 0.91012(15) 0.54616(13)
F2 F -0.29777(18) 0.83747(18) 0.63170(16)
F3 F -0.34370(18) 0.62880(18) 0.66741(16)
F4 F -0.17292(19) 0.49191(16) 0.62028(14)
F5 F 0.04448(17) 0.56115(15) 0.54176(12)
N1 N 0.1237(2) 0.8065(2) 0.62701(15)
H29 H 0.0668 0.7669 0.6609
N2 N 0.2643(2) 0.8105(2) 0.36401(15)
H30 H 0.3127 0.8354 0.3812
S1 S 0.57430(8) 1.00545(7) 0.72984(5)
S2 S 0.21701(8) 0.99567(8) 0.81934(5)
C1A C 0.6421(3) 0.9709(3) 0.20079(19)
C2A C 0.5658(3) 1.0272(3) 0.24966(19)
C3A C 0.6165(3) 1.0986(2) 0.27755(19)
H1A H 0.5774 1.1420 0.3105
C4A C 0.7401(3) 1.0893(3) 0.24410(19)
C5A C 0.8265(3) 1.1367(3) 0.26485(19)
C6A C 0.8078(3) 1.1395(3) 0.3466(2)
C7A C 0.7270(3) 1.0816(3) 0.4246(2)
H2A H 0.6702 1.0372 0.4279
C8A C 0.7467(3) 1.1020(3) 0.4917(2)
H3A H 0.7064 1.0737 0.5489
C9A C 0.8413(3) 1.1753(2) 0.45963(19)
C10A C 0.8945(3) 1.2191(2) 0.50404(18)
C11A C 0.8446(3) 1.2212(2) 0.58812(19)
C12A C 0.8952(3) 1.2566(2) 0.64095(19)
H4A H 0.9701 1.2810 0.6254
C13A C 0.8167(3) 1.2487(2) 0.71723(19)
H5A H 0.8274 1.2692 0.7618
C14A C 0.7139(3) 1.2033(2) 0.71745(19)
C15A C 0.6162(3) 1.1723(2) 0.78328(19)
C16A C 0.5315(3) 1.1033(3) 0.78228(19)
C17A C 0.4095(3) 1.1067(2) 0.82160(19)
H6A H 0.3710 1.1500 0.8549
C18A C 0.9363(3) 1.1750(3) 0.19850(19)
C19A C 1.0424(3) 1.1245(3) 0.2091(2)
C20A C 1.1427(3) 1.1640(3) 0.1462(2)
H7A H 1.2132 1.1312 0.1527
C21A C 1.1413(3) 1.2504(3) 0.0742(2)
C22A C 1.0369(3) 1.2986(3) 0.0652(2)
H8A H 1.0354 1.3572 0.0173
C23A C 0.9327(3) 1.2627(3) 0.1256(2)
C24A C 1.0486(4) 1.0257(3) 0.2828(3)
H9A H 1.1266 0.9977 0.2748
H10A H 1.0250 1.0434 0.3355
H11A H 0.9983 0.9729 0.2851
C25A C 1.2527(4) 1.2889(4) 0.0065(3)
H12A H 1.3173 1.2574 0.0289
H13A H 1.2563 1.2683 -0.0432
H14A H 1.2552 1.3653 -0.0091
C26A C 0.8210(3) 1.3177(3) 0.1120(2)
H15A H 0.7700 1.3195 0.1662
H16A H 0.8358 1.3894 0.0746
H17A H 0.7857 1.2795 0.0866
C27A C 1.0127(3) 1.2619(2) 0.45986(18)
C28A C 1.1033(3) 1.1942(3) 0.4349(2)
C29A C 1.2132(3) 1.2302(3) 0.3915(2)
C30A C 1.2364(3) 1.3363(3) 0.3737(2)
C31A C 1.1500(3) 1.4049(3) 0.3981(2)
C32A C 1.0398(3) 1.3682(2) 0.43920(19)
C33A C 0.5954(3) 1.2119(3) 0.8590(2)
C34A C 0.5575(3) 1.3180(3) 0.8524(2)
C35A C 0.5394(3) 1.3533(3) 0.9240(2)
H18A H 0.5148 1.4236 0.9200
C36A C 0.5572(3) 1.2862(3) 1.0007(2)
C37A C 0.5948(3) 1.1829(3) 1.0058(2)
H19A H 0.6077 1.1378 1.0570
C38A C 0.6140(3) 1.1437(3) 0.9363(2)
C39A C 0.5344(4) 1.3925(3) 0.7709(2)
H20A H 0.4866 1.3580 0.7513
H21A H 0.4955 1.4562 0.7816
H22A H 0.6063 1.4111 0.7279
C40A C 0.5345(4) 1.3271(4) 1.0771(3)
H23A H 0.5517 1.2713 1.1247
H24A H 0.5828 1.3869 1.0627
H25A H 0.4548 1.3491 1.0925
C41A C 0.6585(3) 1.0304(3) 0.9432(2)
H26A H 0.7287 1.0313 0.8989
H27A H 0.6734 0.9974 0.9983
H28A H 0.6016 0.9906 0.9368
F1A F 1.08382(17) 1.08988(15) 0.45384(13)
F2A F 1.29777(18) 1.16253(18) 0.36830(16)
F3A F 1.34370(18) 1.37120(18) 0.33259(16)
F4A F 1.17292(19) 1.50809(16) 0.37972(14)
F5A F 0.95552(17) 1.43885(15) 0.45824(12)
N1A N 0.8763(2) 1.1935(2) 0.37299(15)
H29A H 0.9332 1.2331 0.3391
N2A N 0.7357(2) 1.1895(2) 0.63599(15)
H30A H 0.6873 1.1646 0.6188
S1A S 0.42570(8) 0.99455(7) 0.27016(5)
S2A S 0.78299(8) 1.00433(8) 0.18066(5)
F15? F 0.4402(8) 0.5024(9) 0.5869(6)
F16? F 0.3239(18) 0.5967(17) 0.5347(15)
O7? O 0.2059(10) 0.4333(9) 0.6655(6)
C48? C 0.7943(3) 0.8145(3) 0.3837(2)
C49? C 0.5491(5) 0.8152(5) 0.4510(4)
C50? C 0.7018(5) 0.8483(6) 0.4446(5)
C51? C 0.5276(5) 0.9018(5) 0.4514(4)
C52? C 0.5295(8) 0.7043(10) 0.3742(5)
C53? C 0.6940(7) 0.6529(5) 0.4591(6)
C54? C 0.5694(7) 0.7682(6) 0.5494(4)
C55? C 0.6735(6) 0.7157(14) 0.4053(6)
C56? C 0.7516(9) 0.7778(8) 0.3520(6)
C57? C 0.4835(13) 0.8141(8) 0.4244(6)
C58? C 0.5619(13) 0.7459(4) 0.4075(4)
C59? C 0.640(2) 0.8098(8) 0.4722(6)
loop_
_geom_bond_atom_site_label_1
_geom_bond_atom_site_label_2
_geom_bond_site_symmetry_1
_geom_bond_site_symmetry_2
C1 C2 1_555 1_555
C2 C3 1_555 1_555
C3 H1 1_555 1_555
C4 C3 1_555 1_555
C5 C4 1_555 1_555
C6 C5 1_555 1_555
C7 C6 1_555 1_555
H2 C7 1_555 1_555
C8 C7 1_555 1_555
H3 C8 1_555 1_555
C9 C8 1_555 1_555
C10 C9 1_555 1_555
C11 C10 1_555 1_555
C12 C11 1_555 1_555
H4 C12 1_555 1_555
C13 C12 1_555 1_555
H5 C13 1_555 1_555
C14 C13 1_555 1_555
C15 C14 1_555 1_555
C16 C15 1_555 1_555
C17 C16 1_555 1_555
H6 C17 1_555 1_555
C18 C5 1_555 1_555
C19 C18 1_555 1_555
C20 C19 1_555 1_555
H7 C20 1_555 1_555
C21 C20 1_555 1_555
C22 C21 1_555 1_555
H8 C22 1_555 1_555
C23 C18 1_555 1_555
C24 C19 1_555 1_555
H9 C24 1_555 1_555
H10 C24 1_555 1_555
H11 C24 1_555 1_555
C25 C21 1_555 1_555
H12 C25 1_555 1_555
H13 C25 1_555 1_555
H14 C25 1_555 1_555
C26 C23 1_555 1_555
H15 C26 1_555 1_555
H16 C26 1_555 1_555
H17 C26 1_555 1_555
C27 C10 1_555 1_555
C28 C27 1_555 1_555
C29 C28 1_555 1_555
C30 C29 1_555 1_555
C31 C30 1_555 1_555
C32 C27 1_555 1_555
C33 C15 1_555 1_555
C34 C33 1_555 1_555
C35 C34 1_555 1_555
H18 C35 1_555 1_555
C36 C35 1_555 1_555
C37 C36 1_555 1_555
H19 C37 1_555 1_555
C38 C33 1_555 1_555
C39 C34 1_555 1_555
H20 C39 1_555 1_555
H21 C39 1_555 1_555
H22 C39 1_555 1_555
C40 C36 1_555 1_555
H23 C40 1_555 1_555
H24 C40 1_555 1_555
H25 C40 1_555 1_555
C41 C38 1_555 1_555
H26 C41 1_555 1_555
H27 C41 1_555 1_555
H28 C41 1_555 1_555
F1 C28 1_555 1_555
F2 C29 1_555 1_555
F3 C30 1_555 1_555
F4 C31 1_555 1_555
F5 C32 1_555 1_555
N1 C6 1_555 1_555
H29 N1 1_555 1_555
N2 C11 1_555 1_555
H30 N2 1_555 1_555
S1 C2 1_555 1_555
S2 C1 1_555 1_555
C42 C43 1_555 1_555
C43 O1 1_555 1_555
F6 C42 1_555 1_555
F7 C42 1_555 1_555
F8 C42 1_555 1_555
O2 C43 1_555 1_555
C44 C45 1_555 1_555
C45 F9 1_555 1_555
F10 C45 1_555 1_555
F11 C45 1_555 1_555
O3 C44 1_555 1_555
O4 C44 1_555 1_555
H31 O4 1_555 1_555
C46 C47 1_555 1_555
C47 O5 1_555 1_555
F12 C46 1_555 1_555
F13 C46 1_555 1_555
F14 C46 1_555 1_555
O6 C47 1_555 1_555
C1A C17 1_555 1_555
C2A C1A 1_555 1_555
C3A C2A 1_555 1_555
H1A C3A 1_555 1_555
C4A C3A 1_555 1_555
C5A C4A 1_555 1_555
C6A C5A 1_555 1_555
C7A C6A 1_555 1_555
H2A C7A 1_555 1_555
C8A C7A 1_555 1_555
H3A C8A 1_555 1_555
C9A C8A 1_555 1_555
C10A C9A 1_555 1_555
C11A C10A 1_555 1_555
C12A C11A 1_555 1_555
H4A C12A 1_555 1_555
C13A C12A 1_555 1_555
H5A C13A 1_555 1_555
C14A C13A 1_555 1_555
C15A C14A 1_555 1_555
C16A S1 1_555 1_555
C17A C1 1_555 1_555
H6A C17A 1_555 1_555
C18A C5A 1_555 1_555
C19A C18A 1_555 1_555
C20A C19A 1_555 1_555
H7A C20A 1_555 1_555
C21A C20A 1_555 1_555
C22A C21A 1_555 1_555
H8A C22A 1_555 1_555
C23A C18A 1_555 1_555
C24A C19A 1_555 1_555
H9A C24A 1_555 1_555
H10A C24A 1_555 1_555
H11A C24A 1_555 1_555
C25A C21A 1_555 1_555
H12A C25A 1_555 1_555
H13A C25A 1_555 1_555
H14A C25A 1_555 1_555
C26A C23A 1_555 1_555
H15A C26A 1_555 1_555
H16A C26A 1_555 1_555
H17A C26A 1_555 1_555
C27A C10A 1_555 1_555
C28A C27A 1_555 1_555
C29A C28A 1_555 1_555
C30A C29A 1_555 1_555
C31A C30A 1_555 1_555
C32A C27A 1_555 1_555
C33A C15A 1_555 1_555
C34A C33A 1_555 1_555
C35A C34A 1_555 1_555
H18A C35A 1_555 1_555
C36A C35A 1_555 1_555
C37A C36A 1_555 1_555
H19A C37A 1_555 1_555
C38A C33A 1_555 1_555
C39A C34A 1_555 1_555
H20A C39A 1_555 1_555
H21A C39A 1_555 1_555
H22A C39A 1_555 1_555
C40A C36A 1_555 1_555
H23A C40A 1_555 1_555
H24A C40A 1_555 1_555
H25A C40A 1_555 1_555
C41A C38A 1_555 1_555
H26A C41A 1_555 1_555
H27A C41A 1_555 1_555
H28A C41A 1_555 1_555
F1A C28A 1_555 1_555
F2A C29A 1_555 1_555
F3A C30A 1_555 1_555
F4A C31A 1_555 1_555
F5A C32A 1_555 1_555
N1A C6A 1_555 1_555
H29A N1A 1_555 1_555
N2A C11A 1_555 1_555
H30A N2A 1_555 1_555
S1A C16 1_555 1_555
S2A C1A 1_555 1_555
C4 S2 1_555 1_555
C9 N1 1_555 1_555
C14 N2 1_555 1_555
C22 C23 1_555 1_555
C31 C32 1_555 1_555
C37 C38 1_555 1_555
C2A S1A 1_555 1_555
C4A S2A 1_555 1_555
C9A N1A 1_555 1_555
C14A N2A 1_555 1_555
C15A C16A 1_555 1_555
C16A C17A 1_555 1_555
C22A C23A 1_555 1_555
C31A C32A 1_555 1_555
C37A C38A 1_555 1_555

#END
