
#######################################################################
#
#                 Cambridge Crystallographic Data Centre
#                                CCDC 
#
#######################################################################
#
# If this CIF has been generated from an entry in the Cambridge 
# Structural Database, then it will include bibliographic, chemical, 
# crystal, experimental, refinement or atomic coordinate data resulting 
# from the CCDC's data processing and validation procedures.
#
#######################################################################

data_BAJCIY01
_chemical_formula_moiety         'C7 H8 N2 O2'
_chemical_name_systematic        2-Methyl-4-nitroaniline
_symmetry_cell_setting           monoclinic
_symmetry_space_group_name_H-M   'I a'
_symmetry_Int_Tables_number      9
_space_group_name_Hall           'I -2ya'
loop_
_symmetry_equiv_pos_site_id
_symmetry_equiv_pos_as_xyz
1 x,y,z
2 1/2+x,-y,z
3 1/2+x,1/2+y,1/2+z
4 x,1/2-y,1/2+z
_cell_length_a                   7.6113(5)
_cell_length_b                   11.6304(7)
_cell_length_c                   8.2286(5)
_cell_angle_alpha                90
_cell_angle_beta                 94.050(2)
_cell_angle_gamma                90
_cell_volume                     726.597
_exptl_crystal_colour            orange
_exptl_crystal_description       block
_cell_formula_units_Z            4
_exptl_crystal_recrystallization_method ethanol
loop_
_atom_site_label
_atom_site_type_symbol
_atom_site_fract_x
_atom_site_fract_y
_atom_site_fract_z
C1 C 0.9082(2) 0.07296(16) 0.7383(2)
C2 C 0.8859(2) -0.04640(14) 0.71078(18)
C3 C 0.8083(3) -0.08360(15) 0.5633(2)
C4 C 0.7538(2) -0.00392(17) 0.44279(18)
C5 C 0.7736(3) 0.11337(16) 0.4687(2)
C6 C 0.8508(3) 0.15102(16) 0.6156(2)
N1 N 0.9814(3) 0.11329(15) 0.8825(2)
C7 C 0.9475(3) -0.13003(19) 0.8422(3)
N2 N 0.6745(2) -0.04422(15) 0.29017(18)
O1 O 0.6538(3) -0.14825(15) 0.2675(2)
O2 O 0.6279(4) 0.02700(18) 0.1852(2)
H1 H 0.7922 -0.1618 0.5440
H2 H 0.7354 0.1657 0.3883
H3 H 0.8652 0.2295 0.6338
H4 H 0.9923 0.1861 0.8981
H5 H 1.0168 0.0660 0.9582
H6 H 0.9344 -0.2071 0.8015
H7 H 0.8782 -0.1206 0.9344
H8 H 1.0692 -0.1157 0.8747
loop_
_geom_bond_atom_site_label_1
_geom_bond_atom_site_label_2
_geom_bond_site_symmetry_1
_geom_bond_site_symmetry_2
C1 C2 1_555 1_555
C2 C3 1_555 1_555
C3 C4 1_555 1_555
C4 C5 1_555 1_555
C5 C6 1_555 1_555
C6 C1 1_555 1_555
N1 C1 1_555 1_555
C7 C2 1_555 1_555
N2 C4 1_555 1_555
O1 N2 1_555 1_555
O2 N2 1_555 1_555
H1 C3 1_555 1_555
H2 C5 1_555 1_555
H3 C6 1_555 1_555
H4 N1 1_555 1_555
H5 N1 1_555 1_555
H6 C7 1_555 1_555
H7 C7 1_555 1_555
H8 C7 1_555 1_555

#END
