
#######################################################################
#
#                 Cambridge Crystallographic Data Centre
#                                CCDC 
#
#######################################################################
#
# If this CIF has been generated from an entry in the Cambridge 
# Structural Database, then it will include bibliographic, chemical, 
# crystal, experimental, refinement or atomic coordinate data resulting 
# from the CCDC's data processing and validation procedures.
#
#######################################################################

data_BAJFIB11
_chemical_formula_moiety         'C14 H20 Si2'
_chemical_name_systematic        
4,4,8,8-Tetramethyl-3a,4,7a,8-tetrahydrodicyclopenta(b,e)(1,4)disiline
_symmetry_cell_setting           monoclinic
_symmetry_space_group_name_H-M   'P 21/n'
_symmetry_Int_Tables_number      14
_space_group_name_Hall           '-P 2yn'
loop_
_symmetry_equiv_pos_site_id
_symmetry_equiv_pos_as_xyz
1 x,y,z
2 1/2-x,1/2+y,1/2-z
3 -x,-y,-z
4 1/2+x,1/2-y,1/2+z
_cell_length_a                   8.900(4)
_cell_length_b                   9.090(4)
_cell_length_c                   9.362(4)
_cell_angle_alpha                90
_cell_angle_beta                 108.065(6)
_cell_angle_gamma                90
_cell_volume                     720.06
_exptl_crystal_colour            colorless
_exptl_crystal_description       block
_cell_formula_units_Z            2
_exptl_crystal_recrystallization_method hexane
loop_
_atom_site_label
_atom_site_type_symbol
_atom_site_fract_x
_atom_site_fract_y
_atom_site_fract_z
Si1 Si 0.10478(6) 0.86052(5) 0.44720(6)
C1 C -0.1090(2) 0.87084(19) 0.4234(2)
C2 C -0.2085(3) 0.7675(2) 0.4455(3)
H1 H -0.1803 0.6708 0.4742
C3 C -0.3638(3) 0.8276(3) 0.4187(3)
H2 H -0.4513 0.7763 0.4264
C4 C -0.3626(3) 0.9685(3) 0.3810(3)
H3 H -0.4502 1.0303 0.3541
C5 C 0.2011(2) 0.9888(2) 0.6113(2)
H4 H 0.1980 0.9467 0.7067
C6 C 0.1789(3) 0.6701(2) 0.4955(3)
H5 H 0.1509 0.6367 0.5813
H6 H 0.2918 0.6688 0.5185
H7 H 0.1322 0.6062 0.4118
C7 C 0.1455(3) 0.9284(3) 0.2760(3)
H8 H 0.0773 0.8792 0.1893
H9 H 0.2537 0.9086 0.2837
H10 H 0.1267 1.0325 0.2664
Si1B Si -0.10478(6) 1.13948(5) 0.55280(6)
C1B C 0.1090(2) 1.12916(19) 0.5766(2)
C2B C 0.2085(3) 1.2325(2) 0.5545(3)
H1B H 0.1803 1.3292 0.5258
C3B C 0.3638(3) 1.1724(3) 0.5813(3)
H2B H 0.4513 1.2237 0.5736
C4B C 0.3626(3) 1.0315(3) 0.6190(3)
H3B H 0.4502 0.9697 0.6459
C5B C -0.2011(2) 1.0112(2) 0.3887(2)
H4B H -0.1980 1.0533 0.2933
C6B C -0.1789(3) 1.3299(2) 0.5045(3)
H5B H -0.1509 1.3633 0.4187
H6B H -0.2918 1.3312 0.4815
H7B H -0.1322 1.3938 0.5882
C7B C -0.1455(3) 1.0716(3) 0.7240(3)
H8B H -0.0773 1.1208 0.8107
H9B H -0.2537 1.0914 0.7163
H10B H -0.1267 0.9675 0.7336
loop_
_geom_bond_atom_site_label_1
_geom_bond_atom_site_label_2
_geom_bond_site_symmetry_1
_geom_bond_site_symmetry_2
Si1 C1 1_555 1_555
C1 C2 1_555 1_555
C2 H1 1_555 1_555
C3 C2 1_555 1_555
H2 C3 1_555 1_555
C4 C3 1_555 1_555
H3 C4 1_555 1_555
C5 Si1 1_555 1_555
H4 C5 1_555 1_555
C6 Si1 1_555 1_555
H5 C6 1_555 1_555
H6 C6 1_555 1_555
H7 C6 1_555 1_555
C7 Si1 1_555 1_555
H8 C7 1_555 1_555
H9 C7 1_555 1_555
H10 C7 1_555 1_555
Si1B C1B 1_555 1_555
C1B C5 1_555 1_555
C2B C1B 1_555 1_555
H1B C2B 1_555 1_555
C3B C2B 1_555 1_555
H2B C3B 1_555 1_555
C4B C5 1_555 1_555
H3B C4B 1_555 1_555
C5B C1 1_555 1_555
H4B C5B 1_555 1_555
C6B Si1B 1_555 1_555
H5B C6B 1_555 1_555
H6B C6B 1_555 1_555
H7B C6B 1_555 1_555
C7B Si1B 1_555 1_555
H8B C7B 1_555 1_555
H9B C7B 1_555 1_555
H10B C7B 1_555 1_555
C4 C5B 1_555 1_555
Si1B C5B 1_555 1_555
C3B C4B 1_555 1_555

#END
