
#######################################################################
#
#                 Cambridge Crystallographic Data Centre
#                                CCDC 
#
#######################################################################
#
# If this CIF has been generated from an entry in the Cambridge 
# Structural Database, then it will include bibliographic, chemical, 
# crystal, experimental, refinement or atomic coordinate data resulting 
# from the CCDC's data processing and validation procedures.
#
#######################################################################

data_BAJGAX
_chemical_formula_moiety         'C18 H28 O1'
_chemical_name_systematic        1-phenylcyclododecanol
_symmetry_cell_setting           rhombohedral
_symmetry_space_group_name_H-M   'R -3'
_symmetry_Int_Tables_number      148
_space_group_name_Hall           '-R 3'
loop_
_symmetry_equiv_pos_site_id
_symmetry_equiv_pos_as_xyz
1 x,y,z
2 -y,x-y,z
3 -x+y,-x,z
4 2/3+x,1/3+y,1/3+z
5 2/3-y,1/3+x-y,1/3+z
6 2/3-x+y,1/3-x,1/3+z
7 1/3+x,2/3+y,2/3+z
8 1/3-y,2/3+x-y,2/3+z
9 1/3-x+y,2/3-x,2/3+z
10 -x,-y,-z
11 y,-x+y,-z
12 x-y,x,-z
13 1/3-x,2/3-y,2/3-z
14 1/3+y,2/3-x+y,2/3-z
15 1/3+x-y,2/3+x,2/3-z
16 2/3-x,1/3-y,1/3-z
17 2/3+y,1/3-x+y,1/3-z
18 2/3+x-y,1/3+x,1/3-z
_cell_length_a                   26.2927(13)
_cell_length_b                   26.2927(13)
_cell_length_c                   11.7390(4)
_cell_angle_alpha                90
_cell_angle_beta                 90
_cell_angle_gamma                120
_cell_volume                     7028.01
_cell_formula_units_Z            18
loop_
_atom_site_label
_atom_site_type_symbol
_atom_site_fract_x
_atom_site_fract_y
_atom_site_fract_z
O1 O 0.03420(4) 0.10947(4) 0.45530(7)
H1 H 0.0003 0.0911 0.4834
C1 C 0.03722(6) 0.15273(6) 0.37539(10)
C2 C 0.07816(6) 0.15582(6) 0.27940(11)
C3 C -0.02751(6) 0.16518(7) 0.22390(11)
H2 H -0.0107 0.1563 0.1565
H3 H -0.0030 0.2077 0.2402
C4 C -0.02471(6) 0.13043(6) 0.32586(11)
H4 H -0.0410 0.0890 0.3025
H5 H -0.0502 0.1313 0.3869
C5 C 0.05994(6) 0.21135(6) 0.43816(10)
H6 H 0.0589 0.2400 0.3849
H7 H 0.1015 0.2263 0.4591
C6 C -0.08801(6) 0.24089(6) 0.28785(11)
H8 H -0.1048 0.2535 0.2259
H9 H -0.0455 0.2582 0.2726
C7 C -0.08999(6) 0.15155(7) 0.19555(11)
H10 H -0.0895 0.1693 0.1209
H11 H -0.1155 0.1085 0.1881
C8 C -0.06519(6) 0.25533(6) 0.50254(11)
H12 H -0.0777 0.2665 0.5732
H13 H -0.0784 0.2129 0.5076
C9 C 0.06865(7) 0.10385(7) 0.22956(11)
H14 H 0.0382 0.0674 0.2580
C10 C -0.11677(6) 0.17395(6) 0.28434(11)
H15 H -0.1591 0.1569 0.2678
H16 H -0.1132 0.1598 0.3605
C11 C 0.02588(6) 0.20891(6) 0.54632(11)
H17 H -0.0163 0.1802 0.5347
H18 H 0.0400 0.1947 0.6104
C12 C 0.12320(6) 0.20851(7) 0.23608(12)
H19 H 0.1303 0.2447 0.2681
C13 C 0.03244(7) 0.26838(7) 0.57842(12)
H20 H 0.0161 0.2654 0.6557
H21 H 0.0748 0.2981 0.5812
C14 C -0.09574(6) 0.26536(7) 0.40088(11)
H22 H -0.1382 0.2469 0.4177
H23 H -0.0802 0.3081 0.3922
C15 C 0.00188(6) 0.28971(6) 0.49621(12)
H24 H 0.0156 0.3316 0.5124
H25 H 0.0140 0.2872 0.4175
C16 C 0.10277(8) 0.10399(8) 0.13898(12)
H26 H 0.0952 0.0680 0.1054
C17 C 0.15795(7) 0.20865(8) 0.14607(13)
H27 H 0.1888 0.2449 0.1180
C18 C 0.14792(8) 0.15690(9) 0.09778(12)
H28 H 0.1717 0.1573 0.0365
loop_
_geom_bond_atom_site_label_1
_geom_bond_atom_site_label_2
_geom_bond_site_symmetry_1
_geom_bond_site_symmetry_2
O1 H1 1_555 1_555
C1 O1 1_555 1_555
C2 C1 1_555 1_555
C3 H2 1_555 1_555
H3 C3 1_555 1_555
C4 C1 1_555 1_555
H4 C4 1_555 1_555
H5 C4 1_555 1_555
C5 C1 1_555 1_555
H6 C5 1_555 1_555
H7 C5 1_555 1_555
C6 H8 1_555 1_555
H9 C6 1_555 1_555
C7 C3 1_555 1_555
H10 C7 1_555 1_555
H11 C7 1_555 1_555
C8 H12 1_555 1_555
H13 C8 1_555 1_555
C9 C2 1_555 1_555
H14 C9 1_555 1_555
C10 C6 1_555 1_555
H15 C10 1_555 1_555
H16 C10 1_555 1_555
C11 C5 1_555 1_555
H17 C11 1_555 1_555
H18 C11 1_555 1_555
C12 C2 1_555 1_555
H19 C12 1_555 1_555
C13 C11 1_555 1_555
H20 C13 1_555 1_555
H21 C13 1_555 1_555
C14 C6 1_555 1_555
H22 C14 1_555 1_555
H23 C14 1_555 1_555
C15 C8 1_555 1_555
H24 C15 1_555 1_555
H25 C15 1_555 1_555
C16 C9 1_555 1_555
H26 C16 1_555 1_555
C17 C12 1_555 1_555
H27 C17 1_555 1_555
C18 C16 1_555 1_555
H28 C18 1_555 1_555
C3 C4 1_555 1_555
C7 C10 1_555 1_555
C8 C14 1_555 1_555
C13 C15 1_555 1_555
C17 C18 1_555 1_555

#END
