
#######################################################################
#
#                 Cambridge Crystallographic Data Centre
#                                CCDC 
#
#######################################################################
#
# If this CIF has been generated from an entry in the Cambridge 
# Structural Database, then it will include bibliographic, chemical, 
# crystal, experimental, refinement or atomic coordinate data resulting 
# from the CCDC's data processing and validation procedures.
#
#######################################################################

data_BAJGIF
_chemical_formula_moiety         'C18 H25 N1 O2'
_chemical_name_systematic        2-(hydroxyimino)-12-phenylcyclododecanone
_symmetry_cell_setting           triclinic
_symmetry_space_group_name_H-M   'P -1'
_symmetry_Int_Tables_number      2
_space_group_name_Hall           '-P 1'
loop_
_symmetry_equiv_pos_site_id
_symmetry_equiv_pos_as_xyz
1 x,y,z
2 -x,-y,-z
_cell_length_a                   5.6782(11)
_cell_length_b                   11.973(2)
_cell_length_c                   12.148(2)
_cell_angle_alpha                99.556(15)
_cell_angle_beta                 99.960(15)
_cell_angle_gamma                99.350(16)
_cell_volume                     786.456
_cell_formula_units_Z            2
loop_
_atom_site_label
_atom_site_type_symbol
_atom_site_fract_x
_atom_site_fract_y
_atom_site_fract_z
O1 O 0.0382(9) 0.7457(4) 0.3686(5)
C1 C -0.2683(10) 0.6993(5) 0.5495(5)
C2 C -0.3472(10) 0.6976(5) 0.4229(5)
H1 H -0.5015 0.7281 0.4107
O2 O -0.3408(11) 1.0528(4) 0.4192(6)
H2 H -0.2056 1.0857 0.4095
C3 C -0.4081(11) 0.7423(5) 0.6260(5)
H3 H -0.5551 0.7656 0.5975
C4 C -0.0602(11) 0.6598(6) 0.5943(5)
H4 H 0.0348 0.6290 0.5441
C5 C -0.3955(11) 0.5728(5) 0.3512(5)
H5 H -0.2500 0.5384 0.3698
H6 H -0.5341 0.5251 0.3721
C6 C -0.1490(12) 0.7778(6) 0.3871(6)
C7 C -0.0263(14) 0.9612(6) 0.3069(6)
H7 H -0.0503 1.0421 0.3168
H8 H 0.1473 0.9630 0.3387
C8 C -0.4533(12) 0.5703(7) 0.2229(5)
H9 H -0.3175 0.6210 0.2033
H10 H -0.4628 0.4907 0.1815
N1 N -0.3321(11) 0.9381(5) 0.4279(6)
C9 C -0.3338(13) 0.7505(6) 0.7406(6)
H11 H -0.4261 0.7827 0.7914
C10 C 0.0096(13) 0.6647(7) 0.7097(6)
H12 H 0.1488 0.6354 0.7381
C11 C -0.1790(13) 0.8985(5) 0.3737(6)
C12 C -0.6905(16) 0.6090(11) 0.1821(6)
H13 H -0.6914 0.6834 0.2316
H14 H -0.8285 0.5515 0.1912
C13 C -0.1230(14) 0.7123(8) 0.7842(6)
H15 H -0.0717 0.7189 0.8641
C14 C -0.7323(17) 0.6241(12) 0.0567(6)
H16 H -0.7489 0.5476 0.0072
H17 H -0.8894 0.6497 0.0387
C15 C -0.077(2) 0.9118(16) 0.1856(9)
H18 H -0.0623 0.8299 0.1798
H19 H 0.0594 0.9496 0.1556
C16 C -0.537(2) 0.7085(9) 0.0258(7)
H20 H -0.3789 0.6824 0.0366
H21 H -0.5832 0.7159 -0.0547
C17 C -0.518(2) 0.8211(13) 0.1047(13)
H22 H -0.5093 0.8073 0.1834
H23 H -0.6685 0.8513 0.0834
C18 C -0.300(2) 0.9114(13) 0.1034(11)
H24 H -0.2647 0.8993 0.0258
H25 H -0.3437 0.9884 0.1189
H26? H 0.0975 0.9160 0.2876
H27? H 0.0614 1.0364 0.3552
H28? H -0.5433 0.6777 -0.0558
H29? H -0.3820 0.6939 0.0672
C19? C -0.487(5) 0.8448(15) 0.0356(16)
H30? H -0.3573 0.8678 -0.0057
H31? H -0.6372 0.8680 -0.0001
C20? C -0.412(4) 0.9047(16) 0.1578(15)
H32? H -0.5378 0.9491 0.1756
H33? H -0.4125 0.8449 0.2051
C21? C -0.174(4) 0.9837(19) 0.1939(14)
H34? H -0.1985 1.0644 0.2059
H35? H -0.0795 0.9730 0.1329
loop_
_geom_bond_atom_site_label_1
_geom_bond_atom_site_label_2
_geom_bond_site_symmetry_1
_geom_bond_site_symmetry_2
O1 C6 1_555 1_555
C1 C2 1_555 1_555
C2 H1 1_555 1_555
O2 H2 1_555 1_555
C3 C1 1_555 1_555
H3 C3 1_555 1_555
C4 C1 1_555 1_555
H4 C4 1_555 1_555
C5 C2 1_555 1_555
H5 C5 1_555 1_555
H6 C5 1_555 1_555
C6 C2 1_555 1_555
C7 H7 1_555 1_555
H8 C7 1_555 1_555
C8 C5 1_555 1_555
H9 C8 1_555 1_555
H10 C8 1_555 1_555
N1 O2 1_555 1_555
C9 C3 1_555 1_555
H11 C9 1_555 1_555
C10 C4 1_555 1_555
H12 C10 1_555 1_555
C11 C6 1_555 1_555
C12 C8 1_555 1_555
H13 C12 1_555 1_555
H14 C12 1_555 1_555
C13 C9 1_555 1_555
H15 C13 1_555 1_555
C14 C12 1_555 1_555
H16 C14 1_555 1_555
H17 C14 1_555 1_555
C15 C7 1_555 1_555
H18 C15 1_555 1_555
H19 C15 1_555 1_555
C16 C14 1_555 1_555
H20 C16 1_555 1_555
H21 C16 1_555 1_555
C17 C16 1_555 1_555
H22 C17 1_555 1_555
H23 C17 1_555 1_555
C18 C15 1_555 1_555
H24 C18 1_555 1_555
H25 C18 1_555 1_555
C7 C11 1_555 1_555
N1 C11 1_555 1_555
C10 C13 1_555 1_555
C17 C18 1_555 1_555

#END
