
#######################################################################
#
#                 Cambridge Crystallographic Data Centre
#                                CCDC 
#
#######################################################################
#
# If this CIF has been generated from an entry in the Cambridge 
# Structural Database, then it will include bibliographic, chemical, 
# crystal, experimental, refinement or atomic coordinate data resulting 
# from the CCDC's data processing and validation procedures.
#
#######################################################################

data_BAJKIG
_chemical_formula_moiety         'C16 H19 N1 O3 S1'
_chemical_name_systematic        
(2R)-(2\a,3a\a,6\a,7a\b)-5,6,7,7a-Tetrahydro-8,8-dimethyl-spiro(4H-3a,6-methano-3H-1,2-benzoxasulfole-2,2'\l^4^-(5H-1,2)-3''-picoloxathiole)-5'-one
_symmetry_cell_setting           orthorhombic
_symmetry_space_group_name_H-M   'P 21 21 21'
_symmetry_Int_Tables_number      19
_space_group_name_Hall           'P 2ac 2ab'
loop_
_symmetry_equiv_pos_site_id
_symmetry_equiv_pos_as_xyz
1 x,y,z
2 1/2-x,-y,1/2+z
3 1/2+x,1/2-y,-z
4 -x,1/2+y,1/2-z
_cell_length_a                   11.144(3)
_cell_length_b                   12.670(3)
_cell_length_c                   10.615(3)
_cell_angle_alpha                90
_cell_angle_beta                 90
_cell_angle_gamma                90
_cell_volume                     1498.78
_exptl_crystal_colour            colorless
_exptl_crystal_description       cubic
_chemical_melting_point          204-205deg.C
_cell_formula_units_Z            4
_exptl_crystal_recrystallization_method hexane/dichloromethane
loop_
_atom_site_label
_atom_site_type_symbol
_atom_site_fract_x
_atom_site_fract_y
_atom_site_fract_z
S1 S 0.7096(1) 0.06986(9) 0.8035(1)
O1 O 0.6997(3) -0.0439(2) 0.7284(3)
O2 O 0.7203(3) 0.2144(2) 0.9025(3)
O3 O 0.8615(3) 0.3306(3) 0.9607(4)
N1 N 0.9317(3) -0.0141(3) 0.7955(5)
C1 C 0.6035(4) -0.0920(3) 0.9212(4)
C2 C 0.6365(4) 0.0210(3) 0.9489(4)
C3 C 0.6827(4) -0.1319(4) 0.8141(5)
C4 C 0.8282(4) 0.2447(4) 0.9213(5)
C5 C 0.8698(4) 0.0682(4) 0.8357(4)
C6 C 0.4739(4) -0.1155(4) 0.8723(5)
C7 C 0.5043(5) -0.2318(4) 0.8436(5)
C8 C 0.3773(5) -0.1013(4) 0.9737(7)
C9 C 0.9156(4) 0.1593(4) 0.8876(4)
C10 C 1.0402(4) 0.1649(4) 0.9029(5)
C11 C 1.1065(4) 0.0792(5) 0.8646(6)
C12 C 1.0512(4) -0.0065(4) 0.8123(6)
C13 C 0.4333(5) -0.0510(5) 0.7579(6)
C14 C 0.6168(5) -0.1742(4) 1.0257(5)
C15 C 0.5513(5) -0.2728(4) 0.9706(6)
C16 C 0.6114(6) -0.2225(4) 0.7543(6)
H1 H 0.5667 0.0613 0.9672
H2 H 0.6903 0.0246 1.0181
H3 H 0.7576 -0.1564 0.8455
H4 H 0.4391 -0.2713 0.8104
H5 H 0.3706 -0.0287 0.9942
H6 H 0.3988 -0.1403 1.0464
H7 H 0.3026 -0.1262 0.9421
H8 H 1.0775 0.2256 0.9384
H9 H 1.1913 0.0798 0.8745
H10 H 1.0998 -0.0641 0.7862
H11 H 0.4913 -0.0573 0.6927
H12 H 0.4253 0.0210 0.7812
H13 H 0.3583 -0.0769 0.7289
H14 H 0.5794 -0.1511 1.1013
H15 H 0.6989 -0.1893 1.0418
H16 H 0.6053 -0.3299 0.9590
H17 H 0.4870 -0.2944 1.0234
H18 H 0.6569 -0.2859 0.7527
H19 H 0.5864 -0.2053 0.6713
loop_
_geom_bond_atom_site_label_1
_geom_bond_atom_site_label_2
_geom_bond_site_symmetry_1
_geom_bond_site_symmetry_2
S1 O1 1_555 1_555
O1 C3 1_555 1_555
O2 S1 1_555 1_555
O3 C4 1_555 1_555
N1 C5 1_555 1_555
C1 C2 1_555 1_555
C2 S1 1_555 1_555
C3 C1 1_555 1_555
C4 O2 1_555 1_555
C5 S1 1_555 1_555
C6 C1 1_555 1_555
C7 C6 1_555 1_555
C8 C6 1_555 1_555
C9 C4 1_555 1_555
C10 C9 1_555 1_555
C11 C10 1_555 1_555
C12 N1 1_555 1_555
C13 C6 1_555 1_555
C14 C1 1_555 1_555
C15 C7 1_555 1_555
C16 C3 1_555 1_555
H1 C2 1_555 1_555
H2 C2 1_555 1_555
H3 C3 1_555 1_555
H4 C7 1_555 1_555
H5 C8 1_555 1_555
H6 C8 1_555 1_555
H7 C8 1_555 1_555
H8 C10 1_555 1_555
H9 C11 1_555 1_555
H10 C12 1_555 1_555
H11 C13 1_555 1_555
H12 C13 1_555 1_555
H13 C13 1_555 1_555
H14 C14 1_555 1_555
H15 C14 1_555 1_555
H16 C15 1_555 1_555
H17 C15 1_555 1_555
H18 C16 1_555 1_555
H19 C16 1_555 1_555
C5 C9 1_555 1_555
C7 C16 1_555 1_555
C11 C12 1_555 1_555
C14 C15 1_555 1_555

#END
