
#######################################################################
#
#                 Cambridge Crystallographic Data Centre
#                                CCDC 
#
#######################################################################
#
# If this CIF has been generated from an entry in the Cambridge 
# Structural Database, then it will include bibliographic, chemical, 
# crystal, experimental, refinement or atomic coordinate data resulting 
# from the CCDC's data processing and validation procedures.
#
#######################################################################

data_BAJKOM
_chemical_formula_moiety         'C13 H20 O4 S1'
_chemical_name_systematic        
'(S~S~)-2-(((1S,2R,4R)-2-Hydroxy-7,7-dimethylbicyclo(2.2.1)heptyl)methanesulfinyl)acrylic acid'
_symmetry_cell_setting           orthorhombic
_symmetry_space_group_name_H-M   'P 21 21 21'
_symmetry_Int_Tables_number      19
_space_group_name_Hall           'P 2ac 2ab'
loop_
_symmetry_equiv_pos_site_id
_symmetry_equiv_pos_as_xyz
1 x,y,z
2 1/2-x,-y,1/2+z
3 1/2+x,1/2-y,-z
4 -x,1/2+y,1/2-z
_cell_length_a                   11.063(3)
_cell_length_b                   12.150(3)
_cell_length_c                   10.059(2)
_cell_angle_alpha                90
_cell_angle_beta                 90
_cell_angle_gamma                90
_cell_volume                     1352.09
_exptl_crystal_colour            colorless
_exptl_crystal_description       prismatic
_chemical_melting_point          140-141deg.C
_cell_formula_units_Z            4
_exptl_crystal_recrystallization_method 'ethyl acetate/dichloromethane'
loop_
_atom_site_label
_atom_site_type_symbol
_atom_site_fract_x
_atom_site_fract_y
_atom_site_fract_z
S1 S -0.1225(2) 0.1047(1) 0.6138(1)
O1 O -0.2592(4) -0.0087(4) 0.8096(5)
O2 O -0.0096(4) -0.0505(4) 0.8689(5)
O3 O -0.4606(4) -0.0074(4) 0.8160(4)
O4 O -0.0633(5) 0.1565(4) 0.4927(4)
C1 C -0.0597(6) 0.1731(5) 0.7584(6)
C2 C -0.3563(7) 0.0293(5) 0.7747(6)
C3 C 0.2454(6) 0.1110(6) 0.8948(7)
C4 C 0.0679(5) 0.1320(4) 0.7873(5)
C5 C 0.0814(6) 0.0047(5) 0.7985(7)
C6 C 0.1407(8) 0.2995(5) 0.9270(7)
C7 C 0.1257(6) 0.1737(5) 0.9202(6)
C8 C -0.2701(6) 0.1630(5) 0.6169(7)
C9 C 0.1635(6) 0.1692(6) 0.6848(6)
C10 C 0.2040(6) -0.0072(6) 0.8715(8)
C11 C -0.3624(6) 0.1239(6) 0.6822(6)
C12 C 0.0597(7) 0.1372(7) 1.0471(6)
C13 C 0.2847(6) 0.1574(7) 0.7585(9)
loop_
_geom_bond_atom_site_label_1
_geom_bond_atom_site_label_2
_geom_bond_site_symmetry_1
_geom_bond_site_symmetry_2
S1 O4 1_555 1_555
O1 C2 1_555 1_555
O2 C5 1_555 1_555
O3 C2 1_555 1_555
C1 S1 1_555 1_555
C2 C11 1_555 1_555
C3 C7 1_555 1_555
C4 C1 1_555 1_555
C5 C4 1_555 1_555
C6 C7 1_555 1_555
C7 C4 1_555 1_555
C8 S1 1_555 1_555
C9 C4 1_555 1_555
C10 C3 1_555 1_555
C11 C8 1_555 1_555
C12 C7 1_555 1_555
C13 C3 1_555 1_555
C5 C10 1_555 1_555
C9 C13 1_555 1_555

#END
