
#######################################################################
#
#                 Cambridge Crystallographic Data Centre
#                                CCDC 
#
#######################################################################
#
# If this CIF has been generated from an entry in the Cambridge 
# Structural Database, then it will include bibliographic, chemical, 
# crystal, experimental, refinement or atomic coordinate data resulting 
# from the CCDC's data processing and validation procedures.
#
#######################################################################

data_BAJTEM
_chemical_formula_moiety         'C5 H5 B1 Br1 N1 O2'
_chemical_name_systematic        '2-bromo-5-pyridylboronic acid'
_symmetry_cell_setting           monoclinic
_symmetry_space_group_name_H-M   'P 21/c'
_symmetry_Int_Tables_number      14
_space_group_name_Hall           '-P 2ybc'
loop_
_symmetry_equiv_pos_site_id
_symmetry_equiv_pos_as_xyz
1 x,y,z
2 x,1/2-y,1/2+z
3 -x,-y,-z
4 -x,1/2+y,1/2-z
_cell_length_a                   7.535(2)
_cell_length_b                   6.941(1)
_cell_length_c                   13.877(3)
_cell_angle_alpha                90
_cell_angle_beta                 96.81(4)
_cell_angle_gamma                90
_cell_volume                     720.653
_exptl_crystal_colour            colorless
_exptl_crystal_description       'diamond plate'
_chemical_melting_point          440-441.9K
_cell_formula_units_Z            4
loop_
_atom_site_label
_atom_site_type_symbol
_atom_site_fract_x
_atom_site_fract_y
_atom_site_fract_z
Br1 Br 0.88704(5) 1.01538(4) 0.28995(3)
O1 O 0.4716(3) 0.1495(3) 0.40394(14)
H1 H 0.422(4) 0.182(5) 0.356(2)
O2 O 0.6797(3) 0.1944(3) 0.54116(14)
H2 H 0.648(5) 0.103(6) 0.556(3)
B1 B 0.6019(4) 0.2568(4) 0.4535(2)
N1 N 0.6880(3) 0.6827(3) 0.28508(14)
C1 C 0.7983(3) 0.7869(3) 0.34460(18)
C2 C 0.8524(4) 0.7421(4) 0.4399(2)
H3 H 0.930(4) 0.813(5) 0.472(2)
C3 C 0.7872(4) 0.5734(4) 0.4753(2)
H4 H 0.824(4) 0.532(4) 0.539(2)
C4 C 0.6724(4) 0.4533(3) 0.41556(19)
C5 C 0.6270(4) 0.5184(4) 0.3212(2)
H5 H 0.550(4) 0.449(4) 0.275(2)
loop_
_geom_bond_atom_site_label_1
_geom_bond_atom_site_label_2
_geom_bond_site_symmetry_1
_geom_bond_site_symmetry_2
Br1 C1 1_555 1_555
O1 H1 1_555 1_555
O2 H2 1_555 1_555
B1 O1 1_555 1_555
N1 C1 1_555 1_555
C1 C2 1_555 1_555
C2 H3 1_555 1_555
C3 C2 1_555 1_555
H4 C3 1_555 1_555
C4 B1 1_555 1_555
C5 N1 1_555 1_555
H5 C5 1_555 1_555
O2 B1 1_555 1_555
C3 C4 1_555 1_555
C4 C5 1_555 1_555

#END
