
#######################################################################
#
#                 Cambridge Crystallographic Data Centre
#                                CCDC 
#
#######################################################################
#
# If this CIF has been generated from an entry in the Cambridge 
# Structural Database, then it will include bibliographic, chemical, 
# crystal, experimental, refinement or atomic coordinate data resulting 
# from the CCDC's data processing and validation procedures.
#
#######################################################################

data_BAJTIQ
_chemical_formula_moiety         'C5 H5 B1 Cl1 N1 O2'
_chemical_name_systematic        '2-chloro-5-pyridylboronic acid'
_symmetry_cell_setting           monoclinic
_symmetry_space_group_name_H-M   'P 21/n'
_symmetry_Int_Tables_number      14
_space_group_name_Hall           '-P 2yn'
loop_
_symmetry_equiv_pos_site_id
_symmetry_equiv_pos_as_xyz
1 x,y,z
2 1/2+x,1/2-y,1/2+z
3 -x,-y,-z
4 1/2-x,1/2+y,1/2-z
_cell_length_a                   8.906(1)
_cell_length_b                   7.277(1)
_cell_length_c                   10.389(1)
_cell_angle_alpha                90
_cell_angle_beta                 96.55(1)
_cell_angle_gamma                90
_cell_volume                     668.905
_exptl_crystal_colour            colorless
_exptl_crystal_description       prism
_chemical_melting_point          439.2-439.9K
_cell_formula_units_Z            4
loop_
_atom_site_label
_atom_site_type_symbol
_atom_site_fract_x
_atom_site_fract_y
_atom_site_fract_z
Cl1 Cl 0.85324(3) 0.09566(4) 0.06454(3)
O1 O 0.12068(10) 0.40766(12) -0.09776(9)
H1 H 0.152(2) 0.366(3) -0.160(2)
O2 O 0.16640(10) 0.44362(13) 0.12764(8)
H2 H 0.082(2) 0.483(3) 0.1176(18)
N1 N 0.61041(10) 0.22167(14) 0.15321(9)
C1 C 0.66889(12) 0.17851(15) 0.04526(11)
C2 C 0.59412(13) 0.19308(16) -0.07876(11)
H3 H 0.6437(18) 0.159(2) -0.1512(16)
C3 C 0.44652(13) 0.25708(16) -0.08952(11)
H4 H 0.3891(17) 0.261(2) -0.1714(16)
C4 C 0.37878(12) 0.30709(15) 0.02045(10)
C5 C 0.46742(12) 0.28616(16) 0.13900(11)
H5 H 0.4271(17) 0.318(2) 0.2155(16)
B1 B 0.21431(14) 0.38775(17) 0.01459(12)
loop_
_geom_bond_atom_site_label_1
_geom_bond_atom_site_label_2
_geom_bond_site_symmetry_1
_geom_bond_site_symmetry_2
Cl1 C1 1_555 1_555
O1 H1 1_555 1_555
O2 H2 1_555 1_555
N1 C1 1_555 1_555
C1 C2 1_555 1_555
C2 H3 1_555 1_555
C3 C2 1_555 1_555
H4 C3 1_555 1_555
C4 C3 1_555 1_555
C5 N1 1_555 1_555
H5 C5 1_555 1_555
B1 O1 1_555 1_555
O2 B1 1_555 1_555
C4 C5 1_555 1_555
C4 B1 1_555 1_555

#END
