
#######################################################################
#
#                 Cambridge Crystallographic Data Centre
#                                CCDC 
#
#######################################################################
#
# If this CIF has been generated from an entry in the Cambridge 
# Structural Database, then it will include bibliographic, chemical, 
# crystal, experimental, refinement or atomic coordinate data resulting 
# from the CCDC's data processing and validation procedures.
#
#######################################################################

data_BAKHAZ
_chemical_formula_moiety         'C24 H24 Br1 N1 O5'
_chemical_name_systematic        
't-butyl 3-(1-(5-bromo-2-hydroxyphenyl)-3-oxo-3-phenylpropyl)-2-oxo-2,5-dihydro-1H-pyrrole-1-carboxylate unknown solvate'
_symmetry_cell_setting           monoclinic
_symmetry_space_group_name_H-M   'C 2/c'
_symmetry_Int_Tables_number      15
_space_group_name_Hall           '-C 2yn'
loop_
_symmetry_equiv_pos_site_id
_symmetry_equiv_pos_as_xyz
1 x,y,z
2 -x,y,1/2-z
3 1/2+x,1/2+y,z
4 1/2-x,1/2+y,1/2-z
5 -x,-y,-z
6 x,-y,1/2+z
7 1/2-x,1/2-y,-z
8 1/2+x,1/2-y,1/2+z
_cell_length_a                   35.968(6)
_cell_length_b                   13.630(3)
_cell_length_c                   10.231(2)
_cell_angle_alpha                90
_cell_angle_beta                 93.174(10)
_cell_angle_gamma                90
_cell_volume                     5007.99
_exptl_crystal_colour            colorless
_exptl_crystal_description       prism
_cell_formula_units_Z            8
loop_
_atom_site_label
_atom_site_type_symbol
_atom_site_fract_x
_atom_site_fract_y
_atom_site_fract_z
C1 C 0.38241(10) 1.2296(3) -0.0844(4)
C2 C 0.36741(10) 1.3020(3) -0.1648(4)
H1 H 0.3795 1.3636 -0.1709
C3 C 0.33438(11) 1.2836(3) -0.2367(4)
H2 H 0.3236 1.3332 -0.2920
C4 C 0.31691(9) 1.1934(3) -0.2285(4)
C5 C 0.33237(9) 1.1198(3) -0.1463(4)
C6 C 0.36506(9) 1.1405(3) -0.0739(4)
H3 H 0.3757 1.0923 -0.0161
C7 C 0.31350(9) 1.0203(3) -0.1390(4)
H4 H 0.3064 0.9986 -0.2303
C8 C 0.27903(9) 1.0223(3) -0.0637(4)
C9 C 0.26709(10) 1.0892(3) 0.0174(4)
H5 H 0.2786 1.1513 0.0316
C10 C 0.23353(10) 1.0560(3) 0.0842(4)
H6 H 0.2386 1.0510 0.1801
H7 H 0.2122 1.1007 0.0658
C11 C 0.25363(10) 0.9368(3) -0.0625(4)
C12 C 0.20185(10) 0.8924(3) 0.0714(4)
C13 C 0.15633(11) 0.8741(3) 0.2381(4)
C14 C 0.14374(11) 0.9455(3) 0.3410(4)
H8 H 0.1651 0.9643 0.3991
H9 H 0.1249 0.9141 0.3924
H10 H 0.1331 1.0041 0.2979
C15 C 0.12444(11) 0.8434(3) 0.1453(4)
H11 H 0.1124 0.9019 0.1068
H12 H 0.1063 0.8059 0.1932
H13 H 0.1339 0.8026 0.0757
C16 C 0.17722(12) 0.7883(3) 0.3039(4)
H14 H 0.1975 0.8134 0.3624
H15 H 0.1875 0.7464 0.2369
H16 H 0.1600 0.7498 0.3546
C17 C 0.33952(9) 0.9421(3) -0.0748(4)
H17 H 0.3466 0.9620 0.0162
H18 H 0.3260 0.8789 -0.0715
C18 C 0.37442(10) 0.9279(3) -0.1487(4)
C19 C 0.40992(10) 0.9018(3) -0.0724(4)
C20 C 0.41114(12) 0.8764(3) 0.0595(5)
H19 H 0.3889 0.8744 0.1054
C21 C 0.44478(14) 0.8541(4) 0.1231(5)
H20 H 0.4454 0.8353 0.2127
C22 C 0.47699(14) 0.8582(5) 0.0613(6)
H21 H 0.5000 0.8438 0.1074
C23 C 0.47615(13) 0.8835(5) -0.0696(6)
H22 H 0.4987 0.8867 -0.1137
C24 C 0.44276(12) 0.9040(4) -0.1365(5)
H23 H 0.4423 0.9196 -0.2270
N1 N 0.22686(7) 0.9597(2) 0.0251(3)
O1 O 0.28451(7) 1.17343(18) -0.2995(3)
H24 H 0.2785 1.2195 -0.3557
O2 O 0.25511(7) 0.86246(18) -0.1282(3)
O3 O 0.19735(7) 0.8110(2) 0.0275(3)
O4 O 0.18333(7) 0.93352(18) 0.1673(3)
O5 O 0.37384(7) 0.9365(2) -0.2669(3)
Br1 Br 0.427971(11) 1.25367(3) 0.01368(5)
loop_
_geom_bond_atom_site_label_1
_geom_bond_atom_site_label_2
_geom_bond_site_symmetry_1
_geom_bond_site_symmetry_2
C1 C2 1_555 1_555
C2 H1 1_555 1_555
C3 C2 1_555 1_555
H2 C3 1_555 1_555
C4 C3 1_555 1_555
C5 C4 1_555 1_555
C6 C1 1_555 1_555
H3 C6 1_555 1_555
C7 C5 1_555 1_555
H4 C7 1_555 1_555
C8 C7 1_555 1_555
C9 C8 1_555 1_555
H5 C9 1_555 1_555
C10 C9 1_555 1_555
H6 C10 1_555 1_555
H7 C10 1_555 1_555
C11 C8 1_555 1_555
C12 N1 1_555 1_555
C13 C14 1_555 1_555
C14 H8 1_555 1_555
H9 C14 1_555 1_555
H10 C14 1_555 1_555
C15 C13 1_555 1_555
H11 C15 1_555 1_555
H12 C15 1_555 1_555
H13 C15 1_555 1_555
C16 C13 1_555 1_555
H14 C16 1_555 1_555
H15 C16 1_555 1_555
H16 C16 1_555 1_555
C17 C7 1_555 1_555
H17 C17 1_555 1_555
H18 C17 1_555 1_555
C18 C17 1_555 1_555
C19 C18 1_555 1_555
C20 C19 1_555 1_555
H19 C20 1_555 1_555
C21 C20 1_555 1_555
H20 C21 1_555 1_555
C22 C21 1_555 1_555
H21 C22 1_555 1_555
C23 C22 1_555 1_555
H22 C23 1_555 1_555
C24 C19 1_555 1_555
H23 C24 1_555 1_555
N1 C10 1_555 1_555
O1 C4 1_555 1_555
H24 O1 1_555 1_555
O2 C11 1_555 1_555
O3 C12 1_555 1_555
O4 C12 1_555 1_555
O5 C18 1_555 1_555
Br1 C1 1_555 1_555
C5 C6 1_555 1_555
C11 N1 1_555 1_555
C13 O4 1_555 1_555
C23 C24 1_555 1_555

#END
