
#######################################################################
#
#                 Cambridge Crystallographic Data Centre
#                                CCDC 
#
#######################################################################
#
# If this CIF has been generated from an entry in the Cambridge 
# Structural Database, then it will include bibliographic, chemical, 
# crystal, experimental, refinement or atomic coordinate data resulting 
# from the CCDC's data processing and validation procedures.
#
#######################################################################

data_BAKJOP
_chemical_formula_moiety         'C20 H16 N2 O1'
_chemical_name_systematic        
2-((diphenylmethylene)carbonohydrazonoyl)phenol
_symmetry_cell_setting           monoclinic
_symmetry_space_group_name_H-M   'P 21'
_symmetry_Int_Tables_number      4
_space_group_name_Hall           'P 2yb'
loop_
_symmetry_equiv_pos_site_id
_symmetry_equiv_pos_as_xyz
1 x,y,z
2 -x,1/2+y,-z
_cell_length_a                   11.1098(5)
_cell_length_b                   5.7159(2)
_cell_length_c                   13.0553(5)
_cell_angle_alpha                90
_cell_angle_beta                 109.388(5)
_cell_angle_gamma                90
_cell_volume                     782.031
_exptl_crystal_description       needle
_cell_formula_units_Z            2
loop_
_atom_site_label
_atom_site_type_symbol
_atom_site_fract_x
_atom_site_fract_y
_atom_site_fract_z
O1 O 0.31271(19) 0.7990(4) 0.62818(15)
H1 H 0.2982 0.7549 0.5638
N1 N 0.3256(2) 0.5198(4) 0.47372(17)
N2 N 0.3124(2) 0.4572(5) 0.36583(17)
C1 C 0.4230(3) 0.4280(5) 0.6607(2)
C2 C 0.3782(3) 0.6316(6) 0.6967(2)
C3 C 0.4026(3) 0.6638(6) 0.8082(2)
H2 H 0.3720 0.7998 0.8334
C4 C 0.4708(3) 0.4986(6) 0.8810(2)
H3 H 0.4861 0.5216 0.9563
C5 C 0.5177(3) 0.2988(6) 0.8468(2)
H4 H 0.5660 0.1876 0.8982
C6 C 0.4929(3) 0.2642(6) 0.7367(2)
H5 H 0.5239 0.1273 0.7125
C7 C 0.3985(3) 0.3829(5) 0.5454(2)
H6 H 0.4366 0.2519 0.5235
C8 C 0.2167(3) 0.5577(5) 0.2945(2)
C9 C 0.1249(3) 0.7161(5) 0.3228(2)
C10 C 0.0000(3) 0.6407(6) 0.3045(2)
H7 H -0.0280 0.4942 0.2705
C11 C -0.0835(3) 0.7827(6) 0.3366(2)
H8 H -0.1684 0.7320 0.3251
C12 C -0.0431(3) 0.9958(6) 0.3848(2)
H9 H -0.0999 1.0906 0.4073
C13 C 0.0802(3) 1.0728(6) 0.4007(2)
H10 H 0.1072 1.2213 0.4328
C14 C 0.1640(3) 0.9325(6) 0.3695(2)
H11 H 0.2484 0.9852 0.3803
C15 C 0.1976(2) 0.5151(5) 0.1781(2)
C16 C 0.2502(3) 0.3193(6) 0.1445(2)
H12 H 0.2958 0.2061 0.1961
C17 C 0.2354(3) 0.2913(6) 0.0352(2)
H13 H 0.2698 0.1571 0.0120
C18 C 0.1708(3) 0.4581(6) -0.0403(2)
H14 H 0.1626 0.4394 -0.1146
C19 C 0.1183(3) 0.6514(6) -0.0075(2)
H15 H 0.0734 0.7652 -0.0591
C20 C 0.1315(3) 0.6781(6) 0.1018(2)
H16 H 0.0947 0.8102 0.1243
loop_
_geom_bond_atom_site_label_1
_geom_bond_atom_site_label_2
_geom_bond_site_symmetry_1
_geom_bond_site_symmetry_2
O1 H1 1_555 1_555
N1 N2 1_555 1_555
N2 C8 1_555 1_555
C1 C2 1_555 1_555
C2 O1 1_555 1_555
C3 C2 1_555 1_555
H2 C3 1_555 1_555
C4 C3 1_555 1_555
H3 C4 1_555 1_555
C5 C4 1_555 1_555
H4 C5 1_555 1_555
C6 C1 1_555 1_555
H5 C6 1_555 1_555
C7 N1 1_555 1_555
H6 C7 1_555 1_555
C8 C9 1_555 1_555
C9 C10 1_555 1_555
C10 H7 1_555 1_555
C11 C10 1_555 1_555
H8 C11 1_555 1_555
C12 C11 1_555 1_555
H9 C12 1_555 1_555
C13 C12 1_555 1_555
H10 C13 1_555 1_555
C14 C9 1_555 1_555
H11 C14 1_555 1_555
C15 C8 1_555 1_555
C16 C15 1_555 1_555
H12 C16 1_555 1_555
C17 C16 1_555 1_555
H13 C17 1_555 1_555
C18 C17 1_555 1_555
H14 C18 1_555 1_555
C19 C18 1_555 1_555
H15 C19 1_555 1_555
C20 C15 1_555 1_555
H16 C20 1_555 1_555
C1 C7 1_555 1_555
C5 C6 1_555 1_555
C13 C14 1_555 1_555
C19 C20 1_555 1_555

#END
