
#######################################################################
#
#                 Cambridge Crystallographic Data Centre
#                                CCDC 
#
#######################################################################
#
# If this CIF has been generated from an entry in the Cambridge 
# Structural Database, then it will include bibliographic, chemical, 
# crystal, experimental, refinement or atomic coordinate data resulting 
# from the CCDC's data processing and validation procedures.
#
#######################################################################

data_BAKKAC
_chemical_formula_moiety         'C17 H18 N2 O4'
_chemical_name_systematic        
1-methoxy-6'H-spiro[indole-3,2'-[10]oxa[5]azatricyclo[5.3.1.0^4,8^]undecane]-2,6'(1H)-dione
_symmetry_cell_setting           orthorhombic
_symmetry_space_group_name_H-M   'I b a 2'
_symmetry_Int_Tables_number      45
_space_group_name_Hall           'I 2 -2c'
loop_
_symmetry_equiv_pos_site_id
_symmetry_equiv_pos_as_xyz
1 x,y,z
2 -x,-y,z
3 -x,y,1/2+z
4 x,-y,1/2+z
5 1/2+x,1/2+y,1/2+z
6 1/2-x,1/2-y,1/2+z
7 1/2-x,1/2+y,z
8 1/2+x,1/2-y,z
_cell_length_a                   10.9290(17)
_cell_length_b                   36.853(5)
_cell_length_c                   7.5524(10)
_cell_angle_alpha                90
_cell_angle_beta                 90
_cell_angle_gamma                90
_cell_volume                     3041.85
_exptl_crystal_colour            colorless
_exptl_crystal_description       block
_cell_formula_units_Z            8
_exptl_crystal_recrystallization_method 'ethyl acetate'
loop_
_atom_site_label
_atom_site_type_symbol
_atom_site_fract_x
_atom_site_fract_y
_atom_site_fract_z
O1 O 0.9499(6) 0.76811(17) 0.0516(10)
O2 O 0.5756(5) 0.85255(15) 0.1394(9)
O3 O 0.9812(6) 0.85715(16) 0.1618(10)
O4 O 1.0250(7) 0.93217(18) 0.1627(11)
N1 N 0.8637(6) 0.78730(17) 0.3105(11)
H1 H 0.9245 0.7821 0.3782
N2 N 0.9238(7) 0.91432(18) 0.2299(12)
C1 C 0.8653(7) 0.7815(2) 0.1403(13)
C2 C 0.7438(7) 0.79254(19) 0.0637(11)
H2 H 0.7156 0.7745 -0.0223
C3 C 0.7496(8) 0.8300(2) -0.0209(13)
H3 H 0.7053 0.8294 -0.1321
H4 H 0.8343 0.8357 -0.0474
C4 C 0.6968(9) 0.8603(2) 0.0938(12)
H5 H 0.6947 0.8822 0.0198
C5 C 0.7713(8) 0.8704(2) 0.2640(11)
C6 C 0.7576(8) 0.8433(2) 0.4203(12)
H6 H 0.8261 0.8470 0.5001
H7 H 0.6839 0.8497 0.4847
C7 C 0.7514(8) 0.8031(2) 0.3765(11)
H8 H 0.7276 0.7900 0.4840
C8 C 0.6595(7) 0.79304(19) 0.2271(12)
H9 H 0.6307 0.7682 0.2482
C9 C 0.5508(8) 0.8170(2) 0.2096(14)
H10 H 0.4916 0.8051 0.1334
H11 H 0.5135 0.8197 0.3254
C10 C 0.7290(8) 0.9082(2) 0.3238(14)
C11 C 0.6215(11) 0.9195(3) 0.3984(19)
H12 H 0.5593 0.9031 0.4230
C12 C 0.6075(11) 0.9561(3) 0.437(2)
H13 H 0.5342 0.9643 0.4847
C13 C 0.6998(12) 0.9804(3) 0.404(2)
H14 H 0.6885 1.0047 0.4320
C14 C 0.8097(12) 0.9692(3) 0.3313(18)
H15 H 0.8722 0.9856 0.3072
C15 C 0.8225(9) 0.9332(2) 0.2963(14)
C16 C 0.9065(8) 0.8781(2) 0.2102(12)
C17 C 1.1302(12) 0.9282(3) 0.2775(17)
H16 H 1.1982 0.9413 0.2284
H17 H 1.1510 0.9030 0.2875
H18 H 1.1112 0.9377 0.3925
loop_
_geom_bond_atom_site_label_1
_geom_bond_atom_site_label_2
_geom_bond_site_symmetry_1
_geom_bond_site_symmetry_2
O1 C1 1_555 1_555
O2 C4 1_555 1_555
O3 C16 1_555 1_555
O4 N2 1_555 1_555
N1 H1 1_555 1_555
N2 C15 1_555 1_555
C1 N1 1_555 1_555
C2 C1 1_555 1_555
H2 C2 1_555 1_555
C3 C2 1_555 1_555
H3 C3 1_555 1_555
H4 C3 1_555 1_555
C4 C3 1_555 1_555
H5 C4 1_555 1_555
C5 C4 1_555 1_555
C6 C5 1_555 1_555
H6 C6 1_555 1_555
H7 C6 1_555 1_555
C7 N1 1_555 1_555
H8 C7 1_555 1_555
C8 C2 1_555 1_555
H9 C8 1_555 1_555
C9 O2 1_555 1_555
H10 C9 1_555 1_555
H11 C9 1_555 1_555
C10 C5 1_555 1_555
C11 C10 1_555 1_555
H12 C11 1_555 1_555
C12 C11 1_555 1_555
H13 C12 1_555 1_555
C13 C12 1_555 1_555
H14 C13 1_555 1_555
C14 C13 1_555 1_555
H15 C14 1_555 1_555
C15 C10 1_555 1_555
C16 N2 1_555 1_555
C17 O4 1_555 1_555
H16 C17 1_555 1_555
H17 C17 1_555 1_555
H18 C17 1_555 1_555
C5 C16 1_555 1_555
C6 C7 1_555 1_555
C7 C8 1_555 1_555
C8 C9 1_555 1_555
C14 C15 1_555 1_555

#END
