
#######################################################################
#
#                 Cambridge Crystallographic Data Centre
#                                CCDC 
#
#######################################################################
#
# If this CIF has been generated from an entry in the Cambridge 
# Structural Database, then it will include bibliographic, chemical, 
# crystal, experimental, refinement or atomic coordinate data resulting 
# from the CCDC's data processing and validation procedures.
#
#######################################################################

data_BAKNAC
_chemical_formula_moiety         'C8 H24 B2 F2 N2 P2'
_chemical_name_systematic        
2,4-bis(Borane)-1,3-di-t-butyl-2,4-difluorodiazadiphosphetidine
_symmetry_cell_setting           monoclinic
_symmetry_space_group_name_H-M   'P 21/m'
_symmetry_Int_Tables_number      11
_space_group_name_Hall           '-P 2yb'
loop_
_symmetry_equiv_pos_site_id
_symmetry_equiv_pos_as_xyz
1 x,y,z
2 -x,1/2+y,-z
3 -x,-y,-z
4 x,1/2-y,z
_cell_length_a                   6.328(4)
_cell_length_b                   12.183(5)
_cell_length_c                   10.627(4)
_cell_angle_alpha                90
_cell_angle_beta                 100.56(1)
_cell_angle_gamma                90
_cell_volume                     805.403
_cell_formula_units_Z            2
loop_
_atom_site_label
_atom_site_type_symbol
_atom_site_fract_x
_atom_site_fract_y
_atom_site_fract_z
P1 P 0.20680 0.64930 0.23180
F1 F -0.02000 0.59630 0.19380
N1 N 0.21900 0.75000 0.12870
N2 N 0.18370 0.75000 0.33370
C1 C 0.26620 0.75000 -0.00330
C2 C 0.16590 0.84960 -0.07170
C3 C 0.50370 0.75000 0.00110
C4 C 0.18260 0.75000 0.47400
C5 C 0.06840 0.64560 0.50530
C6 C 0.41120 0.75000 0.54810
B1 B 0.40670 0.53900 0.26710
H1 H 0.24160 0.90760 -0.02500
H2 H 0.18230 0.85740 -0.16050
H3 H 0.01250 0.85960 -0.06180
H4 H 0.56010 0.80970 0.03470
H5 H 0.54330 0.75000 -0.08580
H6 H 0.17410 0.60270 0.48940
H7 H -0.08260 0.66670 0.42080
H8 H 0.03590 0.65860 0.59720
H9 H 0.49870 0.81010 0.51100
H10 H 0.42300 0.75000 0.63680
H11 H 0.41660 0.51070 0.35530
H12 H 0.36560 0.48320 0.21250
H13 H 0.55100 0.56380 0.25280
P1C P 0.20680 0.85070 0.23180
C2C C 0.16590 0.65040 -0.07170
H4C H 0.56010 0.69030 0.03470
C5C C 0.06840 0.85440 0.50530
H9C H 0.49870 0.68990 0.51100
F1C F -0.02000 0.90370 0.19380
B1C B 0.40670 0.96100 0.26710
H1C H 0.24160 0.59240 -0.02500
H2C H 0.18230 0.64260 -0.16050
H3C H 0.01250 0.64040 -0.06180
H6C H 0.17410 0.89730 0.48940
H7C H -0.08260 0.83330 0.42080
H8C H 0.03590 0.84140 0.59720
H11C H 0.41660 0.98930 0.35530
H12C H 0.36560 1.01680 0.21250
H13C H 0.55100 0.93620 0.25280
loop_
_geom_bond_atom_site_label_1
_geom_bond_atom_site_label_2
_geom_bond_site_symmetry_1
_geom_bond_site_symmetry_2
P1 F1 1_555 1_555
N1 P1 1_555 1_555
N2 P1 1_555 1_555
C1 N1 1_555 1_555
C2 C1 1_555 1_555
C3 C1 1_555 1_555
C4 N2 1_555 1_555
C5 C4 1_555 1_555
C6 C4 1_555 1_555
B1 P1 1_555 1_555
H1 C2 1_555 1_555
H2 C2 1_555 1_555
H3 C2 1_555 1_555
H4 C3 1_555 1_555
H5 C3 1_555 1_555
H6 C5 1_555 1_555
H7 C5 1_555 1_555
H8 C5 1_555 1_555
H9 C6 1_555 1_555
H10 C6 1_555 1_555
H11 B1 1_555 1_555
H12 B1 1_555 1_555
H13 B1 1_555 1_555
P1C N1 1_555 1_555
C2C C1 1_555 1_555
H4C C3 1_555 1_555
C5C C4 1_555 1_555
H9C C6 1_555 1_555
F1C P1C 1_555 1_555
B1C P1C 1_555 1_555
H1C C2C 1_555 1_555
H2C C2C 1_555 1_555
H3C C2C 1_555 1_555
H6C C5C 1_555 1_555
H7C C5C 1_555 1_555
H8C C5C 1_555 1_555
H11C B1C 1_555 1_555
H12C B1C 1_555 1_555
H13C B1C 1_555 1_555
N2 P1C 1_555 1_555

#END
