
#######################################################################
#
#                 Cambridge Crystallographic Data Centre
#                                CCDC 
#
#######################################################################
#
# If this CIF has been generated from an entry in the Cambridge 
# Structural Database, then it will include bibliographic, chemical, 
# crystal, experimental, refinement or atomic coordinate data resulting 
# from the CCDC's data processing and validation procedures.
#
#######################################################################

data_BAKVAL
_chemical_formula_moiety         'C22 H21 N1 O1'
_chemical_name_systematic        
(7aR,13S)-13-Phenyl-8,9,10,11-tetrahydro-7aH,13H-naphtho(1,2-e)pyrido(2,1-b)(1,3)oxazine
_symmetry_cell_setting           orthorhombic
_symmetry_space_group_name_H-M   'P 21 21 21'
_symmetry_Int_Tables_number      19
_space_group_name_Hall           'P 2ac 2ab'
loop_
_symmetry_equiv_pos_site_id
_symmetry_equiv_pos_as_xyz
1 x,y,z
2 1/2-x,-y,1/2+z
3 -x,1/2+y,1/2-z
4 1/2+x,1/2-y,-z
_cell_length_a                   9.813(4)
_cell_length_b                   10.354(3)
_cell_length_c                   16.491(4)
_cell_angle_alpha                90
_cell_angle_beta                 90
_cell_angle_gamma                90
_cell_volume                     1675.55
_exptl_crystal_colour            colorless
_exptl_crystal_description       prismatic
_chemical_melting_point          179.5-181.5deg.C
_cell_formula_units_Z            4
loop_
_atom_site_label
_atom_site_type_symbol
_atom_site_fract_x
_atom_site_fract_y
_atom_site_fract_z
C1 C -0.0009(3) 0.4151(3) 0.22956(15)
H1 H 0.0566 0.3522 0.2508
C2 C -0.1326(3) 0.4230(3) 0.25647(18)
H2 H -0.1639 0.3649 0.2952
C3 C -0.2204(3) 0.5175(3) 0.22625(19)
H3 H -0.3099 0.5218 0.2446
C4 C -0.1753(3) 0.6034(3) 0.17009(17)
H4 H -0.2344 0.6665 0.1507
C5 C 0.0074(3) 0.6859(3) 0.08156(16)
H5 H -0.0498 0.7511 0.0630
C6 C 0.1356(3) 0.6763(2) 0.05139(16)
H6 H 0.1651 0.7338 0.0118
C7 C 0.2241(2) 0.5791(2) 0.07989(15)
C8 C 0.1849(2) 0.4939(2) 0.13859(14)
C9 C -0.0402(3) 0.5987(3) 0.14050(15)
C10 C 0.0494(2) 0.5016(3) 0.16978(14)
C11 C 0.2850(2) 0.3905(2) 0.16510(14)
H7 H 0.2329 0.3110 0.1742
C12 C 0.3595(2) 0.4216(3) 0.24378(14)
C13 C 0.3465(3) 0.5386(3) 0.28300(16)
H8 H 0.2889 0.6015 0.2619
C14 C 0.4189(3) 0.5635(3) 0.35389(16)
H9 H 0.4099 0.6431 0.3794
C15 C 0.5023(3) 0.4723(3) 0.38601(16)
H10 H 0.5502 0.4894 0.4335
C16 C 0.5160(3) 0.3543(3) 0.34817(17)
H11 H 0.5725 0.2914 0.3703
C17 C 0.4455(3) 0.3295(3) 0.27722(16)
H12 H 0.4558 0.2501 0.2516
O1 O 0.34912(17) 0.57680(17) 0.04290(11)
C18 C 0.3208(3) 0.2902(3) 0.03275(15)
H13 H 0.2437 0.3382 0.0116
H14 H 0.2870 0.2087 0.0536
C19 C 0.4207(3) 0.2642(3) -0.03526(16)
H15 H 0.4914 0.2061 -0.0162
H16 H 0.3737 0.2224 -0.0799
C20 C 0.4847(3) 0.3881(3) -0.06460(16)
H17 H 0.4158 0.4418 -0.0900
H18 H 0.5540 0.3688 -0.1047
C21 C 0.5484(3) 0.4603(3) 0.00610(16)
H19 H 0.6252 0.4113 0.0267
H20 H 0.5822 0.5431 -0.0127
C22 C 0.4467(3) 0.4819(2) 0.07397(16)
H21 H 0.4947 0.5197 0.1204
N1 N 0.38375(19) 0.36399(19) 0.09938(11)
loop_
_geom_bond_atom_site_label_1
_geom_bond_atom_site_label_2
_geom_bond_site_symmetry_1
_geom_bond_site_symmetry_2
C1 H1 1_555 1_555
C2 C1 1_555 1_555
H2 C2 1_555 1_555
C3 C2 1_555 1_555
H3 C3 1_555 1_555
C4 C3 1_555 1_555
H4 C4 1_555 1_555
C5 H5 1_555 1_555
C6 C5 1_555 1_555
H6 C6 1_555 1_555
C7 C6 1_555 1_555
C8 C7 1_555 1_555
C9 C4 1_555 1_555
C10 C1 1_555 1_555
C11 C8 1_555 1_555
H7 C11 1_555 1_555
C12 C11 1_555 1_555
C13 C12 1_555 1_555
H8 C13 1_555 1_555
C14 C13 1_555 1_555
H9 C14 1_555 1_555
C15 C14 1_555 1_555
H10 C15 1_555 1_555
C16 C15 1_555 1_555
H11 C16 1_555 1_555
C17 C12 1_555 1_555
H12 C17 1_555 1_555
O1 C7 1_555 1_555
C18 H13 1_555 1_555
H14 C18 1_555 1_555
C19 C18 1_555 1_555
H15 C19 1_555 1_555
H16 C19 1_555 1_555
C20 C19 1_555 1_555
H17 C20 1_555 1_555
H18 C20 1_555 1_555
C21 C20 1_555 1_555
H19 C21 1_555 1_555
H20 C21 1_555 1_555
C22 O1 1_555 1_555
H21 C22 1_555 1_555
N1 C11 1_555 1_555
C5 C9 1_555 1_555
C8 C10 1_555 1_555
C9 C10 1_555 1_555
C16 C17 1_555 1_555
C18 N1 1_555 1_555
C21 C22 1_555 1_555
C22 N1 1_555 1_555

#END
