
#######################################################################
#
#                 Cambridge Crystallographic Data Centre
#                                CCDC 
#
#######################################################################
#
# If this CIF has been generated from an entry in the Cambridge 
# Structural Database, then it will include bibliographic, chemical, 
# crystal, experimental, refinement or atomic coordinate data resulting 
# from the CCDC's data processing and validation procedures.
#
#######################################################################

data_BAKVOA
_chemical_formula_moiety         'C15 H22 O3'
_chemical_name_systematic        
(3S,4R,Z)-3,6-dimethyl-2-(3-methylbut-2-enylidene)-2,3,3a,4,7,7a-hexahydrobenzofuran-3,4-diol
_symmetry_cell_setting           monoclinic
_symmetry_space_group_name_H-M   'P 21'
_symmetry_Int_Tables_number      4
_space_group_name_Hall           'P 2yb'
loop_
_symmetry_equiv_pos_site_id
_symmetry_equiv_pos_as_xyz
1 x,y,z
2 -x,1/2+y,-z
_cell_length_a                   6.0692(12)
_cell_length_b                   8.9954(18)
_cell_length_c                   13.182(3)
_cell_angle_alpha                90
_cell_angle_beta                 92.59(3)
_cell_angle_gamma                90
_cell_volume                     718.935
_exptl_crystal_colour            colorless
_exptl_crystal_description       block
_cell_formula_units_Z            2
loop_
_atom_site_label
_atom_site_type_symbol
_atom_site_fract_x
_atom_site_fract_y
_atom_site_fract_z
O1 O 0.82433(17) 0.48614(15) 0.30914(7)
O2 O 0.4943(2) 0.59335(14) 0.09965(10)
H1 H 0.4591 0.6740 0.0748
O3 O 0.6366(3) 0.33822(17) 0.01195(11)
H2 H 0.5428 0.4039 0.0085
C1 C 0.7383(3) 0.33542(18) 0.11219(11)
H3 H 0.6231 0.3228 0.1612
C2 C 0.8902(3) 0.20585(18) 0.12054(13)
H4 H 0.8614 0.1244 0.0786
C3 C 1.0646(3) 0.20057(19) 0.18471(13)
C4 C 1.1232(2) 0.3288(2) 0.25362(13)
H5 H 1.2782 0.3515 0.2473
H6 H 1.1042 0.2975 0.3231
C5 C 0.9922(2) 0.46959(19) 0.23476(12)
H7 H 1.0929 0.5546 0.2407
C6 C 0.6638(2) 0.58003(18) 0.26967(11)
C7 C 0.6986(3) 0.60837(17) 0.15763(12)
C8 C 0.8586(2) 0.48192(18) 0.13489(10)
H8 H 0.9530 0.5090 0.0794
C9 C 0.5042(2) 0.63261(19) 0.32501(12)
H9 H 0.4052 0.6991 0.2939
C10 C 0.4719(3) 0.5949(2) 0.42974(13)
H10 H 0.5751 0.5309 0.4604
C11 C 0.3106(3) 0.6416(3) 0.48763(14)
C12 C 0.2959(5) 0.5852(5) 0.59482(19)
H11 H 0.4144 0.5168 0.6098
H12 H 0.1574 0.5354 0.6016
H13 H 0.3065 0.6673 0.6413
C13 C 0.1356(3) 0.7499(3) 0.45389(17)
H14 H 0.1583 0.7799 0.3852
H15 H 0.1427 0.8356 0.4974
H16 H -0.0066 0.7040 0.4573
C14 C 0.7985(4) 0.7619(2) 0.14087(16)
H17 H 0.6923 0.8371 0.1555
H18 H 0.8387 0.7709 0.0715
H19 H 0.9274 0.7741 0.1851
C15 C 1.2140(3) 0.0689(2) 0.1946(2)
H20 H 1.1635 -0.0071 0.1480
H21 H 1.2135 0.0313 0.2628
H22 H 1.3612 0.0979 0.1794
loop_
_geom_bond_atom_site_label_1
_geom_bond_atom_site_label_2
_geom_bond_site_symmetry_1
_geom_bond_site_symmetry_2
O1 C5 1_555 1_555
O2 H1 1_555 1_555
O3 H2 1_555 1_555
C1 O3 1_555 1_555
H3 C1 1_555 1_555
C2 C1 1_555 1_555
H4 C2 1_555 1_555
C3 C2 1_555 1_555
C4 C3 1_555 1_555
H5 C4 1_555 1_555
H6 C4 1_555 1_555
C5 C4 1_555 1_555
H7 C5 1_555 1_555
C6 O1 1_555 1_555
C7 O2 1_555 1_555
C8 C1 1_555 1_555
H8 C8 1_555 1_555
C9 C6 1_555 1_555
H9 C9 1_555 1_555
C10 C9 1_555 1_555
H10 C10 1_555 1_555
C11 C10 1_555 1_555
C12 C11 1_555 1_555
H11 C12 1_555 1_555
H12 C12 1_555 1_555
H13 C12 1_555 1_555
C13 C11 1_555 1_555
H14 C13 1_555 1_555
H15 C13 1_555 1_555
H16 C13 1_555 1_555
C14 C7 1_555 1_555
H17 C14 1_555 1_555
H18 C14 1_555 1_555
H19 C14 1_555 1_555
C15 C3 1_555 1_555
H20 C15 1_555 1_555
H21 C15 1_555 1_555
H22 C15 1_555 1_555
C5 C8 1_555 1_555
C6 C7 1_555 1_555
C7 C8 1_555 1_555

#END
