
#######################################################################
#
#                 Cambridge Crystallographic Data Centre
#                                CCDC 
#
#######################################################################
#
# If this CIF has been generated from an entry in the Cambridge 
# Structural Database, then it will include bibliographic, chemical, 
# crystal, experimental, refinement or atomic coordinate data resulting 
# from the CCDC's data processing and validation procedures.
#
#######################################################################

data_BAKXIX
_chemical_name_common            
()-(1R,2R,5S,6R)-1-Benzyl-3-methyl-1,5,6-triphenyl-3-azaspiro-[bicyclo[3.1.0]hexane-2,3-indolin]-2-one
_chemical_formula_moiety         'C38 H32 N2 O1'
_chemical_name_systematic        
1'-benzyl-3-methyl-1,5,6-triphenylspiro[3-azabicyclo[3.1.0]hexane-2,3'-indol]-2'(1'H)-one
_symmetry_cell_setting           monoclinic
_symmetry_space_group_name_H-M   'P 21/c'
_symmetry_Int_Tables_number      14
_space_group_name_Hall           '-P 2ybc'
loop_
_symmetry_equiv_pos_site_id
_symmetry_equiv_pos_as_xyz
1 x,y,z
2 -x,1/2+y,1/2-z
3 -x,-y,-z
4 x,1/2-y,1/2+z
_cell_length_a                   8.1100(3)
_cell_length_b                   21.2864(10)
_cell_length_c                   17.7101(3)
_cell_angle_alpha                90
_cell_angle_beta                 113.80(5)
_cell_angle_gamma                90
_cell_volume                     2797.35
_exptl_crystal_colour            colorless
_exptl_crystal_description       prism
_cell_formula_units_Z            4
loop_
_atom_site_label
_atom_site_type_symbol
_atom_site_fract_x
_atom_site_fract_y
_atom_site_fract_z
O1 O -0.06116(12) 0.34364(4) 0.12111(6)
N1 N 0.10589(14) 0.41266(5) 0.07969(7)
N2 N -0.21762(13) 0.31411(5) -0.06536(7)
C1 C 0.15078(18) 0.17872(6) -0.15648(8)
H1 H 0.0716 0.2038 -0.1984
C2 C 0.25772(17) 0.13834(6) -0.01850(8)
H2 H 0.2514 0.1363 0.0327
C3 C 0.15328(17) 0.45779(6) 0.14682(8)
H3 H 0.0989 0.4446 0.1840
H4 H 0.1022 0.4983 0.1242
C4 C -0.09256(16) 0.21444(6) -0.01257(8)
C5 C -0.10263(15) 0.15629(6) 0.03265(8)
C6 C 0.05874(16) 0.26225(6) 0.00852(8)
C7 C 0.13909(16) 0.17727(6) -0.07996(8)
C8 C -0.00082(15) 0.36059(6) 0.07168(8)
C9 C 0.24302(16) 0.25840(6) 0.07692(8)
C10 C -0.02976(15) 0.32771(6) -0.01108(8)
C11 C 0.06145(16) 0.37297(6) -0.04772(8)
C12 C -0.26613(16) 0.25262(6) -0.04351(8)
H5 H -0.3579 0.2327 -0.0913
H6 H -0.3114 0.2567 -0.0007
C13 C 0.14363(16) 0.42043(6) 0.00915(8)
C14 C 0.00699(16) 0.22104(6) -0.06882(8)
H7 H -0.0636 0.2442 -0.1195
C15 C 0.07720(17) 0.37220(6) -0.12254(8)
H8 H 0.0212 0.3410 -0.1611
C16 C -0.12628(17) 0.16128(6) 0.10649(8)
H9 H -0.1204 0.2006 0.1304
C17 C 0.35442(17) 0.46565(6) 0.19597(8)
C18 C -0.11549(17) 0.09700(6) -0.00269(9)
H10 H -0.1022 0.0927 -0.0522
C19 C 0.39272(17) 0.27763(6) 0.06251(8)
H11 H 0.3772 0.2912 0.0102
C20 C 0.24639(17) 0.46700(6) -0.00589(8)
H12 H 0.3024 0.4981 0.0329
C21 C -0.34669(17) 0.36379(6) -0.07315(8)
H13 H -0.3097 0.4017 -0.0912
H14 H -0.3519 0.3708 -0.0206
H15 H -0.4636 0.3516 -0.1128
C22 C 0.26246(17) 0.46536(6) -0.08134(9)
H16 H 0.3307 0.4959 -0.0930
C23 C -0.15833(17) 0.10846(7) 0.14443(9)
H17 H -0.1727 0.1125 0.1937
C24 C 0.38531(17) 0.10262(6) -0.03340(9)
H18 H 0.4635 0.0768 0.0079
C25 C -0.14797(17) 0.04415(6) 0.03544(9)
H19 H -0.1556 0.0048 0.0114
C26 C -0.16903(17) 0.04964(7) 0.10893(9)
H20 H -0.1902 0.0142 0.1343
C27 C 0.27032(18) 0.23819(6) 0.15583(8)
H21 H 0.1719 0.2264 0.1669
C28 C 0.17849(17) 0.41900(7) -0.13940(9)
H22 H 0.1897 0.4191 -0.1896
C29 C 0.56463(17) 0.27660(7) 0.12570(9)
H23 H 0.6627 0.2907 0.1159
C30 C 0.47691(17) 0.41928(7) 0.19867(9)
H24 H 0.4361 0.3824 0.1687
C31 C 0.39680(18) 0.10520(7) -0.10950(9)
H25 H 0.4830 0.0816 -0.1190
C32 C 0.27895(19) 0.14321(7) -0.17098(9)
H26 H 0.2855 0.1450 -0.2222
C33 C 0.58963(18) 0.25463(7) 0.20301(9)
H27 H 0.7050 0.2527 0.2447
C34 C 0.4177(2) 0.52064(7) 0.24113(9)
H28 H 0.3372 0.5523 0.2394
C35 C 0.66044(19) 0.42751(8) 0.24581(10)
H29 H 0.7417 0.3963 0.2469
C36 C 0.44270(19) 0.23540(7) 0.21836(9)
H30 H 0.4594 0.2207 0.2704
C37 C 0.7218(2) 0.48191(9) 0.29095(10)
H31 H 0.8442 0.4873 0.3227
C38 C 0.6011(2) 0.52833(8) 0.28890(10)
H32 H 0.6425 0.5649 0.3195
H33? H -0.2192 0.3093 -0.1167
loop_
_geom_bond_atom_site_label_1
_geom_bond_atom_site_label_2
_geom_bond_site_symmetry_1
_geom_bond_site_symmetry_2
O1 C8 1_555 1_555
N1 C3 1_555 1_555
N2 C10 1_555 1_555
C1 H1 1_555 1_555
C2 H2 1_555 1_555
C3 H3 1_555 1_555
H4 C3 1_555 1_555
C4 C5 1_555 1_555
C5 C16 1_555 1_555
C6 C4 1_555 1_555
C7 C1 1_555 1_555
C8 N1 1_555 1_555
C9 C6 1_555 1_555
C10 C6 1_555 1_555
C11 C10 1_555 1_555
C12 N2 1_555 1_555
H5 C12 1_555 1_555
H6 C12 1_555 1_555
C13 N1 1_555 1_555
C14 C4 1_555 1_555
H7 C14 1_555 1_555
C15 C11 1_555 1_555
H8 C15 1_555 1_555
C16 H9 1_555 1_555
C17 C3 1_555 1_555
C18 C5 1_555 1_555
H10 C18 1_555 1_555
C19 C9 1_555 1_555
H11 C19 1_555 1_555
C20 C13 1_555 1_555
H12 C20 1_555 1_555
C21 N2 1_555 1_555
H13 C21 1_555 1_555
H14 C21 1_555 1_555
H15 C21 1_555 1_555
C22 C20 1_555 1_555
H16 C22 1_555 1_555
C23 C16 1_555 1_555
H17 C23 1_555 1_555
C24 C2 1_555 1_555
H18 C24 1_555 1_555
C25 C18 1_555 1_555
H19 C25 1_555 1_555
C26 C23 1_555 1_555
H20 C26 1_555 1_555
C27 C9 1_555 1_555
H21 C27 1_555 1_555
C28 C15 1_555 1_555
H22 C28 1_555 1_555
C29 C19 1_555 1_555
H23 C29 1_555 1_555
C30 C17 1_555 1_555
H24 C30 1_555 1_555
C31 C24 1_555 1_555
H25 C31 1_555 1_555
C32 C1 1_555 1_555
H26 C32 1_555 1_555
C33 C29 1_555 1_555
H27 C33 1_555 1_555
C34 C17 1_555 1_555
H28 C34 1_555 1_555
C35 C30 1_555 1_555
H29 C35 1_555 1_555
C36 C27 1_555 1_555
H30 C36 1_555 1_555
C37 C35 1_555 1_555
H31 C37 1_555 1_555
C38 C34 1_555 1_555
H32 C38 1_555 1_555
C2 C7 1_555 1_555
C4 C12 1_555 1_555
C6 C14 1_555 1_555
C7 C14 1_555 1_555
C8 C10 1_555 1_555
C11 C13 1_555 1_555
C22 C28 1_555 1_555
C25 C26 1_555 1_555
C31 C32 1_555 1_555
C33 C36 1_555 1_555
C37 C38 1_555 1_555

#END
