
#######################################################################
#
#                 Cambridge Crystallographic Data Centre
#                                CCDC 
#
#######################################################################
#
# If this CIF has been generated from an entry in the Cambridge 
# Structural Database, then it will include bibliographic, chemical, 
# crystal, experimental, refinement or atomic coordinate data resulting 
# from the CCDC's data processing and validation procedures.
#
#######################################################################

data_BAKXET
_chemical_formula_moiety         'C40 H34 N2 O1'
_chemical_name_systematic        
1'-benzyl-1,1a,6b-triphenyl-1a,4,5,6,6a,6b-hexahydro-1H-spiro[cyclopropa[a]pyrrolizine-2,3'-indol]-2'(1'H)-one
_symmetry_cell_setting           monoclinic
_symmetry_space_group_name_H-M   'P 21/c'
_symmetry_Int_Tables_number      14
_space_group_name_Hall           '-P 2ybc'
loop_
_symmetry_equiv_pos_site_id
_symmetry_equiv_pos_as_xyz
1 x,y,z
2 -x,1/2+y,1/2-z
3 -x,-y,-z
4 x,1/2-y,1/2+z
_cell_length_a                   10.5975(3)
_cell_length_b                   13.6912(3)
_cell_length_c                   20.7918(5)
_cell_angle_alpha                90
_cell_angle_beta                 96.980(3)
_cell_angle_gamma                90
_cell_volume                     2994.38
_exptl_crystal_colour            colorless
_exptl_crystal_description       prism
_cell_formula_units_Z            4
loop_
_atom_site_label
_atom_site_type_symbol
_atom_site_fract_x
_atom_site_fract_y
_atom_site_fract_z
O1 O 0.14343(8) 0.44411(6) 0.23885(4)
N1 N 0.31176(10) 0.52378(7) 0.20130(5)
C1 C 0.14647(11) 0.64186(8) 0.30589(5)
C2 C -0.04403(11) 0.48548(9) 0.37853(6)
H1 H -0.0030 0.4486 0.3498
C3 C -0.11178(11) 0.64076(9) 0.41554(6)
H2 H -0.1160 0.7084 0.4119
C4 C 0.26241(12) 0.78419(9) 0.19619(6)
H3 H 0.2008 0.8272 0.2074
C5 C 0.14743(11) 0.62486(8) 0.23175(5)
N2 N 0.01579(9) 0.63106(7) 0.20201(5)
C6 C 0.26447(11) 0.60826(8) 0.34700(5)
C7 C 0.34294(12) 0.62115(9) 0.18782(6)
C8 C 0.07488(11) 0.73426(8) 0.32159(6)
H4 H 0.0502 0.7754 0.2836
C9 C -0.04571(11) 0.58720(9) 0.37324(6)
C10 C 0.19639(11) 0.51887(9) 0.22479(5)
C11 C 0.27655(11) 0.51450(9) 0.37359(6)
H5 H 0.2075 0.4721 0.3685
C12 C 0.24733(11) 0.68432(9) 0.20312(5)
C13 C 0.00800(11) 0.63504(8) 0.31797(6)
C14 C 0.27912(12) 0.37824(9) 0.08958(6)
H6 H 0.2045 0.3788 0.1090
C15 C -0.10287(11) 0.43870(9) 0.42618(6)
H7 H -0.0998 0.3710 0.4296
C16 C 0.17435(12) 0.80788(9) 0.49807(6)
H8 H 0.2051 0.7793 0.5375
C17 C -0.16629(11) 0.49300(9) 0.46866(6)
H9 H -0.2053 0.4619 0.5008
C18 C -0.07027(11) 0.61623(9) 0.25197(6)
H10 H -0.1002 0.5484 0.2502
C19 C 0.10611(11) 0.79146(8) 0.38275(6)
C20 C 0.39339(12) 0.43958(9) 0.19468(6)
H11 H 0.3651 0.3857 0.2196
H12 H 0.4797 0.4557 0.2126
C21 C 0.39304(12) 0.40756(9) 0.12489(6)
C22 C -0.17116(12) 0.59398(9) 0.46293(6)
H13 H -0.2144 0.6305 0.4910
C23 C 0.39097(12) 0.48416(9) 0.40762(6)
H14 H 0.3976 0.4220 0.4258
C24 C 0.48491(12) 0.63933(10) 0.38798(6)
H15 H 0.5548 0.6810 0.3923
C25 C 0.08495(12) 0.89238(9) 0.38022(6)
H16 H 0.0559 0.9217 0.3408
C26 C 0.37158(12) 0.81953(9) 0.17214(6)
H17 H 0.3817 0.8863 0.1664
C27 C 0.37009(11) 0.67024(9) 0.35485(6)
H18 H 0.3634 0.7330 0.3377
C28 C 0.45231(12) 0.65458(10) 0.16451(6)
H19 H 0.5149 0.6116 0.1544
C29 C 0.50363(12) 0.40702(10) 0.09498(7)
H20 H 0.5800 0.4269 0.1180
C30 C 0.27636(13) 0.34824(9) 0.02569(6)
H21 H 0.2001 0.3286 0.0023
C31 C 0.15192(11) 0.75040(9) 0.44262(6)
H22 H 0.1677 0.6836 0.4454
C32 C 0.49523(12) 0.54628(10) 0.41456(6)
H23 H 0.5719 0.5256 0.4370
C33 C -0.18343(12) 0.68469(10) 0.23263(6)
H24 H -0.2633 0.6531 0.2383
H25 H -0.1757 0.7444 0.2579
C34 C 0.50079(14) 0.37698(10) 0.03094(7)
H26 H 0.5751 0.3767 0.0113
C35 C 0.38777(14) 0.34755(10) -0.00335(7)
H27 H 0.3860 0.3271 -0.0461
C36 C -0.17410(12) 0.70526(10) 0.16079(7)
H28 H -0.2122 0.6529 0.1336
H29 H -0.2153 0.7664 0.1472
C37 C -0.03101(12) 0.71076(10) 0.15827(6)
H30 H -0.0101 0.6998 0.1147
H31 H 0.0032 0.7733 0.1738
C38 C 0.15099(13) 0.90757(10) 0.49479(7)
H32 H 0.1650 0.9459 0.5319
C39 C 0.46463(13) 0.75526(10) 0.15690(7)
H33 H 0.5368 0.7798 0.1413
C40 C 0.10669(13) 0.94938(10) 0.43575(7)
H34 H 0.0913 1.0162 0.4332
loop_
_geom_bond_atom_site_label_1
_geom_bond_atom_site_label_2
_geom_bond_site_symmetry_1
_geom_bond_site_symmetry_2
O1 C10 1_555 1_555
N1 C7 1_555 1_555
C1 C5 1_555 1_555
C2 H1 1_555 1_555
C3 H2 1_555 1_555
C4 H3 1_555 1_555
C5 N2 1_555 1_555
N2 C18 1_555 1_555
C6 C1 1_555 1_555
C7 C12 1_555 1_555
C8 C1 1_555 1_555
H4 C8 1_555 1_555
C9 C2 1_555 1_555
C10 N1 1_555 1_555
C11 C6 1_555 1_555
H5 C11 1_555 1_555
C12 C4 1_555 1_555
C13 C1 1_555 1_555
C14 H6 1_555 1_555
C15 C2 1_555 1_555
H7 C15 1_555 1_555
C16 H8 1_555 1_555
C17 C15 1_555 1_555
H9 C17 1_555 1_555
C18 C13 1_555 1_555
H10 C18 1_555 1_555
C19 C8 1_555 1_555
C20 N1 1_555 1_555
H11 C20 1_555 1_555
H12 C20 1_555 1_555
C21 C14 1_555 1_555
C22 C3 1_555 1_555
H13 C22 1_555 1_555
C23 C11 1_555 1_555
H14 C23 1_555 1_555
C24 H15 1_555 1_555
C25 C19 1_555 1_555
H16 C25 1_555 1_555
C26 C4 1_555 1_555
H17 C26 1_555 1_555
C27 C6 1_555 1_555
H18 C27 1_555 1_555
C28 C7 1_555 1_555
H19 C28 1_555 1_555
C29 C21 1_555 1_555
H20 C29 1_555 1_555
C30 C14 1_555 1_555
H21 C30 1_555 1_555
C31 C16 1_555 1_555
H22 C31 1_555 1_555
C32 C23 1_555 1_555
H23 C32 1_555 1_555
C33 C18 1_555 1_555
H24 C33 1_555 1_555
H25 C33 1_555 1_555
C34 C29 1_555 1_555
H26 C34 1_555 1_555
C35 C30 1_555 1_555
H27 C35 1_555 1_555
C36 C33 1_555 1_555
H28 C36 1_555 1_555
H29 C36 1_555 1_555
C37 N2 1_555 1_555
H30 C37 1_555 1_555
H31 C37 1_555 1_555
C38 C16 1_555 1_555
H32 C38 1_555 1_555
C39 C26 1_555 1_555
H33 C39 1_555 1_555
C40 C25 1_555 1_555
H34 C40 1_555 1_555
C3 C9 1_555 1_555
C5 C10 1_555 1_555
C5 C12 1_555 1_555
C8 C13 1_555 1_555
C9 C13 1_555 1_555
C17 C22 1_555 1_555
C19 C31 1_555 1_555
C20 C21 1_555 1_555
C24 C27 1_555 1_555
C24 C32 1_555 1_555
C28 C39 1_555 1_555
C34 C35 1_555 1_555
C36 C37 1_555 1_555
C38 C40 1_555 1_555

#END
