
#######################################################################
#
#                 Cambridge Crystallographic Data Centre
#                                CCDC 
#
#######################################################################
#
# If this CIF has been generated from an entry in the Cambridge 
# Structural Database, then it will include bibliographic, chemical, 
# crystal, experimental, refinement or atomic coordinate data resulting 
# from the CCDC's data processing and validation procedures.
#
#######################################################################

data_BAKXAP
_chemical_formula_moiety         'C29 H26 N2 O3'
_chemical_name_systematic        
"methyl 2'-oxo-1a,6b-diphenyl-1',1a,2',4,5,6,6a,6b-octahydro-1H-spiro[cyclopropa[a]pyrrolizine-2,3'-indole]-1-carboxylate"
_symmetry_cell_setting           monoclinic
_symmetry_space_group_name_H-M   'P 21/c'
_symmetry_Int_Tables_number      14
_space_group_name_Hall           '-P 2ybc'
loop_
_symmetry_equiv_pos_site_id
_symmetry_equiv_pos_as_xyz
1 x,y,z
2 -x,1/2+y,1/2-z
3 -x,-y,-z
4 x,1/2-y,1/2+z
_cell_length_a                   18.7663(13)
_cell_length_b                   16.4529(6)
_cell_length_c                   9.1000(6)
_cell_angle_alpha                90
_cell_angle_beta                 123.702(10)
_cell_angle_gamma                90
_cell_volume                     2337.5
_exptl_crystal_colour            colorless
_exptl_crystal_description       prism
_cell_formula_units_Z            4
loop_
_atom_site_label
_atom_site_type_symbol
_atom_site_fract_x
_atom_site_fract_y
_atom_site_fract_z
O1 O 0.09307(7) 0.45508(6) 0.01225(14)
O2 O 0.42073(8) 0.61172(7) 0.01547(16)
O3 O 0.43181(7) 0.54417(7) 0.24173(14)
C1 C 0.24174(9) 0.53987(9) 0.03599(19)
N1 N 0.03448(8) 0.58343(8) -0.07115(16)
H1 H -0.0051 0.5785 -0.0514
C2 C 0.27386(9) 0.57392(9) 0.21555(19)
N2 N 0.12453(8) 0.50057(8) -0.25624(16)
C3 C 0.38946(10) 0.56920(9) 0.0743(2)
C4 C 0.39740(10) 0.37162(10) 0.1260(2)
H2 H 0.4178 0.4024 0.0711
C5 C 0.00905(11) 0.72929(10) -0.1694(2)
H3 H -0.0374 0.7364 -0.1598
C6 C 0.29985(11) 0.56528(10) 0.5067(2)
H4 H 0.2975 0.5357 0.5909
C7 C 0.29121(10) 0.34548(9) 0.1892(2)
H5 H 0.2395 0.3583 0.1753
C8 C 0.11723(10) 0.64200(9) -0.15619(19)
C9 C 0.32119(10) 0.39374(9) 0.10755(19)
C10 C 0.27033(10) 0.53039(9) 0.3427(2)
H6 H 0.2482 0.4779 0.3182
C11 C 0.26578(9) 0.46092(9) -0.01198(19)
C12 C 0.33790(11) 0.27862(10) 0.2910(2)
H7 H 0.3180 0.2478 0.3468
C13 C 0.04979(10) 0.65494(9) -0.13511(19)
C14 C 0.14836(10) 0.70613(9) -0.2027(2)
H8 H 0.1941 0.6987 -0.2143
C15 C 0.08956(9) 0.52400(9) -0.04487(18)
C16 C 0.41429(11) 0.25787(10) 0.3093(2)
H9 H 0.4457 0.2133 0.3774
C17 C 0.33512(10) 0.68796(10) 0.4183(2)
H10 H 0.3566 0.7407 0.4429
C18 C 0.11040(10) 0.53079(10) -0.4230(2)
H11 H 0.1522 0.5718 -0.4019
H12 H 0.0532 0.5529 -0.5003
C19 C 0.12229(11) 0.45297(10) -0.4985(2)
H13 H 0.1370 0.4654 -0.5828
H14 H 0.0705 0.4204 -0.5566
C20 C 0.30546(10) 0.65342(9) 0.2549(2)
H15 H 0.3066 0.6837 0.1699
C21 C 0.04015(12) 0.79319(10) -0.2191(2)
H16 H 0.0138 0.8438 -0.2440
C22 C 0.29890(10) 0.54141(9) -0.03615(19)
H17 H 0.2688 0.5590 -0.1596
C23 C 0.44323(11) 0.30408(10) 0.2255(2)
H18 H 0.4938 0.2898 0.2359
C24 C 0.10984(11) 0.78251(10) -0.2320(2)
H19 H 0.1311 0.8265 -0.2604
C25 C 0.18506(10) 0.43163(9) -0.18664(19)
H20 H 0.1596 0.3859 -0.1625
C26 C 0.14631(9) 0.55454(9) -0.10875(19)
C27 C 0.33257(11) 0.64325(10) 0.5454(2)
H21 H 0.3528 0.6658 0.6556
C28 C 0.19605(11) 0.40846(10) -0.3370(2)
H22 H 0.2511 0.4266 -0.3112
H23 H 0.1914 0.3501 -0.3558
C29 C 0.51893(11) 0.57231(11) 0.3560(2)
H24 H 0.5512 0.5565 0.3077
H25 H 0.5443 0.5487 0.4711
H26 H 0.5193 0.6305 0.3652
loop_
_geom_bond_atom_site_label_1
_geom_bond_atom_site_label_2
_geom_bond_site_symmetry_1
_geom_bond_site_symmetry_2
O1 C15 1_555 1_555
O2 C3 1_555 1_555
O3 C3 1_555 1_555
C1 C2 1_555 1_555
N1 H1 1_555 1_555
C2 C10 1_555 1_555
N2 C18 1_555 1_555
C3 C22 1_555 1_555
C4 H2 1_555 1_555
C5 H3 1_555 1_555
C6 H4 1_555 1_555
C7 H5 1_555 1_555
C8 C13 1_555 1_555
C9 C4 1_555 1_555
C10 C6 1_555 1_555
H6 C10 1_555 1_555
C11 C1 1_555 1_555
C12 C7 1_555 1_555
H7 C12 1_555 1_555
C13 N1 1_555 1_555
C14 C8 1_555 1_555
H8 C14 1_555 1_555
C15 N1 1_555 1_555
C16 C12 1_555 1_555
H9 C16 1_555 1_555
C17 H10 1_555 1_555
C18 H11 1_555 1_555
H12 C18 1_555 1_555
C19 C18 1_555 1_555
H13 C19 1_555 1_555
H14 C19 1_555 1_555
C20 C2 1_555 1_555
H15 C20 1_555 1_555
C21 C5 1_555 1_555
H16 C21 1_555 1_555
C22 C1 1_555 1_555
H17 C22 1_555 1_555
C23 C4 1_555 1_555
H18 C23 1_555 1_555
C24 C14 1_555 1_555
H19 C24 1_555 1_555
C25 N2 1_555 1_555
H20 C25 1_555 1_555
C26 C1 1_555 1_555
C27 C6 1_555 1_555
H21 C27 1_555 1_555
C28 C19 1_555 1_555
H22 C28 1_555 1_555
H23 C28 1_555 1_555
C29 O3 1_555 1_555
H24 C29 1_555 1_555
H25 C29 1_555 1_555
H26 C29 1_555 1_555
N2 C26 1_555 1_555
C5 C13 1_555 1_555
C7 C9 1_555 1_555
C8 C26 1_555 1_555
C9 C11 1_555 1_555
C11 C22 1_555 1_555
C11 C25 1_555 1_555
C15 C26 1_555 1_555
C16 C23 1_555 1_555
C17 C20 1_555 1_555
C17 C27 1_555 1_555
C21 C24 1_555 1_555
C25 C28 1_555 1_555

#END
