
#######################################################################
#
#                 Cambridge Crystallographic Data Centre
#                                CCDC 
#
#######################################################################
#
# If this CIF has been generated from an entry in the Cambridge 
# Structural Database, then it will include bibliographic, chemical, 
# crystal, experimental, refinement or atomic coordinate data resulting 
# from the CCDC's data processing and validation procedures.
#
#######################################################################

data_BALBEW
_chemical_formula_moiety         'C9 H15 I1 O2'
_chemical_name_systematic        
cis-4-Iodomethyl-3-isopropyltetrahydro-2H-pyran-2-one
_symmetry_cell_setting           monoclinic
_symmetry_space_group_name_H-M   'P 21/a'
_symmetry_Int_Tables_number      14
_space_group_name_Hall           '-P 2yab'
loop_
_symmetry_equiv_pos_site_id
_symmetry_equiv_pos_as_xyz
1 x,y,z
2 1/2+x,1/2-y,z
3 -x,-y,-z
4 1/2-x,1/2+y,-z
_cell_length_a                   9.241(3)
_cell_length_b                   10.113(3)
_cell_length_c                   11.632(3)
_cell_angle_alpha                90
_cell_angle_beta                 95.18(2)
_cell_angle_gamma                90
_cell_volume                     1082.62
_exptl_crystal_colour            colorless
_exptl_crystal_description       prismatic
_chemical_melting_point          87-88deg.C
_cell_formula_units_Z            4
loop_
_atom_site_label
_atom_site_type_symbol
_atom_site_fract_x
_atom_site_fract_y
_atom_site_fract_z
I1 I 0.07742(6) 0.80957(5) 0.20504(5)
O1 O -0.0255(7) 0.2890(6) 0.3822(6)
O2 O 0.1403(6) 0.3973(5) 0.4896(5)
C1 C 0.0871(9) 0.3521(7) 0.3873(7)
C2 C 0.1707(7) 0.3858(6) 0.2884(6)
C3 C 0.1885(7) 0.5399(6) 0.2857(6)
C4 C 0.2468(9) 0.5898(8) 0.4056(7)
C5 C 0.2702(9) 0.4777(8) 0.4919(7)
C6 C 0.0456(9) 0.6063(7) 0.2492(7)
C7 C 0.1119(9) 0.3223(8) 0.1731(8)
C8 C 0.128(1) 0.1725(8) 0.1792(10)
C9 C 0.189(1) 0.375(1) 0.0728(8)
H1 H 0.2667 0.3505 0.3061
H2 H 0.2675 0.5585 0.2246
H3 H 0.1767 0.6501 0.4317
H4 H 0.3349 0.6371 0.3985
H5 H 0.2960 0.5118 0.5669
H6 H 0.3513 0.4239 0.4708
H7 H -0.0163 0.6009 0.3110
H8 H -0.0018 0.5604 0.1839
H9 H 0.0093 0.3436 0.1603
H10 H 0.2309 0.1519 0.1901
H11 H 0.0828 0.1381 0.2420
H12 H 0.0894 0.1333 0.1093
H13 H 0.2888 0.3556 0.0821
H14 H 0.1475 0.3377 0.0010
H15 H 0.1772 0.4702 0.0660
loop_
_geom_bond_atom_site_label_1
_geom_bond_atom_site_label_2
_geom_bond_site_symmetry_1
_geom_bond_site_symmetry_2
I1 C6 1_555 1_555
O1 C1 1_555 1_555
O2 C1 1_555 1_555
C1 C2 1_555 1_555
C2 C3 1_555 1_555
C3 C4 1_555 1_555
C4 C5 1_555 1_555
C5 O2 1_555 1_555
C6 C3 1_555 1_555
C7 C2 1_555 1_555
C8 C7 1_555 1_555
C9 C7 1_555 1_555
H1 C2 1_555 1_555
H2 C3 1_555 1_555
H3 C4 1_555 1_555
H4 C4 1_555 1_555
H5 C5 1_555 1_555
H6 C5 1_555 1_555
H7 C6 1_555 1_555
H8 C6 1_555 1_555
H9 C7 1_555 1_555
H10 C8 1_555 1_555
H11 C8 1_555 1_555
H12 C8 1_555 1_555
H13 C9 1_555 1_555
H14 C9 1_555 1_555
H15 C9 1_555 1_555

#END
