
#######################################################################
#
#                 Cambridge Crystallographic Data Centre
#                                CCDC 
#
#######################################################################
#
# If this CIF has been generated from an entry in the Cambridge 
# Structural Database, then it will include bibliographic, chemical, 
# crystal, experimental, refinement or atomic coordinate data resulting 
# from the CCDC's data processing and validation procedures.
#
#######################################################################

data_BALBOG
_chemical_formula_moiety         'C10 H17 I1 O2'
_chemical_name_systematic        
trans-4-Iodomethyl-3-t-butyltetrahydro-2H-pyran-2-one
_symmetry_cell_setting           monoclinic
_symmetry_space_group_name_H-M   'P 21/n'
_symmetry_Int_Tables_number      14
_space_group_name_Hall           '-P 2yn'
loop_
_symmetry_equiv_pos_site_id
_symmetry_equiv_pos_as_xyz
1 x,y,z
2 1/2+x,1/2-y,1/2+z
3 -x,-y,-z
4 1/2-x,1/2+y,1/2-z
_cell_length_a                   6.816(4)
_cell_length_b                   7.926(3)
_cell_length_c                   21.290(4)
_cell_angle_alpha                90
_cell_angle_beta                 94.67(4)
_cell_angle_gamma                90
_cell_volume                     1146.34
_exptl_crystal_colour            colorless
_exptl_crystal_description       prismatic
_chemical_melting_point          111-112deg.C
_cell_formula_units_Z            4
loop_
_atom_site_label
_atom_site_type_symbol
_atom_site_fract_x
_atom_site_fract_y
_atom_site_fract_z
I1 I 0.27008(5) 0.03325(4) 0.43075(2)
O1 O -0.4555(4) 0.3814(4) 0.2571(1)
O2 O -0.1558(4) 0.4567(4) 0.2432(1)
C1 C -0.2903(5) 0.3946(5) 0.2799(2)
C2 C -0.2309(5) 0.3496(4) 0.3483(2)
C3 C -0.0141(5) 0.2844(4) 0.3610(2)
C4 C 0.0902(5) 0.2810(5) 0.3006(2)
C5 C 0.0532(6) 0.4415(5) 0.2640(2)
C6 C -0.2808(5) 0.4973(5) 0.3935(2)
C7 C -0.1524(7) 0.6529(5) 0.3861(2)
C8 C -0.4961(7) 0.5508(6) 0.3814(2)
C9 C -0.2526(6) 0.4309(5) 0.4618(2)
C10 C -0.0182(5) 0.1126(5) 0.3916(2)
H1 H -0.3182 0.2530 0.3564
H2 H 0.0533 0.3694 0.3917
H3 H 0.0449 0.1775 0.2782
H4 H 0.2332 0.2746 0.3093
H5 H 0.1236 0.4253 0.2212
H6 H 0.0926 0.5436 0.2882
H7 H -0.0263 0.6291 0.3940
H8 H -0.1731 0.7041 0.3435
H9 H -0.1883 0.7398 0.4119
H10 H -0.5339 0.6080 0.3412
H11 H -0.5510 0.6326 0.4054
H12 H -0.5802 0.4564 0.3845
H13 H -0.2711 0.5435 0.4861
H14 H -0.3418 0.3356 0.4648
H15 H -0.1144 0.3884 0.4751
H16 H -0.1014 0.1137 0.4248
H17 H -0.0585 0.0226 0.3597
loop_
_geom_bond_atom_site_label_1
_geom_bond_atom_site_label_2
_geom_bond_site_symmetry_1
_geom_bond_site_symmetry_2
I1 C10 1_555 1_555
O1 C1 1_555 1_555
O2 C1 1_555 1_555
C1 C2 1_555 1_555
C2 C3 1_555 1_555
C3 C4 1_555 1_555
C4 C5 1_555 1_555
C5 O2 1_555 1_555
C6 C2 1_555 1_555
C7 C6 1_555 1_555
C8 C6 1_555 1_555
C9 C6 1_555 1_555
C10 C3 1_555 1_555
H1 C2 1_555 1_555
H2 C3 1_555 1_555
H3 C4 1_555 1_555
H4 C4 1_555 1_555
H5 C5 1_555 1_555
H6 C5 1_555 1_555
H7 C7 1_555 1_555
H8 C7 1_555 1_555
H9 C7 1_555 1_555
H10 C8 1_555 1_555
H11 C8 1_555 1_555
H12 C8 1_555 1_555
H13 C9 1_555 1_555
H14 C9 1_555 1_555
H15 C9 1_555 1_555
H16 C10 1_555 1_555
H17 C10 1_555 1_555

#END
