
#######################################################################
#
#                 Cambridge Crystallographic Data Centre
#                                CCDC 
#
#######################################################################
#
# If this CIF has been generated from an entry in the Cambridge 
# Structural Database, then it will include bibliographic, chemical, 
# crystal, experimental, refinement or atomic coordinate data resulting 
# from the CCDC's data processing and validation procedures.
#
#######################################################################

data_BALCEX
_chemical_formula_moiety         'C12 H18 I2 O4'
_chemical_name_systematic        
cis-5,12-Di-iodo-1,8-dioxacyclotetradecane-2,9-dione
_symmetry_cell_setting           monoclinic
_symmetry_space_group_name_H-M   'P 21/c'
_symmetry_Int_Tables_number      14
_space_group_name_Hall           '-P 2ybc'
loop_
_symmetry_equiv_pos_site_id
_symmetry_equiv_pos_as_xyz
1 x,y,z
2 x,1/2-y,1/2+z
3 -x,-y,-z
4 -x,1/2+y,1/2-z
_cell_length_a                   9.377(3)
_cell_length_b                   9.892(4)
_cell_length_c                   16.643(5)
_cell_angle_alpha                90
_cell_angle_beta                 93.58(3)
_cell_angle_gamma                90
_cell_volume                     1540.75
_exptl_crystal_colour            colorless
_exptl_crystal_description       prismatic
_cell_formula_units_Z            4
loop_
_atom_site_label
_atom_site_type_symbol
_atom_site_fract_x
_atom_site_fract_y
_atom_site_fract_z
I1 I 0.76826(5) 0.07539(5) 0.20516(3)
I2 I 0.70426(5) 0.49595(4) 0.39544(3)
O1 O 1.1444(5) 0.0629(5) 0.4556(3)
O2 O 1.0214(4) 0.2045(4) 0.3729(2)
O3 O 0.3796(6) 0.1504(6) 0.3219(3)
O4 O 0.5428(4) 0.0284(4) 0.3920(2)
C1 C 1.0885(6) 0.0868(7) 0.3920(4)
C2 C 1.0812(7) -0.0066(7) 0.3205(4)
C3 C 0.9521(7) -0.1014(6) 0.3204(4)
C4 C 0.8075(6) -0.0356(5) 0.3175(3)
C5 C 0.6873(7) -0.1354(6) 0.3293(4)
C6 C 0.5411(7) -0.0742(6) 0.3280(4)
C7 C 0.4607(6) 0.1370(7) 0.3790(4)
C8 C 0.4751(7) 0.2352(7) 0.4478(4)
C9 C 0.6219(6) 0.2463(6) 0.4902(3)
C10 C 0.7421(6) 0.2911(5) 0.4398(3)
C11 C 0.8871(6) 0.2820(6) 0.4845(3)
C12 C 1.0154(6) 0.3046(6) 0.4350(4)
H1 H 1.0739 0.0472 0.2723
H2 H 1.1661 -0.0587 0.3207
H3 H 0.9620 -0.1552 0.3671
H4 H 0.9546 -0.1583 0.2738
H5 H 0.8010 0.0348 0.3480
H6 H 0.7052 -0.1799 0.3791
H7 H 0.6867 -0.2004 0.2866
H8 H 0.5176 -0.0338 0.2774
H9 H 0.4726 -0.1424 0.3381
H10 H 0.4101 0.2091 0.4864
H11 H 0.4497 0.3225 0.4274
H12 H 0.6167 0.3079 0.5333
H13 H 0.6467 0.1587 0.5111
H14 H 0.7449 0.2443 0.3907
H15 H 0.8953 0.1937 0.5075
H16 H 0.8903 0.3472 0.5263
H17 H 1.0094 0.3915 0.4115
H18 H 1.1003 0.2984 0.4696
loop_
_geom_bond_atom_site_label_1
_geom_bond_atom_site_label_2
_geom_bond_site_symmetry_1
_geom_bond_site_symmetry_2
I1 C4 1_555 1_555
I2 C10 1_555 1_555
O1 C1 1_555 1_555
O2 C1 1_555 1_555
O3 C7 1_555 1_555
O4 C6 1_555 1_555
C1 C2 1_555 1_555
C2 C3 1_555 1_555
C3 C4 1_555 1_555
C4 C5 1_555 1_555
C5 C6 1_555 1_555
C6 H8 1_555 1_555
C7 O4 1_555 1_555
C8 C7 1_555 1_555
C9 C8 1_555 1_555
C10 C9 1_555 1_555
C11 C10 1_555 1_555
C12 O2 1_555 1_555
H1 C2 1_555 1_555
H2 C2 1_555 1_555
H3 C3 1_555 1_555
H4 C3 1_555 1_555
H5 C4 1_555 1_555
H6 C5 1_555 1_555
H7 C5 1_555 1_555
H9 C6 1_555 1_555
H10 C8 1_555 1_555
H11 C8 1_555 1_555
H12 C9 1_555 1_555
H13 C9 1_555 1_555
H14 C10 1_555 1_555
H15 C11 1_555 1_555
H16 C11 1_555 1_555
H17 C12 1_555 1_555
H18 C12 1_555 1_555
C11 C12 1_555 1_555

#END
