
#######################################################################
#
#                 Cambridge Crystallographic Data Centre
#                                CCDC 
#
#######################################################################
#
# If this CIF has been generated from an entry in the Cambridge 
# Structural Database, then it will include bibliographic, chemical, 
# crystal, experimental, refinement or atomic coordinate data resulting 
# from the CCDC's data processing and validation procedures.
#
#######################################################################

data_BALCIB
_chemical_formula_moiety         'C12 H18 I2 O4'
_chemical_name_systematic        
trans-5,12-Di-iodo-1,8-dioxacyclotetradecane-2,9-dione
_symmetry_cell_setting           monoclinic
_symmetry_space_group_name_H-M   'P 21/c'
_symmetry_Int_Tables_number      14
_space_group_name_Hall           '-P 2ybc'
loop_
_symmetry_equiv_pos_site_id
_symmetry_equiv_pos_as_xyz
1 x,y,z
2 x,1/2-y,1/2+z
3 -x,-y,-z
4 -x,1/2+y,1/2-z
_cell_length_a                   6.395(1)
_cell_length_b                   6.741(1)
_cell_length_c                   17.932(4)
_cell_angle_alpha                90
_cell_angle_beta                 98.22(2)
_cell_angle_gamma                90
_cell_volume                     765.083
_exptl_crystal_colour            colorless
_exptl_crystal_description       prismatic
_cell_formula_units_Z            2
loop_
_atom_site_label
_atom_site_type_symbol
_atom_site_fract_x
_atom_site_fract_y
_atom_site_fract_z
I1 I 0.20091(5) 0.08155(5) 0.29432(2)
O1 O 1.0150(6) 0.2567(5) 0.4996(2)
O2 O 0.6669(5) 0.2973(5) 0.4647(2)
C1 C 0.8430(7) 0.2941(6) 0.5155(3)
C2 C 0.7972(9) 0.3491(8) 0.5929(3)
C3 C 0.6908(7) 0.2443(7) 0.3882(3)
C4 C 0.6496(7) 0.0267(7) 0.3749(2)
C5 C 0.4292(7) -0.0431(6) 0.3851(2)
C6 C 0.4108(8) -0.2673(7) 0.3861(3)
H1 H 0.9173 0.2820 0.6282
H2 H 0.7892 0.4814 0.5961
H3 H 0.8306 0.2873 0.3806
H4 H 0.5848 0.3187 0.3485
H5 H 0.6689 0.0002 0.3242
H6 H 0.7540 -0.0489 0.4140
H7 H 0.3709 0.0064 0.4307
H8 H 0.4262 -0.3343 0.3381
H9 H 0.4972 -0.3287 0.4246
C6B C 0.5892(8) 0.2673(7) 0.6139(3)
C5B C 0.5708(7) 0.0431(6) 0.6149(2)
I1B I 0.79909(5) -0.08155(5) 0.70568(2)
C4B C 0.3504(7) -0.0267(7) 0.6251(2)
C3B C 0.3092(7) -0.2443(7) 0.6118(3)
O2B O 0.3331(5) -0.2973(5) 0.5353(2)
C1B C 0.1570(7) -0.2941(6) 0.4845(3)
O1B O -0.0150(6) -0.2567(5) 0.5004(2)
C2B C 0.2028(9) -0.3491(8) 0.4071(3)
H1B H 0.0827 -0.2820 0.3718
H2B H 0.2108 -0.4814 0.4039
H3B H 0.1694 -0.2873 0.6194
H4B H 0.4152 -0.3187 0.6515
H5B H 0.3311 -0.0002 0.6758
H6B H 0.2460 0.0489 0.5860
H7B H 0.6291 -0.0064 0.5693
H8B H 0.5738 0.3343 0.6619
H9B H 0.5028 0.3287 0.5754
loop_
_geom_bond_atom_site_label_1
_geom_bond_atom_site_label_2
_geom_bond_site_symmetry_1
_geom_bond_site_symmetry_2
I1 C5 1_555 1_555
O1 C1 1_555 1_555
O2 C1 1_555 1_555
C1 C2 1_555 1_555
C2 H1 1_555 1_555
C3 O2 1_555 1_555
C4 C3 1_555 1_555
C5 C4 1_555 1_555
C6 C5 1_555 1_555
H2 C2 1_555 1_555
H3 C3 1_555 1_555
H4 C3 1_555 1_555
H5 C4 1_555 1_555
H6 C4 1_555 1_555
H7 C5 1_555 1_555
H8 C6 1_555 1_555
H9 C6 1_555 1_555
C6B C2 1_555 1_555
C5B C6B 1_555 1_555
I1B C5B 1_555 1_555
C4B C5B 1_555 1_555
C3B C4B 1_555 1_555
O2B C3B 1_555 1_555
C1B O2B 1_555 1_555
O1B C1B 1_555 1_555
C2B C6 1_555 1_555
H1B C2B 1_555 1_555
H2B C2B 1_555 1_555
H3B C3B 1_555 1_555
H4B C3B 1_555 1_555
H5B C4B 1_555 1_555
H6B C4B 1_555 1_555
H7B C5B 1_555 1_555
H8B C6B 1_555 1_555
H9B C6B 1_555 1_555
C1B C2B 1_555 1_555

#END
