
#######################################################################
#
#                 Cambridge Crystallographic Data Centre
#                                CCDC 
#
#######################################################################
#
# If this CIF has been generated from an entry in the Cambridge 
# Structural Database, then it will include bibliographic, chemical, 
# crystal, experimental, refinement or atomic coordinate data resulting 
# from the CCDC's data processing and validation procedures.
#
#######################################################################

data_BALCEZ
_chemical_formula_moiety         'C34 H32 N2 O1'
_chemical_name_systematic        
1'-methyl-1,1a,6b-triphenyl-1',1a,2',4,5,6,6a,6b-octahydro-1H-spiro[cyclopropa[a]pyrrolizine-2,3'-indol]-2'-ol
_symmetry_cell_setting           monoclinic
_symmetry_space_group_name_H-M   'P 21/n'
_symmetry_Int_Tables_number      14
_space_group_name_Hall           '-P 2yn'
loop_
_symmetry_equiv_pos_site_id
_symmetry_equiv_pos_as_xyz
1 x,y,z
2 1/2-x,1/2+y,1/2-z
3 -x,-y,-z
4 1/2+x,1/2-y,1/2+z
_cell_length_a                   11.15402(15)
_cell_length_b                   17.9078(3)
_cell_length_c                   12.87201(20)
_cell_angle_alpha                90
_cell_angle_beta                 95.1831(13)
_cell_angle_gamma                90
_cell_volume                     2560.59
_exptl_crystal_colour            colorless
_exptl_crystal_description       prism
_cell_formula_units_Z            4
loop_
_atom_site_label
_atom_site_type_symbol
_atom_site_fract_x
_atom_site_fract_y
_atom_site_fract_z
O1 O 0.30513(8) 0.69917(5) 0.32761(8)
H1 H 0.3159 0.7122 0.2681
N1 N 0.18237(9) 0.67031(6) 0.14656(8)
N2 N 0.32653(9) 0.56881(6) 0.30273(8)
C1 C 0.11124(10) 0.74037(7) 0.13461(10)
H2 H 0.1587 0.7814 0.1677
C2 C 0.24577(10) 0.63027(7) 0.32455(10)
H3 H 0.2123 0.6214 0.3913
C3 C -0.06883(10) 0.65761(7) 0.15969(9)
H4 H -0.0368 0.6329 0.1001
C4 C 0.19131(12) 0.70634(8) -0.02700(10)
H5 H 0.1695 0.6929 -0.0992
H6 H 0.2681 0.7321 -0.0218
C5 C -0.11972(14) 0.56273(9) 0.47955(11)
H7 H -0.1677 0.5213 0.4892
C6 C -0.27051(11) 0.67784(7) 0.23669(10)
H8 H -0.2333 0.7059 0.2912
C7 C 0.19588(11) 0.63764(7) 0.04340(10)
H9 H 0.1307 0.6034 0.0228
H10 H 0.2720 0.6116 0.0425
C8 C 0.09325(12) 0.75444(7) 0.01625(10)
H11 H 0.0137 0.7389 -0.0122
H12 H 0.1041 0.8068 0.0004
C9 C -0.06772(10) 0.79814(7) 0.21714(10)
C10 C -0.00109(10) 0.72859(7) 0.19255(9)
C11 C 0.05984(11) 0.49363(7) 0.16171(9)
H13 H -0.0153 0.5116 0.1360
C12 C 0.02065(10) 0.65779(6) 0.25771(9)
C13 C -0.20158(10) 0.64794(7) 0.16081(9)
C14 C 0.20138(13) 0.39169(7) 0.18782(10)
H14 H 0.2206 0.3419 0.1773
C15 C 0.02247(12) 0.68581(7) 0.45044(10)
H15 H 0.0715 0.7269 0.4415
C16 C 0.08891(13) 0.41828(7) 0.15022(10)
H16 H 0.0326 0.3858 0.1172
C17 C 0.25595(11) 0.51304(7) 0.25285(9)
C18 C 0.14290(10) 0.62469(7) 0.23335(9)
C19 C -0.08025(13) 0.60674(9) 0.56402(11)
H17 H -0.1014 0.5949 0.6303
C20 C -0.10032(12) 0.90656(8) 0.32303(11)
H18 H -0.0809 0.9339 0.3837
C21 C -0.01818(10) 0.64248(7) 0.36407(9)
C22 C -0.00925(13) 0.66838(8) 0.54935(10)
H19 H 0.0173 0.6983 0.6059
C23 C -0.39388(12) 0.66589(8) 0.23105(11)
H20 H -0.4384 0.6857 0.2822
C24 C -0.18919(12) 0.93207(8) 0.25003(12)
H21 H -0.2295 0.9764 0.2612
C25 C 0.41894(11) 0.54853(8) 0.38468(11)
H22 H 0.4542 0.5930 0.4159
H23 H 0.4801 0.5196 0.3555
H24 H 0.3836 0.5196 0.4368
C26 C -0.26079(11) 0.60656(7) 0.07992(10)
H25 H -0.2168 0.5861 0.0289
C27 C -0.15749(12) 0.82479(8) 0.14362(11)
H26 H -0.1772 0.7978 0.0828
C28 C -0.08818(12) 0.58000(8) 0.38051(10)
H27 H -0.1141 0.5495 0.3245
C29 C -0.03963(11) 0.84028(7) 0.30663(10)
H28 H 0.0205 0.8240 0.3562
C30 C -0.45157(12) 0.62474(9) 0.15000(11)
H29 H -0.5343 0.6169 0.1466
C31 C 0.14431(10) 0.54133(7) 0.21185(9)
C32 C 0.28593(12) 0.43825(7) 0.24101(10)
H30 H 0.3604 0.4199 0.2679
C33 C -0.38471(12) 0.59546(8) 0.07438(11)
H31 H -0.4228 0.5682 0.0194
C34 C -0.21765(13) 0.89108(8) 0.16013(12)
H32 H -0.2773 0.9080 0.1105
loop_
_geom_bond_atom_site_label_1
_geom_bond_atom_site_label_2
_geom_bond_site_symmetry_1
_geom_bond_site_symmetry_2
O1 H1 1_555 1_555
N1 C1 1_555 1_555
N2 C2 1_555 1_555
C1 H2 1_555 1_555
C2 O1 1_555 1_555
H3 C2 1_555 1_555
C3 H4 1_555 1_555
C4 H5 1_555 1_555
H6 C4 1_555 1_555
C5 H7 1_555 1_555
C6 H8 1_555 1_555
C7 N1 1_555 1_555
H9 C7 1_555 1_555
H10 C7 1_555 1_555
C8 C1 1_555 1_555
H11 C8 1_555 1_555
H12 C8 1_555 1_555
C9 C10 1_555 1_555
C10 C1 1_555 1_555
C11 H13 1_555 1_555
C12 C3 1_555 1_555
C13 C3 1_555 1_555
C14 H14 1_555 1_555
C15 H15 1_555 1_555
C16 C11 1_555 1_555
H16 C16 1_555 1_555
C17 N2 1_555 1_555
C18 N1 1_555 1_555
C19 C5 1_555 1_555
H17 C19 1_555 1_555
C20 H18 1_555 1_555
C21 C12 1_555 1_555
C22 C15 1_555 1_555
H19 C22 1_555 1_555
C23 C6 1_555 1_555
H20 C23 1_555 1_555
C24 C20 1_555 1_555
H21 C24 1_555 1_555
C25 N2 1_555 1_555
H22 C25 1_555 1_555
H23 C25 1_555 1_555
H24 C25 1_555 1_555
C26 C13 1_555 1_555
H25 C26 1_555 1_555
C27 C9 1_555 1_555
H26 C27 1_555 1_555
C28 C5 1_555 1_555
H27 C28 1_555 1_555
C29 C9 1_555 1_555
H28 C29 1_555 1_555
C30 C23 1_555 1_555
H29 C30 1_555 1_555
C31 C11 1_555 1_555
C32 C14 1_555 1_555
H30 C32 1_555 1_555
C33 C26 1_555 1_555
H31 C33 1_555 1_555
C34 C24 1_555 1_555
H32 C34 1_555 1_555
C2 C18 1_555 1_555
C3 C10 1_555 1_555
C4 C7 1_555 1_555
C4 C8 1_555 1_555
C6 C13 1_555 1_555
C10 C12 1_555 1_555
C12 C18 1_555 1_555
C14 C16 1_555 1_555
C15 C21 1_555 1_555
C17 C31 1_555 1_555
C17 C32 1_555 1_555
C18 C31 1_555 1_555
C19 C22 1_555 1_555
C20 C29 1_555 1_555
C21 C28 1_555 1_555
C27 C34 1_555 1_555
C30 C33 1_555 1_555

#END
