
#######################################################################
#
#                 Cambridge Crystallographic Data Centre
#                                CCDC 
#
#######################################################################
#
# If this CIF has been generated from an entry in the Cambridge 
# Structural Database, then it will include bibliographic, chemical, 
# crystal, experimental, refinement or atomic coordinate data resulting 
# from the CCDC's data processing and validation procedures.
#
#######################################################################

data_BALDUO
_chemical_formula_moiety         'C6 H4 N2 O5,C8 H15 N1 O2'
_chemical_name_systematic        
'2-(N-Methylpiperidinium)acetate 2,4-dinitrophenol'
_symmetry_cell_setting           orthorhombic
_symmetry_space_group_name_H-M   'F d d 2'
_symmetry_Int_Tables_number      43
_space_group_name_Hall           'F 2 -2d'
loop_
_symmetry_equiv_pos_site_id
_symmetry_equiv_pos_as_xyz
1 x,y,z
2 -x,-y,z
3 1/4+x,1/4-y,1/4+z
4 1/4-x,1/4+y,1/4+z
5 x,1/2+y,1/2+z
6 -x,1/2-y,1/2+z
7 1/4+x,3/4-y,3/4+z
8 1/4-x,3/4+y,3/4+z
9 1/2+x,y,1/2+z
10 1/2-x,-y,1/2+z
11 3/4+x,1/4-y,3/4+z
12 3/4-x,1/4+y,3/4+z
13 1/2+x,1/2+y,z
14 1/2-x,1/2-y,z
15 3/4+x,3/4-y,1/4+z
16 3/4-x,3/4+y,1/4+z
_cell_length_a                   41.854(8)
_cell_length_b                   44.000(9)
_cell_length_c                   6.9270(10)
_cell_angle_alpha                90
_cell_angle_beta                 90
_cell_angle_gamma                90
_cell_volume                     12756.6
_exptl_crystal_description       plates
_chemical_melting_point          132-133deg.C
_cell_formula_units_Z            32
_exptl_crystal_recrystallization_method acetonitrile/methanol(1:5)
loop_
_atom_site_label
_atom_site_type_symbol
_atom_site_fract_x
_atom_site_fract_y
_atom_site_fract_z
O1 O 0.16177(12) -0.00250(10) 0.5506(7)
H1 H 0.1763(10) 0.0052(10) 0.536(6)
C1 C 0.13784(15) 0.01611(14) 0.5198(8)
C2 C 0.10680(15) 0.00484(13) 0.5200(8)
N1 N 0.10193(13) -0.02808(12) 0.5556(9)
O2 O 0.08333(12) -0.04190(10) 0.4498(7)
O3 O 0.11558(11) -0.03999(10) 0.6928(8)
C3 C 0.07965(14) 0.02226(13) 0.4838(8)
H2 H 0.0593 0.0138 0.4809
C4 C 0.08487(15) 0.05249(14) 0.4531(9)
N2 N 0.05681(15) 0.07162(14) 0.4167(7)
O4 O 0.06154(12) 0.09840(11) 0.3750(8)
O5 O 0.02997(12) 0.06019(11) 0.4251(7)
C5 C 0.11488(15) 0.06563(13) 0.4533(8)
H3 H 0.1172 0.0864 0.4324
C6 C 0.14130(15) 0.04754(14) 0.4850(8)
H4 H 0.1616 0.0561 0.4833
N3 N 0.28754(11) 0.05704(10) 0.4318(7)
C7 C 0.28250(14) 0.08463(12) 0.5557(8)
H5 H 0.2599 0.0894 0.5589
H6 H 0.2935 0.1018 0.4977
C8 C 0.29443(16) 0.08052(14) 0.7618(9)
H7 H 0.2908 0.0991 0.8342
H8 H 0.2825 0.0643 0.8237
C9 C 0.32977(14) 0.07290(15) 0.7645(10)
H9 H 0.3367 0.0692 0.8960
H10 H 0.3420 0.0898 0.7135
C10 C 0.33537(14) 0.04469(13) 0.6415(9)
H11 H 0.3581 0.0402 0.6385
H12 H 0.3246 0.0275 0.7001
C11 C 0.32339(13) 0.04875(12) 0.4377(9)
H13 H 0.3268 0.0301 0.3661
H14 H 0.3356 0.0647 0.3751
C12 C 0.28005(15) 0.06447(14) 0.2256(8)
H15 H 0.2576 0.0690 0.2210
H16 H 0.2844 0.0471 0.1462
H17 H 0.2919 0.0816 0.1790
C13 C 0.26809(14) 0.02985(12) 0.4931(9)
H18 H 0.2741 0.0246 0.6242
H19 H 0.2739 0.0128 0.4112
C14 C 0.23152(17) 0.03362(17) 0.4862(10)
O6 O 0.21816(9) 0.00750(10) 0.5078(7)
O7 O 0.21873(10) 0.05814(10) 0.4597(8)
O8 O 0.06508(10) 0.05197(9) 0.9773(7)
H20 H 0.053(2) 0.034(2) 1.064(14)
C15 C 0.09585(17) 0.05594(13) 0.9697(8)
C16 C 0.11044(15) 0.08482(11) 0.9498(8)
N4 N 0.09056(15) 0.11204(13) 0.9282(8)
O9 O 0.10262(12) 0.13665(10) 0.9698(9)
O10 O 0.06337(12) 0.11025(10) 0.8704(9)
C17 C 0.14349(14) 0.08898(13) 0.9473(9)
H21 H 0.1523 0.1083 0.9344
C18 C 0.16237(14) 0.06412(13) 0.9641(9)
N5 N 0.19737(13) 0.06815(15) 0.9584(8)
O11 O 0.21400(11) 0.04548(10) 0.9589(8)
O12 O 0.20794(10) 0.09448(10) 0.9468(8)
C19 C 0.15007(16) 0.03529(13) 0.9845(8)
H22 H 0.1637 0.0187 0.9959
C20 C 0.11751(16) 0.03118(14) 0.9881(9)
H23 H 0.1094 0.0116 1.0029
N6 N 0.02797(11) -0.07636(10) 0.9735(8)
C21 C 0.01639(15) -0.10118(14) 1.1068(10)
H24 H 0.0131 -0.1196 1.0326
H25 H -0.0040 -0.0953 1.1611
C22 C 0.03979(19) -0.10783(16) 1.2719(9)
H26 H 0.0319 -0.1247 1.3479
H27 H 0.0412 -0.0902 1.3556
C23 C 0.07356(19) -0.11566(17) 1.1923(13)
H28 H 0.0885 -0.1178 1.2985
H29 H 0.0728 -0.1348 1.1228
C24 C 0.08456(15) -0.09067(16) 1.0589(11)
H30 H 0.0874 -0.0721 1.1323
H31 H 0.1050 -0.0962 1.0032
C25 C 0.06092(14) -0.08519(13) 0.9000(9)
H32 H 0.0591 -0.1035 0.8226
H33 H 0.0689 -0.0691 0.8171
C26 C 0.00553(16) -0.07518(17) 0.8073(10)
H34 H -0.0140 -0.0693 0.8701
H35 H 0.0022 -0.0939 0.7385
H36 H 0.0119 -0.0596 0.7182
C27 C 0.02767(14) -0.04694(12) 1.0824(9)
H37 H 0.0401 -0.0496 1.1995
H38 H 0.0058 -0.0427 1.1207
C28 C 0.04059(15) -0.01916(15) 0.9759(12)
O13 O 0.04229(10) 0.00404(11) 1.0891(6)
O14 O 0.04719(13) -0.01889(10) 0.8075(7)
loop_
_geom_bond_atom_site_label_1
_geom_bond_atom_site_label_2
_geom_bond_site_symmetry_1
_geom_bond_site_symmetry_2
O1 H1 1_555 1_555
C1 O1 1_555 1_555
C2 C1 1_555 1_555
N1 C2 1_555 1_555
O2 N1 1_555 1_555
O3 N1 1_555 1_555
C3 C2 1_555 1_555
H2 C3 1_555 1_555
C4 C3 1_555 1_555
N2 C4 1_555 1_555
O4 N2 1_555 1_555
O5 N2 1_555 1_555
C5 C4 1_555 1_555
H3 C5 1_555 1_555
C6 C1 1_555 1_555
H4 C6 1_555 1_555
N3 C7 1_555 1_555
C7 H5 1_555 1_555
H6 C7 1_555 1_555
C8 C7 1_555 1_555
H7 C8 1_555 1_555
H8 C8 1_555 1_555
C9 C8 1_555 1_555
H9 C9 1_555 1_555
H10 C9 1_555 1_555
C10 C9 1_555 1_555
H11 C10 1_555 1_555
H12 C10 1_555 1_555
C11 N3 1_555 1_555
H13 C11 1_555 1_555
H14 C11 1_555 1_555
C12 N3 1_555 1_555
H15 C12 1_555 1_555
H16 C12 1_555 1_555
H17 C12 1_555 1_555
C13 N3 1_555 1_555
H18 C13 1_555 1_555
H19 C13 1_555 1_555
C14 C13 1_555 1_555
O6 C14 1_555 1_555
O7 C14 1_555 1_555
O8 H20 1_555 1_555
C15 O8 1_555 1_555
C16 C15 1_555 1_555
N4 C16 1_555 1_555
O9 N4 1_555 1_555
O10 N4 1_555 1_555
C17 C16 1_555 1_555
H21 C17 1_555 1_555
C18 C17 1_555 1_555
N5 C18 1_555 1_555
O11 N5 1_555 1_555
O12 N5 1_555 1_555
C19 C18 1_555 1_555
H22 C19 1_555 1_555
C20 C15 1_555 1_555
H23 C20 1_555 1_555
N6 C21 1_555 1_555
C21 H24 1_555 1_555
H25 C21 1_555 1_555
C22 C21 1_555 1_555
H26 C22 1_555 1_555
H27 C22 1_555 1_555
C23 C22 1_555 1_555
H28 C23 1_555 1_555
H29 C23 1_555 1_555
C24 C23 1_555 1_555
H30 C24 1_555 1_555
H31 C24 1_555 1_555
C25 N6 1_555 1_555
H32 C25 1_555 1_555
H33 C25 1_555 1_555
C26 N6 1_555 1_555
H34 C26 1_555 1_555
H35 C26 1_555 1_555
H36 C26 1_555 1_555
C27 N6 1_555 1_555
H37 C27 1_555 1_555
H38 C27 1_555 1_555
C28 C27 1_555 1_555
O13 C28 1_555 1_555
O14 C28 1_555 1_555
C5 C6 1_555 1_555
C10 C11 1_555 1_555
C19 C20 1_555 1_555
C24 C25 1_555 1_555

#END
