
#######################################################################
#
#                 Cambridge Crystallographic Data Centre
#                                CCDC 
#
#######################################################################
#
# If this CIF has been generated from an entry in the Cambridge 
# Structural Database, then it will include bibliographic, chemical, 
# crystal, experimental, refinement or atomic coordinate data resulting 
# from the CCDC's data processing and validation procedures.
#
#######################################################################

data_BALJAC
_chemical_formula_moiety         'C31 H19 N1 O3 S1'
_chemical_name_systematic        
'2-(9-phenyl-9H-carbazol-3-yl)-9H-thioxanthen-9-one 10,10-dioxide'
_symmetry_cell_setting           orthorhombic
_symmetry_space_group_name_H-M   'P b c a'
_symmetry_Int_Tables_number      61
_space_group_name_Hall           '-P 2ac 2ab'
loop_
_symmetry_equiv_pos_site_id
_symmetry_equiv_pos_as_xyz
1 x,y,z
2 1/2-x,-y,1/2+z
3 1/2+x,1/2-y,-z
4 -x,1/2+y,1/2-z
5 -x,-y,-z
6 1/2+x,y,1/2-z
7 1/2-x,1/2+y,z
8 x,1/2-y,1/2+z
_cell_length_a                   16.2301(7)
_cell_length_b                   11.6266(5)
_cell_length_c                   24.0550(11)
_cell_angle_alpha                90
_cell_angle_beta                 90
_cell_angle_gamma                90
_cell_volume                     4539.2
_cell_formula_units_Z            8
loop_
_atom_site_label
_atom_site_type_symbol
_atom_site_fract_x
_atom_site_fract_y
_atom_site_fract_z
C1 C 0.81048(14) -0.0392(2) 0.24699(10)
C2 C 0.81867(15) -0.1351(2) 0.21271(11)
H1 H 0.7723 -0.1694 0.1971
C3 C 0.89590(16) -0.1784(2) 0.20210(11)
H2 H 0.9018 -0.2425 0.1793
C4 C 0.96490(15) -0.1272(2) 0.22517(11)
H3 H 1.0170 -0.1561 0.2173
C5 C 0.95661(14) -0.0341(2) 0.25962(10)
H4 H 1.0033 -0.0008 0.2752
C6 C 0.87920(14) 0.0114(2) 0.27170(10)
C7 C 0.87492(15) 0.1105(2) 0.31090(11)
C8 C 0.79390(14) 0.1616(2) 0.32648(10)
C9 C 0.79368(15) 0.2500(2) 0.36475(10)
H5 H 0.8434 0.2723 0.3807
C10 C 0.72194(14) 0.3073(2) 0.38052(10)
C11 C 0.64782(14) 0.2668(2) 0.35789(10)
H6 H 0.5986 0.3017 0.3682
C12 C 0.64606(14) 0.1768(2) 0.32089(10)
H7 H 0.5959 0.1510 0.3069
C13 C 0.71883(14) 0.1240(2) 0.30436(10)
C14 C 0.72520(14) 0.4064(2) 0.41912(10)
C15 C 0.79876(15) 0.4654(2) 0.42853(10)
H8 H 0.8458 0.4450 0.4088
C16 C 0.80237(14) 0.5538(2) 0.46691(10)
C17 C 0.73059(14) 0.5864(2) 0.49589(10)
C18 C 0.65554(15) 0.5325(2) 0.48573(10)
H9 H 0.6078 0.5558 0.5039
C19 C 0.65425(15) 0.4433(2) 0.44794(10)
H10 H 0.6046 0.4060 0.4412
C20 C 0.86879(14) 0.6244(2) 0.48838(10)
C21 C 0.95297(15) 0.6301(2) 0.47762(11)
H11 H 0.9767 0.5840 0.4504
C22 C 1.00066(17) 0.7055(3) 0.50820(12)
H12 H 1.0569 0.7104 0.5011
C23 C 0.96627(16) 0.7741(3) 0.54940(12)
H13 H 1.0000 0.8233 0.5697
C24 C 0.88257(16) 0.7707(2) 0.56079(11)
H14 H 0.8594 0.8168 0.5882
C25 C 0.83477(15) 0.6958(2) 0.52959(10)
C26 C 0.69572(15) 0.7252(2) 0.57230(10)
C27 C 0.68965(16) 0.8429(2) 0.57403(12)
H15 H 0.7209 0.8877 0.5499
C28 C 0.63720(19) 0.8947(3) 0.61151(14)
H16 H 0.6327 0.9744 0.6126
C29 C 0.59119(18) 0.8273(4) 0.64748(14)
H17 H 0.5558 0.8618 0.6729
C30 C 0.59766(17) 0.7107(3) 0.64564(12)
H18 H 0.5663 0.6661 0.6698
C31 C 0.65039(15) 0.6570(3) 0.60830(11)
H19 H 0.6551 0.5774 0.6075
N1 N 0.75028(12) 0.67257(18) 0.53363(8)
O1 O 0.93839(11) 0.14999(17) 0.32997(8)
O2 O 0.68778(11) 0.06856(17) 0.20192(7)
O3 O 0.65703(11) -0.07148(17) 0.27461(8)
S1 S 0.71025(4) 0.01637(6) 0.25376(3)
loop_
_geom_bond_atom_site_label_1
_geom_bond_atom_site_label_2
_geom_bond_site_symmetry_1
_geom_bond_site_symmetry_2
C1 C2 1_555 1_555
C2 H1 1_555 1_555
C3 C2 1_555 1_555
H2 C3 1_555 1_555
C4 C3 1_555 1_555
H3 C4 1_555 1_555
C5 C4 1_555 1_555
H4 C5 1_555 1_555
C6 C1 1_555 1_555
C7 C6 1_555 1_555
C8 C7 1_555 1_555
C9 C8 1_555 1_555
H5 C9 1_555 1_555
C10 C9 1_555 1_555
C11 C10 1_555 1_555
H6 C11 1_555 1_555
C12 C11 1_555 1_555
H7 C12 1_555 1_555
C13 C8 1_555 1_555
C14 C10 1_555 1_555
C15 C14 1_555 1_555
H8 C15 1_555 1_555
C16 C15 1_555 1_555
C17 C16 1_555 1_555
C18 C17 1_555 1_555
H9 C18 1_555 1_555
C19 C14 1_555 1_555
H10 C19 1_555 1_555
C20 C16 1_555 1_555
C21 C20 1_555 1_555
H11 C21 1_555 1_555
C22 C21 1_555 1_555
H12 C22 1_555 1_555
C23 C22 1_555 1_555
H13 C23 1_555 1_555
C24 C23 1_555 1_555
H14 C24 1_555 1_555
C25 C20 1_555 1_555
C26 C27 1_555 1_555
C27 H15 1_555 1_555
C28 C27 1_555 1_555
H16 C28 1_555 1_555
C29 C28 1_555 1_555
H17 C29 1_555 1_555
C30 C29 1_555 1_555
H18 C30 1_555 1_555
C31 C26 1_555 1_555
H19 C31 1_555 1_555
N1 C17 1_555 1_555
O1 C7 1_555 1_555
O2 S1 1_555 1_555
O3 S1 1_555 1_555
S1 C1 1_555 1_555
C5 C6 1_555 1_555
C12 C13 1_555 1_555
C13 S1 1_555 1_555
C18 C19 1_555 1_555
C24 C25 1_555 1_555
C25 N1 1_555 1_555
C26 N1 1_555 1_555
C30 C31 1_555 1_555

#END
