
#######################################################################
#
#                 Cambridge Crystallographic Data Centre
#                                CCDC 
#
#######################################################################
#
# If this CIF has been generated from an entry in the Cambridge 
# Structural Database, then it will include bibliographic, chemical, 
# crystal, experimental, refinement or atomic coordinate data resulting 
# from the CCDC's data processing and validation procedures.
#
#######################################################################

data_BALJEG
_chemical_formula_moiety         'C31 H21 N1 O3 S1'
_chemical_name_systematic        
'2-(4-(diphenylamino)phenyl)-9H-thioxanthen-9-one 10,10-dioxide'
_symmetry_cell_setting           triclinic
_symmetry_space_group_name_H-M   'P -1'
_symmetry_Int_Tables_number      2
_space_group_name_Hall           '-P 1'
loop_
_symmetry_equiv_pos_site_id
_symmetry_equiv_pos_as_xyz
1 x,y,z
2 -x,-y,-z
_cell_length_a                   6.8267(14)
_cell_length_b                   13.109(3)
_cell_length_c                   14.087(3)
_cell_angle_alpha                107.68(3)
_cell_angle_beta                 100.92(3)
_cell_angle_gamma                96.47(3)
_cell_volume                     1159.68
_exptl_crystal_colour            orange
_exptl_crystal_description       Plate
_cell_formula_units_Z            2
loop_
_atom_site_label
_atom_site_type_symbol
_atom_site_fract_x
_atom_site_fract_y
_atom_site_fract_z
S1 S 0.06899(18) 0.77593(10) 0.09617(9)
O1 O 0.3099(5) 1.0050(3) 0.4125(2)
O2 O 0.1207(7) 0.6690(3) 0.0704(3)
O3 O -0.0577(6) 0.8033(4) 0.0174(3)
N1 N 1.4289(5) 1.3135(3) 0.3315(3)
C1 C 0.0457(6) 0.8675(3) 0.2974(3)
C2 C -0.0590(7) 0.8730(4) 0.3759(4)
H1 H -0.0005 0.9227 0.4430
C3 C -0.2441(7) 0.8076(4) 0.3565(4)
H2 H -0.3125 0.8120 0.4100
C4 C -0.3310(7) 0.7349(4) 0.2582(4)
H3 H -0.4585 0.6893 0.2450
C5 C -0.2328(7) 0.7283(4) 0.1791(4)
H4 H -0.2922 0.6789 0.1119
C6 C -0.0472(6) 0.7951(3) 0.2003(3)
C7 C 0.2441(7) 0.9425(3) 0.3254(3)
C8 C 0.3627(6) 0.9391(3) 0.2455(3)
C9 C 0.2952(7) 0.8722(4) 0.1444(3)
C10 C 0.4111(7) 0.8763(4) 0.0727(3)
H5 H 0.3632 0.8313 0.0029
C11 C 0.5956(7) 0.9466(4) 0.1048(3)
H6 H 0.6738 0.9489 0.0562
C12 C 0.6711(6) 1.0148(3) 0.2071(3)
C13 C 0.5511(6) 1.0095(3) 0.2760(3)
H7 H 0.5983 1.0548 0.3457
C14 C 0.8700(6) 1.0915(3) 0.2411(3)
C15 C 0.9452(6) 1.1601(3) 0.3421(3)
H8 H 0.8701 1.1563 0.3917
C16 C 1.1253(6) 1.2334(3) 0.3724(3)
H9 H 1.1696 1.2803 0.4416
C17 C 1.2437(6) 1.2397(3) 0.3030(3)
C18 C 1.1697(7) 1.1704(4) 0.2012(3)
H10 H 1.2466 1.1723 0.1520
C19 C 0.9874(6) 1.0998(3) 0.1718(3)
H11 H 0.9398 1.0551 0.1019
C20 C 1.5634(6) 1.3407(3) 0.4293(3)
C21 C 1.5695(6) 1.2673(4) 0.4828(3)
H12 H 1.4812 1.1985 0.4546
C22 C 1.7040(7) 1.2943(4) 0.5770(3)
H13 H 1.7063 1.2441 0.6135
C23 C 1.8371(7) 1.3946(4) 0.6193(3)
H14 H 1.9299 1.4127 0.6840
C24 C 1.8310(7) 1.4663(4) 0.5657(3)
H15 H 1.9225 1.5340 0.5931
C25 C 1.6941(6) 1.4417(4) 0.4726(3)
H16 H 1.6886 1.4934 0.4379
C26 C 1.4892(7) 1.3553(4) 0.2551(3)
C27 C 1.6765(7) 1.3419(3) 0.2322(3)
H17 H 1.7659 1.3073 0.2670
C28 C 1.7295(7) 1.3807(4) 0.1569(3)
H18 H 1.8574 1.3732 0.1409
C29 C 1.5990(8) 1.4299(4) 0.1052(3)
H19 H 1.6366 1.4553 0.0536
C30 C 1.4140(7) 1.4419(4) 0.1286(4)
H20 H 1.3237 1.4757 0.0933
C31 C 1.3603(7) 1.4046(4) 0.2038(3)
H21 H 1.2329 1.4131 0.2200
loop_
_geom_bond_atom_site_label_1
_geom_bond_atom_site_label_2
_geom_bond_site_symmetry_1
_geom_bond_site_symmetry_2
S1 O2 1_555 1_555
O1 C7 1_555 1_555
O3 S1 1_555 1_555
N1 C17 1_555 1_555
C1 C2 1_555 1_555
C2 H1 1_555 1_555
C3 C2 1_555 1_555
H2 C3 1_555 1_555
C4 C3 1_555 1_555
H3 C4 1_555 1_555
C5 C4 1_555 1_555
H4 C5 1_555 1_555
C6 S1 1_555 1_555
C7 C1 1_555 1_555
C8 C7 1_555 1_555
C9 S1 1_555 1_555
C10 C9 1_555 1_555
H5 C10 1_555 1_555
C11 C10 1_555 1_555
H6 C11 1_555 1_555
C12 C11 1_555 1_555
C13 C8 1_555 1_555
H7 C13 1_555 1_555
C14 C12 1_555 1_555
C15 C14 1_555 1_555
H8 C15 1_555 1_555
C16 C15 1_555 1_555
H9 C16 1_555 1_555
C17 C16 1_555 1_555
C18 C17 1_555 1_555
H10 C18 1_555 1_555
C19 C14 1_555 1_555
H11 C19 1_555 1_555
C20 N1 1_555 1_555
C21 C20 1_555 1_555
H12 C21 1_555 1_555
C22 C21 1_555 1_555
H13 C22 1_555 1_555
C23 C22 1_555 1_555
H14 C23 1_555 1_555
C24 C23 1_555 1_555
H15 C24 1_555 1_555
C25 C20 1_555 1_555
H16 C25 1_555 1_555
C26 N1 1_555 1_555
C27 C26 1_555 1_555
H17 C27 1_555 1_555
C28 C27 1_555 1_555
H18 C28 1_555 1_555
C29 C28 1_555 1_555
H19 C29 1_555 1_555
C30 C29 1_555 1_555
H20 C30 1_555 1_555
C31 C26 1_555 1_555
H21 C31 1_555 1_555
C1 C6 1_555 1_555
C5 C6 1_555 1_555
C8 C9 1_555 1_555
C12 C13 1_555 1_555
C18 C19 1_555 1_555
C24 C25 1_555 1_555
C30 C31 1_555 1_555

#END
