
#######################################################################
#
#                 Cambridge Crystallographic Data Centre
#                                CCDC 
#
#######################################################################
#
# If this CIF has been generated from an entry in the Cambridge 
# Structural Database, then it will include bibliographic, chemical, 
# crystal, experimental, refinement or atomic coordinate data resulting 
# from the CCDC's data processing and validation procedures.
#
#######################################################################

data_BALLEF
_chemical_formula_moiety         'C40 H48 O4 S4,C1 H1 Cl3'
_chemical_name_systematic        
'5,11,17,23-Tetra-t-butyl-25,26,27,28-tetrahydroxy-2,8,14,20-tetrathiacalix(4)arene chloroform clathrate'
_symmetry_cell_setting           tetragonal
_symmetry_space_group_name_H-M   'P 4/n m m'
_symmetry_Int_Tables_number      129
_space_group_name_Hall           '-P 4a 2a'
loop_
_symmetry_equiv_pos_site_id
_symmetry_equiv_pos_as_xyz
1 x,y,z
2 1/2-y,x,z
3 1/2+x,-y,-z
4 1/2-x,1/2-y,z
5 1/2+y,1/2+x,-z
6 y,1/2-x,z
7 -x,1/2+y,-z
8 -y,-x,-z
9 -x,-y,-z
10 1/2+y,-x,-z
11 1/2-x,y,z
12 1/2+x,1/2+y,-z
13 1/2-y,1/2-x,z
14 -y,1/2+x,-z
15 x,1/2-y,z
16 y,x,z
_cell_length_a                   15.964(2)
_cell_length_b                   15.964(2)
_cell_length_c                   8.4624(5)
_cell_angle_alpha                90
_cell_angle_beta                 90
_cell_angle_gamma                90
_cell_volume                     2156.64
_exptl_crystal_colour            colorless
_exptl_crystal_description       prism
_cell_formula_units_Z            2
_exptl_crystal_recrystallization_method methanol/chloroform
loop_
_atom_site_label
_atom_site_type_symbol
_atom_site_fract_x
_atom_site_fract_y
_atom_site_fract_z
S1 S 0.4226 0.4226(1) 0.7073(3)
C1 C 0.3249(5) 0.4484(4) 0.6153(7)
C2 C 0.2500 0.4235(6) 0.686(1)
C3 C 0.2500 0.5154(7) 0.403(1)
C4 C 0.3241(5) 0.4922(4) 0.4765(8)
C5 C 0.2500 0.5634(9) 0.240(1)
C6 C 0.186(1) 0.641(1) 0.257(2)
C7 C 0.323(1) 0.527(1) 0.132(1)
O1 O 0.2500 0.3765(5) 0.8193(7)
H1 H 0.3758 0.5071 0.4288
C1J C 0.1751(5) 0.4484(4) 0.6153(7)
S1J S 0.0774 0.4226(1) 0.7073(3)
C1A C 0.0516(4) 0.3249(5) 0.6153(7)
C2A C 0.0765(6) 0.2500 0.686(1)
C1L C 0.0516(4) 0.1751(5) 0.6153(7)
S1L S 0.0774(1) 0.0774 0.7073(3)
C1C C 0.1751(5) 0.0516(4) 0.6153(7)
C2C C 0.2500 0.0765(6) 0.686(1)
C1N C 0.3249(5) 0.0516(4) 0.6153(7)
S1N S 0.4226 0.0774(1) 0.7073(3)
C1E C 0.4484(4) 0.1751(5) 0.6153(7)
C2E C 0.4235(6) 0.2500 0.686(1)
C1O C 0.4484(4) 0.3249(5) 0.6153(7)
C4O C 0.4922(4) 0.3241(5) 0.4765(8)
C3O C 0.5154(7) 0.2500 0.403(1)
C4E C 0.4922(4) 0.1759(5) 0.4765(8)
H1E H 0.5071 0.1242 0.4288
C5O C 0.5634(9) 0.2500 0.240(1)
C6O C 0.641(1) 0.186(1) 0.257(2)
C6E C 0.641(1) 0.314(1) 0.257(2)
C7O C 0.527(1) 0.323(1) 0.132(1)
C7E C 0.527(1) 0.177(1) 0.132(1)
H1O H 0.5071 0.3758 0.4288
O1E O 0.3765(5) 0.2500 0.8193(7)
C4N C 0.3241(5) 0.0078(4) 0.4765(8)
C3N C 0.2500 -0.0154(7) 0.403(1)
C4C C 0.1759(5) 0.0078(4) 0.4765(8)
H1C H 0.1242 -0.0071 0.4288
C5N C 0.2500 -0.0634(9) 0.240(1)
C6N C 0.186(1) -0.141(1) 0.257(2)
C6C C 0.314(1) -0.141(1) 0.257(2)
C7N C 0.323(1) -0.027(1) 0.132(1)
C7C C 0.177(1) -0.027(1) 0.132(1)
H1N H 0.3758 -0.0071 0.4288
O1C O 0.2500 0.1235(5) 0.8193(7)
C4L C 0.0078(4) 0.1759(5) 0.4765(8)
C3L C -0.0154(7) 0.2500 0.403(1)
C4A C 0.0078(4) 0.3241(5) 0.4765(8)
H1A H -0.0071 0.3758 0.4288
C5L C -0.0634(9) 0.2500 0.240(1)
C6L C -0.141(1) 0.314(1) 0.257(2)
C6A C -0.141(1) 0.186(1) 0.257(2)
C7L C -0.027(1) 0.177(1) 0.132(1)
C7A C -0.027(1) 0.323(1) 0.132(1)
H1L H -0.0071 0.1242 0.4288
O1A O 0.1235(5) 0.2500 0.8193(7)
C4J C 0.1759(5) 0.4922(4) 0.4765(8)
C6J C 0.314(1) 0.641(1) 0.257(2)
C7J C 0.177(1) 0.527(1) 0.132(1)
H1J H 0.1242 0.5071 0.4288
Cl1 Cl 0.2500 0.2500 0.446(1)
Cl2 Cl 0.3151(6) 0.3151 0.176(1)
C8 C 0.2500 0.2500 0.286(3)
Cl2A Cl 0.1849 0.3151(6) 0.176(1)
Cl2C Cl 0.1849(6) 0.1849 0.176(1)
Cl2E Cl 0.3151 0.1849(6) 0.176(1)
loop_
_geom_bond_atom_site_label_1
_geom_bond_atom_site_label_2
_geom_bond_site_symmetry_1
_geom_bond_site_symmetry_2
S1 C1 1_555 1_555
C1 C2 1_555 1_555
C2 O1 1_555 1_555
C3 C4 1_555 1_555
C4 C1 1_555 1_555
C5 C3 1_555 1_555
C6 C5 1_555 1_555
C7 C5 1_555 1_555
H1 C4 1_555 1_555
Cl1 C8 1_555 1_555
Cl2 C8 1_555 1_555
C8 Cl2A 1_555 1_555
C1J C2 1_555 1_555
S1J C1J 1_555 1_555
C1A S1J 1_555 1_555
C2A C1A 1_555 1_555
C1L C2A 1_555 1_555
S1L C1L 1_555 1_555
C1C S1L 1_555 1_555
C2C C1C 1_555 1_555
C1N C2C 1_555 1_555
S1N C1N 1_555 1_555
C1E S1N 1_555 1_555
C2E C1E 1_555 1_555
C1O S1 1_555 1_555
C4O C1O 1_555 1_555
C3O C4O 1_555 1_555
C4E C1E 1_555 1_555
H1E C4E 1_555 1_555
C5O C3O 1_555 1_555
C6O C5O 1_555 1_555
C6E C5O 1_555 1_555
C7O C5O 1_555 1_555
C7E C5O 1_555 1_555
H1O C4O 1_555 1_555
O1E C2E 1_555 1_555
C4N C1N 1_555 1_555
C3N C4N 1_555 1_555
C4C C1C 1_555 1_555
H1C C4C 1_555 1_555
C5N C3N 1_555 1_555
C6N C5N 1_555 1_555
C6C C5N 1_555 1_555
C7N C5N 1_555 1_555
C7C C5N 1_555 1_555
H1N C4N 1_555 1_555
O1C C2C 1_555 1_555
C4L C1L 1_555 1_555
C3L C4L 1_555 1_555
C4A C1A 1_555 1_555
H1A C4A 1_555 1_555
C5L C3L 1_555 1_555
C6L C5L 1_555 1_555
C6A C5L 1_555 1_555
C7L C5L 1_555 1_555
C7A C5L 1_555 1_555
H1L C4L 1_555 1_555
O1A C2A 1_555 1_555
C4J C3 1_555 1_555
C6J C5 1_555 1_555
C7J C5 1_555 1_555
H1J C4J 1_555 1_555
Cl2A Cl2 1_555 1_555
Cl2C C8 1_555 1_555
Cl2E Cl2 1_555 1_555
C8 Cl2E 1_555 1_555
C1J C4J 1_555 1_555
C2E C1O 1_555 1_555
C3O C4E 1_555 1_555
C3N C4C 1_555 1_555
C3L C4A 1_555 1_555
Cl2A Cl2C 1_555 1_555
Cl2C Cl2E 1_555 1_555

#END
