
#######################################################################
#
#                 Cambridge Crystallographic Data Centre
#                                CCDC 
#
#######################################################################
#
# If this CIF has been generated from an entry in the Cambridge 
# Structural Database, then it will include bibliographic, chemical, 
# crystal, experimental, refinement or atomic coordinate data resulting 
# from the CCDC's data processing and validation procedures.
#
#######################################################################

data_BALQAI
_chemical_formula_moiety         'C27 H20'
_chemical_name_systematic        
1-(1,1-Diphenylpent-1-en-4-yn-3-yl)naphthalene
_symmetry_cell_setting           monoclinic
_symmetry_space_group_name_H-M   'P 21/c'
_symmetry_Int_Tables_number      14
_space_group_name_Hall           '-P 2ybc'
loop_
_symmetry_equiv_pos_site_id
_symmetry_equiv_pos_as_xyz
1 x,y,z
2 -x,1/2+y,1/2-z
3 -x,-y,-z
4 x,1/2-y,1/2+z
_cell_length_a                   13.908(2)
_cell_length_b                   11.0651(18)
_cell_length_c                   12.376(2)
_cell_angle_alpha                90
_cell_angle_beta                 91.176(4)
_cell_angle_gamma                90
_cell_volume                     1904.18
_exptl_crystal_colour            colorless
_exptl_crystal_description       block
_cell_formula_units_Z            4
loop_
_atom_site_label
_atom_site_type_symbol
_atom_site_fract_x
_atom_site_fract_y
_atom_site_fract_z
C1 C 0.89961(11) -0.18675(13) -0.02843(12)
H1 H 0.9482 -0.2449 -0.0417
C2 C 0.83903(10) -0.11431(12) -0.01189(11)
C3 C 0.76723(9) -0.01944(11) 0.00936(10)
H2 H 0.7266 -0.0470 0.0704
C4 C 0.70080(9) 0.00574(11) -0.08890(10)
C5 C 0.72372(10) -0.03563(12) -0.18967(11)
H3 H 0.7811 -0.0808 -0.1984
C6 C 0.66354(11) -0.01234(13) -0.28075(11)
H4 H 0.6812 -0.0411 -0.3499
C7 C 0.58044(11) 0.05102(13) -0.26998(11)
H5 H 0.5403 0.0655 -0.3316
C8 C 0.55318(10) 0.09568(12) -0.16747(11)
C9 C 0.46672(10) 0.16082(12) -0.15444(12)
H6 H 0.4264 0.1764 -0.2158
C10 C 0.44011(10) 0.20173(12) -0.05545(12)
H7 H 0.3817 0.2453 -0.0483
C11 C 0.49922(10) 0.17933(12) 0.03617(11)
H8 H 0.4802 0.2072 0.1051
C12 C 0.58398(9) 0.11763(11) 0.02653(10)
H9 H 0.6233 0.1040 0.0890
C13 C 0.61427(9) 0.07358(11) -0.07519(10)
C14 C 0.81892(9) 0.09541(11) 0.04410(10)
H10 H 0.8546 0.1358 -0.0097
C15 C 0.81968(8) 0.14599(11) 0.14254(10)
C16 C 0.77180(9) 0.08923(11) 0.23670(9)
C17 C 0.78750(9) -0.03161(11) 0.26555(10)
H11 H 0.8330 -0.0783 0.2274
C18 C 0.73723(10) -0.08386(12) 0.34929(10)
H12 H 0.7486 -0.1658 0.3684
C19 C 0.67047(10) -0.01633(12) 0.40498(10)
H13 H 0.6350 -0.0527 0.4611
C20 C 0.65539(10) 0.10397(12) 0.37903(10)
H14 H 0.6102 0.1504 0.4179
C21 C 0.70642(9) 0.15647(11) 0.29625(10)
H15 H 0.6968 0.2395 0.2797
C22 C 0.86457(9) 0.26697(11) 0.15937(10)
C23 C 0.91152(9) 0.29628(12) 0.25718(10)
H16 H 0.9132 0.2389 0.3143
C24 C 0.95554(9) 0.40789(12) 0.27189(11)
H17 H 0.9878 0.4260 0.3383
C25 C 0.95238(10) 0.49270(13) 0.18960(12)
H18 H 0.9829 0.5688 0.1993
C26 C 0.90445(10) 0.46624(13) 0.09287(12)
H19 H 0.9014 0.5248 0.0368
C27 C 0.86100(9) 0.35452(12) 0.07800(11)
H20 H 0.8284 0.3373 0.0116
loop_
_geom_bond_atom_site_label_1
_geom_bond_atom_site_label_2
_geom_bond_site_symmetry_1
_geom_bond_site_symmetry_2
C1 H1 1_555 1_555
C2 C1 1_555 1_555
C3 C2 1_555 1_555
H2 C3 1_555 1_555
C4 C3 1_555 1_555
C5 C4 1_555 1_555
H3 C5 1_555 1_555
C6 C5 1_555 1_555
H4 C6 1_555 1_555
C7 C6 1_555 1_555
H5 C7 1_555 1_555
C8 C7 1_555 1_555
C9 C8 1_555 1_555
H6 C9 1_555 1_555
C10 C9 1_555 1_555
H7 C10 1_555 1_555
C11 C10 1_555 1_555
H8 C11 1_555 1_555
C12 C11 1_555 1_555
H9 C12 1_555 1_555
C13 C4 1_555 1_555
C14 C3 1_555 1_555
H10 C14 1_555 1_555
C15 C14 1_555 1_555
C16 C15 1_555 1_555
C17 C16 1_555 1_555
H11 C17 1_555 1_555
C18 C17 1_555 1_555
H12 C18 1_555 1_555
C19 C18 1_555 1_555
H13 C19 1_555 1_555
C20 C19 1_555 1_555
H14 C20 1_555 1_555
C21 C16 1_555 1_555
H15 C21 1_555 1_555
C22 C15 1_555 1_555
C23 C22 1_555 1_555
H16 C23 1_555 1_555
C24 C23 1_555 1_555
H17 C24 1_555 1_555
C25 C24 1_555 1_555
H18 C25 1_555 1_555
C26 C25 1_555 1_555
H19 C26 1_555 1_555
C27 C22 1_555 1_555
H20 C27 1_555 1_555
C8 C13 1_555 1_555
C12 C13 1_555 1_555
C20 C21 1_555 1_555
C26 C27 1_555 1_555

#END
