
#######################################################################
#
#                 Cambridge Crystallographic Data Centre
#                                CCDC 
#
#######################################################################
#
# If this CIF has been generated from an entry in the Cambridge 
# Structural Database, then it will include bibliographic, chemical, 
# crystal, experimental, refinement or atomic coordinate data resulting 
# from the CCDC's data processing and validation procedures.
#
#######################################################################

data_BALQOV
_chemical_formula_moiety         'C10 H6 Br2 N2 O2'
_chemical_name_systematic        
2-(Dibromomethyl)-3-(m-nitrophenyl)-2-propenonitrile
_symmetry_cell_setting           monoclinic
_symmetry_space_group_name_H-M   'P 21/c'
_symmetry_Int_Tables_number      14
_space_group_name_Hall           '-P 2ybc'
loop_
_symmetry_equiv_pos_site_id
_symmetry_equiv_pos_as_xyz
1 x,y,z
2 x,1/2-y,1/2+z
3 -x,-y,-z
4 -x,1/2+y,1/2-z
_cell_length_a                   8.4790(18)
_cell_length_b                   19.671(4)
_cell_length_c                   7.1537(15)
_cell_angle_alpha                90
_cell_angle_beta                 100.529(4)
_cell_angle_gamma                90
_cell_volume                     1173.08
_exptl_crystal_colour            colorless
_exptl_crystal_description       prismatic
_cell_formula_units_Z            4
loop_
_atom_site_label
_atom_site_type_symbol
_atom_site_fract_x
_atom_site_fract_y
_atom_site_fract_z
Br1 Br 1.2822(2) 0.46842(8) 1.0390(2)
Br2 Br 1.3218(3) 0.45096(11) 0.6099(3)
O1 O 0.4799(14) 0.1810(8) 0.728(2)
O2 O 0.5498(17) 0.2817(8) 0.799(3)
N1 N 0.5824(16) 0.2240(8) 0.765(2)
N2 N 0.879(2) 0.4287(7) 0.706(2)
C1 C 0.789(2) 0.1394(7) 0.744(2)
C2 C 0.7474(16) 0.2071(7) 0.766(2)
C3 C 0.861(2) 0.2578(8) 0.793(2)
C4 C 1.0192(16) 0.2440(6) 0.7943(17)
C5 C 1.0625(18) 0.1760(7) 0.777(2)
C6 C 0.948(2) 0.1248(8) 0.750(3)
C7 C 1.1524(18) 0.2937(7) 0.822(2)
C8 C 1.1438(17) 0.3617(7) 0.803(2)
C9 C 0.9948(17) 0.3988(7) 0.748(2)
C10 C 1.2920(18) 0.4022(6) 0.838(2)
H1 H 1.384(17) 0.372(7) 0.88(2)
H2 H 0.71(2) 0.094(9) 0.73(2)
H3 H 0.82(2) 0.299(11) 0.80(2)
H4 H 1.196(16) 0.168(7) 0.774(19)
H5 H 0.973(14) 0.087(7) 0.724(16)
H6 H 1.28(2) 0.273(10) 0.86(2)
loop_
_geom_bond_atom_site_label_1
_geom_bond_atom_site_label_2
_geom_bond_site_symmetry_1
_geom_bond_site_symmetry_2
Br1 C10 1_555 1_555
Br2 C10 1_555 1_555
O1 N1 1_555 1_555
O2 N1 1_555 1_555
N1 C2 1_555 1_555
N2 C9 1_555 1_555
C1 C2 1_555 1_555
C2 C3 1_555 1_555
C3 C4 1_555 1_555
C4 C5 1_555 1_555
C5 C6 1_555 1_555
C6 C1 1_555 1_555
C7 C4 1_555 1_555
C8 C7 1_555 1_555
C9 C8 1_555 1_555
C10 C8 1_555 1_555
H1 C10 1_555 1_555
H2 C1 1_555 1_555
H3 C3 1_555 1_555
H4 C5 1_555 1_555
H5 C6 1_555 1_555
H6 C7 1_555 1_555

#END
