
#######################################################################
#
#                 Cambridge Crystallographic Data Centre
#                                CCDC 
#
#######################################################################
#
# If this CIF has been generated from an entry in the Cambridge 
# Structural Database, then it will include bibliographic, chemical, 
# crystal, experimental, refinement or atomic coordinate data resulting 
# from the CCDC's data processing and validation procedures.
#
#######################################################################

data_BALQAJ
_chemical_formula_moiety         'C15 H15 Br1 N2 O2 S1'
_chemical_name_systematic        
N'-(1-(2-bromophenyl)ethylidene)-4-methylbenzenesulfonohydrazide
_symmetry_cell_setting           monoclinic
_symmetry_space_group_name_H-M   'P 21/n'
_symmetry_Int_Tables_number      14
_space_group_name_Hall           '-P 2yn'
loop_
_symmetry_equiv_pos_site_id
_symmetry_equiv_pos_as_xyz
1 x,y,z
2 1/2-x,1/2+y,1/2-z
3 -x,-y,-z
4 1/2+x,1/2-y,1/2+z
_cell_length_a                   17.5267(9)
_cell_length_b                   6.9167(3)
_cell_length_c                   26.8040(11)
_cell_angle_alpha                90
_cell_angle_beta                 101.053(4)
_cell_angle_gamma                90
_cell_volume                     3189.09
_exptl_crystal_colour            colorless
_exptl_crystal_description       block
_cell_formula_units_Z            8
loop_
_atom_site_label
_atom_site_type_symbol
_atom_site_fract_x
_atom_site_fract_y
_atom_site_fract_z
Br1 Br 0.33925(9) 0.2732(2) 0.30952(5)
S1 S 0.39305(14) 0.1931(3) 0.49061(8)
O1 O 0.3531(4) 0.3640(8) 0.5011(2)
O2 O 0.4333(4) 0.0758(8) 0.5322(2)
N1 N 0.4625(4) 0.2584(9) 0.4612(3)
H1 H 0.5101 0.2230 0.4706
N2 N 0.4369(4) 0.3768(9) 0.4194(3)
C1 C 0.3285(5) 0.0469(11) 0.4491(3)
C2 C 0.3486(5) -0.1435(13) 0.4411(3)
H2 H 0.3958 -0.1933 0.4580
C3 C 0.2988(6) -0.2561(13) 0.4084(4)
H3 H 0.3133 -0.3824 0.4028
C4 C 0.2289(6) -0.1917(14) 0.3835(4)
C5 C 0.2092(5) -0.0002(16) 0.3899(4)
H4 H 0.1629 0.0497 0.3716
C6 C 0.2587(6) 0.1164(13) 0.4238(4)
H5 H 0.2443 0.2428 0.4294
C7 C 0.1728(6) -0.3185(14) 0.3463(4)
H6 H 0.2019 -0.4128 0.3314
H7 H 0.1438 -0.2389 0.3200
H8 H 0.1377 -0.3831 0.3642
C8 C 0.4857(5) 0.4130(11) 0.3904(3)
C9 C 0.5673(5) 0.3446(13) 0.3985(3)
H9 H 0.5881 0.3685 0.3685
H10 H 0.5689 0.2084 0.4056
H11 H 0.5976 0.4124 0.4267
C10 C 0.4590(4) 0.5510(9) 0.3494(2)
C11 C 0.3953(4) 0.5018(8) 0.3122(3)
C12 C 0.3674(4) 0.6311(12) 0.2733(3)
H12 H 0.3248 0.5983 0.2483
C13 C 0.4033(5) 0.8096(11) 0.2716(3)
H13 H 0.3847 0.8962 0.2455
C14 C 0.4670(5) 0.8588(9) 0.3088(3)
H14 H 0.4910 0.9782 0.3077
C15 C 0.4949(4) 0.7295(11) 0.3478(3)
H15 H 0.5375 0.7624 0.3727
Br2 Br 0.20344(8) 0.71035(17) 0.67503(4)
S2 S -0.03621(12) 0.7953(3) 0.55737(8)
O3 O -0.0772(3) 0.9167(7) 0.51780(19)
O4 O -0.0738(3) 0.6268(7) 0.5725(2)
N3 N 0.0407(4) 0.7254(8) 0.5357(2)
H16 H 0.0502 0.7621 0.5068
N4 N 0.0889(4) 0.6020(9) 0.5681(2)
C16 C -0.0012(4) 0.9355(11) 0.6114(3)
C17 C 0.0022(5) 0.8611(13) 0.6592(3)
H17 H -0.0138 0.7346 0.6629
C18 C 0.0290(6) 0.9717(15) 0.7016(4)
H18 H 0.0315 0.9188 0.7338
C19 C 0.0520(5) 1.1581(14) 0.6970(3)
C20 C 0.0488(6) 1.2347(12) 0.6497(3)
H19 H 0.0659 1.3604 0.6462
C21 C 0.0197(5) 1.1243(12) 0.6064(3)
H20 H 0.0145 1.1792 0.5743
C22 C 0.0801(8) 1.2878(17) 0.7437(4)
H21 H 0.0670 1.2284 0.7733
H22 H 0.0553 1.4118 0.7383
H23 H 0.1354 1.3039 0.7486
C23 C 0.1580(5) 0.5739(10) 0.5590(3)
C24 C 0.1885(5) 0.6553(12) 0.5152(3)
H24 H 0.1458 0.6923 0.4889
H25 H 0.2194 0.5595 0.5024
H26 H 0.2200 0.7666 0.5262
C25 C 0.2066(5) 0.4412(11) 0.5949(3)
C26 C 0.2304(6) 0.2673(14) 0.5756(4)
H27 H 0.2163 0.2409 0.5410
C27 C 0.2746(7) 0.1354(15) 0.6073(5)
H28 H 0.2893 0.0190 0.5945
C28 C 0.2969(7) 0.179(2) 0.6586(6)
H29 H 0.3267 0.0900 0.6799
C29 C 0.2762(6) 0.3511(17) 0.6792(4)
H30 H 0.2916 0.3802 0.7136
C30 C 0.2316(5) 0.4748(13) 0.6460(3)
loop_
_geom_bond_atom_site_label_1
_geom_bond_atom_site_label_2
_geom_bond_site_symmetry_1
_geom_bond_site_symmetry_2
Br1 C11 1_555 1_555
S1 O1 1_555 1_555
O2 S1 1_555 1_555
N1 S1 1_555 1_555
H1 N1 1_555 1_555
N2 N1 1_555 1_555
C1 S1 1_555 1_555
C2 C1 1_555 1_555
H2 C2 1_555 1_555
C3 C2 1_555 1_555
H3 C3 1_555 1_555
C4 C3 1_555 1_555
C5 C4 1_555 1_555
H4 C5 1_555 1_555
C6 C1 1_555 1_555
H5 C6 1_555 1_555
C7 C4 1_555 1_555
H6 C7 1_555 1_555
H7 C7 1_555 1_555
H8 C7 1_555 1_555
C8 N2 1_555 1_555
C9 C8 1_555 1_555
H9 C9 1_555 1_555
H10 C9 1_555 1_555
H11 C9 1_555 1_555
C10 C8 1_555 1_555
C11 C10 1_555 1_555
C12 C11 1_555 1_555
H12 C12 1_555 1_555
C13 C12 1_555 1_555
H13 C13 1_555 1_555
C14 C13 1_555 1_555
H14 C14 1_555 1_555
C15 C10 1_555 1_555
H15 C15 1_555 1_555
Br2 C30 1_555 1_555
S2 O3 1_555 1_555
O4 S2 1_555 1_555
N3 S2 1_555 1_555
H16 N3 1_555 1_555
N4 N3 1_555 1_555
C16 S2 1_555 1_555
C17 C16 1_555 1_555
H17 C17 1_555 1_555
C18 C17 1_555 1_555
H18 C18 1_555 1_555
C19 C18 1_555 1_555
C20 C19 1_555 1_555
H19 C20 1_555 1_555
C21 C16 1_555 1_555
H20 C21 1_555 1_555
C22 C19 1_555 1_555
H21 C22 1_555 1_555
H22 C22 1_555 1_555
H23 C22 1_555 1_555
C23 N4 1_555 1_555
C24 C23 1_555 1_555
H24 C24 1_555 1_555
H25 C24 1_555 1_555
H26 C24 1_555 1_555
C25 C23 1_555 1_555
C26 C25 1_555 1_555
H27 C26 1_555 1_555
C27 C26 1_555 1_555
H28 C27 1_555 1_555
C28 C27 1_555 1_555
H29 C28 1_555 1_555
C29 C28 1_555 1_555
H30 C29 1_555 1_555
C30 C25 1_555 1_555
C5 C6 1_555 1_555
C14 C15 1_555 1_555
C20 C21 1_555 1_555
C29 C30 1_555 1_555

#END
