
#######################################################################
#
#                 Cambridge Crystallographic Data Centre
#                                CCDC 
#
#######################################################################
#
# If this CIF has been generated from an entry in the Cambridge 
# Structural Database, then it will include bibliographic, chemical, 
# crystal, experimental, refinement or atomic coordinate data resulting 
# from the CCDC's data processing and validation procedures.
#
#######################################################################

data_BALREL
_chemical_formula_moiety         'C36 H44 P2'
_chemical_name_systematic        Tetramesityl-diphosphine
_symmetry_cell_setting           tetragonal
_symmetry_space_group_name_H-M   'P 41 21 2'
_symmetry_Int_Tables_number      92
_space_group_name_Hall           'P 4abw 2nw'
loop_
_symmetry_equiv_pos_site_id
_symmetry_equiv_pos_as_xyz
1 x,y,z
2 1/2-y,1/2+x,1/4+z
3 -x,-y,1/2+z
4 1/2+y,1/2-x,3/4+z
5 y,x,-z
6 1/2+x,1/2-y,3/4-z
7 -y,-x,1/2-z
8 1/2-x,1/2+y,1/4-z
_cell_length_a                   8.873(4)
_cell_length_b                   8.873(4)
_cell_length_c                   39.272(16)
_cell_angle_alpha                90
_cell_angle_beta                 90
_cell_angle_gamma                90
_cell_volume                     3091.89
_exptl_crystal_colour            colorless
_cell_formula_units_Z            4
loop_
_atom_site_label
_atom_site_type_symbol
_atom_site_fract_x
_atom_site_fract_y
_atom_site_fract_z
P1 P 0.56460 0.60362 0.76026
C1 C 0.67280 0.52440 0.79670
C2 C 0.69080 0.37120 0.80590
C3 C 0.78860 0.33290 0.83230
C4 C 0.87010 0.43840 0.85020
C5 C 0.85070 0.58760 0.84140
C6 C 0.75640 0.63250 0.81500
C7 C 0.60860 0.24150 0.78910
C8 C 0.97350 0.39190 0.87880
C9 C 0.75220 0.79810 0.80680
C10 C 0.42610 0.72920 0.78090
C11 C 0.34610 0.69670 0.81190
C12 C 0.24360 0.80530 0.82310
C13 C 0.22160 0.94170 0.80800
C14 C 0.30330 0.97290 0.77900
C15 C 0.40680 0.87250 0.76510
C16 C 0.36190 0.55290 0.83030
C17 C 0.11270 1.05630 0.82190
C18 C 0.49580 0.92160 0.73440
H1 H 0.80600 0.22800 0.83600
H2 H 0.90100 0.65900 0.85200
H3 H 0.19500 0.77900 0.84100
H4 H 0.29700 1.07600 0.76700
H5 H 0.63900 0.14900 0.80000
H6 H 0.50300 0.25500 0.79200
H7 H 0.63300 0.23900 0.76600
H8 H 1.02000 0.47900 0.88800
H9 H 0.91700 0.34200 0.89600
H10 H 1.04900 0.32600 0.87000
H11 H 0.81600 0.85200 0.82200
H12 H 0.78600 0.81400 0.78400
H13 H 0.65200 0.83500 0.80900
H14 H 0.29800 0.55500 0.85000
H15 H 0.33400 0.47100 0.81600
H16 H 0.46300 0.54100 0.83800
H17 H 0.06600 1.01900 0.84200
H18 H 0.16600 1.14700 0.82700
H19 H 0.03900 1.07900 0.80500
H20 H 0.46600 1.02000 0.72800
H21 H 0.60000 0.92200 0.74000
H22 H 0.47800 0.85400 0.71600
P1F P 0.39638 0.43540 0.73974
C1F C 0.47560 0.32720 0.70330
C10F C 0.27080 0.57390 0.71910
C2F C 0.62880 0.30920 0.69410
C6F C 0.36750 0.24360 0.68500
C11F C 0.30330 0.65390 0.68810
C15F C 0.12750 0.59320 0.73490
C3F C 0.66710 0.21140 0.66770
C7F C 0.75850 0.39140 0.71090
C5F C 0.41240 0.14930 0.65860
C9F C 0.20190 0.24780 0.69320
C12F C 0.19470 0.75640 0.67690
C16F C 0.44710 0.63810 0.66970
C14F C 0.02710 0.69670 0.72100
C18F C 0.07840 0.50420 0.76560
C4F C 0.56160 0.12990 0.64980
H1F H 0.77200 0.19400 0.66400
H5F H 0.85100 0.36100 0.70000
H6F H 0.74500 0.49700 0.70800
H7F H 0.76100 0.36700 0.73400
H2F H 0.34100 0.09900 0.64800
H11F H 0.14800 0.18400 0.67800
H12F H 0.18600 0.21400 0.71600
H13F H 0.16500 0.34800 0.69100
C13F C 0.05830 0.77840 0.69200
H3F H 0.22100 0.80500 0.65900
H14F H 0.44500 0.70200 0.65000
H15F H 0.52900 0.66600 0.68400
H16F H 0.45900 0.53700 0.66200
H4F H -0.07600 0.70300 0.73300
H20F H -0.02000 0.53400 0.77200
H21F H 0.07800 0.40000 0.76000
H22F H 0.14600 0.52200 0.78400
C8F C 0.60810 0.02650 0.62120
C17F C -0.05630 0.88730 0.67810
H8F H 0.52100 -0.02000 0.61200
H9F H 0.65800 0.08300 0.60400
H10F H 0.67400 -0.04900 0.63000
H17F H -0.01900 0.93400 0.65800
H18F H -0.14700 0.83400 0.67300
H19F H -0.07900 0.96100 0.69500
loop_
_geom_bond_atom_site_label_1
_geom_bond_atom_site_label_2
_geom_bond_site_symmetry_1
_geom_bond_site_symmetry_2
P1 C1 1_555 1_555
C1 C2 1_555 1_555
C2 C3 1_555 1_555
C3 C4 1_555 1_555
C4 C5 1_555 1_555
C5 C6 1_555 1_555
C6 C1 1_555 1_555
C7 C2 1_555 1_555
C8 C4 1_555 1_555
C9 C6 1_555 1_555
C10 P1 1_555 1_555
C11 C10 1_555 1_555
C12 C11 1_555 1_555
C13 C12 1_555 1_555
C14 C13 1_555 1_555
C15 C10 1_555 1_555
C16 C11 1_555 1_555
C17 C13 1_555 1_555
C18 C15 1_555 1_555
H1 C3 1_555 1_555
H2 C5 1_555 1_555
H3 C12 1_555 1_555
H4 C14 1_555 1_555
H5 C7 1_555 1_555
H6 C7 1_555 1_555
H7 C7 1_555 1_555
H8 C8 1_555 1_555
H9 C8 1_555 1_555
H10 C8 1_555 1_555
H11 C9 1_555 1_555
H12 C9 1_555 1_555
H13 C9 1_555 1_555
H14 C16 1_555 1_555
H15 C16 1_555 1_555
H16 C16 1_555 1_555
H17 C17 1_555 1_555
H18 C17 1_555 1_555
H19 C17 1_555 1_555
H20 C18 1_555 1_555
H21 C18 1_555 1_555
H22 C18 1_555 1_555
P1F P1 1_555 1_555
C1F P1F 1_555 1_555
C10F P1F 1_555 1_555
C2F C1F 1_555 1_555
C6F C1F 1_555 1_555
C11F C10F 1_555 1_555
C15F C10F 1_555 1_555
C3F C2F 1_555 1_555
C7F C2F 1_555 1_555
C5F C6F 1_555 1_555
C9F C6F 1_555 1_555
C12F C11F 1_555 1_555
C16F C11F 1_555 1_555
C14F C15F 1_555 1_555
C18F C15F 1_555 1_555
C4F C3F 1_555 1_555
H1F C3F 1_555 1_555
H5F C7F 1_555 1_555
H6F C7F 1_555 1_555
H7F C7F 1_555 1_555
H2F C5F 1_555 1_555
H11F C9F 1_555 1_555
H12F C9F 1_555 1_555
H13F C9F 1_555 1_555
C13F C12F 1_555 1_555
H3F C12F 1_555 1_555
H14F C16F 1_555 1_555
H15F C16F 1_555 1_555
H16F C16F 1_555 1_555
H4F C14F 1_555 1_555
H20F C18F 1_555 1_555
H21F C18F 1_555 1_555
H22F C18F 1_555 1_555
C8F C4F 1_555 1_555
C17F C13F 1_555 1_555
H8F C8F 1_555 1_555
H9F C8F 1_555 1_555
H10F C8F 1_555 1_555
H17F C17F 1_555 1_555
H18F C17F 1_555 1_555
H19F C17F 1_555 1_555
C14 C15 1_555 1_555
C5F C4F 1_555 1_555
C14F C13F 1_555 1_555

#END
