
#######################################################################
#
#                 Cambridge Crystallographic Data Centre
#                                CCDC 
#
#######################################################################
#
# If this CIF has been generated from an entry in the Cambridge 
# Structural Database, then it will include bibliographic, chemical, 
# crystal, experimental, refinement or atomic coordinate data resulting 
# from the CCDC's data processing and validation procedures.
#
#######################################################################

data_BAMBUO
_chemical_formula_moiety         'C40 H40 N4 O4,2.5(H2 O1)'
_chemical_name_systematic        
"2,9-Dibutyl-5,12-bis(pyrrolidin-1-yl)isoquinolino[4',5',6':6,5,10]anthra[2,1,9-def]isoquinoline-1,3,8,10(2H,9H)-tetrone hydrate"
_symmetry_cell_setting           monoclinic
_symmetry_space_group_name_H-M   'C 2/c'
_symmetry_Int_Tables_number      15
_space_group_name_Hall           '-C 2yn'
loop_
_symmetry_equiv_pos_site_id
_symmetry_equiv_pos_as_xyz
1 x,y,z
2 -x,y,1/2-z
3 1/2+x,1/2+y,z
4 1/2-x,1/2+y,1/2-z
5 -x,-y,-z
6 x,-y,1/2+z
7 1/2-x,1/2-y,-z
8 1/2+x,1/2-y,1/2+z
_cell_length_a                   26.440(5)
_cell_length_b                   14.556(3)
_cell_length_c                   22.976(6)
_cell_angle_alpha                90
_cell_angle_beta                 121.448(2)
_cell_angle_gamma                90
_cell_volume                     7543.71
_exptl_crystal_colour            red
_exptl_crystal_description       needle
_cell_formula_units_Z            8
loop_
_atom_site_label
_atom_site_type_symbol
_atom_site_fract_x
_atom_site_fract_y
_atom_site_fract_z
O1 O 1.10313(15) 0.1143(3) 0.6045(2)
O2 O 1.10938(16) -0.1565(3) 0.5131(2)
O3 O 0.8911(2) 0.4057(3) 0.0803(2)
O4 O 0.82591(17) 0.1249(3) -0.01232(19)
N1 N 1.10658(16) -0.0214(3) 0.5594(2)
N2 N 0.85995(18) 0.2655(3) 0.0344(2)
N3 N 0.94976(15) 0.3055(3) 0.40943(19)
N4 N 0.86728(18) -0.0859(3) 0.1805(2)
C1 C 0.97672(18) 0.2231(3) 0.4126(2)
C2 C 1.01873(18) 0.1862(4) 0.4777(2)
H7 H 1.0308 0.2220 0.5163
C3 C 1.04174(17) 0.1009(3) 0.4855(2)
C4 C 1.0855(2) 0.0671(4) 0.5540(3)
C5 C 1.0887(2) -0.0793(4) 0.5050(3)
C6 C 1.04425(19) -0.0466(3) 0.4366(3)
C7 C 1.0241(2) -0.0993(3) 0.3803(3)
H8 H 1.0390 -0.1586 0.3853
C8 C 0.9826(2) -0.0693(3) 0.3159(3)
H9 H 0.9690 -0.1091 0.2791
C9 C 0.96051(17) 0.0197(3) 0.3050(2)
C10 C 0.91924(18) 0.0567(3) 0.2368(2)
C11 C 0.88338(19) 0.0032(3) 0.1776(2)
C12 C 0.86407(18) 0.0439(3) 0.1136(2)
H10 H 0.8450 0.0075 0.0747
C13 C 0.87235(18) 0.1340(3) 0.1069(2)
C14 C 0.8499(2) 0.1725(4) 0.0389(3)
C15 C 0.8843(2) 0.3244(4) 0.0885(3)
C16 C 0.90337(19) 0.2865(3) 0.1569(2)
C17 C 0.9280(2) 0.3427(3) 0.2130(2)
H11 H 0.9321 0.4051 0.2081
C18 C 0.94683(19) 0.3066(3) 0.2771(2)
H12 H 0.9626 0.3459 0.3144
C19 C 0.94270(17) 0.2128(3) 0.2869(2)
C20 C 0.96526(17) 0.1732(3) 0.3541(2)
C21 C 1.02242(17) 0.0446(3) 0.4286(2)
C22 C 0.98262(17) 0.0789(3) 0.3625(2)
C23 C 0.91996(17) 0.1536(3) 0.2299(2)
C24 C 0.89760(17) 0.1926(3) 0.1641(2)
C25 C 1.1508(2) -0.0528(4) 0.6285(3)
H13 H 1.1558 -0.1187 0.6276
H14 H 1.1361 -0.0406 0.6586
C26 C 1.2130(4) -0.0048(7) 0.6584(5)
H15 H 1.2083 0.0605 0.6485
H16 H 1.2372 -0.0135 0.7074
C27 C 1.2373(5) -0.0464(7) 0.6268(7)
H17 H 1.2140 -0.0369 0.5778
H18 H 1.2425 -0.1117 0.6365
C28 C 1.3054(4) 0.0115(10) 0.6645(11)
H19 H 1.2997 0.0747 0.6716
H20 H 1.3209 0.0080 0.6349
H21 H 1.3328 -0.0166 0.7075
C29 C 0.8415(2) 0.3032(4) -0.0340(3)
H22 H 0.8452 0.2559 -0.0613
H23 H 0.8675 0.3536 -0.0290
C30 C 0.7786(3) 0.3367(5) -0.0697(3)
H24 H 0.7756 0.3869 -0.0439
H25 H 0.7530 0.2875 -0.0717
C31 C 0.7579(3) 0.3693(5) -0.1417(3)
H26 H 0.7226 0.4067 -0.1582
H27 H 0.7885 0.4076 -0.1405
C32 C 0.7445(4) 0.2919(6) -0.1903(4)
H28 H 0.7796 0.2560 -0.1752
H29 H 0.7311 0.3161 -0.2349
H30 H 0.7140 0.2540 -0.1920
C33 C 0.8528(3) -0.1139(4) 0.2322(3)
H31 H 0.8869 -0.1421 0.2712
H32 H 0.8406 -0.0612 0.2477
C34 C 0.8035(4) -0.1807(6) 0.1971(5)
H33 H 0.7654 -0.1506 0.1778
H34 H 0.8065 -0.2286 0.2281
C35 C 0.8121(4) -0.2190(6) 0.1422(5)
H35 H 0.8420 -0.2668 0.1604
H36 H 0.7753 -0.2445 0.1054
C36 C 0.8315(3) -0.1398(4) 0.1177(3)
H37 H 0.8550 -0.1600 0.0989
H38 H 0.7978 -0.1048 0.0834
C37 C 0.8871(2) 0.3231(3) 0.3566(3)
H39 H 0.8653 0.2659 0.3403
H40 H 0.8843 0.3559 0.3182
C38 C 0.8634(3) 0.3810(5) 0.3919(4)
H41 H 0.8471 0.3428 0.4129
H42 H 0.8330 0.4231 0.3602
C39 C 0.9187(3) 0.4329(4) 0.4459(3)
H43 H 0.9280 0.4841 0.4261
H44 H 0.9140 0.4551 0.4826
C40 C 0.9657(2) 0.3577(4) 0.4704(3)
H45 H 1.0050 0.3841 0.4900
H46 H 0.9650 0.3192 0.5044
O5 O 0.0691(3) 0.3214(5) 0.6600(4)
H1 H 0.0710 0.2894 0.6937
H2 H 0.0901 0.3695 0.6832
O6 O 0.9958(4) 0.5366(3) 0.1528(4)
H3 H 1.0176 0.5846 0.1581
H4 H 0.9641 0.5580 0.1508
O7? O 1.0093(7) 0.2952(6) 0.7327(5)
H5? H 1.0000 0.3424 0.7500
H6? H 1.0138 0.3084 0.6973
loop_
_geom_bond_atom_site_label_1
_geom_bond_atom_site_label_2
_geom_bond_site_symmetry_1
_geom_bond_site_symmetry_2
O1 C4 1_555 1_555
O2 C5 1_555 1_555
O3 C15 1_555 1_555
O4 C14 1_555 1_555
O5 H1 1_555 1_555
H2 O5 1_555 1_555
O6 H3 1_555 1_555
H4 O6 1_555 1_555
N1 C4 1_555 1_555
N2 C14 1_555 1_555
N3 C1 1_555 1_555
N4 C11 1_555 1_555
C1 C2 1_555 1_555
C2 H7 1_555 1_555
C3 C2 1_555 1_555
C4 C3 1_555 1_555
C5 N1 1_555 1_555
C6 C5 1_555 1_555
C7 C6 1_555 1_555
H8 C7 1_555 1_555
C8 C7 1_555 1_555
H9 C8 1_555 1_555
C9 C8 1_555 1_555
C10 C9 1_555 1_555
C11 C10 1_555 1_555
C12 C11 1_555 1_555
H10 C12 1_555 1_555
C13 C12 1_555 1_555
C14 C13 1_555 1_555
C15 N2 1_555 1_555
C16 C15 1_555 1_555
C17 C16 1_555 1_555
H11 C17 1_555 1_555
C18 C17 1_555 1_555
H12 C18 1_555 1_555
C19 C18 1_555 1_555
C20 C1 1_555 1_555
C21 C3 1_555 1_555
C22 C9 1_555 1_555
C23 C10 1_555 1_555
C24 C13 1_555 1_555
C25 N1 1_555 1_555
H13 C25 1_555 1_555
H14 C25 1_555 1_555
C26 C25 1_555 1_555
H15 C26 1_555 1_555
H16 C26 1_555 1_555
C27 C26 1_555 1_555
H17 C27 1_555 1_555
H18 C27 1_555 1_555
C28 C27 1_555 1_555
H19 C28 1_555 1_555
H20 C28 1_555 1_555
H21 C28 1_555 1_555
C29 N2 1_555 1_555
H22 C29 1_555 1_555
H23 C29 1_555 1_555
C30 C29 1_555 1_555
H24 C30 1_555 1_555
H25 C30 1_555 1_555
C31 C30 1_555 1_555
H26 C31 1_555 1_555
H27 C31 1_555 1_555
C32 C31 1_555 1_555
H28 C32 1_555 1_555
H29 C32 1_555 1_555
H30 C32 1_555 1_555
C33 N4 1_555 1_555
H31 C33 1_555 1_555
H32 C33 1_555 1_555
C34 C33 1_555 1_555
H33 C34 1_555 1_555
H34 C34 1_555 1_555
C35 C34 1_555 1_555
H35 C35 1_555 1_555
H36 C35 1_555 1_555
C36 N4 1_555 1_555
H37 C36 1_555 1_555
H38 C36 1_555 1_555
C37 N3 1_555 1_555
H39 C37 1_555 1_555
H40 C37 1_555 1_555
C38 C37 1_555 1_555
H41 C38 1_555 1_555
H42 C38 1_555 1_555
C39 C38 1_555 1_555
H43 C39 1_555 1_555
H44 C39 1_555 1_555
C40 N3 1_555 1_555
H45 C40 1_555 1_555
H46 C40 1_555 1_555
C6 C21 1_555 1_555
C16 C24 1_555 1_555
C19 C20 1_555 1_555
C19 C23 1_555 1_555
C20 C22 1_555 1_555
C21 C22 1_555 1_555
C23 C24 1_555 1_555
C35 C36 1_555 1_555
C39 C40 1_555 1_555

#END
