
#######################################################################
#
#                 Cambridge Crystallographic Data Centre
#                                CCDC 
#
#######################################################################
#
# If this CIF has been generated from an entry in the Cambridge 
# Structural Database, then it will include bibliographic, chemical, 
# crystal, experimental, refinement or atomic coordinate data resulting 
# from the CCDC's data processing and validation procedures.
#
#######################################################################

data_BAMYEW
_chemical_formula_moiety         'C82 H14 O2'
_chemical_name_systematic        
(5-methoxy-5-oxo-1-phenylpentylene)C70fullerene
_symmetry_cell_setting           monoclinic
_symmetry_space_group_name_H-M   'P 21/n'
_symmetry_Int_Tables_number      14
_space_group_name_Hall           '-P 2yn'
loop_
_symmetry_equiv_pos_site_id
_symmetry_equiv_pos_as_xyz
1 x,y,z
2 1/2-x,1/2+y,1/2-z
3 -x,-y,-z
4 1/2+x,1/2-y,1/2+z
_cell_length_a                   13.2588(3)
_cell_length_b                   18.5395(4)
_cell_length_c                   16.5144(4)
_cell_angle_alpha                90
_cell_angle_beta                 91.969(2)
_cell_angle_gamma                90
_cell_volume                     4057.03
_exptl_crystal_colour            'dark black'
_exptl_crystal_description       block
_cell_formula_units_Z            4
loop_
_atom_site_label
_atom_site_type_symbol
_atom_site_fract_x
_atom_site_fract_y
_atom_site_fract_z
O1 O 0.4046(2) 0.44287(14) 0.05903(15)
C1 C -0.2282(2) 0.10138(15) -0.00351(18)
C2 C 0.0345(2) 0.12968(18) -0.0259(2)
C3 C 0.1015(2) 0.64484(19) 0.4185(2)
C4 C 0.1079(2) 0.52732(17) 0.3149(2)
C5 C 0.3967(2) 0.4088(2) 0.1297(2)
C6 C -0.3852(2) 0.25919(18) 0.1638(2)
C7 C 0.1429(2) 0.22268(18) 0.0381(2)
C8 C 0.1032(2) 0.5970(2) 0.2850(2)
C9 C 0.1005(2) 0.65530(18) 0.3361(2)
C10 C -0.1473(3) 0.28753(19) 0.35890(17)
C11 C 0.1077(3) 0.51781(18) 0.3977(2)
C12 C -0.2111(9) 0.2093(7) -0.0887(8)
C13 C 0.0645(5) 0.4375(4) 0.2021(4)
C14 C 0.1042(3) 0.5762(2) 0.4490(2)
C15 C -0.0322(7) 0.4730(4) 0.1788(4)
C16 C -0.2175(5) 0.2857(4) -0.0839(4)
C17 C -0.0502(6) 0.4685(4) 0.0941(5)
C18 C -0.2844(6) 0.1596(4) 0.2331(4)
C19 C -0.3379(4) 0.1967(3) 0.0134(4)
C20 C 0.0899(5) 0.1088(3) 0.1170(5)
C21 C -0.1163(7) 0.3180(4) -0.0895(4)
C22 C 0.0486(7) 0.2598(5) -0.0639(5)
C23 C 0.0483(5) 0.1048(3) 0.1910(4)
C24 C -0.2885(5) 0.3220(4) -0.0328(5)
C25 C -0.2662(5) 0.3894(4) -0.0063(4)
C26 C 0.0937(5) 0.3167(4) 0.2693(4)
C27 C 0.0168(5) 0.1970(4) 0.2972(4)
C28 C -0.3508(5) 0.3783(4) 0.2040(5)
C29 C -0.2086(5) 0.0706(3) 0.1390(4)
C30 C -0.2820(6) 0.4212(4) 0.2394(5)
C31 C 0.1312(5) 0.4550(3) 0.2743(4)
C32 C -0.2148(5) 0.3995(4) 0.3072(4)
C33 C -0.2629(5) 0.2078(4) 0.2950(4)
C34 C -0.2301(5) 0.3271(4) 0.3359(3)
C35 C 0.1382(4) 0.2969(3) 0.0493(4)
C36 C 0.0363(4) 0.0883(3) 0.0432(4)
C37 C 0.2974(5) 0.4954(3) 0.2129(4)
H1 H 0.3041 0.5424 0.2410
H2 H 0.2600 0.5028 0.1606
C38 C -0.1477(4) 0.4652(3) 0.0553(3)
C39 C 0.2423(5) 0.4408(3) 0.2655(3)
H3 H 0.2505 0.3922 0.2418
H4 H 0.2755 0.4404 0.3201
C40 C 0.1409(4) 0.2869(3) 0.2003(3)
C41 C 0.0930(4) 0.4002(3) 0.1270(3)
C42 C -0.0475(5) 0.3151(4) 0.3481(3)
C43 C -0.0644(5) 0.1283(3) -0.0665(4)
C44 C 0.0891(4) 0.1962(3) -0.0291(4)
C45 C -0.3514(4) 0.1849(3) 0.1622(4)
C46 C -0.3845(4) 0.3013(3) 0.0919(4)
C47 C -0.2178(4) 0.4689(3) 0.1899(4)
C48 C -0.1608(6) 0.2116(4) 0.3322(4)
C49 C -0.3042(11) 0.2823(7) 0.2975(9)
C50 C -0.3629(5) 0.3040(4) 0.2322(5)
C51 C -0.3062(5) 0.4185(3) 0.0694(4)
C52 C 0.0779(5) 0.1643(4) 0.2381(4)
C53 C -0.0487(6) 0.2556(4) -0.1016(4)
C54 C 0.0271(5) 0.4224(4) 0.0609(4)
C55 C -0.2166(6) 0.1044(3) 0.2150(4)
C56 C -0.1161(5) 0.1082(3) 0.2541(4)
C57 C -0.0894(5) 0.3785(4) -0.0486(4)
C58 C -0.1637(6) 0.4208(4) -0.0117(5)
C59 C 0.0626(7) 0.3890(4) 0.2832(5)
C60 C -0.1200(6) 0.4303(4) 0.2985(5)
C61 C 0.0324(5) 0.2678(3) 0.3143(4)
C62 C -0.2668(6) 0.1642(5) -0.0434(5)
C63 C 0.0760(6) 0.3207(4) -0.0176(4)
C64 C 0.0164(5) 0.3809(3) -0.0085(4)
C65 C -0.0396(7) 0.3879(5) 0.3220(4)
C66 C -0.1152(8) 0.4739(4) 0.2251(7)
C67 C -0.0887(6) 0.1635(4) 0.3050(4)
C68 C -0.0484(5) 0.0748(4) 0.1972(5)
C69 C -0.3514(5) 0.2713(4) 0.0165(4)
C70 C -0.1065(7) 0.1927(4) -0.1025(4)
C71 C -0.234(2) 0.465(2) 0.1083(18)
C72 C -0.3636(8) 0.3746(5) 0.1136(6)
C73 C 0.1373(9) 0.3333(7) 0.1245(7)
C74 C -0.1257(9) 0.0826(6) -0.0164(7)
C75 C -0.1020(6) 0.0519(3) 0.1263(5)
C76 C -0.0650(7) 0.0582(4) 0.0496(6)
C77 C -0.2687(7) 0.0959(5) 0.0736(6)
C78 C -0.3342(6) 0.1523(4) 0.0877(5)
C79 C 0.1399(5) 0.2120(4) 0.1907(4)
C80 C 0.1463(4) 0.1779(3) 0.1111(4)
O2 O 0.38326(19) 0.34475(15) 0.13592(17)
C81 C 0.391(5) 0.3864(18) -0.001(2)
H5 H 0.4574 0.3709 -0.0194
H6 H 0.3509 0.4048 -0.0475
H7 H 0.3566 0.3453 0.0227
H8 H 0.097(3) 0.690(2) 0.450(2)
H9 H 0.099(3) 0.707(2) 0.314(3)
H10 H 0.109(3) 0.468(3) 0.423(3)
H11 H 0.1027(10) 0.606(3) 0.226(3)
H12 H 0.105(3) 0.564(2) 0.502(3)
C82 C 0.4048(3) 0.4614(3) 0.1987(3)
H13 H 0.435(4) 0.507(3) 0.173(3)
H14 H 0.439(4) 0.441(3) 0.242(3)
C83? C 0.0365(6) 0.4321(4) 0.0984(5)
C84? C -0.3078(9) 0.2585(5) 0.2935(6)
C85? C -0.2359(8) 0.0813(6) 0.0831(7)
C86? C -0.3574(8) 0.3870(5) 0.1448(8)
C87? C -0.1139(7) 0.1621(4) -0.0949(5)
C88? C 0.0744(5) 0.4041(4) 0.2536(5)
C89? C -0.0522(7) 0.0622(4) 0.0834(6)
C90? C -0.1478(6) 0.2926(4) -0.1064(4)
C91? C -0.0626(6) 0.1881(4) 0.3188(4)
C92? C -0.2042(5) 0.1258(4) 0.2467(5)
C93? C -0.0251(5) 0.1034(4) 0.2168(4)
C94? C -0.1677(6) 0.1756(4) 0.3133(4)
C95? C 0.1054(4) 0.1522(4) 0.0350(4)
C96? C -0.2835(6) 0.4460(4) 0.1710(5)
C97? C 0.1315(6) 0.1952(4) 0.1682(6)
C98? C -0.2787(6) 0.2153(4) -0.0654(4)
C99? C 0.1012(6) 0.1317(3) 0.1129(5)
C100? C -0.3449(5) 0.2129(4) 0.2245(4)
C101? C -0.3817(5) 0.2460(4) 0.0819(4)
C102? C 0.3064(5) 0.4528(3) 0.2527(4)
H15? H 0.2933 0.4014 0.2648
H16? H 0.3147 0.4797 0.3043
C103? C 0.2218(4) 0.4845(3) 0.2001(3)
H17? H 0.218(5) 0.459(3) 0.140(4)
H18? H 0.246(5) 0.535(4) 0.185(4)
C104? C 0.1193(5) 0.4784(3) 0.2405(4)
C105? C 0.1193(4) 0.3378(3) 0.2174(3)
C106? C 0.0966(4) 0.3764(3) 0.0735(4)
C107? C 0.0315(6) 0.4575(4) 0.1854(4)
C108? C -0.0538(6) 0.2642(5) 0.3539(4)
C109? C 0.1559(4) 0.2525(3) 0.1137(4)
C110? C 0.0241(8) 0.2486(5) -0.0829(6)
C111? C -0.0479(6) 0.0818(4) 0.0055(5)
C112? C -0.0088(6) 0.1759(4) -0.0820(4)
C113? C 0.0249(5) 0.0890(3) 0.1443(5)
C114? C -0.1726(6) 0.3636(5) 0.3448(4)
C115? C -0.3076(5) 0.1260(3) 0.1209(4)
C116? C -0.2997(6) 0.1609(4) -0.0161(5)
C117? C -0.1255(6) 0.4769(3) 0.1116(5)
C118? C -0.2223(7) 0.2352(5) 0.3345(4)
C119? C -0.3775(6) 0.3341(6) 0.1962(6)
C120? C -0.2634(6) 0.4199(4) 0.0325(5)
C121? C -0.2241(5) 0.3334(4) -0.0718(4)
C122? C 0.0101(5) 0.1620(3) 0.2729(4)
C123? C 0.0737(6) 0.3441(4) -0.0060(5)
C124? C -0.1278(6) 0.0876(3) 0.2084(4)
C125? C 0.0920(4) 0.2836(4) 0.2700(4)
C126? C 0.0227(5) 0.3038(4) 0.3264(3)
C127? C -0.2424(7) 0.4413(5) 0.2458(6)
C128? C -0.2586(6) 0.3848(4) 0.3019(4)
C129? C -0.0174(6) 0.3670(4) -0.0461(4)
C130? C -0.0549(7) 0.4507(4) 0.0591(6)
C131? C -0.0946(7) 0.4128(4) 0.3186(4)
C132? C -0.0004(6) 0.3819(4) 0.3147(4)
C133? C -0.0749(8) 0.4782(5) 0.1916(7)
C134? C -0.1326(7) 0.4607(5) 0.2551(7)
C135? C -0.0485(7) 0.3022(5) -0.0980(4)
C136? C -0.1947(6) 0.3996(4) -0.0239(4)
C137? C -0.0884(5) 0.4112(4) -0.0154(4)
C138? C -0.3032(5) 0.2913(4) -0.0424(4)
C139? C -0.1864(11) 0.2142(8) -0.1060(8)
C140? C -0.3422(5) 0.3762(4) 0.0607(5)
C141? C -0.226(3) 0.466(2) 0.0997(17)
C142? C 0.0922(4) 0.2049(4) 0.2418(4)
C143? C 0.0997(6) 0.2736(5) -0.0240(5)
C144? C -0.3573(6) 0.3024(4) 0.0248(5)
C145? C -0.3327(5) 0.3305(4) 0.2747(5)
C146? C 0.1409(9) 0.3253(7) 0.1355(7)
C147? C -0.1385(10) 0.1006(7) -0.0380(7)
C148? C -0.1460(7) 0.0619(4) 0.1263(4)
C149? C -0.3491(4) 0.1731(4) 0.0636(4)
C150? C -0.2995(6) 0.1490(5) 0.2051(5)
C151? C 0.3940(15) 0.4019(5) -0.0141(6)
H19? H 0.4356 0.3583 -0.0095
H20? H 0.4162 0.4311 -0.0597
H21? H 0.3231 0.3884 -0.0233
loop_
_geom_bond_atom_site_label_1
_geom_bond_atom_site_label_2
_geom_bond_site_symmetry_1
_geom_bond_site_symmetry_2
O1 C5 1_555 1_555
C1 C62 1_555 1_555
C2 C36 1_555 1_555
C3 C9 1_555 1_555
C4 C8 1_555 1_555
C5 O2 1_555 1_555
C6 C45 1_555 1_555
C7 C35 1_555 1_555
C8 C9 1_555 1_555
C9 H9 1_555 1_555
C10 C34 1_555 1_555
C11 C4 1_555 1_555
C12 C16 1_555 1_555
C13 C15 1_555 1_555
C14 C3 1_555 1_555
C15 C17 1_555 1_555
C16 C21 1_555 1_555
C17 C38 1_555 1_555
C18 C33 1_555 1_555
C19 C62 1_555 1_555
C20 C23 1_555 1_555
C21 C53 1_555 1_555
C22 C44 1_555 1_555
C23 C52 1_555 1_555
C24 C16 1_555 1_555
C25 C24 1_555 1_555
C26 C40 1_555 1_555
C27 C52 1_555 1_555
C28 C30 1_555 1_555
C29 C55 1_555 1_555
C30 C32 1_555 1_555
C31 C4 1_555 1_555
C32 C34 1_555 1_555
C33 C48 1_555 1_555
C34 C49 1_555 1_555
C35 C63 1_555 1_555
C36 C20 1_555 1_555
C37 H1 1_555 1_555
H2 C37 1_555 1_555
C38 C58 1_555 1_555
C39 C31 1_555 1_555
H3 C39 1_555 1_555
H4 C39 1_555 1_555
C40 C73 1_555 1_555
C41 C13 1_555 1_555
C42 C10 1_555 1_555
C43 C2 1_555 1_555
C44 C2 1_555 1_555
C45 C18 1_555 1_555
C46 C6 1_555 1_555
C47 C30 1_555 1_555
C48 C10 1_555 1_555
C49 C33 1_555 1_555
C50 C6 1_555 1_555
C51 C25 1_555 1_555
C52 C79 1_555 1_555
C53 C22 1_555 1_555
C54 C17 1_555 1_555
C55 C18 1_555 1_555
C56 C55 1_555 1_555
C57 C21 1_555 1_555
C58 C25 1_555 1_555
C59 C13 1_555 1_555
C60 C32 1_555 1_555
C61 C26 1_555 1_555
C62 C12 1_555 1_555
C63 C22 1_555 1_555
C64 C54 1_555 1_555
C65 C42 1_555 1_555
C66 C15 1_555 1_555
C67 C27 1_555 1_555
C68 C23 1_555 1_555
C69 C19 1_555 1_555
C70 C12 1_555 1_555
C71 C38 1_555 1_555
C72 C28 1_555 1_555
C73 C35 1_555 1_555
C74 C1 1_555 1_555
C75 C29 1_555 1_555
C76 C36 1_555 1_555
C77 C1 1_555 1_555
C78 C19 1_555 1_555
C79 C40 1_555 1_555
C80 C7 1_555 1_555
C81 O1 1_555 1_555
H5 C81 1_555 1_555
H6 C81 1_555 1_555
H7 C81 1_555 1_555
H8 C3 1_555 1_555
H10 C11 1_555 1_555
H11 C8 1_555 1_555
H12 C14 1_555 1_555
C82 C5 1_555 1_555
H13 C82 1_555 1_555
H14 C82 1_555 1_555
C7 C44 1_555 1_555
C11 C14 1_555 1_555
C13 C31 1_555 1_555
C20 C80 1_555 1_555
C24 C69 1_555 1_555
C26 C59 1_555 1_555
C27 C61 1_555 1_555
C28 C50 1_555 1_555
C29 C77 1_555 1_555
C31 C59 1_555 1_555
C37 C39 1_555 1_555
C37 C82 1_555 1_555
C41 C54 1_555 1_555
C41 C73 1_555 1_555
C42 C61 1_555 1_555
C43 C70 1_555 1_555
C43 C74 1_555 1_555
C45 C78 1_555 1_555
C46 C69 1_555 1_555
C46 C72 1_555 1_555
C47 C66 1_555 1_555
C47 C71 1_555 1_555
C48 C67 1_555 1_555
C49 C50 1_555 1_555
C51 C71 1_555 1_555
C51 C72 1_555 1_555
C53 C70 1_555 1_555
C56 C67 1_555 1_555
C56 C68 1_555 1_555
C57 C58 1_555 1_555
C57 C64 1_555 1_555
C59 C65 1_555 1_555
C60 C65 1_555 1_555
C60 C66 1_555 1_555
C63 C64 1_555 1_555
C68 C75 1_555 1_555
C74 C76 1_555 1_555
C75 C76 1_555 1_555
C77 C78 1_555 1_555
C79 C80 1_555 1_555

#END
