
#######################################################################
#
#                 Cambridge Crystallographic Data Centre
#                                CCDC 
#
#######################################################################
#
# If this CIF has been generated from an entry in the Cambridge 
# Structural Database, then it will include bibliographic, chemical, 
# crystal, experimental, refinement or atomic coordinate data resulting 
# from the CCDC's data processing and validation procedures.
#
#######################################################################

data_BAMZAS
_chemical_formula_moiety         'C17 H25 Br1 N2 O4 S1'
_chemical_name_systematic        
2-(1-Bromohexyl)-2-methyl-1-((4-nitrophenyl)sulfonyl)pyrrolidine
_symmetry_cell_setting           monoclinic
_symmetry_space_group_name_H-M   'P 21'
_symmetry_Int_Tables_number      4
_space_group_name_Hall           'P 2yb'
loop_
_symmetry_equiv_pos_site_id
_symmetry_equiv_pos_as_xyz
1 x,y,z
2 -x,1/2+y,-z
_cell_length_a                   6.9024(14)
_cell_length_b                   7.5807(15)
_cell_length_c                   18.512(4)
_cell_angle_alpha                90
_cell_angle_beta                 91.49(3)
_cell_angle_gamma                90
_cell_volume                     968.313
_exptl_crystal_colour            colorless
_exptl_crystal_description       block
_cell_formula_units_Z            2
loop_
_atom_site_label
_atom_site_type_symbol
_atom_site_fract_x
_atom_site_fract_y
_atom_site_fract_z
Br1 Br -0.16557(5) 0.51557(6) 0.615742(18)
S1 S 0.02829(12) 0.71059(10) 0.81109(4)
O1 O 0.4829(4) 0.6317(4) 1.13085(14)
O2 O 0.7305(4) 0.6676(5) 1.06353(16)
O3 O -0.1547(3) 0.7648(3) 0.83813(13)
O4 O 0.1263(4) 0.8164(3) 0.75973(13)
N1 N 0.5555(4) 0.6545(4) 1.07202(16)
N2 N 0.0001(3) 0.5162(4) 0.77738(12)
C1 C 0.4250(5) 0.6659(4) 1.00780(18)
C2 C 0.2316(5) 0.6236(5) 1.01509(18)
H1 H 0.1835 0.5860 1.0602
C3 C 0.1105(5) 0.6379(4) 0.95473(18)
H2 H -0.0233 0.6106 0.9581
C4 C 0.1847(5) 0.6925(4) 0.88862(16)
C5 C 0.3797(5) 0.7329(4) 0.88303(18)
H3 H 0.4294 0.7695 0.8380
C6 C 0.5017(5) 0.7197(5) 0.94332(18)
H4 H 0.6356 0.7472 0.9404
C7 C -0.1147(5) 0.3852(4) 0.81708(19)
H5 H -0.0529 0.3581 0.8646
H6 H -0.2479 0.4288 0.8246
C8 C -0.1166(7) 0.2294(5) 0.7701(3)
H7 H -0.2350 0.2293 0.7387
H8 H -0.1158 0.1206 0.7997
C9 C 0.0582(5) 0.2357(4) 0.72524(19)
H9 H 0.0262 0.1943 0.6756
H10 H 0.1605 0.1583 0.7462
C10 C 0.1304(4) 0.4296(4) 0.72341(16)
C11 C 0.3435(5) 0.4397(5) 0.74835(17)
H11 H 0.4205 0.3592 0.7192
H12 H 0.3555 0.4057 0.7993
H13 H 0.3909 0.5606 0.7425
C12 C 0.1087(4) 0.5180(5) 0.64913(14)
H14 H 0.1492 0.6440 0.6547
C13 C 0.2325(5) 0.4355(5) 0.59135(17)
H15 H 0.3693 0.4378 0.6088
H16 H 0.1944 0.3102 0.5860
C14 C 0.2220(5) 0.5205(6) 0.51724(16)
H17 H 0.2382 0.6497 0.5224
H18 H 0.0928 0.4982 0.4947
C15 C 0.3787(5) 0.4485(5) 0.46802(18)
H19 H 0.5074 0.4840 0.4879
H20 H 0.3731 0.3180 0.4686
C16 C 0.3598(5) 0.5111(6) 0.39088(17)
H21 H 0.3687 0.6415 0.3900
H22 H 0.2304 0.4777 0.3710
C17 C 0.5138(7) 0.4349(6) 0.3432(2)
H23 H 0.4958 0.4806 0.2940
H24 H 0.5030 0.3060 0.3426
H25 H 0.6423 0.4687 0.3622
loop_
_geom_bond_atom_site_label_1
_geom_bond_atom_site_label_2
_geom_bond_site_symmetry_1
_geom_bond_site_symmetry_2
Br1 C12 1_555 1_555
S1 O3 1_555 1_555
O1 N1 1_555 1_555
O2 N1 1_555 1_555
O4 S1 1_555 1_555
N1 C1 1_555 1_555
N2 S1 1_555 1_555
C1 C2 1_555 1_555
C2 H1 1_555 1_555
C3 C2 1_555 1_555
H2 C3 1_555 1_555
C4 S1 1_555 1_555
C5 C4 1_555 1_555
H3 C5 1_555 1_555
C6 C1 1_555 1_555
H4 C6 1_555 1_555
C7 N2 1_555 1_555
H5 C7 1_555 1_555
H6 C7 1_555 1_555
C8 C7 1_555 1_555
H7 C8 1_555 1_555
H8 C8 1_555 1_555
C9 C8 1_555 1_555
H9 C9 1_555 1_555
H10 C9 1_555 1_555
C10 N2 1_555 1_555
C11 C10 1_555 1_555
H11 C11 1_555 1_555
H12 C11 1_555 1_555
H13 C11 1_555 1_555
C12 C10 1_555 1_555
H14 C12 1_555 1_555
C13 C12 1_555 1_555
H15 C13 1_555 1_555
H16 C13 1_555 1_555
C14 C13 1_555 1_555
H17 C14 1_555 1_555
H18 C14 1_555 1_555
C15 C14 1_555 1_555
H19 C15 1_555 1_555
H20 C15 1_555 1_555
C16 C15 1_555 1_555
H21 C16 1_555 1_555
H22 C16 1_555 1_555
C17 C16 1_555 1_555
H23 C17 1_555 1_555
H24 C17 1_555 1_555
H25 C17 1_555 1_555
C3 C4 1_555 1_555
C5 C6 1_555 1_555
C9 C10 1_555 1_555

#END
