
#######################################################################
#
#                 Cambridge Crystallographic Data Centre
#                                CCDC 
#
#######################################################################
#
# If this CIF has been generated from an entry in the Cambridge 
# Structural Database, then it will include bibliographic, chemical, 
# crystal, experimental, refinement or atomic coordinate data resulting 
# from the CCDC's data processing and validation procedures.
#
#######################################################################

data_BAMZEW
_chemical_formula_moiety         'C24 H20 N2 O2'
_chemical_name_systematic        
'Ethyl 1,2,4-triphenyl-1H-imidazole-5-carboxylate'
_symmetry_cell_setting           triclinic
_symmetry_space_group_name_H-M   'P -1'
_symmetry_Int_Tables_number      2
_space_group_name_Hall           '-P 1'
loop_
_symmetry_equiv_pos_site_id
_symmetry_equiv_pos_as_xyz
1 x,y,z
2 -x,-y,-z
_cell_length_a                   8.797(4)
_cell_length_b                   9.896(5)
_cell_length_c                   22.154(11)
_cell_angle_alpha                95.763(10)
_cell_angle_beta                 92.756(10)
_cell_angle_gamma                98.775(13)
_cell_volume                     1892.46
_exptl_crystal_colour            colorless
_exptl_crystal_description       prism
_cell_formula_units_Z            4
loop_
_atom_site_label
_atom_site_type_symbol
_atom_site_fract_x
_atom_site_fract_y
_atom_site_fract_z
O1 O 0.33471(19) 0.40793(18) -0.06021(7)
O2 O 0.26277(18) 0.33098(17) 0.02815(7)
N1 N 0.5350(2) 0.2258(2) 0.04477(8)
N2 N 0.7023(2) 0.1753(2) -0.02313(8)
C1 C 0.5942(3) 0.2394(2) -0.05056(10)
C2 C 0.6035(3) 0.2521(2) -0.11634(10)
C3 C 0.4726(3) 0.2264(3) -0.15648(10)
H1 H 0.3732 0.2101 -0.1412
C4 C 0.4869(3) 0.2246(2) -0.21900(11)
H2 H 0.3974 0.2067 -0.2461
C5 C 0.6320(3) 0.2488(3) -0.24170(10)
H3 H 0.6418 0.2471 -0.2843
C6 C 0.7620(3) 0.2755(2) -0.20212(10)
H4 H 0.8611 0.2943 -0.2175
C7 C 0.7481(3) 0.2749(2) -0.13997(10)
H5 H 0.8382 0.2901 -0.1132
C8 C 0.6637(3) 0.1665(2) 0.03408(10)
C9 C 0.7510(3) 0.0962(2) 0.07624(10)
C10 C 0.8380(3) 0.0010(3) 0.05009(10)
H6 H 0.8333 -0.0186 0.0071
C11 C 0.9307(3) -0.0650(3) 0.08560(11)
H7 H 0.9902 -0.1280 0.0669
C12 C 0.9366(3) -0.0391(3) 0.14866(10)
H8 H 0.9988 -0.0852 0.1733
C13 C 0.8514(3) 0.0542(3) 0.17495(11)
H9 H 0.8552 0.0721 0.2180
C14 C 0.7605(3) 0.1223(3) 0.13971(10)
H10 H 0.7040 0.1874 0.1587
C15 C 0.4674(3) 0.2363(2) 0.10331(10)
C16 C 0.3890(3) 0.1192(3) 0.12282(10)
H11 H 0.3685 0.0357 0.0966
C17 C 0.3402(3) 0.1252(3) 0.18171(10)
H12 H 0.2877 0.0449 0.1962
C18 C 0.3680(3) 0.2474(3) 0.21892(10)
H13 H 0.3370 0.2503 0.2595
C19 C 0.4409(3) 0.3668(3) 0.19779(10)
H14 H 0.4548 0.4519 0.2230
C20 C 0.4933(3) 0.3608(3) 0.13954(10)
H15 H 0.5460 0.4408 0.1249
C21 C 0.4891(3) 0.2731(2) -0.00951(10)
C22 C 0.3573(3) 0.3451(3) -0.01738(10)
C23 C 0.1325(3) 0.4043(3) 0.02551(10)
H16 H 0.0606 0.3654 -0.0099
H17 H 0.1676 0.5030 0.0220
C24 C 0.0547(3) 0.3864(3) 0.08429(10)
H18 H 0.0258 0.2882 0.0881
H19 H -0.0380 0.4303 0.0841
H20 H 0.1258 0.4293 0.1187
O3 O 0.13373(19) 0.91477(18) 0.48849(7)
O4 O 0.12933(18) 0.86852(17) 0.38674(7)
N3 N 0.2333(2) 0.6524(2) 0.49807(8)
N4 N 0.1736(2) 0.4632(2) 0.43247(8)
C25 C 0.2910(3) 0.7393(3) 0.55309(10)
C26 C 0.4253(3) 0.8321(3) 0.55329(10)
H21 H 0.4766 0.8428 0.5169
C27 C 0.4842(3) 0.9095(3) 0.60743(11)
H22 H 0.5754 0.9749 0.6080
C28 C 0.4103(3) 0.8915(3) 0.66057(11)
H23 H 0.4524 0.9428 0.6978
C29 C 0.2753(3) 0.7988(3) 0.65936(11)
H24 H 0.2246 0.7867 0.6958
C30 C 0.2136(3) 0.7237(3) 0.60542(10)
H25 H 0.1191 0.6622 0.6043
C31 C 0.2364(3) 0.5135(3) 0.48770(10)
C32 C 0.2985(3) 0.4273(3) 0.53047(10)
C33 C 0.4198(3) 0.4770(3) 0.57401(10)
H26 H 0.4665 0.5708 0.5774
C34 C 0.4718(3) 0.3884(3) 0.61239(10)
H27 H 0.5531 0.4223 0.6424
C35 C 0.4059(3) 0.2512(3) 0.60726(10)
H28 H 0.4414 0.1916 0.6339
C36 C 0.2879(3) 0.2003(3) 0.56308(10)
H29 H 0.2442 0.1057 0.5589
C37 C 0.2340(3) 0.2886(3) 0.52496(10)
H30 H 0.1528 0.2540 0.4950
C38 C 0.1303(3) 0.5730(3) 0.40615(10)
C39 C 0.0514(3) 0.5453(2) 0.34444(10)
C40 C 0.0969(3) 0.4444(2) 0.30366(10)
H31 H 0.1812 0.4006 0.3149
C41 C 0.0202(3) 0.4074(3) 0.24692(10)
H32 H 0.0525 0.3388 0.2195
C42 C -0.1038(3) 0.4702(3) 0.22979(11)
H33 H -0.1559 0.4454 0.1908
C43 C -0.1505(3) 0.5694(3) 0.27033(11)
H34 H -0.2359 0.6121 0.2593
C44 C -0.0727(3) 0.6066(3) 0.32712(10)
H35 H -0.1053 0.6751 0.3545
C45 C 0.1676(3) 0.6922(3) 0.44582(10)
C46 C 0.1424(3) 0.8354(3) 0.44427(10)
C47 C 0.0882(3) 1.0046(3) 0.38124(10)
H36 H 0.1673 1.0770 0.4032
H37 H -0.0124 1.0118 0.3985
C48 C 0.0792(3) 1.0203(3) 0.31487(10)
H38 H 0.1773 1.0066 0.2979
H39 H 0.0587 1.1128 0.3090
H40 H -0.0041 0.9518 0.2942
loop_
_geom_bond_atom_site_label_1
_geom_bond_atom_site_label_2
_geom_bond_site_symmetry_1
_geom_bond_site_symmetry_2
O1 C22 1_555 1_555
O2 C22 1_555 1_555
O3 C46 1_555 1_555
O4 C46 1_555 1_555
N1 C8 1_555 1_555
N2 C1 1_555 1_555
N3 C25 1_555 1_555
N4 C31 1_555 1_555
C1 C2 1_555 1_555
C2 C3 1_555 1_555
C3 H1 1_555 1_555
C4 C3 1_555 1_555
H2 C4 1_555 1_555
C5 C4 1_555 1_555
H3 C5 1_555 1_555
C6 C5 1_555 1_555
H4 C6 1_555 1_555
C7 C2 1_555 1_555
H5 C7 1_555 1_555
C8 N2 1_555 1_555
C9 C8 1_555 1_555
C10 C9 1_555 1_555
H6 C10 1_555 1_555
C11 C10 1_555 1_555
H7 C11 1_555 1_555
C12 C11 1_555 1_555
H8 C12 1_555 1_555
C13 C12 1_555 1_555
H9 C13 1_555 1_555
C14 C9 1_555 1_555
H10 C14 1_555 1_555
C15 N1 1_555 1_555
C16 C15 1_555 1_555
H11 C16 1_555 1_555
C17 C16 1_555 1_555
H12 C17 1_555 1_555
C18 C17 1_555 1_555
H13 C18 1_555 1_555
C19 C18 1_555 1_555
H14 C19 1_555 1_555
C20 C15 1_555 1_555
H15 C20 1_555 1_555
C21 N1 1_555 1_555
C22 C21 1_555 1_555
C23 O2 1_555 1_555
H16 C23 1_555 1_555
H17 C23 1_555 1_555
C24 C23 1_555 1_555
H18 C24 1_555 1_555
H19 C24 1_555 1_555
H20 C24 1_555 1_555
C25 C26 1_555 1_555
C26 H21 1_555 1_555
C27 C26 1_555 1_555
H22 C27 1_555 1_555
C28 C27 1_555 1_555
H23 C28 1_555 1_555
C29 C28 1_555 1_555
H24 C29 1_555 1_555
C30 C25 1_555 1_555
H25 C30 1_555 1_555
C31 N3 1_555 1_555
C32 C31 1_555 1_555
C33 C32 1_555 1_555
H26 C33 1_555 1_555
C34 C33 1_555 1_555
H27 C34 1_555 1_555
C35 C34 1_555 1_555
H28 C35 1_555 1_555
C36 C35 1_555 1_555
H29 C36 1_555 1_555
C37 C32 1_555 1_555
H30 C37 1_555 1_555
C38 N4 1_555 1_555
C39 C38 1_555 1_555
C40 C39 1_555 1_555
H31 C40 1_555 1_555
C41 C40 1_555 1_555
H32 C41 1_555 1_555
C42 C41 1_555 1_555
H33 C42 1_555 1_555
C43 C42 1_555 1_555
H34 C43 1_555 1_555
C44 C39 1_555 1_555
H35 C44 1_555 1_555
C45 N3 1_555 1_555
C46 C45 1_555 1_555
C47 O4 1_555 1_555
H36 C47 1_555 1_555
H37 C47 1_555 1_555
C48 C47 1_555 1_555
H38 C48 1_555 1_555
H39 C48 1_555 1_555
H40 C48 1_555 1_555
C1 C21 1_555 1_555
C6 C7 1_555 1_555
C13 C14 1_555 1_555
C19 C20 1_555 1_555
C29 C30 1_555 1_555
C36 C37 1_555 1_555
C38 C45 1_555 1_555
C43 C44 1_555 1_555

#END
