
#######################################################################
#
#                 Cambridge Crystallographic Data Centre
#                                CCDC 
#
#######################################################################
#
# If this CIF has been generated from an entry in the Cambridge 
# Structural Database, then it will include bibliographic, chemical, 
# crystal, experimental, refinement or atomic coordinate data resulting 
# from the CCDC's data processing and validation procedures.
#
#######################################################################

data_BANCID
_chemical_formula_moiety         '2(C6 H9 N2 1+),2(C4 H3 O4 1-),C4 H4 O4'
_chemical_name_systematic        
'bis((E)-3-Methylpyridin-2(1H)-iminium) bis(hydrogen maleate) maleic acid'
_symmetry_cell_setting           monoclinic
_symmetry_space_group_name_H-M   'C 2/c'
_symmetry_Int_Tables_number      15
_space_group_name_Hall           '-C 2yn'
loop_
_symmetry_equiv_pos_site_id
_symmetry_equiv_pos_as_xyz
1 x,y,z
2 1/2+x,1/2+y,z
3 x,-y,1/2+z
4 1/2+x,1/2-y,1/2+z
5 -x,-y,-z
6 1/2-x,1/2-y,-z
7 -x,y,1/2-z
8 1/2-x,1/2+y,1/2-z
_cell_length_a                   15.891(2)
_cell_length_b                   5.4040(10)
_cell_length_c                   30.761(4)
_cell_angle_alpha                90
_cell_angle_beta                 94.810(10)
_cell_angle_gamma                90
_cell_volume                     2632.3
_cell_formula_units_Z            4
loop_
_atom_site_label
_atom_site_type_symbol
_atom_site_fract_x
_atom_site_fract_y
_atom_site_fract_z
O1 O -0.19828(9) 0.0440(3) 0.46706(4)
O2 O -0.09247(9) 0.2600(2) 0.49719(5)
O3 O 0.00943(8) 0.2196(2) 0.56192(4)
O4 O 0.02859(8) -0.0228(2) 0.61915(4)
C7 C -0.14148(12) 0.0655(4) 0.49580(6)
C8 C -0.12779(12) -0.1318(3) 0.52902(6)
H10 H -0.1639 -0.2666 0.5247
C9 C -0.07306(12) -0.1500(3) 0.56382(6)
H11 H -0.0759 -0.2975 0.5792
C10 C -0.00745(11) 0.0277(3) 0.58243(6)
H13 H -0.0504(14) 0.253(4) 0.5230(7)
O5 O -0.43206(11) 0.7252(3) 0.21871(5)
O6 O -0.50510(9) 0.9077(3) 0.16415(4)
C11 C -0.47289(11) 0.8960(3) 0.20435(6)
C12 C -0.48977(11) 1.1210(3) 0.22971(6)
H12 H -0.4856 1.2733 0.2160
H14 H -0.4938(17) 0.760(5) 0.1482(8)
C12F C -0.51023(11) 1.1210(3) 0.27029(6)
C11F C -0.52711(11) 0.8960(3) 0.29565(6)
O5F O -0.56794(11) 0.7252(3) 0.28129(5)
O6F O -0.49490(9) 0.9077(3) 0.33585(4)
H14F H -0.5062(17) 0.760(5) 0.3518(8)
H12F H -0.5144 1.2733 0.2840
N1 N -0.16646(9) 0.7312(3) 0.35236(5)
H1 H -0.1213 0.8011 0.3639
N2 N -0.16115(9) 0.4746(3) 0.41178(5)
H2 H -0.1165 0.5512 0.4222
H3 H -0.1810 0.3541 0.4261
C1 C -0.20086(12) 0.8174(4) 0.31354(6)
H4 H -0.1756 0.9488 0.3000
C2 C -0.27094(14) 0.7141(4) 0.29461(7)
H5 H -0.2951 0.7719 0.2680
C3 C -0.30706(12) 0.5167(4) 0.31583(6)
H6 H -0.3561 0.4449 0.3029
C4 C -0.27333(11) 0.4255(3) 0.35471(6)
C5 C -0.19910(10) 0.5417(3) 0.37394(6)
C6 C -0.31043(13) 0.2136(4) 0.37779(7)
H7 H -0.3613 0.1597 0.3615
H8 H -0.3231 0.2654 0.4064
H9 H -0.2707 0.0796 0.3803
loop_
_geom_bond_atom_site_label_1
_geom_bond_atom_site_label_2
_geom_bond_site_symmetry_1
_geom_bond_site_symmetry_2
O1 C7 1_555 1_555
O2 C7 1_555 1_555
O3 C10 1_555 1_555
O4 C10 1_555 1_555
O5 C11 1_555 1_555
O6 C11 1_555 1_555
N1 H1 1_555 1_555
N2 H2 1_555 1_555
H3 N2 1_555 1_555
C1 N1 1_555 1_555
H4 C1 1_555 1_555
C2 C1 1_555 1_555
H5 C2 1_555 1_555
C3 C2 1_555 1_555
H6 C3 1_555 1_555
C4 C3 1_555 1_555
C5 N1 1_555 1_555
C6 C4 1_555 1_555
H7 C6 1_555 1_555
H8 C6 1_555 1_555
H9 C6 1_555 1_555
C7 C8 1_555 1_555
C8 H10 1_555 1_555
C9 C8 1_555 1_555
H11 C9 1_555 1_555
C10 C9 1_555 1_555
C11 C12 1_555 1_555
C12 H12 1_555 1_555
H13 O2 1_555 1_555
H14 O6 1_555 1_555
C12F C12 1_555 1_555
C11F C12F 1_555 1_555
O5F C11F 1_555 1_555
O6F C11F 1_555 1_555
H14F O6F 1_555 1_555
H12F C12F 1_555 1_555
N2 C5 1_555 1_555
C4 C5 1_555 1_555

#END
