
#######################################################################
#
#                 Cambridge Crystallographic Data Centre
#                                CCDC 
#
#######################################################################
#
# If this CIF has been generated from an entry in the Cambridge 
# Structural Database, then it will include bibliographic, chemical, 
# crystal, experimental, refinement or atomic coordinate data resulting 
# from the CCDC's data processing and validation procedures.
#
#######################################################################

data_BANCUQ
_chemical_formula_moiety         'C30 H33 N1 O5 S1'
_chemical_name_systematic        
2-(5-Acetyl-5-hydroxy-1-((4-methylphenyl)sulfonyl)-2-(2-phenylethyl)piperidin-4-yl)-1-phenylethanone
_symmetry_cell_setting           monoclinic
_symmetry_space_group_name_H-M   'P 21/c'
_symmetry_Int_Tables_number      14
_space_group_name_Hall           '-P 2ybc'
loop_
_symmetry_equiv_pos_site_id
_symmetry_equiv_pos_as_xyz
1 x,y,z
2 -x,1/2+y,1/2-z
3 -x,-y,-z
4 x,1/2-y,1/2+z
_cell_length_a                   14.21(2)
_cell_length_b                   10.072(15)
_cell_length_c                   19.29(3)
_cell_angle_alpha                90
_cell_angle_beta                 90.054(15)
_cell_angle_gamma                90
_cell_volume                     2760.84
_exptl_crystal_colour            colorless
_exptl_crystal_description       block
_cell_formula_units_Z            4
loop_
_atom_site_label
_atom_site_type_symbol
_atom_site_fract_x
_atom_site_fract_y
_atom_site_fract_z
C1 C 0.9096(3) 0.7132(5) 1.2230(2)
H1 H 0.9132 0.6236 1.2118
C2 C 0.9279(3) 0.7537(6) 1.2905(3)
H2 H 0.9453 0.6918 1.3239
C3 C 0.9201(4) 0.8843(7) 1.3076(3)
H3 H 0.9319 0.9113 1.3529
C4 C 0.8954(4) 0.9753(6) 1.2592(4)
H4 H 0.8892 1.0640 1.2717
C5 C 0.8793(3) 0.9372(5) 1.1913(3)
H5 H 0.8638 1.0008 1.1583
C6 C 0.8862(3) 0.8046(4) 1.1722(3)
C7 C 0.8684(3) 0.7645(5) 1.0992(3)
C8 C 0.8437(3) 0.6209(4) 1.0849(2)
H6 H 0.8051 0.5879 1.1225
H7 H 0.9013 0.5691 1.0843
C9 C 0.7917(3) 0.5989(4) 1.0169(2)
H8 H 0.8301 0.6366 0.9796
C10 C 0.6975(3) 0.6713(4) 1.0168(2)
H9 H 0.6591 0.6368 1.0543
H10 H 0.7085 0.7648 1.0259
C11 C 0.6436(3) 0.6577(4) 0.9494(2)
H11 H 0.5800 0.6923 0.9571
C12 C 0.7236(2) 0.4386(4) 0.93083(19)
H12 H 0.7626 0.4735 0.8938
H13 H 0.7104 0.3461 0.9209
C13 C 0.7756(3) 0.4503(4) 1.0002(2)
C14 C 0.8693(3) 0.3782(4) 0.9922(2)
C15 C 0.8926(3) 0.2649(5) 1.0393(2)
H14 H 0.9554 0.2348 1.0301
H15 H 0.8491 0.1936 1.0314
H16 H 0.8881 0.2937 1.0866
C16 C 0.6879(3) 0.7385(4) 0.89045(19)
H17 H 0.7555 0.7262 0.8911
H18 H 0.6645 0.7060 0.8464
C17 C 0.6657(4) 0.8850(4) 0.8969(3)
H19 H 0.5993 0.8982 0.8875
H20 H 0.6774 0.9126 0.9443
C18 C 0.7215(3) 0.9720(4) 0.8492(3)
C19 C 0.7991(4) 1.0405(6) 0.8708(3)
H21 H 0.8183 1.0331 0.9167
C20 C 0.8503(5) 1.1216(7) 0.8255(6)
H22 H 0.9026 1.1696 0.8399
C21 C 0.8188(7) 1.1255(8) 0.7595(6)
H23 H 0.8520 1.1775 0.7280
C22 C 0.7447(7) 1.0612(7) 0.7363(3)
H24 H 0.7261 1.0677 0.6902
C23 C 0.6965(4) 0.9854(5) 0.7816(3)
H25 H 0.6436 0.9401 0.7658
C24 C 0.5692(3) 0.4617(4) 0.80310(19)
C25 C 0.5413(3) 0.5700(4) 0.7645(2)
H26 H 0.5107 0.6407 0.7857
C26 C 0.5591(3) 0.5727(5) 0.6942(3)
H27 H 0.5413 0.6468 0.6687
C27 C 0.6027(3) 0.4685(4) 0.6609(2)
C28 C 0.6311(3) 0.3625(4) 0.7006(2)
H28 H 0.6623 0.2923 0.6793
C29 C 0.6145(3) 0.3570(4) 0.7713(2)
H29 H 0.6337 0.2837 0.7970
C30 C 0.6191(4) 0.4698(5) 0.5833(2)
H30 H 0.5811 0.5377 0.5624
H31 H 0.6024 0.3851 0.5642
H32 H 0.6843 0.4876 0.5741
N1 N 0.63526(19) 0.5137(3) 0.93458(15)
O1 O 0.8719(2) 0.8452(3) 1.05277(18)
O2 O 0.72426(18) 0.3865(3) 1.05382(14)
H33 H 0.6680 0.4025 1.0492
O3 O 0.9229(2) 0.4120(3) 0.94691(17)
O4 O 0.46833(17) 0.5464(3) 0.90571(14)
O5 O 0.53623(19) 0.3182(3) 0.91088(14)
S1 S 0.54497(7) 0.45592(11) 0.89266(5)
loop_
_geom_bond_atom_site_label_1
_geom_bond_atom_site_label_2
_geom_bond_site_symmetry_1
_geom_bond_site_symmetry_2
C1 H1 1_555 1_555
C2 C1 1_555 1_555
H2 C2 1_555 1_555
C3 C2 1_555 1_555
H3 C3 1_555 1_555
C4 C3 1_555 1_555
H4 C4 1_555 1_555
C5 C4 1_555 1_555
H5 C5 1_555 1_555
C6 C1 1_555 1_555
C7 C6 1_555 1_555
C8 C7 1_555 1_555
H6 C8 1_555 1_555
H7 C8 1_555 1_555
C9 C8 1_555 1_555
H8 C9 1_555 1_555
C10 C9 1_555 1_555
H9 C10 1_555 1_555
H10 C10 1_555 1_555
C11 C10 1_555 1_555
H11 C11 1_555 1_555
C12 H12 1_555 1_555
H13 C12 1_555 1_555
C13 C9 1_555 1_555
C14 C13 1_555 1_555
C15 C14 1_555 1_555
H14 C15 1_555 1_555
H15 C15 1_555 1_555
H16 C15 1_555 1_555
C16 C11 1_555 1_555
H17 C16 1_555 1_555
H18 C16 1_555 1_555
C17 C16 1_555 1_555
H19 C17 1_555 1_555
H20 C17 1_555 1_555
C18 C17 1_555 1_555
C19 C18 1_555 1_555
H21 C19 1_555 1_555
C20 C19 1_555 1_555
H22 C20 1_555 1_555
C21 C20 1_555 1_555
H23 C21 1_555 1_555
C22 C21 1_555 1_555
H24 C22 1_555 1_555
C23 C18 1_555 1_555
H25 C23 1_555 1_555
C24 C25 1_555 1_555
C25 H26 1_555 1_555
C26 C25 1_555 1_555
H27 C26 1_555 1_555
C27 C26 1_555 1_555
C28 C27 1_555 1_555
H28 C28 1_555 1_555
C29 C24 1_555 1_555
H29 C29 1_555 1_555
C30 C27 1_555 1_555
H30 C30 1_555 1_555
H31 C30 1_555 1_555
H32 C30 1_555 1_555
N1 C11 1_555 1_555
O1 C7 1_555 1_555
O2 C13 1_555 1_555
H33 O2 1_555 1_555
O3 C14 1_555 1_555
O4 S1 1_555 1_555
O5 S1 1_555 1_555
S1 C24 1_555 1_555
C5 C6 1_555 1_555
C12 C13 1_555 1_555
C12 N1 1_555 1_555
C22 C23 1_555 1_555
C28 C29 1_555 1_555
N1 S1 1_555 1_555

#END
