
#######################################################################
#
#                 Cambridge Crystallographic Data Centre
#                                CCDC 
#
#######################################################################
#
# If this CIF has been generated from an entry in the Cambridge 
# Structural Database, then it will include bibliographic, chemical, 
# crystal, experimental, refinement or atomic coordinate data resulting 
# from the CCDC's data processing and validation procedures.
#
#######################################################################

data_BANNAH
_chemical_formula_moiety         'C14 H16 O1 S1'
_chemical_name_systematic        
3-Methyl-2-((2-methylphenyl)sulfanyl)cyclohex-2-en-1-one
_symmetry_cell_setting           triclinic
_symmetry_space_group_name_H-M   'P -1'
_symmetry_Int_Tables_number      2
_space_group_name_Hall           '-P 1'
loop_
_symmetry_equiv_pos_site_id
_symmetry_equiv_pos_as_xyz
1 x,y,z
2 -x,-y,-z
_cell_length_a                   7.96950(10)
_cell_length_b                   10.4833(2)
_cell_length_c                   15.5639(3)
_cell_angle_alpha                90.9897(9)
_cell_angle_beta                 102.3762(9)
_cell_angle_gamma                105.3195(9)
_cell_volume                     1221.19
_exptl_crystal_colour            colorless
_exptl_crystal_description       cube
_cell_formula_units_Z            4
loop_
_atom_site_label
_atom_site_type_symbol
_atom_site_fract_x
_atom_site_fract_y
_atom_site_fract_z
S1 S 0.83262(5) 0.31325(4) 0.13812(3)
O1 O 0.7519(3) 0.11840(15) -0.01709(10)
C1 C 0.8195(2) 0.14197(14) 0.13894(11)
C2 C 0.7765(3) 0.06625(18) 0.05222(12)
C3 C 0.7752(5) -0.0780(2) 0.0540(2)
C4 C 0.7086(4) -0.14051(19) 0.13104(18)
C5 C 0.8166(3) -0.06413(19) 0.21612(15)
C6 C 0.8449(2) 0.08282(16) 0.21562(11)
C7 C 0.9038(3) 0.1570(2) 0.30487(13)
C8 C 1.0505(2) 0.38489(14) 0.12194(9)
C9 C 1.0964(2) 0.52164(14) 0.10987(9)
C10 C 1.2668(2) 0.58012(17) 0.09576(10)
C11 C 1.3885(2) 0.50798(18) 0.09585(11)
C12 C 1.3432(2) 0.37417(18) 0.11006(11)
C13 C 1.1740(2) 0.31280(16) 0.12309(11)
C14 C 0.9695(3) 0.60373(16) 0.11334(12)
H1 H 0.723(4) -0.118(3) 0.002(2)
H2 H 0.927(5) -0.074(3) 0.065(2)
H3 H 0.713(3) -0.234(3) 0.1313(17)
H4 H 0.563(3) -0.136(2) 0.1201(15)
H5 H 0.933(4) -0.078(2) 0.2412(17)
H6 H 0.763(4) -0.096(3) 0.2617(19)
H7 H 0.803(3) 0.139(2) 0.3354(16)
H8 H 0.943(4) 0.255(3) 0.303(2)
H9 H 0.993(5) 0.123(3) 0.341(2)
H10 H 1.298(3) 0.675(2) 0.0894(14)
H11 H 1.512(3) 0.553(2) 0.0845(15)
H12 H 1.426(3) 0.322(2) 0.1127(14)
H13 H 1.142(3) 0.218(2) 0.1331(13)
H14 H 0.946(3) 0.611(2) 0.1719(16)
H15 H 1.015(3) 0.686(2) 0.0977(17)
H16 H 0.857(3) 0.568(2) 0.0731(15)
S2 S 0.40487(6) 0.28540(4) 0.44631(3)
O2 O 0.79310(18) 0.32408(13) 0.45940(9)
C15 C 0.5506(2) 0.41163(14) 0.40179(10)
C16 C 0.7385(2) 0.40633(15) 0.41614(10)
C17 C 0.8588(2) 0.50684(19) 0.37217(13)
C18 C 0.8207(2) 0.64070(18) 0.37525(13)
C19 C 0.6246(2) 0.62714(16) 0.33362(11)
C20 C 0.4963(2) 0.51248(15) 0.36286(9)
C21 C 0.3079(2) 0.52108(18) 0.34543(12)
C22 C 0.3779(2) 0.14096(14) 0.37801(10)
C23 C 0.3044(2) 0.01839(15) 0.40964(12)
C24 C 0.2794(2) -0.09714(17) 0.35723(15)
C25 C 0.3205(3) -0.09253(18) 0.27504(15)
C26 C 0.3887(2) 0.02859(19) 0.24347(13)
C27 C 0.4176(2) 0.14546(17) 0.29512(11)
C28 C 0.2548(3) 0.0109(2) 0.49803(14)
H17 H 0.827(3) 0.468(2) 0.3067(17)
H18 H 0.975(3) 0.511(2) 0.4002(16)
H19 H 0.899(3) 0.703(2) 0.3400(17)
H20 H 0.848(3) 0.6746(19) 0.4376(14)
H21 H 0.598(3) 0.611(2) 0.2748(17)
H22 H 0.588(3) 0.712(2) 0.3469(14)
H23 H 0.298(3) 0.594(2) 0.3875(16)
H24 H 0.224(3) 0.438(2) 0.3538(15)
H25 H 0.222(3) -0.187(2) 0.3786(16)
H26 H 0.305(4) -0.175(3) 0.2375(19)
H27 H 0.411(3) 0.0328(19) 0.1866(15)
H28 H 0.468(3) 0.227(2) 0.2749(14)
H29 H 0.162(3) 0.054(2) 0.5000(14)
H30 H 0.208(3) -0.081(3) 0.5061(17)
H31 H 0.357(4) 0.056(2) 0.5491(17)
H32 H 0.262(4) 0.546(3) 0.286(2)
loop_
_geom_bond_atom_site_label_1
_geom_bond_atom_site_label_2
_geom_bond_site_symmetry_1
_geom_bond_site_symmetry_2
S1 C1 1_555 1_555
S2 C15 1_555 1_555
O1 C2 1_555 1_555
O2 C16 1_555 1_555
C1 C2 1_555 1_555
C2 C3 1_555 1_555
C3 C4 1_555 1_555
C4 C5 1_555 1_555
C5 C6 1_555 1_555
C6 C1 1_555 1_555
C7 C6 1_555 1_555
C8 S1 1_555 1_555
C9 C8 1_555 1_555
C10 C9 1_555 1_555
C11 C10 1_555 1_555
C12 C11 1_555 1_555
C13 C8 1_555 1_555
C14 C9 1_555 1_555
C15 C16 1_555 1_555
C16 C17 1_555 1_555
C17 C18 1_555 1_555
C18 C19 1_555 1_555
C19 C20 1_555 1_555
C20 C15 1_555 1_555
C21 C20 1_555 1_555
C22 S2 1_555 1_555
C23 C22 1_555 1_555
C24 C23 1_555 1_555
C25 C24 1_555 1_555
C26 C25 1_555 1_555
C27 C22 1_555 1_555
C28 C23 1_555 1_555
H1 C3 1_555 1_555
H2 C3 1_555 1_555
H3 C4 1_555 1_555
H4 C4 1_555 1_555
H5 C5 1_555 1_555
H6 C5 1_555 1_555
H7 C7 1_555 1_555
H8 C7 1_555 1_555
H9 C7 1_555 1_555
H10 C10 1_555 1_555
H11 C11 1_555 1_555
H12 C12 1_555 1_555
H13 C13 1_555 1_555
H14 C14 1_555 1_555
H15 C14 1_555 1_555
H16 C14 1_555 1_555
H17 C17 1_555 1_555
H18 C17 1_555 1_555
H19 C18 1_555 1_555
H20 C18 1_555 1_555
H21 C19 1_555 1_555
H22 C19 1_555 1_555
H23 C21 1_555 1_555
H24 C21 1_555 1_555
H25 C24 1_555 1_555
H26 C25 1_555 1_555
H27 C26 1_555 1_555
H28 C27 1_555 1_555
H29 C28 1_555 1_555
H30 C28 1_555 1_555
H31 C28 1_555 1_555
H32 C21 1_555 1_555
C12 C13 1_555 1_555
C26 C27 1_555 1_555

#END
