
#######################################################################
#
#                 Cambridge Crystallographic Data Centre
#                                CCDC 
#
#######################################################################
#
# If this CIF has been generated from an entry in the Cambridge 
# Structural Database, then it will include bibliographic, chemical, 
# crystal, experimental, refinement or atomic coordinate data resulting 
# from the CCDC's data processing and validation procedures.
#
#######################################################################

data_BANSAL
_chemical_formula_moiety         'C15 H8 Cl1 N1 O2'
_chemical_name_systematic        3-Chlorobenzoxazolo(3,2-b)isoquinolin-6-one
_symmetry_cell_setting           monoclinic
_symmetry_space_group_name_H-M   'P 21/c'
_symmetry_Int_Tables_number      14
_space_group_name_Hall           '-P 2ybc'
loop_
_symmetry_equiv_pos_site_id
_symmetry_equiv_pos_as_xyz
1 x,y,z
2 x,1/2-y,1/2+z
3 -x,-y,-z
4 -x,1/2+y,1/2-z
_cell_length_a                   23.831(2)
_cell_length_b                   5.9716(6)
_cell_length_c                   8.1549(8)
_cell_angle_alpha                90
_cell_angle_beta                 95.195(2)
_cell_angle_gamma                90
_cell_volume                     1155.75
_exptl_crystal_colour            colorless
_exptl_crystal_description       block
_chemical_melting_point          484.0K
_cell_formula_units_Z            4
_exptl_crystal_recrystallization_method 'acetone-petroleum ether'
loop_
_atom_site_label
_atom_site_type_symbol
_atom_site_fract_x
_atom_site_fract_y
_atom_site_fract_z
Cl1 Cl 0.04180(3) 0.31642(15) 0.83327(11)
O1 O 0.23110(8) -0.2951(3) 0.9522(2)
O2 O 0.25420(7) 0.3438(3) 0.6735(2)
C1 C 0.19150(10) 0.0271(4) 0.8487(3)
C2 C 0.14925(11) 0.1827(5) 0.8142(3)
C3 C 0.09737(11) 0.1282(5) 0.8700(3)
C4 C 0.08815(12) -0.0682(5) 0.9534(4)
C5 C 0.13134(12) -0.2221(5) 0.9880(4)
C6 C 0.18240(11) -0.1688(4) 0.9335(3)
C7 C 0.27110(11) -0.1800(4) 0.8766(3)
C8 C 0.32409(11) -0.2438(4) 0.8622(3)
C9 C 0.35816(10) -0.0951(4) 0.7770(3)
C10 C 0.41469(12) -0.1453(5) 0.7530(4)
C11 C 0.44672(12) -0.0027(5) 0.6705(4)
C12 C 0.42478(12) 0.1997(5) 0.6086(4)
C13 C 0.37016(11) 0.2558(5) 0.6302(3)
C14 C 0.33606(10) 0.1102(4) 0.7127(3)
C15 C 0.27758(10) 0.1748(4) 0.7274(3)
N1 N 0.24785(8) 0.0177(3) 0.8132(2)
H1 H 0.1551(10) 0.318(5) 0.764(3)
H2 H 0.0507(13) -0.097(5) 0.984(3)
H3 H 0.1234(14) -0.356(5) 1.042(4)
H4 H 0.3374(10) -0.380(5) 0.903(3)
H5 H 0.4292(12) -0.276(5) 0.790(4)
H6 H 0.4832(11) -0.044(5) 0.657(3)
H7 H 0.4460(11) 0.298(5) 0.557(3)
H8 H 0.3540(11) 0.396(5) 0.593(3)
loop_
_geom_bond_atom_site_label_1
_geom_bond_atom_site_label_2
_geom_bond_site_symmetry_1
_geom_bond_site_symmetry_2
Cl1 C3 1_555 1_555
O1 C6 1_555 1_555
O2 C15 1_555 1_555
C1 C2 1_555 1_555
C2 C3 1_555 1_555
C3 C4 1_555 1_555
C4 C5 1_555 1_555
C5 C6 1_555 1_555
C6 C1 1_555 1_555
C7 O1 1_555 1_555
C8 C7 1_555 1_555
C9 C8 1_555 1_555
C10 C9 1_555 1_555
C11 C10 1_555 1_555
C12 C11 1_555 1_555
C13 C12 1_555 1_555
C14 C9 1_555 1_555
C15 C14 1_555 1_555
N1 C1 1_555 1_555
H1 C2 1_555 1_555
H2 C4 1_555 1_555
H3 C5 1_555 1_555
H4 C8 1_555 1_555
H5 C10 1_555 1_555
H6 C11 1_555 1_555
H7 C12 1_555 1_555
H8 C13 1_555 1_555
C7 N1 1_555 1_555
C13 C14 1_555 1_555
C15 N1 1_555 1_555

#END
