
#######################################################################
#
#                 Cambridge Crystallographic Data Centre
#                                CCDC 
#
#######################################################################
#
# If this CIF has been generated from an entry in the Cambridge 
# Structural Database, then it will include bibliographic, chemical, 
# crystal, experimental, refinement or atomic coordinate data resulting 
# from the CCDC's data processing and validation procedures.
#
#######################################################################

data_BANWET
_chemical_formula_moiety         'C17 H14 N2 O2'
_chemical_name_systematic        N-(4-Methoxylphenyl)quinoline-2-carboxamide
_symmetry_cell_setting           monoclinic
_symmetry_space_group_name_H-M   'P 21/n'
_symmetry_Int_Tables_number      14
_space_group_name_Hall           '-P 2yn'
loop_
_symmetry_equiv_pos_site_id
_symmetry_equiv_pos_as_xyz
1 x,y,z
2 1/2+x,1/2-y,1/2+z
3 -x,-y,-z
4 1/2-x,1/2+y,1/2-z
_cell_length_a                   6.6372(11)
_cell_length_b                   18.109(3)
_cell_length_c                   11.4921(19)
_cell_angle_alpha                90
_cell_angle_beta                 92.867(3)
_cell_angle_gamma                90
_cell_volume                     1379.54
_exptl_crystal_colour            colorless
_exptl_crystal_description       prism
_cell_formula_units_Z            4
_exptl_crystal_recrystallization_method 'saturated DMF-H2O'
loop_
_atom_site_label
_atom_site_type_symbol
_atom_site_fract_x
_atom_site_fract_y
_atom_site_fract_z
O1 O -0.13010(18) 0.06137(7) 0.63314(10)
O2 O -0.56251(18) 0.05910(6) 0.10170(9)
N1 N 0.31035(18) 0.16561(6) 0.59376(10)
N2 N -0.01159(19) 0.11548(7) 0.47108(10)
H1 H 0.0896 0.1404 0.4486
C1 C -0.0033(2) 0.09733(9) 0.58492(13)
C2 C 0.1806(2) 0.12669(8) 0.65191(12)
C3 C 0.2043(3) 0.11274(9) 0.77225(13)
H2 H 0.1087 0.0852 0.8098
C4 C 0.3684(3) 0.14007(9) 0.83282(13)
H3 H 0.3859 0.1314 0.9124
C5 C 0.5122(2) 0.18168(8) 0.77493(12)
C6 C 0.6871(3) 0.21201(9) 0.83081(14)
H4 H 0.7108 0.2054 0.9106
C7 C 0.8217(3) 0.25084(9) 0.76933(15)
H5 H 0.9364 0.2707 0.8072
C8 C 0.7874(2) 0.26092(9) 0.64914(14)
H6 H 0.8806 0.2871 0.6076
C9 C 0.6202(2) 0.23299(9) 0.59247(13)
H7 H 0.5992 0.2407 0.5128
C10 C 0.4777(2) 0.19233(8) 0.65363(12)
C11 C -0.1612(2) 0.09970(8) 0.38334(12)
C12 C -0.3401(2) 0.06309(9) 0.40151(13)
H8 H -0.3680 0.0479 0.4763
C13 C -0.4776(2) 0.04875(9) 0.31022(13)
H9 H -0.5970 0.0241 0.3241
C14 C -0.4393(2) 0.07061(8) 0.19885(13)
C15 C -0.2623(3) 0.10866(9) 0.18083(13)
H10 H -0.2359 0.1248 0.1063
C16 C -0.1265(2) 0.12280(9) 0.27108(13)
H11 H -0.0086 0.1484 0.2571
C17 C -0.7369(3) 0.01502(10) 0.11259(15)
H12 H -0.8058 0.0095 0.0376
H13 H -0.8250 0.0384 0.1652
H14 H -0.6982 -0.0327 0.1423
loop_
_geom_bond_atom_site_label_1
_geom_bond_atom_site_label_2
_geom_bond_site_symmetry_1
_geom_bond_site_symmetry_2
O1 C1 1_555 1_555
O2 C14 1_555 1_555
N1 C2 1_555 1_555
N2 H1 1_555 1_555
C1 N2 1_555 1_555
C2 C1 1_555 1_555
C3 C2 1_555 1_555
H2 C3 1_555 1_555
C4 C3 1_555 1_555
H3 C4 1_555 1_555
C5 C4 1_555 1_555
C6 C5 1_555 1_555
H4 C6 1_555 1_555
C7 C6 1_555 1_555
H5 C7 1_555 1_555
C8 C7 1_555 1_555
H6 C8 1_555 1_555
C9 C8 1_555 1_555
H7 C9 1_555 1_555
C10 N1 1_555 1_555
C11 N2 1_555 1_555
C12 C11 1_555 1_555
H8 C12 1_555 1_555
C13 C12 1_555 1_555
H9 C13 1_555 1_555
C14 C13 1_555 1_555
C15 C14 1_555 1_555
H10 C15 1_555 1_555
C16 C11 1_555 1_555
H11 C16 1_555 1_555
C17 O2 1_555 1_555
H12 C17 1_555 1_555
H13 C17 1_555 1_555
H14 C17 1_555 1_555
C5 C10 1_555 1_555
C9 C10 1_555 1_555
C15 C16 1_555 1_555

#END
