
#######################################################################
#
#                 Cambridge Crystallographic Data Centre
#                                CCDC 
#
#######################################################################
#
# If this CIF has been generated from an entry in the Cambridge 
# Structural Database, then it will include bibliographic, chemical, 
# crystal, experimental, refinement or atomic coordinate data resulting 
# from the CCDC's data processing and validation procedures.
#
#######################################################################

data_BAPBUQ04
_chemical_formula_moiety         'C14 H10 N2 O1'
_chemical_name_systematic        3-phenylquinazolin-4(3H)-one
_symmetry_cell_setting           monoclinic
_symmetry_space_group_name_H-M   'P 21/c'
_symmetry_Int_Tables_number      14
_space_group_name_Hall           '-P 2ybc'
loop_
_symmetry_equiv_pos_site_id
_symmetry_equiv_pos_as_xyz
1 x,y,z
2 -x,1/2+y,1/2-z
3 -x,-y,-z
4 x,1/2-y,1/2+z
_cell_length_a                   12.105(2)
_cell_length_b                   7.6772(15)
_cell_length_c                   11.507(2)
_cell_angle_alpha                90
_cell_angle_beta                 97.73(3)
_cell_angle_gamma                90
_cell_volume                     1059.66
_exptl_crystal_colour            colorless
_exptl_crystal_description       block
_cell_formula_units_Z            4
loop_
_atom_site_label
_atom_site_type_symbol
_atom_site_fract_x
_atom_site_fract_y
_atom_site_fract_z
O1 O 0.91173(10) 0.23515(16) 0.06130(10)
N1 N 0.75439(12) 0.0010(2) 0.31446(12)
N2 N 0.91790(11) 0.09095(18) 0.23671(12)
C1 C 0.69105(14) 0.0794(2) 0.21824(14)
C2 C 0.57429(15) 0.0789(3) 0.21257(16)
H1 H 0.5401 0.0223 0.2719
C3 C 0.50962(15) 0.1605(3) 0.12097(18)
H2 H 0.4308 0.1621 0.1183
C4 C 0.55892(16) 0.2410(3) 0.03195(18)
H3 H 0.5134 0.2960 -0.0312
C5 C 0.67261(15) 0.2411(2) 0.03510(15)
H4 H 0.7056 0.2957 -0.0258
C6 C 0.74011(13) 0.1603(2) 0.12862(14)
C7 C 0.86137(14) 0.1677(2) 0.13506(14)
C8 C 0.86083(14) 0.0116(2) 0.31887(14)
H5 H 0.9045 -0.0399 0.3847
C9 C 1.03828(13) 0.0985(2) 0.25959(14)
C10 C 1.10217(14) 0.0336(2) 0.17768(15)
H6 H 1.0675 -0.0134 0.1055
C11 C 1.21709(15) 0.0385(2) 0.20292(16)
H7 H 1.2617 -0.0045 0.1473
C12 C 1.26786(15) 0.1057(2) 0.30861(17)
H8 H 1.3469 0.1089 0.3250
C13 C 1.20351(15) 0.1682(2) 0.39041(16)
H9 H 1.2384 0.2128 0.4633
C14 C 1.08792(14) 0.1656(2) 0.36575(15)
H10 H 1.0434 0.2094 0.4211
loop_
_geom_bond_atom_site_label_1
_geom_bond_atom_site_label_2
_geom_bond_site_symmetry_1
_geom_bond_site_symmetry_2
O1 C7 1_555 1_555
N1 C1 1_555 1_555
N2 C7 1_555 1_555
C1 C2 1_555 1_555
C2 H1 1_555 1_555
C3 C2 1_555 1_555
H2 C3 1_555 1_555
C4 C3 1_555 1_555
H3 C4 1_555 1_555
C5 C4 1_555 1_555
H4 C5 1_555 1_555
C6 C1 1_555 1_555
C7 C6 1_555 1_555
C8 N1 1_555 1_555
H5 C8 1_555 1_555
C9 N2 1_555 1_555
C10 C9 1_555 1_555
H6 C10 1_555 1_555
C11 C10 1_555 1_555
H7 C11 1_555 1_555
C12 C11 1_555 1_555
H8 C12 1_555 1_555
C13 C12 1_555 1_555
H9 C13 1_555 1_555
C14 C9 1_555 1_555
H10 C14 1_555 1_555
N2 C8 1_555 1_555
C5 C6 1_555 1_555
C13 C14 1_555 1_555

#END
