
#######################################################################
#
#                 Cambridge Crystallographic Data Centre
#                                CCDC 
#
#######################################################################
#
# If this CIF has been generated from an entry in the Cambridge 
# Structural Database, then it will include bibliographic, chemical, 
# crystal, experimental, refinement or atomic coordinate data resulting 
# from the CCDC's data processing and validation procedures.
#
#######################################################################

data_BAPBUQ
_chemical_name_common            'PDB Chemical Component code: 0OK'
_chemical_formula_moiety         'C14 H10 N2 O1'
_chemical_name_systematic        3-Phenylquinazolin-4(3H)-one
_symmetry_cell_setting           monoclinic
_symmetry_space_group_name_H-M   'P 21/c'
_symmetry_Int_Tables_number      14
_space_group_name_Hall           '-P 2ybc'
loop_
_symmetry_equiv_pos_site_id
_symmetry_equiv_pos_as_xyz
1 x,y,z
2 -x,1/2+y,1/2-z
3 -x,-y,-z
4 x,1/2-y,1/2+z
_cell_length_a                   12.080(2)
_cell_length_b                   7.7930(10)
_cell_length_c                   11.5990(10)
_cell_angle_alpha                90
_cell_angle_beta                 97.560(10)
_cell_angle_gamma                90
_cell_volume                     1082.43
_exptl_crystal_colour            colorless
_exptl_crystal_description       block
_chemical_melting_point          408-410K
_cell_formula_units_Z            4
_exptl_crystal_recrystallization_method ethanol
loop_
_atom_site_label
_atom_site_type_symbol
_atom_site_fract_x
_atom_site_fract_y
_atom_site_fract_z
O1 O 0.58353(8) 0.23090(14) 0.93633(8)
N1 N 0.57972(9) 0.09002(15) 0.76350(9)
N2 N 0.74479(11) 0.00406(18) 0.68823(10)
C1 C 0.39430(12) 0.0337(2) 0.81811(13)
H1 H 0.4270 -0.0126 0.8883
C2 C 0.28000(14) 0.0400(2) 0.79147(16)
H2 H 0.2351 -0.0016 0.8444
C3 C 0.23159(14) 0.1071(2) 0.68739(16)
H3 H 0.1542 0.1108 0.6703
C4 C 0.29722(14) 0.1687(2) 0.60840(15)
H4 H 0.2643 0.2130 0.5376
C5 C 0.41198(13) 0.16483(19) 0.63439(13)
H5 H 0.4568 0.2075 0.5817
C6 C 0.45948(12) 0.09736(19) 0.73875(12)
C7 C 0.63856(13) 0.0130(2) 0.68311(13)
H6 H 0.5967 -0.0374 0.6189
C8 C 0.63512(12) 0.16525(19) 0.86426(12)
C9 C 0.75657(12) 0.15943(19) 0.87192(12)
C10 C 0.82219(13) 0.2384(2) 0.96428(14)
H7 H 0.7887 0.2908 1.0229
C11 C 0.93597(14) 0.2390(3) 0.96919(16)
H8 H 0.9798 0.2917 1.0311
C12 C 0.98582(15) 0.1610(3) 0.88176(18)
H9 H 1.0632 0.1625 0.8852
C13 C 0.92282(14) 0.0821(2) 0.79085(15)
H10 H 0.9573 0.0284 0.7334
C14 C 0.80650(12) 0.08175(19) 0.78402(13)
loop_
_geom_bond_atom_site_label_1
_geom_bond_atom_site_label_2
_geom_bond_site_symmetry_1
_geom_bond_site_symmetry_2
O1 C8 1_555 1_555
N1 C6 1_555 1_555
N2 C7 1_555 1_555
C1 H1 1_555 1_555
C2 C1 1_555 1_555
H2 C2 1_555 1_555
C3 C2 1_555 1_555
H3 C3 1_555 1_555
C4 C3 1_555 1_555
H4 C4 1_555 1_555
C5 C4 1_555 1_555
H5 C5 1_555 1_555
C6 C1 1_555 1_555
C7 N1 1_555 1_555
H6 C7 1_555 1_555
C8 N1 1_555 1_555
C9 C8 1_555 1_555
C10 C9 1_555 1_555
H7 C10 1_555 1_555
C11 C10 1_555 1_555
H8 C11 1_555 1_555
C12 C11 1_555 1_555
H9 C12 1_555 1_555
C13 C12 1_555 1_555
H10 C13 1_555 1_555
C14 N2 1_555 1_555
C5 C6 1_555 1_555
C9 C14 1_555 1_555
C13 C14 1_555 1_555

#END
