
#######################################################################
#
#                 Cambridge Crystallographic Data Centre
#                                CCDC 
#
#######################################################################
#
# If this CIF has been generated from an entry in the Cambridge 
# Structural Database, then it will include bibliographic, chemical, 
# crystal, experimental, refinement or atomic coordinate data resulting 
# from the CCDC's data processing and validation procedures.
#
#######################################################################

data_BAPCAX
_chemical_name_common            
1'H-Spiro(cyclohexane-1,2'-quinazolin)-4'(3'H)-one
_chemical_formula_moiety         'C13 H16 N2 O1'
_chemical_name_systematic        
2,2-Pentamethylene-1,2,3,4-tetrahydroquinazolin-4(3H)-one
_symmetry_cell_setting           monoclinic
_symmetry_space_group_name_H-M   'P 21/n'
_symmetry_Int_Tables_number      14
_space_group_name_Hall           '-P 2yn'
loop_
_symmetry_equiv_pos_site_id
_symmetry_equiv_pos_as_xyz
1 x,y,z
2 1/2-x,1/2+y,1/2-z
3 -x,-y,-z
4 1/2+x,1/2-y,1/2+z
_cell_length_a                   10.387(1)
_cell_length_b                   10.954(2)
_cell_length_c                   10.827(2)
_cell_angle_alpha                90
_cell_angle_beta                 110.77(1)
_cell_angle_gamma                90
_cell_volume                     1151.83
_exptl_crystal_colour            colorless
_exptl_crystal_description       block
_chemical_melting_point          497-498K
_cell_formula_units_Z            4
_exptl_crystal_recrystallization_method '95% ethanol'
loop_
_atom_site_label
_atom_site_type_symbol
_atom_site_fract_x
_atom_site_fract_y
_atom_site_fract_z
O1 O 0.02451(15) 0.93029(12) -0.14690(12)
N1 N 0.08780(16) 0.85565(13) 0.06111(14)
H1 H 0.0628 0.9221 0.0886
N2 N 0.25466(15) 0.70408(15) 0.13775(14)
H2 H 0.3280 0.6909 0.2052
C1 C 0.08530(18) 0.85151(16) -0.06332(17)
C2 C 0.16297(18) 0.75014(15) -0.09373(16)
C3 C 0.1569(2) 0.72746(17) -0.22202(17)
H3 H 0.0991 0.7743 -0.2912
C4 C 0.2352(2) 0.63675(18) -0.2480(2)
H4 H 0.2294 0.6209 -0.3342
C5 C 0.3228(2) 0.56931(19) -0.1439(2)
H5 H 0.3771 0.5087 -0.1608
C6 C 0.33123(19) 0.59013(18) -0.0163(2)
H6 H 0.3911 0.5441 0.0522
C7 C 0.25026(17) 0.68006(16) 0.01086(17)
C8 C 0.13106(18) 0.75236(15) 0.15279(16)
C9 C 0.1598(2) 0.79867(18) 0.29278(18)
H7 H 0.2399 0.8515 0.3179
H8 H 0.0821 0.8472 0.2938
C10 C 0.1848(2) 0.6977(2) 0.39359(19)
H9 H 0.1935 0.7328 0.4784
H10 H 0.2708 0.6572 0.4032
C11 C 0.0694(2) 0.6043(2) 0.3550(2)
H11 H -0.0144 0.6419 0.3569
H12 H 0.0931 0.5376 0.4180
C12 C 0.0453(2) 0.55501(18) 0.21740(19)
H13 H 0.1263 0.5109 0.2176
H14 H -0.0316 0.4985 0.1924
C13 C 0.01506(18) 0.65755(17) 0.11810(17)
H15 H -0.0698 0.6976 0.1137
H16 H 0.0015 0.6238 0.0315
loop_
_geom_bond_atom_site_label_1
_geom_bond_atom_site_label_2
_geom_bond_site_symmetry_1
_geom_bond_site_symmetry_2
O1 C1 1_555 1_555
N1 H1 1_555 1_555
N2 H2 1_555 1_555
C1 N1 1_555 1_555
C2 C1 1_555 1_555
C3 C2 1_555 1_555
H3 C3 1_555 1_555
C4 C3 1_555 1_555
H4 C4 1_555 1_555
C5 C4 1_555 1_555
H5 C5 1_555 1_555
C6 C5 1_555 1_555
H6 C6 1_555 1_555
C7 N2 1_555 1_555
C8 N1 1_555 1_555
C9 C8 1_555 1_555
H7 C9 1_555 1_555
H8 C9 1_555 1_555
C10 C9 1_555 1_555
H9 C10 1_555 1_555
H10 C10 1_555 1_555
C11 C10 1_555 1_555
H11 C11 1_555 1_555
H12 C11 1_555 1_555
C12 C11 1_555 1_555
H13 C12 1_555 1_555
H14 C12 1_555 1_555
C13 C8 1_555 1_555
H15 C13 1_555 1_555
H16 C13 1_555 1_555
N2 C8 1_555 1_555
C2 C7 1_555 1_555
C6 C7 1_555 1_555
C12 C13 1_555 1_555

#END
