
#######################################################################
#
#                 Cambridge Crystallographic Data Centre
#                                CCDC 
#
#######################################################################
#
# If this CIF has been generated from an entry in the Cambridge 
# Structural Database, then it will include bibliographic, chemical, 
# crystal, experimental, refinement or atomic coordinate data resulting 
# from the CCDC's data processing and validation procedures.
#
#######################################################################

data_BAPHAD
_chemical_formula_moiety         'C15 H14 N2 O2'
_chemical_name_systematic        
3-(Hydroxy(phenyl)amino)-3-methyl-1,3-dihydro-2H-indol-2-one
_symmetry_cell_setting           orthorhombic
_symmetry_space_group_name_H-M   'P 21 21 21'
_symmetry_Int_Tables_number      19
_space_group_name_Hall           'P 2ac 2ab'
loop_
_symmetry_equiv_pos_site_id
_symmetry_equiv_pos_as_xyz
1 x,y,z
2 1/2-x,-y,1/2+z
3 1/2+x,1/2-y,-z
4 -x,1/2+y,1/2-z
_cell_length_a                   10.021(7)
_cell_length_b                   12.749(6)
_cell_length_c                   10.714(6)
_cell_angle_alpha                90
_cell_angle_beta                 90
_cell_angle_gamma                90
_cell_volume                     1368.8
_exptl_crystal_colour            colorless
_exptl_crystal_description       prism
_cell_formula_units_Z            4
loop_
_atom_site_label
_atom_site_type_symbol
_atom_site_fract_x
_atom_site_fract_y
_atom_site_fract_z
O1 O -0.33198(12) 0.11547(11) 0.15763(14)
H1 H -0.4046(16) 0.129(2) 0.123(2)
O2 O -0.06350(13) 0.32381(11) -0.03919(14)
N1 N -0.23176(14) 0.15379(12) 0.07278(15)
N2 N 0.08251(15) 0.24560(12) 0.09939(16)
H2 H 0.1561 0.2629 0.0636
C1 C -0.09292(18) 0.07336(16) -0.08877(19)
H3 H -0.0995 0.1356 -0.1335
C2 C -0.0175(2) -0.00967(17) -0.1360(2)
H4 H 0.0288 -0.0019 -0.2107
C3 C -0.0117(2) -0.10372(18) -0.0715(2)
H5 H 0.0361 -0.1599 -0.1041
C4 C -0.0769(2) -0.11368(19) 0.0408(2)
H6 H -0.0711 -0.1766 0.0844
C5 C -0.1517(2) -0.03100(16) 0.0909(2)
H7 H -0.1962 -0.0388 0.1665
C6 C -0.15844(17) 0.06322(14) 0.02525(18)
C7 C -0.14519(17) 0.22744(15) 0.14621(18)
C8 C -0.2304(2) 0.31675(18) 0.1987(2)
H8 H -0.2823 0.3473 0.1328
H9 H -0.1733 0.3693 0.2344
H10 H -0.2889 0.2897 0.2619
C9 C -0.04085(17) 0.27239(14) 0.05615(19)
C10 C 0.07421(16) 0.18568(15) 0.21077(18)
C11 C 0.17694(19) 0.14382(17) 0.2795(2)
H11 H 0.2652 0.1510 0.2542
C12 C 0.1438(2) 0.08991(18) 0.3891(2)
C13 C 0.0105(2) 0.07935(17) 0.4260(2)
C14 C -0.0924(2) 0.12189(17) 0.3543(2)
C15 C -0.05936(18) 0.17420(15) 0.24461(17)
H12 H -0.188(3) 0.114(2) 0.378(2)
H13 H 0.209(2) 0.046(2) 0.444(3)
H14 H -0.012(2) 0.0438(18) 0.504(2)
loop_
_geom_bond_atom_site_label_1
_geom_bond_atom_site_label_2
_geom_bond_site_symmetry_1
_geom_bond_site_symmetry_2
O1 H1 1_555 1_555
O2 C9 1_555 1_555
N1 O1 1_555 1_555
N2 H2 1_555 1_555
C1 H3 1_555 1_555
C2 C1 1_555 1_555
H4 C2 1_555 1_555
C3 C2 1_555 1_555
H5 C3 1_555 1_555
C4 C3 1_555 1_555
H6 C4 1_555 1_555
C5 C4 1_555 1_555
H7 C5 1_555 1_555
C6 N1 1_555 1_555
C7 N1 1_555 1_555
C8 C7 1_555 1_555
H8 C8 1_555 1_555
H9 C8 1_555 1_555
H10 C8 1_555 1_555
C9 N2 1_555 1_555
C10 N2 1_555 1_555
C11 C10 1_555 1_555
H11 C11 1_555 1_555
C12 C11 1_555 1_555
C13 C12 1_555 1_555
C14 C13 1_555 1_555
C15 C7 1_555 1_555
H12 C14 1_555 1_555
H13 C12 1_555 1_555
H14 C13 1_555 1_555
C1 C6 1_555 1_555
C5 C6 1_555 1_555
C7 C9 1_555 1_555
C10 C15 1_555 1_555
C14 C15 1_555 1_555

#END
