
#######################################################################
#
#                 Cambridge Crystallographic Data Centre
#                                CCDC 
#
#######################################################################
#
# If this CIF has been generated from an entry in the Cambridge 
# Structural Database, then it will include bibliographic, chemical, 
# crystal, experimental, refinement or atomic coordinate data resulting 
# from the CCDC's data processing and validation procedures.
#
#######################################################################

data_BAPHEH
_chemical_formula_moiety         'C15 H14 N2 O2'
_chemical_name_systematic        
rac-3-(Hydroxy(phenyl)amino)-3-methyl-1,3-dihydro-2H-indol-2-one
_symmetry_cell_setting           triclinic
_symmetry_space_group_name_H-M   'P -1'
_symmetry_Int_Tables_number      2
_space_group_name_Hall           '-P 1'
loop_
_symmetry_equiv_pos_site_id
_symmetry_equiv_pos_as_xyz
1 x,y,z
2 -x,-y,-z
_cell_length_a                   7.891(7)
_cell_length_b                   8.626(4)
_cell_length_c                   10.666(8)
_cell_angle_alpha                71.25(5)
_cell_angle_beta                 83.35(5)
_cell_angle_gamma                74.83(4)
_cell_volume                     663.126
_exptl_crystal_colour            colorless
_exptl_crystal_description       prism
_cell_formula_units_Z            2
loop_
_atom_site_label
_atom_site_type_symbol
_atom_site_fract_x
_atom_site_fract_y
_atom_site_fract_z
O1 O 0.5762(2) -0.0086(2) 0.83082(16)
O2 O 0.2818(2) 0.0763(2) 0.48734(15)
H1 H 0.3875(17) 0.056(4) 0.451(3)
N1 N 0.2947(2) 0.0803(2) 0.90986(17)
H2 H 0.3153 0.0493 0.9929
N2 N 0.3642(2) -0.0007(2) 0.61522(17)
C1 C 0.1262(3) 0.1634(3) 0.8557(2)
C2 C -0.0321(3) 0.2072(3) 0.9240(2)
H3 H -0.0392 0.1802 1.0159
C3 C -0.1777(4) 0.2927(3) 0.8477(3)
H4 H -0.2858 0.3244 0.8889
C4 C -0.1653(4) 0.3313(4) 0.7126(3)
H5 H -0.2661 0.3877 0.6644
C5 C -0.0076(3) 0.2893(3) 0.6453(3)
H6 H -0.0010 0.3201 0.5532
C6 C 0.1403(3) 0.2000(3) 0.7191(2)
C7 C 0.3286(3) 0.1375(3) 0.6781(2)
C8 C 0.4174(3) 0.0567(3) 0.8152(2)
C9 C 0.4145(4) 0.2780(4) 0.5941(3)
H7 H 0.5335 0.2301 0.5711
H8 H 0.4137 0.3536 0.6435
H9 H 0.3503 0.3386 0.5148
C10 C 0.2885(3) -0.1422(3) 0.6888(2)
C11 C 0.3956(3) -0.2808(3) 0.7747(2)
H10 H 0.5108 -0.2804 0.7853
C12 C 0.3300(4) -0.4199(4) 0.8446(3)
H11 H 0.4010 -0.5131 0.9022
C13 C 0.1585(4) -0.4196(4) 0.8281(3)
H12 H 0.1139 -0.5120 0.8763
C14 C 0.0544(4) -0.2850(4) 0.7421(3)
H13 H -0.0597 -0.2874 0.7302
C15 C 0.1175(3) -0.1447(3) 0.6722(3)
H14 H 0.0455 -0.0525 0.6143
loop_
_geom_bond_atom_site_label_1
_geom_bond_atom_site_label_2
_geom_bond_site_symmetry_1
_geom_bond_site_symmetry_2
O1 C8 1_555 1_555
O2 H1 1_555 1_555
N1 H2 1_555 1_555
N2 O2 1_555 1_555
C1 N1 1_555 1_555
C2 C1 1_555 1_555
H3 C2 1_555 1_555
C3 C2 1_555 1_555
H4 C3 1_555 1_555
C4 C3 1_555 1_555
H5 C4 1_555 1_555
C5 C4 1_555 1_555
H6 C5 1_555 1_555
C6 C1 1_555 1_555
C7 N2 1_555 1_555
C8 N1 1_555 1_555
C9 C7 1_555 1_555
H7 C9 1_555 1_555
H8 C9 1_555 1_555
H9 C9 1_555 1_555
C10 N2 1_555 1_555
C11 C10 1_555 1_555
H10 C11 1_555 1_555
C12 C11 1_555 1_555
H11 C12 1_555 1_555
C13 C12 1_555 1_555
H12 C13 1_555 1_555
C14 C13 1_555 1_555
H13 C14 1_555 1_555
C15 C10 1_555 1_555
H14 C15 1_555 1_555
C5 C6 1_555 1_555
C6 C7 1_555 1_555
C7 C8 1_555 1_555
C14 C15 1_555 1_555

#END
