
#######################################################################
#
#                 Cambridge Crystallographic Data Centre
#                                CCDC 
#
#######################################################################
#
# If this CIF has been generated from an entry in the Cambridge 
# Structural Database, then it will include bibliographic, chemical, 
# crystal, experimental, refinement or atomic coordinate data resulting 
# from the CCDC's data processing and validation procedures.
#
#######################################################################

data_BAPLOT06
_chemical_name_common            Theophylline
_chemical_formula_moiety         'C7 H8 N4 O2'
_chemical_name_systematic        1,3-Dimethyl-3,7-dihydro-1H-purine-2,6-dione
_chemical_properties_biological  
'asthema therapeutic, antiinflammatory, increases blood pressure, suspected anosmia treatment, muscle relaxant, vasodilator'
_symmetry_cell_setting           orthorhombic
_symmetry_space_group_name_H-M   'P n a 21'
_symmetry_Int_Tables_number      33
_space_group_name_Hall           'P 2c -2n'
loop_
_symmetry_equiv_pos_site_id
_symmetry_equiv_pos_as_xyz
1 x,y,z
2 -x,-y,1/2+z
3 1/2-x,1/2+y,1/2+z
4 1/2+x,1/2-y,z
_cell_length_a                   24.3301(14)
_cell_length_b                   3.7707(2)
_cell_length_c                   8.4850(5)
_cell_angle_alpha                90
_cell_angle_beta                 90
_cell_angle_gamma                90
_cell_volume                     778.427
_exptl_crystal_colour            colorless
_exptl_crystal_description       prism
_cell_formula_units_Z            4
loop_
_atom_site_label
_atom_site_type_symbol
_atom_site_fract_x
_atom_site_fract_y
_atom_site_fract_z
O1 O 0.35921(5) 0.8389(3) 0.42719(14)
N1 N 0.41029(6) 1.1083(4) 0.23199(18)
C1 C 0.32974(7) 1.0116(4) 0.0174(2)
C2 C 0.36324(7) 0.9360(4) 0.2898(2)
C3 C 0.32245(7) 0.8972(4) 0.1698(2)
O2 O 0.46054(5) 1.3946(4) 0.04225(19)
N2 N 0.37754(6) 1.1691(4) -0.03129(17)
N3 N 0.26999(6) 0.7583(4) 0.17417(17)
H1 H 0.2534 0.6633 0.2562
C4 C 0.41868(7) 1.2337(5) 0.0772(2)
N4 N 0.28438(6) 0.9504(4) -0.07131(17)
C5 C 0.38407(8) 1.2857(5) -0.1949(2)
H2 H 0.3809 1.0809 -0.2654
H3 H 0.4203 1.3954 -0.2082
H4 H 0.3554 1.4588 -0.2205
C6 C 0.45477(8) 1.1787(6) 0.3456(3)
H5 H 0.4470 1.3996 0.4023
H6 H 0.4897 1.2010 0.2891
H7 H 0.4571 0.9823 0.4209
C7 C 0.24924(7) 0.7965(5) 0.0289(2)
H8 H 0.2133 0.7221 0.0001
loop_
_geom_bond_atom_site_label_1
_geom_bond_atom_site_label_2
_geom_bond_site_symmetry_1
_geom_bond_site_symmetry_2
O1 C2 1_555 1_555
N1 C2 1_555 1_555
C1 C3 1_555 1_555
C2 C3 1_555 1_555
C3 N3 1_555 1_555
O2 C4 1_555 1_555
N2 C1 1_555 1_555
N3 H1 1_555 1_555
C4 N1 1_555 1_555
N4 C1 1_555 1_555
C5 N2 1_555 1_555
H2 C5 1_555 1_555
H3 C5 1_555 1_555
H4 C5 1_555 1_555
C6 N1 1_555 1_555
H5 C6 1_555 1_555
H6 C6 1_555 1_555
H7 C6 1_555 1_555
C7 N3 1_555 1_555
H8 C7 1_555 1_555
N2 C4 1_555 1_555
N4 C7 1_555 1_555

#END
