
#######################################################################
#
#                 Cambridge Crystallographic Data Centre
#                                CCDC 
#
#######################################################################
#
# If this CIF has been generated from an entry in the Cambridge 
# Structural Database, then it will include bibliographic, chemical, 
# crystal, experimental, refinement or atomic coordinate data resulting 
# from the CCDC's data processing and validation procedures.
#
#######################################################################

data_BAPPIT
_chemical_compound_source        'aerial parts of Physalis longifolia'
_chemical_name_common            'Withalongolide B'
_chemical_formula_moiety         'C28 H38 O6,C7 H8'
_chemical_name_systematic        
'4,19-Dihydroxy-5,6:22,26-diepoxyergosta-2,24-diene-1,26-dione toluene solvate'
_symmetry_cell_setting           orthorhombic
_symmetry_space_group_name_H-M   'P 21 21 21'
_symmetry_Int_Tables_number      19
_space_group_name_Hall           'P 2ac 2ab'
loop_
_symmetry_equiv_pos_site_id
_symmetry_equiv_pos_as_xyz
1 x,y,z
2 1/2-x,-y,1/2+z
3 -x,1/2+y,1/2-z
4 1/2+x,1/2-y,-z
_cell_length_a                   7.1844(3)
_cell_length_b                   26.0678(10)
_cell_length_c                   49.0852(18)
_cell_angle_alpha                90
_cell_angle_beta                 90
_cell_angle_gamma                90
_cell_volume                     9192.75
_exptl_crystal_colour            colorless
_exptl_crystal_description       'irregular chunk'
_cell_formula_units_Z            12
loop_
_atom_site_label
_atom_site_type_symbol
_atom_site_fract_x
_atom_site_fract_y
_atom_site_fract_z
O1 O 0.3152(5) 0.07105(16) 0.46917(7)
O2 O 0.5304(6) 0.16557(16) 0.26586(8)
O3 O 0.8095(6) 0.19640(18) 0.46593(9)
O4 O 0.4687(5) 0.10023(17) 0.52167(7)
H1 H 0.4061 0.0733 0.5237
O5 O 0.7460(5) 0.08310(18) 0.48652(7)
H2 H 0.6550 0.0888 0.4968
O6 O 0.5562(9) 0.17147(18) 0.22105(9)
C1 C 0.6549(8) 0.1836(3) 0.47280(12)
C2 C 0.5561(9) 0.2120(3) 0.49494(12)
H3 H 0.5828 0.2471 0.4982
C3 C 0.4299(8) 0.1875(3) 0.50999(12)
H4 H 0.3768 0.2055 0.5249
C4 C 0.3679(8) 0.1354(3) 0.50536(10)
H5 H 0.2343 0.1334 0.5109
C5 C 0.3786(7) 0.1222(2) 0.47455(11)
C6 C 0.2020(7) 0.1141(2) 0.46060(10)
H6 H 0.0881 0.1206 0.4718
C7 C 0.1783(7) 0.1209(2) 0.43059(10)
H7 H 0.1132 0.1537 0.4271
H8 H 0.0987 0.0929 0.4235
C8 C 0.3639(6) 0.1209(2) 0.41485(10)
H9 H 0.4153 0.0852 0.4145
C9 C 0.5029(7) 0.1564(2) 0.42919(11)
H10 H 0.4391 0.1902 0.4313
C10 C 0.5549(7) 0.1384(2) 0.45856(10)
C11 C 0.6746(7) 0.1660(2) 0.41097(11)
H11 H 0.7515 0.1932 0.4194
H12 H 0.7504 0.1343 0.4104
C12 C 0.6295(8) 0.1818(2) 0.38184(12)
H13 H 0.7467 0.1852 0.3714
H14 H 0.5674 0.2157 0.3820
C13 C 0.5027(6) 0.14268(19) 0.36767(11)
C14 C 0.3271(6) 0.1383(2) 0.38575(10)
H15 H 0.2752 0.1738 0.3872
C15 C 0.1886(7) 0.1079(2) 0.36829(10)
H16 H 0.0589 0.1177 0.3727
H17 H 0.2034 0.0705 0.3713
C16 C 0.2369(7) 0.1222(2) 0.33878(11)
H18 H 0.1305 0.1398 0.3300
H19 H 0.2673 0.0910 0.3281
C17 C 0.4092(6) 0.1587(2) 0.34025(10)
H20 H 0.3611 0.1945 0.3426
C18 C 0.6042(7) 0.0915(2) 0.36405(11)
H21 H 0.6255 0.0758 0.3819
H22 H 0.7240 0.0974 0.3550
H23 H 0.5281 0.0685 0.3529
C19 C 0.6941(7) 0.0934(2) 0.45908(10)
H24 H 0.6362 0.0625 0.4509
H25 H 0.8058 0.1023 0.4483
C20 C 0.5276(8) 0.1579(2) 0.31425(12)
H26 H 0.5829 0.1228 0.3126
C21 C 0.6892(9) 0.1964(3) 0.31504(14)
H27 H 0.7439 0.1995 0.2968
H28 H 0.7842 0.1844 0.3279
H29 H 0.6427 0.2300 0.3209
C22 C 0.4069(7) 0.1667(2) 0.28934(10)
H30 H 0.3191 0.1371 0.2877
C23 C 0.2939(8) 0.2152(2) 0.28845(11)
H31 H 0.2007 0.2147 0.3033
H32 H 0.3766 0.2450 0.2914
C24 C 0.1967(8) 0.2206(2) 0.26162(12)
C25 C 0.2692(9) 0.1985(2) 0.23954(12)
C26 C 0.4583(10) 0.1768(2) 0.24144(12)
C27 C 0.1792(12) 0.1984(3) 0.21192(13)
H33 H 0.0606 0.1799 0.2128
H34 H 0.2616 0.1815 0.1988
H35 H 0.1566 0.2339 0.2061
C28 C 0.0256(10) 0.2522(3) 0.26004(16)
H36 H -0.0714 0.2332 0.2503
H37 H 0.0527 0.2842 0.2503
H38 H -0.0178 0.2602 0.2785
O7 O 0.3170(5) 0.45387(15) 0.45643(7)
O8 O 0.5132(6) 0.49413(14) 0.24682(7)
O9 O 0.7813(10) 0.5843(3) 0.43867(11)
O10 O 0.4535(6) 0.50310(17) 0.50531(7)
H39 H 0.4144 0.4728 0.5060
O11 O 0.7471(6) 0.4823(2) 0.47441(8)
H40 H 0.6515 0.4885 0.4837
O12 O 0.5240(9) 0.49073(19) 0.20201(9)
C29 C 0.6287(11) 0.5719(3) 0.44741(12)
C30 C 0.5296(11) 0.6050(3) 0.46592(13)
H41 H 0.5489 0.6410 0.4652
C31 C 0.4105(10) 0.5855(3) 0.48421(13)
H42 H 0.3584 0.6080 0.4974
C32 C 0.3555(8) 0.5303(3) 0.48497(11)
H43 H 0.2206 0.5291 0.4899
C33 C 0.3739(8) 0.5070(2) 0.45658(10)
C34 C 0.1994(7) 0.4910(2) 0.44337(10)
H44 H 0.0832 0.5000 0.4535
C35 C 0.1781(6) 0.4870(2) 0.41346(10)
H45 H 0.1144 0.5182 0.4067
H46 H 0.0980 0.4572 0.4092
C36 C 0.3639(6) 0.4810(2) 0.39841(10)
H47 H 0.4147 0.4458 0.4015
C37 C 0.5040(7) 0.5212(2) 0.40861(10)
H48 H 0.4439 0.5554 0.4056
C38 C 0.5480(7) 0.5182(2) 0.43974(11)
C39 C 0.6800(7) 0.5209(2) 0.39077(10)
H49 H 0.7647 0.5485 0.3970
H50 H 0.7452 0.4878 0.3932
C40 C 0.6395(7) 0.5287(2) 0.36081(10)
H51 H 0.7574 0.5272 0.3504
H52 H 0.5840 0.5630 0.3580
C41 C 0.5064(7) 0.48781(19) 0.35010(10)
C42 C 0.3306(6) 0.4893(2) 0.36824(9)
H53 H 0.2808 0.5250 0.3666
C43 C 0.1916(7) 0.4553(2) 0.35361(10)
H54 H 0.0623 0.4659 0.3577
H55 H 0.2079 0.4189 0.3589
C44 C 0.2372(8) 0.4634(2) 0.32329(11)
H56 H 0.1313 0.4800 0.3139
H57 H 0.2629 0.4301 0.3144
C45 C 0.4118(7) 0.4983(2) 0.32213(10)
H58 H 0.3657 0.5345 0.3227
C46 C 0.6012(7) 0.4346(2) 0.35021(11)
H59 H 0.6204 0.4234 0.3691
H60 H 0.7216 0.4369 0.3409
H61 H 0.5216 0.4098 0.3407
C47 C 0.6971(8) 0.4784(3) 0.44613(11)
H62 H 0.6492 0.4436 0.4422
H63 H 0.8080 0.4844 0.4346
C48 C 0.5271(7) 0.4930(2) 0.29563(10)
H64 H 0.5749 0.4571 0.2948
C49 C 0.6935(9) 0.5286(3) 0.29467(12)
H65 H 0.7831 0.5185 0.3087
H66 H 0.6527 0.5639 0.2979
H67 H 0.7526 0.5263 0.2767
C50 C 0.3986(8) 0.50097(19) 0.27093(10)
H68 H 0.3020 0.4734 0.2711
C51 C 0.3009(9) 0.5521(2) 0.26956(12)
H69 H 0.2107 0.5549 0.2847
H70 H 0.3928 0.5801 0.2714
C52 C 0.2010(9) 0.5567(2) 0.24288(12)
C53 C 0.2532(10) 0.5297(2) 0.22145(12)
C54 C 0.4340(12) 0.5034(2) 0.22206(11)
C55 C 0.1517(12) 0.5288(3) 0.19468(13)
H71 H 0.0277 0.5139 0.1973
H72 H 0.2218 0.5081 0.1816
H73 H 0.1393 0.5639 0.1878
C56 C 0.0421(11) 0.5936(3) 0.24261(15)
H74 H -0.0007 0.5986 0.2238
H75 H 0.0829 0.6266 0.2501
H76 H -0.0601 0.5800 0.2537
O13 O 0.3057(5) 0.75754(19) 0.45934(7)
O14 O 0.4912(6) 0.82296(13) 0.24984(7)
O15 O 0.8117(7) 0.8764(3) 0.44741(10)
O16 O 0.4643(6) 0.8068(2) 0.50863(8)
H77 H 0.5574 0.7931 0.5013
O17 O 0.7380(6) 0.7711(3) 0.47612(9)
H78 H 0.8099 0.7460 0.4784
O18 O 0.4967(8) 0.82732(17) 0.20512(8)
C57 C 0.6523(9) 0.8667(3) 0.45350(13)
C58 C 0.5469(11) 0.9058(4) 0.46951(16)
H79 H 0.5717 0.9414 0.4673
C59 C 0.4146(12) 0.8892(4) 0.48726(15)
H80 H 0.3544 0.9133 0.4988
C60 C 0.3623(8) 0.8339(3) 0.48891(11)
H81 H 0.2290 0.8327 0.4948
C61 C 0.3706(8) 0.8096(3) 0.46045(10)
C62 C 0.1964(7) 0.7985(3) 0.44728(11)
H82 H 0.0831 0.8085 0.4578
C63 C 0.1726(7) 0.7982(2) 0.41720(9)
H83 H 0.1112 0.8306 0.4116
H84 H 0.0892 0.7695 0.4121
C64 C 0.3569(6) 0.7927(2) 0.40133(10)
H85 H 0.4023 0.7565 0.4024
C65 C 0.5044(7) 0.8295(2) 0.41328(10)
H86 H 0.4495 0.8647 0.4125
C66 C 0.5530(7) 0.8191(3) 0.44391(10)
C67 C 0.6791(7) 0.8303(2) 0.39474(10)
H87 H 0.7687 0.8557 0.4020
H88 H 0.7394 0.7962 0.3954
C68 C 0.6362(7) 0.8437(2) 0.36508(10)
H89 H 0.5854 0.8790 0.3641
H90 H 0.7525 0.8427 0.3543
C69 C 0.4957(6) 0.80615(18) 0.35298(9)
C70 C 0.3216(6) 0.80721(19) 0.37187(9)
H91 H 0.2788 0.8437 0.3722
C71 C 0.1741(6) 0.77782(19) 0.35604(9)
H92 H 0.0477 0.7900 0.3608
H93 H 0.1822 0.7406 0.3598
C72 C 0.2196(6) 0.78921(19) 0.32608(9)
H94 H 0.1167 0.8086 0.3175
H95 H 0.2376 0.7568 0.3159
C73 C 0.4010(6) 0.82140(18) 0.32588(9)
H96 H 0.3633 0.8582 0.3277
C74 C 0.5817(7) 0.7526(2) 0.35080(10)
H97 H 0.6988 0.7546 0.3406
H98 H 0.4953 0.7297 0.3413
H99 H 0.6059 0.7392 0.3691
C75 C 0.6857(8) 0.7742(3) 0.44814(11)
H100 H 0.6241 0.7419 0.4425
H101 H 0.7980 0.7789 0.4367
C76 C 0.5099(7) 0.81655(19) 0.29880(10)
H102 H 0.5501 0.7800 0.2970
C77 C 0.6844(7) 0.8494(2) 0.29795(11)
H103 H 0.7350 0.8495 0.2794
H104 H 0.7772 0.8353 0.3105
H105 H 0.6535 0.8846 0.3034
C78 C 0.3819(7) 0.82821(19) 0.27475(9)
H106 H 0.2813 0.8017 0.2744
C79 C 0.2910(7) 0.8805(2) 0.27491(11)
H107 H 0.2065 0.8833 0.2908
H108 H 0.3876 0.9074 0.2766
C80 C 0.1826(8) 0.8886(2) 0.24912(11)
C81 C 0.2307(8) 0.8636(2) 0.22673(12)
C82 C 0.4091(10) 0.8364(2) 0.22605(11)
C83 C 0.1256(11) 0.8661(3) 0.20029(12)
H109 H 0.0004 0.8520 0.2029
H110 H 0.1916 0.8460 0.1864
H111 H 0.1163 0.9019 0.1943
C84 C 0.0261(9) 0.9260(3) 0.25017(15)
H112 H -0.0005 0.9385 0.2317
H113 H 0.0607 0.9550 0.2618
H114 H -0.0848 0.9092 0.2576
C85 C 0.3185(16) 0.3111(3) 0.40950(19)
C86 C 0.3857(18) 0.3161(3) 0.3839(3)
H115 H 0.5110 0.3270 0.3816
C87 C 0.282(2) 0.3063(3) 0.3607(2)
H116 H 0.3327 0.3103 0.3430
C88 C 0.106(2) 0.2908(4) 0.3644(2)
H117 H 0.0312 0.2841 0.3488
C89 C 0.0321(19) 0.2845(5) 0.3889(3)
H118 H -0.0938 0.2739 0.3908
C90 C 0.144(2) 0.2939(5) 0.4126(3)
H119 H 0.0948 0.2880 0.4303
C91 C 0.445(2) 0.3224(5) 0.4354(3)
H120 H 0.4377 0.2933 0.4480
H121 H 0.3997 0.3534 0.4446
H122 H 0.5739 0.3274 0.4297
C92 C 0.1406(11) 0.6462(2) 0.39419(13)
C93 C 0.2997(11) 0.6435(2) 0.37769(16)
H123 H 0.4204 0.6454 0.3855
C94 C 0.2784(12) 0.6380(2) 0.34950(16)
H124 H 0.3871 0.6362 0.3385
C95 C 0.1133(12) 0.6350(3) 0.33730(16)
H125 H 0.1045 0.6310 0.3181
C96 C -0.0442(14) 0.6380(3) 0.35310(17)
H126 H -0.1632 0.6365 0.3447
C97 C -0.0317(11) 0.6431(3) 0.38055(13)
H127 H -0.1431 0.6446 0.3909
C98 C 0.1516(14) 0.6510(3) 0.42370(15)
H128 H 0.2749 0.6639 0.4288
H129 H 0.1311 0.6174 0.4321
H130 H 0.0561 0.6751 0.4300
C99 C 0.187(3) 0.9666(4) 0.4068(2)
C100 C 0.3494(18) 0.9703(3) 0.3916(2)
H131 H 0.4664 0.9760 0.4001
C101 C 0.3342(17) 0.9655(3) 0.3638(2)
H132 H 0.4461 0.9681 0.3536
C102 C 0.176(2) 0.9574(4) 0.3496(3)
H133 H 0.1764 0.9551 0.3302
C103 C 0.022(2) 0.9528(4) 0.3637(3)
H134 H -0.0900 0.9463 0.3540
C104 C 0.013(2) 0.9565(5) 0.3906(3)
H135 H -0.1037 0.9528 0.3997
C105 C 0.144(4) 0.9671(5) 0.4318(3)
H136 H 0.2395 0.9855 0.4421
H137 H 0.1341 0.9318 0.4385
H138 H 0.0237 0.9845 0.4341
loop_
_geom_bond_atom_site_label_1
_geom_bond_atom_site_label_2
_geom_bond_site_symmetry_1
_geom_bond_site_symmetry_2
O1 C5 1_555 1_555
O2 C22 1_555 1_555
O3 C1 1_555 1_555
O4 H1 1_555 1_555
O5 H2 1_555 1_555
O6 C26 1_555 1_555
C1 C2 1_555 1_555
C2 H3 1_555 1_555
C3 C2 1_555 1_555
H4 C3 1_555 1_555
C4 O4 1_555 1_555
H5 C4 1_555 1_555
C5 C4 1_555 1_555
C6 O1 1_555 1_555
H6 C6 1_555 1_555
C7 C6 1_555 1_555
H7 C7 1_555 1_555
H8 C7 1_555 1_555
C8 C7 1_555 1_555
H9 C8 1_555 1_555
C9 C8 1_555 1_555
H10 C9 1_555 1_555
C10 C1 1_555 1_555
C11 C9 1_555 1_555
H11 C11 1_555 1_555
H12 C11 1_555 1_555
C12 C11 1_555 1_555
H13 C12 1_555 1_555
H14 C12 1_555 1_555
C13 C12 1_555 1_555
C14 C8 1_555 1_555
H15 C14 1_555 1_555
C15 C14 1_555 1_555
H16 C15 1_555 1_555
H17 C15 1_555 1_555
C16 C15 1_555 1_555
H18 C16 1_555 1_555
H19 C16 1_555 1_555
C17 C13 1_555 1_555
H20 C17 1_555 1_555
C18 C13 1_555 1_555
H21 C18 1_555 1_555
H22 C18 1_555 1_555
H23 C18 1_555 1_555
C19 O5 1_555 1_555
H24 C19 1_555 1_555
H25 C19 1_555 1_555
C20 C17 1_555 1_555
H26 C20 1_555 1_555
C21 C20 1_555 1_555
H27 C21 1_555 1_555
H28 C21 1_555 1_555
H29 C21 1_555 1_555
C22 C20 1_555 1_555
H30 C22 1_555 1_555
C23 C22 1_555 1_555
H31 C23 1_555 1_555
H32 C23 1_555 1_555
C24 C23 1_555 1_555
C25 C24 1_555 1_555
C26 O2 1_555 1_555
C27 C25 1_555 1_555
H33 C27 1_555 1_555
H34 C27 1_555 1_555
H35 C27 1_555 1_555
C28 C24 1_555 1_555
H36 C28 1_555 1_555
H37 C28 1_555 1_555
H38 C28 1_555 1_555
O7 C33 1_555 1_555
O8 C50 1_555 1_555
O9 C29 1_555 1_555
O10 H39 1_555 1_555
O11 H40 1_555 1_555
O12 C54 1_555 1_555
C29 C30 1_555 1_555
C30 H41 1_555 1_555
C31 C30 1_555 1_555
H42 C31 1_555 1_555
C32 O10 1_555 1_555
H43 C32 1_555 1_555
C33 C32 1_555 1_555
C34 O7 1_555 1_555
H44 C34 1_555 1_555
C35 C34 1_555 1_555
H45 C35 1_555 1_555
H46 C35 1_555 1_555
C36 C35 1_555 1_555
H47 C36 1_555 1_555
C37 C36 1_555 1_555
H48 C37 1_555 1_555
C38 C29 1_555 1_555
C39 C37 1_555 1_555
H49 C39 1_555 1_555
H50 C39 1_555 1_555
C40 C39 1_555 1_555
H51 C40 1_555 1_555
H52 C40 1_555 1_555
C41 C40 1_555 1_555
C42 C36 1_555 1_555
H53 C42 1_555 1_555
C43 C42 1_555 1_555
H54 C43 1_555 1_555
H55 C43 1_555 1_555
C44 C43 1_555 1_555
H56 C44 1_555 1_555
H57 C44 1_555 1_555
C45 C41 1_555 1_555
H58 C45 1_555 1_555
C46 C41 1_555 1_555
H59 C46 1_555 1_555
H60 C46 1_555 1_555
H61 C46 1_555 1_555
C47 O11 1_555 1_555
H62 C47 1_555 1_555
H63 C47 1_555 1_555
C48 C45 1_555 1_555
H64 C48 1_555 1_555
C49 C48 1_555 1_555
H65 C49 1_555 1_555
H66 C49 1_555 1_555
H67 C49 1_555 1_555
C50 C48 1_555 1_555
H68 C50 1_555 1_555
C51 C50 1_555 1_555
H69 C51 1_555 1_555
H70 C51 1_555 1_555
C52 C51 1_555 1_555
C53 C52 1_555 1_555
C54 O8 1_555 1_555
C55 C53 1_555 1_555
H71 C55 1_555 1_555
H72 C55 1_555 1_555
H73 C55 1_555 1_555
C56 C52 1_555 1_555
H74 C56 1_555 1_555
H75 C56 1_555 1_555
H76 C56 1_555 1_555
O13 C61 1_555 1_555
O14 C78 1_555 1_555
O15 C57 1_555 1_555
O16 H77 1_555 1_555
O17 H78 1_555 1_555
O18 C82 1_555 1_555
C57 C58 1_555 1_555
C58 H79 1_555 1_555
C59 C58 1_555 1_555
H80 C59 1_555 1_555
C60 O16 1_555 1_555
H81 C60 1_555 1_555
C61 C60 1_555 1_555
C62 O13 1_555 1_555
H82 C62 1_555 1_555
C63 C62 1_555 1_555
H83 C63 1_555 1_555
H84 C63 1_555 1_555
C64 C63 1_555 1_555
H85 C64 1_555 1_555
C65 C64 1_555 1_555
H86 C65 1_555 1_555
C66 C57 1_555 1_555
C67 C65 1_555 1_555
H87 C67 1_555 1_555
H88 C67 1_555 1_555
C68 C67 1_555 1_555
H89 C68 1_555 1_555
H90 C68 1_555 1_555
C69 C68 1_555 1_555
C70 C64 1_555 1_555
H91 C70 1_555 1_555
C71 C70 1_555 1_555
H92 C71 1_555 1_555
H93 C71 1_555 1_555
C72 C71 1_555 1_555
H94 C72 1_555 1_555
H95 C72 1_555 1_555
C73 C69 1_555 1_555
H96 C73 1_555 1_555
C74 C69 1_555 1_555
H97 C74 1_555 1_555
H98 C74 1_555 1_555
H99 C74 1_555 1_555
C75 O17 1_555 1_555
H100 C75 1_555 1_555
H101 C75 1_555 1_555
C76 C73 1_555 1_555
H102 C76 1_555 1_555
C77 C76 1_555 1_555
H103 C77 1_555 1_555
H104 C77 1_555 1_555
H105 C77 1_555 1_555
C78 C76 1_555 1_555
H106 C78 1_555 1_555
C79 C78 1_555 1_555
H107 C79 1_555 1_555
H108 C79 1_555 1_555
C80 C79 1_555 1_555
C81 C80 1_555 1_555
C82 O14 1_555 1_555
C83 C81 1_555 1_555
H109 C83 1_555 1_555
H110 C83 1_555 1_555
H111 C83 1_555 1_555
C84 C80 1_555 1_555
H112 C84 1_555 1_555
H113 C84 1_555 1_555
H114 C84 1_555 1_555
C85 C86 1_555 1_555
C86 H115 1_555 1_555
C87 C86 1_555 1_555
H116 C87 1_555 1_555
C88 C87 1_555 1_555
H117 C88 1_555 1_555
C89 C88 1_555 1_555
H118 C89 1_555 1_555
C90 C85 1_555 1_555
H119 C90 1_555 1_555
C91 C85 1_555 1_555
H120 C91 1_555 1_555
H121 C91 1_555 1_555
H122 C91 1_555 1_555
C92 C93 1_555 1_555
C93 H123 1_555 1_555
C94 C93 1_555 1_555
H124 C94 1_555 1_555
C95 C94 1_555 1_555
H125 C95 1_555 1_555
C96 C95 1_555 1_555
H126 C96 1_555 1_555
C97 C92 1_555 1_555
H127 C97 1_555 1_555
C98 C92 1_555 1_555
H128 C98 1_555 1_555
H129 C98 1_555 1_555
H130 C98 1_555 1_555
C99 C100 1_555 1_555
C100 H131 1_555 1_555
C101 C100 1_555 1_555
H132 C101 1_555 1_555
C102 C101 1_555 1_555
H133 C102 1_555 1_555
C103 C102 1_555 1_555
H134 C103 1_555 1_555
C104 C99 1_555 1_555
H135 C104 1_555 1_555
C105 C99 1_555 1_555
H136 C105 1_555 1_555
H137 C105 1_555 1_555
H138 C105 1_555 1_555
C3 C4 1_555 1_555
C5 C6 1_555 1_555
C5 C10 1_555 1_555
C9 C10 1_555 1_555
C10 C19 1_555 1_555
C13 C14 1_555 1_555
C16 C17 1_555 1_555
C25 C26 1_555 1_555
C31 C32 1_555 1_555
C33 C34 1_555 1_555
C33 C38 1_555 1_555
C37 C38 1_555 1_555
C38 C47 1_555 1_555
C41 C42 1_555 1_555
C44 C45 1_555 1_555
C53 C54 1_555 1_555
C59 C60 1_555 1_555
C61 C62 1_555 1_555
C61 C66 1_555 1_555
C65 C66 1_555 1_555
C66 C75 1_555 1_555
C69 C70 1_555 1_555
C72 C73 1_555 1_555
C81 C82 1_555 1_555
C89 C90 1_555 1_555
C96 C97 1_555 1_555
C103 C104 1_555 1_555

#END
