
#######################################################################
#
#                 Cambridge Crystallographic Data Centre
#                                CCDC 
#
#######################################################################
#
# If this CIF has been generated from an entry in the Cambridge 
# Structural Database, then it will include bibliographic, chemical, 
# crystal, experimental, refinement or atomic coordinate data resulting 
# from the CCDC's data processing and validation procedures.
#
#######################################################################

data_BAPPOZ
_chemical_compound_source        'aerial parts of Physalis longifolia'
_chemical_name_common            'Withalongolide C'
_chemical_formula_moiety         'C28 H38 O7'
_chemical_name_systematic        
4,11,27-Trihydroxy-5,6:22,26-diepoxyergosta-2,24-diene-1,26-dione
_symmetry_cell_setting           orthorhombic
_symmetry_space_group_name_H-M   'P 21 21 21'
_symmetry_Int_Tables_number      19
_space_group_name_Hall           'P 2ac 2ab'
loop_
_symmetry_equiv_pos_site_id
_symmetry_equiv_pos_as_xyz
1 x,y,z
2 1/2-x,-y,1/2+z
3 -x,1/2+y,1/2-z
4 1/2+x,1/2-y,-z
_cell_length_a                   10.679(4)
_cell_length_b                   12.245(5)
_cell_length_c                   18.674(7)
_cell_angle_alpha                90
_cell_angle_beta                 90
_cell_angle_gamma                90
_cell_volume                     2441.89
_exptl_crystal_colour            colorless
_exptl_crystal_description       'irregular chunk'
_cell_formula_units_Z            4
loop_
_atom_site_label
_atom_site_type_symbol
_atom_site_fract_x
_atom_site_fract_y
_atom_site_fract_z
O1 O 0.35864(10) -0.03164(8) -0.18894(6)
O2 O 0.32083(10) 0.22293(9) 0.34689(5)
O3 O 0.31188(12) 0.35479(9) -0.18594(6)
O4 O 0.36907(11) 0.11371(10) -0.31651(6)
H1 H 0.393(2) 0.141(2) -0.3547(13)
O5 O 0.23852(11) 0.30979(9) -0.04100(6)
H2 H 0.236(2) 0.3368(19) -0.0824(12)
O6 O 0.26533(11) 0.21939(10) 0.46034(6)
O7 O 0.50951(12) 0.18654(10) 0.56163(6)
H3 H 0.583(3) 0.216(2) 0.5587(13)
C1 C 0.38218(14) 0.27621(12) -0.19007(8)
C2 C 0.50494(14) 0.28502(13) -0.22546(8)
H4 H 0.542(2) 0.3555(18) -0.2260(10)
C3 C 0.54759(14) 0.20127(14) -0.26360(8)
H5 H 0.619(2) 0.2025(19) -0.2903(13)
C4 C 0.47198(15) 0.09846(13) -0.26792(8)
H6 H 0.5191(19) 0.0422(16) -0.2815(10)
C5 C 0.41940(14) 0.07367(11) -0.19417(8)
C6 C 0.47756(14) -0.01552(12) -0.15298(8)
H7 H 0.5447(18) -0.0505(15) -0.1762(10)
C7 C 0.47716(15) -0.01887(12) -0.07272(8)
H8 H 0.5570(19) -0.0028(16) -0.0535(10)
H9 H 0.456(2) -0.0922(17) -0.0549(11)
C8 C 0.39066(14) 0.06530(11) -0.03719(8)
H10 H 0.3009(18) 0.0459(15) -0.0389(10)
C9 C 0.40530(13) 0.17547(12) -0.07676(7)
H11 H 0.4972(18) 0.1829(15) -0.0827(10)
C10 C 0.35070(13) 0.16672(12) -0.15488(7)
C11 C 0.36851(14) 0.28054(12) -0.03567(8)
H12 H 0.4177(17) 0.3394(15) -0.0565(9)
C12 C 0.40192(14) 0.27631(11) 0.04453(8)
H13 H 0.367(2) 0.3425(16) 0.0671(10)
H14 H 0.4886(18) 0.2880(14) 0.0516(9)
C13 C 0.36224(13) 0.17011(12) 0.08141(8)
C14 C 0.42953(13) 0.07758(11) 0.04116(8)
H15 H 0.5155(18) 0.0960(14) 0.0411(9)
C15 C 0.41602(15) -0.02279(12) 0.08979(8)
H16 H 0.342(2) -0.0625(16) 0.0800(11)
H17 H 0.4828(18) -0.0717(15) 0.0851(10)
C16 C 0.41337(15) 0.02574(12) 0.16666(8)
H18 H 0.3366(19) 0.0088(15) 0.1912(10)
H19 H 0.4865(19) 0.0007(15) 0.1960(10)
C17 C 0.41647(14) 0.15215(11) 0.15794(7)
H20 H 0.501(2) 0.1747(17) 0.1566(10)
C18 C 0.21967(14) 0.15517(13) 0.08192(8)
H21 H 0.1892(19) 0.1511(16) 0.0315(11)
H22 H 0.198(2) 0.0900(16) 0.1088(10)
H23 H 0.1781(17) 0.2210(14) 0.1073(9)
C19 C 0.20920(14) 0.14496(13) -0.15944(8)
H24 H 0.185(3) 0.131(2) -0.2060(14)
H25 H 0.1616(19) 0.2008(16) -0.1422(10)
H26 H 0.188(2) 0.0810(18) -0.1321(12)
C20 C 0.35180(14) 0.21246(12) 0.22013(8)
H27 H 0.2665(16) 0.1890(13) 0.2192(9)
C21 C 0.35779(16) 0.33748(12) 0.21400(8)
H28 H 0.438(2) 0.366(2) 0.2045(13)
H29 H 0.299(2) 0.3649(18) 0.1774(12)
H30 H 0.338(2) 0.3710(16) 0.2584(11)
C22 C 0.40114(14) 0.17244(12) 0.29235(7)
H31 H 0.3888(17) 0.0979(15) 0.2985(9)
C23 C 0.53631(14) 0.19688(13) 0.31106(8)
H32 H 0.554(2) 0.2781(19) 0.3110(12)
H33 H 0.594(2) 0.1608(17) 0.2773(11)
C24 C 0.56287(15) 0.15586(13) 0.38559(8)
C25 C 0.46892(15) 0.15044(12) 0.43366(8)
C26 C 0.34427(15) 0.19813(12) 0.41572(8)
C27 C 0.48242(17) 0.10558(13) 0.50846(8)
H34 H 0.5438(19) 0.0513(16) 0.5117(10)
H35 H 0.4064(19) 0.0748(15) 0.5252(11)
C28 C 0.69594(16) 0.12484(15) 0.40040(9)
H36 H 0.711(2) 0.1032(19) 0.4460(14)
H37 H 0.720(2) 0.0646(18) 0.3655(12)
H38 H 0.752(3) 0.185(2) 0.3932(13)
loop_
_geom_bond_atom_site_label_1
_geom_bond_atom_site_label_2
_geom_bond_site_symmetry_1
_geom_bond_site_symmetry_2
O1 C5 1_555 1_555
O2 C22 1_555 1_555
O3 C1 1_555 1_555
O4 H1 1_555 1_555
O5 H2 1_555 1_555
O6 C26 1_555 1_555
O7 H3 1_555 1_555
C1 C2 1_555 1_555
C2 H4 1_555 1_555
C3 C2 1_555 1_555
H5 C3 1_555 1_555
C4 O4 1_555 1_555
H6 C4 1_555 1_555
C5 C4 1_555 1_555
C6 O1 1_555 1_555
H7 C6 1_555 1_555
C7 C6 1_555 1_555
H8 C7 1_555 1_555
H9 C7 1_555 1_555
C8 C7 1_555 1_555
H10 C8 1_555 1_555
C9 C8 1_555 1_555
H11 C9 1_555 1_555
C10 C1 1_555 1_555
C11 O5 1_555 1_555
H12 C11 1_555 1_555
C12 C11 1_555 1_555
H13 C12 1_555 1_555
H14 C12 1_555 1_555
C13 C12 1_555 1_555
C14 C8 1_555 1_555
H15 C14 1_555 1_555
C15 C14 1_555 1_555
H16 C15 1_555 1_555
H17 C15 1_555 1_555
C16 C15 1_555 1_555
H18 C16 1_555 1_555
H19 C16 1_555 1_555
C17 C13 1_555 1_555
H20 C17 1_555 1_555
C18 C13 1_555 1_555
H21 C18 1_555 1_555
H22 C18 1_555 1_555
H23 C18 1_555 1_555
C19 C10 1_555 1_555
H24 C19 1_555 1_555
H25 C19 1_555 1_555
H26 C19 1_555 1_555
C20 C17 1_555 1_555
H27 C20 1_555 1_555
C21 C20 1_555 1_555
H28 C21 1_555 1_555
H29 C21 1_555 1_555
H30 C21 1_555 1_555
C22 C20 1_555 1_555
H31 C22 1_555 1_555
C23 C22 1_555 1_555
H32 C23 1_555 1_555
H33 C23 1_555 1_555
C24 C23 1_555 1_555
C25 C24 1_555 1_555
C26 O2 1_555 1_555
C27 O7 1_555 1_555
H34 C27 1_555 1_555
H35 C27 1_555 1_555
C28 C24 1_555 1_555
H36 C28 1_555 1_555
H37 C28 1_555 1_555
H38 C28 1_555 1_555
C3 C4 1_555 1_555
C5 C6 1_555 1_555
C5 C10 1_555 1_555
C9 C10 1_555 1_555
C9 C11 1_555 1_555
C13 C14 1_555 1_555
C16 C17 1_555 1_555
C25 C26 1_555 1_555
C25 C27 1_555 1_555

#END
