
#######################################################################
#
#                 Cambridge Crystallographic Data Centre
#                                CCDC 
#
#######################################################################
#
# If this CIF has been generated from an entry in the Cambridge 
# Structural Database, then it will include bibliographic, chemical, 
# crystal, experimental, refinement or atomic coordinate data resulting 
# from the CCDC's data processing and validation procedures.
#
#######################################################################

data_BAPROB
_chemical_compound_source        'roots of Euphorbia prolifera'
_chemical_name_common            'uphorbiaproliferins A'
_chemical_formula_moiety         'C39 H56 O15'
_chemical_name_systematic        
'2,7,14-Triacetoxy-11-(2-acetoxypropan-2-yl)-5,9-dimethyl-4-(propionyloxy)-16-oxatetracyclo[7.5.2.0^1,10^.0^3,7^]hexadec-12-ene-5,8-diyl bis(2-methylpropanoate)'
_symmetry_cell_setting           orthorhombic
_symmetry_space_group_name_H-M   'P 21 21 21'
_symmetry_Int_Tables_number      19
_space_group_name_Hall           'P 2ac 2ab'
loop_
_symmetry_equiv_pos_site_id
_symmetry_equiv_pos_as_xyz
1 x,y,z
2 1/2+x,1/2-y,-z
3 -x,1/2+y,1/2-z
4 1/2-x,-y,1/2+z
_cell_length_a                   10.2388(5)
_cell_length_b                   12.9739(8)
_cell_length_c                   30.5211(16)
_cell_angle_alpha                90
_cell_angle_beta                 90
_cell_angle_gamma                90
_cell_volume                     4054.34
_exptl_crystal_colour            colorless
_exptl_crystal_description       prism
_cell_formula_units_Z            4
loop_
_atom_site_label
_atom_site_type_symbol
_atom_site_fract_x
_atom_site_fract_y
_atom_site_fract_z
O1 O 0.88600(11) 0.69144(9) 0.72254(4)
O2 O 0.81237(13) 0.74145(10) 0.78897(4)
O3 O 0.74958(12) 0.78369(9) 0.62109(4)
O4 O 0.93435(15) 0.86684(12) 0.60255(5)
O5 O 0.88190(11) 0.57220(9) 0.58520(4)
O6 O 0.81171(14) 0.68375(11) 0.53329(4)
O7 O 0.68110(12) 0.46916(10) 0.52638(4)
O8 O 0.85248(15) 0.45588(13) 0.48036(5)
O9 O 0.32137(11) 0.40572(9) 0.63049(4)
O10 O 0.11845(13) 0.42376(15) 0.60235(5)
O11 O 0.75824(11) 0.40198(9) 0.67825(4)
O12 O 0.64468(11) 0.52013(9) 0.74024(4)
O13 O 0.44850(14) 0.51062(14) 0.77346(5)
O14 O 0.53291(10) 0.64666(9) 0.64031(4)
O15 O 0.37423(12) 0.68562(10) 0.68912(4)
C1 C 0.64997(15) 0.71597(13) 0.70491(6)
H1 H 0.5875 0.7715 0.6975
H2 H 0.6364 0.6962 0.7359
C2 C 0.79115(16) 0.75310(13) 0.69783(6)
C3 C 0.81958(16) 0.71765(12) 0.65081(5)
H3 H 0.9153 0.7164 0.6444
C4 C 0.75987(15) 0.61028(12) 0.64955(5)
H4 H 0.8171 0.5650 0.6679
C5 C 0.75215(15) 0.56046(13) 0.60424(5)
H5 H 0.6864 0.5976 0.5858
C6 C 0.72269(15) 0.44272(13) 0.60398(5)
C7 C 0.74442(17) 0.40058(13) 0.55787(6)
H6 H 0.8403 0.3988 0.5517
C8 C 0.68902(19) 0.29558(15) 0.55110(6)
H7 H 0.7297 0.2508 0.5306
C9 C 0.58470(19) 0.26249(14) 0.57273(6)
H8 H 0.5523 0.1959 0.5657
C10 C 0.37201(17) 0.34738(14) 0.59237(6)
C11 C 0.51409(16) 0.32277(13) 0.60748(6)
H9 H 0.5056 0.2755 0.6332
C12 C 0.58631(15) 0.42037(12) 0.62460(5)
H10 H 0.5291 0.4814 0.6191
C13 C 0.61873(15) 0.41704(13) 0.67521(5)
C14 C 0.58387(15) 0.52120(13) 0.69740(5)
H11 H 0.4870 0.5243 0.7014
C15 C 0.62858(15) 0.62125(13) 0.67447(5)
C16 C 0.81318(18) 0.86714(13) 0.70600(6)
H12 H 0.7856 0.8844 0.7359
H13 H 0.7621 0.9075 0.6849
H14 H 0.9061 0.8832 0.7025
C17 C 0.81239(16) 0.38632(13) 0.63585(5)
H15 H 0.8157 0.3119 0.6288
H16 H 0.9020 0.4147 0.6343
C18 C 0.2929(2) 0.24815(17) 0.58773(8)
H17 H 0.2853 0.2147 0.6164
H18 H 0.3372 0.2016 0.5672
H19 H 0.2056 0.2645 0.5766
C19 C 0.36847(19) 0.41384(18) 0.55161(6)
H20 H 0.2776 0.4294 0.5441
H21 H 0.4098 0.3769 0.5273
H22 H 0.4158 0.4782 0.5571
C20 C 0.55587(17) 0.33054(13) 0.70181(6)
H23 H 0.5857 0.2638 0.6906
H24 H 0.4606 0.3349 0.6992
H25 H 0.5810 0.3374 0.7327
C21 C 0.88963(16) 0.69507(13) 0.76659(6)
C22 C 1.00480(17) 0.63338(14) 0.78358(6)
H26 H 0.9976 0.5617 0.7718
C23 C 1.0022(2) 0.62730(17) 0.83354(7)
H27 H 1.0050 0.6971 0.8458
H28 H 1.0780 0.5881 0.8438
H29 H 0.9218 0.5928 0.8430
C24 C 1.13335(19) 0.67995(18) 0.76692(7)
H30 H 1.1318 0.6830 0.7348
H31 H 1.2066 0.6369 0.7765
H32 H 1.1437 0.7497 0.7788
C25 C 0.8189(2) 0.85465(14) 0.59875(6)
C26 C 0.7314(3) 0.91321(19) 0.56796(9)
H33 H 0.7270 0.8754 0.5398
H34 H 0.6422 0.9149 0.5804
C27 C 0.7727(4) 1.0177(3) 0.55931(14)
H35 H 0.7614 1.0595 0.5858
H36 H 0.7197 1.0467 0.5356
H37 H 0.8649 1.0180 0.5507
C28 C 0.89777(19) 0.63533(14) 0.55038(6)
C29 C 1.0378(2) 0.6357(2) 0.53610(7)
H38 H 1.0426 0.6511 0.5047
H39 H 1.0765 0.5679 0.5417
H40 H 1.0858 0.6884 0.5525
C30 C 0.7454(2) 0.48833(15) 0.48869(6)
C31 C 0.6649(3) 0.5540(2) 0.45882(7)
H41 H 0.7221 0.6005 0.4424
H42 H 0.6028 0.5945 0.4762
H43 H 0.6168 0.5099 0.4383
C32 C 0.19495(17) 0.43470(15) 0.63192(6)
C33 C 0.16151(19) 0.48346(16) 0.67491(7)
H44 H 0.1131 0.5475 0.6698
H45 H 0.2420 0.4988 0.6910
H46 H 0.1075 0.4360 0.6921
C34 C 0.56527(18) 0.51465(14) 0.77575(6)
C35 C 0.6450(2) 0.51291(16) 0.81731(6)
H47 H 0.6881 0.5817 0.8203
C36 C 0.5554(3) 0.4985(2) 0.85691(7)
H48 H 0.4862 0.5506 0.8562
H49 H 0.6064 0.5062 0.8839
H50 H 0.5164 0.4296 0.8560
C37 C 0.7521(2) 0.43186(17) 0.81537(7)
H51 H 0.7129 0.3638 0.8107
H52 H 0.8008 0.4319 0.8430
H53 H 0.8116 0.4476 0.7911
C38 C 0.41144(16) 0.67823(13) 0.65196(6)
C39 C 0.33260(19) 0.70109(17) 0.61179(7)
H54 H 0.3177 0.6372 0.5954
H55 H 0.3801 0.7501 0.5933
H56 H 0.2485 0.7309 0.6204
loop_
_geom_bond_atom_site_label_1
_geom_bond_atom_site_label_2
_geom_bond_site_symmetry_1
_geom_bond_site_symmetry_2
O1 C2 1_555 1_555
O2 C21 1_555 1_555
O3 C3 1_555 1_555
O4 C25 1_555 1_555
O5 C5 1_555 1_555
O6 C28 1_555 1_555
O7 C7 1_555 1_555
O8 C30 1_555 1_555
O9 C10 1_555 1_555
O10 C32 1_555 1_555
O11 C13 1_555 1_555
O12 C14 1_555 1_555
O13 C34 1_555 1_555
O14 C15 1_555 1_555
O15 C38 1_555 1_555
C1 H1 1_555 1_555
H2 C1 1_555 1_555
C2 C1 1_555 1_555
C3 C2 1_555 1_555
H3 C3 1_555 1_555
C4 C3 1_555 1_555
H4 C4 1_555 1_555
C5 C4 1_555 1_555
H5 C5 1_555 1_555
C6 C5 1_555 1_555
C7 C6 1_555 1_555
H6 C7 1_555 1_555
C8 C7 1_555 1_555
H7 C8 1_555 1_555
C9 C8 1_555 1_555
H8 C9 1_555 1_555
C10 C11 1_555 1_555
C11 C9 1_555 1_555
H9 C11 1_555 1_555
C12 C6 1_555 1_555
H10 C12 1_555 1_555
C13 C12 1_555 1_555
C14 C13 1_555 1_555
H11 C14 1_555 1_555
C15 C1 1_555 1_555
C16 C2 1_555 1_555
H12 C16 1_555 1_555
H13 C16 1_555 1_555
H14 C16 1_555 1_555
C17 O11 1_555 1_555
H15 C17 1_555 1_555
H16 C17 1_555 1_555
C18 C10 1_555 1_555
H17 C18 1_555 1_555
H18 C18 1_555 1_555
H19 C18 1_555 1_555
C19 C10 1_555 1_555
H20 C19 1_555 1_555
H21 C19 1_555 1_555
H22 C19 1_555 1_555
C20 C13 1_555 1_555
H23 C20 1_555 1_555
H24 C20 1_555 1_555
H25 C20 1_555 1_555
C21 O1 1_555 1_555
C22 C21 1_555 1_555
H26 C22 1_555 1_555
C23 C22 1_555 1_555
H27 C23 1_555 1_555
H28 C23 1_555 1_555
H29 C23 1_555 1_555
C24 C22 1_555 1_555
H30 C24 1_555 1_555
H31 C24 1_555 1_555
H32 C24 1_555 1_555
C25 O3 1_555 1_555
C26 C25 1_555 1_555
H33 C26 1_555 1_555
H34 C26 1_555 1_555
C27 C26 1_555 1_555
H35 C27 1_555 1_555
H36 C27 1_555 1_555
H37 C27 1_555 1_555
C28 O5 1_555 1_555
C29 C28 1_555 1_555
H38 C29 1_555 1_555
H39 C29 1_555 1_555
H40 C29 1_555 1_555
C30 O7 1_555 1_555
C31 C30 1_555 1_555
H41 C31 1_555 1_555
H42 C31 1_555 1_555
H43 C31 1_555 1_555
C32 O9 1_555 1_555
C33 C32 1_555 1_555
H44 C33 1_555 1_555
H45 C33 1_555 1_555
H46 C33 1_555 1_555
C34 O12 1_555 1_555
C35 C34 1_555 1_555
H47 C35 1_555 1_555
C36 C35 1_555 1_555
H48 C36 1_555 1_555
H49 C36 1_555 1_555
H50 C36 1_555 1_555
C37 C35 1_555 1_555
H51 C37 1_555 1_555
H52 C37 1_555 1_555
H53 C37 1_555 1_555
C38 O14 1_555 1_555
C39 C38 1_555 1_555
H54 C39 1_555 1_555
H55 C39 1_555 1_555
H56 C39 1_555 1_555
C4 C15 1_555 1_555
C6 C17 1_555 1_555
C11 C12 1_555 1_555
C14 C15 1_555 1_555

#END
