
#######################################################################
#
#                 Cambridge Crystallographic Data Centre
#                                CCDC 
#
#######################################################################
#
# If this CIF has been generated from an entry in the Cambridge 
# Structural Database, then it will include bibliographic, chemical, 
# crystal, experimental, refinement or atomic coordinate data resulting 
# from the CCDC's data processing and validation procedures.
#
#######################################################################

data_BAPSES
_chemical_name_common            'dysolenticin D'
_chemical_formula_moiety         'C30 H46 O4'
_chemical_name_systematic        23-Hydroxy-21,23-epoxylanost-7-ene-3,24-dione
_symmetry_cell_setting           monoclinic
_symmetry_space_group_name_H-M   'P 21'
_symmetry_Int_Tables_number      4
_space_group_name_Hall           'P 2yb'
loop_
_symmetry_equiv_pos_site_id
_symmetry_equiv_pos_as_xyz
1 x,y,z
2 -x,1/2+y,-z
_cell_length_a                   7.500(7)
_cell_length_b                   17.596(16)
_cell_length_c                   10.344(9)
_cell_angle_alpha                90
_cell_angle_beta                 98.773(9)
_cell_angle_gamma                90
_cell_volume                     1349.13
_exptl_crystal_colour            colorless
_exptl_crystal_description       block
_cell_formula_units_Z            2
loop_
_atom_site_label
_atom_site_type_symbol
_atom_site_fract_x
_atom_site_fract_y
_atom_site_fract_z
C1 C 0.4809(4) 0.3813(2) 0.6516(3)
H1 H 0.4456 0.3393 0.5926
H2 H 0.3760 0.4134 0.6526
C2 C 0.5420(4) 0.3505(2) 0.7884(3)
H3 H 0.5618 0.3927 0.8492
H4 H 0.4467 0.3192 0.8139
C3 C 0.7092(5) 0.30494(18) 0.7987(3)
C4 C 0.8644(4) 0.33243(15) 0.7346(2)
C5 C 0.7949(3) 0.37527(14) 0.6046(2)
H5 H 0.7563 0.3350 0.5411
C6 C 0.9481(3) 0.41498(16) 0.5516(3)
H6 H 1.0181 0.4438 0.6216
H7 H 1.0270 0.3769 0.5228
C7 C 0.8860(3) 0.46720(15) 0.4407(2)
H8 H 0.9740 0.4899 0.3992
C8 C 0.7165(3) 0.48384(13) 0.3965(2)
C9 C 0.5658(3) 0.44555(15) 0.4546(2)
H9 H 0.5449 0.3966 0.4098
C10 C 0.6279(3) 0.42687(15) 0.6011(2)
C11 C 0.3879(3) 0.48886(19) 0.4268(2)
H10 H 0.3954 0.5325 0.4847
H11 H 0.2929 0.4562 0.4490
C12 C 0.3325(3) 0.51697(17) 0.2858(2)
H12 H 0.2388 0.4839 0.2421
H13 H 0.2816 0.5675 0.2882
C13 C 0.4864(3) 0.51966(13) 0.2054(2)
C14 C 0.6628(3) 0.54303(13) 0.2937(2)
C15 C 0.7911(3) 0.55578(17) 0.1932(2)
H14 H 0.8874 0.5905 0.2270
H15 H 0.8436 0.5082 0.1705
C16 C 0.6707(3) 0.58999(17) 0.0745(3)
H16 H 0.6894 0.5638 -0.0048
H17 H 0.6987 0.6434 0.0656
C17 C 0.4737(3) 0.58040(14) 0.0982(2)
H18 H 0.4381 0.6280 0.1363
C18 C 0.5065(4) 0.44150(15) 0.1443(3)
H19 H 0.3939 0.4270 0.0931
H20 H 0.5396 0.4048 0.2123
H21 H 0.5984 0.4437 0.0892
C19 C 0.6675(4) 0.49973(16) 0.6790(2)
H22 H 0.5592 0.5294 0.6738
H23 H 0.7577 0.5284 0.6436
H24 H 0.7107 0.4875 0.7687
C20 C 0.3439(3) 0.56726(14) -0.0278(2)
H25 H 0.3794 0.5211 -0.0703
C21 C 0.1473(3) 0.56140(16) -0.0121(2)
H26 H 0.1185 0.5100 0.0116
H27 H 0.1203 0.5958 0.0556
C22 C 0.3336(3) 0.63292(16) -0.1235(2)
H28 H 0.3281 0.6813 -0.0795
H29 H 0.4359 0.6330 -0.1707
C23 C 0.1593(4) 0.61631(16) -0.2139(2)
C24 C 0.0575(4) 0.68599(18) -0.2731(2)
C25 C -0.0171(4) 0.74198(17) -0.1886(3)
H30 H 0.0175 0.7266 -0.0971
C26 C -0.2189(6) 0.7406(4) -0.2206(6)
H31 H -0.2546 0.7539 -0.3109
H32 H -0.2692 0.7765 -0.1663
H33 H -0.2622 0.6906 -0.2053
C27 C 0.0568(9) 0.8198(3) -0.2057(5)
H34 H 0.1860 0.8186 -0.1858
H35 H 0.0100 0.8547 -0.1478
H36 H 0.0216 0.8361 -0.2945
C28 C 0.9828(7) 0.2670(2) 0.7063(4)
H37 H 1.0260 0.2406 0.7862
H38 H 1.0835 0.2861 0.6689
H39 H 0.9143 0.2327 0.6458
C29 C 0.9771(4) 0.3819(2) 0.8400(3)
H40 H 0.9040 0.4227 0.8642
H41 H 1.0790 0.4024 0.8059
H42 H 1.0184 0.3513 0.9155
C30 C 0.6456(4) 0.62000(15) 0.3619(3)
H43 H 0.5491 0.6174 0.4130
H44 H 0.6204 0.6592 0.2972
H45 H 0.7565 0.6313 0.4181
O1 O 0.7228(4) 0.24754(17) 0.8627(3)
O2 O 0.0464(2) 0.58157(10) -0.13558(16)
O3 O 0.1909(3) 0.56747(14) -0.31232(18)
H46 H 0.1377 0.5828 -0.3826
O4 O 0.0357(4) 0.69288(18) -0.3897(2)
loop_
_geom_bond_atom_site_label_1
_geom_bond_atom_site_label_2
_geom_bond_site_symmetry_1
_geom_bond_site_symmetry_2
C1 H1 1_555 1_555
H2 C1 1_555 1_555
C2 C1 1_555 1_555
H3 C2 1_555 1_555
H4 C2 1_555 1_555
C3 C2 1_555 1_555
C4 C3 1_555 1_555
C5 C4 1_555 1_555
H5 C5 1_555 1_555
C6 C5 1_555 1_555
H6 C6 1_555 1_555
H7 C6 1_555 1_555
C7 C6 1_555 1_555
H8 C7 1_555 1_555
C8 C7 1_555 1_555
C9 C8 1_555 1_555
H9 C9 1_555 1_555
C10 C1 1_555 1_555
C11 C9 1_555 1_555
H10 C11 1_555 1_555
H11 C11 1_555 1_555
C12 C11 1_555 1_555
H12 C12 1_555 1_555
H13 C12 1_555 1_555
C13 C12 1_555 1_555
C14 C8 1_555 1_555
C15 C14 1_555 1_555
H14 C15 1_555 1_555
H15 C15 1_555 1_555
C16 C15 1_555 1_555
H16 C16 1_555 1_555
H17 C16 1_555 1_555
C17 C13 1_555 1_555
H18 C17 1_555 1_555
C18 C13 1_555 1_555
H19 C18 1_555 1_555
H20 C18 1_555 1_555
H21 C18 1_555 1_555
C19 C10 1_555 1_555
H22 C19 1_555 1_555
H23 C19 1_555 1_555
H24 C19 1_555 1_555
C20 C17 1_555 1_555
H25 C20 1_555 1_555
C21 C20 1_555 1_555
H26 C21 1_555 1_555
H27 C21 1_555 1_555
C22 C20 1_555 1_555
H28 C22 1_555 1_555
H29 C22 1_555 1_555
C23 C22 1_555 1_555
C24 C23 1_555 1_555
C25 C24 1_555 1_555
H30 C25 1_555 1_555
C26 C25 1_555 1_555
H31 C26 1_555 1_555
H32 C26 1_555 1_555
H33 C26 1_555 1_555
C27 C25 1_555 1_555
H34 C27 1_555 1_555
H35 C27 1_555 1_555
H36 C27 1_555 1_555
C28 C4 1_555 1_555
H37 C28 1_555 1_555
H38 C28 1_555 1_555
H39 C28 1_555 1_555
C29 C4 1_555 1_555
H40 C29 1_555 1_555
H41 C29 1_555 1_555
H42 C29 1_555 1_555
C30 C14 1_555 1_555
H43 C30 1_555 1_555
H44 C30 1_555 1_555
H45 C30 1_555 1_555
O1 C3 1_555 1_555
O2 C21 1_555 1_555
O3 C23 1_555 1_555
H46 O3 1_555 1_555
O4 C24 1_555 1_555
C5 C10 1_555 1_555
C9 C10 1_555 1_555
C13 C14 1_555 1_555
C16 C17 1_555 1_555
C23 O2 1_555 1_555

#END
