
#######################################################################
#
#                 Cambridge Crystallographic Data Centre
#                                CCDC 
#
#######################################################################
#
# If this CIF has been generated from an entry in the Cambridge 
# Structural Database, then it will include bibliographic, chemical, 
# crystal, experimental, refinement or atomic coordinate data resulting 
# from the CCDC's data processing and validation procedures.
#
#######################################################################

data_BAPSAO
_chemical_compound_source        'twigs and leaves of Dysoxylum lenticellatum'
_chemical_name_common            'dysolenticin C'
_chemical_formula_moiety         'C27 H38 O5'
_chemical_name_systematic        
'23,24-Dihydroxy-4,4,14-trimethyl-21,23-epoxychola-7,20(22)-diene-3,21-dione unknown solvate'
_symmetry_cell_setting           monoclinic
_symmetry_space_group_name_H-M   'C 2'
_symmetry_Int_Tables_number      5
_space_group_name_Hall           'C 2y'
loop_
_symmetry_equiv_pos_site_id
_symmetry_equiv_pos_as_xyz
1 x,y,z
2 -x,y,-z
3 1/2+x,1/2+y,z
4 1/2-x,1/2+y,-z
_cell_length_a                   31.267(6)
_cell_length_b                   6.8755(14)
_cell_length_c                   14.753(3)
_cell_angle_alpha                90
_cell_angle_beta                 111.429(2)
_cell_angle_gamma                90
_cell_volume                     2952.3
_exptl_crystal_colour            colorless
_exptl_crystal_description       block
_cell_formula_units_Z            4
loop_
_atom_site_label
_atom_site_type_symbol
_atom_site_fract_x
_atom_site_fract_y
_atom_site_fract_z
C1 C 0.34624(15) 0.6628(5) 1.1567(2)
H1 H 0.3137 0.6321 1.1287
H2 H 0.3623 0.5733 1.1294
C2 C 0.36313(18) 0.6325(6) 1.2669(3)
H3 H 0.3453 0.7126 1.2943
H4 H 0.3590 0.4975 1.2810
C3 C 0.41320(19) 0.6863(8) 1.3121(3)
C4 C 0.42620(15) 0.8926(7) 1.2955(3)
C5 C 0.40340(13) 0.9337(6) 1.1828(2)
H5 H 0.4212 0.8544 1.1541
C6 C 0.41155(15) 1.1418(6) 1.1578(3)
H6 H 0.4004 1.2306 1.1952
H7 H 0.4443 1.1632 1.1763
C7 C 0.38788(12) 1.1865(5) 1.0507(2)
H8 H 0.3949 1.3037 1.0279
C8 C 0.35772(11) 1.0703(5) 0.9865(2)
C9 C 0.34549(11) 0.8713(5) 1.0177(2)
H9 H 0.3681 0.7801 1.0104
C10 C 0.35362(11) 0.8721(5) 1.1279(2)
C11 C 0.29930(12) 0.7975(5) 0.9504(2)
H10 H 0.2755 0.8732 0.9617
H11 H 0.2959 0.6638 0.9677
C12 C 0.29077(13) 0.8052(5) 0.8393(2)
H12 H 0.2949 0.6759 0.8176
H13 H 0.2592 0.8434 0.8039
C13 C 0.32274(10) 0.9468(4) 0.8141(2)
C14 C 0.33169(11) 1.1284(4) 0.8820(2)
C15 C 0.35565(14) 1.2667(5) 0.8340(2)
H14 H 0.3879 1.2338 0.8526
H15 H 0.3531 1.4006 0.8521
C16 C 0.32950(16) 1.2350(6) 0.7232(3)
H16 H 0.3085 1.3420 0.6959
H17 H 0.3510 1.2275 0.6897
C17 C 0.30297(12) 1.0445(5) 0.7116(2)
H18 H 0.2708 1.0778 0.6991
C18 C 0.36774(12) 0.8446(5) 0.8233(2)
H19 H 0.3837 0.8060 0.8897
H20 H 0.3867 0.9321 0.8037
H21 H 0.3610 0.7316 0.7822
C19 C 0.31785(13) 1.0060(6) 1.1479(3)
H22 H 0.2876 0.9760 1.1025
H23 H 0.3249 1.1396 1.1404
H24 H 0.3190 0.9850 1.2131
C20 C 0.30363(12) 0.9202(5) 0.6281(2)
C21 C 0.27122(14) 0.7586(6) 0.5900(3)
C22 C 0.32911(13) 0.9259(6) 0.5745(2)
H25 H 0.3528 1.0143 0.5833
C23 C 0.31519(13) 0.7720(6) 0.4976(2)
C24 C 0.3538(2) 0.6209(8) 0.5045(3)
H26 H 0.3408 0.5142 0.4598
H27 H 0.3773 0.6826 0.4862
C25 C 0.47669(18) 0.9125(12) 1.3285(4)
H28 H 0.4900 0.8939 1.3977
H29 H 0.4843 1.0400 1.3125
H30 H 0.4886 0.8165 1.2967
C26 C 0.4089(2) 1.0270(8) 1.3583(3)
H31 H 0.4191 0.9778 1.4237
H32 H 0.3760 1.0314 1.3317
H33 H 0.4210 1.1555 1.3587
C27 C 0.28695(13) 1.2280(6) 0.8770(3)
H34 H 0.2697 1.1412 0.9015
H35 H 0.2691 1.2609 0.8106
H36 H 0.2941 1.3442 0.9158
O1 O 0.44047(18) 0.5653(8) 1.3569(4)
O2 O 0.24073(11) 0.7032(5) 0.61705(19)
O3 O 0.27816(10) 0.6751(4) 0.51398(17)
O4 O 0.30073(10) 0.8432(4) 0.40287(16)
H37 H 0.2832 0.9349 0.3972
O5 O 0.37248(15) 0.5523(8) 0.5961(3)
H38 H 0.4020(3) 0.538(8) 0.625(3)
loop_
_geom_bond_atom_site_label_1
_geom_bond_atom_site_label_2
_geom_bond_site_symmetry_1
_geom_bond_site_symmetry_2
C1 H1 1_555 1_555
H2 C1 1_555 1_555
C2 C1 1_555 1_555
H3 C2 1_555 1_555
H4 C2 1_555 1_555
C3 C2 1_555 1_555
C4 C3 1_555 1_555
C5 C4 1_555 1_555
H5 C5 1_555 1_555
C6 C5 1_555 1_555
H6 C6 1_555 1_555
H7 C6 1_555 1_555
C7 C6 1_555 1_555
H8 C7 1_555 1_555
C8 C7 1_555 1_555
C9 C8 1_555 1_555
H9 C9 1_555 1_555
C10 C1 1_555 1_555
C11 C9 1_555 1_555
H10 C11 1_555 1_555
H11 C11 1_555 1_555
C12 C11 1_555 1_555
H12 C12 1_555 1_555
H13 C12 1_555 1_555
C13 C12 1_555 1_555
C14 C8 1_555 1_555
C15 C14 1_555 1_555
H14 C15 1_555 1_555
H15 C15 1_555 1_555
C16 C15 1_555 1_555
H16 C16 1_555 1_555
H17 C16 1_555 1_555
C17 C13 1_555 1_555
H18 C17 1_555 1_555
C18 C13 1_555 1_555
H19 C18 1_555 1_555
H20 C18 1_555 1_555
H21 C18 1_555 1_555
C19 C10 1_555 1_555
H22 C19 1_555 1_555
H23 C19 1_555 1_555
H24 C19 1_555 1_555
C20 C17 1_555 1_555
C21 C20 1_555 1_555
C22 C20 1_555 1_555
H25 C22 1_555 1_555
C23 C22 1_555 1_555
C24 C23 1_555 1_555
H26 C24 1_555 1_555
H27 C24 1_555 1_555
C25 C4 1_555 1_555
H28 C25 1_555 1_555
H29 C25 1_555 1_555
H30 C25 1_555 1_555
C26 C4 1_555 1_555
H31 C26 1_555 1_555
H32 C26 1_555 1_555
H33 C26 1_555 1_555
C27 C14 1_555 1_555
H34 C27 1_555 1_555
H35 C27 1_555 1_555
H36 C27 1_555 1_555
O1 C3 1_555 1_555
O2 C21 1_555 1_555
O3 C21 1_555 1_555
O4 C23 1_555 1_555
H37 O4 1_555 1_555
O5 C24 1_555 1_555
H38 O5 1_555 1_555
C5 C10 1_555 1_555
C9 C10 1_555 1_555
C13 C14 1_555 1_555
C16 C17 1_555 1_555
C23 O3 1_555 1_555

#END
