
#######################################################################
#
#                 Cambridge Crystallographic Data Centre
#                                CCDC 
#
#######################################################################
#
# If this CIF has been generated from an entry in the Cambridge 
# Structural Database, then it will include bibliographic, chemical, 
# crystal, experimental, refinement or atomic coordinate data resulting 
# from the CCDC's data processing and validation procedures.
#
#######################################################################

data_BAQBUS
_chemical_formula_moiety         'C31 H30 N2 O6'
_chemical_name_systematic        
5-(2-(3-Benzyl-1H-3,1-benzimidazol-3-ium-1-yl)-3-ethoxy-3-oxo-1-phenylpropyl)-2,2-dimethyl-4,6-dioxo-1,3-dioxan-5-ide
_symmetry_cell_setting           monoclinic
_symmetry_space_group_name_H-M   'P 21/n'
_symmetry_Int_Tables_number      14
_space_group_name_Hall           '-P 2yn'
loop_
_symmetry_equiv_pos_site_id
_symmetry_equiv_pos_as_xyz
1 x,y,z
2 1/2-x,1/2+y,1/2-z
3 -x,-y,-z
4 1/2+x,1/2-y,1/2+z
_cell_length_a                   13.1681(16)
_cell_length_b                   13.7942(17)
_cell_length_c                   15.3043(19)
_cell_angle_alpha                90
_cell_angle_beta                 103.814(2)
_cell_angle_gamma                90
_cell_volume                     2699.52
_exptl_crystal_description       block
_cell_formula_units_Z            4
loop_
_atom_site_label
_atom_site_type_symbol
_atom_site_fract_x
_atom_site_fract_y
_atom_site_fract_z
C1 C 1.0336(2) 0.2482(2) 0.29466(19)
H1 H 1.0533 0.2884 0.3446
C2 C 0.9960(3) 0.1559(2) 0.3009(2)
H2 H 0.9900 0.1330 0.3565
C3 C 0.9669(3) 0.0960(2) 0.2257(2)
H3 H 0.9414 0.0344 0.2328
C4 C 0.9744(2) 0.1247(2) 0.1415(2)
H4 H 0.9556 0.0840 0.0918
C5 C 1.0117(2) 0.21785(18) 0.13484(17)
C6 C 1.0402(2) 0.27763(18) 0.21010(17)
C7 C 1.0635(2) 0.35941(19) 0.09204(18)
H5 H 1.0797 0.4090 0.0565
C8 C 1.0037(2) 0.2442(2) -0.03403(18)
H6 H 1.0145 0.3016 -0.0684
C9 C 1.0821(2) 0.1690(2) -0.0463(2)
C10 C 0.8897(2) 0.2125(2) -0.06904(19)
H7 H 0.8853 0.1469 -0.0458
C11 C 0.8655(2) 0.2026(2) -0.17172(19)
C12 C 0.8310(3) 0.2799(3) -0.2289(2)
H8 H 0.8231 0.3406 -0.2049
C13 C 0.8078(3) 0.2677(4) -0.3220(3)
H9 H 0.7855 0.3203 -0.3597
C14 C 0.8179(3) 0.1772(4) -0.3583(3)
H10 H 0.8028 0.1688 -0.4203
C15 C 0.8499(3) 0.1012(4) -0.3025(3)
H11 H 0.8559 0.0401 -0.3264
C16 C 0.8739(3) 0.1139(3) -0.2098(2)
H12 H 0.8961 0.0608 -0.1727
C17 C 1.1058(2) 0.4518(2) 0.2362(2)
H13 H 1.1413 0.4962 0.2044
H14 H 1.1550 0.4326 0.2914
C18 C 1.0147(2) 0.50255(19) 0.2590(2)
C19 C 1.0128(3) 0.5171(2) 0.3478(2)
H15 H 1.0681 0.4954 0.3935
C20 C 0.9289(5) 0.5640(3) 0.3692(4)
H16 H 0.9282 0.5737 0.4291
C21 C 0.8477(5) 0.5958(3) 0.3031(5)
H17 H 0.7910 0.6260 0.3180
C22 C 0.8491(3) 0.5833(3) 0.2141(4)
H18 H 0.7936 0.6058 0.1691
C23 C 0.9336(3) 0.5369(2) 0.1912(3)
H19 H 0.9352 0.5292 0.1312
C24 C 0.6876(2) 0.3551(2) 0.0633(2)
C25 C 0.5909(3) 0.4103(4) 0.0711(3)
H20 H 0.5531 0.4310 0.0124
H21 H 0.6110 0.4660 0.1090
H22 H 0.5471 0.3690 0.0969
C26 C 0.7580(3) 0.3327(2) 0.1536(2)
H23 H 0.7199 0.2964 0.1888
H24 H 0.7825 0.3921 0.1841
H25 H 0.8166 0.2952 0.1457
C27 C 0.8148(2) 0.3729(2) -0.02447(18)
C28 C 0.7265(2) 0.2192(2) -0.01851(18)
C29 C 0.8121(2) 0.2728(2) -0.03385(17)
C30 C 1.2443(3) 0.1316(3) -0.0789(4)
H26 H 1.2586 0.0858 -0.0294
H27 H 1.2198 0.0959 -0.1346
C31 C 1.3387(4) 0.1861(4) -0.0812(4)
H28 H 1.3221 0.2351 -0.1269
H29 H 1.3902 0.1429 -0.0943
H30 H 1.3657 0.2162 -0.0237
N1 N 1.02755(17) 0.27206(15) 0.06185(14)
N2 N 1.07265(17) 0.36516(15) 0.17999(14)
O1 O 0.65292(15) 0.26901(17) 0.01481(14)
O2 O 0.73999(18) 0.41616(14) 0.01221(14)
O3 O 0.70590(18) 0.13404(16) -0.03543(15)
O4 O 0.87869(19) 0.42913(15) -0.04617(14)
O5 O 1.0706(2) 0.08330(18) -0.0334(2)
O6 O 1.16399(19) 0.20348(18) -0.06703(18)
loop_
_geom_bond_atom_site_label_1
_geom_bond_atom_site_label_2
_geom_bond_site_symmetry_1
_geom_bond_site_symmetry_2
C1 H1 1_555 1_555
C2 C1 1_555 1_555
H2 C2 1_555 1_555
C3 C2 1_555 1_555
H3 C3 1_555 1_555
C4 C3 1_555 1_555
H4 C4 1_555 1_555
C5 C4 1_555 1_555
C6 C1 1_555 1_555
C7 H5 1_555 1_555
C8 H6 1_555 1_555
C9 C8 1_555 1_555
C10 C8 1_555 1_555
H7 C10 1_555 1_555
C11 C10 1_555 1_555
C12 C11 1_555 1_555
H8 C12 1_555 1_555
C13 C12 1_555 1_555
H9 C13 1_555 1_555
C14 C13 1_555 1_555
H10 C14 1_555 1_555
C15 C14 1_555 1_555
H11 C15 1_555 1_555
C16 C11 1_555 1_555
H12 C16 1_555 1_555
C17 H13 1_555 1_555
H14 C17 1_555 1_555
C18 C17 1_555 1_555
C19 C18 1_555 1_555
H15 C19 1_555 1_555
C20 C19 1_555 1_555
H16 C20 1_555 1_555
C21 C20 1_555 1_555
H17 C21 1_555 1_555
C22 C21 1_555 1_555
H18 C22 1_555 1_555
C23 C18 1_555 1_555
H19 C23 1_555 1_555
C24 C25 1_555 1_555
C25 H20 1_555 1_555
H21 C25 1_555 1_555
H22 C25 1_555 1_555
C26 C24 1_555 1_555
H23 C26 1_555 1_555
H24 C26 1_555 1_555
H25 C26 1_555 1_555
C27 C29 1_555 1_555
C28 C29 1_555 1_555
C29 C10 1_555 1_555
C30 H26 1_555 1_555
H27 C30 1_555 1_555
C31 C30 1_555 1_555
H28 C31 1_555 1_555
H29 C31 1_555 1_555
H30 C31 1_555 1_555
N1 C5 1_555 1_555
N2 C6 1_555 1_555
O1 C24 1_555 1_555
O2 C24 1_555 1_555
O3 C28 1_555 1_555
O4 C27 1_555 1_555
O5 C9 1_555 1_555
O6 C9 1_555 1_555
C5 C6 1_555 1_555
C7 N1 1_555 1_555
C7 N2 1_555 1_555
C8 N1 1_555 1_555
C15 C16 1_555 1_555
C17 N2 1_555 1_555
C22 C23 1_555 1_555
C27 O2 1_555 1_555
C28 O1 1_555 1_555
C30 O6 1_555 1_555

#END
