
#######################################################################
#
#                 Cambridge Crystallographic Data Centre
#                                CCDC 
#
#######################################################################
#
# If this CIF has been generated from an entry in the Cambridge 
# Structural Database, then it will include bibliographic, chemical, 
# crystal, experimental, refinement or atomic coordinate data resulting 
# from the CCDC's data processing and validation procedures.
#
#######################################################################

data_BAQBOM
_chemical_formula_moiety         'C22 H22 O2'
_chemical_name_systematic        
8-(Biphenyl-4-yl)-4-methylene-2-oxaspiro[4.5]decan-1-one
_symmetry_cell_setting           monoclinic
_symmetry_space_group_name_H-M   'P 21'
_symmetry_Int_Tables_number      4
_space_group_name_Hall           'P 2yb'
loop_
_symmetry_equiv_pos_site_id
_symmetry_equiv_pos_as_xyz
1 x,y,z
2 -x,1/2+y,-z
_cell_length_a                   6.1207(18)
_cell_length_b                   21.988(6)
_cell_length_c                   6.5624(18)
_cell_angle_alpha                90
_cell_angle_beta                 103.807(6)
_cell_angle_gamma                90
_cell_volume                     857.661
_exptl_crystal_colour            colorless
_exptl_crystal_description       prismatic
_cell_formula_units_Z            2
loop_
_atom_site_label
_atom_site_type_symbol
_atom_site_fract_x
_atom_site_fract_y
_atom_site_fract_z
O1 O 0.0091(6) 1.14516(15) 0.1621(5)
O2 O 0.0819(7) 1.10590(17) 0.4833(6)
C1 C -0.1864(7) 1.05505(19) 0.2018(6)
C2 C -0.0199(8) 1.1027(2) 0.3009(8)
C3 C -0.1476(9) 1.1344(2) -0.0397(8)
H1 H -0.0685 1.1202 -0.1423
H2 H -0.2284 1.1714 -0.0917
C4 C -0.3038(8) 1.08732(19) 0.0015(7)
C5 C -0.5073(9) 1.0786(3) -0.1096(8)
H3 H -0.5651 1.1030 -0.2255
H4 H -0.5952 1.0478 -0.0731
C6 C -0.3380(8) 1.0335(2) 0.3399(7)
H5 H -0.4587 1.0093 0.2554
H6 H -0.4055 1.0687 0.3896
C7 C -0.2178(8) 0.9958(2) 0.5293(7)
H7 H -0.1118 1.0215 0.6251
H8 H -0.3274 0.9811 0.6026
C8 C -0.0936(8) 0.9423(2) 0.4661(7)
H9 H -0.2051 0.9164 0.3737
C9 C 0.0692(8) 0.9643(2) 0.3405(7)
H10 H 0.1460 0.9297 0.2978
H11 H 0.1815 0.9904 0.4278
C10 C -0.0540(8) 0.9994(2) 0.1467(7)
H12 H -0.1580 0.9722 0.0550
H13 H 0.0544 1.0134 0.0708
C11 C 0.0175(8) 0.90419(19) 0.6600(6)
C12 C -0.1122(8) 0.8609(2) 0.7329(7)
H14 H -0.2617 0.8550 0.6628
C13 C -0.0187(8) 0.8267(2) 0.9099(7)
H15 H -0.1083 0.7988 0.9591
C14 C 0.2049(8) 0.83308(19) 1.0150(7)
C15 C 0.3301(8) 0.8756(2) 0.9384(7)
H16 H 0.4799 0.8814 1.0075
C16 C 0.2402(8) 0.9098(2) 0.7627(7)
H17 H 0.3314 0.9370 0.7128
C17 C 0.3049(7) 0.79562(19) 1.2015(7)
C18 C 0.1875(8) 0.7845(2) 1.3541(8)
H18 H 0.0454 0.8014 1.3406
C19 C 0.2795(9) 0.7487(2) 1.5259(8)
H19 H 0.1984 0.7419 1.6268
C20 C 0.4879(10) 0.7231(2) 1.5504(9)
H20 H 0.5477 0.6986 1.6658
C21 C 0.6062(8) 0.7340(2) 1.4029(9)
H21 H 0.7491 0.7174 1.4197
C22 C 0.5175(8) 0.7694(2) 1.2284(8)
H22 H 0.6001 0.7757 1.1283
loop_
_geom_bond_atom_site_label_1
_geom_bond_atom_site_label_2
_geom_bond_site_symmetry_1
_geom_bond_site_symmetry_2
O1 C2 1_555 1_555
O2 C2 1_555 1_555
C1 C2 1_555 1_555
C3 O1 1_555 1_555
H1 C3 1_555 1_555
H2 C3 1_555 1_555
C4 C1 1_555 1_555
C5 C4 1_555 1_555
H3 C5 1_555 1_555
H4 C5 1_555 1_555
C6 C1 1_555 1_555
H5 C6 1_555 1_555
H6 C6 1_555 1_555
C7 C6 1_555 1_555
H7 C7 1_555 1_555
H8 C7 1_555 1_555
C8 C7 1_555 1_555
H9 C8 1_555 1_555
C9 C8 1_555 1_555
H10 C9 1_555 1_555
H11 C9 1_555 1_555
C10 C1 1_555 1_555
H12 C10 1_555 1_555
H13 C10 1_555 1_555
C11 C8 1_555 1_555
C12 C11 1_555 1_555
H14 C12 1_555 1_555
C13 C12 1_555 1_555
H15 C13 1_555 1_555
C14 C13 1_555 1_555
C15 C14 1_555 1_555
H16 C15 1_555 1_555
C16 C11 1_555 1_555
H17 C16 1_555 1_555
C17 C14 1_555 1_555
C18 C17 1_555 1_555
H18 C18 1_555 1_555
C19 C18 1_555 1_555
H19 C19 1_555 1_555
C20 C19 1_555 1_555
H20 C20 1_555 1_555
C21 C20 1_555 1_555
H21 C21 1_555 1_555
C22 C17 1_555 1_555
H22 C22 1_555 1_555
C3 C4 1_555 1_555
C9 C10 1_555 1_555
C15 C16 1_555 1_555
C21 C22 1_555 1_555

#END
