
#######################################################################
#
#                 Cambridge Crystallographic Data Centre
#                                CCDC 
#
#######################################################################
#
# If this CIF has been generated from an entry in the Cambridge 
# Structural Database, then it will include bibliographic, chemical, 
# crystal, experimental, refinement or atomic coordinate data resulting 
# from the CCDC's data processing and validation procedures.
#
#######################################################################

data_BAQDEF
_chemical_formula_moiety         'C40 H30 I4 O2,C1 H2 Cl2'
_chemical_name_systematic        
'1,4,5,8-tetrakis(4-iodophenyl)-9,10-dimethoxy-1,4,5,8-tetrahydroanthracene dichloromethane solvate'
_symmetry_cell_setting           triclinic
_symmetry_space_group_name_H-M   'P -1'
_symmetry_Int_Tables_number      2
_space_group_name_Hall           '-P 1'
loop_
_symmetry_equiv_pos_site_id
_symmetry_equiv_pos_as_xyz
1 x,y,z
2 -x,-y,-z
_cell_length_a                   11.2972(6)
_cell_length_b                   12.0856(6)
_cell_length_c                   15.7260(8)
_cell_angle_alpha                105.3356(14)
_cell_angle_beta                 94.3058(15)
_cell_angle_gamma                105.1097(14)
_cell_volume                     1975.03
_exptl_crystal_colour            colorless
_exptl_crystal_description       parallelepiped
_cell_formula_units_Z            2
loop_
_atom_site_label
_atom_site_type_symbol
_atom_site_fract_x
_atom_site_fract_y
_atom_site_fract_z
I1 I -0.11728(5) 0.86273(5) 0.73383(3)
I2 I 0.22281(5) 0.80140(5) 1.14375(3)
I3 I 0.15279(5) 0.11978(5) 0.99415(3)
I4 I -0.31645(3) 0.15408(3) 0.57935(3)
O1 O 0.2750(3) 0.5303(3) 0.5197(2)
O2 O 0.5466(3) 0.4957(3) 0.8125(2)
C1 C 0.3390(4) 0.5208(4) 0.5950(3)
C2 C 0.3994(4) 0.6253(4) 0.6631(3)
C3 C 0.3938(4) 0.7462(4) 0.6547(3)
H1 H 0.4003 0.7445 0.5926
C4 C 0.5018(5) 0.8454(4) 0.7120(4)
H2 H 0.5276 0.9155 0.6957
C5 C 0.5622(5) 0.8383(4) 0.7843(4)
H3 H 0.6285 0.9034 0.8167
C6 C 0.5286(4) 0.7294(4) 0.8168(3)
H4 H 0.6061 0.7195 0.8417
C7 C 0.4660(4) 0.6178(4) 0.7387(3)
C8 C 0.4744(4) 0.5053(4) 0.7413(3)
C9 C 0.4086(4) 0.4003(3) 0.6750(3)
C10 C 0.4197(4) 0.2815(4) 0.6843(3)
H5 H 0.5082 0.2925 0.7012
C11 C 0.3788(4) 0.1850(4) 0.5966(3)
H6 H 0.4037 0.1162 0.5906
C12 C 0.3099(4) 0.1912(4) 0.5275(3)
H7 H 0.2928 0.1289 0.4747
C13 C 0.2573(4) 0.2946(4) 0.5301(3)
H8 H 0.2602 0.3106 0.4723
C14 C 0.3357(4) 0.4070(3) 0.6019(3)
C15 C 0.2705(4) 0.7710(4) 0.6740(3)
C16 C 0.1737(6) 0.6900(5) 0.6942(5)
H9 H 0.1829 0.6165 0.6965
C17 C 0.0633(6) 0.7154(6) 0.7110(5)
H10 H -0.001 0.6593 0.7237
C18 C 0.0503(5) 0.8255(5) 0.7087(4)
C19 C 0.1446(6) 0.9066(5) 0.6889(4)
H11 H 0.1359 0.9807 0.6877
C20 C 0.2530(6) 0.8791(4) 0.6708(4)
H12 H 0.3158 0.9345 0.656
C21 C 0.4487(5) 0.7434(4) 0.8912(3)
C22 C 0.3893(7) 0.8304(6) 0.9096(5)
H13 H 0.3936 0.8807 0.8734
C23 C 0.3236(8) 0.8457(7) 0.9795(5)
H14 H 0.2852 0.9063 0.9906
C24 C 0.3146(6) 0.7726(5) 1.0323(4)
C25 C 0.3696(8) 0.6823(6) 1.0157(4)
H15 H 0.3622 0.6308 1.051
C26 C 0.4366(7) 0.6691(5) 0.9452(4)
H16 H 0.4747 0.6083 0.934
C27 C 0.3545(4) 0.2429(4) 0.7570(3)
C28 C 0.4009(5) 0.1771(5) 0.8034(4)
H17 H 0.4725 0.1565 0.7894
C29 C 0.3438(6) 0.1412(5) 0.8699(4)
H18 H 0.3769 0.0972 0.9004
C30 C 0.2385(5) 0.1702(4) 0.8912(4)
C31 C 0.1905(6) 0.2362(6) 0.8464(4)
H19 H 0.1193 0.2567 0.8611
C32 C 0.2480(5) 0.2721(5) 0.7793(4)
H20 H 0.2148 0.3162 0.7491
C33 C 0.1207(4) 0.2615(4) 0.5450(3)
C34 C 0.0680(5) 0.1641(5) 0.5746(4)
H21 H 0.117 0.1177 0.5872
C35 C -0.0541(5) 0.1343(5) 0.5859(4)
H22 H -0.0869 0.0687 0.6062
C36 C -0.1282(4) 0.2015(4) 0.5673(3)
C37 C -0.0797(5) 0.2983(5) 0.5361(4)
H23 H -0.1298 0.3431 0.5223
C38 C 0.0438(5) 0.3275(4) 0.5256(4)
H24 H 0.0764 0.3929 0.5051
C39 C 0.3449(6) 0.5314(6) 0.4481(4)
H25 H 0.4185 0.5985 0.467
H26 H 0.2956 0.538 0.3982
H27 H 0.3676 0.4583 0.4308
C40 C 0.6752(5) 0.5142(6) 0.8044(4)
H28 H 0.6854 0.4443 0.763
H29 H 0.7222 0.5282 0.8616
H30 H 0.7041 0.5824 0.783
Cl1 Cl 0.0083(2) 0.43212(18) 0.76607(15)
Cl2 Cl -0.0133(3) 0.6163(3) 0.91887(19)
C41 C 0.0706(10) 0.5199(11) 0.8725(7)
H31 H 0.1545 0.567 0.8726
H32 H 0.0756 0.4684 0.9099
loop_
_geom_bond_atom_site_label_1
_geom_bond_atom_site_label_2
_geom_bond_site_symmetry_1
_geom_bond_site_symmetry_2
I1 C18 1_555 1_555
I2 C24 1_555 1_555
I3 C30 1_555 1_555
I4 C36 1_555 1_555
O1 C1 1_555 1_555
O2 C8 1_555 1_555
C1 C2 1_555 1_555
C2 C3 1_555 1_555
C3 H1 1_555 1_555
C4 C3 1_555 1_555
H2 C4 1_555 1_555
C5 C4 1_555 1_555
H3 C5 1_555 1_555
C6 C5 1_555 1_555
H4 C6 1_555 1_555
C7 C2 1_555 1_555
C8 C7 1_555 1_555
C9 C8 1_555 1_555
C10 C9 1_555 1_555
H5 C10 1_555 1_555
C11 C10 1_555 1_555
H6 C11 1_555 1_555
C12 C11 1_555 1_555
H7 C12 1_555 1_555
C13 C12 1_555 1_555
H8 C13 1_555 1_555
C14 C1 1_555 1_555
C15 C3 1_555 1_555
C16 C15 1_555 1_555
H9 C16 1_555 1_555
C17 C16 1_555 1_555
H10 C17 1_555 1_555
C18 C17 1_555 1_555
C19 C18 1_555 1_555
H11 C19 1_555 1_555
C20 C15 1_555 1_555
H12 C20 1_555 1_555
C21 C6 1_555 1_555
C22 C21 1_555 1_555
H13 C22 1_555 1_555
C23 C22 1_555 1_555
H14 C23 1_555 1_555
C24 C23 1_555 1_555
C25 C24 1_555 1_555
H15 C25 1_555 1_555
C26 C21 1_555 1_555
H16 C26 1_555 1_555
C27 C10 1_555 1_555
C28 C27 1_555 1_555
H17 C28 1_555 1_555
C29 C28 1_555 1_555
H18 C29 1_555 1_555
C30 C29 1_555 1_555
C31 C30 1_555 1_555
H19 C31 1_555 1_555
C32 C27 1_555 1_555
H20 C32 1_555 1_555
C33 C13 1_555 1_555
C34 C33 1_555 1_555
H21 C34 1_555 1_555
C35 C34 1_555 1_555
H22 C35 1_555 1_555
C36 C35 1_555 1_555
C37 C36 1_555 1_555
H23 C37 1_555 1_555
C38 C33 1_555 1_555
H24 C38 1_555 1_555
C39 O1 1_555 1_555
H25 C39 1_555 1_555
H26 C39 1_555 1_555
H27 C39 1_555 1_555
C40 O2 1_555 1_555
H28 C40 1_555 1_555
H29 C40 1_555 1_555
H30 C40 1_555 1_555
Cl1 C41 1_555 1_555
Cl2 C41 1_555 1_555
C41 H31 1_555 1_555
H32 C41 1_555 1_555
C6 C7 1_555 1_555
C9 C14 1_555 1_555
C13 C14 1_555 1_555
C19 C20 1_555 1_555
C25 C26 1_555 1_555
C31 C32 1_555 1_555
C37 C38 1_555 1_555

#END
