
#######################################################################
#
#                 Cambridge Crystallographic Data Centre
#                                CCDC 
#
#######################################################################
#
# If this CIF has been generated from an entry in the Cambridge 
# Structural Database, then it will include bibliographic, chemical, 
# crystal, experimental, refinement or atomic coordinate data resulting 
# from the CCDC's data processing and validation procedures.
#
#######################################################################

data_BAQFOR
_chemical_formula_moiety         'C12 H8 F1 N3 S2'
_chemical_name_systematic        5-fluoro-4,6-bis(2-thienyl)pyrimidin-2-amine
_symmetry_cell_setting           monoclinic
_symmetry_space_group_name_H-M   'P 21/n'
_symmetry_Int_Tables_number      14
_space_group_name_Hall           '-P 2yn'
loop_
_symmetry_equiv_pos_site_id
_symmetry_equiv_pos_as_xyz
1 x,y,z
2 1/2-x,1/2+y,1/2-z
3 -x,-y,-z
4 1/2+x,1/2-y,1/2+z
_cell_length_a                   13.3403(16)
_cell_length_b                   5.1091(6)
_cell_length_c                   18.453(2)
_cell_angle_alpha                90
_cell_angle_beta                 109.944(4)
_cell_angle_gamma                90
_cell_volume                     1182.27
_exptl_crystal_colour            colorless
_exptl_crystal_description       block
_cell_formula_units_Z            4
loop_
_atom_site_label
_atom_site_type_symbol
_atom_site_fract_x
_atom_site_fract_y
_atom_site_fract_z
S1 S 0.76570(5) -0.09502(15) 0.66768(4)
N1 N 0.64823(14) 0.2063(4) 0.52759(10)
F1 F 0.89328(11) 0.5426(4) 0.54915(9)
C1 C 0.8815(2) -0.1291(6) 0.74346(15)
H1 H 0.8918 -0.2520 0.7825
C2 C 0.9557(2) 0.0413(6) 0.74022(15)
H2 H 1.0234 0.0504 0.7773
N2 N 0.62006(14) 0.5229(4) 0.42676(10)
C3 C 0.81752(17) 0.1542(5) 0.62865(13)
C4 C 0.92149(19) 0.2057(6) 0.67520(15)
H3 H 0.9639 0.3343 0.6647
H4 H 0.449(2) 0.334(5) 0.3914(16)
H5 H 0.456(2) 0.127(6) 0.4470(15)
N3 N 0.48587(17) 0.2551(5) 0.43079(14)
C5 C 0.75120(17) 0.2803(4) 0.55735(12)
C6 C 0.78917(18) 0.4703(5) 0.52071(14)
C7 C 0.58875(17) 0.3305(5) 0.46337(12)
C8 C 0.72253(17) 0.5937(4) 0.45507(12)
S2 S 0.6642(2) 0.9448(7) 0.33841(18)
C9 C 0.7597(9) 1.145(3) 0.3243(8)
H6 H 0.7442 1.2740 0.2866
C10 C 0.8595(10) 1.095(3) 0.3732(7)
H7 H 0.9209 1.1803 0.3727
C11 C 0.8564(9) 0.900(4) 0.4242(10)
H8 H 0.9173 0.8409 0.4629
C12 C 0.75665(19) 0.7978(5) 0.41335(13)
S3? S 0.8821(4) 0.8926(17) 0.4290(5)
C13? C 0.8382(19) 1.121(4) 0.3543(11)
H9? H 0.8845 1.2321 0.3412
C14? C 0.7310(15) 1.122(5) 0.3170(16)
H10? H 0.6942 1.2259 0.2749
C15? C 0.6865(17) 0.941(5) 0.3533(12)
H11? H 0.6131 0.9167 0.3381
loop_
_geom_bond_atom_site_label_1
_geom_bond_atom_site_label_2
_geom_bond_site_symmetry_1
_geom_bond_site_symmetry_2
S1 C1 1_555 1_555
N1 C5 1_555 1_555
F1 C6 1_555 1_555
C1 H1 1_555 1_555
C2 C1 1_555 1_555
H2 C2 1_555 1_555
N2 C7 1_555 1_555
C3 S1 1_555 1_555
C4 C2 1_555 1_555
H3 C4 1_555 1_555
H4 N3 1_555 1_555
H5 N3 1_555 1_555
N3 C7 1_555 1_555
C5 C3 1_555 1_555
C6 C5 1_555 1_555
C7 N1 1_555 1_555
C8 N2 1_555 1_555
S2 C9 1_555 1_555
C9 H6 1_555 1_555
C10 C9 1_555 1_555
H7 C10 1_555 1_555
C11 C10 1_555 1_555
H8 C11 1_555 1_555
C12 C8 1_555 1_555
C3 C4 1_555 1_555
C6 C8 1_555 1_555
S2 C12 1_555 1_555
C11 C12 1_555 1_555

#END
