
#######################################################################
#
#                 Cambridge Crystallographic Data Centre
#                                CCDC 
#
#######################################################################
#
# If this CIF has been generated from an entry in the Cambridge 
# Structural Database, then it will include bibliographic, chemical, 
# crystal, experimental, refinement or atomic coordinate data resulting 
# from the CCDC's data processing and validation procedures.
#
#######################################################################

data_BAQGIJ
_chemical_formula_moiety         'C59 H76 O14'
_chemical_name_systematic        
'Tetraethyl 5-(acetoxymethyl)-14,20,29,32,33,36-hexamethyl-7,12,22,27-tetraoxapentacyclo(26.2.2.2^3,6^.2^13,16^.2^18,21^)octatriaconta-1(30),3,5,13,15,18,20,28,31,33,35,37-dodecaene-2,2,17,17-tetra-acetate'
_symmetry_cell_setting           monoclinic
_symmetry_space_group_name_H-M   'P 21/c'
_symmetry_Int_Tables_number      14
_space_group_name_Hall           '-P 2ybc'
loop_
_symmetry_equiv_pos_site_id
_symmetry_equiv_pos_as_xyz
1 x,y,z
2 x,1/2-y,1/2+z
3 -x,-y,-z
4 -x,1/2+y,1/2-z
_cell_length_a                   9.035(3)
_cell_length_b                   19.250(6)
_cell_length_c                   17.071(5)
_cell_angle_alpha                90
_cell_angle_beta                 105.06(2)
_cell_angle_gamma                90
_cell_volume                     2867.08
_exptl_crystal_colour            colorless
_exptl_crystal_description       prism
_chemical_melting_point          78-82deg.C
_cell_formula_units_Z            2
loop_
_atom_site_label
_atom_site_type_symbol
_atom_site_fract_x
_atom_site_fract_y
_atom_site_fract_z
O1 O 0.2891(4) 0.4224(2) 0.6676(2)
O2 O 0.4116(4) 0.6946(2) 1.1352(2)
C1 C 0.0168(5) 0.6301(2) 0.8242(3)
C2 C 0.1825(6) 0.7147(3) 0.9261(3)
H1 H 0.1503(6) 0.7510(3) 0.8868(3)
C3 C 0.1279(6) 0.6495(3) 0.9046(3)
C4 C 0.0106(6) 0.5113(3) 0.7532(3)
H2 H -0.0916(6) 0.5043(3) 0.7584(3)
O3 O -0.0349(5) 0.6769(2) 0.6275(3)
C5 C 0.2293(6) 0.5805(3) 0.7718(3)
H3 H 0.2836(6) 0.6225(3) 0.7913(3)
C6 C 0.0749(6) 0.4601(3) 0.7142(3)
C7 C 0.0859(6) 0.5711(2) 0.7835(3)
O4 O -0.1943(6) 0.7144(3) 0.8966(3)
C8 C -0.1334(7) 0.6031(3) 0.8433(4)
H4 H -0.1121(7) 0.5586(3) 0.8692(4)
H5 H -0.2100(7) 0.5966(3) 0.7931(4)
C9 C 0.2205(6) 0.4715(3) 0.7064(3)
C10 C 0.2981(6) 0.5306(3) 0.7336(3)
C11 C 0.3148(6) 0.6806(3) 1.0585(3)
C12 C 0.2762(6) 0.7317(3) 1.0019(4)
O5 O -0.2460(6) 0.6558(3) 0.6680(3)
C13 C 0.2679(7) 0.6110(3) 1.0399(4)
C14 C -0.0187(6) 0.6918(3) 0.7655(3)
H6 H 0.0773(6) 0.7096(3) 0.7600(3)
H7 H -0.0685(6) 0.7278(3) 0.7882(3)
C15 C 0.3651(7) 0.3671(3) 0.7193(4)
H8 H 0.2904(7) 0.3338(3) 0.7264(4)
H9 H 0.4178(7) 0.3851(3) 0.7715(4)
C16 C 0.1771(7) 0.5982(3) 0.9632(4)
H10 H 0.1458(7) 0.5512(3) 0.9493(4)
C17 C 0.4707(7) 0.3313(3) 0.6827(4)
H11 H 0.5511(7) 0.3635(3) 0.6813(4)
H12 H 0.4192(7) 0.3192(3) 0.6278(4)
C18 C 0.5460(8) 0.2672(4) 0.7292(4)
H13 H 0.5893(8) 0.2389(4) 0.6945(4)
H14 H 0.4658(8) 0.2410(4) 0.7429(4)
O6 O -0.2588(9) 0.6141(3) 0.9434(5)
C19 C -0.1970(7) 0.6529(5) 0.8951(4)
C20 C -0.1158(9) 0.6729(3) 0.6830(4)
C21 C -0.1045(11) 0.6538(5) 0.5456(4)
H15 H -0.0712(11) 0.6822(5) 0.5072(4)
H16 H -0.2139(11) 0.6575(5) 0.5349(4)
C22 C -0.0178(8) 0.3964(3) 0.6813(4)
H17 H 0.0413(8) 0.3659(3) 0.6567(4)
H18 H -0.0467(8) 0.3723(3) 0.7243(4)
H19 H -0.1082(8) 0.4108(3) 0.6413(4)
C23 C 0.4569(7) 0.5450(4) 0.7193(5)
C24 C -0.0669(13) 0.5805(5) 0.5361(5)
H20 H -0.1129(13) 0.5636(5) 0.4823(5)
H21 H 0.0427(13) 0.5776(5) 0.5469(5)
H22 H -0.1009(13) 0.5528(5) 0.5748(5)
O7 O 0.4340(12) 0.5449(6) 0.6300(8)
C25 C 0.3391(11) 0.8054(4) 1.0197(5)
H23 H 0.4037(11) 0.8078(4) 1.0740(5)
H24 H 0.3979(11) 0.8169(4) 0.9820(5)
H25 H 0.2560(11) 0.8377(4) 1.0137(5)
C26 C 0.3237(17) 0.5576(5) 1.0996(6)
H26 H 0.3844(17) 0.5783(5) 1.1486(6)
H27 H 0.2396(17) 0.5327(5) 1.1110(6)
H28 H 0.3860(17) 0.5261(5) 1.0784(6)
C27 C 0.3394(9) 0.7196(4) 1.1918(4)
H29 H 0.2649(9) 0.6865(4) 1.1995(4)
H30 H 0.2874(9) 0.7621(4) 1.1722(4)
C28 C -0.2306(24) 0.6445(9) 1.0796(9)
H31 H -0.2716(24) 0.6677(9) 1.1191(9)
H32 H -0.2169(24) 0.5961(9) 1.0931(9)
H33 H -0.1335(24) 0.6647(9) 1.0794(9)
C29 C -0.3236(21) 0.6486(7) 1.0014(10)
H34 H -0.4212(21) 0.6280(7) 0.9994(10)
H35 H -0.3380(21) 0.6966(7) 0.9858(10)
C18B C 0.4540(8) 0.7328(4) 1.2708(4)
C17B C 0.5293(7) 0.6687(3) 1.3173(4)
C15B C 0.6349(7) 0.6329(3) 1.2807(4)
O1B O 0.7109(4) 0.5776(2) 1.3324(2)
C9B C 0.7795(6) 0.5285(3) 1.2936(3)
C6B C 0.9251(6) 0.5399(3) 1.2858(3)
C4B C 0.9894(6) 0.4887(3) 1.2468(3)
H2B H 1.0916(6) 0.4957(3) 1.2416(3)
C7B C 0.9141(6) 0.4289(2) 1.2165(3)
C1B C 0.9832(5) 0.3699(2) 1.1758(3)
C3B C 0.8721(6) 0.3505(3) 1.0954(3)
C2B C 0.8175(6) 0.2853(3) 1.0739(3)
H1B H 0.8497(6) 0.2490(3) 1.1132(3)
C12B C 0.7238(6) 0.2683(3) 0.9981(4)
C11B C 0.6852(6) 0.3194(3) 0.9415(3)
O2B O 0.5884(4) 0.3054(2) 0.8648(2)
C27B C 0.6606(9) 0.2804(4) 0.8082(4)
H29B H 0.7351(9) 0.3135(4) 0.8005(4)
H30B H 0.7126(9) 0.2379(4) 0.8278(4)
C13B C 0.7321(7) 0.3890(3) 0.9601(4)
C16B C 0.8229(7) 0.4018(3) 1.0368(4)
H10B H 0.8542(7) 0.4488(3) 1.0507(4)
C26B C 0.6763(17) 0.4424(5) 0.9004(6)
H26B H 0.6156(17) 0.4217(5) 0.8514(6)
H27B H 0.7604(17) 0.4673(5) 0.8890(6)
H28B H 0.6140(17) 0.4739(5) 0.9216(6)
C25B C 0.6609(11) 0.1946(4) 0.9803(5)
H23B H 0.5963(11) 0.1922(4) 0.9260(5)
H24B H 0.6021(11) 0.1831(4) 1.0180(5)
H25B H 0.7440(11) 0.1623(4) 0.9863(5)
C8B C 1.1334(7) 0.3969(3) 1.1567(4)
H4B H 1.1121(7) 0.4414(3) 1.1308(4)
H5B H 1.2100(7) 0.4034(3) 1.2069(4)
C19B C 1.1970(7) 0.3471(5) 1.1049(4)
O4B O 1.1943(6) 0.2856(3) 1.1034(3)
O6B O 1.2588(9) 0.3859(3) 1.0566(5)
C29B C 1.3236(21) 0.3514(7) 0.9986(10)
C28B C 1.2306(24) 0.3555(9) 0.9204(9)
H31B H 1.2716(24) 0.3323(9) 0.8809(9)
H32B H 1.2169(24) 0.4039(9) 0.9069(9)
H33B H 1.1335(24) 0.3353(9) 0.9206(9)
H34B H 1.4212(21) 0.3720(7) 1.0006(10)
H35B H 1.3380(21) 0.3034(7) 1.0142(10)
C14B C 1.0187(6) 0.3082(3) 1.2345(3)
H6B H 0.9227(6) 0.2904(3) 1.2400(3)
H7B H 1.0685(6) 0.2722(3) 1.2118(3)
C20B C 1.1158(9) 0.3271(3) 1.3170(4)
O3B O 1.0349(5) 0.3231(2) 1.3725(3)
C21B C 1.1045(11) 0.3462(5) 1.4544(4)
H15B H 1.0712(11) 0.3178(5) 1.4928(4)
H16B H 1.2139(11) 0.3425(5) 1.4651(4)
C24B C 1.0669(13) 0.4195(5) 1.4639(5)
H20B H 1.1129(13) 0.4364(5) 1.5177(5)
H21B H 0.9573(13) 0.4224(5) 1.4531(5)
H22B H 1.1009(13) 0.4472(5) 1.4252(5)
O5B O 1.2460(6) 0.3442(3) 1.3320(3)
C5B C 0.7707(6) 0.4195(3) 1.2282(3)
H3B H 0.7164(6) 0.3775(3) 1.2087(3)
C10B C 0.7019(6) 0.4694(3) 1.2664(3)
C23B C 0.5431(7) 0.4550(4) 1.2807(5)
O7B O 0.5660(12) 0.4551(6) 1.3700(8)
C22B C 1.0178(8) 0.6036(3) 1.3187(4)
H17B H 0.9587(8) 0.6341(3) 1.3433(4)
H18B H 1.0467(8) 0.6277(3) 1.2757(4)
H19B H 1.1082(8) 0.5892(3) 1.3587(4)
H8B H 0.7096(7) 0.6662(3) 1.2736(4)
H9B H 0.5822(7) 0.6149(3) 1.2285(4)
H11B H 0.4489(7) 0.6365(3) 1.3187(4)
H12B H 0.5808(7) 0.6808(3) 1.3722(4)
H13B H 0.4107(8) 0.7611(4) 1.3055(4)
H14B H 0.5342(8) 0.7590(4) 1.2571(4)
O8? O 0.6401(15) 0.4811(8) 0.6384(9)
C30? C 0.5000 0.5000 0.5000
C31? C 0.5361(25) 0.5131(10) 0.5997(16)
loop_
_geom_bond_atom_site_label_1
_geom_bond_atom_site_label_2
_geom_bond_site_symmetry_1
_geom_bond_site_symmetry_2
O1 C9 1_555 1_555
O2 C11 1_555 1_555
C1 C3 1_555 1_555
C2 H1 1_555 1_555
C3 C2 1_555 1_555
C4 H2 1_555 1_555
O3 C20 1_555 1_555
C5 H3 1_555 1_555
C6 C4 1_555 1_555
C7 C1 1_555 1_555
O4 C19 1_555 1_555
C8 C1 1_555 1_555
H4 C8 1_555 1_555
H5 C8 1_555 1_555
C9 C6 1_555 1_555
C10 C5 1_555 1_555
C11 C12 1_555 1_555
C12 C2 1_555 1_555
O5 C20 1_555 1_555
C13 C11 1_555 1_555
C14 C1 1_555 1_555
H6 C14 1_555 1_555
H7 C14 1_555 1_555
C15 O1 1_555 1_555
H8 C15 1_555 1_555
H9 C15 1_555 1_555
C16 C3 1_555 1_555
H10 C16 1_555 1_555
C17 C15 1_555 1_555
H11 C17 1_555 1_555
H12 C17 1_555 1_555
C18 C17 1_555 1_555
H13 C18 1_555 1_555
H14 C18 1_555 1_555
O6 C19 1_555 1_555
C19 C8 1_555 1_555
C20 C14 1_555 1_555
C21 O3 1_555 1_555
H15 C21 1_555 1_555
H16 C21 1_555 1_555
C22 C6 1_555 1_555
H17 C22 1_555 1_555
H18 C22 1_555 1_555
H19 C22 1_555 1_555
C23 C10 1_555 1_555
C24 C21 1_555 1_555
H20 C24 1_555 1_555
H21 C24 1_555 1_555
H22 C24 1_555 1_555
O7 C23 1_555 1_555
C25 C12 1_555 1_555
H23 C25 1_555 1_555
H24 C25 1_555 1_555
H25 C25 1_555 1_555
C26 C13 1_555 1_555
H26 C26 1_555 1_555
H27 C26 1_555 1_555
H28 C26 1_555 1_555
C27 O2 1_555 1_555
H29 C27 1_555 1_555
H30 C27 1_555 1_555
C28 H31 1_555 1_555
H32 C28 1_555 1_555
H33 C28 1_555 1_555
C29 O6 1_555 1_555
H34 C29 1_555 1_555
H35 C29 1_555 1_555
C18B C27 1_555 1_555
C17B C18B 1_555 1_555
C15B C17B 1_555 1_555
O1B C15B 1_555 1_555
C9B O1B 1_555 1_555
C6B C9B 1_555 1_555
C4B C6B 1_555 1_555
H2B C4B 1_555 1_555
C7B C4B 1_555 1_555
C1B C7B 1_555 1_555
C3B C1B 1_555 1_555
C2B C3B 1_555 1_555
H1B C2B 1_555 1_555
C12B C2B 1_555 1_555
C11B C12B 1_555 1_555
O2B C11B 1_555 1_555
C27B C18 1_555 1_555
H29B C27B 1_555 1_555
H30B C27B 1_555 1_555
C13B C11B 1_555 1_555
C16B C3B 1_555 1_555
H10B C16B 1_555 1_555
C26B C13B 1_555 1_555
H26B C26B 1_555 1_555
H27B C26B 1_555 1_555
H28B C26B 1_555 1_555
C25B C12B 1_555 1_555
H23B C25B 1_555 1_555
H24B C25B 1_555 1_555
H25B C25B 1_555 1_555
C8B C1B 1_555 1_555
H4B C8B 1_555 1_555
H5B C8B 1_555 1_555
C19B C8B 1_555 1_555
O4B C19B 1_555 1_555
O6B C19B 1_555 1_555
C29B O6B 1_555 1_555
C28B C29B 1_555 1_555
H31B C28B 1_555 1_555
H32B C28B 1_555 1_555
H33B C28B 1_555 1_555
H34B C29B 1_555 1_555
H35B C29B 1_555 1_555
C14B C1B 1_555 1_555
H6B C14B 1_555 1_555
H7B C14B 1_555 1_555
C20B C14B 1_555 1_555
O3B C20B 1_555 1_555
C21B O3B 1_555 1_555
H15B C21B 1_555 1_555
H16B C21B 1_555 1_555
C24B C21B 1_555 1_555
H20B C24B 1_555 1_555
H21B C24B 1_555 1_555
H22B C24B 1_555 1_555
O5B C20B 1_555 1_555
C5B C7B 1_555 1_555
H3B C5B 1_555 1_555
C10B C9B 1_555 1_555
C23B C10B 1_555 1_555
O7B C23B 1_555 1_555
C22B C6B 1_555 1_555
H17B C22B 1_555 1_555
H18B C22B 1_555 1_555
H19B C22B 1_555 1_555
H8B C15B 1_555 1_555
H9B C15B 1_555 1_555
H11B C17B 1_555 1_555
H12B C17B 1_555 1_555
H13B C18B 1_555 1_555
H14B C18B 1_555 1_555
C4 C7 1_555 1_555
C5 C7 1_555 1_555
C9 C10 1_555 1_555
C13 C16 1_555 1_555
C28 C29 1_555 1_555
O2B C27B 1_555 1_555
C13B C16B 1_555 1_555
C5B C10B 1_555 1_555

#END
