
#######################################################################
#
#                 Cambridge Crystallographic Data Centre
#                                CCDC 
#
#######################################################################
#
# If this CIF has been generated from an entry in the Cambridge 
# Structural Database, then it will include bibliographic, chemical, 
# crystal, experimental, refinement or atomic coordinate data resulting 
# from the CCDC's data processing and validation procedures.
#
#######################################################################

data_BAQRET
_chemical_formula_moiety         'C21 H23 N1 O3 S1'
_chemical_name_systematic        
2-((4-methylphenyl)sulfonyl)-7a-phenyloctahydro-6H-cyclopenta[c]pyridin-6-one
_symmetry_cell_setting           monoclinic
_symmetry_space_group_name_H-M   'P 21/c'
_symmetry_Int_Tables_number      14
_space_group_name_Hall           '-P 2ybc'
loop_
_symmetry_equiv_pos_site_id
_symmetry_equiv_pos_as_xyz
1 x,y,z
2 -x,1/2+y,1/2-z
3 -x,-y,-z
4 x,1/2-y,1/2+z
_cell_length_a                   10.2244(4)
_cell_length_b                   24.9573(9)
_cell_length_c                   7.4835(4)
_cell_angle_alpha                90
_cell_angle_beta                 110.011(2)
_cell_angle_gamma                90
_cell_volume                     1794.3
_exptl_crystal_colour            white
_exptl_crystal_description       plate
_cell_formula_units_Z            4
loop_
_atom_site_label
_atom_site_type_symbol
_atom_site_fract_x
_atom_site_fract_y
_atom_site_fract_z
S1 S 0.77514(6) 0.33962(2) 0.46982(8)
O1 O 0.83806(16) 0.28794(6) 0.5136(2)
O2 O 0.71981(16) 0.35717(7) 0.2758(2)
O3 O 0.46588(18) 0.50608(6) 0.7764(2)
N1 N 0.64670(17) 0.34133(7) 0.5541(3)
C1 C 0.4194(2) 0.38191(8) 0.5348(3)
C2 C 0.4460(2) 0.36176(8) 0.7425(3)
H1 H 0.355302 0.349433 0.751199
C3 C 0.3181(2) 0.34653(8) 0.3840(3)
C4 C 0.4429(2) 0.45917(9) 0.7353(3)
C5 C 0.0847(2) 0.30997(9) 0.2459(3)
H2 H -0.008338 0.307595 0.244861
C6 C 0.5596(2) 0.38993(8) 0.5068(3)
H3 H 0.543121 0.399875 0.372822
H4 H 0.609953 0.419859 0.588328
C7 C 0.1806(2) 0.34166(9) 0.3797(3)
H5 H 0.152509 0.360525 0.470771
C8 C 0.2591(2) 0.28669(9) 0.1135(3)
H6 H 0.286347 0.267959 0.021396
C9 C 0.5480(2) 0.31462(8) 0.7947(3)
H7 H 0.571010 0.306313 0.931411
H8 H 0.502110 0.282703 0.721308
C10 C 0.3550(2) 0.31886(8) 0.2473(3)
H9 H 0.447076 0.321955 0.245100
C11 C 1.0814(2) 0.46317(9) 0.8273(3)
C12 C 0.3612(2) 0.43864(8) 0.5390(3)
H10 H 0.376128 0.461603 0.439759
H11 H 0.260463 0.437401 0.519134
C13 C 0.6819(2) 0.32542(9) 0.7559(3)
H12 H 0.734739 0.354448 0.839970
H13 H 0.740459 0.292796 0.782012
C14 C 1.0132(2) 0.37093(10) 0.7506(3)
H14 H 1.030224 0.333829 0.776663
C15 C 0.1245(2) 0.28179(9) 0.1138(3)
H15 H 0.059853 0.259229 0.023886
C16 C 0.4929(2) 0.41190(8) 0.8680(3)
H16 H 0.450858 0.412496 0.969080
H17 H 0.595502 0.412584 0.928202
C17 C 0.9631(2) 0.47875(10) 0.6786(3)
H18 H 0.944873 0.515865 0.654430
C18 C 0.8712(2) 0.44182(9) 0.5648(3)
H19 H 0.791408 0.453329 0.463061
C19 C 1.1045(2) 0.40881(10) 0.8615(3)
H20 H 1.184469 0.397266 0.962959
C20 C 0.8974(2) 0.38746(9) 0.6019(3)
C21 C 1.1804(3) 0.50446(10) 0.9471(4)
H21 H 1.253480 0.511715 0.893233
H22 H 1.222613 0.490922 1.077177
H23 H 1.129402 0.537595 0.948840
loop_
_geom_bond_atom_site_label_1
_geom_bond_atom_site_label_2
_geom_bond_site_symmetry_1
_geom_bond_site_symmetry_2
S1 O1 1_555 1_555
O2 S1 1_555 1_555
O3 C4 1_555 1_555
N1 S1 1_555 1_555
C1 C2 1_555 1_555
C2 H1 1_555 1_555
C3 C1 1_555 1_555
C4 C12 1_555 1_555
C5 H2 1_555 1_555
C6 N1 1_555 1_555
H3 C6 1_555 1_555
H4 C6 1_555 1_555
C7 C3 1_555 1_555
H5 C7 1_555 1_555
C8 H6 1_555 1_555
C9 C2 1_555 1_555
H7 C9 1_555 1_555
H8 C9 1_555 1_555
C10 C3 1_555 1_555
H9 C10 1_555 1_555
C11 C17 1_555 1_555
C12 C1 1_555 1_555
H10 C12 1_555 1_555
H11 C12 1_555 1_555
C13 N1 1_555 1_555
H12 C13 1_555 1_555
H13 C13 1_555 1_555
C14 H14 1_555 1_555
C15 C5 1_555 1_555
H15 C15 1_555 1_555
C16 C2 1_555 1_555
H16 C16 1_555 1_555
H17 C16 1_555 1_555
C17 H18 1_555 1_555
C18 C17 1_555 1_555
H19 C18 1_555 1_555
C19 C11 1_555 1_555
H20 C19 1_555 1_555
C20 S1 1_555 1_555
C21 C11 1_555 1_555
H21 C21 1_555 1_555
H22 C21 1_555 1_555
H23 C21 1_555 1_555
C1 C6 1_555 1_555
C4 C16 1_555 1_555
C5 C7 1_555 1_555
C8 C10 1_555 1_555
C8 C15 1_555 1_555
C9 C13 1_555 1_555
C14 C19 1_555 1_555
C14 C20 1_555 1_555
C18 C20 1_555 1_555

#END
