
#######################################################################
#
#                 Cambridge Crystallographic Data Centre
#                                CCDC 
#
#######################################################################
#
# If this CIF has been generated from an entry in the Cambridge 
# Structural Database, then it will include bibliographic, chemical, 
# crystal, experimental, refinement or atomic coordinate data resulting 
# from the CCDC's data processing and validation procedures.
#
#######################################################################

data_BAQWUO
_chemical_formula_moiety         'C43 H35 N5 O4 4+,4(F6 P1 1-),3(C2 H3 N1)'
_chemical_name_systematic        
'28,30-dioxo-29-[2-oxo-2-(prop-2-yn-1-yloxy)ethyl]-29-aza-3,10,17,24-tetraazoniaoctacyclo[24.5.2.2^3,6^.2^7,10^.2^12,15^.2^17,20^.2^21,24^.0^27,31^]tritetraconta-1(31),3,5,7,9,12,14,17,19,21,23,26,32,34,36,38,40,42-octadecaene tetrakis(hexafluorophosphate) acetonitrile solvate'
_symmetry_cell_setting           monoclinic
_symmetry_space_group_name_H-M   'P 21/n'
_symmetry_Int_Tables_number      14
_space_group_name_Hall           '-P 2yn'
loop_
_symmetry_equiv_pos_site_id
_symmetry_equiv_pos_as_xyz
1 x,y,z
2 1/2-x,1/2+y,1/2-z
3 -x,-y,-z
4 1/2+x,1/2-y,1/2+z
_cell_length_a                   10.6431(11)
_cell_length_b                   41.576(4)
_cell_length_c                   13.8546(15)
_cell_angle_alpha                90
_cell_angle_beta                 110.763(5)
_cell_angle_gamma                90
_cell_volume                     5732.47
_exptl_crystal_colour            colorless
_exptl_crystal_description       plate
_cell_formula_units_Z            4
loop_
_atom_site_label
_atom_site_type_symbol
_atom_site_fract_x
_atom_site_fract_y
_atom_site_fract_z
O1 O 0.5869(3) 0.64036(8) 0.6473(3)
O2 O 0.5579(3) 0.53459(8) 0.5568(3)
O3 O 0.6960(5) 0.59432(8) 0.4717(4)
O4 O 0.9135(4) 0.59041(10) 0.5696(5)
N1 N 0.6045(4) 0.58660(10) 0.6159(4)
N2 N 0.2459(3) 0.52685(7) 0.3363(2)
N3 N 0.2613(3) 0.56957(7) -0.1453(2)
N4 N 0.3381(3) 0.71875(7) -0.0175(2)
N5 N 0.2985(3) 0.67748(7) 0.4593(2)
C1 C 0.5352(4) 0.61495(11) 0.6139(3)
C2 C 0.3894(3) 0.60676(8) 0.5612(3)
C3 C 0.2771(4) 0.62627(8) 0.5376(2)
C4 C 0.1530(4) 0.61130(9) 0.4929(3)
H1 H 0.0732 0.6235 0.4796
C5 C 0.1432(4) 0.57861(9) 0.4672(3)
H2 H 0.0569 0.5691 0.4369
C6 C 0.2572(3) 0.55970(8) 0.4850(2)
C7 C 0.3800(3) 0.57423(9) 0.5349(3)
C8 C 0.5197(4) 0.56137(11) 0.5681(3)
C9 C 0.7489(5) 0.58548(17) 0.6434(7)
H3 H 0.8074 0.5817 0.7123
C10 C 0.7976(6) 0.59027(13) 0.5627(7)
C11 C 0.7352(8) 0.60068(16) 0.3851(6)
H4 H 0.8233 0.6002 0.3828
C12 C 0.6149(8) 0.60772(13) 0.3045(6)
C13 C 0.5070(10) 0.61404(14) 0.2382(7)
H5 H 0.4229 0.6190 0.1865
C14 C 0.2445(4) 0.52554(8) 0.4437(3)
H6 H 0.3203 0.5123 0.4880
H7 H 0.1596 0.5158 0.4435
C15 C 0.3637(4) 0.52766(11) 0.3210(3)
H8 H 0.4450 0.5244 0.3779
C16 C 0.3687(4) 0.53304(11) 0.2250(3)
H9 H 0.4528 0.5337 0.2155
C17 C 0.2506(3) 0.53756(8) 0.1416(3)
C18 C 0.1313(4) 0.53501(13) 0.1593(3)
H10 H 0.0483 0.5368 0.1032
C19 C 0.1311(4) 0.53000(12) 0.2571(3)
H11 H 0.0482 0.5288 0.2683
C20 C 0.2532(3) 0.54649(8) 0.0386(3)
C21 C 0.3678(5) 0.54542(14) 0.0158(4)
H12 H 0.4474 0.5366 0.0644
C22 C 0.3692(5) 0.55709(14) -0.0773(4)
H13 H 0.4498 0.5560 -0.0920
C23 C 0.1474(5) 0.56914(15) -0.1286(4)
H14 H 0.0680 0.5767 -0.1808
C24 C 0.1407(4) 0.55796(15) -0.0373(4)
H15 H 0.0573 0.5582 -0.0267
C25 C 0.2688(5) 0.58562(9) -0.2403(3)
H16 H 0.1841 0.5820 -0.2993
H17 H 0.3436 0.5764 -0.2580
C26 C 0.2913(4) 0.62126(8) -0.2195(2)
C27 C 0.4182(4) 0.63318(9) -0.1670(3)
H18 H 0.4938 0.6193 -0.1497
C28 C 0.4362(4) 0.66570(9) -0.1393(3)
H19 H 0.5236 0.6737 -0.1022
C29 C 0.3256(3) 0.68630(8) -0.1661(2)
C30 C 0.1996(3) 0.67447(8) -0.2235(3)
H20 H 0.1245 0.6886 -0.2449
C31 C 0.1822(4) 0.64231(8) -0.2501(3)
H21 H 0.0952 0.6345 -0.2896
C32 C 0.3425(4) 0.72018(8) -0.1240(3)
H22 H 0.4295 0.7292 -0.1220
H23 H 0.2695 0.7341 -0.1685
C33 C 0.4500(4) 0.71445(12) 0.0623(3)
H24 H 0.5339 0.7153 0.0525
C34 C 0.4478(4) 0.70872(12) 0.1600(3)
H25 H 0.5296 0.7056 0.2165
C35 C 0.3263(3) 0.70755(8) 0.1755(2)
C36 C 0.2125(4) 0.71469(10) 0.0921(3)
H26 H 0.1279 0.7159 0.1006
C37 C 0.2211(4) 0.72019(10) -0.0043(3)
H27 H 0.1420 0.7250 -0.0614
C38 C 0.3186(3) 0.69883(7) 0.2771(3)
C39 C 0.4293(4) 0.69155(13) 0.3601(3)
H28 H 0.5160 0.6937 0.3556
C40 C 0.4174(4) 0.68108(14) 0.4504(3)
H29 H 0.4962 0.6763 0.5077
C41 C 0.1886(4) 0.68572(14) 0.3819(4)
H30 H 0.1038 0.6846 0.3902
C42 C 0.1954(4) 0.69589(16) 0.2899(4)
H31 H 0.1151 0.7010 0.2343
C43 C 0.2860(4) 0.66233(8) 0.5536(3)
H32 H 0.2043 0.6704 0.5643
H33 H 0.3651 0.6678 0.6152
P1 P 0.8430(4) 0.68977(9) 0.4747(2)
F1 F 0.9489(6) 0.66903(11) 0.5648(5)
F2 F 0.7362(5) 0.71078(14) 0.3882(6)
F3 F 0.8764(5) 0.66790(9) 0.3942(4)
F4 F 0.7297(16) 0.6659(3) 0.4827(12)
F5 F 0.8131(9) 0.71175(12) 0.5583(4)
F6 F 0.9555(3) 0.71397(9) 0.4704(4)
P3 P 0.82686(9) 0.73506(3) 0.09763(8)
F13 F 0.9455(3) 0.74300(11) 0.2037(3)
F14 F 0.7096(3) 0.72690(12) -0.0062(2)
F15 F 0.9048(3) 0.70306(7) 0.0908(3)
F16 F 0.7520(3) 0.71763(12) 0.1616(3)
F17 F 0.7553(4) 0.76753(10) 0.1068(4)
F18 F 0.9077(4) 0.75299(12) 0.0362(4)
P4 P 0.77019(9) 0.51104(2) 0.29581(7)
F25 F 0.8493(3) 0.49533(8) 0.2307(3)
F26 F 0.6905(3) 0.52689(8) 0.3611(2)
F27 F 0.7125(6) 0.47914(10) 0.3218(4)
F28 F 0.8937(5) 0.50958(18) 0.4062(4)
F29 F 0.8348(5) 0.54471(10) 0.2746(5)
F30 F 0.6530(4) 0.51442(16) 0.1917(3)
P5 P 0.7338(6) 0.56000(14) -0.0766(5)
F35 F 0.8206(6) 0.54586(17) -0.1431(6)
F36 F 0.6531(7) 0.5790(2) -0.0198(7)
F37 F 0.6068(7) 0.5562(2) -0.1803(6)
F38 F 0.7126(16) 0.5297(2) -0.0366(8)
F39 F 0.8683(6) 0.5726(2) 0.0063(6)
F40 F 0.7406(10) 0.59624(16) -0.1363(7)
N6 N 0.4444(4) 0.77431(10) 0.3078(3)
C44 C 0.3382(5) 0.78200(11) 0.2828(4)
C45 C 0.1999(7) 0.7914(2) 0.2501(7)
H34 H 0.1560 0.7868 0.1764
H35 H 0.1940 0.8145 0.2623
H36 H 0.1550 0.7793 0.2894
N7 N 0.2617(10) 0.63444(18) 0.0301(6)
C46 C 0.1411(11) 0.64012(16) -0.0061(6)
C47 C 0.0000(9) 0.64712(16) -0.0541(7)
H37 H -0.0200 0.6528 -0.1267
H38 H -0.0236 0.6652 -0.0184
H39 H -0.0525 0.6282 -0.0499
N8 N 0.037(4) 0.6213(12) 0.210(4)
C48 C -0.092(4) 0.6251(11) 0.184(3)
C49 C -0.217(2) 0.6316(5) 0.1460(16)
H40 H -0.2471 0.6313 0.0705
H41 H -0.2334 0.6530 0.1692
H42 H -0.2679 0.6155 0.1691
P2? P 0.8310(8) 0.68964(19) 0.5062(8)
F7? F 0.8787(11) 0.6670(3) 0.6131(12)
F8? F 0.7763(16) 0.7065(4) 0.4029(16)
F9? F 0.718(4) 0.6632(7) 0.459(3)
F10? F 0.7325(14) 0.7072(3) 0.5557(12)
F11? F 0.9398(10) 0.7135(2) 0.5631(10)
F12? F 0.9326(10) 0.6683(2) 0.4727(12)
F19? F 0.9321(14) 0.7095(4) 0.1647(15)
F20? F 0.7170(12) 0.7593(3) 0.0223(13)
F21? F 0.9012(17) 0.7349(5) 0.0159(12)
F22? F 0.7328(13) 0.7061(3) 0.0367(14)
F23? F 0.7199(13) 0.7439(5) 0.1491(14)
F24? F 0.9135(14) 0.7654(4) 0.1501(14)
F31? F 0.8309(8) 0.48003(16) 0.3631(6)
F32? F 0.8909(6) 0.53213(17) 0.3494(6)
F33? F 0.6949(7) 0.53929(16) 0.2205(5)
F34? F 0.6379(7) 0.48804(18) 0.2336(8)
P6? P 0.7458(10) 0.5574(3) -0.1083(8)
F41? F 0.7388(13) 0.5359(2) -0.2025(9)
F42? F 0.7126(16) 0.5701(4) -0.0058(15)
F43? F 0.6243(10) 0.5762(3) -0.1658(11)
F44? F 0.6309(9) 0.5281(2) -0.0962(9)
F45? F 0.8407(12) 0.5318(3) -0.0284(12)
F46? F 0.8420(9) 0.5802(3) -0.1247(12)
N9? N 0.138(3) 0.6180(6) 0.2191(19)
C50? C 0.006(6) 0.6185(17) 0.203(6)
C51? C -0.124(4) 0.6228(13) 0.191(4)
H43? H -0.1789 0.6227 0.1175
H44? H -0.1352 0.6435 0.2214
H45? H -0.1536 0.6054 0.2260
loop_
_geom_bond_atom_site_label_1
_geom_bond_atom_site_label_2
_geom_bond_site_symmetry_1
_geom_bond_site_symmetry_2
O1 C1 1_555 1_555
O2 C8 1_555 1_555
O3 C10 1_555 1_555
O4 C10 1_555 1_555
N1 C1 1_555 1_555
N2 C14 1_555 1_555
N3 C22 1_555 1_555
N4 C32 1_555 1_555
N5 C40 1_555 1_555
C1 C2 1_555 1_555
C2 C3 1_555 1_555
C3 C4 1_555 1_555
C4 H1 1_555 1_555
C5 C4 1_555 1_555
H2 C5 1_555 1_555
C6 C5 1_555 1_555
C7 C2 1_555 1_555
C8 N1 1_555 1_555
C9 N1 1_555 1_555
H3 C9 1_555 1_555
C10 C9 1_555 1_555
C11 O3 1_555 1_555
H4 C11 1_555 1_555
C12 C11 1_555 1_555
C13 C12 1_555 1_555
H5 C13 1_555 1_555
C14 C6 1_555 1_555
H6 C14 1_555 1_555
H7 C14 1_555 1_555
C15 N2 1_555 1_555
H8 C15 1_555 1_555
C16 C15 1_555 1_555
H9 C16 1_555 1_555
C17 C16 1_555 1_555
C18 C17 1_555 1_555
H10 C18 1_555 1_555
C19 N2 1_555 1_555
H11 C19 1_555 1_555
C20 C17 1_555 1_555
C21 C20 1_555 1_555
H12 C21 1_555 1_555
C22 C21 1_555 1_555
H13 C22 1_555 1_555
C23 N3 1_555 1_555
H14 C23 1_555 1_555
C24 C20 1_555 1_555
H15 C24 1_555 1_555
C25 N3 1_555 1_555
H16 C25 1_555 1_555
H17 C25 1_555 1_555
C26 C25 1_555 1_555
C27 C26 1_555 1_555
H18 C27 1_555 1_555
C28 C27 1_555 1_555
H19 C28 1_555 1_555
C29 C28 1_555 1_555
C30 C29 1_555 1_555
H20 C30 1_555 1_555
C31 C26 1_555 1_555
H21 C31 1_555 1_555
C32 C29 1_555 1_555
H22 C32 1_555 1_555
H23 C32 1_555 1_555
C33 N4 1_555 1_555
H24 C33 1_555 1_555
C34 C33 1_555 1_555
H25 C34 1_555 1_555
C35 C34 1_555 1_555
C36 C35 1_555 1_555
H26 C36 1_555 1_555
C37 N4 1_555 1_555
H27 C37 1_555 1_555
C38 C35 1_555 1_555
C39 C38 1_555 1_555
H28 C39 1_555 1_555
C40 C39 1_555 1_555
H29 C40 1_555 1_555
C41 N5 1_555 1_555
H30 C41 1_555 1_555
C42 C38 1_555 1_555
H31 C42 1_555 1_555
C43 N5 1_555 1_555
H32 C43 1_555 1_555
H33 C43 1_555 1_555
P1 F1 1_555 1_555
F2 P1 1_555 1_555
F3 P1 1_555 1_555
F4 P1 1_555 1_555
F5 P1 1_555 1_555
F6 P1 1_555 1_555
P3 F13 1_555 1_555
F14 P3 1_555 1_555
F15 P3 1_555 1_555
F16 P3 1_555 1_555
F17 P3 1_555 1_555
F18 P3 1_555 1_555
P4 F25 1_555 1_555
F26 P4 1_555 1_555
F27 P4 1_555 1_555
F28 P4 1_555 1_555
F29 P4 1_555 1_555
F30 P4 1_555 1_555
P5 F35 1_555 1_555
F36 P5 1_555 1_555
F37 P5 1_555 1_555
F38 P5 1_555 1_555
F39 P5 1_555 1_555
F40 P5 1_555 1_555
N6 C44 1_555 1_555
C44 C45 1_555 1_555
C45 H34 1_555 1_555
H35 C45 1_555 1_555
H36 C45 1_555 1_555
N7 C46 1_555 1_555
C46 C47 1_555 1_555
C47 H37 1_555 1_555
H38 C47 1_555 1_555
H39 C47 1_555 1_555
N8 C48 1_555 1_555
C48 C49 1_555 1_555
C49 H40 1_555 1_555
H41 C49 1_555 1_555
H42 C49 1_555 1_555
C3 C43 1_555 1_555
C6 C7 1_555 1_555
C7 C8 1_555 1_555
C18 C19 1_555 1_555
C23 C24 1_555 1_555
C30 C31 1_555 1_555
C36 C37 1_555 1_555
C41 C42 1_555 1_555

#END
