
#######################################################################
#
#                 Cambridge Crystallographic Data Centre
#                                CCDC 
#
#######################################################################
#
# If this CIF has been generated from an entry in the Cambridge 
# Structural Database, then it will include bibliographic, chemical, 
# crystal, experimental, refinement or atomic coordinate data resulting 
# from the CCDC's data processing and validation procedures.
#
#######################################################################

data_BARAAD
_chemical_name_common            
'Phenobarbital 8-bromo-9-ethyl-9H-purin-6-amine'
_chemical_formula_moiety         'C12 H12 N2 O3,2(C7 H8 Br1 N5)'
_chemical_name_systematic        
'5-ethyl-5-phenylpyrimidine-2,4,6(1H,3H,5H)-trione 8-bromo-9-ethyl-9H-purin-6-amine'
_symmetry_cell_setting           triclinic
_symmetry_space_group_name_H-M   'P -1'
_symmetry_Int_Tables_number      2
_space_group_name_Hall           '-P 1'
loop_
_symmetry_equiv_pos_site_id
_symmetry_equiv_pos_as_xyz
1 x,y,z
2 -x,-y,-z
_cell_length_a                   9.703
_cell_length_b                   12.295
_cell_length_c                   14.712
_cell_angle_alpha                114.72
_cell_angle_beta                 83.65
_cell_angle_gamma                74.75
_cell_volume                     1488.62
_cell_formula_units_Z            2
loop_
_atom_site_label
_atom_site_type_symbol
_atom_site_fract_x
_atom_site_fract_y
_atom_site_fract_z
Br1 Br -0.03230 -0.12210 0.05110
C1 C 0.14510 -0.06260 0.23280
C2 C 0.01200 0.03650 0.31920
C3 C 0.27590 -0.40290 0.27120
C4 C 0.17220 -0.28730 0.20160
C5 C 0.12770 -0.38060 0.13650
C6 C 0.16410 -0.49670 0.14220
C7 C 0.05420 -0.22640 0.10600
N1 N 0.23810 -0.50300 0.21230
N2 N 0.24730 -0.29190 0.27070
N3 N 0.12960 -0.59650 0.08220
N4 N 0.05000 -0.34140 0.07540
N5 N 0.12300 -0.18590 0.18060
Br2 Br -0.31400 -0.32970 0.24710
C8 C -0.25390 -0.56420 0.31110
C9 C -0.09180 -0.63120 0.28280
C10 C -0.34110 -0.86950 0.06850
C11 C -0.33040 -0.67690 0.14770
C12 C -0.38920 -0.64210 0.08020
C13 C -0.43140 -0.73060 0.00330
C14 C -0.34050 -0.48640 0.18160
N6 N -0.40220 -0.84710 -0.00100
N7 N -0.30500 -0.79090 0.14670
N8 N -0.49650 -0.70770 -0.06570
N9 N -0.39340 -0.51830 0.10330
N10 N -0.30090 -0.57510 0.21590
C15 C 0.35250 0.08000 0.43890
C16 C 0.24370 0.08210 0.51110
C17 C 0.11460 0.18750 0.56120
C18 C 0.09410 0.29070 0.54180
C19 C 0.20560 0.28740 0.46930
C20 C 0.32280 0.17530 0.17440
C21 C 0.48100 0.05550 0.24010
C22 C 0.45720 0.17620 0.33950
C23 C 0.40450 0.29390 0.32280
C24 C 0.60500 0.16310 0.37080
C25 C 0.59440 0.25970 0.48250
C26 C 0.33400 0.18350 0.41810
N11 N 0.33020 0.28620 0.24850
N12 N 0.40020 0.06280 0.17160
O1 O 0.25300 0.17620 0.11150
O2 O 0.56170 -0.04900 0.22220
O3 O 0.42240 0.39220 0.37530
loop_
_geom_bond_atom_site_label_1
_geom_bond_atom_site_label_2
_geom_bond_site_symmetry_1
_geom_bond_site_symmetry_2
Br1 C7 1_555 1_555
C1 C2 1_555 1_555
C3 N1 1_555 1_555
C4 C5 1_555 1_555
C5 C6 1_555 1_555
C6 N1 1_555 1_555
C7 N4 1_555 1_555
N2 C3 1_555 1_555
N3 C6 1_555 1_555
N4 C5 1_555 1_555
N5 C1 1_555 1_555
Br2 C14 1_555 1_555
C8 C9 1_555 1_555
C10 N6 1_555 1_555
C11 C12 1_555 1_555
C12 C13 1_555 1_555
C13 N6 1_555 1_555
C14 N9 1_555 1_555
N7 C10 1_555 1_555
N8 C13 1_555 1_555
N9 C12 1_555 1_555
N10 C8 1_555 1_555
C15 C16 1_555 1_555
C16 C17 1_555 1_555
C17 C18 1_555 1_555
C18 C19 1_555 1_555
C19 C26 1_555 1_555
C20 N11 1_555 1_555
C21 C22 1_555 1_555
C22 C23 1_555 1_555
C23 N11 1_555 1_555
C24 C22 1_555 1_555
C25 C24 1_555 1_555
C26 C15 1_555 1_555
N12 C20 1_555 1_555
O1 C20 1_555 1_555
O2 C21 1_555 1_555
O3 C23 1_555 1_555
C4 N2 1_555 1_555
C4 N5 1_555 1_555
C7 N5 1_555 1_555
C11 N7 1_555 1_555
C11 N10 1_555 1_555
C14 N10 1_555 1_555
C21 N12 1_555 1_555
C22 C26 1_555 1_555

#END
