
#######################################################################
#
#                 Cambridge Crystallographic Data Centre
#                                CCDC 
#
#######################################################################
#
# If this CIF has been generated from an entry in the Cambridge 
# Structural Database, then it will include bibliographic, chemical, 
# crystal, experimental, refinement or atomic coordinate data resulting 
# from the CCDC's data processing and validation procedures.
#
#######################################################################

data_BARBOO
_chemical_formula_moiety         'C30 H62 Mg2 N6'
_chemical_name_systematic        
bis(\m-1,4-bis(propan-2-yl)-1,4,7-triazonane)-bis(allyl)-di-magnesium
_symmetry_cell_setting           triclinic
_symmetry_space_group_name_H-M   'P -1'
_symmetry_Int_Tables_number      2
_space_group_name_Hall           '-P 1'
loop_
_symmetry_equiv_pos_site_id
_symmetry_equiv_pos_as_xyz
1 x,y,z
2 -x,-y,-z
_cell_length_a                   8.0801(11)
_cell_length_b                   9.6293(13)
_cell_length_c                   11.6216(15)
_cell_angle_alpha                106.2030(19)
_cell_angle_beta                 91.124(2)
_cell_angle_gamma                110.3937(19)
_cell_volume                     806.997
_exptl_crystal_colour            colorless
_exptl_crystal_description       block
_cell_formula_units_Z            1
_chemical_properties_physical    Air-sensitive,Moisture-sensitive
loop_
_atom_site_label
_atom_site_type_symbol
_atom_site_fract_x
_atom_site_fract_y
_atom_site_fract_z
Mg1 Mg 0.04834(5) 0.46783(5) 0.62251(3)
N1 N -0.15174(13) 0.52648(11) 0.54571(9)
N2 N -0.18746(13) 0.30413(11) 0.67569(9)
N3 N 0.01028(13) 0.64864(12) 0.78988(9)
C1 C 0.26442(16) 0.40323(15) 0.69307(11)
H1 H 0.252(2) 0.315(2) 0.6344(15)
H2 H 0.356(3) 0.483(2) 0.6784(17)
C2 C 0.30646(17) 0.39300(17) 0.81070(12)
H3 H 0.359(2) 0.495(2) 0.8795(15)
C3 C 0.2813(2) 0.2651(2) 0.84375(15)
H4 H 0.233(3) 0.158(2) 0.7804(19)
H5 H 0.311(3) 0.275(2) 0.9283(18)
C4 C -0.30490(15) 0.37903(14) 0.51175(11)
H6 H -0.2789(19) 0.3045(17) 0.4469(13)
H7 H -0.414(2) 0.3867(17) 0.4800(13)
C5 C -0.35052(15) 0.30515(14) 0.61420(11)
H8 H -0.4078(19) 0.3618(17) 0.6727(13)
H9 H -0.437(2) 0.2005(17) 0.5827(13)
C6 C -0.16054(16) 0.38200(14) 0.80795(11)
H10 H -0.052(2) 0.3753(18) 0.8419(14)
H11 H -0.261(2) 0.3310(17) 0.8455(13)
C7 C -0.13864(16) 0.55293(14) 0.84173(11)
H12 H -0.250(2) 0.5639(17) 0.8160(13)
H13 H -0.118(2) 0.5931(18) 0.9290(14)
C8 C -0.04861(17) 0.74836(14) 0.73470(11)
H14 H 0.055(2) 0.8132(18) 0.7076(13)
H15 H -0.090(2) 0.8206(18) 0.7939(14)
C9 C -0.19473(16) 0.65154(14) 0.62689(11)
H16 H -0.3108(19) 0.6118(16) 0.6577(12)
H17 H -0.2104(19) 0.7239(17) 0.5860(13)
C10 C -0.18228(16) 0.14499(14) 0.65102(11)
H18 H -0.071(2) 0.1613(17) 0.6980(13)
C11 C -0.33764(18) 0.03123(16) 0.69115(13)
H19 H -0.360(2) 0.076(2) 0.7734(17)
H20 H -0.313(2) -0.059(2) 0.6907(16)
H21 H -0.447(2) -0.005(2) 0.6371(15)
C12 C -0.17102(18) 0.07775(15) 0.51744(12)
H22 H -0.274(2) 0.0662(18) 0.4670(14)
H23 H -0.163(2) -0.0226(19) 0.5023(14)
H24 H -0.066(2) 0.1435(19) 0.4918(14)
C13 C 0.16709(17) 0.74198(15) 0.88602(11)
H25 H 0.182(2) 0.6655(18) 0.9231(14)
C14 C 0.1400(2) 0.87346(17) 0.98383(12)
H26 H 0.139(2) 0.958(2) 0.9533(16)
H27 H 0.237(2) 0.920(2) 1.0469(17)
H28 H 0.032(2) 0.837(2) 1.0209(16)
C15 C 0.33759(18) 0.80786(18) 0.83275(13)
H29 H 0.358(2) 0.729(2) 0.7720(16)
H30 H 0.437(2) 0.854(2) 0.8989(16)
H31 H 0.338(2) 0.893(2) 0.7996(16)
Mg1A Mg -0.04834(5) 0.53217(5) 0.37749(3)
N1A N 0.15174(13) 0.47352(11) 0.45429(9)
N2A N 0.18746(13) 0.69587(11) 0.32431(9)
N3A N -0.01028(13) 0.35136(12) 0.21012(9)
C1A C -0.26442(16) 0.59677(15) 0.30693(11)
H1A H -0.252(2) 0.685(2) 0.3656(15)
H2A H -0.356(3) 0.517(2) 0.3216(17)
C2A C -0.30646(17) 0.60700(17) 0.18930(12)
H3A H -0.359(2) 0.505(2) 0.1205(15)
C3A C -0.2813(2) 0.7349(2) 0.15625(15)
H4A H -0.233(3) 0.842(2) 0.2196(19)
H5A H -0.311(3) 0.725(2) 0.0717(18)
C4A C 0.30490(15) 0.62097(14) 0.48825(11)
H6A H 0.2789(19) 0.6955(17) 0.5531(13)
H7A H 0.414(2) 0.6133(17) 0.5200(13)
C5A C 0.35052(15) 0.69485(14) 0.38580(11)
H8A H 0.4078(19) 0.6382(17) 0.3273(13)
H9A H 0.437(2) 0.7995(17) 0.4173(13)
C6A C 0.16054(16) 0.61800(14) 0.19205(11)
H10A H 0.052(2) 0.6247(18) 0.1581(14)
H11A H 0.261(2) 0.6690(17) 0.1545(13)
C7A C 0.13864(16) 0.44707(14) 0.15827(11)
H12A H 0.250(2) 0.4361(17) 0.1840(13)
H13A H 0.118(2) 0.4069(18) 0.0710(14)
C8A C 0.04861(17) 0.25164(14) 0.26530(11)
H14A H -0.055(2) 0.1868(18) 0.2924(13)
H15A H 0.090(2) 0.1794(18) 0.2061(14)
C9A C 0.19473(16) 0.34846(14) 0.37311(11)
H16A H 0.3108(19) 0.3882(16) 0.3423(12)
H17A H 0.2104(19) 0.2761(17) 0.4140(13)
C10A C 0.18228(16) 0.85501(14) 0.34898(11)
H18A H 0.071(2) 0.8387(17) 0.3020(13)
C11A C 0.33764(18) 0.96877(16) 0.30885(13)
H19A H 0.360(2) 0.924(2) 0.2266(17)
H20A H 0.313(2) 1.059(2) 0.3093(16)
H21A H 0.447(2) 1.005(2) 0.3629(15)
C12A C 0.17102(18) 0.92225(15) 0.48256(12)
H22A H 0.274(2) 0.9338(18) 0.5330(14)
H23A H 0.163(2) 1.0226(19) 0.4977(14)
H24A H 0.066(2) 0.8565(19) 0.5082(14)
C13A C -0.16709(17) 0.25802(15) 0.11398(11)
H25A H -0.182(2) 0.3345(18) 0.0769(14)
C14A C -0.1400(2) 0.12654(17) 0.01617(12)
H26A H -0.139(2) 0.042(2) 0.0467(16)
H27A H -0.237(2) 0.080(2) -0.0469(17)
H28A H -0.032(2) 0.163(2) -0.0209(16)
C15A C -0.33759(18) 0.19214(18) 0.16725(13)
H29A H -0.358(2) 0.271(2) 0.2280(16)
H30A H -0.437(2) 0.146(2) 0.1011(16)
H31A H -0.338(2) 0.107(2) 0.2004(16)
loop_
_geom_bond_atom_site_label_1
_geom_bond_atom_site_label_2
_geom_bond_site_symmetry_1
_geom_bond_site_symmetry_2
Mg1 N1 1_555 1_555
N1 C4 1_555 1_555
N2 Mg1 1_555 1_555
N3 Mg1 1_555 1_555
C1 Mg1 1_555 1_555
H1 C1 1_555 1_555
H2 C1 1_555 1_555
C2 C1 1_555 1_555
H3 C2 1_555 1_555
C3 C2 1_555 1_555
H4 C3 1_555 1_555
H5 C3 1_555 1_555
C4 H6 1_555 1_555
H7 C4 1_555 1_555
C5 N2 1_555 1_555
H8 C5 1_555 1_555
H9 C5 1_555 1_555
C6 N2 1_555 1_555
H10 C6 1_555 1_555
H11 C6 1_555 1_555
C7 N3 1_555 1_555
H12 C7 1_555 1_555
H13 C7 1_555 1_555
C8 N3 1_555 1_555
H14 C8 1_555 1_555
H15 C8 1_555 1_555
C9 N1 1_555 1_555
H16 C9 1_555 1_555
H17 C9 1_555 1_555
C10 N2 1_555 1_555
H18 C10 1_555 1_555
C11 C10 1_555 1_555
H19 C11 1_555 1_555
H20 C11 1_555 1_555
H21 C11 1_555 1_555
C12 C10 1_555 1_555
H22 C12 1_555 1_555
H23 C12 1_555 1_555
H24 C12 1_555 1_555
C13 N3 1_555 1_555
H25 C13 1_555 1_555
C14 C13 1_555 1_555
H26 C14 1_555 1_555
H27 C14 1_555 1_555
H28 C14 1_555 1_555
C15 C13 1_555 1_555
H29 C15 1_555 1_555
H30 C15 1_555 1_555
H31 C15 1_555 1_555
Mg1A N1 1_555 1_555
N1A Mg1 1_555 1_555
N2A Mg1A 1_555 1_555
N3A Mg1A 1_555 1_555
C1A Mg1A 1_555 1_555
H1A C1A 1_555 1_555
H2A C1A 1_555 1_555
C2A C1A 1_555 1_555
H3A C2A 1_555 1_555
C3A C2A 1_555 1_555
H4A C3A 1_555 1_555
H5A C3A 1_555 1_555
C4A N1A 1_555 1_555
H6A C4A 1_555 1_555
H7A C4A 1_555 1_555
C5A N2A 1_555 1_555
H8A C5A 1_555 1_555
H9A C5A 1_555 1_555
C6A N2A 1_555 1_555
H10A C6A 1_555 1_555
H11A C6A 1_555 1_555
C7A N3A 1_555 1_555
H12A C7A 1_555 1_555
H13A C7A 1_555 1_555
C8A N3A 1_555 1_555
H14A C8A 1_555 1_555
H15A C8A 1_555 1_555
C9A N1A 1_555 1_555
H16A C9A 1_555 1_555
H17A C9A 1_555 1_555
C10A N2A 1_555 1_555
H18A C10A 1_555 1_555
C11A C10A 1_555 1_555
H19A C11A 1_555 1_555
H20A C11A 1_555 1_555
H21A C11A 1_555 1_555
C12A C10A 1_555 1_555
H22A C12A 1_555 1_555
H23A C12A 1_555 1_555
H24A C12A 1_555 1_555
C13A N3A 1_555 1_555
H25A C13A 1_555 1_555
C14A C13A 1_555 1_555
H26A C14A 1_555 1_555
H27A C14A 1_555 1_555
H28A C14A 1_555 1_555
C15A C13A 1_555 1_555
H29A C15A 1_555 1_555
H30A C15A 1_555 1_555
H31A C15A 1_555 1_555
C4 C5 1_555 1_555
C6 C7 1_555 1_555
C8 C9 1_555 1_555
Mg1A N1A 1_555 1_555
C4A C5A 1_555 1_555
C6A C7A 1_555 1_555
C8A C9A 1_555 1_555

#END
