
#######################################################################
#
#                 Cambridge Crystallographic Data Centre
#                                CCDC 
#
#######################################################################
#
# If this CIF has been generated from an entry in the Cambridge 
# Structural Database, then it will include bibliographic, chemical, 
# crystal, experimental, refinement or atomic coordinate data resulting 
# from the CCDC's data processing and validation procedures.
#
#######################################################################

data_BARCOM01
_chemical_formula_moiety         'C42 H28 Cl2 N4'
_chemical_name_systematic        
2,2'-bis(o-Chlorophenyl)-4,4',5,5'-tetraphenylbi-imidazolyl
_symmetry_cell_setting           orthorhombic
_symmetry_space_group_name_H-M   'P b c a'
_symmetry_Int_Tables_number      61
_space_group_name_Hall           '-P 2ac 2ab'
loop_
_symmetry_equiv_pos_site_id
_symmetry_equiv_pos_as_xyz
1 x,y,z
2 1/2+x,y,1/2-z
3 x,1/2-y,1/2+z
4 1/2-x,1/2+y,z
5 -x,-y,-z
6 1/2-x,-y,1/2+z
7 -x,1/2+y,1/2-z
8 1/2+x,1/2-y,-z
_cell_length_a                   16.7314(2)
_cell_length_b                   17.3877(3)
_cell_length_c                   46.0307(6)
_cell_angle_alpha                90
_cell_angle_beta                 90
_cell_angle_gamma                90
_cell_volume                     13391.3
_exptl_crystal_colour            'pale yellow'
_exptl_crystal_description       plate
_cell_formula_units_Z            16
loop_
_atom_site_label
_atom_site_type_symbol
_atom_site_fract_x
_atom_site_fract_y
_atom_site_fract_z
Cl1 Cl 0.679971(18) 0.340480(19) 0.184751(8)
Cl2 Cl 0.34264(2) 0.427789(19) 0.204725(8)
N1 N 0.57850(6) 0.47678(6) 0.23663(2)
N2 N 0.51099(6) 0.36755(6) 0.22964(2)
N3 N 0.52397(6) 0.23296(6) 0.22280(2)
N4 N 0.46897(6) 0.30781(6) 0.18423(2)
C1 C 0.54900(7) 0.42961(7) 0.21691(3)
C2 C 0.56043(7) 0.44484(7) 0.26356(3)
C3 C 0.51861(7) 0.37712(7) 0.25977(3)
C4 C 0.47276(7) 0.29947(7) 0.21602(3)
C5 C 0.54539(7) 0.20402(7) 0.19818(3)
C6 C 0.50798(7) 0.25012(7) 0.17363(3)
C7 C 0.56034(7) 0.44600(7) 0.18532(3)
C8 C 0.62169(7) 0.41250(7) 0.16907(3)
C9 C 0.63906(9) 0.43542(9) 0.14075(3)
H1 H 0.6808 0.4112 0.1302
C10 C 0.59459(9) 0.49422(9) 0.12816(3)
H2 H 0.6062 0.5108 0.1090
C11 C 0.53308(9) 0.52867(8) 0.14381(3)
H3 H 0.5026 0.5688 0.1352
C12 C 0.51601(8) 0.50466(8) 0.17202(3)
H4 H 0.4736 0.5284 0.1824
C13 C 0.59111(8) 0.48063(7) 0.29055(3)
C14 C 0.64656(9) 0.54035(8) 0.28820(3)
H5 H 0.6624 0.5578 0.2695
C15 C 0.67909(10) 0.57488(9) 0.31298(4)
H6 H 0.7159 0.6162 0.3110
C16 C 0.65781(10) 0.54905(9) 0.34049(4)
H7 H 0.6806 0.5718 0.3573
C17 C 0.60306(10) 0.48975(10) 0.34309(3)
H8 H 0.5885 0.4717 0.3618
C18 C 0.56893(10) 0.45618(9) 0.31844(3)
H9 H 0.5304 0.4165 0.3206
C19 C 0.48843(7) 0.32104(7) 0.28156(3)
C20 C 0.41465(8) 0.33254(8) 0.29523(3)
H10 H 0.3836 0.3767 0.2907
C21 C 0.38670(8) 0.27940(9) 0.31541(3)
H11 H 0.3366 0.2875 0.3246
C22 C 0.43149(8) 0.21453(8) 0.32221(3)
H12 H 0.4112 0.1774 0.3354
C23 C 0.50645(9) 0.20440(8) 0.30949(3)
H13 H 0.5383 0.1612 0.3146
C24 C 0.53466(8) 0.25749(8) 0.28929(3)
H14 H 0.5858 0.2504 0.2807
C25 C 0.38724(7) 0.28703(7) 0.22740(3)
C26 C 0.32654(7) 0.34180(8) 0.22355(3)
C27 C 0.24987(8) 0.33034(9) 0.23483(3)
H15 H 0.2098 0.3685 0.2324
C28 C 0.23269(8) 0.26245(9) 0.24963(3)
H16 H 0.1807 0.2542 0.2573
C29 C 0.29142(8) 0.20683(9) 0.25320(3)
H17 H 0.2794 0.1603 0.2631
C30 C 0.36816(8) 0.21934(8) 0.24224(3)
H18 H 0.4081 0.1812 0.2449
C31 C 0.60369(7) 0.13979(7) 0.19747(3)
C32 C 0.60364(8) 0.08681(7) 0.22041(3)
H19 H 0.5622 0.0882 0.2345
C33 C 0.66414(9) 0.03229(8) 0.22262(3)
H20 H 0.6638 -0.0036 0.2382
C34 C 0.72538(9) 0.03009(8) 0.20202(3)
H21 H 0.7672 -0.0066 0.2038
C35 C 0.72512(8) 0.08159(8) 0.17887(3)
H22 H 0.7663 0.0794 0.1647
C36 C 0.66441(7) 0.13646(8) 0.17643(3)
H23 H 0.6642 0.1714 0.1606
C37 C 0.51204(7) 0.23697(7) 0.14197(3)
C38 C 0.52031(7) 0.16300(8) 0.13006(3)
H24 H 0.5248 0.1195 0.1424
C39 C 0.52191(8) 0.15383(9) 0.09987(3)
H25 H 0.5263 0.1038 0.0918
C40 C 0.51715(8) 0.21761(9) 0.08158(3)
H26 H 0.5203 0.2112 0.0611
C41 C 0.50769(8) 0.29083(9) 0.09340(3)
H27 H 0.5038 0.3342 0.0809
C42 C 0.50387(8) 0.30071(8) 0.12340(3)
H28 H 0.4957 0.3506 0.1313
Cl3 Cl 0.689141(19) 0.24440(2) 0.468050(8)
Cl4 Cl 0.34934(2) 0.15145(2) 0.477617(8)
N5 N 0.49108(6) 0.29310(7) 0.50823(2)
N6 N 0.48641(6) 0.26133(6) 0.46123(2)
N7 N 0.51401(6) 0.13496(7) 0.43995(2)
N8 N 0.53468(6) 0.25101(7) 0.41286(2)
C43 C 0.51398(7) 0.24233(8) 0.48869(3)
C44 C 0.44723(7) 0.34860(8) 0.49338(3)
C45 C 0.44374(7) 0.33054(8) 0.46424(3)
C46 C 0.48295(7) 0.21338(8) 0.43469(3)
C47 C 0.57408(7) 0.12679(7) 0.42242(3)
C48 C 0.58912(7) 0.20160(8) 0.40634(3)
C49 C 0.56515(8) 0.17561(8) 0.49670(3)
C50 C 0.64626(8) 0.17149(8) 0.48908(3)
C51 C 0.69477(8) 0.11087(9) 0.49806(3)
H29 H 0.7493 0.1088 0.4923
C52 C 0.66257(9) 0.05341(9) 0.51550(3)
H30 H 0.6953 0.0119 0.5217
C53 C 0.58264(9) 0.05636(9) 0.52390(3)
H31 H 0.5608 0.0171 0.5359
C54 C 0.53483(8) 0.11743(9) 0.51458(3)
H32 H 0.4805 0.1195 0.5205
C55 C 0.41391(7) 0.41557(8) 0.50901(3)
C56 C 0.39263(8) 0.40766(9) 0.53838(3)
H33 H 0.3983 0.3592 0.5477
C57 C 0.36315(9) 0.47054(10) 0.55399(3)
H34 H 0.3489 0.4646 0.5738
C58 C 0.35462(9) 0.54176(9) 0.54059(4)
H35 H 0.3352 0.5845 0.5513
C59 C 0.37470(9) 0.55012(9) 0.51134(4)
H36 H 0.3683 0.5985 0.5021
C60 C 0.40420(8) 0.48761(8) 0.49566(3)
H37 H 0.4179 0.4938 0.4758
C61 C 0.40493(8) 0.37269(8) 0.43997(3)
C62 C 0.32179(8) 0.38200(9) 0.44009(3)
H38 H 0.2907 0.3579 0.4548
C63 C 0.28411(9) 0.42626(10) 0.41892(3)
H39 H 0.2278 0.4332 0.4195
C64 C 0.32897(10) 0.46039(10) 0.39691(4)
H40 H 0.3033 0.4904 0.3824
C65 C 0.41154(9) 0.45026(9) 0.39624(3)
H41 H 0.4420 0.4726 0.3810
C66 C 0.44991(8) 0.40751(8) 0.41786(3)
H42 H 0.5064 0.4020 0.4176
C67 C 0.39630(7) 0.20523(8) 0.42379(3)
C68 C 0.33439(8) 0.17677(9) 0.44142(3)
C69 C 0.25653(9) 0.16966(11) 0.43092(3)
H43 H 0.2156 0.1500 0.4431
C70 C 0.23897(9) 0.19138(13) 0.40267(4)
H44 H 0.1859 0.1869 0.3955
C71 C 0.29938(9) 0.21975(12) 0.38488(3)
H45 H 0.2876 0.2344 0.3655
C72 C 0.37725(8) 0.22675(10) 0.39548(3)
H46 H 0.4179 0.2465 0.3832
C73 C 0.61607(7) 0.05248(8) 0.41903(3)
C74 C 0.61684(8) 0.00005(8) 0.44220(3)
H47 H 0.5922 0.0132 0.4601
C75 C 0.65365(9) -0.07130(9) 0.43895(3)
H48 H 0.6553 -0.1061 0.4548
C76 C 0.68824(9) -0.09187(8) 0.41238(4)
H49 H 0.7125 -0.1409 0.4102
C77 C 0.68710(9) -0.04063(9) 0.38930(3)
H50 H 0.7104 -0.0548 0.3713
C78 C 0.65181(8) 0.03158(8) 0.39247(3)
H51 H 0.6519 0.0668 0.3767
C79 C 0.65705(7) 0.22228(8) 0.38711(3)
C80 C 0.73520(7) 0.19798(8) 0.39376(3)
H52 H 0.7443 0.1646 0.4098
C81 C 0.79922(8) 0.22296(8) 0.37679(3)
H53 H 0.8520 0.2072 0.3815
C82 C 0.78602(8) 0.27099(8) 0.35298(3)
H54 H 0.8297 0.2871 0.3413
C83 C 0.70862(9) 0.29531(9) 0.34637(3)
H55 H 0.6996 0.3280 0.3302
C84 C 0.64441(8) 0.27160(9) 0.36358(3)
H56 H 0.5919 0.2891 0.3593
loop_
_geom_bond_atom_site_label_1
_geom_bond_atom_site_label_2
_geom_bond_site_symmetry_1
_geom_bond_site_symmetry_2
Cl1 C8 1_555 1_555
Cl2 C26 1_555 1_555
N1 C1 1_555 1_555
N2 C1 1_555 1_555
N3 C4 1_555 1_555
N4 C4 1_555 1_555
C1 C7 1_555 1_555
C2 N1 1_555 1_555
C3 N2 1_555 1_555
C4 N2 1_555 1_555
C5 N3 1_555 1_555
C6 N4 1_555 1_555
C7 C8 1_555 1_555
C8 C9 1_555 1_555
C9 H1 1_555 1_555
C10 C9 1_555 1_555
H2 C10 1_555 1_555
C11 C10 1_555 1_555
H3 C11 1_555 1_555
C12 C7 1_555 1_555
H4 C12 1_555 1_555
C13 C2 1_555 1_555
C14 C13 1_555 1_555
H5 C14 1_555 1_555
C15 C14 1_555 1_555
H6 C15 1_555 1_555
C16 C15 1_555 1_555
H7 C16 1_555 1_555
C17 C16 1_555 1_555
H8 C17 1_555 1_555
C18 C13 1_555 1_555
H9 C18 1_555 1_555
C19 C3 1_555 1_555
C20 C19 1_555 1_555
H10 C20 1_555 1_555
C21 C20 1_555 1_555
H11 C21 1_555 1_555
C22 C21 1_555 1_555
H12 C22 1_555 1_555
C23 C22 1_555 1_555
H13 C23 1_555 1_555
C24 C19 1_555 1_555
H14 C24 1_555 1_555
C25 C4 1_555 1_555
C26 C25 1_555 1_555
C27 C26 1_555 1_555
H15 C27 1_555 1_555
C28 C27 1_555 1_555
H16 C28 1_555 1_555
C29 C28 1_555 1_555
H17 C29 1_555 1_555
C30 C25 1_555 1_555
H18 C30 1_555 1_555
C31 C5 1_555 1_555
C32 C31 1_555 1_555
H19 C32 1_555 1_555
C33 C32 1_555 1_555
H20 C33 1_555 1_555
C34 C33 1_555 1_555
H21 C34 1_555 1_555
C35 C34 1_555 1_555
H22 C35 1_555 1_555
C36 C31 1_555 1_555
H23 C36 1_555 1_555
C37 C6 1_555 1_555
C38 C37 1_555 1_555
H24 C38 1_555 1_555
C39 C38 1_555 1_555
H25 C39 1_555 1_555
C40 C39 1_555 1_555
H26 C40 1_555 1_555
C41 C40 1_555 1_555
H27 C41 1_555 1_555
C42 C37 1_555 1_555
H28 C42 1_555 1_555
Cl3 C50 1_555 1_555
Cl4 C68 1_555 1_555
N5 C43 1_555 1_555
N6 C43 1_555 1_555
N7 C46 1_555 1_555
N8 C46 1_555 1_555
C43 C49 1_555 1_555
C44 N5 1_555 1_555
C45 N6 1_555 1_555
C46 N6 1_555 1_555
C47 N7 1_555 1_555
C48 N8 1_555 1_555
C49 C50 1_555 1_555
C50 C51 1_555 1_555
C51 H29 1_555 1_555
C52 C51 1_555 1_555
H30 C52 1_555 1_555
C53 C52 1_555 1_555
H31 C53 1_555 1_555
C54 C49 1_555 1_555
H32 C54 1_555 1_555
C55 C44 1_555 1_555
C56 C55 1_555 1_555
H33 C56 1_555 1_555
C57 C56 1_555 1_555
H34 C57 1_555 1_555
C58 C57 1_555 1_555
H35 C58 1_555 1_555
C59 C58 1_555 1_555
H36 C59 1_555 1_555
C60 C55 1_555 1_555
H37 C60 1_555 1_555
C61 C45 1_555 1_555
C62 C61 1_555 1_555
H38 C62 1_555 1_555
C63 C62 1_555 1_555
H39 C63 1_555 1_555
C64 C63 1_555 1_555
H40 C64 1_555 1_555
C65 C64 1_555 1_555
H41 C65 1_555 1_555
C66 C61 1_555 1_555
H42 C66 1_555 1_555
C67 C46 1_555 1_555
C68 C67 1_555 1_555
C69 C68 1_555 1_555
H43 C69 1_555 1_555
C70 C69 1_555 1_555
H44 C70 1_555 1_555
C71 C70 1_555 1_555
H45 C71 1_555 1_555
C72 C67 1_555 1_555
H46 C72 1_555 1_555
C73 C47 1_555 1_555
C74 C73 1_555 1_555
H47 C74 1_555 1_555
C75 C74 1_555 1_555
H48 C75 1_555 1_555
C76 C75 1_555 1_555
H49 C76 1_555 1_555
C77 C76 1_555 1_555
H50 C77 1_555 1_555
C78 C73 1_555 1_555
H51 C78 1_555 1_555
C79 C48 1_555 1_555
C80 C79 1_555 1_555
H52 C80 1_555 1_555
C81 C80 1_555 1_555
H53 C81 1_555 1_555
C82 C81 1_555 1_555
H54 C82 1_555 1_555
C83 C82 1_555 1_555
H55 C83 1_555 1_555
C84 C79 1_555 1_555
H56 C84 1_555 1_555
C2 C3 1_555 1_555
C5 C6 1_555 1_555
C11 C12 1_555 1_555
C17 C18 1_555 1_555
C23 C24 1_555 1_555
C29 C30 1_555 1_555
C35 C36 1_555 1_555
C41 C42 1_555 1_555
C44 C45 1_555 1_555
C47 C48 1_555 1_555
C53 C54 1_555 1_555
C59 C60 1_555 1_555
C65 C66 1_555 1_555
C71 C72 1_555 1_555
C77 C78 1_555 1_555
C83 C84 1_555 1_555

#END
