
#######################################################################
#
#                 Cambridge Crystallographic Data Centre
#                                CCDC 
#
#######################################################################
#
# If this CIF has been generated from an entry in the Cambridge 
# Structural Database, then it will include bibliographic, chemical, 
# crystal, experimental, refinement or atomic coordinate data resulting 
# from the CCDC's data processing and validation procedures.
#
#######################################################################

data_BARGAD
_chemical_formula_moiety         'C10 H24 N4 2+,2(C1 F3 Te1 1-)'
_chemical_name_systematic        
'tetrakis(Dimethylamino)ethylenedi-ium bis(trifluoromethyltellurate(0))'
_symmetry_cell_setting           orthorhombic
_symmetry_space_group_name_H-M   'P b c a'
_symmetry_Int_Tables_number      61
_space_group_name_Hall           '-P 2ac 2ab'
loop_
_symmetry_equiv_pos_site_id
_symmetry_equiv_pos_as_xyz
1 x,y,z
2 1/2-x,-y,1/2+z
3 1/2+x,1/2-y,-z
4 -x,1/2+y,1/2-z
5 -x,-y,-z
6 1/2+x,y,1/2-z
7 1/2-x,1/2+y,z
8 x,1/2-y,1/2+z
_cell_length_a                   15.012(2)
_cell_length_b                   12.0820(10)
_cell_length_c                   23.164(3)
_cell_angle_alpha                90
_cell_angle_beta                 90
_cell_angle_gamma                90
_cell_volume                     4201.37
_exptl_crystal_colour            red-orange
_exptl_crystal_description       polyhedron
_chemical_melting_point          'decomposes above 0 deg.C'
_cell_formula_units_Z            8
_chemical_properties_physical    air-sensitive
loop_
_atom_site_label
_atom_site_type_symbol
_atom_site_fract_x
_atom_site_fract_y
_atom_site_fract_z
Te1 Te -0.6084 0.6856 0.2142
C1 C -0.5587(3) 0.7102(4) 0.13002(18)
F1 F -0.6016(2) 0.7850(3) 0.09588(13)
F2 F -0.5608(4) 0.6182(3) 0.09801(14)
F3 F -0.4740(2) 0.7488(5) 0.12840(14)
Te2 Te -0.19678(2) 0.64826(3) 0.032067(13)
C2 C -0.2413(4) 0.5794(6) 0.1114(3)
F4 F -0.2037(4) 0.4814(5) 0.1244(2)
F5 F -0.2187(4) 0.6375(6) 0.15806(17)
F6 F -0.3281(3) 0.5631(5) 0.1164(2)
C3 C 0.1052(2) 0.7153(3) 0.16094(15)
N1 N 0.0839(2) 0.6187(3) 0.18420(13)
C4 C 0.0162(3) 0.5463(4) 0.15747(19)
H1 H 0.0095 0.4804 0.1802
H2 H 0.0348 0.5268 0.1191
H3 H -0.0397 0.5847 0.1557
C5 C 0.1258(3) 0.5735(4) 0.23654(18)
H4 H 0.0999 0.5029 0.2454
H5 H 0.1164 0.6234 0.2682
H6 H 0.1886 0.5648 0.2301
N2 N 0.1465(2) 0.7982(3) 0.18722(13)
C6 C 0.1933(3) 0.8843(4) 0.15364(19)
H7 H 0.2191 0.9374 0.1796
H8 H 0.1518 0.9208 0.1285
H9 H 0.2395 0.8507 0.1310
C7 C 0.1476(3) 0.8167(4) 0.25017(17)
H10 H 0.1816 0.8819 0.2587
H11 H 0.1741 0.7540 0.2690
H12 H 0.0877 0.8261 0.2638
C8 C 0.0792(2) 0.7344(3) 0.09892(16)
N3 N 0.0171(2) 0.8101(3) 0.08943(14)
C9 C 0.0062(4) 0.8699(4) 0.03442(19)
H13 H -0.0429 0.9204 0.0375
H14 H -0.0053 0.8179 0.0040
H15 H 0.0597 0.9104 0.0260
C10 C -0.0446(3) 0.8471(4) 0.13555(19)
H16 H -0.0845 0.9018 0.1203
H17 H -0.0109 0.8784 0.1668
H18 H -0.0782 0.7849 0.1494
N4 N 0.1208(2) 0.6746(3) 0.05864(14)
C11 C 0.0853(3) 0.6546(4) 0.00006(17)
H19 H 0.1264 0.6095 -0.0213
H20 H 0.0774 0.7240 -0.0194
H21 H 0.0290 0.6172 0.0028
C12 C 0.2050(3) 0.6172(4) 0.07099(18)
H22 H 0.2247 0.5788 0.0370
H23 H 0.1960 0.5651 0.1017
H24 H 0.2493 0.6703 0.0823
loop_
_geom_bond_atom_site_label_1
_geom_bond_atom_site_label_2
_geom_bond_site_symmetry_1
_geom_bond_site_symmetry_2
Te1 C1 1_555 1_555
C1 F1 1_555 1_555
F2 C1 1_555 1_555
F3 C1 1_555 1_555
Te2 C2 1_555 1_555
C2 F4 1_555 1_555
F5 C2 1_555 1_555
F6 C2 1_555 1_555
C3 N1 1_555 1_555
N1 C4 1_555 1_555
C4 H1 1_555 1_555
H2 C4 1_555 1_555
H3 C4 1_555 1_555
C5 N1 1_555 1_555
H4 C5 1_555 1_555
H5 C5 1_555 1_555
H6 C5 1_555 1_555
N2 C3 1_555 1_555
C6 N2 1_555 1_555
H7 C6 1_555 1_555
H8 C6 1_555 1_555
H9 C6 1_555 1_555
C7 N2 1_555 1_555
H10 C7 1_555 1_555
H11 C7 1_555 1_555
H12 C7 1_555 1_555
C8 C3 1_555 1_555
N3 C8 1_555 1_555
C9 N3 1_555 1_555
H13 C9 1_555 1_555
H14 C9 1_555 1_555
H15 C9 1_555 1_555
C10 N3 1_555 1_555
H16 C10 1_555 1_555
H17 C10 1_555 1_555
H18 C10 1_555 1_555
N4 C8 1_555 1_555
C11 N4 1_555 1_555
H19 C11 1_555 1_555
H20 C11 1_555 1_555
H21 C11 1_555 1_555
C12 N4 1_555 1_555
H22 C12 1_555 1_555
H23 C12 1_555 1_555
H24 C12 1_555 1_555

#END
