
#######################################################################
#
#                 Cambridge Crystallographic Data Centre
#                                CCDC 
#
#######################################################################
#
# If this CIF has been generated from an entry in the Cambridge 
# Structural Database, then it will include bibliographic, chemical, 
# crystal, experimental, refinement or atomic coordinate data resulting 
# from the CCDC's data processing and validation procedures.
#
#######################################################################

data_BARLUE
_chemical_formula_moiety         'C15 H8 Br1 F3 O3'
_chemical_name_systematic        
7-bromo-2-phenyl-2-(trifluoromethyl)-4H-1,3-benzodioxin-4-one
_symmetry_cell_setting           hexagonal
_symmetry_space_group_name_H-M   'P 61'
_symmetry_Int_Tables_number      169
_space_group_name_Hall           'P 61'
loop_
_symmetry_equiv_pos_site_id
_symmetry_equiv_pos_as_xyz
1 x,y,z
2 -y,x-y,1/3+z
3 -x+y,-x,2/3+z
4 -x,-y,1/2+z
5 y,-x+y,5/6+z
6 x-y,x,1/6+z
_cell_length_a                   10.46030(9)
_cell_length_b                   10.46030(9)
_cell_length_c                   44.0498(4)
_cell_angle_alpha                90
_cell_angle_beta                 90
_cell_angle_gamma                120
_cell_volume                     4174.1
_exptl_crystal_colour            colorless
_exptl_crystal_description       block
_cell_formula_units_Z            12
loop_
_atom_site_label
_atom_site_type_symbol
_atom_site_fract_x
_atom_site_fract_y
_atom_site_fract_z
Br1 Br -0.38871(5) 0.02095(5) 0.41804(2)
C1 C 0.0628(4) 0.2073(4) 0.41583(9)
C2 C -0.0775(5) 0.1894(5) 0.41397(10)
H1 H -0.0919 0.2702 0.4096
C3 C -0.1966(5) 0.0480(5) 0.41884(10)
C4 C -0.1758(5) -0.0720(5) 0.42470(10)
H2 H -0.2581 -0.1681 0.4275
C5 C -0.0335(5) -0.0486(5) 0.42627(10)
H3 H -0.0184 -0.1292 0.4304
C6 C 0.0872(5) 0.0911(5) 0.42189(9)
C7 C 0.2389(5) 0.1166(4) 0.42161(9)
C8 C 0.3098(5) 0.3723(4) 0.42628(9)
C9 C 0.4320(5) 0.5144(5) 0.41220(10)
C10 C 0.2966(5) 0.3873(4) 0.46027(9)
C11 C 0.3858(5) 0.3633(5) 0.48018(11)
H4 H 0.4504 0.3313 0.4727
C12 C 0.3797(6) 0.3862(5) 0.51105(11)
H5 H 0.4404 0.3701 0.5247
C13 C 0.2848(5) 0.4327(5) 0.52203(10)
H6 H 0.2807 0.4481 0.5432
C14 C 0.1959(5) 0.4567(5) 0.50206(11)
H7 H 0.1316 0.489 0.5095
C15 C 0.2017(5) 0.4331(5) 0.47111(11)
H8 H 0.1404 0.4485 0.4574
F1 F 0.4435(3) 0.5026(3) 0.38230(6)
F2 F 0.5622(3) 0.5521(3) 0.42468(7)
F3 F 0.4068(3) 0.6261(3) 0.41693(6)
O1 O 0.2751(4) 0.0250(3) 0.42153(7)
O2 O 0.3484(3) 0.2631(3) 0.41922(7)
O3 O 0.1811(3) 0.3475(3) 0.41057(7)
Br2 Br 0.78258(5) 0.70343(5) 0.49669(2)
C16 C 0.5381(4) 0.9091(4) 0.50415(9)
C17 C 0.5776(4) 0.8017(5) 0.50079(10)
H9 H 0.5053 0.7002 0.499
C18 C 0.7269(5) 0.8484(5) 0.50021(10)
C19 C 0.8361(4) 0.9976(5) 0.50213(10)
H10 H 0.9377 1.0261 0.5017
C20 C 0.7931(4) 1.1018(5) 0.50467(9)
H11 H 0.8659 1.2034 0.5056
C21 C 0.6430(4) 1.0595(5) 0.50592(9)
C22 C 0.5950(4) 1.1680(4) 0.50632(9)
C23 C 0.3613(5) 0.9637(4) 0.52101(10)
C24 C 0.2004(5) 0.9163(5) 0.51285(10)
C25 C 0.3784(4) 0.9535(5) 0.55504(9)
C26 C 0.4185(5) 1.0766(5) 0.57334(10)
H12 H 0.4413 1.1686 0.5646
C27 C 0.4246(5) 1.0623(6) 0.60479(11)
H13 H 0.4512 1.1454 0.6175
C28 C 0.3924(5) 0.9289(7) 0.61768(10)
H14 H 0.3974 0.9207 0.6391
C29 C 0.3528(5) 0.8073(6) 0.59931(12)
H15 H 0.3307 0.7156 0.6081
C30 C 0.3451(5) 0.8189(5) 0.56775(10)
H16 H 0.3174 0.7353 0.5552
F4 F 0.1837(3) 0.9291(3) 0.48332(6)
F5 F 0.1573(3) 0.9994(3) 0.52759(6)
F6 F 0.1114(3) 0.7759(3) 0.52066(7)
O4 O 0.6696(4) 1.2984(3) 0.50244(7)
O5 O 0.4445(3) 1.1103(3) 0.51012(7)
O6 O 0.3897(3) 0.8649(3) 0.50443(6)
loop_
_geom_bond_atom_site_label_1
_geom_bond_atom_site_label_2
_geom_bond_site_symmetry_1
_geom_bond_site_symmetry_2
Br1 C3 1_555 1_555
C1 C2 1_555 1_555
C2 H1 1_555 1_555
C3 C2 1_555 1_555
C4 C3 1_555 1_555
H2 C4 1_555 1_555
C5 C4 1_555 1_555
H3 C5 1_555 1_555
C6 C1 1_555 1_555
C7 C6 1_555 1_555
C8 C9 1_555 1_555
C9 F1 1_555 1_555
C10 C8 1_555 1_555
C11 C10 1_555 1_555
H4 C11 1_555 1_555
C12 C11 1_555 1_555
H5 C12 1_555 1_555
C13 C12 1_555 1_555
H6 C13 1_555 1_555
C14 C13 1_555 1_555
H7 C14 1_555 1_555
C15 C10 1_555 1_555
H8 C15 1_555 1_555
F2 C9 1_555 1_555
F3 C9 1_555 1_555
O1 C7 1_555 1_555
O2 C7 1_555 1_555
O3 C1 1_555 1_555
Br2 C18 1_555 1_555
C16 C17 1_555 1_555
C17 H9 1_555 1_555
C18 C17 1_555 1_555
C19 C18 1_555 1_555
H10 C19 1_555 1_555
C20 C19 1_555 1_555
H11 C20 1_555 1_555
C21 C16 1_555 1_555
C22 C21 1_555 1_555
C23 C24 1_555 1_555
C24 F4 1_555 1_555
C25 C23 1_555 1_555
C26 C25 1_555 1_555
H12 C26 1_555 1_555
C27 C26 1_555 1_555
H13 C27 1_555 1_555
C28 C27 1_555 1_555
H14 C28 1_555 1_555
C29 C28 1_555 1_555
H15 C29 1_555 1_555
C30 C25 1_555 1_555
H16 C30 1_555 1_555
F5 C24 1_555 1_555
F6 C24 1_555 1_555
O4 C22 1_555 1_555
O5 C22 1_555 1_555
O6 C16 1_555 1_555
C5 C6 1_555 1_555
C8 O2 1_555 1_555
C8 O3 1_555 1_555
C14 C15 1_555 1_555
C20 C21 1_555 1_555
C23 O5 1_555 1_555
C23 O6 1_555 1_555
C29 C30 1_555 1_555

#END
