
#######################################################################
#
#                 Cambridge Crystallographic Data Centre
#                                CCDC 
#
#######################################################################
#
# If this CIF has been generated from an entry in the Cambridge 
# Structural Database, then it will include bibliographic, chemical, 
# crystal, experimental, refinement or atomic coordinate data resulting 
# from the CCDC's data processing and validation procedures.
#
#######################################################################

data_BARMIM
_chemical_formula_moiety         'C8 H12 N2 O3,C4 H6 N2'
_chemical_name_systematic        'Barbital 1-methylimidazole'
_symmetry_cell_setting           monoclinic
_symmetry_space_group_name_H-M   'P 21/c'
_symmetry_Int_Tables_number      14
_space_group_name_Hall           '-P 2ybc'
loop_
_symmetry_equiv_pos_site_id
_symmetry_equiv_pos_as_xyz
1 x,y,z
2 -x,1/2+y,1/2-z
3 -x,-y,-z
4 x,1/2-y,1/2+z
_cell_length_a                   12.236(3)
_cell_length_b                   11.332(4)
_cell_length_c                   12.495(4)
_cell_angle_alpha                90
_cell_angle_beta                 120.67(1)
_cell_angle_gamma                90
_cell_volume                     1490.19
_cell_formula_units_Z            4
loop_
_atom_site_label
_atom_site_type_symbol
_atom_site_fract_x
_atom_site_fract_y
_atom_site_fract_z
N1 N 0.59360 0.41060 0.64230
C1 C 0.47190 0.40160 0.62110
O1 O 0.38180 0.44520 0.53130
N2 N 0.46020 0.34240 0.71040
C2 C 0.55570 0.29090 0.81530
O2 O 0.53460 0.24390 0.88960
C3 C 0.68810 0.29080 0.83280
C4 C 0.69950 0.36110 0.73670
O3 O 0.80130 0.37270 0.74210
C5 C 0.78430 0.33840 0.96510
C6 C 0.76170 0.46630 0.98020
C7 C 0.71990 0.16350 0.82220
C8 C 0.63120 0.10930 0.69970
H1 H 0.59500 0.45300 0.58700
H2 H 0.38600 0.34000 0.70000
H3 H 0.87000 0.33500 0.98400
H4 H 0.77300 0.30100 1.02000
H5 H 0.78600 0.51900 0.93100
H6 H 0.82700 0.49100 1.05900
H7 H 0.67500 0.48100 0.97700
H8 H 0.71500 0.11800 0.89300
H9 H 0.81900 0.15800 0.83400
H10 H 0.65900 0.03400 0.70100
H11 H 0.60900 0.14500 0.61800
H12 H 0.53500 0.10000 0.65300
N3 N 0.11380 0.25710 0.77730
C9 C 0.08070 0.18660 0.85380
C10 C 0.22040 0.24790 0.77280
N4 N 0.22300 0.32170 0.69570
C11 C 0.11160 0.38250 0.64760
C12 C 0.04430 0.34360 0.69740
H13 H 0.000 0.16500 0.81400
H14 H 0.08400 0.24200 0.91300
H15 H 0.14000 0.12700 0.90300
H16 H 0.28300 0.19200 0.82100
H17 H 0.09200 0.44600 0.58300
H18 H -0.03400 0.36300 0.68400
loop_
_geom_bond_atom_site_label_1
_geom_bond_atom_site_label_2
_geom_bond_site_symmetry_1
_geom_bond_site_symmetry_2
N1 C1 1_555 1_555
C1 O1 1_555 1_555
N2 C1 1_555 1_555
C2 N2 1_555 1_555
O2 C2 1_555 1_555
C3 C2 1_555 1_555
C4 N1 1_555 1_555
O3 C4 1_555 1_555
C5 C3 1_555 1_555
C6 C5 1_555 1_555
C7 C3 1_555 1_555
C8 C7 1_555 1_555
H1 N1 1_555 1_555
H2 N2 1_555 1_555
H3 C5 1_555 1_555
H4 C5 1_555 1_555
H5 C6 1_555 1_555
H6 C6 1_555 1_555
H7 C6 1_555 1_555
H8 C7 1_555 1_555
H9 C7 1_555 1_555
H10 C8 1_555 1_555
H11 C8 1_555 1_555
H12 C8 1_555 1_555
N3 C9 1_555 1_555
C9 H13 1_555 1_555
C10 N3 1_555 1_555
N4 C10 1_555 1_555
C11 N4 1_555 1_555
C12 N3 1_555 1_555
H14 C9 1_555 1_555
H15 C9 1_555 1_555
H16 C10 1_555 1_555
H17 C11 1_555 1_555
H18 C12 1_555 1_555
C3 C4 1_555 1_555
C11 C12 1_555 1_555

#END
