
#######################################################################
#
#                 Cambridge Crystallographic Data Centre
#                                CCDC 
#
#######################################################################
#
# If this CIF has been generated from an entry in the Cambridge 
# Structural Database, then it will include bibliographic, chemical, 
# crystal, experimental, refinement or atomic coordinate data resulting 
# from the CCDC's data processing and validation procedures.
#
#######################################################################

data_BARMIT
_chemical_formula_moiety         'C34 H26 O1'
_chemical_name_systematic        
(S*,M*,R~a~*)-9-(6-methoxy-2-methyl-7-(naphthalen-1-yl)-2,3-dihydro-1H-inden-1-ylidene)-9H-fluorene
_symmetry_cell_setting           monoclinic
_symmetry_space_group_name_H-M   'P 21/c'
_symmetry_Int_Tables_number      14
_space_group_name_Hall           '-P 2ybc'
loop_
_symmetry_equiv_pos_site_id
_symmetry_equiv_pos_as_xyz
1 x,y,z
2 -x,1/2+y,1/2-z
3 -x,-y,-z
4 x,1/2-y,1/2+z
_cell_length_a                   9.0763(9)
_cell_length_b                   9.7425(10)
_cell_length_c                   26.701(3)
_cell_angle_alpha                90
_cell_angle_beta                 96.437(3)
_cell_angle_gamma                90
_cell_volume                     2346.17
_exptl_crystal_colour            yellow
_exptl_crystal_description       block
_chemical_melting_point          'decomposes above 250 deg.C'
_cell_formula_units_Z            4
_exptl_crystal_recrystallization_method ethanol
loop_
_atom_site_label
_atom_site_type_symbol
_atom_site_fract_x
_atom_site_fract_y
_atom_site_fract_z
O1 O 0.14319(11) 0.56624(10) 0.46438(3)
C1 C 0.15485(14) 0.36077(13) 0.39777(5)
C2 C 0.23291(13) 0.46224(13) 0.28767(5)
C3 C 0.18713(14) 0.60841(13) 0.41943(5)
C4 C 0.28495(13) 0.33550(13) 0.27802(5)
C5 C 0.03167(15) 0.30173(14) 0.37169(5)
H1 H -0.0191 0.3489 0.3438
C6 C 0.26477(13) 0.26109(13) 0.22876(5)
C7 C 0.45475(14) 0.26761(14) 0.35970(5)
H2 H 0.4438 0.3525 0.3764
C8 C 0.23681(14) 0.78259(13) 0.35950(5)
H3 H 0.2511 0.8762 0.3513
C9 C 0.19832(13) 0.50239(13) 0.38386(5)
C10 C 0.23186(15) 0.28894(13) 0.43976(5)
C11 C 0.49626(15) 0.01859(14) 0.30963(5)
H4 H 0.5103 -0.0652 0.2926
C12 C 0.21210(15) 0.74546(14) 0.40821(5)
H5 H 0.2123 0.8134 0.4337
C13 C 0.40683(14) 0.12131(13) 0.28659(5)
C14 C 0.17734(14) 0.56328(13) 0.24622(5)
H6 H 0.2175 0.5396 0.2139
C15 C 0.22964(13) 0.54147(13) 0.33537(5)
C16 C 0.24024(14) 0.68205(13) 0.32330(5)
C17 C 0.37961(13) 0.24387(13) 0.31221(5)
C18 C 0.56480(15) 0.04095(15) 0.35812(5)
H7 H 0.6246 -0.0290 0.3748
C19 C 0.35846(16) 0.34371(15) 0.46900(5)
H8 H 0.3930 0.4324 0.4613
C20 C -0.02072(16) 0.17233(15) 0.38566(5)
H9 H -0.1074 0.1345 0.3676
C21 C 0.18463(16) 0.19699(15) 0.14273(5)
H10 H 0.1316 0.2182 0.1110
C22 C 0.33688(14) 0.13243(13) 0.23480(5)
C23 C 0.18079(17) 0.15676(14) 0.45259(5)
C24 C 0.00751(15) 0.56507(15) 0.23912(5)
H11 H -0.0271 0.6389 0.2158
H12 H -0.0296 0.5807 0.2717
H13 H -0.0294 0.4768 0.2253
C25 C 0.24262(15) 0.70070(13) 0.26749(5)
H14 H 0.3449 0.7145 0.2589
H15 H 0.1803 0.7794 0.2547
C26 C 0.18454(14) 0.29070(14) 0.18222(5)
H16 H 0.1304 0.3740 0.1775
C27 C 0.26085(16) 0.07299(16) 0.14891(5)
H17 H 0.2612 0.0116 0.1213
C28 C 0.54633(15) 0.16527(15) 0.38250(5)
H18 H 0.5969 0.1805 0.4151
C29 C 0.33630(15) 0.03905(14) 0.19541(5)
H19 H 0.3865 -0.0463 0.2002
C30 C 0.26005(19) 0.08428(16) 0.49355(6)
H20 H 0.2265 -0.0039 0.5024
C31 C 0.3828(2) 0.13908(18) 0.52012(6)
H21 H 0.4354 0.0883 0.5468
C32 C 0.05247(17) 0.10114(14) 0.42498(6)
H22 H 0.0169 0.0137 0.4338
C33 C 0.11867(18) 0.66837(15) 0.50066(5)
H23 H 0.0457 0.7349 0.4856
H24 H 0.2121 0.7156 0.5115
H25 H 0.0813 0.6249 0.5298
C34 C 0.43192(17) 0.27129(17) 0.50810(5)
H26 H 0.5163 0.3102 0.5272
loop_
_geom_bond_atom_site_label_1
_geom_bond_atom_site_label_2
_geom_bond_site_symmetry_1
_geom_bond_site_symmetry_2
O1 C3 1_555 1_555
C1 C5 1_555 1_555
C2 C4 1_555 1_555
C3 C9 1_555 1_555
C4 C6 1_555 1_555
C5 H1 1_555 1_555
C6 C22 1_555 1_555
C7 H2 1_555 1_555
C8 H3 1_555 1_555
C9 C1 1_555 1_555
C10 C1 1_555 1_555
C11 H4 1_555 1_555
C12 C3 1_555 1_555
H5 C12 1_555 1_555
C13 C11 1_555 1_555
C14 C2 1_555 1_555
H6 C14 1_555 1_555
C15 C2 1_555 1_555
C16 C8 1_555 1_555
C17 C4 1_555 1_555
C18 C11 1_555 1_555
H7 C18 1_555 1_555
C19 C10 1_555 1_555
H8 C19 1_555 1_555
C20 C5 1_555 1_555
H9 C20 1_555 1_555
C21 H10 1_555 1_555
C22 C13 1_555 1_555
C23 C10 1_555 1_555
C24 C14 1_555 1_555
H11 C24 1_555 1_555
H12 C24 1_555 1_555
H13 C24 1_555 1_555
C25 C14 1_555 1_555
H14 C25 1_555 1_555
H15 C25 1_555 1_555
C26 C6 1_555 1_555
H16 C26 1_555 1_555
C27 C21 1_555 1_555
H17 C27 1_555 1_555
C28 C7 1_555 1_555
H18 C28 1_555 1_555
C29 C22 1_555 1_555
H19 C29 1_555 1_555
C30 C23 1_555 1_555
H20 C30 1_555 1_555
C31 C30 1_555 1_555
H21 C31 1_555 1_555
C32 C20 1_555 1_555
H22 C32 1_555 1_555
C33 O1 1_555 1_555
H23 C33 1_555 1_555
H24 C33 1_555 1_555
H25 C33 1_555 1_555
C34 C19 1_555 1_555
H26 C34 1_555 1_555
C7 C17 1_555 1_555
C8 C12 1_555 1_555
C9 C15 1_555 1_555
C13 C17 1_555 1_555
C15 C16 1_555 1_555
C16 C25 1_555 1_555
C18 C28 1_555 1_555
C21 C26 1_555 1_555
C23 C32 1_555 1_555
C27 C29 1_555 1_555
C31 C34 1_555 1_555

#END
