
#######################################################################
#
#                 Cambridge Crystallographic Data Centre
#                                CCDC 
#
#######################################################################
#
# If this CIF has been generated from an entry in the Cambridge 
# Structural Database, then it will include bibliographic, chemical, 
# crystal, experimental, refinement or atomic coordinate data resulting 
# from the CCDC's data processing and validation procedures.
#
#######################################################################

data_BARPRN
_chemical_formula_moiety         'C21 H22 O6'
_chemical_name_systematic        
1-O-Benzoyl-4,6-O-benzylidene-2-deoxy-3-O-methyl-\a-D-arabino-hexapyranose
_symmetry_cell_setting           orthorhombic
_symmetry_space_group_name_H-M   'P 21 21 21'
_symmetry_Int_Tables_number      19
_space_group_name_Hall           'P 2ac 2ab'
loop_
_symmetry_equiv_pos_site_id
_symmetry_equiv_pos_as_xyz
1 x,y,z
2 1/2+x,1/2-y,-z
3 -x,1/2+y,1/2-z
4 1/2-x,-y,1/2+z
_cell_length_a                   21.789(2)
_cell_length_b                   14.772(3)
_cell_length_c                   5.925(2)
_cell_angle_alpha                90
_cell_angle_beta                 90
_cell_angle_gamma                90
_cell_volume                     1907.06
_chemical_melting_point          122deg.C
_cell_formula_units_Z            4
loop_
_atom_site_label
_atom_site_type_symbol
_atom_site_fract_x
_atom_site_fract_y
_atom_site_fract_z
C1 C 0.32200 0.11000 0.83230
C2 C 0.36050 0.16060 0.66260
C3 C 0.38890 0.24800 0.74910
C4 C 0.33960 0.30370 0.85780
O1 O 0.36480 0.38200 0.97200
C5 C 0.30740 0.24740 1.03900
O2 O 0.27930 0.16750 0.94230
C6 C 0.25770 0.30300 1.15090
O3 O 0.28550 0.38200 1.23900
C7 C 0.31590 0.43240 1.07080
O4 O 0.36370 0.07240 0.99710
C8 C 0.34330 -0.00420 1.10580
O5 O 0.29700 -0.04140 1.06820
C9 C 0.38940 -0.03040 1.28090
C10 C 0.36830 -0.08450 1.46260
C11 C 0.40850 -0.10810 1.63420
C12 C 0.46800 -0.08050 1.62730
C13 C 0.48970 -0.02770 1.45180
C14 C 0.44950 -0.00110 1.27960
O6 O 0.41690 0.30040 0.57710
C15 C 0.46580 0.25820 0.46450
C16 C 0.34460 0.51440 1.18450
C17 C 0.34410 0.59850 1.08070
C18 C 0.37380 0.67130 1.18320
C19 C 0.40390 0.66280 1.37770
C20 C 0.40430 0.57950 1.48280
C21 C 0.37480 0.50570 1.38930
H1 H 0.29600 0.05800 0.74700
H2 H 0.39700 0.11600 0.60900
H3 H 0.33200 0.17700 0.52000
H4 H 0.42400 0.22900 0.86700
H5 H 0.30900 0.32500 0.72600
H6 H 0.34200 0.22700 1.16100
H7 H 0.23700 0.26500 1.28600
H8 H 0.22300 0.32100 1.02800
H9 H 0.28300 0.45400 0.94300
H10 H 0.32100 -0.10700 1.46700
H11 H 0.39300 -0.14800 1.77400
H12 H 0.49900 -0.10000 1.76100
H13 H 0.53700 -0.00700 1.44800
H14 H 0.46500 0.04200 1.14600
H15 H 0.50000 0.21900 0.57800
H16 H 0.45600 0.20100 0.40600
H17 H 0.49000 0.30800 0.39300
H18 H 0.32100 0.60800 0.92300
H19 H 0.37200 0.73700 1.10200
H20 H 0.42700 0.72000 1.45200
H21 H 0.42800 0.57200 1.64100
H22 H 0.37500 0.44100 1.47600
loop_
_geom_bond_atom_site_label_1
_geom_bond_atom_site_label_2
_geom_bond_site_symmetry_1
_geom_bond_site_symmetry_2
C1 C2 1_555 1_555
C2 C3 1_555 1_555
C3 C4 1_555 1_555
C4 O1 1_555 1_555
O1 C7 1_555 1_555
C5 C4 1_555 1_555
O2 C1 1_555 1_555
C6 C5 1_555 1_555
O3 C6 1_555 1_555
C7 O3 1_555 1_555
O4 C1 1_555 1_555
C8 O4 1_555 1_555
O5 C8 1_555 1_555
C9 C8 1_555 1_555
C10 C9 1_555 1_555
C11 C10 1_555 1_555
C12 C11 1_555 1_555
C13 C12 1_555 1_555
C14 C9 1_555 1_555
O6 C3 1_555 1_555
C15 O6 1_555 1_555
C16 C7 1_555 1_555
C17 C16 1_555 1_555
C18 C17 1_555 1_555
C19 C18 1_555 1_555
C20 C19 1_555 1_555
C21 C16 1_555 1_555
H1 C1 1_555 1_555
H2 C2 1_555 1_555
H3 C2 1_555 1_555
H4 C3 1_555 1_555
H5 C4 1_555 1_555
H6 C5 1_555 1_555
H7 C6 1_555 1_555
H8 C6 1_555 1_555
H9 C7 1_555 1_555
H10 C10 1_555 1_555
H11 C11 1_555 1_555
H12 C12 1_555 1_555
H13 C13 1_555 1_555
H14 C14 1_555 1_555
H15 C15 1_555 1_555
H16 C15 1_555 1_555
H17 C15 1_555 1_555
H18 C17 1_555 1_555
H19 C18 1_555 1_555
H20 C19 1_555 1_555
H21 C20 1_555 1_555
H22 C21 1_555 1_555
C5 O2 1_555 1_555
C13 C14 1_555 1_555
C20 C21 1_555 1_555

#END
