
#######################################################################
#
#                 Cambridge Crystallographic Data Centre
#                                CCDC 
#
#######################################################################
#
# If this CIF has been generated from an entry in the Cambridge 
# Structural Database, then it will include bibliographic, chemical, 
# crystal, experimental, refinement or atomic coordinate data resulting 
# from the CCDC's data processing and validation procedures.
#
#######################################################################

data_BARTOE
_chemical_compound_source        'Isodon eriocalyx var. laxiflora'
_chemical_name_common            ent-abieta-7,15(17)-diene-3beta,16,18-triol
_chemical_formula_moiety         'C20 H32 O3'
_chemical_name_systematic        'Laxiflorin O'
_chemical_properties_biological  
'antitumour, antibacterial and antiinflammatory activity'
_symmetry_cell_setting           orthorhombic
_symmetry_space_group_name_H-M   'P 21 21 21'
_symmetry_Int_Tables_number      19
_space_group_name_Hall           'P 2ac 2ab'
loop_
_symmetry_equiv_pos_site_id
_symmetry_equiv_pos_as_xyz
1 x,y,z
2 1/2-x,-y,1/2+z
3 1/2+x,1/2-y,-z
4 -x,1/2+y,1/2-z
_cell_length_a                   6.6150(2)
_cell_length_b                   9.9710(5)
_cell_length_c                   27.4880(12)
_cell_angle_alpha                90
_cell_angle_beta                 90
_cell_angle_gamma                90
_cell_volume                     1813.06
_exptl_crystal_colour            colorless
_chemical_melting_point          '125-127 deg.C'
_cell_formula_units_Z            4
_exptl_crystal_recrystallization_method acetone
loop_
_atom_site_label
_atom_site_type_symbol
_atom_site_fract_x
_atom_site_fract_y
_atom_site_fract_z
O1 O 0.2239(5) 0.9582(4) 0.7250(1)
O2 O 0.5521(5) 1.1070(4) 0.7101(2)
O3 O 0.5918(5) 0.9645(4) 1.1688(1)
C1 C 0.1941(8) 0.8939(5) 0.8592(1)
C2 C 0.1159(8) 0.9162(6) 0.8069(2)
C3 C 0.2934(7) 0.9560(5) 0.7754(1)
C4 C 0.3902(7) 1.0906(4) 0.7899(2)
C5 C 0.4518(6) 1.0797(4) 0.8455(1)
C6 C 0.5372(8) 1.2125(5) 0.8662(2)
C7 C 0.6085(8) 1.1901(5) 0.9180(2)
C8 C 0.5598(6) 1.0849(5) 0.9446(2)
C9 C 0.4109(7) 0.9793(4) 0.9278(2)
C10 C 0.2904(6) 1.0214(5) 0.8810(2)
C11 C 0.2709(8) 0.9373(5) 0.9701(1)
C12 C 0.3945(8) 0.8944(5) 1.0153(2)
C13 C 0.5241(7) 1.0122(5) 1.0332(2)
C14 C 0.6685(7) 1.0559(5) 0.9921(2)
C15 C 0.4915(7) 0.9837(6) 1.1239(2)
C16 C 0.6318(7) 0.9804(4) 1.0810(2)
C17 C 0.8283(8) 0.9545(6) 1.0845(2)
C18 C 0.2535(8) 1.2111(5) 0.7771(2)
C19 C 0.5929(7) 1.1057(5) 0.7623(2)
C20 C 0.1242(8) 1.1242(6) 0.8937(2)
H1 H 0.356 0.997 0.708
H2 H 0.688 1.063 0.704
H3 H 0.493 0.962 1.194
H4 H 0.307 0.815 0.859
H5 H 0.072 0.862 0.883
H6 H 0.000 0.998 0.806
H7 H 0.040 0.827 0.792
H8 H 0.410 0.878 0.780
H9 H 0.576 1.009 0.847
H10 H 0.422 1.290 0.865
H11 H 0.664 1.246 0.843
H12 H 0.705 1.267 0.935
H13 H 0.497 0.889 0.919
H14 H 0.166 0.859 0.960
H15 H 0.176 1.026 0.981
H16 H 0.292 0.861 1.044
H17 H 0.489 0.811 1.005
H18 H 0.423 1.097 1.040
H19 H 0.777 0.974 0.986
H20 H 0.753 1.144 1.003
H21 H 0.381 0.902 1.119
H22 H 0.409 1.077 1.124
H23 H 0.896 0.925 1.119
H24 H 0.925 0.962 1.053
H25 H 0.102 1.199 0.793
H26 H 0.242 1.227 0.739
H27 H 0.324 1.298 0.794
H28 H 0.697 1.024 0.772
H29 H 0.668 1.200 0.773
H30 H 0.052 1.165 0.862
H31 H 0.185 1.209 0.915
H32 H 0.014 1.071 0.916
loop_
_geom_bond_atom_site_label_1
_geom_bond_atom_site_label_2
_geom_bond_site_symmetry_1
_geom_bond_site_symmetry_2
O1 C3 1_555 1_555
O2 C19 1_555 1_555
O3 C15 1_555 1_555
C1 C2 1_555 1_555
C2 C3 1_555 1_555
C3 C4 1_555 1_555
C4 C5 1_555 1_555
C5 C6 1_555 1_555
C6 C7 1_555 1_555
C7 C8 1_555 1_555
C8 C9 1_555 1_555
C9 C10 1_555 1_555
C10 C1 1_555 1_555
C11 C9 1_555 1_555
C12 C11 1_555 1_555
C13 C12 1_555 1_555
C14 C8 1_555 1_555
C15 C16 1_555 1_555
C16 C13 1_555 1_555
C17 C16 1_555 1_555
C18 C4 1_555 1_555
C19 C4 1_555 1_555
C20 C10 1_555 1_555
H1 O1 1_555 1_555
H2 O2 1_555 1_555
H3 O3 1_555 1_555
H4 C1 1_555 1_555
H5 C1 1_555 1_555
H6 C2 1_555 1_555
H7 C2 1_555 1_555
H8 C3 1_555 1_555
H9 C5 1_555 1_555
H10 C6 1_555 1_555
H11 C6 1_555 1_555
H12 C7 1_555 1_555
H13 C9 1_555 1_555
H14 C11 1_555 1_555
H15 C11 1_555 1_555
H16 C12 1_555 1_555
H17 C12 1_555 1_555
H18 C13 1_555 1_555
H19 C14 1_555 1_555
H20 C14 1_555 1_555
H21 C15 1_555 1_555
H22 C15 1_555 1_555
H23 C17 1_555 1_555
H24 C17 1_555 1_555
H25 C18 1_555 1_555
H26 C18 1_555 1_555
H27 C18 1_555 1_555
H28 C19 1_555 1_555
H29 C19 1_555 1_555
H30 C20 1_555 1_555
H31 C20 1_555 1_555
H32 C20 1_555 1_555
C5 C10 1_555 1_555
C13 C14 1_555 1_555

#END
