
#######################################################################
#
#                 Cambridge Crystallographic Data Centre
#                                CCDC 
#
#######################################################################
#
# If this CIF has been generated from an entry in the Cambridge 
# Structural Database, then it will include bibliographic, chemical, 
# crystal, experimental, refinement or atomic coordinate data resulting 
# from the CCDC's data processing and validation procedures.
#
#######################################################################

data_BARTUM
_chemical_formula_moiety         'C20 H20 N2 O5'
_chemical_name_systematic        
'ethyl 3-amino-4-cyano-5-(4-oxo-4H-1-benzopyran-3-yl)-4-(propan-2-yl)-4,5-dihydrofuran-2-carboxylate'
_symmetry_cell_setting           orthorhombic
_symmetry_space_group_name_H-M   'P b c a'
_symmetry_Int_Tables_number      61
_space_group_name_Hall           '-P 2ac 2ab'
loop_
_symmetry_equiv_pos_site_id
_symmetry_equiv_pos_as_xyz
1 x,y,z
2 1/2-x,-y,1/2+z
3 -x,1/2+y,1/2-z
4 1/2+x,1/2-y,-z
5 -x,-y,-z
6 1/2+x,y,1/2-z
7 x,1/2-y,1/2+z
8 1/2-x,1/2+y,z
_cell_length_a                   12.7770(17)
_cell_length_b                   16.254(2)
_cell_length_c                   17.725(2)
_cell_angle_alpha                90
_cell_angle_beta                 90
_cell_angle_gamma                90
_cell_volume                     3681.08
_exptl_crystal_colour            colorless
_exptl_crystal_description       block
_chemical_melting_point          '178-181 deg.C'
_cell_formula_units_Z            8
loop_
_atom_site_label
_atom_site_type_symbol
_atom_site_fract_x
_atom_site_fract_y
_atom_site_fract_z
O1 O 0.34684(11) 0.41371(8) 0.50488(8)
O2 O 0.46589(10) 0.57806(9) 0.65648(8)
O3 O 0.19410(10) 0.63345(9) 0.53649(7)
O4 O -0.07851(11) 0.58321(9) 0.54273(8)
O5 O 0.02446(10) 0.62948(8) 0.44811(8)
N1 N 0.01945(13) 0.57419(12) 0.68703(10)
H1 H -0.0416 0.5660 0.6680
H2 H 0.0295 0.5673 0.7346
N2 N 0.26879(15) 0.48158(12) 0.74968(11)
C1 C 0.44084(15) 0.39684(12) 0.53944(11)
C2 C 0.48915(18) 0.32315(13) 0.51986(13)
H3 H 0.4583 0.2876 0.4853
C3 C 0.58366(19) 0.30416(13) 0.55285(14)
H4 H 0.6167 0.2549 0.5407
C4 C 0.63048(18) 0.35786(14) 0.60424(13)
H5 H 0.6948 0.3446 0.6256
C5 C 0.58197(16) 0.43005(13) 0.62333(11)
H6 H 0.6134 0.4655 0.6577
C6 C 0.48506(14) 0.45073(12) 0.59128(10)
C7 C 0.43075(14) 0.52709(11) 0.61117(10)
C8 C 0.33140(14) 0.53929(11) 0.57348(10)
C9 C 0.29634(15) 0.48373(12) 0.52297(11)
H7 H 0.2330 0.4945 0.4990
C10 C 0.27122(14) 0.61572(11) 0.59306(10)
H8 H 0.3204 0.6619 0.5954
C11 C 0.21090(14) 0.61047(11) 0.67081(10)
C12 C 0.09937(14) 0.59789(11) 0.64228(11)
C13 C 0.09738(14) 0.61143(11) 0.56732(10)
C14 C 0.24404(15) 0.53769(13) 0.71474(11)
C15 C 0.22730(16) 0.68987(12) 0.71928(11)
H9 H 0.3029 0.6999 0.7213
C16 C 0.1899(2) 0.68114(15) 0.80042(13)
H10 H 0.1171 0.6665 0.8008
H11 H 0.1993 0.7324 0.8264
H12 H 0.2296 0.6390 0.8253
C17 C 0.17828(18) 0.76418(13) 0.68043(13)
H13 H 0.2021 0.7669 0.6291
H14 H 0.1984 0.8135 0.7065
H15 H 0.1034 0.7590 0.6812
C18 C 0.00635(15) 0.60602(11) 0.51930(11)
C19 C -0.06486(17) 0.62403(13) 0.39716(12)
H16 H -0.1225 0.6569 0.4162
H17 H -0.0881 0.5674 0.3929
C20 C -0.0303(2) 0.65552(17) 0.32184(14)
H18 H -0.0863 0.6494 0.2861
H19 H 0.0294 0.6247 0.3050
H20 H -0.0119 0.7126 0.3261
loop_
_geom_bond_atom_site_label_1
_geom_bond_atom_site_label_2
_geom_bond_site_symmetry_1
_geom_bond_site_symmetry_2
O1 C1 1_555 1_555
O2 C7 1_555 1_555
O3 C10 1_555 1_555
O4 C18 1_555 1_555
O5 C18 1_555 1_555
N1 H1 1_555 1_555
H2 N1 1_555 1_555
N2 C14 1_555 1_555
C1 C2 1_555 1_555
C2 H3 1_555 1_555
C3 C2 1_555 1_555
H4 C3 1_555 1_555
C4 C3 1_555 1_555
H5 C4 1_555 1_555
C5 C4 1_555 1_555
H6 C5 1_555 1_555
C6 C1 1_555 1_555
C7 C6 1_555 1_555
C8 C7 1_555 1_555
C9 O1 1_555 1_555
H7 C9 1_555 1_555
C10 C8 1_555 1_555
H8 C10 1_555 1_555
C11 C10 1_555 1_555
C12 N1 1_555 1_555
C13 O3 1_555 1_555
C14 C11 1_555 1_555
C15 C11 1_555 1_555
H9 C15 1_555 1_555
C16 C15 1_555 1_555
H10 C16 1_555 1_555
H11 C16 1_555 1_555
H12 C16 1_555 1_555
C17 C15 1_555 1_555
H13 C17 1_555 1_555
H14 C17 1_555 1_555
H15 C17 1_555 1_555
C18 C13 1_555 1_555
C19 O5 1_555 1_555
H16 C19 1_555 1_555
H17 C19 1_555 1_555
C20 C19 1_555 1_555
H18 C20 1_555 1_555
H19 C20 1_555 1_555
H20 C20 1_555 1_555
C5 C6 1_555 1_555
C8 C9 1_555 1_555
C11 C12 1_555 1_555
C12 C13 1_555 1_555

#END
