
#######################################################################
#
#                 Cambridge Crystallographic Data Centre
#                                CCDC 
#
#######################################################################
#
# If this CIF has been generated from an entry in the Cambridge 
# Structural Database, then it will include bibliographic, chemical, 
# crystal, experimental, refinement or atomic coordinate data resulting 
# from the CCDC's data processing and validation procedures.
#
#######################################################################

data_BARVAS
_chemical_formula_moiety         'C18 H16 S10 2+,2(Cl1 O4 1-)'
_chemical_name_systematic        
'2,5-bis(4,5-bis(Methylsulfanyl)-(1,3)dithiol-2-ylidenemethyl)-thieno(3,2-b)thiophenedi-ium diperchlorate'
_symmetry_cell_setting           orthorhombic
_symmetry_space_group_name_H-M   'P n m a'
_symmetry_Int_Tables_number      62
_space_group_name_Hall           '-P 2ac 2n'
loop_
_symmetry_equiv_pos_site_id
_symmetry_equiv_pos_as_xyz
1 x,y,z
2 1/2+x,y,1/2-z
3 1/2-x,1/2+y,1/2+z
4 x,1/2-y,z
5 -x,-y,-z
6 1/2-x,-y,1/2+z
7 1/2+x,1/2-y,1/2-z
8 -x,1/2+y,-z
_cell_length_a                   20.223(2)
_cell_length_b                   7.0107(5)
_cell_length_c                   19.581(2)
_cell_angle_alpha                90
_cell_angle_beta                 90
_cell_angle_gamma                90
_cell_volume                     2776.14
_exptl_crystal_colour            black
_exptl_crystal_description       needle
_cell_formula_units_Z            4
loop_
_atom_site_label
_atom_site_type_symbol
_atom_site_fract_x
_atom_site_fract_y
_atom_site_fract_z
C1 C 0.5724(4) 0.2500 -0.3539(3)
C2 C 0.5915(4) 0.2500 -0.2855(3)
H1 H 0.6368 0.2500 -0.2772
C3 C 0.5511(3) 0.2500 -0.2283(3)
C4 C 0.5764(3) 0.2500 -0.1585(3)
H2 H 0.6208 0.2500 -0.1463
C5 C 0.5242(3) 0.2500 -0.1135(3)
C6 C 0.4598(3) 0.2500 -0.1440(3)
C7 C 0.4078(4) 0.2500 -0.0997(3)
H3 H 0.3634 0.2500 -0.1122
C8 C 0.4322(4) 0.2500 -0.0303(3)
C9 C 0.3903(4) 0.2500 0.0245(3)
H4 H 0.3453 0.2500 0.0144
C10 C 0.4068(4) 0.2500 0.0948(3)
C11 C 0.5135(4) 0.2500 -0.4696(3)
C12 C 0.5791(4) 0.2500 -0.4841(3)
C13 C 0.3783(5) 0.2500 -0.4878(5)
H5 H 0.342 0.2500 -0.5194
H6 H 0.376 0.3618 -0.4596
H7 H 0.376 0.1382 -0.4596
C14 C 0.6954(4) 0.2500 -0.5597(4)
H8 H 0.7154 0.2500 -0.6042
H9 H 0.7091 0.1382 -0.5352
H10 H 0.7091 0.3618 -0.5352
C15 C 0.3930(4) 0.2500 0.2244(3)
C16 C 0.4584(4) 0.2500 0.2140(3)
C17 C 0.2707(5) 0.2500 0.2894(4)
H11 H 0.2469 0.2500 0.3318
H12 H 0.2592 0.1382 0.2637
H13 H 0.2592 0.3618 0.2637
C18 C 0.5951(4) 0.2500 0.2414(4)
H14 H 0.6288 0.2500 0.276
H15 H 0.5997 0.3618 0.2135
H16 H 0.5997 0.1382 0.2135
S1 S 0.46521(9) 0.2500 -0.23205(9)
S2 S 0.49346(9) 0.2500 -0.38422(8)
S3 S 0.63204(10) 0.2500 -0.41557(9)
S4 S 0.45405(10) 0.2500 -0.53372(9)
S5 S 0.60659(11) 0.2500 -0.56834(9)
S6 S 0.51854(10) 0.2500 -0.02562(8)
S7 S 0.34430(10) 0.2500 0.15287(8)
S8 S 0.48413(9) 0.2500 0.12949(9)
S9 S 0.35788(11) 0.2500 0.30616(9)
S10 S 0.51430(10) 0.2500 0.28166(9)
O1 O 0.2276(4) 0.2500 -0.2998(4)
O2 O 0.3120(4) 0.2500 -0.2269(3)
O3 O 0.3188(4) 0.0916(11) -0.3276(3)
Cl1 Cl 0.29287(11) 0.2500 -0.29535(10)
O3C O 0.3188(4) 0.4084(11) -0.3276(3)
O4 O 0.6654(4) 0.2500 -0.0332(3)
O5 O 0.6398(3) 0.2500 0.0817(3)
O6 O 0.7314(3) 0.4125(10) 0.0433(3)
Cl2 Cl 0.69173(11) 0.2500 0.03294(10)
O6C O 0.7314(3) 0.0875(10) 0.0433(3)
loop_
_geom_bond_atom_site_label_1
_geom_bond_atom_site_label_2
_geom_bond_site_symmetry_1
_geom_bond_site_symmetry_2
C1 C2 1_555 1_555
C2 H1 1_555 1_555
C3 C2 1_555 1_555
C4 C3 1_555 1_555
H2 C4 1_555 1_555
C5 C4 1_555 1_555
C6 C5 1_555 1_555
C7 C6 1_555 1_555
H3 C7 1_555 1_555
C8 C7 1_555 1_555
C9 C8 1_555 1_555
H4 C9 1_555 1_555
C10 C9 1_555 1_555
C11 C12 1_555 1_555
C12 S3 1_555 1_555
C13 H5 1_555 1_555
H6 C13 1_555 1_555
H7 C13 1_555 1_555
C14 H8 1_555 1_555
H9 C14 1_555 1_555
H10 C14 1_555 1_555
C15 C16 1_555 1_555
C16 S8 1_555 1_555
C17 H11 1_555 1_555
H12 C17 1_555 1_555
H13 C17 1_555 1_555
C18 H14 1_555 1_555
H15 C18 1_555 1_555
H16 C18 1_555 1_555
O1 Cl1 1_555 1_555
O2 Cl1 1_555 1_555
O3 Cl1 1_555 1_555
O4 Cl2 1_555 1_555
O5 Cl2 1_555 1_555
O6 Cl2 1_555 1_555
S1 C3 1_555 1_555
S2 C1 1_555 1_555
S3 C1 1_555 1_555
S4 C11 1_555 1_555
S5 C12 1_555 1_555
S6 C5 1_555 1_555
S7 C10 1_555 1_555
S8 C10 1_555 1_555
S9 C15 1_555 1_555
S10 C16 1_555 1_555
Cl1 O3C 1_555 1_555
Cl2 O6C 1_555 1_555
C6 S1 1_555 1_555
C8 S6 1_555 1_555
C11 S2 1_555 1_555
C13 S4 1_555 1_555
C14 S5 1_555 1_555
C15 S7 1_555 1_555
C17 S9 1_555 1_555
C18 S10 1_555 1_555

#END
