
#######################################################################
#
#                 Cambridge Crystallographic Data Centre
#                                CCDC 
#
#######################################################################
#
# If this CIF has been generated from an entry in the Cambridge 
# Structural Database, then it will include bibliographic, chemical, 
# crystal, experimental, refinement or atomic coordinate data resulting 
# from the CCDC's data processing and validation procedures.
#
#######################################################################

data_BARVIA
_chemical_formula_moiety         'C28 H20 N2'
_chemical_name_systematic        2,2'-bis(1,4-phenylenedivinylene)bisquinoline
_symmetry_cell_setting           triclinic
_symmetry_space_group_name_H-M   'P -1'
_symmetry_Int_Tables_number      2
_space_group_name_Hall           '-P 1'
loop_
_symmetry_equiv_pos_site_id
_symmetry_equiv_pos_as_xyz
1 x,y,z
2 -x,-y,-z
_cell_length_a                   4.05020(10)
_cell_length_b                   11.6459(6)
_cell_length_c                   20.9044(11)
_cell_angle_alpha                102.0590(10)
_cell_angle_beta                 90.274(5)
_cell_angle_gamma                91.559(5)
_cell_volume                     963.853
_exptl_crystal_colour            yellow
_exptl_crystal_description       block
_chemical_melting_point          '244-246 deg.C'
_cell_formula_units_Z            2
_exptl_crystal_recrystallization_method ethanol/chloroform
loop_
_atom_site_label
_atom_site_type_symbol
_atom_site_fract_x
_atom_site_fract_y
_atom_site_fract_z
N1 N 0.3851(4) 0.59088(13) 0.22469(8)
C1 C 0.2767(5) 0.63557(16) 0.17341(9)
C2 C 0.3251(6) 0.5708(2) 0.10999(10)
H1 H 0.415(6) 0.493(2) 0.1027(11)
C3 C 0.2216(6) 0.6125(2) 0.05751(10)
H2 H 0.265(6) 0.569(2) 0.0147(12)
C4 C 0.0609(6) 0.7192(2) 0.06571(11)
H3 H -0.021(7) 0.745(2) 0.0291(13)
C5 C 0.0109(5) 0.78428(19) 0.12633(10)
H4 H -0.117(6) 0.857(2) 0.1338(11)
C6 C 0.1183(5) 0.74515(16) 0.18185(9)
C7 C 0.0802(5) 0.80916(17) 0.24633(10)
H5 H -0.025(6) 0.884(2) 0.2529(12)
C8 C 0.1858(5) 0.76325(17) 0.29647(10)
H6 H 0.158(6) 0.8045(19) 0.3399(11)
C9 C 0.3346(5) 0.65140(16) 0.28385(9)
C10 C 0.4418(5) 0.59352(17) 0.33612(9)
H7 H 0.583(5) 0.5274(19) 0.3217(10)
C11 C 0.3535(5) 0.62236(17) 0.39805(10)
H8 H 0.219(6) 0.697(2) 0.4129(11)
C12 C 0.4369(5) 0.55907(16) 0.44931(9)
C13 C 0.6024(5) 0.45323(17) 0.43752(9)
H9 H 0.687(6) 0.4239(19) 0.3955(11)
C14 C 0.3351(5) 0.60396(17) 0.51255(9)
H10 H 0.225(6) 0.682(2) 0.5256(10)
C14A C 0.6649(5) 0.39604(17) 0.48745(9)
C12A C 0.5631(5) 0.44093(16) 0.55069(9)
C11A C 0.6465(5) 0.37764(17) 0.60195(10)
C10A C 0.5582(5) 0.40648(17) 0.66388(9)
C9A C 0.6654(5) 0.34860(16) 0.71615(9)
N1A N 0.6149(4) 0.40912(13) 0.77531(8)
C1A C 0.7233(5) 0.36443(16) 0.82659(9)
C2A C 0.6749(6) 0.4292(2) 0.89001(10)
H1A H 0.585(6) 0.507(2) 0.8973(11)
C3A C 0.7784(6) 0.3875(2) 0.94249(10)
H2A H 0.735(6) 0.431(2) 0.9853(12)
C4A C 0.9391(6) 0.2808(2) 0.93429(11)
H3A H 1.021(7) 0.255(2) 0.9709(13)
C5A C 0.9891(5) 0.21572(19) 0.87367(10)
H4A H 1.117(6) 0.143(2) 0.8662(11)
C6A C 0.8817(5) 0.25485(16) 0.81815(9)
C7A C 0.9198(5) 0.19084(17) 0.75367(10)
H5A H 1.025(6) 0.116(2) 0.7471(12)
C8A C 0.8142(5) 0.23675(17) 0.70353(10)
H6A H 0.842(6) 0.1955(19) 0.6601(11)
H7A H 0.417(5) 0.4726(19) 0.6783(10)
H8A H 0.781(6) 0.303(2) 0.5871(11)
C13A C 0.3976(5) 0.54677(17) 0.56248(9)
H9A H 0.313(6) 0.5761(19) 0.6045(11)
H10A H 0.775(6) 0.318(2) 0.4744(10)
N2 N 0.7504(4) 0.10859(13) 0.25209(8)
C15 C 0.6820(5) 0.13441(16) 0.19326(9)
C16 C 0.4878(5) 0.05227(18) 0.14811(10)
H11 H 0.404(6) -0.024(2) 0.1616(11)
C17 C 0.4189(6) 0.0728(2) 0.08806(11)
H12 H 0.279(7) 0.011(2) 0.0581(12)
C18 C 0.5382(6) 0.1762(2) 0.07053(11)
H13 H 0.480(7) 0.186(2) 0.0258(13)
C19 C 0.7227(6) 0.2581(2) 0.11303(11)
H14 H 0.804(7) 0.330(2) 0.1029(12)
C20 C 0.7989(5) 0.24072(17) 0.17630(9)
C21 C 0.9892(6) 0.32099(17) 0.22253(11)
H15 H 1.077(5) 0.3997(18) 0.2132(10)
C22 C 1.0537(6) 0.29427(18) 0.28110(10)
H16 H 1.188(6) 0.356(2) 0.3145(11)
C23 C 0.9310(5) 0.18596(16) 0.29440(9)
C24 C 1.0091(5) 0.15879(18) 0.35759(9)
H17 H 1.170(5) 0.2127(18) 0.3857(10)
C25 C 0.8736(5) 0.06702(17) 0.37849(9)
H18 H 0.705(6) 0.018(2) 0.3513(11)
C26 C 0.9426(5) 0.03502(16) 0.44056(9)
C27 C 0.8058(5) -0.07088(17) 0.45230(9)
H19 H 0.659(6) -0.1247(19) 0.4193(10)
C28 C 1.1379(5) 0.10534(17) 0.49003(9)
H20 H 1.236(7) 0.182(2) 0.4844(12)
C28A C 0.8621(5) -0.10534(17) 0.50997(9)
C26A C 1.0574(5) -0.03502(16) 0.55944(9)
C25A C 1.1264(5) -0.06702(17) 0.62151(9)
C24A C 0.9909(5) -0.15879(18) 0.64241(9)
C23A C 1.0690(5) -0.18596(16) 0.70560(9)
N2A N 1.2496(4) -0.10859(13) 0.74791(8)
C15A C 1.3180(5) -0.13441(16) 0.80674(9)
C16A C 1.5122(5) -0.05227(18) 0.85189(10)
H11A H 1.596(6) 0.024(2) 0.8384(11)
C17A C 1.5811(6) -0.0728(2) 0.91194(11)
H12A H 1.721(7) -0.011(2) 0.9419(12)
C18A C 1.4618(6) -0.1762(2) 0.92947(11)
H13A H 1.520(7) -0.186(2) 0.9742(13)
C19A C 1.2773(6) -0.2581(2) 0.88697(11)
H14A H 1.196(7) -0.330(2) 0.8971(12)
C20A C 1.2011(5) -0.24072(17) 0.82370(9)
C21A C 1.0108(6) -0.32099(17) 0.77747(11)
H15A H 0.923(5) -0.3997(18) 0.7868(10)
C22A C 0.9463(6) -0.29427(18) 0.71890(10)
H16A H 0.812(6) -0.356(2) 0.6855(11)
H17A H 0.830(5) -0.2127(18) 0.6143(10)
H18A H 1.295(6) -0.018(2) 0.6487(11)
C27A C 1.1942(5) 0.07088(17) 0.54770(9)
H19A H 1.341(6) 0.1247(19) 0.5807(10)
H20A H 0.764(7) -0.182(2) 0.5156(12)
loop_
_geom_bond_atom_site_label_1
_geom_bond_atom_site_label_2
_geom_bond_site_symmetry_1
_geom_bond_site_symmetry_2
N1 C1 1_555 1_555
C1 C2 1_555 1_555
C2 H1 1_555 1_555
C3 C2 1_555 1_555
H2 C3 1_555 1_555
C4 C3 1_555 1_555
H3 C4 1_555 1_555
C5 C4 1_555 1_555
H4 C5 1_555 1_555
C6 C1 1_555 1_555
C7 C6 1_555 1_555
H5 C7 1_555 1_555
C8 C7 1_555 1_555
H6 C8 1_555 1_555
C9 N1 1_555 1_555
C10 C9 1_555 1_555
H7 C10 1_555 1_555
C11 C10 1_555 1_555
H8 C11 1_555 1_555
C12 C11 1_555 1_555
C13 C12 1_555 1_555
H9 C13 1_555 1_555
C14 C12 1_555 1_555
H10 C14 1_555 1_555
N2 C15 1_555 1_555
C15 C16 1_555 1_555
C16 H11 1_555 1_555
C17 C16 1_555 1_555
H12 C17 1_555 1_555
C18 C17 1_555 1_555
H13 C18 1_555 1_555
C19 C18 1_555 1_555
H14 C19 1_555 1_555
C20 C15 1_555 1_555
C21 C20 1_555 1_555
H15 C21 1_555 1_555
C22 C21 1_555 1_555
H16 C22 1_555 1_555
C23 N2 1_555 1_555
C24 C23 1_555 1_555
H17 C24 1_555 1_555
C25 C24 1_555 1_555
H18 C25 1_555 1_555
C26 C25 1_555 1_555
C27 C26 1_555 1_555
H19 C27 1_555 1_555
C28 C26 1_555 1_555
H20 C28 1_555 1_555
C14A C13 1_555 1_555
C12A C14A 1_555 1_555
C11A C12A 1_555 1_555
C10A C11A 1_555 1_555
C9A C10A 1_555 1_555
N1A C9A 1_555 1_555
C1A N1A 1_555 1_555
C2A C1A 1_555 1_555
H1A C2A 1_555 1_555
C3A C2A 1_555 1_555
H2A C3A 1_555 1_555
C4A C3A 1_555 1_555
H3A C4A 1_555 1_555
C5A C4A 1_555 1_555
H4A C5A 1_555 1_555
C6A C1A 1_555 1_555
C7A C6A 1_555 1_555
H5A C7A 1_555 1_555
C8A C9A 1_555 1_555
H6A C8A 1_555 1_555
H7A C10A 1_555 1_555
H8A C11A 1_555 1_555
C13A C14 1_555 1_555
H9A C13A 1_555 1_555
H10A C14A 1_555 1_555
C28A C27 1_555 1_555
C26A C28A 1_555 1_555
C25A C26A 1_555 1_555
C24A C25A 1_555 1_555
C23A C24A 1_555 1_555
N2A C23A 1_555 1_555
C15A N2A 1_555 1_555
C16A C15A 1_555 1_555
H11A C16A 1_555 1_555
C17A C16A 1_555 1_555
H12A C17A 1_555 1_555
C18A C17A 1_555 1_555
H13A C18A 1_555 1_555
C19A C18A 1_555 1_555
H14A C19A 1_555 1_555
C20A C15A 1_555 1_555
C21A C20A 1_555 1_555
H15A C21A 1_555 1_555
C22A C23A 1_555 1_555
H16A C22A 1_555 1_555
H17A C24A 1_555 1_555
H18A C25A 1_555 1_555
C27A C28 1_555 1_555
H19A C27A 1_555 1_555
H20A C28A 1_555 1_555
C5 C6 1_555 1_555
C8 C9 1_555 1_555
C19 C20 1_555 1_555
C22 C23 1_555 1_555
C12A C13A 1_555 1_555
C5A C6A 1_555 1_555
C7A C8A 1_555 1_555
C26A C27A 1_555 1_555
C19A C20A 1_555 1_555
C21A C22A 1_555 1_555

#END
