
#######################################################################
#
#                 Cambridge Crystallographic Data Centre
#                                CCDC 
#
#######################################################################
#
# If this CIF has been generated from an entry in the Cambridge 
# Structural Database, then it will include bibliographic, chemical, 
# crystal, experimental, refinement or atomic coordinate data resulting 
# from the CCDC's data processing and validation procedures.
#
#######################################################################

data_BARWID
_chemical_formula_moiety         'C20 H16 O4'
_chemical_name_systematic        
'methyl 1-benzylidene-4,7-dioxo-1,3a,4,7,7a,7b-hexahydro-3bH-cyclopenta[3,4]cyclobuta[1,2]benzene-3b-carboxylate'
_symmetry_cell_setting           monoclinic
_symmetry_space_group_name_H-M   'C 2'
_symmetry_Int_Tables_number      5
_space_group_name_Hall           'C 2y'
loop_
_symmetry_equiv_pos_site_id
_symmetry_equiv_pos_as_xyz
1 x,y,z
2 -x,y,-z
3 1/2+x,1/2+y,z
4 1/2-x,1/2+y,-z
_cell_length_a                   16.8740(4)
_cell_length_b                   8.2225(2)
_cell_length_c                   11.5745(3)
_cell_angle_alpha                90
_cell_angle_beta                 92.962(2)
_cell_angle_gamma                90
_cell_volume                     1603.78
_exptl_crystal_colour            'yellowish yellow'
_cell_formula_units_Z            4
loop_
_atom_site_label
_atom_site_type_symbol
_atom_site_fract_x
_atom_site_fract_y
_atom_site_fract_z
O1 O 0.32190(12) 0.3275(3) 0.05715(17)
O2 O 0.31489(16) 0.7284(3) 0.2844(2)
O3 O 0.36834(19) 0.0869(3) 0.1178(3)
O4 O 0.53474(15) 0.3177(4) 0.1417(3)
C1 C 0.36405(15) 0.2291(4) 0.1282(3)
C2 C 0.48044(16) 0.4031(4) 0.1670(3)
C3 C 0.36045(14) 0.4567(3) 0.2875(2)
H1 H 0.3053 0.4210 0.2921
C4 C 0.36123(15) 0.3593(3) 0.5013(2)
C5 C 0.36295(16) 0.6321(3) 0.2526(2)
C6 C 0.40798(14) 0.3296(3) 0.2212(2)
C7 C 0.41023(14) 0.4072(3) 0.4018(2)
H2 H 0.4553 0.4786 0.4223
C8 C 0.33957(16) 0.4418(4) 0.5945(2)
H3 H 0.3059 0.3847 0.6410
C9 C 0.48166(18) 0.5789(4) 0.1448(3)
H4 H 0.5225 0.6201 0.1025
C10 C 0.42785(19) 0.6833(4) 0.1816(2)
H5 H 0.4317 0.7924 0.1615
C11 C 0.35929(15) 0.6053(4) 0.6362(2)
C12 C 0.3969(2) 0.9115(5) 0.7339(3)
H6 H 0.4101 1.0120 0.7662
C13 C 0.40334(17) 0.7198(4) 0.5781(2)
H7 H 0.4200 0.6949 0.5048
C14 C 0.43198(17) 0.2473(3) 0.3390(3)
H8 H 0.4879 0.2154 0.3486
C15 C 0.33337(18) 0.6532(5) 0.7448(3)
H9 H 0.3031 0.5811 0.7860
C16 C 0.4229(2) 0.8688(4) 0.6261(3)
H10 H 0.4537 0.9412 0.5861
C17 C 0.2820(2) 0.2518(5) -0.0425(3)
H11 H 0.3203 0.2231 -0.0975
H12 H 0.2442 0.3264 -0.0775
H13 H 0.2551 0.1555 -0.0187
C18 C 0.3744(2) 0.1294(4) 0.3877(3)
H14 H 0.3653 0.0251 0.3590
C19 C 0.3382(2) 0.1912(4) 0.4759(3)
H15 H 0.3018 0.1338 0.5177
C20 C 0.3515(2) 0.8036(5) 0.7920(3)
H16 H 0.3328 0.8319 0.8635
loop_
_geom_bond_atom_site_label_1
_geom_bond_atom_site_label_2
_geom_bond_site_symmetry_1
_geom_bond_site_symmetry_2
O1 C1 1_555 1_555
O2 C5 1_555 1_555
O3 C1 1_555 1_555
O4 C2 1_555 1_555
C1 C6 1_555 1_555
C2 C6 1_555 1_555
C3 H1 1_555 1_555
C4 C7 1_555 1_555
C5 C3 1_555 1_555
C6 C3 1_555 1_555
C7 C3 1_555 1_555
H2 C7 1_555 1_555
C8 C4 1_555 1_555
H3 C8 1_555 1_555
C9 C2 1_555 1_555
H4 C9 1_555 1_555
C10 C5 1_555 1_555
H5 C10 1_555 1_555
C11 C8 1_555 1_555
C12 H6 1_555 1_555
C13 C11 1_555 1_555
H7 C13 1_555 1_555
C14 C6 1_555 1_555
H8 C14 1_555 1_555
C15 C11 1_555 1_555
H9 C15 1_555 1_555
C16 C12 1_555 1_555
H10 C16 1_555 1_555
C17 O1 1_555 1_555
H11 C17 1_555 1_555
H12 C17 1_555 1_555
H13 C17 1_555 1_555
C18 C14 1_555 1_555
H14 C18 1_555 1_555
C19 C4 1_555 1_555
H15 C19 1_555 1_555
C20 C12 1_555 1_555
H16 C20 1_555 1_555
C7 C14 1_555 1_555
C9 C10 1_555 1_555
C13 C16 1_555 1_555
C15 C20 1_555 1_555
C18 C19 1_555 1_555

#END
