
#######################################################################
#
#                 Cambridge Crystallographic Data Centre
#                                CCDC 
#
#######################################################################
#
# If this CIF has been generated from an entry in the Cambridge 
# Structural Database, then it will include bibliographic, chemical, 
# crystal, experimental, refinement or atomic coordinate data resulting 
# from the CCDC's data processing and validation procedures.
#
#######################################################################

data_BASFIN
_chemical_formula_moiety         'C23 H20 N2 O4'
_chemical_name_systematic        
6-benzoyl-1,3,7-trimethyl-5-phenyl-1,5-dihydro-2H-pyrano[2,3-d]pyrimidine-2,4(3H)-dione
_symmetry_cell_setting           monoclinic
_symmetry_space_group_name_H-M   'P 21/n'
_symmetry_Int_Tables_number      14
_space_group_name_Hall           '-P 2yn'
loop_
_symmetry_equiv_pos_site_id
_symmetry_equiv_pos_as_xyz
1 x,y,z
2 1/2-x,1/2+y,1/2-z
3 -x,-y,-z
4 1/2+x,1/2-y,1/2+z
_cell_length_a                   15.040(3)
_cell_length_b                   8.7022(15)
_cell_length_c                   15.900(3)
_cell_angle_alpha                90
_cell_angle_beta                 115.384(2)
_cell_angle_gamma                90
_cell_volume                     1880.1
_exptl_crystal_colour            colorless
_exptl_crystal_description       block
_chemical_melting_point          '134-135 deg.C'
_cell_formula_units_Z            4
loop_
_atom_site_label
_atom_site_type_symbol
_atom_site_fract_x
_atom_site_fract_y
_atom_site_fract_z
O1 O 0.31318(7) 0.41143(14) 0.25916(8)
O2 O 0.63030(7) 0.23807(11) 0.39057(8)
O3 O 0.54685(7) 0.73769(11) 0.45002(7)
O4 O 0.86886(8) 0.62009(13) 0.65230(7)
N1 N 0.47070(8) 0.32107(14) 0.32730(8)
N2 N 0.43127(8) 0.56784(14) 0.36152(8)
C1 C 0.39938(10) 0.43211(17) 0.31191(9)
C2 C 0.57214(10) 0.34225(15) 0.38160(9)
C3 C 0.60089(9) 0.49188(15) 0.42335(9)
C4 C 0.53001(9) 0.59506(15) 0.41250(9)
C5 C 0.43754(12) 0.17738(18) 0.27426(11)
H1 H 0.3751 0.1480 0.2721
H2 H 0.4849 0.0978 0.3040
H3 H 0.4310 0.1926 0.2121
C6 C 0.35726(10) 0.68600(19) 0.35076(11)
H4 H 0.3590 0.7644 0.3090
H5 H 0.3714 0.7308 0.4103
H6 H 0.2931 0.6399 0.3259
C7 C 0.70835(9) 0.53092(15) 0.47534(9)
H7 H 0.7405 0.4501 0.5214
C8 C 0.71912(9) 0.68193(15) 0.52618(9)
C9 C 0.64427(10) 0.77626(16) 0.51147(9)
C10 C 0.76044(9) 0.54367(15) 0.41149(9)
C11 C 0.72384(11) 0.63868(18) 0.33360(10)
H8 H 0.6667 0.6949 0.3199
C12 C 0.77164(12) 0.6505(2) 0.27605(11)
H9 H 0.7467 0.7147 0.2243
C13 C 0.85627(13) 0.5666(2) 0.29572(13)
H10 H 0.8868 0.5712 0.2558
C14 C 0.89544(12) 0.4762(2) 0.37454(13)
H11 H 0.9535 0.4221 0.3888
C15 C 0.84803(10) 0.46593(17) 0.43279(11)
H12 H 0.8753 0.4064 0.4865
C16 C 0.64298(11) 0.93138(17) 0.55061(11)
H13 H 0.6338 1.0082 0.5043
H14 H 0.7043 0.9490 0.6039
H15 H 0.5900 0.9369 0.5689
C17 C 0.82358(10) 0.71659(16) 0.59411(9)
C18 C 0.87211(10) 0.86088(16) 0.58535(9)
C19 C 0.83204(11) 0.95296(17) 0.50620(10)
H16 H 0.7719 0.9269 0.4578
C20 C 0.88126(12) 1.08297(18) 0.49931(11)
H17 H 0.8541 1.1442 0.4463
C21 C 0.97078(12) 1.12228(18) 0.57103(12)
H18 H 1.0035 1.2102 0.5664
C22 C 1.01188(11) 1.03071(18) 0.64992(11)
H19 H 1.0721 1.0571 0.6980
C23 C 0.96318(10) 0.90047(17) 0.65689(9)
H20 H 0.9911 0.8386 0.7095
loop_
_geom_bond_atom_site_label_1
_geom_bond_atom_site_label_2
_geom_bond_site_symmetry_1
_geom_bond_site_symmetry_2
O1 C1 1_555 1_555
O2 C2 1_555 1_555
O3 C4 1_555 1_555
O4 C17 1_555 1_555
N1 C1 1_555 1_555
N2 C1 1_555 1_555
C2 N1 1_555 1_555
C3 C2 1_555 1_555
C4 N2 1_555 1_555
C5 N1 1_555 1_555
H1 C5 1_555 1_555
H2 C5 1_555 1_555
H3 C5 1_555 1_555
C6 N2 1_555 1_555
H4 C6 1_555 1_555
H5 C6 1_555 1_555
H6 C6 1_555 1_555
C7 C3 1_555 1_555
H7 C7 1_555 1_555
C8 C7 1_555 1_555
C9 O3 1_555 1_555
C10 C7 1_555 1_555
C11 C10 1_555 1_555
H8 C11 1_555 1_555
C12 C11 1_555 1_555
H9 C12 1_555 1_555
C13 C12 1_555 1_555
H10 C13 1_555 1_555
C14 C13 1_555 1_555
H11 C14 1_555 1_555
C15 C10 1_555 1_555
H12 C15 1_555 1_555
C16 C9 1_555 1_555
H13 C16 1_555 1_555
H14 C16 1_555 1_555
H15 C16 1_555 1_555
C17 C8 1_555 1_555
C18 C17 1_555 1_555
C19 C18 1_555 1_555
H16 C19 1_555 1_555
C20 C19 1_555 1_555
H17 C20 1_555 1_555
C21 C20 1_555 1_555
H18 C21 1_555 1_555
C22 C21 1_555 1_555
H19 C22 1_555 1_555
C23 C18 1_555 1_555
H20 C23 1_555 1_555
C3 C4 1_555 1_555
C8 C9 1_555 1_555
C14 C15 1_555 1_555
C22 C23 1_555 1_555

#END
