
#######################################################################
#
#                 Cambridge Crystallographic Data Centre
#                                CCDC 
#
#######################################################################
#
# If this CIF has been generated from an entry in the Cambridge 
# Structural Database, then it will include bibliographic, chemical, 
# crystal, experimental, refinement or atomic coordinate data resulting 
# from the CCDC's data processing and validation procedures.
#
#######################################################################

data_BASFOT
_chemical_formula_moiety         'C23 H20 N2 O4'
_chemical_name_systematic        
2-benzoyl-7,9-dimethyl-1-phenyl-7,9-diazaspiro[4.5]dec-2-ene-6,8,10-trione
_symmetry_cell_setting           monoclinic
_symmetry_space_group_name_H-M   'P 21/c'
_symmetry_Int_Tables_number      14
_space_group_name_Hall           '-P 2ybc'
loop_
_symmetry_equiv_pos_site_id
_symmetry_equiv_pos_as_xyz
1 x,y,z
2 -x,1/2+y,1/2-z
3 -x,-y,-z
4 x,1/2-y,1/2+z
_cell_length_a                   8.989(4)
_cell_length_b                   5.730(3)
_cell_length_c                   36.156(16)
_cell_angle_alpha                90
_cell_angle_beta                 96.682(6)
_cell_angle_gamma                90
_cell_volume                     1849.64
_exptl_crystal_colour            colorless
_exptl_crystal_description       rod
_chemical_melting_point          '158-159 deg.C'
_cell_formula_units_Z            4
loop_
_atom_site_label
_atom_site_type_symbol
_atom_site_fract_x
_atom_site_fract_y
_atom_site_fract_z
O1 O -0.0358(2) 0.4771(3) 0.69604(5)
O2 O 0.23166(19) 1.1131(3) 0.66867(5)
O3 O 0.06856(19) 0.5679(3) 0.57742(4)
O4 O 0.54151(18) 0.3402(3) 0.58969(5)
N1 N 0.1040(2) 0.7919(3) 0.68355(5)
N2 N 0.0103(2) 0.5265(3) 0.63620(5)
C1 C 0.0247(2) 0.5885(4) 0.67363(6)
C2 C 0.1819(2) 0.9215(4) 0.65981(6)
C3 C 0.2084(2) 0.8045(4) 0.62356(6)
C4 C 0.0894(2) 0.6283(4) 0.60973(6)
C5 C 0.0949(3) 0.8837(5) 0.72122(6)
H1 H 0.0089 0.8187 0.7309
H2 H 0.0860 1.0506 0.7202
H3 H 0.1838 0.8415 0.7371
C6 C -0.0944(3) 0.3357(5) 0.62474(7)
H4 H -0.0563 0.1922 0.6358
H5 H -0.1051 0.3211 0.5981
H6 H -0.1902 0.3691 0.6328
C7 C 0.2307(3) 0.9815(4) 0.59241(6)
H7 H 0.1402 0.9966 0.5751
H8 H 0.2581 1.1338 0.6028
C8 C 0.3554(2) 0.8796(4) 0.57350(6)
H9 H 0.3830 0.9348 0.5511
C9 C 0.4222(2) 0.7016(4) 0.59224(6)
C10 C 0.3616(2) 0.6566(4) 0.62900(6)
H10 H 0.3378 0.4904 0.6309
C11 C 0.4718(2) 0.7267(4) 0.66216(6)
C12 C 0.4825(3) 0.5919(4) 0.69436(6)
H11 H 0.4233 0.4593 0.6952
C13 C 0.5808(3) 0.6537(5) 0.72531(7)
H12 H 0.5859 0.5640 0.7469
C14 C 0.6713(3) 0.8486(5) 0.72417(7)
H13 H 0.7391 0.8876 0.7447
C15 C 0.6603(3) 0.9851(4) 0.69232(7)
H14 H 0.7194 1.1180 0.6917
C16 C 0.5619(3) 0.9248(4) 0.66143(6)
H15 H 0.5557 1.0168 0.6401
C17 C 0.5343(2) 0.5437(4) 0.57911(6)
C18 C 0.6363(2) 0.6294(4) 0.55229(6)
C19 C 0.6740(2) 0.4799(4) 0.52461(6)
H16 H 0.6306 0.3326 0.5221
C20 C 0.7754(3) 0.5483(5) 0.50078(7)
H17 H 0.7985 0.4486 0.4820
C21 C 0.8423(3) 0.7646(5) 0.50500(7)
H18 H 0.9122 0.8092 0.4893
C22 C 0.8062(3) 0.9152(4) 0.53232(7)
H19 H 0.8523 1.0604 0.5351
C23 C 0.7007(2) 0.8505(4) 0.55586(7)
H20 H 0.6737 0.9540 0.5737
loop_
_geom_bond_atom_site_label_1
_geom_bond_atom_site_label_2
_geom_bond_site_symmetry_1
_geom_bond_site_symmetry_2
O1 C1 1_555 1_555
O2 C2 1_555 1_555
O3 C4 1_555 1_555
O4 C17 1_555 1_555
N1 C1 1_555 1_555
N2 C1 1_555 1_555
C2 N1 1_555 1_555
C3 C2 1_555 1_555
C4 N2 1_555 1_555
C5 N1 1_555 1_555
H1 C5 1_555 1_555
H2 C5 1_555 1_555
H3 C5 1_555 1_555
C6 N2 1_555 1_555
H4 C6 1_555 1_555
H5 C6 1_555 1_555
H6 C6 1_555 1_555
C7 C3 1_555 1_555
H7 C7 1_555 1_555
H8 C7 1_555 1_555
C8 C7 1_555 1_555
H9 C8 1_555 1_555
C9 C8 1_555 1_555
C10 C3 1_555 1_555
H10 C10 1_555 1_555
C11 C10 1_555 1_555
C12 C11 1_555 1_555
H11 C12 1_555 1_555
C13 C12 1_555 1_555
H12 C13 1_555 1_555
C14 C13 1_555 1_555
H13 C14 1_555 1_555
C15 C14 1_555 1_555
H14 C15 1_555 1_555
C16 C11 1_555 1_555
H15 C16 1_555 1_555
C17 C9 1_555 1_555
C18 C17 1_555 1_555
C19 C18 1_555 1_555
H16 C19 1_555 1_555
C20 C19 1_555 1_555
H17 C20 1_555 1_555
C21 C20 1_555 1_555
H18 C21 1_555 1_555
C22 C21 1_555 1_555
H19 C22 1_555 1_555
C23 C18 1_555 1_555
H20 C23 1_555 1_555
C3 C4 1_555 1_555
C9 C10 1_555 1_555
C15 C16 1_555 1_555
C22 C23 1_555 1_555

#END
