
#######################################################################
#
#                 Cambridge Crystallographic Data Centre
#                                CCDC 
#
#######################################################################
#
# If this CIF has been generated from an entry in the Cambridge 
# Structural Database, then it will include bibliographic, chemical, 
# crystal, experimental, refinement or atomic coordinate data resulting 
# from the CCDC's data processing and validation procedures.
#
#######################################################################

data_BASZAX
_chemical_formula_moiety         'C13 H15 N1 O1'
_chemical_name_systematic        
trans-3-Methyl-2-phenyl-tetrahydropyran-3-carbonitrile
_symmetry_cell_setting           orthorhombic
_symmetry_space_group_name_H-M   'P 21 21 21'
_symmetry_Int_Tables_number      19
_space_group_name_Hall           'P 2ac 2ab'
loop_
_symmetry_equiv_pos_site_id
_symmetry_equiv_pos_as_xyz
1 x,y,z
2 1/2-x,-y,1/2+z
3 1/2+x,1/2-y,-z
4 -x,1/2+y,1/2-z
_cell_length_a                   10.665(1)
_cell_length_b                   12.5060(8)
_cell_length_c                   8.5077(8)
_cell_angle_alpha                90
_cell_angle_beta                 90
_cell_angle_gamma                90
_cell_volume                     1134.73
_exptl_crystal_colour            colorless
_exptl_crystal_description       block
_cell_formula_units_Z            4
loop_
_atom_site_label
_atom_site_type_symbol
_atom_site_fract_x
_atom_site_fract_y
_atom_site_fract_z
O1 O 0.3050(1) 0.2877(1) 0.9358(2)
N1 N 0.2429(2) 0.3208(2) 0.5157(3)
C1 C 0.1284(2) 0.2454(2) 0.7639(2)
C2 C 0.2265(2) 0.2031(1) 0.8835(2)
C3 C 0.2365(2) 0.3699(2) 1.0171(3)
C4 C 0.1404(2) 0.4213(2) 0.9116(3)
C5 C 0.0544(2) 0.3373(2) 0.8409(3)
C6 C 0.1948(2) 0.2877(2) 0.6244(3)
C7 C 0.0399(2) 0.1561(2) 0.7122(3)
C8 C 0.3083(2) 0.1140(1) 0.8238(2)
C9 C 0.2796(2) 0.0081(2) 0.8581(3)
C10 C 0.3538(3) -0.0746(2) 0.8023(3)
C11 C 0.4585(2) -0.0534(2) 0.7155(3)
C12 C 0.4892(2) 0.0514(2) 0.6809(3)
C13 C 0.4145(2) 0.1344(2) 0.7343(3)
H1 H 0.1813 0.1757 0.9730
H2 H 0.1880 0.3346 1.1003
H3 H 0.2888 0.4198 1.0600
H4 H 0.0947 0.4745 0.9683
H5 H 0.1856 0.4582 0.8280
H6 H 0.0004 0.3694 0.7645
H7 H 0.0024 0.3088 0.9235
H8 H -0.0044 0.1266 0.8003
H9 H -0.0209 0.1820 0.6384
H10 H 0.0855 0.0990 0.6627
H11 H 0.2096 -0.0084 0.9232
H12 H 0.3311 -0.1463 0.8240
H13 H 0.5052 -0.1122 0.6731
H14 H 0.5645 0.0664 0.6199
H15 H 0.4359 0.2069 0.7069
loop_
_geom_bond_atom_site_label_1
_geom_bond_atom_site_label_2
_geom_bond_site_symmetry_1
_geom_bond_site_symmetry_2
O1 C2 1_555 1_555
N1 C6 1_555 1_555
C1 C2 1_555 1_555
C2 C8 1_555 1_555
C3 O1 1_555 1_555
C4 C3 1_555 1_555
C5 C1 1_555 1_555
C6 C1 1_555 1_555
C7 C1 1_555 1_555
C8 C9 1_555 1_555
C9 C10 1_555 1_555
C10 C11 1_555 1_555
C11 C12 1_555 1_555
C12 C13 1_555 1_555
C13 C8 1_555 1_555
H1 C2 1_555 1_555
H2 C3 1_555 1_555
H3 C3 1_555 1_555
H4 C4 1_555 1_555
H5 C4 1_555 1_555
H6 C5 1_555 1_555
H7 C5 1_555 1_555
H8 C7 1_555 1_555
H9 C7 1_555 1_555
H10 C7 1_555 1_555
H11 C9 1_555 1_555
H12 C10 1_555 1_555
H13 C11 1_555 1_555
H14 C12 1_555 1_555
H15 C13 1_555 1_555
C4 C5 1_555 1_555

#END
