
#######################################################################
#
#                 Cambridge Crystallographic Data Centre
#                                CCDC 
#
#######################################################################
#
# If this CIF has been generated from an entry in the Cambridge 
# Structural Database, then it will include bibliographic, chemical, 
# crystal, experimental, refinement or atomic coordinate data resulting 
# from the CCDC's data processing and validation procedures.
#
#######################################################################

data_BASZIG
_chemical_formula_moiety         'C12 H14 Br4 O2'
_chemical_name_systematic        
1,2,4,5-tetrakis(Bromomethyl)-3,6-dimethoxybenzene
_symmetry_cell_setting           triclinic
_symmetry_space_group_name_H-M   'P -1'
_symmetry_Int_Tables_number      2
_space_group_name_Hall           '-P 1'
loop_
_symmetry_equiv_pos_site_id
_symmetry_equiv_pos_as_xyz
1 x,y,z
2 -x,-y,-z
_cell_length_a                   9.4482(11)
_cell_length_b                   9.7673(14)
_cell_length_c                   10.0131(15)
_cell_angle_alpha                118.315(2)
_cell_angle_beta                 107.831(11)
_cell_angle_gamma                96.19(3)
_cell_volume                     738.257
_exptl_crystal_colour            colorless
_exptl_crystal_description       block
_chemical_melting_point          '441 K'
_cell_formula_units_Z            2
_exptl_crystal_recrystallization_method chloroform
loop_
_atom_site_label
_atom_site_type_symbol
_atom_site_fract_x
_atom_site_fract_y
_atom_site_fract_z
C1 C 0.4178(3) 0.5243(4) 0.5986(3)
C2 C 0.4772(3) 0.6533(3) 0.5862(4)
C3 C 0.5604(3) 0.6292(3) 0.4867(4)
C4 C 0.4488(4) 0.8134(4) 0.6767(4)
C5 C 0.6304(4) 0.7649(4) 0.4740(4)
C6 C 0.4125(4) 0.6035(4) 0.8613(4)
O1 O 0.3271(3) 0.5442(3) 0.6879(3)
Br1 Br 0.47867(4) 0.78796(4) 0.30557(4)
Br2 Br 0.63781(4) 0.97544(4) 0.87863(4)
H1 H 0.4194 0.8562 0.6069
H2 H 0.3678 0.7972 0.7113
H3 H 0.6696 0.8655 0.5809
H4 H 0.7136 0.7403 0.4389
H5 H 0.3401 0.6052 0.9118
H6 H 0.4842 0.7150 0.9200
H7 H 0.4730 0.5320 0.8697
C1A C 0.5822(3) 0.4757(4) 0.4014(3)
C2A C 0.5228(3) 0.3467(3) 0.4138(4)
C3A C 0.4396(3) 0.3708(3) 0.5133(4)
C4A C 0.5512(4) 0.1866(4) 0.3233(4)
C5A C 0.3696(4) 0.2351(4) 0.5260(4)
C6A C 0.5875(4) 0.3965(4) 0.1387(4)
O1A O 0.6729(3) 0.4558(3) 0.3121(3)
Br1A Br 0.52133(4) 0.21204(4) 0.69443(4)
Br2A Br 0.36219(4) 0.02456(4) 0.12137(4)
H1A H 0.5806 0.1438 0.3931
H2A H 0.6322 0.2028 0.2887
H3A H 0.3304 0.1345 0.4191
H4A H 0.2864 0.2597 0.5611
H5A H 0.6599 0.3948 0.0882
H6A H 0.5158 0.2850 0.0800
H7A H 0.5270 0.4680 0.1303
C7 C 0.9288(3) 0.4232(4) 0.8286(3)
C8 C 0.9330(3) 0.5847(4) 0.9295(4)
C9 C 1.0069(3) 0.6637(4) 1.1033(4)
C10 C 0.8506(4) 0.6664(4) 0.8492(4)
C11 C 1.0241(4) 0.8388(4) 1.2153(4)
C12 C 0.9548(4) 0.3520(4) 0.5771(4)
O2 O 0.8532(3) 0.3477(3) 0.6586(3)
Br3 Br 0.99017(4) 0.78365(4) 0.79937(4)
Br4 Br 0.83109(4) 0.86898(4) 1.24851(4)
H8 H 0.8100 0.7448 0.9189
H9 H 0.7625 0.5853 0.7457
H10 H 1.1079 0.8850 1.3239
H11 H 1.0406 0.8964 1.1616
H12 H 0.8940 0.3494 0.4790
H13 H 0.9899 0.2598 0.5476
H14 H 1.0414 0.4487 0.6499
C7A C 1.0712(3) 0.5768(4) 1.1714(3)
C8A C 1.0670(3) 0.4153(4) 1.0705(4)
C9A C 0.9931(3) 0.3363(4) 0.8967(4)
C10A C 1.1494(4) 0.3336(4) 1.1508(4)
C11A C 0.9759(4) 0.1612(4) 0.7847(4)
C12A C 1.0452(4) 0.6480(4) 1.4229(4)
O2A O 1.1468(3) 0.6523(3) 1.3414(3)
Br3A Br 1.00983(4) 0.21635(4) 1.20063(4)
Br4A Br 1.16891(4) 0.13102(4) 0.75149(4)
H8A H 1.1900 0.2552 1.0811
H9A H 1.2375 0.4147 1.2543
H10A H 0.8921 0.1150 0.6761
H11A H 0.9594 0.1036 0.8384
H12A H 1.1060 0.6506 1.5210
H13A H 1.0101 0.7402 1.4524
H14A H 0.9586 0.5513 1.3501
loop_
_geom_bond_atom_site_label_1
_geom_bond_atom_site_label_2
_geom_bond_site_symmetry_1
_geom_bond_site_symmetry_2
C1 C2 1_555 1_555
C2 C3 1_555 1_555
C3 C5 1_555 1_555
C4 C2 1_555 1_555
C5 Br1 1_555 1_555
C6 O1 1_555 1_555
C7 C8 1_555 1_555
C8 C9 1_555 1_555
C9 C11 1_555 1_555
C10 C8 1_555 1_555
C11 Br4 1_555 1_555
C12 O2 1_555 1_555
O1 C1 1_555 1_555
O2 C7 1_555 1_555
Br2 C4 1_555 1_555
Br3 C10 1_555 1_555
H1 C4 1_555 1_555
H2 C4 1_555 1_555
H3 C5 1_555 1_555
H4 C5 1_555 1_555
H5 C6 1_555 1_555
H6 C6 1_555 1_555
H7 C6 1_555 1_555
H8 C10 1_555 1_555
H9 C10 1_555 1_555
H10 C11 1_555 1_555
H11 C11 1_555 1_555
H12 C12 1_555 1_555
H13 C12 1_555 1_555
H14 C12 1_555 1_555
C1A C3 1_555 1_555
C2A C1A 1_555 1_555
C3A C1 1_555 1_555
C4A C2A 1_555 1_555
C5A C3A 1_555 1_555
C6A O1A 1_555 1_555
C7A C9 1_555 1_555
C8A C7A 1_555 1_555
C9A C7 1_555 1_555
C10A C8A 1_555 1_555
C11A C9A 1_555 1_555
C12A O2A 1_555 1_555
O1A C1A 1_555 1_555
O2A C7A 1_555 1_555
Br1A C5A 1_555 1_555
Br2A C4A 1_555 1_555
Br3A C10A 1_555 1_555
Br4A C11A 1_555 1_555
H1A C4A 1_555 1_555
H2A C4A 1_555 1_555
H3A C5A 1_555 1_555
H4A C5A 1_555 1_555
H5A C6A 1_555 1_555
H6A C6A 1_555 1_555
H7A C6A 1_555 1_555
H8A C10A 1_555 1_555
H9A C10A 1_555 1_555
H10A C11A 1_555 1_555
H11A C11A 1_555 1_555
H12A C12A 1_555 1_555
H13A C12A 1_555 1_555
H14A C12A 1_555 1_555
C2A C3A 1_555 1_555
C8A C9A 1_555 1_555

#END
