
#######################################################################
#
#                 Cambridge Crystallographic Data Centre
#                                CCDC 
#
#######################################################################
#
# If this CIF has been generated from an entry in the Cambridge 
# Structural Database, then it will include bibliographic, chemical, 
# crystal, experimental, refinement or atomic coordinate data resulting 
# from the CCDC's data processing and validation procedures.
#
#######################################################################

data_BASZAY
_chemical_formula_moiety         'C7 H5 Br1 N2 S1,0.5(C4 H4 O4)'
_chemical_name_systematic        
'6-Bromo-1,3-benzothiazol-2-amine hemikis(fumaric acid)'
_symmetry_cell_setting           monoclinic
_symmetry_space_group_name_H-M   'P 21/c'
_symmetry_Int_Tables_number      14
_space_group_name_Hall           '-P 2ybc'
loop_
_symmetry_equiv_pos_site_id
_symmetry_equiv_pos_as_xyz
1 x,y,z
2 -x,1/2+y,1/2-z
3 -x,-y,-z
4 x,1/2-y,1/2+z
_cell_length_a                   17.8409(15)
_cell_length_b                   5.1980(4)
_cell_length_c                   11.7711(11)
_cell_angle_alpha                90
_cell_angle_beta                 106.959(1)
_cell_angle_gamma                90
_cell_volume                     1044.15
_exptl_crystal_colour            colorless
_exptl_crystal_description       block
_cell_formula_units_Z            4
loop_
_atom_site_label
_atom_site_type_symbol
_atom_site_fract_x
_atom_site_fract_y
_atom_site_fract_z
Br1 Br 0.02243(3) 0.82702(11) 0.38554(6)
S1 S 0.26889(7) 0.66001(19) 0.17895(10)
N1 N 0.30679(18) 0.2795(6) 0.3278(3)
N2 N 0.3873(2) 0.3212(7) 0.2049(3)
H1 H 0.4158 0.1925 0.2375
H2 H 0.3978 0.4036 0.1481
C1 C 0.3274(2) 0.3925(8) 0.2422(4)
C2 C 0.2410(2) 0.3932(8) 0.3477(4)
C3 C 0.2115(2) 0.6046(8) 0.2739(4)
C4 C 0.1463(2) 0.7372(8) 0.2839(4)
H4 H 0.1266 0.8779 0.2357
C5 C 0.1122(2) 0.6540(8) 0.3670(4)
C6 C 0.1402(2) 0.4445(9) 0.4412(4)
H5 H 0.1155 0.3938 0.4970
C7 C 0.2053(3) 0.3128(8) 0.4305(4)
H6 H 0.2247 0.1717 0.4787
O1 O 0.46142(17) 0.8743(6) 0.3543(3)
O2 O 0.37784(15) 0.8964(6) 0.4638(3)
H3 H 0.3605 1.0194 0.4205
C8 C 0.4366(2) 0.7957(7) 0.4344(4)
C9 C 0.4715(2) 0.5708(8) 0.5091(4)
H7 H 0.4523 0.5275 0.5720
O1B O 0.53858(17) 0.1257(6) 0.6457(3)
O2B O 0.62216(15) 0.1036(6) 0.5362(3)
H3B H 0.6395 -0.0194 0.5795
C8B C 0.5634(2) 0.2043(7) 0.5656(4)
C9B C 0.5285(2) 0.4292(8) 0.4909(4)
H7B H 0.5477 0.4725 0.4280
loop_
_geom_bond_atom_site_label_1
_geom_bond_atom_site_label_2
_geom_bond_site_symmetry_1
_geom_bond_site_symmetry_2
Br1 C5 1_555 1_555
S1 C1 1_555 1_555
N1 C1 1_555 1_555
N2 H1 1_555 1_555
H2 N2 1_555 1_555
O1 C8 1_555 1_555
O2 H3 1_555 1_555
C1 N2 1_555 1_555
C2 N1 1_555 1_555
C3 S1 1_555 1_555
C4 C3 1_555 1_555
H4 C4 1_555 1_555
C5 C4 1_555 1_555
C6 C5 1_555 1_555
H5 C6 1_555 1_555
C7 C2 1_555 1_555
H6 C7 1_555 1_555
C8 O2 1_555 1_555
C9 C8 1_555 1_555
H7 C9 1_555 1_555
O1B C8B 1_555 1_555
O2B H3B 1_555 1_555
C8B O2B 1_555 1_555
C9B C9 1_555 1_555
H7B C9B 1_555 1_555
C2 C3 1_555 1_555
C6 C7 1_555 1_555
C8B C9B 1_555 1_555

#END
