
#######################################################################
#
#                 Cambridge Crystallographic Data Centre
#                                CCDC 
#
#######################################################################
#
# If this CIF has been generated from an entry in the Cambridge 
# Structural Database, then it will include bibliographic, chemical, 
# crystal, experimental, refinement or atomic coordinate data resulting 
# from the CCDC's data processing and validation procedures.
#
#######################################################################

data_BASZIF
_chemical_formula_moiety         'C10 H17 N1 O1'
_chemical_name_systematic        
trans-2-Hydroxy-2,3,3-trimethylcyclohexane-1-carbonitrile
_symmetry_cell_setting           orthorhombic
_symmetry_space_group_name_H-M   'P 21 21 21'
_symmetry_Int_Tables_number      19
_space_group_name_Hall           'P 2ac 2ab'
loop_
_symmetry_equiv_pos_site_id
_symmetry_equiv_pos_as_xyz
1 x,y,z
2 1/2-x,-y,1/2+z
3 1/2+x,1/2-y,-z
4 -x,1/2+y,1/2-z
_cell_length_a                   11.389(7)
_cell_length_b                   12.106(6)
_cell_length_c                   7.087(4)
_cell_angle_alpha                90
_cell_angle_beta                 90
_cell_angle_gamma                90
_cell_volume                     977.122
_exptl_crystal_colour            colorless
_exptl_crystal_description       plate
_cell_formula_units_Z            4
loop_
_atom_site_label
_atom_site_type_symbol
_atom_site_fract_x
_atom_site_fract_y
_atom_site_fract_z
O1 O 0.5202(2) 0.3048(2) 1.0580(3)
N1 N 0.4692(3) 0.0353(2) 1.2522(5)
C1 C 0.4192(3) 0.1477(2) 0.9483(4)
C2 C 0.4079(3) 0.2734(2) 0.9847(4)
C3 C 0.3840(3) 0.3316(2) 0.7923(4)
C4 C 0.2750(3) 0.2813(3) 0.6976(4)
C5 C 0.2819(3) 0.1571(3) 0.6714(5)
C6 C 0.3088(3) 0.0987(3) 0.8552(5)
C7 C 0.4485(3) 0.0877(3) 1.1230(5)
C8 C 0.3146(3) 0.2962(3) 1.1323(4)
C9 C 0.3620(3) 0.4554(3) 0.8224(6)
C10 C 0.4905(3) 0.3204(3) 0.6593(5)
H1 H 0.4826 0.1374 0.8630
H2 H 0.2085 0.2976 0.7735
H3 H 0.2658 0.3146 0.5770
H4 H 0.3423 0.1405 0.5830
H5 H 0.2089 0.1309 0.6242
H6 H 0.3213 0.0224 0.8312
H7 H 0.2439 0.1072 0.9384
H8 H 0.2400 0.2752 1.0846
H9 H 0.3315 0.2550 1.2431
H10 H 0.3142 0.3728 1.1615
H11 H 0.2966 0.4649 0.9040
H12 H 0.4295 0.4880 0.8776
H13 H 0.3462 0.4894 0.7044
H14 H 0.5571 0.3542 0.7159
H15 H 0.4736 0.3561 0.5429
H16 H 0.5061 0.2446 0.6373
H17 H 0.5087 0.3870 1.0934
loop_
_geom_bond_atom_site_label_1
_geom_bond_atom_site_label_2
_geom_bond_site_symmetry_1
_geom_bond_site_symmetry_2
O1 C2 1_555 1_555
N1 C7 1_555 1_555
C1 C2 1_555 1_555
C2 C3 1_555 1_555
C3 C4 1_555 1_555
C4 C5 1_555 1_555
C5 C6 1_555 1_555
C6 C1 1_555 1_555
C7 C1 1_555 1_555
C8 C2 1_555 1_555
C9 C3 1_555 1_555
C10 C3 1_555 1_555
H1 C1 1_555 1_555
H2 C4 1_555 1_555
H3 C4 1_555 1_555
H4 C5 1_555 1_555
H5 C5 1_555 1_555
H6 C6 1_555 1_555
H7 C6 1_555 1_555
H8 C8 1_555 1_555
H9 C8 1_555 1_555
H10 C8 1_555 1_555
H11 C9 1_555 1_555
H12 C9 1_555 1_555
H13 C9 1_555 1_555
H14 C10 1_555 1_555
H15 C10 1_555 1_555
H16 C10 1_555 1_555
H17 O1 1_555 1_555

#END
