
#######################################################################
#
#                 Cambridge Crystallographic Data Centre
#                                CCDC 
#
#######################################################################
#
# If this CIF has been generated from an entry in the Cambridge 
# Structural Database, then it will include bibliographic, chemical, 
# crystal, experimental, refinement or atomic coordinate data resulting 
# from the CCDC's data processing and validation procedures.
#
#######################################################################

data_BASZUS
_chemical_formula_moiety         'C22 H34 Br4 O2'
_chemical_name_systematic        
1,2,4,5-tetrakis(Bromomethyl)-3,6-bis(2-ethylbutoxy)benzene
_symmetry_cell_setting           triclinic
_symmetry_space_group_name_H-M   'P -1'
_symmetry_Int_Tables_number      2
_space_group_name_Hall           '-P 1'
loop_
_symmetry_equiv_pos_site_id
_symmetry_equiv_pos_as_xyz
1 x,y,z
2 -x,-y,-z
_cell_length_a                   8.610(3)
_cell_length_b                   8.776(3)
_cell_length_c                   9.557(3)
_cell_angle_alpha                74.914(4)
_cell_angle_beta                 64.397(4)
_cell_angle_gamma                70.664(4)
_cell_volume                     608.644
_exptl_crystal_colour            colorless
_exptl_crystal_description       block
_chemical_melting_point          '422 K'
_cell_formula_units_Z            1
_exptl_crystal_recrystallization_method chloroform/hexane
loop_
_atom_site_label
_atom_site_type_symbol
_atom_site_fract_x
_atom_site_fract_y
_atom_site_fract_z
Br1 Br 0.15364(2) 0.435532(19) 0.62846(2)
C1 C 0.2218(2) 0.28926(18) 0.47417(19)
C2 C 0.3659(2) 0.14206(18) 0.48908(18)
C3 C 0.32274(19) -0.00553(18) 0.56898(17)
C4 C 0.5454(2) 0.14744(18) 0.41955(17)
C5 C 0.5967(2) 0.30353(19) 0.33856(19)
Br2 Br 0.59684(2) 0.35596(2) 0.124215(19)
O1 O 0.14827(14) -0.01309(14) 0.62725(13)
C6 C 0.0445(2) 0.0167(2) 0.78866(18)
C7 C -0.1464(2) 0.01766(19) 0.82551(18)
C8 C -0.1605(2) -0.1467(2) 0.8113(2)
C9 C -0.1098(2) -0.2883(2) 0.9277(2)
C10 C -0.2272(2) 0.1601(2) 0.7245(2)
C11 C -0.4284(2) 0.1920(2) 0.7785(2)
H1 H 0.2611 0.3504 0.3727
H2 H 0.1181 0.2535 0.4925
H3 H 0.5195 0.3941 0.3931
H4 H 0.7155 0.2935 0.3269
H5 H 0.0998 -0.0664 0.8515
H6 H 0.0537 0.1194 0.7991
H7 H -0.2171 0.0434 0.9389
H8 H -0.2807 -0.1322 0.8217
H9 H -0.0843 -0.1723 0.7011
H10 H -0.1344 -0.3878 0.9234
H11 H -0.1790 -0.2574 1.0274
H12 H 0.0153 -0.3034 0.9036
H13 H -0.2041 0.2599 0.7303
H14 H -0.1759 0.1347 0.6203
H15 H -0.4725 0.2830 0.7082
H16 H -0.4818 0.2242 0.8808
H17 H -0.4600 0.0949 0.7770
Br1A Br 0.84636(2) -0.435532(19) 0.37154(2)
C1A C 0.7782(2) -0.28926(18) 0.52583(19)
C2A C 0.6341(2) -0.14206(18) 0.51092(18)
C3A C 0.67726(19) 0.00553(18) 0.43102(17)
C4A C 0.4546(2) -0.14744(18) 0.58045(17)
C5A C 0.4033(2) -0.30353(19) 0.66144(19)
Br2A Br 0.40316(2) -0.35596(2) 0.875785(19)
O1A O 0.85173(14) 0.01309(14) 0.37275(13)
C6A C 0.9555(2) -0.0167(2) 0.21134(18)
C7A C 1.1464(2) -0.01766(19) 0.17449(18)
C8A C 1.1605(2) 0.1467(2) 0.1887(2)
C9A C 1.1098(2) 0.2883(2) 0.0723(2)
C10A C 1.2272(2) -0.1601(2) 0.2755(2)
C11A C 1.4284(2) -0.1920(2) 0.2215(2)
H1A H 0.7389 -0.3504 0.6273
H2A H 0.8819 -0.2535 0.5075
H3A H 0.4805 -0.3941 0.6069
H4A H 0.2845 -0.2935 0.6731
H5A H 0.9002 0.0664 0.1485
H6A H 0.9463 -0.1194 0.2009
H7A H 1.2171 -0.0434 0.0611
H8A H 1.2807 0.1322 0.1783
H9A H 1.0843 0.1723 0.2989
H10A H 1.1344 0.3878 0.0766
H11A H 1.1790 0.2574 -0.0274
H12A H 0.9847 0.3034 0.0964
H13A H 1.2041 -0.2599 0.2697
H14A H 1.1759 -0.1347 0.3797
H15A H 1.4725 -0.2830 0.2918
H16A H 1.4818 -0.2242 0.1192
H17A H 1.4600 -0.0949 0.2230
loop_
_geom_bond_atom_site_label_1
_geom_bond_atom_site_label_2
_geom_bond_site_symmetry_1
_geom_bond_site_symmetry_2
Br1 C1 1_555 1_555
C1 C2 1_555 1_555
C2 C3 1_555 1_555
C3 O1 1_555 1_555
C4 C2 1_555 1_555
C5 C4 1_555 1_555
Br2 C5 1_555 1_555
O1 C6 1_555 1_555
C6 C7 1_555 1_555
C7 C8 1_555 1_555
C8 C9 1_555 1_555
C9 H10 1_555 1_555
C10 C7 1_555 1_555
C11 C10 1_555 1_555
H1 C1 1_555 1_555
H2 C1 1_555 1_555
H3 C5 1_555 1_555
H4 C5 1_555 1_555
H5 C6 1_555 1_555
H6 C6 1_555 1_555
H7 C7 1_555 1_555
H8 C8 1_555 1_555
H9 C8 1_555 1_555
H11 C9 1_555 1_555
H12 C9 1_555 1_555
H13 C10 1_555 1_555
H14 C10 1_555 1_555
H15 C11 1_555 1_555
H16 C11 1_555 1_555
H17 C11 1_555 1_555
Br1A C1A 1_555 1_555
C1A C2A 1_555 1_555
C2A C3A 1_555 1_555
C3A C4 1_555 1_555
C4A C3 1_555 1_555
C5A C4A 1_555 1_555
Br2A C5A 1_555 1_555
O1A C3A 1_555 1_555
C6A O1A 1_555 1_555
C7A C6A 1_555 1_555
C8A C7A 1_555 1_555
C9A C8A 1_555 1_555
C10A C7A 1_555 1_555
C11A C10A 1_555 1_555
H1A C1A 1_555 1_555
H2A C1A 1_555 1_555
H3A C5A 1_555 1_555
H4A C5A 1_555 1_555
H5A C6A 1_555 1_555
H6A C6A 1_555 1_555
H7A C7A 1_555 1_555
H8A C8A 1_555 1_555
H9A C8A 1_555 1_555
H10A C9A 1_555 1_555
H11A C9A 1_555 1_555
H12A C9A 1_555 1_555
H13A C10A 1_555 1_555
H14A C10A 1_555 1_555
H15A C11A 1_555 1_555
H16A C11A 1_555 1_555
H17A C11A 1_555 1_555
C2A C4A 1_555 1_555

#END
