
#######################################################################
#
#                 Cambridge Crystallographic Data Centre
#                                CCDC 
#
#######################################################################
#
# If this CIF has been generated from an entry in the Cambridge 
# Structural Database, then it will include bibliographic, chemical, 
# crystal, experimental, refinement or atomic coordinate data resulting 
# from the CCDC's data processing and validation procedures.
#
#######################################################################

data_BATFAF
_chemical_formula_moiety         'C10 H10 N1 1+,C11 H7 O3 1-'
_chemical_name_systematic        '2-Methylquinolinium 3-hydroxy-2-naphthoate'
_symmetry_cell_setting           monoclinic
_symmetry_space_group_name_H-M   'P 21/c'
_symmetry_Int_Tables_number      14
_space_group_name_Hall           '-P 2ybc'
loop_
_symmetry_equiv_pos_site_id
_symmetry_equiv_pos_as_xyz
1 x,y,z
2 -x,1/2+y,1/2-z
3 -x,-y,-z
4 x,1/2-y,1/2+z
_cell_length_a                   13.0883(12)
_cell_length_b                   6.7662(7)
_cell_length_c                   18.8150(19)
_cell_angle_alpha                90
_cell_angle_beta                 93.731(1)
_cell_angle_gamma                90
_cell_volume                     1662.69
_exptl_crystal_colour            colorless
_exptl_crystal_description       block
_chemical_melting_point          '192-194 deg.C'
_cell_formula_units_Z            4
loop_
_atom_site_label
_atom_site_type_symbol
_atom_site_fract_x
_atom_site_fract_y
_atom_site_fract_z
N1 N 0.9211(2) 0.7296(4) 0.16691(13)
H1 H 0.8705 0.7268 0.1354
C12 C 1.0274(3) 0.7316(6) 0.06750(18)
H9 H 1.0429 0.6001 0.0524
H10 H 1.0822 0.8189 0.0570
H11 H 0.9650 0.7756 0.0428
C13 C 1.0149(3) 0.7321(5) 0.14616(17)
C14 C 1.0983(3) 0.7357(5) 0.19586(18)
H12 H 1.1645 0.7371 0.1807
C15 C 1.0832(3) 0.7373(5) 0.26634(18)
H13 H 1.1391 0.7403 0.2995
C16 C 0.9836(3) 0.7345(5) 0.28953(16)
C17 C 0.9022(2) 0.7315(5) 0.23763(16)
C18 C 0.8010(3) 0.7278(5) 0.25749(19)
H14 H 0.7468 0.7268 0.2230
C19 C 0.7827(3) 0.7256(6) 0.3279(2)
H15 H 0.7156 0.7229 0.3414
C20 C 0.8639(3) 0.7275(6) 0.38026(19)
H16 H 0.8503 0.7247 0.4282
C21 C 0.9615(3) 0.7332(5) 0.36169(17)
H17 H 1.0147 0.7362 0.3969
O1 O 0.2335(2) 0.2976(4) -0.07557(13)
O2 O 0.1966(2) 0.6172(5) -0.06378(14)
O3 O 0.2892(2) 0.8204(5) 0.03790(16)
H2 H 0.2501 0.7999 0.0028
C1 C 0.2478(3) 0.4706(7) -0.04626(18)
C2 C 0.3897(3) 0.3191(6) 0.02891(17)
H3 H 0.3798 0.2046 0.0020
C3 C 0.3297(3) 0.4803(6) 0.01265(17)
C4 C 0.3448(3) 0.6554(6) 0.0535(2)
C5 C 0.4152(3) 0.6581(7) 0.1104(2)
H4 H 0.4223 0.7713 0.1383
C6 C 0.4767(3) 0.4940(7) 0.12740(19)
C7 C 0.4660(3) 0.3210(6) 0.08531(18)
C8 C 0.5293(3) 0.1588(7) 0.1017(2)
H5 H 0.5220 0.0447 0.0743
C9 C 0.6019(3) 0.1649(9) 0.1573(3)
H6 H 0.6440 0.0564 0.1674
C10 C 0.6119(3) 0.3343(9) 0.1985(2)
H7 H 0.6614 0.3379 0.2362
C11 C 0.5520(3) 0.4947(8) 0.1854(2)
H8 H 0.5601 0.6057 0.2144
loop_
_geom_bond_atom_site_label_1
_geom_bond_atom_site_label_2
_geom_bond_site_symmetry_1
_geom_bond_site_symmetry_2
N1 H1 1_555 1_555
O1 C1 1_555 1_555
O2 C1 1_555 1_555
O3 H2 1_555 1_555
C1 C3 1_555 1_555
C2 H3 1_555 1_555
C3 C2 1_555 1_555
C4 O3 1_555 1_555
C5 C4 1_555 1_555
H4 C5 1_555 1_555
C6 C5 1_555 1_555
C7 C2 1_555 1_555
C8 C7 1_555 1_555
H5 C8 1_555 1_555
C9 C8 1_555 1_555
H6 C9 1_555 1_555
C10 C9 1_555 1_555
H7 C10 1_555 1_555
C11 C6 1_555 1_555
H8 C11 1_555 1_555
C12 H9 1_555 1_555
H10 C12 1_555 1_555
H11 C12 1_555 1_555
C13 N1 1_555 1_555
C14 C13 1_555 1_555
H12 C14 1_555 1_555
C15 C14 1_555 1_555
H13 C15 1_555 1_555
C16 C15 1_555 1_555
C17 N1 1_555 1_555
C18 C17 1_555 1_555
H14 C18 1_555 1_555
C19 C18 1_555 1_555
H15 C19 1_555 1_555
C20 C19 1_555 1_555
H16 C20 1_555 1_555
C21 C16 1_555 1_555
H17 C21 1_555 1_555
C3 C4 1_555 1_555
C6 C7 1_555 1_555
C10 C11 1_555 1_555
C12 C13 1_555 1_555
C16 C17 1_555 1_555
C20 C21 1_555 1_555

#END
