
#######################################################################
#
#                 Cambridge Crystallographic Data Centre
#                                CCDC 
#
#######################################################################
#
# If this CIF has been generated from an entry in the Cambridge 
# Structural Database, then it will include bibliographic, chemical, 
# crystal, experimental, refinement or atomic coordinate data resulting 
# from the CCDC's data processing and validation procedures.
#
#######################################################################

data_BATFEJ
_chemical_formula_moiety         'C10 H10 N1 1+,0.5(C2 O4 2-),H2 O1'
_chemical_name_systematic        
'2-Methylquinolinium hemikis(oxalate) monohydrate'
_symmetry_cell_setting           monoclinic
_symmetry_space_group_name_H-M   'P 21/c'
_symmetry_Int_Tables_number      14
_space_group_name_Hall           '-P 2ybc'
loop_
_symmetry_equiv_pos_site_id
_symmetry_equiv_pos_as_xyz
1 x,y,z
2 -x,1/2+y,1/2-z
3 -x,-y,-z
4 x,1/2-y,1/2+z
_cell_length_a                   6.9424(5)
_cell_length_b                   12.1158(12)
_cell_length_c                   11.7782(11)
_cell_angle_alpha                90
_cell_angle_beta                 93.062(1)
_cell_angle_gamma                90
_cell_volume                     989.282
_exptl_crystal_colour            colorless
_exptl_crystal_description       block
_chemical_melting_point          '142-143 deg.C'
_cell_formula_units_Z            4
loop_
_atom_site_label
_atom_site_type_symbol
_atom_site_fract_x
_atom_site_fract_y
_atom_site_fract_z
N1 N 0.3013(3) 0.46724(15) 0.15523(15)
H1 H 0.3288 0.4773 0.2265
C1 C 0.3116(4) 0.2729(2) 0.1997(2)
H4 H 0.3829 0.2982 0.2668
H5 H 0.3794 0.2128 0.1667
H6 H 0.1863 0.2483 0.2195
C2 C 0.2903(3) 0.36481(18) 0.11621(18)
C3 C 0.2557(3) 0.34706(19) -0.00057(18)
H7 H 0.2502 0.2754 -0.0289
C4 C 0.2301(3) 0.43387(19) -0.07248(19)
H8 H 0.2091 0.4215 -0.1501
C5 C 0.2351(3) 0.54278(18) -0.03031(17)
C6 C 0.2708(3) 0.55816(18) 0.08693(17)
C7 C 0.2721(3) 0.66398(19) 0.13485(19)
H9 H 0.2952 0.6733 0.2128
C8 C 0.2391(4) 0.7528(2) 0.0663(2)
H10 H 0.2394 0.8232 0.0977
C9 C 0.2046(4) 0.7398(2) -0.0512(2)
H11 H 0.1824 0.8016 -0.0968
C10 C 0.2032(3) 0.6376(2) -0.09918(19)
H12 H 0.1813 0.6299 -0.1774
O1 O 0.2719(3) 0.44231(16) 0.47148(14)
O2 O 0.4780(3) 0.51131(15) 0.35199(13)
C11 C 0.4266(4) 0.48621(18) 0.4495(2)
O1B O 0.7281(3) 0.55769(16) 0.52852(14)
O2B O 0.5220(3) 0.48869(15) 0.64801(13)
C11B C 0.5734(4) 0.51379(18) 0.5505(2)
O3 O 0.9484(3) 0.51370(16) 0.33195(14)
H2 H 1.0528 0.4907 0.3648
H3 H 0.8707 0.5296 0.3829
loop_
_geom_bond_atom_site_label_1
_geom_bond_atom_site_label_2
_geom_bond_site_symmetry_1
_geom_bond_site_symmetry_2
N1 H1 1_555 1_555
O1 C11 1_555 1_555
O2 C11 1_555 1_555
O3 H2 1_555 1_555
H3 O3 1_555 1_555
C1 H4 1_555 1_555
H5 C1 1_555 1_555
H6 C1 1_555 1_555
C2 N1 1_555 1_555
C3 C2 1_555 1_555
H7 C3 1_555 1_555
C4 C3 1_555 1_555
H8 C4 1_555 1_555
C5 C4 1_555 1_555
C6 N1 1_555 1_555
C7 C6 1_555 1_555
H9 C7 1_555 1_555
C8 C7 1_555 1_555
H10 C8 1_555 1_555
C9 C8 1_555 1_555
H11 C9 1_555 1_555
C10 C5 1_555 1_555
H12 C10 1_555 1_555
C11 C11B 1_555 1_555
O1B C11B 1_555 1_555
O2B C11B 1_555 1_555
C1 C2 1_555 1_555
C5 C6 1_555 1_555
C9 C10 1_555 1_555

#END
