
#######################################################################
#
#                 Cambridge Crystallographic Data Centre
#                                CCDC 
#
#######################################################################
#
# If this CIF has been generated from an entry in the Cambridge 
# Structural Database, then it will include bibliographic, chemical, 
# crystal, experimental, refinement or atomic coordinate data resulting 
# from the CCDC's data processing and validation procedures.
#
#######################################################################

data_BATFOT
_chemical_formula_moiety         'C10 H10 N1 1+,C7 H3 N2 O6 1-,H2 O1'
_chemical_name_systematic        
'2-Methylquinolinium 3,5-dinitrobenzoate monohydrate'
_symmetry_cell_setting           monoclinic
_symmetry_space_group_name_H-M   'P 21/c'
_symmetry_Int_Tables_number      14
_space_group_name_Hall           '-P 2ybc'
loop_
_symmetry_equiv_pos_site_id
_symmetry_equiv_pos_as_xyz
1 x,y,z
2 -x,1/2+y,1/2-z
3 -x,-y,-z
4 x,1/2-y,1/2+z
_cell_length_a                   12.5912(11)
_cell_length_b                   7.2015(6)
_cell_length_c                   18.8211(16)
_cell_angle_alpha                90
_cell_angle_beta                 99.376(1)
_cell_angle_gamma                90
_cell_volume                     1683.81
_exptl_crystal_colour            colorless
_exptl_crystal_description       block
_cell_formula_units_Z            4
loop_
_atom_site_label
_atom_site_type_symbol
_atom_site_fract_x
_atom_site_fract_y
_atom_site_fract_z
N1 N 0.92222(19) 0.7392(3) 0.66514(13)
H1 H 0.8688 0.7354 0.6303
C1 C 1.0326(3) 0.7334(6) 0.5721(2)
H4 H 1.1072 0.7181 0.5682
H5 H 1.0063 0.8470 0.5490
H6 H 0.9920 0.6307 0.5492
C2 C 1.0209(3) 0.7402(4) 0.64911(18)
C3 C 1.1083(2) 0.7467(5) 0.70554(19)
H7 H 1.1780 0.7494 0.6952
C4 C 1.0923(2) 0.7492(5) 0.77478(19)
H8 H 1.1511 0.7524 0.8117
C5 C 0.9873(2) 0.7469(4) 0.79134(16)
C6 C 0.9009(2) 0.7437(4) 0.73371(16)
C7 C 0.7940(2) 0.7460(5) 0.74651(19)
H9 H 0.7370 0.7471 0.7083
C8 C 0.7752(3) 0.7465(5) 0.8153(2)
H10 H 0.7046 0.7483 0.8241
C9 C 0.8595(3) 0.7445(5) 0.87309(19)
H11 H 0.8445 0.7427 0.9199
C10 C 0.9635(3) 0.7452(5) 0.86223(18)
H12 H 1.0191 0.7446 0.9014
N2 N 0.4167(2) 0.8222(4) 0.37943(16)
N3 N 0.5424(2) 0.2059(4) 0.32664(16)
O1 O 0.7521(2) 0.7071(4) 0.56454(14)
O2 O 0.7804(3) 0.4080(4) 0.55935(16)
O3 O 0.4215(2) 0.9521(4) 0.42086(17)
O4 O 0.3539(2) 0.8131(4) 0.32250(16)
O5 O 0.4635(2) 0.1905(4) 0.28009(14)
O6 O 0.6143(2) 0.0912(4) 0.33654(17)
C11 C 0.7332(2) 0.5495(5) 0.53811(17)
C12 C 0.6442(2) 0.5369(4) 0.47328(15)
C13 C 0.5732(2) 0.6849(4) 0.45600(15)
H13 H 0.5801 0.7930 0.4834
C14 C 0.4924(2) 0.6671(4) 0.39737(16)
C15 C 0.4792(2) 0.5124(4) 0.35472(15)
H14 H 0.4237 0.5036 0.3156
C16 C 0.5516(2) 0.3705(4) 0.37230(16)
C17 C 0.6329(2) 0.3790(4) 0.43124(16)
H15 H 0.6795 0.2792 0.4424
O7 O 0.8114(3) 0.0451(5) 0.5215(2)
H2 H 0.7934 0.1454 0.5402
H3 H 0.7854 -0.0460 0.5418
loop_
_geom_bond_atom_site_label_1
_geom_bond_atom_site_label_2
_geom_bond_site_symmetry_1
_geom_bond_site_symmetry_2
N1 H1 1_555 1_555
N2 O3 1_555 1_555
N3 O5 1_555 1_555
O1 C11 1_555 1_555
O2 C11 1_555 1_555
O4 N2 1_555 1_555
O6 N3 1_555 1_555
O7 H2 1_555 1_555
H3 O7 1_555 1_555
C1 H4 1_555 1_555
H5 C1 1_555 1_555
H6 C1 1_555 1_555
C2 N1 1_555 1_555
C3 C2 1_555 1_555
H7 C3 1_555 1_555
C4 C3 1_555 1_555
H8 C4 1_555 1_555
C5 C4 1_555 1_555
C6 N1 1_555 1_555
C7 C6 1_555 1_555
H9 C7 1_555 1_555
C8 C7 1_555 1_555
H10 C8 1_555 1_555
C9 C8 1_555 1_555
H11 C9 1_555 1_555
C10 C5 1_555 1_555
H12 C10 1_555 1_555
C11 C12 1_555 1_555
C12 C13 1_555 1_555
C13 H13 1_555 1_555
C14 N2 1_555 1_555
C15 C14 1_555 1_555
H14 C15 1_555 1_555
C16 N3 1_555 1_555
C17 C12 1_555 1_555
H15 C17 1_555 1_555
C1 C2 1_555 1_555
C5 C6 1_555 1_555
C9 C10 1_555 1_555
C13 C14 1_555 1_555
C15 C16 1_555 1_555
C16 C17 1_555 1_555

#END
