
#######################################################################
#
#                 Cambridge Crystallographic Data Centre
#                                CCDC 
#
#######################################################################
#
# If this CIF has been generated from an entry in the Cambridge 
# Structural Database, then it will include bibliographic, chemical, 
# crystal, experimental, refinement or atomic coordinate data resulting 
# from the CCDC's data processing and validation procedures.
#
#######################################################################

data_BATNES
_chemical_formula_moiety         'C38 H29 N7 O2 S2'
_chemical_name_systematic        
N,N-bis(4-(((5-(4-methoxyphenyl)-1,3,4-thiadiazol-2-yl)imino)methyl)phenyl)aniline
_symmetry_cell_setting           monoclinic
_symmetry_space_group_name_H-M   'P 2/n'
_symmetry_Int_Tables_number      13
_space_group_name_Hall           '-P 2yac'
loop_
_symmetry_equiv_pos_site_id
_symmetry_equiv_pos_as_xyz
1 x,y,z
2 1/2-x,y,1/2-z
3 -x,-y,-z
4 1/2+x,-y,1/2+z
_cell_length_a                   17.3022(19)
_cell_length_b                   9.5743(11)
_cell_length_c                   31.163(4)
_cell_angle_alpha                90
_cell_angle_beta                 103.872(2)
_cell_angle_gamma                90
_cell_volume                     5011.79
_exptl_crystal_colour            red
_exptl_crystal_description       block
_cell_formula_units_Z            6
loop_
_atom_site_label
_atom_site_type_symbol
_atom_site_fract_x
_atom_site_fract_y
_atom_site_fract_z
S1 S 0.59415(5) 1.10745(10) 0.03102(3)
S2 S 1.22898(5) 1.03104(12) 0.45235(3)
N1 N 0.90341(16) 0.6055(3) 0.23734(8)
N2 N 0.62320(18) 0.9547(3) 0.10963(9)
O1 O 0.38670(15) 1.5532(3) -0.12065(8)
C1 C 0.7196(2) 0.7446(4) 0.16350(11)
H1 H 0.6651 0.7273 0.1566
C2 C 0.47451(19) 1.2892(3) -0.01470(10)
O2 O 1.44203(18) 1.4287(3) 0.61638(9)
C3 C 0.50539(18) 1.1982(3) 0.02283(11)
C4 C 0.9460(2) 0.7979(4) 0.28807(11)
H2 H 0.8959 0.8381 0.2783
C5 C 1.2575(2) 0.9128(4) 0.41692(12)
C6 C 0.4757(2) 1.3816(4) -0.08616(11)
H3 H 0.4973 1.3823 -0.1107
C7 C 0.3794(2) 1.4653(4) -0.04919(11)
H4 H 0.3361 1.5219 -0.0484
C8 C 0.9625(2) 0.6728(4) 0.26977(11)
C9 C 1.3289(2) 1.0528(4) 0.47682(12)
N3 N 1.37477(17) 0.9773(4) 0.45887(11)
C10 C 1.4390(2) 1.1547(4) 0.53389(12)
H5 H 1.4737 1.0956 0.5240
N4 N 1.20723(18) 0.8387(3) 0.38313(10)
C11 C 1.0775(2) 0.8062(4) 0.33551(11)
C12 C 0.6968(2) 0.9476(3) 0.11191(10)
H6 H 0.7185 1.0031 0.0933
N5 N 1.33448(19) 0.8942(4) 0.42486(11)
C13 C 0.5747(2) 1.0445(4) 0.07991(11)
C14 C 0.8507(2) 0.6866(3) 0.20480(10)
C15 C 0.8957(2) 0.4572(4) 0.23784(11)
N6 N 0.46871(17) 1.1779(3) 0.05449(10)
C16 C 0.7491(2) 0.8541(3) 0.14315(10)
N7 N 0.50767(18) 1.0886(3) 0.08674(10)
C17 C 0.8803(2) 0.7928(4) 0.18401(11)
H7 H 0.9349 0.8094 0.1909
C18 C 1.3585(2) 1.1483(4) 0.51388(12)
C19 C 0.4128(2) 1.4694(4) -0.08511(11)
C20 C 1.1352(2) 0.8774(4) 0.37041(11)
H8 H 1.1185 0.9546 0.3839
C21 C 0.8308(2) 0.8753(3) 0.15311(11)
H9 H 0.8522 0.9456 0.1388
C22 C 1.4694(2) 1.2461(4) 0.56800(13)
H10 H 1.5237 1.2481 0.5808
C23 C 0.7697(2) 0.6612(4) 0.19374(11)
H11 H 0.7491 0.5873 0.2068
C24 C 1.0383(2) 0.6162(4) 0.28438(11)
H12 H 1.0510 0.5334 0.2721
C25 C 1.4193(2) 1.3335(4) 0.58279(12)
C26 C 0.50667(19) 1.2938(4) -0.05186(11)
H13 H 0.5495 1.2366 -0.0532
C27 C 1.0020(2) 0.8636(4) 0.32037(11)
H14 H 0.9895 0.9473 0.3323
C28 C 0.4106(2) 1.3767(4) -0.01435(11)
H15 H 0.3882 1.3755 0.0100
C29 C 0.8802(2) 0.3829(4) 0.19873(11)
H16 H 0.8763 0.4295 0.1721
C30 C 0.3159(2) 1.6317(4) -0.12327(12)
H17 H 0.2725 1.5691 -0.1232
H18 H 0.3042 1.6855 -0.1500
H19 H 0.3232 1.6932 -0.0983
C31 C 1.3089(2) 1.2365(5) 0.52996(13)
H20 H 1.2544 1.2341 0.5175
C32 C 1.3383(2) 1.3275(4) 0.56377(13)
H21 H 1.3037 1.3857 0.5741
C33 C 0.9018(2) 0.3875(4) 0.27712(12)
H22 H 0.9116 0.4370 0.3036
C34 C 1.0946(2) 0.6813(4) 0.31681(11)
H23 H 1.1448 0.6414 0.3264
C35 C 0.8705(3) 0.2406(4) 0.19887(14)
H24 H 0.8596 0.1913 0.1724
C36 C 1.5238(3) 1.4364(5) 0.63802(14)
H25 H 1.5421 1.3460 0.6494
H26 H 1.5310 1.5020 0.6620
H27 H 1.5536 1.4664 0.6174
C37 C 0.8769(3) 0.1715(5) 0.23781(17)
H28 H 0.8701 0.0751 0.2378
C38 C 0.8934(3) 0.2439(5) 0.27731(15)
H29 H 0.8988 0.1963 0.3039
S3 S 0.92726(6) 0.30098(12) 0.03500(3)
N8 N 0.78238(19) 0.2710(4) 0.03678(12)
O3 O 0.70297(19) 0.6861(3) -0.12947(9)
C39 C 0.7946(2) 0.4197(4) -0.02404(12)
C40 C 0.9006(2) 0.2024(4) 0.07562(13)
C41 C 0.8272(2) 0.3319(4) 0.01424(12)
C42 C 0.7153(2) 0.4293(4) -0.04062(13)
H30 H 0.6816 0.3755 -0.0281
N9 N 0.9525(2) 0.1341(3) 0.11032(11)
C43 C 1.1938(2) -0.0583(4) 0.21814(14)
N10 N 1.2500 -0.1342(5) 0.2500
C44 C 1.0826(2) 0.0832(4) 0.15306(14)
N11 N 0.8248(2) 0.1968(4) 0.07196(12)
C45 C 0.6820(2) 0.5178(4) -0.07605(13)
H31 H 0.6270 0.5230 -0.0865
C46 C 1.2174(2) 0.0427(5) 0.19353(14)
H32 H 1.2712 0.0646 0.1984
C47 C 1.2500 -0.2817(6) 0.2500
C48 C 0.7298(3) 0.5955(5) -0.09513(13)
C49 C 1.2233(2) -0.3547(5) 0.21120(14)
H33 H 1.2053 -0.3070 0.1847
C50 C 1.0265(3) 0.1523(4) 0.11770(14)
H34 H 1.0460 0.2131 0.0995
C51 C 1.1628(3) 0.1136(5) 0.16129(14)
H35 H 1.1803 0.1827 0.1449
C52 C 0.8438(3) 0.4990(5) -0.04435(14)
H36 H 0.8988 0.4928 -0.0341
C53 C 1.0596(3) -0.0124(5) 0.17918(18)
H37 H 1.0056 -0.0305 0.1754
C54 C 1.2232(3) -0.4989(5) 0.21173(17)
H38 H 1.2045 -0.5468 0.1853
C55 C 0.8129(3) 0.5834(5) -0.07832(15)
H39 H 0.8469 0.6352 -0.0912
C56 C 0.6207(3) 0.7102(5) -0.14474(14)
H40 H 0.5934 0.6225 -0.1509
H41 H 0.6111 0.7654 -0.1712
H42 H 0.6015 0.7592 -0.1225
C57 C 1.1137(2) -0.0845(5) 0.21136(17)
H43 H 1.0958 -0.1509 0.2285
C58 C 1.2500 -0.5738(7) 0.2500
H44 H 1.2500 -0.6710 0.2500
S3A S 1.57274(6) 0.30098(12) 0.46500(3)
N8A N 1.71762(19) 0.2710(4) 0.46322(12)
O3A O 1.79703(19) 0.6861(3) 0.62947(9)
C39A C 1.7054(2) 0.4197(4) 0.52404(12)
C40A C 1.5994(2) 0.2024(4) 0.42438(13)
C41A C 1.6728(2) 0.3319(4) 0.48576(12)
C42A C 1.7847(2) 0.4293(4) 0.54062(13)
H30A H 1.8184 0.3755 0.5281
N9A N 1.5475(2) 0.1341(3) 0.38968(11)
C43A C 1.3062(2) -0.0583(4) 0.28186(14)
C44A C 1.4174(2) 0.0832(4) 0.34694(14)
N11A N 1.6752(2) 0.1968(4) 0.42804(12)
C45A C 1.8180(2) 0.5178(4) 0.57605(13)
H31A H 1.8730 0.5230 0.5865
C46A C 1.2826(2) 0.0427(5) 0.30647(14)
H32A H 1.2288 0.0646 0.3016
C48A C 1.7702(3) 0.5955(5) 0.59513(13)
C49A C 1.2767(2) -0.3547(5) 0.28880(14)
H33A H 1.2947 -0.3070 0.3153
C50A C 1.4735(3) 0.1523(4) 0.38230(14)
H34A H 1.4540 0.2131 0.4005
C51A C 1.3372(3) 0.1136(5) 0.33871(14)
H35A H 1.3197 0.1827 0.3551
C52A C 1.6562(3) 0.4990(5) 0.54435(14)
H36A H 1.6012 0.4928 0.5341
C53A C 1.4404(3) -0.0124(5) 0.32082(18)
H37A H 1.4944 -0.0305 0.3246
C54A C 1.2768(3) -0.4989(5) 0.28827(17)
H38A H 1.2955 -0.5468 0.3147
C55A C 1.6871(3) 0.5834(5) 0.57832(15)
H39A H 1.6531 0.6352 0.5912
C56A C 1.8793(3) 0.7102(5) 0.64474(14)
H40A H 1.9066 0.6225 0.6509
H41A H 1.8889 0.7654 0.6712
H42A H 1.8985 0.7592 0.6225
C57A C 1.3863(2) -0.0845(5) 0.28864(17)
H43A H 1.4042 -0.1509 0.2715
loop_
_geom_bond_atom_site_label_1
_geom_bond_atom_site_label_2
_geom_bond_site_symmetry_1
_geom_bond_site_symmetry_2
S1 C3 1_555 1_555
S2 C5 1_555 1_555
N1 C8 1_555 1_555
N2 C12 1_555 1_555
O1 C19 1_555 1_555
C1 H1 1_555 1_555
C2 C3 1_555 1_555
O2 C25 1_555 1_555
C3 N6 1_555 1_555
C4 H2 1_555 1_555
C5 N4 1_555 1_555
C6 H3 1_555 1_555
C7 H4 1_555 1_555
C8 C4 1_555 1_555
C9 S2 1_555 1_555
N3 C9 1_555 1_555
C10 H5 1_555 1_555
N4 C20 1_555 1_555
C11 C20 1_555 1_555
C12 H6 1_555 1_555
N5 C5 1_555 1_555
C13 S1 1_555 1_555
C14 N1 1_555 1_555
C15 N1 1_555 1_555
N6 N7 1_555 1_555
C16 C1 1_555 1_555
N7 C13 1_555 1_555
C17 C14 1_555 1_555
H7 C17 1_555 1_555
C18 C9 1_555 1_555
C19 C6 1_555 1_555
C20 H8 1_555 1_555
C21 C16 1_555 1_555
H9 C21 1_555 1_555
C22 C10 1_555 1_555
H10 C22 1_555 1_555
C23 C1 1_555 1_555
H11 C23 1_555 1_555
C24 C8 1_555 1_555
H12 C24 1_555 1_555
C25 C22 1_555 1_555
C26 C2 1_555 1_555
H13 C26 1_555 1_555
C27 C4 1_555 1_555
H14 C27 1_555 1_555
C28 C2 1_555 1_555
H15 C28 1_555 1_555
C29 C15 1_555 1_555
H16 C29 1_555 1_555
C30 O1 1_555 1_555
H17 C30 1_555 1_555
H18 C30 1_555 1_555
H19 C30 1_555 1_555
C31 C18 1_555 1_555
H20 C31 1_555 1_555
C32 C25 1_555 1_555
H21 C32 1_555 1_555
C33 C15 1_555 1_555
H22 C33 1_555 1_555
C34 C11 1_555 1_555
H23 C34 1_555 1_555
C35 C29 1_555 1_555
H24 C35 1_555 1_555
C36 O2 1_555 1_555
H25 C36 1_555 1_555
H26 C36 1_555 1_555
H27 C36 1_555 1_555
C37 C35 1_555 1_555
H28 C37 1_555 1_555
C38 C33 1_555 1_555
H29 C38 1_555 1_555
S3 C40 1_555 1_555
N8 C41 1_555 1_555
O3 C48 1_555 1_555
C39 C41 1_555 1_555
C40 N9 1_555 1_555
C41 S3 1_555 1_555
C42 C39 1_555 1_555
H30 C42 1_555 1_555
N9 C50 1_555 1_555
C43 N10 1_555 1_555
N10 C47 1_555 1_555
C44 C50 1_555 1_555
N11 N8 1_555 1_555
C45 C42 1_555 1_555
H31 C45 1_555 1_555
C46 C43 1_555 1_555
H32 C46 1_555 1_555
C47 C49 1_555 1_555
C48 C45 1_555 1_555
C49 H33 1_555 1_555
C50 H34 1_555 1_555
C51 C44 1_555 1_555
H35 C51 1_555 1_555
C52 C39 1_555 1_555
H36 C52 1_555 1_555
C53 C44 1_555 1_555
H37 C53 1_555 1_555
C54 C49 1_555 1_555
H38 C54 1_555 1_555
C55 C48 1_555 1_555
H39 C55 1_555 1_555
C56 O3 1_555 1_555
H40 C56 1_555 1_555
H41 C56 1_555 1_555
H42 C56 1_555 1_555
C57 C43 1_555 1_555
H43 C57 1_555 1_555
C58 C54 1_555 1_555
H44 C58 1_555 1_555
S3A C40A 1_555 1_555
N8A C41A 1_555 1_555
O3A C48A 1_555 1_555
C39A C41A 1_555 1_555
C40A N9A 1_555 1_555
C41A S3A 1_555 1_555
C42A C39A 1_555 1_555
H30A C42A 1_555 1_555
N9A C50A 1_555 1_555
C43A N10 1_555 1_555
C44A C50A 1_555 1_555
N11A N8A 1_555 1_555
C45A C42A 1_555 1_555
H31A C45A 1_555 1_555
C46A C43A 1_555 1_555
H32A C46A 1_555 1_555
C48A C45A 1_555 1_555
C49A C47 1_555 1_555
H33A C49A 1_555 1_555
C50A H34A 1_555 1_555
C51A C44A 1_555 1_555
H35A C51A 1_555 1_555
C52A C39A 1_555 1_555
H36A C52A 1_555 1_555
C53A C44A 1_555 1_555
H37A C53A 1_555 1_555
C54A C58 1_555 1_555
H38A C54A 1_555 1_555
C55A C48A 1_555 1_555
H39A C55A 1_555 1_555
C56A O3A 1_555 1_555
H40A C56A 1_555 1_555
H41A C56A 1_555 1_555
H42A C56A 1_555 1_555
C57A C43A 1_555 1_555
H43A C57A 1_555 1_555
N2 C13 1_555 1_555
C6 C26 1_555 1_555
C7 C19 1_555 1_555
C7 C28 1_555 1_555
N3 N5 1_555 1_555
C10 C18 1_555 1_555
C11 C27 1_555 1_555
C12 C16 1_555 1_555
C14 C23 1_555 1_555
C17 C21 1_555 1_555
C24 C34 1_555 1_555
C31 C32 1_555 1_555
C37 C38 1_555 1_555
C40 N11 1_555 1_555
C46 C51 1_555 1_555
C52 C55 1_555 1_555
C53 C57 1_555 1_555
C40A N11A 1_555 1_555
C46A C51A 1_555 1_555
C49A C54A 1_555 1_555
C52A C55A 1_555 1_555
C53A C57A 1_555 1_555

#END
