
#######################################################################
#
#                 Cambridge Crystallographic Data Centre
#                                CCDC 
#
#######################################################################
#
# If this CIF has been generated from an entry in the Cambridge 
# Structural Database, then it will include bibliographic, chemical, 
# crystal, experimental, refinement or atomic coordinate data resulting 
# from the CCDC's data processing and validation procedures.
#
#######################################################################

data_BATNIW
_chemical_formula_moiety         'C28 H20 N4 O1 S1'
_chemical_name_systematic        
1-(4-(9H-carbazol-9-yl)phenyl)-N-(5-(4-methoxyphenyl)-1,3,4-thiadiazol-2-yl)methanimine
_symmetry_cell_setting           triclinic
_symmetry_space_group_name_H-M   'P -1'
_symmetry_Int_Tables_number      2
_space_group_name_Hall           '-P 1'
loop_
_symmetry_equiv_pos_site_id
_symmetry_equiv_pos_as_xyz
1 x,y,z
2 -x,-y,-z
_cell_length_a                   9.5589(10)
_cell_length_b                   9.6923(10)
_cell_length_c                   13.4941(14)
_cell_angle_alpha                92.4470(10)
_cell_angle_beta                 107.4350(10)
_cell_angle_gamma                107.8500(10)
_cell_volume                     1122.82
_exptl_crystal_colour            red
_exptl_crystal_description       block
_cell_formula_units_Z            2
loop_
_atom_site_label
_atom_site_type_symbol
_atom_site_fract_x
_atom_site_fract_y
_atom_site_fract_z
N1 N 0.94192(19) -0.03417(17) 0.18758(12)
S1 S 0.90963(6) -0.14466(6) 0.36996(4)
O1 O 1.09362(15) -0.49693(15) 0.78386(10)
N2 N 0.59291(18) 0.30001(16) -0.15429(11)
N3 N 1.15865(19) -0.19605(19) 0.37815(12)
C1 C 0.9964(2) -0.0986(2) 0.27436(14)
C2 C 0.5751(2) 0.4884(2) -0.24823(14)
C3 C 0.7731(2) 0.09109(19) 0.09572(14)
C4 C 1.0696(2) -0.27821(19) 0.52407(14)
C5 C 1.0593(2) -0.2106(2) 0.42852(14)
C6 C 0.7577(2) 0.15836(19) -0.07636(14)
H1 H 0.7876 0.1574 -0.1359
C7 C 1.0799(2) -0.4221(2) 0.69996(14)
C8 C 0.6651(2) 0.1591(2) 0.09964(15)
H2 H 0.6337 0.1591 0.1585
N4 N 1.1221(2) -0.1320(2) 0.28882(13)
C9 C 0.6510(2) 0.22647(19) -0.07029(14)
C10 C 0.5130(2) 0.3530(2) -0.32094(14)
C11 C 0.5299(2) 0.24035(19) -0.26061(13)
C12 C 1.1893(2) -0.4128(2) 0.64968(15)
H3 H 1.2663 -0.4545 0.6748
C13 C 0.9670(2) -0.3580(2) 0.66343(15)
H4 H 0.8937 -0.3632 0.6968
C14 C 0.8379(2) 0.0235(2) 0.18442(15)
H5 H 0.8017 0.0223 0.2412
C15 C 1.1841(2) -0.3421(2) 0.56292(15)
H6 H 1.2577 -0.3368 0.5298
C16 C 0.8185(2) 0.0926(2) 0.00637(14)
H7 H 0.8909 0.0484 0.0028
C17 C 0.6219(2) 0.45134(19) -0.14658(14)
C18 C 0.4855(2) 0.0959(2) -0.30684(14)
H8 H 0.4982 0.0224 -0.2665
C19 C 0.9640(2) -0.2859(2) 0.57679(15)
H9 H 0.8890 -0.2414 0.5534
C20 C 0.4219(2) 0.0656(2) -0.41443(15)
H10 H 0.3909 -0.0303 -0.4472
C21 C 0.6046(2) 0.2264(2) 0.01732(15)
H11 H 0.5329 0.2716 0.0208
C22 C 0.6023(2) 0.6356(2) -0.25986(17)
H12 H 0.5710 0.6623 -0.3262
C23 C 0.4027(2) 0.1747(2) -0.47577(15)
H13 H 0.3591 0.1506 -0.5484
C24 C 0.4477(2) 0.3180(2) -0.42989(15)
H14 H 0.4347 0.3906 -0.4711
C25 C 0.9777(3) -0.5147(3) 0.83374(17)
H15 H 0.9822 -0.4202 0.8619
H16 H 0.9966 -0.5718 0.8895
H17 H 0.8766 -0.5640 0.7832
C26 C 0.6940(2) 0.5572(2) -0.05718(16)
H18 H 0.7225 0.5314 0.0097
C27 C 0.7213(3) 0.7019(2) -0.07214(18)
H19 H 0.7712 0.7751 -0.0141
C28 C 0.6759(3) 0.7410(2) -0.17215(19)
H20 H 0.6956 0.8394 -0.1797
loop_
_geom_bond_atom_site_label_1
_geom_bond_atom_site_label_2
_geom_bond_site_symmetry_1
_geom_bond_site_symmetry_2
N1 C1 1_555 1_555
S1 C1 1_555 1_555
O1 C7 1_555 1_555
N2 C9 1_555 1_555
N3 C5 1_555 1_555
C1 N4 1_555 1_555
C2 C10 1_555 1_555
C3 C8 1_555 1_555
C4 C5 1_555 1_555
C5 S1 1_555 1_555
C6 H1 1_555 1_555
C7 C12 1_555 1_555
C8 H2 1_555 1_555
N4 N3 1_555 1_555
C9 C6 1_555 1_555
C10 C11 1_555 1_555
C11 N2 1_555 1_555
C12 H3 1_555 1_555
C13 C7 1_555 1_555
H4 C13 1_555 1_555
C14 N1 1_555 1_555
H5 C14 1_555 1_555
C15 C4 1_555 1_555
H6 C15 1_555 1_555
C16 C3 1_555 1_555
H7 C16 1_555 1_555
C17 N2 1_555 1_555
C18 C11 1_555 1_555
H8 C18 1_555 1_555
C19 C4 1_555 1_555
H9 C19 1_555 1_555
C20 C18 1_555 1_555
H10 C20 1_555 1_555
C21 C8 1_555 1_555
H11 C21 1_555 1_555
C22 C2 1_555 1_555
H12 C22 1_555 1_555
C23 C20 1_555 1_555
H13 C23 1_555 1_555
C24 C10 1_555 1_555
H14 C24 1_555 1_555
C25 O1 1_555 1_555
H15 C25 1_555 1_555
H16 C25 1_555 1_555
H17 C25 1_555 1_555
C26 C17 1_555 1_555
H18 C26 1_555 1_555
C27 C26 1_555 1_555
H19 C27 1_555 1_555
C28 C22 1_555 1_555
H20 C28 1_555 1_555
C2 C17 1_555 1_555
C3 C14 1_555 1_555
C6 C16 1_555 1_555
C9 C21 1_555 1_555
C12 C15 1_555 1_555
C13 C19 1_555 1_555
C23 C24 1_555 1_555
C27 C28 1_555 1_555

#END
