
#######################################################################
#
#                 Cambridge Crystallographic Data Centre
#                                CCDC 
#
#######################################################################
#
# If this CIF has been generated from an entry in the Cambridge 
# Structural Database, then it will include bibliographic, chemical, 
# crystal, experimental, refinement or atomic coordinate data resulting 
# from the CCDC's data processing and validation procedures.
#
#######################################################################

data_BATQIX
_chemical_formula_moiety         'C18 H22 O2'
_chemical_name_systematic        3,4-Diphenyl-hexane-3,4-diol
_symmetry_cell_setting           monoclinic
_symmetry_space_group_name_H-M   'C c'
_symmetry_Int_Tables_number      9
_space_group_name_Hall           'C -2yc'
loop_
_symmetry_equiv_pos_site_id
_symmetry_equiv_pos_as_xyz
1 x,y,z
2 x,-y,1/2+z
3 1/2+x,1/2+y,z
4 1/2+x,1/2-y,1/2+z
_cell_length_a                   22.042(4)
_cell_length_b                   6.5641(13)
_cell_length_c                   11.546(2)
_cell_angle_alpha                90
_cell_angle_beta                 119.13(3)
_cell_angle_gamma                90
_cell_volume                     1459.25
_exptl_crystal_colour            colorless
_exptl_crystal_description       plate
_cell_formula_units_Z            4
loop_
_atom_site_label
_atom_site_type_symbol
_atom_site_fract_x
_atom_site_fract_y
_atom_site_fract_z
C1 C 0.2368(3) 0.0107(10) 0.2515(5)
C2 C 0.2816(3) -0.1513(11) 0.2791(6)
H1 H 0.2718 -0.2497 0.2119
C3 C 0.3395(3) -0.1752(11) 0.3994(6)
H2 H 0.3685 -0.2903 0.4141
C4 C 0.3569(3) -0.0374(9) 0.4996(6)
H3 H 0.3973 -0.0555 0.5832
C5 C 0.3134(3) 0.1310(12) 0.4750(6)
H4 H 0.3247 0.2293 0.5428
C6 C 0.2545(3) 0.1569(11) 0.3542(6)
H5 H 0.2256 0.2724 0.3393
C7 C 0.1714(3) 0.0321(10) 0.1214(5)
C8 C 0.1627(3) 0.2537(10) 0.0658(7)
H6 H 0.1220 0.2567 -0.0244
H7 H 0.1526 0.3455 0.1223
C9 C 0.2240(3) 0.3355(12) 0.0589(7)
H8 H 0.2635 0.3480 0.1487
H9 H 0.2127 0.4698 0.0164
H10 H 0.2362 0.2425 0.0069
C10 C 0.1051(3) -0.0383(11) 0.1311(5)
C11 C 0.1141(3) -0.2508(11) 0.1789(7)
H11 H 0.1551 -0.2574 0.2686
H12 H 0.1238 -0.3377 0.1198
C12 C 0.0504(3) -0.3394(11) 0.1853(7)
H13 H 0.0388 -0.2508 0.2400
H14 H 0.0616 -0.4761 0.2243
H15 H 0.0107 -0.3473 0.0955
C13 C 0.0397(3) -0.0127(11) -0.0058(5)
C14 C 0.0221(3) -0.1524(11) -0.1041(6)
H16 H 0.0510 -0.2681 -0.0878
C15 C -0.0365(3) -0.1320(11) -0.2268(6)
H17 H -0.0466 -0.2305 -0.2941
C16 C -0.0794(3) 0.0294(11) -0.2508(6)
H18 H -0.1197 0.0424 -0.3351
C17 C -0.0654(3) 0.1757(12) -0.1544(6)
H19 H -0.0961 0.2873 -0.1714
C18 C -0.0050(3) 0.1553(11) -0.0313(6)
H20 H 0.0059 0.2554 0.0354
O1 O 0.1755(2) -0.1002(8) 0.0257(4)
H21 H 0.1523 -0.0500 -0.0505
O2 O 0.10102(19) 0.1026(8) 0.2219(4)
H22 H 0.0653 0.0781 0.2279
loop_
_geom_bond_atom_site_label_1
_geom_bond_atom_site_label_2
_geom_bond_site_symmetry_1
_geom_bond_site_symmetry_2
C1 C2 1_555 1_555
C2 H1 1_555 1_555
C3 C2 1_555 1_555
H2 C3 1_555 1_555
C4 C3 1_555 1_555
H3 C4 1_555 1_555
C5 C4 1_555 1_555
H4 C5 1_555 1_555
C6 C1 1_555 1_555
H5 C6 1_555 1_555
C7 C1 1_555 1_555
C8 C7 1_555 1_555
H6 C8 1_555 1_555
H7 C8 1_555 1_555
C9 C8 1_555 1_555
H8 C9 1_555 1_555
H9 C9 1_555 1_555
H10 C9 1_555 1_555
C10 C7 1_555 1_555
C11 C10 1_555 1_555
H11 C11 1_555 1_555
H12 C11 1_555 1_555
C12 C11 1_555 1_555
H13 C12 1_555 1_555
H14 C12 1_555 1_555
H15 C12 1_555 1_555
C13 C10 1_555 1_555
C14 C13 1_555 1_555
H16 C14 1_555 1_555
C15 C14 1_555 1_555
H17 C15 1_555 1_555
C16 C15 1_555 1_555
H18 C16 1_555 1_555
C17 C16 1_555 1_555
H19 C17 1_555 1_555
C18 C13 1_555 1_555
H20 C18 1_555 1_555
O1 C7 1_555 1_555
H21 O1 1_555 1_555
O2 C10 1_555 1_555
H22 O2 1_555 1_555
C5 C6 1_555 1_555
C17 C18 1_555 1_555

#END
