
#######################################################################
#
#                 Cambridge Crystallographic Data Centre
#                                CCDC 
#
#######################################################################
#
# If this CIF has been generated from an entry in the Cambridge 
# Structural Database, then it will include bibliographic, chemical, 
# crystal, experimental, refinement or atomic coordinate data resulting 
# from the CCDC's data processing and validation procedures.
#
#######################################################################

data_BATVIE
_chemical_formula_moiety         'C10 H13 N1 O2 Si1'
_chemical_name_systematic        
1-(2,2-dimethyl-1,3,2-benzoxazasilol-3(2H)-yl)ethanone
_symmetry_cell_setting           monoclinic
_symmetry_space_group_name_H-M   'P 21/c'
_symmetry_Int_Tables_number      14
_space_group_name_Hall           '-P 2ybc'
loop_
_symmetry_equiv_pos_site_id
_symmetry_equiv_pos_as_xyz
1 x,y,z
2 -x,1/2+y,1/2-z
3 -x,-y,-z
4 x,1/2-y,1/2+z
_cell_length_a                   5.6119(4)
_cell_length_b                   23.9787(18)
_cell_length_c                   15.5623(11)
_cell_angle_alpha                90
_cell_angle_beta                 91.837(3)
_cell_angle_gamma                90
_cell_volume                     2093.08
_exptl_crystal_colour            colorless
_exptl_crystal_description       needle
_cell_formula_units_Z            8
loop_
_atom_site_label
_atom_site_type_symbol
_atom_site_fract_x
_atom_site_fract_y
_atom_site_fract_z
Si1 Si 0.36781(13) 0.38784(3) 0.44537(5)
O1 O 0.7270(4) 0.43861(9) 0.35421(13)
O2 O 0.1507(4) 0.33918(8) 0.44034(12)
N1 N 0.4489(4) 0.37375(10) 0.33781(15)
C1 C -0.0496(5) 0.25246(12) 0.25777(18)
H1 H -0.1654 0.2262 0.2427
C2 C 0.1181(5) 0.26845(12) 0.19841(18)
H2 H 0.1147 0.2522 0.1441
C3 C 0.2915(5) 0.30860(12) 0.21923(17)
H3 H 0.4027 0.3190 0.1792
C4 C 0.2955(5) 0.33272(11) 0.30033(17)
C5 C 0.6308(5) 0.40458(11) 0.30559(18)
C6 C 0.7069(5) 0.39674(12) 0.21502(18)
H4 H 0.8235 0.4244 0.2017
H5 H 0.5710 0.4005 0.1764
H6 H 0.7748 0.3603 0.2089
C7 C 0.2372(5) 0.45713(12) 0.46082(19)
H7 H 0.0942 0.4606 0.4257
H8 H 0.3492 0.4852 0.4447
H9 H 0.1998 0.4618 0.5201
C8 C 0.5949(5) 0.36880(14) 0.52841(19)
H10 H 0.5205 0.3645 0.5827
H11 H 0.7133 0.3977 0.5328
H12 H 0.6692 0.3343 0.5129
C9 C 0.1278(5) 0.31514(11) 0.36033(17)
C10 C -0.0437(5) 0.27598(12) 0.33994(18)
H13 H -0.1539 0.2653 0.3802
Si2 Si 0.87035(13) 0.07517(3) 0.28577(5)
O3 O 1.2270(4) 0.02222(9) 0.38291(14)
O4 O 0.6529(3) 0.12380(8) 0.28807(12)
N2 N 0.9642(4) 0.09053(10) 0.39374(14)
C11 C 1.2392(5) 0.06856(13) 0.51869(18)
H14 H 1.3609 0.0416 0.5325
H15 H 1.1116 0.0647 0.5579
H16 H 1.3051 0.1054 0.5234
C12 C 1.1454(5) 0.05908(12) 0.42862(18)
C13 C 0.8193(5) 0.13309(11) 0.42805(17)
C14 C 0.8306(5) 0.15989(12) 0.50715(17)
H17 H 0.9500 0.1510 0.5477
C15 C 0.6603(5) 0.20049(12) 0.52510(18)
H18 H 0.6685 0.2189 0.5777
C16 C 0.4793(5) 0.21379(12) 0.46581(18)
H19 H 0.3638 0.2398 0.4798
C17 C 0.6418(5) 0.14922(11) 0.36691(17)
C18 C 0.4705(5) 0.18823(12) 0.38524(18)
H20 H 0.3514 0.1973 0.3447
C19 C 0.7269(5) 0.00729(12) 0.2680(2)
H21 H 0.6318 -0.0017 0.3163
H22 H 0.8468 -0.0208 0.2616
H23 H 0.6270 0.0088 0.2168
C20 C 1.0907(5) 0.09295(15) 0.20504(19)
H24 H 1.0096 0.1019 0.1515
H25 H 1.1947 0.0617 0.1969
H26 H 1.1828 0.1245 0.2245
loop_
_geom_bond_atom_site_label_1
_geom_bond_atom_site_label_2
_geom_bond_site_symmetry_1
_geom_bond_site_symmetry_2
Si1 O2 1_555 1_555
O1 C5 1_555 1_555
O2 C9 1_555 1_555
N1 Si1 1_555 1_555
C1 H1 1_555 1_555
C2 C1 1_555 1_555
H2 C2 1_555 1_555
C3 C2 1_555 1_555
H3 C3 1_555 1_555
C4 N1 1_555 1_555
C5 N1 1_555 1_555
C6 C5 1_555 1_555
H4 C6 1_555 1_555
H5 C6 1_555 1_555
H6 C6 1_555 1_555
C7 Si1 1_555 1_555
H7 C7 1_555 1_555
H8 C7 1_555 1_555
H9 C7 1_555 1_555
C8 Si1 1_555 1_555
H10 C8 1_555 1_555
H11 C8 1_555 1_555
H12 C8 1_555 1_555
C9 C4 1_555 1_555
C10 C1 1_555 1_555
H13 C10 1_555 1_555
Si2 O4 1_555 1_555
O3 C12 1_555 1_555
O4 C17 1_555 1_555
N2 Si2 1_555 1_555
C11 H14 1_555 1_555
H15 C11 1_555 1_555
H16 C11 1_555 1_555
C12 N2 1_555 1_555
C13 N2 1_555 1_555
C14 C13 1_555 1_555
H17 C14 1_555 1_555
C15 C14 1_555 1_555
H18 C15 1_555 1_555
C16 C15 1_555 1_555
H19 C16 1_555 1_555
C17 C13 1_555 1_555
C18 C16 1_555 1_555
H20 C18 1_555 1_555
C19 Si2 1_555 1_555
H21 C19 1_555 1_555
H22 C19 1_555 1_555
H23 C19 1_555 1_555
C20 Si2 1_555 1_555
H24 C20 1_555 1_555
H25 C20 1_555 1_555
H26 C20 1_555 1_555
C3 C4 1_555 1_555
C9 C10 1_555 1_555
C11 C12 1_555 1_555
C17 C18 1_555 1_555

#END
