
#######################################################################
#
#                 Cambridge Crystallographic Data Centre
#                                CCDC 
#
#######################################################################
#
# If this CIF has been generated from an entry in the Cambridge 
# Structural Database, then it will include bibliographic, chemical, 
# crystal, experimental, refinement or atomic coordinate data resulting 
# from the CCDC's data processing and validation procedures.
#
#######################################################################

data_BATWUR
_chemical_compound_source        'bulbs of Fritillaria walujewii'
_chemical_name_common            'walujewine A'
_chemical_formula_moiety         'C27 H41 N1 O4'
_chemical_name_systematic        
3,12-dihydroxy-5,6,12,13-tetrahydro-17,23-epoxyveratram-13(18)-en-6-one
_chemical_properties_biological  
'selective Acetylcholinesterase (AChE) inhibitory activity'
_symmetry_cell_setting           orthorhombic
_symmetry_space_group_name_H-M   'P 21 21 21'
_symmetry_Int_Tables_number      19
_space_group_name_Hall           'P 2ac 2ab'
loop_
_symmetry_equiv_pos_site_id
_symmetry_equiv_pos_as_xyz
1 x,y,z
2 1/2+x,1/2-y,-z
3 -x,1/2+y,1/2-z
4 1/2-x,-y,1/2+z
_cell_length_a                   10.380(3)
_cell_length_b                   14.591(3)
_cell_length_c                   16.622(4)
_cell_angle_alpha                90
_cell_angle_beta                 90
_cell_angle_gamma                90
_cell_volume                     2517.48
_exptl_crystal_colour            colorless
_exptl_crystal_description       prism
_cell_formula_units_Z            4
loop_
_atom_site_label
_atom_site_type_symbol
_atom_site_fract_x
_atom_site_fract_y
_atom_site_fract_z
O1 O 0.46713(14) 0.14740(9) 0.46609(9)
O2 O 0.25589(15) 0.42655(10) 0.32774(7)
O3 O 0.09123(10) 0.60220(7) 0.69122(6)
O4 O 0.17044(12) 0.88776(7) 0.61724(6)
N1 N 0.10968(13) 0.94840(9) 0.82728(7)
C1 C 0.38443(16) 0.35021(11) 0.59496(9)
C2 C 0.45981(16) 0.26754(11) 0.56213(10)
C3 C 0.38711(16) 0.21965(11) 0.49462(10)
C4 C 0.35135(16) 0.28654(11) 0.42779(10)
C5 C 0.27459(14) 0.36727(10) 0.46197(8)
C6 C 0.22573(15) 0.43285(10) 0.39824(9)
C7 C 0.13680(15) 0.50771(10) 0.42766(8)
C8 C 0.20064(13) 0.55758(9) 0.49845(8)
C9 C 0.25258(13) 0.49128(9) 0.56238(8)
C10 C 0.34896(13) 0.42038(9) 0.52934(8)
C11 C 0.29590(14) 0.55898(10) 0.62737(8)
C12 C 0.18430(13) 0.62984(9) 0.63109(8)
C13 C 0.22359(14) 0.72912(9) 0.64607(8)
C14 C 0.11398(14) 0.62071(10) 0.54795(8)
C15 C 0.08027(18) 0.71368(11) 0.51139(9)
C16 C 0.01584(17) 0.77123(11) 0.57700(11)
C17 C 0.11365(15) 0.80007(10) 0.64192(9)
C18 C 0.34426(15) 0.75496(11) 0.65874(11)
C19 C 0.47116(14) 0.46625(11) 0.49597(10)
C20 C 0.05429(15) 0.81767(10) 0.72723(9)
C21 C -0.08816(16) 0.84630(12) 0.72821(12)
C22 C 0.14375(14) 0.89432(10) 0.75615(8)
C23 C 0.15605(15) 0.95252(9) 0.68082(9)
C24 C 0.26584(16) 1.02031(11) 0.68935(10)
C25 C 0.23928(16) 1.07870(11) 0.76479(10)
C26 C 0.21191(16) 1.01813(11) 0.83859(10)
C27 C 0.3518(2) 1.14350(14) 0.78252(14)
H1 H 0.43694 0.38107 0.63666
H2 H 0.30444 0.32805 0.62091
H3 H 0.54447 0.28851 0.5418
H4 H 0.4755 0.22344 0.60632
H5 H 0.30629 0.19256 0.51713
H6 H 0.29919 0.25453 0.3866
H7 H 0.43067 0.30956 0.40161
H8 H 0.19656 0.34039 0.48821
H9 H 0.434(3) 0.1219(19) 0.4258(18)
H10 H 0.05379 0.48082 0.44507
H11 H 0.11938 0.55162 0.38358
H12 H 0.27432 0.59451 0.47722
H13 H 0.17733 0.45659 0.58439
H14 H 0.132(2) 0.6023(15) 0.7372(14)
H15 H 0.37801 0.58891 0.61226
H16 H 0.30706 0.52776 0.67979
H17 H 0.036(2) 0.9789(15) 0.8170(14)
H18 H 0.03123 0.58739 0.55764
H19 H 0.02092 0.7056 0.46531
H20 H 0.15925 0.74458 0.49194
H21 H -0.05422 0.73527 0.60224
H22 H -0.02282 0.82663 0.55251
H23 H 0.41138 0.71069 0.65877
H24 H 0.36367 0.81775 0.66778
H25 H 0.51391 0.50067 0.53899
H26 H 0.44765 0.50817 0.4523
H27 H 0.52981 0.41915 0.47534
H28 H 0.06644 0.76214 0.76166
H29 H -0.10045 0.89928 0.69278
H30 H -0.11339 0.86266 0.78318
H31 H -0.14148 0.79524 0.70929
H32 H 0.22999 0.86618 0.76658
H33 H 0.07397 0.98717 0.67263
H34 H 0.27082 1.05997 0.64112
H35 H 0.34869 0.98735 0.69512
H36 H 0.16103 1.11683 0.75421
H37 H 0.29258 0.98638 0.85385
H38 H 0.18715 1.05825 0.88406
H39 H 0.43045 1.10763 0.79097
H40 H 0.33281 1.17919 0.83104
H41 H 0.36409 1.18514 0.7369
loop_
_geom_bond_atom_site_label_1
_geom_bond_atom_site_label_2
_geom_bond_site_symmetry_1
_geom_bond_site_symmetry_2
O1 C3 1_555 1_555
O2 C6 1_555 1_555
O3 C12 1_555 1_555
O4 C17 1_555 1_555
N1 C22 1_555 1_555
C1 C2 1_555 1_555
C2 C3 1_555 1_555
C3 C4 1_555 1_555
C4 C5 1_555 1_555
C5 C6 1_555 1_555
C6 C7 1_555 1_555
C7 C8 1_555 1_555
C8 C9 1_555 1_555
C9 C10 1_555 1_555
C10 C1 1_555 1_555
C11 C9 1_555 1_555
C12 C11 1_555 1_555
C13 C12 1_555 1_555
C14 C8 1_555 1_555
C15 C14 1_555 1_555
C16 C15 1_555 1_555
C17 C13 1_555 1_555
C18 C13 1_555 1_555
C19 C10 1_555 1_555
C20 C17 1_555 1_555
C21 C20 1_555 1_555
C22 C20 1_555 1_555
C23 O4 1_555 1_555
C24 C23 1_555 1_555
C25 C24 1_555 1_555
C26 N1 1_555 1_555
C27 C25 1_555 1_555
H1 C1 1_555 1_555
H2 C1 1_555 1_555
H3 C2 1_555 1_555
H4 C2 1_555 1_555
H5 C3 1_555 1_555
H6 C4 1_555 1_555
H7 C4 1_555 1_555
H8 C5 1_555 1_555
H9 O1 1_555 1_555
H10 C7 1_555 1_555
H11 C7 1_555 1_555
H12 C8 1_555 1_555
H13 C9 1_555 1_555
H14 O3 1_555 1_555
H15 C11 1_555 1_555
H16 C11 1_555 1_555
H17 N1 1_555 1_555
H18 C14 1_555 1_555
H19 C15 1_555 1_555
H20 C15 1_555 1_555
H21 C16 1_555 1_555
H22 C16 1_555 1_555
H23 C18 1_555 1_555
H24 C18 1_555 1_555
H25 C19 1_555 1_555
H26 C19 1_555 1_555
H27 C19 1_555 1_555
H28 C20 1_555 1_555
H29 C21 1_555 1_555
H30 C21 1_555 1_555
H31 C21 1_555 1_555
H32 C22 1_555 1_555
H33 C23 1_555 1_555
H34 C24 1_555 1_555
H35 C24 1_555 1_555
H36 C25 1_555 1_555
H37 C26 1_555 1_555
H38 C26 1_555 1_555
H39 C27 1_555 1_555
H40 C27 1_555 1_555
H41 C27 1_555 1_555
C5 C10 1_555 1_555
C12 C14 1_555 1_555
C16 C17 1_555 1_555
C22 C23 1_555 1_555
C25 C26 1_555 1_555

#END
