
#######################################################################
#
#                 Cambridge Crystallographic Data Centre
#                                CCDC 
#
#######################################################################
#
# If this CIF has been generated from an entry in the Cambridge 
# Structural Database, then it will include bibliographic, chemical, 
# crystal, experimental, refinement or atomic coordinate data resulting 
# from the CCDC's data processing and validation procedures.
#
#######################################################################

data_BATYOK
_chemical_formula_moiety         'C36 H33 N6 P3,C2 H6 O1'
_chemical_name_systematic        
'2-Anilino-4-(N-(dianilinophosphino)-N-phenylamino)-1,3-diphenyl-1,3,2,4-diazadiphosphetidine ethanol solvate'
_symmetry_cell_setting           monoclinic
_symmetry_space_group_name_H-M   'C 2/c'
_symmetry_Int_Tables_number      15
_space_group_name_Hall           '-C 2yn'
loop_
_symmetry_equiv_pos_site_id
_symmetry_equiv_pos_as_xyz
1 x,y,z
2 1/2+x,1/2+y,z
3 -x,y,1/2-z
4 1/2-x,1/2+y,1/2-z
5 -x,-y,-z
6 1/2-x,1/2-y,-z
7 x,-y,1/2+z
8 1/2+x,1/2-y,1/2+z
_cell_length_a                   23.156(9)
_cell_length_b                   14.533(5)
_cell_length_c                   22.243(8)
_cell_angle_alpha                90
_cell_angle_beta                 100.63(3)
_cell_angle_gamma                90
_cell_volume                     7356.89
_cell_formula_units_Z            8
loop_
_atom_site_label
_atom_site_type_symbol
_atom_site_fract_x
_atom_site_fract_y
_atom_site_fract_z
P1 P 0.72558 0.13463 0.61936
P2 P 0.71039 -0.02853 0.68911
P3 P 0.68042 -0.20349 0.68861
N1 N 0.78100 0.14320 0.58020
N2 N 0.67520 0.17400 0.56020
N3 N 0.71130 0.01810 0.61950
N4 N 0.74180 -0.13550 0.68880
N5 N 0.64900 -0.09660 0.67940
N6 N 0.66880 -0.24950 0.61840
C3 C 0.84082 0.13510 0.60770
C4 C 0.85920 0.14650 0.67040
C5 C 0.91860 0.13950 0.69610
C6 C 0.95951 0.12100 0.65910
C7 C 0.94110 0.10960 0.59630
C8 C 0.88180 0.11660 0.57067
C9 C 0.61911 0.20260 0.56660
C10 C 0.60841 0.24250 0.62036
C11 C 0.55210 0.27220 0.62425
C12 C 0.50646 0.26210 0.57440
C13 C 0.51716 0.22210 0.52070
C14 C 0.57350 0.19240 0.51679
C15 C 0.69750 -0.03360 0.56455
C16 C 0.63942 -0.04040 0.53450
C17 C 0.62547 -0.09190 0.48110
C18 C 0.66960 -0.13660 0.45765
C19 C 0.72780 -0.12980 0.48770
C20 C 0.74171 -0.07830 0.54110
C21 C 0.79979 -0.16330 0.69670
C22 C 0.81370 -0.25610 0.70430
C23 C 0.87160 -0.28500 0.70880
C24 C 0.91570 -0.22110 0.70580
C25 C 0.90180 -0.12830 0.69820
C26 C 0.84380 -0.09940 0.69360
C27 C 0.58950 -0.07330 0.67520
C28 C 0.57230 0.01830 0.67470
C29 C 0.51310 0.04070 0.66860
C30 C 0.47102 -0.02850 0.66290
C31 C 0.48820 -0.12020 0.66330
C32 C 0.54740 -0.14260 0.66950
C33 C 0.64232 -0.33650 0.60350
C34 C 0.61520 -0.35100 0.54300
C35 C 0.58700 -0.43400 0.52602
C36 C 0.58580 -0.50240 0.56950
C37 C 0.61290 -0.48790 0.62990
C38 C 0.64120 -0.40500 0.64694
O1 O 0.72940 0.14800 0.44890
C1 C 0.75290 0.08870 0.40210
C2 C 0.71300 0.08830 0.35220
loop_
_geom_bond_atom_site_label_1
_geom_bond_atom_site_label_2
_geom_bond_site_symmetry_1
_geom_bond_site_symmetry_2
P1 N1 1_555 1_555
P2 N3 1_555 1_555
P3 N4 1_555 1_555
N1 C3 1_555 1_555
N2 P1 1_555 1_555
N3 P1 1_555 1_555
N4 P2 1_555 1_555
N5 P2 1_555 1_555
N6 P3 1_555 1_555
O1 C1 1_555 1_555
C1 C2 1_555 1_555
C3 C4 1_555 1_555
C4 C5 1_555 1_555
C5 C6 1_555 1_555
C6 C7 1_555 1_555
C7 C8 1_555 1_555
C8 C3 1_555 1_555
C9 N2 1_555 1_555
C10 C9 1_555 1_555
C11 C10 1_555 1_555
C12 C11 1_555 1_555
C13 C12 1_555 1_555
C14 C9 1_555 1_555
C15 N3 1_555 1_555
C16 C15 1_555 1_555
C17 C16 1_555 1_555
C18 C17 1_555 1_555
C19 C18 1_555 1_555
C20 C15 1_555 1_555
C21 N4 1_555 1_555
C22 C21 1_555 1_555
C23 C22 1_555 1_555
C24 C23 1_555 1_555
C25 C24 1_555 1_555
C26 C21 1_555 1_555
C27 N5 1_555 1_555
C28 C27 1_555 1_555
C29 C28 1_555 1_555
C30 C29 1_555 1_555
C31 C30 1_555 1_555
C32 C27 1_555 1_555
C33 N6 1_555 1_555
C34 C33 1_555 1_555
C35 C34 1_555 1_555
C36 C35 1_555 1_555
C37 C36 1_555 1_555
C38 C33 1_555 1_555
P3 N5 1_555 1_555
C13 C14 1_555 1_555
C19 C20 1_555 1_555
C25 C26 1_555 1_555
C31 C32 1_555 1_555
C37 C38 1_555 1_555

#END
