
#######################################################################
#
#                 Cambridge Crystallographic Data Centre
#                                CCDC 
#
#######################################################################
#
# If this CIF has been generated from an entry in the Cambridge 
# Structural Database, then it will include bibliographic, chemical, 
# crystal, experimental, refinement or atomic coordinate data resulting 
# from the CCDC's data processing and validation procedures.
#
#######################################################################

data_BATYAZ01
_chemical_formula_moiety         'C7 H10 N1 1+,C7 H3 N2 O6 1-'
_chemical_name_systematic        '4-ethylpyridinium 3,5-dinitrobenzoate'
_symmetry_cell_setting           monoclinic
_symmetry_space_group_name_H-M   'P 21/c'
_symmetry_Int_Tables_number      14
_space_group_name_Hall           '-P 2ybc'
loop_
_symmetry_equiv_pos_site_id
_symmetry_equiv_pos_as_xyz
1 x,y,z
2 -x,1/2+y,1/2-z
3 -x,-y,-z
4 x,1/2-y,1/2+z
_cell_length_a                   8.574(9)
_cell_length_b                   14.346(15)
_cell_length_c                   12.190(13)
_cell_angle_alpha                90
_cell_angle_beta                 94.440(13)
_cell_angle_gamma                90
_cell_volume                     1494.9
_exptl_crystal_colour            colorless
_exptl_crystal_description       block
_chemical_melting_point          '119-122 deg.C'
_cell_formula_units_Z            4
loop_
_atom_site_label
_atom_site_type_symbol
_atom_site_fract_x
_atom_site_fract_y
_atom_site_fract_z
H1 H -0.041(4) 0.255(2) 0.970(3)
H2 H 0.029(3) 0.0985(18) 0.984(2)
H3 H 0.172(3) 0.009(2) 0.864(2)
H4 H 0.207(3) 0.2468(17) 0.681(2)
H5 H 0.063(2) 0.3231(16) 0.8120(18)
H6 H 0.361(3) 0.1042(19) 0.638(2)
H7 H 0.356(3) 0.0135(19) 0.709(2)
N1 N 0.03790(17) 0.21530(10) 0.90713(12)
C1 C 0.0693(2) 0.12469(14) 0.92256(16)
C2 C 0.1527(2) 0.07456(13) 0.85079(16)
C3 C 0.20643(18) 0.11811(12) 0.75876(14)
C4 C 0.1747(2) 0.21284(12) 0.74503(15)
C5 C 0.0903(2) 0.25934(13) 0.81997(15)
C6 C 0.2904(2) 0.06335(15) 0.67594(17)
C7 C 0.1775(3) 0.0194(2) 0.5909(3)
H8 H 0.2344 -0.0149 0.5394
H9 H 0.1165 0.0671 0.5526
H10 H 0.1092 -0.0221 0.6262
H11 H -0.372(2) 0.1612(15) 1.2471(17)
H12 H -0.462(3) 0.3794(18) 1.440(2)
H13 H -0.198(3) 0.4166(17) 1.176(2)
C8 C -0.1918(2) 0.23859(12) 1.10483(14)
C9 C -0.27353(18) 0.28183(11) 1.19838(13)
C10 C -0.36067(19) 0.22484(12) 1.26338(14)
C11 C -0.42922(19) 0.26411(12) 1.35189(14)
C12 C -0.4157(2) 0.35744(13) 1.37867(14)
C13 C -0.32809(19) 0.41161(12) 1.31216(13)
C14 C -0.25679(19) 0.37621(12) 1.22273(13)
N2 N -0.5199(2) 0.20312(12) 1.42097(14)
N3 N -0.3091(2) 0.51154(12) 1.33896(14)
O1 O -0.13280(18) 0.29701(9) 1.04057(11)
O2 O -0.18643(18) 0.15311(9) 1.09709(12)
O3 O -0.5366(2) 0.12159(12) 1.39479(18)
O4 O -0.5756(2) 0.23828(14) 1.50048(14)
O5 O -0.4027(3) 0.54787(12) 1.39583(17)
O6 O -0.2002(2) 0.55327(11) 1.30264(17)
loop_
_geom_bond_atom_site_label_1
_geom_bond_atom_site_label_2
_geom_bond_site_symmetry_1
_geom_bond_site_symmetry_2
H1 N1 1_555 1_555
H2 C1 1_555 1_555
H3 C2 1_555 1_555
H4 C4 1_555 1_555
H5 C5 1_555 1_555
H6 C6 1_555 1_555
H7 C6 1_555 1_555
N1 C1 1_555 1_555
C1 C2 1_555 1_555
C2 C3 1_555 1_555
C3 C4 1_555 1_555
C4 C5 1_555 1_555
C5 N1 1_555 1_555
C6 C3 1_555 1_555
C7 C6 1_555 1_555
H8 C7 1_555 1_555
H9 C7 1_555 1_555
H10 C7 1_555 1_555
H11 C10 1_555 1_555
H12 C12 1_555 1_555
H13 C14 1_555 1_555
C8 C9 1_555 1_555
C9 C10 1_555 1_555
C10 C11 1_555 1_555
C11 C12 1_555 1_555
C12 C13 1_555 1_555
C13 C14 1_555 1_555
C14 C9 1_555 1_555
N2 C11 1_555 1_555
N3 C13 1_555 1_555
O1 C8 1_555 1_555
O2 C8 1_555 1_555
O3 N2 1_555 1_555
O4 N2 1_555 1_555
O5 N3 1_555 1_555
O6 N3 1_555 1_555

#END
