
#######################################################################
#
#                 Cambridge Crystallographic Data Centre
#                                CCDC 
#
#######################################################################
#
# If this CIF has been generated from an entry in the Cambridge 
# Structural Database, then it will include bibliographic, chemical, 
# crystal, experimental, refinement or atomic coordinate data resulting 
# from the CCDC's data processing and validation procedures.
#
#######################################################################

data_BAVCOT
_chemical_formula_moiety         'C25 H18 N2'
_chemical_name_systematic        
9-methyl-1,3-diphenyl-9H-pyrrolo[1,2-a]indole-2-carbonitrile
_symmetry_cell_setting           monoclinic
_symmetry_space_group_name_H-M   'C 2/c'
_symmetry_Int_Tables_number      15
_space_group_name_Hall           '-C 2yn'
loop_
_symmetry_equiv_pos_site_id
_symmetry_equiv_pos_as_xyz
1 x,y,z
2 -x,y,1/2-z
3 1/2+x,1/2+y,z
4 1/2-x,1/2+y,1/2-z
5 -x,-y,-z
6 x,-y,1/2+z
7 1/2-x,1/2-y,-z
8 1/2+x,1/2-y,1/2+z
_cell_length_a                   9.8783(11)
_cell_length_b                   19.628(2)
_cell_length_c                   20.062(2)
_cell_angle_alpha                90
_cell_angle_beta                 100.649(2)
_cell_angle_gamma                90
_cell_volume                     3822.85
_exptl_crystal_colour            colorless
_exptl_crystal_description       needle
_chemical_melting_point          '446.8-447.3 K'
_cell_formula_units_Z            8
_exptl_crystal_recrystallization_method Sublimation
loop_
_atom_site_label
_atom_site_type_symbol
_atom_site_fract_x
_atom_site_fract_y
_atom_site_fract_z
N1 N 0.19098(11) 0.01627(5) 0.30736(5)
N2 N 0.34261(16) -0.15208(7) 0.17130(8)
C1 C 0.1241(2) -0.22567(8) 0.39795(8)
H1 H 0.1016 -0.2649 0.4195
C2 C 0.02746(18) -0.17582(8) 0.38008(8)
H2 H -0.0607 -0.1811 0.3895
C3 C 0.06091(15) -0.11769(7) 0.34812(7)
H3 H -0.0049 -0.0838 0.3362
C4 C 0.19199(14) -0.10922(6) 0.33352(7)
C5 C 0.22389(13) -0.05000(6) 0.29493(6)
C6 C 0.27549(13) -0.04786(6) 0.23513(6)
C7 C 0.27314(13) 0.02103(6) 0.21058(6)
C8 C 0.31547(14) 0.04446(6) 0.14812(6)
C9 C 0.23119(15) 0.08740(7) 0.10390(7)
H4 H 0.1476 0.1016 0.1142
C10 C 0.26973(18) 0.10936(7) 0.04492(7)
H5 H 0.2117 0.1378 0.0155
C11 C 0.39341(19) 0.08934(8) 0.02952(7)
H6 H 0.4198 0.1047 -0.0100
C12 C 0.2539(2) -0.21796(7) 0.38417(8)
H7 H 0.3192 -0.2520 0.3967
C13 C 0.28912(16) -0.16024(7) 0.35188(7)
H8 H 0.3774 -0.1556 0.3425
C14 C 0.22049(13) 0.05903(6) 0.25706(6)
C15 C 0.43943(15) 0.02411(8) 0.13128(7)
H9 H 0.4971 -0.0051 0.1600
C16 C 0.47795(17) 0.04664(9) 0.07267(8)
H10 H 0.5617 0.0329 0.0622
C17 C 0.31287(15) -0.10604(7) 0.20041(8)
C18 C 0.20033(14) 0.13214(7) 0.27548(7)
H11 H 0.1212 0.1512 0.2444
C19 C 0.16420(14) 0.12355(7) 0.34520(7)
C20 C 0.16154(13) 0.05495(7) 0.36298(7)
C21 C 0.14328(15) 0.03394(7) 0.42600(7)
H12 H 0.1418 -0.0120 0.4370
C22 C 0.12721(18) 0.08390(9) 0.47241(8)
H13 H 0.1159 0.0714 0.5158
C23 C 0.12767(19) 0.15204(9) 0.45547(8)
H14 H 0.1154 0.1847 0.4874
C24 C 0.14597(17) 0.17250(8) 0.39203(8)
H15 H 0.1460 0.2185 0.3810
C25 C 0.32603(18) 0.17669(7) 0.27536(8)
H16 H 0.4029 0.1585 0.3067
H17 H 0.3071 0.2221 0.2888
H18 H 0.3475 0.1775 0.2306
loop_
_geom_bond_atom_site_label_1
_geom_bond_atom_site_label_2
_geom_bond_site_symmetry_1
_geom_bond_site_symmetry_2
N1 C5 1_555 1_555
N2 C17 1_555 1_555
C1 H1 1_555 1_555
C2 C1 1_555 1_555
H2 C2 1_555 1_555
C3 C2 1_555 1_555
H3 C3 1_555 1_555
C4 C3 1_555 1_555
C5 C4 1_555 1_555
C6 C5 1_555 1_555
C7 C6 1_555 1_555
C8 C7 1_555 1_555
C9 C8 1_555 1_555
H4 C9 1_555 1_555
C10 C9 1_555 1_555
H5 C10 1_555 1_555
C11 C10 1_555 1_555
H6 C11 1_555 1_555
C12 C1 1_555 1_555
H7 C12 1_555 1_555
C13 C4 1_555 1_555
H8 C13 1_555 1_555
C14 N1 1_555 1_555
C15 C8 1_555 1_555
H9 C15 1_555 1_555
C16 C11 1_555 1_555
H10 C16 1_555 1_555
C17 C6 1_555 1_555
C18 C14 1_555 1_555
H11 C18 1_555 1_555
C19 C18 1_555 1_555
C20 N1 1_555 1_555
C21 C20 1_555 1_555
H12 C21 1_555 1_555
C22 C21 1_555 1_555
H13 C22 1_555 1_555
C23 C22 1_555 1_555
H14 C23 1_555 1_555
C24 C19 1_555 1_555
H15 C24 1_555 1_555
C25 C18 1_555 1_555
H16 C25 1_555 1_555
H17 C25 1_555 1_555
H18 C25 1_555 1_555
C7 C14 1_555 1_555
C12 C13 1_555 1_555
C15 C16 1_555 1_555
C19 C20 1_555 1_555
C23 C24 1_555 1_555

#END
