
#######################################################################
#
#                 Cambridge Crystallographic Data Centre
#                                CCDC 
#
#######################################################################
#
# If this CIF has been generated from an entry in the Cambridge 
# Structural Database, then it will include bibliographic, chemical, 
# crystal, experimental, refinement or atomic coordinate data resulting 
# from the CCDC's data processing and validation procedures.
#
#######################################################################

data_BAVDEJ
_chemical_formula_moiety         'C32 H24 N6'
_chemical_name_systematic        
2,2'-(Anthracene-1,8-diylbis(methanediyl-1H-pyrazole-1,3-diyl))dipyridine
_symmetry_cell_setting           monoclinic
_symmetry_space_group_name_H-M   'P 21/c'
_symmetry_Int_Tables_number      14
_space_group_name_Hall           '-P 2ybc'
loop_
_symmetry_equiv_pos_site_id
_symmetry_equiv_pos_as_xyz
1 x,y,z
2 -x,1/2+y,1/2-z
3 -x,-y,-z
4 x,1/2-y,1/2+z
_cell_length_a                   5.4905(2)
_cell_length_b                   14.2024(4)
_cell_length_c                   31.5698(9)
_cell_angle_alpha                90
_cell_angle_beta                 94.904(2)
_cell_angle_gamma                90
_cell_volume                     2452.75
_exptl_crystal_colour            colorless
_exptl_crystal_description       needle
_cell_formula_units_Z            4
loop_
_atom_site_label
_atom_site_type_symbol
_atom_site_fract_x
_atom_site_fract_y
_atom_site_fract_z
N1 N 0.9349(4) 1.31436(15) 0.06411(6)
C1 C 0.7694(4) 1.25008(15) 0.07373(6)
C2 C 0.7553(4) 1.16134(15) 0.05533(6)
H1 H 0.6356 1.1174 0.0627
C3 C 0.9191(4) 1.13782(18) 0.02588(6)
H2 H 0.9127 1.0777 0.0127
C4 C 1.0904(4) 1.2030(2) 0.01621(7)
H3 H 1.2062 1.1889 -0.0036
C5 C 1.0899(5) 1.2881(2) 0.03571(7)
H4 H 1.2089 1.3328 0.0287
N2 N 0.3544(3) 1.26327(11) 0.15347(5)
N3 N 0.4746(3) 1.21368(11) 0.12507(5)
C6 C 0.6076(4) 1.27860(14) 0.10640(6)
C7 C 0.5700(4) 1.36837(15) 0.12264(6)
H5 H 0.6421 1.4258 0.1146
C8 C 0.4068(4) 1.35597(14) 0.15264(6)
H6 H 0.3428 1.4036 0.1697
C9 C 0.2030(4) 1.21405(14) 0.18234(6)
H7 H 0.1715 1.1494 0.1715
H8 H 0.0435 1.2466 0.1821
N4 N 1.0303(3) 0.94500(11) 0.11669(5)
N5 N 1.0045(3) 0.85154(11) 0.11042(5)
C10 C 1.1899(4) 0.82776(13) 0.08762(5)
C11 C 1.3348(4) 0.90677(14) 0.07981(6)
H9 H 1.4764 0.9085 0.0645
C12 C 1.2269(4) 0.98049(14) 0.09906(6)
H10 H 1.2800 1.0442 0.0999
C13 C 0.8738(3) 0.99259(14) 0.14490(6)
H11 H 0.7092 0.9636 0.1417
H12 H 0.8565 1.0595 0.1363
N6 N 1.4195(3) 0.71257(13) 0.05316(5)
C14 C 1.2216(4) 0.72972(14) 0.07430(5)
C15 C 1.0582(4) 0.65925(15) 0.08378(6)
H13 H 0.9192 0.6738 0.0985
C16 C 1.1012(5) 0.56809(16) 0.07147(7)
H14 H 0.9932 0.5188 0.0778
C17 C 1.3035(5) 0.54964(17) 0.04982(7)
H15 H 1.3372 0.4876 0.0408
C18 C 1.4553(5) 0.62317(17) 0.04161(7)
H16 H 1.5947 0.6097 0.0268
C19 C 0.3152(3) 1.20830(13) 0.22781(6)
C20 C 0.2063(4) 1.25604(13) 0.25871(6)
H17 H 0.0673 1.2940 0.2509
C21 C 0.2953(4) 1.25041(14) 0.30226(6)
H18 H 0.2165 1.2847 0.3230
C22 C 0.4920(4) 1.19635(14) 0.31420(6)
H19 H 0.5499 1.1929 0.3434
C23 C 0.6143(4) 1.14427(13) 0.28347(6)
C24 C 0.5247(3) 1.15017(13) 0.23942(5)
C25 C 1.1428(4) 0.97861(14) 0.27798(6)
H20 H 1.2011 0.9741 0.3071
C26 C 1.2600(4) 0.93100(13) 0.24825(6)
H21 H 1.4004 0.8943 0.2567
C27 C 1.1733(3) 0.93597(13) 0.20459(6)
H22 H 1.2574 0.9025 0.1842
C28 C 0.9721(3) 0.98766(13) 0.19132(6)
C29 C 0.8447(3) 1.03996(13) 0.22175(5)
C30 C 0.9341(3) 1.03493(13) 0.26593(6)
C31 C 0.8142(4) 1.08704(13) 0.29523(6)
H23 H 0.8713 1.0833 0.3244
C32 C 0.6432(3) 1.09710(13) 0.20983(6)
H24 H 0.5844 1.1001 0.1807
loop_
_geom_bond_atom_site_label_1
_geom_bond_atom_site_label_2
_geom_bond_site_symmetry_1
_geom_bond_site_symmetry_2
N1 C1 1_555 1_555
C1 C2 1_555 1_555
C2 H1 1_555 1_555
C3 C2 1_555 1_555
H2 C3 1_555 1_555
C4 C3 1_555 1_555
H3 C4 1_555 1_555
C5 N1 1_555 1_555
H4 C5 1_555 1_555
N2 N3 1_555 1_555
N3 C6 1_555 1_555
C6 C1 1_555 1_555
C7 C6 1_555 1_555
H5 C7 1_555 1_555
C8 N2 1_555 1_555
H6 C8 1_555 1_555
C9 N2 1_555 1_555
H7 C9 1_555 1_555
H8 C9 1_555 1_555
N4 N5 1_555 1_555
N5 C10 1_555 1_555
C10 C11 1_555 1_555
C11 H9 1_555 1_555
C12 N4 1_555 1_555
H10 C12 1_555 1_555
C13 N4 1_555 1_555
H11 C13 1_555 1_555
H12 C13 1_555 1_555
N6 C14 1_555 1_555
C14 C10 1_555 1_555
C15 C14 1_555 1_555
H13 C15 1_555 1_555
C16 C15 1_555 1_555
H14 C16 1_555 1_555
C17 C16 1_555 1_555
H15 C17 1_555 1_555
C18 N6 1_555 1_555
H16 C18 1_555 1_555
C19 C9 1_555 1_555
C20 C19 1_555 1_555
H17 C20 1_555 1_555
C21 C20 1_555 1_555
H18 C21 1_555 1_555
C22 C21 1_555 1_555
H19 C22 1_555 1_555
C23 C22 1_555 1_555
C24 C19 1_555 1_555
C25 H20 1_555 1_555
C26 C25 1_555 1_555
H21 C26 1_555 1_555
C27 C26 1_555 1_555
H22 C27 1_555 1_555
C28 C13 1_555 1_555
C29 C28 1_555 1_555
C30 C25 1_555 1_555
C31 C23 1_555 1_555
H23 C31 1_555 1_555
C32 C24 1_555 1_555
H24 C32 1_555 1_555
C4 C5 1_555 1_555
C7 C8 1_555 1_555
C11 C12 1_555 1_555
C17 C18 1_555 1_555
C23 C24 1_555 1_555
C27 C28 1_555 1_555
C29 C30 1_555 1_555
C29 C32 1_555 1_555
C30 C31 1_555 1_555

#END
