
#######################################################################
#
#                 Cambridge Crystallographic Data Centre
#                                CCDC 
#
#######################################################################
#
# If this CIF has been generated from an entry in the Cambridge 
# Structural Database, then it will include bibliographic, chemical, 
# crystal, experimental, refinement or atomic coordinate data resulting 
# from the CCDC's data processing and validation procedures.
#
#######################################################################

data_BAVKIV
_chemical_formula_moiety         'C33 H23 B1 F2 N2'
_chemical_name_systematic        
15,15-difluoro-5,7-dimethyl-6-phenyl-15H-14,15-dibenzo[e,e'][1,3,2]diazaborinino[1,6-a:3,4-a']diindole
_symmetry_cell_setting           monoclinic
_symmetry_space_group_name_H-M   'C 2/c'
_symmetry_Int_Tables_number      15
_space_group_name_Hall           '-C 2yn'
loop_
_symmetry_equiv_pos_site_id
_symmetry_equiv_pos_as_xyz
1 x,y,z
2 -x,y,1/2-z
3 1/2+x,1/2+y,z
4 1/2-x,1/2+y,1/2-z
5 -x,-y,-z
6 x,-y,1/2+z
7 1/2-x,1/2-y,-z
8 1/2+x,1/2-y,1/2+z
_cell_length_a                   16.140(5)
_cell_length_b                   14.391(4)
_cell_length_c                   21.159(6)
_cell_angle_alpha                90
_cell_angle_beta                 103.057(3)
_cell_angle_gamma                90
_cell_volume                     4787.55
_exptl_crystal_colour            purple
_exptl_crystal_description       block
_cell_formula_units_Z            8
loop_
_atom_site_label
_atom_site_type_symbol
_atom_site_fract_x
_atom_site_fract_y
_atom_site_fract_z
F1 F 0.15894(15) 0.38438(14) 0.37353(9)
F2 F 0.27899(13) 0.40426(15) 0.33936(12)
N1 N 0.20227(16) 0.26142(18) 0.31172(12)
N2 N 0.14658(16) 0.40804(18) 0.25998(12)
C1 C 0.11296(18) 0.2624(2) 0.20292(14)
C2 C 0.23443(19) 0.1979(2) 0.35806(15)
C3 C 0.08168(18) 0.5128(2) 0.18444(15)
C4 C 0.10997(18) 0.3598(2) 0.20333(14)
C5 C 0.15504(18) 0.2129(2) 0.25844(14)
C6 C 0.0550(2) 0.6057(2) 0.16280(16)
C7 C 0.12956(19) 0.4991(2) 0.24848(15)
C8 C 0.07140(18) 0.4253(2) 0.15458(15)
C9 C 0.1335(2) 0.6598(2) 0.27042(17)
H1 H 0.1514 0.7097 0.2981
C10 C 0.20832(19) 0.1072(2) 0.33645(15)
C11 C 0.3016(2) 0.1443(2) 0.46285(17)
H2 H 0.3325 0.1557 0.5048
C12 C 0.23124(19) 0.0301(2) 0.38066(16)
C13 C 0.07023(19) 0.2106(2) 0.14378(14)
C14 C 0.28327(19) 0.2166(2) 0.42123(16)
H3 H 0.3021 0.2763 0.4336
C15 C 0.15725(19) 0.1165(2) 0.27342(15)
C16 C 0.1559(2) 0.5737(2) 0.29222(16)
H4 H 0.1874 0.5635 0.3342
C17 C 0.1183(2) 0.1638(2) 0.10721(16)
H5 H 0.1773 0.1648 0.1198
C18 C 0.2118(2) -0.0637(2) 0.36499(19)
H6 H 0.1856 -0.0798 0.3226
C19 C 0.2928(2) -0.0206(3) 0.49138(18)
H7 H 0.3200 -0.0066 0.5339
C20 C 0.27533(19) 0.0509(2) 0.44510(16)
C21 C 0.0835(2) 0.6789(2) 0.20677(17)
C22 C 0.0017(2) 0.6281(3) 0.10269(17)
H8 H -0.0188 0.5807 0.0735
B1 B 0.1993(2) 0.3669(2) 0.32305(17)
C23 C -0.0175(2) 0.2077(2) 0.12435(16)
H9 H -0.0504 0.2388 0.1485
C24 C 0.0787(3) 0.1158(3) 0.05221(18)
H10 H 0.1112 0.0846 0.0278
C25 C 0.0337(2) 0.4074(2) 0.08445(15)
H11 H -0.0271 0.4053 0.0774
H12 H 0.0543 0.3492 0.0721
H13 H 0.0498 0.4564 0.0588
C26 C 0.2310(3) -0.1317(3) 0.4115(2)
H14 H 0.2172 -0.1931 0.4002
C27 C 0.1085(2) 0.0396(2) 0.23404(17)
H15 H 0.0626 0.0655 0.2018
H16 H 0.0859 -0.0010 0.2619
H17 H 0.1456 0.0052 0.2131
C28 C 0.0600(3) 0.7707(2) 0.1880(2)
H18 H 0.0796 0.8191 0.2165
C29 C -0.0566(2) 0.1593(2) 0.06960(17)
H19 H -0.1156 0.1573 0.0571
C30 C -0.0083(2) 0.1137(2) 0.03334(17)
H20 H -0.0347 0.0816 -0.0039
C31 C -0.0208(3) 0.7180(3) 0.0860(2)
H21 H -0.0561 0.7309 0.0458
C32 C 0.2705(2) -0.1104(3) 0.4749(2)
H22 H 0.2819 -0.1570 0.5061
C33 C 0.0089(3) 0.7901(3) 0.1288(2)
H23 H -0.0059 0.8512 0.1171
loop_
_geom_bond_atom_site_label_1
_geom_bond_atom_site_label_2
_geom_bond_site_symmetry_1
_geom_bond_site_symmetry_2
F1 B1 1_555 1_555
F2 B1 1_555 1_555
N1 C2 1_555 1_555
N2 C4 1_555 1_555
C1 C4 1_555 1_555
C2 C10 1_555 1_555
C3 C6 1_555 1_555
C4 C8 1_555 1_555
C5 N1 1_555 1_555
C6 C21 1_555 1_555
C7 N2 1_555 1_555
C8 C3 1_555 1_555
C9 H1 1_555 1_555
C10 C12 1_555 1_555
C11 H2 1_555 1_555
C12 C18 1_555 1_555
C13 C1 1_555 1_555
C14 C2 1_555 1_555
H3 C14 1_555 1_555
C15 C5 1_555 1_555
C16 C7 1_555 1_555
H4 C16 1_555 1_555
C17 C13 1_555 1_555
H5 C17 1_555 1_555
C18 H6 1_555 1_555
C19 H7 1_555 1_555
C20 C11 1_555 1_555
C21 C9 1_555 1_555
C22 C6 1_555 1_555
H8 C22 1_555 1_555
B1 N1 1_555 1_555
C23 C13 1_555 1_555
H9 C23 1_555 1_555
C24 C17 1_555 1_555
H10 C24 1_555 1_555
C25 C8 1_555 1_555
H11 C25 1_555 1_555
H12 C25 1_555 1_555
H13 C25 1_555 1_555
C26 C18 1_555 1_555
H14 C26 1_555 1_555
C27 C15 1_555 1_555
H15 C27 1_555 1_555
H16 C27 1_555 1_555
H17 C27 1_555 1_555
C28 C21 1_555 1_555
H18 C28 1_555 1_555
C29 C23 1_555 1_555
H19 C29 1_555 1_555
C30 C24 1_555 1_555
H20 C30 1_555 1_555
C31 C22 1_555 1_555
H21 C31 1_555 1_555
C32 C19 1_555 1_555
H22 C32 1_555 1_555
C33 C28 1_555 1_555
H23 C33 1_555 1_555
N2 B1 1_555 1_555
C1 C5 1_555 1_555
C3 C7 1_555 1_555
C9 C16 1_555 1_555
C10 C15 1_555 1_555
C11 C14 1_555 1_555
C12 C20 1_555 1_555
C19 C20 1_555 1_555
C26 C32 1_555 1_555
C29 C30 1_555 1_555
C31 C33 1_555 1_555

#END
