
#######################################################################
#
#                 Cambridge Crystallographic Data Centre
#                                CCDC 
#
#######################################################################
#
# If this CIF has been generated from an entry in the Cambridge 
# Structural Database, then it will include bibliographic, chemical, 
# crystal, experimental, refinement or atomic coordinate data resulting 
# from the CCDC's data processing and validation procedures.
#
#######################################################################

data_BAVKER
_chemical_formula_moiety         'C26 H21 B1 F2 N2'
_chemical_name_systematic        
8,8-difluoro-10,12,14-trimethyl-13-phenyl-8H-9,8-benzo[e]pyrrolo[1',2':3,4][1,3,2]diazaborinino[1,6-a]indole
_symmetry_cell_setting           monoclinic
_symmetry_space_group_name_H-M   'C 2/c'
_symmetry_Int_Tables_number      15
_space_group_name_Hall           '-C 2yn'
loop_
_symmetry_equiv_pos_site_id
_symmetry_equiv_pos_as_xyz
1 x,y,z
2 -x,y,1/2-z
3 1/2+x,1/2+y,z
4 1/2-x,1/2+y,1/2-z
5 -x,-y,-z
6 x,-y,1/2+z
7 1/2-x,1/2-y,-z
8 1/2+x,1/2-y,1/2+z
_cell_length_a                   21.110(8)
_cell_length_b                   10.940(4)
_cell_length_c                   20.341(12)
_cell_angle_alpha                90
_cell_angle_beta                 118.052(3)
_cell_angle_gamma                90
_cell_volume                     4145.75
_exptl_crystal_colour            purple
_exptl_crystal_description       block
_cell_formula_units_Z            8
loop_
_atom_site_label
_atom_site_type_symbol
_atom_site_fract_x
_atom_site_fract_y
_atom_site_fract_z
B1 B 0.1216(2) 0.2054(5) 0.2147(3)
C1 C 0.3690(2) 0.1433(5) 0.4492(3)
H1 H 0.3785 0.1877 0.4936
H2 H 0.3940 0.1810 0.4255
H3 H 0.3850 0.0604 0.4619
C2 C 0.2891(2) 0.1444(4) 0.3964(2)
C3 C 0.2345(2) 0.1204(4) 0.4158(2)
C4 C 0.2344(2) 0.0860(4) 0.4844(2)
C5 C 0.2969(3) 0.0691(5) 0.5534(3)
H4 H 0.3418 0.0776 0.5558
C6 C 0.2924(4) 0.0406(5) 0.6166(3)
H5 H 0.3341 0.0310 0.6615
C7 C 0.2256(4) 0.0258(5) 0.6138(3)
H6 H 0.2229 0.0067 0.6570
C8 C 0.1638(3) 0.0392(5) 0.5478(3)
H7 H 0.1196 0.0274 0.5466
C9 C 0.1662(3) 0.0708(4) 0.4817(3)
C10 C 0.1020(3) 0.0910(5) 0.4142(3)
H8 H 0.0583 0.0805 0.4143
C11 C 0.1012(2) 0.1244(4) 0.3501(3)
H9 H 0.0583 0.1374 0.3068
C12 C 0.1684(2) 0.1390(4) 0.3510(2)
C13 C 0.2544(2) 0.1755(4) 0.3196(2)
C14 C 0.2814(2) 0.2121(4) 0.2709(2)
C15 C 0.3605(2) 0.2042(4) 0.2970(2)
C16 C 0.3919(2) 0.0912(4) 0.3028(2)
H10 H 0.3638 0.0210 0.2911
C17 C 0.4643(3) 0.0816(6) 0.3258(3)
H11 H 0.4851 0.0054 0.3289
C18 C 0.5051(3) 0.1841(7) 0.3441(3)
H12 H 0.5542 0.1776 0.3603
C19 C 0.4753(3) 0.2964(6) 0.3390(4)
H13 H 0.5041 0.3658 0.3518
C20 C 0.4027(3) 0.3081(5) 0.3152(3)
H14 H 0.3824 0.3849 0.3113
C21 C 0.2358(2) 0.2511(4) 0.1990(3)
C22 C 0.2486(3) 0.2888(4) 0.1386(3)
C23 C 0.3189(3) 0.2982(6) 0.1366(3)
H15 H 0.3455 0.2238 0.1552
H16 H 0.3462 0.3654 0.1672
H17 H 0.3098 0.3114 0.0863
C24 C 0.1824(3) 0.3122(5) 0.0798(3)
H18 H 0.1741 0.3395 0.0331
C25 C 0.1293(3) 0.2886(5) 0.1006(3)
C26 C 0.0501(3) 0.2993(6) 0.0539(3)
H19 H 0.0292 0.2191 0.0425
H20 H 0.0395 0.3413 0.0085
H21 H 0.0304 0.3442 0.0806
F1 F 0.07696(14) 0.2941(3) 0.21762(16)
F2 F 0.08144(15) 0.1033(3) 0.17896(16)
N1 N 0.16073(18) 0.2528(3) 0.1719(2)
N2 N 0.18004(17) 0.1726(3) 0.29343(19)
loop_
_geom_bond_atom_site_label_1
_geom_bond_atom_site_label_2
_geom_bond_site_symmetry_1
_geom_bond_site_symmetry_2
B1 F1 1_555 1_555
C1 H1 1_555 1_555
H2 C1 1_555 1_555
H3 C1 1_555 1_555
C2 C1 1_555 1_555
C3 C2 1_555 1_555
C4 C3 1_555 1_555
C5 C4 1_555 1_555
H4 C5 1_555 1_555
C6 C5 1_555 1_555
H5 C6 1_555 1_555
C7 C6 1_555 1_555
H6 C7 1_555 1_555
C8 C7 1_555 1_555
H7 C8 1_555 1_555
C9 C4 1_555 1_555
C10 C9 1_555 1_555
H8 C10 1_555 1_555
C11 C10 1_555 1_555
H9 C11 1_555 1_555
C12 C3 1_555 1_555
C13 C2 1_555 1_555
C14 C13 1_555 1_555
C15 C14 1_555 1_555
C16 C15 1_555 1_555
H10 C16 1_555 1_555
C17 C16 1_555 1_555
H11 C17 1_555 1_555
C18 C17 1_555 1_555
H12 C18 1_555 1_555
C19 C18 1_555 1_555
H13 C19 1_555 1_555
C20 C15 1_555 1_555
H14 C20 1_555 1_555
C21 C14 1_555 1_555
C22 C21 1_555 1_555
C23 C22 1_555 1_555
H15 C23 1_555 1_555
H16 C23 1_555 1_555
H17 C23 1_555 1_555
C24 C22 1_555 1_555
H18 C24 1_555 1_555
C25 C24 1_555 1_555
C26 C25 1_555 1_555
H19 C26 1_555 1_555
H20 C26 1_555 1_555
H21 C26 1_555 1_555
F2 B1 1_555 1_555
N1 B1 1_555 1_555
N2 B1 1_555 1_555
C8 C9 1_555 1_555
C11 C12 1_555 1_555
C12 N2 1_555 1_555
C13 N2 1_555 1_555
C19 C20 1_555 1_555
C21 N1 1_555 1_555
C25 N1 1_555 1_555

#END
