
#######################################################################
#
#                 Cambridge Crystallographic Data Centre
#                                CCDC 
#
#######################################################################
#
# If this CIF has been generated from an entry in the Cambridge 
# Structural Database, then it will include bibliographic, chemical, 
# crystal, experimental, refinement or atomic coordinate data resulting 
# from the CCDC's data processing and validation procedures.
#
#######################################################################

data_BAVXUU
_chemical_formula_moiety         'C19 H17 N3 O3'
_chemical_name_systematic        
'allyl 3-cyano-4-(1-methyl-2-oxo-2,3-dihydro-1H-indol-3-yl)pyridine-1(4H)-carboxylate'
_symmetry_cell_setting           monoclinic
_symmetry_space_group_name_H-M   'P 21/c'
_symmetry_Int_Tables_number      14
_space_group_name_Hall           '-P 2ybc'
loop_
_symmetry_equiv_pos_site_id
_symmetry_equiv_pos_as_xyz
1 x,y,z
2 -x,1/2+y,1/2-z
3 -x,-y,-z
4 x,1/2-y,1/2+z
_cell_length_a                   13.3094(11)
_cell_length_b                   9.2291(8)
_cell_length_c                   14.2218(12)
_cell_angle_alpha                90
_cell_angle_beta                 105.326(2)
_cell_angle_gamma                90
_cell_volume                     1684.79
_exptl_crystal_colour            colorless
_exptl_crystal_description       block
_cell_formula_units_Z            4
loop_
_atom_site_label
_atom_site_type_symbol
_atom_site_fract_x
_atom_site_fract_y
_atom_site_fract_z
O1 O -0.24856(14) 0.26788(17) 0.17951(13)
O2 O 0.00124(14) 0.8514(2) -0.08518(12)
O3 O 0.13412(12) 0.85871(18) 0.05087(11)
N1 N -0.35675(15) 0.4652(2) 0.15965(14)
N2 N -0.30608(19) 0.4241(3) -0.06330(18)
N3 N -0.00234(14) 0.71469(19) 0.04764(12)
C1 C -0.34487(18) 0.6166(2) 0.16669(16)
C2 C -0.4216(2) 0.7211(3) 0.1513(2)
H1 H -0.4919 0.6967 0.1317
C3 C -0.3897(3) 0.8638(3) 0.1663(2)
H2 H -0.4397 0.9367 0.1558
C4 C -0.2863(2) 0.9010(3) 0.1962(2)
H3 H -0.2673 0.9978 0.2069
C5 C -0.2098(2) 0.7945(2) 0.21059(18)
H4 H -0.1396 0.8194 0.2304
C6 C -0.23962(18) 0.6514(2) 0.19499(15)
C7 C -0.17787(17) 0.5137(2) 0.20687(16)
H5 H -0.1407 0.5031 0.2759
C8 C -0.26234(19) 0.3981(2) 0.18156(16)
C9 C -0.09380(17) 0.6462(2) -0.00114(16)
H6 H -0.1247 0.6715 -0.0656
C10 C -0.4543(2) 0.3867(3) 0.1314(2)
H7 H -0.4404 0.2845 0.1325
H8 H -0.4920 0.4151 0.0668
H9 H -0.4950 0.4084 0.1761
C11 C -0.13943(17) 0.5453(2) 0.04072(15)
C12 C -0.09816(17) 0.4966(2) 0.14559(15)
H10 H -0.0812 0.3934 0.1447
C13 C 0.00124(16) 0.5761(2) 0.19011(16)
H11 H 0.0352 0.5552 0.2547
C14 C 0.04436(17) 0.6735(2) 0.14498(15)
H12 H 0.1071 0.7161 0.1782
C15 C 0.04251(18) 0.8142(2) -0.00301(17)
C16 C 0.1941(2) 0.9486(3) 0.00053(19)
H13 H 0.1569 1.0376 -0.0222
H14 H 0.2056 0.8972 -0.0552
C17 C -0.23207(19) 0.4794(3) -0.01815(18)
C18 C 0.2938(2) 0.9805(4) 0.0712(2)
H15 H 0.3274 0.9031 0.1084
C19 C 0.3387(3) 1.1022(4) 0.0867(3)
H16 H 0.3084 1.1830 0.0514
H17 H 0.4022 1.1108 0.1335
loop_
_geom_bond_atom_site_label_1
_geom_bond_atom_site_label_2
_geom_bond_site_symmetry_1
_geom_bond_site_symmetry_2
O1 C8 1_555 1_555
O2 C15 1_555 1_555
O3 C15 1_555 1_555
N1 C1 1_555 1_555
N2 C17 1_555 1_555
N3 C9 1_555 1_555
C1 C2 1_555 1_555
C2 H1 1_555 1_555
C3 C2 1_555 1_555
H2 C3 1_555 1_555
C4 C3 1_555 1_555
H3 C4 1_555 1_555
C5 C4 1_555 1_555
H4 C5 1_555 1_555
C6 C1 1_555 1_555
C7 C6 1_555 1_555
H5 C7 1_555 1_555
C8 N1 1_555 1_555
C9 H6 1_555 1_555
C10 N1 1_555 1_555
H7 C10 1_555 1_555
H8 C10 1_555 1_555
H9 C10 1_555 1_555
C11 C9 1_555 1_555
C12 C7 1_555 1_555
H10 C12 1_555 1_555
C13 C12 1_555 1_555
H11 C13 1_555 1_555
C14 N3 1_555 1_555
H12 C14 1_555 1_555
C15 N3 1_555 1_555
C16 O3 1_555 1_555
H13 C16 1_555 1_555
H14 C16 1_555 1_555
C17 C11 1_555 1_555
C18 C16 1_555 1_555
H15 C18 1_555 1_555
C19 C18 1_555 1_555
H16 C19 1_555 1_555
H17 C19 1_555 1_555
C5 C6 1_555 1_555
C7 C8 1_555 1_555
C11 C12 1_555 1_555
C13 C14 1_555 1_555

#END
