
#######################################################################
#
#                 Cambridge Crystallographic Data Centre
#                                CCDC 
#
#######################################################################
#
# If this CIF has been generated from an entry in the Cambridge 
# Structural Database, then it will include bibliographic, chemical, 
# crystal, experimental, refinement or atomic coordinate data resulting 
# from the CCDC's data processing and validation procedures.
#
#######################################################################

data_BAWDUB
_chemical_formula_moiety         'C17 H14 O2'
_chemical_name_systematic        2-Methoxy-5-phenyl-1-naphthol
_symmetry_cell_setting           orthorhombic
_symmetry_space_group_name_H-M   'F d d 2'
_symmetry_Int_Tables_number      43
_space_group_name_Hall           'F 2 -2d'
loop_
_symmetry_equiv_pos_site_id
_symmetry_equiv_pos_as_xyz
1 x,y,z
2 -x,-y,z
3 1/4-x,1/4+y,1/4+z
4 1/4+x,1/4-y,1/4+z
5 x,1/2+y,1/2+z
6 -x,1/2-y,1/2+z
7 1/4-x,3/4+y,3/4+z
8 1/4+x,3/4-y,3/4+z
9 1/2+x,y,1/2+z
10 1/2-x,-y,1/2+z
11 3/4-x,1/4+y,3/4+z
12 3/4+x,1/4-y,3/4+z
13 1/2+x,1/2+y,z
14 1/2-x,1/2-y,z
15 3/4-x,3/4+y,1/4+z
16 3/4+x,3/4-y,1/4+z
_cell_length_a                   13.3885(3)
_cell_length_b                   66.3135(18)
_cell_length_c                   5.5816(2)
_cell_angle_alpha                90
_cell_angle_beta                 90
_cell_angle_gamma                90
_cell_volume                     4955.56
_exptl_crystal_colour            yellow
_exptl_crystal_description       Tabullar
_cell_formula_units_Z            16
loop_
_atom_site_label
_atom_site_type_symbol
_atom_site_fract_x
_atom_site_fract_y
_atom_site_fract_z
O1 O -0.65997(10) -0.738453(19) 0.3449(3)
O2 O -0.80259(9) -0.72736(2) 0.6571(3)
H1 H -0.8046 -0.7356 0.5432
C1 C -0.59254(14) -0.74261(3) 0.1522(4)
H2 H -0.5298 -0.7479 0.2169
H3 H -0.5792 -0.7302 0.0634
H4 H -0.6225 -0.7526 0.0445
C2 C -0.63810(14) -0.72250(3) 0.4950(3)
C3 C -0.71258(13) -0.71751(3) 0.6551(4)
C4 C -0.69779(14) -0.70204(3) 0.8265(4)
C5 C -0.60622(13) -0.69088(3) 0.8213(4)
C6 C -0.59200(12) -0.67504(3) 0.9921(4)
C7 C -0.50018(13) -0.66212(3) 0.9824(4)
C8 C -0.48386(14) -0.64918(3) 0.7895(4)
H5 H -0.5298 -0.6490 0.6599
C9 C -0.40123(14) -0.63654(3) 0.7847(4)
H6 H -0.3914 -0.6277 0.6529
C10 C -0.33272(14) -0.63679(3) 0.9725(4)
H7 H -0.2765 -0.6280 0.9701
C11 C -0.53244(13) -0.69641(3) 0.6532(4)
H8 H -0.4712 -0.6892 0.6498
C12 C -0.54688(14) -0.71190(3) 0.4946(4)
H9 H -0.4956 -0.7155 0.3849
C13 C -0.66314(13) -0.67162(3) 1.1645(4)
H10 H -0.6528 -0.6612 1.2788
C14 C -0.75161(14) -0.68327(3) 1.1755(4)
H11 H -0.7990 -0.6809 1.2989
C15 C -0.76902(13) -0.69801(3) 1.0083(4)
H12 H -0.8292 -0.7056 1.0143
C16 C -0.43074(13) -0.66242(3) 1.1680(4)
H13 H -0.4404 -0.6713 1.2998
C17 C -0.34717(13) -0.64988(3) 1.1629(4)
H14 H -0.3001 -0.6503 1.2901
loop_
_geom_bond_atom_site_label_1
_geom_bond_atom_site_label_2
_geom_bond_site_symmetry_1
_geom_bond_site_symmetry_2
O1 C1 1_555 1_555
O2 H1 1_555 1_555
C1 H2 1_555 1_555
H3 C1 1_555 1_555
H4 C1 1_555 1_555
C2 O1 1_555 1_555
C3 O2 1_555 1_555
C4 C3 1_555 1_555
C5 C4 1_555 1_555
C6 C5 1_555 1_555
C7 C6 1_555 1_555
C8 C7 1_555 1_555
H5 C8 1_555 1_555
C9 C8 1_555 1_555
H6 C9 1_555 1_555
C10 C9 1_555 1_555
H7 C10 1_555 1_555
C11 C5 1_555 1_555
H8 C11 1_555 1_555
C12 C2 1_555 1_555
H9 C12 1_555 1_555
C13 C6 1_555 1_555
H10 C13 1_555 1_555
C14 C13 1_555 1_555
H11 C14 1_555 1_555
C15 C4 1_555 1_555
H12 C15 1_555 1_555
C16 C7 1_555 1_555
H13 C16 1_555 1_555
C17 C10 1_555 1_555
H14 C17 1_555 1_555
C2 C3 1_555 1_555
C11 C12 1_555 1_555
C14 C15 1_555 1_555
C16 C17 1_555 1_555

#END
