
#######################################################################
#
#                 Cambridge Crystallographic Data Centre
#                                CCDC 
#
#######################################################################
#
# If this CIF has been generated from an entry in the Cambridge 
# Structural Database, then it will include bibliographic, chemical, 
# crystal, experimental, refinement or atomic coordinate data resulting 
# from the CCDC's data processing and validation procedures.
#
#######################################################################

data_BAWDOS
_chemical_formula_moiety         'C29 H27 Br1 O4 S1,0.25(C1 H2 Cl2)'
_chemical_name_systematic        
'3-Phenylthio-6,9,10-trimethyl-12-hydroxytricyclo(7.4.0.0^2,6^)trideca-2,10-diene-4,8-dione p-bromobenzoate methylene chloride solvate'
_symmetry_cell_setting           monoclinic
_symmetry_space_group_name_H-M   'P 21/c'
_symmetry_Int_Tables_number      14
_space_group_name_Hall           '-P 2ybc'
loop_
_symmetry_equiv_pos_site_id
_symmetry_equiv_pos_as_xyz
1 x,y,z
2 -x,1/2+y,1/2-z
3 -x,-y,-z
4 x,1/2-y,1/2+z
_cell_length_a                   14.118(2)
_cell_length_b                   10.987(2)
_cell_length_c                   21.534(4)
_cell_angle_alpha                90
_cell_angle_beta                 124.24
_cell_angle_gamma                90
_cell_volume                     2761.33
_chemical_melting_point          127deg.C
_cell_formula_units_Z            4
loop_
_atom_site_label
_atom_site_type_symbol
_atom_site_fract_x
_atom_site_fract_y
_atom_site_fract_z
C1 C 0.62708 0.54312 0.42365
H1 H 0.69286 0.50000 0.45469
H2 H 0.63706 0.60677 0.39508
C2 C 0.56308 0.60713 0.45206
O1 O 0.60393 0.66171 0.51072
C3 C 0.43907 0.58585 0.39268
S1 S 0.32732 0.64634 0.39574
C4 C 0.42733 0.50106 0.34378
C5 C 0.35531 0.80581 0.40257
C6 C 0.41607 0.85943 0.37716
H3 H 0.45238 0.80882 0.35781
C7 C 0.43099 0.98413 0.38273
H4 H 0.47107 1.02691 0.36468
C8 C 0.38647 1.05604 0.41236
H5 H 0.40000 1.14706 0.41875
C9 C 0.32124 1.00172 0.43452
H6 H 0.28571 1.05882 0.46250
C10 C 0.30672 0.87617 0.43058
H7 H 0.26063 0.85278 0.45143
C11 C 0.31635 0.45857 0.27503
H8 H 0.25005 0.52546 0.26498
C12 C 0.32159 0.46002 0.20431
C13 C 0.27990 0.33599 0.28649
H9 H 0.28176 0.34317 0.33607
H10 H 0.33667 0.27953 0.30152
C14 C 0.32358 0.59299 0.18305
H11 H 0.37194 0.64595 0.22040
H12 H 0.26006 0.61782 0.16640
H13 H 0.31324 0.58415 0.13632
C15 C 0.43348 0.39735 0.22827
O2 O 0.43745 0.30214 0.20018
C16 C 0.54347 0.45542 0.29086
H14 H 0.62385 0.42051 0.30412
H15 H 0.54048 0.54412 0.27969
C17 C 0.54115 0.45696 0.36151
C18 C 0.56823 0.32623 0.39507
H16 H 0.64706 0.31059 0.42264
H17 H 0.51905 0.25882 0.37500
H18 H 0.55240 0.31958 0.42642
C19 C 0.15773 0.30909 0.21880
H19 H 0.10046 0.38129 0.22810
C20 C 0.14799 0.33150 0.14631
H20 H 0.09997 0.30882 0.10156
C21 C 0.21896 0.39464 0.14029
C22 C 0.20257 0.40401 0.06363
H21 H 0.22105 0.47420 0.05023
H22 H 0.14223 0.38318 0.03110
H23 H 0.23733 0.32493 0.06094
O3 O 0.13893 0.18035 0.22319
C23 C 0.02530 0.14353 0.18092
O4 O -0.05376 0.21135 0.14638
C24 C 0.02005 0.00874 0.17954
C25 C 0.11401 -0.06467 0.22115
H24 H 0.17857 -0.02059 0.25000
C26 C 0.10413 -0.18823 0.21396
H25 H 0.15713 -0.24983 0.23930
C27 C -0.00370 -0.23970 0.16651
C28 C -0.09999 -0.16922 0.12581
H26 H -0.16717 -0.19151 0.08319
C29 C -0.08907 -0.04370 0.13363
H27 H -0.01548 0.00000 0.11719
Br1 Br -0.01606 -0.41115 0.15493
C30 C -0.08507 -0.03563 -0.03598
Cl1 Cl -0.08579 0.10558 -0.02946
loop_
_geom_bond_atom_site_label_1
_geom_bond_atom_site_label_2
_geom_bond_site_symmetry_1
_geom_bond_site_symmetry_2
C1 H1 1_555 1_555
H2 C1 1_555 1_555
C2 C1 1_555 1_555
O1 C2 1_555 1_555
C3 C2 1_555 1_555
S1 C3 1_555 1_555
C4 C3 1_555 1_555
C5 S1 1_555 1_555
C6 C5 1_555 1_555
H3 C6 1_555 1_555
C7 C6 1_555 1_555
H4 C7 1_555 1_555
C8 C7 1_555 1_555
H5 C8 1_555 1_555
C9 C8 1_555 1_555
H6 C9 1_555 1_555
C10 C5 1_555 1_555
H7 C10 1_555 1_555
C11 C4 1_555 1_555
H8 C11 1_555 1_555
C12 C11 1_555 1_555
C13 C11 1_555 1_555
H9 C13 1_555 1_555
H10 C13 1_555 1_555
C14 C12 1_555 1_555
H11 C14 1_555 1_555
H12 C14 1_555 1_555
H13 C14 1_555 1_555
C15 C12 1_555 1_555
O2 C15 1_555 1_555
C16 C15 1_555 1_555
H14 C16 1_555 1_555
H15 C16 1_555 1_555
C17 C1 1_555 1_555
C18 C17 1_555 1_555
H16 C18 1_555 1_555
H17 C18 1_555 1_555
H18 C18 1_555 1_555
C19 C13 1_555 1_555
H19 C19 1_555 1_555
C20 C19 1_555 1_555
H20 C20 1_555 1_555
C21 C12 1_555 1_555
C22 C21 1_555 1_555
H21 C22 1_555 1_555
H22 C22 1_555 1_555
H23 C22 1_555 1_555
O3 C19 1_555 1_555
C23 O3 1_555 1_555
O4 C23 1_555 1_555
C24 C23 1_555 1_555
C25 C24 1_555 1_555
H24 C25 1_555 1_555
C26 C25 1_555 1_555
H25 C26 1_555 1_555
C27 C26 1_555 1_555
C28 C27 1_555 1_555
H26 C28 1_555 1_555
C29 C24 1_555 1_555
H27 C24 1_555 1_555
Br1 C27 1_555 1_555
C30 Cl1 1_555 1_555
C4 C17 1_555 1_555
C9 C10 1_555 1_555
C16 C17 1_555 1_555
C20 C21 1_555 1_555
C28 C29 1_555 1_555

#END
