
#######################################################################
#
#                 Cambridge Crystallographic Data Centre
#                                CCDC 
#
#######################################################################
#
# If this CIF has been generated from an entry in the Cambridge 
# Structural Database, then it will include bibliographic, chemical, 
# crystal, experimental, refinement or atomic coordinate data resulting 
# from the CCDC's data processing and validation procedures.
#
#######################################################################

data_BAWFAJ
_chemical_formula_moiety         'C17 H13 F1 O2'
_chemical_name_systematic        5-(4-Fluorophenyl)-2-methoxy-1-naphthol
_symmetry_cell_setting           triclinic
_symmetry_space_group_name_H-M   'P -1'
_symmetry_Int_Tables_number      2
_space_group_name_Hall           '-P 1'
loop_
_symmetry_equiv_pos_site_id
_symmetry_equiv_pos_as_xyz
1 x,y,z
2 -x,-y,-z
_cell_length_a                   6.7021(11)
_cell_length_b                   7.9371(12)
_cell_length_c                   12.170(2)
_cell_angle_alpha                85.327(6)
_cell_angle_beta                 80.530(6)
_cell_angle_gamma                82.517(6)
_cell_volume                     631.931
_exptl_crystal_colour            yellow
_cell_formula_units_Z            2
loop_
_atom_site_label
_atom_site_type_symbol
_atom_site_fract_x
_atom_site_fract_y
_atom_site_fract_z
F1 F 0.38092(13) 1.10718(11) 0.41603(7)
O1 O 0.17294(14) 0.16042(12) -0.02511(8)
O2 O -0.21089(14) 0.18409(12) 0.08612(8)
H1 H -0.1506 0.1162 0.0386
C1 C 0.2694(2) 0.98846(17) 0.39057(12)
C2 C 0.2156(2) 1.00090(18) 0.28570(12)
H2 H 0.2556 1.0897 0.2328
C3 C 0.1017(2) 0.88055(18) 0.25914(12)
H3 H 0.0646 0.8863 0.1868
C4 C 0.0408(2) 0.75083(17) 0.33733(11)
C5 C -0.0874(2) 0.62487(17) 0.30979(11)
C6 C -0.0138(2) 0.51131(16) 0.22235(11)
C7 C -0.1463(2) 0.39719(16) 0.19727(11)
C8 C -0.0769(2) 0.28668(17) 0.11014(11)
C9 C 0.1193(2) 0.28124(17) 0.05328(11)
C10 C 0.3629(2) 0.17008(18) -0.09910(12)
H4 H 0.3664 0.2858 -0.1337
H5 H 0.3752 0.0893 -0.1573
H6 H 0.4762 0.1417 -0.0567
C11 C 0.2124(2) 0.86406(18) 0.47056(12)
H7 H 0.2514 0.8591 0.5425
C12 C 0.0959(2) 0.74570(17) 0.44312(12)
H8 H 0.0531 0.6596 0.4976
C13 C 0.1857(2) 0.50358(17) 0.16118(12)
H9 H 0.2758 0.5783 0.1768
C14 C 0.2514(2) 0.39041(17) 0.07975(12)
H10 H 0.3870 0.3857 0.0410
C15 C -0.3437(2) 0.39486(17) 0.26110(12)
H11 H -0.4316 0.3186 0.2450
C16 C -0.4072(2) 0.50192(18) 0.34551(12)
H12 H -0.5387 0.4985 0.3885
C17 C -0.2797(2) 0.61759(18) 0.36961(12)
H13 H -0.3273 0.6919 0.4282
loop_
_geom_bond_atom_site_label_1
_geom_bond_atom_site_label_2
_geom_bond_site_symmetry_1
_geom_bond_site_symmetry_2
F1 C1 1_555 1_555
O1 C9 1_555 1_555
O2 H1 1_555 1_555
C1 C2 1_555 1_555
C2 H2 1_555 1_555
C3 C2 1_555 1_555
H3 C3 1_555 1_555
C4 C3 1_555 1_555
C5 C4 1_555 1_555
C6 C5 1_555 1_555
C7 C6 1_555 1_555
C8 O2 1_555 1_555
C9 C8 1_555 1_555
C10 O1 1_555 1_555
H4 C10 1_555 1_555
H5 C10 1_555 1_555
H6 C10 1_555 1_555
C11 C1 1_555 1_555
H7 C11 1_555 1_555
C12 C4 1_555 1_555
H8 C12 1_555 1_555
C13 C6 1_555 1_555
H9 C13 1_555 1_555
C14 C9 1_555 1_555
H10 C14 1_555 1_555
C15 C7 1_555 1_555
H11 C15 1_555 1_555
C16 C15 1_555 1_555
H12 C16 1_555 1_555
C17 C5 1_555 1_555
H13 C17 1_555 1_555
C7 C8 1_555 1_555
C11 C12 1_555 1_555
C13 C14 1_555 1_555
C16 C17 1_555 1_555

#END
