
#######################################################################
#
#                 Cambridge Crystallographic Data Centre
#                                CCDC 
#
#######################################################################
#
# If this CIF has been generated from an entry in the Cambridge 
# Structural Database, then it will include bibliographic, chemical, 
# crystal, experimental, refinement or atomic coordinate data resulting 
# from the CCDC's data processing and validation procedures.
#
#######################################################################

data_BAWFUD
_chemical_formula_moiety         'C19 H18 O3'
_chemical_name_systematic        1,2-dimethoxy-4-(4-methoxyphenyl)naphthalene
_symmetry_cell_setting           monoclinic
_symmetry_space_group_name_H-M   'P 21/c'
_symmetry_Int_Tables_number      14
_space_group_name_Hall           '-P 2ybc'
loop_
_symmetry_equiv_pos_site_id
_symmetry_equiv_pos_as_xyz
1 x,y,z
2 -x,1/2+y,1/2-z
3 -x,-y,-z
4 x,1/2-y,1/2+z
_cell_length_a                   13.3450(12)
_cell_length_b                   15.2538(14)
_cell_length_c                   7.5723(7)
_cell_angle_alpha                90
_cell_angle_beta                 99.819(2)
_cell_angle_gamma                90
_cell_volume                     1518.85
_exptl_crystal_colour            colorless
_cell_formula_units_Z            4
loop_
_atom_site_label
_atom_site_type_symbol
_atom_site_fract_x
_atom_site_fract_y
_atom_site_fract_z
O1 O 0.89874(12) 0.70476(10) 0.2409(2)
O2 O 0.65911(12) 0.33061(10) 1.1408(2)
O3 O 1.02725(12) 0.62883(11) 0.5098(2)
C1 C 0.9348(2) 0.65571(18) 0.1054(4)
H1 H 0.9898 0.6169 0.1605
H2 H 0.9603 0.6958 0.0223
H3 H 0.8791 0.6205 0.0399
C2 C 0.86114(18) 0.65406(14) 0.3656(3)
C3 C 0.75444(17) 0.64719(14) 0.3541(3)
C4 C 0.71386(16) 0.59626(13) 0.4819(3)
C5 C 0.78205(16) 0.55333(13) 0.6205(3)
C6 C 0.74587(15) 0.49653(14) 0.7558(3)
C7 C 0.77308(17) 0.40822(15) 0.7711(3)
H4 H 0.8134 0.3842 0.6910
C8 C 0.74297(17) 0.35504(15) 0.8992(3)
H5 H 0.7621 0.2950 0.9060
C9 C 0.68488(16) 0.38877(14) 1.0184(3)
C10 C 0.6045(2) 0.36285(18) 1.2719(4)
H6 H 0.6432 0.4102 1.3395
H7 H 0.5939 0.3153 1.3538
H8 H 0.5384 0.3854 1.2129
C11 C 0.92487(16) 0.61531(14) 0.5035(3)
C12 C 1.09217(19) 0.6157(2) 0.6763(4)
H9 H 1.0646 0.6467 0.7708
H10 H 1.1601 0.6385 0.6694
H11 H 1.0967 0.5529 0.7038
C13 C 0.88502(16) 0.56397(14) 0.6289(3)
H12 H 0.9304 0.5358 0.7219
C14 C 0.6864(2) 0.69096(15) 0.2172(3)
H13 H 0.7127 0.7260 0.1321
C15 C 0.5838(2) 0.68315(17) 0.2070(4)
H14 H 0.5394 0.7129 0.1149
C16 C 0.54329(19) 0.63179(17) 0.3304(3)
H15 H 0.4717 0.6262 0.3209
C17 C 0.60623(17) 0.58958(15) 0.4647(3)
H16 H 0.5777 0.5551 0.5482
C18 C 0.68750(17) 0.52859(14) 0.8769(3)
H17 H 0.6677 0.5885 0.8698
C19 C 0.65720(16) 0.47626(14) 1.0077(3)
H18 H 0.6178 0.5002 1.0893
loop_
_geom_bond_atom_site_label_1
_geom_bond_atom_site_label_2
_geom_bond_site_symmetry_1
_geom_bond_site_symmetry_2
O1 C1 1_555 1_555
O2 C9 1_555 1_555
O3 C11 1_555 1_555
C1 H1 1_555 1_555
H2 C1 1_555 1_555
H3 C1 1_555 1_555
C2 O1 1_555 1_555
C3 C2 1_555 1_555
C4 C3 1_555 1_555
C5 C4 1_555 1_555
C6 C5 1_555 1_555
C7 C6 1_555 1_555
H4 C7 1_555 1_555
C8 C7 1_555 1_555
H5 C8 1_555 1_555
C9 C8 1_555 1_555
C10 O2 1_555 1_555
H6 C10 1_555 1_555
H7 C10 1_555 1_555
H8 C10 1_555 1_555
C11 C2 1_555 1_555
C12 O3 1_555 1_555
H9 C12 1_555 1_555
H10 C12 1_555 1_555
H11 C12 1_555 1_555
C13 C5 1_555 1_555
H12 C13 1_555 1_555
C14 C3 1_555 1_555
H13 C14 1_555 1_555
C15 C14 1_555 1_555
H14 C15 1_555 1_555
C16 C15 1_555 1_555
H15 C16 1_555 1_555
C17 C4 1_555 1_555
H16 C17 1_555 1_555
C18 C6 1_555 1_555
H17 C18 1_555 1_555
C19 C9 1_555 1_555
H18 C19 1_555 1_555
C11 C13 1_555 1_555
C16 C17 1_555 1_555
C18 C19 1_555 1_555

#END
