
#######################################################################
#
#                 Cambridge Crystallographic Data Centre
#                                CCDC 
#
#######################################################################
#
# If this CIF has been generated from an entry in the Cambridge 
# Structural Database, then it will include bibliographic, chemical, 
# crystal, experimental, refinement or atomic coordinate data resulting 
# from the CCDC's data processing and validation procedures.
#
#######################################################################

data_BAWGAK
_chemical_formula_moiety         'C18 H38 Ca1 N2 O8 2+,2(I1 1-)'
_chemical_name_systematic        
'bis(N,N-dimethylformamide)-(18-crown-6)-calcium(ii) bis(iodide)'
_symmetry_cell_setting           triclinic
_symmetry_space_group_name_H-M   'P -1'
_symmetry_Int_Tables_number      2
_space_group_name_Hall           '-P 1'
loop_
_symmetry_equiv_pos_site_id
_symmetry_equiv_pos_as_xyz
1 x,y,z
2 -x,-y,-z
_cell_length_a                   7.4395(2)
_cell_length_b                   10.2984(3)
_cell_length_c                   10.4052(3)
_cell_angle_alpha                118.1251(6)
_cell_angle_beta                 94.6199(7)
_cell_angle_gamma                92.7499(7)
_cell_volume                     697.42
_exptl_crystal_colour            colorless
_exptl_crystal_description       prism
_cell_formula_units_Z            1
loop_
_atom_site_label
_atom_site_type_symbol
_atom_site_fract_x
_atom_site_fract_y
_atom_site_fract_z
C1 C 0.1513(2) 0.17471(18) -0.05245(18)
C2 C 0.1925(3) -0.0841(2) -0.1479(2)
H1 H 0.2078 -0.0551 -0.0431
H2 H 0.3017 -0.1262 -0.1914
H3 H 0.0878 -0.1581 -0.1968
C3 C 0.1442(3) 0.0242(2) -0.31513(19)
H4 H 0.1262 0.1186 -0.3133
H5 H 0.0397 -0.0476 -0.3722
H6 H 0.2542 -0.0131 -0.3604
C4 C 0.3181(2) 0.7388(2) 0.31467(18)
H7 H 0.2535 0.8290 0.3476
H8 H 0.4458 0.7682 0.3594
C5 C 0.2309(2) 0.6352(2) 0.35828(18)
H9 H 0.2985 0.5469 0.3290
H10 H 0.2289 0.6841 0.4659
C6 C -0.0588(3) 0.5283(2) 0.34958(18)
H11 H -0.0554 0.5961 0.4561
H12 H -0.0129 0.4346 0.3361
C7 C -0.2470(2) 0.4996(2) 0.27643(19)
H13 H -0.3263 0.4493 0.3149
H14 H -0.2957 0.5938 0.2945
C8 C -0.4175(2) 0.3440(2) 0.0497(2)
H15 H -0.4960 0.4227 0.0606
H16 H -0.4727 0.2853 0.0917
C9 C -0.3981(2) 0.2474(2) -0.1076(2)
H17 H -0.3255 0.1653 -0.1191
H18 H -0.5186 0.2048 -0.1647
Ca1 Ca 0.0000 0.5000 0.0000
N1 N 0.16298(18) 0.04571(15) -0.16622(15)
O1 O 0.12681(16) 0.28989(13) -0.05967(14)
O2 O 0.30880(15) 0.66245(12) 0.15841(12)
O3 O 0.05027(15) 0.59366(13) 0.28467(12)
O4 O -0.24017(15) 0.40741(13) 0.12292(12)
H19 H 0.166(2) 0.177(2) 0.040(2)
C4A C -0.3181(2) 0.2612(2) -0.31467(18)
H7A H -0.2535 0.1710 -0.3476
H8A H -0.4458 0.2318 -0.3594
C5A C -0.2309(2) 0.3648(2) -0.35828(18)
H9A H -0.2985 0.4531 -0.3290
H10A H -0.2289 0.3159 -0.4659
C6A C 0.0588(3) 0.4717(2) -0.34958(18)
H11A H 0.0554 0.4039 -0.4561
H12A H 0.0129 0.5654 -0.3361
C7A C 0.2470(2) 0.5004(2) -0.27643(19)
H13A H 0.3263 0.5507 -0.3149
H14A H 0.2957 0.4062 -0.2945
C8A C 0.4175(2) 0.6560(2) -0.0497(2)
H15A H 0.4960 0.5773 -0.0606
H16A H 0.4727 0.7147 -0.0917
C9A C 0.3981(2) 0.7526(2) 0.1076(2)
H17A H 0.3255 0.8347 0.1191
H18A H 0.5186 0.7952 0.1647
O2A O -0.30880(15) 0.33755(12) -0.15841(12)
O3A O -0.05027(15) 0.40634(13) -0.28467(12)
O4A O 0.24017(15) 0.59259(13) -0.12292(12)
C1A C -0.1513(2) 0.82529(18) 0.05245(18)
C2A C -0.1925(3) 1.0841(2) 0.1479(2)
H1A H -0.2078 1.0551 0.0431
H2A H -0.3017 1.1262 0.1914
H3A H -0.0878 1.1581 0.1968
C3A C -0.1442(3) 0.9758(2) 0.31513(19)
H4A H -0.1262 0.8814 0.3133
H5A H -0.0397 1.0476 0.3722
H6A H -0.2542 1.0131 0.3604
N1A N -0.16298(18) 0.95429(15) 0.16622(15)
O1A O -0.12681(16) 0.71011(13) 0.05967(14)
H19A H -0.166(2) 0.823(2) -0.040(2)
I1 I 0.33649(2) 0.19694(2) 0.33071(2)
loop_
_geom_bond_atom_site_label_1
_geom_bond_atom_site_label_2
_geom_bond_site_symmetry_1
_geom_bond_site_symmetry_2
C1 N1 1_555 1_555
C2 H1 1_555 1_555
H2 C2 1_555 1_555
H3 C2 1_555 1_555
C3 H4 1_555 1_555
H5 C3 1_555 1_555
H6 C3 1_555 1_555
C4 H7 1_555 1_555
H8 C4 1_555 1_555
C5 C4 1_555 1_555
H9 C5 1_555 1_555
H10 C5 1_555 1_555
C6 H11 1_555 1_555
H12 C6 1_555 1_555
C7 C6 1_555 1_555
H13 C7 1_555 1_555
H14 C7 1_555 1_555
C8 H15 1_555 1_555
H16 C8 1_555 1_555
C9 C8 1_555 1_555
H17 C9 1_555 1_555
H18 C9 1_555 1_555
Ca1 O1 1_555 1_555
N1 C2 1_555 1_555
O1 C1 1_555 1_555
O2 C4 1_555 1_555
O3 C5 1_555 1_555
O4 C7 1_555 1_555
H19 C1 1_555 1_555
C4A H7A 1_555 1_555
H8A C4A 1_555 1_555
C5A C4A 1_555 1_555
H9A C5A 1_555 1_555
H10A C5A 1_555 1_555
C6A H11A 1_555 1_555
H12A C6A 1_555 1_555
C7A C6A 1_555 1_555
H13A C7A 1_555 1_555
H14A C7A 1_555 1_555
C8A H15A 1_555 1_555
H16A C8A 1_555 1_555
C9A O2 1_555 1_555
H17A C9A 1_555 1_555
H18A C9A 1_555 1_555
O2A C9 1_555 1_555
O3A Ca1 1_555 1_555
O4A Ca1 1_555 1_555
C1A N1A 1_555 1_555
C2A H1A 1_555 1_555
H2A C2A 1_555 1_555
H3A C2A 1_555 1_555
C3A H4A 1_555 1_555
H5A C3A 1_555 1_555
H6A C3A 1_555 1_555
N1A C2A 1_555 1_555
O1A Ca1 1_555 1_555
H19A C1A 1_555 1_555
C3 N1 1_555 1_555
C6 O3 1_555 1_555
C8 O4 1_555 1_555
Ca1 O2 1_555 1_555
Ca1 O3 1_555 1_555
Ca1 O4 1_555 1_555
Ca1 O2A 1_555 1_555
C4A O2A 1_555 1_555
C5A O3A 1_555 1_555
C6A O3A 1_555 1_555
C7A O4A 1_555 1_555
C8A C9A 1_555 1_555
C8A O4A 1_555 1_555
C1A O1A 1_555 1_555
C3A N1A 1_555 1_555

#END
