
#######################################################################
#
#                 Cambridge Crystallographic Data Centre
#                                CCDC 
#
#######################################################################
#
# If this CIF has been generated from an entry in the Cambridge 
# Structural Database, then it will include bibliographic, chemical, 
# crystal, experimental, refinement or atomic coordinate data resulting 
# from the CCDC's data processing and validation procedures.
#
#######################################################################

data_BAWKES
_chemical_formula_moiety         'C18 H15 Br1 N2 O4'
_chemical_name_systematic        
2-(4-bromophenyl)-8b-ethyl-3a,4-dihydroxy-4,8b-dihydropyrrolo[3,4-b]indole-1,3(2H,3aH)-dione
_symmetry_cell_setting           monoclinic
_symmetry_space_group_name_H-M   'P 21'
_symmetry_Int_Tables_number      4
_space_group_name_Hall           'P 2yb'
loop_
_symmetry_equiv_pos_site_id
_symmetry_equiv_pos_as_xyz
1 x,y,z
2 -x,1/2+y,-z
_cell_length_a                   12.578(3)
_cell_length_b                   22.365(5)
_cell_length_c                   12.644(3)
_cell_angle_alpha                90
_cell_angle_beta                 107.727(3)
_cell_angle_gamma                90
_cell_volume                     3387.96
_exptl_crystal_colour            colorless
_exptl_crystal_description       block
_cell_formula_units_Z            8
loop_
_atom_site_label
_atom_site_type_symbol
_atom_site_fract_x
_atom_site_fract_y
_atom_site_fract_z
Br1 Br 0.96327(10) -0.12449(5) 0.21711(9)
O1 O 0.4727(6) 0.0272(3) 0.0274(6)
O2 O 0.3609(5) 0.1398(3) 0.0540(5)
H1 H 0.331859 0.117898 -0.001167
O3 O 0.6807(6) 0.1068(3) 0.3596(6)
N1 N 0.5981(7) 0.0560(3) 0.1963(7)
N2 N 0.3565(6) 0.0712(3) 0.2024(6)
C1 C 0.8462(8) -0.0684(4) 0.2088(8)
C2 C 0.7870(8) -0.0734(4) 0.2851(8)
H2 H 0.802460 -0.104534 0.338809
C3 C 0.7052(8) -0.0316(4) 0.2801(8)
H3 H 0.663774 -0.033732 0.331556
C4 C 0.6826(8) 0.0131(4) 0.2020(8)
C5 C 0.4975(8) 0.0589(4) 0.1097(8)
C6 C 0.4233(7) 0.1055(4) 0.1403(7)
C7 C 0.3501(8) 0.1085(4) 0.2895(7)
C8 C 0.2735(8) 0.1034(4) 0.3493(7)
H4 H 0.216889 0.073594 0.332331
C9 C 0.2846(8) 0.1438(4) 0.4341(8)
H5 H 0.232717 0.142510 0.475207
O4 O 0.2490(5) 0.0548(3) 0.1272(5)
H6 H 0.229624 0.021471 0.146054
C10 C 0.4375(8) 0.1493(4) 0.3155(8)
C11 C 0.5022(8) 0.1427(4) 0.2337(8)
C12 C 0.6033(8) 0.1015(4) 0.2779(8)
C13 C 0.5403(9) 0.2025(4) 0.1967(8)
H7 H 0.473371 0.227445 0.163395
H8 H 0.586969 0.223742 0.263451
C14 C 0.6056(10) 0.1978(5) 0.1142(10)
H9 H 0.676770 0.177568 0.149246
H10 H 0.619817 0.237897 0.090522
H11 H 0.562370 0.174698 0.049450
C15 C 0.4454(9) 0.1901(4) 0.4020(8)
H12 H 0.502026 0.219821 0.419871
C16 C 0.3683(9) 0.1860(5) 0.4615(9)
H13 H 0.373708 0.212593 0.521456
C17 C 0.7437(8) 0.0178(4) 0.1267(8)
H14 H 0.728538 0.049069 0.073362
C18 C 0.8266(9) -0.0238(4) 0.1307(8)
H15 H 0.869093 -0.021347 0.080244
Br2 Br 0.46042(10) 1.11123(5) 0.73608(9)
O5 O 0.2507(6) 0.9563(3) 0.2590(5)
O6 O 0.2656(6) 0.8445(3) 0.1430(5)
H16 H 0.210564 0.867555 0.120298
O7 O 0.5879(6) 0.8715(3) 0.4512(6)
O8 O 0.3422(6) 0.9284(3) 0.0326(5)
H17 H 0.360758 0.962521 0.016756
N3 N 0.4221(7) 0.9244(3) 0.3762(6)
C19 C 0.4491(9) 1.0523(5) 0.6244(8)
C20 C 0.3656(9) 1.0092(4) 0.6045(8)
H18 H 0.313721 1.009234 0.645562
C21 C 0.3595(8) 0.9668(5) 0.5246(8)
H19 H 0.303420 0.936824 0.511050
C22 C 0.4347(8) 0.9671(4) 0.4630(8)
C23 C 0.4999(8) 0.8795(4) 0.3780(7)
C24 C 0.4507(8) 0.8370(4) 0.2795(8)
C25 C 0.5293(8) 0.8274(4) 0.2107(8)
C26 C 0.6149(9) 0.7865(4) 0.2194(9)
H20 H 0.635245 0.758487 0.278590
C27 C 0.6711(9) 0.7878(5) 0.1380(9)
H21 H 0.730322 0.760534 0.142822
C28 C 0.6408(9) 0.8277(5) 0.0527(9)
H22 H 0.678200 0.826821 -0.002200
C29 C 0.3328(8) 0.9241(4) 0.2784(7)
C30 C 0.3582(8) 0.8770(4) 0.2009(7)
C31 C 0.4064(8) 0.7783(4) 0.3164(8)
H23 H 0.361927 0.756466 0.249397
H24 H 0.470821 0.752777 0.355063
C32 C 0.3356(9) 0.7875(5) 0.3917(9)
H25 H 0.380213 0.806601 0.460605
H26 H 0.308423 0.748692 0.408855
H27 H 0.271866 0.813049 0.354644
C33 C 0.5571(8) 0.8697(4) 0.0434(8)
H28 H 0.537986 0.898030 -0.015373
C34 C 0.5040(8) 0.8686(4) 0.1216(7)
N4 N 0.4191(7) 0.9089(3) 0.1356(6)
C35 C 0.5190(8) 1.0105(4) 0.4833(8)
H29 H 0.569603 1.011045 0.440768
C36 C 0.5277(9) 1.0526(5) 0.5658(8)
H30 H 0.586149 1.081273 0.582659
Br3 Br -0.04490(9) 1.12315(4) 0.28768(9)
O9 O 0.2012(6) 0.9715(3) 0.7804(5)
O10 O 0.2228(5) 0.8502(3) 0.8699(5)
H31 H 0.263302 0.877003 0.908626
O11 O 0.0953(6) 0.9052(3) 0.9806(5)
H32 H 0.136798 0.934811 0.982189
O12 O -0.0716(6) 0.8629(3) 0.5353(5)
N5 N 0.0574(7) 0.9297(3) 0.6414(6)
C37 C 0.1347(8) 0.9319(4) 0.7459(7)
N6 N 0.0410(6) 0.8884(3) 0.8672(6)
C38 C -0.0117(9) 1.0627(4) 0.3998(8)
C39 C 0.0389(9) 1.0110(4) 0.3808(8)
H33 H 0.057480 1.005740 0.314004
C40 C 0.0621(8) 0.9667(4) 0.4618(8)
H34 H 0.095997 0.930189 0.450787
C41 C 0.0350(8) 0.9766(4) 0.5594(8)
C42 C 0.1223(7) 0.8751(4) 0.8067(7)
C43 C -0.0302(8) 0.8386(4) 0.8561(7)
C44 C -0.0982(8) 0.8244(4) 0.9216(8)
H35 H -0.096848 0.847170 0.985349
C45 C -0.1673(9) 0.7756(4) 0.8891(8)
H36 H -0.212358 0.763750 0.933693
C46 C 0.0552(8) 0.8309(4) 0.7139(7)
C47 C -0.0310(8) 0.8055(4) 0.7628(7)
C48 C -0.1738(9) 0.7431(4) 0.7942(8)
H37 H -0.224718 0.710738 0.772937
C49 C -0.1043(8) 0.7583(4) 0.7288(8)
H38 H -0.108057 0.736662 0.663141
C50 C 0.0022(7) 0.8726(4) 0.6192(7)
C51 C 0.1254(8) 0.7833(4) 0.6788(8)
H39 H 0.167958 0.760717 0.745622
H40 H 0.074344 0.754852 0.627980
C52 C 0.2068(8) 0.8072(4) 0.6219(9)
H41 H 0.167584 0.834024 0.561427
H42 H 0.238873 0.773715 0.591784
H43 H 0.266716 0.829121 0.675842
C53 C -0.0150(9) 1.0289(4) 0.5776(8)
H44 H -0.032625 1.034559 0.644773
C54 C -0.0396(9) 1.0739(4) 0.4958(8)
H45 H -0.073904 1.110380 0.506041
Br4 Br 0.52763(10) -0.14549(5) 0.72505(10)
C55 C 0.7994(9) -0.0380(4) 0.7395(9)
H46 H 0.862700 -0.039024 0.713550
O13 O 0.9982(6) 0.0152(3) 0.9714(6)
O14 O 1.0917(5) 0.1362(3) 1.0008(5)
H47 H 1.139629 0.111042 1.034546
O15 O 1.2067(5) 0.0809(3) 0.8799(5)
H48 H 1.221460 0.049701 0.850073
O16 O 0.7578(6) 0.1287(3) 0.7028(6)
N7 N 1.0954(6) 0.0992(3) 0.8237(6)
C56 C 0.9029(8) 0.2061(4) 0.8974(8)
H49 H 0.853088 0.234445 0.845060
H50 H 0.969766 0.228650 0.940409
C57 C 0.6309(9) -0.0818(4) 0.7557(9)
C58 C 0.7246(9) -0.0842(4) 0.7153(9)
H51 H 0.735079 -0.117212 0.672375
C59 C 0.7834(8) 0.0105(4) 0.8020(8)
N8 N 0.8637(7) 0.0591(3) 0.8272(6)
C60 C 0.9653(8) 0.0558(4) 0.9074(7)
C61 C 1.0311(7) 0.1133(4) 0.8995(7)
C62 C 1.0885(8) 0.1492(4) 0.7519(8)
C63 C 1.1571(9) 0.1617(4) 0.6898(8)
H52 H 1.221348 0.138342 0.693908
C64 C 1.1263(9) 0.2118(4) 0.6186(8)
H53 H 1.170608 0.222211 0.572508
C65 C 0.6931(8) 0.0140(4) 0.8390(8)
H54 H 0.683150 0.047714 0.880637
C66 C 0.6132(9) -0.0331(5) 0.8151(8)
H55 H 0.548995 -0.031061 0.839662
C67 C 0.9952(8) 0.1827(4) 0.7505(8)
C68 C 0.9401(8) 0.1575(4) 0.8290(8)
C69 C 0.8414(10) 0.1832(5) 0.9791(9)
H56 H 0.775731 0.159941 0.938183
H57 H 0.817856 0.217358 1.015067
H58 H 0.891908 0.157814 1.035722
C70 C 0.8417(7) 0.1162(4) 0.7749(7)
C71 C 0.9651(9) 0.2317(4) 0.6793(8)
H59 H 0.900277 0.254586 0.674986
C72 C 1.0343(9) 0.2458(4) 0.6143(8)
H60 H 1.017082 0.279478 0.566361
loop_
_geom_bond_atom_site_label_1
_geom_bond_atom_site_label_2
_geom_bond_site_symmetry_1
_geom_bond_site_symmetry_2
Br1 C1 1_555 1_555
O1 C5 1_555 1_555
O2 H1 1_555 1_555
O3 C12 1_555 1_555
N1 C4 1_555 1_555
N2 C6 1_555 1_555
C1 C2 1_555 1_555
C2 H2 1_555 1_555
C3 C2 1_555 1_555
H3 C3 1_555 1_555
C4 C3 1_555 1_555
C5 N1 1_555 1_555
C6 O2 1_555 1_555
C7 N2 1_555 1_555
C8 C7 1_555 1_555
H4 C8 1_555 1_555
C9 C8 1_555 1_555
H5 C9 1_555 1_555
O4 N2 1_555 1_555
H6 O4 1_555 1_555
C10 C7 1_555 1_555
C11 C6 1_555 1_555
C12 N1 1_555 1_555
C13 C11 1_555 1_555
H7 C13 1_555 1_555
H8 C13 1_555 1_555
C14 C13 1_555 1_555
H9 C14 1_555 1_555
H10 C14 1_555 1_555
H11 C14 1_555 1_555
C15 C10 1_555 1_555
H12 C15 1_555 1_555
C16 C9 1_555 1_555
H13 C16 1_555 1_555
C17 C4 1_555 1_555
H14 C17 1_555 1_555
C18 C1 1_555 1_555
H15 C18 1_555 1_555
Br2 C19 1_555 1_555
O5 C29 1_555 1_555
O6 H16 1_555 1_555
O7 C23 1_555 1_555
O8 H17 1_555 1_555
N3 C22 1_555 1_555
C19 C20 1_555 1_555
C20 H18 1_555 1_555
C21 C20 1_555 1_555
H19 C21 1_555 1_555
C22 C21 1_555 1_555
C23 N3 1_555 1_555
C24 C23 1_555 1_555
C25 C24 1_555 1_555
C26 C25 1_555 1_555
H20 C26 1_555 1_555
C27 C26 1_555 1_555
H21 C27 1_555 1_555
C28 C27 1_555 1_555
H22 C28 1_555 1_555
C29 N3 1_555 1_555
C30 O6 1_555 1_555
C31 C24 1_555 1_555
H23 C31 1_555 1_555
H24 C31 1_555 1_555
C32 C31 1_555 1_555
H25 C32 1_555 1_555
H26 C32 1_555 1_555
H27 C32 1_555 1_555
C33 C28 1_555 1_555
H28 C33 1_555 1_555
C34 C25 1_555 1_555
N4 O8 1_555 1_555
C35 C22 1_555 1_555
H29 C35 1_555 1_555
C36 C19 1_555 1_555
H30 C36 1_555 1_555
Br3 C38 1_555 1_555
O9 C37 1_555 1_555
O10 H31 1_555 1_555
O11 H32 1_555 1_555
O12 C50 1_555 1_555
N5 C37 1_555 1_555
C37 C42 1_555 1_555
N6 O11 1_555 1_555
C38 C39 1_555 1_555
C39 H33 1_555 1_555
C40 C39 1_555 1_555
H34 C40 1_555 1_555
C41 N5 1_555 1_555
C42 O10 1_555 1_555
C43 N6 1_555 1_555
C44 C43 1_555 1_555
H35 C44 1_555 1_555
C45 C44 1_555 1_555
H36 C45 1_555 1_555
C46 C42 1_555 1_555
C47 C43 1_555 1_555
C48 C45 1_555 1_555
H37 C48 1_555 1_555
C49 C47 1_555 1_555
H38 C49 1_555 1_555
C50 N5 1_555 1_555
C51 C46 1_555 1_555
H39 C51 1_555 1_555
H40 C51 1_555 1_555
C52 C51 1_555 1_555
H41 C52 1_555 1_555
H42 C52 1_555 1_555
H43 C52 1_555 1_555
C53 C41 1_555 1_555
H44 C53 1_555 1_555
C54 C38 1_555 1_555
H45 C54 1_555 1_555
Br4 C57 1_555 1_555
C55 H46 1_555 1_555
O13 C60 1_555 1_555
O14 H47 1_555 1_555
O15 H48 1_555 1_555
O16 C70 1_555 1_555
N7 O15 1_555 1_555
C56 H49 1_555 1_555
H50 C56 1_555 1_555
C57 C58 1_555 1_555
C58 C55 1_555 1_555
H51 C58 1_555 1_555
C59 C55 1_555 1_555
N8 C59 1_555 1_555
C60 N8 1_555 1_555
C61 O14 1_555 1_555
C62 N7 1_555 1_555
C63 C62 1_555 1_555
H52 C63 1_555 1_555
C64 C63 1_555 1_555
H53 C64 1_555 1_555
C65 C59 1_555 1_555
H54 C65 1_555 1_555
C66 C57 1_555 1_555
H55 C66 1_555 1_555
C67 C62 1_555 1_555
C68 C56 1_555 1_555
C69 C56 1_555 1_555
H56 C69 1_555 1_555
H57 C69 1_555 1_555
H58 C69 1_555 1_555
C70 N8 1_555 1_555
C71 C67 1_555 1_555
H59 C71 1_555 1_555
C72 C64 1_555 1_555
H60 C72 1_555 1_555
C5 C6 1_555 1_555
C10 C11 1_555 1_555
C11 C12 1_555 1_555
C15 C16 1_555 1_555
C17 C18 1_555 1_555
C24 C30 1_555 1_555
C29 C30 1_555 1_555
C30 N4 1_555 1_555
C33 C34 1_555 1_555
C34 N4 1_555 1_555
C35 C36 1_555 1_555
N6 C42 1_555 1_555
C40 C41 1_555 1_555
C46 C47 1_555 1_555
C46 C50 1_555 1_555
C48 C49 1_555 1_555
C53 C54 1_555 1_555
N7 C61 1_555 1_555
C60 C61 1_555 1_555
C61 C68 1_555 1_555
C65 C66 1_555 1_555
C67 C68 1_555 1_555
C68 C70 1_555 1_555
C71 C72 1_555 1_555

#END
