
#######################################################################
#
#                 Cambridge Crystallographic Data Centre
#                                CCDC 
#
#######################################################################
#
# If this CIF has been generated from an entry in the Cambridge 
# Structural Database, then it will include bibliographic, chemical, 
# crystal, experimental, refinement or atomic coordinate data resulting 
# from the CCDC's data processing and validation procedures.
#
#######################################################################

data_BAWMUK
_chemical_formula_moiety         'C32 H32 N2 O2'
_chemical_name_systematic        
4-(4-methoxyphenyl)-2,9-diphenyl-6,7-dipropyl-2,3-diazaspiro[4.4]nona-3,6,8-trien-1-one
_symmetry_cell_setting           triclinic
_symmetry_space_group_name_H-M   'P -1'
_symmetry_Int_Tables_number      2
_space_group_name_Hall           '-P 1'
loop_
_symmetry_equiv_pos_site_id
_symmetry_equiv_pos_as_xyz
1 x,y,z
2 -x,-y,-z
_cell_length_a                   9.223(6)
_cell_length_b                   11.418(8)
_cell_length_c                   12.989(9)
_cell_angle_alpha                87.439(9)
_cell_angle_beta                 88.186(8)
_cell_angle_gamma                84.280(8)
_cell_volume                     1359.17
_exptl_crystal_colour            colorless
_exptl_crystal_description       block
_cell_formula_units_Z            2
loop_
_atom_site_label
_atom_site_type_symbol
_atom_site_fract_x
_atom_site_fract_y
_atom_site_fract_z
C1 C 1.1356(3) 0.36752(19) 0.1870(2)
C2 C 1.1339(3) 0.4067(2) 0.0859(2)
H1 H 1.0610 0.3877 0.0435
C3 C 1.2416(3) 0.4750(3) 0.0464(3)
H2 H 1.2403 0.5007 -0.0226
C4 C 1.3486(3) 0.5047(2) 0.1072(3)
H3 H 1.4198 0.5505 0.0803
C5 C 1.3499(3) 0.4664(3) 0.2082(3)
H4 H 1.4230 0.4861 0.2501
C6 C 1.2439(3) 0.3984(2) 0.2494(2)
H5 H 1.2454 0.3737 0.3186
C7 C 0.8175(2) 0.22199(18) 0.21954(17)
C8 C 0.8736(2) 0.18285(18) 0.32455(16)
C9 C 1.0236(3) 0.23160(19) 0.31945(19)
C10 C 0.6800(2) 0.19469(18) 0.17599(17)
C11 C 0.5701(3) 0.1506(2) 0.23785(19)
H6 H 0.5844 0.1364 0.3080
C12 C 0.4406(3) 0.1277(2) 0.1966(2)
H7 H 0.3681 0.0994 0.2393
C13 C 0.4172(3) 0.1465(2) 0.09185(19)
C14 C 0.5257(3) 0.1899(2) 0.02912(19)
H8 H 0.5119 0.2027 -0.0413
C15 C 0.6542(3) 0.2141(2) 0.07172(18)
H9 H 0.7257 0.2443 0.0291
C16 C 0.2608(4) 0.1305(3) -0.0488(2)
H10 H 0.2709 0.2099 -0.0733
H11 H 0.1639 0.1116 -0.0611
H12 H 0.3301 0.0775 -0.0847
C17 C 0.7823(3) 0.2421(2) 0.41198(18)
C18 C 0.7595(2) 0.1611(2) 0.48689(17)
C19 C 0.8211(2) 0.04559(19) 0.45329(17)
H13 H 0.8171 -0.0243 0.4925
C20 C 0.8845(2) 0.05285(17) 0.35870(16)
C21 C 0.9577(2) -0.04145(18) 0.29795(17)
C22 C 1.0426(2) -0.0185(2) 0.20983(17)
H14 H 1.0541 0.0591 0.1888
C23 C 1.1102(3) -0.1099(2) 0.1532(2)
H15 H 1.1672 -0.0928 0.0952
C24 C 1.0941(3) -0.2250(2) 0.1818(2)
H16 H 1.1381 -0.2857 0.1427
C25 C 1.0119(3) -0.2498(2) 0.2691(2)
H17 H 1.0013 -0.3277 0.2894
C26 C 0.9449(3) -0.1596(2) 0.3270(2)
H18 H 0.8907 -0.1778 0.3861
C27 C 0.7282(3) 0.3730(2) 0.4065(2)
H19 H 0.7145 0.3979 0.3348
H20 H 0.6338 0.3836 0.4418
C28 C 0.8262(4) 0.4505(3) 0.4521(3)
H21 H 0.9186 0.4461 0.4139
H22 H 0.8449 0.4245 0.5229
C29 C 0.7549(5) 0.5791(3) 0.4485(3)
H23 H 0.7419 0.6061 0.3780
H24 H 0.8167 0.6284 0.4811
H25 H 0.6619 0.5826 0.4841
C30 C 0.6800(3) 0.1808(2) 0.58860(19)
H26 H 0.7396 0.1422 0.6428
H27 H 0.6700 0.2646 0.6002
C31 C 0.5324(3) 0.1375(3) 0.5980(2)
H28 H 0.5411 0.0531 0.5897
H29 H 0.4717 0.1746 0.5436
C32 C 0.4604(3) 0.1655(3) 0.7028(2)
H30 H 0.5221 0.1312 0.7566
H31 H 0.3680 0.1335 0.7086
H32 H 0.4460 0.2493 0.7091
N1 N 1.0260(2) 0.29817(16) 0.22772(15)
N2 N 0.9031(2) 0.28852(16) 0.16837(15)
O1 O 0.28657(19) 0.11955(17) 0.05888(14)
O2 O 1.1191(2) 0.21701(15) 0.38250(14)
loop_
_geom_bond_atom_site_label_1
_geom_bond_atom_site_label_2
_geom_bond_site_symmetry_1
_geom_bond_site_symmetry_2
C1 C2 1_555 1_555
C2 H1 1_555 1_555
C3 C2 1_555 1_555
H2 C3 1_555 1_555
C4 C3 1_555 1_555
H3 C4 1_555 1_555
C5 C4 1_555 1_555
H4 C5 1_555 1_555
C6 C1 1_555 1_555
H5 C6 1_555 1_555
C7 C8 1_555 1_555
C8 C9 1_555 1_555
C9 N1 1_555 1_555
C10 C7 1_555 1_555
C11 C10 1_555 1_555
H6 C11 1_555 1_555
C12 C11 1_555 1_555
H7 C12 1_555 1_555
C13 C12 1_555 1_555
C14 C13 1_555 1_555
H8 C14 1_555 1_555
C15 C10 1_555 1_555
H9 C15 1_555 1_555
C16 H10 1_555 1_555
H11 C16 1_555 1_555
H12 C16 1_555 1_555
C17 C8 1_555 1_555
C18 C17 1_555 1_555
C19 C18 1_555 1_555
H13 C19 1_555 1_555
C20 C8 1_555 1_555
C21 C20 1_555 1_555
C22 C21 1_555 1_555
H14 C22 1_555 1_555
C23 C22 1_555 1_555
H15 C23 1_555 1_555
C24 C23 1_555 1_555
H16 C24 1_555 1_555
C25 C24 1_555 1_555
H17 C25 1_555 1_555
C26 C21 1_555 1_555
H18 C26 1_555 1_555
C27 C17 1_555 1_555
H19 C27 1_555 1_555
H20 C27 1_555 1_555
C28 C27 1_555 1_555
H21 C28 1_555 1_555
H22 C28 1_555 1_555
C29 C28 1_555 1_555
H23 C29 1_555 1_555
H24 C29 1_555 1_555
H25 C29 1_555 1_555
C30 C18 1_555 1_555
H26 C30 1_555 1_555
H27 C30 1_555 1_555
C31 C30 1_555 1_555
H28 C31 1_555 1_555
H29 C31 1_555 1_555
C32 C31 1_555 1_555
H30 C32 1_555 1_555
H31 C32 1_555 1_555
H32 C32 1_555 1_555
N1 C1 1_555 1_555
N2 C7 1_555 1_555
O1 C13 1_555 1_555
O2 C9 1_555 1_555
C5 C6 1_555 1_555
C14 C15 1_555 1_555
C16 O1 1_555 1_555
C19 C20 1_555 1_555
C25 C26 1_555 1_555
N1 N2 1_555 1_555

#END
