
#######################################################################
#
#                 Cambridge Crystallographic Data Centre
#                                CCDC 
#
#######################################################################
#
# If this CIF has been generated from an entry in the Cambridge 
# Structural Database, then it will include bibliographic, chemical, 
# crystal, experimental, refinement or atomic coordinate data resulting 
# from the CCDC's data processing and validation procedures.
#
#######################################################################

data_BAWMIY
_chemical_formula_moiety         'C27 H28 N2 O4 S2'
_chemical_name_systematic        
9-methyl-5,10-bis((4-methylphenyl)sulfonyl)-1,2,4a,5,10,10a-hexahydrophenazine
_symmetry_cell_setting           triclinic
_symmetry_space_group_name_H-M   'P -1'
_symmetry_Int_Tables_number      2
_space_group_name_Hall           '-P 1'
loop_
_symmetry_equiv_pos_site_id
_symmetry_equiv_pos_as_xyz
1 x,y,z
2 -x,-y,-z
_cell_length_a                   8.1304(4)
_cell_length_b                   12.3569(7)
_cell_length_c                   12.7925(7)
_cell_angle_alpha                82.084(4)
_cell_angle_beta                 86.551(4)
_cell_angle_gamma                72.325(4)
_cell_volume                     1212.65
_exptl_crystal_colour            colorless
_exptl_crystal_description       block
_cell_formula_units_Z            2
_exptl_crystal_recrystallization_method 'n-hexane/ ethyl acetate'
loop_
_atom_site_label
_atom_site_type_symbol
_atom_site_fract_x
_atom_site_fract_y
_atom_site_fract_z
S1 S 0.86450(7) 0.35013(5) 0.38473(5)
S2 S 1.28511(7) 0.05051(5) 0.20525(5)
O1 O 0.8388(2) 0.25536(15) 0.45435(13)
O2 O 0.9847(2) 0.40602(16) 0.40921(14)
N1 N 1.1110(2) 0.14631(17) 0.15048(15)
C1 C 0.8209(3) 0.2397(2) 0.22603(18)
H1 H 0.7439 0.2182 0.2838
O3 O 1.2629(2) -0.05931(15) 0.20001(14)
N2 N 0.9251(2) 0.30238(17) 0.27088(15)
C2 C 1.1206(3) 0.2617(2) 0.12593(18)
O4 O 1.4321(2) 0.07792(17) 0.15607(14)
C3 C 1.2806(3) 0.0684(2) 0.33965(18)
C4 C 0.6596(3) 0.4518(2) 0.36496(18)
C5 C 1.3274(3) 0.1595(2) 0.3683(2)
H2 H 1.3634 0.2107 0.3162
C6 C 1.0355(3) 0.3416(2) 0.19363(18)
C7 C 0.9439(3) 0.1287(2) 0.19190(18)
H3 H 0.9689 0.0699 0.2555
C8 C 0.5143(3) 0.4164(2) 0.3866(2)
H4 H 0.5252 0.3396 0.4156
C9 C 1.2713(3) 0.1002(2) 0.55148(19)
C10 C 0.3340(3) 0.6059(2) 0.3224(2)
C11 C 1.2304(3) -0.0067(2) 0.4154(2)
H5 H 1.1987 -0.0689 0.3957
C12 C 1.3207(3) 0.1743(2) 0.4738(2)
H6 H 1.3507 0.2372 0.4934
C13 C 1.2267(3) 0.0095(2) 0.5204(2)
H7 H 1.1927 -0.0426 0.5725
C14 C 0.3524(3) 0.4936(2) 0.3658(2)
H8 H 0.2525 0.4693 0.3815
C15 C 0.6441(3) 0.5646(2) 0.3239(2)
H9 H 0.7439 0.5894 0.3104
C16 C 0.7078(3) 0.3149(2) 0.1395(2)
H10 H 0.6364 0.3882 0.1534
C17 C 0.7023(3) 0.2846(2) 0.0448(2)
H11 H 0.6277 0.3374 -0.0058
C18 C 1.0542(3) 0.4504(2) 0.1783(2)
H12 H 0.9981 0.5049 0.2246
C19 C 0.4816(3) 0.6401(2) 0.3030(2)
H13 H 0.4708 0.7171 0.2747
C20 C 1.2292(3) 0.4025(2) 0.0246(2)
H14 H 1.2938 0.4254 -0.0340
C21 C 1.2124(3) 0.2924(2) 0.03634(19)
C22 C 0.8613(3) 0.0839(2) 0.1105(2)
H15 H 0.7588 0.0640 0.1427
H16 H 0.9444 0.0133 0.0888
C23 C 1.2657(3) 0.1173(3) 0.6656(2)
H17 H 1.3498 0.0521 0.7045
H18 H 1.1496 0.1233 0.6951
H19 H 1.2939 0.1878 0.6718
C24 C 0.8072(3) 0.1719(2) 0.0137(2)
H20 H 0.9113 0.1806 -0.0265
H21 H 0.7389 0.1448 -0.0327
C25 C 0.1575(3) 0.6891(3) 0.2993(2)
H22 H 0.1224 0.6820 0.2292
H23 H 0.1612 0.7673 0.3011
H24 H 0.0742 0.6720 0.3526
C26 C 1.2872(3) 0.2141(3) -0.0453(2)
H25 H 1.4125 0.1832 -0.0371
H26 H 1.2619 0.2568 -0.1159
H27 H 1.2360 0.1510 -0.0364
C27 C 1.1557(3) 0.4787(2) 0.0948(2)
H28 H 1.1746 0.5516 0.0860
loop_
_geom_bond_atom_site_label_1
_geom_bond_atom_site_label_2
_geom_bond_site_symmetry_1
_geom_bond_site_symmetry_2
S1 O1 1_555 1_555
S2 N1 1_555 1_555
O2 S1 1_555 1_555
N1 C2 1_555 1_555
C1 H1 1_555 1_555
O3 S2 1_555 1_555
N2 S1 1_555 1_555
C2 C6 1_555 1_555
O4 S2 1_555 1_555
C3 S2 1_555 1_555
C4 S1 1_555 1_555
C5 C3 1_555 1_555
H2 C5 1_555 1_555
C6 N2 1_555 1_555
C7 N1 1_555 1_555
H3 C7 1_555 1_555
C8 C4 1_555 1_555
H4 C8 1_555 1_555
C9 C12 1_555 1_555
C10 C14 1_555 1_555
C11 C3 1_555 1_555
H5 C11 1_555 1_555
C12 C5 1_555 1_555
H6 C12 1_555 1_555
C13 C9 1_555 1_555
H7 C13 1_555 1_555
C14 C8 1_555 1_555
H8 C14 1_555 1_555
C15 C4 1_555 1_555
H9 C15 1_555 1_555
C16 C1 1_555 1_555
H10 C16 1_555 1_555
C17 C16 1_555 1_555
H11 C17 1_555 1_555
C18 C6 1_555 1_555
H12 C18 1_555 1_555
C19 C10 1_555 1_555
H13 C19 1_555 1_555
C20 H14 1_555 1_555
C21 C2 1_555 1_555
C22 C7 1_555 1_555
H15 C22 1_555 1_555
H16 C22 1_555 1_555
C23 C9 1_555 1_555
H17 C23 1_555 1_555
H18 C23 1_555 1_555
H19 C23 1_555 1_555
C24 C17 1_555 1_555
H20 C24 1_555 1_555
H21 C24 1_555 1_555
C25 C10 1_555 1_555
H22 C25 1_555 1_555
H23 C25 1_555 1_555
H24 C25 1_555 1_555
C26 C21 1_555 1_555
H25 C26 1_555 1_555
H26 C26 1_555 1_555
H27 C26 1_555 1_555
C27 C18 1_555 1_555
H28 C27 1_555 1_555
C1 N2 1_555 1_555
C1 C7 1_555 1_555
C11 C13 1_555 1_555
C15 C19 1_555 1_555
C20 C21 1_555 1_555
C20 C27 1_555 1_555
C22 C24 1_555 1_555

#END
