
#######################################################################
#
#                 Cambridge Crystallographic Data Centre
#                                CCDC 
#
#######################################################################
#
# If this CIF has been generated from an entry in the Cambridge 
# Structural Database, then it will include bibliographic, chemical, 
# crystal, experimental, refinement or atomic coordinate data resulting 
# from the CCDC's data processing and validation procedures.
#
#######################################################################

data_BAWNIZ
_chemical_formula_moiety         'C21 H25 N1 O4 S1'
_chemical_name_systematic        
7-ethenyl-1-((4-methylphenyl)sulfonyl)-5-oxooctahydro-2H-pentaleno[1,6a-b]pyridine-7a(5H)-carbaldehyde
_symmetry_cell_setting           monoclinic
_symmetry_space_group_name_H-M   'P 21/n'
_symmetry_Int_Tables_number      14
_space_group_name_Hall           '-P 2yn'
loop_
_symmetry_equiv_pos_site_id
_symmetry_equiv_pos_as_xyz
1 x,y,z
2 1/2-x,1/2+y,1/2-z
3 -x,-y,-z
4 1/2+x,1/2-y,1/2+z
_cell_length_a                   7.03380(10)
_cell_length_b                   11.9216(2)
_cell_length_c                   24.1813(17)
_cell_angle_alpha                90
_cell_angle_beta                 91.725(7)
_cell_angle_gamma                90
_cell_volume                     2026.78
_exptl_crystal_colour            colorless
_exptl_crystal_description       Prism
_cell_formula_units_Z            4
_exptl_crystal_recrystallization_method 'petroleum ether/dichloromethane'
loop_
_atom_site_label
_atom_site_type_symbol
_atom_site_fract_x
_atom_site_fract_y
_atom_site_fract_z
S1 S 0.25126(9) -0.05760(6) 0.24566(2)
O1 O 0.4036(3) 0.0075(2) 0.26974(8)
O2 O -0.4562(3) 0.1898(2) 0.41356(11)
O3 O 0.1442(3) -0.08063(19) 0.43022(8)
O4 O 0.2815(4) -0.17253(19) 0.23153(9)
N1 N 0.0779(3) -0.05619(16) 0.28914(8)
C1 C -0.0442(8) 0.1876(4) 0.04205(16)
H1 H -0.179904 0.193347 0.044343
H2 H -0.013345 0.148555 0.008786
H3 H 0.010239 0.261431 0.041536
C2 C 0.0348(4) 0.1240(3) 0.09152(11)
C3 C -0.0099(5) 0.0121(3) 0.10048(12)
H4 H -0.086542 -0.025324 0.074482
C4 C 0.0561(5) -0.0452(2) 0.14681(11)
H5 H 0.023319 -0.119838 0.152298
C5 C 0.1721(3) 0.01095(19) 0.18496(9)
C6 C 0.0308(3) 0.05049(18) 0.31534(9)
H6 H 0.149734 0.091307 0.322857
C7 C -0.0673(3) 0.0314(2) 0.37149(9)
C8 C -0.1422(3) 0.1510(2) 0.38321(10)
C9 C 0.0321(4) 0.2105(2) 0.41337(11)
H7 H 0.120819 0.233066 0.384932
C10 C -0.0200(5) 0.3138(3) 0.44494(15)
H8 H -0.075571 0.303363 0.478977
C11 C 0.0051(8) 0.4145(5) 0.4293(3)
H9 H 0.060199 0.428877 0.395499
H10 H -0.031645 0.473786 0.451564
C12 C -0.1065(4) 0.1294(2) 0.28361(9)
H11 H -0.037902 0.175536 0.257861
H12 H -0.202269 0.086625 0.263049
C13 C -0.1979(4) 0.2017(2) 0.32686(11)
H13 H -0.335136 0.201796 0.321407
H14 H -0.152543 0.278345 0.324509
C14 C -0.3035(4) 0.1493(3) 0.42272(12)
H15 H -0.282542 0.114217 0.456701
C15 C 0.1264(4) 0.1177(3) 0.44723(11)
H16 H 0.262897 0.129080 0.449890
H17 H 0.077413 0.116333 0.484299
C16 C 0.0807(3) 0.0098(2) 0.41769(9)
C17 C -0.2228(4) -0.0581(2) 0.36670(11)
H18 H -0.261621 -0.078411 0.403533
H19 H -0.332587 -0.026732 0.347010
C18 C -0.1592(5) -0.1640(2) 0.33665(12)
H20 H -0.062383 -0.202240 0.358963
H21 H -0.266552 -0.214398 0.331541
C19 C -0.0803(4) -0.1347(2) 0.28082(11)
H22 H -0.036370 -0.202119 0.262735
H23 H -0.178883 -0.100769 0.257431
C20 C 0.2196(4) 0.1211(2) 0.17595(11)
H24 H 0.298133 0.158852 0.201378
C21 C 0.1514(5) 0.1755(2) 0.12958(12)
H25 H 0.185870 0.249802 0.123924
loop_
_geom_bond_atom_site_label_1
_geom_bond_atom_site_label_2
_geom_bond_site_symmetry_1
_geom_bond_site_symmetry_2
S1 O1 1_555 1_555
O2 C14 1_555 1_555
O3 C16 1_555 1_555
O4 S1 1_555 1_555
N1 S1 1_555 1_555
C1 H1 1_555 1_555
H2 C1 1_555 1_555
H3 C1 1_555 1_555
C2 C1 1_555 1_555
C3 C2 1_555 1_555
H4 C3 1_555 1_555
C4 C3 1_555 1_555
H5 C4 1_555 1_555
C5 S1 1_555 1_555
C6 N1 1_555 1_555
H6 C6 1_555 1_555
C7 C6 1_555 1_555
C8 C7 1_555 1_555
C9 C8 1_555 1_555
H7 C9 1_555 1_555
C10 C9 1_555 1_555
H8 C10 1_555 1_555
C11 C10 1_555 1_555
H9 C11 1_555 1_555
H10 C11 1_555 1_555
C12 C6 1_555 1_555
H11 C12 1_555 1_555
H12 C12 1_555 1_555
C13 C8 1_555 1_555
H13 C13 1_555 1_555
H14 C13 1_555 1_555
C14 C8 1_555 1_555
H15 C14 1_555 1_555
C15 C9 1_555 1_555
H16 C15 1_555 1_555
H17 C15 1_555 1_555
C16 C7 1_555 1_555
C17 C7 1_555 1_555
H18 C17 1_555 1_555
H19 C17 1_555 1_555
C18 C17 1_555 1_555
H20 C18 1_555 1_555
H21 C18 1_555 1_555
C19 N1 1_555 1_555
H22 C19 1_555 1_555
H23 C19 1_555 1_555
C20 C5 1_555 1_555
H24 C20 1_555 1_555
C21 C2 1_555 1_555
H25 C21 1_555 1_555
C4 C5 1_555 1_555
C12 C13 1_555 1_555
C15 C16 1_555 1_555
C18 C19 1_555 1_555
C20 C21 1_555 1_555

#END
