
#######################################################################
#
#                 Cambridge Crystallographic Data Centre
#                                CCDC 
#
#######################################################################
#
# If this CIF has been generated from an entry in the Cambridge 
# Structural Database, then it will include bibliographic, chemical, 
# crystal, experimental, refinement or atomic coordinate data resulting 
# from the CCDC's data processing and validation procedures.
#
#######################################################################

data_BAWNAR
_chemical_formula_moiety         'C34 H28 N2 O2'
_chemical_name_systematic        
'7-ethyl-4-(4-methoxyphenyl)-2,6,9-triphenyl-2,3-diazaspiro[4.4]nona-3,6,8-trien-1-one unknown solvate'
_symmetry_cell_setting           triclinic
_symmetry_space_group_name_H-M   'P -1'
_symmetry_Int_Tables_number      2
_space_group_name_Hall           '-P 1'
loop_
_symmetry_equiv_pos_site_id
_symmetry_equiv_pos_as_xyz
1 x,y,z
2 -x,-y,-z
_cell_length_a                   9.9922(18)
_cell_length_b                   19.110(4)
_cell_length_c                   21.951(4)
_cell_angle_alpha                89.352(2)
_cell_angle_beta                 86.158(2)
_cell_angle_gamma                85.402(2)
_cell_volume                     4168.61
_exptl_crystal_colour            colorless
_exptl_crystal_description       block
_cell_formula_units_Z            6
loop_
_atom_site_label
_atom_site_type_symbol
_atom_site_fract_x
_atom_site_fract_y
_atom_site_fract_z
C1 C 0.3343(2) 0.23630(12) -0.01959(11)
C2 C 0.4319(3) 0.27117(15) 0.00621(14)
H1 H 0.4364 0.2719 0.0484
C3 C 0.5221(3) 0.30468(19) -0.03111(17)
H2 H 0.5892 0.3275 -0.0139
C4 C 0.5155(4) 0.30529(18) -0.09318(17)
H3 H 0.5762 0.3292 -0.1178
C5 C 0.4197(3) 0.27062(15) -0.11853(14)
H4 H 0.4164 0.2697 -0.1608
C6 C 0.3269(3) 0.23666(13) -0.08179(12)
H5 H 0.2598 0.2142 -0.0992
C7 C 0.1550(3) 0.15331(12) 0.00463(11)
C8 C 0.0741(2) 0.13704(12) 0.06372(10)
C9 C 0.0627(2) 0.05873(11) 0.07366(10)
C10 C -0.0681(2) 0.04776(12) 0.07226(10)
H6 H -0.1013 0.0037 0.0753
C11 C -0.1520(2) 0.11273(12) 0.06544(10)
C12 C -0.0712(3) 0.16632(12) 0.05979(11)
C13 C -0.3015(3) 0.11831(15) 0.06801(13)
H7 H -0.3312 0.0807 0.0443
H8 H -0.3329 0.1625 0.0496
C14 C -0.3637(3) 0.1143(2) 0.13292(16)
H9 H -0.3258 0.0731 0.1527
H10 H -0.4592 0.1122 0.1320
H11 H -0.3454 0.1552 0.1550
C15 C 0.1781(3) 0.00757(12) 0.07761(10)
C16 C 0.3106(3) 0.02632(14) 0.07552(12)
H12 H 0.3269 0.0734 0.0716
C17 C 0.4175(3) -0.02317(16) 0.07917(14)
H13 H 0.5047 -0.0091 0.0768
C18 C 0.3974(3) -0.09263(15) 0.08624(14)
H14 H 0.4700 -0.1258 0.0893
C19 C 0.2686(3) -0.11267(14) 0.08870(13)
H15 H 0.2541 -0.1599 0.0934
C20 C 0.1604(3) -0.06407(13) 0.08434(12)
H16 H 0.0740 -0.0791 0.0859
C21 C -0.1089(3) 0.24188(14) 0.04939(15)
C22 C -0.1645(4) 0.28381(19) 0.0969(2)
H17 H -0.1775 0.2652 0.1360
C23 C -0.2006(6) 0.3535(3) 0.0856(4)
H18 H -0.2381 0.3819 0.1175
C24 C -0.1827(7) 0.3815(3) 0.0292(5)
H19 H -0.2078 0.4288 0.0229
C25 C -0.1291(5) 0.3420(3) -0.0182(3)
H20 H -0.1175 0.3615 -0.0570
C26 C -0.0912(3) 0.27112(18) -0.00788(19)
H21 H -0.0536 0.2433 -0.0401
C27 C 0.1447(2) 0.17881(11) 0.10866(10)
C28 C 0.1126(2) 0.18339(12) 0.17460(10)
C29 C 0.1841(3) 0.22450(14) 0.21041(12)
H22 H 0.2520 0.2496 0.1920
C30 C 0.1569(3) 0.22903(15) 0.27245(12)
H23 H 0.2062 0.2569 0.2955
C31 C 0.0565(3) 0.19230(14) 0.30055(11)
C32 C -0.0178(3) 0.15243(15) 0.26593(12)
H24 H -0.0874 0.1286 0.2845
C33 C 0.0106(3) 0.14783(14) 0.20411(12)
H25 H -0.0397 0.1202 0.1813
C34 C 0.1097(4) 0.22424(19) 0.40023(14)
H26 H 0.2000 0.2031 0.3943
H27 H 0.0779 0.2189 0.4421
H28 H 0.1084 0.2733 0.3900
N1 N 0.2401(2) 0.20182(10) 0.01933(8)
N2 N 0.2334(2) 0.21553(10) 0.08215(9)
O1 O 0.1451(2) 0.12866(10) -0.04585(8)
O2 O 0.0252(2) 0.19102(12) 0.36216(8)
C35 C -0.0049(2) 0.42118(12) 0.36625(12)
C36 C 0.0013(3) 0.42620(14) 0.42828(12)
H29 H 0.0680 0.4504 0.4442
C37 C -0.0920(3) 0.39517(15) 0.46703(14)
H30 H -0.0888 0.3993 0.5091
C38 C -0.1889(3) 0.35849(17) 0.44374(16)
H31 H -0.2507 0.3370 0.4698
C39 C -0.1944(3) 0.3536(2) 0.38219(18)
H32 H -0.2612 0.3293 0.3665
C40 C -0.1028(3) 0.38417(16) 0.34270(14)
H33 H -0.1067 0.3799 0.3007
C41 C 0.1715(2) 0.50443(12) 0.33694(11)
C42 C 0.2579(2) 0.51249(12) 0.27706(11)
C43 C 0.1902(2) 0.46629(12) 0.23565(11)
C44 C 0.4314(3) 0.40906(15) 0.30734(15)
C45 C 0.4122(4) 0.3889(2) 0.36746(19)
H34 H 0.3807 0.4221 0.3968
C46 C 0.4398(5) 0.3189(3) 0.3846(3)
H35 H 0.4266 0.3053 0.4253
C47 C 0.4859(6) 0.2709(3) 0.3414(5)
H36 H 0.5066 0.2245 0.3528
C48 C 0.5016(6) 0.2895(3) 0.2840(4)
H37 H 0.5301 0.2554 0.2551
C49 C 0.4772(4) 0.35859(18) 0.2649(2)
H38 H 0.4914 0.3707 0.2239
C50 C 0.4001(3) 0.48265(13) 0.28890(11)
C51 C 0.4843(3) 0.53447(13) 0.28110(11)
C52 C 0.6333(3) 0.52819(17) 0.28528(14)
H39 H 0.6584 0.4879 0.3106
H40 H 0.6600 0.5698 0.3047
C53 C 0.7071(4) 0.5199(3) 0.22297(19)
H41 H 0.6801 0.4791 0.2034
H42 H 0.8023 0.5146 0.2275
H43 H 0.6858 0.5607 0.1985
C54 C 0.4073(3) 0.59850(13) 0.26336(12)
H44 H 0.4437 0.6413 0.2560
C55 C 0.2765(3) 0.58785(12) 0.25902(11)
C56 C 0.1675(3) 0.63807(13) 0.24110(12)
C57 C 0.1946(4) 0.70417(14) 0.21879(14)
H45 H 0.2829 0.7166 0.2158
C58 C 0.0948(5) 0.75100(18) 0.20129(16)
H46 H 0.1159 0.7949 0.1867
C59 C -0.0370(5) 0.73444(19) 0.2048(2)
H47 H -0.1046 0.7662 0.1916
C60 C -0.0669(4) 0.6696(2) 0.2284(2)
H48 H -0.1558 0.6582 0.2328
C61 C 0.0348(4) 0.62196(16) 0.24535(18)
H49 H 0.0139 0.5780 0.2600
C62 C 0.2202(3) 0.45822(12) 0.17000(11)
C63 C 0.3283(3) 0.48850(15) 0.13974(12)
H50 H 0.3858 0.5127 0.1619
C64 C 0.3509(3) 0.48303(16) 0.07744(14)
H51 H 0.4235 0.5036 0.0579
C65 C 0.2680(3) 0.44769(14) 0.04390(12)
C66 C 0.1626(4) 0.41574(17) 0.07346(14)
H52 H 0.1071 0.3904 0.0512
C67 C 0.1397(3) 0.42134(15) 0.13511(13)
H53 H 0.0680 0.3998 0.1543
C68 C 0.2006(5) 0.42059(18) -0.05488(15)
H54 H 0.1988 0.3710 -0.0480
H55 H 0.2253 0.4293 -0.0971
H56 H 0.1130 0.4433 -0.0444
N3 N 0.0896(2) 0.45278(10) 0.32520(9)
N4 N 0.0991(2) 0.43251(10) 0.26414(9)
O3 O 0.1765(2) 0.53530(10) 0.38432(9)
O4 O 0.2958(2) 0.44735(11) -0.01813(9)
C69 C 0.7121(2) 0.87921(12) 0.29036(11)
C70 C 0.6980(3) 0.88274(13) 0.22869(11)
H57 H 0.6268 0.8630 0.2119
C71 C 0.7911(3) 0.91598(14) 0.19188(13)
H58 H 0.7824 0.9180 0.1500
C72 C 0.8945(3) 0.94556(16) 0.21513(14)
H59 H 0.9558 0.9678 0.1894
C73 C 0.9090(3) 0.94267(16) 0.27737(14)
H60 H 0.9802 0.9628 0.2938
C74 C 0.8165(3) 0.90947(14) 0.31496(12)
H61 H 0.8250 0.9076 0.3569
C75 C 0.5011(2) 0.83980(11) 0.41699(10)
C76 C 0.4420(2) 0.78997(11) 0.37522(10)
C77 C 0.5375(2) 0.79464(11) 0.31796(10)
C78 C 0.5278(3) 0.66543(12) 0.41506(11)
C79 C 0.6584(3) 0.68303(16) 0.41637(19)
H62 H 0.6782 0.7287 0.4065
C80 C 0.7603(4) 0.6349(2) 0.4319(3)
H63 H 0.8484 0.6476 0.4309
C81 C 0.7320(4) 0.56791(18) 0.4490(2)
H64 H 0.7996 0.5359 0.4618
C82 C 0.6050(4) 0.54913(16) 0.44690(15)
H65 H 0.5858 0.5034 0.4569
C83 C 0.5044(3) 0.59662(13) 0.43021(13)
H66 H 0.4177 0.5824 0.4290
C84 C 0.4200(2) 0.71529(11) 0.39604(10)
C85 C 0.2904(3) 0.70512(12) 0.39022(11)
H67 H 0.2521 0.6632 0.3994
C86 C 0.2174(2) 0.76789(12) 0.36779(10)
C87 C 0.3019(2) 0.81846(11) 0.35854(10)
C88 C 0.0689(3) 0.77444(15) 0.36165(13)
H68 H 0.0429 0.7328 0.3421
H69 H 0.0455 0.8146 0.3360
C89 C -0.0070(3) 0.78319(19) 0.42283(16)
H70 H 0.0121 0.7423 0.4475
H71 H -0.1018 0.7892 0.4174
H72 H 0.0202 0.8237 0.4427
C90 C 0.2793(2) 0.89039(12) 0.33240(11)
C91 C 0.2964(3) 0.90124(14) 0.27043(12)
H73 H 0.3181 0.8630 0.2448
C92 C 0.2820(3) 0.96744(17) 0.24569(15)
H74 H 0.2946 0.9736 0.2037
C93 C 0.2495(3) 1.02384(16) 0.28194(16)
H75 H 0.2397 1.0686 0.2650
C94 C 0.2314(4) 1.01441(15) 0.34340(16)
H76 H 0.2083 1.0529 0.3686
C95 C 0.2470(3) 0.94774(14) 0.36865(13)
H77 H 0.2354 0.9420 0.4107
C96 C 0.4541(2) 0.85586(11) 0.48037(10)
C97 C 0.3422(3) 0.82855(14) 0.50876(11)
H78 H 0.2949 0.7980 0.4874
C98 C 0.2991(3) 0.84538(15) 0.56783(12)
H79 H 0.2231 0.8265 0.5859
C99 C 0.3687(3) 0.89049(13) 0.60066(11)
C100 C 0.4799(3) 0.91862(15) 0.57282(12)
H80 H 0.5270 0.9493 0.5942
C101 C 0.5214(3) 0.90154(14) 0.51390(12)
H81 H 0.5967 0.9210 0.4957
C102 C 0.3996(4) 0.94010(18) 0.69753(14)
H82 H 0.4791 0.9108 0.7057
H83 H 0.3488 0.9516 0.7353
H84 H 0.4248 0.9825 0.6775
N5 N 0.61652(19) 0.84799(10) 0.33016(8)
N6 N 0.5950(2) 0.87288(10) 0.38965(8)
O5 O 0.3198(2) 0.90374(11) 0.65916(9)
O6 O 0.54162(19) 0.76076(9) 0.27161(8)
loop_
_geom_bond_atom_site_label_1
_geom_bond_atom_site_label_2
_geom_bond_site_symmetry_1
_geom_bond_site_symmetry_2
C1 C2 1_555 1_555
C2 H1 1_555 1_555
C3 C2 1_555 1_555
H2 C3 1_555 1_555
C4 C3 1_555 1_555
H3 C4 1_555 1_555
C5 C4 1_555 1_555
H4 C5 1_555 1_555
C6 C1 1_555 1_555
H5 C6 1_555 1_555
C7 C8 1_555 1_555
C8 C9 1_555 1_555
C9 C10 1_555 1_555
C10 H6 1_555 1_555
C11 C10 1_555 1_555
C12 C8 1_555 1_555
C13 C11 1_555 1_555
H7 C13 1_555 1_555
H8 C13 1_555 1_555
C14 C13 1_555 1_555
H9 C14 1_555 1_555
H10 C14 1_555 1_555
H11 C14 1_555 1_555
C15 C9 1_555 1_555
C16 C15 1_555 1_555
H12 C16 1_555 1_555
C17 C16 1_555 1_555
H13 C17 1_555 1_555
C18 C17 1_555 1_555
H14 C18 1_555 1_555
C19 C18 1_555 1_555
H15 C19 1_555 1_555
C20 C15 1_555 1_555
H16 C20 1_555 1_555
C21 C12 1_555 1_555
C22 C21 1_555 1_555
H17 C22 1_555 1_555
C23 C22 1_555 1_555
H18 C23 1_555 1_555
C24 C23 1_555 1_555
H19 C24 1_555 1_555
C25 C24 1_555 1_555
H20 C25 1_555 1_555
C26 C21 1_555 1_555
H21 C26 1_555 1_555
C27 C8 1_555 1_555
C28 C27 1_555 1_555
C29 C28 1_555 1_555
H22 C29 1_555 1_555
C30 C29 1_555 1_555
H23 C30 1_555 1_555
C31 C30 1_555 1_555
C32 C31 1_555 1_555
H24 C32 1_555 1_555
C33 C28 1_555 1_555
H25 C33 1_555 1_555
C34 H26 1_555 1_555
H27 C34 1_555 1_555
H28 C34 1_555 1_555
N1 C1 1_555 1_555
N2 C27 1_555 1_555
O1 C7 1_555 1_555
O2 C31 1_555 1_555
C35 C36 1_555 1_555
C36 H29 1_555 1_555
C37 C36 1_555 1_555
H30 C37 1_555 1_555
C38 C37 1_555 1_555
H31 C38 1_555 1_555
C39 C38 1_555 1_555
H32 C39 1_555 1_555
C40 C35 1_555 1_555
H33 C40 1_555 1_555
C41 C42 1_555 1_555
C42 C43 1_555 1_555
C43 C62 1_555 1_555
C44 C45 1_555 1_555
C45 H34 1_555 1_555
C46 C45 1_555 1_555
H35 C46 1_555 1_555
C47 C46 1_555 1_555
H36 C47 1_555 1_555
C48 C47 1_555 1_555
H37 C48 1_555 1_555
C49 C44 1_555 1_555
H38 C49 1_555 1_555
C50 C42 1_555 1_555
C51 C50 1_555 1_555
C52 C51 1_555 1_555
H39 C52 1_555 1_555
H40 C52 1_555 1_555
C53 C52 1_555 1_555
H41 C53 1_555 1_555
H42 C53 1_555 1_555
H43 C53 1_555 1_555
C54 C51 1_555 1_555
H44 C54 1_555 1_555
C55 C42 1_555 1_555
C56 C55 1_555 1_555
C57 C56 1_555 1_555
H45 C57 1_555 1_555
C58 C57 1_555 1_555
H46 C58 1_555 1_555
C59 C58 1_555 1_555
H47 C59 1_555 1_555
C60 C59 1_555 1_555
H48 C60 1_555 1_555
C61 C56 1_555 1_555
H49 C61 1_555 1_555
C62 C63 1_555 1_555
C63 H50 1_555 1_555
C64 C63 1_555 1_555
H51 C64 1_555 1_555
C65 C64 1_555 1_555
C66 C65 1_555 1_555
H52 C66 1_555 1_555
C67 C62 1_555 1_555
H53 C67 1_555 1_555
C68 H54 1_555 1_555
H55 C68 1_555 1_555
H56 C68 1_555 1_555
N3 C35 1_555 1_555
N4 C43 1_555 1_555
O3 C41 1_555 1_555
O4 C65 1_555 1_555
C69 C70 1_555 1_555
C70 H57 1_555 1_555
C71 C70 1_555 1_555
H58 C71 1_555 1_555
C72 C71 1_555 1_555
H59 C72 1_555 1_555
C73 C72 1_555 1_555
H60 C73 1_555 1_555
C74 C69 1_555 1_555
H61 C74 1_555 1_555
C75 C76 1_555 1_555
C76 C77 1_555 1_555
C77 N5 1_555 1_555
C78 C79 1_555 1_555
C79 H62 1_555 1_555
C80 C79 1_555 1_555
H63 C80 1_555 1_555
C81 C80 1_555 1_555
H64 C81 1_555 1_555
C82 C81 1_555 1_555
H65 C82 1_555 1_555
C83 C78 1_555 1_555
H66 C83 1_555 1_555
C84 C76 1_555 1_555
C85 C84 1_555 1_555
H67 C85 1_555 1_555
C86 C85 1_555 1_555
C87 C76 1_555 1_555
C88 C86 1_555 1_555
H68 C88 1_555 1_555
H69 C88 1_555 1_555
C89 C88 1_555 1_555
H70 C89 1_555 1_555
H71 C89 1_555 1_555
H72 C89 1_555 1_555
C90 C87 1_555 1_555
C91 C90 1_555 1_555
H73 C91 1_555 1_555
C92 C91 1_555 1_555
H74 C92 1_555 1_555
C93 C92 1_555 1_555
H75 C93 1_555 1_555
C94 C93 1_555 1_555
H76 C94 1_555 1_555
C95 C90 1_555 1_555
H77 C95 1_555 1_555
C96 C75 1_555 1_555
C97 C96 1_555 1_555
H78 C97 1_555 1_555
C98 C97 1_555 1_555
H79 C98 1_555 1_555
C99 C98 1_555 1_555
C100 C99 1_555 1_555
H80 C100 1_555 1_555
C101 C96 1_555 1_555
H81 C101 1_555 1_555
C102 H82 1_555 1_555
H83 C102 1_555 1_555
H84 C102 1_555 1_555
N5 C69 1_555 1_555
N6 C75 1_555 1_555
O5 C99 1_555 1_555
O6 C77 1_555 1_555
C5 C6 1_555 1_555
C7 N1 1_555 1_555
C11 C12 1_555 1_555
C19 C20 1_555 1_555
C25 C26 1_555 1_555
C32 C33 1_555 1_555
C34 O2 1_555 1_555
N1 N2 1_555 1_555
C39 C40 1_555 1_555
C41 N3 1_555 1_555
C44 C50 1_555 1_555
C48 C49 1_555 1_555
C54 C55 1_555 1_555
C60 C61 1_555 1_555
C66 C67 1_555 1_555
C68 O4 1_555 1_555
N3 N4 1_555 1_555
C73 C74 1_555 1_555
C78 C84 1_555 1_555
C82 C83 1_555 1_555
C86 C87 1_555 1_555
C94 C95 1_555 1_555
C100 C101 1_555 1_555
C102 O5 1_555 1_555
N5 N6 1_555 1_555

#END
