
#######################################################################
#
#                 Cambridge Crystallographic Data Centre
#                                CCDC 
#
#######################################################################
#
# If this CIF has been generated from an entry in the Cambridge 
# Structural Database, then it will include bibliographic, chemical, 
# crystal, experimental, refinement or atomic coordinate data resulting 
# from the CCDC's data processing and validation procedures.
#
#######################################################################

data_BAWPIB
_chemical_formula_moiety         'C21 H21 N1 O3 S1'
_chemical_name_systematic        
(R)-N-(2-(2-hydroxynaphthalen-1-yl)but-3-en-1-yl)-4-methylbenzene-1-sulfonamide
_symmetry_cell_setting           monoclinic
_symmetry_space_group_name_H-M   'P 21'
_symmetry_Int_Tables_number      4
_space_group_name_Hall           'P 2yb'
loop_
_symmetry_equiv_pos_site_id
_symmetry_equiv_pos_as_xyz
1 x,y,z
2 -x,1/2+y,-z
_cell_length_a                   9.8947(3)
_cell_length_b                   8.2500(3)
_cell_length_c                   12.8004(4)
_cell_angle_alpha                90
_cell_angle_beta                 110.4400(10)
_cell_angle_gamma                90
_cell_volume                     979.124
_exptl_crystal_colour            colorless
_exptl_crystal_description       block
_cell_formula_units_Z            2
loop_
_atom_site_label
_atom_site_type_symbol
_atom_site_fract_x
_atom_site_fract_y
_atom_site_fract_z
S1 S 0.50759(6) 0.60938(7) 0.37468(4)
O1 O 0.39948(19) 1.2234(2) 0.21270(16)
H1 H 0.3982 1.3197 0.2280
O2 O 0.4656(2) 0.5527(3) 0.46356(17)
O3 O 0.4415(2) 0.5420(2) 0.26533(16)
N1 N 0.4743(2) 0.7998(2) 0.36228(15)
H2 H 0.4389 0.8477 0.4066
C1 C 0.1096(2) 0.9254(3) 0.14813(16)
C2 C 0.0787(3) 0.7585(3) 0.12464(18)
H3 H 0.1529 0.6885 0.1260
C3 C -0.0571(3) 0.6984(4) 0.1002(2)
H4 H -0.0741 0.5889 0.0838
C4 C -0.1710(3) 0.7986(4) 0.0994(2)
H5 H -0.2633 0.7564 0.0826
C5 C -0.1456(3) 0.9575(4) 0.1232(2)
H6 H -0.2216 1.0236 0.1234
C6 C -0.0073(3) 1.0268(3) 0.1480(2)
C7 C 0.0191(3) 1.1930(4) 0.1715(2)
H7 H -0.0566 1.2599 0.1715
C8 C 0.1507(3) 1.2568(3) 0.1938(2)
H8 H 0.1655 1.3668 0.2096
C9 C 0.2668(3) 1.1580(2) 0.19353(19)
C10 C 0.2497(2) 0.9952(3) 0.17110(17)
C11 C 0.3760(2) 0.8958(3) 0.16479(18)
H9 H 0.3420 0.7841 0.1474
C12 C 0.4243(3) 0.9537(3) 0.0717(2)
H10 H 0.4581 1.0595 0.0756
C13 C 0.4221(4) 0.8675(5) -0.0126(3)
H11 H 0.3889 0.7612 -0.0192
H12 H 0.4537 0.9115 -0.0669
C14 C 0.5045(2) 0.8916(3) 0.27533(19)
H13 H 0.5867 0.8436 0.2624
H14 H 0.5301 1.0017 0.3011
C15 C 0.6934(2) 0.5802(3) 0.41135(18)
C16 C 0.7564(3) 0.5654(5) 0.3320(2)
H15 H 0.6992 0.5640 0.2569
C17 C 0.9029(4) 0.5528(6) 0.3624(3)
H16 H 0.9439 0.5435 0.3075
C18 C 0.9901(3) 0.5536(5) 0.4716(3)
C19 C 0.9261(3) 0.5653(7) 0.5487(3)
H17 H 0.9835 0.5638 0.6237
C20 C 0.7805(3) 0.5794(6) 0.5206(2)
H18 H 0.7404 0.5884 0.5761
C21 C 1.1542(4) 0.5482(9) 0.5050(5)
H19 H 1.1796 0.5434 0.4392
H20 H 1.1909 0.4540 0.5500
H21 H 1.1952 0.6439 0.5468
loop_
_geom_bond_atom_site_label_1
_geom_bond_atom_site_label_2
_geom_bond_site_symmetry_1
_geom_bond_site_symmetry_2
S1 O2 1_555 1_555
O1 H1 1_555 1_555
O3 S1 1_555 1_555
N1 S1 1_555 1_555
H2 N1 1_555 1_555
C1 C2 1_555 1_555
C2 H3 1_555 1_555
C3 C2 1_555 1_555
H4 C3 1_555 1_555
C4 C3 1_555 1_555
H5 C4 1_555 1_555
C5 C4 1_555 1_555
H6 C5 1_555 1_555
C6 C1 1_555 1_555
C7 C6 1_555 1_555
H7 C7 1_555 1_555
C8 C7 1_555 1_555
H8 C8 1_555 1_555
C9 O1 1_555 1_555
C10 C1 1_555 1_555
C11 C10 1_555 1_555
H9 C11 1_555 1_555
C12 C11 1_555 1_555
H10 C12 1_555 1_555
C13 C12 1_555 1_555
H11 C13 1_555 1_555
H12 C13 1_555 1_555
C14 N1 1_555 1_555
H13 C14 1_555 1_555
H14 C14 1_555 1_555
C15 S1 1_555 1_555
C16 C15 1_555 1_555
H15 C16 1_555 1_555
C17 C16 1_555 1_555
H16 C17 1_555 1_555
C18 C17 1_555 1_555
C19 C18 1_555 1_555
H17 C19 1_555 1_555
C20 C15 1_555 1_555
H18 C20 1_555 1_555
C21 C18 1_555 1_555
H19 C21 1_555 1_555
H20 C21 1_555 1_555
H21 C21 1_555 1_555
C5 C6 1_555 1_555
C8 C9 1_555 1_555
C9 C10 1_555 1_555
C11 C14 1_555 1_555
C19 C20 1_555 1_555

#END
