
#######################################################################
#
#                 Cambridge Crystallographic Data Centre
#                                CCDC 
#
#######################################################################
#
# If this CIF has been generated from an entry in the Cambridge 
# Structural Database, then it will include bibliographic, chemical, 
# crystal, experimental, refinement or atomic coordinate data resulting 
# from the CCDC's data processing and validation procedures.
#
#######################################################################

data_BAWQOI
_chemical_compound_source        'leaves of Cinnamomum cassia'
_chemical_name_common            'Cinnamomol B unknown solvate'
_chemical_formula_moiety         'C20 H30 O9'
_chemical_name_systematic        
'12-isopropyl-2,6,14-trimethyl-11,13-dioxahexacyclo[10.3.1.0^2,9^.0^3,7^.0^8,15^.0^10,14^]hexadecane-1,3,6,7,8,10,15-heptol unknown solvate'
_chemical_properties_biological  'immunostimulative activity'
_symmetry_cell_setting           hexagonal
_symmetry_space_group_name_H-M   'P 65'
_symmetry_Int_Tables_number      170
_space_group_name_Hall           'P 65'
loop_
_symmetry_equiv_pos_site_id
_symmetry_equiv_pos_as_xyz
1 x,y,z
2 x-y,x,5/6+z
3 y,-x+y,1/6+z
4 -y,x-y,2/3+z
5 -x+y,-x,1/3+z
6 -x,-y,1/2+z
_cell_length_a                   18.6492(19)
_cell_length_b                   18.6492(19)
_cell_length_c                   12.5645(15)
_cell_angle_alpha                90
_cell_angle_beta                 90
_cell_angle_gamma                120
_cell_volume                     3784.39
_exptl_crystal_colour            colorless
_exptl_crystal_description       block
_chemical_melting_point          '203-205 deg.C'
_cell_formula_units_Z            6
loop_
_atom_site_label
_atom_site_type_symbol
_atom_site_fract_x
_atom_site_fract_y
_atom_site_fract_z
C1 C 0.05608(9) 0.34415(9) 0.11879(13)
C2 C 0.01951(10) 0.35122(11) 0.23024(14)
C3 C 0.09450(12) 0.38707(12) 0.30183(14)
H1 H 0.1069 0.3447 0.3242
H2 H 0.0860 0.4124 0.3644
C4 C 0.16386(10) 0.45191(11) 0.23217(14)
H3 H 0.2178 0.4698 0.2633
H4 H 0.1572 0.4998 0.2211
C5 C 0.15252(9) 0.40444(10) 0.12754(13)
C6 C 0.03237(8) 0.37956(9) 0.02295(13)
C7 C 0.05566(8) 0.36023(9) -0.08791(13)
C8 C 0.15285(9) 0.39664(9) -0.07521(13)
C9 C 0.17381(9) 0.45622(9) 0.02391(13)
C10 C 0.09919(9) 0.47207(9) 0.01576(13)
H5 H 0.0968 0.5057 0.0741
C11 C 0.08918(9) 0.50070(9) -0.09478(13)
C12 C 0.04244(9) 0.41930(9) -0.16157(12)
C13 C 0.17209(10) 0.49325(11) -0.22801(14)
C14 C 0.20217(10) 0.43967(11) -0.17489(14)
H6 H 0.2601 0.4740 -0.1561
H7 H 0.1978 0.3982 -0.2251
C15 C -0.05461(12) 0.27048(13) 0.26732(17)
H8 H -0.0773 0.2803 0.3305
H9 H -0.0373 0.2309 0.2825
H10 H -0.0959 0.2492 0.2124
C16 C 0.25979(10) 0.53206(10) 0.02995(17)
H11 H 0.2618 0.5668 0.0876
H12 H 0.2720 0.5623 -0.0357
H13 H 0.2999 0.5150 0.0418
C17 C -0.04605(10) 0.39185(10) -0.19415(15)
H14 H -0.0457 0.4255 -0.2522
H15 H -0.0752 0.3978 -0.1348
H16 H -0.0732 0.3349 -0.2161
C18 C 0.22492(12) 0.54361(13) -0.32118(18)
H17 H 0.2796 0.5833 -0.2927
C19 C 0.18935(17) 0.59418(17) -0.3725(2)
H18 H 0.1410 0.5580 -0.4132
H19 H 0.2302 0.6356 -0.4185
H20 H 0.1747 0.6205 -0.3178
C20 C 0.23772(18) 0.49186(19) -0.4030(2)
H21 H 0.2727 0.4726 -0.3738
H22 H 0.2635 0.5248 -0.4651
H23 H 0.1852 0.4452 -0.4221
O1 O 0.03405(6) 0.26077(6) 0.09871(9)
H24 H 0.0580 0.2464 0.1411
O2 O -0.00428(7) 0.41375(8) 0.22567(9)
H25 H -0.0310 0.4077 0.1713
O3 O 0.19785(7) 0.36240(7) 0.14208(10)
H26 H 0.1939 0.3356 0.0884
O4 O -0.05092(6) 0.36241(6) 0.02968(9)
H27 H -0.0825 0.3138 0.0143
O5 O 0.01249(7) 0.27791(7) -0.12276(10)
H28 H 0.0107 0.2473 -0.0747
O6 O 0.16781(7) 0.32985(7) -0.05296(10)
H29 H 0.1482 0.2951 -0.1004
O7 O 0.05135(7) 0.54782(7) -0.08541(10)
H30 H 0.0393 0.5569 -0.1447
O8 O 0.16552(6) 0.54690(6) -0.15317(10)
O9 O 0.08881(7) 0.43825(7) -0.25826(9)
loop_
_geom_bond_atom_site_label_1
_geom_bond_atom_site_label_2
_geom_bond_site_symmetry_1
_geom_bond_site_symmetry_2
C1 C2 1_555 1_555
C2 C3 1_555 1_555
C3 H1 1_555 1_555
H2 C3 1_555 1_555
C4 C3 1_555 1_555
H3 C4 1_555 1_555
H4 C4 1_555 1_555
C5 C1 1_555 1_555
C6 C1 1_555 1_555
C7 C6 1_555 1_555
C8 C7 1_555 1_555
C9 C5 1_555 1_555
C10 C6 1_555 1_555
H5 C10 1_555 1_555
C11 C10 1_555 1_555
C12 C7 1_555 1_555
C13 C14 1_555 1_555
C14 C8 1_555 1_555
H6 C14 1_555 1_555
H7 C14 1_555 1_555
C15 C2 1_555 1_555
H8 C15 1_555 1_555
H9 C15 1_555 1_555
H10 C15 1_555 1_555
C16 C9 1_555 1_555
H11 C16 1_555 1_555
H12 C16 1_555 1_555
H13 C16 1_555 1_555
C17 C12 1_555 1_555
H14 C17 1_555 1_555
H15 C17 1_555 1_555
H16 C17 1_555 1_555
C18 C13 1_555 1_555
H17 C18 1_555 1_555
C19 C18 1_555 1_555
H18 C19 1_555 1_555
H19 C19 1_555 1_555
H20 C19 1_555 1_555
C20 C18 1_555 1_555
H21 C20 1_555 1_555
H22 C20 1_555 1_555
H23 C20 1_555 1_555
O1 C1 1_555 1_555
H24 O1 1_555 1_555
O2 C2 1_555 1_555
H25 O2 1_555 1_555
O3 C5 1_555 1_555
H26 O3 1_555 1_555
O4 C6 1_555 1_555
H27 O4 1_555 1_555
O5 C7 1_555 1_555
H28 O5 1_555 1_555
O6 C8 1_555 1_555
H29 O6 1_555 1_555
O7 C11 1_555 1_555
H30 O7 1_555 1_555
O8 C11 1_555 1_555
O9 C12 1_555 1_555
C4 C5 1_555 1_555
C8 C9 1_555 1_555
C9 C10 1_555 1_555
C11 C12 1_555 1_555
C13 O8 1_555 1_555
C13 O9 1_555 1_555

#END
