
#######################################################################
#
#                 Cambridge Crystallographic Data Centre
#                                CCDC 
#
#######################################################################
#
# If this CIF has been generated from an entry in the Cambridge 
# Structural Database, then it will include bibliographic, chemical, 
# crystal, experimental, refinement or atomic coordinate data resulting 
# from the CCDC's data processing and validation procedures.
#
#######################################################################

data_BAWSUQ
_chemical_formula_moiety         'C17 H16 N1 O2 S1 1+,C7 H7 O3 S1 1-'
_chemical_name_systematic        
'2-[2-(4-hydroxy-3-methoxyphenyl)ethenyl]-3-methyl-1,3-benzothiazol-3-ium 4-methylbenzene-1-sulfonate'
_symmetry_cell_setting           monoclinic
_symmetry_space_group_name_H-M   'P n'
_symmetry_Int_Tables_number      7
_space_group_name_Hall           'P -2yac'
loop_
_symmetry_equiv_pos_site_id
_symmetry_equiv_pos_as_xyz
1 x,y,z
2 1/2+x,-y,1/2+z
_cell_length_a                   11.5030(5)
_cell_length_b                   7.1890(4)
_cell_length_c                   14.3330(7)
_cell_angle_alpha                90
_cell_angle_beta                 108.9180(12)
_cell_angle_gamma                90
_cell_volume                     1121.24
_exptl_crystal_colour            orange
_exptl_crystal_description       Block
_cell_formula_units_Z            2
loop_
_atom_site_label
_atom_site_type_symbol
_atom_site_fract_x
_atom_site_fract_y
_atom_site_fract_z
S1 S 0.28861(16) 0.1493(3) 0.48027(13)
O1 O -0.1799(4) 0.3483(8) -0.0390(4)
O2 O -0.0589(4) 0.2634(9) -0.1586(3)
H1 H -0.0176 0.2179 -0.1899
N1 N 0.4838(5) 0.2403(8) 0.4441(4)
C1 C 0.5175(6) 0.2329(9) 0.5473(5)
C2 C 0.6351(7) 0.2710(10) 0.6135(6)
H2 H 0.7002 0.3016 0.5913
C3 C 0.6498(7) 0.2611(12) 0.7122(6)
H3 H 0.7264 0.2868 0.7579
C4 C 0.5530(8) 0.2136(11) 0.7457(6)
H4 H 0.5659 0.2077 0.8131
C5 C 0.4382(7) 0.1751(11) 0.6801(5)
H5 H 0.3735 0.1419 0.7022
C6 C 0.4221(6) 0.1874(10) 0.5800(5)
C7 C 0.3646(6) 0.2041(9) 0.3991(5)
C8 C 0.3076(7) 0.2095(10) 0.2940(5)
H6 H 0.3578 0.1984 0.2549
C9 C 0.1870(7) 0.2295(10) 0.2488(5)
H7 H 0.1378 0.2406 0.2888
C10 C 0.1251(6) 0.2356(9) 0.1420(5)
C11 C 0.0016(6) 0.2846(9) 0.1054(5)
H8 H -0.0410 0.3099 0.1491
C12 C -0.0588(6) 0.2961(9) 0.0048(5)
C13 C 0.0042(6) 0.2528(9) -0.0604(5)
C14 C 0.1275(6) 0.2033(10) -0.0239(5)
H9 H 0.1696 0.1753 -0.0676
C15 C 0.1885(6) 0.1950(11) 0.0765(5)
H10 H 0.2712 0.1626 0.1002
C16 C -0.2547(7) 0.3691(11) 0.0229(6)
H11 H -0.2556 0.2544 0.0569
H12 H -0.3369 0.4008 -0.0168
H13 H -0.2217 0.4662 0.0701
C17 C 0.5703(7) 0.2872(12) 0.3930(6)
H14 H 0.6220 0.1821 0.3939
H15 H 0.6199 0.3905 0.4254
H16 H 0.5259 0.3201 0.3259
S2 S 0.06930(16) 0.0173(3) 0.65700(13)
O3 O 0.1884(4) -0.0107(10) 0.6463(4)
O4 O 0.0808(7) 0.1263(11) 0.7449(4)
O5 O 0.0021(6) -0.1536(10) 0.6502(5)
C18 C -0.0135(6) 0.1561(11) 0.5555(5)
C19 C -0.0620(7) 0.0750(12) 0.4633(6)
H17 H -0.0532 -0.0522 0.4557
C20 C -0.1235(7) 0.1834(13) 0.3826(5)
H18 H -0.1569 0.1277 0.3211
C21 C -0.1361(7) 0.3732(12) 0.3918(6)
C22 C -0.0881(8) 0.4534(12) 0.4834(7)
H19 H -0.0963 0.5807 0.4908
C23 C -0.0273(7) 0.3452(12) 0.5649(6)
H20 H 0.0044 0.4008 0.6266
C24 C -0.2050(9) 0.4870(15) 0.3019(7)
H21 H -0.2306 0.6026 0.3226
H22 H -0.2759 0.4191 0.2628
H23 H -0.1522 0.5114 0.2634
loop_
_geom_bond_atom_site_label_1
_geom_bond_atom_site_label_2
_geom_bond_site_symmetry_1
_geom_bond_site_symmetry_2
S1 C6 1_555 1_555
O1 C12 1_555 1_555
O2 H1 1_555 1_555
N1 C1 1_555 1_555
C1 C2 1_555 1_555
C2 H2 1_555 1_555
C3 C2 1_555 1_555
H3 C3 1_555 1_555
C4 C3 1_555 1_555
H4 C4 1_555 1_555
C5 C4 1_555 1_555
H5 C5 1_555 1_555
C6 C1 1_555 1_555
C7 S1 1_555 1_555
C8 C7 1_555 1_555
H6 C8 1_555 1_555
C9 C8 1_555 1_555
H7 C9 1_555 1_555
C10 C9 1_555 1_555
C11 C10 1_555 1_555
H8 C11 1_555 1_555
C12 C11 1_555 1_555
C13 O2 1_555 1_555
C14 C13 1_555 1_555
H9 C14 1_555 1_555
C15 C10 1_555 1_555
H10 C15 1_555 1_555
C16 O1 1_555 1_555
H11 C16 1_555 1_555
H12 C16 1_555 1_555
H13 C16 1_555 1_555
C17 N1 1_555 1_555
H14 C17 1_555 1_555
H15 C17 1_555 1_555
H16 C17 1_555 1_555
S2 O3 1_555 1_555
O4 S2 1_555 1_555
O5 S2 1_555 1_555
C18 S2 1_555 1_555
C19 C18 1_555 1_555
H17 C19 1_555 1_555
C20 C19 1_555 1_555
H18 C20 1_555 1_555
C21 C20 1_555 1_555
C22 C21 1_555 1_555
H19 C22 1_555 1_555
C23 C18 1_555 1_555
H20 C23 1_555 1_555
C24 C21 1_555 1_555
H21 C24 1_555 1_555
H22 C24 1_555 1_555
H23 C24 1_555 1_555
N1 C7 1_555 1_555
C5 C6 1_555 1_555
C12 C13 1_555 1_555
C14 C15 1_555 1_555
C22 C23 1_555 1_555

#END
