
#######################################################################
#
#                 Cambridge Crystallographic Data Centre
#                                CCDC 
#
#######################################################################
#
# If this CIF has been generated from an entry in the Cambridge 
# Structural Database, then it will include bibliographic, chemical, 
# crystal, experimental, refinement or atomic coordinate data resulting 
# from the CCDC's data processing and validation procedures.
#
#######################################################################

data_BAWSIE
_chemical_formula_moiety         'C24 H23 N1 O5'
_chemical_name_systematic        
'6-(2H-1,3-benzodioxol-5-yl)-1-benzyl-2-oxo-1-azaspiro[4.4]non-7-en-7-yl acetate'
_symmetry_cell_setting           monoclinic
_symmetry_space_group_name_H-M   'P 21/n'
_symmetry_Int_Tables_number      14
_space_group_name_Hall           '-P 2yn'
loop_
_symmetry_equiv_pos_site_id
_symmetry_equiv_pos_as_xyz
1 x,y,z
2 1/2-x,1/2+y,1/2-z
3 -x,-y,-z
4 1/2+x,1/2-y,1/2+z
_cell_length_a                   10.3077(4)
_cell_length_b                   13.3706(5)
_cell_length_c                   14.8573(5)
_cell_angle_alpha                90
_cell_angle_beta                 92.412(3)
_cell_angle_gamma                90
_cell_volume                     2045.82
_exptl_crystal_colour            colorless
_exptl_crystal_description       block
_chemical_melting_point          '428-431 K'
_cell_formula_units_Z            4
_exptl_crystal_recrystallization_method n-hexane/dichloromethane
loop_
_atom_site_label
_atom_site_type_symbol
_atom_site_fract_x
_atom_site_fract_y
_atom_site_fract_z
O1 O 1.0467(2) 0.99757(16) -0.31046(12)
O2 O 0.61129(15) 0.61299(14) -0.00548(13)
O3 O 0.79977(15) 0.51988(12) -0.00448(12)
O4 O 1.0910(2) 0.92394(14) 0.10913(12)
O5 O 1.17306(15) 0.76999(12) 0.09185(10)
N1 N 1.14885(18) 0.90178(14) -0.20191(12)
C1 C 1.0588(2) 0.9186(2) -0.26927(15)
C2 C 0.9780(3) 0.8264(3) -0.28074(19)
H1 H 0.9657 0.8090 -0.3439
H2 H 0.8937 0.8354 -0.2553
C3 C 1.0549(3) 0.7478(2) -0.23064(17)
H3 H 1.1096 0.7117 -0.2711
H4 H 0.9976 0.7005 -0.2028
C4 C 1.1379(2) 0.80324(17) -0.15888(14)
C5 C 1.2713(3) 0.7532(2) -0.13975(17)
H5 H 1.2720 0.6861 -0.1647
H6 H 1.3397 0.7918 -0.1661
C6 C 1.2901(2) 0.75002(18) -0.04015(17)
H7 H 1.3657 0.7284 -0.0097
C7 C 1.1869(2) 0.78144(17) -0.00080(14)
C8 C 1.0771(2) 0.81650(17) -0.06317(13)
H8 H 1.0645 0.8882 -0.0529
C9 C 1.2262(2) 0.98284(18) -0.16345(16)
H9 H 1.2242 0.9788 -0.0983
H10 H 1.1861 1.0457 -0.1817
C10 C 1.3663(2) 0.98447(17) -0.18947(15)
C11 C 1.4017(3) 0.9600(2) -0.27566(16)
H11 H 1.3385 0.9414 -0.3190
C12 C 1.5309(3) 0.9631(2) -0.2974(2)
H12 H 1.5544 0.9461 -0.3552
C13 C 1.5898(3) 1.0171(2) -0.1490(2)
H13 H 1.6529 1.0370 -0.1061
C14 C 1.6247(3) 0.9912(2) -0.2337(2)
H14 H 1.7116 0.9927 -0.2482
C15 C 1.4614(3) 1.0137(2) -0.12679(17)
H15 H 1.4386 1.0312 -0.0690
C16 C 0.9501(2) 0.76400(17) -0.04788(14)
C17 C 0.8361(2) 0.81904(18) -0.04873(17)
H16 H 0.8397 0.8877 -0.0582
C18 C 0.7159(2) 0.7741(2) -0.03583(19)
H17 H 0.6396 0.8113 -0.0369
C19 C 0.7154(2) 0.67408(19) -0.02175(15)
C20 C 0.8274(2) 0.61881(17) -0.02086(14)
C21 C 0.9464(2) 0.66075(17) -0.03329(14)
H18 H 1.0216 0.6222 -0.0321
C22 C 0.6611(2) 0.51338(19) -0.00812(18)
H19 H 0.6308 0.4803 -0.0632
H20 H 0.6318 0.4752 0.0427
C23 C 1.1184(2) 0.8439(2) 0.13993(16)
C24 C 1.1028(3) 0.8106(2) 0.23444(18)
H21 H 1.1866 0.7977 0.2626
H22 H 1.0516 0.7506 0.2346
H23 H 1.0600 0.8620 0.2671
loop_
_geom_bond_atom_site_label_1
_geom_bond_atom_site_label_2
_geom_bond_site_symmetry_1
_geom_bond_site_symmetry_2
O1 C1 1_555 1_555
O2 C19 1_555 1_555
O3 C20 1_555 1_555
O4 C23 1_555 1_555
O5 C7 1_555 1_555
N1 C1 1_555 1_555
C1 C2 1_555 1_555
C2 H1 1_555 1_555
H2 C2 1_555 1_555
C3 C2 1_555 1_555
H3 C3 1_555 1_555
H4 C3 1_555 1_555
C4 N1 1_555 1_555
C5 C4 1_555 1_555
H5 C5 1_555 1_555
H6 C5 1_555 1_555
C6 C5 1_555 1_555
H7 C6 1_555 1_555
C7 C6 1_555 1_555
C8 C4 1_555 1_555
H8 C8 1_555 1_555
C9 N1 1_555 1_555
H9 C9 1_555 1_555
H10 C9 1_555 1_555
C10 C9 1_555 1_555
C11 C10 1_555 1_555
H11 C11 1_555 1_555
C12 C11 1_555 1_555
H12 C12 1_555 1_555
C13 H13 1_555 1_555
C14 C12 1_555 1_555
H14 C14 1_555 1_555
C15 C10 1_555 1_555
H15 C15 1_555 1_555
C16 C8 1_555 1_555
C17 C16 1_555 1_555
H16 C17 1_555 1_555
C18 C17 1_555 1_555
H17 C18 1_555 1_555
C19 C18 1_555 1_555
C20 C19 1_555 1_555
C21 C16 1_555 1_555
H18 C21 1_555 1_555
C22 O2 1_555 1_555
H19 C22 1_555 1_555
H20 C22 1_555 1_555
C23 O5 1_555 1_555
C24 C23 1_555 1_555
H21 C24 1_555 1_555
H22 C24 1_555 1_555
H23 C24 1_555 1_555
O3 C22 1_555 1_555
C3 C4 1_555 1_555
C7 C8 1_555 1_555
C13 C14 1_555 1_555
C13 C15 1_555 1_555
C20 C21 1_555 1_555

#END
