
#######################################################################
#
#                 Cambridge Crystallographic Data Centre
#                                CCDC 
#
#######################################################################
#
# If this CIF has been generated from an entry in the Cambridge 
# Structural Database, then it will include bibliographic, chemical, 
# crystal, experimental, refinement or atomic coordinate data resulting 
# from the CCDC's data processing and validation procedures.
#
#######################################################################

data_BAWTEB
_chemical_formula_moiety         'C21 H19 N1 O4'
_chemical_name_systematic        
(6aS,7S,10R,10aR)-10-methyl-6a-nitro-7-phenyl-6a,7,10,10a-tetrahydro-6H-dibenzo[b,d]pyran-8-carbaldehyde
_symmetry_cell_setting           monoclinic
_symmetry_space_group_name_H-M   'P 21'
_symmetry_Int_Tables_number      4
_space_group_name_Hall           'P 2yb'
loop_
_symmetry_equiv_pos_site_id
_symmetry_equiv_pos_as_xyz
1 x,y,z
2 -x,1/2+y,-z
_cell_length_a                   8.3201(2)
_cell_length_b                   7.3604(2)
_cell_length_c                   14.5839(3)
_cell_angle_alpha                90
_cell_angle_beta                 105.938(2)
_cell_angle_gamma                90
_cell_volume                     858.776
_exptl_crystal_colour            colorless
_exptl_crystal_description       prism
_chemical_melting_point          '172-175 deg.C'
_cell_formula_units_Z            2
loop_
_atom_site_label
_atom_site_type_symbol
_atom_site_fract_x
_atom_site_fract_y
_atom_site_fract_z
O1 O 0.46365(16) 0.53568(19) 0.79308(9)
O2 O 1.13402(19) 1.0230(3) 0.79664(12)
O3 O 0.63755(18) 0.6271(2) 0.60872(9)
O4 O 0.79083(17) 0.4975(2) 0.73560(10)
N1 N 0.69547(19) 0.6180(2) 0.69513(11)
C1 C 0.5945(2) 0.6605(3) 0.83530(13)
H1 H 0.6909 0.5932 0.8760
H2 H 0.5548 0.7470 0.8763
C2 C 0.6501(2) 0.7655(3) 0.75900(13)
C3 C 0.8114(2) 0.8772(3) 0.80040(13)
H3 H 0.9065 0.7895 0.8195
C4 C 0.8418(2) 0.9958(3) 0.72226(13)
C5 C 0.7216(3) 1.0456(3) 0.64506(14)
H4 H 0.7554 1.1127 0.5979
C6 C 0.5389(2) 1.0058(3) 0.62568(12)
H5 H 0.5004 0.9431 0.5626
C7 C 0.5022(2) 0.8806(3) 0.70268(13)
H6 H 0.4774 0.9652 0.7507
C8 C 0.3478(2) 0.7615(3) 0.67008(13)
C9 C 0.2120(3) 0.8073(3) 0.59311(15)
H7 H 0.2181 0.9128 0.5567
C10 C 0.0674(3) 0.7009(3) 0.56884(16)
H8 H -0.0238 0.7344 0.5164
C11 C 0.0571(3) 0.5468(3) 0.62107(15)
H9 H -0.0423 0.4761 0.6056
C12 C 0.1919(2) 0.4953(3) 0.69615(14)
H10 H 0.1867 0.3876 0.7311
C13 C 0.3347(2) 0.6027(3) 0.71967(14)
C14 C 0.8023(2) 0.9791(3) 0.88982(13)
C15 C 0.8746(2) 0.9002(3) 0.97887(15)
H11 H 0.9352 0.7898 0.9826
C16 C 0.8588(3) 0.9812(3) 1.06182(14)
H12 H 0.9085 0.9262 1.1218
C17 C 0.7708(3) 1.1422(3) 1.05747(14)
H13 H 0.7590 1.1969 1.1142
C18 C 0.6999(3) 1.2232(3) 0.96955(15)
H14 H 0.6390 1.3333 0.9663
C19 C 0.7178(3) 1.1437(3) 0.88620(14)
H15 H 0.6722 1.2019 0.8266
C20 C 1.0141(3) 1.0545(3) 0.73029(16)
H16 H 1.024(3) 1.123(4) 0.6746(17)
C21 C 0.4452(3) 1.1877(3) 0.61932(15)
H17 H 0.3251 1.1645 0.6066
H18 H 0.4853 1.2534 0.6798
H19 H 0.4656 1.2610 0.5675
loop_
_geom_bond_atom_site_label_1
_geom_bond_atom_site_label_2
_geom_bond_site_symmetry_1
_geom_bond_site_symmetry_2
O1 C1 1_555 1_555
O2 C20 1_555 1_555
O3 N1 1_555 1_555
O4 N1 1_555 1_555
N1 C2 1_555 1_555
C1 H1 1_555 1_555
H2 C1 1_555 1_555
C2 C1 1_555 1_555
C3 C2 1_555 1_555
H3 C3 1_555 1_555
C4 C3 1_555 1_555
C5 C4 1_555 1_555
H4 C5 1_555 1_555
C6 C5 1_555 1_555
H5 C6 1_555 1_555
C7 C2 1_555 1_555
H6 C7 1_555 1_555
C8 C7 1_555 1_555
C9 C8 1_555 1_555
H7 C9 1_555 1_555
C10 C9 1_555 1_555
H8 C10 1_555 1_555
C11 C10 1_555 1_555
H9 C11 1_555 1_555
C12 C11 1_555 1_555
H10 C12 1_555 1_555
C13 O1 1_555 1_555
C14 C3 1_555 1_555
C15 C14 1_555 1_555
H11 C15 1_555 1_555
C16 C15 1_555 1_555
H12 C16 1_555 1_555
C17 C16 1_555 1_555
H13 C17 1_555 1_555
C18 C17 1_555 1_555
H14 C18 1_555 1_555
C19 C14 1_555 1_555
H15 C19 1_555 1_555
C20 C4 1_555 1_555
H16 C20 1_555 1_555
C21 C6 1_555 1_555
H17 C21 1_555 1_555
H18 C21 1_555 1_555
H19 C21 1_555 1_555
C6 C7 1_555 1_555
C8 C13 1_555 1_555
C12 C13 1_555 1_555
C18 C19 1_555 1_555

#END
