
#######################################################################
#
#                 Cambridge Crystallographic Data Centre
#                                CCDC 
#
#######################################################################
#
# If this CIF has been generated from an entry in the Cambridge 
# Structural Database, then it will include bibliographic, chemical, 
# crystal, experimental, refinement or atomic coordinate data resulting 
# from the CCDC's data processing and validation procedures.
#
#######################################################################

data_BAWTAX
_chemical_formula_moiety         'C17 H16 N1 O2 S1 1+,C9 H11 O3 S1 1-'
_chemical_name_systematic        
'2-[2-(4-hydroxy-3-methoxyphenyl)ethenyl]-3-methyl-1,3-benzothiazol-3-ium 2,4,6-trimethylbenzene-1-sulfonate'
_symmetry_cell_setting           monoclinic
_symmetry_space_group_name_H-M   'P n'
_symmetry_Int_Tables_number      7
_space_group_name_Hall           'P -2yac'
loop_
_symmetry_equiv_pos_site_id
_symmetry_equiv_pos_as_xyz
1 x,y,z
2 1/2+x,-y,1/2+z
_cell_length_a                   11.2497(4)
_cell_length_b                   7.7093(3)
_cell_length_c                   14.5691(5)
_cell_angle_alpha                90
_cell_angle_beta                 107.9150(10)
_cell_angle_gamma                90
_cell_volume                     1202.27
_exptl_crystal_colour            orange
_exptl_crystal_description       Block
_cell_formula_units_Z            2
loop_
_atom_site_label
_atom_site_type_symbol
_atom_site_fract_x
_atom_site_fract_y
_atom_site_fract_z
S1 S 0.71902(9) 0.64498(15) 0.89106(8)
N1 N 0.9124(3) 0.7396(5) 0.8494(3)
O1 O 0.2560(3) 0.8428(5) 0.3741(3)
O2 O 0.3829(4) 0.7436(7) 0.2601(3)
H1 H 0.4320 0.7182 0.2307
C1 C 0.9497(4) 0.7407(6) 0.9498(3)
C2 C 1.0667(4) 0.7847(7) 1.0115(4)
H2 H 1.1309 0.8176 0.9874
C3 C 1.0850(5) 0.7781(8) 1.1093(4)
H3 H 1.1628 0.8058 1.1521
C4 C 0.9886(5) 0.7305(8) 1.1446(4)
H4 H 1.0030 0.7284 1.2109
C5 C 0.8726(5) 0.6863(7) 1.0846(4)
H5 H 0.8086 0.6539 1.1091
C6 C 0.8544(4) 0.6917(6) 0.9857(3)
C7 C 0.7923(4) 0.6968(6) 0.8077(3)
C8 C 0.7354(4) 0.6935(6) 0.7046(3)
H6 H 0.7872 0.6768 0.6665
C9 C 0.6131(4) 0.7129(6) 0.6601(3)
H7 H 0.5611 0.7258 0.6985
C10 C 0.5554(4) 0.7150(6) 0.5558(3)
C11 C 0.4317(4) 0.7725(7) 0.5171(4)
H8 H 0.3866 0.8029 0.5586
C12 C 0.3755(4) 0.7849(7) 0.4187(3)
C13 C 0.4412(5) 0.7323(7) 0.3561(3)
C14 C 0.5638(4) 0.6751(7) 0.3941(3)
H9 H 0.6085 0.6423 0.3528
C15 C 0.6197(4) 0.6665(7) 0.4926(3)
H10 H 0.7017 0.6276 0.5169
C16 C 0.1839(5) 0.8871(7) 0.4349(4)
H11 H 0.1027 0.9255 0.3963
H12 H 0.1753 0.7873 0.4718
H13 H 0.2247 0.9784 0.4779
C17 C 0.9977(5) 0.7911(8) 0.7954(4)
H14 H 1.0787 0.8159 0.8398
H15 H 1.0044 0.6983 0.7533
H16 H 0.9657 0.8927 0.7578
S2 S 0.50666(9) 0.56403(15) 1.07515(8)
O3 O 0.5416(4) 0.6839(5) 1.1556(3)
O4 O 0.4264(4) 0.4274(5) 1.0882(3)
O5 O 0.6138(3) 0.4977(6) 1.0522(3)
C18 C 0.4185(4) 0.6796(5) 0.9686(3)
C19 C 0.3853(4) 0.5871(6) 0.8808(3)
C20 C 0.3273(4) 0.6754(6) 0.7956(3)
H17 H 0.3061 0.6139 0.7379
C21 C 0.2999(4) 0.8487(6) 0.7928(3)
C22 C 0.3269(4) 0.9345(6) 0.8808(4)
H18 H 0.3048 1.0508 0.8806
C23 C 0.3850(4) 0.8564(6) 0.9688(3)
C24 C 0.2399(6) 0.9425(8) 0.6990(4)
H19 H 0.2283 1.0624 0.7119
H20 H 0.2930 0.9342 0.6586
H21 H 0.1604 0.8908 0.6667
C25 C 0.4088(6) 0.3962(6) 0.8732(4)
H22 H 0.4490 0.3500 0.9363
H23 H 0.3307 0.3376 0.8451
H24 H 0.4616 0.3793 0.8332
C26 C 0.4030(6) 0.9663(7) 1.0582(4)
H25 H 0.4439 0.8988 1.1145
H26 H 0.4534 1.0655 1.0554
H27 H 0.3231 1.0043 1.0615
loop_
_geom_bond_atom_site_label_1
_geom_bond_atom_site_label_2
_geom_bond_site_symmetry_1
_geom_bond_site_symmetry_2
S1 C6 1_555 1_555
N1 C1 1_555 1_555
O1 C12 1_555 1_555
O2 H1 1_555 1_555
C1 C2 1_555 1_555
C2 H2 1_555 1_555
C3 C2 1_555 1_555
H3 C3 1_555 1_555
C4 C3 1_555 1_555
H4 C4 1_555 1_555
C5 C4 1_555 1_555
H5 C5 1_555 1_555
C6 C1 1_555 1_555
C7 S1 1_555 1_555
C8 C7 1_555 1_555
H6 C8 1_555 1_555
C9 C8 1_555 1_555
H7 C9 1_555 1_555
C10 C9 1_555 1_555
C11 C10 1_555 1_555
H8 C11 1_555 1_555
C12 C11 1_555 1_555
C13 O2 1_555 1_555
C14 C13 1_555 1_555
H9 C14 1_555 1_555
C15 C10 1_555 1_555
H10 C15 1_555 1_555
C16 O1 1_555 1_555
H11 C16 1_555 1_555
H12 C16 1_555 1_555
H13 C16 1_555 1_555
C17 N1 1_555 1_555
H14 C17 1_555 1_555
H15 C17 1_555 1_555
H16 C17 1_555 1_555
S2 O3 1_555 1_555
O4 S2 1_555 1_555
O5 S2 1_555 1_555
C18 S2 1_555 1_555
C19 C18 1_555 1_555
C20 C19 1_555 1_555
H17 C20 1_555 1_555
C21 C20 1_555 1_555
C22 C21 1_555 1_555
H18 C22 1_555 1_555
C23 C18 1_555 1_555
C24 C21 1_555 1_555
H19 C24 1_555 1_555
H20 C24 1_555 1_555
H21 C24 1_555 1_555
C25 C19 1_555 1_555
H22 C25 1_555 1_555
H23 C25 1_555 1_555
H24 C25 1_555 1_555
C26 C23 1_555 1_555
H25 C26 1_555 1_555
H26 C26 1_555 1_555
H27 C26 1_555 1_555
N1 C7 1_555 1_555
C5 C6 1_555 1_555
C12 C13 1_555 1_555
C14 C15 1_555 1_555
C22 C23 1_555 1_555

#END
