
#######################################################################
#
#                 Cambridge Crystallographic Data Centre
#                                CCDC 
#
#######################################################################
#
# If this CIF has been generated from an entry in the Cambridge 
# Structural Database, then it will include bibliographic, chemical, 
# crystal, experimental, refinement or atomic coordinate data resulting 
# from the CCDC's data processing and validation procedures.
#
#######################################################################

data_BAWVAZ
_chemical_formula_moiety         'C23 H15 Br2 N1'
_chemical_name_systematic        3,5-bis(4-bromophenyl)-2-phenylpyridine
_symmetry_cell_setting           monoclinic
_symmetry_space_group_name_H-M   'P 21/n'
_symmetry_Int_Tables_number      14
_space_group_name_Hall           '-P 2yn'
loop_
_symmetry_equiv_pos_site_id
_symmetry_equiv_pos_as_xyz
1 x,y,z
2 1/2-x,1/2+y,1/2-z
3 -x,-y,-z
4 1/2+x,1/2-y,1/2+z
_cell_length_a                   9.6593(15)
_cell_length_b                   9.2722(14)
_cell_length_c                   21.766(3)
_cell_angle_alpha                90
_cell_angle_beta                 101.889(5)
_cell_angle_gamma                90
_cell_volume                     1907.61
_exptl_crystal_colour            colorless
_exptl_crystal_description       Block
_cell_formula_units_Z            4
loop_
_atom_site_label
_atom_site_type_symbol
_atom_site_fract_x
_atom_site_fract_y
_atom_site_fract_z
Br1 Br -0.00874(6) -0.41508(5) 1.08679(3)
Br2 Br 0.36907(7) 0.25891(6) 0.63852(2)
C1 C 0.1385(4) -0.0041(4) 1.06614(19)
H1 H 0.1168 0.0884 1.0778
C2 C 0.0661(4) -0.1196(5) 1.08309(19)
H2 H -0.0036 -0.1056 1.1063
C3 C 0.0971(4) -0.2567(4) 1.06545(19)
C4 C 0.2013(4) -0.2801(4) 1.0323(2)
H3 H 0.2229 -0.3730 1.0211
C5 C 0.2743(4) -0.1610(4) 1.01567(18)
H4 H 0.3451 -0.1752 0.9931
C6 C 0.2432(4) -0.0223(4) 1.03209(17)
C7 C 0.3111(4) 0.1041(4) 1.00895(19)
C8 C 0.3598(4) 0.2259(4) 1.0462(2)
C9 C 0.3673(4) 0.2281(4) 1.1148(2)
C10 C 0.4320(5) 0.1184(5) 1.1539(2)
H5 H 0.4737 0.0420 1.1367
C11 C 0.4359(6) 0.1200(6) 1.2167(2)
H6 H 0.4808 0.0464 1.2423
C12 C 0.3723(6) 0.2327(6) 1.2418(2)
H7 H 0.3723 0.2334 1.2846
C13 C 0.3097(6) 0.3422(6) 1.2050(3)
H8 H 0.2674 0.4175 1.2226
C14 C 0.3088(5) 0.3417(5) 1.1419(2)
H9 H 0.2684 0.4185 1.1170
C15 C 0.4021(5) 0.3492(5) 0.9600(2)
H10 H 0.4293 0.4341 0.9430
C16 C 0.3631(4) 0.2329(4) 0.91991(19)
C17 C 0.3174(4) 0.1100(4) 0.94622(19)
H11 H 0.2904 0.0297 0.9210
C18 C 0.3655(4) 0.2403(4) 0.8523(2)
C19 C 0.2637(5) 0.1711(5) 0.8083(2)
H12 H 0.1928 0.1195 0.8217
C20 C 0.2642(5) 0.1763(5) 0.7451(2)
H13 H 0.1943 0.1298 0.7161
C21 C 0.3696(5) 0.2515(5) 0.7259(2)
C22 C 0.4716(6) 0.3218(6) 0.7672(2)
H14 H 0.5422 0.3725 0.7532
C23 C 0.4690(5) 0.3167(6) 0.8300(2)
H15 H 0.5383 0.3656 0.8584
N1 N 0.4029(4) 0.3464(4) 1.02054(17)
loop_
_geom_bond_atom_site_label_1
_geom_bond_atom_site_label_2
_geom_bond_site_symmetry_1
_geom_bond_site_symmetry_2
Br1 C3 1_555 1_555
Br2 C21 1_555 1_555
C1 H1 1_555 1_555
C2 C1 1_555 1_555
H2 C2 1_555 1_555
C3 C2 1_555 1_555
C4 C3 1_555 1_555
H3 C4 1_555 1_555
C5 C4 1_555 1_555
H4 C5 1_555 1_555
C6 C1 1_555 1_555
C7 C6 1_555 1_555
C8 C7 1_555 1_555
C9 C8 1_555 1_555
C10 C9 1_555 1_555
H5 C10 1_555 1_555
C11 C10 1_555 1_555
H6 C11 1_555 1_555
C12 C11 1_555 1_555
H7 C12 1_555 1_555
C13 C12 1_555 1_555
H8 C13 1_555 1_555
C14 C9 1_555 1_555
H9 C14 1_555 1_555
C15 H10 1_555 1_555
C16 C15 1_555 1_555
C17 C7 1_555 1_555
H11 C17 1_555 1_555
C18 C16 1_555 1_555
C19 C18 1_555 1_555
H12 C19 1_555 1_555
C20 C19 1_555 1_555
H13 C20 1_555 1_555
C21 C20 1_555 1_555
C22 C21 1_555 1_555
H14 C22 1_555 1_555
C23 C18 1_555 1_555
H15 C23 1_555 1_555
N1 C8 1_555 1_555
C5 C6 1_555 1_555
C13 C14 1_555 1_555
C15 N1 1_555 1_555
C16 C17 1_555 1_555
C22 C23 1_555 1_555

#END
