
#######################################################################
#
#                 Cambridge Crystallographic Data Centre
#                                CCDC 
#
#######################################################################
#
# If this CIF has been generated from an entry in the Cambridge 
# Structural Database, then it will include bibliographic, chemical, 
# crystal, experimental, refinement or atomic coordinate data resulting 
# from the CCDC's data processing and validation procedures.
#
#######################################################################

data_BAWXOP
_chemical_formula_moiety         'C22 H20 N4 O5'
_chemical_name_systematic        
1-(2,4-dinitrophenyl)-2-(1'-methyl-3H-spiro[1-benzofuran-2,7'-bicyclo[4.2.0]octan]-3-ylidene)hydrazine
_symmetry_cell_setting           triclinic
_symmetry_space_group_name_H-M   'P -1'
_symmetry_Int_Tables_number      2
_space_group_name_Hall           '-P 1'
loop_
_symmetry_equiv_pos_site_id
_symmetry_equiv_pos_as_xyz
1 x,y,z
2 -x,-y,-z
_cell_length_a                   7.3583(3)
_cell_length_b                   8.6653(3)
_cell_length_c                   15.7812(5)
_cell_angle_alpha                94.049(3)
_cell_angle_beta                 95.948(3)
_cell_angle_gamma                105.631(3)
_cell_volume                     958.695
_exptl_crystal_colour            orange
_exptl_crystal_description       prism
_cell_formula_units_Z            2
loop_
_atom_site_label
_atom_site_type_symbol
_atom_site_fract_x
_atom_site_fract_y
_atom_site_fract_z
O1 O 1.00023(12) 0.94704(11) 0.70760(6)
O2 O 0.58713(12) 0.40914(11) 0.93578(6)
O3 O 0.35606(13) 0.23330(11) 0.97985(6)
O4 O -0.27844(14) 0.10615(12) 0.84577(7)
O5 O -0.36128(13) 0.26062(12) 0.75545(6)
N1 N 0.56831(14) 0.67674(12) 0.74857(7)
N2 N 0.52078(15) 0.58092(12) 0.81319(7)
H1 H 0.607(3) 0.561(2) 0.8511(12)
N3 N 0.41504(15) 0.33528(12) 0.93161(7)
N4 N -0.24041(15) 0.22046(13) 0.80220(7)
C1 C 1.05971(17) 0.89133(14) 0.78094(8)
C2 C 1.24725(17) 0.94009(16) 0.81937(9)
H2 H 1.343093 1.014341 0.795211
C3 C 1.28844(18) 0.87575(16) 0.89444(9)
H3 H 1.415668 0.905405 0.922069
C4 C 1.14666(19) 0.76799(17) 0.93046(8)
H4 H 1.178524 0.726957 0.982514
C5 C 0.95993(18) 0.72032(16) 0.89101(8)
H5 H 0.863842 0.647701 0.915883
C6 C 0.91536(17) 0.78091(14) 0.81400(8)
C7 C 0.74416(17) 0.75756(14) 0.75287(8)
C8 C 0.80746(16) 0.85039(14) 0.67786(8)
C9 C 0.79363(17) 0.75562(14) 0.59137(8)
C10 C 0.92176(17) 0.70677(15) 0.55186(8)
H6 H 1.038(2) 0.6975(19) 0.5835(10)
C11 C 0.90383(17) 0.68588(15) 0.45597(8)
H7 H 0.885567 0.570814 0.436857
H8 H 1.024336 0.748175 0.437532
C12 C 0.73835(18) 0.74026(15) 0.41131(8)
H9 H 0.771610 0.776909 0.355453
H10 H 0.623459 0.646971 0.399997
C13 C 0.69245(18) 0.87720(15) 0.46482(8)
H11 H 0.805153 0.972490 0.475142
H12 H 0.586642 0.908675 0.433384
C14 C 0.63628(17) 0.81941(14) 0.55028(8)
C15 C 0.67891(17) 0.94346(15) 0.63263(8)
H13 H 0.748450 1.054278 0.622876
H14 H 0.564851 0.943388 0.660857
C16 C 0.43411(17) 0.70762(16) 0.54029(9)
H15 H 0.421099 0.618873 0.495956
H16 H 0.343434 0.768125 0.523693
H17 H 0.407988 0.664067 0.594798
C17 C 0.33813(17) 0.49286(14) 0.81186(8)
C18 C 0.28079(17) 0.37242(14) 0.86805(8)
C19 C 0.09141(18) 0.28266(14) 0.86456(8)
H18 H 0.055694 0.201743 0.902061
C20 C -0.04266(17) 0.31339(15) 0.80586(8)
C21 C 0.00670(17) 0.43217(15) 0.75002(8)
H19 H -0.088384 0.452245 0.710309
C22 C 0.19291(17) 0.51910(15) 0.75308(8)
H20 H 0.225716 0.599111 0.714821
loop_
_geom_bond_atom_site_label_1
_geom_bond_atom_site_label_2
_geom_bond_site_symmetry_1
_geom_bond_site_symmetry_2
O1 C1 1_555 1_555
O2 N3 1_555 1_555
O3 N3 1_555 1_555
O4 N4 1_555 1_555
O5 N4 1_555 1_555
N1 N2 1_555 1_555
N2 H1 1_555 1_555
N3 C18 1_555 1_555
N4 C20 1_555 1_555
C1 C2 1_555 1_555
C2 H2 1_555 1_555
C3 C2 1_555 1_555
H3 C3 1_555 1_555
C4 C3 1_555 1_555
H4 C4 1_555 1_555
C5 C4 1_555 1_555
H5 C5 1_555 1_555
C6 C1 1_555 1_555
C7 N1 1_555 1_555
C8 O1 1_555 1_555
C9 C8 1_555 1_555
C10 C9 1_555 1_555
H6 C10 1_555 1_555
C11 C10 1_555 1_555
H7 C11 1_555 1_555
H8 C11 1_555 1_555
C12 C11 1_555 1_555
H9 C12 1_555 1_555
H10 C12 1_555 1_555
C13 C12 1_555 1_555
H11 C13 1_555 1_555
H12 C13 1_555 1_555
C14 C9 1_555 1_555
C15 C8 1_555 1_555
H13 C15 1_555 1_555
H14 C15 1_555 1_555
C16 C14 1_555 1_555
H15 C16 1_555 1_555
H16 C16 1_555 1_555
H17 C16 1_555 1_555
C17 N2 1_555 1_555
C18 C17 1_555 1_555
C19 C18 1_555 1_555
H18 C19 1_555 1_555
C20 C19 1_555 1_555
C21 C20 1_555 1_555
H19 C21 1_555 1_555
C22 C17 1_555 1_555
H20 C22 1_555 1_555
C5 C6 1_555 1_555
C6 C7 1_555 1_555
C7 C8 1_555 1_555
C13 C14 1_555 1_555
C14 C15 1_555 1_555
C21 C22 1_555 1_555

#END
