
#######################################################################
#
#                 Cambridge Crystallographic Data Centre
#                                CCDC 
#
#######################################################################
#
# If this CIF has been generated from an entry in the Cambridge 
# Structural Database, then it will include bibliographic, chemical, 
# crystal, experimental, refinement or atomic coordinate data resulting 
# from the CCDC's data processing and validation procedures.
#
#######################################################################

data_BAWXIJ
_chemical_formula_moiety         'C25 H24 O3'
_chemical_name_systematic        
15-(3-oxo-1-benzofuran-2(3H)-ylidene)podocarpa-8,11,13-trien-3-one
_symmetry_cell_setting           monoclinic
_symmetry_space_group_name_H-M   'P 21/c'
_symmetry_Int_Tables_number      14
_space_group_name_Hall           '-P 2ybc'
loop_
_symmetry_equiv_pos_site_id
_symmetry_equiv_pos_as_xyz
1 x,y,z
2 -x,1/2+y,1/2-z
3 -x,-y,-z
4 x,1/2-y,1/2+z
_cell_length_a                   10.0189(8)
_cell_length_b                   25.362(2)
_cell_length_c                   7.4147(6)
_cell_angle_alpha                90
_cell_angle_beta                 102.290(3)
_cell_angle_gamma                90
_cell_volume                     1840.89
_exptl_crystal_colour            'whiteish colorless'
_exptl_crystal_description       prism
_chemical_melting_point          '215-217 deg.C'
_cell_formula_units_Z            4
loop_
_atom_site_label
_atom_site_type_symbol
_atom_site_fract_x
_atom_site_fract_y
_atom_site_fract_z
O1 O 0.56690(17) 0.32651(6) 0.5840(2)
O2 O 0.51592(18) 0.44748(7) 0.6677(3)
O3 O 0.38125(19) 0.21394(7) 0.6664(3)
C1 C -0.0153(2) 0.42570(9) 0.3325(3)
C2 C -0.1054(2) 0.42767(9) 0.4535(3)
C3 C -0.0582(2) 0.41590(10) 0.6570(3)
H1 H -0.131593 0.396905 0.700745
H2 H -0.041549 0.449554 0.725807
C4 C -0.0657(3) 0.43912(9) 0.1471(3)
H3 H -0.005492 0.438492 0.063929
C5 C 0.4514(2) 0.30412(9) 0.6297(3)
C6 C 0.1310(2) 0.40439(9) 0.3914(3)
C7 C 0.1777(2) 0.40771(9) 0.6050(3)
H4 H 0.176171 0.446158 0.634395
C8 C 0.4642(2) 0.24525(9) 0.6311(3)
C9 C 0.7767(3) 0.29152(10) 0.5115(4)
H5 H 0.812314 0.325387 0.493650
C10 C 0.3810(2) 0.42178(10) 0.3764(3)
H6 H 0.394326 0.386041 0.329527
H7 H 0.440663 0.446432 0.326384
C11 C -0.2422(2) 0.44191(9) 0.3864(4)
H8 H -0.302918 0.442964 0.468883
C12 C 0.6504(2) 0.28511(9) 0.5579(3)
C13 C 0.3282(2) 0.38969(9) 0.6853(3)
C14 C 0.7958(3) 0.19555(10) 0.5185(4)
H9 H 0.847398 0.164964 0.504462
C15 C -0.2016(2) 0.45337(9) 0.0817(3)
H10 H -0.233449 0.462293 -0.044593
C16 C 0.6698(3) 0.19046(10) 0.5643(4)
H11 H 0.633776 0.156666 0.581910
C17 C 0.4211(2) 0.42177(9) 0.5843(3)
C18 C 0.2313(2) 0.43834(10) 0.3095(3)
H12 H 0.206789 0.435763 0.173167
H13 H 0.221231 0.475676 0.343230
C19 C 0.3470(2) 0.33107(9) 0.6668(3)
H14 H 0.272257 0.310136 0.684636
C20 C 0.3676(3) 0.40217(10) 0.8929(3)
H15 H 0.335706 0.437627 0.915055
H16 H 0.467146 0.400495 0.934495
H17 H 0.325095 0.376334 0.961323
C21 C 0.0719(2) 0.38276(9) 0.6992(3)
H18 H 0.107959 0.381224 0.834257
H19 H 0.051797 0.346341 0.653413
C22 C 0.5968(2) 0.23619(9) 0.5839(3)
C23 C -0.2904(2) 0.45443(9) 0.2025(4)
H20 H -0.383580 0.463705 0.159030
C24 C 0.1284(3) 0.34796(9) 0.3142(3)
H21 H 0.066375 0.326172 0.368451
H22 H 0.220621 0.332945 0.345168
H23 H 0.096654 0.348831 0.179729
C25 C 0.8479(3) 0.24556(11) 0.4928(4)
H24 H 0.934823 0.248139 0.461469
loop_
_geom_bond_atom_site_label_1
_geom_bond_atom_site_label_2
_geom_bond_site_symmetry_1
_geom_bond_site_symmetry_2
O1 C5 1_555 1_555
O2 C17 1_555 1_555
O3 C8 1_555 1_555
C1 C2 1_555 1_555
C2 C3 1_555 1_555
C3 H1 1_555 1_555
H2 C3 1_555 1_555
C4 C1 1_555 1_555
H3 C4 1_555 1_555
C5 C8 1_555 1_555
C6 C1 1_555 1_555
C7 C6 1_555 1_555
H4 C7 1_555 1_555
C8 C22 1_555 1_555
C9 H5 1_555 1_555
C10 H6 1_555 1_555
H7 C10 1_555 1_555
C11 C2 1_555 1_555
H8 C11 1_555 1_555
C12 O1 1_555 1_555
C13 C7 1_555 1_555
C14 H9 1_555 1_555
C15 C4 1_555 1_555
H10 C15 1_555 1_555
C16 C14 1_555 1_555
H11 C16 1_555 1_555
C17 C10 1_555 1_555
C18 C6 1_555 1_555
H12 C18 1_555 1_555
H13 C18 1_555 1_555
C19 C5 1_555 1_555
H14 C19 1_555 1_555
C20 C13 1_555 1_555
H15 C20 1_555 1_555
H16 C20 1_555 1_555
H17 C20 1_555 1_555
C21 C3 1_555 1_555
H18 C21 1_555 1_555
H19 C21 1_555 1_555
C22 C12 1_555 1_555
C23 C11 1_555 1_555
H20 C23 1_555 1_555
C24 C6 1_555 1_555
H21 C24 1_555 1_555
H22 C24 1_555 1_555
H23 C24 1_555 1_555
C25 C9 1_555 1_555
H24 C25 1_555 1_555
C7 C21 1_555 1_555
C9 C12 1_555 1_555
C10 C18 1_555 1_555
C13 C17 1_555 1_555
C13 C19 1_555 1_555
C14 C25 1_555 1_555
C15 C23 1_555 1_555
C16 C22 1_555 1_555

#END
