
#######################################################################
#
#                 Cambridge Crystallographic Data Centre
#                                CCDC 
#
#######################################################################
#
# If this CIF has been generated from an entry in the Cambridge 
# Structural Database, then it will include bibliographic, chemical, 
# crystal, experimental, refinement or atomic coordinate data resulting 
# from the CCDC's data processing and validation procedures.
#
#######################################################################

data_BAXMAP
_chemical_formula_moiety         'C16 H14 Br4'
_chemical_name_systematic        2,2',5,5'-tetrakis(Bromomethyl)-biphenyl
_symmetry_cell_setting           triclinic
_symmetry_space_group_name_H-M   'P -1'
_symmetry_Int_Tables_number      2
_space_group_name_Hall           '-P 1'
loop_
_symmetry_equiv_pos_site_id
_symmetry_equiv_pos_as_xyz
1 x,y,z
2 -x,-y,-z
_cell_length_a                   9.184(2)
_cell_length_b                   9.3868(15)
_cell_length_c                   11.5616(8)
_cell_angle_alpha                108.581(11)
_cell_angle_beta                 93.720(6)
_cell_angle_gamma                109.933(15)
_cell_volume                     871.154
_exptl_crystal_colour            colorless
_exptl_crystal_description       block
_cell_formula_units_Z            2
_exptl_crystal_recrystallization_method ethanol/acetone
loop_
_atom_site_label
_atom_site_type_symbol
_atom_site_fract_x
_atom_site_fract_y
_atom_site_fract_z
Br1 Br 0.27953(12) 0.75924(11) 0.33258(7)
Br2 Br 0.17721(14) 0.75450(12) 1.02489(8)
Br3 Br 0.20174(13) 1.20711(11) 0.58530(7)
Br4 Br 0.32975(15) 1.28446(14) 1.30377(8)
C1 C 0.3909(11) 0.7505(10) 0.4806(6)
H1 H 0.4093 0.6502 0.4578
H2 H 0.4926 0.8406 0.5109
C2 C 0.0565(10) 0.7751(10) 0.8877(7)
H3 H -0.0459 0.6859 0.8588
H4 H 0.0391 0.8758 0.9183
C3 C 0.0917(10) 1.1243(9) 0.7067(6)
H5 H 0.0050 1.1605 0.7201
H6 H 0.0478 1.0063 0.6725
C4 C 0.4721(11) 1.3514(11) 1.1934(7)
H7 H 0.5238 1.4690 1.2246
H8 H 0.5529 1.3064 1.1922
C5 C 0.2955(9) 0.7591(8) 0.5823(6)
C6 C 0.1962(10) 0.6168(9) 0.5937(7)
H9 H 0.1814 0.5158 0.5354
C7 C 0.1196(10) 0.6285(9) 0.6936(7)
H10 H 0.0518 0.5331 0.7003
C8 C 0.1389(9) 0.7740(8) 0.7831(6)
C9 C 0.2378(8) 0.9158(8) 0.7694(6)
C10 C 0.3153(9) 0.9061(8) 0.6704(6)
H11 H 0.3824 1.0014 0.6633
C11 C 0.1975(9) 1.1802(8) 0.8259(6)
C12 C 0.2612(9) 1.0810(8) 0.8595(6)
C13 C 0.3520(9) 1.1368(9) 0.9776(6)
H12 H 0.374(9) 1.077(8) 1.009(6)
C14 C 0.3794(9) 1.2922(9) 1.0642(6)
C15 C 0.3175(10) 1.3905(9) 1.0287(6)
H13 H 0.3365 1.4945 1.0842
C16 C 0.2281(11) 1.3353(10) 0.9120(7)
H14 H 0.180(9) 1.398(8) 0.884(6)
loop_
_geom_bond_atom_site_label_1
_geom_bond_atom_site_label_2
_geom_bond_site_symmetry_1
_geom_bond_site_symmetry_2
Br1 C1 1_555 1_555
Br2 C2 1_555 1_555
Br3 C3 1_555 1_555
Br4 C4 1_555 1_555
C1 H1 1_555 1_555
H2 C1 1_555 1_555
C2 H3 1_555 1_555
H4 C2 1_555 1_555
C3 H5 1_555 1_555
H6 C3 1_555 1_555
C4 H7 1_555 1_555
H8 C4 1_555 1_555
C5 C1 1_555 1_555
C6 C5 1_555 1_555
H9 C6 1_555 1_555
C7 C6 1_555 1_555
H10 C7 1_555 1_555
C8 C2 1_555 1_555
C9 C8 1_555 1_555
C10 C5 1_555 1_555
H11 C10 1_555 1_555
C11 C3 1_555 1_555
C12 C9 1_555 1_555
C13 C12 1_555 1_555
H12 C13 1_555 1_555
C14 C4 1_555 1_555
C15 C14 1_555 1_555
H13 C15 1_555 1_555
C16 C11 1_555 1_555
H14 C16 1_555 1_555
C7 C8 1_555 1_555
C9 C10 1_555 1_555
C11 C12 1_555 1_555
C13 C14 1_555 1_555
C15 C16 1_555 1_555

#END
