
#######################################################################
#
#                 Cambridge Crystallographic Data Centre
#                                CCDC 
#
#######################################################################
#
# If this CIF has been generated from an entry in the Cambridge 
# Structural Database, then it will include bibliographic, chemical, 
# crystal, experimental, refinement or atomic coordinate data resulting 
# from the CCDC's data processing and validation procedures.
#
#######################################################################

data_BAXMEO
_chemical_formula_moiety         'C21 H29 Br1 O3'
_chemical_name_systematic        17\b-Bromoacetoxy-7\a-methylestr-4-en-3-one
_symmetry_cell_setting           monoclinic
_symmetry_space_group_name_H-M   'P 21'
_symmetry_Int_Tables_number      4
_space_group_name_Hall           'P 2yb'
loop_
_symmetry_equiv_pos_site_id
_symmetry_equiv_pos_as_xyz
1 x,y,z
2 -x,1/2+y,-z
_cell_length_a                   14.06(1)
_cell_length_b                   6.709(3)
_cell_length_c                   10.964(8)
_cell_angle_alpha                90
_cell_angle_beta                 103.98(9)
_cell_angle_gamma                90
_cell_volume                     1003.58
_cell_formula_units_Z            2
loop_
_atom_site_label
_atom_site_type_symbol
_atom_site_fract_x
_atom_site_fract_y
_atom_site_fract_z
Br1 Br 0.31360 0.24040 0.20230
C1 C 0.81750 1.33200 0.08340
C10 C 0.83330 1.11470 0.13790
C11 C 0.65230 1.05600 0.11830
C12 C 0.56880 0.99420 0.18200
C13 C 0.59590 0.79020 0.24710
C14 C 0.69280 0.81370 0.34220
C15 C 0.70060 0.61730 0.41750
C16 C 0.59610 0.58110 0.43030
C17 C 0.53180 0.73590 0.33970
C18 C 0.59430 0.62150 0.15640
C19 C 0.88800 1.01210 0.47450
C2 C 0.90260 1.40780 0.03300
C20 C 0.37270 0.59990 0.32440
C21 C 0.28610 0.51540 0.24530
C3 C 0.99210 1.38190 0.13110
C4 C 1.00700 1.21990 0.21380
C5 C 0.93370 1.08940 0.21690
C6 C 0.95540 0.90140 0.29100
C7 C 0.87900 0.86990 0.36980
C8 C 0.77610 0.86330 0.27690
C9 C 0.75220 1.05960 0.21030
O17 O 0.44090 0.65150 0.26630
O20 O 0.38310 0.63020 0.43750
O3 O 1.06170 1.50560 0.13100
loop_
_geom_bond_atom_site_label_1
_geom_bond_atom_site_label_2
_geom_bond_site_symmetry_1
_geom_bond_site_symmetry_2
Br1 C21 1_555 1_555
C1 C10 1_555 1_555
C10 C5 1_555 1_555
C11 C12 1_555 1_555
C12 C13 1_555 1_555
C13 C14 1_555 1_555
C14 C15 1_555 1_555
C15 C16 1_555 1_555
C16 C17 1_555 1_555
C17 C13 1_555 1_555
C18 C13 1_555 1_555
C19 C7 1_555 1_555
C2 C1 1_555 1_555
C20 C21 1_555 1_555
C3 C2 1_555 1_555
C4 C3 1_555 1_555
C5 C4 1_555 1_555
C6 C5 1_555 1_555
C7 C6 1_555 1_555
C8 C14 1_555 1_555
C9 C10 1_555 1_555
O17 C17 1_555 1_555
O20 C20 1_555 1_555
O3 C3 1_555 1_555
C11 C9 1_555 1_555
C20 O17 1_555 1_555
C7 C8 1_555 1_555
C8 C9 1_555 1_555

#END
