
#######################################################################
#
#                 Cambridge Crystallographic Data Centre
#                                CCDC 
#
#######################################################################
#
# If this CIF has been generated from an entry in the Cambridge 
# Structural Database, then it will include bibliographic, chemical, 
# crystal, experimental, refinement or atomic coordinate data resulting 
# from the CCDC's data processing and validation procedures.
#
#######################################################################

data_BAXNET
_chemical_formula_moiety         'C8 H16 O6'
_chemical_name_systematic        
'Methyl 7-deoxy-L-glycero-\b-D-galacto-heptopyranoside'
_symmetry_cell_setting           orthorhombic
_symmetry_space_group_name_H-M   'P 21 21 21'
_symmetry_Int_Tables_number      19
_space_group_name_Hall           'P 2ac 2ab'
loop_
_symmetry_equiv_pos_site_id
_symmetry_equiv_pos_as_xyz
1 x,y,z
2 1/2+x,1/2-y,-z
3 -x,1/2+y,1/2-z
4 1/2-x,-y,1/2+z
_cell_length_a                   25.05(2)
_cell_length_b                   7.758(6)
_cell_length_c                   5.083(4)
_cell_angle_alpha                90
_cell_angle_beta                 90
_cell_angle_gamma                90
_cell_volume                     987.82
_cell_formula_units_Z            4
loop_
_atom_site_label
_atom_site_type_symbol
_atom_site_fract_x
_atom_site_fract_y
_atom_site_fract_z
C1 C 0.40700 -0.07210 0.81300
C2 C 0.45600 0.03990 0.85710
C3 C 0.44750 0.14100 1.11250
C4 C 0.39640 0.25000 1.10140
C5 C 0.34960 0.13100 1.02800
C6 C 0.29680 0.22300 0.97790
C7 C 0.28000 0.33590 1.20810
C8 C 0.37300 -0.28860 0.52650
O1 O 0.41340 -0.15960 0.57820
O2 O 0.50390 -0.05950 0.86840
O3 O 0.49120 0.25250 1.17740
O4 O 0.39850 0.38560 0.91560
O5 O 0.36160 0.03610 0.79090
O6 O 0.25580 0.09820 0.93280
H1 H 0.40800 -0.15900 0.95600
H2 H 0.45700 0.13200 0.69900
H3 H 0.44900 0.05800 1.25200
H4 H 0.38600 0.30200 1.27200
H5 H 0.35000 0.07500 1.14400
H6 H 0.30900 0.31200 0.81700
H7 H 0.28600 0.47700 1.19600
H8 H 0.24200 0.34900 1.24500
H9 H 0.29300 0.32100 1.32800
H10 H 0.36900 -0.36000 0.71600
H11 H 0.34500 -0.27300 0.43400
H12 H 0.39300 -0.37700 0.45300
H13 H 0.50600 -0.14600 0.97900
H14 H 0.50100 0.26100 1.04700
H15 H 0.42500 0.42600 0.92500
H16 H 0.25200 0.04700 1.03100
loop_
_geom_bond_atom_site_label_1
_geom_bond_atom_site_label_2
_geom_bond_site_symmetry_1
_geom_bond_site_symmetry_2
C1 C2 1_555 1_555
C2 C3 1_555 1_555
C3 C4 1_555 1_555
C4 C5 1_555 1_555
C5 C6 1_555 1_555
C6 C7 1_555 1_555
C7 H7 1_555 1_555
C8 O1 1_555 1_555
O1 C1 1_555 1_555
O2 C2 1_555 1_555
O3 C3 1_555 1_555
O4 C4 1_555 1_555
O5 C1 1_555 1_555
O6 C6 1_555 1_555
H1 C1 1_555 1_555
H2 C2 1_555 1_555
H3 C3 1_555 1_555
H4 C4 1_555 1_555
H5 C5 1_555 1_555
H6 C6 1_555 1_555
H8 C7 1_555 1_555
H9 C7 1_555 1_555
H10 C8 1_555 1_555
H11 C8 1_555 1_555
H12 C8 1_555 1_555
H13 O2 1_555 1_555
H14 O3 1_555 1_555
H15 O4 1_555 1_555
H16 O6 1_555 1_555
C5 O5 1_555 1_555

#END
