
#######################################################################
#
#                 Cambridge Crystallographic Data Centre
#                                CCDC 
#
#######################################################################
#
# If this CIF has been generated from an entry in the Cambridge 
# Structural Database, then it will include bibliographic, chemical, 
# crystal, experimental, refinement or atomic coordinate data resulting 
# from the CCDC's data processing and validation procedures.
#
#######################################################################

data_BAXQAT
_chemical_formula_moiety         'C42 H62 N5 O4 1+,C1 H3 O3 S1 1-'
_chemical_name_systematic        
'7,12-bis((Anilinocarbonyl)amino)-24-methoxy-N,N,N-trimethyl-24-oxocholan-3-aminium methanesulfonate'
_symmetry_cell_setting           orthorhombic
_symmetry_space_group_name_H-M   'P 21 21 21'
_symmetry_Int_Tables_number      19
_space_group_name_Hall           'P 2ac 2ab'
loop_
_symmetry_equiv_pos_site_id
_symmetry_equiv_pos_as_xyz
1 x,y,z
2 1/2-x,-y,1/2+z
3 -x,1/2+y,1/2-z
4 1/2+x,1/2-y,-z
_cell_length_a                   15.084(6)
_cell_length_b                   15.853(4)
_cell_length_c                   18.043(6)
_cell_angle_alpha                90
_cell_angle_beta                 90
_cell_angle_gamma                90
_cell_volume                     4314.56
_exptl_crystal_colour            colorless
_exptl_crystal_description       block
_cell_formula_units_Z            4
_exptl_crystal_recrystallization_method 'ethyl acetate'
loop_
_atom_site_label
_atom_site_type_symbol
_atom_site_fract_x
_atom_site_fract_y
_atom_site_fract_z
C1 C 0.73464(13) -0.08219(14) 0.73353(11)
H1 H 0.7927 -0.1026 0.7136
C2 C 0.74594(14) -0.07070(14) 0.81745(10)
H2 H 0.6924 -0.0439 0.8387
H3 H 0.7542 -0.1262 0.8416
C3 C 0.82659(13) -0.01529(13) 0.83112(12)
H4 H 0.8797 -0.0448 0.8119
H5 H 0.8344 -0.0086 0.8853
C4 C 0.82228(12) 0.07344(14) 0.79547(11)
C5 C 0.75301(12) 0.13218(12) 0.83412(11)
H6 H 0.6941 0.1034 0.8307
C6 C 0.77231(12) 0.14636(13) 0.91728(10)
H7 H 0.8335 0.1681 0.9223
H8 H 0.7699 0.0911 0.9428
C7 C 0.70869(12) 0.20775(12) 0.95762(10)
H9 H 0.7354 0.2201 1.0072
C8 C 0.70226(12) 0.29257(12) 0.91564(10)
C9 C 0.62624(12) 0.35543(13) 0.93508(10)
H10 H 0.5699 0.3224 0.9380
C10 C 0.62127(14) 0.41167(13) 0.86426(11)
H11 H 0.5589 0.4263 0.8531
H12 H 0.6550 0.4646 0.8718
C11 C 0.66165(13) 0.36065(13) 0.80006(11)
H13 H 0.6198 0.3569 0.7579
H14 H 0.7176 0.3866 0.7826
C12 C 0.67875(12) 0.27380(12) 0.83358(11)
H15 H 0.6207 0.2433 0.8338
C13 C 0.74434(12) 0.21761(12) 0.79349(10)
H16 H 0.8035 0.2459 0.7966
C14 C 0.72199(12) 0.20839(13) 0.71032(10)
H17 H 0.7318 0.2648 0.6870
C15 C 0.78558(13) 0.14673(14) 0.67262(11)
H18 H 0.8443 0.1741 0.6681
H19 H 0.7637 0.1355 0.6218
C16 C 0.79741(13) 0.06217(14) 0.71259(10)
H20 H 0.8494 0.0340 0.6886
C17 C 0.71717(13) 0.00346(13) 0.69937(11)
H21 H 0.6634 0.0286 0.7218
H22 H 0.7068 -0.0029 0.6455
C18 C 0.70086(16) -0.23506(14) 0.73249(15)
H23 H 0.6573 -0.2785 0.7196
H24 H 0.7136 -0.2377 0.7857
H25 H 0.7556 -0.2448 0.7045
C19 C 0.57820(14) -0.13605(15) 0.75407(13)
H26 H 0.5351 -0.1785 0.7380
H27 H 0.5552 -0.0796 0.7432
H28 H 0.5883 -0.1415 0.8075
C20 C 0.64481(15) -0.14899(16) 0.63188(12)
H29 H 0.6086 -0.1983 0.6194
H30 H 0.7006 -0.1512 0.6042
H31 H 0.6125 -0.0974 0.6188
C21 C 0.91653(13) 0.11088(15) 0.80059(13)
H32 H 0.9155 0.1697 0.7840
H33 H 0.9568 0.0783 0.7690
H34 H 0.9372 0.1083 0.8520
C22 C 0.60444(12) 0.13233(13) 1.03772(11)
C23 C 0.48543(12) 0.05089(13) 1.09955(11)
C24 C 0.48410(12) 0.09647(13) 1.16573(12)
H35 H 0.5201 0.1452 1.1712
C25 C 0.43008(13) 0.07031(16) 1.22340(12)
H36 H 0.4286 0.1020 1.2681
C26 C 0.37838(14) -0.00117(15) 1.21676(13)
H37 H 0.3415 -0.0186 1.2566
C27 C 0.38068(14) -0.04672(14) 1.15238(13)
H38 H 0.3453 -0.0960 1.1478
C28 C 0.43422(13) -0.02156(14) 1.09354(13)
H39 H 0.4357 -0.0540 1.0493
C29 C 0.79227(13) 0.33758(13) 0.92372(11)
H40 H 0.8390 0.3026 0.9018
H41 H 0.8050 0.3467 0.9764
H42 H 0.7901 0.3921 0.8981
C30 C 0.63251(14) 0.40972(13) 1.00576(11)
H43 H 0.6872 0.4451 1.0019
C31 C 0.55234(14) 0.46968(14) 1.00959(12)
H44 H 0.5442 0.4964 0.9605
H45 H 0.4985 0.4361 1.0204
C32 C 0.56114(15) 0.53839(14) 1.06760(12)
H46 H 0.5558 0.5128 1.1175
H47 H 0.6208 0.5640 1.0638
C33 C 0.49250(15) 0.60643(14) 1.05949(12)
C34 C 0.44756(18) 0.74010(16) 1.10377(17)
H48 H 0.4688 0.7856 1.1359
H49 H 0.3891 0.7214 1.1207
H50 H 0.4432 0.7607 1.0527
C35 C 0.63948(17) 0.35761(15) 1.07679(12)
H51 H 0.6388 0.3954 1.1198
H52 H 0.6949 0.3254 1.0763
H53 H 0.5891 0.3187 1.0798
C36 C 0.57874(13) 0.22598(13) 0.64618(11)
C37 C 0.42530(13) 0.21919(14) 0.59468(11)
C38 C 0.35362(14) 0.16433(15) 0.58578(12)
H54 H 0.3543 0.1108 0.6095
C39 C 0.28153(15) 0.18718(18) 0.54269(13)
H55 H 0.2335 0.1490 0.5367
C40 C 0.27902(16) 0.2648(2) 0.50855(14)
H56 H 0.2293 0.2807 0.4794
C41 C 0.34985(15) 0.31925(18) 0.51727(13)
H57 H 0.3483 0.3729 0.4938
C42 C 0.42323(14) 0.29732(15) 0.55956(11)
H58 H 0.4716 0.3353 0.5645
N1 N 0.66411(11) -0.14907(11) 0.71341(10)
N2 N 0.62303(10) 0.16769(10) 0.97110(8)
H59 H 0.5831 0.1665 0.9356
N3 N 0.53271(11) 0.07867(11) 1.03675(9)
H60 H 0.5149 0.0601 0.9933
N4 N 0.62903(10) 0.18694(11) 0.69880(9)
H61 H 0.6047 0.1477 0.7266
N5 N 0.49392(11) 0.19318(11) 0.64193(9)
H62 H 0.4816 0.1513 0.6723
O1 O 0.64746(9) 0.14661(10) 1.09435(8)
O2 O 0.50896(11) 0.67020(10) 1.10674(9)
O3 O 0.43044(11) 0.60576(11) 1.01803(9)
O4 O 0.60516(9) 0.28477(10) 0.60822(8)
C43 C 0.35942(16) 0.02620(19) 0.84848(17)
H63 H 0.3618 -0.0352 0.8425
H64 H 0.3180 0.0501 0.8123
H65 H 0.3393 0.0399 0.8987
O5 O 0.52417(11) 0.02105(11) 0.88210(8)
O6 O 0.46212(11) 0.15704(10) 0.85496(9)
O7 O 0.48718(10) 0.05684(10) 0.75605(8)
S1 S 0.46571(3) 0.06896(3) 0.83403(3)
loop_
_geom_bond_atom_site_label_1
_geom_bond_atom_site_label_2
_geom_bond_site_symmetry_1
_geom_bond_site_symmetry_2
C1 H1 1_555 1_555
C2 C1 1_555 1_555
H2 C2 1_555 1_555
H3 C2 1_555 1_555
C3 C2 1_555 1_555
H4 C3 1_555 1_555
H5 C3 1_555 1_555
C4 C3 1_555 1_555
C5 C4 1_555 1_555
H6 C5 1_555 1_555
C6 C5 1_555 1_555
H7 C6 1_555 1_555
H8 C6 1_555 1_555
C7 C6 1_555 1_555
H9 C7 1_555 1_555
C8 C7 1_555 1_555
C9 C8 1_555 1_555
H10 C9 1_555 1_555
C10 C9 1_555 1_555
H11 C10 1_555 1_555
H12 C10 1_555 1_555
C11 C10 1_555 1_555
H13 C11 1_555 1_555
H14 C11 1_555 1_555
C12 C8 1_555 1_555
H15 C12 1_555 1_555
C13 C5 1_555 1_555
H16 C13 1_555 1_555
C14 C13 1_555 1_555
H17 C14 1_555 1_555
C15 C14 1_555 1_555
H18 C15 1_555 1_555
H19 C15 1_555 1_555
C16 C4 1_555 1_555
H20 C16 1_555 1_555
C17 C1 1_555 1_555
H21 C17 1_555 1_555
H22 C17 1_555 1_555
C18 H23 1_555 1_555
H24 C18 1_555 1_555
H25 C18 1_555 1_555
C19 H26 1_555 1_555
H27 C19 1_555 1_555
H28 C19 1_555 1_555
C20 H29 1_555 1_555
H30 C20 1_555 1_555
H31 C20 1_555 1_555
C21 C4 1_555 1_555
H32 C21 1_555 1_555
H33 C21 1_555 1_555
H34 C21 1_555 1_555
C22 N2 1_555 1_555
C23 C24 1_555 1_555
C24 H35 1_555 1_555
C25 C24 1_555 1_555
H36 C25 1_555 1_555
C26 C25 1_555 1_555
H37 C26 1_555 1_555
C27 C26 1_555 1_555
H38 C27 1_555 1_555
C28 C23 1_555 1_555
H39 C28 1_555 1_555
C29 C8 1_555 1_555
H40 C29 1_555 1_555
H41 C29 1_555 1_555
H42 C29 1_555 1_555
C30 C9 1_555 1_555
H43 C30 1_555 1_555
C31 C30 1_555 1_555
H44 C31 1_555 1_555
H45 C31 1_555 1_555
C32 C31 1_555 1_555
H46 C32 1_555 1_555
H47 C32 1_555 1_555
C33 C32 1_555 1_555
C34 H48 1_555 1_555
H49 C34 1_555 1_555
H50 C34 1_555 1_555
C35 C30 1_555 1_555
H51 C35 1_555 1_555
H52 C35 1_555 1_555
H53 C35 1_555 1_555
C36 N4 1_555 1_555
C37 C38 1_555 1_555
C38 H54 1_555 1_555
C39 C38 1_555 1_555
H55 C39 1_555 1_555
C40 C39 1_555 1_555
H56 C40 1_555 1_555
C41 C40 1_555 1_555
H57 C41 1_555 1_555
C42 C37 1_555 1_555
H58 C42 1_555 1_555
N1 C1 1_555 1_555
N2 C7 1_555 1_555
H59 N2 1_555 1_555
N3 C22 1_555 1_555
H60 N3 1_555 1_555
N4 C14 1_555 1_555
H61 N4 1_555 1_555
N5 C36 1_555 1_555
H62 N5 1_555 1_555
O1 C22 1_555 1_555
O2 C33 1_555 1_555
O3 C33 1_555 1_555
O4 C36 1_555 1_555
C43 H63 1_555 1_555
H64 C43 1_555 1_555
H65 C43 1_555 1_555
O5 S1 1_555 1_555
O6 S1 1_555 1_555
O7 S1 1_555 1_555
S1 C43 1_555 1_555
C11 C12 1_555 1_555
C12 C13 1_555 1_555
C15 C16 1_555 1_555
C16 C17 1_555 1_555
C18 N1 1_555 1_555
C19 N1 1_555 1_555
C20 N1 1_555 1_555
C23 N3 1_555 1_555
C27 C28 1_555 1_555
C34 O2 1_555 1_555
C37 N5 1_555 1_555
C41 C42 1_555 1_555

#END
