
#######################################################################
#
#                 Cambridge Crystallographic Data Centre
#                                CCDC 
#
#######################################################################
#
# If this CIF has been generated from an entry in the Cambridge 
# Structural Database, then it will include bibliographic, chemical, 
# crystal, experimental, refinement or atomic coordinate data resulting 
# from the CCDC's data processing and validation procedures.
#
#######################################################################

data_BAXTIE
_chemical_formula_moiety         'C15 H18 O4'
_chemical_name_systematic        
'(-)-(3R,3aS,6R,7S,7aR)-3,3a-Dimethyl-2,3,3a,6,7,7a-hexahydro-2-oxo-3,6-methano-1-benzofuran-7-yl \a-methylacrylate'
_symmetry_cell_setting           monoclinic
_symmetry_space_group_name_H-M   'P 21'
_symmetry_Int_Tables_number      4
_space_group_name_Hall           'P 2yb'
loop_
_symmetry_equiv_pos_site_id
_symmetry_equiv_pos_as_xyz
1 x,y,z
2 -x,1/2+y,-z
_cell_length_a                   6.79020(10)
_cell_length_b                   11.9873(2)
_cell_length_c                   8.2956(2)
_cell_angle_alpha                90
_cell_angle_beta                 90.2959(7)
_cell_angle_gamma                90
_cell_volume                     675.221
_exptl_crystal_colour            colorless
_exptl_crystal_description       prism
_chemical_melting_point          '63.5-64 deg.C'
_cell_formula_units_Z            2
loop_
_atom_site_label
_atom_site_type_symbol
_atom_site_fract_x
_atom_site_fract_y
_atom_site_fract_z
O1 O 0.25429(15) 0.31284(9) 0.45704(13)
O2 O 0.54484(17) 0.26557(12) 0.56344(18)
O3 O 0.21991(16) 0.25259(9) 0.15702(13)
O4 O 0.03284(19) 0.40624(11) 0.13138(16)
C1 C 0.0606(2) 0.16428(13) 0.55754(18)
C2 C 0.0675(2) 0.25623(13) 0.42727(18)
C3 C 0.3802(2) 0.23858(13) 0.5259(2)
C4 C 0.2805(2) 0.12592(13) 0.54141(19)
C5 C 0.3059(2) 0.06525(14) 0.3775(2)
C6 C 0.1188(3) 0.07920(14) 0.2729(2)
C7 C -0.0481(3) 0.02792(14) 0.3648(2)
C8 C -0.0761(2) 0.07188(15) 0.5092(2)
C9 C 0.0696(2) 0.20335(13) 0.2570(2)
C10 C 0.0131(3) 0.21199(16) 0.7231(2)
C11 C 0.3608(3) 0.05719(16) 0.6806(2)
C12 C 0.1865(2) 0.35813(14) 0.1078(2)
C13 C 0.3604(2) 0.40594(14) 0.02421(19)
C14 C 0.3473(3) 0.51256(16) -0.0203(2)
C15 C 0.5386(3) 0.33589(17) 0.0009(3)
H1 H -0.0490(2) 0.30717(13) 0.43180(18)
H2 H 0.4211(2) 0.09821(14) 0.3199(2)
H3 H 0.3303(2) -0.01592(14) 0.3971(2)
H4 H 0.1413(3) 0.04410(14) 0.1652(2)
H5 H -0.1333(3) -0.03253(14) 0.3193(2)
H6 H -0.1812(2) 0.04415(15) 0.5831(2)
H7 H -0.0633(2) 0.21553(13) 0.2076(2)
H8 H 0.0111(3) 0.15060(16) 0.8047(2)
H9 H 0.1169(3) 0.26752(16) 0.7532(2)
H10 H -0.1183(3) 0.24962(16) 0.7200(2)
H11 H 0.5006(3) 0.03640(16) 0.6581(2)
H12 H 0.3549(3) 0.10243(16) 0.7817(2)
H13 H 0.2803(3) -0.01204(16) 0.6938(2)
H14 H 0.4598(3) 0.54900(16) -0.0772(2)
H15 H 0.2254(3) 0.55617(16) 0.0035(2)
H16 H 0.6420(3) 0.37948(17) -0.0570(3)
H17 H 0.5908(3) 0.31152(17) 0.1082(3)
H18 H 0.5020(3) 0.26883(17) -0.0644(3)
loop_
_geom_bond_atom_site_label_1
_geom_bond_atom_site_label_2
_geom_bond_site_symmetry_1
_geom_bond_site_symmetry_2
O1 C2 1_555 1_555
O2 C3 1_555 1_555
O3 C9 1_555 1_555
O4 C12 1_555 1_555
C1 C2 1_555 1_555
C2 C9 1_555 1_555
C3 O1 1_555 1_555
C4 C1 1_555 1_555
C5 C4 1_555 1_555
C6 C5 1_555 1_555
C7 C6 1_555 1_555
C8 C1 1_555 1_555
C9 C6 1_555 1_555
C10 C1 1_555 1_555
C11 C4 1_555 1_555
C12 O3 1_555 1_555
C13 C12 1_555 1_555
C14 C13 1_555 1_555
C15 C13 1_555 1_555
H1 C2 1_555 1_555
H2 C5 1_555 1_555
H3 C5 1_555 1_555
H4 C6 1_555 1_555
H5 C7 1_555 1_555
H6 C8 1_555 1_555
H7 C9 1_555 1_555
H8 C10 1_555 1_555
H9 C10 1_555 1_555
H10 C10 1_555 1_555
H11 C11 1_555 1_555
H12 C11 1_555 1_555
H13 C11 1_555 1_555
H14 C14 1_555 1_555
H15 C14 1_555 1_555
H16 C15 1_555 1_555
H17 C15 1_555 1_555
H18 C15 1_555 1_555
C3 C4 1_555 1_555
C7 C8 1_555 1_555

#END
