
#######################################################################
#
#                 Cambridge Crystallographic Data Centre
#                                CCDC 
#
#######################################################################
#
# If this CIF has been generated from an entry in the Cambridge 
# Structural Database, then it will include bibliographic, chemical, 
# crystal, experimental, refinement or atomic coordinate data resulting 
# from the CCDC's data processing and validation procedures.
#
#######################################################################

data_BAXVIH
_chemical_formula_moiety         'C14 H16 O2'
_chemical_name_systematic        
cis-anti-trans-2,3,3a,3b,4,9,9a,10a-Octahydrofuro[2,3-b]naphtho[2,3-d]furan
_symmetry_cell_setting           monoclinic
_symmetry_space_group_name_H-M   'P 21/c'
_symmetry_Int_Tables_number      14
_space_group_name_Hall           '-P 2ybc'
loop_
_symmetry_equiv_pos_site_id
_symmetry_equiv_pos_as_xyz
1 x,y,z
2 -x,1/2+y,1/2-z
3 -x,-y,-z
4 x,1/2-y,1/2+z
_cell_length_a                   20.48(3)
_cell_length_b                   6.144(8)
_cell_length_c                   9.096(11)
_cell_angle_alpha                90
_cell_angle_beta                 100.978(13)
_cell_angle_gamma                90
_cell_volume                     1123.6
_exptl_crystal_colour            colorless
_exptl_crystal_description       block
_chemical_melting_point          '66-69 deg.C'
_cell_formula_units_Z            4
loop_
_atom_site_label
_atom_site_type_symbol
_atom_site_fract_x
_atom_site_fract_y
_atom_site_fract_z
C1 C 0.78471(19) 0.2025(8) 0.4152(6)
H1 H 0.7879 0.2703 0.3193
C2 C 0.71663(17) 0.2480(6) 0.4253(4)
H2 H 0.7061 0.3977 0.3961
H3 H 0.7109 0.2300 0.5281
C3 C 0.67002(17) 0.0974(6) 0.3252(4)
C4 C 0.6024(2) 0.1428(8) 0.2961(5)
H4 H 0.5868 0.2641 0.3399
C5 C 0.5583(2) 0.0129(10) 0.2044(7)
H5 H 0.5133 0.0478 0.1848
C6 C 0.5799(2) -0.1675(10) 0.1416(6)
H6 H 0.5498 -0.2571 0.0803
C7 C 0.6467(2) -0.2167(8) 0.1695(5)
H7 H 0.6613 -0.3400 0.1260
C8 C 0.69267(17) -0.0867(6) 0.2610(4)
C9 C 0.76488(17) -0.1433(6) 0.2839(4)
H8 H 0.7708 -0.2940 0.3154
H9 H 0.7800 -0.1286 0.1896
C10 C 0.80528(19) -0.0056(7) 0.3953(5)
H10 H 0.7974 -0.0741 0.4877
C11 C 0.88087(16) -0.0016(5) 0.4248(3)
H11 H 0.8982 -0.0081 0.3316
C12 C 0.91462(17) -0.1655(6) 0.5383(4)
H12 H 0.8871 -0.2936 0.5399
H13 H 0.9573 -0.2095 0.5166
C13 C 0.92322(18) -0.0462(6) 0.6830(4)
H14 H 0.8837 -0.0590 0.7265
H15 H 0.9609 -0.1029 0.7536
C14 C 0.89663(16) 0.2165(5) 0.5051(4)
H16 H 0.9215 0.3102 0.4481
O1 O 0.83477(11) 0.3147(4) 0.5156(3)
O2 O 0.93431(12) 0.1750(4) 0.6468(3)
loop_
_geom_bond_atom_site_label_1
_geom_bond_atom_site_label_2
_geom_bond_site_symmetry_1
_geom_bond_site_symmetry_2
C1 H1 1_555 1_555
C2 C1 1_555 1_555
H2 C2 1_555 1_555
H3 C2 1_555 1_555
C3 C2 1_555 1_555
C4 C3 1_555 1_555
H4 C4 1_555 1_555
C5 C4 1_555 1_555
H5 C5 1_555 1_555
C6 C5 1_555 1_555
H6 C6 1_555 1_555
C7 C6 1_555 1_555
H7 C7 1_555 1_555
C8 C3 1_555 1_555
C9 C8 1_555 1_555
H8 C9 1_555 1_555
H9 C9 1_555 1_555
C10 C1 1_555 1_555
H10 C10 1_555 1_555
C11 C10 1_555 1_555
H11 C11 1_555 1_555
C12 C11 1_555 1_555
H12 C12 1_555 1_555
H13 C12 1_555 1_555
C13 C12 1_555 1_555
H14 C13 1_555 1_555
H15 C13 1_555 1_555
C14 C11 1_555 1_555
H16 C14 1_555 1_555
O1 C1 1_555 1_555
O2 C13 1_555 1_555
C7 C8 1_555 1_555
C9 C10 1_555 1_555
C14 O1 1_555 1_555
C14 O2 1_555 1_555

#END
