
#######################################################################
#
#                 Cambridge Crystallographic Data Centre
#                                CCDC 
#
#######################################################################
#
# If this CIF has been generated from an entry in the Cambridge 
# Structural Database, then it will include bibliographic, chemical, 
# crystal, experimental, refinement or atomic coordinate data resulting 
# from the CCDC's data processing and validation procedures.
#
#######################################################################

data_BAXVUT
_chemical_formula_moiety         'C22 H26 O5 S1'
_chemical_name_systematic        
'4-(1,6-Dioxaspiro[4.5]dec-3-ylmethyl)phenyl 4-methylbenzenesulfonate'
_symmetry_cell_setting           monoclinic
_symmetry_space_group_name_H-M   'P 21/c'
_symmetry_Int_Tables_number      14
_space_group_name_Hall           '-P 2ybc'
loop_
_symmetry_equiv_pos_site_id
_symmetry_equiv_pos_as_xyz
1 x,y,z
2 -x,1/2+y,1/2-z
3 -x,-y,-z
4 x,1/2-y,1/2+z
_cell_length_a                   14.180(17)
_cell_length_b                   9.901(12)
_cell_length_c                   20.295(18)
_cell_angle_alpha                90
_cell_angle_beta                 126.91(6)
_cell_angle_gamma                90
_cell_volume                     2278.28
_exptl_crystal_colour            colorless
_exptl_crystal_description       block
_cell_formula_units_Z            4
loop_
_atom_site_label
_atom_site_type_symbol
_atom_site_fract_x
_atom_site_fract_y
_atom_site_fract_z
C1 C 0.2124(5) 0.7774(6) 0.1331(3)
C2 C 0.1391(6) 0.6689(7) 0.0890(4)
H1 H 0.0636 0.6831 0.0408
C3 C 0.1797(7) 0.5379(8) 0.1177(4)
H2 H 0.1293 0.4658 0.0881
C4 C 0.2934(7) 0.5105(7) 0.1891(4)
C5 C 0.3658(6) 0.6222(8) 0.2326(4)
H3 H 0.4414 0.6080 0.2807
C6 C 0.3264(5) 0.7555(7) 0.2051(4)
H4 H 0.3759 0.8283 0.2345
C7 C 0.3396(8) 0.3687(8) 0.2216(5)
H5 H 0.3154 0.3116 0.1750
H6 H 0.4251 0.3725 0.2569
C8 C 0.3040(11) 0.3028(10) 0.2672(7)
H7 H 0.2202 0.2825 0.2257
C9 C 0.3096(10) 0.3722(9) 0.3349(6)
H8 H 0.2349 0.4150 0.3139
H9 H 0.3713 0.4401 0.3612
C10 C 0.3372(10) 0.2578(10) 0.3959(6)
C11 C 0.4183(11) 0.2848(11) 0.4855(6)
H10 H 0.3944 0.3688 0.4962
H11 H 0.4968 0.2983 0.5007
C12 C 0.4254(12) 0.1756(12) 0.5421(6)
H12 H 0.4785 0.1045 0.5502
H13 H 0.4569 0.2146 0.5954
C13 C 0.3077(11) 0.1176(11) 0.5060(6)
H14 H 0.3166 0.0372 0.5366
H15 H 0.2614 0.1823 0.5115
C14 C 0.2446(12) 0.0827(14) 0.4192(7)
H16 H 0.2877 0.0117 0.4147
H17 H 0.1677 0.0470 0.3986
C15 C 0.3631(11) 0.1610(9) 0.3062(6)
H18 H 0.3062 0.0889 0.2763
H19 H 0.4290 0.1460 0.3043
C16 C 0.1814(5) 0.9205(6) -0.0203(3)
C17 C 0.2698(6) 0.8530(7) -0.0168(4)
H20 H 0.3462 0.8511 0.0319
C18 C 0.2424(8) 0.7868(8) -0.0880(6)
H21 H 0.3019 0.7420 -0.0858
C19 C 0.1276(8) 0.7870(7) -0.1620(5)
C20 C 0.0396(6) 0.8542(8) -0.1628(4)
H22 H -0.0376 0.8538 -0.2107
C21 C 0.0657(5) 0.9217(7) -0.0931(3)
H23 H 0.0066 0.9671 -0.0950
C22 C 0.0992(9) 0.7195(11) -0.2413(5)
H24 H 0.0621 0.6337 -0.2494
H25 H 0.1709 0.7065 -0.2355
H26 H 0.0470 0.7766 -0.2879
O1 O 0.1417(4) 1.1279(4) 0.0443(3)
O2 O 0.3419(4) 1.0199(5) 0.1281(3)
O3 O 0.1664(3) 0.9104(4) 0.1059(2)
O4 O 0.2289(7) 0.1946(8) 0.3678(5)
O5 O 0.4003(7) 0.1644(7) 0.3845(5)
S1 S 0.21521(14) 1.00827(16) 0.06842(9)
loop_
_geom_bond_atom_site_label_1
_geom_bond_atom_site_label_2
_geom_bond_site_symmetry_1
_geom_bond_site_symmetry_2
C1 C2 1_555 1_555
C2 H1 1_555 1_555
C3 C2 1_555 1_555
H2 C3 1_555 1_555
C4 C3 1_555 1_555
C5 C4 1_555 1_555
H3 C5 1_555 1_555
C6 C1 1_555 1_555
H4 C6 1_555 1_555
C7 C4 1_555 1_555
H5 C7 1_555 1_555
H6 C7 1_555 1_555
C8 C7 1_555 1_555
H7 C8 1_555 1_555
C9 C8 1_555 1_555
H8 C9 1_555 1_555
H9 C9 1_555 1_555
C10 C9 1_555 1_555
C11 C10 1_555 1_555
H10 C11 1_555 1_555
H11 C11 1_555 1_555
C12 C11 1_555 1_555
H12 C12 1_555 1_555
H13 C12 1_555 1_555
C13 C12 1_555 1_555
H14 C13 1_555 1_555
H15 C13 1_555 1_555
C14 C13 1_555 1_555
H16 C14 1_555 1_555
H17 C14 1_555 1_555
C15 C8 1_555 1_555
H18 C15 1_555 1_555
H19 C15 1_555 1_555
C16 C17 1_555 1_555
C17 H20 1_555 1_555
C18 C17 1_555 1_555
H21 C18 1_555 1_555
C19 C18 1_555 1_555
C20 C19 1_555 1_555
H22 C20 1_555 1_555
C21 C16 1_555 1_555
H23 C21 1_555 1_555
C22 C19 1_555 1_555
H24 C22 1_555 1_555
H25 C22 1_555 1_555
H26 C22 1_555 1_555
O1 S1 1_555 1_555
O2 S1 1_555 1_555
O3 C1 1_555 1_555
O4 C10 1_555 1_555
O5 C10 1_555 1_555
S1 C16 1_555 1_555
C5 C6 1_555 1_555
C14 O4 1_555 1_555
C15 O5 1_555 1_555
C20 C21 1_555 1_555
O3 S1 1_555 1_555

#END
