
#######################################################################
#
#                 Cambridge Crystallographic Data Centre
#                                CCDC 
#
#######################################################################
#
# If this CIF has been generated from an entry in the Cambridge 
# Structural Database, then it will include bibliographic, chemical, 
# crystal, experimental, refinement or atomic coordinate data resulting 
# from the CCDC's data processing and validation procedures.
#
#######################################################################

data_BAXVOM
_chemical_formula_moiety         'C14 H15 Cl1 O4'
_chemical_name_systematic        
'(-)-(3S,3aR,6S,7S,7aS)-3a-Chloro-2,3,3a,6,7,7a-hexahydro-3-methyl-2-oxo-3,6-methano-1-benzofuran-7-yl \a-methylacrylate'
_symmetry_cell_setting           orthorhombic
_symmetry_space_group_name_H-M   'P 2 21 21'
_symmetry_Int_Tables_number      18
_space_group_name_Hall           'P 2bc 2'
loop_
_symmetry_equiv_pos_site_id
_symmetry_equiv_pos_as_xyz
1 x,y,z
2 -x,1/2-y,1/2+z
3 x,-y,-z
4 -x,1/2+y,1/2-z
_cell_length_a                   6.69030(10)
_cell_length_b                   16.5627(2)
_cell_length_c                   24.7344(3)
_cell_angle_alpha                90
_cell_angle_beta                 90
_cell_angle_gamma                90
_cell_volume                     2740.8
_exptl_crystal_colour            colorless
_exptl_crystal_description       prism
_chemical_melting_point          '75 deg.C'
_cell_formula_units_Z            8
loop_
_atom_site_label
_atom_site_type_symbol
_atom_site_fract_x
_atom_site_fract_y
_atom_site_fract_z
Cl1 Cl -1.0114(1) -0.32601(4) -0.51805(3)
O1 O -1.5245(2) -0.0970(1) -0.52818(7)
O2 O -1.3109(3) -0.04673(12) -0.58945(8)
O3 O -1.3600(2) -0.2275(1) -0.56893(6)
O4 O -1.5614(3) -0.33480(12) -0.57526(7)
C1 C -1.4363(4) -0.16102(15) -0.44424(9)
C2 C -1.3552(4) -0.12485(15) -0.49732(9)
C3 C -1.2367(3) -0.19133(15) -0.52747(9)
C4 C -1.4553(4) -0.29299(16) -0.54797(9)
C5 C -1.4045(4) -0.30001(14) -0.48823(9)
C6 C -1.1938(3) -0.26060(15) -0.48798(9)
C7 C -1.1292(4) -0.23170(16) -0.43346(9)
C8 C -1.2542(4) -0.17992(17) -0.41095(9)
C9 C -1.5440(4) -0.24097(16) -0.45663(9)
C10 C -1.4196(5) -0.38611(16) -0.46761(11)
C11 C -1.4806(4) -0.05887(15) -0.5748(1)
C12 C -1.6585(4) -0.03314(16) -0.60599(12)
C13 C -1.8346(5) -0.0273(2) -0.58226(15)
C14 C -1.6195(5) -0.0110(2) -0.66353(12)
H1 H -1.5332(4) -0.12359(15) -0.42637(9)
H2 H -1.2613(4) -0.07888(15) -0.49080(9)
H3 H -1.1129(3) -0.16640(15) -0.54277(9)
H4 H -1.0034(4) -0.25073(16) -0.41574(9)
H5 H -1.2285(4) -0.15495(17) -0.37480(9)
H6 H -1.6663(4) -0.23040(16) -0.47877(9)
H7 H -1.5832(4) -0.26710(16) -0.42176(9)
H8 H -1.5615(5) -0.40481(16) -0.46970(11)
H9 H -1.3336(5) -0.42189(16) -0.49041(11)
H10 H -1.3730(5) -0.38840(16) -0.42923(11)
H11 H -1.9536(5) -0.0097(2) -0.60370(15)
H12 H -1.8491(5) -0.0401(2) -0.54295(15)
H13 H -1.7474(5) 0.0056(2) -0.68125(12)
H14 H -1.5620(5) -0.0585(2) -0.68308(12)
H15 H -1.5225(5) 0.0349(2) -0.66474(12)
Cl2 Cl -0.9001(1) -0.40542(4) -0.76342(3)
O5 O -1.0887(3) -0.1081(1) -0.77974(6)
O6 O -0.8434(3) -0.09322(13) -0.84034(9)
O7 O -1.0919(3) -0.25471(9) -0.81676(6)
O8 O -1.4056(3) -0.30153(12) -0.81613(7)
C15 C -1.0603(4) -0.17320(17) -0.6936(1)
C16 C -0.9601(4) -0.16020(15) -0.74887(9)
C17 C -0.9352(4) -0.24316(14) -0.77715(9)
C18 C -1.2537(4) -0.28861(16) -0.7921(1)
C19 C -1.2056(4) -0.30270(15) -0.7331(1)
C20 C -0.9747(4) -0.31004(13) -0.73525(9)
C21 C -0.8755(4) -0.29426(17) -0.6821(1)
C22 C -0.9207(5) -0.22345(18) -0.6607(1)
C23 C -1.2525(4) -0.22189(18) -0.7023(1)
C24 C -1.3198(4) -0.37377(19) -0.70875(12)
C25 C -1.0150(4) -0.08058(15) -0.8267(1)
C26 C -1.1616(3) -0.03470(12) -0.85937(8)
C27 C -1.3483(4) -0.0261(4) -0.84303(16)
C29 C -1.0807(5) -0.0013(4) -0.91312(17)
H16 H -1.0918(4) -0.12055(17) -0.6758(1)
H17 H -0.8239(4) -0.13604(15) -0.74475(9)
H18 H -0.7997(4) -0.24462(14) -0.79415(9)
H19 H -0.7829(4) -0.33358(17) -0.6644(1)
H20 H -0.8663(5) -0.20487(18) -0.6252(1)
H21 H -1.3486(4) -0.18933(18) -0.7243(1)
H22 H -1.3140(4) -0.23488(18) -0.6665(1)
H23 H -1.2847(4) -0.42400(19) -0.72909(12)
H24 H -1.4669(4) -0.36391(19) -0.71144(12)
H25 H -1.2815(4) -0.38028(19) -0.66991(12)
H26 H -1.4450(4) 0.0050(4) -0.86573(16)
H27 H -1.3937(4) -0.0515(4) -0.80847(16)
H28 H -0.9354(5) -0.0148(4) -0.91621(17)
H29 H -1.1544(5) -0.0247(4) -0.94458(17)
H30 H -1.0977(5) 0.0587(4) -0.91292(17)
C28? C -1.1044(5) 0.0079(4) -0.90168(19)
C30? C -1.3790(4) -0.0395(4) -0.8392(2)
H31? H -1.3857(4) -0.0739(4) -0.8060(2)
H32? H -1.4685(4) -0.0625(4) -0.8676(2)
H33? H -1.4232(4) 0.0166(4) -0.8301(2)
H34? H -1.2050(5) 0.0385(4) -0.92347(19)
H35? H -0.9606(5) 0.0079(4) -0.91269(19)
loop_
_geom_bond_atom_site_label_1
_geom_bond_atom_site_label_2
_geom_bond_site_symmetry_1
_geom_bond_site_symmetry_2
Cl1 C6 1_555 1_555
Cl2 C20 1_555 1_555
O1 C2 1_555 1_555
O2 C11 1_555 1_555
O3 C3 1_555 1_555
O4 C4 1_555 1_555
O5 C16 1_555 1_555
O6 C25 1_555 1_555
O7 C17 1_555 1_555
O8 C18 1_555 1_555
C1 C2 1_555 1_555
C2 C3 1_555 1_555
C3 C6 1_555 1_555
C4 O3 1_555 1_555
C5 C4 1_555 1_555
C6 C5 1_555 1_555
C7 C6 1_555 1_555
C8 C1 1_555 1_555
C9 C1 1_555 1_555
C10 C5 1_555 1_555
C11 O1 1_555 1_555
C12 C11 1_555 1_555
C13 C12 1_555 1_555
C14 C12 1_555 1_555
C15 C16 1_555 1_555
C16 C17 1_555 1_555
C17 C20 1_555 1_555
C18 O7 1_555 1_555
C19 C18 1_555 1_555
C20 C19 1_555 1_555
C21 C20 1_555 1_555
C22 C15 1_555 1_555
C23 C15 1_555 1_555
C24 C19 1_555 1_555
C25 O5 1_555 1_555
C26 C25 1_555 1_555
C27 C26 1_555 1_555
C29 C26 1_555 1_555
H1 C1 1_555 1_555
H2 C2 1_555 1_555
H3 C3 1_555 1_555
H4 C7 1_555 1_555
H5 C8 1_555 1_555
H6 C9 1_555 1_555
H7 C9 1_555 1_555
H8 C10 1_555 1_555
H9 C10 1_555 1_555
H10 C10 1_555 1_555
H11 C13 1_555 1_555
H12 C13 1_555 1_555
H13 C14 1_555 1_555
H14 C14 1_555 1_555
H15 C14 1_555 1_555
H16 C15 1_555 1_555
H17 C16 1_555 1_555
H18 C17 1_555 1_555
H19 C21 1_555 1_555
H20 C22 1_555 1_555
H21 C23 1_555 1_555
H22 C23 1_555 1_555
H23 C24 1_555 1_555
H24 C24 1_555 1_555
H25 C24 1_555 1_555
H26 C27 1_555 1_555
H27 C27 1_555 1_555
H28 C29 1_555 1_555
H29 C29 1_555 1_555
H30 C29 1_555 1_555
C5 C9 1_555 1_555
C7 C8 1_555 1_555
C19 C23 1_555 1_555
C21 C22 1_555 1_555

#END
