
#######################################################################
#
#                 Cambridge Crystallographic Data Centre
#                                CCDC 
#
#######################################################################
#
# If this CIF has been generated from an entry in the Cambridge 
# Structural Database, then it will include bibliographic, chemical, 
# crystal, experimental, refinement or atomic coordinate data resulting 
# from the CCDC's data processing and validation procedures.
#
#######################################################################

data_BAXVON
_chemical_formula_moiety         'C14 H16 O2'
_chemical_name_systematic        
cis-syn-trans-2,3,3a,3b,4,9,9a,10a-Octahydrofuro[2,3-b]naphtho[2,3-d]furan
_symmetry_cell_setting           monoclinic
_symmetry_space_group_name_H-M   'P 21/c'
_symmetry_Int_Tables_number      14
_space_group_name_Hall           '-P 2ybc'
loop_
_symmetry_equiv_pos_site_id
_symmetry_equiv_pos_as_xyz
1 x,y,z
2 -x,1/2+y,1/2-z
3 -x,-y,-z
4 x,1/2-y,1/2+z
_cell_length_a                   20.585(8)
_cell_length_b                   5.485(2)
_cell_length_c                   9.901(4)
_cell_angle_alpha                90
_cell_angle_beta                 96.961(4)
_cell_angle_gamma                90
_cell_volume                     1109.67
_exptl_crystal_colour            colorless
_exptl_crystal_description       block
_chemical_melting_point          '65-68 deg.C'
_cell_formula_units_Z            4
loop_
_atom_site_label
_atom_site_type_symbol
_atom_site_fract_x
_atom_site_fract_y
_atom_site_fract_z
C1 C 0.35717(14) 0.3092(6) 0.0774(3)
H1 H 0.3441 0.1792 0.0201
C2 C 0.42158(15) 0.3856(7) 0.0891(4)
H2 H 0.4514 0.3072 0.0405
C3 C 0.44120(16) 0.5779(7) 0.1727(4)
H3 H 0.4843 0.6319 0.1805
C4 C 0.39676(15) 0.6905(6) 0.2450(4)
H4 H 0.4105 0.8202 0.3019
C5 C 0.33174(13) 0.6153(5) 0.2352(3)
C6 C 0.31138(12) 0.4215(4) 0.1490(2)
C7 C 0.24085(12) 0.3350(5) 0.1300(2)
H5 H 0.2395 0.1594 0.1186
H6 H 0.2178 0.4086 0.0489
C8 C 0.20794(12) 0.4056(4) 0.2534(2)
H7 H 0.2314 0.3219 0.3322
C9 C 0.21576(12) 0.6752(4) 0.2785(3)
H8 H 0.1997 0.7644 0.1954
C10 C 0.28613(13) 0.7425(5) 0.3223(3)
H9 H 0.2978 0.6970 0.4168
H10 H 0.2913 0.9176 0.3151
C11 C 0.13505(13) 0.3686(5) 0.2598(3)
H11 H 0.1260 0.2032 0.2897
C12 C 0.12087(14) 0.5591(5) 0.3666(3)
H12 H 0.1176 0.4777 0.4537
C13 C 0.08762(13) 0.4419(5) 0.1344(3)
H13 H 0.1114 0.4806 0.0584
H14 H 0.0571 0.3108 0.1078
C14 C 0.05199(17) 0.6630(6) 0.1775(3)
H15 H 0.0689 0.8094 0.1395
H16 H 0.0056 0.6507 0.1458
O1 O 0.17441(9) 0.7262(3) 0.38173(18)
O2 O 0.06207(10) 0.6719(4) 0.3219(2)
loop_
_geom_bond_atom_site_label_1
_geom_bond_atom_site_label_2
_geom_bond_site_symmetry_1
_geom_bond_site_symmetry_2
C1 H1 1_555 1_555
C2 C1 1_555 1_555
H2 C2 1_555 1_555
C3 C2 1_555 1_555
H3 C3 1_555 1_555
C4 C3 1_555 1_555
H4 C4 1_555 1_555
C5 C4 1_555 1_555
C6 C1 1_555 1_555
C7 C6 1_555 1_555
H5 C7 1_555 1_555
H6 C7 1_555 1_555
C8 C7 1_555 1_555
H7 C8 1_555 1_555
C9 C8 1_555 1_555
H8 C9 1_555 1_555
C10 C5 1_555 1_555
H9 C10 1_555 1_555
H10 C10 1_555 1_555
C11 C8 1_555 1_555
H11 C11 1_555 1_555
C12 C11 1_555 1_555
H12 C12 1_555 1_555
C13 C11 1_555 1_555
H13 C13 1_555 1_555
H14 C13 1_555 1_555
C14 C13 1_555 1_555
H15 C14 1_555 1_555
H16 C14 1_555 1_555
O1 C9 1_555 1_555
O2 C12 1_555 1_555
C5 C6 1_555 1_555
C9 C10 1_555 1_555
C12 O1 1_555 1_555
C14 O2 1_555 1_555

#END
