
#######################################################################
#
#                 Cambridge Crystallographic Data Centre
#                                CCDC 
#
#######################################################################
#
# If this CIF has been generated from an entry in the Cambridge 
# Structural Database, then it will include bibliographic, chemical, 
# crystal, experimental, refinement or atomic coordinate data resulting 
# from the CCDC's data processing and validation procedures.
#
#######################################################################

data_BAXVED
_chemical_formula_moiety         'C20 H29 B1 O4'
_chemical_name_systematic        
3-(4-(4,4,5,5-Tetramethyl-1,3,2-dioxaborolan-2-yl)benzyl)hexahydro-4H-furo[2,3-b]pyran
_symmetry_cell_setting           monoclinic
_symmetry_space_group_name_H-M   'P 21/c'
_symmetry_Int_Tables_number      14
_space_group_name_Hall           '-P 2ybc'
loop_
_symmetry_equiv_pos_site_id
_symmetry_equiv_pos_as_xyz
1 x,y,z
2 -x,1/2+y,1/2-z
3 -x,-y,-z
4 x,1/2-y,1/2+z
_cell_length_a                   15.186(4)
_cell_length_b                   11.298(3)
_cell_length_c                   12.477(4)
_cell_angle_alpha                90
_cell_angle_beta                 114.213(2)
_cell_angle_gamma                90
_cell_volume                     1952.37
_exptl_crystal_colour            colorless
_exptl_crystal_description       block
_cell_formula_units_Z            4
loop_
_atom_site_label
_atom_site_type_symbol
_atom_site_fract_x
_atom_site_fract_y
_atom_site_fract_z
C1 C 0.32574(18) 0.3641(2) -0.0130(2)
H1 H 0.3859 0.3186 0.0136
C2 C 0.3439(2) 0.4908(2) -0.0391(2)
H2 H 0.2920 0.5411 -0.0394
H3 H 0.4039 0.5189 0.0220
C3 C 0.3499(3) 0.4987(3) -0.1573(3)
H4 H 0.3562 0.5808 -0.1757
H5 H 0.4063 0.4561 -0.1542
C4 C 0.2612(3) 0.4468(3) -0.2505(3)
H6 H 0.2053 0.4916 -0.2552
H7 H 0.2655 0.4531 -0.3258
C5 C 0.2488(2) 0.3044(3) -0.1185(2)
H8 H 0.2550 0.2188 -0.1045
C6 C 0.17406(19) 0.3740(3) -0.0026(2)
H9 H 0.1338 0.3273 0.0248
H10 H 0.1581 0.4569 -0.0008
C7 C 0.28115(17) 0.3528(2) 0.0760(2)
H11 H 0.2886 0.2706 0.1033
C8 C 0.31802(17) 0.4328(3) 0.1828(2)
H12 H 0.3071 0.5142 0.1556
H13 H 0.2793 0.4187 0.2270
C9 C 0.42282(17) 0.4203(2) 0.2656(2)
C10 C 0.47286(18) 0.5164(2) 0.3309(2)
H14 H 0.4419 0.5892 0.3207
C11 C 0.56761(19) 0.5067(2) 0.4109(2)
H15 H 0.5985 0.5730 0.4541
C12 C 0.61814(18) 0.4014(2) 0.4289(2)
C13 C 0.5674(2) 0.3056(2) 0.3624(3)
H16 H 0.5984 0.2330 0.3717
C14 C 0.4724(2) 0.3150(3) 0.2831(2)
H17 H 0.4411 0.2486 0.2404
B1 B 0.7247(2) 0.3914(3) 0.5160(2)
C15 C 0.8745(2) 0.3137(3) 0.6203(3)
C16 C 0.87462(18) 0.4463(2) 0.6485(2)
C17 C 0.9558(3) 0.2755(4) 0.5848(4)
H18 H 0.9493 0.3166 0.5146
H19 H 0.9519 0.1917 0.5706
H20 H 1.0171 0.2943 0.6470
C18 C 0.8731(3) 0.2340(4) 0.7154(3)
H21 H 0.8573 0.1550 0.6854
H22 H 0.8255 0.2616 0.7417
H23 H 0.9355 0.2344 0.7800
C19 C 0.9216(2) 0.5239(3) 0.5874(3)
H24 H 0.9055 0.6053 0.5926
H25 H 0.8987 0.5014 0.5063
H26 H 0.9905 0.5142 0.6247
C20 C 0.9136(2) 0.4792(3) 0.7763(3)
H27 H 0.8780 0.4380 0.8130
H28 H 0.9071 0.5630 0.7835
H29 H 0.9805 0.4576 0.8139
O1 O 0.24860(15) 0.32472(19) -0.22790(16)
O2 O 0.15854(13) 0.3401(2) -0.11832(16)
O3 O 0.78272(14) 0.29806(18) 0.52011(18)
O4 O 0.77231(12) 0.47695(16) 0.59392(17)
loop_
_geom_bond_atom_site_label_1
_geom_bond_atom_site_label_2
_geom_bond_site_symmetry_1
_geom_bond_site_symmetry_2
C1 H1 1_555 1_555
C2 C1 1_555 1_555
H2 C2 1_555 1_555
H3 C2 1_555 1_555
C3 C2 1_555 1_555
H4 C3 1_555 1_555
H5 C3 1_555 1_555
C4 C3 1_555 1_555
H6 C4 1_555 1_555
H7 C4 1_555 1_555
C5 C1 1_555 1_555
H8 C5 1_555 1_555
C6 H9 1_555 1_555
H10 C6 1_555 1_555
C7 C1 1_555 1_555
H11 C7 1_555 1_555
C8 C7 1_555 1_555
H12 C8 1_555 1_555
H13 C8 1_555 1_555
C9 C8 1_555 1_555
C10 C9 1_555 1_555
H14 C10 1_555 1_555
C11 C10 1_555 1_555
H15 C11 1_555 1_555
C12 C11 1_555 1_555
C13 C12 1_555 1_555
H16 C13 1_555 1_555
C14 C9 1_555 1_555
H17 C14 1_555 1_555
B1 C12 1_555 1_555
C15 C16 1_555 1_555
C16 C19 1_555 1_555
C17 C15 1_555 1_555
H18 C17 1_555 1_555
H19 C17 1_555 1_555
H20 C17 1_555 1_555
C18 C15 1_555 1_555
H21 C18 1_555 1_555
H22 C18 1_555 1_555
H23 C18 1_555 1_555
C19 H24 1_555 1_555
H25 C19 1_555 1_555
H26 C19 1_555 1_555
C20 C16 1_555 1_555
H27 C20 1_555 1_555
H28 C20 1_555 1_555
H29 C20 1_555 1_555
O1 C4 1_555 1_555
O2 C5 1_555 1_555
O3 B1 1_555 1_555
O4 B1 1_555 1_555
C5 O1 1_555 1_555
C6 C7 1_555 1_555
C6 O2 1_555 1_555
C13 C14 1_555 1_555
C15 O3 1_555 1_555
C16 O4 1_555 1_555

#END
