
#######################################################################
#
#                 Cambridge Crystallographic Data Centre
#                                CCDC 
#
#######################################################################
#
# If this CIF has been generated from an entry in the Cambridge 
# Structural Database, then it will include bibliographic, chemical, 
# crystal, experimental, refinement or atomic coordinate data resulting 
# from the CCDC's data processing and validation procedures.
#
#######################################################################

data_BAXVIG
_chemical_formula_moiety         'C14 H15 I1 O4'
_chemical_name_systematic        
'(+)-(3R,3aR,6R,7S,7aS,8S)-6-Iodo-2,3,3a,6,7,7a-hexahydro-8-methyl-2-oxo-3,6-methano-1-benzofuran-7-yl crotonate'
_symmetry_cell_setting           monoclinic
_symmetry_space_group_name_H-M   'P 21'
_symmetry_Int_Tables_number      4
_space_group_name_Hall           'P 2yb'
loop_
_symmetry_equiv_pos_site_id
_symmetry_equiv_pos_as_xyz
1 x,y,z
2 -x,1/2+y,-z
_cell_length_a                   8.04640(10)
_cell_length_b                   8.33230(10)
_cell_length_c                   10.6972(2)
_cell_angle_alpha                90
_cell_angle_beta                 99.4297(8)
_cell_angle_gamma                90
_cell_volume                     707.503
_exptl_crystal_colour            colorless
_exptl_crystal_description       plate
_chemical_melting_point          '96 deg.C'
_cell_formula_units_Z            2
loop_
_atom_site_label
_atom_site_type_symbol
_atom_site_fract_x
_atom_site_fract_y
_atom_site_fract_z
I1 I -0.26946(3) -0.15026(7) -1.014557(16)
O1 O -0.2306(3) -0.3763(2) -0.76633(18)
O2 O -0.3838(3) -0.3726(3) -0.6074(2)
O3 O 0.0147(3) -0.3753(2) -0.57877(19)
O4 O 0.2051(3) -0.5311(3) -0.6503(3)
C1 C -0.0925(3) -0.1451(6) -0.83850(19)
C2 C -0.1778(4) -0.2155(3) -0.7318(3)
C3 C -0.0476(4) -0.2145(3) -0.6062(3)
C4 C 0.1403(4) -0.4012(4) -0.6476(3)
C5 C 0.1755(4) -0.2454(3) -0.7124(3)
C6 C 0.1075(4) -0.1197(3) -0.6276(2)
C7 C 0.0602(4) 0.0360(3) -0.6916(3)
C8 C -0.0454(4) 0.0249(3) -0.8006(3)
C9 C 0.0699(4) -0.2387(3) -0.8490(3)
C10 C 0.1739(4) -0.1622(6) -0.9409(3)
C11 C -0.3322(4) -0.4454(3) -0.6913(3)
C12 C -0.3635(4) -0.6148(3) -0.7255(3)
C13 C -0.4520(4) -0.7073(3) -0.6603(3)
C14 C -0.4864(5) -0.8796(4) -0.6873(4)
H1 H -0.2789(4) -0.1511(3) -0.7200(3)
H2 H -0.1037(4) -0.1687(3) -0.5374(3)
H3 H 0.2961(4) -0.2305(3) -0.7220(3)
H4 H 0.1889(4) -0.0851(3) -0.5515(2)
H5 H 0.1047(4) 0.1412(3) -0.6555(3)
H6 H -0.0903(4) 0.1200(3) -0.8524(3)
H7 H 0.0378(4) -0.3480(3) -0.8835(3)
H8 H 0.2767(4) -0.2283(6) -0.9449(3)
H9 H 0.1047(4) -0.1550(6) -1.0274(3)
H10 H 0.2084(4) -0.0520(6) -0.9100(3)
H11 H -0.3174(4) -0.6615(3) -0.7989(3)
H12 H -0.4975(4) -0.6575(3) -0.5878(3)
H13 H -0.4338(5) -0.9128(4) -0.7617(4)
H14 H -0.6108(5) -0.8981(4) -0.7066(4)
H15 H -0.4373(5) -0.9445(4) -0.6115(4)
loop_
_geom_bond_atom_site_label_1
_geom_bond_atom_site_label_2
_geom_bond_site_symmetry_1
_geom_bond_site_symmetry_2
I1 C1 1_555 1_555
O1 C2 1_555 1_555
O2 C11 1_555 1_555
O3 C3 1_555 1_555
O4 C4 1_555 1_555
C1 C2 1_555 1_555
C2 C3 1_555 1_555
C3 C6 1_555 1_555
C4 O3 1_555 1_555
C5 C4 1_555 1_555
C6 C5 1_555 1_555
C7 C6 1_555 1_555
C8 C1 1_555 1_555
C9 C1 1_555 1_555
C10 C9 1_555 1_555
C11 O1 1_555 1_555
C12 C11 1_555 1_555
C13 C12 1_555 1_555
C14 C13 1_555 1_555
H1 C2 1_555 1_555
H2 C3 1_555 1_555
H3 C5 1_555 1_555
H4 C6 1_555 1_555
H5 C7 1_555 1_555
H6 C8 1_555 1_555
H7 C9 1_555 1_555
H8 C10 1_555 1_555
H9 C10 1_555 1_555
H10 C10 1_555 1_555
H11 C12 1_555 1_555
H12 C13 1_555 1_555
H13 C14 1_555 1_555
H14 C14 1_555 1_555
H15 C14 1_555 1_555
C5 C9 1_555 1_555
C7 C8 1_555 1_555

#END
