
#######################################################################
#
#                 Cambridge Crystallographic Data Centre
#                                CCDC 
#
#######################################################################
#
# If this CIF has been generated from an entry in the Cambridge 
# Structural Database, then it will include bibliographic, chemical, 
# crystal, experimental, refinement or atomic coordinate data resulting 
# from the CCDC's data processing and validation procedures.
#
#######################################################################

data_BAXVAY
_chemical_formula_moiety         'C14 H15 Br1 O4'
_chemical_name_systematic        
'(+)-(3R,3aR,6R,7S,7aS,8S)-6-Bromo-2,3,3a,6,7,7a-hexahydro-8-methyl-2-oxo-3,6-methano-1-benzofuran-7-yl crotonate'
_symmetry_cell_setting           monoclinic
_symmetry_space_group_name_H-M   'P 21'
_symmetry_Int_Tables_number      4
_space_group_name_Hall           'P 2yb'
loop_
_symmetry_equiv_pos_site_id
_symmetry_equiv_pos_as_xyz
1 x,y,z
2 -x,1/2+y,-z
_cell_length_a                   11.5138(3)
_cell_length_b                   7.8470(2)
_cell_length_c                   16.5849(5)
_cell_angle_alpha                90
_cell_angle_beta                 110.4440(13)
_cell_angle_gamma                90
_cell_volume                     1404.05
_exptl_crystal_colour            colorless
_exptl_crystal_description       prism
_chemical_melting_point          '75 deg.C'
_cell_formula_units_Z            4
loop_
_atom_site_label
_atom_site_type_symbol
_atom_site_fract_x
_atom_site_fract_y
_atom_site_fract_z
Br1 Br 0.94042(6) 0.25356(13) -0.00380(5)
O1 O 0.7333(3) -0.0132(5) -0.03899(18)
O2 O 0.5624(3) -0.0139(5) -0.15697(19)
O3 O 0.5981(3) -0.0525(4) 0.0544(2)
O4 O 0.7158(4) -0.2137(5) 0.1657(3)
C1 C 0.8150(4) 0.2294(6) 0.0506(3)
C2 C 0.6989(4) 0.1469(6) -0.0136(3)
C3 C 0.6029(5) 0.1252(6) 0.0306(4)
C4 C 0.6901(5) -0.0760(6) 0.1325(4)
C5 C 0.7531(5) 0.0930(6) 0.1644(3)
C6 C 0.6471(4) 0.2180(6) 0.1178(3)
C7 C 0.6911(5) 0.3936(6) 0.1084(4)
C8 C 0.7773(5) 0.3985(6) 0.0733(3)
C9 C 0.8632(4) 0.1180(5) 0.1325(3)
C10 C 0.9738(5) 0.1946(7) 0.2030(4)
C11 C 0.6538(4) -0.0856(6) -0.1115(3)
C12 C 0.6954(4) -0.2559(7) -0.1250(3)
C13 C 0.6315(5) -0.3528(7) -0.1915(3)
C14 C 0.6654(6) -0.5257(9) -0.2091(3)
H1 H 0.6613(4) 0.2204(6) -0.0655(3)
H2 H 0.5212(5) 0.1695(6) -0.0085(4)
H3 H 0.7862(5) 0.1101(6) 0.2282(3)
H4 H 0.5854(4) 0.2374(6) 0.1469(3)
H5 H 0.6570(5) 0.4975(6) 0.1270(4)
H6 H 0.8162(5) 0.5063(6) 0.0628(3)
H7 H 0.8935(4) 0.0072(5) 0.1175(3)
H8 H 1.0012(5) 0.1160(7) 0.2536(4)
H9 H 1.0434(5) 0.2116(7) 0.1808(4)
H10 H 0.9495(5) 0.3069(7) 0.2208(4)
H11 H 0.7751(4) -0.3015(7) -0.0837(3)
H12 H 0.5534(5) -0.3026(7) -0.2326(3)
H28 H 0.7449(6) -0.5580(9) -0.1629(3)
H29 H 0.6767(6) -0.5286(9) -0.2662(3)
H30 H 0.5990(6) -0.6081(9) -0.2094(3)
Br2 Br 0.04129(5) -0.02075(11) 0.45080(3)
O5 O 0.2130(3) 0.2738(4) 0.44455(18)
O6 O 0.3073(4) 0.2980(5) 0.3478(2)
O7 O 0.4237(3) 0.3323(5) 0.5642(3)
O8 O 0.3725(4) 0.4693(6) 0.6650(3)
C15 C 0.2150(4) 0.0164(6) 0.5246(3)
C16 C 0.2804(4) 0.1174(6) 0.4739(3)
C17 C 0.4154(5) 0.1566(7) 0.5352(4)
C18 C 0.3843(5) 0.3372(7) 0.6320(4)
C19 C 0.3597(4) 0.1591(6) 0.6548(3)
C20 C 0.4421(4) 0.0512(6) 0.6177(3)
C21 C 0.4004(5) -0.1274(7) 0.5982(3)
C22 C 0.2834(5) -0.1502(6) 0.5491(3)
C23 C 0.2204(4) 0.1118(6) 0.6069(3)
C24 C 0.1705(5) 0.0057(8) 0.6649(3)
C25 C 0.2370(4) 0.3543(6) 0.3800(3)
C26 C 0.1645(4) 0.5108(6) 0.3556(3)
C27 C 0.1515(5) 0.5909(7) 0.2820(4)
C28 C 0.0678(6) 0.7349(9) 0.2452(5)
H13 H 0.2830(4) 0.0529(6) 0.4226(3)
H14 H 0.4729(5) 0.1291(7) 0.5036(4)
H15 H 0.3757(4) 0.1411(6) 0.7175(3)
H16 H 0.5304(4) 0.0391(6) 0.6565(3)
H17 H 0.4584(5) -0.2252(7) 0.6206(3)
H18 H 0.2432(5) -0.2636(6) 0.5306(3)
H19 H 0.1658(4) 0.2146(6) 0.5909(3)
H20 H 0.1739(5) 0.0735(8) 0.7167(3)
H21 H 0.2226(5) -0.0989(8) 0.6834(3)
H22 H 0.0828(5) -0.0280(8) 0.6324(3)
H23 H 0.1242(4) 0.5617(6) 0.3945(3)
H24 H 0.2047(5) 0.5483(7) 0.2498(4)
H25 H 0.0765(6) 0.7694(9) 0.1895(5)
H26 H 0.0883(6) 0.8340(9) 0.2856(5)
H27 H -0.0193(6) 0.6976(9) 0.2345(5)
loop_
_geom_bond_atom_site_label_1
_geom_bond_atom_site_label_2
_geom_bond_site_symmetry_1
_geom_bond_site_symmetry_2
Br1 C1 1_555 1_555
Br2 C15 1_555 1_555
O1 C2 1_555 1_555
O2 C11 1_555 1_555
O3 C3 1_555 1_555
O4 C4 1_555 1_555
O5 C16 1_555 1_555
O6 C25 1_555 1_555
O7 C17 1_555 1_555
O8 C18 1_555 1_555
C1 C2 1_555 1_555
C2 C3 1_555 1_555
C3 C6 1_555 1_555
C4 O3 1_555 1_555
C5 C4 1_555 1_555
C6 C5 1_555 1_555
C7 C6 1_555 1_555
C8 C1 1_555 1_555
C9 C1 1_555 1_555
C10 C9 1_555 1_555
C11 O1 1_555 1_555
C12 C11 1_555 1_555
C13 C12 1_555 1_555
C14 C13 1_555 1_555
C15 C16 1_555 1_555
C16 C17 1_555 1_555
C17 C20 1_555 1_555
C18 O7 1_555 1_555
C19 C18 1_555 1_555
C20 C19 1_555 1_555
C21 C20 1_555 1_555
C22 C15 1_555 1_555
C23 C15 1_555 1_555
C24 C23 1_555 1_555
C25 O5 1_555 1_555
C26 C25 1_555 1_555
C27 C26 1_555 1_555
C28 C27 1_555 1_555
H1 C2 1_555 1_555
H2 C3 1_555 1_555
H3 C5 1_555 1_555
H4 C6 1_555 1_555
H5 C7 1_555 1_555
H6 C8 1_555 1_555
H7 C9 1_555 1_555
H8 C10 1_555 1_555
H9 C10 1_555 1_555
H10 C10 1_555 1_555
H11 C12 1_555 1_555
H12 C13 1_555 1_555
H13 C16 1_555 1_555
H14 C17 1_555 1_555
H15 C19 1_555 1_555
H16 C20 1_555 1_555
H17 C21 1_555 1_555
H18 C22 1_555 1_555
H19 C23 1_555 1_555
H20 C24 1_555 1_555
H21 C24 1_555 1_555
H22 C24 1_555 1_555
H23 C26 1_555 1_555
H24 C27 1_555 1_555
H25 C28 1_555 1_555
H26 C28 1_555 1_555
H27 C28 1_555 1_555
H28 C14 1_555 1_555
H29 C14 1_555 1_555
H30 C14 1_555 1_555
C5 C9 1_555 1_555
C7 C8 1_555 1_555
C19 C23 1_555 1_555
C21 C22 1_555 1_555

#END
