
#######################################################################
#
#                 Cambridge Crystallographic Data Centre
#                                CCDC 
#
#######################################################################
#
# If this CIF has been generated from an entry in the Cambridge 
# Structural Database, then it will include bibliographic, chemical, 
# crystal, experimental, refinement or atomic coordinate data resulting 
# from the CCDC's data processing and validation procedures.
#
#######################################################################

data_BAXWIJ
_chemical_formula_moiety         'C25 H24 N2 O4 S1'
_chemical_name_systematic        
'N-(10-(2-hydroxyphenyl)-11-((4-methylphenyl)sulfonyl)-11-azatricyclo[6.2.1.0^2,7^]undeca-2,4,6-trien-9-yl)acetamide unknown solvate'
_symmetry_cell_setting           monoclinic
_symmetry_space_group_name_H-M   'P 21/n'
_symmetry_Int_Tables_number      14
_space_group_name_Hall           '-P 2yn'
loop_
_symmetry_equiv_pos_site_id
_symmetry_equiv_pos_as_xyz
1 x,y,z
2 1/2-x,1/2+y,1/2-z
3 -x,-y,-z
4 1/2+x,1/2-y,1/2+z
_cell_length_a                   11.9260(12)
_cell_length_b                   7.6516(8)
_cell_length_c                   24.787(2)
_cell_angle_alpha                90
_cell_angle_beta                 96.373(5)
_cell_angle_gamma                90
_cell_volume                     2247.91
_exptl_crystal_colour            colorless
_exptl_crystal_description       prism
_cell_formula_units_Z            4
loop_
_atom_site_label
_atom_site_type_symbol
_atom_site_fract_x
_atom_site_fract_y
_atom_site_fract_z
S1 S 0.30366(3) 0.50932(5) 0.52057(2)
N1 N 0.37705(10) 0.45600(16) 0.57841(5)
N2 N 0.61255(11) 0.46302(16) 0.63316(5)
H1 H 0.6126(14) 0.427(2) 0.6002(7)
O1 O 0.71713(9) 0.53395(16) 0.71166(4)
O2 O 0.60110(9) 0.14403(14) 0.72734(4)
H2 H 0.6621(19) 0.100(3) 0.7493(9)
O3 O 0.38068(9) 0.59453(15) 0.48881(4)
O4 O 0.24827(9) 0.35155(14) 0.50086(4)
C1 C 0.42120(12) 0.59359(19) 0.61819(6)
H3 H 0.4538 0.6998 0.6023
C2 C 0.50552(12) 0.47900(19) 0.65492(6)
H4 H 0.5172 0.5294 0.6924
C3 C 0.44014(12) 0.29765(19) 0.65578(6)
H5 H 0.4216 0.2749 0.6935
C4 C 0.32950(12) 0.3393(2) 0.61896(6)
H6 H 0.2861 0.2357 0.6035
C5 C 0.26401(13) 0.4667(2) 0.65051(6)
C6 C 0.32106(13) 0.6254(2) 0.64999(6)
C7 C 0.28584(14) 0.7704(2) 0.67660(6)
H7 H 0.3259 0.8777 0.6768
C8 C 0.18887(14) 0.7533(2) 0.70329(6)
H8 H 0.1614 0.8518 0.7211
C9 C 0.13227(14) 0.5956(2) 0.70416(6)
H9 H 0.0668 0.5874 0.7226
C10 C 0.16998(13) 0.4486(2) 0.67831(6)
H10 H 0.1324 0.3394 0.6797
C11 C 0.71138(13) 0.4831(2) 0.66402(6)
C12 C 0.81517(14) 0.4377(3) 0.63769(8)
H11 H 0.8767 0.5168 0.651
H12 H 0.7992 0.4497 0.5982
H13 H 0.8373 0.3169 0.6467
C13 C 0.50908(12) 0.14740(19) 0.63813(6)
C14 C 0.59393(12) 0.07790(19) 0.67602(6)
C15 C 0.66778(13) -0.0488(2) 0.66076(6)
H14 H 0.7248 -0.0949 0.6867
C16 C 0.65789(14) -0.1078(2) 0.60742(6)
H15 H 0.7093 -0.1925 0.5967
C17 C 0.57349(14) -0.0435(2) 0.56983(6)
H16 H 0.5657 -0.0861 0.5336
C18 C 0.50023(13) 0.0835(2) 0.58524(6)
H17 H 0.4429 0.1278 0.5591
C19 C 0.20098(12) 0.66537(19) 0.53293(6)
C20 C 0.22733(13) 0.8422(2) 0.52971(6)
H18 H 0.2964 0.8778 0.5174
C21 C 0.15154(14) 0.9652(2) 0.54473(6)
H19 H 0.1686 1.0859 0.5419
C22 C 0.05082(14) 0.9159(2) 0.56391(6)
C23 C 0.02432(13) 0.7390(2) 0.56430(6)
H20 H -0.0461 0.7036 0.5752
C24 C 0.09827(13) 0.6135(2) 0.54913(6)
H21 H 0.079 0.4931 0.5498
C25 C -0.02569(17) 1.0503(3) 0.58506(8)
H22 H -0.1039 1.0092 0.5793
H23 H -0.019 1.1608 0.5657
H24 H -0.0039 1.0682 0.624
loop_
_geom_bond_atom_site_label_1
_geom_bond_atom_site_label_2
_geom_bond_site_symmetry_1
_geom_bond_site_symmetry_2
S1 N1 1_555 1_555
N1 C1 1_555 1_555
N2 H1 1_555 1_555
O1 C11 1_555 1_555
O2 H2 1_555 1_555
O3 S1 1_555 1_555
O4 S1 1_555 1_555
C1 H3 1_555 1_555
C2 N2 1_555 1_555
H4 C2 1_555 1_555
C3 C2 1_555 1_555
H5 C3 1_555 1_555
C4 N1 1_555 1_555
H6 C4 1_555 1_555
C5 C4 1_555 1_555
C6 C1 1_555 1_555
C7 C6 1_555 1_555
H7 C7 1_555 1_555
C8 C7 1_555 1_555
H8 C8 1_555 1_555
C9 C8 1_555 1_555
H9 C9 1_555 1_555
C10 C5 1_555 1_555
H10 C10 1_555 1_555
C11 N2 1_555 1_555
C12 C11 1_555 1_555
H11 C12 1_555 1_555
H12 C12 1_555 1_555
H13 C12 1_555 1_555
C13 C3 1_555 1_555
C14 O2 1_555 1_555
C15 C14 1_555 1_555
H14 C15 1_555 1_555
C16 C15 1_555 1_555
H15 C16 1_555 1_555
C17 C16 1_555 1_555
H16 C17 1_555 1_555
C18 C13 1_555 1_555
H17 C18 1_555 1_555
C19 S1 1_555 1_555
C20 C19 1_555 1_555
H18 C20 1_555 1_555
C21 C20 1_555 1_555
H19 C21 1_555 1_555
C22 C21 1_555 1_555
C23 C22 1_555 1_555
H20 C23 1_555 1_555
C24 C19 1_555 1_555
H21 C24 1_555 1_555
C25 C22 1_555 1_555
H22 C25 1_555 1_555
H23 C25 1_555 1_555
H24 C25 1_555 1_555
C1 C2 1_555 1_555
C3 C4 1_555 1_555
C5 C6 1_555 1_555
C9 C10 1_555 1_555
C13 C14 1_555 1_555
C17 C18 1_555 1_555
C23 C24 1_555 1_555

#END
