
#######################################################################
#
#                 Cambridge Crystallographic Data Centre
#                                CCDC 
#
#######################################################################
#
# If this CIF has been generated from an entry in the Cambridge 
# Structural Database, then it will include bibliographic, chemical, 
# crystal, experimental, refinement or atomic coordinate data resulting 
# from the CCDC's data processing and validation procedures.
#
#######################################################################

data_BAXWEF
_chemical_formula_moiety         'C23 H19 N1 O3 S1'
_chemical_name_systematic        
11-((4-methylphenyl)sulfonyl)-9-oxa-11-azapentacyclo[8.8.0.0^2,12^.0^3,8^.0^13,18^]octadeca-3,5,7,13,15,17-hexaene
_symmetry_cell_setting           monoclinic
_symmetry_space_group_name_H-M   'C 2/c'
_symmetry_Int_Tables_number      15
_space_group_name_Hall           '-C 2yn'
loop_
_symmetry_equiv_pos_site_id
_symmetry_equiv_pos_as_xyz
1 x,y,z
2 -x,y,1/2-z
3 1/2+x,1/2+y,z
4 1/2-x,1/2+y,1/2-z
5 -x,-y,-z
6 x,-y,1/2+z
7 1/2-x,1/2-y,-z
8 1/2+x,1/2-y,1/2+z
_cell_length_a                   19.4121(4)
_cell_length_b                   13.0443(1)
_cell_length_c                   16.2172(4)
_cell_angle_alpha                90
_cell_angle_beta                 115.780(1)
_cell_angle_gamma                90
_cell_volume                     3697.76
_exptl_crystal_colour            colorless
_exptl_crystal_description       prism
_cell_formula_units_Z            8
loop_
_atom_site_label
_atom_site_type_symbol
_atom_site_fract_x
_atom_site_fract_y
_atom_site_fract_z
S1 S 0.23446(4) 0.52307(6) 0.21846(5)
O1 O 0.28248(13) 0.51605(19) 0.17275(16)
O2 O 0.18953(13) 0.61306(15) 0.20839(16)
O3 O 0.20345(11) 0.28555(15) 0.11035(14)
N1 N 0.17376(13) 0.42859(17) 0.18070(17)
C1 C 0.13341(16) 0.2881(2) 0.0349(2)
C2 C 0.13196(18) 0.2665(2) -0.0490(2)
H1 H 0.1776 0.2519 -0.0536
C3 C 0.06312(19) 0.2664(2) -0.1260(2)
H2 H 0.0618 0.2502 -0.1831
C4 C -0.00389(19) 0.2898(2) -0.1203(2)
H3 H -0.0505 0.2915 -0.1734
C5 C -0.00179(17) 0.3109(2) -0.0358(2)
H4 H -0.0476 0.3265 -0.0320
C6 C 0.06585(16) 0.3094(2) 0.0432(2)
C7 C 0.06938(16) 0.3234(2) 0.1371(2)
H5 H 0.0209 0.3028 0.1387
C8 C 0.13884(16) 0.2672(2) 0.2111(2)
H6 H 0.1379 0.1916 0.2058
C9 C 0.20086(16) 0.3216(2) 0.1920(2)
H7 H 0.2516 0.3151 0.2451
C10 C 0.09683(16) 0.4294(2) 0.1819(2)
H8 H 0.0632 0.4883 0.1514
C11 C 0.10945(16) 0.4075(2) 0.2790(2)
C12 C 0.13887(16) 0.3083(2) 0.2983(2)
C13 C 0.16255(17) 0.2671(3) 0.3844(2)
H9 H 0.1831 0.2006 0.3978
C14 C 0.15505(18) 0.3270(3) 0.4511(2)
H10 H 0.1711 0.3009 0.5106
C15 C 0.12418(19) 0.4245(3) 0.4307(2)
H11 H 0.1189 0.4635 0.4764
C16 C 0.10101(17) 0.4654(2) 0.3442(2)
H12 H 0.0799 0.5316 0.3305
C17 C 0.29454(16) 0.5030(2) 0.3356(2)
C18 C 0.36219(18) 0.4499(2) 0.3614(2)
H13 H 0.3762 0.4238 0.3168
C19 C 0.40899(19) 0.4356(3) 0.4532(3)
H14 H 0.4553 0.3999 0.4707
C20 C 0.38943(19) 0.4725(2) 0.5202(2)
C21 C 0.32070(19) 0.5239(2) 0.4926(2)
H15 H 0.3057 0.5478 0.5371
C22 C 0.27367(18) 0.5407(2) 0.4013(2)
H16 H 0.2278 0.5774 0.3837
C23 C 0.4424(2) 0.4605(3) 0.6209(3)
H17 H 0.4705 0.5237 0.6441
H18 H 0.4780 0.4050 0.6291
H19 H 0.4125 0.4450 0.6542
loop_
_geom_bond_atom_site_label_1
_geom_bond_atom_site_label_2
_geom_bond_site_symmetry_1
_geom_bond_site_symmetry_2
S1 O1 1_555 1_555
O2 S1 1_555 1_555
O3 C1 1_555 1_555
N1 S1 1_555 1_555
C1 C2 1_555 1_555
C2 H1 1_555 1_555
C3 C2 1_555 1_555
H2 C3 1_555 1_555
C4 C3 1_555 1_555
H3 C4 1_555 1_555
C5 C4 1_555 1_555
H4 C5 1_555 1_555
C6 C1 1_555 1_555
C7 C6 1_555 1_555
H5 C7 1_555 1_555
C8 C7 1_555 1_555
H6 C8 1_555 1_555
C9 O3 1_555 1_555
H7 C9 1_555 1_555
C10 N1 1_555 1_555
H8 C10 1_555 1_555
C11 C10 1_555 1_555
C12 C8 1_555 1_555
C13 C12 1_555 1_555
H9 C13 1_555 1_555
C14 C13 1_555 1_555
H10 C14 1_555 1_555
C15 C14 1_555 1_555
H11 C15 1_555 1_555
C16 C11 1_555 1_555
H12 C16 1_555 1_555
C17 S1 1_555 1_555
C18 C17 1_555 1_555
H13 C18 1_555 1_555
C19 C18 1_555 1_555
H14 C19 1_555 1_555
C20 C19 1_555 1_555
C21 C20 1_555 1_555
H15 C21 1_555 1_555
C22 C17 1_555 1_555
H16 C22 1_555 1_555
C23 C20 1_555 1_555
H17 C23 1_555 1_555
H18 C23 1_555 1_555
H19 C23 1_555 1_555
N1 C9 1_555 1_555
C5 C6 1_555 1_555
C7 C10 1_555 1_555
C8 C9 1_555 1_555
C11 C12 1_555 1_555
C15 C16 1_555 1_555
C21 C22 1_555 1_555

#END
