
#######################################################################
#
#                 Cambridge Crystallographic Data Centre
#                                CCDC 
#
#######################################################################
#
# If this CIF has been generated from an entry in the Cambridge 
# Structural Database, then it will include bibliographic, chemical, 
# crystal, experimental, refinement or atomic coordinate data resulting 
# from the CCDC's data processing and validation procedures.
#
#######################################################################

data_BAXWOP
_chemical_formula_moiety         'C24 H23 N1 O4 S1'
_chemical_name_systematic        
2-(10-methoxy-9-((4-methylphenyl)sulfonyl)-9-azatricyclo[6.2.1.0^2,7^]undeca-2,4,6-trien-11-yl)phenol
_symmetry_cell_setting           monoclinic
_symmetry_space_group_name_H-M   'P 21/c'
_symmetry_Int_Tables_number      14
_space_group_name_Hall           '-P 2ybc'
loop_
_symmetry_equiv_pos_site_id
_symmetry_equiv_pos_as_xyz
1 x,y,z
2 -x,1/2+y,1/2-z
3 -x,-y,-z
4 x,1/2-y,1/2+z
_cell_length_a                   9.6762(5)
_cell_length_b                   19.4730(9)
_cell_length_c                   11.4127(6)
_cell_angle_alpha                90
_cell_angle_beta                 110.354(2)
_cell_angle_gamma                90
_cell_volume                     2016.16
_exptl_crystal_colour            colorless
_exptl_crystal_description       plate
_cell_formula_units_Z            4
loop_
_atom_site_label
_atom_site_type_symbol
_atom_site_fract_x
_atom_site_fract_y
_atom_site_fract_z
S1 S 0.61468(4) 0.30404(2) 0.43358(3)
N1 N 0.53540(14) 0.36069(6) 0.32583(12)
O1 O 0.64198(12) 0.39034(5) 0.17001(10)
O2 O 0.36527(13) 0.54065(6) 0.04148(11)
H1 H 0.379(2) 0.5624(11) -0.012(2)
O3 O 0.50947(12) 0.27319(6) 0.48047(10)
O4 O 0.70162(12) 0.26037(5) 0.38469(10)
C1 C 0.52594(16) 0.35524(7) 0.19321(14)
H2 H 0.5201 0.3062 0.1657
C2 C 0.37914(16) 0.39354(7) 0.12693(14)
H3 H 0.3648 0.411 0.0411
C3 C 0.37897(16) 0.44947(7) 0.22565(14)
H4 H 0.2775 0.4693 0.2017
C4 C 0.39825(16) 0.39541(7) 0.32900(14)
H5 H 0.4024 0.4136 0.4121
C5 C 0.26991(17) 0.34777(7) 0.26341(15)
C6 C 0.25847(17) 0.34744(8) 0.13761(15)
C7 C 0.15137(17) 0.30918(8) 0.04939(16)
H6 H 0.1432 0.3095 -0.036
C8 C 0.05563(18) 0.27008(8) 0.09028(17)
H7 H -0.0199 0.2439 0.0315
C9 C 0.06930(18) 0.26890(8) 0.21526(17)
H8 H 0.0043 0.2411 0.241
C10 C 0.17732(18) 0.30792(8) 0.30440(16)
H9 H 0.1866 0.307 0.39
C11 C 0.76962(17) 0.34913(8) 0.18144(16)
H10 H 0.8189 0.3361 0.2691
H11 H 0.8378 0.3756 0.1526
H12 H 0.739 0.3076 0.1304
C12 C 0.48798(17) 0.50766(7) 0.25075(14)
C13 C 0.47278(17) 0.55463(8) 0.15367(15)
C14 C 0.56045(19) 0.61322(8) 0.17361(16)
H13 H 0.5467 0.6454 0.108
C15 C 0.66795(19) 0.62440(8) 0.28972(17)
H14 H 0.7287 0.6641 0.3033
C16 C 0.68694(19) 0.57775(8) 0.38612(16)
H15 H 0.7618 0.5849 0.4651
C17 C 0.59560(17) 0.52035(8) 0.36632(15)
H16 H 0.6072 0.4893 0.4332
C18 C 0.73487(17) 0.35447(7) 0.55547(14)
C19 C 0.72728(18) 0.35171(8) 0.67455(15)
H17 H 0.6538 0.3248 0.6904
C20 C 0.82889(19) 0.38890(8) 0.77075(15)
H18 H 0.8248 0.3867 0.8526
C21 C 0.93607(18) 0.42921(8) 0.74886(16)
C22 C 0.94021(18) 0.43182(8) 0.62761(16)
H19 H 1.0125 0.4594 0.6112
C23 C 0.84076(18) 0.39498(8) 0.53100(15)
H20 H 0.8446 0.3972 0.449
C24 C 1.0450(2) 0.47025(10) 0.85170(18)
H21 H 1.011 0.5179 0.8477
H22 H 1.1414 0.4692 0.8415
H23 H 1.0535 0.4504 0.9328
loop_
_geom_bond_atom_site_label_1
_geom_bond_atom_site_label_2
_geom_bond_site_symmetry_1
_geom_bond_site_symmetry_2
S1 N1 1_555 1_555
N1 C1 1_555 1_555
O1 C1 1_555 1_555
O2 H1 1_555 1_555
O3 S1 1_555 1_555
O4 S1 1_555 1_555
C1 H2 1_555 1_555
C2 C1 1_555 1_555
H3 C2 1_555 1_555
C3 C2 1_555 1_555
H4 C3 1_555 1_555
C4 N1 1_555 1_555
H5 C4 1_555 1_555
C5 C4 1_555 1_555
C6 C2 1_555 1_555
C7 C6 1_555 1_555
H6 C7 1_555 1_555
C8 C7 1_555 1_555
H7 C8 1_555 1_555
C9 C8 1_555 1_555
H8 C9 1_555 1_555
C10 C5 1_555 1_555
H9 C10 1_555 1_555
C11 O1 1_555 1_555
H10 C11 1_555 1_555
H11 C11 1_555 1_555
H12 C11 1_555 1_555
C12 C3 1_555 1_555
C13 O2 1_555 1_555
C14 C13 1_555 1_555
H13 C14 1_555 1_555
C15 C14 1_555 1_555
H14 C15 1_555 1_555
C16 C15 1_555 1_555
H15 C16 1_555 1_555
C17 C12 1_555 1_555
H16 C17 1_555 1_555
C18 S1 1_555 1_555
C19 C18 1_555 1_555
H17 C19 1_555 1_555
C20 C19 1_555 1_555
H18 C20 1_555 1_555
C21 C20 1_555 1_555
C22 C21 1_555 1_555
H19 C22 1_555 1_555
C23 C18 1_555 1_555
H20 C23 1_555 1_555
C24 C21 1_555 1_555
H21 C24 1_555 1_555
H22 C24 1_555 1_555
H23 C24 1_555 1_555
C3 C4 1_555 1_555
C5 C6 1_555 1_555
C9 C10 1_555 1_555
C12 C13 1_555 1_555
C16 C17 1_555 1_555
C22 C23 1_555 1_555

#END
