
#######################################################################
#
#                 Cambridge Crystallographic Data Centre
#                                CCDC 
#
#######################################################################
#
# If this CIF has been generated from an entry in the Cambridge 
# Structural Database, then it will include bibliographic, chemical, 
# crystal, experimental, refinement or atomic coordinate data resulting 
# from the CCDC's data processing and validation procedures.
#
#######################################################################

data_BAYCAH
_chemical_formula_moiety         'C17 H24 N2 O2 S1'
_chemical_name_systematic        
N-(Cyclopentyl(pyrrolidin-1-yl)methylene)-4-methylbenzenesulfonamide
_symmetry_cell_setting           triclinic
_symmetry_space_group_name_H-M   'P -1'
_symmetry_Int_Tables_number      2
_space_group_name_Hall           '-P 1'
loop_
_symmetry_equiv_pos_site_id
_symmetry_equiv_pos_as_xyz
1 x,y,z
2 -x,-y,-z
_cell_length_a                   8.8788(14)
_cell_length_b                   9.7529(15)
_cell_length_c                   10.2065(16)
_cell_angle_alpha                99.270(3)
_cell_angle_beta                 92.083(3)
_cell_angle_gamma                110.749(3)
_cell_volume                     811.516
_exptl_crystal_colour            colorless
_exptl_crystal_description       block
_cell_formula_units_Z            2
loop_
_atom_site_label
_atom_site_type_symbol
_atom_site_fract_x
_atom_site_fract_y
_atom_site_fract_z
S1 S 0.42011(4) 0.71961(4) 0.79540(3)
O1 O 0.54986(13) 0.83807(13) 0.88170(11)
O2 O 0.41706(14) 0.56977(13) 0.79063(11)
N1 N 0.40587(15) 0.75515(14) 0.64704(12)
N2 N 0.49453(15) 0.78754(14) 0.44722(13)
C1 C 0.23715(18) 0.72496(17) 0.85398(14)
C2 C 0.0985(2) 0.59709(18) 0.83089(17)
H1 H 0.0975 0.5086 0.7753
C3 C -0.0386(2) 0.6003(2) 0.89027(19)
H2 H -0.1341 0.5132 0.8740
C4 C -0.0393(2) 0.7280(2) 0.97304(17)
C5 C 0.1003(2) 0.8558(2) 0.99211(16)
H3 H 0.1008 0.9449 1.0463
C6 C 0.23889(19) 0.85543(18) 0.93320(15)
H4 H 0.3335 0.9433 0.9470
C7 C -0.1867(2) 0.7273(3) 1.0424(2)
H5 H -0.1570 0.8153 1.1138
H6 H -0.2290 0.6367 1.0807
H7 H -0.2700 0.7295 0.9779
C8 C 0.52456(18) 0.76499(16) 0.56944(14)
C9 C 0.59466(19) 0.79441(18) 0.33379(15)
H8 H 0.6554 0.7267 0.3337
H9 H 0.6719 0.8972 0.3362
C10 C 0.4686(2) 0.74318(19) 0.21284(16)
H10 H 0.4182 0.6330 0.1908
H11 H 0.5169 0.7811 0.1338
C11 C 0.3459(2) 0.81262(18) 0.26037(16)
H12 H 0.3837 0.9193 0.2532
H13 H 0.2392 0.7595 0.2077
C12 C 0.33614(19) 0.79403(18) 0.40602(15)
H14 H 0.3194 0.8797 0.4612
H15 H 0.2465 0.7010 0.4141
C13 C 0.68413(18) 0.75250(17) 0.61203(15)
H16 H 0.6809 0.7431 0.7081
C14 C 0.83888(19) 0.88711(18) 0.60569(18)
H17 H 0.8358 0.9239 0.5211
H18 H 0.8556 0.9698 0.6818
C15 C 0.96960(19) 0.81967(18) 0.61369(17)
H19 H 1.0720 0.8835 0.5847
H20 H 0.9906 0.8052 0.7055
C16 C 0.8955(2) 0.6706(2) 0.51774(19)
H21 H 0.9458 0.5998 0.5384
H22 H 0.9105 0.6841 0.4244
C17 C 0.71435(19) 0.61320(17) 0.53878(17)
H23 H 0.6892 0.5346 0.5938
H24 H 0.6467 0.5719 0.4522
loop_
_geom_bond_atom_site_label_1
_geom_bond_atom_site_label_2
_geom_bond_site_symmetry_1
_geom_bond_site_symmetry_2
S1 O1 1_555 1_555
O2 S1 1_555 1_555
N1 S1 1_555 1_555
N2 C8 1_555 1_555
C1 S1 1_555 1_555
C2 C1 1_555 1_555
H1 C2 1_555 1_555
C3 C2 1_555 1_555
H2 C3 1_555 1_555
C4 C3 1_555 1_555
C5 C4 1_555 1_555
H3 C5 1_555 1_555
C6 C1 1_555 1_555
H4 C6 1_555 1_555
C7 C4 1_555 1_555
H5 C7 1_555 1_555
H6 C7 1_555 1_555
H7 C7 1_555 1_555
C8 N1 1_555 1_555
C9 N2 1_555 1_555
H8 C9 1_555 1_555
H9 C9 1_555 1_555
C10 C9 1_555 1_555
H10 C10 1_555 1_555
H11 C10 1_555 1_555
C11 C10 1_555 1_555
H12 C11 1_555 1_555
H13 C11 1_555 1_555
C12 N2 1_555 1_555
H14 C12 1_555 1_555
H15 C12 1_555 1_555
C13 C8 1_555 1_555
H16 C13 1_555 1_555
C14 C13 1_555 1_555
H17 C14 1_555 1_555
H18 C14 1_555 1_555
C15 C14 1_555 1_555
H19 C15 1_555 1_555
H20 C15 1_555 1_555
C16 C15 1_555 1_555
H21 C16 1_555 1_555
H22 C16 1_555 1_555
C17 C13 1_555 1_555
H23 C17 1_555 1_555
H24 C17 1_555 1_555
C5 C6 1_555 1_555
C11 C12 1_555 1_555
C16 C17 1_555 1_555

#END
