
#######################################################################
#
#                 Cambridge Crystallographic Data Centre
#                                CCDC 
#
#######################################################################
#
# If this CIF has been generated from an entry in the Cambridge 
# Structural Database, then it will include bibliographic, chemical, 
# crystal, experimental, refinement or atomic coordinate data resulting 
# from the CCDC's data processing and validation procedures.
#
#######################################################################

data_BAYHIV
_chemical_formula_moiety         'C17 H10 B1 F2 N3 O1'
_chemical_name_systematic        
9,9-difluoro-7H,9H-10,9-benzo[g]pyrido[1',2':3,4][1,3,5,2]triazaborinino[6,1-a]isoindol-7-one
_symmetry_cell_setting           orthorhombic
_symmetry_space_group_name_H-M   'P c a 21'
_symmetry_Int_Tables_number      29
_space_group_name_Hall           'P 2c -2ac'
loop_
_symmetry_equiv_pos_site_id
_symmetry_equiv_pos_as_xyz
1 x,y,z
2 -x,-y,1/2+z
3 1/2+x,-y,z
4 1/2-x,y,1/2+z
_cell_length_a                   18.945(11)
_cell_length_b                   4.954(3)
_cell_length_c                   15.200(9)
_cell_angle_alpha                90
_cell_angle_beta                 90
_cell_angle_gamma                90
_cell_volume                     1426.57
_exptl_crystal_colour            yellow
_exptl_crystal_description       block
_cell_formula_units_Z            4
loop_
_atom_site_label
_atom_site_type_symbol
_atom_site_fract_x
_atom_site_fract_y
_atom_site_fract_z
B1 B 0.4570(3) -0.2285(13) 0.4361(4)
F1 F 0.51715(15) -0.1111(6) 0.4689(2)
F2 F 0.45261(17) -0.4917(6) 0.4649(2)
N1 N 0.4636(2) -0.2327(9) 0.3312(3)
N2 N 0.3911(2) -0.0684(7) 0.4539(3)
N3 N 0.3750(2) 0.1026(8) 0.3088(2)
O1 O 0.3772(2) -0.1298(9) 0.6041(2)
C1 C 0.3600(3) -0.0246(13) 0.5356(3)
C2 C 0.3024(3) 0.1730(12) 0.5201(4)
C3 C 0.3034(3) 0.2527(10) 0.4343(3)
C4 C 0.3588(3) 0.0967(10) 0.3914(3)
C5 C 0.4264(3) -0.0737(12) 0.2767(3)
C6 C 0.4377(4) -0.0811(13) 0.1874(4)
H1 H 0.4122 0.0336 0.1508
C7 C 0.4852(4) -0.2516(15) 0.1520(4)
H2 H 0.4927 -0.2563 0.0916
C8 C 0.5225(4) -0.4199(13) 0.2079(5)
H3 H 0.5550 -0.5420 0.1852
C9 C 0.5113(3) -0.4059(13) 0.2962(4)
H4 H 0.5370 -0.5178 0.3334
C10 C 0.2538(3) 0.2803(12) 0.5815(4)
H5 H 0.2542 0.2231 0.6398
C11 C 0.2064(3) 0.4690(14) 0.5537(3)
H6 H 0.1735 0.5403 0.5927
C12 C 0.2075(3) 0.5558(10) 0.4649(4)
C13 C 0.1581(3) 0.7569(13) 0.4348(5)
H7 H 0.1249 0.8290 0.4732
C14 C 0.1607(4) 0.8412(13) 0.3484(5)
H8 H 0.1296 0.9738 0.3293
C15 C 0.2083(3) 0.7336(13) 0.2902(4)
H9 H 0.2082 0.7935 0.2322
C16 C 0.2557(3) 0.5410(11) 0.3150(3)
H10 H 0.2873 0.4714 0.2741
C17 C 0.2569(3) 0.4480(10) 0.4019(3)
loop_
_geom_bond_atom_site_label_1
_geom_bond_atom_site_label_2
_geom_bond_site_symmetry_1
_geom_bond_site_symmetry_2
B1 F1 1_555 1_555
F2 B1 1_555 1_555
N1 B1 1_555 1_555
N2 B1 1_555 1_555
N3 C4 1_555 1_555
O1 C1 1_555 1_555
C1 N2 1_555 1_555
C2 C1 1_555 1_555
C3 C2 1_555 1_555
C4 N2 1_555 1_555
C5 N1 1_555 1_555
C6 C5 1_555 1_555
H1 C6 1_555 1_555
C7 C6 1_555 1_555
H2 C7 1_555 1_555
C8 C7 1_555 1_555
H3 C8 1_555 1_555
C9 N1 1_555 1_555
H4 C9 1_555 1_555
C10 C2 1_555 1_555
H5 C10 1_555 1_555
C11 C10 1_555 1_555
H6 C11 1_555 1_555
C12 C11 1_555 1_555
C13 C12 1_555 1_555
H7 C13 1_555 1_555
C14 C13 1_555 1_555
H8 C14 1_555 1_555
C15 C14 1_555 1_555
H9 C15 1_555 1_555
C16 C15 1_555 1_555
H10 C16 1_555 1_555
C17 C3 1_555 1_555
N3 C5 1_555 1_555
C3 C4 1_555 1_555
C8 C9 1_555 1_555
C12 C17 1_555 1_555
C16 C17 1_555 1_555

#END
