
#######################################################################
#
#                 Cambridge Crystallographic Data Centre
#                                CCDC 
#
#######################################################################
#
# If this CIF has been generated from an entry in the Cambridge 
# Structural Database, then it will include bibliographic, chemical, 
# crystal, experimental, refinement or atomic coordinate data resulting 
# from the CCDC's data processing and validation procedures.
#
#######################################################################

data_BAYJOD
_chemical_formula_moiety         'C39 H49 Ca1 N25 O16 2+,C9 H4 O6 2-,7.5(H2 O1)'
_chemical_name_systematic        
'(cucurbit[6]uril)-(N,N-dimethylformamide)-triaqua-calcium 5-carboxyisophthalate hydrate'
_symmetry_cell_setting           monoclinic
_symmetry_space_group_name_H-M   'P 21'
_symmetry_Int_Tables_number      4
_space_group_name_Hall           'P 2yb'
loop_
_symmetry_equiv_pos_site_id
_symmetry_equiv_pos_as_xyz
1 x,y,z
2 -x,1/2+y,-z
_cell_length_a                   12.5147(8)
_cell_length_b                   15.7437(9)
_cell_length_c                   16.2182(11)
_cell_angle_alpha                90
_cell_angle_beta                 110.299(2)
_cell_angle_gamma                90
_cell_volume                     2996.98
_exptl_crystal_colour            colorless
_exptl_crystal_description       block
_cell_formula_units_Z            2
loop_
_atom_site_label
_atom_site_type_symbol
_atom_site_fract_x
_atom_site_fract_y
_atom_site_fract_z
Ca1 Ca 0.57084(4) 0.40146(3) 0.29060(3)
O1 O 0.68277(16) 0.27051(12) 0.01929(12)
O2 O 0.48181(16) 0.21227(13) 0.09168(12)
O3 O 0.43676(16) 0.29115(12) 0.30258(12)
O4 O 0.56384(14) 0.42897(12) 0.43264(12)
O5 O 0.76599(15) 0.46942(13) 0.35484(12)
O6 O 0.83216(15) 0.39945(14) 0.16443(12)
O7 O 0.99539(15) 0.00770(13) 0.26395(12)
O8 O 0.75809(15) -0.07302(13) 0.32472(12)
O9 O 0.68690(16) -0.01033(13) 0.50857(13)
O10 O 0.86139(16) 0.13691(12) 0.62516(12)
O11 O 1.10539(15) 0.21291(13) 0.57516(12)
O12 O 1.18248(15) 0.14793(12) 0.38423(12)
O13 O 0.39403(17) 0.42585(14) 0.17639(16)
H1 H 0.3648 0.3771 0.1507
O14 O 0.55988(16) 0.54790(13) 0.26065(14)
H2 H 0.6000 0.5813 0.3103
H3 H 0.4844 0.5689 0.2408
O15 O 0.68745(17) 0.29051(13) 0.36620(13)
O16 O 0.61675(18) 0.36058(15) 0.16674(14)
H4 H 0.5998 0.4018 0.1271
H5 H 0.5777 0.3145 0.1424
N1 N 0.86216(18) 0.21060(15) 0.05400(14)
N2 N 0.71508(18) 0.12642(15) 0.03783(14)
N3 N 0.55699(18) 0.08136(15) 0.07979(14)
N4 N 0.47389(18) 0.09822(15) 0.17896(15)
N5 N 0.43406(18) 0.14498(15) 0.30779(14)
N6 N 0.44989(18) 0.21727(15) 0.42803(14)
N7 N 0.57136(17) 0.32029(15) 0.52965(14)
N8 N 0.72206(17) 0.40235(15) 0.55453(14)
N9 N 0.87164(18) 0.44323(14) 0.50067(14)
N10 N 0.95866(18) 0.43762(15) 0.40289(14)
N11 N 1.00621(17) 0.39486(15) 0.27672(14)
N12 N 0.97693(18) 0.31045(15) 0.16145(14)
N13 N 0.98428(17) 0.11103(14) 0.16013(14)
N14 N 0.83919(17) 0.02044(15) 0.13621(14)
N15 N 0.68265(17) -0.01910(15) 0.18329(15)
N16 N 0.57396(17) -0.02192(15) 0.26610(14)
N17 N 0.52191(18) 0.01855(15) 0.39146(14)
N18 N 0.56723(18) 0.10073(14) 0.50946(14)
N19 N 0.69030(17) 0.20285(15) 0.60979(14)
N20 N 0.84334(17) 0.28299(15) 0.62920(14)
N21 N 0.99607(17) 0.32915(15) 0.58070(14)
N22 N 1.09405(18) 0.33349(15) 0.49082(14)
N23 N 1.14425(19) 0.29154(14) 0.36516(14)
N24 N 1.12380(18) 0.21234(15) 0.24795(14)
N25 N 0.81635(19) 0.18914(16) 0.36688(16)
C1 C 0.7459(2) 0.20886(18) 0.03640(16)
C2 C 0.9126(2) 0.12753(17) 0.06955(17)
H6 H 0.9534 0.1145 0.0279
C3 C 0.8086(2) 0.06752(17) 0.05448(17)
H7 H 0.7976 0.0289 0.0032
C4 C 0.9456(2) 0.04303(17) 0.19438(16)
C5 C 0.5963(2) 0.10030(18) 0.00841(17)
H8 H 0.5486 0.1462 -0.0278
H9 H 0.5865 0.0493 -0.0293
C6 C 0.7730(2) -0.04768(17) 0.15309(18)
H10 H 0.8244 -0.0858 0.1980
H11 H 0.7390 -0.0811 0.0985
C7 C 0.5023(2) 0.13823(18) 0.11410(17)
C8 C 0.4986(2) 0.00771(18) 0.18159(17)
H12 H 0.4272 -0.0268 0.1600
C9 C 0.5688(2) -0.00123(17) 0.12125(18)
H13 H 0.5399 -0.0479 0.0773
C10 C 0.6800(2) -0.04172(17) 0.26424(18)
C11 C 0.3913(2) 0.13187(19) 0.21246(17)
H14 H 0.3255 0.0926 0.1971
H15 H 0.3637 0.1869 0.1832
C12 C 0.5328(2) -0.04910(17) 0.33489(17)
H16 H 0.4575 -0.0764 0.3075
H17 H 0.5857 -0.0924 0.3713
C13 C 0.4415(2) 0.22470(17) 0.34217(17)
C14 C 0.4303(2) 0.07936(17) 0.36969(17)
H18 H 0.3542 0.0508 0.3513
C15 C 0.4545(2) 0.13038(17) 0.45589(17)
H19 H 0.3968 0.1183 0.4843
C16 C 0.6018(2) 0.03277(17) 0.47408(17)
C17 C 0.4570(2) 0.28906(17) 0.48429(17)
H20 H 0.4227 0.2733 0.5287
H21 H 0.4109 0.3358 0.4485
C18 C 0.6240(2) 0.12522(17) 0.60028(17)
H22 H 0.6751 0.0786 0.6315
H23 H 0.5661 0.1333 0.6285
C19 C 0.6146(2) 0.38675(17) 0.49878(16)
C20 C 0.6496(2) 0.28713(17) 0.61261(16)
H24 H 0.6175 0.2934 0.6608
C21 C 0.7571(2) 0.34453(17) 0.62938(17)
H25 H 0.7778 0.3755 0.6866
C22 C 0.8053(2) 0.20061(18) 0.62182(16)
C23 C 0.7906(2) 0.47018(17) 0.53997(17)
H26 H 0.7397 0.5133 0.5015
H27 H 0.8321 0.4978 0.5970
C24 C 0.9637(2) 0.30247(18) 0.65361(17)
H28 H 0.9834 0.3480 0.6985
H29 H 1.0085 0.2515 0.6806
C25 C 0.8568(2) 0.45165(17) 0.41369(17)
C26 C 0.9869(2) 0.41743(17) 0.55261(17)
H30 H 1.0228 0.4569 0.6030
C27 C 1.0494(2) 0.41831(17) 0.48617(17)
H31 H 1.1113 0.4620 0.5014
C28 C 1.0692(2) 0.28490(18) 0.55095(17)
C29 C 0.9839(2) 0.46456(18) 0.32616(17)
H32 H 0.9187 0.4978 0.2873
H33 H 1.0512 0.5025 0.3452
C30 C 1.1843(2) 0.31231(18) 0.45760(17)
H34 H 1.2373 0.3610 0.4680
H35 H 1.2275 0.2633 0.4912
C31 C 0.9291(2) 0.37023(18) 0.19739(17)
C32 C 1.1158(2) 0.35328(18) 0.29527(17)
H36 H 1.1787 0.3953 0.3036
C33 C 1.0966(2) 0.29693(17) 0.21231(17)
H37 H 1.1468 0.3147 0.1790
C34 C 1.1524(2) 0.21044(18) 0.33773(17)
C35 C 0.9271(2) 0.28755(18) 0.06865(17)
H38 H 0.8771 0.3344 0.0365
H39 H 0.9889 0.2811 0.0442
C36 C 1.1031(2) 0.13651(18) 0.19490(17)
H40 H 1.1483 0.0894 0.2308
H41 H 1.1304 0.1459 0.1452
C37 C 0.8115(4) 0.2041(3) 0.2779(3)
H42 H 0.7636 0.1607 0.2391
H43 H 0.8885 0.2014 0.2754
H44 H 0.7790 0.2604 0.2588
C38 C 0.8901(3) 0.1202(2) 0.4134(2)
H45 H 0.8945 0.1200 0.4750
H46 H 0.9665 0.1283 0.4108
H47 H 0.8589 0.0660 0.3859
C39 C 0.7528(3) 0.2317(2) 0.40013(19)
H48 H 0.7570 0.2157 0.4577
H49 H 0.352(2) 0.461(2) 0.1828(19)
O17 O 0.23442(17) 0.54477(14) 0.16942(16)
O18 O 0.36906(16) 0.64159(13) 0.19525(14)
O19 O 0.0971(2) 0.97416(15) 0.07889(16)
O20 O 0.24721(16) 0.95261(13) 0.19941(13)
O21 O -0.21329(17) 0.75614(15) 0.10228(15)
O22 O -0.14314(19) 0.63177(16) 0.16218(18)
H50 H -0.1046 0.6287 0.2160
C40 C 0.1787(2) 0.68929(19) 0.16342(17)
C41 C 0.2068(2) 0.77365(18) 0.15949(16)
H51 H 0.2835 0.7885 0.1681
C42 C 0.1249(2) 0.83738(19) 0.14317(17)
C43 C 0.0122(2) 0.81405(19) 0.13101(17)
H52 H -0.0457 0.8562 0.1168
C44 C -0.0153(2) 0.73070(18) 0.13949(18)
C45 C 0.0684(2) 0.66706(19) 0.15624(17)
H53 H 0.0497 0.6095 0.1626
C46 C 0.2673(2) 0.61997(19) 0.17721(19)
C47 C 0.1590(2) 0.92811(19) 0.14085(18)
C48 C -0.1329(2) 0.7070(2) 0.13344(19)
O23 O 0.43715(19) 0.30209(15) 0.91164(15)
H54 H 0.3838 0.2664 0.9112
H55 H 0.4998 0.2891 0.9542
O24 O 0.48462(18) 0.27676(15) 0.75848(15)
H56 H 0.5281 0.2325 0.7640
H57 H 0.4716 0.2850 0.8071
O25 O 0.8072(6) 0.5817(5) 0.9808(4)
H58 H 0.7619 0.5483 0.9959
H59 H 0.8505 0.5516 0.9601
O26 O 0.6763(3) 0.4657(2) -0.0002(2)
O27 O 0.65552(19) 0.57760(18) 0.12675(18)
H60 H 0.6564 0.5351 0.0926
H61 H 0.710(3) 0.575(6) 0.1750(17)
O28 O 0.2405(2) 0.30256(19) 0.07670(16)
H62 H 0.2739 0.2815 0.0424
H63 H 0.1939 0.3426 0.0492
O29 O 0.0866(2) 0.43073(15) 0.05905(16)
H64 H 0.0311 0.4443 0.0111
H65 H 0.1016 0.4733 0.0953
O30 O 0.65961(17) 0.67897(16) 0.37332(14)
loop_
_geom_bond_atom_site_label_1
_geom_bond_atom_site_label_2
_geom_bond_site_symmetry_1
_geom_bond_site_symmetry_2
Ca1 O3 1_555 1_555
O1 C1 1_555 1_555
O2 C7 1_555 1_555
O3 C13 1_555 1_555
O4 Ca1 1_555 1_555
O5 Ca1 1_555 1_555
O6 C31 1_555 1_555
O7 C4 1_555 1_555
O8 C10 1_555 1_555
O9 C16 1_555 1_555
O10 C22 1_555 1_555
O11 C28 1_555 1_555
O12 C34 1_555 1_555
O13 Ca1 1_555 1_555
H1 O13 1_555 1_555
O14 Ca1 1_555 1_555
H2 O14 1_555 1_555
H3 O14 1_555 1_555
O15 Ca1 1_555 1_555
O16 Ca1 1_555 1_555
H4 O16 1_555 1_555
H5 O16 1_555 1_555
N1 C1 1_555 1_555
N2 C1 1_555 1_555
N3 C5 1_555 1_555
N4 C7 1_555 1_555
N5 C11 1_555 1_555
N6 C13 1_555 1_555
N7 C17 1_555 1_555
N8 C19 1_555 1_555
N9 C23 1_555 1_555
N10 C25 1_555 1_555
N11 C29 1_555 1_555
N12 C31 1_555 1_555
N13 C2 1_555 1_555
N14 C3 1_555 1_555
N15 C6 1_555 1_555
N16 C8 1_555 1_555
N17 C12 1_555 1_555
N18 C15 1_555 1_555
N19 C18 1_555 1_555
N20 C21 1_555 1_555
N21 C24 1_555 1_555
N22 C27 1_555 1_555
N23 C30 1_555 1_555
N24 C33 1_555 1_555
N25 C37 1_555 1_555
C2 N1 1_555 1_555
H6 C2 1_555 1_555
C3 N2 1_555 1_555
H7 C3 1_555 1_555
C4 N13 1_555 1_555
C5 N2 1_555 1_555
H8 C5 1_555 1_555
H9 C5 1_555 1_555
C6 N14 1_555 1_555
H10 C6 1_555 1_555
H11 C6 1_555 1_555
C7 N3 1_555 1_555
C8 N4 1_555 1_555
H12 C8 1_555 1_555
C9 N3 1_555 1_555
H13 C9 1_555 1_555
C10 N15 1_555 1_555
C11 N4 1_555 1_555
H14 C11 1_555 1_555
H15 C11 1_555 1_555
C12 N16 1_555 1_555
H16 C12 1_555 1_555
H17 C12 1_555 1_555
C13 N5 1_555 1_555
C14 N5 1_555 1_555
H18 C14 1_555 1_555
C15 N6 1_555 1_555
H19 C15 1_555 1_555
C16 N17 1_555 1_555
C17 N6 1_555 1_555
H20 C17 1_555 1_555
H21 C17 1_555 1_555
C18 N18 1_555 1_555
H22 C18 1_555 1_555
H23 C18 1_555 1_555
C19 O4 1_555 1_555
C20 N7 1_555 1_555
H24 C20 1_555 1_555
C21 N8 1_555 1_555
H25 C21 1_555 1_555
C22 N19 1_555 1_555
C23 N8 1_555 1_555
H26 C23 1_555 1_555
H27 C23 1_555 1_555
C24 N20 1_555 1_555
H28 C24 1_555 1_555
H29 C24 1_555 1_555
C25 O5 1_555 1_555
C26 N9 1_555 1_555
H30 C26 1_555 1_555
C27 N10 1_555 1_555
H31 C27 1_555 1_555
C28 N21 1_555 1_555
C29 N10 1_555 1_555
H32 C29 1_555 1_555
H33 C29 1_555 1_555
C30 N22 1_555 1_555
H34 C30 1_555 1_555
H35 C30 1_555 1_555
C31 N11 1_555 1_555
C32 N11 1_555 1_555
H36 C32 1_555 1_555
C33 N12 1_555 1_555
H37 C33 1_555 1_555
C34 N23 1_555 1_555
C35 N1 1_555 1_555
H38 C35 1_555 1_555
H39 C35 1_555 1_555
C36 N13 1_555 1_555
H40 C36 1_555 1_555
H41 C36 1_555 1_555
C37 H42 1_555 1_555
H43 C37 1_555 1_555
H44 C37 1_555 1_555
C38 N25 1_555 1_555
H45 C38 1_555 1_555
H46 C38 1_555 1_555
H47 C38 1_555 1_555
C39 O15 1_555 1_555
H48 C39 1_555 1_555
H49 O13 1_555 1_555
O17 C46 1_555 1_555
O18 C46 1_555 1_555
O19 C47 1_555 1_555
O20 C47 1_555 1_555
O21 C48 1_555 1_555
O22 H50 1_555 1_555
C40 C41 1_555 1_555
C41 H51 1_555 1_555
C42 C41 1_555 1_555
C43 C42 1_555 1_555
H52 C43 1_555 1_555
C44 C43 1_555 1_555
C45 C40 1_555 1_555
H53 C45 1_555 1_555
C46 C40 1_555 1_555
C47 C42 1_555 1_555
C48 O22 1_555 1_555
O23 H54 1_555 1_555
H55 O23 1_555 1_555
O24 H56 1_555 1_555
H57 O24 1_555 1_555
O25 H58 1_555 1_555
H59 O25 1_555 1_555
O27 H60 1_555 1_555
H61 O27 1_555 1_555
O28 H62 1_555 1_555
H63 O28 1_555 1_555
O29 H64 1_555 1_555
H65 O29 1_555 1_555
N7 C19 1_555 1_555
N9 C25 1_555 1_555
N12 C35 1_555 1_555
N14 C4 1_555 1_555
N15 C9 1_555 1_555
N16 C10 1_555 1_555
N17 C14 1_555 1_555
N18 C16 1_555 1_555
N19 C20 1_555 1_555
N20 C22 1_555 1_555
N21 C26 1_555 1_555
N22 C28 1_555 1_555
N23 C32 1_555 1_555
N24 C34 1_555 1_555
N24 C36 1_555 1_555
N25 C39 1_555 1_555
C2 C3 1_555 1_555
C8 C9 1_555 1_555
C14 C15 1_555 1_555
C20 C21 1_555 1_555
C26 C27 1_555 1_555
C32 C33 1_555 1_555
C44 C45 1_555 1_555
C44 C48 1_555 1_555

#END
