
#######################################################################
#
#                 Cambridge Crystallographic Data Centre
#                                CCDC 
#
#######################################################################
#
# If this CIF has been generated from an entry in the Cambridge 
# Structural Database, then it will include bibliographic, chemical, 
# crystal, experimental, refinement or atomic coordinate data resulting 
# from the CCDC's data processing and validation procedures.
#
#######################################################################

data_BAYKUI
_chemical_formula_moiety         'C21 H28 N2 O5 S1'
_chemical_name_systematic        
'((S)-(R*,R*)-6-(2-(Acetylthio)-1-oxo-3-phenylpropyl)amino)-hexahydro-2,2-dimethyl-7-oxo-1H-azepine-1-acetic acid'
_symmetry_cell_setting           orthorhombic
_symmetry_space_group_name_H-M   'P 21 21 21'
_symmetry_Int_Tables_number      19
_space_group_name_Hall           'P 2ac 2ab'
loop_
_symmetry_equiv_pos_site_id
_symmetry_equiv_pos_as_xyz
1 x,y,z
2 1/2-x,-y,1/2+z
3 1/2+x,1/2-y,-z
4 -x,1/2+y,1/2-z
_cell_length_a                   12.542(1)
_cell_length_b                   15.434(1)
_cell_length_c                   11.167(1)
_cell_angle_alpha                90
_cell_angle_beta                 90
_cell_angle_gamma                90
_cell_volume                     2161.63
_exptl_crystal_colour            colorless
_exptl_crystal_description       prisms
_chemical_melting_point          160-161deg.C
_cell_formula_units_Z            4
_exptl_crystal_recrystallization_method dichloromethane/hexanes
loop_
_atom_site_label
_atom_site_type_symbol
_atom_site_fract_x
_atom_site_fract_y
_atom_site_fract_z
N1 N 0.5033(2) 0.1828(2) 0.5645(3)
C1 C 0.4371(4) 0.1177(3) 0.6227(4)
C2 C 0.5753(5) 0.2222(5) 0.7653(4)
C3 C 0.5979(3) 0.2179(3) 0.6326(3)
C4 C 0.6317(4) 0.3136(4) 0.5926(5)
C5 C 0.5417(5) 0.3701(3) 0.5605(5)
C6 C 0.5111(4) 0.3623(3) 0.4310(4)
C7 C 0.5282(3) 0.2712(3) 0.3788(3)
C8 C 0.4709(3) 0.2021(3) 0.4531(3)
C9 C 0.3384(4) 0.1628(3) 0.6829(4)
O1 O 0.3185(3) 0.2367(2) 0.6783(4)
O2 O 0.2809(3) 0.1033(2) 0.7363(3)
O3 O 0.3920(2) 0.1669(2) 0.4083(3)
N2 N 0.4831(3) 0.2651(2) 0.2592(3)
C10 C 0.5257(3) 0.2971(3) 0.1609(3)
O4 O 0.6121(3) 0.3353(3) 0.1570(3)
C11 C 0.4664(3) 0.2872(3) 0.0432(4)
S1 S 0.3385(1) 0.2324(1) 0.0531(1)
C12 C 0.4488(4) 0.3760(3) -0.0179(4)
C13 C 0.3786(4) 0.4371(3) 0.0526(4)
C14 C 0.4211(4) 0.4927(3) 0.1386(4)
C15 C 0.3546(6) 0.5486(3) 0.2048(5)
C16 C 0.2467(5) 0.5478(3) 0.1841(5)
C17 C 0.2047(4) 0.4936(4) 0.0972(5)
C18 C 0.2684(4) 0.4392(3) 0.0330(5)
C19 C 0.3778(4) 0.1230(3) 0.0407(5)
O5 O 0.4688(3) 0.1013(3) 0.0282(6)
C20 C 0.2844(5) 0.0618(3) 0.0487(7)
C21 C 0.6953(4) 0.1632(4) 0.6064(5)
H1 H 0.4114 0.0711 0.5564
H2 H 0.4848 0.0841 0.6900
H3 H 0.6436 0.2481 0.8116
H4 H 0.5070 0.2642 0.7812
H5 H 0.5573 0.1583 0.7993
H6 H 0.6744 0.3432 0.6664
H7 H 0.6837 0.3089 0.5161
H8 H 0.4741 0.3540 0.6157
H9 H 0.5647 0.4372 0.5786
H10 H 0.4277 0.3789 0.4232
H11 H 0.5581 0.4084 0.3805
H12 H 0.6128 0.2574 0.3768
H13 H 0.4138 0.2327 0.2503
H14 H 0.5165 0.2517 -0.0175
H15 H 0.5257 0.4059 -0.0303
H16 H 0.4124 0.3642 -0.1041
H17 H 0.5063 0.4926 0.1533
H18 H 0.3897 0.5913 0.2730
H19 H 0.1942 0.5897 0.2343
H20 H 0.1210 0.4947 0.0768
H21 H 0.2327 0.3965 -0.0336
H22 H 0.7631 0.1874 0.6537
H23 H 0.6805 0.0962 0.6327
H24 H 0.7118 0.1638 0.5104
H25 H 0.3099 -0.0042 0.0394
H26 H 0.2429 0.0704 0.1323
H27 H 0.2280 0.0764 -0.0245
H28 H 0.2173 0.1314 0.7753
loop_
_geom_bond_atom_site_label_1
_geom_bond_atom_site_label_2
_geom_bond_site_symmetry_1
_geom_bond_site_symmetry_2
N1 C1 1_555 1_555
C1 C9 1_555 1_555
C2 C3 1_555 1_555
C3 N1 1_555 1_555
C4 C3 1_555 1_555
C5 C4 1_555 1_555
C6 C5 1_555 1_555
C7 C6 1_555 1_555
C8 N1 1_555 1_555
C9 O1 1_555 1_555
O2 C9 1_555 1_555
O3 C8 1_555 1_555
N2 C7 1_555 1_555
C10 N2 1_555 1_555
O4 C10 1_555 1_555
C11 C10 1_555 1_555
S1 C11 1_555 1_555
C12 C11 1_555 1_555
C13 C12 1_555 1_555
C14 C13 1_555 1_555
C15 C14 1_555 1_555
C16 C15 1_555 1_555
C17 C16 1_555 1_555
C18 C13 1_555 1_555
C19 S1 1_555 1_555
O5 C19 1_555 1_555
C20 C19 1_555 1_555
C21 C3 1_555 1_555
H1 C1 1_555 1_555
H2 C1 1_555 1_555
H3 C2 1_555 1_555
H4 C2 1_555 1_555
H5 C2 1_555 1_555
H6 C4 1_555 1_555
H7 C4 1_555 1_555
H8 C5 1_555 1_555
H9 C5 1_555 1_555
H10 C6 1_555 1_555
H11 C6 1_555 1_555
H12 C7 1_555 1_555
H13 N2 1_555 1_555
H14 C11 1_555 1_555
H15 C12 1_555 1_555
H16 C12 1_555 1_555
H17 C14 1_555 1_555
H18 C15 1_555 1_555
H19 C16 1_555 1_555
H20 C17 1_555 1_555
H21 C18 1_555 1_555
H22 C21 1_555 1_555
H23 C21 1_555 1_555
H24 C21 1_555 1_555
H25 C20 1_555 1_555
H26 C20 1_555 1_555
H27 C20 1_555 1_555
H28 O2 1_555 1_555
C7 C8 1_555 1_555
C17 C18 1_555 1_555

#END
