
#######################################################################
#
#                 Cambridge Crystallographic Data Centre
#                                CCDC 
#
#######################################################################
#
# If this CIF has been generated from an entry in the Cambridge 
# Structural Database, then it will include bibliographic, chemical, 
# crystal, experimental, refinement or atomic coordinate data resulting 
# from the CCDC's data processing and validation procedures.
#
#######################################################################

data_BAYLIY
_chemical_formula_moiety         'C13 H8 Br1 N5,C2 H6 O1 S1'
_chemical_name_systematic        
'3-(1H-benzimidazol-2-yl)-5-bromo-1H-pyrazolo[3,4-b]pyridine dimethyl sulfoxide solvate'
_symmetry_cell_setting           monoclinic
_symmetry_space_group_name_H-M   'P 21/c'
_symmetry_Int_Tables_number      14
_space_group_name_Hall           '-P 2ybc'
loop_
_symmetry_equiv_pos_site_id
_symmetry_equiv_pos_as_xyz
1 x,y,z
2 -x,1/2+y,1/2-z
3 -x,-y,-z
4 x,1/2-y,1/2+z
_cell_length_a                   8.5399(4)
_cell_length_b                   10.2371(6)
_cell_length_c                   18.5633(11)
_cell_angle_alpha                90
_cell_angle_beta                 94.712(4)
_cell_angle_gamma                90
_cell_volume                     1617.39
_exptl_crystal_colour            colorless
_exptl_crystal_description       stick
_cell_formula_units_Z            4
loop_
_atom_site_label
_atom_site_type_symbol
_atom_site_fract_x
_atom_site_fract_y
_atom_site_fract_z
Br1 Br 1.26088(4) 0.45826(3) 1.04603(2)
N1 N 1.1498(3) 1.0389(3) 0.92450(15)
N2 N 1.2941(3) 1.0109(3) 0.95771(15)
H1 H 1.3712 1.0679 0.9641
N3 N 1.4318(3) 0.8291(2) 1.01542(15)
N4 N 0.8126(3) 0.8202(2) 0.89224(14)
N5 N 0.8312(3) 1.0346(2) 0.86750(14)
H2 H 0.8724 1.1132 0.8656
C1 C 1.3050(4) 0.8851(3) 0.97974(17)
C2 C 1.4104(4) 0.7040(3) 1.03279(18)
H3 H 1.4946 0.6592 1.0587
C3 C 1.2697(4) 0.6349(3) 1.01469(18)
C4 C 1.1411(4) 0.6938(3) 0.97930(18)
H4 H 1.0452 0.6483 0.9683
C5 C 1.1597(4) 0.8249(3) 0.96029(17)
C6 C 1.0669(4) 0.9273(3) 0.92567(17)
C7 C 0.9039(4) 0.9248(3) 0.89587(17)
C8 C 0.6695(4) 0.8650(3) 0.85866(17)
C9 C 0.5303(4) 0.7967(3) 0.83870(17)
H5 H 0.5199 0.7067 0.8497
C10 C 0.4081(4) 0.8658(3) 0.80218(19)
H6 H 0.3124 0.8221 0.7880
C11 C 0.4229(4) 0.9974(3) 0.78602(19)
H7 H 0.3369 1.0407 0.7606
C12 C 0.5578(4) 1.0681(3) 0.80548(18)
H8 H 0.5665 1.1583 0.7945
C13 C 0.6809(4) 0.9985(3) 0.84241(17)
S1 S 0.03807(10) 0.37818(8) 0.85448(5)
O1 O -0.0925(3) 0.2886(2) 0.82658(13)
C14 C 0.2097(4) 0.3192(4) 0.8161(2)
H9 H 0.2432 0.2368 0.8394
H10 H 0.2942 0.3838 0.8236
H11 H 0.1859 0.3046 0.7641
C15 C 0.0131(4) 0.5258(3) 0.8021(2)
H12 H -0.0074 0.5036 0.7508
H13 H 0.1090 0.5786 0.8088
H14 H -0.0757 0.5757 0.8180
loop_
_geom_bond_atom_site_label_1
_geom_bond_atom_site_label_2
_geom_bond_site_symmetry_1
_geom_bond_site_symmetry_2
Br1 C3 1_555 1_555
N1 N2 1_555 1_555
N2 H1 1_555 1_555
N3 C1 1_555 1_555
N4 C7 1_555 1_555
N5 H2 1_555 1_555
C1 N2 1_555 1_555
C2 N3 1_555 1_555
H3 C2 1_555 1_555
C3 C2 1_555 1_555
C4 C3 1_555 1_555
H4 C4 1_555 1_555
C5 C1 1_555 1_555
C6 N1 1_555 1_555
C7 N5 1_555 1_555
C8 N4 1_555 1_555
C9 C8 1_555 1_555
H5 C9 1_555 1_555
C10 C9 1_555 1_555
H6 C10 1_555 1_555
C11 C10 1_555 1_555
H7 C11 1_555 1_555
C12 C11 1_555 1_555
H8 C12 1_555 1_555
C13 N5 1_555 1_555
S1 O1 1_555 1_555
C14 S1 1_555 1_555
H9 C14 1_555 1_555
H10 C14 1_555 1_555
H11 C14 1_555 1_555
C15 S1 1_555 1_555
H12 C15 1_555 1_555
H13 C15 1_555 1_555
H14 C15 1_555 1_555
C4 C5 1_555 1_555
C5 C6 1_555 1_555
C6 C7 1_555 1_555
C8 C13 1_555 1_555
C12 C13 1_555 1_555

#END
