
#######################################################################
#
#                 Cambridge Crystallographic Data Centre
#                                CCDC 
#
#######################################################################
#
# If this CIF has been generated from an entry in the Cambridge 
# Structural Database, then it will include bibliographic, chemical, 
# crystal, experimental, refinement or atomic coordinate data resulting 
# from the CCDC's data processing and validation procedures.
#
#######################################################################

data_BAYNAQ
_chemical_formula_moiety         'C17 H26 O5 S2'
_chemical_name_systematic        
4,7,7-Trimethyl-1-((4,4-dimethoxy-1-thiacyclohexan-2-yl)-thiocarbonyl-C)-2-oxabicyclo(2.2.1)heptan-3-one
_symmetry_cell_setting           monoclinic
_symmetry_space_group_name_H-M   'P 21'
_symmetry_Int_Tables_number      4
_space_group_name_Hall           'P 2yb'
loop_
_symmetry_equiv_pos_site_id
_symmetry_equiv_pos_as_xyz
1 x,y,z
2 -x,1/2+y,-z
_cell_length_a                   7.649(2)
_cell_length_b                   11.096(5)
_cell_length_c                   11.265(3)
_cell_angle_alpha                90
_cell_angle_beta                 93.99(1)
_cell_angle_gamma                90
_cell_volume                     953.78
_chemical_melting_point          134-5deg.C
_cell_formula_units_Z            2
loop_
_atom_site_label
_atom_site_type_symbol
_atom_site_fract_x
_atom_site_fract_y
_atom_site_fract_z
O1 O -0.09620 0.82880 0.86100
C1 C -0.24840 0.84420 0.91820
C2 C -0.29860 0.72490 0.96430
C3 C -0.15850 0.69830 1.06390
C4 C 0.01110 0.68070 0.99820
C5 C -0.05680 0.69960 0.86970
C6 C -0.24340 0.64300 0.85980
O2 O -0.31410 0.94290 0.92480
C7 C -0.48650 0.71790 0.99940
C8 C -0.34810 0.66840 0.74190
C9 C -0.24500 0.50620 0.88990
C10 C 0.05780 0.66390 0.77280
O3 O 0.12090 0.56310 0.77080
S1 S 0.09040 0.77160 0.66670
C11 C 0.19170 0.68950 0.55340
S2 S 0.01190 0.62180 0.46360
C12 C 0.13270 0.56620 0.34080
C13 C 0.23780 0.66770 0.28770
C14 C 0.37760 0.71590 0.37620
C15 C 0.29990 0.77470 0.48310
O4 O 0.49080 0.62580 0.42450
C16 C 0.58520 0.55700 0.34080
O5 O 0.46940 0.80080 0.31030
C17 C 0.60960 0.86040 0.37290
H1 H -0.18700 0.60600 1.11500
H2 H -0.10300 0.75600 1.12100
H3 H 0.08700 0.73900 1.02900
H4 H 0.07000 0.59200 1.00400
H5 H -0.56400 0.74900 0.93500
H6 H -0.49800 0.62100 1.01400
H7 H -0.49100 0.76700 1.07900
H8 H -0.29600 0.60000 0.66900
H9 H -0.33000 0.73600 0.71500
H10 H -0.47400 0.64600 0.76000
H11 H -0.15600 0.48500 0.95400
H12 H -0.34100 0.46000 0.84300
H13 H -0.17800 0.45700 0.81700
H14 H 0.25700 0.60200 0.59400
H15 H 0.20200 0.49200 0.37600
H16 H 0.02500 0.54500 0.28600
H17 H 0.15900 0.73100 0.24600
H18 H 0.28900 0.63000 0.20700
H19 H 0.40300 0.80900 0.52400
H20 H 0.22000 0.84600 0.44600
H21 H 0.65200 0.49100 0.38000
H22 H 0.51700 0.51100 0.29600
H23 H 0.66300 0.61300 0.28800
H24 H 0.69200 0.92500 0.31400
H25 H 0.69900 0.79700 0.44200
H26 H 0.59100 0.93600 0.43100
loop_
_geom_bond_atom_site_label_1
_geom_bond_atom_site_label_2
_geom_bond_site_symmetry_1
_geom_bond_site_symmetry_2
O1 C1 1_555 1_555
C1 C2 1_555 1_555
C2 C3 1_555 1_555
C3 C4 1_555 1_555
C4 C5 1_555 1_555
C5 O1 1_555 1_555
C6 C2 1_555 1_555
O2 C1 1_555 1_555
C7 C2 1_555 1_555
C8 C6 1_555 1_555
C9 C6 1_555 1_555
C10 C5 1_555 1_555
O3 C10 1_555 1_555
S1 C10 1_555 1_555
C11 S1 1_555 1_555
S2 C11 1_555 1_555
C12 S2 1_555 1_555
C13 C12 1_555 1_555
C14 C13 1_555 1_555
C15 C11 1_555 1_555
O4 C14 1_555 1_555
C16 O4 1_555 1_555
O5 C14 1_555 1_555
C17 O5 1_555 1_555
H1 C3 1_555 1_555
H2 C3 1_555 1_555
H3 C4 1_555 1_555
H4 C4 1_555 1_555
H5 C7 1_555 1_555
H6 C7 1_555 1_555
H7 C7 1_555 1_555
H8 C8 1_555 1_555
H9 C8 1_555 1_555
H10 C8 1_555 1_555
H11 C9 1_555 1_555
H12 C9 1_555 1_555
H13 C9 1_555 1_555
H14 C11 1_555 1_555
H15 C12 1_555 1_555
H16 C12 1_555 1_555
H17 C13 1_555 1_555
H18 C13 1_555 1_555
H19 C15 1_555 1_555
H20 C15 1_555 1_555
H21 C16 1_555 1_555
H22 C16 1_555 1_555
H23 C16 1_555 1_555
H24 C17 1_555 1_555
H25 C17 1_555 1_555
H26 C17 1_555 1_555
C5 C6 1_555 1_555
C14 C15 1_555 1_555

#END
