
#######################################################################
#
#                 Cambridge Crystallographic Data Centre
#                                CCDC 
#
#######################################################################
#
# If this CIF has been generated from an entry in the Cambridge 
# Structural Database, then it will include bibliographic, chemical, 
# crystal, experimental, refinement or atomic coordinate data resulting 
# from the CCDC's data processing and validation procedures.
#
#######################################################################

data_BAYZAF
_chemical_formula_moiety         'C36 H45 N1 O3 S1 Si1'
_chemical_name_systematic        
2-((t-butyl(diphenyl)silyl)oxy)-2-(cyclohex-1-en-1-yl)-1-((4-methylphenyl)sulfonyl)-4-(prop-1-en-2-yl)pyrrolidine
_symmetry_cell_setting           monoclinic
_symmetry_space_group_name_H-M   'P 21'
_symmetry_Int_Tables_number      4
_space_group_name_Hall           'P 2yb'
loop_
_symmetry_equiv_pos_site_id
_symmetry_equiv_pos_as_xyz
1 x,y,z
2 -x,1/2+y,-z
_cell_length_a                   10.0312(12)
_cell_length_b                   18.490(2)
_cell_length_c                   18.436(2)
_cell_angle_alpha                90
_cell_angle_beta                 92.804(4)
_cell_angle_gamma                90
_cell_volume                     3415.36
_exptl_crystal_colour            colorless
_exptl_crystal_description       block
_cell_formula_units_Z            4
loop_
_atom_site_label
_atom_site_type_symbol
_atom_site_fract_x
_atom_site_fract_y
_atom_site_fract_z
S1 S 0.83740(8) 0.52663(4) 0.29461(4)
Si1 Si 0.99770(8) 0.30390(4) 0.30552(4)
O1 O 0.7210(2) 0.50081(12) 0.25480(11)
O2 O 0.9611(2) 0.52975(13) 0.26006(11)
O3 O 1.01014(18) 0.38843(10) 0.33182(9)
N1 N 0.8594(2) 0.47839(14) 0.36735(12)
C1 C 1.1106(3) 0.24415(17) 0.36392(15)
C2 C 1.2082(3) 0.27415(19) 0.41109(16)
H1 H 1.2130 0.3241 0.4165
C3 C 1.2991(3) 0.2300(2) 0.45038(18)
H2 H 1.3639 0.2508 0.4816
C4 C 1.2929(4) 0.1571(3) 0.4430(2)
H3 H 1.3524 0.1280 0.4700
C5 C 1.1998(4) 0.1263(2) 0.3964(2)
H4 H 1.1972 0.0764 0.3907
C6 C 1.1098(3) 0.16930(19) 0.35762(18)
H5 H 1.0464 0.1475 0.3262
C7 C 0.8194(3) 0.27326(16) 0.30634(15)
C8 C 0.7768(3) 0.2124(2) 0.34284(19)
H6 H 0.8399 0.1830 0.3669
C9 C 0.6443(4) 0.1946(2) 0.3444(2)
H7 H 0.6189 0.1532 0.3689
C10 C 0.5500(4) 0.2368(3) 0.3106(2)
H8 H 0.4602 0.2248 0.3125
C11 C 0.5869(3) 0.2973(2) 0.27354(19)
H9 H 0.5222 0.3260 0.2499
C12 C 0.7205(3) 0.31551(19) 0.27132(17)
H10 H 0.7448 0.3566 0.2461
C13 C 0.7979(3) 0.61481(17) 0.32420(15)
C14 C 0.6661(3) 0.6360(2) 0.32586(18)
H11 H 0.5977 0.6035 0.3141
C15 C 0.6374(4) 0.7068(2) 0.3455(2)
H12 H 0.5487 0.7213 0.3468
C16 C 0.7372(4) 0.7562(2) 0.36301(19)
C17 C 0.8674(4) 0.7326(2) 0.36091(19)
H13 H 0.9364 0.7647 0.3732
C18 C 0.8982(4) 0.66253(19) 0.34091(19)
H14 H 0.9868 0.6482 0.3389
C19 C 0.7458(3) 0.4657(2) 0.41344(17)
H15 H 0.6625 0.4635 0.3845
H16 H 0.7397 0.5034 0.4497
C20 C 0.7784(3) 0.39313(17) 0.44858(14)
H17 H 0.7527 0.3555 0.4132
C21 C 0.9303(3) 0.39462(18) 0.45581(15)
H18 H 0.9654 0.3457 0.4573
H19 H 0.9599 0.4193 0.5002
C22 C 0.9796(3) 0.43526(16) 0.38908(14)
C23 C 1.1004(3) 0.48386(18) 0.40663(16)
C24 C 1.0887(5) 0.5378(2) 0.4657(2)
H20 H 1.0890 0.5124 0.5117
H21 H 1.0035 0.5622 0.4589
C25 C 1.1965(7) 0.5930(3) 0.4695(4)
H22 H 1.1717 0.6317 0.4359
H23 H 1.2010 0.6135 0.5180
C26 C 1.3263(7) 0.5683(4) 0.4535(4)
H24 H 1.3610 0.5389 0.4937
H25 H 1.3845 0.6099 0.4499
C27 C 1.3315(5) 0.5262(4) 0.3866(3)
H26 H 1.4109 0.4962 0.3896
H27 H 1.3399 0.5592 0.3462
C28 C 1.2124(3) 0.4786(2) 0.3710(2)
H28 H 1.2169 0.4438 0.3348
C29 C 1.0595(3) 0.30362(17) 0.21020(14)
C30 C 1.2093(3) 0.3192(3) 0.21306(19)
H29 H 1.2407 0.3189 0.1647
H30 H 1.2555 0.2827 0.2416
H31 H 1.2259 0.3657 0.2347
C31 C 0.9897(4) 0.36126(19) 0.16228(17)
H32 H 1.0235 0.3595 0.1145
H33 H 1.0064 0.4082 0.1830
H34 H 0.8953 0.3522 0.1593
C32 C 1.0342(4) 0.2295(2) 0.17598(18)
H35 H 1.0658 0.2292 0.1277
H36 H 0.9402 0.2194 0.1741
H37 H 1.0806 0.1933 0.2046
C33 C 0.7116(3) 0.3761(2) 0.51735(17)
C34 C 0.7298(5) 0.3018(3) 0.5438(3)
H38 H 0.6869 0.2963 0.5889
H39 H 0.8234 0.2917 0.5513
H40 H 0.6912 0.2686 0.5087
C35 C 0.6397(5) 0.4234(3) 0.5525(2)
H41 H 0.5997 0.4098 0.5949
H42 H 0.6293 0.4703 0.5349
C36 C 0.7065(5) 0.8333(2) 0.3810(3)
H43 H 0.6116 0.8404 0.3785
H44 H 0.7467 0.8647 0.3469
H45 H 0.7415 0.8441 0.4292
S2 S 1.26366(8) 0.74718(4) 0.22746(4)
Si2 Si 1.25320(8) 0.97425(4) 0.13939(4)
O4 O 1.3812(2) 0.79016(12) 0.23374(12)
O5 O 1.1915(2) 0.73236(13) 0.29107(10)
O6 O 1.27296(17) 0.88737(9) 0.12484(9)
N2 N 1.1569(2) 0.78675(12) 0.17171(12)
C37 C 1.1156(3) 0.98836(16) 0.20280(15)
C38 C 1.1169(3) 0.9532(2) 0.26900(16)
H46 H 1.1901 0.9246 0.2829
C39 C 1.0136(4) 0.9591(3) 0.31510(19)
H47 H 1.0175 0.9342 0.3590
C40 C 0.9046(5) 1.0014(3) 0.2966(2)
H48 H 0.8353 1.0058 0.3280
C41 C 0.8992(4) 1.0367(2) 0.2322(2)
H49 H 0.8257 1.0654 0.2192
C42 C 1.0026(3) 1.03021(18) 0.18583(17)
H50 H 0.9967 1.0546 0.1417
C43 C 1.2149(3) 1.02146(16) 0.05085(14)
C44 C 1.2181(3) 0.98414(17) -0.01494(15)
H51 H 1.2379 0.9350 -0.0144
C45 C 1.1926(3) 1.01820(19) -0.08064(16)
H52 H 1.1938 0.9918 -0.1235
C46 C 1.1653(4) 1.0912(2) -0.08311(18)
H53 H 1.1472 1.1141 -0.1274
C47 C 1.1651(4) 1.12957(19) -0.0197(2)
H54 H 1.1495 1.1791 -0.0209
C48 C 1.1880(3) 1.09473(17) 0.04649(17)
H55 H 1.1852 1.1215 0.0891
C49 C 1.3091(3) 0.66320(16) 0.19108(16)
C50 C 1.4348(3) 0.65372(19) 0.16613(19)
H56 H 1.4948 0.6921 0.1668
C51 C 1.4712(4) 0.5877(2) 0.1403(2)
H57 H 1.5569 0.5817 0.1241
C52 C 1.3851(4) 0.5303(2) 0.1376(2)
C53 C 1.2595(4) 0.5406(2) 0.1630(2)
H58 H 1.1999 0.5020 0.1623
C54 C 1.2196(3) 0.60641(18) 0.1895(2)
H59 H 1.1341 0.6125 0.2060
C55 C 1.0133(3) 0.77304(16) 0.17495(16)
H60 H 0.9865 0.7712 0.2248
H61 H 0.9882 0.7282 0.1507
C56 C 0.9524(3) 0.83784(15) 0.13505(15)
H62 H 0.9576 0.8791 0.1685
C57 C 1.0487(2) 0.85205(16) 0.07576(15)
H63 H 1.0484 0.9030 0.0634
H64 H 1.0223 0.8247 0.0325
C58 C 1.1897(2) 0.82866(14) 0.10448(14)
C59 C 1.2586(3) 0.78207(15) 0.04992(14)
C60 C 1.3778(3) 0.79797(18) 0.02650(17)
H65 H 1.4224 0.8375 0.0472
C61 C 1.4462(4) 0.7566(2) -0.0313(2)
H66 H 1.5176 0.7277 -0.0088
H67 H 1.4856 0.7904 -0.0643
C62 C 1.3486(4) 0.7070(2) -0.0743(2)
H68 H 1.2921 0.7357 -0.1074
H69 H 1.3981 0.6731 -0.1029
C63 C 1.2649(4) 0.6667(2) -0.0240(2)
H70 H 1.3218 0.6376 0.0084
H71 H 1.2059 0.6343 -0.0518
C64 C 1.1826(3) 0.71693(17) 0.02013(17)
H72 H 1.1483 0.6901 0.0604
H73 H 1.1068 0.7336 -0.0100
C65 C 0.8075(3) 0.82886(17) 0.10963(18)
C66 C 0.7191(4) 0.8019(3) 0.1640(3)
H74 H 0.6300 0.7978 0.1429
H75 H 0.7197 0.8349 0.2042
H76 H 0.7495 0.7553 0.1807
C67 C 0.7631(4) 0.8464(3) 0.0441(2)
H77 H 0.6727 0.8419 0.0310
H78 H 0.8218 0.8635 0.0106
C68 C 1.4194(3) 1.00744(16) 0.17873(16)
C69 C 1.4648(4) 0.9666(2) 0.2472(2)
H79 H 1.5490 0.9855 0.2655
H80 H 1.4744 0.9162 0.2360
H81 H 1.3996 0.9722 0.2832
C70 C 1.5231(4) 0.9978(2) 0.1210(2)
H82 H 1.6085 1.0145 0.1399
H83 H 1.4965 1.0252 0.0785
H84 H 1.5292 0.9476 0.1084
C71 C 1.4111(4) 1.0875(2) 0.1982(2)
H85 H 1.4961 1.1035 0.2184
H86 H 1.3445 1.0943 0.2333
H87 H 1.3875 1.1150 0.1553
C72 C 1.4293(5) 0.4579(2) 0.1087(3)
H88 H 1.5201 0.4614 0.0949
H89 H 1.3731 0.4448 0.0672
H90 H 1.4227 0.4218 0.1457
loop_
_geom_bond_atom_site_label_1
_geom_bond_atom_site_label_2
_geom_bond_site_symmetry_1
_geom_bond_site_symmetry_2
S1 O1 1_555 1_555
Si1 O3 1_555 1_555
O2 S1 1_555 1_555
O3 C22 1_555 1_555
N1 S1 1_555 1_555
C1 Si1 1_555 1_555
C2 C1 1_555 1_555
H1 C2 1_555 1_555
C3 C2 1_555 1_555
H2 C3 1_555 1_555
C4 C3 1_555 1_555
H3 C4 1_555 1_555
C5 C4 1_555 1_555
H4 C5 1_555 1_555
C6 C1 1_555 1_555
H5 C6 1_555 1_555
C7 Si1 1_555 1_555
C8 C7 1_555 1_555
H6 C8 1_555 1_555
C9 C8 1_555 1_555
H7 C9 1_555 1_555
C10 C9 1_555 1_555
H8 C10 1_555 1_555
C11 C10 1_555 1_555
H9 C11 1_555 1_555
C12 C7 1_555 1_555
H10 C12 1_555 1_555
C13 S1 1_555 1_555
C14 C13 1_555 1_555
H11 C14 1_555 1_555
C15 C14 1_555 1_555
H12 C15 1_555 1_555
C16 C15 1_555 1_555
C17 C16 1_555 1_555
H13 C17 1_555 1_555
C18 C13 1_555 1_555
H14 C18 1_555 1_555
C19 N1 1_555 1_555
H15 C19 1_555 1_555
H16 C19 1_555 1_555
C20 C19 1_555 1_555
H17 C20 1_555 1_555
C21 C20 1_555 1_555
H18 C21 1_555 1_555
H19 C21 1_555 1_555
C22 N1 1_555 1_555
C23 C22 1_555 1_555
C24 C23 1_555 1_555
H20 C24 1_555 1_555
H21 C24 1_555 1_555
C25 C24 1_555 1_555
H22 C25 1_555 1_555
H23 C25 1_555 1_555
C26 C25 1_555 1_555
H24 C26 1_555 1_555
H25 C26 1_555 1_555
C27 C26 1_555 1_555
H26 C27 1_555 1_555
H27 C27 1_555 1_555
C28 C23 1_555 1_555
H28 C28 1_555 1_555
C29 Si1 1_555 1_555
C30 C29 1_555 1_555
H29 C30 1_555 1_555
H30 C30 1_555 1_555
H31 C30 1_555 1_555
C31 C29 1_555 1_555
H32 C31 1_555 1_555
H33 C31 1_555 1_555
H34 C31 1_555 1_555
C32 C29 1_555 1_555
H35 C32 1_555 1_555
H36 C32 1_555 1_555
H37 C32 1_555 1_555
C33 C20 1_555 1_555
C34 C33 1_555 1_555
H38 C34 1_555 1_555
H39 C34 1_555 1_555
H40 C34 1_555 1_555
C35 C33 1_555 1_555
H41 C35 1_555 1_555
H42 C35 1_555 1_555
C36 C16 1_555 1_555
H43 C36 1_555 1_555
H44 C36 1_555 1_555
H45 C36 1_555 1_555
S2 O4 1_555 1_555
Si2 O6 1_555 1_555
O5 S2 1_555 1_555
O6 C58 1_555 1_555
N2 S2 1_555 1_555
C37 Si2 1_555 1_555
C38 C37 1_555 1_555
H46 C38 1_555 1_555
C39 C38 1_555 1_555
H47 C39 1_555 1_555
C40 C39 1_555 1_555
H48 C40 1_555 1_555
C41 C40 1_555 1_555
H49 C41 1_555 1_555
C42 C37 1_555 1_555
H50 C42 1_555 1_555
C43 Si2 1_555 1_555
C44 C43 1_555 1_555
H51 C44 1_555 1_555
C45 C44 1_555 1_555
H52 C45 1_555 1_555
C46 C45 1_555 1_555
H53 C46 1_555 1_555
C47 C46 1_555 1_555
H54 C47 1_555 1_555
C48 C43 1_555 1_555
H55 C48 1_555 1_555
C49 S2 1_555 1_555
C50 C49 1_555 1_555
H56 C50 1_555 1_555
C51 C50 1_555 1_555
H57 C51 1_555 1_555
C52 C51 1_555 1_555
C53 C52 1_555 1_555
H58 C53 1_555 1_555
C54 C49 1_555 1_555
H59 C54 1_555 1_555
C55 N2 1_555 1_555
H60 C55 1_555 1_555
H61 C55 1_555 1_555
C56 C55 1_555 1_555
H62 C56 1_555 1_555
C57 C56 1_555 1_555
H63 C57 1_555 1_555
H64 C57 1_555 1_555
C58 N2 1_555 1_555
C59 C58 1_555 1_555
C60 C59 1_555 1_555
H65 C60 1_555 1_555
C61 C60 1_555 1_555
H66 C61 1_555 1_555
H67 C61 1_555 1_555
C62 C61 1_555 1_555
H68 C62 1_555 1_555
H69 C62 1_555 1_555
C63 C62 1_555 1_555
H70 C63 1_555 1_555
H71 C63 1_555 1_555
C64 C59 1_555 1_555
H72 C64 1_555 1_555
H73 C64 1_555 1_555
C65 C56 1_555 1_555
C66 C65 1_555 1_555
H74 C66 1_555 1_555
H75 C66 1_555 1_555
H76 C66 1_555 1_555
C67 C65 1_555 1_555
H77 C67 1_555 1_555
H78 C67 1_555 1_555
C68 Si2 1_555 1_555
C69 C68 1_555 1_555
H79 C69 1_555 1_555
H80 C69 1_555 1_555
H81 C69 1_555 1_555
C70 C68 1_555 1_555
H82 C70 1_555 1_555
H83 C70 1_555 1_555
H84 C70 1_555 1_555
C71 C68 1_555 1_555
H85 C71 1_555 1_555
H86 C71 1_555 1_555
H87 C71 1_555 1_555
C72 C52 1_555 1_555
H88 C72 1_555 1_555
H89 C72 1_555 1_555
H90 C72 1_555 1_555
C5 C6 1_555 1_555
C11 C12 1_555 1_555
C17 C18 1_555 1_555
C21 C22 1_555 1_555
C27 C28 1_555 1_555
C41 C42 1_555 1_555
C47 C48 1_555 1_555
C53 C54 1_555 1_555
C57 C58 1_555 1_555
C63 C64 1_555 1_555

#END
