
#######################################################################
#
#                 Cambridge Crystallographic Data Centre
#                                CCDC 
#
#######################################################################
#
# If this CIF has been generated from an entry in the Cambridge 
# Structural Database, then it will include bibliographic, chemical, 
# crystal, experimental, refinement or atomic coordinate data resulting 
# from the CCDC's data processing and validation procedures.
#
#######################################################################

data_BAZCEK10
_chemical_formula_moiety         'C10 H18 N2 O3 Si1'
_chemical_name_systematic        1-Cyanopropyl-silatrane
_symmetry_cell_setting           orthorhombic
_symmetry_space_group_name_H-M   'P n a 21'
_symmetry_Int_Tables_number      33
_space_group_name_Hall           'P 2c -2n'
loop_
_symmetry_equiv_pos_site_id
_symmetry_equiv_pos_as_xyz
1 x,y,z
2 1/2-x,1/2+y,1/2+z
3 1/2+x,1/2-y,z
4 -x,-y,1/2+z
_cell_length_a                   12.797(3)
_cell_length_b                   11.843(2)
_cell_length_c                   8.163(2)
_cell_angle_alpha                90
_cell_angle_beta                 90
_cell_angle_gamma                90
_cell_volume                     1237.14
_exptl_crystal_colour            colorless
_cell_formula_units_Z            4
loop_
_atom_site_label
_atom_site_type_symbol
_atom_site_fract_x
_atom_site_fract_y
_atom_site_fract_z
H1 H 0.35200 0.34750 0.43380
H2 H 0.41650 0.40750 0.29000
H3 H 0.19800 0.39830 0.28050
H4 H 0.25860 0.32720 0.10000
H5 H 0.07850 0.22500 0.11870
H6 H 0.09940 0.11800 0.25020
H7 H 0.14300 0.07550 -0.03300
H8 H 0.23000 0.17540 -0.06660
H9 H 0.17240 0.07500 0.64580
H10 H 0.13310 0.03500 0.46600
H11 H 0.08250 0.22540 0.45390
H12 H 0.21620 0.26500 0.51620
H13 H 0.50000 0.05220 0.18330
H14 H 0.50830 0.04170 0.39720
H15 H 0.39920 -0.12500 0.18330
H16 H 0.39280 -0.12790 0.37500
H17 H 0.58930 -0.14020 0.16500
H18 H 0.59470 -0.15520 0.38540
C1 C 0.35890 0.33890 0.29080
C2 C 0.24830 0.33100 0.23620
C3 C 0.13910 0.16730 0.16170
C4 C 0.20980 0.11720 0.03450
C5 C 0.19200 0.09460 0.51400
C6 C 0.16990 0.21420 0.44920
C7 C 0.46670 0.02020 0.28850
C8 C 0.44890 -0.10590 0.28420
C9 C 0.55030 -0.17140 0.28430
C10 C 0.53670 -0.29340 0.28640
N1 N 0.20910 0.21860 0.28250
N2 N 0.52350 -0.38740 0.28180
O1 O 0.40950 0.23400 0.28660
O2 O 0.29130 0.05880 0.11490
O3 O 0.30030 0.07200 0.46330
Si1 Si 0.34610 0.11150 0.28430
loop_
_geom_bond_atom_site_label_1
_geom_bond_atom_site_label_2
_geom_bond_site_symmetry_1
_geom_bond_site_symmetry_2
H1 C1 1_555 1_555
H2 C1 1_555 1_555
H3 C2 1_555 1_555
H4 C2 1_555 1_555
H5 C3 1_555 1_555
H6 C3 1_555 1_555
H7 C4 1_555 1_555
H8 C4 1_555 1_555
H9 C5 1_555 1_555
H10 C5 1_555 1_555
H11 C6 1_555 1_555
H12 C6 1_555 1_555
H13 C7 1_555 1_555
H14 C7 1_555 1_555
H15 C8 1_555 1_555
H16 C8 1_555 1_555
H17 C9 1_555 1_555
H18 C9 1_555 1_555
C1 C2 1_555 1_555
C2 N1 1_555 1_555
C3 C4 1_555 1_555
C4 O2 1_555 1_555
C5 C6 1_555 1_555
C6 N1 1_555 1_555
C7 C8 1_555 1_555
C8 C9 1_555 1_555
C9 C10 1_555 1_555
C10 N2 1_555 1_555
N1 C3 1_555 1_555
O1 C1 1_555 1_555
O2 Si1 1_555 1_555
O3 C5 1_555 1_555
Si1 C7 1_555 1_555
N1 Si1 1_555 1_555
O1 Si1 1_555 1_555
O3 Si1 1_555 1_555

#END
