
#######################################################################
#
#                 Cambridge Crystallographic Data Centre
#                                CCDC 
#
#######################################################################
#
# If this CIF has been generated from an entry in the Cambridge 
# Structural Database, then it will include bibliographic, chemical, 
# crystal, experimental, refinement or atomic coordinate data resulting 
# from the CCDC's data processing and validation procedures.
#
#######################################################################

data_BAZCUA
_chemical_formula_moiety         'C16 H10,C12 H4 Br4 O2'
_chemical_name_systematic        "Pyrene 3,3',5,5'-tetrabromo-diphenoxinone"
_symmetry_cell_setting           monoclinic
_symmetry_space_group_name_H-M   'P 21/c'
_symmetry_Int_Tables_number      14
_space_group_name_Hall           '-P 2ybc'
loop_
_symmetry_equiv_pos_site_id
_symmetry_equiv_pos_as_xyz
1 x,y,z
2 -x,1/2+y,1/2-z
3 -x,-y,-z
4 x,1/2-y,1/2+z
_cell_length_a                   10.057(1)
_cell_length_b                   7.860(4)
_cell_length_c                   15.168(8)
_cell_angle_alpha                90
_cell_angle_beta                 106.35(2)
_cell_angle_gamma                90
_cell_volume                     1150.51
_exptl_crystal_colour            emerald-green
_cell_formula_units_Z            2
loop_
_atom_site_label
_atom_site_type_symbol
_atom_site_fract_x
_atom_site_fract_y
_atom_site_fract_z
Br1 Br 0.59266 0.08070 0.25899
Br2 Br 0.64764 -0.27330 0.59565
O1 O 0.51290 -0.13730 0.40300
C1 C 0.70500 -0.00160 0.37130
C2 C 0.63430 -0.10160 0.42810
C3 C 0.72760 -0.15210 0.51680
C4 C 0.86580 -0.11790 0.54370
C5 C 0.92980 -0.02290 0.48570
C6 C 0.84150 0.03290 0.39810
H1 H 0.91200 -0.15800 0.60000
H2 H 0.89500 0.07500 0.35600
C5B C 1.07020 0.02290 0.51430
C4B C 1.13420 0.11790 0.45630
C6B C 1.15850 -0.03290 0.60190
C3B C 1.27240 0.15210 0.48320
H1B H 1.08800 0.15800 0.40000
C1B C 1.29500 0.00160 0.62870
H2B H 1.10500 -0.07500 0.64400
Br2B Br 1.35236 0.27330 0.40435
C2B C 1.36570 0.10160 0.57190
Br1B Br 1.40734 -0.08070 0.74101
O1B O 1.48710 0.13730 0.59700
C7 C 0.97630 0.45360 0.53340
C8 C 1.06670 0.40860 0.61880
C9 C 1.01720 0.31330 0.68080
C10 C 0.87990 0.26370 0.65770
C11 C 0.78960 0.30650 0.57370
C12 C 0.83430 0.40250 0.50980
C13 C 0.74530 0.44950 0.42160
C14 C 1.20890 0.46300 0.63870
H3 H 1.08700 0.26700 0.72900
H4 H 0.83300 0.18900 0.69700
H5 H 0.71300 0.29400 0.56000
H6 H 0.67300 0.41100 0.40600
H7 H 1.25200 0.44700 0.68400
C7B C 1.02370 0.54640 0.46660
C14B C 0.79110 0.53700 0.36130
C13B C 1.25470 0.55050 0.57840
C8B C 0.93330 0.59140 0.38120
C12B C 1.16570 0.59750 0.49020
H7B H 0.74800 0.55300 0.31600
H6B H 1.32700 0.58900 0.59400
C9B C 0.98280 0.68670 0.31920
C11B C 1.21040 0.69350 0.42630
C10B C 1.12010 0.73630 0.34230
H3B H 0.91300 0.73300 0.27100
H5B H 1.28700 0.70600 0.44000
H4B H 1.16700 0.81100 0.30300
loop_
_geom_bond_atom_site_label_1
_geom_bond_atom_site_label_2
_geom_bond_site_symmetry_1
_geom_bond_site_symmetry_2
Br1 C1 1_555 1_555
Br2 C3 1_555 1_555
O1 C2 1_555 1_555
C1 C2 1_555 1_555
C2 C3 1_555 1_555
C3 C4 1_555 1_555
C4 C5 1_555 1_555
C5 C6 1_555 1_555
C6 C1 1_555 1_555
C7 C8 1_555 1_555
C8 C9 1_555 1_555
C9 C10 1_555 1_555
C10 C11 1_555 1_555
C11 C12 1_555 1_555
C12 C7 1_555 1_555
C13 C12 1_555 1_555
C14 C8 1_555 1_555
H1 C4 1_555 1_555
H2 C6 1_555 1_555
H3 C9 1_555 1_555
H4 C10 1_555 1_555
H5 C11 1_555 1_555
H6 C13 1_555 1_555
H7 C14 1_555 1_555
C5B C5 1_555 1_555
C4B C5B 1_555 1_555
C6B C5B 1_555 1_555
C3B C4B 1_555 1_555
H1B C4B 1_555 1_555
C1B C6B 1_555 1_555
H2B C6B 1_555 1_555
Br2B C3B 1_555 1_555
C2B C3B 1_555 1_555
Br1B C1B 1_555 1_555
O1B C2B 1_555 1_555
C7B C7 1_555 1_555
C14B C13 1_555 1_555
C13B C14 1_555 1_555
C8B C7B 1_555 1_555
C12B C7B 1_555 1_555
H7B C14B 1_555 1_555
H6B C13B 1_555 1_555
C9B C8B 1_555 1_555
C11B C12B 1_555 1_555
C10B C9B 1_555 1_555
H3B C9B 1_555 1_555
H5B C11B 1_555 1_555
H4B C10B 1_555 1_555
C1B C2B 1_555 1_555
C14B C8B 1_555 1_555
C13B C12B 1_555 1_555
C11B C10B 1_555 1_555

#END
