
#######################################################################
#
#                 Cambridge Crystallographic Data Centre
#                                CCDC 
#
#######################################################################
#
# If this CIF has been generated from an entry in the Cambridge 
# Structural Database, then it will include bibliographic, chemical, 
# crystal, experimental, refinement or atomic coordinate data resulting 
# from the CCDC's data processing and validation procedures.
#
#######################################################################

data_BAZJOB01
_chemical_formula_moiety         'C6 H7 N2 O2 1+,Cl1 1-'
_chemical_name_systematic        'p-Nitroaniline hydrochloride'
_symmetry_cell_setting           monoclinic
_symmetry_space_group_name_H-M   'P 21/n'
_symmetry_Int_Tables_number      14
_space_group_name_Hall           '-P 2yn'
loop_
_symmetry_equiv_pos_site_id
_symmetry_equiv_pos_as_xyz
1 x,y,z
2 1/2-x,1/2+y,1/2-z
3 -x,-y,-z
4 1/2+x,1/2-y,1/2+z
_cell_length_a                   4.9807(6)
_cell_length_b                   16.3438(16)
_cell_length_c                   9.3420(11)
_cell_angle_alpha                90
_cell_angle_beta                 93.874(11)
_cell_angle_gamma                90
_cell_volume                     758.734
_exptl_crystal_colour            'pale yellow'
_exptl_crystal_description       prism
_cell_formula_units_Z            4
loop_
_atom_site_label
_atom_site_type_symbol
_atom_site_fract_x
_atom_site_fract_y
_atom_site_fract_z
C1 C -0.0055(3) 0.37336(10) 0.69180(17)
C2 C -0.1985(4) 0.38229(11) 0.78991(19)
C3 C -0.2441(4) 0.45897(11) 0.8457(2)
C4 C -0.0946(3) 0.52411(10) 0.80137(17)
C5 C 0.0998(4) 0.51567(11) 0.70527(19)
C6 C 0.1434(4) 0.43861(11) 0.64865(19)
N1 N 0.0321(3) 0.29219(9) 0.63029(18)
N2 N -0.1468(3) 0.60624(9) 0.85809(15)
O1 O -0.3387(3) 0.61485(8) 0.93200(16)
O2 O 0.0003(3) 0.66209(8) 0.82757(17)
H1 H 0.202(4) 0.5590(13) 0.674(2)
H2 H -0.291(4) 0.3381(12) 0.819(2)
H3 H -0.380(5) 0.4672(14) 0.911(2)
H4 H 0.180(5) 0.2887(13) 0.572(3)
H5 H 0.275(4) 0.4296(13) 0.582(2)
H6 H 0.044(4) 0.2551(15) 0.699(2)
H7 H -0.106(5) 0.2815(14) 0.571(3)
Cl1 Cl 0.48420(9) 0.68867(3) 0.57885(4)
loop_
_geom_bond_atom_site_label_1
_geom_bond_atom_site_label_2
_geom_bond_site_symmetry_1
_geom_bond_site_symmetry_2
C1 C2 1_555 1_555
C2 C3 1_555 1_555
C3 C4 1_555 1_555
C4 C5 1_555 1_555
C5 C6 1_555 1_555
C6 C1 1_555 1_555
N1 C1 1_555 1_555
N2 C4 1_555 1_555
O1 N2 1_555 1_555
O2 N2 1_555 1_555
H1 C5 1_555 1_555
H2 C2 1_555 1_555
H3 C3 1_555 1_555
H4 N1 1_555 1_555
H5 C6 1_555 1_555
H6 N1 1_555 1_555
H7 N1 1_555 1_555

#END
