
#######################################################################
#
#                 Cambridge Crystallographic Data Centre
#                                CCDC 
#
#######################################################################
#
# If this CIF has been generated from an entry in the Cambridge 
# Structural Database, then it will include bibliographic, chemical, 
# crystal, experimental, refinement or atomic coordinate data resulting 
# from the CCDC's data processing and validation procedures.
#
#######################################################################

data_BAZNAR03
_chemical_name_common            'bis(collidine)iodanium perchlorate'
_chemical_formula_moiety         'C16 H22 I1 N2 1+,Cl1 O4 1-'
_chemical_name_systematic        
'bis(2,4,6-trimethylpyridine)iodanium perchlorate'
_symmetry_cell_setting           monoclinic
_symmetry_space_group_name_H-M   'C 2/c'
_symmetry_Int_Tables_number      15
_space_group_name_Hall           '-C 2yn'
loop_
_symmetry_equiv_pos_site_id
_symmetry_equiv_pos_as_xyz
1 x,y,z
2 1/2+x,1/2+y,z
3 -x,y,1/2-z
4 1/2-x,1/2+y,1/2-z
5 -x,-y,-z
6 1/2-x,1/2-y,-z
7 x,-y,1/2+z
8 1/2+x,1/2-y,1/2+z
_cell_length_a                   29.1018(8)
_cell_length_b                   8.5668(2)
_cell_length_c                   15.9883(5)
_cell_angle_alpha                90
_cell_angle_beta                 100.803(3)
_cell_angle_gamma                90
_cell_volume                     3915.39
_exptl_crystal_colour            colorless
_exptl_crystal_description       plate
_cell_formula_units_Z            8
loop_
_atom_site_label
_atom_site_type_symbol
_atom_site_fract_x
_atom_site_fract_y
_atom_site_fract_z
I1 I 0.7500 0.2500 0.5000
N1 N 0.74648(12) 0.0058(4) 0.4408(2)
C1 C 0.78544(15) -0.0812(6) 0.4458(3)
C2 C 0.78405(17) -0.2199(6) 0.4025(3)
C3 C 0.74319(19) -0.2717(6) 0.3523(3)
C4 C 0.70377(18) -0.1819(7) 0.3509(3)
C5 C 0.70528(17) -0.0449(6) 0.3950(3)
C6 C 0.83059(17) -0.0222(7) 0.4978(4)
C7 C 0.7407(3) -0.4201(8) 0.2999(4)
C8 C 0.6617(2) 0.0519(9) 0.3934(5)
H1 H 0.8109 -0.2787 0.4078
H2 H 0.6752 -0.2168 0.3196
H3 H 0.8538 -0.1013 0.4990
H4 H 0.8400 0.0709 0.4721
H5 H 0.8262 -0.0002 0.5545
H6 H 0.7166 -0.4864 0.3127
H7 H 0.7333 -0.3935 0.2406
H8 H 0.7701 -0.4738 0.3117
H9 H 0.6581 0.0732 0.4500
H10 H 0.6640 0.1493 0.3654
H11 H 0.6348 -0.0040 0.3650
N1E N 0.75352(12) 0.4942(4) 0.5592(2)
C1E C 0.71456(15) 0.5812(6) 0.5542(3)
C2E C 0.71595(17) 0.7199(6) 0.5975(3)
C3E C 0.75681(19) 0.7717(6) 0.6477(3)
C4E C 0.79623(18) 0.6819(7) 0.6491(3)
C5E C 0.79472(17) 0.5449(6) 0.6050(3)
C6E C 0.66941(17) 0.5222(7) 0.5022(4)
C7E C 0.7593(3) 0.9201(8) 0.7001(4)
C8E C 0.8383(2) 0.4481(9) 0.6066(5)
H1E H 0.6891 0.7787 0.5922
H2E H 0.8248 0.7168 0.6804
H3E H 0.6462 0.6013 0.5010
H4E H 0.6600 0.4291 0.5279
H5E H 0.6738 0.5002 0.4455
H6E H 0.7834 0.9864 0.6873
H7E H 0.7667 0.8935 0.7594
H8E H 0.7299 0.9738 0.6883
H9E H 0.8419 0.4268 0.5500
H10E H 0.8360 0.3507 0.6346
H11E H 0.8652 0.5040 0.6350
I2 I 0.5000 0.5000 0.5000
N2 N 0.53480(12) 0.4698(4) 0.3838(3)
C9 C 0.54983(16) 0.5960(5) 0.3466(4)
C10 C 0.57431(17) 0.5774(6) 0.2818(4)
C11 C 0.58413(16) 0.4314(7) 0.2531(3)
C12 C 0.56681(18) 0.3061(6) 0.2915(4)
C13 C 0.54230(16) 0.3242(5) 0.3559(3)
C14 C 0.5398(3) 0.7551(6) 0.3763(5)
C15 C 0.6120(2) 0.4108(10) 0.1846(4)
C16 C 0.5230(3) 0.1871(6) 0.3955(4)
H12 H 0.5836 0.6651 0.2562
H13 H 0.5716 0.2053 0.2729
H14 H 0.5531 0.8303 0.3450
H15 H 0.5530 0.7653 0.4356
H16 H 0.5066 0.7701 0.3675
H17 H 0.5972 0.3340 0.1456
H18 H 0.6428 0.3775 0.2097
H19 H 0.6137 0.5093 0.1564
H20 H 0.4898 0.1969 0.3906
H21 H 0.5380 0.1798 0.4541
H22 H 0.5295 0.0961 0.3660
N2D N 0.46520(12) 0.5302(4) 0.6162(3)
C9D C 0.45017(16) 0.4040(5) 0.6534(4)
C10D C 0.42569(17) 0.4226(6) 0.7182(4)
C11D C 0.41587(16) 0.5686(7) 0.7469(3)
C12D C 0.43319(18) 0.6939(6) 0.7085(4)
C13D C 0.45770(16) 0.6758(5) 0.6441(3)
C14D C 0.4602(3) 0.2449(6) 0.6237(5)
C15D C 0.3880(2) 0.5892(10) 0.8154(4)
C16D C 0.4770(3) 0.8129(6) 0.6045(4)
H12D H 0.4164 0.3349 0.7438
H13D H 0.4284 0.7947 0.7271
H14D H 0.4469 0.1697 0.6550
H15D H 0.4470 0.2347 0.5644
H16D H 0.4934 0.2299 0.6325
H17D H 0.4028 0.6660 0.8544
H18D H 0.3572 0.6225 0.7903
H19D H 0.3863 0.4907 0.8436
H20D H 0.5102 0.8031 0.6094
H21D H 0.4620 0.8202 0.5459
H22D H 0.4705 0.9039 0.6340
Cl1 Cl 0.61012(5) 0.06625(17) 0.62601(9)
O1 O 0.6058(6) 0.2106(8) 0.5885(7)
O2 O 0.5827(4) 0.0631(12) 0.6891(7)
O3 O 0.5931(5) -0.0449(11) 0.5647(6)
O4 O 0.6545(3) 0.031(2) 0.6621(9)
O5? O 0.5687(5) 0.141(2) 0.6057(13)
O6? O 0.6168(8) 0.001(2) 0.7051(6)
O7? O 0.6144(6) -0.0460(19) 0.5660(10)
O8? O 0.6465(5) 0.1732(19) 0.6270(12)
loop_
_geom_bond_atom_site_label_1
_geom_bond_atom_site_label_2
_geom_bond_site_symmetry_1
_geom_bond_site_symmetry_2
I1 N1 1_555 1_555
N1 C1 1_555 1_555
C1 C2 1_555 1_555
C2 C3 1_555 1_555
C3 C4 1_555 1_555
C4 C5 1_555 1_555
C5 N1 1_555 1_555
C6 C1 1_555 1_555
C7 C3 1_555 1_555
C8 C5 1_555 1_555
H1 C2 1_555 1_555
H2 C4 1_555 1_555
H3 C6 1_555 1_555
H4 C6 1_555 1_555
H5 C6 1_555 1_555
H6 C7 1_555 1_555
H7 C7 1_555 1_555
H8 C7 1_555 1_555
H9 C8 1_555 1_555
H10 C8 1_555 1_555
H11 C8 1_555 1_555
I2 N2 1_555 1_555
N2 C9 1_555 1_555
C9 C10 1_555 1_555
C10 C11 1_555 1_555
C11 C12 1_555 1_555
C12 C13 1_555 1_555
C13 N2 1_555 1_555
C14 C9 1_555 1_555
C15 C11 1_555 1_555
C16 C13 1_555 1_555
H12 C10 1_555 1_555
H13 C12 1_555 1_555
H14 C14 1_555 1_555
H15 C14 1_555 1_555
H16 C14 1_555 1_555
H17 C15 1_555 1_555
H18 C15 1_555 1_555
H19 C15 1_555 1_555
H20 C16 1_555 1_555
H21 C16 1_555 1_555
H22 C16 1_555 1_555
Cl1 O1 1_555 1_555
O2 Cl1 1_555 1_555
O3 Cl1 1_555 1_555
O4 Cl1 1_555 1_555
N1E I1 1_555 1_555
C1E N1E 1_555 1_555
C2E C1E 1_555 1_555
C3E C2E 1_555 1_555
C4E C3E 1_555 1_555
C5E N1E 1_555 1_555
C6E C1E 1_555 1_555
C7E C3E 1_555 1_555
C8E C5E 1_555 1_555
H1E C2E 1_555 1_555
H2E C4E 1_555 1_555
H3E C6E 1_555 1_555
H4E C6E 1_555 1_555
H5E C6E 1_555 1_555
H6E C7E 1_555 1_555
H7E C7E 1_555 1_555
H8E C7E 1_555 1_555
H9E C8E 1_555 1_555
H10E C8E 1_555 1_555
H11E C8E 1_555 1_555
N2D I2 1_555 1_555
C9D N2D 1_555 1_555
C10D C9D 1_555 1_555
C11D C10D 1_555 1_555
C12D C11D 1_555 1_555
C13D N2D 1_555 1_555
C14D C9D 1_555 1_555
C15D C11D 1_555 1_555
C16D C13D 1_555 1_555
H12D C10D 1_555 1_555
H13D C12D 1_555 1_555
H14D C14D 1_555 1_555
H15D C14D 1_555 1_555
H16D C14D 1_555 1_555
H17D C15D 1_555 1_555
H18D C15D 1_555 1_555
H19D C15D 1_555 1_555
H20D C16D 1_555 1_555
H21D C16D 1_555 1_555
H22D C16D 1_555 1_555
C4E C5E 1_555 1_555
C12D C13D 1_555 1_555

#END
