
#######################################################################
#
#                 Cambridge Crystallographic Data Centre
#                                CCDC 
#
#######################################################################
#
# If this CIF has been generated from an entry in the Cambridge 
# Structural Database, then it will include bibliographic, chemical, 
# crystal, experimental, refinement or atomic coordinate data resulting 
# from the CCDC's data processing and validation procedures.
#
#######################################################################

data_BAZNAR01
_chemical_name_common            'bis(collidine)iodanium perchlorate'
_chemical_formula_moiety         'C16 H22 I1 N2 1+,Cl1 O4 1-'
_chemical_name_systematic        
'bis(2,4,6-trimethylpyridine)iodanium perchlorate'
_symmetry_cell_setting           monoclinic
_symmetry_space_group_name_H-M   'C 2/c'
_symmetry_Int_Tables_number      15
_space_group_name_Hall           '-C 2yn'
loop_
_symmetry_equiv_pos_site_id
_symmetry_equiv_pos_as_xyz
1 x,y,z
2 1/2+x,1/2+y,z
3 -x,y,1/2-z
4 1/2-x,1/2+y,1/2-z
5 -x,-y,-z
6 1/2-x,1/2-y,-z
7 x,-y,1/2+z
8 1/2+x,1/2-y,1/2+z
_cell_length_a                   27.9017(9)
_cell_length_b                   11.0678(2)
_cell_length_c                   23.4625(8)
_cell_angle_alpha                90
_cell_angle_beta                 126.566(5)
_cell_angle_gamma                90
_cell_volume                     5819.35
_exptl_crystal_colour            colorless
_exptl_crystal_description       block
_cell_formula_units_Z            12
loop_
_atom_site_label
_atom_site_type_symbol
_atom_site_fract_x
_atom_site_fract_y
_atom_site_fract_z
I1 I 0.5000 0.0000 0.5000
N1 N 0.57693(10) 0.1190(2) 0.58639(11)
C1 C 0.58293(13) 0.2324(3) 0.57027(15)
C2 C 0.63357(13) 0.2991(3) 0.61873(16)
C3 C 0.67760(13) 0.2512(3) 0.68477(16)
C4 C 0.66910(13) 0.1370(3) 0.70023(15)
C5 C 0.61871(13) 0.0711(3) 0.65123(15)
C6 C 0.53369(15) 0.2862(3) 0.50020(17)
C7 C 0.73282(16) 0.3236(4) 0.7377(2)
C8 C 0.60807(18) -0.0521(3) 0.66904(19)
H1 H 0.6368 0.3770 0.6071
H2 H 0.6976 0.1028 0.7444
H3 H 0.5426 0.3701 0.5000
H4 H 0.5309 0.2432 0.4623
H5 H 0.4964 0.2795 0.4946
H6 H 0.7420 0.3211 0.7838
H7 H 0.7272 0.4052 0.7231
H8 H 0.7660 0.2940 0.7392
H9 H 0.5708 -0.0570 0.6640
H10 H 0.6068 -0.1121 0.6390
H11 H 0.6393 -0.0725 0.7173
N1D N 0.42307(10) -0.1190(2) 0.41361(11)
C1D C 0.41707(13) -0.2324(3) 0.42973(15)
C2D C 0.36643(13) -0.2991(3) 0.38127(16)
C3D C 0.32240(13) -0.2512(3) 0.31523(16)
C4D C 0.33090(13) -0.1370(3) 0.29977(15)
C5D C 0.38129(13) -0.0711(3) 0.34877(15)
C6D C 0.46631(15) -0.2862(3) 0.49980(17)
C7D C 0.26718(16) -0.3236(4) 0.2623(2)
C8D C 0.39193(18) 0.0521(3) 0.33096(19)
H1D H 0.3632 -0.3770 0.3929
H2D H 0.3024 -0.1028 0.2556
H3D H 0.4574 -0.3701 0.5000
H4D H 0.4691 -0.2432 0.5377
H5D H 0.5036 -0.2795 0.5054
H6D H 0.2580 -0.3211 0.2162
H7D H 0.2728 -0.4052 0.2769
H8D H 0.2340 -0.2940 0.2608
H9D H 0.4292 0.0570 0.3360
H10D H 0.3932 0.1121 0.3610
H11D H 0.3607 0.0725 0.2827
I2 I 0.793537(9) 0.05320(2) 0.642851(10)
N2 N 0.71995(12) 0.1769(3) 0.55766(14)
C9 C 0.66792(16) 0.1278(4) 0.5028(2)
C10 C 0.62487(17) 0.2012(4) 0.4488(2)
C11 C 0.63336(17) 0.3231(4) 0.44847(19)
C12 C 0.68668(17) 0.3698(3) 0.5049(2)
C13 C 0.72976(16) 0.2968(3) 0.55941(18)
C14 C 0.6583(2) -0.0059(4) 0.5025(3)
C15 C 0.5861(2) 0.4015(5) 0.3891(3)
C16 C 0.78716(19) 0.3510(4) 0.6210(2)
N3 N 0.87081(11) -0.0705(2) 0.72565(13)
C17 C 0.91235(15) -0.0280(3) 0.79205(17)
C18 C 0.96165(14) -0.0965(4) 0.83983(17)
C19 C 0.97034(14) -0.2082(4) 0.82231(18)
C20 C 0.92696(15) -0.2511(3) 0.75437(18)
C21 C 0.87724(15) -0.1819(3) 0.70670(17)
C22 C 0.9033(2) 0.0944(4) 0.8120(2)
C23 C 1.02474(17) -0.2830(5) 0.8741(2)
C24 C 0.83010(18) -0.2289(4) 0.6334(2)
H12 H 0.5896 0.1663 0.4113
H13 H 0.6940 0.4515 0.5070
H14 H 0.6598 -0.0294 0.5424
H15 H 0.6886 -0.0491 0.5047
H16 H 0.6204 -0.0269 0.4594
H17 H 0.5928 0.4827 0.4043
H18 H 0.5874 0.3947 0.3494
H19 H 0.5476 0.3774 0.3747
H20 H 0.7928 0.3289 0.6647
H21 H 0.8205 0.3230 0.6221
H22 H 0.7855 0.4365 0.6178
H23 H 0.9903 -0.0664 0.8847
H24 H 0.9315 -0.3275 0.7399
H25 H 0.8645 0.0970 0.8014
H26 H 0.9053 0.1563 0.7848
H27 H 0.9326 0.1091 0.8613
H28 H 1.0359 -0.2711 0.9209
H29 H 1.0566 -0.2595 0.8722
H30 H 1.0169 -0.3673 0.8624
H31 H 0.7924 -0.2234 0.6251
H32 H 0.8278 -0.1832 0.5972
H33 H 0.8379 -0.3105 0.6293
Cl1 Cl 0.65331(4) 0.64947(7) 0.56538(4)
O1 O 0.6394(2) 0.7588(3) 0.5829(2)
O2 O 0.60144(14) 0.5753(3) 0.52621(18)
O3 O 0.67269(17) 0.6739(3) 0.5223(2)
O4 O 0.69859(16) 0.5853(3) 0.62714(17)
Cl2? Cl 0.5117(2) 0.0981(2) 0.2560(5)
O5? O 0.4892(5) 0.1293(12) 0.2923(8)
O6? O 0.4723(5) 0.0254(11) 0.1995(6)
O7? O 0.5253(7) 0.1979(8) 0.2356(8)
O8? O 0.5635(4) 0.0315(10) 0.3012(6)
loop_
_geom_bond_atom_site_label_1
_geom_bond_atom_site_label_2
_geom_bond_site_symmetry_1
_geom_bond_site_symmetry_2
I1 N1 1_555 1_555
N1 C1 1_555 1_555
C1 C2 1_555 1_555
C2 C3 1_555 1_555
C3 C4 1_555 1_555
C4 C5 1_555 1_555
C5 N1 1_555 1_555
C6 C1 1_555 1_555
C7 C3 1_555 1_555
C8 C5 1_555 1_555
H1 C2 1_555 1_555
H2 C4 1_555 1_555
H3 C6 1_555 1_555
H4 C6 1_555 1_555
H5 C6 1_555 1_555
H6 C7 1_555 1_555
H7 C7 1_555 1_555
H8 C7 1_555 1_555
H9 C8 1_555 1_555
H10 C8 1_555 1_555
H11 C8 1_555 1_555
I2 N2 1_555 1_555
N2 C9 1_555 1_555
C9 C10 1_555 1_555
C10 C11 1_555 1_555
C11 C12 1_555 1_555
C12 C13 1_555 1_555
C13 N2 1_555 1_555
C14 C9 1_555 1_555
C15 C11 1_555 1_555
C16 C13 1_555 1_555
N3 I2 1_555 1_555
C17 N3 1_555 1_555
C18 C17 1_555 1_555
C19 C18 1_555 1_555
C20 C19 1_555 1_555
C21 N3 1_555 1_555
C22 C17 1_555 1_555
C23 C19 1_555 1_555
C24 C21 1_555 1_555
H12 C10 1_555 1_555
H13 C12 1_555 1_555
H14 C14 1_555 1_555
H15 C14 1_555 1_555
H16 C14 1_555 1_555
H17 C15 1_555 1_555
H18 C15 1_555 1_555
H19 C15 1_555 1_555
H20 C16 1_555 1_555
H21 C16 1_555 1_555
H22 C16 1_555 1_555
H23 C18 1_555 1_555
H24 C20 1_555 1_555
H25 C22 1_555 1_555
H26 C22 1_555 1_555
H27 C22 1_555 1_555
H28 C23 1_555 1_555
H29 C23 1_555 1_555
H30 C23 1_555 1_555
H31 C24 1_555 1_555
H32 C24 1_555 1_555
H33 C24 1_555 1_555
Cl1 O1 1_555 1_555
O2 Cl1 1_555 1_555
O3 Cl1 1_555 1_555
O4 Cl1 1_555 1_555
N1D I1 1_555 1_555
C1D N1D 1_555 1_555
C2D C1D 1_555 1_555
C3D C2D 1_555 1_555
C4D C3D 1_555 1_555
C5D N1D 1_555 1_555
C6D C1D 1_555 1_555
C7D C3D 1_555 1_555
C8D C5D 1_555 1_555
H1D C2D 1_555 1_555
H2D C4D 1_555 1_555
H3D C6D 1_555 1_555
H4D C6D 1_555 1_555
H5D C6D 1_555 1_555
H6D C7D 1_555 1_555
H7D C7D 1_555 1_555
H8D C7D 1_555 1_555
H9D C8D 1_555 1_555
H10D C8D 1_555 1_555
H11D C8D 1_555 1_555
C20 C21 1_555 1_555
C4D C5D 1_555 1_555

#END
