
#######################################################################
#
#                 Cambridge Crystallographic Data Centre
#                                CCDC 
#
#######################################################################
#
# If this CIF has been generated from an entry in the Cambridge 
# Structural Database, then it will include bibliographic, chemical, 
# crystal, experimental, refinement or atomic coordinate data resulting 
# from the CCDC's data processing and validation procedures.
#
#######################################################################

data_BAZNAR02
_chemical_name_common            'bis(collidine)iodanium perchlorate'
_chemical_formula_moiety         'C16 H22 I1 N2 1+,Cl1 O4 1-'
_chemical_name_systematic        
'bis(2,4,6-trimethylpyridine)iodanium perchlorate'
_symmetry_cell_setting           monoclinic
_symmetry_space_group_name_H-M   'C 2/c'
_symmetry_Int_Tables_number      15
_space_group_name_Hall           '-C 2yn'
loop_
_symmetry_equiv_pos_site_id
_symmetry_equiv_pos_as_xyz
1 x,y,z
2 1/2+x,1/2+y,z
3 -x,y,1/2-z
4 1/2-x,1/2+y,1/2-z
5 -x,-y,-z
6 1/2-x,1/2-y,-z
7 x,-y,1/2+z
8 1/2+x,1/2-y,1/2+z
_cell_length_a                   27.2651(14)
_cell_length_b                   10.9468(3)
_cell_length_c                   23.2069(12)
_cell_angle_alpha                90
_cell_angle_beta                 126.137(8)
_cell_angle_gamma                90
_cell_volume                     5593.87
_exptl_crystal_colour            colorless
_exptl_crystal_description       block
_cell_formula_units_Z            12
loop_
_atom_site_label
_atom_site_type_symbol
_atom_site_fract_x
_atom_site_fract_y
_atom_site_fract_z
I1 I 0.5000 0.0000 0.5000
N1 N 0.57702(13) 0.1203(3) 0.58717(15)
C1 C 0.58435(16) 0.2351(4) 0.57086(19)
C2 C 0.63577(17) 0.3021(4) 0.6198(2)
C3 C 0.67970(16) 0.2540(4) 0.6870(2)
C4 C 0.66954(17) 0.1386(4) 0.70312(19)
C5 C 0.61812(17) 0.0727(4) 0.6531(2)
C6 C 0.53469(18) 0.2886(4) 0.4998(2)
C7 C 0.73562(18) 0.3257(4) 0.7414(2)
C8 C 0.6054(2) -0.0503(4) 0.6704(2)
H1 H 0.6409 0.3793 0.6084
H2 H 0.6977 0.1055 0.7483
H3 H 0.5438 0.3726 0.4979
H4 H 0.5306 0.2433 0.4623
H5 H 0.4972 0.2844 0.4948
H6 H 0.7383 0.3412 0.7840
H7 H 0.7360 0.4019 0.7220
H8 H 0.7707 0.2821 0.7546
H9 H 0.5665 -0.0551 0.6631
H10 H 0.6062 -0.1113 0.6418
H11 H 0.6363 -0.0699 0.7200
N1D N 0.42298(13) -0.1203(3) 0.41283(15)
C1D C 0.41565(16) -0.2351(4) 0.42914(19)
C2D C 0.36423(17) -0.3021(4) 0.3802(2)
C3D C 0.32030(16) -0.2540(4) 0.3130(2)
C4D C 0.33046(17) -0.1386(4) 0.29688(19)
C5D C 0.38188(17) -0.0727(4) 0.3469(2)
C6D C 0.46531(18) -0.2886(4) 0.5002(2)
C7D C 0.26438(18) -0.3257(4) 0.2586(2)
C8D C 0.3946(2) 0.0503(4) 0.3296(2)
H1D H 0.3591 -0.3793 0.3916
H2D H 0.3023 -0.1055 0.2517
H3D H 0.4562 -0.3726 0.5021
H4D H 0.4694 -0.2433 0.5377
H5D H 0.5028 -0.2844 0.5052
H6D H 0.2617 -0.3412 0.2160
H7D H 0.2640 -0.4019 0.2780
H8D H 0.2293 -0.2821 0.2454
H9D H 0.4335 0.0551 0.3369
H10D H 0.3938 0.1113 0.3582
H11D H 0.3637 0.0699 0.2800
I2 I 0.793801(11) 0.05543(2) 0.643843(12)
N2 N 0.72039(16) 0.1799(3) 0.55781(18)
C9 C 0.6680(2) 0.1298(4) 0.5015(2)
C10 C 0.6244(2) 0.2029(4) 0.4470(2)
C11 C 0.6327(2) 0.3276(4) 0.4468(2)
C12 C 0.6868(2) 0.3762(4) 0.5047(2)
C13 C 0.73003(19) 0.3020(4) 0.5599(2)
C14 C 0.6590(3) -0.0060(5) 0.5005(3)
C15 C 0.5848(2) 0.4062(5) 0.3866(3)
C16 C 0.7877(2) 0.3558(4) 0.6228(3)
N3 N 0.87084(15) -0.0708(3) 0.72676(17)
C17 C 0.91238(19) -0.0284(4) 0.7944(2)
C18 C 0.96236(18) -0.0978(4) 0.8427(2)
C19 C 0.97246(17) -0.2110(4) 0.8244(2)
C20 C 0.92923(18) -0.2529(4) 0.7550(2)
C21 C 0.87870(17) -0.1824(4) 0.7072(2)
C22 C 0.9020(2) 0.0942(5) 0.8149(2)
C23 C 1.02758(19) -0.2853(5) 0.8765(2)
C24 C 0.83125(19) -0.2289(4) 0.6331(2)
H12 H 0.5882 0.1672 0.4092
H13 H 0.6940 0.4595 0.5069
H14 H 0.6597 -0.0281 0.5408
H15 H 0.6908 -0.0493 0.5035
H16 H 0.6206 -0.0278 0.4570
H17 H 0.5912 0.4896 0.4002
H18 H 0.5859 0.3977 0.3464
H19 H 0.5456 0.3821 0.3728
H20 H 0.7891 0.3411 0.6649
H21 H 0.8226 0.3218 0.6285
H22 H 0.7877 0.4412 0.6159
H23 H 0.9905 -0.0685 0.8884
H24 H 0.9347 -0.3279 0.7409
H25 H 0.8615 0.0974 0.8020
H26 H 0.9077 0.1571 0.7893
H27 H 0.9313 0.1051 0.8657
H28 H 1.0295 -0.2959 0.9183
H29 H 1.0631 -0.2445 0.8879
H30 H 1.0249 -0.3635 0.8571
H31 H 0.7916 -0.2251 0.6233
H32 H 0.8305 -0.1816 0.5974
H33 H 0.8398 -0.3116 0.6289
Cl1 Cl 0.65260(4) 0.65251(8) 0.56382(5)
O1 O 0.63702(17) 0.7638(3) 0.58204(19)
O2 O 0.59958(14) 0.5762(3) 0.52384(17)
O3 O 0.67388(15) 0.6801(3) 0.52131(17)
O4 O 0.69943(14) 0.5885(3) 0.62781(16)
Cl2? Cl 0.5097(3) 0.1044(2) 0.2559(5)
O5? O 0.4887(5) 0.1548(11) 0.2930(6)
O6? O 0.4645(6) 0.0305(13) 0.2002(8)
O7? O 0.5256(7) 0.1995(8) 0.2293(7)
O8? O 0.5618(5) 0.0321(10) 0.3023(7)
loop_
_geom_bond_atom_site_label_1
_geom_bond_atom_site_label_2
_geom_bond_site_symmetry_1
_geom_bond_site_symmetry_2
I1 N1 1_555 1_555
N1 C1 1_555 1_555
C1 C2 1_555 1_555
C2 C3 1_555 1_555
C3 C4 1_555 1_555
C4 C5 1_555 1_555
C5 N1 1_555 1_555
C6 C1 1_555 1_555
C7 C3 1_555 1_555
C8 C5 1_555 1_555
H1 C2 1_555 1_555
H2 C4 1_555 1_555
H3 C6 1_555 1_555
H4 C6 1_555 1_555
H5 C6 1_555 1_555
H6 C7 1_555 1_555
H7 C7 1_555 1_555
H8 C7 1_555 1_555
H9 C8 1_555 1_555
H10 C8 1_555 1_555
H11 C8 1_555 1_555
I2 N2 1_555 1_555
N2 C9 1_555 1_555
C9 C10 1_555 1_555
C10 C11 1_555 1_555
C11 C12 1_555 1_555
C12 C13 1_555 1_555
C13 N2 1_555 1_555
C14 C9 1_555 1_555
C15 C11 1_555 1_555
C16 C13 1_555 1_555
N3 I2 1_555 1_555
C17 N3 1_555 1_555
C18 C17 1_555 1_555
C19 C18 1_555 1_555
C20 C19 1_555 1_555
C21 N3 1_555 1_555
C22 C17 1_555 1_555
C23 C19 1_555 1_555
C24 C21 1_555 1_555
H12 C10 1_555 1_555
H13 C12 1_555 1_555
H14 C14 1_555 1_555
H15 C14 1_555 1_555
H16 C14 1_555 1_555
H17 C15 1_555 1_555
H18 C15 1_555 1_555
H19 C15 1_555 1_555
H20 C16 1_555 1_555
H21 C16 1_555 1_555
H22 C16 1_555 1_555
H23 C18 1_555 1_555
H24 C20 1_555 1_555
H25 C22 1_555 1_555
H26 C22 1_555 1_555
H27 C22 1_555 1_555
H28 C23 1_555 1_555
H29 C23 1_555 1_555
H30 C23 1_555 1_555
H31 C24 1_555 1_555
H32 C24 1_555 1_555
H33 C24 1_555 1_555
Cl1 O1 1_555 1_555
O2 Cl1 1_555 1_555
O3 Cl1 1_555 1_555
O4 Cl1 1_555 1_555
N1D I1 1_555 1_555
C1D N1D 1_555 1_555
C2D C1D 1_555 1_555
C3D C2D 1_555 1_555
C4D C3D 1_555 1_555
C5D N1D 1_555 1_555
C6D C1D 1_555 1_555
C7D C3D 1_555 1_555
C8D C5D 1_555 1_555
H1D C2D 1_555 1_555
H2D C4D 1_555 1_555
H3D C6D 1_555 1_555
H4D C6D 1_555 1_555
H5D C6D 1_555 1_555
H6D C7D 1_555 1_555
H7D C7D 1_555 1_555
H8D C7D 1_555 1_555
H9D C8D 1_555 1_555
H10D C8D 1_555 1_555
H11D C8D 1_555 1_555
C20 C21 1_555 1_555
C4D C5D 1_555 1_555

#END
