
#######################################################################
#
#                 Cambridge Crystallographic Data Centre
#                                CCDC 
#
#######################################################################
#
# If this CIF has been generated from an entry in the Cambridge 
# Structural Database, then it will include bibliographic, chemical, 
# crystal, experimental, refinement or atomic coordinate data resulting 
# from the CCDC's data processing and validation procedures.
#
#######################################################################

data_BAZNAR04
_chemical_name_common            'bis(collidine)iodanium perchlorate'
_chemical_formula_moiety         'C16 H22 I1 N2 1+,Cl1 O4 1-'
_chemical_name_systematic        
'bis(2,4,6-trimethylpyridine)iodanium perchlorate'
_symmetry_cell_setting           monoclinic
_symmetry_space_group_name_H-M   'C 2/c'
_symmetry_Int_Tables_number      15
_space_group_name_Hall           '-C 2yn'
loop_
_symmetry_equiv_pos_site_id
_symmetry_equiv_pos_as_xyz
1 x,y,z
2 1/2+x,1/2+y,z
3 -x,y,1/2-z
4 1/2-x,1/2+y,1/2-z
5 -x,-y,-z
6 1/2-x,1/2-y,-z
7 x,-y,1/2+z
8 1/2+x,1/2-y,1/2+z
_cell_length_a                   29.0825(6)
_cell_length_b                   8.5757(2)
_cell_length_c                   15.4139(3)
_cell_angle_alpha                90
_cell_angle_beta                 102.602(2)
_cell_angle_gamma                90
_cell_volume                     3751.66
_exptl_crystal_colour            colorless
_exptl_crystal_description       plate
_cell_formula_units_Z            8
loop_
_atom_site_label
_atom_site_type_symbol
_atom_site_fract_x
_atom_site_fract_y
_atom_site_fract_z
I1 I 0.7500 0.2500 0.5000
N1 N 0.74490(12) 0.0040(3) 0.4430(2)
C1 C 0.78439(13) -0.0821(4) 0.4463(2)
C2 C 0.78199(13) -0.2215(5) 0.4010(3)
C3 C 0.73925(14) -0.2758(5) 0.3503(3)
C4 C 0.69932(14) -0.1869(5) 0.3509(3)
C5 C 0.70256(14) -0.0490(5) 0.3983(3)
C6 C 0.83064(14) -0.0210(5) 0.4990(3)
C7 C 0.73570(17) -0.4223(6) 0.2959(3)
C8 C 0.65898(16) 0.0457(7) 0.3998(4)
H1 H 0.8096 -0.2790 0.4042
H2 H 0.6698 -0.2205 0.3179
H3 H 0.8551 -0.0972 0.4996
H4 H 0.8391 0.0738 0.4737
H5 H 0.8285 -0.0009 0.5583
H6 H 0.7086 -0.4822 0.2993
H7 H 0.7333 -0.3939 0.2358
H8 H 0.7631 -0.4851 0.3134
H9 H 0.6565 0.0668 0.4602
H10 H 0.6601 0.1438 0.3691
H11 H 0.6319 -0.0110 0.3695
N1E N 0.75510(12) 0.4960(3) 0.5570(2)
C1E C 0.71561(13) 0.5821(4) 0.5537(2)
C2E C 0.71801(13) 0.7215(5) 0.5990(3)
C3E C 0.76075(14) 0.7758(5) 0.6497(3)
C4E C 0.80068(14) 0.6869(5) 0.6491(3)
C5E C 0.79744(14) 0.5490(5) 0.6017(3)
C6E C 0.66936(14) 0.5210(5) 0.5010(3)
C7E C 0.76430(17) 0.9223(6) 0.7041(3)
C8E C 0.84102(16) 0.4543(7) 0.6002(4)
H1E H 0.6904 0.7790 0.5958
H2E H 0.8302 0.7205 0.6821
H3E H 0.6449 0.5972 0.5004
H4E H 0.6609 0.4262 0.5263
H5E H 0.6715 0.5009 0.4417
H6E H 0.7914 0.9822 0.7007
H7E H 0.7667 0.8939 0.7642
H8E H 0.7369 0.9851 0.6866
H9E H 0.8435 0.4332 0.5398
H10E H 0.8399 0.3562 0.6309
H11E H 0.8681 0.5110 0.6305
I2 I 0.5000 0.5000 0.5000
N2 N 0.53526(11) 0.4679(4) 0.3828(2)
C9 C 0.54934(12) 0.5931(4) 0.3423(3)
C10 C 0.57378(13) 0.5751(4) 0.2754(3)
C11 C 0.58448(12) 0.4261(5) 0.2486(3)
C12 C 0.56795(14) 0.3002(5) 0.2891(3)
C13 C 0.54346(14) 0.3212(4) 0.3557(3)
C14 C 0.53766(17) 0.7531(4) 0.3702(3)
C15 C 0.61263(15) 0.4045(5) 0.1792(3)
C16 C 0.5255(2) 0.1849(5) 0.3988(4)
H12 H 0.5829 0.6623 0.2474
H13 H 0.5732 0.1995 0.2710
H14 H 0.5465 0.8273 0.3306
H15 H 0.5551 0.7735 0.4307
H16 H 0.5047 0.7615 0.3671
H17 H 0.5972 0.3299 0.1357
H18 H 0.6439 0.3688 0.2070
H19 H 0.6149 0.5026 0.1509
H20 H 0.4923 0.1944 0.3972
H21 H 0.5424 0.1777 0.4607
H22 H 0.5309 0.0922 0.3679
N2D N 0.46474(11) 0.5321(4) 0.6172(2)
C9D C 0.45066(12) 0.4069(4) 0.6577(3)
C10D C 0.42622(13) 0.4249(4) 0.7246(3)
C11D C 0.41552(12) 0.5739(5) 0.7514(3)
C12D C 0.43205(14) 0.6998(5) 0.7109(3)
C13D C 0.45654(14) 0.6788(4) 0.6443(3)
C14D C 0.46234(17) 0.2469(4) 0.6298(3)
C15D C 0.38737(15) 0.5955(5) 0.8208(3)
C16D C 0.4745(2) 0.8151(5) 0.6012(4)
H12D H 0.4171 0.3377 0.7526
H13D H 0.4268 0.8005 0.7290
H14D H 0.4535 0.1727 0.6694
H15D H 0.4449 0.2265 0.5693
H16D H 0.4953 0.2385 0.6329
H17D H 0.4028 0.6701 0.8643
H18D H 0.3561 0.6312 0.7930
H19D H 0.3851 0.4974 0.8491
H20D H 0.5077 0.8056 0.6028
H21D H 0.4576 0.8223 0.5393
H22D H 0.4691 0.9078 0.6321
Cl1 Cl 0.61060(4) 0.04983(12) 0.63223(7)
O1 O 0.6197(3) 0.1980(6) 0.6039(4)
O2 O 0.57960(16) 0.0623(4) 0.6918(4)
O3 O 0.5926(2) -0.0515(5) 0.5598(3)
O4 O 0.65184(16) -0.0230(6) 0.6826(4)
loop_
_geom_bond_atom_site_label_1
_geom_bond_atom_site_label_2
_geom_bond_site_symmetry_1
_geom_bond_site_symmetry_2
I1 N1 1_555 1_555
N1 C1 1_555 1_555
C1 C2 1_555 1_555
C2 C3 1_555 1_555
C3 C4 1_555 1_555
C4 C5 1_555 1_555
C5 N1 1_555 1_555
C6 C1 1_555 1_555
C7 C3 1_555 1_555
C8 C5 1_555 1_555
H1 C2 1_555 1_555
H2 C4 1_555 1_555
H3 C6 1_555 1_555
H4 C6 1_555 1_555
H5 C6 1_555 1_555
H6 C7 1_555 1_555
H7 C7 1_555 1_555
H8 C7 1_555 1_555
H9 C8 1_555 1_555
H10 C8 1_555 1_555
H11 C8 1_555 1_555
I2 N2 1_555 1_555
N2 C9 1_555 1_555
C9 C10 1_555 1_555
C10 C11 1_555 1_555
C11 C12 1_555 1_555
C12 C13 1_555 1_555
C13 N2 1_555 1_555
C14 C9 1_555 1_555
C15 C11 1_555 1_555
C16 C13 1_555 1_555
H12 C10 1_555 1_555
H13 C12 1_555 1_555
H14 C14 1_555 1_555
H15 C14 1_555 1_555
H16 C14 1_555 1_555
H17 C15 1_555 1_555
H18 C15 1_555 1_555
H19 C15 1_555 1_555
H20 C16 1_555 1_555
H21 C16 1_555 1_555
H22 C16 1_555 1_555
Cl1 O1 1_555 1_555
O2 Cl1 1_555 1_555
O3 Cl1 1_555 1_555
O4 Cl1 1_555 1_555
N1E I1 1_555 1_555
C1E N1E 1_555 1_555
C2E C1E 1_555 1_555
C3E C2E 1_555 1_555
C4E C3E 1_555 1_555
C5E N1E 1_555 1_555
C6E C1E 1_555 1_555
C7E C3E 1_555 1_555
C8E C5E 1_555 1_555
H1E C2E 1_555 1_555
H2E C4E 1_555 1_555
H3E C6E 1_555 1_555
H4E C6E 1_555 1_555
H5E C6E 1_555 1_555
H6E C7E 1_555 1_555
H7E C7E 1_555 1_555
H8E C7E 1_555 1_555
H9E C8E 1_555 1_555
H10E C8E 1_555 1_555
H11E C8E 1_555 1_555
N2D I2 1_555 1_555
C9D N2D 1_555 1_555
C10D C9D 1_555 1_555
C11D C10D 1_555 1_555
C12D C11D 1_555 1_555
C13D N2D 1_555 1_555
C14D C9D 1_555 1_555
C15D C11D 1_555 1_555
C16D C13D 1_555 1_555
H12D C10D 1_555 1_555
H13D C12D 1_555 1_555
H14D C14D 1_555 1_555
H15D C14D 1_555 1_555
H16D C14D 1_555 1_555
H17D C15D 1_555 1_555
H18D C15D 1_555 1_555
H19D C15D 1_555 1_555
H20D C16D 1_555 1_555
H21D C16D 1_555 1_555
H22D C16D 1_555 1_555
C4E C5E 1_555 1_555
C12D C13D 1_555 1_555

#END
