
#######################################################################
#
#                 Cambridge Crystallographic Data Centre
#                                CCDC 
#
#######################################################################
#
# If this CIF has been generated from an entry in the Cambridge 
# Structural Database, then it will include bibliographic, chemical, 
# crystal, experimental, refinement or atomic coordinate data resulting 
# from the CCDC's data processing and validation procedures.
#
#######################################################################

data_BAZQOJ
_chemical_formula_moiety         'C26 H28 N2 O12'
_chemical_name_systematic        
'diethyl [2,3-di(ethoxycarbonyl)-2,3-di(p-nitrophenyl)]succinate'
_symmetry_cell_setting           monoclinic
_symmetry_space_group_name_H-M   'P 21/c'
_symmetry_Int_Tables_number      14
_space_group_name_Hall           '-P 2ybc'
loop_
_symmetry_equiv_pos_site_id
_symmetry_equiv_pos_as_xyz
1 x,y,z
2 -x,1/2+y,1/2-z
3 -x,-y,-z
4 x,1/2-y,1/2+z
_cell_length_a                   13.561(7)
_cell_length_b                   14.614(4)
_cell_length_c                   15.148(9)
_cell_angle_alpha                90
_cell_angle_beta                 112.44(5)
_cell_angle_gamma                90
_cell_volume                     2774.72
_exptl_crystal_colour            colorless
_exptl_crystal_description       prism
_chemical_melting_point          415-416K
_cell_formula_units_Z            4
_exptl_crystal_recrystallization_method methanol
loop_
_atom_site_label
_atom_site_type_symbol
_atom_site_fract_x
_atom_site_fract_y
_atom_site_fract_z
O1 O 0.04430(17) 0.40404(16) 0.29968(18)
O2 O 0.01396(18) 0.25813(17) 0.32671(17)
O3 O 0.03450(17) 0.2914(2) 0.13999(16)
O4 O 0.20097(17) 0.27706(15) 0.14559(15)
O5 O 0.37611(17) 0.42759(16) 0.48510(15)
O6 O 0.21538(19) 0.38010(16) 0.47526(16)
O7 O 0.23254(18) 0.53453(15) 0.33713(16)
O8 O 0.16891(18) 0.46829(16) 0.19343(17)
O9 O 0.4166(3) -0.0869(2) 0.4518(2)
O10 O 0.3776(3) -0.0470(2) 0.5712(2)
O11 O 0.6945(3) 0.3515(3) 0.2604(3)
O12 O 0.7268(2) 0.2492(3) 0.3659(3)
N1 N 0.3727(3) -0.0361(2) 0.4895(3)
N2 N 0.6685(3) 0.3049(3) 0.3134(3)
C1 C 0.1716(2) 0.2945(2) 0.2939(2)
C2 C 0.2588(2) 0.3741(2) 0.3337(2)
C3 C 0.2182(2) 0.2025(2) 0.3414(2)
C4 C 0.2185(3) 0.1810(2) 0.4310(2)
H1 H 0.1849 0.2202 0.4590
C5 C 0.2673(3) 0.1033(2) 0.4793(3)
H2 H 0.2673 0.0903 0.5394
C6 C 0.3162(3) 0.0452(2) 0.4369(3)
C7 C 0.3157(3) 0.0620(2) 0.3480(3)
H3 H 0.3478 0.0215 0.3198
C8 C 0.2663(3) 0.1408(2) 0.3005(2)
H4 H 0.2654 0.1526 0.2399
C9 C 0.3650(2) 0.3517(2) 0.3225(2)
C10 C 0.4374(2) 0.2915(2) 0.3863(2)
H5 H 0.4194 0.2629 0.4329
C11 C 0.5353(3) 0.2736(2) 0.3818(2)
H6 H 0.5828 0.2328 0.4240
C12 C 0.5608(2) 0.3179(2) 0.3130(2)
C13 C 0.4912(3) 0.3757(2) 0.2477(2)
H7 H 0.5095 0.4031 0.2006
C14 C 0.3931(2) 0.3928(2) 0.2529(2)
H8 H 0.3455 0.4324 0.2092
C15 C 0.0674(2) 0.3155(2) 0.3102(2)
C16 C -0.0527(3) 0.4316(3) 0.3113(5)
H9 H -0.1087 0.4412 0.2489
H10 H -0.0755 0.3830 0.3429
C17 C -0.0375(5) 0.5121(5) 0.3652(5)
H11 H -0.1034 0.5293 0.3705
H12 H -0.0148 0.5603 0.3341
H13 H 0.0160 0.5021 0.4278
C18 C 0.1393(3) 0.2877(2) 0.1845(2)
C19 C -0.0080(3) 0.2979(5) 0.0357(3)
H14 H 0.0502 0.2974 0.0133
H15 H -0.0537 0.2458 0.0080
C20 C -0.0685(7) 0.3820(4) 0.0061(4)
H16 H -0.0964 0.3865 -0.0623
H17 H -0.0228 0.4334 0.0333
H18 H -0.1264 0.3819 0.0279
C21 C 0.2791(3) 0.3929(2) 0.4394(2)
C22 C 0.4050(3) 0.4530(3) 0.5844(2)
H19 H 0.3415 0.4711 0.5948
H20 H 0.4533 0.5048 0.5994
C23 C 0.4568(4) 0.3755(3) 0.6477(3)
H21 H 0.4756 0.3935 0.7131
H22 H 0.5201 0.3581 0.6378
H23 H 0.4085 0.3246 0.6335
C24 C 0.2126(2) 0.4637(2) 0.2779(2)
C25 C 0.1931(3) 0.6235(2) 0.2934(3)
H24 H 0.1160 0.6222 0.2609
H25 H 0.2242 0.6390 0.2473
C26 C 0.2252(4) 0.6919(3) 0.3728(3)
H26 H 0.2017 0.7517 0.3472
H27 H 0.3015 0.6918 0.4049
H28 H 0.1932 0.6761 0.4174
loop_
_geom_bond_atom_site_label_1
_geom_bond_atom_site_label_2
_geom_bond_site_symmetry_1
_geom_bond_site_symmetry_2
O1 C15 1_555 1_555
O2 C15 1_555 1_555
O3 C18 1_555 1_555
O4 C18 1_555 1_555
O5 C21 1_555 1_555
O6 C21 1_555 1_555
O7 C24 1_555 1_555
O8 C24 1_555 1_555
O9 N1 1_555 1_555
O10 N1 1_555 1_555
O11 N2 1_555 1_555
O12 N2 1_555 1_555
N1 C6 1_555 1_555
N2 C12 1_555 1_555
C1 C2 1_555 1_555
C2 C9 1_555 1_555
C3 C1 1_555 1_555
C4 C3 1_555 1_555
H1 C4 1_555 1_555
C5 C4 1_555 1_555
H2 C5 1_555 1_555
C6 C5 1_555 1_555
C7 C6 1_555 1_555
H3 C7 1_555 1_555
C8 C3 1_555 1_555
H4 C8 1_555 1_555
C9 C10 1_555 1_555
C10 H5 1_555 1_555
C11 C10 1_555 1_555
H6 C11 1_555 1_555
C12 C11 1_555 1_555
C13 C12 1_555 1_555
H7 C13 1_555 1_555
C14 C9 1_555 1_555
H8 C14 1_555 1_555
C15 C1 1_555 1_555
C16 O1 1_555 1_555
H9 C16 1_555 1_555
H10 C16 1_555 1_555
C17 C16 1_555 1_555
H11 C17 1_555 1_555
H12 C17 1_555 1_555
H13 C17 1_555 1_555
C18 C1 1_555 1_555
C19 O3 1_555 1_555
H14 C19 1_555 1_555
H15 C19 1_555 1_555
C20 C19 1_555 1_555
H16 C20 1_555 1_555
H17 C20 1_555 1_555
H18 C20 1_555 1_555
C21 C2 1_555 1_555
C22 O5 1_555 1_555
H19 C22 1_555 1_555
H20 C22 1_555 1_555
C23 C22 1_555 1_555
H21 C23 1_555 1_555
H22 C23 1_555 1_555
H23 C23 1_555 1_555
C24 C2 1_555 1_555
C25 O7 1_555 1_555
H24 C25 1_555 1_555
H25 C25 1_555 1_555
C26 C25 1_555 1_555
H26 C26 1_555 1_555
H27 C26 1_555 1_555
H28 C26 1_555 1_555
C7 C8 1_555 1_555
C13 C14 1_555 1_555

#END
