
#######################################################################
#
#                 Cambridge Crystallographic Data Centre
#                                CCDC 
#
#######################################################################
#
# If this CIF has been generated from an entry in the Cambridge 
# Structural Database, then it will include bibliographic, chemical, 
# crystal, experimental, refinement or atomic coordinate data resulting 
# from the CCDC's data processing and validation procedures.
#
#######################################################################

data_BAZVEE
_chemical_formula_moiety         'C18 H18 N8 S2'
_chemical_name_systematic        
bis(1-(2,6-Dimethylphenyl)-1,2,3,4-tetrazol-5-yl)disulfane
_symmetry_cell_setting           monoclinic
_symmetry_space_group_name_H-M   'P 21/c'
_symmetry_Int_Tables_number      14
_space_group_name_Hall           '-P 2ybc'
loop_
_symmetry_equiv_pos_site_id
_symmetry_equiv_pos_as_xyz
1 x,y,z
2 x,1/2-y,1/2+z
3 -x,-y,-z
4 -x,1/2+y,1/2-z
_cell_length_a                   11.115(3)
_cell_length_b                   13.732(3)
_cell_length_c                   13.616(4)
_cell_angle_alpha                90
_cell_angle_beta                 93.46(2)
_cell_angle_gamma                90
_cell_volume                     2074.44
_exptl_crystal_colour            colorless
_exptl_crystal_description       block
_cell_formula_units_Z            4
loop_
_atom_site_label
_atom_site_type_symbol
_atom_site_fract_x
_atom_site_fract_y
_atom_site_fract_z
S1 S 1.04762(14) 0.08469(11) 0.27732(13)
S2 S 0.94053(13) 0.08558(12) 0.39254(12)
N1 N 1.1004(4) 0.2389(3) 0.1658(4)
N2 N 1.0678(5) 0.3342(3) 0.1473(4)
N3 N 0.9865(5) 0.3541(4) 0.2085(5)
N4 N 0.9601(5) 0.2750(4) 0.2658(4)
N5 N 0.6982(4) 0.0794(3) 0.3806(4)
N6 N 0.6025(5) 0.0683(4) 0.3140(5)
N7 N 0.6482(6) 0.0569(4) 0.2294(5)
N8 N 0.7711(5) 0.0588(4) 0.2371(4)
C1 C 1.1842(5) 0.1875(4) 0.1091(5)
C2 C 1.1370(6) 0.1375(4) 0.0263(5)
C3 C 1.2181(8) 0.0881(5) -0.0278(5)
H1 H 1.1905 0.0532 -0.0832
C4 C 1.3403(8) 0.0896(6) -0.0006(7)
H2 H 1.3939 0.0570 -0.0389
C5 C 1.3832(6) 0.1387(6) 0.0824(7)
H3 H 1.4653 0.1377 0.1002
C6 C 1.3059(6) 0.1899(5) 0.1399(5)
C7 C 1.0044(6) 0.1363(5) -0.0016(5)
H4 H 0.9627 0.1746 0.0446
H5 H 0.9753 0.0705 -0.0010
H6 H 0.9902 0.1632 -0.0664
C8 C 1.3507(6) 0.2470(6) 0.2295(5)
H7 H 1.4364 0.2392 0.2396
H8 H 1.3123 0.2234 0.2862
H9 H 1.3319 0.3147 0.2198
C9 C 1.0336(5) 0.2069(4) 0.2382(5)
C10 C 0.6859(5) 0.0935(5) 0.4840(5)
C11 C 0.6847(5) 0.1889(5) 0.5189(6)
C12 C 0.6785(7) 0.2003(6) 0.6176(7)
H10 H 0.6808 0.2627 0.6441
C13 C 0.6689(7) 0.1209(8) 0.6799(6)
H11 H 0.6650 0.1303 0.7472
C14 C 0.6653(6) 0.0293(6) 0.6419(6)
H12 H 0.6552 -0.0230 0.6839
C15 C 0.6760(5) 0.0117(5) 0.5442(5)
C16 C 0.6903(6) 0.2740(5) 0.4499(6)
H13 H 0.6952 0.2506 0.3838
H14 H 0.7602 0.3126 0.4679
H15 H 0.6191 0.3130 0.4538
C17 C 0.6724(6) -0.0892(5) 0.5011(5)
H16 H 0.6828 -0.0855 0.4317
H17 H 0.5961 -0.1188 0.5119
H18 H 0.7361 -0.1276 0.5322
C18 C 0.7982(5) 0.0726(4) 0.3305(5)
loop_
_geom_bond_atom_site_label_1
_geom_bond_atom_site_label_2
_geom_bond_site_symmetry_1
_geom_bond_site_symmetry_2
S1 S2 1_555 1_555
S2 C18 1_555 1_555
N1 N2 1_555 1_555
N2 N3 1_555 1_555
N3 N4 1_555 1_555
N4 C9 1_555 1_555
N5 N6 1_555 1_555
N6 N7 1_555 1_555
N7 N8 1_555 1_555
N8 C18 1_555 1_555
C1 N1 1_555 1_555
C2 C1 1_555 1_555
C3 C2 1_555 1_555
H1 C3 1_555 1_555
C4 C3 1_555 1_555
H2 C4 1_555 1_555
C5 C4 1_555 1_555
H3 C5 1_555 1_555
C6 C1 1_555 1_555
C7 C2 1_555 1_555
H4 C7 1_555 1_555
H5 C7 1_555 1_555
H6 C7 1_555 1_555
C8 C6 1_555 1_555
H7 C8 1_555 1_555
H8 C8 1_555 1_555
H9 C8 1_555 1_555
C9 S1 1_555 1_555
C10 N5 1_555 1_555
C11 C10 1_555 1_555
C12 C11 1_555 1_555
H10 C12 1_555 1_555
C13 C12 1_555 1_555
H11 C13 1_555 1_555
C14 C13 1_555 1_555
H12 C14 1_555 1_555
C15 C10 1_555 1_555
C16 C11 1_555 1_555
H13 C16 1_555 1_555
H14 C16 1_555 1_555
H15 C16 1_555 1_555
C17 C15 1_555 1_555
H16 C17 1_555 1_555
H17 C17 1_555 1_555
H18 C17 1_555 1_555
C18 N5 1_555 1_555
N1 C9 1_555 1_555
C5 C6 1_555 1_555
C14 C15 1_555 1_555

#END
