
#######################################################################
#
#                 Cambridge Crystallographic Data Centre
#                                CCDC 
#
#######################################################################
#
# If this CIF has been generated from an entry in the Cambridge 
# Structural Database, then it will include bibliographic, chemical, 
# crystal, experimental, refinement or atomic coordinate data resulting 
# from the CCDC's data processing and validation procedures.
#
#######################################################################

data_BAZVAA
_chemical_formula_moiety         'C16 H14 N4 O1 S1'
_chemical_name_systematic        
5-(Benzoylthiolato)-1-(2,6-dimethylphenyl)-1,2,3,4-tetrazole
_symmetry_cell_setting           triclinic
_symmetry_space_group_name_H-M   'P -1'
_symmetry_Int_Tables_number      2
_space_group_name_Hall           '-P 1'
loop_
_symmetry_equiv_pos_site_id
_symmetry_equiv_pos_as_xyz
1 x,y,z
2 -x,-y,-z
_cell_length_a                   7.956(3)
_cell_length_b                   9.962(3)
_cell_length_c                   11.165(3)
_cell_angle_alpha                91.151(18)
_cell_angle_beta                 107.51(2)
_cell_angle_gamma                111.21(2)
_cell_volume                     778.425
_exptl_crystal_colour            colorless
_exptl_crystal_description       block
_cell_formula_units_Z            2
loop_
_atom_site_label
_atom_site_type_symbol
_atom_site_fract_x
_atom_site_fract_y
_atom_site_fract_z
S1 S 0.3719(3) 0.3221(2) 0.4279(2)
O1 O 0.0883(8) 0.1282(6) 0.2830(4)
N1 N 0.2588(7) 0.4201(5) 0.1964(5)
N2 N 0.1868(9) 0.5187(7) 0.1560(7)
N3 N 0.1281(9) 0.5521(6) 0.2444(7)
N4 N 0.1606(10) 0.4828(8) 0.3408(6)
C1 C 0.3388(9) 0.3556(6) 0.1197(6)
C2 C 0.5371(8) 0.4101(7) 0.1519(6)
C3 C 0.6095(10) 0.3472(8) 0.0790(6)
H1 H 0.7408 0.3813 0.0959
C4 C 0.4918(12) 0.2361(9) -0.0171(7)
H2 H 0.5447 0.1934 -0.0625
C5 C 0.2968(11) 0.1857(8) -0.0487(7)
H3 H 0.2192 0.1113 -0.1162
C6 C 0.2154(9) 0.2457(7) 0.0202(6)
C7 C 0.6693(9) 0.5339(7) 0.2590(6)
H4 H 0.5948 0.5647 0.2985
H5 H 0.7424 0.6140 0.2256
H6 H 0.7541 0.5014 0.3206
C8 C -0.0017(9) 0.1950(8) -0.0164(7)
H7 H -0.0621 0.1185 -0.0874
H8 H -0.0386 0.2752 -0.0391
H9 H -0.0405 0.1596 0.0542
C9 C 0.2496(11) 0.4067(8) 0.3141(7)
C10 C 0.1970(14) 0.1381(8) 0.3735(11)
C11 C 0.2467(11) 0.0401(7) 0.4726(7)
C12 C 0.3854(13) 0.0833(9) 0.5886(9)
H10 H 0.4633 0.1812 0.6155
C13 C 0.4101(13) -0.0213(10) 0.6676(7)
H11 H 0.5061 0.0067 0.7463
C14 C 0.2898(15) -0.1666(10) 0.6267(8)
H12 H 0.3033 -0.2365 0.6786
C15 C 0.1534(12) -0.2059(8) 0.5116(8)
H13 H 0.0742 -0.3035 0.4839
C16 C 0.1302(11) -0.1043(8) 0.4354(8)
H14 H 0.0338 -0.1334 0.3568
loop_
_geom_bond_atom_site_label_1
_geom_bond_atom_site_label_2
_geom_bond_site_symmetry_1
_geom_bond_site_symmetry_2
S1 C9 1_555 1_555
O1 C10 1_555 1_555
N1 N2 1_555 1_555
N2 N3 1_555 1_555
N3 N4 1_555 1_555
N4 C9 1_555 1_555
C1 N1 1_555 1_555
C2 C1 1_555 1_555
C3 C2 1_555 1_555
H1 C3 1_555 1_555
C4 C3 1_555 1_555
H2 C4 1_555 1_555
C5 C4 1_555 1_555
H3 C5 1_555 1_555
C6 C1 1_555 1_555
C7 C2 1_555 1_555
H4 C7 1_555 1_555
H5 C7 1_555 1_555
H6 C7 1_555 1_555
C8 C6 1_555 1_555
H7 C8 1_555 1_555
H8 C8 1_555 1_555
H9 C8 1_555 1_555
C9 N1 1_555 1_555
C10 S1 1_555 1_555
C11 C10 1_555 1_555
C12 C11 1_555 1_555
H10 C12 1_555 1_555
C13 C12 1_555 1_555
H11 C13 1_555 1_555
C14 C13 1_555 1_555
H12 C14 1_555 1_555
C15 C14 1_555 1_555
H13 C15 1_555 1_555
C16 C11 1_555 1_555
H14 C16 1_555 1_555
C5 C6 1_555 1_555
C15 C16 1_555 1_555

#END
