
#######################################################################
#
#                 Cambridge Crystallographic Data Centre
#                                CCDC 
#
#######################################################################
#
# If this CIF has been generated from an entry in the Cambridge 
# Structural Database, then it will include bibliographic, chemical, 
# crystal, experimental, refinement or atomic coordinate data resulting 
# from the CCDC's data processing and validation procedures.
#
#######################################################################

data_BBZFRO
_chemical_formula_moiety         'C6 H3 Br1 N2 O2'
_chemical_name_systematic        5-Bromobenzfurazan-1-oxide
_symmetry_cell_setting           monoclinic
_symmetry_space_group_name_H-M   'P 21/n'
_symmetry_Int_Tables_number      14
_space_group_name_Hall           '-P 2yn'
loop_
_symmetry_equiv_pos_site_id
_symmetry_equiv_pos_as_xyz
1 x,y,z
2 1/2-x,1/2+y,1/2-z
3 -x,-y,-z
4 1/2+x,1/2-y,1/2+z
_cell_length_a                   12.67(2)
_cell_length_b                   7.35(1)
_cell_length_c                   7.79(1)
_cell_angle_alpha                90
_cell_angle_beta                 90.0(1)
_cell_angle_gamma                90
_cell_volume                     725.44
_cell_formula_units_Z            4
loop_
_atom_site_label
_atom_site_type_symbol
_atom_site_fract_x
_atom_site_fract_y
_atom_site_fract_z
Br1 Br -0.62600 -0.22600 0.39900
C1 C -0.43100 -0.68500 0.15500
C2 C -0.38500 -0.51200 0.16900
C3 C -0.44300 -0.36800 0.24400
C4 C -0.54200 -0.40500 0.29900
C5 C -0.58700 -0.58500 0.28200
C6 C -0.53300 -0.72500 0.21100
N1 N -0.36000 -0.79200 0.08100
N2 N -0.28700 -0.50600 0.10800
O1 O -0.35600 -0.95300 0.03800
O2 O -0.26800 -0.68100 0.05000
loop_
_geom_bond_atom_site_label_1
_geom_bond_atom_site_label_2
_geom_bond_site_symmetry_1
_geom_bond_site_symmetry_2
Br1 C4 1_555 1_555
C1 C2 1_555 1_555
C2 C3 1_555 1_555
C3 C4 1_555 1_555
C4 C5 1_555 1_555
C5 C6 1_555 1_555
C6 C1 1_555 1_555
N1 C1 1_555 1_555
N2 C2 1_555 1_555
O1 N1 1_555 1_555
O2 N1 1_555 1_555
N2 O2 1_555 1_555

#END
