
#######################################################################
#
#                 Cambridge Crystallographic Data Centre
#                                CCDC 
#
#######################################################################
#
# If this CIF has been generated from an entry in the Cambridge 
# Structural Database, then it will include bibliographic, chemical, 
# crystal, experimental, refinement or atomic coordinate data resulting 
# from the CCDC's data processing and validation procedures.
#
#######################################################################

data_BCOCTB
_chemical_formula_moiety         'C23 H35 Br1 O2'
_chemical_name_systematic        
cis-3,7-Di-t-butylcyclo-octyl-cis-p-bromobenzoate
_symmetry_cell_setting           orthorhombic
_symmetry_space_group_name_H-M   'P b c a'
_symmetry_Int_Tables_number      61
_space_group_name_Hall           '-P 2ac 2ab'
loop_
_symmetry_equiv_pos_site_id
_symmetry_equiv_pos_as_xyz
1 x,y,z
2 1/2-x,1/2+y,z
3 x,1/2-y,1/2+z
4 1/2-x,-y,1/2+z
5 -x,-y,-z
6 1/2+x,1/2-y,-z
7 -x,1/2+y,1/2-z
8 1/2+x,y,1/2-z
_cell_length_a                   10.648(4)
_cell_length_b                   21.627(9)
_cell_length_c                   19.485(9)
_cell_angle_alpha                90
_cell_angle_beta                 90
_cell_angle_gamma                90
_cell_volume                     4487.09
_cell_formula_units_Z            8
loop_
_atom_site_label
_atom_site_type_symbol
_atom_site_fract_x
_atom_site_fract_y
_atom_site_fract_z
Br1 Br -0.16240 -0.40700 0.38790
O1 O 0.16680 -0.67820 0.40650
O2 O 0.01140 -0.69850 0.48030
C1 C -0.09480 -0.48640 0.40180
C2 C -0.13850 -0.52360 0.45510
C3 C -0.08690 -0.58050 0.46650
C4 C 0.01160 -0.60200 0.42530
C5 C 0.05600 -0.56440 0.37300
C6 C 0.00280 -0.50710 0.36100
C7 C 0.07200 -0.66270 0.43720
C8 C 0.06320 -0.76030 0.49290
C9 C 0.01690 -0.80210 0.43420
C10 C 0.08230 -0.86500 0.43150
C11 C -0.00030 -0.91740 0.46260
C12 C -0.07810 -0.90180 0.52700
C13 C -0.00440 -0.89090 0.59340
C14 C 0.08390 -0.83490 0.59560
C15 C 0.01870 -0.77630 0.56590
C16 C 0.13790 -0.82250 0.67040
C17 C 0.24170 -0.77370 0.66630
C18 C 0.19870 -0.88190 0.69840
C19 C 0.03360 -0.80050 0.72020
C20 C 0.12560 -0.88170 0.35610
C21 C 0.17640 -0.94800 0.35380
C22 C 0.23600 -0.83880 0.33690
C23 C 0.01610 -0.87590 0.30540
H1 H -0.20600 -0.50600 0.47900
H2 H -0.12100 -0.61100 0.49900
H3 H 0.11600 -0.57700 0.34700
H4 H 0.03200 -0.47900 0.32700
H5 H 0.14600 -0.75300 0.48700
H6 H -0.08200 -0.80800 0.43800
H7 H 0.05600 -0.77700 0.40000
H8 H 0.17100 -0.85500 0.45600
H9 H -0.06800 -0.93000 0.42800
H10 H 0.05800 -0.95900 0.47800
H11 H -0.12600 -0.93200 0.53400
H12 H -0.12400 -0.86300 0.51700
H13 H -0.07400 -0.88600 0.63700
H14 H 0.05600 -0.93200 0.60000
H15 H 0.16800 -0.85300 0.57100
H16 H 0.04300 -0.73300 0.58900
H17 H -0.08600 -0.78100 0.56900
H18 H 0.31400 -0.78500 0.63800
H19 H 0.29000 -0.75000 0.71300
H20 H 0.20700 -0.72500 0.64000
H21 H 0.13200 -0.91700 0.70900
H22 H 0.20600 -0.87400 0.74400
H23 H 0.25700 -0.89200 0.66900
H24 H 0.09000 -0.78900 0.76600
H25 H -0.03500 -0.76500 0.70000
H26 H -0.03600 -0.83000 0.71800
H27 H 0.19900 -0.96000 0.31100
H28 H 0.12700 -0.97800 0.36300
H29 H 0.23400 -0.95700 0.39600
H30 H 0.19500 -0.80700 0.33000
H31 H 0.31000 -0.84700 0.37200
H32 H 0.25800 -0.85000 0.29100
H33 H -0.06100 -0.90500 0.31800
H34 H 0.05700 -0.89300 0.25800
H35 H -0.01300 -0.84000 0.29300
loop_
_geom_bond_atom_site_label_1
_geom_bond_atom_site_label_2
_geom_bond_site_symmetry_1
_geom_bond_site_symmetry_2
Br1 C1 1_555 1_555
O1 C7 1_555 1_555
O2 C7 1_555 1_555
C1 C2 1_555 1_555
C2 C3 1_555 1_555
C3 C4 1_555 1_555
C4 C5 1_555 1_555
C5 C6 1_555 1_555
C6 C1 1_555 1_555
C7 C4 1_555 1_555
C8 O2 1_555 1_555
C9 C8 1_555 1_555
C10 C9 1_555 1_555
C11 C10 1_555 1_555
C12 C11 1_555 1_555
C13 C12 1_555 1_555
C14 C13 1_555 1_555
C15 C8 1_555 1_555
C16 C14 1_555 1_555
C17 C16 1_555 1_555
C18 C16 1_555 1_555
C19 C16 1_555 1_555
C20 C10 1_555 1_555
C21 C20 1_555 1_555
C22 C20 1_555 1_555
C23 C20 1_555 1_555
H1 C2 1_555 1_555
H2 C3 1_555 1_555
H3 C5 1_555 1_555
H4 C6 1_555 1_555
H5 C8 1_555 1_555
H6 C9 1_555 1_555
H7 C9 1_555 1_555
H8 C10 1_555 1_555
H9 C11 1_555 1_555
H10 C11 1_555 1_555
H11 C12 1_555 1_555
H12 C12 1_555 1_555
H13 C13 1_555 1_555
H14 C13 1_555 1_555
H15 C14 1_555 1_555
H16 C15 1_555 1_555
H17 C15 1_555 1_555
H18 C17 1_555 1_555
H19 C17 1_555 1_555
H20 C17 1_555 1_555
H21 C18 1_555 1_555
H22 C18 1_555 1_555
H23 C18 1_555 1_555
H24 C19 1_555 1_555
H25 C19 1_555 1_555
H26 C19 1_555 1_555
H27 C21 1_555 1_555
H28 C21 1_555 1_555
H29 C21 1_555 1_555
H30 C22 1_555 1_555
H31 C22 1_555 1_555
H32 C22 1_555 1_555
H33 C23 1_555 1_555
H34 C23 1_555 1_555
H35 C23 1_555 1_555
C14 C15 1_555 1_555

#END
