
#######################################################################
#
#                 Cambridge Crystallographic Data Centre
#                                CCDC 
#
#######################################################################
#
# If this CIF has been generated from an entry in the Cambridge 
# Structural Database, then it will include bibliographic, chemical, 
# crystal, experimental, refinement or atomic coordinate data resulting 
# from the CCDC's data processing and validation procedures.
#
#######################################################################

data_BEBBOB
_chemical_formula_moiety         'C22 H27 N1 O3'
_chemical_name_systematic        
1-Acetyl-3-(1,1'-bi(cyclohexyliden)-2-yl)-3-hydroxy-1,3-dihydro-2H-indol-2-one
_symmetry_cell_setting           triclinic
_symmetry_space_group_name_H-M   'P -1'
_symmetry_Int_Tables_number      2
_space_group_name_Hall           '-P 1'
loop_
_symmetry_equiv_pos_site_id
_symmetry_equiv_pos_as_xyz
1 x,y,z
2 -x,-y,-z
_cell_length_a                   9.0404(2)
_cell_length_b                   9.9839(3)
_cell_length_c                   10.8814(3)
_cell_angle_alpha                90.880(1)
_cell_angle_beta                 103.859(1)
_cell_angle_gamma                111.082(1)
_cell_volume                     884.118
_exptl_crystal_colour            colorless
_exptl_crystal_description       block
_chemical_melting_point          '101-102 deg.C'
_cell_formula_units_Z            2
loop_
_atom_site_label
_atom_site_type_symbol
_atom_site_fract_x
_atom_site_fract_y
_atom_site_fract_z
O1 O 0.78569(8) 0.91932(6) 0.42358(6)
O2 O 0.98408(7) 1.22777(7) 0.50495(6)
O3 O 0.30311(9) 0.89545(9) 0.31371(10)
N1 N 0.57934(8) 1.01144(7) 0.35789(7)
C1 C 0.74251(9) 1.01866(8) 0.39359(7)
C2 C 0.58105(10) 1.15568(8) 0.36159(7)
C3 C 0.45054(10) 1.20143(10) 0.35231(8)
C4 C 0.48802(11) 1.35029(10) 0.36760(8)
C5 C 0.64894(11) 1.44953(9) 0.39239(8)
C6 C 0.77778(10) 1.40166(9) 0.39992(8)
C7 C 0.74275(9) 1.25443(8) 0.38252(7)
C8 C 0.85779(9) 1.17502(8) 0.39018(7)
C9 C 0.93622(9) 1.17269(8) 0.27626(7)
C10 C 1.03940(10) 1.32505(8) 0.24840(8)
C11 C 0.94445(11) 1.39862(8) 0.15592(8)
C12 C 0.83015(10) 1.29785(8) 0.03693(8)
C13 C 0.71743(9) 1.15793(8) 0.07506(7)
C14 C 0.82098(9) 1.08303(8) 0.15260(7)
C15 C 0.82985(9) 0.95917(8) 0.10822(7)
C16 C 0.73125(10) 0.87629(8) -0.02109(7)
C17 C 0.63063(10) 0.71822(8) -0.00974(8)
C18 C 0.74146(11) 0.64337(8) 0.06060(8)
C19 C 0.84675(10) 0.72805(8) 0.18934(8)
C20 C 0.94210(10) 0.88732(8) 0.17775(8)
C21 C 0.43490(10) 0.88496(9) 0.32685(8)
C22 C 0.45230(12) 0.74294(10) 0.30722(9)
H1 H 1.041(2) 1.168(2) 0.5136(18)
H2 H 0.3435(18) 1.1383(15) 0.3399(14)
H3 H 0.3982(18) 1.3843(15) 0.3650(14)
H4 H 0.6744(18) 1.5573(16) 0.4069(14)
H5 H 0.8904(17) 1.4718(14) 0.4148(13)
H6 H 1.0153(16) 1.1241(14) 0.3137(13)
H7 H 1.0972(17) 1.3868(15) 0.3298(14)
H8 H 1.1251(16) 1.3119(14) 0.2104(13)
H9 H 1.0243(18) 1.4887(15) 0.1331(14)
H10 H 0.8741(15) 1.4326(13) 0.1958(12)
H11 H 0.7601(16) 1.3444(14) -0.0177(13)
H12 H 0.8933(17) 1.2736(14) -0.0154(13)
H13 H 0.6377(16) 1.0950(14) -0.0021(13)
H14 H 0.6513(17) 1.1841(15) 0.1275(13)
H15 H 0.6572(16) 0.9226(14) -0.0726(12)
H16 H 0.8097(17) 0.8763(15) -0.0719(13)
H17 H 0.5669(17) 0.6678(15) -0.0971(14)
H18 H 0.5457(16) 0.7154(14) 0.0373(13)
H19 H 0.6702(17) 0.5428(15) 0.0713(13)
H20 H 0.8123(17) 0.6327(15) 0.0063(13)
H21 H 0.7757(16) 0.7234(14) 0.2458(13)
H22 H 0.9277(18) 0.6860(15) 0.2322(14)
H23 H 1.0023(16) 0.9351(14) 0.2599(13)
H24 H 1.0205(16) 0.8918(14) 0.1268(13)
H25 H 0.520(2) 0.7459(18) 0.2533(17)
H26 H 0.344(2) 0.6749(18) 0.2717(16)
H27 H 0.504(2) 0.7166(17) 0.3877(16)
loop_
_geom_bond_atom_site_label_1
_geom_bond_atom_site_label_2
_geom_bond_site_symmetry_1
_geom_bond_site_symmetry_2
O1 C1 1_555 1_555
O2 C8 1_555 1_555
O3 C21 1_555 1_555
N1 C1 1_555 1_555
C1 C8 1_555 1_555
C2 N1 1_555 1_555
C3 C2 1_555 1_555
C4 C3 1_555 1_555
C5 C4 1_555 1_555
C6 C5 1_555 1_555
C7 C2 1_555 1_555
C8 C7 1_555 1_555
C9 C8 1_555 1_555
C10 C9 1_555 1_555
C11 C10 1_555 1_555
C12 C11 1_555 1_555
C13 C12 1_555 1_555
C14 C9 1_555 1_555
C15 C14 1_555 1_555
C16 C15 1_555 1_555
C17 C16 1_555 1_555
C18 C17 1_555 1_555
C19 C18 1_555 1_555
C20 C15 1_555 1_555
C21 N1 1_555 1_555
C22 C21 1_555 1_555
H1 O2 1_555 1_555
H2 C3 1_555 1_555
H3 C4 1_555 1_555
H4 C5 1_555 1_555
H5 C6 1_555 1_555
H6 C9 1_555 1_555
H7 C10 1_555 1_555
H8 C10 1_555 1_555
H9 C11 1_555 1_555
H10 C11 1_555 1_555
H11 C12 1_555 1_555
H12 C12 1_555 1_555
H13 C13 1_555 1_555
H14 C13 1_555 1_555
H15 C16 1_555 1_555
H16 C16 1_555 1_555
H17 C17 1_555 1_555
H18 C17 1_555 1_555
H19 C18 1_555 1_555
H20 C18 1_555 1_555
H21 C19 1_555 1_555
H22 C19 1_555 1_555
H23 C20 1_555 1_555
H24 C20 1_555 1_555
H25 C22 1_555 1_555
H26 C22 1_555 1_555
H27 C22 1_555 1_555
C6 C7 1_555 1_555
C13 C14 1_555 1_555
C19 C20 1_555 1_555

#END
