
#######################################################################
#
#                 Cambridge Crystallographic Data Centre
#                                CCDC 
#
#######################################################################
#
# If this CIF has been generated from an entry in the Cambridge 
# Structural Database, then it will include bibliographic, chemical, 
# crystal, experimental, refinement or atomic coordinate data resulting 
# from the CCDC's data processing and validation procedures.
#
#######################################################################

data_BEBBER
_chemical_formula_moiety         'C22 H27 N1 O4'
_chemical_name_systematic        
2-Methyltrispiro[3,1-benzoxazine-4,5'-[1,4]dioxane-2',1''-cyclohexane-3',1'''-cyclohexan]-6'-one
_symmetry_cell_setting           monoclinic
_symmetry_space_group_name_H-M   'P 21/c'
_symmetry_Int_Tables_number      14
_space_group_name_Hall           '-P 2ybc'
loop_
_symmetry_equiv_pos_site_id
_symmetry_equiv_pos_as_xyz
1 x,y,z
2 -x,1/2+y,1/2-z
3 -x,-y,-z
4 x,1/2-y,1/2+z
_cell_length_a                   13.2402(4)
_cell_length_b                   8.7479(2)
_cell_length_c                   19.2827(5)
_cell_angle_alpha                90
_cell_angle_beta                 123.821(2)
_cell_angle_gamma                90
_cell_volume                     1855.46
_exptl_crystal_colour            colorless
_exptl_crystal_description       block
_chemical_melting_point          '141-144 deg.C'
_cell_formula_units_Z            4
loop_
_atom_site_label
_atom_site_type_symbol
_atom_site_fract_x
_atom_site_fract_y
_atom_site_fract_z
O1 O 0.29221(11) 0.76463(12) 0.68429(8)
O2 O 0.19765(10) 0.55552(11) 0.70029(7)
O3 O 0.42550(11) 0.50349(13) 0.84551(8)
O4 O 0.47600(12) 0.74387(15) 0.84830(9)
N1 N 0.11472(14) 0.91173(14) 0.62900(9)
C1 C 0.20113(18) 0.85694(17) 0.62589(11)
C2 C 0.12182(15) 0.88797(17) 0.70426(10)
C3 C 0.04930(15) 0.97824(18) 0.71971(11)
H1 H -0.0090 1.0459 0.6779
C4 C 0.06257(16) 0.96893(18) 0.79610(11)
H2 H 0.0135 1.0305 0.8067
C5 C 0.14703(17) 0.87030(19) 0.85705(11)
H3 H 0.1567 0.8657 0.9096
C6 C 0.21790(16) 0.77780(18) 0.84162(10)
H4 H 0.2755 0.7096 0.8834
C7 C 0.20398(14) 0.78571(16) 0.76475(10)
C8 C 0.27117(15) 0.68305(17) 0.74059(10)
C9 C 0.39965(16) 0.64578(19) 0.81521(12)
C10 C 0.33941(15) 0.37453(18) 0.80245(11)
C11 C 0.42340(18) 0.2359(2) 0.82506(14)
H5 H 0.3735 0.1450 0.7949
H6 H 0.4783 0.2549 0.8063
C12 C 0.4996(2) 0.2026(2) 0.91855(16)
H7 H 0.5473 0.1081 0.9290
H8 H 0.5577 0.2876 0.9481
C13 C 0.42202(19) 0.1834(2) 0.95345(14)
H9 H 0.4750 0.1661 1.0145
H10 H 0.3685 0.0932 0.9276
C14 C 0.34473(17) 0.3265(2) 0.93546(11)
H11 H 0.2921 0.3119 0.9564
H12 H 0.3984 0.4152 0.9649
C15 C 0.26616(15) 0.35792(18) 0.84177(10)
H13 H 0.2193 0.4530 0.8317
H14 H 0.2072 0.2733 0.8137
C16 C 0.25942(16) 0.41054(17) 0.70832(11)
C17 C 0.15609(17) 0.29537(17) 0.66093(11)
H15 H 0.1912 0.1914 0.6714
H16 H 0.1045 0.2993 0.6833
C18 C 0.0765(2) 0.3226(2) 0.56726(11)
H17 H 0.0310 0.4193 0.5560
H18 H 0.0167 0.2385 0.5404
C19 C 0.1510(2) 0.3314(2) 0.52920(14)
H19 H 0.1888 0.2309 0.5342
H20 H 0.0971 0.3571 0.4692
C20 C 0.2494(2) 0.4523(2) 0.57365(14)
H21 H 0.2111 0.5542 0.5639
H22 H 0.2996 0.4534 0.5502
C21 C 0.3306(2) 0.4219(2) 0.66719(13)
H23 H 0.3911 0.5052 0.6942
H24 H 0.3755 0.3252 0.6768
C22 C 0.2195(2) 0.89864(19) 0.55832(13)
H25 H 0.1495 0.9578 0.5152
H26 H 0.2273 0.8053 0.5336
H27 H 0.2935 0.9601 0.5820
loop_
_geom_bond_atom_site_label_1
_geom_bond_atom_site_label_2
_geom_bond_site_symmetry_1
_geom_bond_site_symmetry_2
O1 C1 1_555 1_555
O2 C8 1_555 1_555
O3 C9 1_555 1_555
O4 C9 1_555 1_555
N1 C1 1_555 1_555
C1 C22 1_555 1_555
C2 N1 1_555 1_555
C3 C2 1_555 1_555
H1 C3 1_555 1_555
C4 C3 1_555 1_555
H2 C4 1_555 1_555
C5 C4 1_555 1_555
H3 C5 1_555 1_555
C6 C5 1_555 1_555
H4 C6 1_555 1_555
C7 C2 1_555 1_555
C8 O1 1_555 1_555
C9 C8 1_555 1_555
C10 O3 1_555 1_555
C11 C10 1_555 1_555
H5 C11 1_555 1_555
H6 C11 1_555 1_555
C12 C11 1_555 1_555
H7 C12 1_555 1_555
H8 C12 1_555 1_555
C13 C12 1_555 1_555
H9 C13 1_555 1_555
H10 C13 1_555 1_555
C14 C13 1_555 1_555
H11 C14 1_555 1_555
H12 C14 1_555 1_555
C15 C10 1_555 1_555
H13 C15 1_555 1_555
H14 C15 1_555 1_555
C16 O2 1_555 1_555
C17 C16 1_555 1_555
H15 C17 1_555 1_555
H16 C17 1_555 1_555
C18 C17 1_555 1_555
H17 C18 1_555 1_555
H18 C18 1_555 1_555
C19 C18 1_555 1_555
H19 C19 1_555 1_555
H20 C19 1_555 1_555
C20 C19 1_555 1_555
H21 C20 1_555 1_555
H22 C20 1_555 1_555
C21 C16 1_555 1_555
H23 C21 1_555 1_555
H24 C21 1_555 1_555
C22 H25 1_555 1_555
H26 C22 1_555 1_555
H27 C22 1_555 1_555
C6 C7 1_555 1_555
C7 C8 1_555 1_555
C10 C16 1_555 1_555
C14 C15 1_555 1_555
C20 C21 1_555 1_555

#END
