
#######################################################################
#
#                 Cambridge Crystallographic Data Centre
#                                CCDC 
#
#######################################################################
#
# If this CIF has been generated from an entry in the Cambridge 
# Structural Database, then it will include bibliographic, chemical, 
# crystal, experimental, refinement or atomic coordinate data resulting 
# from the CCDC's data processing and validation procedures.
#
#######################################################################

data_BEBCES
_chemical_formula_moiety         'C15 H17 N1 O4 S1'
_chemical_name_systematic        
4-((4-Methylphenyl)sulfonyl)-2,3,3a,4,5,6b-hexahydro-1aH-oxireno[e]indol-2-ol
_symmetry_cell_setting           monoclinic
_symmetry_space_group_name_H-M   'P 21/n'
_symmetry_Int_Tables_number      14
_space_group_name_Hall           '-P 2yn'
loop_
_symmetry_equiv_pos_site_id
_symmetry_equiv_pos_as_xyz
1 x,y,z
2 1/2-x,1/2+y,1/2-z
3 -x,-y,-z
4 1/2+x,1/2-y,1/2+z
_cell_length_a                   11.7222(14)
_cell_length_b                   10.3371(13)
_cell_length_c                   12.2852(16)
_cell_angle_alpha                90
_cell_angle_beta                 98.752(2)
_cell_angle_gamma                90
_cell_volume                     1471.31
_exptl_crystal_colour            colorless
_exptl_crystal_description       block
_chemical_melting_point          '178-180 deg.C'
_cell_formula_units_Z            4
loop_
_atom_site_label
_atom_site_type_symbol
_atom_site_fract_x
_atom_site_fract_y
_atom_site_fract_z
S1 S 0.74402(7) 0.10409(7) 0.47981(7)
N1 N 0.69618(19) 0.1611(2) 0.58678(19)
O1 O 0.48308(18) 0.49927(19) 0.63608(17)
O2 O 0.34651(19) 0.3617(2) 0.46848(19)
H1 H 0.4005 0.4026 0.4502
O3 O 0.64714(19) 0.0943(2) 0.39406(17)
O4 O 0.8104(2) -0.0088(2) 0.5162(2)
C1 C 0.5329(2) 0.4056(3) 0.7197(2)
H2 H 0.5420 0.4330 0.7969
C2 C 0.4147(3) 0.3903(3) 0.6613(2)
H3 H 0.3528 0.4097 0.7041
C3 C 0.3848(3) 0.2941(3) 0.5678(3)
H4 H 0.3189 0.2437 0.5846
C4 C 0.4814(2) 0.1973(3) 0.5577(3)
H5 H 0.4791 0.1289 0.6114
H6 H 0.4676 0.1583 0.4851
C5 C 0.6009(2) 0.2579(3) 0.5754(2)
H7 H 0.6090 0.3201 0.5168
C6 C 0.6229(2) 0.3223(3) 0.6867(2)
C7 C 0.7185(3) 0.2812(3) 0.7476(2)
H8 H 0.7454 0.3111 0.8182
C8 C 0.7781(3) 0.1814(3) 0.6898(2)
H9 H 0.8521 0.2125 0.6744
H10 H 0.7897 0.1024 0.7327
C9 C 0.8404(2) 0.2183(3) 0.4381(2)
C10 C 0.7973(3) 0.3190(3) 0.3696(2)
H11 H 0.7186 0.3253 0.3447
C11 C 0.8727(3) 0.4104(3) 0.3386(3)
H12 H 0.8438 0.4774 0.2919
C12 C 0.9906(3) 0.4040(3) 0.3757(2)
C13 C 1.0313(3) 0.3020(3) 0.4442(3)
H13 H 1.1100 0.2957 0.4696
C14 C 0.9577(3) 0.2096(3) 0.4755(2)
H14 H 0.9867 0.1419 0.5214
C15 C 1.0713(3) 0.5040(3) 0.3417(3)
H15 H 1.0901 0.4822 0.2705
H16 H 1.1407 0.5062 0.3945
H17 H 1.0349 0.5873 0.3383
loop_
_geom_bond_atom_site_label_1
_geom_bond_atom_site_label_2
_geom_bond_site_symmetry_1
_geom_bond_site_symmetry_2
S1 N1 1_555 1_555
N1 C5 1_555 1_555
O1 C1 1_555 1_555
O2 H1 1_555 1_555
O3 S1 1_555 1_555
O4 S1 1_555 1_555
C1 H2 1_555 1_555
C2 O1 1_555 1_555
H3 C2 1_555 1_555
C3 O2 1_555 1_555
H4 C3 1_555 1_555
C4 C3 1_555 1_555
H5 C4 1_555 1_555
H6 C4 1_555 1_555
C5 C4 1_555 1_555
H7 C5 1_555 1_555
C6 C1 1_555 1_555
C7 C6 1_555 1_555
H8 C7 1_555 1_555
C8 N1 1_555 1_555
H9 C8 1_555 1_555
H10 C8 1_555 1_555
C9 S1 1_555 1_555
C10 C9 1_555 1_555
H11 C10 1_555 1_555
C11 C10 1_555 1_555
H12 C11 1_555 1_555
C12 C11 1_555 1_555
C13 C12 1_555 1_555
H13 C13 1_555 1_555
C14 C9 1_555 1_555
H14 C14 1_555 1_555
C15 C12 1_555 1_555
H15 C15 1_555 1_555
H16 C15 1_555 1_555
H17 C15 1_555 1_555
C1 C2 1_555 1_555
C2 C3 1_555 1_555
C5 C6 1_555 1_555
C7 C8 1_555 1_555
C13 C14 1_555 1_555

#END
