
#######################################################################
#
#                 Cambridge Crystallographic Data Centre
#                                CCDC 
#
#######################################################################
#
# If this CIF has been generated from an entry in the Cambridge 
# Structural Database, then it will include bibliographic, chemical, 
# crystal, experimental, refinement or atomic coordinate data resulting 
# from the CCDC's data processing and validation procedures.
#
#######################################################################

data_BEBCOC
_chemical_formula_moiety         'C22 H23 N1 O6 S1,C1 H4 O1'
_chemical_name_systematic        
'3-(1,3-Benzodioxol-5-yl)-1-((4-methylphenyl)sulfonyl)-2,3,5,6,7,7a-hexahydro-1H-indole-5,6-diol methanol solvate'
_symmetry_cell_setting           triclinic
_symmetry_space_group_name_H-M   'P -1'
_symmetry_Int_Tables_number      2
_space_group_name_Hall           '-P 1'
loop_
_symmetry_equiv_pos_site_id
_symmetry_equiv_pos_as_xyz
1 x,y,z
2 -x,-y,-z
_cell_length_a                   9.4618(12)
_cell_length_b                   11.8536(15)
_cell_length_c                   12.1246(15)
_cell_angle_alpha                117.873(2)
_cell_angle_beta                 91.857(2)
_cell_angle_gamma                110.815(2)
_cell_volume                     1090.72
_exptl_crystal_colour            colorless
_exptl_crystal_description       prism
_cell_formula_units_Z            2
loop_
_atom_site_label
_atom_site_type_symbol
_atom_site_fract_x
_atom_site_fract_y
_atom_site_fract_z
S1 S 1.12555(4) 0.28405(3) 0.48684(3)
O1 O 0.31707(12) -0.27179(12) -0.21446(11)
O2 O 0.32268(12) -0.32341(13) -0.05208(12)
O3 O 1.03068(16) -0.36709(12) 0.03090(12)
O4 O 1.24921(12) -0.13985(11) 0.21790(10)
H1 H 1.3260 -0.0904 0.2816
O5 O 1.24671(12) 0.27397(11) 0.55137(10)
O6 O 1.03468(12) 0.35368(11) 0.55954(10)
N1 N 1.00314(13) 0.12323(12) 0.38271(11)
C1 C 0.46051(16) -0.18753(15) -0.12803(13)
C2 C 0.46526(16) -0.21941(15) -0.03181(14)
C3 C 0.59606(17) -0.15623(15) 0.06357(14)
H3 H 0.5973 -0.1794 0.1286
C4 C 0.72947(16) -0.05471(14) 0.06095(13)
C5 C 0.87851(16) 0.02053(14) 0.16227(13)
H4 H 0.9572 0.0887 0.1445
C6 C 0.86389(16) 0.10199(14) 0.30119(13)
H5 H 0.8645 0.1933 0.3212
H6 H 0.7666 0.0469 0.3144
C7 C 1.20914(16) 0.36726(14) 0.40146(13)
C8 C 1.35071(17) 0.36951(15) 0.37139(14)
H7 H 1.4034 0.3283 0.3982
C9 C 1.41405(17) 0.43241(15) 0.30199(14)
H8 H 1.5117 0.4358 0.2832
C10 C 1.33703(18) 0.49070(15) 0.25921(14)
C11 C 1.4086(2) 0.56053(19) 0.18530(17)
H9 H 1.3341 0.5858 0.1548
H10 H 1.4349 0.4955 0.1116
H11 H 1.5033 0.6456 0.2416
C12 C 1.06729(16) 0.02025(14) 0.30379(13)
H12 H 1.1710 0.0712 0.2935
C13 C 0.95011(16) -0.06949(14) 0.17588(13)
C14 C 0.22351(18) -0.34470(18) -0.15896(16)
H13 H 0.1693 -0.4463 -0.2237
H14 H 0.1440 -0.3087 -0.1292
C15 C 0.58706(17) -0.08875(15) -0.13218(13)
H15 H 0.5833 -0.0659 -0.1973
C16 C 0.72269(17) -0.02291(14) -0.03544(13)
H16 H 0.8131 0.0458 -0.0357
C17 C 0.91036(17) -0.20626(15) 0.10053(14)
H17 H 0.8368 -0.2559 0.0206
C18 C 0.97689(19) -0.28614(15) 0.13630(15)
H18 H 0.8919 -0.3523 0.1520
C19 C 1.11087(19) -0.19110(16) 0.25703(15)
H19 H 1.1234 -0.2479 0.2939
C20 C 1.08220(18) -0.06845(15) 0.35876(14)
H20 H 0.9855 -0.1047 0.3843
H21 H 1.1699 -0.0101 0.4360
C21 C 1.13113(17) 0.42736(15) 0.36193(14)
H22 H 1.0359 0.4277 0.3841
C22 C 1.19473(18) 0.48655(16) 0.28978(15)
H23 H 1.1405 0.5250 0.2606
H27 H 1.016(5) -0.435(3) 0.015(4)
O7 O 0.47931(13) 0.97294(13) 0.59589(12)
H2 H 0.5050 0.9989 0.5431
C23 C 0.4265(2) 0.82387(19) 0.53365(18)
H24 H 0.5094 0.7977 0.4990
H25 H 0.3345 0.7779 0.4634
H26 H 0.3994 0.7939 0.5959
loop_
_geom_bond_atom_site_label_1
_geom_bond_atom_site_label_2
_geom_bond_site_symmetry_1
_geom_bond_site_symmetry_2
S1 O5 1_555 1_555
O1 C1 1_555 1_555
O2 C2 1_555 1_555
O3 C18 1_555 1_555
O4 H1 1_555 1_555
O6 S1 1_555 1_555
O7 H2 1_555 1_555
N1 S1 1_555 1_555
C1 C2 1_555 1_555
C2 C3 1_555 1_555
C3 H3 1_555 1_555
C4 C3 1_555 1_555
C5 C4 1_555 1_555
H4 C5 1_555 1_555
C6 N1 1_555 1_555
H5 C6 1_555 1_555
H6 C6 1_555 1_555
C7 S1 1_555 1_555
C8 C7 1_555 1_555
H7 C8 1_555 1_555
C9 C8 1_555 1_555
H8 C9 1_555 1_555
C10 C9 1_555 1_555
C11 C10 1_555 1_555
H9 C11 1_555 1_555
H10 C11 1_555 1_555
H11 C11 1_555 1_555
C12 N1 1_555 1_555
H12 C12 1_555 1_555
C13 C5 1_555 1_555
C14 O1 1_555 1_555
H13 C14 1_555 1_555
H14 C14 1_555 1_555
C15 C1 1_555 1_555
H15 C15 1_555 1_555
C16 C4 1_555 1_555
H16 C16 1_555 1_555
C17 C13 1_555 1_555
H17 C17 1_555 1_555
C18 C17 1_555 1_555
H18 C18 1_555 1_555
C19 O4 1_555 1_555
H19 C19 1_555 1_555
C20 C12 1_555 1_555
H20 C20 1_555 1_555
H21 C20 1_555 1_555
C21 C7 1_555 1_555
H22 C21 1_555 1_555
C22 C10 1_555 1_555
H23 C22 1_555 1_555
C23 O7 1_555 1_555
H24 C23 1_555 1_555
H25 C23 1_555 1_555
H26 C23 1_555 1_555
H27 O3 1_555 1_555
O2 C14 1_555 1_555
C5 C6 1_555 1_555
C12 C13 1_555 1_555
C15 C16 1_555 1_555
C18 C19 1_555 1_555
C19 C20 1_555 1_555
C21 C22 1_555 1_555

#END
