
#######################################################################
#
#                 Cambridge Crystallographic Data Centre
#                                CCDC 
#
#######################################################################
#
# If this CIF has been generated from an entry in the Cambridge 
# Structural Database, then it will include bibliographic, chemical, 
# crystal, experimental, refinement or atomic coordinate data resulting 
# from the CCDC's data processing and validation procedures.
#
#######################################################################

data_BEBCIW
_chemical_formula_moiety         'C15 H17 N1 O4 S1'
_chemical_name_systematic        
4-((4-Methylphenyl)sulfonyl)-2,3,3a,4,5,6b-hexahydro-1aH-oxireno[e]indol-2-ol
_symmetry_cell_setting           monoclinic
_symmetry_space_group_name_H-M   'P 21/c'
_symmetry_Int_Tables_number      14
_space_group_name_Hall           '-P 2ybc'
loop_
_symmetry_equiv_pos_site_id
_symmetry_equiv_pos_as_xyz
1 x,y,z
2 -x,1/2+y,1/2-z
3 -x,-y,-z
4 x,1/2-y,1/2+z
_cell_length_a                   7.7625(13)
_cell_length_b                   10.6733(18)
_cell_length_c                   17.788(3)
_cell_angle_alpha                90
_cell_angle_beta                 97.621(2)
_cell_angle_gamma                90
_cell_volume                     1460.74
_exptl_crystal_colour            colorless
_exptl_crystal_description       block
_chemical_melting_point          '190-192 deg.C'
_cell_formula_units_Z            4
loop_
_atom_site_label
_atom_site_type_symbol
_atom_site_fract_x
_atom_site_fract_y
_atom_site_fract_z
N1 N 0.1776(3) 0.7226(2) 0.24498(14)
O1 O -0.0345(3) 0.8059(2) 0.32268(14)
O2 O -0.0976(3) 0.6095(3) 0.24890(13)
O3 O 0.4889(3) 0.6492(3) 0.06362(13)
O4 O 0.1906(4) 0.4814(3) 0.00905(15)
H1 H 0.0911 0.4543 0.0067
S1 S 0.02282(12) 0.68868(9) 0.29569(5)
C1 C 0.3147(5) 0.8114(3) 0.2781(2)
H2 H 0.3409 0.8006 0.3326
H3 H 0.2811 0.8976 0.2670
C2 C 0.4646(5) 0.7739(4) 0.2387(2)
H4 H 0.5698 0.8168 0.2434
C3 C 0.4318(4) 0.6739(4) 0.19681(19)
C4 C 0.5352(5) 0.6138(4) 0.1428(2)
H5 H 0.6584 0.5984 0.1603
C5 C 0.4485(5) 0.5274(4) 0.08775(19)
H6 H 0.5209 0.4596 0.0720
C6 C 0.2612(5) 0.4975(3) 0.0861(2)
H7 H 0.2520 0.4175 0.1123
C7 C 0.1617(4) 0.5943(3) 0.12417(17)
H8 H 0.0455 0.5637 0.1280
H9 H 0.1515 0.6705 0.0942
C8 C 0.2548(4) 0.6219(3) 0.20244(16)
H10 H 0.2654 0.5448 0.2327
C9 C 0.1124(4) 0.5993(3) 0.37454(17)
C10 C 0.1222(4) 0.4693(3) 0.3686(2)
H11 H 0.0805 0.4293 0.3233
C11 C 0.1942(5) 0.4008(4) 0.4303(2)
H12 H 0.2002 0.3141 0.4261
C12 C 0.2579(4) 0.4565(4) 0.4983(2)
C13 C 0.2468(5) 0.5847(4) 0.50345(19)
H13 H 0.2889 0.6237 0.5489
C14 C 0.1744(5) 0.6577(3) 0.44250(19)
H14 H 0.1677 0.7442 0.4472
C15 C 0.3365(5) 0.3798(4) 0.5657(2)
H15 H 0.4021 0.4336 0.6021
H16 H 0.4119 0.3171 0.5492
H17 H 0.2455 0.3400 0.5886
loop_
_geom_bond_atom_site_label_1
_geom_bond_atom_site_label_2
_geom_bond_site_symmetry_1
_geom_bond_site_symmetry_2
N1 S1 1_555 1_555
O1 S1 1_555 1_555
O2 S1 1_555 1_555
O3 C4 1_555 1_555
O4 H1 1_555 1_555
S1 C9 1_555 1_555
C1 N1 1_555 1_555
H2 C1 1_555 1_555
H3 C1 1_555 1_555
C2 C1 1_555 1_555
H4 C2 1_555 1_555
C3 C2 1_555 1_555
C4 C3 1_555 1_555
H5 C4 1_555 1_555
C5 O3 1_555 1_555
H6 C5 1_555 1_555
C6 O4 1_555 1_555
H7 C6 1_555 1_555
C7 C6 1_555 1_555
H8 C7 1_555 1_555
H9 C7 1_555 1_555
C8 N1 1_555 1_555
H10 C8 1_555 1_555
C9 C10 1_555 1_555
C10 H11 1_555 1_555
C11 C10 1_555 1_555
H12 C11 1_555 1_555
C12 C11 1_555 1_555
C13 C12 1_555 1_555
H13 C13 1_555 1_555
C14 C9 1_555 1_555
H14 C14 1_555 1_555
C15 C12 1_555 1_555
H15 C15 1_555 1_555
H16 C15 1_555 1_555
H17 C15 1_555 1_555
C3 C8 1_555 1_555
C4 C5 1_555 1_555
C5 C6 1_555 1_555
C7 C8 1_555 1_555
C13 C14 1_555 1_555

#END
