
#######################################################################
#
#                 Cambridge Crystallographic Data Centre
#                                CCDC 
#
#######################################################################
#
# If this CIF has been generated from an entry in the Cambridge 
# Structural Database, then it will include bibliographic, chemical, 
# crystal, experimental, refinement or atomic coordinate data resulting 
# from the CCDC's data processing and validation procedures.
#
#######################################################################

data_BEBCUI
_chemical_formula_moiety         'C22 H23 N1 O6 S1'
_chemical_name_systematic        
3-(1,3-Benzodioxol-5-yl)-1-((4-methylphenyl)sulfonyl)-2,3,5,6,7,7a-hexahydro-1H-indole-5,6-diol
_symmetry_cell_setting           monoclinic
_symmetry_space_group_name_H-M   'P 21/c'
_symmetry_Int_Tables_number      14
_space_group_name_Hall           '-P 2ybc'
loop_
_symmetry_equiv_pos_site_id
_symmetry_equiv_pos_as_xyz
1 x,y,z
2 -x,1/2+y,1/2-z
3 -x,-y,-z
4 x,1/2-y,1/2+z
_cell_length_a                   15.273(2)
_cell_length_b                   14.335(2)
_cell_length_c                   9.1567(13)
_cell_angle_alpha                90
_cell_angle_beta                 90.0282(21)
_cell_angle_gamma                90
_cell_volume                     2004.75
_exptl_crystal_colour            colorless
_exptl_crystal_description       prism
_chemical_melting_point          '152-154 deg.C'
_cell_formula_units_Z            4
loop_
_atom_site_label
_atom_site_type_symbol
_atom_site_fract_x
_atom_site_fract_y
_atom_site_fract_z
S1 S 0.40932(2) 0.35622(2) 0.16271(3)
O1 O 0.11528(6) 0.65550(6) -0.56028(10)
O2 O 0.11535(7) 0.49464(6) -0.53802(10)
O3 O 0.05357(6) 0.21249(6) 0.23224(9)
H1 H 0.0395 0.2062 0.3204
O4 O -0.00231(6) 0.31068(7) 0.00741(9)
H2 H -0.0264 0.2643 0.0464
O5 O 0.48396(6) 0.36495(8) 0.06895(11)
O6 O 0.39561(6) 0.27250(7) 0.24550(11)
N1 N 0.32253(7) 0.36864(8) 0.05912(11)
C1 C 0.40146(10) 0.68624(11) 0.57564(17)
H3 H 0.3548 0.7290 0.5452
H4 H 0.4579 0.7186 0.5720
H5 H 0.3903 0.6649 0.6756
C2 C 0.40356(8) 0.60346(10) 0.47434(15)
C3 C 0.43134(9) 0.61415(10) 0.32965(15)
H6 H 0.4484 0.6741 0.2956
C4 C 0.43436(9) 0.53890(10) 0.23562(14)
H7 H 0.4532 0.5471 0.1376
C5 C 0.40967(8) 0.45071(9) 0.28533(14)
C6 C 0.32374(8) 0.43529(9) -0.06499(13)
H8 H 0.3165 0.4020 -0.1589
H9 H 0.3796 0.4703 -0.0673
C7 C 0.24581(8) 0.50198(8) -0.03733(13)
H10 H 0.2658 0.5526 0.0300
C8 C 0.20865(8) 0.54685(8) -0.17325(13)
C9 C 0.20705(8) 0.64328(8) -0.18727(13)
H11 H 0.2281 0.6805 -0.1090
C10 C 0.17520(8) 0.68778(8) -0.31367(13)
H12 H 0.1736 0.7538 -0.3221
C11 C 0.14663(8) 0.63066(8) -0.42381(13)
C12 C 0.08472(12) 0.57033(10) -0.62483(16)
H13 H 0.0199 0.5700 -0.6284
H14 H 0.1072 0.5645 -0.7258
C13 C 0.14679(8) 0.53434(8) -0.41080(13)
C14 C 0.17597(8) 0.48990(8) -0.28707(13)
H15 H 0.1743 0.4239 -0.2783
C15 C 0.18406(8) 0.43917(8) 0.04571(12)
C16 C 0.09753(8) 0.43433(8) 0.03643(13)
H16 H 0.0680 0.4781 -0.0239
C17 C 0.04409(8) 0.36302(8) 0.11667(13)
H17 H 0.0006 0.3961 0.1797
C18 C 0.09988(8) 0.29778(8) 0.21378(13)
H18 H 0.1076 0.3277 0.3116
C19 C 0.18989(8) 0.27878(8) 0.14881(13)
H19 H 0.2232 0.2358 0.2126
H20 H 0.1839 0.2496 0.0513
C20 C 0.23735(8) 0.37180(8) 0.13616(13)
H21 H 0.2461 0.3985 0.2360
C21 C 0.38223(8) 0.43805(10) 0.42919(14)
H22 H 0.3655 0.3781 0.4633
C22 C 0.37986(9) 0.51501(11) 0.52192(15)
H23 H 0.3616 0.5068 0.6202
loop_
_geom_bond_atom_site_label_1
_geom_bond_atom_site_label_2
_geom_bond_site_symmetry_1
_geom_bond_site_symmetry_2
S1 O5 1_555 1_555
O1 C11 1_555 1_555
O2 C12 1_555 1_555
O3 H1 1_555 1_555
O4 H2 1_555 1_555
O6 S1 1_555 1_555
N1 S1 1_555 1_555
C1 H3 1_555 1_555
H4 C1 1_555 1_555
H5 C1 1_555 1_555
C2 C1 1_555 1_555
C3 C2 1_555 1_555
H6 C3 1_555 1_555
C4 C3 1_555 1_555
H7 C4 1_555 1_555
C5 S1 1_555 1_555
C6 N1 1_555 1_555
H8 C6 1_555 1_555
H9 C6 1_555 1_555
C7 C6 1_555 1_555
H10 C7 1_555 1_555
C8 C7 1_555 1_555
C9 C8 1_555 1_555
H11 C9 1_555 1_555
C10 C9 1_555 1_555
H12 C10 1_555 1_555
C11 C10 1_555 1_555
C12 O1 1_555 1_555
H13 C12 1_555 1_555
H14 C12 1_555 1_555
C13 O2 1_555 1_555
C14 C8 1_555 1_555
H15 C14 1_555 1_555
C15 C7 1_555 1_555
C16 C15 1_555 1_555
H16 C16 1_555 1_555
C17 O4 1_555 1_555
H17 C17 1_555 1_555
C18 O3 1_555 1_555
H18 C18 1_555 1_555
C19 C18 1_555 1_555
H19 C19 1_555 1_555
H20 C19 1_555 1_555
C20 N1 1_555 1_555
H21 C20 1_555 1_555
C21 C5 1_555 1_555
H22 C21 1_555 1_555
C22 C2 1_555 1_555
H23 C22 1_555 1_555
C4 C5 1_555 1_555
C11 C13 1_555 1_555
C13 C14 1_555 1_555
C15 C20 1_555 1_555
C16 C17 1_555 1_555
C17 C18 1_555 1_555
C19 C20 1_555 1_555
C21 C22 1_555 1_555

#END
