
#######################################################################
#
#                 Cambridge Crystallographic Data Centre
#                                CCDC 
#
#######################################################################
#
# If this CIF has been generated from an entry in the Cambridge 
# Structural Database, then it will include bibliographic, chemical, 
# crystal, experimental, refinement or atomic coordinate data resulting 
# from the CCDC's data processing and validation procedures.
#
#######################################################################

data_BEBDAP
_chemical_formula_moiety         'C29 H39 N1 O6 S1 Si1'
_chemical_name_systematic        
3-(1,3-Benzodioxol-5-yl)-5-((t-butyl(dimethyl)silyl)oxy)-6-methoxy-1-((4-methylphenyl)sulfonyl)-2,3,5,6,7,7a-hexahydro-1H-indole
_symmetry_cell_setting           triclinic
_symmetry_space_group_name_H-M   'P -1'
_symmetry_Int_Tables_number      2
_space_group_name_Hall           '-P 1'
loop_
_symmetry_equiv_pos_site_id
_symmetry_equiv_pos_as_xyz
1 x,y,z
2 -x,-y,-z
_cell_length_a                   10.9625(16)
_cell_length_b                   12.4135(17)
_cell_length_c                   12.6502(18)
_cell_angle_alpha                115.780(1)
_cell_angle_beta                 94.564(2)
_cell_angle_gamma                100.874(2)
_cell_volume                     1496.67
_exptl_crystal_colour            colorless
_exptl_crystal_description       block
_chemical_melting_point          '171-172 deg.C'
_cell_formula_units_Z            2
loop_
_atom_site_label
_atom_site_type_symbol
_atom_site_fract_x
_atom_site_fract_y
_atom_site_fract_z
N1 N 0.1902(2) 1.0998(2) 1.1078(2)
O1 O 0.1132(2) 0.5138(2) 0.9087(2)
O2 O 0.2964(3) 0.4698(2) 0.9619(2)
O3 O 0.1523(2) 1.2095(2) 1.3110(2)
O4 O 0.1079(2) 1.2839(2) 1.1620(2)
O5 O 0.2708(2) 1.14525(19) 0.80971(19)
O6 O 0.23104(19) 0.89211(19) 0.63171(17)
S1 S 0.18549(8) 1.23261(8) 1.21421(8)
Si1 Si 0.15418(9) 0.78603(8) 0.49840(8)
C1 C 0.2247(3) 1.0925(3) 0.9940(2)
H1 H 0.2958 1.1625 1.0116
C2 C 0.1178(3) 1.0885(3) 0.9074(3)
H2 H 0.0425 1.0279 0.8992
H3 H 0.0984 1.1685 0.9372
C3 C 0.1577(3) 1.0544(3) 0.7883(3)
H4 H 0.0923 1.0589 0.7340
C4 C 0.1741(3) 0.9230(3) 0.7364(2)
H5 H 0.0896 0.8671 0.7119
C5 C 0.2477(3) 0.9008(3) 0.8270(3)
H6 H 0.2807 0.8317 0.8005
C6 C 0.2675(3) 0.9755(2) 0.9430(2)
C7 C 0.3230(3) 0.9567(3) 1.0451(2)
H7 H 0.4106 1.0064 1.0746
C8 C 0.2433(3) 1.0148(3) 1.1398(3)
H8 H 0.1761 0.9513 1.1394
H9 H 0.2957 1.0596 1.2188
C9 C 0.3213(3) 0.8258(3) 1.0195(2)
C10 C 0.2084(3) 0.7328(3) 0.9693(3)
H10 H 0.1340 0.7488 0.9460
C11 C 0.2111(3) 0.6193(3) 0.9559(3)
C12 C 0.1640(4) 0.4281(3) 0.9336(4)
H11 H 0.1315 0.4211 1.0000
H12 H 0.1392 0.3473 0.8644
C13 C 0.3208(3) 0.5931(3) 0.9873(3)
C14 C 0.4328(3) 0.6796(3) 1.0339(3)
H13 H 0.5069 0.6610 1.0538
C15 C 0.4306(3) 0.7971(3) 1.0503(3)
H14 H 0.5053 0.8590 1.0832
C16 C 0.3391(3) 1.3280(3) 1.2596(3)
C17 C 0.4241(4) 1.3233(4) 1.3410(4)
H15 H 0.4001 1.2716 1.3752
C18 C 0.5460(4) 1.3957(5) 1.3724(5)
H16 H 0.6036 1.3917 1.4280
C19 C 0.5848(4) 1.4732(3) 1.3240(3)
C20 C 0.4994(4) 1.4772(3) 1.2435(3)
H17 H 0.5237 1.5294 1.2099
C21 C 0.3768(3) 1.4056(3) 1.2100(3)
H18 H 0.3197 1.4097 1.1541
C22 C 0.7205(4) 1.5521(4) 1.3607(4)
H19 H 0.7408 1.5996 1.4460
H20 H 0.7287 1.6069 1.3251
H21 H 0.7771 1.4995 1.3339
C23 C 0.3041(4) 1.1623(3) 0.7124(3)
H22 H 0.3537 1.1061 0.6719
H23 H 0.3525 1.2457 0.7404
H24 H 0.2290 1.1470 0.6583
C24 C 0.0085(4) 0.8248(4) 0.4577(4)
H25 H -0.0471 0.8250 0.5127
H26 H -0.0328 0.7645 0.3783
H27 H 0.0298 0.9050 0.4612
C25 C 0.1091(4) 0.6344(3) 0.4973(4)
H28 H 0.1823 0.6172 0.5274
H29 H 0.0746 0.5713 0.4171
H30 H 0.0468 0.6359 0.5469
C26 C 0.2662(4) 0.7863(3) 0.3940(3)
C27 C 0.2963(5) 0.9100(4) 0.3893(5)
H31 H 0.3517 0.9063 0.3334
H32 H 0.3366 0.9752 0.4671
H33 H 0.2194 0.9258 0.3645
C28 C 0.2072(6) 0.6809(5) 0.2685(4)
H34 H 0.1308 0.6949 0.2399
H35 H 0.1881 0.6038 0.2718
H36 H 0.2657 0.6781 0.2153
C29 C 0.3922(5) 0.7679(5) 0.4368(5)
H37 H 0.4497 0.7708 0.3841
H38 H 0.3779 0.6892 0.4367
H39 H 0.4277 0.8323 0.5162
loop_
_geom_bond_atom_site_label_1
_geom_bond_atom_site_label_2
_geom_bond_site_symmetry_1
_geom_bond_site_symmetry_2
N1 S1 1_555 1_555
O1 C11 1_555 1_555
O2 C12 1_555 1_555
O3 S1 1_555 1_555
O4 S1 1_555 1_555
O5 C3 1_555 1_555
O6 Si1 1_555 1_555
S1 C16 1_555 1_555
Si1 C24 1_555 1_555
C1 N1 1_555 1_555
H1 C1 1_555 1_555
C2 C1 1_555 1_555
H2 C2 1_555 1_555
H3 C2 1_555 1_555
C3 C2 1_555 1_555
H4 C3 1_555 1_555
C4 O6 1_555 1_555
H5 C4 1_555 1_555
C5 C4 1_555 1_555
H6 C5 1_555 1_555
C6 C1 1_555 1_555
C7 C6 1_555 1_555
H7 C7 1_555 1_555
C8 N1 1_555 1_555
H8 C8 1_555 1_555
H9 C8 1_555 1_555
C9 C7 1_555 1_555
C10 C9 1_555 1_555
H10 C10 1_555 1_555
C11 C10 1_555 1_555
C12 O1 1_555 1_555
H11 C12 1_555 1_555
H12 C12 1_555 1_555
C13 O2 1_555 1_555
C14 C13 1_555 1_555
H13 C14 1_555 1_555
C15 C9 1_555 1_555
H14 C15 1_555 1_555
C16 C17 1_555 1_555
C17 H15 1_555 1_555
C18 C17 1_555 1_555
H16 C18 1_555 1_555
C19 C18 1_555 1_555
C20 C19 1_555 1_555
H17 C20 1_555 1_555
C21 C16 1_555 1_555
H18 C21 1_555 1_555
C22 C19 1_555 1_555
H19 C22 1_555 1_555
H20 C22 1_555 1_555
H21 C22 1_555 1_555
C23 O5 1_555 1_555
H22 C23 1_555 1_555
H23 C23 1_555 1_555
H24 C23 1_555 1_555
C24 H25 1_555 1_555
H26 C24 1_555 1_555
H27 C24 1_555 1_555
C25 Si1 1_555 1_555
H28 C25 1_555 1_555
H29 C25 1_555 1_555
H30 C25 1_555 1_555
C26 Si1 1_555 1_555
C27 C26 1_555 1_555
H31 C27 1_555 1_555
H32 C27 1_555 1_555
H33 C27 1_555 1_555
C28 C26 1_555 1_555
H34 C28 1_555 1_555
H35 C28 1_555 1_555
H36 C28 1_555 1_555
C29 C26 1_555 1_555
H37 C29 1_555 1_555
H38 C29 1_555 1_555
H39 C29 1_555 1_555
C3 C4 1_555 1_555
C5 C6 1_555 1_555
C7 C8 1_555 1_555
C11 C13 1_555 1_555
C14 C15 1_555 1_555
C20 C21 1_555 1_555

#END
