
#######################################################################
#
#                 Cambridge Crystallographic Data Centre
#                                CCDC 
#
#######################################################################
#
# If this CIF has been generated from an entry in the Cambridge 
# Structural Database, then it will include bibliographic, chemical, 
# crystal, experimental, refinement or atomic coordinate data resulting 
# from the CCDC's data processing and validation procedures.
#
#######################################################################

data_BEBKEZ
_chemical_formula_moiety         'C17 H16 O1 S1'
_chemical_name_systematic        trans-2,6-Diphenylthiapyran-4-one
_symmetry_cell_setting           triclinic
_symmetry_space_group_name_H-M   'P -1'
_symmetry_Int_Tables_number      2
_space_group_name_Hall           '-P 1'
loop_
_symmetry_equiv_pos_site_id
_symmetry_equiv_pos_as_xyz
1 x,y,z
2 -x,-y,-z
_cell_length_a                   5.909(2)
_cell_length_b                   9.706(3)
_cell_length_c                   13.184(5)
_cell_angle_alpha                102.02(3)
_cell_angle_beta                 94.39(3)
_cell_angle_gamma                106.39(3)
_cell_volume                     702.091
_exptl_crystal_colour            colorless
_exptl_crystal_description       plate
_cell_formula_units_Z            2
_exptl_crystal_recrystallization_method ethanol
loop_
_atom_site_label
_atom_site_type_symbol
_atom_site_fract_x
_atom_site_fract_y
_atom_site_fract_z
S1 S 0.15492(12) 0.59902(8) 0.24393(5)
O1 O 0.7468(4) 0.6448(2) 0.47868(15)
C1 C 0.3633(5) 0.4113(3) 0.12900(18)
C2 C 0.4434(5) 0.8850(3) 0.33522(19)
C3 C 0.5609(5) 0.6159(3) 0.42162(19)
C4 C 0.4157(4) 0.5384(3) 0.22534(18)
C5 C 0.2789(5) 0.7503(3) 0.3610(2)
C6 C 0.5013(6) 0.4938(3) 0.3225(2)
C7 C 0.5099(7) 0.2767(4) -0.0122(2)
C8 C 0.3816(6) 0.6948(3) 0.4488(2)
C9 C 0.6821(6) 0.9438(3) 0.3759(2)
C10 C 0.1401(6) 0.3106(3) 0.0942(2)
C11 C 0.2876(7) 0.1782(4) -0.0458(2)
C12 C 0.5480(5) 0.3936(3) 0.0745(2)
C13 C 0.1026(7) 0.1948(4) 0.0070(3)
C14 C 0.8244(7) 1.0708(4) 0.3520(3)
C15 C 0.3505(7) 0.9570(4) 0.2691(2)
C16 C 0.7281(9) 1.1395(4) 0.2873(3)
C17 C 0.4926(10) 1.0826(4) 0.2462(3)
H1 H 0.543(5) 0.628(3) 0.214(2)
H2 H 0.134(5) 0.770(3) 0.377(2)
H3 H 0.376(5) 0.415(3) 0.332(2)
H4 H 0.634(6) 0.460(3) 0.313(2)
H5 H 0.760(6) 0.903(3) 0.422(2)
H6 H 0.705(6) 0.466(4) 0.094(3)
H7 H 0.253(6) 0.624(4) 0.466(3)
H8 H 0.014(6) 0.321(4) 0.126(3)
H9 H 0.187(7) 0.910(4) 0.245(3)
H10 H 0.451(6) 0.778(4) 0.511(3)
H11 H 0.641(8) 0.270(5) -0.049(3)
H12 H -0.054(7) 0.131(4) -0.016(3)
H13 H 0.430(8) 1.121(5) 0.202(3)
H14 H 0.845(8) 1.234(5) 0.273(3)
H15 H 0.262(7) 0.099(4) -0.108(3)
H16 H 0.990(8) 1.110(4) 0.382(3)
loop_
_geom_bond_atom_site_label_1
_geom_bond_atom_site_label_2
_geom_bond_site_symmetry_1
_geom_bond_site_symmetry_2
S1 C4 1_555 1_555
O1 C3 1_555 1_555
C1 C4 1_555 1_555
C2 C5 1_555 1_555
C3 C6 1_555 1_555
C4 C6 1_555 1_555
C5 S1 1_555 1_555
C6 H3 1_555 1_555
C7 C11 1_555 1_555
C8 C3 1_555 1_555
C9 C2 1_555 1_555
C10 C1 1_555 1_555
C11 C13 1_555 1_555
C12 C1 1_555 1_555
C13 C10 1_555 1_555
C14 C9 1_555 1_555
C15 C2 1_555 1_555
C16 C14 1_555 1_555
C17 C15 1_555 1_555
H1 C4 1_555 1_555
H2 C5 1_555 1_555
H4 C6 1_555 1_555
H5 C9 1_555 1_555
H6 C12 1_555 1_555
H7 C8 1_555 1_555
H8 C10 1_555 1_555
H9 C15 1_555 1_555
H10 C8 1_555 1_555
H11 C7 1_555 1_555
H12 C13 1_555 1_555
H13 C17 1_555 1_555
H14 C16 1_555 1_555
H15 C11 1_555 1_555
H16 C14 1_555 1_555
C5 C8 1_555 1_555
C7 C12 1_555 1_555
C16 C17 1_555 1_555

#END
