
#######################################################################
#
#                 Cambridge Crystallographic Data Centre
#                                CCDC 
#
#######################################################################
#
# If this CIF has been generated from an entry in the Cambridge 
# Structural Database, then it will include bibliographic, chemical, 
# crystal, experimental, refinement or atomic coordinate data resulting 
# from the CCDC's data processing and validation procedures.
#
#######################################################################

data_BEBVEJ
_chemical_formula_moiety         'C9 H11 N2 O8 P1'
_chemical_name_systematic        "Uridine-(3'-5')-cyclic phosphate"
_symmetry_cell_setting           monoclinic
_symmetry_space_group_name_H-M   'P 2'
_symmetry_Int_Tables_number      3
_space_group_name_Hall           'P 2y'
loop_
_symmetry_equiv_pos_site_id
_symmetry_equiv_pos_as_xyz
1 x,y,z
2 -x,y,-z
_cell_length_a                   10.767(6)
_cell_length_b                   7.152(4)
_cell_length_c                   10.414(5)
_cell_angle_alpha                90
_cell_angle_beta                 112.77(31)
_cell_angle_gamma                90
_cell_volume                     739.438
_exptl_crystal_colour            colorless
_cell_formula_units_Z            2
loop_
_atom_site_label
_atom_site_type_symbol
_atom_site_fract_x
_atom_site_fract_y
_atom_site_fract_z
P1 P 0.80628 0.41920 0.13763
O1 O 0.73624 0.25360 0.06163
O2 O 0.90638 0.51190 0.09305
O3 O 0.69437 0.57829 0.12777
O4 O 0.88082 0.38270 0.30168
O5 O 0.60583 0.48554 0.42214
O6 O 0.55336 0.83919 0.24330
O7 O 0.21525 0.64012 0.21031
O8 O 0.08091 0.03424 0.15852
N1 N 0.38096 0.41783 0.28725
N2 N 0.15435 0.33335 0.19821
C1 C 0.48180 0.56706 0.33119
C2 C 0.50462 0.65459 0.20488
C3 C 0.61500 0.52164 0.20630
C4 C 0.70184 0.50592 0.35570
C5 C 0.79947 0.33672 0.38495
C6 C 0.24725 0.47213 0.23257
C7 C 0.17667 0.14413 0.20663
C8 C 0.31962 0.08932 0.26872
C9 C 0.40941 0.22368 0.30460
loop_
_geom_bond_atom_site_label_1
_geom_bond_atom_site_label_2
_geom_bond_site_symmetry_1
_geom_bond_site_symmetry_2
P1 O1 1_555 1_555
O2 P1 1_555 1_555
O3 P1 1_555 1_555
O4 P1 1_555 1_555
O5 C1 1_555 1_555
O6 C2 1_555 1_555
O7 C6 1_555 1_555
O8 C7 1_555 1_555
N1 C1 1_555 1_555
N2 C6 1_555 1_555
C1 C2 1_555 1_555
C2 C3 1_555 1_555
C3 O3 1_555 1_555
C4 O5 1_555 1_555
C5 O4 1_555 1_555
C6 N1 1_555 1_555
C7 N2 1_555 1_555
C8 C7 1_555 1_555
C9 N1 1_555 1_555
C3 C4 1_555 1_555
C4 C5 1_555 1_555
C8 C9 1_555 1_555

#END
