
#######################################################################
#
#                 Cambridge Crystallographic Data Centre
#                                CCDC 
#
#######################################################################
#
# If this CIF has been generated from an entry in the Cambridge 
# Structural Database, then it will include bibliographic, chemical, 
# crystal, experimental, refinement or atomic coordinate data resulting 
# from the CCDC's data processing and validation procedures.
#
#######################################################################

data_BEBYIQ
_chemical_formula_moiety         'C31 H27 N1 O1 S1,1.5(C6 H6)'
_chemical_name_systematic        
'2,4,6,8-Tetraphenyl-3-aza-7-thiabicyclo(3.3.1)nonan-9-one benzene solvate'
_symmetry_cell_setting           triclinic
_symmetry_space_group_name_H-M   'P -1'
_symmetry_Int_Tables_number      2
_space_group_name_Hall           '-P 1'
loop_
_symmetry_equiv_pos_site_id
_symmetry_equiv_pos_as_xyz
1 x,y,z
2 -x,-y,-z
_cell_length_a                   8.910(2)
_cell_length_b                   9.754(2)
_cell_length_c                   19.342(3)
_cell_angle_alpha                92.09(2)
_cell_angle_beta                 98.84(2)
_cell_angle_gamma                110.75(2)
_cell_volume                     1545.73
_cell_formula_units_Z            2
loop_
_atom_site_label
_atom_site_type_symbol
_atom_site_fract_x
_atom_site_fract_y
_atom_site_fract_z
C1 C -0.07631 0.30498 0.23498
C2 C -0.17100 0.41234 0.23630
N1 N -0.10379 0.51163 0.30152
C3 C 0.07198 0.60117 0.31039
C4 C 0.16613 0.49342 0.31463
C5 C 0.28237 0.51232 0.26036
S1 S 0.17373 0.49261 0.17082
C6 C 0.01458 0.31351 0.17163
C7 C 0.04623 0.33622 0.30210
O1 O 0.05289 0.24222 0.34048
C8 C -0.35124 0.32385 0.23477
C9 C -0.45675 0.27110 0.17081
C10 C -0.61889 0.18074 0.16864
C11 C -0.67701 0.14338 0.23041
C12 C -0.57366 0.19801 0.29452
C13 C -0.41198 0.28700 0.29670
C14 C 0.12172 0.70608 0.37677
C15 C 0.05187 0.66534 0.43584
C16 C 0.10070 0.76129 0.49693
C17 C 0.22394 0.89740 0.50027
C18 C 0.29602 0.93822 0.44203
C19 C 0.24510 0.84372 0.38052
C20 C 0.42705 0.65690 0.27525
C21 C 0.55510 0.66689 0.32904
C22 C 0.69023 0.79716 0.34601
C23 C 0.69955 0.91856 0.30914
C24 C 0.57248 0.90958 0.25597
C25 C 0.43689 0.77961 0.23896
C26 C -0.10157 0.27224 0.10190
C27 C -0.13139 0.37596 0.06012
C28 C -0.24093 0.33144 -0.00324
C29 C -0.32204 0.18282 -0.02526
C30 C -0.29256 0.07857 0.01615
C31 C -0.18340 0.12283 0.07914
H1 H -0.15290 0.20260 0.23170
H2 H -0.16050 0.47120 0.19420
H3 H -0.16250 0.57430 0.30290
H4 H 0.09630 0.66190 0.26980
H5 H 0.23100 0.50780 0.36190
H6 H 0.32200 0.43110 0.26210
H7 H 0.06670 0.24000 0.17790
H8 H -0.41460 0.29810 0.12750
H9 H -0.69580 0.14730 0.12210
H10 H -0.79270 0.07840 0.22800
H11 H -0.61420 0.17420 0.33800
H12 H -0.33540 0.32490 0.34140
H13 H -0.03350 0.57060 0.43310
H14 H 0.05310 0.72900 0.53580
H15 H 0.25700 0.96240 0.54360
H16 H 0.38550 1.03570 0.44480
H17 H 0.29280 0.87440 0.33610
H18 H 0.54650 0.58140 0.35590
H19 H 0.77310 0.79700 0.38320
H20 H 0.79380 1.00780 0.31900
H21 H 0.57760 0.99250 0.22830
H22 H 0.34520 0.77390 0.19980
H23 H -0.07400 0.47830 0.07370
H24 H -0.25970 0.40380 -0.03100
H25 H -0.40110 0.15320 -0.06730
H26 H -0.34570 -0.02370 0.00050
H27 H -0.16590 0.04870 0.10790
C32 C 0.09435 0.21387 0.83557
C33 C 0.02893 0.18592 0.89326
C34 C 0.12479 0.23418 0.95853
C35 C 0.29356 0.31298 0.96436
C36 C 0.35842 0.34139 0.90291
C37 C 0.25720 0.29171 0.83980
H28 H 0.01400 0.18120 0.78770
H29 H -0.10120 0.12790 0.89700
H30 H 0.09260 0.22050 0.99460
H31 H 0.36560 0.34850 0.99990
H32 H 0.47210 0.39460 0.90450
H33 H 0.29690 0.31280 0.79690
C38 C 0.54247 0.37893 0.48755
C39 C 0.66182 0.51727 0.50582
C40 C 0.38034 0.36226 0.48178
H34 H 0.56840 0.29490 0.47920
H35 H 0.77440 0.52930 0.51120
H36 H 0.30370 0.26730 0.47200
C40A C 0.61966 0.63774 0.51822
C39A C 0.33818 0.48273 0.49418
C38A C 0.45753 0.62107 0.51245
H36A H 0.69630 0.73270 0.52800
H35A H 0.22560 0.47070 0.48880
H34A H 0.43160 0.70510 0.52080
loop_
_geom_bond_atom_site_label_1
_geom_bond_atom_site_label_2
_geom_bond_site_symmetry_1
_geom_bond_site_symmetry_2
C1 C2 1_555 1_555
C2 N1 1_555 1_555
N1 C3 1_555 1_555
C3 C4 1_555 1_555
C4 C5 1_555 1_555
C5 S1 1_555 1_555
S1 C6 1_555 1_555
C6 C1 1_555 1_555
C7 C1 1_555 1_555
O1 C7 1_555 1_555
C8 C2 1_555 1_555
C9 C8 1_555 1_555
C10 C9 1_555 1_555
C11 C10 1_555 1_555
C12 C11 1_555 1_555
C13 C8 1_555 1_555
C14 C3 1_555 1_555
C15 C14 1_555 1_555
C16 C15 1_555 1_555
C17 C16 1_555 1_555
C18 C17 1_555 1_555
C19 C14 1_555 1_555
C20 C5 1_555 1_555
C21 C20 1_555 1_555
C22 C21 1_555 1_555
C23 C22 1_555 1_555
C24 C23 1_555 1_555
C25 C20 1_555 1_555
C26 C6 1_555 1_555
C27 C26 1_555 1_555
C28 C27 1_555 1_555
C29 C28 1_555 1_555
C30 C29 1_555 1_555
C31 C26 1_555 1_555
C32 C33 1_555 1_555
C33 C34 1_555 1_555
C34 C35 1_555 1_555
C35 C36 1_555 1_555
C36 C37 1_555 1_555
C37 C32 1_555 1_555
C38 C39 1_555 1_555
C39 H35 1_555 1_555
C40 C38 1_555 1_555
H1 C1 1_555 1_555
H2 C2 1_555 1_555
H3 N1 1_555 1_555
H4 C3 1_555 1_555
H5 C4 1_555 1_555
H6 C5 1_555 1_555
H7 C6 1_555 1_555
H8 C9 1_555 1_555
H9 C10 1_555 1_555
H10 C11 1_555 1_555
H11 C12 1_555 1_555
H12 C13 1_555 1_555
H13 C15 1_555 1_555
H14 C16 1_555 1_555
H15 C17 1_555 1_555
H16 C18 1_555 1_555
H17 C19 1_555 1_555
H18 C21 1_555 1_555
H19 C22 1_555 1_555
H20 C23 1_555 1_555
H21 C24 1_555 1_555
H22 C25 1_555 1_555
H23 C27 1_555 1_555
H24 C28 1_555 1_555
H25 C29 1_555 1_555
H26 C30 1_555 1_555
H27 C31 1_555 1_555
H28 C32 1_555 1_555
H29 C33 1_555 1_555
H30 C34 1_555 1_555
H31 C35 1_555 1_555
H32 C36 1_555 1_555
H33 C37 1_555 1_555
H34 C38 1_555 1_555
H36 C40 1_555 1_555
C40A C39 1_555 1_555
C39A C40 1_555 1_555
C38A C40A 1_555 1_555
H36A C40A 1_555 1_555
H35A C39A 1_555 1_555
H34A C38A 1_555 1_555
C4 C7 1_555 1_555
C12 C13 1_555 1_555
C18 C19 1_555 1_555
C24 C25 1_555 1_555
C30 C31 1_555 1_555
C39A C38A 1_555 1_555

#END
