
#######################################################################
#
#                 Cambridge Crystallographic Data Centre
#                                CCDC 
#
#######################################################################
#
# If this CIF has been generated from an entry in the Cambridge 
# Structural Database, then it will include bibliographic, chemical, 
# crystal, experimental, refinement or atomic coordinate data resulting 
# from the CCDC's data processing and validation procedures.
#
#######################################################################

data_BECBUJ
_chemical_formula_moiety         'C60 H63 Li3 N6'
_chemical_name_systematic        
tris{\m-[1-benzyl-3-({t-butylimino}methyl)-1H-indol-2-yl]}-tri-lithium
_symmetry_cell_setting           triclinic
_symmetry_space_group_name_H-M   'P -1'
_symmetry_Int_Tables_number      2
_space_group_name_Hall           '-P 1'
loop_
_symmetry_equiv_pos_site_id
_symmetry_equiv_pos_as_xyz
1 x,y,z
2 -x,-y,-z
_cell_length_a                   12.5984(13)
_cell_length_b                   13.3976(14)
_cell_length_c                   17.8943(18)
_cell_angle_alpha                90.9690(10)
_cell_angle_beta                 99.5850(10)
_cell_angle_gamma                115.7260(10)
_cell_volume                     2669.43
_exptl_crystal_colour            colorless
_exptl_crystal_description       block
_cell_formula_units_Z            2
loop_
_atom_site_label
_atom_site_type_symbol
_atom_site_fract_x
_atom_site_fract_y
_atom_site_fract_z
C1 C 0.77962(16) 0.12111(16) 0.18222(11)
C2 C 0.85138(16) 0.07609(16) 0.15584(11)
C3 C 0.81987(17) 0.05320(16) 0.07424(12)
C4 C 0.8576(2) 0.00833(19) 0.01925(14)
H1 H 0.9163 -0.0160 0.0332
C5 C 0.8065(2) 0.0007(2) -0.05605(14)
H2 H 0.8310 -0.0295 -0.0931
C6 C 0.7196(2) 0.03666(19) -0.07808(13)
H3 H 0.6873 0.0309 -0.1295
C7 C 0.68036(19) 0.08084(17) -0.02512(13)
H4 H 0.6223 0.1057 -0.0398
C8 C 0.73041(17) 0.08712(16) 0.05138(11)
C9 C 0.61255(17) 0.15972(18) 0.11481(13)
H5 H 0.6092 0.1782 0.1667
H6 H 0.5368 0.0966 0.0931
C10 C 0.62474(19) 0.25655(18) 0.07047(12)
C11 C 0.7335(2) 0.3471(2) 0.07469(16)
H7 H 0.8017 0.3483 0.1050
C12 C 0.7431(4) 0.4362(3) 0.0348(2)
H8 H 0.8174 0.4973 0.0379
C13 C 0.6422(5) 0.4347(3) -0.0100(2)
H9 H 0.6483 0.4949 -0.0371
C14 C 0.5336(4) 0.3451(4) -0.01468(19)
H10 H 0.4656 0.3445 -0.0448
C15 C 0.5239(2) 0.2552(2) 0.02509(15)
H11 H 0.4497 0.1938 0.0214
C16 C 0.94059(18) 0.05522(18) 0.20305(13)
H12 H 0.9785 0.0210 0.1795
C17 C 1.0582(2) 0.0413(2) 0.31835(14)
C18 C 1.0550(8) -0.0611(6) 0.2824(5)
H13 H 0.9732 -0.1136 0.2630
H14 H 1.0915 -0.0933 0.3196
H15 H 1.0983 -0.0423 0.2413
C19 C 1.0187(5) 0.0132(6) 0.3961(3)
H16 H 1.0157 0.0764 0.4200
H17 H 1.0753 -0.0050 0.4284
H18 H 0.9406 -0.0492 0.3881
C20 C 1.1822(4) 0.1382(5) 0.3346(5)
H19 H 1.2100 0.1573 0.2876
H20 H 1.2363 0.1177 0.3675
H21 H 1.1791 0.2010 0.3589
C21 C 0.81316(17) 0.14645(17) 0.39536(12)
C22 C 0.72366(17) 0.05247(17) 0.42007(11)
C23 C 0.71390(18) 0.07756(19) 0.49636(12)
C24 C 0.6403(2) 0.0195(2) 0.54755(13)
H22 H 0.5821 -0.0536 0.5343
C25 C 0.6568(2) 0.0738(3) 0.61772(14)
H23 H 0.6081 0.0364 0.6517
C26 C 0.7439(3) 0.1827(3) 0.63918(15)
H24 H 0.7527 0.2165 0.6871
C27 C 0.8165(2) 0.2406(2) 0.59092(13)
H25 H 0.8752 0.3134 0.6051
C28 C 0.79968(19) 0.1868(2) 0.51934(12)
C29 C 0.9518(2) 0.33929(18) 0.46149(13)
H26 H 0.9458 0.3855 0.5013
H27 H 0.9385 0.3686 0.4135
C30 C 1.0769(2) 0.34821(19) 0.47602(13)
C31 C 1.1632(2) 0.4235(2) 0.44045(14)
H28 H 1.1440 0.4687 0.4075
C32 C 1.2793(3) 0.4319(3) 0.4539(2)
H29 H 1.3370 0.4822 0.4295
C33 C 1.3081(3) 0.3668(4) 0.5027(2)
H30 H 1.3857 0.3731 0.5118
C34 C 1.2237(3) 0.2924(3) 0.5383(2)
H31 H 1.2439 0.2479 0.5714
C35 C 1.1092(2) 0.2828(2) 0.52567(17)
H32 H 1.0524 0.2321 0.5505
C36 C 0.64772(17) -0.05423(18) 0.37692(13)
H33 H 0.5839 -0.1040 0.3973
C37 C 0.5761(2) -0.19204(19) 0.26858(14)
C38 C 0.4948(2) -0.2783(2) 0.31380(16)
H34 H 0.5430 -0.2904 0.3568
H35 H 0.4475 -0.3470 0.2819
H36 H 0.4426 -0.2519 0.3312
C39 C 0.6523(3) -0.2374(2) 0.23558(18)
H37 H 0.6992 -0.1851 0.2041
H38 H 0.6009 -0.3070 0.2056
H39 H 0.7049 -0.2485 0.2763
C40 C 0.5004(2) -0.1638(2) 0.20457(15)
H40 H 0.4550 -0.1327 0.2260
H41 H 0.4465 -0.2302 0.1718
H42 H 0.5521 -0.1106 0.1757
C41 C 0.96143(17) 0.37049(17) 0.27363(11)
C42 C 0.90866(18) 0.44407(17) 0.26631(12)
C43 C 0.9794(2) 0.53960(17) 0.23027(12)
C44 C 0.9707(3) 0.6353(2) 0.20762(14)
H43 H 0.9085 0.6502 0.2175
C45 C 1.0566(3) 0.7076(2) 0.17017(16)
H44 H 1.0519 0.7720 0.1553
C46 C 1.1492(3) 0.6867(2) 0.15430(15)
H45 H 1.2043 0.7363 0.1279
C47 C 1.1613(2) 0.5946(2) 0.17665(14)
H46 H 1.2242 0.5809 0.1666
C48 C 1.07591(19) 0.52219(18) 0.21498(12)
C49 C 1.15174(19) 0.3815(2) 0.23875(14)
H47 H 1.1365 0.3208 0.2706
H48 H 1.2304 0.4408 0.2605
C50 C 1.1550(2) 0.3418(2) 0.16117(16)
C51 C 1.2513(3) 0.3255(3) 0.1507(2)
H49 H 1.3143 0.3404 0.1914
C52 C 1.2556(7) 0.2868(5) 0.0793(4)
H50 H 1.3209 0.2749 0.0723
C53 C 1.1642(7) 0.2663(4) 0.0198(4)
H51 H 1.1677 0.2414 -0.0281
C54 C 1.0682(4) 0.2817(3) 0.0298(2)
H52 H 1.0054 0.2668 -0.0111
C55 C 1.0637(3) 0.3194(2) 0.10015(17)
H53 H 0.9975 0.3301 0.1067
C56 C 0.7971(2) 0.42748(19) 0.28697(13)
H54 H 0.7808 0.4887 0.2895
C57 C 0.6077(2) 0.3250(2) 0.32618(15)
C58 C 0.6107(7) 0.2937(6) 0.4079(4)
H55 H 0.6174 0.2252 0.4105
H56 H 0.5380 0.2848 0.4236
H57 H 0.6784 0.3516 0.4410
C59 C 0.5851(11) 0.4285(7) 0.3223(5)
H58 H 0.6472 0.4880 0.3575
H59 H 0.5086 0.4116 0.3353
H60 H 0.5852 0.4508 0.2716
C60 C 0.5053(5) 0.2305(7) 0.2728(5)
H61 H 0.5033 0.2508 0.2215
H62 H 0.4306 0.2164 0.2875
H63 H 0.5174 0.1645 0.2755
Li1 Li 0.7954(3) 0.0383(3) 0.2856(2)
Li2 Li 0.7794(3) 0.2253(3) 0.2807(2)
Li3 Li 0.9643(3) 0.2203(3) 0.3244(2)
N1 N 0.70819(13) 0.12636(13) 0.11680(9)
N2 N 0.97339(14) 0.07986(14) 0.27600(10)
N3 N 0.85763(15) 0.22628(14) 0.45878(10)
N4 N 0.66160(14) -0.08534(14) 0.31305(10)
N5 N 1.06311(14) 0.42210(15) 0.24169(10)
N6 N 0.71852(15) 0.33412(15) 0.30220(10)
C61? C 0.9935(11) -0.0834(8) 0.3177(9)
H64? H 0.9273 -0.1026 0.3435
H65? H 1.0479 -0.1102 0.3431
H66? H 0.9641 -0.1168 0.2660
C62? C 1.1046(14) 0.1043(13) 0.3928(6)
H67? H 1.1695 0.1754 0.3895
H68? H 1.1331 0.0641 0.4281
H69? H 1.0418 0.1151 0.4102
C63? C 1.1622(8) 0.0610(12) 0.2727(7)
H70? H 1.1285 0.0175 0.2241
H71? H 1.2188 0.0389 0.3011
H72? H 1.2023 0.1385 0.2653
C64? C 0.6474(15) 0.3481(16) 0.4115(7)
H73? H 0.6849 0.3020 0.4298
H74? H 0.5788 0.3319 0.4345
H75? H 0.7036 0.4250 0.4245
C65? C 0.570(2) 0.4078(16) 0.2886(11)
H76? H 0.6350 0.4813 0.3004
H77? H 0.5017 0.4056 0.3072
H78? H 0.5488 0.3891 0.2344
C66? C 0.5079(15) 0.2046(12) 0.3037(10)
H79? H 0.4756 0.1950 0.2501
H80? H 0.4452 0.1912 0.3318
H81? H 0.5409 0.1530 0.3152
loop_
_geom_bond_atom_site_label_1
_geom_bond_atom_site_label_2
_geom_bond_site_symmetry_1
_geom_bond_site_symmetry_2
C1 C2 1_555 1_555
C2 C3 1_555 1_555
C3 C4 1_555 1_555
C4 H1 1_555 1_555
C5 C4 1_555 1_555
H2 C5 1_555 1_555
C6 C5 1_555 1_555
H3 C6 1_555 1_555
C7 C6 1_555 1_555
H4 C7 1_555 1_555
C8 C3 1_555 1_555
C9 H5 1_555 1_555
H6 C9 1_555 1_555
C10 C9 1_555 1_555
C11 C10 1_555 1_555
H7 C11 1_555 1_555
C12 C11 1_555 1_555
H8 C12 1_555 1_555
C13 C12 1_555 1_555
H9 C13 1_555 1_555
C14 C13 1_555 1_555
H10 C14 1_555 1_555
C15 C10 1_555 1_555
H11 C15 1_555 1_555
C16 C2 1_555 1_555
H12 C16 1_555 1_555
C17 C18 1_555 1_555
C18 H13 1_555 1_555
H14 C18 1_555 1_555
H15 C18 1_555 1_555
C19 C17 1_555 1_555
H16 C19 1_555 1_555
H17 C19 1_555 1_555
H18 C19 1_555 1_555
C20 C17 1_555 1_555
H19 C20 1_555 1_555
H20 C20 1_555 1_555
H21 C20 1_555 1_555
C21 C22 1_555 1_555
C22 C23 1_555 1_555
C23 C24 1_555 1_555
C24 H22 1_555 1_555
C25 C24 1_555 1_555
H23 C25 1_555 1_555
C26 C25 1_555 1_555
H24 C26 1_555 1_555
C27 C26 1_555 1_555
H25 C27 1_555 1_555
C28 C23 1_555 1_555
C29 H26 1_555 1_555
H27 C29 1_555 1_555
C30 C29 1_555 1_555
C31 C30 1_555 1_555
H28 C31 1_555 1_555
C32 C31 1_555 1_555
H29 C32 1_555 1_555
C33 C32 1_555 1_555
H30 C33 1_555 1_555
C34 C33 1_555 1_555
H31 C34 1_555 1_555
C35 C30 1_555 1_555
H32 C35 1_555 1_555
C36 C22 1_555 1_555
H33 C36 1_555 1_555
C37 C38 1_555 1_555
C38 H34 1_555 1_555
H35 C38 1_555 1_555
H36 C38 1_555 1_555
C39 C37 1_555 1_555
H37 C39 1_555 1_555
H38 C39 1_555 1_555
H39 C39 1_555 1_555
C40 C37 1_555 1_555
H40 C40 1_555 1_555
H41 C40 1_555 1_555
H42 C40 1_555 1_555
C41 C42 1_555 1_555
C42 C43 1_555 1_555
C43 C44 1_555 1_555
C44 H43 1_555 1_555
C45 C44 1_555 1_555
H44 C45 1_555 1_555
C46 C45 1_555 1_555
H45 C46 1_555 1_555
C47 C46 1_555 1_555
H46 C47 1_555 1_555
C48 C43 1_555 1_555
C49 H47 1_555 1_555
H48 C49 1_555 1_555
C50 C49 1_555 1_555
C51 C50 1_555 1_555
H49 C51 1_555 1_555
C52 C51 1_555 1_555
H50 C52 1_555 1_555
C53 C52 1_555 1_555
H51 C53 1_555 1_555
C54 C53 1_555 1_555
H52 C54 1_555 1_555
C55 C50 1_555 1_555
H53 C55 1_555 1_555
C56 C42 1_555 1_555
H54 C56 1_555 1_555
C57 C58 1_555 1_555
C58 H55 1_555 1_555
H56 C58 1_555 1_555
H57 C58 1_555 1_555
C59 C57 1_555 1_555
H58 C59 1_555 1_555
H59 C59 1_555 1_555
H60 C59 1_555 1_555
C60 C57 1_555 1_555
H61 C60 1_555 1_555
H62 C60 1_555 1_555
H63 C60 1_555 1_555
Li1 C1 1_555 1_555
Li2 C1 1_555 1_555
Li3 C21 1_555 1_555
N1 C1 1_555 1_555
N2 C16 1_555 1_555
N3 C21 1_555 1_555
N4 C36 1_555 1_555
N5 C41 1_555 1_555
N6 C56 1_555 1_555
C7 C8 1_555 1_555
C8 N1 1_555 1_555
C9 N1 1_555 1_555
C14 C15 1_555 1_555
C17 N2 1_555 1_555
C21 Li1 1_555 1_555
C21 Li2 1_555 1_555
C27 C28 1_555 1_555
C28 N3 1_555 1_555
C29 N3 1_555 1_555
C34 C35 1_555 1_555
C37 N4 1_555 1_555
C41 Li2 1_555 1_555
C41 Li3 1_555 1_555
C47 C48 1_555 1_555
C48 N5 1_555 1_555
C49 N5 1_555 1_555
C54 C55 1_555 1_555
C57 N6 1_555 1_555
Li1 N2 1_555 1_555
Li1 N4 1_555 1_555
Li2 N6 1_555 1_555
Li3 N2 1_555 1_555

#END
