
#######################################################################
#
#                 Cambridge Crystallographic Data Centre
#                                CCDC 
#
#######################################################################
#
# If this CIF has been generated from an entry in the Cambridge 
# Structural Database, then it will include bibliographic, chemical, 
# crystal, experimental, refinement or atomic coordinate data resulting 
# from the CCDC's data processing and validation procedures.
#
#######################################################################

data_BECBOD
_chemical_formula_moiety         'C56 H58 Li2 N4'
_chemical_name_systematic        
bis{\m-[1-benzyl-3-({2,6-di-isopropylphenylimino}methyl)-1H-indol-2-yl]}-di-lithium
_symmetry_cell_setting           triclinic
_symmetry_space_group_name_H-M   'P -1'
_symmetry_Int_Tables_number      2
_space_group_name_Hall           '-P 1'
loop_
_symmetry_equiv_pos_site_id
_symmetry_equiv_pos_as_xyz
1 x,y,z
2 -x,-y,-z
_cell_length_a                   11.015(2)
_cell_length_b                   14.728(3)
_cell_length_c                   16.770(3)
_cell_angle_alpha                95.932(3)
_cell_angle_beta                 108.865(2)
_cell_angle_gamma                109.445(3)
_cell_volume                     2358.76
_exptl_crystal_colour            yellow
_exptl_crystal_description       block
_cell_formula_units_Z            2
loop_
_atom_site_label
_atom_site_type_symbol
_atom_site_fract_x
_atom_site_fract_y
_atom_site_fract_z
C1 C 0.7464(2) 0.30074(16) 0.19857(15)
C2 C 0.7539(2) 0.36097(15) 0.13865(14)
C3 C 0.6171(3) 0.34022(17) 0.07740(16)
C4 C 0.5608(3) 0.3794(2) 0.00903(17)
H1 H 0.6184 0.4298 -0.0071
C5 C 0.4195(4) 0.3423(2) -0.0337(2)
H2 H 0.3813 0.3674 -0.0798
C6 C 0.3316(3) 0.2679(2) -0.0101(2)
H3 H 0.2359 0.2440 -0.0409
C7 C 0.3822(3) 0.2291(2) 0.05701(17)
H4 H 0.3231 0.1796 0.0730
C8 C 0.5255(2) 0.26615(17) 0.10079(15)
C9 C 0.5471(3) 0.17001(17) 0.21568(17)
H5 H 0.4774 0.1855 0.2312
H6 H 0.6201 0.1741 0.2689
C10 C 0.48080(19) 0.06521(11) 0.16117(12)
C11 C 0.34245(19) 0.00754(15) 0.14416(14)
H7 H 0.2899 0.0341 0.1652
C12 C 0.28257(18) -0.08977(14) 0.09576(15)
H8 H 0.1900 -0.1284 0.0844
C13 C 0.3610(3) -0.12943(11) 0.06437(13)
H9 H 0.3210 -0.1945 0.0320
C14 C 0.4994(2) -0.07177(15) 0.08139(14)
H10 H 0.5519 -0.0983 0.0604
C15 C 0.55928(16) 0.02555(14) 0.12979(14)
H11 H 0.6518 0.0641 0.1412
C16 C 0.8811(3) 0.43454(17) 0.14303(17)
H12 H 0.8857 0.4544 0.0929
C17 C 1.1153(2) 0.53633(18) 0.20900(15)
C18 C 1.1545(3) 0.63903(19) 0.22689(17)
C19 C 1.2771(3) 0.6957(2) 0.2204(2)
H13 H 1.3033 0.7641 0.2303
C20 C 1.3620(3) 0.6557(3) 0.1999(2)
H14 H 1.4440 0.6960 0.1958
C21 C 1.3238(3) 0.5547(3) 0.1854(2)
H15 H 1.3808 0.5270 0.1711
C22 C 1.2031(3) 0.4936(2) 0.19161(19)
C23 C 1.0643(3) 0.68625(19) 0.24898(18)
H16 H 1.0063 0.6398 0.2725
C24 C 1.1437(3) 0.7831(2) 0.3173(2)
H17 H 1.2054 0.7735 0.3681
H18 H 1.0792 0.8050 0.3322
H19 H 1.1969 0.8322 0.2950
C25 C 0.9658(3) 0.7003(2) 0.1681(2)
H20 H 1.0189 0.7461 0.1433
H21 H 0.9046 0.7258 0.1833
H22 H 0.9119 0.6377 0.1266
C26 C 1.1634(3) 0.3820(2) 0.1772(2)
H23 H 1.0949 0.3567 0.2033
C27 C 1.0927(4) 0.3323(3) 0.0811(2)
H24 H 1.0112 0.3464 0.0561
H25 H 1.0663 0.2620 0.0734
H26 H 1.1559 0.3572 0.0529
C28 C 1.2864(4) 0.3539(2) 0.2214(2)
H27 H 1.3510 0.3709 0.1929
H28 H 1.2531 0.2839 0.2178
H29 H 1.3323 0.3893 0.2812
C29 C 1.0379(2) 0.38201(14) 0.41156(14)
C30 C 1.0474(2) 0.31081(15) 0.46126(14)
C31 C 1.1348(2) 0.35937(15) 0.55073(14)
C32 C 1.1801(2) 0.32850(17) 0.62692(15)
H30 H 1.1542 0.2614 0.6259
C33 C 1.2641(3) 0.39889(19) 0.70394(17)
H31 H 1.2944 0.3786 0.7548
C34 C 1.3040(3) 0.49970(18) 0.70662(16)
H32 H 1.3610 0.5454 0.7593
C35 C 1.2609(2) 0.53371(17) 0.63243(15)
H33 H 1.3313 0.5921 0.6274
C36 C 1.1777(2) 0.46134(15) 0.55644(15)
C37 C 1.1551(2) 0.56974(15) 0.45317(16)
H34 H 1.1318 0.6117 0.4891
H35 H 1.0994 0.5630 0.3931
C38 C 1.3064(2) 0.61929(16) 0.46808(16)
C39 C 1.3718(3) 0.5694(2) 0.4350(2)
H36 H 1.3223 0.5037 0.4040
C40 C 1.5091(3) 0.6156(2) 0.4473(2)
H37 H 1.5507 0.5820 0.4222
C41 C 1.5850(3) 0.7099(2) 0.4957(2)
H38 H 1.6794 0.7395 0.5061
C42 C 1.5228(3) 0.7607(2) 0.5287(2)
H39 H 1.5738 0.8261 0.5600
C43 C 1.3838(3) 0.71579(18) 0.51604(18)
H40 H 1.3424 0.7507 0.5399
C44 C 0.9885(2) 0.20630(15) 0.42815(15)
H41 H 1.0063 0.1672 0.4670
C45 C 0.8559(2) 0.05703(15) 0.32088(15)
C46 C 0.8888(3) 0.01572(16) 0.25612(16)
C47 C 0.8284(3) -0.08632(18) 0.22461(18)
H42 H 0.8492 -0.1148 0.1813
C48 C 0.7391(3) -0.14578(19) 0.2556(2)
H43 H 0.6993 -0.2140 0.2333
C49 C 0.7084(3) -0.10508(18) 0.3193(2)
H44 H 0.6482 -0.1464 0.3405
C50 C 0.7650(3) -0.00275(16) 0.35379(17)
C51 C 0.9923(3) 0.0790(2) 0.22268(19)
H45 H 0.9901 0.1452 0.2295
C52 C 1.1385(3) 0.0892(3) 0.2789(2)
H46 H 1.1624 0.1231 0.3373
H47 H 1.2040 0.1264 0.2563
H48 H 1.1408 0.0246 0.2784
C53 C 0.9633(4) 0.0412(3) 0.1285(2)
H49 H 0.9799 -0.0186 0.1217
H50 H 1.0235 0.0904 0.1100
H51 H 0.8680 0.0278 0.0940
C54 C 0.7223(3) 0.03641(19) 0.4216(2)
H52 H 0.7598 0.1088 0.4322
C55 C 0.7824(4) 0.0092(2) 0.5071(2)
H53 H 0.7524 -0.0615 0.4975
H54 H 0.7503 0.0331 0.5485
H55 H 0.8822 0.0390 0.5289
C56 C 0.5624(3) -0.0005(2) 0.3919(2)
H56 H 0.5247 0.0150 0.3374
H57 H 0.5395 0.0313 0.4345
H58 H 0.5237 -0.0710 0.3853
Li1 Li 0.9095(4) 0.4304(3) 0.3040(2)
Li2 Li 0.9044(4) 0.2682(3) 0.2883(2)
N1 N 0.60637(19) 0.24413(14) 0.17272(13)
N2 N 0.9889(2) 0.47394(14) 0.21403(13)
N3 N 1.11914(17) 0.47236(12) 0.47256(12)
N4 N 0.9120(2) 0.16190(12) 0.34786(13)
loop_
_geom_bond_atom_site_label_1
_geom_bond_atom_site_label_2
_geom_bond_site_symmetry_1
_geom_bond_site_symmetry_2
C1 C2 1_555 1_555
C2 C3 1_555 1_555
C3 C4 1_555 1_555
C4 H1 1_555 1_555
C5 C4 1_555 1_555
H2 C5 1_555 1_555
C6 C5 1_555 1_555
H3 C6 1_555 1_555
C7 C6 1_555 1_555
H4 C7 1_555 1_555
C8 C3 1_555 1_555
C9 H5 1_555 1_555
H6 C9 1_555 1_555
C10 C9 1_555 1_555
C11 C10 1_555 1_555
H7 C11 1_555 1_555
C12 C11 1_555 1_555
H8 C12 1_555 1_555
C13 C12 1_555 1_555
H9 C13 1_555 1_555
C14 C13 1_555 1_555
H10 C14 1_555 1_555
C15 C10 1_555 1_555
H11 C15 1_555 1_555
C16 C2 1_555 1_555
H12 C16 1_555 1_555
C17 C18 1_555 1_555
C18 C19 1_555 1_555
C19 H13 1_555 1_555
C20 C19 1_555 1_555
H14 C20 1_555 1_555
C21 C20 1_555 1_555
H15 C21 1_555 1_555
C22 C17 1_555 1_555
C23 C18 1_555 1_555
H16 C23 1_555 1_555
C24 C23 1_555 1_555
H17 C24 1_555 1_555
H18 C24 1_555 1_555
H19 C24 1_555 1_555
C25 C23 1_555 1_555
H20 C25 1_555 1_555
H21 C25 1_555 1_555
H22 C25 1_555 1_555
C26 C22 1_555 1_555
H23 C26 1_555 1_555
C27 C26 1_555 1_555
H24 C27 1_555 1_555
H25 C27 1_555 1_555
H26 C27 1_555 1_555
C28 C26 1_555 1_555
H27 C28 1_555 1_555
H28 C28 1_555 1_555
H29 C28 1_555 1_555
C29 C30 1_555 1_555
C30 C31 1_555 1_555
C31 C32 1_555 1_555
C32 H30 1_555 1_555
C33 C32 1_555 1_555
H31 C33 1_555 1_555
C34 C33 1_555 1_555
H32 C34 1_555 1_555
C35 C34 1_555 1_555
H33 C35 1_555 1_555
C36 C31 1_555 1_555
C37 H34 1_555 1_555
H35 C37 1_555 1_555
C38 C37 1_555 1_555
C39 C38 1_555 1_555
H36 C39 1_555 1_555
C40 C39 1_555 1_555
H37 C40 1_555 1_555
C41 C40 1_555 1_555
H38 C41 1_555 1_555
C42 C41 1_555 1_555
H39 C42 1_555 1_555
C43 C38 1_555 1_555
H40 C43 1_555 1_555
C44 C30 1_555 1_555
H41 C44 1_555 1_555
C45 C46 1_555 1_555
C46 C47 1_555 1_555
C47 H42 1_555 1_555
C48 C47 1_555 1_555
H43 C48 1_555 1_555
C49 C48 1_555 1_555
H44 C49 1_555 1_555
C50 C45 1_555 1_555
C51 C46 1_555 1_555
H45 C51 1_555 1_555
C52 C51 1_555 1_555
H46 C52 1_555 1_555
H47 C52 1_555 1_555
H48 C52 1_555 1_555
C53 C51 1_555 1_555
H49 C53 1_555 1_555
H50 C53 1_555 1_555
H51 C53 1_555 1_555
C54 C50 1_555 1_555
H52 C54 1_555 1_555
C55 C54 1_555 1_555
H53 C55 1_555 1_555
H54 C55 1_555 1_555
H55 C55 1_555 1_555
C56 C54 1_555 1_555
H56 C56 1_555 1_555
H57 C56 1_555 1_555
H58 C56 1_555 1_555
Li1 C1 1_555 1_555
Li2 C1 1_555 1_555
N1 C1 1_555 1_555
N2 C16 1_555 1_555
N3 C29 1_555 1_555
N4 C44 1_555 1_555
C7 C8 1_555 1_555
C8 N1 1_555 1_555
C9 N1 1_555 1_555
C14 C15 1_555 1_555
C17 N2 1_555 1_555
C21 C22 1_555 1_555
C29 Li1 1_555 1_555
C29 Li2 1_555 1_555
C35 C36 1_555 1_555
C36 N3 1_555 1_555
C37 N3 1_555 1_555
C42 C43 1_555 1_555
C45 N4 1_555 1_555
C49 C50 1_555 1_555
Li1 N2 1_555 1_555
Li2 N4 1_555 1_555

#END
