
#######################################################################
#
#                 Cambridge Crystallographic Data Centre
#                                CCDC 
#
#######################################################################
#
# If this CIF has been generated from an entry in the Cambridge 
# Structural Database, then it will include bibliographic, chemical, 
# crystal, experimental, refinement or atomic coordinate data resulting 
# from the CCDC's data processing and validation procedures.
#
#######################################################################

data_BECCEU
_chemical_formula_moiety         'C64 H74 Li2 N4 O2,C6 H6'
_chemical_name_systematic        
'bis{\m-[1-benzyl-3-({2,6-di-isopropylphenylimino}methyl)-1H-indol-2-yl]}-bis(tetrahydrofuran)-di-lithium benzene solvate'
_symmetry_cell_setting           triclinic
_symmetry_space_group_name_H-M   'P -1'
_symmetry_Int_Tables_number      2
_space_group_name_Hall           '-P 1'
loop_
_symmetry_equiv_pos_site_id
_symmetry_equiv_pos_as_xyz
1 x,y,z
2 -x,-y,-z
_cell_length_a                   10.3357(11)
_cell_length_b                   11.6350(12)
_cell_length_c                   14.8416(15)
_cell_angle_alpha                111.8960(10)
_cell_angle_beta                 105.3380(10)
_cell_angle_gamma                91.0830(10)
_cell_volume                     1583.22
_exptl_crystal_colour            colorless
_exptl_crystal_description       block
_cell_formula_units_Z            1
loop_
_atom_site_label
_atom_site_type_symbol
_atom_site_fract_x
_atom_site_fract_y
_atom_site_fract_z
Li1 Li 0.4120(5) 0.5388(4) 0.4487(3)
N1 N 0.33489(19) 0.29525(17) 0.52759(14)
N2 N 0.3523(2) 0.42121(18) 0.29184(14)
C1 C 0.3765(2) 0.3577(2) 0.47439(17)
C2 C 0.2983(2) 0.2892(2) 0.37278(17)
C3 C 0.2122(2) 0.1858(2) 0.36600(17)
C4 C 0.1164(2) 0.0911(2) 0.28737(19)
H1 H 0.0959 0.0865 0.2211
C5 C 0.0528(3) 0.0045(2) 0.3098(2)
H2 H -0.0103 -0.0598 0.2578
C6 C 0.0811(3) 0.0114(2) 0.4085(2)
H3 H 0.0373 -0.0489 0.4213
C7 C 0.1728(3) 0.1056(2) 0.4881(2)
H4 H 0.1908 0.1109 0.5544
C8 C 0.2374(2) 0.1923(2) 0.46534(17)
C9 C 0.3780(3) 0.3360(2) 0.63772(17)
H5 H 0.2994 0.3543 0.6621
H6 H 0.4396 0.4131 0.6667
C10 C 0.4472(3) 0.2427(2) 0.67632(18)
C11 C 0.4054(13) 0.2275(9) 0.7541(7)
H7 H 0.3417 0.2740 0.7800
C12 C 0.4619(15) 0.1409(9) 0.7914(8)
H8 H 0.4357 0.1303 0.8434
C13 C 0.5548(14) 0.0708(12) 0.7542(11)
H9 H 0.5948 0.0165 0.7826
C14 C 0.588(2) 0.082(2) 0.6741(11)
H10 H 0.6522 0.0372 0.6482
C15 C 0.523(3) 0.162(3) 0.6322(19)
H11 H 0.5340 0.1588 0.5711
C16 C 0.2958(2) 0.3195(2) 0.28788(17)
H12 H 0.2492 0.2604 0.2239
C17 C 0.3336(3) 0.4331(2) 0.19644(18)
C18 C 0.2314(3) 0.5006(3) 0.1673(2)
C19 C 0.2134(4) 0.5104(3) 0.0743(2)
H13 H 0.1456 0.5539 0.0528
C20 C 0.2936(4) 0.4573(4) 0.0139(3)
H14 H 0.2787 0.4637 -0.0485
C21 C 0.3952(4) 0.3949(3) 0.0446(2)
H15 H 0.4501 0.3611 0.0033
C22 C 0.4183(3) 0.3808(3) 0.13678(19)
C23 C 0.1417(3) 0.5577(3) 0.2337(2)
H16 H 0.1953 0.5779 0.3042
C24 C 0.0942(4) 0.6787(3) 0.2273(3)
H17 H 0.0324 0.6606 0.1614
H18 H 0.1709 0.7354 0.2383
H19 H 0.0496 0.7161 0.2783
C25 C 0.0188(3) 0.4654(3) 0.2111(3)
H20 H -0.0351 0.4419 0.1419
H21 H -0.0343 0.5039 0.2557
H22 H 0.0486 0.3924 0.2214
C26 C 0.5304(3) 0.3106(3) 0.1692(2)
H23 H 0.5470 0.3323 0.2421
C27 C 0.6632(3) 0.3466(3) 0.1536(3)
H24 H 0.6858 0.4358 0.1844
H25 H 0.6533 0.3177 0.0822
H26 H 0.7340 0.3089 0.1845
C28 C 0.4896(4) 0.1692(3) 0.1154(3)
H27 H 0.4108 0.1461 0.1307
H28 H 0.5626 0.1275 0.1384
H29 H 0.4698 0.1452 0.0434
O1 O 0.2827(5) 0.6446(5) 0.4985(4)
C29 C 0.3261(9) 0.7762(6) 0.5732(8)
H30 H 0.4136 0.7829 0.6208
H31 H 0.3340 0.8307 0.5383
C30 C 0.2265(9) 0.8121(8) 0.6260(7)
H32 H 0.1856 0.8813 0.6138
H33 H 0.2681 0.8382 0.6985
C31 C 0.1227(9) 0.7028(7) 0.5881(8)
H34 H 0.1038 0.6899 0.6445
H35 H 0.0395 0.7157 0.5463
C32 C 0.1735(8) 0.6004(8) 0.5315(8)
H36 H 0.1017 0.5463 0.4726
H37 H 0.2099 0.5532 0.5721
Li1A Li 0.5880(5) 0.4612(4) 0.5513(3)
N1A N 0.66511(19) 0.70475(17) 0.47241(14)
N2A N 0.6477(2) 0.57879(18) 0.70816(14)
C1A C 0.6235(2) 0.6423(2) 0.52561(17)
C2A C 0.7017(2) 0.7108(2) 0.62722(17)
C3A C 0.7878(2) 0.8142(2) 0.63400(17)
C4A C 0.8836(2) 0.9089(2) 0.71263(19)
H1A H 0.9041 0.9135 0.7789
C5A C 0.9472(3) 0.9955(2) 0.6902(2)
H2A H 1.0103 1.0598 0.7422
C6A C 0.9189(3) 0.9886(2) 0.5915(2)
H3A H 0.9627 1.0489 0.5787
C7A C 0.8272(3) 0.8944(2) 0.5119(2)
H4A H 0.8092 0.8891 0.4456
C8A C 0.7626(2) 0.8077(2) 0.53466(17)
C9A C 0.6220(3) 0.6640(2) 0.36228(17)
H5A H 0.7006 0.6457 0.3379
H6A H 0.5604 0.5869 0.3333
C10A C 0.5528(3) 0.7573(2) 0.32368(18)
C11A C 0.5946(13) 0.7725(9) 0.2459(7)
H7A H 0.6583 0.7260 0.2200
C12A C 0.5381(15) 0.8591(9) 0.2086(8)
H8A H 0.5643 0.8697 0.1566
C13A C 0.4452(14) 0.9292(12) 0.2458(11)
H9A H 0.4052 0.9835 0.2174
C14A C 0.412(2) 0.918(2) 0.3259(11)
H10A H 0.3478 0.9628 0.3518
C15A C 0.477(3) 0.838(3) 0.3678(19)
H11A H 0.4660 0.8412 0.4289
C16A C 0.7042(2) 0.6805(2) 0.71212(17)
H12A H 0.7508 0.7396 0.7761
C17A C 0.6664(3) 0.5669(2) 0.80356(18)
C18A C 0.7686(3) 0.4994(3) 0.8327(2)
C19A C 0.7866(4) 0.4896(3) 0.9257(2)
H13A H 0.8544 0.4461 0.9472
C20A C 0.7064(4) 0.5427(4) 0.9861(3)
H14A H 0.7213 0.5363 1.0485
C21A C 0.6048(4) 0.6051(3) 0.9554(2)
H15A H 0.5499 0.6389 0.9967
C22A C 0.5817(3) 0.6192(3) 0.86322(19)
C23A C 0.8583(3) 0.4423(3) 0.7663(2)
H16A H 0.8047 0.4221 0.6958
C24A C 0.9058(4) 0.3213(3) 0.7727(3)
H17A H 0.9676 0.3394 0.8386
H18A H 0.8291 0.2646 0.7617
H19A H 0.9504 0.2839 0.7217
C25A C 0.9812(3) 0.5346(3) 0.7889(3)
H20A H 1.0351 0.5581 0.8581
H21A H 1.0343 0.4961 0.7443
H22A H 0.9514 0.6076 0.7786
C26A C 0.4696(3) 0.6894(3) 0.8308(2)
H23A H 0.4530 0.6677 0.7579
C27A C 0.3368(3) 0.6534(3) 0.8464(3)
H24A H 0.3142 0.5642 0.8156
H25A H 0.3467 0.6823 0.9178
H26A H 0.2660 0.6911 0.8155
C28A C 0.5104(4) 0.8308(3) 0.8846(3)
H27A H 0.5892 0.8539 0.8693
H28A H 0.4374 0.8725 0.8616
H29A H 0.5302 0.8548 0.9566
O1A O 0.7173(5) 0.3554(5) 0.5015(4)
C29A C 0.6739(9) 0.2238(6) 0.4268(8)
H30A H 0.5864 0.2171 0.3792
H31A H 0.6660 0.1693 0.4617
C30A C 0.7735(9) 0.1879(8) 0.3740(7)
H32A H 0.8144 0.1187 0.3862
H33A H 0.7319 0.1618 0.3015
C31A C 0.8773(9) 0.2972(7) 0.4119(8)
H34A H 0.8962 0.3101 0.3555
H35A H 0.9605 0.2843 0.4537
C32A C 0.8265(8) 0.3996(8) 0.4685(8)
H36A H 0.8983 0.4537 0.5274
H37A H 0.7901 0.4468 0.4279
C33? C 0.4664(14) 0.2491(10) 0.7734(5)
H38? H 0.4312 0.3116 0.8171
C34? C 0.5357(14) 0.1670(10) 0.8091(7)
H39? H 0.5423 0.1711 0.8740
C35? C 0.5945(14) 0.0791(13) 0.7467(11)
H40? H 0.6422 0.0235 0.7696
C36? C 0.583(2) 0.073(2) 0.6508(11)
H41? H 0.6167 0.0095 0.6065
C37? C 0.520(3) 0.162(3) 0.6208(19)
H42? H 0.5280 0.1684 0.5616
O2? O 0.3070(13) 0.6445(12) 0.5380(13)
C38? C 0.2836(19) 0.7718(17) 0.5409(17)
H43? H 0.3633 0.8322 0.5827
H44? H 0.2583 0.7720 0.4732
C39? C 0.1768(18) 0.7969(17) 0.5839(17)
H45? H 0.1358 0.8678 0.5752
H46? H 0.2062 0.8120 0.6555
C40? C 0.0868(16) 0.6836(15) 0.5260(18)
H47? H 0.0378 0.6663 0.5680
H48? H 0.0215 0.6918 0.4690
C41? C 0.1598(16) 0.5853(19) 0.4906(16)
H49? H 0.1362 0.5514 0.4171
H50? H 0.1426 0.5191 0.5124
C42? C -0.1170(6) -0.0222(9) 0.0176(5)
H51? H -0.2019 -0.0053 0.0253
C43? C -0.0691(10) -0.1311(7) 0.0228(4)
H52? H -0.1220 -0.1870 0.0340
C44? C 0.0578(11) -0.1564(5) 0.0114(4)
H53? H 0.0899 -0.2292 0.0149
C45? C 0.1369(7) -0.0728(9) -0.0053(5)
H54? H 0.2218 -0.0897 -0.0130
C46? C 0.0890(9) 0.0361(7) -0.0106(5)
H55? H 0.1419 0.0920 -0.0218
C47? C -0.0379(10) 0.0614(6) 0.0009(5)
H56? H -0.0699 0.1342 -0.0026
loop_
_geom_bond_atom_site_label_1
_geom_bond_atom_site_label_2
_geom_bond_site_symmetry_1
_geom_bond_site_symmetry_2
Li1 N2 1_555 1_555
N1 C1 1_555 1_555
N2 C16 1_555 1_555
C1 Li1 1_555 1_555
C2 C1 1_555 1_555
C3 C2 1_555 1_555
C4 C3 1_555 1_555
H1 C4 1_555 1_555
C5 C4 1_555 1_555
H2 C5 1_555 1_555
C6 C5 1_555 1_555
H3 C6 1_555 1_555
C7 C6 1_555 1_555
H4 C7 1_555 1_555
C8 N1 1_555 1_555
C9 N1 1_555 1_555
H5 C9 1_555 1_555
H6 C9 1_555 1_555
C10 C9 1_555 1_555
C11 C10 1_555 1_555
H7 C11 1_555 1_555
C12 C11 1_555 1_555
H8 C12 1_555 1_555
C13 C12 1_555 1_555
H9 C13 1_555 1_555
C14 C13 1_555 1_555
H10 C14 1_555 1_555
C15 C10 1_555 1_555
H11 C15 1_555 1_555
C16 C2 1_555 1_555
H12 C16 1_555 1_555
C17 N2 1_555 1_555
C18 C17 1_555 1_555
C19 C18 1_555 1_555
H13 C19 1_555 1_555
C20 C19 1_555 1_555
H14 C20 1_555 1_555
C21 C20 1_555 1_555
H15 C21 1_555 1_555
C22 C17 1_555 1_555
C23 C18 1_555 1_555
H16 C23 1_555 1_555
C24 C23 1_555 1_555
H17 C24 1_555 1_555
H18 C24 1_555 1_555
H19 C24 1_555 1_555
C25 C23 1_555 1_555
H20 C25 1_555 1_555
H21 C25 1_555 1_555
H22 C25 1_555 1_555
C26 C22 1_555 1_555
H23 C26 1_555 1_555
C27 C26 1_555 1_555
H24 C27 1_555 1_555
H25 C27 1_555 1_555
H26 C27 1_555 1_555
C28 C26 1_555 1_555
H27 C28 1_555 1_555
H28 C28 1_555 1_555
H29 C28 1_555 1_555
O1 Li1 1_555 1_555
C29 O1 1_555 1_555
H30 C29 1_555 1_555
H31 C29 1_555 1_555
C30 C29 1_555 1_555
H32 C30 1_555 1_555
H33 C30 1_555 1_555
C31 C30 1_555 1_555
H34 C31 1_555 1_555
H35 C31 1_555 1_555
C32 O1 1_555 1_555
H36 C32 1_555 1_555
H37 C32 1_555 1_555
Li1A C1 1_555 1_555
N1A C1A 1_555 1_555
N2A Li1A 1_555 1_555
C1A Li1 1_555 1_555
C2A C1A 1_555 1_555
C3A C2A 1_555 1_555
C4A C3A 1_555 1_555
H1A C4A 1_555 1_555
C5A C4A 1_555 1_555
H2A C5A 1_555 1_555
C6A C5A 1_555 1_555
H3A C6A 1_555 1_555
C7A C6A 1_555 1_555
H4A C7A 1_555 1_555
C8A N1A 1_555 1_555
C9A N1A 1_555 1_555
H5A C9A 1_555 1_555
H6A C9A 1_555 1_555
C10A C9A 1_555 1_555
C11A C10A 1_555 1_555
H7A C11A 1_555 1_555
C12A C11A 1_555 1_555
H8A C12A 1_555 1_555
C13A C12A 1_555 1_555
H9A C13A 1_555 1_555
C14A C13A 1_555 1_555
H10A C14A 1_555 1_555
C15A C10A 1_555 1_555
H11A C15A 1_555 1_555
C16A N2A 1_555 1_555
H12A C16A 1_555 1_555
C17A N2A 1_555 1_555
C18A C17A 1_555 1_555
C19A C18A 1_555 1_555
H13A C19A 1_555 1_555
C20A C19A 1_555 1_555
H14A C20A 1_555 1_555
C21A C20A 1_555 1_555
H15A C21A 1_555 1_555
C22A C17A 1_555 1_555
C23A C18A 1_555 1_555
H16A C23A 1_555 1_555
C24A C23A 1_555 1_555
H17A C24A 1_555 1_555
H18A C24A 1_555 1_555
H19A C24A 1_555 1_555
C25A C23A 1_555 1_555
H20A C25A 1_555 1_555
H21A C25A 1_555 1_555
H22A C25A 1_555 1_555
C26A C22A 1_555 1_555
H23A C26A 1_555 1_555
C27A C26A 1_555 1_555
H24A C27A 1_555 1_555
H25A C27A 1_555 1_555
H26A C27A 1_555 1_555
C28A C26A 1_555 1_555
H27A C28A 1_555 1_555
H28A C28A 1_555 1_555
H29A C28A 1_555 1_555
O1A Li1A 1_555 1_555
C29A O1A 1_555 1_555
H30A C29A 1_555 1_555
H31A C29A 1_555 1_555
C30A C29A 1_555 1_555
H32A C30A 1_555 1_555
H33A C30A 1_555 1_555
C31A C30A 1_555 1_555
H34A C31A 1_555 1_555
H35A C31A 1_555 1_555
C32A O1A 1_555 1_555
H36A C32A 1_555 1_555
H37A C32A 1_555 1_555
C3 C8 1_555 1_555
C7 C8 1_555 1_555
C14 C15 1_555 1_555
C21 C22 1_555 1_555
C31 C32 1_555 1_555
Li1A C1A 1_555 1_555
C2A C16A 1_555 1_555
C3A C8A 1_555 1_555
C7A C8A 1_555 1_555
C14A C15A 1_555 1_555
C21A C22A 1_555 1_555
C31A C32A 1_555 1_555

#END
