
#######################################################################
#
#                 Cambridge Crystallographic Data Centre
#                                CCDC 
#
#######################################################################
#
# If this CIF has been generated from an entry in the Cambridge 
# Structural Database, then it will include bibliographic, chemical, 
# crystal, experimental, refinement or atomic coordinate data resulting 
# from the CCDC's data processing and validation procedures.
#
#######################################################################

data_BECCIY
_chemical_formula_moiety         'C48 H58 Li2 N4 O2'
_chemical_name_systematic        
bis(\m-{1-benzyl-3-[(t-butylimino)methyl]-1H-indol-2-yl})-bis(tetrahydrofuran)-di-lithium
_symmetry_cell_setting           monoclinic
_symmetry_space_group_name_H-M   'C 2/c'
_symmetry_Int_Tables_number      15
_space_group_name_Hall           '-C 2yn'
loop_
_symmetry_equiv_pos_site_id
_symmetry_equiv_pos_as_xyz
1 x,y,z
2 -x,y,1/2-z
3 1/2+x,1/2+y,z
4 1/2-x,1/2+y,1/2-z
5 -x,-y,-z
6 x,-y,1/2+z
7 1/2-x,1/2-y,-z
8 1/2+x,1/2-y,1/2+z
_cell_length_a                   10.9434(16)
_cell_length_b                   23.059(3)
_cell_length_c                   17.755(3)
_cell_angle_alpha                90
_cell_angle_beta                 107.701(2)
_cell_angle_gamma                90
_cell_volume                     4268.25
_exptl_crystal_colour            colorless
_exptl_crystal_description       block
_cell_formula_units_Z            4
loop_
_atom_site_label
_atom_site_type_symbol
_atom_site_fract_x
_atom_site_fract_y
_atom_site_fract_z
C1 C 0.3401(3) 0.87100(14) 0.16725(19)
C2 C 0.2385(3) 0.84307(14) 0.18487(19)
C3 C 0.1178(3) 0.86120(15) 0.1294(2)
C4 C -0.0103(3) 0.85028(17) 0.1208(2)
H1 H -0.0336 0.8252 0.1551
C5 C -0.1039(4) 0.87785(17) 0.0594(2)
H2 H -0.1902 0.8716 0.0536
C6 C -0.0699(4) 0.91401(17) 0.0077(2)
H3 H -0.1338 0.9311 -0.0332
C7 C 0.0560(4) 0.92547(16) 0.0150(2)
H4 H 0.0783 0.9501 -0.0201
C8 C 0.1495(3) 0.89909(15) 0.0766(2)
C9 C 0.3502(3) 0.93370(16) 0.0540(2)
H5 H 0.4290 0.9491 0.0898
H6 H 0.2990 0.9662 0.0272
C10 C 0.3832(3) 0.89606(16) -0.0070(2)
C11 C 0.3184(4) 0.84585(18) -0.0347(2)
H7 H 0.2528 0.8339 -0.0152
C12 C 0.3493(4) 0.8123(2) -0.0919(3)
H8 H 0.3023 0.7791 -0.1119
C13 C 0.4488(4) 0.8287(2) -0.1179(3)
H9 H 0.4709 0.8060 -0.1551
C14 C 0.5167(4) 0.8778(2) -0.0902(2)
H10 H 0.5848 0.8885 -0.1082
C15 C 0.4837(4) 0.91148(19) -0.0353(2)
H11 H 0.5297 0.9452 -0.0169
C16 C 0.2534(3) 0.80132(14) 0.24694(19)
H12 H 0.1801 0.7891 0.2585
C17 C 0.3710(3) 0.73690(15) 0.3500(2)
C18 C 0.3328(5) 0.7665(3) 0.4171(3)
H13 H 0.3733 0.8038 0.4278
H14 H 0.3598 0.7430 0.4638
H15 H 0.2413 0.7713 0.4015
C19 C 0.5096(5) 0.7201(3) 0.3821(4)
H16 H 0.5360 0.7011 0.3415
H17 H 0.5207 0.6943 0.4261
H18 H 0.5607 0.7543 0.3992
C20 C 0.2867(6) 0.6858(2) 0.3198(4)
H19 H 0.1986 0.6979 0.3035
H20 H 0.2999 0.6573 0.3610
H21 H 0.3074 0.6692 0.2756
C21 C 0.3207(4) 1.0252(2) 0.2357(3)
H22 H 0.3177 1.0172 0.1816
H23 H 0.3653 1.0617 0.2517
C22 C 0.1913(5) 1.0286(3) 0.2420(4)
H24 H 0.1772 1.0663 0.2623
H25 H 0.1287 1.0233 0.1904
C23 C 0.1788(5) 0.9831(3) 0.2955(4)
H26 H 0.1470 0.9989 0.3366
H27 H 0.1193 0.9536 0.2670
C24 C 0.3041(4) 0.9587(2) 0.3294(3)
H28 H 0.3379 0.9699 0.3845
H29 H 0.2994 0.9167 0.3266
Li1 Li 0.5000 0.8161(4) 0.2500
Li2 Li 0.5000 0.9245(3) 0.2500
N1 N 0.2809(3) 0.90401(11) 0.09984(15)
N2 N 0.3602(2) 0.78009(12) 0.28691(16)
O1 O 0.3856(2) 0.97946(11) 0.28645(15)
C1A C 0.6599(3) 0.87100(14) 0.33275(19)
C2A C 0.7615(3) 0.84307(14) 0.31513(19)
C3A C 0.8822(3) 0.86120(15) 0.3706(2)
C4A C 1.0103(3) 0.85028(17) 0.3792(2)
H1A H 1.0336 0.8252 0.3449
C5A C 1.1039(4) 0.87785(17) 0.4406(2)
H2A H 1.1902 0.8716 0.4464
C6A C 1.0699(4) 0.91401(17) 0.4923(2)
H3A H 1.1338 0.9311 0.5332
C7A C 0.9440(4) 0.92547(16) 0.4850(2)
H4A H 0.9217 0.9501 0.5201
C8A C 0.8505(3) 0.89909(15) 0.4234(2)
C9A C 0.6498(3) 0.93370(16) 0.4460(2)
H5A H 0.5710 0.9491 0.4102
H6A H 0.7010 0.9662 0.4728
C10A C 0.6168(3) 0.89606(16) 0.5070(2)
C11A C 0.6816(4) 0.84585(18) 0.5347(2)
H7A H 0.7472 0.8339 0.5152
C12A C 0.6507(4) 0.8123(2) 0.5919(3)
H8A H 0.6977 0.7791 0.6119
C13A C 0.5512(4) 0.8287(2) 0.6179(3)
H9A H 0.5291 0.8060 0.6551
C14A C 0.4833(4) 0.8778(2) 0.5902(2)
H10A H 0.4152 0.8885 0.6082
C15A C 0.5163(4) 0.91148(19) 0.5353(2)
H11A H 0.4703 0.9452 0.5169
C16A C 0.7466(3) 0.80132(14) 0.25306(19)
H12A H 0.8199 0.7891 0.2415
C17A C 0.6290(3) 0.73690(15) 0.1500(2)
C18A C 0.6672(5) 0.7665(3) 0.0829(3)
H13A H 0.6267 0.8038 0.0722
H14A H 0.6402 0.7430 0.0362
H15A H 0.7587 0.7713 0.0985
C19A C 0.4904(5) 0.7201(3) 0.1179(4)
H16A H 0.4640 0.7011 0.1585
H17A H 0.4793 0.6943 0.0739
H18A H 0.4393 0.7543 0.1008
C20A C 0.7133(6) 0.6858(2) 0.1802(4)
H19A H 0.8014 0.6979 0.1965
H20A H 0.7001 0.6573 0.1390
H21A H 0.6926 0.6692 0.2244
C21A C 0.6793(4) 1.0252(2) 0.2643(3)
H22A H 0.6823 1.0172 0.3184
H23A H 0.6347 1.0617 0.2483
C22A C 0.8087(5) 1.0286(3) 0.2580(4)
H24A H 0.8228 1.0663 0.2377
H25A H 0.8713 1.0233 0.3096
C23A C 0.8212(5) 0.9831(3) 0.2045(4)
H26A H 0.8530 0.9989 0.1634
H27A H 0.8807 0.9536 0.2330
C24A C 0.6959(4) 0.9587(2) 0.1706(3)
H28A H 0.6621 0.9699 0.1155
H29A H 0.7006 0.9167 0.1734
N1A N 0.7191(3) 0.90401(11) 0.40016(15)
N2A N 0.6398(2) 0.78009(12) 0.21309(16)
O1A O 0.6144(2) 0.97946(11) 0.21355(15)
C25? C 0.4525(8) 0.7616(4) 0.4269(4)
H30? H 0.5288 0.7782 0.4199
H31? H 0.4756 0.7314 0.4658
H32? H 0.4052 0.7911 0.4443
C26? C 0.4465(8) 0.6858(3) 0.3286(6)
H33? H 0.3948 0.6675 0.2810
H34? H 0.4676 0.6580 0.3709
H35? H 0.5240 0.7002 0.3206
C27? C 0.2458(6) 0.7161(4) 0.3571(5)
H36? H 0.2015 0.7479 0.3723
H37? H 0.2609 0.6862 0.3965
H38? H 0.1944 0.7009 0.3072
loop_
_geom_bond_atom_site_label_1
_geom_bond_atom_site_label_2
_geom_bond_site_symmetry_1
_geom_bond_site_symmetry_2
C1 C2 1_555 1_555
C2 C3 1_555 1_555
C3 C4 1_555 1_555
C4 H1 1_555 1_555
C5 C4 1_555 1_555
H2 C5 1_555 1_555
C6 C5 1_555 1_555
H3 C6 1_555 1_555
C7 C6 1_555 1_555
H4 C7 1_555 1_555
C8 C3 1_555 1_555
C9 H5 1_555 1_555
H6 C9 1_555 1_555
C10 C9 1_555 1_555
C11 C10 1_555 1_555
H7 C11 1_555 1_555
C12 C11 1_555 1_555
H8 C12 1_555 1_555
C13 C12 1_555 1_555
H9 C13 1_555 1_555
C14 C13 1_555 1_555
H10 C14 1_555 1_555
C15 C10 1_555 1_555
H11 C15 1_555 1_555
C16 C2 1_555 1_555
H12 C16 1_555 1_555
C17 C18 1_555 1_555
C18 H13 1_555 1_555
H14 C18 1_555 1_555
H15 C18 1_555 1_555
C19 C17 1_555 1_555
H16 C19 1_555 1_555
H17 C19 1_555 1_555
H18 C19 1_555 1_555
C20 C17 1_555 1_555
H19 C20 1_555 1_555
H20 C20 1_555 1_555
H21 C20 1_555 1_555
C21 H22 1_555 1_555
H23 C21 1_555 1_555
C22 C21 1_555 1_555
H24 C22 1_555 1_555
H25 C22 1_555 1_555
C23 C22 1_555 1_555
H26 C23 1_555 1_555
H27 C23 1_555 1_555
C24 C23 1_555 1_555
H28 C24 1_555 1_555
H29 C24 1_555 1_555
Li1 C1 1_555 1_555
Li2 C1 1_555 1_555
N1 C1 1_555 1_555
N2 C16 1_555 1_555
O1 C21 1_555 1_555
C1A Li1 1_555 1_555
C2A C1A 1_555 1_555
C3A C2A 1_555 1_555
C4A C3A 1_555 1_555
H1A C4A 1_555 1_555
C5A C4A 1_555 1_555
H2A C5A 1_555 1_555
C6A C5A 1_555 1_555
H3A C6A 1_555 1_555
C7A C6A 1_555 1_555
H4A C7A 1_555 1_555
C8A C3A 1_555 1_555
C9A H5A 1_555 1_555
H6A C9A 1_555 1_555
C10A C9A 1_555 1_555
C11A C10A 1_555 1_555
H7A C11A 1_555 1_555
C12A C11A 1_555 1_555
H8A C12A 1_555 1_555
C13A C12A 1_555 1_555
H9A C13A 1_555 1_555
C14A C13A 1_555 1_555
H10A C14A 1_555 1_555
C15A C10A 1_555 1_555
H11A C15A 1_555 1_555
C16A C2A 1_555 1_555
H12A C16A 1_555 1_555
C17A C18A 1_555 1_555
C18A H13A 1_555 1_555
H14A C18A 1_555 1_555
H15A C18A 1_555 1_555
C19A C17A 1_555 1_555
H16A C19A 1_555 1_555
H17A C19A 1_555 1_555
H18A C19A 1_555 1_555
C20A C17A 1_555 1_555
H19A C20A 1_555 1_555
H20A C20A 1_555 1_555
H21A C20A 1_555 1_555
C21A H22A 1_555 1_555
H23A C21A 1_555 1_555
C22A C21A 1_555 1_555
H24A C22A 1_555 1_555
H25A C22A 1_555 1_555
C23A C22A 1_555 1_555
H26A C23A 1_555 1_555
H27A C23A 1_555 1_555
C24A C23A 1_555 1_555
H28A C24A 1_555 1_555
H29A C24A 1_555 1_555
N1A C1A 1_555 1_555
N2A Li1 1_555 1_555
O1A Li2 1_555 1_555
C7 C8 1_555 1_555
C8 N1 1_555 1_555
C9 N1 1_555 1_555
C14 C15 1_555 1_555
C17 N2 1_555 1_555
C24 O1 1_555 1_555
Li1 N2 1_555 1_555
Li2 O1 1_555 1_555
Li2 C1A 1_555 1_555
C7A C8A 1_555 1_555
C8A N1A 1_555 1_555
C9A N1A 1_555 1_555
C14A C15A 1_555 1_555
C16A N2A 1_555 1_555
C17A N2A 1_555 1_555
C21A O1A 1_555 1_555
C24A O1A 1_555 1_555

#END
