
#######################################################################
#
#                 Cambridge Crystallographic Data Centre
#                                CCDC 
#
#######################################################################
#
# If this CIF has been generated from an entry in the Cambridge 
# Structural Database, then it will include bibliographic, chemical, 
# crystal, experimental, refinement or atomic coordinate data resulting 
# from the CCDC's data processing and validation procedures.
#
#######################################################################

data_BECCOE
_chemical_formula_moiety         'C60 H67 Li1 N4 O1,C4 H8 O1'
_chemical_name_systematic        
"[N-{[1,1'-dibenzyl-3-({[2,6-di-isopropylphenyl]imino}methyl)[1',2'-dihydro-1H,3'H-[2,2'-bi-indole]]-3'-ylidene]methyl}-2,6-di-isopropylanilinato]-tetrahydrofuran-lithium tetrahydrofuran solvate"
_symmetry_cell_setting           triclinic
_symmetry_space_group_name_H-M   'P -1'
_symmetry_Int_Tables_number      2
_space_group_name_Hall           '-P 1'
loop_
_symmetry_equiv_pos_site_id
_symmetry_equiv_pos_as_xyz
1 x,y,z
2 -x,-y,-z
_cell_length_a                   11.4590(11)
_cell_length_b                   14.8991(15)
_cell_length_c                   16.6536(17)
_cell_angle_alpha                93.9940(10)
_cell_angle_beta                 90.7020(10)
_cell_angle_gamma                99.6060(10)
_cell_volume                     2795.75
_exptl_crystal_colour            colorless
_exptl_crystal_description       block
_cell_formula_units_Z            2
loop_
_atom_site_label
_atom_site_type_symbol
_atom_site_fract_x
_atom_site_fract_y
_atom_site_fract_z
Li1 Li 0.4832(3) 0.1677(3) 0.2969(2)
O1 O 0.53708(17) 0.05319(12) 0.29049(13)
N1 N 0.35728(14) 0.39884(11) 0.17032(9)
N2 N 0.62375(13) 0.26823(11) 0.28804(10)
N3 N 0.42807(14) 0.25291(12) 0.05485(10)
N4 N 0.31484(14) 0.17295(12) 0.29154(11)
C1 C 0.43239(16) 0.33840(13) 0.18617(11)
C2 C 0.52480(16) 0.38403(13) 0.23576(11)
C3 C 0.50620(18) 0.47728(14) 0.24936(12)
C4 C 0.5689(2) 0.55531(16) 0.29161(14)
H1 H 0.6384 0.5529 0.3202
C5 C 0.5252(3) 0.63555(17) 0.28990(16)
H2 H 0.5669 0.6882 0.3168
C6 C 0.4203(3) 0.64014(18) 0.24898(17)
H3 H 0.3929 0.6955 0.2496
C7 C 0.3563(2) 0.56471(15) 0.20760(14)
H4 H 0.2858 0.5676 0.1804
C8 C 0.40145(19) 0.48361(14) 0.20814(12)
C9 C 0.24141(17) 0.37965(14) 0.12931(12)
H5 H 0.1856 0.4066 0.1626
H6 H 0.2151 0.3141 0.1249
C10 C 0.62200(17) 0.35069(14) 0.27214(11)
H7 H 0.6899 0.3930 0.2853
C11 C 0.72947(17) 0.24864(14) 0.32603(13)
C12 C 0.7363(2) 0.25246(17) 0.41001(15)
C13 C 0.8361(2) 0.2280(2) 0.44535(17)
H8 H 0.8427 0.2300 0.5012
C14 C 0.9244(2) 0.2011(2) 0.4002(2)
H9 H 0.9903 0.1852 0.4251
C15 C 0.9153(2) 0.1977(2) 0.31794(19)
H10 H 0.9761 0.1797 0.2876
C16 C 0.81770(18) 0.22041(16) 0.27852(15)
C17 C 0.6401(3) 0.2822(2) 0.46226(16)
H11 H 0.5899 0.3139 0.4300
C18 C 0.8104(2) 0.2157(2) 0.18762(16)
H12 H 0.7269 0.2121 0.1721
C19 C 0.8772(4) 0.3010(3) 0.1557(2)
H13 H 0.8464 0.3531 0.1783
H14 H 0.8681 0.2973 0.0981
H15 H 0.9596 0.3070 0.1703
C20 C 0.8514(3) 0.1312(3) 0.1487(2)
H16 H 0.9350 0.1353 0.1585
H17 H 0.8353 0.1272 0.0917
H18 H 0.8099 0.0778 0.1713
C21 C 0.42071(16) 0.24435(13) 0.14189(11)
H19 H 0.4849 0.2139 0.1598
C22 C 0.30235(16) 0.18117(13) 0.14913(12)
C23 C 0.24983(18) 0.16194(13) 0.06887(13)
C24 C 0.1415(2) 0.11349(16) 0.03940(17)
H20 H 0.0875 0.0840 0.0742
C25 C 0.1148(2) 0.1098(2) -0.04246(19)
H21 H 0.0426 0.0772 -0.0622
C26 C 0.1928(3) 0.1531(2) -0.09462(18)
H22 H 0.1727 0.1494 -0.1492
C27 C 0.3010(2) 0.20219(17) -0.06740(15)
H23 H 0.3538 0.2319 -0.1028
C28 C 0.32803(18) 0.20581(14) 0.01397(13)
C29 C 0.53604(18) 0.29147(14) 0.01739(13)
H24 H 0.5830 0.3343 0.0566
H25 H 0.5155 0.3259 -0.0265
C30 C 0.61249(18) 0.22454(15) -0.01532(13)
C31 C 0.5905(2) 0.13319(16) -0.00275(16)
H26 H 0.5255 0.1102 0.0270
C32 C 0.6638(3) 0.0748(2) -0.0338(2)
H27 H 0.6480 0.0131 -0.0246
C33 C 0.7580(3) 0.1073(3) -0.0775(2)
H28 H 0.8061 0.0677 -0.0991
C34 C 0.7831(3) 0.1977(3) -0.0899(2)
H29 H 0.8488 0.2200 -0.1192
C35 C 0.7098(2) 0.2570(2) -0.05845(16)
H30 H 0.7272 0.3188 -0.0668
C36 C 0.25663(18) 0.15595(14) 0.22067(14)
H31 H 0.1793 0.1246 0.2203
C37 C 0.25610(18) 0.15011(18) 0.36306(15)
C38 C 0.26412(19) 0.2206(2) 0.42463(15)
C39 C 0.2204(2) 0.2007(3) 0.50072(17)
H32 H 0.2269 0.2465 0.5422
C40 C 0.1675(3) 0.1126(3) 0.5139(2)
H33 H 0.1400 0.0993 0.5648
C41 C 0.1551(3) 0.0453(3) 0.4534(2)
H34 H 0.1151 -0.0123 0.4633
C42 C 0.2001(2) 0.0596(2) 0.37710(17)
C43 C 0.3136(2) 0.3184(2) 0.40742(16)
H35 H 0.3819 0.3161 0.3729
C44 C 0.3566(3) 0.3831(3) 0.48062(19)
H36 H 0.2899 0.3949 0.5116
H37 H 0.3983 0.4395 0.4631
H38 H 0.4087 0.3558 0.5133
C45 C 0.2227(3) 0.3584(2) 0.35944(17)
H39 H 0.1991 0.3197 0.3115
H40 H 0.2572 0.4182 0.3450
H41 H 0.1547 0.3626 0.3917
C46 C 0.1871(2) -0.0193(2) 0.3136(2)
H42 H 0.2348 0.0015 0.2679
C47 C 0.2360(3) -0.1016(2) 0.3441(3)
H43 H 0.3093 -0.0805 0.3733
H44 H 0.2493 -0.1422 0.2990
H45 H 0.1798 -0.1335 0.3789
C48 C 0.0593(3) -0.0485(2) 0.2825(2)
H46 H 0.0099 -0.0689 0.3260
H47 H 0.0558 -0.0973 0.2413
H48 H 0.0318 0.0024 0.2606
C49 C 0.6105(3) 0.0093(2) 0.3393(2)
H49 H 0.5747 -0.0015 0.3910
H50 H 0.6876 0.0472 0.3485
C50 C 0.6226(5) -0.0771(3) 0.2961(3)
H51 H 0.7024 -0.0751 0.2767
H52 H 0.6053 -0.1269 0.3310
C51 C 0.5381(5) -0.0892(3) 0.2294(4)
H53 H 0.4672 -0.1307 0.2418
H54 H 0.5720 -0.1139 0.1813
C52 C 0.5103(3) 0.0008(3) 0.2171(2)
H55 H 0.5574 0.0283 0.1744
H56 H 0.4272 -0.0036 0.2026
C53 C 0.23704(18) 0.41365(14) 0.04709(13)
C54 C 0.3328(8) 0.4546(4) 0.0069(7)
H57 H 0.4049 0.4725 0.0345
C55 C 0.3252(13) 0.4701(6) -0.0739(8)
H58 H 0.3918 0.4977 -0.0998
C56 C 0.2210(8) 0.4454(5) -0.1155(5)
H59 H 0.2160 0.4565 -0.1696
C57 C 0.1229(6) 0.4040(6) -0.0777(4)
H60 H 0.0511 0.3883 -0.1059
C58 C 0.1303(6) 0.3853(5) 0.0030(4)
H61 H 0.0647 0.3542 0.0276
C59 C 0.5654(9) 0.1960(6) 0.4915(8)
H62 H 0.5312 0.1570 0.4459
H63 H 0.5035 0.2127 0.5247
H64 H 0.6148 0.1642 0.5221
C60 C 0.6922(10) 0.3456(12) 0.5355(7)
H65 H 0.7279 0.3111 0.5726
H66 H 0.6301 0.3716 0.5616
H67 H 0.7509 0.3935 0.5180
O2 O 0.1299(7) 0.4391(6) 0.6511(5)
C68 C 0.0272(8) 0.4956(5) 0.6585(7)
H80 H 0.0564 0.5574 0.6806
H81 H -0.0101 0.4982 0.6063
C69 C -0.0464(6) 0.4530(6) 0.7064(6)
H82 H -0.1264 0.4569 0.6888
H83 H -0.0336 0.4832 0.7600
C70 C -0.0373(6) 0.3684(6) 0.7097(6)
H84 H -0.0484 0.3519 0.7647
H85 H -0.0999 0.3313 0.6765
C71 C 0.0622(9) 0.3503(6) 0.6861(8)
H86 H 0.0506 0.3001 0.6450
H87 H 0.1071 0.3335 0.7308
H68? H 0.565(6) 0.280(4) 0.426(4)
C61? C 0.3330(11) 0.4317(6) -0.0005(8)
H69? H 0.4057 0.4189 0.0164
C62? C 0.3233(17) 0.4688(8) -0.0732(12)
H70? H 0.3901 0.4811 -0.1043
C63? C 0.2186(10) 0.4880(6) -0.1008(7)
H71? H 0.2135 0.5124 -0.1504
C64? C 0.1208(7) 0.4708(7) -0.0540(5)
H72? H 0.0479 0.4821 -0.0721
C65? C 0.1317(8) 0.4366(6) 0.0203(5)
H73? H 0.0663 0.4289 0.0533
C66? C 0.590(2) 0.2197(12) 0.5263(11)
H74? H 0.5767 0.1575 0.5042
H75? H 0.5158 0.2357 0.5440
H76? H 0.6445 0.2265 0.5713
C67? C 0.6778(15) 0.3804(8) 0.4990(15)
H77? H 0.6797 0.4221 0.4573
H78? H 0.7551 0.3866 0.5238
H79? H 0.6221 0.3940 0.5387
O3? O 0.1246(14) 0.4734(8) 0.6965(9)
C72? C 0.0672(17) 0.4991(11) 0.6173(11)
H88? H 0.0344 0.5548 0.6267
H89? H 0.1251 0.5075 0.5753
C73? C -0.0151(13) 0.4308(12) 0.5977(10)
H90? H -0.0900 0.4447 0.6169
H91? H -0.0214 0.4215 0.5394
C74? C 0.0045(15) 0.3568(9) 0.6268(12)
H92? H 0.0045 0.3101 0.5832
H93? H -0.0589 0.3357 0.6625
C75? C 0.1049(17) 0.3689(10) 0.6661(14)
H94? H 0.1680 0.3556 0.6313
H95? H 0.1008 0.3305 0.7111
loop_
_geom_bond_atom_site_label_1
_geom_bond_atom_site_label_2
_geom_bond_site_symmetry_1
_geom_bond_site_symmetry_2
Li1 O1 1_555 1_555
O1 C49 1_555 1_555
N1 C1 1_555 1_555
N2 Li1 1_555 1_555
N3 C21 1_555 1_555
N4 Li1 1_555 1_555
C1 C2 1_555 1_555
C2 C3 1_555 1_555
C3 C4 1_555 1_555
C4 H1 1_555 1_555
C5 C4 1_555 1_555
H2 C5 1_555 1_555
C6 C5 1_555 1_555
H3 C6 1_555 1_555
C7 C6 1_555 1_555
H4 C7 1_555 1_555
C8 N1 1_555 1_555
C9 N1 1_555 1_555
H5 C9 1_555 1_555
H6 C9 1_555 1_555
C10 N2 1_555 1_555
H7 C10 1_555 1_555
C11 N2 1_555 1_555
C12 C11 1_555 1_555
C13 C12 1_555 1_555
H8 C13 1_555 1_555
C14 C13 1_555 1_555
H9 C14 1_555 1_555
C15 C14 1_555 1_555
H10 C15 1_555 1_555
C16 C11 1_555 1_555
C17 C12 1_555 1_555
H11 C17 1_555 1_555
C18 C16 1_555 1_555
H12 C18 1_555 1_555
C19 C18 1_555 1_555
H13 C19 1_555 1_555
H14 C19 1_555 1_555
H15 C19 1_555 1_555
C20 C18 1_555 1_555
H16 C20 1_555 1_555
H17 C20 1_555 1_555
H18 C20 1_555 1_555
C21 C1 1_555 1_555
H19 C21 1_555 1_555
C22 C21 1_555 1_555
C23 C22 1_555 1_555
C24 C23 1_555 1_555
H20 C24 1_555 1_555
C25 C24 1_555 1_555
H21 C25 1_555 1_555
C26 C25 1_555 1_555
H22 C26 1_555 1_555
C27 C26 1_555 1_555
H23 C27 1_555 1_555
C28 N3 1_555 1_555
C29 N3 1_555 1_555
H24 C29 1_555 1_555
H25 C29 1_555 1_555
C30 C29 1_555 1_555
C31 C30 1_555 1_555
H26 C31 1_555 1_555
C32 C31 1_555 1_555
H27 C32 1_555 1_555
C33 C32 1_555 1_555
H28 C33 1_555 1_555
C34 C33 1_555 1_555
H29 C34 1_555 1_555
C35 C30 1_555 1_555
H30 C35 1_555 1_555
C36 N4 1_555 1_555
H31 C36 1_555 1_555
C37 N4 1_555 1_555
C38 C37 1_555 1_555
C39 C38 1_555 1_555
H32 C39 1_555 1_555
C40 C39 1_555 1_555
H33 C40 1_555 1_555
C41 C40 1_555 1_555
H34 C41 1_555 1_555
C42 C37 1_555 1_555
C43 C38 1_555 1_555
H35 C43 1_555 1_555
C44 C43 1_555 1_555
H36 C44 1_555 1_555
H37 C44 1_555 1_555
H38 C44 1_555 1_555
C45 C43 1_555 1_555
H39 C45 1_555 1_555
H40 C45 1_555 1_555
H41 C45 1_555 1_555
C46 C42 1_555 1_555
H42 C46 1_555 1_555
C47 C46 1_555 1_555
H43 C47 1_555 1_555
H44 C47 1_555 1_555
H45 C47 1_555 1_555
C48 C46 1_555 1_555
H46 C48 1_555 1_555
H47 C48 1_555 1_555
H48 C48 1_555 1_555
C49 H49 1_555 1_555
H50 C49 1_555 1_555
C50 C49 1_555 1_555
H51 C50 1_555 1_555
H52 C50 1_555 1_555
C51 C50 1_555 1_555
H53 C51 1_555 1_555
H54 C51 1_555 1_555
C52 O1 1_555 1_555
H55 C52 1_555 1_555
H56 C52 1_555 1_555
C53 C9 1_555 1_555
C54 C53 1_555 1_555
H57 C54 1_555 1_555
C55 C54 1_555 1_555
H58 C55 1_555 1_555
C56 C55 1_555 1_555
H59 C56 1_555 1_555
C57 C56 1_555 1_555
H60 C57 1_555 1_555
C58 C53 1_555 1_555
H61 C58 1_555 1_555
C59 C17 1_555 1_555
H62 C59 1_555 1_555
H63 C59 1_555 1_555
H64 C59 1_555 1_555
C60 C17 1_555 1_555
H65 C60 1_555 1_555
H66 C60 1_555 1_555
H67 C60 1_555 1_555
O2 C68 1_555 1_555
C68 H80 1_555 1_555
H81 C68 1_555 1_555
C69 C68 1_555 1_555
H82 C69 1_555 1_555
H83 C69 1_555 1_555
C70 C69 1_555 1_555
H84 C70 1_555 1_555
H85 C70 1_555 1_555
C71 O2 1_555 1_555
H86 C71 1_555 1_555
H87 C71 1_555 1_555
C2 C10 1_555 1_555
C3 C8 1_555 1_555
C7 C8 1_555 1_555
C15 C16 1_555 1_555
C22 C36 1_555 1_555
C23 C28 1_555 1_555
C27 C28 1_555 1_555
C34 C35 1_555 1_555
C41 C42 1_555 1_555
C51 C52 1_555 1_555
C57 C58 1_555 1_555
C70 C71 1_555 1_555

#END
