
#######################################################################
#
#                 Cambridge Crystallographic Data Centre
#                                CCDC 
#
#######################################################################
#
# If this CIF has been generated from an entry in the Cambridge 
# Structural Database, then it will include bibliographic, chemical, 
# crystal, experimental, refinement or atomic coordinate data resulting 
# from the CCDC's data processing and validation procedures.
#
#######################################################################

data_BECPUX01
_chemical_formula_moiety         'C26 H18 O2,0.5(C10 H2 N4)'
_chemical_name_systematic        
'1-(4-methoxyphenyl)-3-(pyren-1-yl)prop-2-en-1-one hemikis(benzene-1,2,4,5-tetracarbonitrile)'
_symmetry_cell_setting           triclinic
_symmetry_space_group_name_H-M   'P -1'
_symmetry_Int_Tables_number      2
_space_group_name_Hall           '-P 1'
loop_
_symmetry_equiv_pos_site_id
_symmetry_equiv_pos_as_xyz
1 x,y,z
2 -x,-y,-z
_cell_length_a                   10.399(2)
_cell_length_b                   10.919(2)
_cell_length_c                   11.408(2)
_cell_angle_alpha                80.90(3)
_cell_angle_beta                 72.01(3)
_cell_angle_gamma                68.39(3)
_cell_volume                     1143.97
_exptl_crystal_colour            red
_exptl_crystal_description       Block
_cell_formula_units_Z            2
loop_
_atom_site_label
_atom_site_type_symbol
_atom_site_fract_x
_atom_site_fract_y
_atom_site_fract_z
O1 O 0.2443(3) 0.2912(2) 0.8898(2)
C1 C 0.6219(3) 0.2016(3) 1.1146(3)
O2 O 0.3195(3) 0.3996(2) 0.3162(2)
C2 C 0.5631(3) 0.1003(3) 1.1672(3)
H1 H 0.5069 0.0811 1.1282
C3 C 0.5863(3) 0.0316(3) 1.2714(3)
H2 H 0.5452 -0.0335 1.3026
C4 C 0.6721(3) 0.0549(3) 1.3364(3)
C5 C 0.7360(3) 0.1518(3) 1.2850(3)
C6 C 0.7135(3) 0.2240(3) 1.1738(3)
C7 C 0.6920(4) -0.0109(4) 1.4470(3)
H3 H 0.6514 -0.0761 1.4805
C8 C 0.7716(5) 0.0193(5) 1.5082(4)
H4 H 0.7825 -0.0243 1.5834
C9 C 0.8343(4) 0.1125(5) 1.4595(4)
H5 H 0.8874 0.1316 1.5019
C10 C 0.8203(3) 0.1794(4) 1.3476(3)
C11 C 0.8833(4) 0.2782(4) 1.2935(4)
H6 H 0.9377 0.2984 1.3339
C12 C 0.8665(4) 0.3426(4) 1.1865(4)
H7 H 0.9126 0.4038 1.1527
C13 C 0.7797(3) 0.3199(3) 1.1228(3)
C14 C 0.7567(3) 0.3901(3) 1.0148(3)
H8 H 0.8030 0.4508 0.9795
C15 C 0.6657(3) 0.3710(3) 0.9587(3)
H9 H 0.6502 0.4206 0.8870
C16 C 0.5969(3) 0.2794(3) 1.0071(3)
C17 C 0.4886(3) 0.2720(3) 0.9531(3)
H10 H 0.4272 0.2284 1.0019
C18 C 0.4676(3) 0.3197(3) 0.8437(3)
H11 H 0.5315 0.3568 0.7882
C19 C 0.3444(4) 0.3148(3) 0.8086(3)
C20 C 0.3388(3) 0.3392(3) 0.6795(3)
C21 C 0.4523(3) 0.3515(3) 0.5818(3)
H12 H 0.5373 0.3454 0.5971
C22 C 0.4424(4) 0.3723(3) 0.4629(3)
H13 H 0.5200 0.3808 0.3987
C23 C 0.3180(4) 0.3807(3) 0.4380(3)
C24 C 0.2016(4) 0.3697(3) 0.5338(3)
H14 H 0.1169 0.3758 0.5178
C25 C 0.2130(3) 0.3497(3) 0.6529(3)
H15 H 0.1347 0.3429 0.7173
C26 C 0.2066(4) 0.3811(4) 0.2826(3)
H16 H 0.2204 0.3973 0.1951
H17 H 0.2079 0.2922 0.3050
H18 H 0.1157 0.4414 0.3251
N1 N 0.7426(3) 0.9476(3) -0.1658(3)
N2 N 1.0665(3) 0.7826(3) 0.3039(3)
C27 C 0.9102(3) 0.9821(3) -0.0581(3)
C28 C 0.9317(3) 0.9067(3) 0.0483(3)
H19 H 0.8864 0.8446 0.0802
C29 C 1.0227(3) 0.9252(3) 0.1071(3)
C30 C 0.8165(3) 0.9622(3) -0.1180(3)
C31 C 1.0473(3) 0.8458(4) 0.2171(3)
N1A N 1.2574(3) 1.0524(3) 0.1658(3)
N2A N 0.9335(3) 1.2174(3) -0.3039(3)
C27A C 1.0898(3) 1.0179(3) 0.0581(3)
C28A C 1.0683(3) 1.0933(3) -0.0483(3)
H19A H 1.1136 1.1554 -0.0802
C29A C 0.9773(3) 1.0748(3) -0.1071(3)
C30A C 1.1835(3) 1.0378(3) 0.1180(3)
C31A C 0.9527(3) 1.1542(4) -0.2171(3)
loop_
_geom_bond_atom_site_label_1
_geom_bond_atom_site_label_2
_geom_bond_site_symmetry_1
_geom_bond_site_symmetry_2
O1 C19 1_555 1_555
C1 C2 1_555 1_555
O2 C23 1_555 1_555
C2 H1 1_555 1_555
C3 C2 1_555 1_555
H2 C3 1_555 1_555
C4 C3 1_555 1_555
C5 C4 1_555 1_555
C6 C1 1_555 1_555
C7 C4 1_555 1_555
H3 C7 1_555 1_555
C8 C7 1_555 1_555
H4 C8 1_555 1_555
C9 C8 1_555 1_555
H5 C9 1_555 1_555
C10 C5 1_555 1_555
C11 C10 1_555 1_555
H6 C11 1_555 1_555
C12 C11 1_555 1_555
H7 C12 1_555 1_555
C13 C6 1_555 1_555
C14 C13 1_555 1_555
H8 C14 1_555 1_555
C15 C14 1_555 1_555
H9 C15 1_555 1_555
C16 C1 1_555 1_555
C17 C16 1_555 1_555
H10 C17 1_555 1_555
C18 C17 1_555 1_555
H11 C18 1_555 1_555
C19 C18 1_555 1_555
C20 C19 1_555 1_555
C21 C20 1_555 1_555
H12 C21 1_555 1_555
C22 C21 1_555 1_555
H13 C22 1_555 1_555
C23 C22 1_555 1_555
C24 C23 1_555 1_555
H14 C24 1_555 1_555
C25 C20 1_555 1_555
H15 C25 1_555 1_555
C26 O2 1_555 1_555
H16 C26 1_555 1_555
H17 C26 1_555 1_555
H18 C26 1_555 1_555
N1 C30 1_555 1_555
N2 C31 1_555 1_555
C27 C28 1_555 1_555
C28 H19 1_555 1_555
C29 C28 1_555 1_555
C30 C27 1_555 1_555
C31 C29 1_555 1_555
N1A C30A 1_555 1_555
N2A C31A 1_555 1_555
C27A C29 1_555 1_555
C28A C27A 1_555 1_555
H19A C28A 1_555 1_555
C29A C27 1_555 1_555
C30A C27A 1_555 1_555
C31A C29A 1_555 1_555
C5 C6 1_555 1_555
C9 C10 1_555 1_555
C12 C13 1_555 1_555
C15 C16 1_555 1_555
C24 C25 1_555 1_555
C28A C29A 1_555 1_555

#END
