
#######################################################################
#
#                 Cambridge Crystallographic Data Centre
#                                CCDC 
#
#######################################################################
#
# If this CIF has been generated from an entry in the Cambridge 
# Structural Database, then it will include bibliographic, chemical, 
# crystal, experimental, refinement or atomic coordinate data resulting 
# from the CCDC's data processing and validation procedures.
#
#######################################################################

data_BECPAD
_chemical_formula_moiety         'C24 H29 I1 N2 O4'
_chemical_name_systematic        
't-butyl [1-benzyl-3-(1-hydroxybutan-2-yl)-5-iodo-2-oxo-2,3-dihydro-1H-indol-3-yl]carbamate'
_symmetry_cell_setting           monoclinic
_symmetry_space_group_name_H-M   'C 2'
_symmetry_Int_Tables_number      5
_space_group_name_Hall           'C 2y'
loop_
_symmetry_equiv_pos_site_id
_symmetry_equiv_pos_as_xyz
1 x,y,z
2 -x,y,-z
3 1/2+x,1/2+y,z
4 1/2-x,1/2+y,-z
_cell_length_a                   19.6940(15)
_cell_length_b                   9.4662(8)
_cell_length_c                   14.4037(12)
_cell_angle_alpha                90
_cell_angle_beta                 114.698(5)
_cell_angle_gamma                90
_cell_volume                     2439.6
_exptl_crystal_colour            colorless
_exptl_crystal_description       block
_cell_formula_units_Z            4
loop_
_atom_site_label
_atom_site_type_symbol
_atom_site_fract_x
_atom_site_fract_y
_atom_site_fract_z
I1 I 0.444494(14) 0.49229(4) 0.81359(2)
N1 N 0.19356(16) 0.8790(3) 0.8288(2)
N2 N 0.11462(16) 0.6514(3) 0.6228(2)
H1 H 0.0996 0.6335 0.5588
O1 O 0.07248(14) 0.9046(3) 0.70967(19)
O2 O 0.12203(15) 0.5742(3) 0.7750(2)
O3 O 0.03523(13) 0.4865(5) 0.62521(18)
O4 O 0.06198(18) 0.7869(3) 0.4372(2)
H2 H 0.0192 0.8082 0.3979
C1 C 0.3625(2) 0.6245(4) 0.8248(3)
C2 C 0.3767(2) 0.6940(5) 0.9146(3)
H3 H 0.4225 0.6818 0.9701
C3 C 0.3234(2) 0.7826(4) 0.9238(3)
H4 H 0.3328 0.8303 0.9844
C4 C 0.25607(19) 0.7970(4) 0.8395(3)
C5 C 0.24126(19) 0.7264(4) 0.7482(2)
C6 C 0.2945(2) 0.6393(4) 0.7391(3)
H5 H 0.2854 0.5924 0.6783
C7 C 0.16396(18) 0.7694(4) 0.6688(2)
C8 C 0.13617(19) 0.8586(4) 0.7355(3)
C9 C 0.1862(2) 0.9555(4) 0.9133(3)
H6 H 0.1428 1.0167 0.8856
H7 H 0.2299 1.0146 0.9472
C10 C 0.1784(2) 0.8579(4) 0.9908(3)
C11 C 0.1227(2) 0.7555(5) 0.9614(3)
H8 H 0.0905 0.7465 0.8926
C12 C 0.1140(3) 0.6668(6) 1.0322(4)
H9 H 0.0763 0.5991 1.0110
C13 C 0.1610(3) 0.6794(6) 1.1328(4)
H10 H 0.1549 0.6211 1.1807
C14 C 0.2179(3) 0.7783(7) 1.1644(4)
H11 H 0.2502 0.7853 1.2332
C15 C 0.2269(2) 0.8672(5) 1.0938(3)
H12 H 0.2654 0.9332 1.1153
C16 C 0.0925(2) 0.5696(4) 0.6823(3)
C17 C 0.0036(3) 0.3864(5) 0.6747(4)
C18 C 0.0622(4) 0.2767(7) 0.7327(6)
H13 H 0.1020 0.3208 0.7895
H14 H 0.0819 0.2359 0.6880
H15 H 0.0400 0.2039 0.7573
C19 C -0.0257(3) 0.4624(8) 0.7411(5)
H16 H 0.0153 0.4963 0.8012
H17 H -0.0556 0.3990 0.7606
H18 H -0.0558 0.5409 0.7043
C20 C -0.0610(4) 0.3215(7) 0.5847(5)
H19 H -0.0875 0.2572 0.6092
H20 H -0.0422 0.2714 0.5425
H21 H -0.0943 0.3948 0.5454
C21 C 0.1715(2) 0.8614(4) 0.5829(3)
H22 H 0.1977 0.8043 0.5513
C22 C 0.2196(2) 0.9964(6) 0.6282(2)
H23 H 0.1895 1.0646 0.6447
H24 H 0.2616 0.9713 0.6914
C23 C 0.2488(3) 1.0654(6) 0.5574(4)
H25 H 0.2746 0.9963 0.5353
H26 H 0.2826 1.1402 0.5929
H27 H 0.2077 1.1033 0.4990
C24 C 0.0979(2) 0.9063(4) 0.4992(3)
H28 H 0.0661 0.9457 0.5290
H29 H 0.1063 0.9785 0.4574
loop_
_geom_bond_atom_site_label_1
_geom_bond_atom_site_label_2
_geom_bond_site_symmetry_1
_geom_bond_site_symmetry_2
I1 C1 1_555 1_555
N1 C4 1_555 1_555
N2 H1 1_555 1_555
O1 C8 1_555 1_555
O2 C16 1_555 1_555
O3 C16 1_555 1_555
O4 H2 1_555 1_555
C1 C2 1_555 1_555
C2 H3 1_555 1_555
C3 C2 1_555 1_555
H4 C3 1_555 1_555
C4 C3 1_555 1_555
C5 C4 1_555 1_555
C6 C1 1_555 1_555
H5 C6 1_555 1_555
C7 N2 1_555 1_555
C8 N1 1_555 1_555
C9 N1 1_555 1_555
H6 C9 1_555 1_555
H7 C9 1_555 1_555
C10 C9 1_555 1_555
C11 C10 1_555 1_555
H8 C11 1_555 1_555
C12 C11 1_555 1_555
H9 C12 1_555 1_555
C13 C12 1_555 1_555
H10 C13 1_555 1_555
C14 C13 1_555 1_555
H11 C14 1_555 1_555
C15 C10 1_555 1_555
H12 C15 1_555 1_555
C16 N2 1_555 1_555
C17 O3 1_555 1_555
C18 C17 1_555 1_555
H13 C18 1_555 1_555
H14 C18 1_555 1_555
H15 C18 1_555 1_555
C19 C17 1_555 1_555
H16 C19 1_555 1_555
H17 C19 1_555 1_555
H18 C19 1_555 1_555
C20 C17 1_555 1_555
H19 C20 1_555 1_555
H20 C20 1_555 1_555
H21 C20 1_555 1_555
C21 C7 1_555 1_555
H22 C21 1_555 1_555
C22 C21 1_555 1_555
H23 C22 1_555 1_555
H24 C22 1_555 1_555
C23 C22 1_555 1_555
H25 C23 1_555 1_555
H26 C23 1_555 1_555
H27 C23 1_555 1_555
C24 O4 1_555 1_555
H28 C24 1_555 1_555
H29 C24 1_555 1_555
C5 C6 1_555 1_555
C5 C7 1_555 1_555
C7 C8 1_555 1_555
C14 C15 1_555 1_555
C21 C24 1_555 1_555

#END
