
#######################################################################
#
#                 Cambridge Crystallographic Data Centre
#                                CCDC 
#
#######################################################################
#
# If this CIF has been generated from an entry in the Cambridge 
# Structural Database, then it will include bibliographic, chemical, 
# crystal, experimental, refinement or atomic coordinate data resulting 
# from the CCDC's data processing and validation procedures.
#
#######################################################################

data_BECRAE
_chemical_formula_moiety         'C14 H11 F1 O2 S1'
_chemical_name_systematic        
'1-(4-Fluorophenyl)-1,3-dihydro-2-benzothiophene 2,2-dioxide'
_symmetry_cell_setting           monoclinic
_symmetry_space_group_name_H-M   'P 21/c'
_symmetry_Int_Tables_number      14
_space_group_name_Hall           '-P 2ybc'
loop_
_symmetry_equiv_pos_site_id
_symmetry_equiv_pos_as_xyz
1 x,y,z
2 -x,1/2+y,1/2-z
3 -x,-y,-z
4 x,1/2-y,1/2+z
_cell_length_a                   11.4383(13)
_cell_length_b                   11.6596(15)
_cell_length_c                   9.4849(12)
_cell_angle_alpha                90
_cell_angle_beta                 104.523(3)
_cell_angle_gamma                90
_cell_volume                     1224.54
_exptl_crystal_colour            colorless
_exptl_crystal_description       prism
_cell_formula_units_Z            4
loop_
_atom_site_label
_atom_site_type_symbol
_atom_site_fract_x
_atom_site_fract_y
_atom_site_fract_z
S1 S 0.04847(3) 0.71378(3) 0.23033(4)
F1 F 0.33485(9) 0.23805(8) 0.41120(12)
O1 O -0.05544(9) 0.66723(9) 0.12770(11)
O2 O 0.06138(9) 0.68973(10) 0.38296(11)
C1 C 0.29879(13) 0.34358(12) 0.35629(17)
C2 C 0.23340(12) 0.35240(12) 0.21429(16)
H1 H 0.2118 0.2875 0.1567
C3 C 0.20032(11) 0.46139(12) 0.15897(15)
H2 H 0.1568 0.4696 0.0626
C4 C 0.23140(12) 0.55836(11) 0.24570(15)
C5 C 0.18838(12) 0.67438(11) 0.18339(14)
H3 H 0.1724 0.6701 0.0771
C6 C 0.26606(12) 0.77846(11) 0.23465(15)
C7 C 0.39152(13) 0.78086(12) 0.26736(18)
H4 H 0.4347 0.7148 0.2583
C8 C 0.45186(12) 0.88279(14) 0.31372(18)
H5 H 0.5357 0.8851 0.3350
C9 C 0.38794(12) 0.98086(13) 0.32842(16)
H6 H 0.4294 1.0484 0.3605
C10 C 0.29665(14) 0.54496(13) 0.39047(16)
H7 H 0.3170 0.6090 0.4500
C11 C 0.33118(15) 0.43686(14) 0.44562(17)
H8 H 0.3755 0.4276 0.5415
C12 C 0.06591(11) 0.86434(12) 0.20867(15)
H9 H 0.0304 0.8882 0.1092
H10 H 0.0297 0.9079 0.2739
C13 C 0.20162(11) 0.87820(11) 0.24804(14)
C14 C 0.26267(12) 0.97971(12) 0.29592(15)
H11 H 0.2201 1.0459 0.3060
loop_
_geom_bond_atom_site_label_1
_geom_bond_atom_site_label_2
_geom_bond_site_symmetry_1
_geom_bond_site_symmetry_2
S1 O1 1_555 1_555
F1 C1 1_555 1_555
O2 S1 1_555 1_555
C1 C2 1_555 1_555
C2 H1 1_555 1_555
C3 C2 1_555 1_555
H2 C3 1_555 1_555
C4 C3 1_555 1_555
C5 S1 1_555 1_555
H3 C5 1_555 1_555
C6 C5 1_555 1_555
C7 C6 1_555 1_555
H4 C7 1_555 1_555
C8 C7 1_555 1_555
H5 C8 1_555 1_555
C9 C8 1_555 1_555
H6 C9 1_555 1_555
C10 C4 1_555 1_555
H7 C10 1_555 1_555
C11 C1 1_555 1_555
H8 C11 1_555 1_555
C12 S1 1_555 1_555
H9 C12 1_555 1_555
H10 C12 1_555 1_555
C13 C6 1_555 1_555
C14 C9 1_555 1_555
H11 C14 1_555 1_555
C4 C5 1_555 1_555
C10 C11 1_555 1_555
C12 C13 1_555 1_555
C13 C14 1_555 1_555

#END
