
#######################################################################
#
#                 Cambridge Crystallographic Data Centre
#                                CCDC 
#
#######################################################################
#
# If this CIF has been generated from an entry in the Cambridge 
# Structural Database, then it will include bibliographic, chemical, 
# crystal, experimental, refinement or atomic coordinate data resulting 
# from the CCDC's data processing and validation procedures.
#
#######################################################################

data_BEDBET
_chemical_formula_moiety         'C47 H62 O3 Si2'
_chemical_name_systematic        
5-((t-Butyl(dimethyl)silyl)oxy)-6-(2-(dimethyl(phenyl)silyl)ethyl)-3-methyl-2-(5-(trityloxy)pentan-2-yl)cyclohex-2-en-1-one
_symmetry_cell_setting           triclinic
_symmetry_space_group_name_H-M   'P 1'
_symmetry_Int_Tables_number      1
_space_group_name_Hall           'P 1'
loop_
_symmetry_equiv_pos_site_id
_symmetry_equiv_pos_as_xyz
1 x,y,z
_cell_length_a                   10.3900(2)
_cell_length_b                   10.4866(8)
_cell_length_c                   12.0159(9)
_cell_angle_alpha                71.638(6)
_cell_angle_beta                 75.642(4)
_cell_angle_gamma                62.998(4)
_cell_volume                     1098.53
_exptl_crystal_colour            colorless
_exptl_crystal_description       plate
_cell_formula_units_Z            1
loop_
_atom_site_label
_atom_site_type_symbol
_atom_site_fract_x
_atom_site_fract_y
_atom_site_fract_z
C1 C 0.97321(13) 0.25888(13) 0.65418(11)
H1 H 0.9915 0.1787 0.7281
C2 C 1.02442(13) 0.37116(13) 0.65854(10)
H2 H 0.9651 0.4142 0.7275
C3 C 0.99104(14) 0.49659(13) 0.54796(11)
C4 C 0.85681(13) 0.54323(13) 0.49478(11)
C5 C 0.77005(13) 0.46974(14) 0.54338(12)
C6 C 0.81147(14) 0.33458(15) 0.64368(12)
H3 H 0.7803 0.2637 0.6324
H4 H 0.7580 0.3630 0.7187
C7 C 0.82669(15) 0.67069(14) 0.38622(13)
H5 H 0.7336 0.6877 0.3623
C8 C 0.94525(17) 0.63463(16) 0.28080(12)
H6 H 0.9146 0.7171 0.2109
H7 H 1.0359 0.6289 0.2988
C9 C 0.97914(15) 0.49228(17) 0.24867(12)
H8 H 1.0620 0.4747 0.1849
H9 H 1.0088 0.4092 0.3184
C10 C 0.85016(15) 0.49596(16) 0.20805(12)
H10 H 0.7730 0.4948 0.2755
H11 H 0.8096 0.5872 0.1467
C11 C 0.8042(2) 0.81509(15) 0.41106(18)
H12 H 0.7238 0.8402 0.4746
H13 H 0.7810 0.8943 0.3394
H14 H 0.8934 0.8028 0.4351
C12 C 0.62539(16) 0.51159(18) 0.50606(15)
H15 H 0.6003 0.6043 0.4455
H16 H 0.5503 0.5239 0.5746
H17 H 0.6313 0.4339 0.4737
C13 C 1.18403(14) 0.30842(14) 0.67674(12)
H18 H 1.2062 0.3889 0.6814
H19 H 1.2457 0.2707 0.6071
C14 C 1.22444(16) 0.18369(16) 0.78861(13)
H20 H 1.2276 0.0939 0.7751
H21 H 1.1472 0.2118 0.8548
O1 O 1.07202(12) 0.56019(12) 0.50688(9)
O2 O 1.05654(10) 0.19920(9) 0.55465(8)
O3 O 0.89810(10) 0.36960(10) 0.16096(8)
Si1 Si 1.07038(4) 0.05251(3) 0.52157(3)
C15 C 1.0539(2) -0.08648(18) 0.65900(17)
H22 H 1.1253 -0.1074 0.7096
H23 H 1.0721 -0.1772 0.6388
H24 H 0.9556 -0.0481 0.7011
C16 C 0.92542(18) 0.10222(18) 0.43125(16)
H25 H 0.8308 0.1283 0.4805
H26 H 0.9453 0.0181 0.4004
H27 H 0.9238 0.1864 0.3653
C17 C 1.25686(17) -0.01639(16) 0.43530(14)
C18 C 1.3734(2) -0.0666(2) 0.51501(19)
H28 H 1.3694 -0.1509 0.5787
H29 H 1.3557 0.0143 0.5490
H30 H 1.4697 -0.0955 0.4684
C19 C 1.2800(3) -0.1448(2) 0.3866(2)
H31 H 1.3781 -0.1809 0.3437
H32 H 1.2079 -0.1112 0.3327
H33 H 1.2687 -0.2245 0.4521
C20 C 1.2729(2) 0.1084(2) 0.33095(17)
H34 H 1.2603 0.1905 0.3611
H35 H 1.1988 0.1421 0.2790
H36 H 1.3700 0.0718 0.2864
Si2 Si 1.40347(4) 0.13999(4) 0.83239(4)
C21 C 1.4532(2) -0.0286(2) 0.95604(19)
H37 H 1.5506 -0.0555 0.9739
H38 H 1.4526 -0.1098 0.9327
H39 H 1.3824 -0.0088 1.0263
C22 C 1.54818(19) 0.1108(2) 0.70302(17)
H40 H 1.5231 0.2008 0.6397
H41 H 1.5557 0.0295 0.6745
H42 H 1.6416 0.0868 0.7270
C23 C 1.38304(15) 0.30139(17) 0.88202(13)
C24 C 1.3647(2) 0.2987(2) 1.00204(15)
H43 H 1.3703 0.2104 1.0592
C25 C 1.3387(2) 0.4208(3) 1.0395(2)
H44 H 1.3278 0.4155 1.1215
C26 C 1.3284(2) 0.5505(3) 0.9581(2)
H45 H 1.3081 0.6353 0.9840
C27 C 1.3477(2) 0.5569(2) 0.8386(2)
H46 H 1.3419 0.6457 0.7820
C28 C 1.3757(2) 0.43263(19) 0.80167(16)
H47 H 1.3902 0.4375 0.7195
C29 C 0.79984(13) 0.37816(13) 0.09034(11)
C30 C 0.65006(14) 0.40756(15) 0.16526(11)
C31 C 0.53972(16) 0.54834(17) 0.16033(14)
H48 H 0.5510 0.6299 0.1027
C32 C 0.41278(17) 0.5700(2) 0.23971(16)
H49 H 0.3375 0.6663 0.2345
C33 C 0.39451(19) 0.4540(3) 0.32574(16)
H50 H 0.3079 0.4699 0.3798
C34 C 0.50408(19) 0.3146(2) 0.33183(15)
H51 H 0.4929 0.2340 0.3909
C35 C 0.63068(16) 0.29074(18) 0.25250(13)
H52 H 0.7049 0.1939 0.2577
C36 C 0.86310(15) 0.22759(14) 0.06009(11)
C37 C 0.99878(17) 0.12059(16) 0.08809(14)
H53 H 1.0553 0.1395 0.1269
C38 C 1.0524(2) -0.01509(18) 0.05919(17)
H54 H 1.1453 -0.0881 0.0790
C39 C 0.9727(2) -0.04433(18) 0.00250(16)
H55 H 1.0100 -0.1371 -0.0166
C40 C 0.8385(2) 0.0616(2) -0.02646(17)
H56 H 0.7835 0.0423 -0.0665
C41 C 0.78279(19) 0.19713(17) 0.00247(15)
H57 H 0.6895 0.2692 -0.0171
C42 C 0.80038(14) 0.49376(13) -0.02651(11)
C43 C 0.91994(16) 0.53135(15) -0.06501(12)
H58 H 0.9981 0.4863 -0.0187
C44 C 0.92522(19) 0.63391(17) -0.17038(14)
H59 H 1.0062 0.6598 -0.1950
C45 C 0.8136(2) 0.69890(16) -0.24000(14)
H60 H 0.8169 0.7704 -0.3114
C46 C 0.69747(18) 0.65886(17) -0.20479(13)
H61 H 0.6216 0.7013 -0.2531
C47 C 0.69111(16) 0.55657(16) -0.09886(13)
H62 H 0.6110 0.5294 -0.0758
loop_
_geom_bond_atom_site_label_1
_geom_bond_atom_site_label_2
_geom_bond_site_symmetry_1
_geom_bond_site_symmetry_2
C1 H1 1_555 1_555
C2 C1 1_555 1_555
H2 C2 1_555 1_555
C3 C2 1_555 1_555
C4 C3 1_555 1_555
C5 C4 1_555 1_555
C6 C1 1_555 1_555
H3 C6 1_555 1_555
H4 C6 1_555 1_555
C7 C4 1_555 1_555
H5 C7 1_555 1_555
C8 C7 1_555 1_555
H6 C8 1_555 1_555
H7 C8 1_555 1_555
C9 C8 1_555 1_555
H8 C9 1_555 1_555
H9 C9 1_555 1_555
C10 C9 1_555 1_555
H10 C10 1_555 1_555
H11 C10 1_555 1_555
C11 C7 1_555 1_555
H12 C11 1_555 1_555
H13 C11 1_555 1_555
H14 C11 1_555 1_555
C12 C5 1_555 1_555
H15 C12 1_555 1_555
H16 C12 1_555 1_555
H17 C12 1_555 1_555
C13 C2 1_555 1_555
H18 C13 1_555 1_555
H19 C13 1_555 1_555
C14 C13 1_555 1_555
H20 C14 1_555 1_555
H21 C14 1_555 1_555
O1 C3 1_555 1_555
O2 C1 1_555 1_555
O3 C10 1_555 1_555
Si1 O2 1_555 1_555
C15 Si1 1_555 1_555
H22 C15 1_555 1_555
H23 C15 1_555 1_555
H24 C15 1_555 1_555
C16 Si1 1_555 1_555
H25 C16 1_555 1_555
H26 C16 1_555 1_555
H27 C16 1_555 1_555
C17 Si1 1_555 1_555
C18 C17 1_555 1_555
H28 C18 1_555 1_555
H29 C18 1_555 1_555
H30 C18 1_555 1_555
C19 C17 1_555 1_555
H31 C19 1_555 1_555
H32 C19 1_555 1_555
H33 C19 1_555 1_555
C20 C17 1_555 1_555
H34 C20 1_555 1_555
H35 C20 1_555 1_555
H36 C20 1_555 1_555
Si2 C14 1_555 1_555
C21 Si2 1_555 1_555
H37 C21 1_555 1_555
H38 C21 1_555 1_555
H39 C21 1_555 1_555
C22 Si2 1_555 1_555
H40 C22 1_555 1_555
H41 C22 1_555 1_555
H42 C22 1_555 1_555
C23 Si2 1_555 1_555
C24 C23 1_555 1_555
H43 C24 1_555 1_555
C25 C24 1_555 1_555
H44 C25 1_555 1_555
C26 C25 1_555 1_555
H45 C26 1_555 1_555
C27 C26 1_555 1_555
H46 C27 1_555 1_555
C28 C23 1_555 1_555
H47 C28 1_555 1_555
C29 O3 1_555 1_555
C30 C29 1_555 1_555
C31 C30 1_555 1_555
H48 C31 1_555 1_555
C32 C31 1_555 1_555
H49 C32 1_555 1_555
C33 C32 1_555 1_555
H50 C33 1_555 1_555
C34 C33 1_555 1_555
H51 C34 1_555 1_555
C35 C30 1_555 1_555
H52 C35 1_555 1_555
C36 C29 1_555 1_555
C37 C36 1_555 1_555
H53 C37 1_555 1_555
C38 C37 1_555 1_555
H54 C38 1_555 1_555
C39 C38 1_555 1_555
H55 C39 1_555 1_555
C40 C39 1_555 1_555
H56 C40 1_555 1_555
C41 C36 1_555 1_555
H57 C41 1_555 1_555
C42 C29 1_555 1_555
C43 C42 1_555 1_555
H58 C43 1_555 1_555
C44 C43 1_555 1_555
H59 C44 1_555 1_555
C45 C44 1_555 1_555
H60 C45 1_555 1_555
C46 C45 1_555 1_555
H61 C46 1_555 1_555
C47 C42 1_555 1_555
H62 C47 1_555 1_555
C5 C6 1_555 1_555
C27 C28 1_555 1_555
C34 C35 1_555 1_555
C40 C41 1_555 1_555
C46 C47 1_555 1_555

#END
