
#######################################################################
#
#                 Cambridge Crystallographic Data Centre
#                                CCDC 
#
#######################################################################
#
# If this CIF has been generated from an entry in the Cambridge 
# Structural Database, then it will include bibliographic, chemical, 
# crystal, experimental, refinement or atomic coordinate data resulting 
# from the CCDC's data processing and validation procedures.
#
#######################################################################

data_BEDBAP
_chemical_compound_source        'Inula britannica syn. Inula japonica'
_chemical_name_common            Britannilactone
_chemical_formula_moiety         'C15 H22 O4'
_chemical_name_systematic        
4-Hydroxy-5-(5-hydroxypentan-2-yl)-6-methyl-3-methylene-3a,4,7,7a-tetrahydro-1-benzofuran-2(3H)-one
_chemical_properties_biological  
'cytotoxic activity; source plant used in TCM for treatment of bronchitis and inflammation'
_symmetry_cell_setting           orthorhombic
_symmetry_space_group_name_H-M   'P 21 21 21'
_symmetry_Int_Tables_number      19
_space_group_name_Hall           'P 2ac 2ab'
loop_
_symmetry_equiv_pos_site_id
_symmetry_equiv_pos_as_xyz
1 x,y,z
2 1/2-x,-y,1/2+z
3 1/2+x,1/2-y,-z
4 -x,1/2+y,1/2-z
_cell_length_a                   7.103(1)
_cell_length_b                   7.452(1)
_cell_length_c                   26.392(1)
_cell_angle_alpha                90
_cell_angle_beta                 90
_cell_angle_gamma                90
_cell_volume                     1396.97
_exptl_crystal_colour            colorless
_exptl_crystal_description       plate
_cell_formula_units_Z            4
loop_
_atom_site_label
_atom_site_type_symbol
_atom_site_fract_x
_atom_site_fract_y
_atom_site_fract_z
C1 C 0.13399(19) 1.11229(17) 0.05396(4)
C2 C 0.01889(18) 1.10625(16) 0.09395(5)
C3 C -0.09837(18) 0.93855(18) 0.10118(4)
H1 H -0.1494 0.9376 0.1365
O1 O -0.25317(14) 0.94264(14) 0.06612(4)
H2 H -0.326(3) 0.875(3) 0.0795(7)
C4 C 0.01856(18) 0.76740(17) 0.09291(4)
H3 H -0.0679 0.6620 0.0900
C5 C 0.15734(18) 0.73469(16) 0.13520(4)
C6 C 0.34831(19) 0.73743(17) 0.11338(5)
O2 O 0.50002(14) 0.72697(16) 0.13418(4)
O3 O 0.33895(14) 0.75677(13) 0.06315(3)
C7 C 0.14405(19) 0.77751(18) 0.04508(4)
H4 H 0.1115 0.6777 0.0213
C8 C 0.1355(2) 0.95516(18) 0.01769(4)
H5 H 0.0204 0.9590 -0.0035
H6 H 0.2456 0.9657 -0.0051
C9 C 0.2658(2) 1.26278(19) 0.04047(5)
H7 H 0.2524 1.3601 0.0652
H8 H 0.2352 1.3078 0.0066
H9 H 0.3958 1.2186 0.0409
C10 C -0.01219(18) 1.25752(18) 0.13149(5)
H10 H 0.0556 1.3652 0.1182
C11 C 0.0696(2) 1.21631(19) 0.18425(5)
H11 H 0.0306 1.3122 0.2080
H12 H 0.0155 1.1019 0.1966
C12 C 0.2833(2) 1.2020(2) 0.18484(5)
H13 H 0.3227 1.1112 0.1596
H14 H 0.3374 1.3188 0.1744
C13 C 0.3627(2) 1.1512(2) 0.23588(6)
H15 H 0.3105 1.0342 0.2468
H16 H 0.5013 1.1397 0.2336
O4 O 0.31473(18) 1.28614(18) 0.27169(4)
H17 H 0.377(4) 1.267(3) 0.2981(8)
C14 C -0.2214(2) 1.3068(2) 0.13517(6)
H18 H -0.2912 1.2064 0.1501
H19 H -0.2705 1.3321 0.1012
H20 H -0.2360 1.4133 0.1566
C15 C 0.1263(2) 0.70710(19) 0.18397(5)
H21 H 0.2292 0.6881 0.2063
H22 H 0.0011 0.7063 0.1966
loop_
_geom_bond_atom_site_label_1
_geom_bond_atom_site_label_2
_geom_bond_site_symmetry_1
_geom_bond_site_symmetry_2
C1 C2 1_555 1_555
C2 C3 1_555 1_555
C3 H1 1_555 1_555
O1 C3 1_555 1_555
H2 O1 1_555 1_555
C4 C3 1_555 1_555
H3 C4 1_555 1_555
C5 C4 1_555 1_555
C6 C5 1_555 1_555
O2 C6 1_555 1_555
O3 C6 1_555 1_555
C7 C4 1_555 1_555
H4 C7 1_555 1_555
C8 C1 1_555 1_555
H5 C8 1_555 1_555
H6 C8 1_555 1_555
C9 C1 1_555 1_555
H7 C9 1_555 1_555
H8 C9 1_555 1_555
H9 C9 1_555 1_555
C10 C2 1_555 1_555
H10 C10 1_555 1_555
C11 C10 1_555 1_555
H11 C11 1_555 1_555
H12 C11 1_555 1_555
C12 C11 1_555 1_555
H13 C12 1_555 1_555
H14 C12 1_555 1_555
C13 C12 1_555 1_555
H15 C13 1_555 1_555
H16 C13 1_555 1_555
O4 C13 1_555 1_555
H17 O4 1_555 1_555
C14 C10 1_555 1_555
H18 C14 1_555 1_555
H19 C14 1_555 1_555
H20 C14 1_555 1_555
C15 C5 1_555 1_555
H21 C15 1_555 1_555
H22 C15 1_555 1_555
O3 C7 1_555 1_555
C7 C8 1_555 1_555

#END
