
#######################################################################
#
#                 Cambridge Crystallographic Data Centre
#                                CCDC 
#
#######################################################################
#
# If this CIF has been generated from an entry in the Cambridge 
# Structural Database, then it will include bibliographic, chemical, 
# crystal, experimental, refinement or atomic coordinate data resulting 
# from the CCDC's data processing and validation procedures.
#
#######################################################################

data_BEDCIY
_chemical_formula_moiety         'C32 H21 N1'
_chemical_name_systematic        7,8,9-Triphenyl-8H-acenaphtho[1,2-c]pyrrole
_symmetry_cell_setting           orthorhombic
_symmetry_space_group_name_H-M   'P 21 21 21'
_symmetry_Int_Tables_number      19
_space_group_name_Hall           'P 2ac 2ab'
loop_
_symmetry_equiv_pos_site_id
_symmetry_equiv_pos_as_xyz
1 x,y,z
2 1/2-x,-y,1/2+z
3 1/2+x,1/2-y,-z
4 -x,1/2+y,1/2-z
_cell_length_a                   10.1620(3)
_cell_length_b                   13.2197(4)
_cell_length_c                   16.4100(5)
_cell_angle_alpha                90
_cell_angle_beta                 90
_cell_angle_gamma                90
_cell_volume                     2204.5
_exptl_crystal_colour            yellow
_exptl_crystal_description       block
_cell_formula_units_Z            4
loop_
_atom_site_label
_atom_site_type_symbol
_atom_site_fract_x
_atom_site_fract_y
_atom_site_fract_z
N1 N 0.78323(18) 0.67333(12) 0.80826(9)
C1 C 0.7448(2) 0.97191(16) 0.64479(14)
H1 H 0.7790 0.9360 0.6009
C2 C 0.7135(3) 1.07600(17) 0.63721(15)
H2 H 0.7284 1.1078 0.5875
C3 C 0.6626(2) 1.13146(16) 0.69984(15)
H3 H 0.6443 1.1997 0.6922
C4 C 0.6372(2) 1.08575(15) 0.77647(14)
C5 C 0.5812(2) 1.13105(16) 0.84639(16)
H4 H 0.5576 1.1990 0.8450
C6 C 0.5614(2) 1.07653(16) 0.91581(16)
H5 H 0.5249 1.1086 0.9609
C7 C 0.5945(2) 0.97236(15) 0.92160(14)
H6 H 0.5808 0.9368 0.9698
C8 C 0.6474(2) 0.92520(15) 0.85461(12)
C9 C 0.6685(2) 0.98307(14) 0.78281(13)
C10 C 0.7233(2) 0.92534(15) 0.71832(13)
C11 C 0.7405(2) 0.82269(14) 0.75229(12)
C12 C 0.6921(2) 0.82251(14) 0.83399(13)
C13 C 0.7164(2) 0.72923(14) 0.86730(12)
C14 C 0.6834(2) 0.68977(14) 0.94851(12)
C15 C 0.7705(2) 0.63198(16) 0.99453(13)
H7 H 0.8525 0.6155 0.9731
C16 C 0.7367(3) 0.59876(19) 1.07145(14)
H8 H 0.7959 0.5602 1.1015
C17 C 0.6161(3) 0.6224(2) 1.10375(15)
H9 H 0.5935 0.6003 1.1557
C18 C 0.5290(3) 0.6789(2) 1.05896(15)
H10 H 0.4471 0.6950 1.0808
C19 C 0.5616(2) 0.71214(17) 0.98189(14)
H11 H 0.5012 0.7499 0.9520
C20 C 0.7899(2) 0.56441(14) 0.80977(11)
C21 C 0.6787(2) 0.51052(16) 0.79093(14)
H12 H 0.6018 0.5443 0.7768
C22 C 0.6808(3) 0.40629(17) 0.79281(15)
H13 H 0.6056 0.3697 0.7795
C23 C 0.7945(3) 0.35649(16) 0.81454(14)
H14 H 0.7960 0.2862 0.8163
C24 C 0.9053(2) 0.41038(16) 0.83353(14)
H15 H 0.9819 0.3765 0.8482
C25 C 0.9041(2) 0.51479(16) 0.83111(14)
H16 H 0.9796 0.5513 0.8437
C26 C 0.7959(2) 0.73037(14) 0.73666(12)
C27 C 0.8583(2) 0.69168(15) 0.66203(13)
C28 C 0.9807(2) 0.64540(16) 0.66168(16)
H17 H 1.0253 0.6357 0.7105
C29 C 1.0372(3) 0.61350(19) 0.58950(18)
H18 H 1.1194 0.5826 0.5901
C30 C 0.9730(4) 0.6272(2) 0.51738(18)
H19 H 1.0109 0.6047 0.4691
C31 C 0.8524(4) 0.6740(2) 0.51588(16)
H20 H 0.8096 0.6843 0.4665
C32 C 0.7944(3) 0.70619(18) 0.58805(13)
H21 H 0.7125 0.7375 0.5869
loop_
_geom_bond_atom_site_label_1
_geom_bond_atom_site_label_2
_geom_bond_site_symmetry_1
_geom_bond_site_symmetry_2
N1 C13 1_555 1_555
C1 H1 1_555 1_555
C2 C1 1_555 1_555
H2 C2 1_555 1_555
C3 C2 1_555 1_555
H3 C3 1_555 1_555
C4 C3 1_555 1_555
C5 C4 1_555 1_555
H4 C5 1_555 1_555
C6 C5 1_555 1_555
H5 C6 1_555 1_555
C7 C6 1_555 1_555
H6 C7 1_555 1_555
C8 C7 1_555 1_555
C9 C4 1_555 1_555
C10 C1 1_555 1_555
C11 C10 1_555 1_555
C12 C8 1_555 1_555
C13 C12 1_555 1_555
C14 C13 1_555 1_555
C15 C14 1_555 1_555
H7 C15 1_555 1_555
C16 C15 1_555 1_555
H8 C16 1_555 1_555
C17 C16 1_555 1_555
H9 C17 1_555 1_555
C18 C17 1_555 1_555
H10 C18 1_555 1_555
C19 C14 1_555 1_555
H11 C19 1_555 1_555
C20 N1 1_555 1_555
C21 C20 1_555 1_555
H12 C21 1_555 1_555
C22 C21 1_555 1_555
H13 C22 1_555 1_555
C23 C22 1_555 1_555
H14 C23 1_555 1_555
C24 C23 1_555 1_555
H15 C24 1_555 1_555
C25 C20 1_555 1_555
H16 C25 1_555 1_555
C26 N1 1_555 1_555
C27 C26 1_555 1_555
C28 C27 1_555 1_555
H17 C28 1_555 1_555
C29 C28 1_555 1_555
H18 C29 1_555 1_555
C30 C29 1_555 1_555
H19 C30 1_555 1_555
C31 C30 1_555 1_555
H20 C31 1_555 1_555
C32 C27 1_555 1_555
H21 C32 1_555 1_555
C8 C9 1_555 1_555
C9 C10 1_555 1_555
C11 C12 1_555 1_555
C11 C26 1_555 1_555
C18 C19 1_555 1_555
C24 C25 1_555 1_555
C31 C32 1_555 1_555

#END
