
#######################################################################
#
#                 Cambridge Crystallographic Data Centre
#                                CCDC 
#
#######################################################################
#
# If this CIF has been generated from an entry in the Cambridge 
# Structural Database, then it will include bibliographic, chemical, 
# crystal, experimental, refinement or atomic coordinate data resulting 
# from the CCDC's data processing and validation procedures.
#
#######################################################################

data_BEDCAR
_chemical_formula_moiety         'C21 H18 O3'
_chemical_name_systematic        2-(4-butylphenyl)-4H-furo[3,2-c]chromen-4-one
_symmetry_cell_setting           monoclinic
_symmetry_space_group_name_H-M   'P 21/c'
_symmetry_Int_Tables_number      14
_space_group_name_Hall           '-P 2ybc'
loop_
_symmetry_equiv_pos_site_id
_symmetry_equiv_pos_as_xyz
1 x,y,z
2 -x,1/2+y,1/2-z
3 -x,-y,-z
4 x,1/2-y,1/2+z
_cell_length_a                   15.870(3)
_cell_length_b                   5.7256(11)
_cell_length_c                   19.944(4)
_cell_angle_alpha                90
_cell_angle_beta                 111.95(3)
_cell_angle_gamma                90
_cell_volume                     1680.85
_cell_formula_units_Z            4
loop_
_atom_site_label
_atom_site_type_symbol
_atom_site_fract_x
_atom_site_fract_y
_atom_site_fract_z
O1 O 0.20899(9) 0.0464(3) 0.06051(7)
O2 O 0.02428(10) -0.0006(3) 0.15614(9)
O3 O -0.03955(13) -0.2972(3) 0.08549(11)
C1 C 0.21514(16) 0.3965(5) 0.17707(13)
H1 H 0.2587 0.4267 0.1574
C2 C 0.21082(18) 0.5328(5) 0.23224(14)
H2 H 0.2512 0.6564 0.2494
C3 C 0.14699(17) 0.4883(5) 0.26260(14)
H3 H 0.1457 0.5803 0.3006
C4 C 0.08561(16) 0.3098(5) 0.23703(13)
H4 H 0.0425 0.2808 0.2573
C5 C 0.08862(14) 0.1737(4) 0.18074(11)
C6 C 0.15415(13) 0.2125(4) 0.15060(11)
C7 C 0.14980(13) 0.0521(4) 0.09514(11)
C8 C 0.08850(14) -0.1223(4) 0.07138(11)
C9 C 0.01973(16) -0.1541(4) 0.10170(13)
C10 C 0.10922(14) -0.2490(4) 0.01799(12)
H5 H 0.0786 -0.3783 -0.0081
C11 C 0.18271(13) -0.1419(4) 0.01316(11)
C12 C 0.23968(13) -0.1905(4) -0.02835(10)
C13 C 0.30817(14) -0.0394(4) -0.02747(12)
H6 H 0.3170 0.0997 -0.0017
C14 C 0.36343(15) -0.0946(4) -0.06482(13)
H7 H 0.4091 0.0090 -0.0637
C15 C 0.35268(13) -0.2984(4) -0.10365(11)
C16 C 0.28274(15) -0.4466(4) -0.10581(12)
H8 H 0.2732 -0.5837 -0.1326
C17 C 0.22649(14) -0.3941(4) -0.06867(12)
H9 H 0.1798 -0.4958 -0.0709
C18 C 0.41620(15) -0.3603(5) -0.14197(12)
H10 H 0.3887 -0.4826 -0.1770
H11 H 0.4241 -0.2244 -0.1681
C19 C 0.50805(16) -0.4418(6) -0.09053(14)
H12 H 0.4998 -0.5798 -0.0655
H13 H 0.5342 -0.3211 -0.0546
C20 C 0.57488(19) -0.4989(6) -0.12646(16)
H14 H 0.5748 -0.3713 -0.1585
H15 H 0.6354 -0.5083 -0.0894
C21 C 0.5562(3) -0.7154(8) -0.1678(2)
H16 H 0.5542 -0.8427 -0.1371
H17 H 0.6034 -0.7431 -0.1861
H18 H 0.4988 -0.7031 -0.2075
loop_
_geom_bond_atom_site_label_1
_geom_bond_atom_site_label_2
_geom_bond_site_symmetry_1
_geom_bond_site_symmetry_2
O1 C7 1_555 1_555
O2 C5 1_555 1_555
O3 C9 1_555 1_555
C1 H1 1_555 1_555
C2 C1 1_555 1_555
H2 C2 1_555 1_555
C3 C2 1_555 1_555
H3 C3 1_555 1_555
C4 C3 1_555 1_555
H4 C4 1_555 1_555
C5 C4 1_555 1_555
C6 C1 1_555 1_555
C7 C6 1_555 1_555
C8 C7 1_555 1_555
C9 O2 1_555 1_555
C10 C8 1_555 1_555
H5 C10 1_555 1_555
C11 O1 1_555 1_555
C12 C11 1_555 1_555
C13 C12 1_555 1_555
H6 C13 1_555 1_555
C14 C13 1_555 1_555
H7 C14 1_555 1_555
C15 C14 1_555 1_555
C16 C15 1_555 1_555
H8 C16 1_555 1_555
C17 C12 1_555 1_555
H9 C17 1_555 1_555
C18 C15 1_555 1_555
H10 C18 1_555 1_555
H11 C18 1_555 1_555
C19 C18 1_555 1_555
H12 C19 1_555 1_555
H13 C19 1_555 1_555
C20 C19 1_555 1_555
H14 C20 1_555 1_555
H15 C20 1_555 1_555
C21 C20 1_555 1_555
H16 C21 1_555 1_555
H17 C21 1_555 1_555
H18 C21 1_555 1_555
C5 C6 1_555 1_555
C8 C9 1_555 1_555
C10 C11 1_555 1_555
C16 C17 1_555 1_555

#END
