
#######################################################################
#
#                 Cambridge Crystallographic Data Centre
#                                CCDC 
#
#######################################################################
#
# If this CIF has been generated from an entry in the Cambridge 
# Structural Database, then it will include bibliographic, chemical, 
# crystal, experimental, refinement or atomic coordinate data resulting 
# from the CCDC's data processing and validation procedures.
#
#######################################################################

data_BEDCEV
_chemical_formula_moiety         'C16 H10 N2 O9,2(C10 H8 N2)'
_chemical_name_systematic        
"5-[(3,5-dicarboxyphenyl)-NNO-azoxy]benzene-1,3-dicarboxylic acid bis(4,4'-bipyridine)"
_symmetry_cell_setting           monoclinic
_symmetry_space_group_name_H-M   'C 2/c'
_symmetry_Int_Tables_number      15
_space_group_name_Hall           '-C 2yn'
loop_
_symmetry_equiv_pos_site_id
_symmetry_equiv_pos_as_xyz
1 x,y,z
2 -x,y,1/2-z
3 1/2+x,1/2+y,z
4 1/2-x,1/2+y,1/2-z
5 -x,-y,-z
6 x,-y,1/2+z
7 1/2-x,1/2-y,-z
8 1/2+x,1/2-y,1/2+z
_cell_length_a                   18.4533(16)
_cell_length_b                   10.2424(7)
_cell_length_c                   19.9492(19)
_cell_angle_alpha                90
_cell_angle_beta                 122.468(12)
_cell_angle_gamma                90
_cell_volume                     3181.16
_exptl_crystal_colour            yellow
_exptl_crystal_description       plate
_cell_formula_units_Z            4
loop_
_atom_site_label
_atom_site_type_symbol
_atom_site_fract_x
_atom_site_fract_y
_atom_site_fract_z
N3 N 0.2172(2) 1.4375(5) 0.3478(3)
N4 N 0.1008(2) 0.8217(4) 0.1660(3)
C9 C 0.1431(3) 0.8338(5) 0.2438(3)
H6 H 0.1641 0.7585 0.2745
C10 C 0.1577(2) 0.9499(5) 0.2817(3)
H7 H 0.1877 0.9521 0.3369
C11 C 0.1283(2) 1.0656(5) 0.2389(2)
C12 C 0.0801(3) 1.0530(5) 0.1572(3)
H8 H 0.0558 1.1263 0.1252
C13 C 0.0682(3) 0.9298(6) 0.1231(3)
H9 H 0.0360 0.9229 0.0680
C14 C 0.1885(3) 1.4184(6) 0.2733(4)
H10 H 0.1880 1.4879 0.2431
C15 C 0.1595(3) 1.3006(5) 0.2383(3)
H11 H 0.1418 1.2910 0.1852
C16 C 0.1551(2) 1.1936(5) 0.2786(3)
C17 C 0.1806(3) 1.2131(6) 0.3571(3)
H12 H 0.1767 1.1466 0.3868
C18 C 0.2141(3) 1.3431(7) 0.3920(3)
H13 H 0.2330 1.3591 0.4448
O1 O 0.2915(2) 0.6674(3) 0.4112(2)
H1 H 0.2640 0.5996 0.3935
O2 O 0.3251(2) 0.5761(5) 0.5244(2)
O3 O 0.38531(18) 1.1088(3) 0.40223(18)
H2 H 0.3995 1.1684 0.3842
O4 O 0.4514(2) 1.2299(4) 0.5111(2)
O5 O 0.5000 1.0956(5) 0.7500
N1 N 0.5119(10) 0.8730(7) 0.7697(5)
N2 N 0.4910(7) 0.9709(8) 0.7266(4)
C1 C 0.4176(3) 1.1287(6) 0.4774(3)
C2 C 0.4121(2) 1.0131(5) 0.5207(2)
C3 C 0.4495(2) 1.0239(6) 0.6016(3)
H3 H 0.4754 1.1019 0.6270
C4 C 0.3726(2) 0.9002(5) 0.4824(2)
H4 H 0.3469 0.8937 0.4277
C5 C 0.3709(2) 0.7946(5) 0.5252(2)
C6 C 0.3284(3) 0.6699(6) 0.4881(3)
C7 C 0.4104(3) 0.8065(6) 0.6071(3)
H5 H 0.4108 0.7361 0.6367
C8 C 0.4488(3) 0.9224(8) 0.6444(3)
O1A O 0.7085(2) 0.6674(3) 1.0888(2)
H1A H 0.7360 0.5996 1.1065
O2A O 0.6749(2) 0.5761(5) 0.9756(2)
O3A O 0.61469(18) 1.1088(3) 1.09777(18)
H2A H 0.6005 1.1684 1.1158
O4A O 0.5486(2) 1.2299(4) 0.9889(2)
N1A N 0.4881(10) 0.8730(7) 0.7303(5)
N2A N 0.5090(7) 0.9709(8) 0.7734(4)
C1A C 0.5824(3) 1.1287(6) 1.0226(3)
C2A C 0.5879(2) 1.0131(5) 0.9793(2)
C3A C 0.5505(2) 1.0239(6) 0.8984(3)
H3A H 0.5246 1.1019 0.8730
C4A C 0.6274(2) 0.9002(5) 1.0176(2)
H4A H 0.6531 0.8937 1.0723
C5A C 0.6291(2) 0.7946(5) 0.9748(2)
C6A C 0.6716(3) 0.6699(6) 1.0119(3)
C7A C 0.5896(3) 0.8065(6) 0.8929(3)
H5A H 0.5892 0.7361 0.8633
C8A C 0.5512(3) 0.9224(8) 0.8556(3)
loop_
_geom_bond_atom_site_label_1
_geom_bond_atom_site_label_2
_geom_bond_site_symmetry_1
_geom_bond_site_symmetry_2
O1 H1 1_555 1_555
O2 C6 1_555 1_555
O3 H2 1_555 1_555
O4 C1 1_555 1_555
O5 N2 1_555 1_555
N1 N1A 1_555 1_555
N2 C8 1_555 1_555
C1 O3 1_555 1_555
C2 C1 1_555 1_555
C3 C2 1_555 1_555
H3 C3 1_555 1_555
C4 C2 1_555 1_555
H4 C4 1_555 1_555
C5 C4 1_555 1_555
C6 O1 1_555 1_555
C7 C5 1_555 1_555
H5 C7 1_555 1_555
C8 C3 1_555 1_555
N3 C14 1_555 1_555
N4 C9 1_555 1_555
C9 H6 1_555 1_555
C10 C9 1_555 1_555
H7 C10 1_555 1_555
C11 C10 1_555 1_555
C12 C11 1_555 1_555
H8 C12 1_555 1_555
C13 N4 1_555 1_555
H9 C13 1_555 1_555
C14 H10 1_555 1_555
C15 C14 1_555 1_555
H11 C15 1_555 1_555
C16 C11 1_555 1_555
C17 C16 1_555 1_555
H12 C17 1_555 1_555
C18 N3 1_555 1_555
H13 C18 1_555 1_555
O1A H1A 1_555 1_555
O2A C6A 1_555 1_555
O3A H2A 1_555 1_555
O4A C1A 1_555 1_555
N1A C8 1_555 1_555
N2A O5 1_555 1_555
C1A O3A 1_555 1_555
C2A C1A 1_555 1_555
C3A C2A 1_555 1_555
H3A C3A 1_555 1_555
C4A C2A 1_555 1_555
H4A C4A 1_555 1_555
C5A C4A 1_555 1_555
C6A O1A 1_555 1_555
C7A C5A 1_555 1_555
H5A C7A 1_555 1_555
C8A N1 1_555 1_555
N2 N2A 1_555 1_555
C5 C6 1_555 1_555
C7 C8 1_555 1_555
C12 C13 1_555 1_555
C15 C16 1_555 1_555
C17 C18 1_555 1_555
N2A C8A 1_555 1_555
C3A C8A 1_555 1_555
C5A C6A 1_555 1_555
C7A C8A 1_555 1_555

#END
