
#######################################################################
#
#                 Cambridge Crystallographic Data Centre
#                                CCDC 
#
#######################################################################
#
# If this CIF has been generated from an entry in the Cambridge 
# Structural Database, then it will include bibliographic, chemical, 
# crystal, experimental, refinement or atomic coordinate data resulting 
# from the CCDC's data processing and validation procedures.
#
#######################################################################

data_BEDDUJ
_chemical_compound_source        'Hypocrella bambusae'
_chemical_formula_moiety         'C30 H26 O10,0.5(C3 H6 O1)'
_chemical_name_systematic        'Hypocrellin acetone solvate'
_symmetry_cell_setting           orthorhombic
_symmetry_space_group_name_H-M   'P 21 21 21'
_symmetry_Int_Tables_number      19
_space_group_name_Hall           'P 2ac 2ab'
loop_
_symmetry_equiv_pos_site_id
_symmetry_equiv_pos_as_xyz
1 x,y,z
2 1/2+x,1/2-y,-z
3 -x,1/2+y,1/2-z
4 1/2-x,-y,1/2+z
_cell_length_a                   13.254(2)
_cell_length_b                   17.064(9)
_cell_length_c                   23.971(4)
_cell_angle_alpha                90
_cell_angle_beta                 90
_cell_angle_gamma                90
_cell_volume                     5421.43
_exptl_crystal_colour            'dark red'
_chemical_melting_point          209-210deg.C
_cell_formula_units_Z            8
loop_
_atom_site_label
_atom_site_type_symbol
_atom_site_fract_x
_atom_site_fract_y
_atom_site_fract_z
C1 C 0.76954 -0.10600 0.56031
C2 C 0.75814 -0.18454 0.56253
C3 C 0.70606 -0.22302 0.51873
C4 C 0.66679 -0.18078 0.47322
C5 C 0.62376 -0.22177 0.42876
C6 C 0.58010 -0.17867 0.38257
C7 C 0.58440 -0.09880 0.38200
C8 C 0.63960 -0.05752 0.42372
C9 C 0.67265 -0.09830 0.47183
C10 C 0.71026 -0.05749 0.51875
C11 C 0.69834 0.07286 0.57221
C12 C 0.70056 0.14989 0.56941
C13 C 0.70334 0.19223 0.51823
C14 C 0.69212 0.14892 0.46800
C15 C 0.69300 0.18901 0.41677
C16 C 0.68543 0.14406 0.36609
C17 C 0.67212 0.06575 0.36728
C18 C 0.66486 0.02279 0.41914
C19 C 0.68501 0.06635 0.47023
C20 C 0.69860 0.02390 0.51981
O1 O 0.82782 -0.06157 0.59310
C21 C 0.87546 -0.10700 0.63962
O2 O 0.70145 -0.30003 0.51930
O3 O 0.60990 -0.29862 0.42806
O4 O 0.52402 -0.21867 0.34430
C22 C 0.58568 -0.25762 0.30461
O5 O 0.68333 0.03070 0.61839
C23 C 0.68479 0.07990 0.66928
O6 O 0.70764 0.26839 0.51757
O7 O 0.70336 0.26418 0.41425
O8 O 0.70533 0.17805 0.31564
C24 C 0.64696 0.24843 0.29914
C25 C 0.57188 -0.00878 0.29339
C26 C 0.51691 -0.04971 0.34278
C27 C 0.67598 0.01813 0.31322
C28 C 0.42142 -0.09380 0.32308
C29 C 0.34853 -0.11758 0.36954
O9 O 0.40371 -0.10497 0.27412
O10 O 0.59767 -0.06417 0.24962
C30 C 0.50764 0.05818 0.27339
H1 H 0.80820 -0.23380 0.57950
H2 H 0.70300 0.18480 0.60100
H3 H 0.64760 -0.32980 0.46830
H4 H 0.70740 0.29920 0.45850
H5 H 0.47640 -0.01160 0.37110
H6 H 0.55500 -0.07050 0.23530
H7 H 0.70430 0.05880 0.27980
H8 H 0.72830 -0.02820 0.32470
H9 H 0.90190 -0.09610 0.62040
H10 H 0.85190 -0.15870 0.65570
H11 H 0.89990 -0.04570 0.65270
H12 H 0.54220 -0.30040 0.28580
H13 H 0.60000 -0.24890 0.28060
H14 H 0.65410 -0.27300 0.31480
H15 H 0.72120 0.05020 0.70980
H16 H 0.76650 0.10010 0.66960
H17 H 0.69030 0.30500 0.31980
H18 H 0.60000 0.30370 0.29120
H19 H 0.28030 -0.08820 0.35860
H20 H 0.28220 -0.14190 0.34200
H21 H 0.40680 -0.13110 0.39470
H22 H 0.45890 0.03860 0.25480
H23 H 0.52580 0.08880 0.25750
H24 H 0.51400 0.10140 0.31510
C31 C 0.83224 0.42366 0.33785
C32 C 0.82255 0.42237 0.28095
C33 C 0.86623 0.35962 0.25086
C34 C 0.91362 0.29646 0.28076
C35 C 0.94901 0.23012 0.25255
C36 C 1.00161 0.17128 0.28116
C37 C 1.01792 0.17668 0.33779
C38 C 0.96734 0.23640 0.36805
C39 C 0.92294 0.30137 0.33952
C40 C 0.89160 0.36932 0.36930
C41 C 0.92245 0.44949 0.45529
C42 C 0.91724 0.45140 0.51133
C43 C 0.92468 0.38223 0.54331
C44 C 0.94000 0.30874 0.51498
C45 C 0.94764 0.23909 0.54429
C46 C 0.95855 0.16687 0.51621
C47 C 0.96315 0.16225 0.45954
C48 C 0.95763 0.23489 0.42733
C49 C 0.94099 0.30592 0.45630
C50 C 0.91720 0.37657 0.42502
O11 O 0.77928 0.47378 0.36958
C51 C 0.72962 0.54519 0.34427
O12 O 0.86195 0.35736 0.19749
O13 O 0.93727 0.22512 0.19811
O14 O 1.04871 0.11286 0.25124
C52 C 0.97824 0.05066 0.22688
O15 O 0.93480 0.51150 0.42158
C53 C 0.91721 0.58976 0.45055
O16 O 0.91827 0.38285 0.59616
O17 O 0.93984 0.23855 0.60032
O18 O 0.95311 0.09644 0.54490
C54 C 1.02663 0.08076 0.58810
C55 C 1.05491 0.05744 0.40081
C56 C 1.09861 0.12745 0.36782
C57 C 0.95400 0.08538 0.42963
C58 C 1.18571 0.10623 0.32978
C59 C 1.24200 0.17091 0.30257
O19 O 1.21691 0.03971 0.32514
O20 O 1.02388 -0.00638 0.36528
C60 C 1.12967 0.02470 0.44184
H25 H 0.77790 0.47270 0.26100
H26 H 0.94320 0.49230 0.53880
H27 H 0.92660 0.30160 0.62230
H28 H 1.12900 0.16610 0.40390
H29 H 0.90240 0.28160 0.17340
H30 H 1.03540 0.00970 0.33850
H31 H 0.91820 0.09660 0.40170
H32 H 0.95000 0.07960 0.17910
H33 H 0.95000 0.60340 0.48800
H34 H 0.95000 0.59720 0.41740
H35 H 1.09430 0.05350 0.57810
H36 H 1.03140 0.12890 0.61990
H37 H 1.29540 0.21910 0.30870
H38 H 1.22500 0.22530 0.32020
H39 H 1.24860 0.15210 0.26210
H40 H 1.15230 0.06340 0.46770
H41 H 1.10660 0.02070 0.46960
H42 H 1.20780 0.03710 0.42800
O21 O 0.82946 -0.27066 0.37179
C61 C 0.87414 -0.20685 0.37473
C62 C 0.93486 -0.18321 0.42065
C63 C 0.86737 -0.15067 0.32943
H43 H 1.01280 -0.16140 0.41490
H44 H 0.91060 -0.19000 0.46130
H45 H 1.00070 -0.22680 0.42990
H46 H 0.92430 -0.09480 0.33010
H47 H 0.79970 -0.14690 0.29180
loop_
_geom_bond_atom_site_label_1
_geom_bond_atom_site_label_2
_geom_bond_site_symmetry_1
_geom_bond_site_symmetry_2
C1 C2 1_555 1_555
C2 C3 1_555 1_555
C3 C4 1_555 1_555
C4 C5 1_555 1_555
C5 C6 1_555 1_555
C6 C7 1_555 1_555
C7 C8 1_555 1_555
C8 C9 1_555 1_555
C9 C4 1_555 1_555
C10 C1 1_555 1_555
C11 C12 1_555 1_555
C12 C13 1_555 1_555
C13 C14 1_555 1_555
C14 C15 1_555 1_555
C15 C16 1_555 1_555
C16 C17 1_555 1_555
C17 C18 1_555 1_555
C18 C8 1_555 1_555
C19 C14 1_555 1_555
C20 C10 1_555 1_555
O1 C1 1_555 1_555
C21 O1 1_555 1_555
O2 C3 1_555 1_555
O3 C5 1_555 1_555
O4 C6 1_555 1_555
C22 O4 1_555 1_555
O5 C11 1_555 1_555
C23 O5 1_555 1_555
O6 C13 1_555 1_555
O7 C15 1_555 1_555
O8 C16 1_555 1_555
C24 O8 1_555 1_555
C25 C26 1_555 1_555
C26 C7 1_555 1_555
C27 C17 1_555 1_555
C28 C26 1_555 1_555
C29 C28 1_555 1_555
O9 C28 1_555 1_555
O10 C25 1_555 1_555
C30 C25 1_555 1_555
H1 C2 1_555 1_555
H2 C12 1_555 1_555
H3 O3 1_555 1_555
H4 O7 1_555 1_555
H5 C26 1_555 1_555
H6 O10 1_555 1_555
H7 C27 1_555 1_555
H8 C27 1_555 1_555
H9 C21 1_555 1_555
H10 C21 1_555 1_555
H11 C21 1_555 1_555
H12 C22 1_555 1_555
H13 C22 1_555 1_555
H14 C22 1_555 1_555
H15 C23 1_555 1_555
H16 C23 1_555 1_555
H17 C24 1_555 1_555
H18 C24 1_555 1_555
H19 C29 1_555 1_555
H20 C29 1_555 1_555
H21 C29 1_555 1_555
H22 C30 1_555 1_555
H23 C30 1_555 1_555
H24 C30 1_555 1_555
C31 C32 1_555 1_555
C32 C33 1_555 1_555
C33 C34 1_555 1_555
C34 C35 1_555 1_555
C35 C36 1_555 1_555
C36 C37 1_555 1_555
C37 C38 1_555 1_555
C38 C39 1_555 1_555
C39 C34 1_555 1_555
C40 C31 1_555 1_555
C41 C42 1_555 1_555
C42 C43 1_555 1_555
C43 C44 1_555 1_555
C44 C45 1_555 1_555
C45 C46 1_555 1_555
C46 C47 1_555 1_555
C47 C48 1_555 1_555
C48 C38 1_555 1_555
C49 C44 1_555 1_555
C50 C40 1_555 1_555
O11 C31 1_555 1_555
C51 O11 1_555 1_555
O12 C33 1_555 1_555
O13 C35 1_555 1_555
O14 C36 1_555 1_555
C52 O14 1_555 1_555
O15 C41 1_555 1_555
C53 O15 1_555 1_555
O16 C43 1_555 1_555
O17 C45 1_555 1_555
O18 C46 1_555 1_555
C54 O18 1_555 1_555
C55 C56 1_555 1_555
C56 C37 1_555 1_555
C57 C47 1_555 1_555
C58 C56 1_555 1_555
C59 C58 1_555 1_555
O19 C58 1_555 1_555
O20 C55 1_555 1_555
C60 C55 1_555 1_555
H25 C32 1_555 1_555
H26 C42 1_555 1_555
H27 O17 1_555 1_555
H28 C56 1_555 1_555
H29 O13 1_555 1_555
H30 O20 1_555 1_555
H31 C57 1_555 1_555
H32 C52 1_555 1_555
H33 C53 1_555 1_555
H34 C53 1_555 1_555
H35 C54 1_555 1_555
H36 C54 1_555 1_555
H37 C59 1_555 1_555
H38 C59 1_555 1_555
H39 C59 1_555 1_555
H40 C60 1_555 1_555
H41 C60 1_555 1_555
H42 C60 1_555 1_555
O21 C61 1_555 1_555
C61 C62 1_555 1_555
C62 H43 1_555 1_555
C63 C61 1_555 1_555
H44 C62 1_555 1_555
H45 C62 1_555 1_555
H46 C63 1_555 1_555
H47 C63 1_555 1_555
C9 C10 1_555 1_555
C11 C20 1_555 1_555
C18 C19 1_555 1_555
C19 C20 1_555 1_555
C25 C27 1_555 1_555
C39 C40 1_555 1_555
C41 C50 1_555 1_555
C48 C49 1_555 1_555
C49 C50 1_555 1_555
C55 C57 1_555 1_555

#END
