
#######################################################################
#
#                 Cambridge Crystallographic Data Centre
#                                CCDC 
#
#######################################################################
#
# If this CIF has been generated from an entry in the Cambridge 
# Structural Database, then it will include bibliographic, chemical, 
# crystal, experimental, refinement or atomic coordinate data resulting 
# from the CCDC's data processing and validation procedures.
#
#######################################################################

data_BEDDEW
_chemical_name_common            'hydrogen diphenhydramine saccharinate'
_chemical_formula_moiety         'C17 H22 N1 O1 1+,C7 H4 N1 O3 S1 1-'
_chemical_name_systematic        
'2-(diphenylmethoxy)-N,N-dimethylethan-1-aminium 1,1,3-trioxo-1,3-dihydro-1,2-benzothiazol-2-ide'
_chemical_properties_biological  
'Diphenhydramine is a first-generation H-receptor antagonist.'
_symmetry_cell_setting           monoclinic
_symmetry_space_group_name_H-M   'P 21/c'
_symmetry_Int_Tables_number      14
_space_group_name_Hall           '-P 2ybc'
loop_
_symmetry_equiv_pos_site_id
_symmetry_equiv_pos_as_xyz
1 x,y,z
2 -x,1/2+y,1/2-z
3 -x,-y,-z
4 x,1/2-y,1/2+z
_cell_length_a                   13.013(2)
_cell_length_b                   9.0999(15)
_cell_length_c                   18.663(4)
_cell_angle_alpha                90
_cell_angle_beta                 91.848(11)
_cell_angle_gamma                90
_cell_volume                     2208.87
_exptl_crystal_colour            colorless
_exptl_crystal_description       block
_cell_formula_units_Z            4
_exptl_crystal_recrystallization_method water
loop_
_atom_site_label
_atom_site_type_symbol
_atom_site_fract_x
_atom_site_fract_y
_atom_site_fract_z
S1 S 0.68469(2) 0.17668(3) 0.16380(2)
N1 N 0.62876(6) 0.32515(10) 0.13479(5)
O1 O 0.66576(6) 0.51681(8) 0.05943(4)
O2 O 0.69950(7) 0.17973(10) 0.24092(4)
O3 O 0.63372(7) 0.04779(10) 0.13481(6)
C1 C 0.80289(7) 0.20193(10) 0.12177(5)
C2 C 0.89171(8) 0.11839(11) 0.12503(5)
H1 H 0.8972 0.0329 0.1541
C3 C 0.97280(8) 0.16553(12) 0.08367(6)
H2 H 1.0353 0.1115 0.0845
C4 C 0.96321(8) 0.29125(12) 0.04111(6)
H3 H 1.0190 0.3204 0.0127
C5 C 0.87339(8) 0.37490(11) 0.03951(5)
H4 H 0.8675 0.4611 0.0109
C6 C 0.79276(7) 0.32849(10) 0.08095(5)
C7 C 0.68973(7) 0.39921(10) 0.09045(5)
O4 O 0.67678(5) 0.67382(8) 0.21510(4)
N2 N 0.50560(6) 0.67739(9) 0.10731(4)
H5 H 0.5729 0.6276 0.1000
C8 C 0.92105(9) 0.47486(13) 0.22906(5)
H6 H 0.9046 0.3921 0.2575
C9 C 1.01760(9) 0.48506(14) 0.19947(6)
H7 H 1.0668 0.4094 0.2079
C10 C 1.04226(9) 0.60547(14) 0.15762(6)
H8 H 1.1084 0.6127 0.1378
C11 C 0.96981(9) 0.71519(13) 0.14488(6)
H9 H 0.9864 0.7973 0.1160
C12 C 0.87278(8) 0.70527(12) 0.17429(5)
H10 H 0.8233 0.7803 0.1651
C13 C 0.84832(7) 0.58554(11) 0.21708(5)
C14 C 0.74391(7) 0.57187(11) 0.25075(5)
H11 H 0.7171 0.4703 0.2418
C15 C 0.75074(7) 0.59832(11) 0.33142(5)
C16 C 0.74724(8) 0.73977(13) 0.35959(6)
H12 H 0.7419 0.8221 0.3284
C17 C 0.75166(8) 0.76042(16) 0.43371(6)
H13 H 0.7479 0.8569 0.4529
C18 C 0.76148(9) 0.64075(19) 0.47959(6)
H14 H 0.7645 0.6554 0.5300
C19 C 0.76680(9) 0.49999(17) 0.45169(6)
H15 H 0.7748 0.4181 0.4829
C20 C 0.76035(8) 0.47862(13) 0.37771(6)
H16 H 0.7625 0.3818 0.3587
C21 C 0.57187(8) 0.66144(12) 0.23382(5)
H17 H 0.5620 0.6996 0.2828
H18 H 0.5493 0.5576 0.2319
C22 C 0.51211(7) 0.75232(11) 0.17913(5)
H19 H 0.4418 0.7695 0.1961
H20 H 0.5459 0.8491 0.1741
C23 C 0.48927(9) 0.78623(13) 0.04810(6)
H21 H 0.4875 0.7349 0.0019
H22 H 0.5457 0.8576 0.0493
H23 H 0.4239 0.8376 0.0542
C24 C 0.42409(8) 0.56223(13) 0.10499(6)
H24 H 0.3575 0.6072 0.1146
H25 H 0.4402 0.4873 0.1414
H26 H 0.4210 0.5165 0.0574
loop_
_geom_bond_atom_site_label_1
_geom_bond_atom_site_label_2
_geom_bond_site_symmetry_1
_geom_bond_site_symmetry_2
S1 N1 1_555 1_555
N1 C7 1_555 1_555
O1 C7 1_555 1_555
O2 S1 1_555 1_555
O3 S1 1_555 1_555
C1 S1 1_555 1_555
C2 C1 1_555 1_555
H1 C2 1_555 1_555
C3 C2 1_555 1_555
H2 C3 1_555 1_555
C4 C3 1_555 1_555
H3 C4 1_555 1_555
C5 C4 1_555 1_555
H4 C5 1_555 1_555
C6 C1 1_555 1_555
C7 C6 1_555 1_555
O4 C14 1_555 1_555
N2 H5 1_555 1_555
C8 H6 1_555 1_555
C9 C8 1_555 1_555
H7 C9 1_555 1_555
C10 C9 1_555 1_555
H8 C10 1_555 1_555
C11 C10 1_555 1_555
H9 C11 1_555 1_555
C12 C11 1_555 1_555
H10 C12 1_555 1_555
C13 C8 1_555 1_555
C14 C13 1_555 1_555
H11 C14 1_555 1_555
C15 C14 1_555 1_555
C16 C15 1_555 1_555
H12 C16 1_555 1_555
C17 C16 1_555 1_555
H13 C17 1_555 1_555
C18 C17 1_555 1_555
H14 C18 1_555 1_555
C19 C18 1_555 1_555
H15 C19 1_555 1_555
C20 C15 1_555 1_555
H16 C20 1_555 1_555
C21 O4 1_555 1_555
H17 C21 1_555 1_555
H18 C21 1_555 1_555
C22 N2 1_555 1_555
H19 C22 1_555 1_555
H20 C22 1_555 1_555
C23 N2 1_555 1_555
H21 C23 1_555 1_555
H22 C23 1_555 1_555
H23 C23 1_555 1_555
C24 N2 1_555 1_555
H24 C24 1_555 1_555
H25 C24 1_555 1_555
H26 C24 1_555 1_555
C5 C6 1_555 1_555
C12 C13 1_555 1_555
C19 C20 1_555 1_555
C21 C22 1_555 1_555

#END
