
#######################################################################
#
#                 Cambridge Crystallographic Data Centre
#                                CCDC 
#
#######################################################################
#
# If this CIF has been generated from an entry in the Cambridge 
# Structural Database, then it will include bibliographic, chemical, 
# crystal, experimental, refinement or atomic coordinate data resulting 
# from the CCDC's data processing and validation procedures.
#
#######################################################################

data_BEDDIZ
_chemical_formula_moiety         'C22 H27 N1 O2'
_chemical_name_systematic        
'Ethyl 1-(2,2-dimethyl-1-phenylpropyl)-3-phenylaziridine-2-carboxylate'
_symmetry_cell_setting           orthorhombic
_symmetry_space_group_name_H-M   'P 21 21 21'
_symmetry_Int_Tables_number      19
_space_group_name_Hall           'P 2ac 2ab'
loop_
_symmetry_equiv_pos_site_id
_symmetry_equiv_pos_as_xyz
1 x,y,z
2 1/2-x,-y,1/2+z
3 -x,1/2+y,1/2-z
4 1/2+x,1/2-y,-z
_cell_length_a                   6.0555(12)
_cell_length_b                   15.265(3)
_cell_length_c                   20.895(4)
_cell_angle_alpha                90
_cell_angle_beta                 90
_cell_angle_gamma                90
_cell_volume                     1931.48
_cell_formula_units_Z            4
loop_
_atom_site_label
_atom_site_type_symbol
_atom_site_fract_x
_atom_site_fract_y
_atom_site_fract_z
N1 N 0.89448(18) 0.43259(7) 0.18881(5)
C1 C 0.9686(2) 0.35576(8) 0.15342(6)
H1 H 1.055(3) 0.3123(11) 0.1766(7)
C2 C 1.0808(2) 0.44405(8) 0.14583(6)
H2 H 1.232(3) 0.4456(10) 0.1668(7)
C3 C 1.0595(2) 0.50161(8) 0.08838(6)
C4 C 1.2437(3) 0.51333(9) 0.04948(7)
H3 H 1.379(3) 0.4825(12) 0.0604(7)
C5 C 1.2306(3) 0.56719(11) -0.00437(7)
H4 H 1.363(4) 0.5739(13) -0.0308(9)
C6 C 1.0356(3) 0.60962(10) -0.01917(7)
H5 H 1.029(3) 0.6469(12) -0.0572(9)
C7 C 0.8521(3) 0.59872(11) 0.01990(8)
H6 H 0.721(3) 0.6299(14) 0.0129(9)
C8 C 0.8636(2) 0.54461(10) 0.07373(7)
H7 H 0.735(3) 0.5370(12) 0.1005(8)
C9 C 0.8119(2) 0.32061(9) 0.10430(6)
O1 O 0.64975(19) 0.35759(7) 0.08445(5)
O2 O 0.88039(18) 0.24159(6) 0.08477(5)
C10 C 0.7427(3) 0.19797(10) 0.03671(7)
H8 H 0.694(3) 0.2392(12) 0.0059(8)
H9 H 0.843(3) 0.1561(13) 0.0184(9)
C11 C 0.5496(3) 0.15275(10) 0.06721(8)
H10 H 0.459(3) 0.1240(14) 0.0338(10)
H11 H 0.456(3) 0.1958(13) 0.0874(9)
H12 H 0.596(3) 0.1111(13) 0.1011(9)
C12 C 0.9380(2) 0.43096(8) 0.25846(6)
H13 H 1.101(3) 0.4184(11) 0.2667(7)
C13 C 0.8799(2) 0.52281(8) 0.28709(6)
C14 C 0.9375(3) 0.52382(10) 0.35850(7)
H14 H 1.095(4) 0.5046(14) 0.3643(9)
H15 H 0.846(3) 0.4831(11) 0.3851(8)
H16 H 0.912(3) 0.5837(14) 0.3773(10)
C15 C 0.6335(3) 0.54283(9) 0.27853(7)
H17 H 0.603(3) 0.6029(12) 0.2951(8)
H18 H 0.586(3) 0.5393(12) 0.2325(8)
H19 H 0.540(3) 0.5020(12) 0.3058(9)
C16 C 1.0166(3) 0.59307(9) 0.25271(8)
H20 H 0.976(3) 0.6009(11) 0.2092(9)
H21 H 0.987(4) 0.6505(14) 0.2741(10)
H22 H 1.167(4) 0.5788(14) 0.2538(9)
C17 C 0.8108(2) 0.35588(8) 0.28852(6)
C18 C 0.8985(3) 0.31070(9) 0.34083(6)
H23 H 1.046(3) 0.3265(11) 0.3553(8)
C19 C 0.7815(3) 0.24243(10) 0.36939(8)
H24 H 0.851(3) 0.2131(12) 0.4042(8)
C20 C 0.5772(3) 0.21869(10) 0.34626(8)
H25 H 0.503(4) 0.1718(14) 0.3673(10)
C21 C 0.4881(3) 0.26207(10) 0.29424(8)
H26 H 0.342(4) 0.2461(16) 0.2748(10)
C22 C 0.6040(2) 0.33011(9) 0.26515(7)
H27 H 0.543(3) 0.3607(12) 0.2272(8)
loop_
_geom_bond_atom_site_label_1
_geom_bond_atom_site_label_2
_geom_bond_site_symmetry_1
_geom_bond_site_symmetry_2
N1 C1 1_555 1_555
C1 H1 1_555 1_555
C2 N1 1_555 1_555
H2 C2 1_555 1_555
C3 C2 1_555 1_555
C4 C3 1_555 1_555
H3 C4 1_555 1_555
C5 C4 1_555 1_555
H4 C5 1_555 1_555
C6 C5 1_555 1_555
H5 C6 1_555 1_555
C7 C6 1_555 1_555
H6 C7 1_555 1_555
C8 C3 1_555 1_555
H7 C8 1_555 1_555
C9 C1 1_555 1_555
O1 C9 1_555 1_555
O2 C9 1_555 1_555
C10 O2 1_555 1_555
H8 C10 1_555 1_555
H9 C10 1_555 1_555
C11 C10 1_555 1_555
H10 C11 1_555 1_555
H11 C11 1_555 1_555
H12 C11 1_555 1_555
C12 N1 1_555 1_555
H13 C12 1_555 1_555
C13 C12 1_555 1_555
C14 C13 1_555 1_555
H14 C14 1_555 1_555
H15 C14 1_555 1_555
H16 C14 1_555 1_555
C15 C13 1_555 1_555
H17 C15 1_555 1_555
H18 C15 1_555 1_555
H19 C15 1_555 1_555
C16 C13 1_555 1_555
H20 C16 1_555 1_555
H21 C16 1_555 1_555
H22 C16 1_555 1_555
C17 C12 1_555 1_555
C18 C17 1_555 1_555
H23 C18 1_555 1_555
C19 C18 1_555 1_555
H24 C19 1_555 1_555
C20 C19 1_555 1_555
H25 C20 1_555 1_555
C21 C20 1_555 1_555
H26 C21 1_555 1_555
C22 C17 1_555 1_555
H27 C22 1_555 1_555
C1 C2 1_555 1_555
C7 C8 1_555 1_555
C21 C22 1_555 1_555

#END
