
#######################################################################
#
#                 Cambridge Crystallographic Data Centre
#                                CCDC 
#
#######################################################################
#
# If this CIF has been generated from an entry in the Cambridge 
# Structural Database, then it will include bibliographic, chemical, 
# crystal, experimental, refinement or atomic coordinate data resulting 
# from the CCDC's data processing and validation procedures.
#
#######################################################################

data_BEDLAA
_chemical_formula_moiety         'C13 H9 Cl3 N2 O1'
_chemical_name_systematic        
2-((2-(2,4,6-trichlorophenyl)hydrazono)methyl)phenol
_symmetry_cell_setting           monoclinic
_symmetry_space_group_name_H-M   'P 21/n'
_symmetry_Int_Tables_number      14
_space_group_name_Hall           '-P 2yn'
loop_
_symmetry_equiv_pos_site_id
_symmetry_equiv_pos_as_xyz
1 x,y,z
2 1/2-x,1/2+y,1/2-z
3 -x,-y,-z
4 1/2+x,1/2-y,1/2+z
_cell_length_a                   7.4519(12)
_cell_length_b                   23.613(4)
_cell_length_c                   8.2333(13)
_cell_angle_alpha                90
_cell_angle_beta                 109.610(2)
_cell_angle_gamma                90
_cell_volume                     1364.72
_exptl_crystal_colour            'pale yellow'
_exptl_crystal_description       block
_cell_formula_units_Z            4
loop_
_atom_site_label
_atom_site_type_symbol
_atom_site_fract_x
_atom_site_fract_y
_atom_site_fract_z
O1 O 0.1524(3) 0.34031(7) 0.9819(2)
H1 H 0.102(4) 0.3064(7) 0.969(4)
Cl1 Cl 0.02841(11) 0.07542(2) 0.77421(8)
Cl2 Cl -0.05553(10) 0.24698(3) 1.17661(10)
Cl3 Cl 0.26503(14) 0.05249(3) 1.45896(9)
N1 N -0.0025(2) 0.24588(6) 0.8319(2)
N2 N -0.0739(3) 0.19235(7) 0.8355(3)
H2 H -0.118(3) 0.1748(9) 0.7394(19)
C1 C 0.0006(3) 0.35182(10) 0.5135(3)
H3 H -0.0603 0.3308 0.4148
C2 C 0.0596(4) 0.40599(10) 0.4966(4)
H4 H 0.0406 0.4211 0.3878
C3 C 0.1465(4) 0.43748(10) 0.6416(4)
H5 H 0.1854 0.4743 0.6309
C4 C 0.1766(4) 0.41515(9) 0.8022(4)
H6 H 0.2358 0.4369 0.8997
C5 C 0.1196(3) 0.36063(9) 0.8202(3)
C6 C 0.0296(3) 0.32755(8) 0.6743(3)
C7 C -0.0349(3) 0.27026(8) 0.6862(3)
H7 H -0.1013 0.2508 0.5858
C8 C 0.0023(3) 0.16015(8) 0.9838(3)
C9 C 0.0242(3) 0.18019(9) 1.1483(3)
C10 C 0.1068(3) 0.14765(10) 1.2945(3)
H8 H 0.1248 0.1626 1.4034
C11 C 0.1614(3) 0.09346(10) 1.2771(3)
C12 C 0.1341(3) 0.07042(9) 1.1175(3)
H9 H 0.1672 0.0330 1.1064
C13 C 0.0564(3) 0.10407(8) 0.9740(3)
loop_
_geom_bond_atom_site_label_1
_geom_bond_atom_site_label_2
_geom_bond_site_symmetry_1
_geom_bond_site_symmetry_2
O1 H1 1_555 1_555
Cl1 C13 1_555 1_555
Cl2 C9 1_555 1_555
Cl3 C11 1_555 1_555
N1 N2 1_555 1_555
N2 H2 1_555 1_555
C1 H3 1_555 1_555
C2 C1 1_555 1_555
H4 C2 1_555 1_555
C3 C2 1_555 1_555
H5 C3 1_555 1_555
C4 C3 1_555 1_555
H6 C4 1_555 1_555
C5 O1 1_555 1_555
C6 C1 1_555 1_555
C7 N1 1_555 1_555
H7 C7 1_555 1_555
C8 N2 1_555 1_555
C9 C8 1_555 1_555
C10 C9 1_555 1_555
H8 C10 1_555 1_555
C11 C10 1_555 1_555
C12 C11 1_555 1_555
H9 C12 1_555 1_555
C13 C8 1_555 1_555
C4 C5 1_555 1_555
C5 C6 1_555 1_555
C6 C7 1_555 1_555
C12 C13 1_555 1_555

#END
