
#######################################################################
#
#                 Cambridge Crystallographic Data Centre
#                                CCDC 
#
#######################################################################
#
# If this CIF has been generated from an entry in the Cambridge 
# Structural Database, then it will include bibliographic, chemical, 
# crystal, experimental, refinement or atomic coordinate data resulting 
# from the CCDC's data processing and validation procedures.
#
#######################################################################

data_BEDLON
_chemical_formula_moiety         'C24 H25 O7 P1'
_chemical_name_systematic        
'Trimethyl 5-(3,4-dimethyl-1-phenyl-1H-1\l^5^-phosphol-1-ylidene)-4-methoxycyclopenta-1,3-diene-1,2,3-tricarboxylate'
_symmetry_cell_setting           monoclinic
_symmetry_space_group_name_H-M   'P n'
_symmetry_Int_Tables_number      7
_space_group_name_Hall           'P -2yac'
loop_
_symmetry_equiv_pos_site_id
_symmetry_equiv_pos_as_xyz
1 x,y,z
2 1/2+x,-y,1/2+z
_cell_length_a                   9.862(2)
_cell_length_b                   13.629(3)
_cell_length_c                   35.393(7)
_cell_angle_alpha                90
_cell_angle_beta                 96.93(3)
_cell_angle_gamma                90
_cell_volume                     4722.39
_cell_formula_units_Z            8
loop_
_atom_site_label
_atom_site_type_symbol
_atom_site_fract_x
_atom_site_fract_y
_atom_site_fract_z
P1 P 0.49835(14) 1.03198(11) 0.31399(4)
O1 O 0.7207(5) 1.0475(4) 0.26396(14)
O4 O 0.4611(4) 0.8336(3) 0.36127(13)
C1 C 0.7040(6) 0.8982(4) 0.29664(16)
O6 O 0.8325(5) 0.6769(4) 0.27447(15)
C5 C 0.5866(6) 0.9218(4) 0.31604(16)
C6 C 0.7500(6) 0.8047(4) 0.30773(16)
C7 C 0.7503(6) 0.9616(4) 0.26835(17)
C8 C 0.4271(6) 1.0789(4) 0.26899(18)
H2 H 0.4769 1.0957 0.2492
C9 C 0.5628(6) 0.8384(4) 0.33764(17)
O7 O 0.8264(5) 0.9135(3) 0.24490(13)
C12 C 0.6606(6) 0.7667(4) 0.33337(17)
C13 C 0.5487(7) 1.2238(5) 0.3365(2)
H3 H 0.4727 1.2399 0.3195
C17 C 0.2943(6) 1.0863(4) 0.26779(17)
C19 C 0.5925(7) 1.1281(5) 0.34042(18)
C20 C 0.3358(6) 1.0209(5) 0.33024(19)
H4 H 0.3213 0.9971 0.3541
C25 C 0.6189(7) 1.2956(5) 0.3583(2)
H7 H 0.5881 1.3601 0.3561
O12 O 0.8047(5) 0.6404(4) 0.35663(16)
C27 C 0.8687(7) 0.7558(5) 0.29584(18)
C28 C 0.6779(7) 0.6747(5) 0.35481(19)
C29 C 0.2388(6) 1.0507(5) 0.30403(18)
O13 O 0.9853(6) 0.7814(4) 0.30381(16)
C34 C 0.3434(9) 0.7776(7) 0.3463(3)
H16 H 0.3097 0.8015 0.3214
H17 H 0.2736 0.7842 0.3628
H18 H 0.3682 0.7098 0.3447
C36 C 0.7317(8) 1.2745(6) 0.3827(2)
H20 H 0.7785 1.3242 0.3969
C37 C 0.7103(8) 1.1049(6) 0.3653(2)
H21 H 0.7425 1.0408 0.3673
C38 C 0.2025(8) 1.1293(6) 0.2356(2)
H22 H 0.2547 1.1455 0.2153
H23 H 0.1605 1.1875 0.2441
H24 H 0.1331 1.0825 0.2268
C40 C 0.8700(8) 0.9656(5) 0.2136(2)
H28 H 0.8008 0.9613 0.1921
H29 H 0.9533 0.9373 0.2071
H30 H 0.8851 1.0332 0.2205
O14 O 0.5883(6) 0.6309(4) 0.36809(18)
C43 C 0.7768(8) 1.1780(6) 0.3865(2)
H35 H 0.8531 1.1630 0.4036
C46 C 0.0885(8) 1.0506(6) 0.3069(2)
H42 H 0.0724 1.0242 0.3311
H43 H 0.0426 1.0110 0.2869
H44 H 0.0543 1.1166 0.3046
C47 C 0.8322(11) 0.5493(7) 0.3762(3)
H45 H 0.8110 0.5554 0.4019
H46 H 0.9270 0.5330 0.3765
H47 H 0.7771 0.4985 0.3634
C48 C 0.9454(12) 0.6217(9) 0.2607(3)
H48 H 1.0086 0.6667 0.2515
H49 H 0.9095 0.5786 0.2405
H50 H 0.9915 0.5838 0.2813
P2 P -0.08147(15) 0.39419(11) 0.13755(4)
O2 O 0.2292(4) 0.4644(3) 0.13405(13)
O3 O -0.1728(5) 0.3374(4) 0.20925(14)
O5 O -0.0426(5) 0.3341(4) 0.26563(15)
C2 C 0.0540(6) 0.3909(4) 0.21297(16)
C3 C 0.0551(6) 0.4116(5) 0.17368(17)
C4 C -0.2305(6) 0.4672(4) 0.13843(18)
H1 H -0.2869 0.4669 0.1577
C10 C -0.1286(6) 0.2655(4) 0.12992(17)
C11 C 0.1823(6) 0.4154(4) 0.23161(17)
O8 O 0.4792(6) 0.5075(4) 0.18813(16)
O9 O 0.2677(6) 0.3329(4) 0.28965(16)
C14 C 0.4068(7) 0.4798(5) 0.21221(19)
O10 O 0.4551(6) 0.4731(4) 0.24873(18)
C15 C 0.1861(6) 0.4466(4) 0.16816(18)
O11 O 0.2117(5) 0.4898(4) 0.29116(15)
C16 C -0.0633(6) 0.3518(5) 0.22836(18)
C18 C 0.2642(6) 0.4501(4) 0.20488(18)
C21 C 0.2261(6) 0.4075(5) 0.27312(18)
C22 C -0.0464(7) 0.4431(5) 0.09283(19)
H5 H 0.0267 0.4246 0.0801
C23 C -0.2487(7) 0.5227(5) 0.10699(19)
C24 C -0.2474(7) 0.2438(6) 0.1075(2)
H6 H -0.3041 0.2944 0.0975
C26 C -0.0396(7) 0.1933(5) 0.1447(2)
H8 H 0.0418 0.2094 0.1595
C30 C -0.1422(9) 0.5664(6) 0.0449(2)
H9 H -0.0779 0.5384 0.0297
H10 H -0.1176 0.6333 0.0509
H11 H -0.2321 0.5643 0.0311
C31 C -0.2838(9) 0.1485(6) 0.0995(3)
H12 H -0.3653 0.1329 0.0847
C32 C -0.3683(8) 0.5910(5) 0.0976(2)
H13 H -0.4215 0.5929 0.1186
H14 H -0.4240 0.5678 0.0753
H15 H -0.3355 0.6557 0.0930
C33 C -0.1406(7) 0.5103(5) 0.08020(18)
C35 C -0.0749(9) 0.0950(6) 0.1368(2)
H19 H -0.0174 0.0449 0.1468
C39 C 0.2473(9) 0.5662(6) 0.1249(2)
H25 H 0.1645 0.6015 0.1272
H26 H 0.2689 0.5715 0.0992
H27 H 0.3204 0.5934 0.1420
C41 C -0.1912(9) 0.0735(6) 0.1149(2)
H31 H -0.2127 0.0081 0.1095
C42 C -0.1529(9) 0.2890(7) 0.2821(3)
H32 H -0.2343 0.3274 0.2762
H33 H -0.1303 0.2853 0.3092
H34 H -0.1680 0.2241 0.2719
C44 C 0.2529(10) 0.4925(7) 0.3313(3)
H36 H 0.2218 0.4342 0.3428
H37 H 0.2138 0.5491 0.3420
H38 H 0.3507 0.4960 0.3360
C45 C 0.5924(10) 0.5034(7) 0.2600(3)
H39 H 0.6454 0.4937 0.2392
H40 H 0.6306 0.4653 0.2815
H41 H 0.5937 0.5716 0.2668
P3 P 0.36336(15) 0.93293(12) 0.14468(4)
O15 O 0.0525(5) 0.8624(3) 0.14952(13)
O16 O 0.4523(5) 0.9834(4) 0.07263(15)
C49 C 0.2264(7) 0.9292(5) 0.06921(19)
O17 O -0.1973(6) 0.8182(5) 0.09658(17)
O18 O 0.3198(6) 0.9904(4) 0.01708(16)
O19 O 0.0620(6) 0.8323(5) -0.00795(18)
C50 C 0.2266(6) 0.9108(4) 0.10990(17)
O20 O -0.1767(6) 0.8491(4) 0.03634(16)
C51 C -0.1294(7) 0.8437(5) 0.0725(2)
C52 C 0.4217(7) 0.8188(5) 0.2013(2)
C53 C 0.0975(6) 0.8778(5) 0.11448(18)
C54 C 0.3418(6) 0.9688(5) 0.05385(18)
C55 C 0.3159(7) 1.1316(5) 0.1326(2)
H51 H 0.2382 1.1125 0.1168
C56 C 0.3287(7) 0.8852(5) 0.18889(18)
H52 H 0.2557 0.9040 0.2016
C57 C 0.4033(6) 1.0600(5) 0.14998(17)
C58 C 0.5314(6) 0.8055(4) 0.17496(17)
C59 C 0.5123(7) 0.8598(5) 0.14389(19)
H53 H 0.5683 0.8599 0.1245
C60 C 0.0968(6) 0.9059(4) 0.05163(18)
C61 C 0.5214(7) 1.0889(5) 0.1742(2)
H54 H 0.5793 1.0422 0.1867
C62 C 0.0147(7) 0.8725(5) 0.07902(19)
C63 C 0.0500(8) 0.9168(6) 0.0101(2)
O21 O 0.0027(7) 0.9904(5) -0.00504(18)
C64 C 0.6469(9) 0.7336(6) 0.1848(2)
H55 H 0.7091 0.7373 0.1660
H56 H 0.6107 0.6684 0.1854
H57 H 0.6944 0.7496 0.2093
C65 C 0.4304(8) 0.7603(6) 0.2376(2)
H58 H 0.5004 0.7873 0.2559
H59 H 0.4520 0.6933 0.2325
H60 H 0.3443 0.7630 0.2477
C66 C 0.0344(10) 0.7608(7) 0.1592(3)
H61 H -0.0073 0.7261 0.1372
H62 H -0.0233 0.7566 0.1792
H63 H 0.1216 0.7321 0.1677
C67 C -0.3194(9) 0.8249(7) 0.0262(3)
H64 H -0.3347 0.7578 0.0329
H65 H -0.3435 0.8337 -0.0007
H66 H -0.3747 0.8671 0.0398
C68 C 0.3420(8) 1.2290(6) 0.1384(2)
H67 H 0.2825 1.2761 0.1269
C69 C 0.5490(9) 1.1870(6) 0.1791(2)
H68 H 0.6279 1.2076 0.1940
C70 C 0.4310(12) 1.0362(9) -0.0013(3)
H69 H 0.4732 1.0870 0.0148
H70 H 0.3942 1.0639 -0.0253
H71 H 0.4979 0.9874 -0.0054
C71 C 0.4568(9) 1.2559(7) 0.1612(3)
H72 H 0.4747 1.3224 0.1652
C72 C 0.0072(14) 0.8363(11) -0.0480(4)
H73 H -0.0827 0.8645 -0.0504
H74 H 0.0024 0.7712 -0.0584
H75 H 0.0656 0.8759 -0.0616
P4 P 0.28229(15) 0.70725(11) 0.46656(5)
O22 O -0.0458(5) 0.3559(4) 0.50981(14)
O23 O 0.3327(5) 0.5172(3) 0.41751(13)
O24 O 0.0613(5) 0.7083(4) 0.51688(15)
C73 C 0.2323(6) 0.5149(4) 0.44076(17)
C74 C 0.2002(6) 0.5920(5) 0.46353(18)
C75 C 0.1405(7) 0.4372(5) 0.44501(18)
C76 C 0.0500(6) 0.4688(4) 0.47040(17)
C77 C 0.0842(6) 0.5644(5) 0.48205(18)
C78 C 0.1773(6) 0.8029(4) 0.44343(18)
O25 O -0.0646(5) 0.5755(4) 0.52754(14)
C79 C -0.0723(6) 0.4133(4) 0.48033(17)
C80 C 0.0280(6) 0.6238(4) 0.50976(17)
C81 C 0.2193(8) 0.8992(5) 0.4476(2)
H76 H 0.2991 0.9142 0.4634
O26 O 0.0502(6) 0.2769(4) 0.43356(16)
C82 C 0.3570(7) 0.7472(5) 0.51167(19)
H77 H 0.3107 0.7540 0.5329
C83 C 0.0604(8) 0.7801(6) 0.4195(2)
H78 H 0.0320 0.7153 0.4160
C84 C 0.4880(7) 0.7661(5) 0.51104(19)
C85 C -0.1598(10) 0.2965(8) 0.5195(3)
H79 H -0.2361 0.3383 0.5226
H80 H -0.1329 0.2621 0.5429
H81 H -0.1854 0.2501 0.4996
O27 O -0.1844(6) 0.4219(4) 0.46262(17)
O28 O 0.2128(6) 0.3296(4) 0.40057(16)
C86 C 0.4404(6) 0.7077(4) 0.44710(18)
H82 H 0.4535 0.6866 0.4228
C87 C 0.1446(9) 0.9733(6) 0.4288(2)
H83 H 0.1712 1.0383 0.4327
C88 C 0.0302(8) 0.9505(6) 0.4043(2)
H84 H -0.0170 0.9999 0.3901
C89 C -0.0142(9) 0.8565(6) 0.4007(2)
H85 H -0.0955 0.8426 0.3855
C90 C 0.1278(7) 0.3422(5) 0.42663(19)
C91 C 0.5811(8) 0.8071(6) 0.5435(2)
H86 H 0.5280 0.8376 0.5613
H87 H 0.6404 0.8549 0.5342
H88 H 0.6349 0.7551 0.5560
C92 C 0.4547(10) 0.4671(7) 0.4316(3)
H89 H 0.4970 0.4996 0.4540
H90 H 0.5162 0.4671 0.4125
H91 H 0.4334 0.4007 0.4377
C93 C 0.5382(8) 0.7435(5) 0.4733(2)
C94 C 0.6799(11) 0.7630(8) 0.4670(3)
H92 H 0.6921 0.7466 0.4413
H93 H 0.7403 0.7240 0.4842
H94 H 0.7000 0.8313 0.4714
C95 C 0.1989(10) 0.2398(7) 0.3783(3)
H95 H 0.1262 0.2008 0.3862
H96 H 0.2828 0.2034 0.3822
H97 H 0.1786 0.2558 0.3518
C96 C -0.1101(10) 0.6268(7) 0.5594(3)
H98 H -0.0442 0.6184 0.5814
H99 H -0.1965 0.6007 0.5644
H100 H -0.1199 0.6954 0.5535
loop_
_geom_bond_atom_site_label_1
_geom_bond_atom_site_label_2
_geom_bond_site_symmetry_1
_geom_bond_site_symmetry_2
P1 C5 1_555 1_555
P2 C3 1_555 1_555
O1 C7 1_555 1_555
O2 C15 1_555 1_555
O3 C16 1_555 1_555
O4 C9 1_555 1_555
O5 C16 1_555 1_555
C1 C5 1_555 1_555
C2 C3 1_555 1_555
C3 C15 1_555 1_555
C4 P2 1_555 1_555
H1 C4 1_555 1_555
O6 C27 1_555 1_555
C5 C9 1_555 1_555
C6 C1 1_555 1_555
C7 C1 1_555 1_555
C8 P1 1_555 1_555
H2 C8 1_555 1_555
C9 C12 1_555 1_555
C10 P2 1_555 1_555
O7 C7 1_555 1_555
C11 C2 1_555 1_555
C12 C6 1_555 1_555
O8 C14 1_555 1_555
C13 H3 1_555 1_555
O9 C21 1_555 1_555
C14 O10 1_555 1_555
O10 C45 1_555 1_555
C15 C18 1_555 1_555
O11 C21 1_555 1_555
C16 C2 1_555 1_555
C17 C8 1_555 1_555
C18 C11 1_555 1_555
C19 P1 1_555 1_555
C20 P1 1_555 1_555
H4 C20 1_555 1_555
C21 C11 1_555 1_555
C22 P2 1_555 1_555
H5 C22 1_555 1_555
C23 C4 1_555 1_555
C24 C10 1_555 1_555
H6 C24 1_555 1_555
C25 C13 1_555 1_555
H7 C25 1_555 1_555
O12 C28 1_555 1_555
C26 C10 1_555 1_555
H8 C26 1_555 1_555
C27 C6 1_555 1_555
C28 C12 1_555 1_555
C29 C17 1_555 1_555
C30 H9 1_555 1_555
H10 C30 1_555 1_555
H11 C30 1_555 1_555
C31 C24 1_555 1_555
H12 C31 1_555 1_555
C32 C23 1_555 1_555
H13 C32 1_555 1_555
H14 C32 1_555 1_555
H15 C32 1_555 1_555
O13 C27 1_555 1_555
C33 C22 1_555 1_555
C34 O4 1_555 1_555
H16 C34 1_555 1_555
H17 C34 1_555 1_555
H18 C34 1_555 1_555
C35 C26 1_555 1_555
H19 C35 1_555 1_555
C36 C25 1_555 1_555
H20 C36 1_555 1_555
C37 C19 1_555 1_555
H21 C37 1_555 1_555
C38 C17 1_555 1_555
H22 C38 1_555 1_555
H23 C38 1_555 1_555
H24 C38 1_555 1_555
C39 O2 1_555 1_555
H25 C39 1_555 1_555
H26 C39 1_555 1_555
H27 C39 1_555 1_555
C40 O7 1_555 1_555
H28 C40 1_555 1_555
H29 C40 1_555 1_555
H30 C40 1_555 1_555
C41 C31 1_555 1_555
H31 C41 1_555 1_555
O14 C28 1_555 1_555
C42 O5 1_555 1_555
H32 C42 1_555 1_555
H33 C42 1_555 1_555
H34 C42 1_555 1_555
C43 C36 1_555 1_555
H35 C43 1_555 1_555
C44 O11 1_555 1_555
H36 C44 1_555 1_555
H37 C44 1_555 1_555
H38 C44 1_555 1_555
C45 H39 1_555 1_555
H40 C45 1_555 1_555
H41 C45 1_555 1_555
C46 C29 1_555 1_555
H42 C46 1_555 1_555
H43 C46 1_555 1_555
H44 C46 1_555 1_555
C47 O12 1_555 1_555
H45 C47 1_555 1_555
H46 C47 1_555 1_555
H47 C47 1_555 1_555
C48 O6 1_555 1_555
H48 C48 1_555 1_555
H49 C48 1_555 1_555
H50 C48 1_555 1_555
P3 C50 1_555 1_555
O15 C53 1_555 1_555
O16 C54 1_555 1_555
C49 C50 1_555 1_555
O17 C51 1_555 1_555
O18 C54 1_555 1_555
O19 C63 1_555 1_555
C50 C53 1_555 1_555
O20 C51 1_555 1_555
C51 C62 1_555 1_555
C52 C56 1_555 1_555
C53 C62 1_555 1_555
C54 C49 1_555 1_555
C55 H51 1_555 1_555
C56 P3 1_555 1_555
H52 C56 1_555 1_555
C57 P3 1_555 1_555
C58 C52 1_555 1_555
C59 P3 1_555 1_555
H53 C59 1_555 1_555
C60 C49 1_555 1_555
C61 C57 1_555 1_555
H54 C61 1_555 1_555
C62 C60 1_555 1_555
C63 C60 1_555 1_555
O21 C63 1_555 1_555
C64 C58 1_555 1_555
H55 C64 1_555 1_555
H56 C64 1_555 1_555
H57 C64 1_555 1_555
C65 C52 1_555 1_555
H58 C65 1_555 1_555
H59 C65 1_555 1_555
H60 C65 1_555 1_555
C66 O15 1_555 1_555
H61 C66 1_555 1_555
H62 C66 1_555 1_555
H63 C66 1_555 1_555
C67 O20 1_555 1_555
H64 C67 1_555 1_555
H65 C67 1_555 1_555
H66 C67 1_555 1_555
C68 C55 1_555 1_555
H67 C68 1_555 1_555
C69 C61 1_555 1_555
H68 C69 1_555 1_555
C70 O18 1_555 1_555
H69 C70 1_555 1_555
H70 C70 1_555 1_555
H71 C70 1_555 1_555
C71 C68 1_555 1_555
H72 C71 1_555 1_555
C72 O19 1_555 1_555
H73 C72 1_555 1_555
H74 C72 1_555 1_555
H75 C72 1_555 1_555
P4 C74 1_555 1_555
O22 C79 1_555 1_555
O23 C73 1_555 1_555
O24 C80 1_555 1_555
C73 C74 1_555 1_555
C74 C77 1_555 1_555
C75 C73 1_555 1_555
C76 C75 1_555 1_555
C77 C76 1_555 1_555
C78 P4 1_555 1_555
O25 C80 1_555 1_555
C79 C76 1_555 1_555
C80 C77 1_555 1_555
C81 C78 1_555 1_555
H76 C81 1_555 1_555
O26 C90 1_555 1_555
C82 P4 1_555 1_555
H77 C82 1_555 1_555
C83 C78 1_555 1_555
H78 C83 1_555 1_555
C84 C82 1_555 1_555
C85 O22 1_555 1_555
H79 C85 1_555 1_555
H80 C85 1_555 1_555
H81 C85 1_555 1_555
O27 C79 1_555 1_555
O28 C90 1_555 1_555
C86 P4 1_555 1_555
H82 C86 1_555 1_555
C87 C81 1_555 1_555
H83 C87 1_555 1_555
C88 C87 1_555 1_555
H84 C88 1_555 1_555
C89 C83 1_555 1_555
H85 C89 1_555 1_555
C90 C75 1_555 1_555
C91 C84 1_555 1_555
H86 C91 1_555 1_555
H87 C91 1_555 1_555
H88 C91 1_555 1_555
C92 O23 1_555 1_555
H89 C92 1_555 1_555
H90 C92 1_555 1_555
H91 C92 1_555 1_555
C93 C84 1_555 1_555
C94 C93 1_555 1_555
H92 C94 1_555 1_555
H93 C94 1_555 1_555
H94 C94 1_555 1_555
C95 O28 1_555 1_555
H95 C95 1_555 1_555
H96 C95 1_555 1_555
H97 C95 1_555 1_555
C96 O25 1_555 1_555
H98 C96 1_555 1_555
H99 C96 1_555 1_555
H100 C96 1_555 1_555
C13 C19 1_555 1_555
C14 C18 1_555 1_555
C20 C29 1_555 1_555
C23 C33 1_555 1_555
C30 C33 1_555 1_555
C35 C41 1_555 1_555
C37 C43 1_555 1_555
C55 C57 1_555 1_555
C58 C59 1_555 1_555
C69 C71 1_555 1_555
C86 C93 1_555 1_555
C88 C89 1_555 1_555

#END
