
#######################################################################
#
#                 Cambridge Crystallographic Data Centre
#                                CCDC 
#
#######################################################################
#
# If this CIF has been generated from an entry in the Cambridge 
# Structural Database, then it will include bibliographic, chemical, 
# crystal, experimental, refinement or atomic coordinate data resulting 
# from the CCDC's data processing and validation procedures.
#
#######################################################################

data_BEDNIK
_chemical_formula_moiety         'C36 H35 N5 O3 S1,0.5(C2 H3 N1),1.5(H2 O1)'
_chemical_name_systematic        
"3',6'-bis(ethylamino)-2',7'-dimethyl-2-(2-(4-oxo-2-sulfanylidene-1,4-dihydroquinazolin-3(2H)-yl)ethyl)spiro[isoindole-1,9'-xanthen]-3(2H)-one acetonitrile solvate sesquihydrate"
_symmetry_cell_setting           triclinic
_symmetry_space_group_name_H-M   'P -1'
_symmetry_Int_Tables_number      2
_space_group_name_Hall           '-P 1'
loop_
_symmetry_equiv_pos_site_id
_symmetry_equiv_pos_as_xyz
1 x,y,z
2 -x,-y,-z
_cell_length_a                   9.1065(12)
_cell_length_b                   10.1278(14)
_cell_length_c                   21.019(3)
_cell_angle_alpha                77.832(2)
_cell_angle_beta                 83.823(2)
_cell_angle_gamma                75.320(2)
_cell_volume                     1830.13
_exptl_crystal_colour            colorless
_exptl_crystal_description       block
_cell_formula_units_Z            2
loop_
_atom_site_label
_atom_site_type_symbol
_atom_site_fract_x
_atom_site_fract_y
_atom_site_fract_z
S1 S 0.93668(18) 0.79063(14) 0.19702(6)
C1 C 0.9681(4) 1.0956(4) 0.32269(17)
O1 O 0.9936(3) 0.7923(3) 0.36197(13)
C2 C 0.8583(4) 0.8867(4) 0.37085(18)
N1 N 0.9207(3) 1.1891(3) 0.25923(14)
C3 C 1.1110(4) 0.9841(4) 0.31258(17)
C4 C 0.7377(4) 0.8276(4) 0.39815(18)
H1 H 0.7527 0.7314 0.4088
C5 C 1.1155(4) 0.8435(4) 0.33142(18)
C6 C 0.8404(4) 1.0289(4) 0.35424(17)
N2 N 0.4738(4) 0.8570(4) 0.43742(17)
H2 H 0.3874 0.9132 0.4432
C7 C 0.6957(4) 1.1112(4) 0.36610(18)
H3 H 0.6817 1.2073 0.3550
N3 N 0.9095(4) 1.0351(4) 0.11333(15)
C8 C 0.5946(4) 0.9128(5) 0.40952(18)
C9 C 1.2442(4) 1.0185(4) 0.28182(18)
H4 H 1.2442 1.1121 0.2687
C10 C 0.5731(4) 1.0595(4) 0.39300(18)
C11 C 1.2447(5) 0.7420(4) 0.3198(2)
H5 H 1.2437 0.6485 0.3327
C12 C 1.3751(4) 0.9217(5) 0.26985(18)
C13 C 0.9948(4) 1.2005(4) 0.35942(18)
O2 O 0.8796(4) 1.4192(3) 0.21160(16)
C14 C 1.3752(5) 0.7788(5) 0.2892(2)
N4 N 0.8145(4) 0.8647(4) 0.08392(17)
H6 H 0.7978 0.7827 0.0926
C15 C 0.8595(4) 1.1434(4) 0.20953(18)
H7 H 0.7874 1.2218 0.1863
H8 H 0.8046 1.0738 0.2303
C16 C 0.7903(5) 1.0814(5) 0.01043(19)
C17 C 0.9177(5) 1.3241(4) 0.2574(2)
C18 C 1.0335(4) 1.1805(4) 0.42267(19)
H9 H 1.0503 1.0929 0.4494
C19 C 0.8633(5) 1.1314(5) 0.0566(2)
O3 O 0.8823(5) 1.2487(4) 0.04849(17)
C20 C 0.7673(5) 0.9487(5) 0.0255(2)
C21 C 0.8849(5) 0.9013(5) 0.1284(2)
C22 C 0.9680(4) 1.3325(4) 0.3212(2)
C23 C 0.9800(5) 1.0826(5) 0.1606(2)
H10 H 1.0328 1.1527 0.1381
H11 H 1.0540 1.0052 0.1833
C24 C 0.4218(5) 1.1525(5) 0.4039(2)
H12 H 0.4305 1.2472 0.3953
H13 H 0.3850 1.1281 0.4483
H14 H 0.3519 1.1424 0.3752
N5 N 1.5047(4) 0.6800(5) 0.2787(2)
H15 H 1.5849 0.7076 0.2622
C25 C 0.6977(6) 0.8998(6) -0.0178(2)
H16 H 0.6821 0.8103 -0.0076
C26 C 1.5148(5) 0.9665(6) 0.2379(2)
H17 H 1.4921 1.0660 0.2257
H18 H 1.5472 0.9263 0.1998
H19 H 1.5945 0.9358 0.2679
C27 C 0.7413(6) 1.1676(6) -0.0486(2)
H20 H 0.7551 1.2577 -0.0590
C28 C 0.9821(5) 1.4464(5) 0.3442(2)
H21 H 0.9639 1.5340 0.3175
C29 C 1.0468(5) 1.2975(5) 0.4455(2)
H22 H 1.0722 1.2866 0.4882
C30 C 1.0232(5) 1.4286(5) 0.4064(2)
H23 H 1.0353 1.5038 0.4225
C31 C 0.6734(7) 1.1198(7) -0.0910(2)
H24 H 0.6412 1.1773 -0.1302
C32 C 0.4845(5) 0.7101(5) 0.4573(2)
H25 H 0.5648 0.6693 0.4874
H26 H 0.5096 0.6660 0.4196
C33 C 0.6526(6) 0.9865(7) -0.0758(2)
H27 H 0.6073 0.9543 -0.1052
C34 C 0.3350(6) 0.6848(6) 0.4901(3)
H28 H 0.3433 0.5866 0.5032
H29 H 0.2559 0.7242 0.4601
H30 H 0.3109 0.7277 0.5277
C35 C 1.5143(6) 0.5330(6) 0.2935(3)
H31 H 1.4655 0.5095 0.3363
H32 H 1.6205 0.4835 0.2951
C36 C 1.4397(8) 0.4846(8) 0.2436(4)
H33 H 1.4493 0.3861 0.2557
H34 H 1.4890 0.5058 0.2012
H35 H 1.3340 0.5316 0.2425
O4 O 0.7153(8) 0.6247(6) 0.1198(4)
H36 H 0.6602 0.5822 0.1056
H37 H 0.7570 0.5740 0.1538
O5 O 0.6059(10) 1.4752(9) 0.0512(5)
C37 C 0.7832(14) 0.5988(12) -0.1095(6)
C38 C 0.9058(14) 0.5253(12) -0.0824(6)
N6 N 0.6648(14) 0.6733(13) -0.1270(6)
loop_
_geom_bond_atom_site_label_1
_geom_bond_atom_site_label_2
_geom_bond_site_symmetry_1
_geom_bond_site_symmetry_2
S1 C21 1_555 1_555
C1 N1 1_555 1_555
O1 C2 1_555 1_555
C2 C4 1_555 1_555
N1 C15 1_555 1_555
C3 C1 1_555 1_555
C4 H1 1_555 1_555
C5 O1 1_555 1_555
C6 C1 1_555 1_555
N2 H2 1_555 1_555
C7 C6 1_555 1_555
H3 C7 1_555 1_555
N3 C19 1_555 1_555
C8 C4 1_555 1_555
C9 C3 1_555 1_555
H4 C9 1_555 1_555
C10 C7 1_555 1_555
C11 C5 1_555 1_555
H5 C11 1_555 1_555
C12 C9 1_555 1_555
C13 C1 1_555 1_555
O2 C17 1_555 1_555
C14 C11 1_555 1_555
N4 H6 1_555 1_555
C15 H7 1_555 1_555
H8 C15 1_555 1_555
C16 C19 1_555 1_555
C17 N1 1_555 1_555
C18 C13 1_555 1_555
H9 C18 1_555 1_555
C19 O3 1_555 1_555
C20 N4 1_555 1_555
C21 N3 1_555 1_555
C22 C13 1_555 1_555
C23 N3 1_555 1_555
H10 C23 1_555 1_555
H11 C23 1_555 1_555
C24 C10 1_555 1_555
H12 C24 1_555 1_555
H13 C24 1_555 1_555
H14 C24 1_555 1_555
N5 C14 1_555 1_555
H15 N5 1_555 1_555
C25 C20 1_555 1_555
H16 C25 1_555 1_555
C26 C12 1_555 1_555
H17 C26 1_555 1_555
H18 C26 1_555 1_555
H19 C26 1_555 1_555
C27 C16 1_555 1_555
H20 C27 1_555 1_555
C28 C22 1_555 1_555
H21 C28 1_555 1_555
C29 C18 1_555 1_555
H22 C29 1_555 1_555
C30 C28 1_555 1_555
H23 C30 1_555 1_555
C31 C27 1_555 1_555
H24 C31 1_555 1_555
C32 N2 1_555 1_555
H25 C32 1_555 1_555
H26 C32 1_555 1_555
C33 C25 1_555 1_555
H27 C33 1_555 1_555
C34 C32 1_555 1_555
H28 C34 1_555 1_555
H29 C34 1_555 1_555
H30 C34 1_555 1_555
C35 N5 1_555 1_555
H31 C35 1_555 1_555
H32 C35 1_555 1_555
C36 C35 1_555 1_555
H33 C36 1_555 1_555
H34 C36 1_555 1_555
H35 C36 1_555 1_555
O4 H36 1_555 1_555
H37 O4 1_555 1_555
C37 C38 1_555 1_555
N6 C37 1_555 1_555
C2 C6 1_555 1_555
C3 C5 1_555 1_555
N2 C8 1_555 1_555
C8 C10 1_555 1_555
C12 C14 1_555 1_555
N4 C21 1_555 1_555
C15 C23 1_555 1_555
C16 C20 1_555 1_555
C17 C22 1_555 1_555
C29 C30 1_555 1_555
C31 C33 1_555 1_555

#END
