
#######################################################################
#
#                 Cambridge Crystallographic Data Centre
#                                CCDC 
#
#######################################################################
#
# If this CIF has been generated from an entry in the Cambridge 
# Structural Database, then it will include bibliographic, chemical, 
# crystal, experimental, refinement or atomic coordinate data resulting 
# from the CCDC's data processing and validation procedures.
#
#######################################################################

data_BEDRUY
_chemical_formula_moiety         'C34 H22 N8'
_chemical_name_systematic        1,2,4,5-tetrakis(7-Azaindol-1-yl)benzene
_symmetry_cell_setting           triclinic
_symmetry_space_group_name_H-M   'P -1'
_symmetry_Int_Tables_number      2
_space_group_name_Hall           '-P 1'
loop_
_symmetry_equiv_pos_site_id
_symmetry_equiv_pos_as_xyz
1 x,y,z
2 -x,-y,-z
_cell_length_a                   10.226(2)
_cell_length_b                   11.531(3)
_cell_length_c                   17.268(4)
_cell_angle_alpha                81.670(5)
_cell_angle_beta                 81.985(4)
_cell_angle_gamma                88.226(4)
_cell_volume                     1994.89
_cell_formula_units_Z            3
_exptl_crystal_recrystallization_method hexanes/dichloromethane
_exptl_crystal_preparation       luminescent
loop_
_atom_site_label
_atom_site_type_symbol
_atom_site_fract_x
_atom_site_fract_y
_atom_site_fract_z
N1 N 1.0586(4) 0.7832(3) 0.4993(2)
N2 N 1.1688(4) 0.5991(3) 0.4885(2)
N3 N 1.3478(4) 0.8292(3) 0.4369(2)
N4 N 1.2705(4) 0.9261(3) 0.5499(2)
N5 N 1.2194(3) 0.9816(3) 0.1859(2)
N6 N 1.3801(3) 1.1214(3) 0.2017(2)
N7 N 0.9446(3) 0.9642(2) 0.24714(17)
N8 N 0.8218(3) 0.7866(3) 0.26382(16)
C1 C 0.9655(6) 0.8232(4) 0.5526(3)
H1 H 0.9283 0.8980 0.5459
C2 C 0.9318(6) 0.7409(5) 0.6183(3)
H2 H 0.8715 0.7486 0.6629
C3 C 1.0113(5) 0.6408(4) 0.6016(3)
C4 C 1.0229(7) 0.5245(5) 0.6405(3)
H3 H 0.9762 0.4994 0.6899
C5 C 1.1071(7) 0.4514(5) 0.6008(4)
H4 H 1.1185 0.3742 0.6235
C6 C 1.1751(5) 0.4913(4) 0.5273(4)
H5 H 1.2304 0.4379 0.5028
C7 C 1.0894(5) 0.6666(4) 0.5280(3)
C8 C 1.4656(4) 0.7774(4) 0.4128(3)
H6 H 1.4784 0.7478 0.3650
C9 C 1.5589(5) 0.7697(4) 0.4565(3)
H7 H 1.6434 0.7374 0.4489
C10 C 1.4852(5) 0.8329(4) 0.5283(3)
C11 C 1.5332(5) 0.8547(4) 0.5897(3)
H8 H 1.6173 0.8326 0.6015
C12 C 1.4358(7) 0.9195(5) 0.6385(3)
H9 H 1.4543 0.9420 0.6854
C13 C 1.3177(5) 0.9450(5) 0.6122(3)
H10 H 1.2590 0.9841 0.6460
C14 C 1.3668(5) 0.8633(3) 0.5039(2)
C15 C 1.1811(4) 0.9387(4) 0.1214(3)
H11 H 1.1175 0.8817 0.1246
C16 C 1.2493(4) 0.9914(4) 0.0533(3)
H12 H 1.2395 0.9782 0.0025
C17 C 1.3385(4) 1.0704(4) 0.0733(3)
C18 C 1.4365(4) 1.1458(4) 0.0336(3)
H13 H 1.4557 1.1547 -0.0212
C19 C 1.5046(5) 1.2071(4) 0.0774(3)
H14 H 1.5711 1.2580 0.0521
C20 C 1.4749(4) 1.1936(4) 0.1586(3)
H15 H 1.5232 1.2369 0.1860
C21 C 1.3188(4) 1.0632(3) 0.1555(3)
C22 C 0.9306(4) 1.0759(3) 0.2075(2)
H16 H 0.9878 1.1375 0.2066
C23 C 0.8224(4) 1.0833(3) 0.1701(2)
H17 H 0.7927 1.1493 0.1395
C24 C 0.7623(3) 0.9708(3) 0.1865(2)
C25 C 0.6506(4) 0.9193(4) 0.1677(2)
H18 H 0.5947 0.9618 0.1357
C26 C 0.6267(4) 0.8044(4) 0.1981(2)
H19 H 0.5527 0.7678 0.1875
C27 C 0.7129(4) 0.7426(3) 0.2446(2)
H20 H 0.6937 0.6646 0.2640
C28 C 0.8407(3) 0.8988(3) 0.23446(19)
C29 C 1.1032(5) 0.8415(3) 0.4223(2)
C30 C 1.2367(5) 0.8631(4) 0.3924(3)
C31 C 1.2709(4) 0.9098(3) 0.3158(3)
H21 H 1.3597 0.9215 0.2964
C32 C 1.1776(4) 0.9401(3) 0.2663(2)
C33 C 1.0436(4) 0.9268(3) 0.2959(2)
C34 C 1.0065(4) 0.8759(3) 0.3732(2)
H22 H 0.9176 0.8647 0.3926
N9 N 0.2347(3) 0.4799(3) 0.07024(17)
N10 N 0.4338(3) 0.5449(3) 0.15760(19)
N11 N 0.1472(3) 0.6615(3) 0.01165(18)
C35 C 0.1339(4) 0.5599(3) 0.0596(2)
C36 C 0.4038(3) 0.4718(3) -0.0415(2)
H23 H 0.3380 0.4532 -0.0696
C37 C 0.3699(3) 0.4926(3) 0.0352(2)
C38 C 0.0209(3) 0.5171(3) 0.1106(2)
C39 C 0.4656(3) 0.5221(3) 0.0784(2)
N12 N 0.6085(4) 0.4318(3) 0.2161(2)
C40 C 0.4993(5) 0.4966(4) 0.2214(2)
C41 C -0.0895(4) 0.5890(4) 0.1100(2)
H24 H -0.1680 0.5664 0.1420
C42 C 0.0566(4) 0.4085(4) 0.1523(2)
H25 H 0.0018 0.3598 0.1900
C43 C 0.1855(4) 0.3889(3) 0.1270(2)
H26 H 0.2341 0.3235 0.1451
C44 C -0.0817(4) 0.6938(4) 0.0617(3)
H27 H -0.1549 0.7436 0.0609
C45 C 0.5946(9) 0.4246(6) 0.3542(4)
H28 H 0.6331 0.3983 0.3994
C46 C 0.4307(5) 0.5314(5) 0.2900(3)
C47 C 0.0345(4) 0.7258(4) 0.0142(3)
H29 H 0.0355 0.7972 -0.0188
C48 C 0.6515(6) 0.3973(4) 0.2850(3)
H30 H 0.7271 0.3504 0.2848
C49 C 0.3266(4) 0.6089(4) 0.1869(3)
H31 H 0.2668 0.6499 0.1569
C50 C 0.3219(5) 0.6027(5) 0.2666(3)
H32 H 0.2591 0.6385 0.3000
C51 C 0.4822(8) 0.4897(6) 0.3607(3)
H33 H 0.4409 0.5062 0.4094
C39A C 0.5344(3) 0.4779(3) -0.0784(2)
N10A N 0.5662(3) 0.4551(3) -0.15760(19)
C40A C 0.5007(5) 0.5034(4) -0.2214(2)
N12A N 0.3915(4) 0.5682(3) -0.2161(2)
C48A C 0.3485(6) 0.6027(4) -0.2850(3)
C45A C 0.4054(9) 0.5754(6) -0.3542(4)
H28A H 0.3669 0.6017 -0.3994
C51A C 0.5178(8) 0.5103(6) -0.3607(3)
C46A C 0.5693(5) 0.4686(5) -0.2900(3)
C50A C 0.6781(5) 0.3973(5) -0.2666(3)
C49A C 0.6734(4) 0.3911(4) -0.1869(3)
H31A H 0.7332 0.3501 -0.1569
H32A H 0.7409 0.3615 -0.3000
H33A H 0.5591 0.4938 -0.4094
H30A H 0.2729 0.6496 -0.2848
C37A C 0.6301(3) 0.5074(3) -0.0352(2)
N9A N 0.7653(3) 0.5201(3) -0.07024(17)
C35A C 0.8661(4) 0.4401(3) -0.0596(2)
N11A N 0.8528(3) 0.3385(3) -0.01165(18)
C47A C 0.9655(4) 0.2742(4) -0.0142(3)
C44A C 1.0817(4) 0.3062(4) -0.0617(3)
C41A C 1.0895(4) 0.4110(4) -0.1100(2)
C38A C 0.9791(3) 0.4829(3) -0.1106(2)
C42A C 0.9434(4) 0.5915(4) -0.1523(2)
H25A H 0.9982 0.6402 -0.1900
C43A C 0.8145(4) 0.6111(3) -0.1270(2)
H26A H 0.7659 0.6765 -0.1451
H24A H 1.1680 0.4336 -0.1420
H27A H 1.1549 0.2564 -0.0609
H29A H 0.9645 0.2028 0.0188
C36A C 0.5962(3) 0.5282(3) 0.0415(2)
H23A H 0.6620 0.5468 0.0696
loop_
_geom_bond_atom_site_label_1
_geom_bond_atom_site_label_2
_geom_bond_site_symmetry_1
_geom_bond_site_symmetry_2
N1 C1 1_555 1_555
N2 C6 1_555 1_555
N3 C8 1_555 1_555
N4 C13 1_555 1_555
N5 C15 1_555 1_555
N6 C20 1_555 1_555
N7 C22 1_555 1_555
N8 C27 1_555 1_555
C1 H1 1_555 1_555
C2 C1 1_555 1_555
H2 C2 1_555 1_555
C3 C2 1_555 1_555
C4 C3 1_555 1_555
H3 C4 1_555 1_555
C5 C4 1_555 1_555
H4 C5 1_555 1_555
C6 C5 1_555 1_555
H5 C6 1_555 1_555
C7 N1 1_555 1_555
C8 H6 1_555 1_555
C9 C8 1_555 1_555
H7 C9 1_555 1_555
C10 C9 1_555 1_555
C11 C10 1_555 1_555
H8 C11 1_555 1_555
C12 C11 1_555 1_555
H9 C12 1_555 1_555
C13 C12 1_555 1_555
H10 C13 1_555 1_555
C14 N3 1_555 1_555
C15 H11 1_555 1_555
C16 C15 1_555 1_555
H12 C16 1_555 1_555
C17 C16 1_555 1_555
C18 C17 1_555 1_555
H13 C18 1_555 1_555
C19 C18 1_555 1_555
H14 C19 1_555 1_555
C20 C19 1_555 1_555
H15 C20 1_555 1_555
C21 N5 1_555 1_555
C22 H16 1_555 1_555
C23 C22 1_555 1_555
H17 C23 1_555 1_555
C24 C23 1_555 1_555
C25 C24 1_555 1_555
H18 C25 1_555 1_555
C26 C25 1_555 1_555
H19 C26 1_555 1_555
C27 C26 1_555 1_555
H20 C27 1_555 1_555
C28 N7 1_555 1_555
C29 N1 1_555 1_555
C30 N3 1_555 1_555
C31 C30 1_555 1_555
H21 C31 1_555 1_555
C32 N5 1_555 1_555
C33 N7 1_555 1_555
C34 C29 1_555 1_555
H22 C34 1_555 1_555
N9 C35 1_555 1_555
N10 C39 1_555 1_555
N11 C35 1_555 1_555
C35 C38 1_555 1_555
C36 H23 1_555 1_555
C37 N9 1_555 1_555
C38 C41 1_555 1_555
C39 C37 1_555 1_555
N12 C40 1_555 1_555
C40 N10 1_555 1_555
C41 H24 1_555 1_555
C42 C38 1_555 1_555
H25 C42 1_555 1_555
C43 N9 1_555 1_555
H26 C43 1_555 1_555
C44 C41 1_555 1_555
H27 C44 1_555 1_555
C45 H28 1_555 1_555
C46 C40 1_555 1_555
C47 N11 1_555 1_555
H29 C47 1_555 1_555
C48 N12 1_555 1_555
H30 C48 1_555 1_555
C49 N10 1_555 1_555
H31 C49 1_555 1_555
C50 C46 1_555 1_555
H32 C50 1_555 1_555
C51 C45 1_555 1_555
H33 C51 1_555 1_555
C39A C36 1_555 1_555
N10A C39A 1_555 1_555
C40A N10A 1_555 1_555
N12A C40A 1_555 1_555
C48A N12A 1_555 1_555
C45A C48A 1_555 1_555
H28A C45A 1_555 1_555
C51A C45A 1_555 1_555
C46A C40A 1_555 1_555
C50A C46A 1_555 1_555
C49A N10A 1_555 1_555
H31A C49A 1_555 1_555
H32A C50A 1_555 1_555
H33A C51A 1_555 1_555
H30A C48A 1_555 1_555
C37A C39A 1_555 1_555
N9A C37A 1_555 1_555
C35A N9A 1_555 1_555
N11A C35A 1_555 1_555
C47A N11A 1_555 1_555
C44A C47A 1_555 1_555
C41A C44A 1_555 1_555
C38A C35A 1_555 1_555
C42A C38A 1_555 1_555
H25A C42A 1_555 1_555
C43A N9A 1_555 1_555
H26A C43A 1_555 1_555
H24A C41A 1_555 1_555
H27A C44A 1_555 1_555
H29A C47A 1_555 1_555
C36A C39 1_555 1_555
H23A C36A 1_555 1_555
N2 C7 1_555 1_555
N4 C14 1_555 1_555
N6 C21 1_555 1_555
N8 C28 1_555 1_555
C3 C7 1_555 1_555
C10 C14 1_555 1_555
C17 C21 1_555 1_555
C24 C28 1_555 1_555
C29 C30 1_555 1_555
C31 C32 1_555 1_555
C32 C33 1_555 1_555
C33 C34 1_555 1_555
C36 C37 1_555 1_555
C42 C43 1_555 1_555
C44 C47 1_555 1_555
C45 C48 1_555 1_555
C46 C51 1_555 1_555
C49 C50 1_555 1_555
C51A C46A 1_555 1_555
C50A C49A 1_555 1_555
C37A C36A 1_555 1_555
C41A C38A 1_555 1_555
C42A C43A 1_555 1_555

#END
