
#######################################################################
#
#                 Cambridge Crystallographic Data Centre
#                                CCDC 
#
#######################################################################
#
# If this CIF has been generated from an entry in the Cambridge 
# Structural Database, then it will include bibliographic, chemical, 
# crystal, experimental, refinement or atomic coordinate data resulting 
# from the CCDC's data processing and validation procedures.
#
#######################################################################

data_BEDTOV
_chemical_formula_moiety         'C18 H26 Br1 N1 O3'
_chemical_name_systematic        
3-Bromo-4-(2,5-dihydro-1H-pyrrol-1-yl)-5-((2-isopropyl-5-methylcyclohexyl)oxy)furan-2(5H)-one
_symmetry_cell_setting           orthorhombic
_symmetry_space_group_name_H-M   'P 21 21 21'
_symmetry_Int_Tables_number      19
_space_group_name_Hall           'P 2ac 2ab'
loop_
_symmetry_equiv_pos_site_id
_symmetry_equiv_pos_as_xyz
1 x,y,z
2 1/2-x,-y,1/2+z
3 -x,1/2+y,1/2-z
4 1/2+x,1/2-y,-z
_cell_length_a                   7.1965(17)
_cell_length_b                   9.634(2)
_cell_length_c                   27.510(6)
_cell_angle_alpha                90
_cell_angle_beta                 90
_cell_angle_gamma                90
_cell_volume                     1907.3
_exptl_crystal_colour            colorless
_exptl_crystal_description       block
_cell_formula_units_Z            4
loop_
_atom_site_label
_atom_site_type_symbol
_atom_site_fract_x
_atom_site_fract_y
_atom_site_fract_z
Br1 Br 0.27949(10) 0.76054(7) 0.151189(19)
C1 C 0.2072(9) 0.9456(6) 0.22883(19)
C2 C 0.2439(7) 0.7257(5) 0.25696(15)
C3 C 0.2098(8) 0.8213(5) 0.29901(16)
H1 H 0.0984 0.7929 0.3170
C4 C 0.2439(8) 0.8039(5) 0.21613(16)
N1 N 0.2660(7) 0.5911(4) 0.26419(13)
C5 C 0.2539(10) 0.5235(5) 0.31185(18)
H2 H 0.1407 0.5492 0.3287
H3 H 0.3601 0.5463 0.3321
C6 C 0.2851(9) 0.4876(5) 0.22517(18)
H4 H 0.4046 0.4954 0.2091
H5 H 0.1870 0.4973 0.2012
C7 C 0.2534(10) 0.3736(6) 0.2983(2)
H6 H 0.2430 0.3017 0.3207
C8 C 0.2689(10) 0.3546(5) 0.2519(3)
H7 H 0.2698 0.2679 0.2370
O1 O 0.1847(5) 0.9549(3) 0.27823(12)
O2 O 0.1929(7) 1.0477(4) 0.20343(13)
O3 O 0.3652(5) 0.8214(3) 0.32955(11)
C9 C 0.3318(8) 0.8589(5) 0.37995(16)
H8 H 0.2453 0.7920 0.3943
C10 C 0.2520(11) 1.0030(5) 0.38491(17)
H9 H 0.1315 1.0061 0.3691
H10 H 0.3328 1.0685 0.3685
C11 C 0.5197(9) 0.8448(6) 0.40462(18)
H11 H 0.6025 0.9119 0.3889
C12 C 0.4988(10) 0.8919(6) 0.4574(2)
H12 H 0.4184 0.8271 0.4743
H13 H 0.6196 0.8890 0.4730
C13 C 0.2304(14) 1.0459(6) 0.4377(2)
H14 H 0.1454 0.9808 0.4536
C14 C 0.4192(13) 1.0371(7) 0.4627(2)
H15 H 0.4058 1.0597 0.4969
H16 H 0.5036 1.1039 0.4482
C15 C 0.6099(9) 0.7003(6) 0.3978(2)
C16 C 0.8179(10) 0.7110(9) 0.4096(2)
H17 H 0.8768 0.7722 0.3868
H18 H 0.8736 0.6207 0.4076
H19 H 0.8333 0.7469 0.4419
C17 C 0.5171(12) 0.5909(6) 0.4289(2)
H20 H 0.5346 0.6132 0.4626
H21 H 0.5713 0.5020 0.4221
H22 H 0.3867 0.5883 0.4217
C18 C 0.1509(14) 1.1916(7) 0.4423(3)
H23 H 0.2483 1.2584 0.4377
H24 H 0.0976 1.2032 0.4740
H25 H 0.0567 1.2051 0.4180
loop_
_geom_bond_atom_site_label_1
_geom_bond_atom_site_label_2
_geom_bond_site_symmetry_1
_geom_bond_site_symmetry_2
Br1 C4 1_555 1_555
C1 C4 1_555 1_555
C2 C3 1_555 1_555
C3 H1 1_555 1_555
C4 C2 1_555 1_555
N1 C2 1_555 1_555
C5 N1 1_555 1_555
H2 C5 1_555 1_555
H3 C5 1_555 1_555
C6 N1 1_555 1_555
H4 C6 1_555 1_555
H5 C6 1_555 1_555
C7 C5 1_555 1_555
H6 C7 1_555 1_555
C8 C6 1_555 1_555
H7 C8 1_555 1_555
O1 C1 1_555 1_555
O2 C1 1_555 1_555
O3 C3 1_555 1_555
C9 O3 1_555 1_555
H8 C9 1_555 1_555
C10 C9 1_555 1_555
H9 C10 1_555 1_555
H10 C10 1_555 1_555
C11 C9 1_555 1_555
H11 C11 1_555 1_555
C12 C11 1_555 1_555
H12 C12 1_555 1_555
H13 C12 1_555 1_555
C13 C10 1_555 1_555
H14 C13 1_555 1_555
C14 C12 1_555 1_555
H15 C14 1_555 1_555
H16 C14 1_555 1_555
C15 C11 1_555 1_555
C16 C15 1_555 1_555
H17 C16 1_555 1_555
H18 C16 1_555 1_555
H19 C16 1_555 1_555
C17 C15 1_555 1_555
H20 C17 1_555 1_555
H21 C17 1_555 1_555
H22 C17 1_555 1_555
C18 C13 1_555 1_555
H23 C18 1_555 1_555
H24 C18 1_555 1_555
H25 C18 1_555 1_555
C3 O1 1_555 1_555
C7 C8 1_555 1_555
C13 C14 1_555 1_555

#END
