
#######################################################################
#
#                 Cambridge Crystallographic Data Centre
#                                CCDC 
#
#######################################################################
#
# If this CIF has been generated from an entry in the Cambridge 
# Structural Database, then it will include bibliographic, chemical, 
# crystal, experimental, refinement or atomic coordinate data resulting 
# from the CCDC's data processing and validation procedures.
#
#######################################################################

data_BEDTUB
_chemical_formula_moiety         'C20 H30 Cl1 N1 O3'
_chemical_name_systematic        
'2-Isopropyl-5-methylcyclohexyl 2-chloro-4-(2,5-dimethyl-2,5-dihydro-1H-pyrrol-1-yl)-4-oxobut-2-enoate'
_symmetry_cell_setting           monoclinic
_symmetry_space_group_name_H-M   'P 21'
_symmetry_Int_Tables_number      4
_space_group_name_Hall           'P 2yb'
loop_
_symmetry_equiv_pos_site_id
_symmetry_equiv_pos_as_xyz
1 x,y,z
2 -x,1/2+y,-z
_cell_length_a                   6.337(5)
_cell_length_b                   18.617(15)
_cell_length_c                   8.813(7)
_cell_angle_alpha                90
_cell_angle_beta                 94.272(13)
_cell_angle_gamma                90
_cell_volume                     1036.83
_cell_formula_units_Z            2
loop_
_atom_site_label
_atom_site_type_symbol
_atom_site_fract_x
_atom_site_fract_y
_atom_site_fract_z
Cl1 Cl -0.0884(2) 0.94561(7) 1.06929(15)
C1 C 0.3918(7) 0.8892(3) 0.7117(5)
H1 H 0.4906 0.8529 0.7553
C2 C 0.3317(9) 0.8717(3) 0.5465(5)
H2 H 0.2270 0.9076 0.5093
C3 C 0.4870(9) 0.9630(3) 0.7354(6)
H3 H 0.5232 0.9708 0.8431
H4 H 0.3839 0.9991 0.7007
C4 C 0.6859(9) 0.9710(3) 0.6480(6)
H5 H 0.7871 0.9341 0.6855
C5 C 0.6291(11) 0.9563(4) 0.4820(6)
H6 H 0.7558 0.9594 0.4270
H7 H 0.5312 0.9929 0.4418
C6 C 0.5278(10) 0.8819(4) 0.4549(6)
H8 H 0.6313 0.8451 0.4841
H9 H 0.4867 0.8762 0.3474
N1 N -0.2157(6) 0.6861(2) 0.9191(4)
C7 C -0.4211(7) 0.6851(3) 0.9881(5)
H10 H -0.5153 0.7226 0.9441
C8 C -0.3591(9) 0.5743(3) 0.8773(6)
C9 C -0.1628(8) 0.6155(3) 0.8535(6)
H13 H -0.0420 0.5940 0.9130
C10 C -0.5010(9) 0.6114(3) 0.9407(6)
C11 C -0.1191(13) 0.6189(4) 0.6881(8)
H16 H -0.0016 0.6504 0.6760
H17 H -0.2420 0.6367 0.6297
H18 H -0.0859 0.5716 0.6531
C12 C -0.0753(7) 0.7398(3) 0.9257(5)
O1 O 0.1912(5) 0.88618(18) 0.7892(3)
C13 C 0.2051(7) 0.8688(2) 0.9351(5)
O2 O 0.3620(5) 0.8613(2) 1.0148(3)
C14 C -0.0155(7) 0.8653(3) 0.9895(4)
C15 C -0.1428(7) 0.8099(2) 0.9839(5)
H19 H -0.2779 0.8147 1.0172
C16 C -0.3999(12) 0.6902(3) 1.1615(7)
C17 C 0.7907(13) 1.0434(4) 0.6743(9)
H20 H 0.8098 1.0527 0.7816
H21 H 0.7028 1.0801 0.6262
H22 H 0.9258 1.0434 0.6318
C18 C 0.2270(10) 0.7977(4) 0.5235(6)
H23 H 0.1196 0.7941 0.5977
C19 C 0.3813(12) 0.7367(4) 0.5577(7)
H24 H 0.4424 0.7410 0.6603
H25 H 0.4914 0.7387 0.4886
H26 H 0.3081 0.6917 0.5459
C20 C 0.1124(12) 0.7899(6) 0.3687(7)
H27 H 0.0134 0.8287 0.3519
H28 H 0.0379 0.7450 0.3630
H29 H 0.2128 0.7912 0.2924
O3 O 0.1044(5) 0.73283(19) 0.8815(4)
H11? H -0.4190 0.5569 0.7797
H12? H -0.3223 0.5328 0.9403
H14? H -0.5430 0.5858 1.0296
H15? H -0.6249 0.6163 0.8700
loop_
_geom_bond_atom_site_label_1
_geom_bond_atom_site_label_2
_geom_bond_site_symmetry_1
_geom_bond_site_symmetry_2
Cl1 C14 1_555 1_555
C1 H1 1_555 1_555
C2 C1 1_555 1_555
H2 C2 1_555 1_555
C3 C1 1_555 1_555
H3 C3 1_555 1_555
H4 C3 1_555 1_555
C4 C3 1_555 1_555
H5 C4 1_555 1_555
C5 C4 1_555 1_555
H6 C5 1_555 1_555
H7 C5 1_555 1_555
C6 C2 1_555 1_555
H8 C6 1_555 1_555
H9 C6 1_555 1_555
N1 C7 1_555 1_555
C7 H10 1_555 1_555
C8 C9 1_555 1_555
C9 N1 1_555 1_555
H13 C9 1_555 1_555
C10 C7 1_555 1_555
C11 C9 1_555 1_555
H16 C11 1_555 1_555
H17 C11 1_555 1_555
H18 C11 1_555 1_555
C12 N1 1_555 1_555
O1 C1 1_555 1_555
C13 O1 1_555 1_555
O2 C13 1_555 1_555
C14 C13 1_555 1_555
C15 C12 1_555 1_555
H19 C15 1_555 1_555
C16 C7 1_555 1_555
C17 C4 1_555 1_555
H20 C17 1_555 1_555
H21 C17 1_555 1_555
H22 C17 1_555 1_555
C18 C2 1_555 1_555
H23 C18 1_555 1_555
C19 C18 1_555 1_555
H24 C19 1_555 1_555
H25 C19 1_555 1_555
H26 C19 1_555 1_555
C20 C18 1_555 1_555
H27 C20 1_555 1_555
H28 C20 1_555 1_555
H29 C20 1_555 1_555
O3 C12 1_555 1_555
C5 C6 1_555 1_555
C8 C10 1_555 1_555
C14 C15 1_555 1_555

#END
