
#######################################################################
#
#                 Cambridge Crystallographic Data Centre
#                                CCDC 
#
#######################################################################
#
# If this CIF has been generated from an entry in the Cambridge 
# Structural Database, then it will include bibliographic, chemical, 
# crystal, experimental, refinement or atomic coordinate data resulting 
# from the CCDC's data processing and validation procedures.
#
#######################################################################

data_BEDVEO01
_chemical_formula_moiety         'C28 H30 I2 N2 S2'
_chemical_name_systematic        
2,5-dihexyl-9,10-diiodobisthieno[3,2-a:2',3'-c]phenazine
_symmetry_cell_setting           triclinic
_symmetry_space_group_name_H-M   'P -1'
_symmetry_Int_Tables_number      2
_space_group_name_Hall           '-P 1'
loop_
_symmetry_equiv_pos_site_id
_symmetry_equiv_pos_as_xyz
1 x,y,z
2 -x,-y,-z
_cell_length_a                   4.7600(10)
_cell_length_b                   24.170(5)
_cell_length_c                   27.970(6)
_cell_angle_alpha                105.08(3)
_cell_angle_beta                 94.03(3)
_cell_angle_gamma                90.49(3)
_cell_volume                     3098.23
_exptl_crystal_colour            yellow
_exptl_crystal_description       needle-like
_cell_formula_units_Z            4
loop_
_atom_site_label
_atom_site_type_symbol
_atom_site_fract_x
_atom_site_fract_y
_atom_site_fract_z
C1 C -0.3473(6) 0.14208(11) 0.08963(14)
C2 C -0.1889(7) 0.15440(12) 0.13499(13)
C3 C -0.0133(7) 0.20302(13) 0.14937(11)
H1 H 0.0927 0.2113 0.1797
C4 C 0.0040(5) 0.23932(10) 0.11838(9)
C5 C -0.1544(5) 0.22700(9) 0.07302(9)
C6 C -0.3300(6) 0.17838(11) 0.05864(12)
H2 H -0.4360 0.1701 0.0283
C7 C 0.0776(5) 0.31045(10) 0.05342(10)
C8 C 0.2485(5) 0.32432(10) 0.09747(10)
C9 C 0.4280(6) 0.37236(11) 0.10860(13)
C10 C 0.4364(7) 0.40653(11) 0.07567(15)
C11 C 0.2654(7) 0.39266(12) 0.03162(14)
C12 C 0.0860(7) 0.34462(12) 0.02050(12)
C13 C -0.0667(14) 0.3425(3) -0.0293(3)
H3 H -0.1996 0.3135 -0.0438
C14 C -0.0051(15) 0.3852(3) -0.0535(3)
C15 C -0.1179(16) 0.3955(3) -0.1036(3)
H4 H 0.0398 0.4039 -0.1210
H5 H -0.2360 0.4288 -0.0972
C16 C -0.2909(17) 0.3434(3) -0.1375(3)
H6 H -0.4562 0.3365 -0.1212
H7 H -0.1774 0.3095 -0.1424
C17 C -0.3846(19) 0.3537(4) -0.1888(3)
H8 H -0.5045 0.3866 -0.1838
H9 H -0.2193 0.3626 -0.2041
C18 C -0.548(2) 0.3009(4) -0.2252(3)
H10 H -0.7083 0.2913 -0.2090
H11 H -0.4248 0.2684 -0.2306
C19 C -0.656(2) 0.3092(5) -0.2771(4)
H12 H -0.7753 0.3423 -0.2719
H13 H -0.4958 0.3173 -0.2940
C20 C -0.823(2) 0.2571(5) -0.3107(4)
H14 H -0.6945 0.2285 -0.3257
H15 H -0.9342 0.2688 -0.3362
H16 H -0.9448 0.2415 -0.2912
C21 C 0.6245(15) 0.3903(4) 0.1547(3)
H17 H 0.6442 0.3697 0.1785
C22 C 0.7777(16) 0.4424(4) 0.1578(4)
C23 C 0.991(2) 0.4793(5) 0.1970(4)
H18 H 1.1728 0.4755 0.1830
H19 H 0.9387 0.5189 0.2015
C24 C 1.031(2) 0.4693(5) 0.2458(4)
H20 H 1.1630 0.4389 0.2452
H21 H 0.8527 0.4575 0.2556
C25 C 1.151(3) 0.5280(5) 0.2856(4)
H22 H 1.0091 0.5570 0.2936
H23 H 1.3178 0.5440 0.2757
C26 C 1.214(3) 0.4984(5) 0.3266(4)
H24 H 1.3337 0.4664 0.3139
H25 H 1.0384 0.4826 0.3335
C27 C 1.362(3) 0.5356(6) 0.3778(5)
H26 H 1.5327 0.5545 0.3724
H27 H 1.2361 0.5644 0.3946
C28 C 1.430(3) 0.4931(7) 0.4082(6)
H28 H 1.3150 0.5002 0.4359
H29 H 1.6249 0.4973 0.4200
H30 H 1.3917 0.4548 0.3878
I1 I -0.61710(9) 0.064846(19) 0.066119(16)
I2 I -0.20428(11) 0.10131(2) 0.187736(19)
N1 N -0.1257(11) 0.2618(2) 0.0376(2)
N2 N 0.2137(11) 0.2872(2) 0.1300(2)
S1 S 0.2569(4) 0.43413(9) -0.01383(9)
S2 S 0.6909(4) 0.46608(9) 0.10223(10)
C29 C 1.0479(6) 0.13862(14) 0.85466(10)
C30 C 0.9233(7) 0.09309(15) 0.86792(9)
C31 C 0.7350(7) 0.05567(14) 0.83426(9)
H31 H 0.6517 0.0252 0.8431
C32 C 0.6713(5) 0.06379(11) 0.78734(8)
C33 C 0.7958(5) 0.10932(10) 0.77408(9)
C34 C 0.9841(6) 0.14673(12) 0.80774(11)
H32 H 1.0674 0.1772 0.7989
C35 C 0.5102(5) 0.07748(11) 0.69015(8)
C36 C 0.3727(5) 0.03560(11) 0.70647(9)
C37 C 0.1859(6) -0.00338(14) 0.67394(11)
C38 C 0.1366(7) -0.00048(16) 0.62509(10)
C39 C 0.2740(7) 0.04139(17) 0.60877(9)
C40 C 0.4608(7) 0.08037(16) 0.64130(9)
C41 C 0.5975(16) 0.1207(3) 0.6159(3)
H33 H 0.7313 0.1488 0.6322
C42 C 0.5052(16) 0.1119(4) 0.5664(3)
C43 C 0.5852(18) 0.1449(4) 0.5271(3)
H34 H 0.4124 0.1517 0.5092
H35 H 0.6967 0.1197 0.5032
C44 C 0.747(2) 0.2020(4) 0.5467(3)
H36 H 0.6345 0.2285 0.5694
H37 H 0.9199 0.1962 0.5651
C45 C 0.818(2) 0.2282(4) 0.5046(3)
H38 H 0.6468 0.2303 0.4842
H39 H 0.9454 0.2034 0.4838
C46 C 0.953(2) 0.2878(5) 0.5235(4)
H40 H 1.1303 0.2855 0.5421
H41 H 0.8309 0.3121 0.5458
C47 C 1.013(3) 0.3177(6) 0.4774(5)
H42 H 1.1471 0.2939 0.4574
H43 H 0.8377 0.3140 0.4567
C48 C 1.112(3) 0.3760(6) 0.4863(6)
H44 H 0.9719 0.3976 0.4734
H45 H 1.2829 0.3769 0.4701
H46 H 1.1484 0.3924 0.5214
C49 C 0.0165(14) -0.0521(3) 0.6812(3)
H47 H 0.0222 -0.0620 0.7112
C50 C -0.1563(16) -0.0825(3) 0.6382(3)
C51 C -0.3512(18) -0.1376(4) 0.6297(3)
H48 H -0.5421 -0.1279 0.6211
H49 H -0.2906 -0.1663 0.6014
C52 C -0.356(2) -0.1641(4) 0.6734(4)
H50 H -0.4508 -0.1390 0.6999
H51 H -0.1647 -0.1687 0.6859
C53 C -0.515(2) -0.2243(4) 0.6564(4)
H52 H -0.4179 -0.2496 0.6304
H53 H -0.7049 -0.2198 0.6432
C54 C -0.527(3) -0.2504(5) 0.6997(5)
H54 H -0.6360 -0.2266 0.7248
H55 H -0.3380 -0.2526 0.7144
C55 C -0.667(3) -0.3126(5) 0.6812(5)
H56 H -0.8585 -0.3116 0.6670
H57 H -0.5581 -0.3378 0.6570
C56 C -0.662(3) -0.3304(7) 0.7283(6)
H58 H -0.4721 -0.3285 0.7426
H59 H -0.7359 -0.3690 0.7216
H60 H -0.7760 -0.3052 0.7512
I3 I 1.33301(10) 0.20363(2) 0.904449(19)
I4 I 1.03878(10) 0.07922(2) 0.940871(17)
N3 N 0.7208(12) 0.1166(2) 0.7233(2)
N4 N 0.4488(11) 0.0255(2) 0.7555(2)
S3 S 0.2602(5) 0.05499(12) 0.54697(8)
S4 S -0.1158(5) -0.05309(10) 0.58823(8)
loop_
_geom_bond_atom_site_label_1
_geom_bond_atom_site_label_2
_geom_bond_site_symmetry_1
_geom_bond_site_symmetry_2
C1 C2 1_555 1_555
C2 C3 1_555 1_555
C3 H1 1_555 1_555
C4 C3 1_555 1_555
C5 C4 1_555 1_555
C6 C1 1_555 1_555
H2 C6 1_555 1_555
C7 C8 1_555 1_555
C8 C9 1_555 1_555
C9 C10 1_555 1_555
C10 C11 1_555 1_555
C11 C12 1_555 1_555
C12 C7 1_555 1_555
C13 C12 1_555 1_555
H3 C13 1_555 1_555
C14 C13 1_555 1_555
C15 C14 1_555 1_555
H4 C15 1_555 1_555
H5 C15 1_555 1_555
C16 C15 1_555 1_555
H6 C16 1_555 1_555
H7 C16 1_555 1_555
C17 C16 1_555 1_555
H8 C17 1_555 1_555
H9 C17 1_555 1_555
C18 C17 1_555 1_555
H10 C18 1_555 1_555
H11 C18 1_555 1_555
C19 C18 1_555 1_555
H12 C19 1_555 1_555
H13 C19 1_555 1_555
C20 C19 1_555 1_555
H14 C20 1_555 1_555
H15 C20 1_555 1_555
H16 C20 1_555 1_555
C21 C9 1_555 1_555
H17 C21 1_555 1_555
C22 C21 1_555 1_555
C23 C22 1_555 1_555
H18 C23 1_555 1_555
H19 C23 1_555 1_555
C24 C23 1_555 1_555
H20 C24 1_555 1_555
H21 C24 1_555 1_555
C25 C24 1_555 1_555
H22 C25 1_555 1_555
H23 C25 1_555 1_555
C26 C25 1_555 1_555
H24 C26 1_555 1_555
H25 C26 1_555 1_555
C27 C26 1_555 1_555
H26 C27 1_555 1_555
H27 C27 1_555 1_555
C28 C27 1_555 1_555
H28 C28 1_555 1_555
H29 C28 1_555 1_555
H30 C28 1_555 1_555
I1 C1 1_555 1_555
I2 C2 1_555 1_555
N1 C5 1_555 1_555
N2 C4 1_555 1_555
S1 C11 1_555 1_555
S2 C10 1_555 1_555
C29 C30 1_555 1_555
C30 C31 1_555 1_555
C31 H31 1_555 1_555
C32 C31 1_555 1_555
C33 C32 1_555 1_555
C34 C29 1_555 1_555
H32 C34 1_555 1_555
C35 C36 1_555 1_555
C36 C37 1_555 1_555
C37 C38 1_555 1_555
C38 C39 1_555 1_555
C39 C40 1_555 1_555
C40 C35 1_555 1_555
C41 C40 1_555 1_555
H33 C41 1_555 1_555
C42 C41 1_555 1_555
C43 C42 1_555 1_555
H34 C43 1_555 1_555
H35 C43 1_555 1_555
C44 C43 1_555 1_555
H36 C44 1_555 1_555
H37 C44 1_555 1_555
C45 C44 1_555 1_555
H38 C45 1_555 1_555
H39 C45 1_555 1_555
C46 C45 1_555 1_555
H40 C46 1_555 1_555
H41 C46 1_555 1_555
C47 C46 1_555 1_555
H42 C47 1_555 1_555
H43 C47 1_555 1_555
C48 C47 1_555 1_555
H44 C48 1_555 1_555
H45 C48 1_555 1_555
H46 C48 1_555 1_555
C49 C37 1_555 1_555
H47 C49 1_555 1_555
C50 C49 1_555 1_555
C51 C50 1_555 1_555
H48 C51 1_555 1_555
H49 C51 1_555 1_555
C52 C51 1_555 1_555
H50 C52 1_555 1_555
H51 C52 1_555 1_555
C53 C52 1_555 1_555
H52 C53 1_555 1_555
H53 C53 1_555 1_555
C54 C53 1_555 1_555
H54 C54 1_555 1_555
H55 C54 1_555 1_555
C55 C54 1_555 1_555
H56 C55 1_555 1_555
H57 C55 1_555 1_555
C56 C55 1_555 1_555
H58 C56 1_555 1_555
H59 C56 1_555 1_555
H60 C56 1_555 1_555
I3 C29 1_555 1_555
I4 C30 1_555 1_555
N3 C33 1_555 1_555
N4 C32 1_555 1_555
S3 C39 1_555 1_555
S4 C38 1_555 1_555
C5 C6 1_555 1_555
C7 N1 1_555 1_555
C8 N2 1_555 1_555
C14 S1 1_555 1_555
C22 S2 1_555 1_555
C33 C34 1_555 1_555
C35 N3 1_555 1_555
C36 N4 1_555 1_555
C42 S3 1_555 1_555
C50 S4 1_555 1_555

#END
