
#######################################################################
#
#                 Cambridge Crystallographic Data Centre
#                                CCDC 
#
#######################################################################
#
# If this CIF has been generated from an entry in the Cambridge 
# Structural Database, then it will include bibliographic, chemical, 
# crystal, experimental, refinement or atomic coordinate data resulting 
# from the CCDC's data processing and validation procedures.
#
#######################################################################

data_BEDWAL
_chemical_formula_moiety         'C28 H30 Cl2 N2 S2'
_chemical_name_systematic        
9,10-dichloro-2,5-dihexylbisthieno[3,2-a:2',3'-c]phenazine
_symmetry_cell_setting           tetragonal
_symmetry_space_group_name_H-M   'I 4/m'
_symmetry_Int_Tables_number      87
_space_group_name_Hall           '-I 4'
loop_
_symmetry_equiv_pos_site_id
_symmetry_equiv_pos_as_xyz
1 x,y,z
2 -x,-y,z
3 -y,x,z
4 y,-x,z
5 1/2+x,1/2+y,1/2+z
6 1/2-x,1/2-y,1/2+z
7 1/2-y,1/2+x,1/2+z
8 1/2+y,1/2-x,1/2+z
9 -x,-y,-z
10 x,y,-z
11 y,-x,-z
12 -y,x,-z
13 1/2-x,1/2-y,1/2-z
14 1/2+x,1/2+y,1/2-z
15 1/2+y,1/2-x,1/2-z
16 1/2-y,1/2+x,1/2-z
_cell_length_a                   27.803(4)
_cell_length_b                   27.803(4)
_cell_length_c                   7.5600(15)
_cell_angle_alpha                90
_cell_angle_beta                 90
_cell_angle_gamma                90
_cell_volume                     5843.93
_exptl_crystal_colour            orange
_exptl_crystal_description       block
_cell_formula_units_Z            8
loop_
_atom_site_label
_atom_site_type_symbol
_atom_site_fract_x
_atom_site_fract_y
_atom_site_fract_z
C1 C 0.42410(18) 0.63005(17) 0.0000
C2 C 0.37370(17) 0.64770(17) 0.0000
C3 C 0.36447(18) 0.69772(18) 0.0000
H1 H 0.3329 0.7089 0.0000
C4 C 0.40466(17) 0.73205(16) 0.0000
C5 C 0.45431(16) 0.71415(16) 0.0000
C6 C 0.46280(17) 0.66256(17) 0.0000
H2 H 0.4942 0.6509 0.0000
C7 C 0.48366(16) 0.79358(16) 0.0000
C8 C 0.43267(16) 0.81178(16) 0.0000
C9 C 0.42473(17) 0.86502(16) 0.0000
C10 C 0.46521(17) 0.89703(15) 0.0000
C11 C 0.51484(17) 0.87853(16) 0.0000
C12 C 0.52436(16) 0.82752(16) 0.0000
C13 C 0.57574(17) 0.81745(16) 0.0000
H3 H 0.5883 0.7864 0.0000
C14 C 0.60463(18) 0.85885(17) 0.0000
C15 C 0.37886(18) 0.89132(16) 0.0000
H4 H 0.3490 0.8763 0.0000
C16 C 0.38489(18) 0.94201(17) 0.0000
C17 C 0.34677(17) 0.98299(16) 0.0000
H5 H 0.3521 1.0029 0.1034
C18 C 0.29363(18) 0.96652(18) 0.0000
H6 H 0.2875 0.9469 0.1038
C19 C 0.25817(19) 1.0116(2) 0.0000
H7 H 0.2647 1.0311 0.1036
C20 C 0.2038(2) 0.9973(2) 0.0000
H8 H 0.1971 0.9778 0.1037
C21 C 0.1692(2) 1.0424(3) 0.0000
H9 H 0.1758 1.0619 -0.1038
C22 C 0.1143(3) 1.0271(3) 0.0000
C23 C 0.6603(2) 0.8641(2) 0.0000
H10 H 0.6695 0.8826 -0.1034
C24 C 0.6887(3) 0.8185(3) 0.0000
H11 H 0.6795 0.8000 -0.1034
C25 C 0.7442(3) 0.8238(3) 0.0000
H12 H 0.7533 0.8424 -0.1033
C26 C 0.7730(5) 0.7788(5) 0.0000
H13 H 0.7620 0.7609 -0.1024
C27 C 0.8305(9) 0.7727(9) 0.0000
H14 H 0.8404 0.7547 0.1039
C28 C 0.8488(9) 0.8096(10) 0.0000
Cl1 Cl 0.43501(5) 0.56650(4) 0.0000
Cl2 Cl 0.32589(5) 0.60541(5) 0.0000
N1 N 0.49354(14) 0.74500(13) 0.0000
N2 N 0.39427(14) 0.78119(13) 0.0000
S1 S 0.56918(4) 0.91207(4) 0.0000
S2 S 0.44731(5) 0.95810(4) 0.0000
H5I H 0.3521 1.0029 -0.1034
H6I H 0.2875 0.9469 -0.1038
H7I H 0.2647 1.0311 -0.1036
H8I H 0.1971 0.9778 -0.1037
H9I H 0.1758 1.0619 0.1038
H10I H 0.6695 0.8826 0.1034
H11I H 0.6795 0.8000 0.1034
H12I H 0.7533 0.8424 0.1033
H13I H 0.7620 0.7609 0.1024
H14I H 0.8404 0.7547 -0.1039
H15? H 0.3521 1.0029 0.1034
H16? H 0.2875 0.9469 0.1038
H17? H 0.2647 1.0311 0.1036
H18? H 0.1971 0.9778 0.1037
H19? H 0.1758 1.0619 -0.1038
H20? H 0.6695 0.8826 -0.1034
H21? H 0.6795 0.8000 -0.1034
H22? H 0.7533 0.8424 -0.1033
H23? H 0.7620 0.7609 -0.1024
H24? H 0.8404 0.7547 0.1039
H25? H 0.8745 0.8097 -0.0850
H26? H 0.8616 0.8161 0.1155
H27? H 0.8257 0.8339 -0.0306
H28? H 0.0950 1.0536 0.0403
H29? H 0.1099 1.0001 0.0775
H30? H 0.1048 1.0184 -0.1178
loop_
_geom_bond_atom_site_label_1
_geom_bond_atom_site_label_2
_geom_bond_site_symmetry_1
_geom_bond_site_symmetry_2
C1 C2 1_555 1_555
C2 C3 1_555 1_555
C3 H1 1_555 1_555
C4 C3 1_555 1_555
C5 C4 1_555 1_555
C6 C1 1_555 1_555
H2 C6 1_555 1_555
C7 C8 1_555 1_555
C8 C9 1_555 1_555
C9 C10 1_555 1_555
C10 C11 1_555 1_555
C11 C12 1_555 1_555
C12 C7 1_555 1_555
C13 C12 1_555 1_555
H3 C13 1_555 1_555
C14 C13 1_555 1_555
C15 C9 1_555 1_555
H4 C15 1_555 1_555
C16 C15 1_555 1_555
C17 C16 1_555 1_555
H5 C17 1_555 1_555
C18 C17 1_555 1_555
H6 C18 1_555 1_555
C19 C18 1_555 1_555
H7 C19 1_555 1_555
C20 C19 1_555 1_555
H8 C20 1_555 1_555
C21 C20 1_555 1_555
H9 C21 1_555 1_555
C22 C21 1_555 1_555
C23 C14 1_555 1_555
H10 C23 1_555 1_555
C24 C23 1_555 1_555
H11 C24 1_555 1_555
C25 C24 1_555 1_555
H12 C25 1_555 1_555
C26 C25 1_555 1_555
H13 C26 1_555 1_555
C27 C26 1_555 1_555
H14 C27 1_555 1_555
C28 C27 1_555 1_555
Cl1 C1 1_555 1_555
Cl2 C2 1_555 1_555
N1 C5 1_555 1_555
N2 C4 1_555 1_555
S1 C11 1_555 1_555
S2 C10 1_555 1_555
H5I C17 1_555 1_555
H6I C18 1_555 1_555
H7I C19 1_555 1_555
H8I C20 1_555 1_555
H9I C21 1_555 1_555
H10I C23 1_555 1_555
H11I C24 1_555 1_555
H12I C25 1_555 1_555
H13I C26 1_555 1_555
H14I C27 1_555 1_555
C5 C6 1_555 1_555
C7 N1 1_555 1_555
C8 N2 1_555 1_555
C14 S1 1_555 1_555
C16 S2 1_555 1_555

#END
