
#######################################################################
#
#                 Cambridge Crystallographic Data Centre
#                                CCDC 
#
#######################################################################
#
# If this CIF has been generated from an entry in the Cambridge 
# Structural Database, then it will include bibliographic, chemical, 
# crystal, experimental, refinement or atomic coordinate data resulting 
# from the CCDC's data processing and validation procedures.
#
#######################################################################

data_BEFDUM
_chemical_formula_moiety         'C48 H73 Br1 O35,5(H2 O1)'
_chemical_name_systematic        
'6-O-(4-bromophenyl)-\b-cyclodextrin pentahydrate'
_symmetry_cell_setting           orthorhombic
_symmetry_space_group_name_H-M   'P 21 21 21'
_symmetry_Int_Tables_number      19
_space_group_name_Hall           'P 2ac 2ab'
loop_
_symmetry_equiv_pos_site_id
_symmetry_equiv_pos_as_xyz
1 x,y,z
2 1/2-x,-y,1/2+z
3 -x,1/2+y,1/2-z
4 1/2+x,1/2-y,-z
_cell_length_a                   13.401(3)
_cell_length_b                   19.157(5)
_cell_length_c                   28.489(7)
_cell_angle_alpha                90
_cell_angle_beta                 90
_cell_angle_gamma                90
_cell_volume                     7313.78
_cell_formula_units_Z            4
loop_
_atom_site_label
_atom_site_type_symbol
_atom_site_fract_x
_atom_site_fract_y
_atom_site_fract_z
C1 C 0.8042(11) 0.3907(7) 1.0747(5)
H1 H 0.8249 0.4048 1.1063
C2 C 0.7856(8) 0.4390(6) 0.8914(4)
H2 H 0.8220 0.4807 0.9017
C3 C 0.6484(8) 0.2786(5) 0.7539(3)
H3 H 0.6708 0.3192 0.7358
C4 C 0.5194(8) 0.0184(5) 0.7711(3)
H4 H 0.5084 0.0246 0.7374
C5 C 0.5541(14) -0.1438(6) 0.9208(4)
H5 H 0.5452 -0.1793 0.8963
C6 C 0.6413(7) -0.0850(5) 1.0982(3)
H6 H 0.6308 -0.1355 1.1005
C7 C 0.7906(9) 0.1509(6) 1.1652(4)
H7 H 0.8095 0.1213 1.1918
C8 C 0.7138(11) 0.4389(6) 1.0592(5)
H8 H 0.7342 0.4879 1.0617
O1 O 0.6340(9) 0.4274(5) 1.0892(3)
H9 H 0.6503 0.3993 1.1095
C9 C 0.6929(8) 0.4627(6) 0.8629(4)
H10 H 0.7149 0.4924 0.8369
O2 O 0.6276(6) 0.5026(4) 0.8930(3)
H11 H 0.6246 0.4840 0.9189
C10 C 0.5422(9) 0.2642(6) 0.7426(4)
H12 H 0.5366 0.2555 0.7088
O3 O 0.4871(6) 0.3227(4) 0.7535(3)
H13 H 0.4410 0.3267 0.7347
C11 C 0.4214(8) -0.0026(6) 0.7943(4)
H14 H 0.3955 -0.0442 0.7784
O4 O 0.3511(6) 0.0517(4) 0.7895(3)
H15 H 0.3786 0.0864 0.7787
C12 C 0.4725(11) -0.1537(8) 0.9585(4)
H16 H 0.4752 -0.2018 0.9701
O5 O 0.3776(8) -0.1410(5) 0.9403(3)
H17 H 0.3812 -0.1112 0.9197
C13 C 0.5766(8) -0.0504(6) 1.1333(4)
H18 H 0.5904 -0.0712 1.1641
O6 O 0.4749(6) -0.0610(4) 1.1229(3)
H19 H 0.4472 -0.0788 1.1456
C14 C 0.7276(9) 0.2159(6) 1.1834(4)
H20 H 0.7692 0.2415 1.2058
O7 O 0.6413(7) 0.1927(5) 1.2077(3)
H21 H 0.6211 0.1563 1.1958
C15 C 0.6920(9) 0.4219(6) 1.0077(4)
H22 H 0.6631 0.3751 1.0055
O8 O 0.6201(8) 0.4727(5) 0.9919(3)
H23 H 0.5636 0.4571 0.9954
C16 C 0.6390(7) 0.4001(5) 0.8432(3)
H24 H 0.6117 0.3725 0.8692
O9 O 0.5598(5) 0.4237(3) 0.8146(2)
H25 H 0.5234 0.4495 0.8298
C17 C 0.5094(7) 0.1977(5) 0.7692(3)
H26 H 0.5090 0.2071 0.8030
O10 O 0.4099(6) 0.1806(4) 0.7541(3)
H27 H 0.3939 0.1425 0.7647
C18 C 0.4404(8) -0.0206(6) 0.8469(4)
H28 H 0.4585 0.0223 0.8636
O11 O 0.3503(7) -0.0461(5) 0.8650(3)
H29 H 0.3620 -0.0746 0.8858
C19 C 0.4944(10) -0.1050(8) 0.9983(4)
H30 H 0.4881 -0.0570 0.9867
O12 O 0.4190(7) -0.1154(6) 1.0361(3)
H31 H 0.4399 -0.0987 1.0607
C20 C 0.6011(8) 0.0297(5) 1.1360(4)
H32 H 0.5782 0.0514 1.1068
O13 O 0.5477(6) 0.0608(4) 1.1735(3)
H33 H 0.5762 0.0966 1.1818
C21 C 0.7061(8) 0.2629(6) 1.1441(4)
H34 H 0.6608 0.2392 1.1223
O14 O 0.6571(7) 0.3236(5) 1.1621(3)
H35 H 0.6469 0.3512 1.1407
C22 C 0.7835(9) 0.4265(6) 0.9762(4)
H36 H 0.8083 0.4745 0.9745
O15 O 0.7552(5) 0.4020(3) 0.9311(2)
C23 C 0.7111(7) 0.3560(5) 0.8161(4)
H37 H 0.7333 0.3816 0.7882
O16 O 0.6572(5) 0.2934(3) 0.8015(2)
C24 C 0.5775(8) 0.1375(5) 0.7592(4)
H38 H 0.5684 0.1219 0.7267
O17 O 0.5523(5) 0.0825(3) 0.7907(2)
C25 C 0.5228(9) -0.0711(6) 0.8512(3)
H39 H 0.5015 -0.1164 0.8388
O18 O 0.5408(7) -0.0770(4) 0.9006(2)
C26 C 0.5954(9) -0.1140(6) 1.0163(4)
H40 H 0.6026 -0.1610 1.0295
O19 O 0.6109(6) -0.0629(3) 1.0526(2)
C27 C 0.7090(7) 0.0413(5) 1.1397(4)
H41 H 0.7305 0.0265 1.1710
O20 O 0.7250(5) 0.1146(4) 1.1360(2)
C28 C 0.7973(8) 0.2826(5) 1.1186(3)
H42 H 0.8402 0.3111 1.1388
O21 O 0.7721(6) 0.3213(4) 1.0767(3)
C29 C 0.8655(9) 0.3764(7) 0.9959(5)
H43 H 0.8458 0.3273 0.9935
O22 O 0.8859(7) 0.3969(5) 1.0451(3)
C30 C 0.7997(8) 0.3332(6) 0.8436(4)
H44 H 0.7757 0.3054 0.8702
O23 O 0.8490(5) 0.3988(4) 0.8632(3)
C31 C 0.6855(8) 0.1568(6) 0.7673(4)
H45 H 0.6966 0.1642 0.8010
O24 O 0.7109(5) 0.2191(4) 0.7422(3)
C32 C 0.6174(8) -0.0484(5) 0.8268(3)
H46 H 0.6406 -0.0052 0.8417
O25 O 0.5942(5) -0.0329(3) 0.7779(2)
C33 C 0.6702(9) -0.1037(7) 0.9773(4)
H47 H 0.6640 -0.0561 0.9651
O26 O 0.6493(9) -0.1518(4) 0.9408(3)
C34 C 0.7681(8) 0.0013(6) 1.1043(3)
H48 H 0.7486 0.0185 1.0732
O27 O 0.7436(5) -0.0713(4) 1.1060(2)
C35 C 0.8558(8) 0.2166(6) 1.1016(3)
H49 H 0.8124 0.1901 1.0804
O28 O 0.8751(5) 0.1741(4) 1.1425(2)
C36 C 0.9701(14) 0.3916(13) 0.9698(6)
H50 H 0.9661 0.4371 0.9549
H51 H 1.0223 0.3940 0.9934
O29 O 0.9938(17) 0.3494(12) 0.9407(10)
H52 H 0.9598 0.3549 0.9171
C37 C 0.8737(13) 0.2926(10) 0.8192(8)
C38 C 0.7589(10) 0.1017(7) 0.7492(7)
H53 H 0.7422 0.0572 0.7634
H54 H 0.7499 0.0970 0.7156
O30 O 0.8573(8) 0.1154(7) 0.7579(6)
H55 H 0.8918 0.0841 0.7470
C39 C 0.6986(9) -0.0997(6) 0.8290(4)
H56 H 0.7178 -0.1072 0.8614
H57 H 0.7563 -0.0820 0.8121
O31 O 0.6663(7) -0.1660(4) 0.8081(3)
H58 H 0.6199 -0.1588 0.7899
C40 C 0.7717(13) -0.1162(9) 0.9898(6)
H59 H 0.8127 -0.1130 0.9618
H60 H 0.7934 -0.0801 1.0114
O32 O 0.7863(10) -0.1798(8) 1.0101(5)
H61 H 0.8458 -0.1850 1.0158
C41 C 0.8823(8) 0.0068(6) 1.1075(4)
H62 H 0.9129 -0.0218 1.0834
H63 H 0.9030 0.0548 1.1027
O33 O 0.9127(5) -0.0159(4) 1.1516(2)
H64 H 0.9548 0.0111 1.1621
C42 C 0.9524(9) 0.2292(6) 1.0772(4)
H65 H 0.9883 0.1855 1.0738
H66 H 0.9402 0.2479 1.0461
O34 O 1.0106(6) 0.2771(4) 1.1037(2)
C43 C 1.0951(8) 0.3027(6) 1.0831(4)
C44 C 1.1393(11) 0.2747(7) 1.0438(5)
H67 H 1.1125 0.2346 1.0304
C45 C 1.2229(10) 0.3050(7) 1.0237(5)
H68 H 1.2532 0.2854 0.9975
C46 C 1.2605(11) 0.3659(8) 1.0443(4)
C47 C 1.2180(9) 0.3918(8) 1.0822(4)
H69 H 1.2451 0.4312 1.0964
C48 C 1.1343(10) 0.3615(7) 1.1012(4)
H70 H 1.1041 0.3820 1.1272
Br1 Br 1.37728(14) 0.40637(10) 1.01699(6)
O40 O 0.9057(15) 0.3320(16) 0.7794(13)
O35 O 0.3701(13) 0.8883(12) 0.1920(5)
O36 O 0.8162(17) 0.7660(10) 0.1016(8)
O37 O 0.5508(17) 0.1586(9) 0.6310(7)
O38 O 0.958(3) 0.973(2) 0.7739(10)
O39 O 0.8180(18) 0.3829(13) 0.6791(9)
O41? O 0.9575(19) 0.2728(18) 0.8501(11)
loop_
_geom_bond_atom_site_label_1
_geom_bond_atom_site_label_2
_geom_bond_site_symmetry_1
_geom_bond_site_symmetry_2
C1 H1 1_555 1_555
C2 H2 1_555 1_555
C3 H3 1_555 1_555
C4 H4 1_555 1_555
C5 H5 1_555 1_555
C6 H6 1_555 1_555
C7 H7 1_555 1_555
C8 C1 1_555 1_555
H8 C8 1_555 1_555
O1 C8 1_555 1_555
H9 O1 1_555 1_555
C9 C2 1_555 1_555
H10 C9 1_555 1_555
O2 C9 1_555 1_555
H11 O2 1_555 1_555
C10 C3 1_555 1_555
H12 C10 1_555 1_555
O3 C10 1_555 1_555
H13 O3 1_555 1_555
C11 C4 1_555 1_555
H14 C11 1_555 1_555
O4 C11 1_555 1_555
H15 O4 1_555 1_555
C12 C5 1_555 1_555
H16 C12 1_555 1_555
O5 C12 1_555 1_555
H17 O5 1_555 1_555
C13 C6 1_555 1_555
H18 C13 1_555 1_555
O6 C13 1_555 1_555
H19 O6 1_555 1_555
C14 C7 1_555 1_555
H20 C14 1_555 1_555
O7 C14 1_555 1_555
H21 O7 1_555 1_555
C15 C8 1_555 1_555
H22 C15 1_555 1_555
O8 C15 1_555 1_555
H23 O8 1_555 1_555
C16 C9 1_555 1_555
H24 C16 1_555 1_555
O9 C16 1_555 1_555
H25 O9 1_555 1_555
C17 C10 1_555 1_555
H26 C17 1_555 1_555
O10 C17 1_555 1_555
H27 O10 1_555 1_555
C18 C11 1_555 1_555
H28 C18 1_555 1_555
O11 C18 1_555 1_555
H29 O11 1_555 1_555
C19 C12 1_555 1_555
H30 C19 1_555 1_555
O12 C19 1_555 1_555
H31 O12 1_555 1_555
C20 C13 1_555 1_555
H32 C20 1_555 1_555
O13 C20 1_555 1_555
H33 O13 1_555 1_555
C21 C14 1_555 1_555
H34 C21 1_555 1_555
O14 C21 1_555 1_555
H35 O14 1_555 1_555
C22 C15 1_555 1_555
H36 C22 1_555 1_555
O15 C2 1_555 1_555
C23 C16 1_555 1_555
H37 C23 1_555 1_555
O16 C3 1_555 1_555
C24 C17 1_555 1_555
H38 C24 1_555 1_555
O17 C4 1_555 1_555
C25 C18 1_555 1_555
H39 C25 1_555 1_555
O18 C5 1_555 1_555
C26 C19 1_555 1_555
H40 C26 1_555 1_555
O19 C6 1_555 1_555
C27 C20 1_555 1_555
H41 C27 1_555 1_555
O20 C7 1_555 1_555
C28 C21 1_555 1_555
H42 C28 1_555 1_555
O21 C1 1_555 1_555
C29 C22 1_555 1_555
H43 C29 1_555 1_555
O22 C1 1_555 1_555
C30 C23 1_555 1_555
H44 C30 1_555 1_555
O23 C2 1_555 1_555
C31 C24 1_555 1_555
H45 C31 1_555 1_555
O24 C3 1_555 1_555
C32 C25 1_555 1_555
H46 C32 1_555 1_555
O25 C4 1_555 1_555
C33 C26 1_555 1_555
H47 C33 1_555 1_555
O26 C5 1_555 1_555
C34 C27 1_555 1_555
H48 C34 1_555 1_555
O27 C6 1_555 1_555
C35 C28 1_555 1_555
H49 C35 1_555 1_555
O28 C7 1_555 1_555
C36 C29 1_555 1_555
H50 C36 1_555 1_555
H51 C36 1_555 1_555
O29 C36 1_555 1_555
H52 O29 1_555 1_555
C37 C30 1_555 1_555
C38 C31 1_555 1_555
H53 C38 1_555 1_555
H54 C38 1_555 1_555
O30 C38 1_555 1_555
H55 O30 1_555 1_555
C39 C32 1_555 1_555
H56 C39 1_555 1_555
H57 C39 1_555 1_555
O31 C39 1_555 1_555
H58 O31 1_555 1_555
C40 C33 1_555 1_555
H59 C40 1_555 1_555
H60 C40 1_555 1_555
O32 C40 1_555 1_555
H61 O32 1_555 1_555
C41 C34 1_555 1_555
H62 C41 1_555 1_555
H63 C41 1_555 1_555
O33 C41 1_555 1_555
H64 O33 1_555 1_555
C42 C35 1_555 1_555
H65 C42 1_555 1_555
H66 C42 1_555 1_555
O34 C42 1_555 1_555
C43 O34 1_555 1_555
C44 C43 1_555 1_555
H67 C44 1_555 1_555
C45 C44 1_555 1_555
H68 C45 1_555 1_555
C46 C45 1_555 1_555
C47 C46 1_555 1_555
H69 C47 1_555 1_555
C48 C43 1_555 1_555
H70 C48 1_555 1_555
Br1 C46 1_555 1_555
O40 C37 1_555 1_555
C22 O15 1_555 1_555
C23 O16 1_555 1_555
C24 O17 1_555 1_555
C25 O18 1_555 1_555
C26 O19 1_555 1_555
C27 O20 1_555 1_555
C28 O21 1_555 1_555
C29 O22 1_555 1_555
C30 O23 1_555 1_555
C31 O24 1_555 1_555
C32 O25 1_555 1_555
C33 O26 1_555 1_555
C34 O27 1_555 1_555
C35 O28 1_555 1_555
C47 C48 1_555 1_555

#END
