
#######################################################################
#
#                 Cambridge Crystallographic Data Centre
#                                CCDC 
#
#######################################################################
#
# If this CIF has been generated from an entry in the Cambridge 
# Structural Database, then it will include bibliographic, chemical, 
# crystal, experimental, refinement or atomic coordinate data resulting 
# from the CCDC's data processing and validation procedures.
#
#######################################################################

data_BEFDAU
_chemical_name_common            
3-(morpholin-4-yl)-1-(4-(2-oxopiperidin-1-yl)phenyl)-5,6-dihydropyridin-2(1H)-one
_chemical_formula_moiety         'C20 H25 N3 O3'
_chemical_name_systematic        
5,6-dihydro-3-(4-morpholinyl)-1-(4-(2-oxo-1-piperidinyl)phenyl)-2(1H)-pyridinone
_symmetry_cell_setting           triclinic
_symmetry_space_group_name_H-M   'P -1'
_symmetry_Int_Tables_number      2
_space_group_name_Hall           '-P 1'
loop_
_symmetry_equiv_pos_site_id
_symmetry_equiv_pos_as_xyz
1 x,y,z
2 -x,-y,-z
_cell_length_a                   6.0164(5)
_cell_length_b                   6.6483(8)
_cell_length_c                   24.700(3)
_cell_angle_alpha                83.957(10)
_cell_angle_beta                 89.451(9)
_cell_angle_gamma                69.222(10)
_cell_volume                     918.173
_cell_formula_units_Z            2
_exptl_crystal_recrystallization_method methanol
loop_
_atom_site_label
_atom_site_type_symbol
_atom_site_fract_x
_atom_site_fract_y
_atom_site_fract_z
O1 O 0.1476(5) 0.9078(5) 0.42112(13)
O2 O 1.0302(5) 0.5503(5) 0.20639(12)
O3 O 1.4014(8) 0.2799(8) 0.02918(17)
N1 N 0.4228(5) 1.0438(5) 0.38793(12)
N2 N 0.7453(6) 0.4232(5) 0.23805(13)
N3 N 1.1738(6) 0.2605(6) 0.12949(14)
C1 C 0.4423(9) 1.3768(8) 0.4194(2)
H1 H 0.5602 1.4347 0.4302
H2 H 0.3324 1.4849 0.3934
C2 C 0.3106(9) 1.3416(8) 0.4677(2)
H3 H 0.2166 1.4806 0.4795
H4 H 0.4232 1.2608 0.4970
C3 C 0.1500(8) 1.2214(7) 0.45732(18)
H5 H 0.0015 1.3253 0.4415
H6 H 0.1145 1.1594 0.4922
C4 C 0.2396(7) 1.0428(6) 0.42087(16)
C5 C 0.5629(8) 1.1816(7) 0.39237(19)
H7 H 0.6039 1.2253 0.3561
H8 H 0.7100 1.0973 0.4124
C6 C 0.5052(6) 0.8827(6) 0.35075(15)
C7 C 0.3488(7) 0.8631(6) 0.31266(16)
H9 H 0.1897 0.9527 0.3119
C8 C 0.4264(7) 0.7128(6) 0.27599(16)
H10 H 0.3192 0.6995 0.2510
C9 C 0.6646(7) 0.5806(6) 0.27612(15)
C10 C 0.8205(7) 0.5999(6) 0.31412(15)
H11 H 0.9797 0.5105 0.3150
C11 C 0.7407(6) 0.7521(6) 0.35100(15)
H12 H 0.8474 0.7658 0.3761
C12 C 0.5967(7) 0.2962(6) 0.22753(17)
H13 H 0.4949 0.3635 0.1955
H14 H 0.4963 0.2922 0.2583
C13 C 0.7535(8) 0.0701(6) 0.21872(19)
H15 H 0.8342 -0.0056 0.2527
H16 H 0.6572 -0.0077 0.2066
C14 C 0.9306(8) 0.0761(7) 0.17748(18)
H17 H 0.9937 -0.0407 0.1573
C15 C 1.0032(7) 0.2441(6) 0.16825(16)
C16 C 0.9267(7) 0.4209(6) 0.20551(16)
C17 C 1.2881(9) 0.0674(8) 0.1025(2)
H18 H 1.1722 0.0421 0.0797
H19 H 1.3528 -0.0572 0.1294
C18 C 1.4842(10) 0.0964(12) 0.0681(3)
H20 H 1.6049 0.1109 0.0916
H21 H 1.5576 -0.0315 0.0495
C19 C 1.2965(12) 0.4701(11) 0.0564(2)
H22 H 1.2388 0.5963 0.0297
H23 H 1.4155 0.4880 0.0797
C20 C 1.0940(10) 0.4516(8) 0.0901(2)
H24 H 1.0270 0.5795 0.1090
H25 H 0.9704 0.4436 0.0664
loop_
_geom_bond_atom_site_label_1
_geom_bond_atom_site_label_2
_geom_bond_site_symmetry_1
_geom_bond_site_symmetry_2
O1 C4 1_555 1_555
O2 C16 1_555 1_555
O3 C18 1_555 1_555
N1 C4 1_555 1_555
N2 C9 1_555 1_555
N3 C15 1_555 1_555
C1 H1 1_555 1_555
H2 C1 1_555 1_555
C2 C1 1_555 1_555
H3 C2 1_555 1_555
H4 C2 1_555 1_555
C3 C2 1_555 1_555
H5 C3 1_555 1_555
H6 C3 1_555 1_555
C4 C3 1_555 1_555
C5 N1 1_555 1_555
H7 C5 1_555 1_555
H8 C5 1_555 1_555
C6 N1 1_555 1_555
C7 C6 1_555 1_555
H9 C7 1_555 1_555
C8 C7 1_555 1_555
H10 C8 1_555 1_555
C9 C8 1_555 1_555
C10 C9 1_555 1_555
H11 C10 1_555 1_555
C11 C6 1_555 1_555
H12 C11 1_555 1_555
C12 N2 1_555 1_555
H13 C12 1_555 1_555
H14 C12 1_555 1_555
C13 C12 1_555 1_555
H15 C13 1_555 1_555
H16 C13 1_555 1_555
C14 C13 1_555 1_555
H17 C14 1_555 1_555
C15 C14 1_555 1_555
C16 N2 1_555 1_555
C17 N3 1_555 1_555
H18 C17 1_555 1_555
H19 C17 1_555 1_555
C18 C17 1_555 1_555
H20 C18 1_555 1_555
H21 C18 1_555 1_555
C19 O3 1_555 1_555
H22 C19 1_555 1_555
H23 C19 1_555 1_555
C20 N3 1_555 1_555
H24 C20 1_555 1_555
H25 C20 1_555 1_555
C1 C5 1_555 1_555
C10 C11 1_555 1_555
C15 C16 1_555 1_555
C19 C20 1_555 1_555

#END
