
#######################################################################
#
#                 Cambridge Crystallographic Data Centre
#                                CCDC 
#
#######################################################################
#
# If this CIF has been generated from an entry in the Cambridge 
# Structural Database, then it will include bibliographic, chemical, 
# crystal, experimental, refinement or atomic coordinate data resulting 
# from the CCDC's data processing and validation procedures.
#
#######################################################################

data_BEFFAU
_chemical_formula_moiety         'C48 H74 O34 Se1,3(H2 O1)'
_chemical_name_systematic        
'mono-6-phenylseleno-6-deoxy-\b-cyclodextrin trihydrate'
_symmetry_cell_setting           tetragonal
_symmetry_space_group_name_H-M   'P 41 21 2'
_symmetry_Int_Tables_number      92
_space_group_name_Hall           'P 4abw 2nw'
loop_
_symmetry_equiv_pos_site_id
_symmetry_equiv_pos_as_xyz
1 x,y,z
2 -x,-y,1/2+z
3 1/2-y,1/2+x,1/4+z
4 1/2+y,1/2-x,3/4+z
5 1/2-x,1/2+y,1/4-z
6 1/2+x,1/2-y,3/4-z
7 y,x,-z
8 -y,-x,1/2-z
_cell_length_a                   22.074(15)
_cell_length_b                   22.074(15)
_cell_length_c                   28.61(4)
_cell_angle_alpha                90
_cell_angle_beta                 90
_cell_angle_gamma                90
_cell_volume                     13940.6
_cell_formula_units_Z            8
loop_
_atom_site_label
_atom_site_type_symbol
_atom_site_fract_x
_atom_site_fract_y
_atom_site_fract_z
Se1 Se 0.45118(17) 0.83203(17) 0.07605(10)
O1 O 0.3752(6) 0.8351(7) 0.2244(4)
O2 O 0.3726(7) 0.7300(7) 0.2085(5)
O3 O 0.4538(13) 0.6887(17) 0.1365(8)
H1 H 0.4207 0.6778 0.1264
O4 O 0.4171(7) 0.7312(8) 0.3486(5)
H2 H 0.4486 0.7128 0.3537
O5 O 0.3285(8) 0.8183(7) 0.3129(5)
H3 H 0.3103 0.8062 0.3360
O6 O 0.5080(7) 0.7002(7) 0.2807(5)
O7 O 0.5750(7) 0.6251(7) 0.2561(6)
O8 O 0.6869(10) 0.5865(10) 0.2213(7)
H4 H 0.7232 0.5862 0.2154
O9 O 0.6517(8) 0.6971(9) 0.3763(5)
H5 H 0.6862 0.7087 0.3706
O10 O 0.5235(7) 0.6662(9) 0.3736(5)
H6 H 0.4950 0.6846 0.3619
O11 O 0.7010(7) 0.7278(7) 0.2877(4)
O12 O 0.7857(7) 0.7266(7) 0.2375(5)
O13 O 0.8560(16) 0.7849(11) 0.1655(8)
H7 H 0.8737 0.8175 0.1667
O14 O 0.8431(8) 0.8467(8) 0.3412(6)
H8 H 0.8264 0.8769 0.3519
O15 O 0.7728(8) 0.7363(8) 0.3649(5)
H9 H 0.7972 0.7186 0.3817
O16 O 0.8165(7) 0.8907(8) 0.2498(5)
O17 O 0.8533(9) 0.9319(9) 0.1792(6)
O18 O 0.842(2) 0.9987(18) 0.1024(12)
H10 H 0.8341 1.0232 0.0817
O19 O 0.8333(11) 1.0790(9) 0.2692(7)
H11 H 0.8594 1.0974 0.2546
O20 O 0.8904(10) 0.9703(10) 0.3036(8)
H12 H 0.8774 0.9373 0.3121
O21 O 0.7533(8) 1.0666(8) 0.1922(6)
O22 O 0.7329(8) 1.1225(8) 0.1242(5)
O23 O 0.6894(9) 1.0609(12) 0.0427(6)
H13 H 0.6810 1.0638 0.0148
O24 O 0.6210(9) 1.1968(10) 0.2250(7)
H14 H 0.5859 1.1985 0.2158
O25 O 0.7438(9) 1.1694(10) 0.2464(7)
H15 H 0.7699 1.1957 0.2487
O26 O 0.5694(8) 1.1248(7) 0.1510(5)
O27 O 0.5010(8) 1.1163(8) 0.0899(5)
O28 O 0.5014(9) 1.0105(10) 0.0304(6)
H16 H 0.5310 0.9957 0.0435
O29 O 0.3943(8) 1.1319(8) 0.2083(6)
H17 H 0.4067 1.1482 0.2323
O30 O 0.4952(9) 1.2102(8) 0.1950(6)
H18 H 0.5310 1.2027 0.2000
O31 O 0.4024(7) 1.0188(7) 0.1631(4)
O32 O 0.3507(7) 0.9389(7) 0.1254(4)
O33 O 0.2958(10) 0.9249(9) 0.2642(5)
H19 H 0.3062 0.8939 0.2779
O34 O 0.3008(8) 1.0424(8) 0.2183(6)
H20 H 0.3298 1.0643 0.2124
C1 C 0.3447(11) 0.7795(10) 0.2348(7)
H21 H 0.3018 0.7829 0.2264
C2 C 0.4343(10) 0.7215(10) 0.2175(7)
H22 H 0.4557 0.7596 0.2113
C3 C 0.4587(12) 0.6722(11) 0.1839(8)
H23 H 0.5009 0.6645 0.1912
H24 H 0.4365 0.6349 0.1891
C4 C 0.4424(10) 0.7051(11) 0.2690(8)
H25 H 0.4228 0.6660 0.2750
C5 C 0.4166(10) 0.7514(11) 0.3012(7)
H26 H 0.4414 0.7881 0.2990
C6 C 0.3511(11) 0.7677(12) 0.2872(9)
H27 H 0.3255 0.7328 0.2948
C7 C 0.5334(11) 0.6446(12) 0.2916(7)
H28 H 0.5011 0.6144 0.2949
C8 C 0.6224(11) 0.6659(12) 0.2483(8)
H29 H 0.6048 0.7046 0.2383
C9 C 0.6625(12) 0.6415(12) 0.2082(8)
H30 H 0.6385 0.6366 0.1801
H31 H 0.6948 0.6701 0.2016
C10 C 0.6582(11) 0.6770(10) 0.2949(7)
H32 H 0.6808 0.6403 0.3032
C11 C 0.6180(10) 0.6947(10) 0.3345(7)
H33 H 0.6011 0.7349 0.3281
C12 C 0.5671(12) 0.6496(12) 0.3370(8)
H34 H 0.5842 0.6098 0.3446
C13 C 0.7654(12) 0.7120(12) 0.2830(7)
H35 H 0.7706 0.6685 0.2885
C14 C 0.7796(12) 0.7900(12) 0.2264(7)
H36 H 0.7376 0.8027 0.2319
C15 C 0.7929(18) 0.7938(16) 0.1758(11)
H37 H 0.7693 0.7633 0.1594
H38 H 0.7805 0.8332 0.1642
C16 C 0.8218(11) 0.8261(11) 0.2586(7)
H39 H 0.8639 0.8129 0.2545
C17 C 0.8015(11) 0.8155(12) 0.3086(8)
H40 H 0.7607 0.8323 0.3126
C18 C 0.7997(11) 0.7471(11) 0.3197(7)
H41 H 0.8415 0.7320 0.3204
C19 C 0.8656(12) 0.9191(13) 0.2282(10)
H42 H 0.9012 0.8928 0.2304
C20 C 0.7989(13) 0.9715(11) 0.1725(8)
H43 H 0.7646 0.9517 0.1878
C21 C 0.788(2) 0.965(3) 0.1137(19)
H44 H 0.7900 0.9236 0.1028
H45 H 0.7516 0.9847 0.1030
C22 C 0.8075(14) 1.0333(13) 0.1955(9)
H46 H 0.8406 1.0554 0.1803
C23 C 0.8219(12) 1.0232(11) 0.2473(10)
H47 H 0.7863 1.0050 0.2621
C24 C 0.8780(13) 0.9782(15) 0.2547(10)
H48 H 0.9137 0.9972 0.2406
C25 C 0.7551(12) 1.1239(12) 0.1696(10)
H49 H 0.7974 1.1373 0.1684
C26 C 0.6699(12) 1.1052(11) 0.1206(8)
H50 H 0.6644 1.0638 0.1322
C27 C 0.6528(12) 1.1084(13) 0.0707(9)
H51 H 0.6611 1.1487 0.0587
H52 H 0.6098 1.1005 0.0673
C28 C 0.6321(12) 1.1474(11) 0.1475(8)
H53 H 0.6327 1.1877 0.1331
C29 C 0.6528(13) 1.1513(12) 0.1994(9)
H54 H 0.6477 1.1119 0.2147
C30 C 0.7201(13) 1.1688(15) 0.1985(9)
H55 H 0.7244 1.2092 0.1848
C31 C 0.5241(12) 1.1579(12) 0.1254(9)
H56 H 0.5407 1.1950 0.1114
C32 C 0.4730(12) 1.0584(12) 0.1069(7)
H57 H 0.5040 1.0352 0.1237
C33 C 0.4546(12) 1.0231(12) 0.0648(8)
H58 H 0.4380 0.9847 0.0753
H59 H 0.4222 1.0450 0.0494
C34 C 0.4230(10) 1.0741(10) 0.1408(7)
H60 H 0.3893 1.0931 0.1240
C35 C 0.4451(11) 1.1158(11) 0.1793(8)
H61 H 0.4751 1.0942 0.1983
C36 C 0.4733(12) 1.1716(13) 0.1599(8)
H62 H 0.4417 1.1937 0.1429
C37 C 0.3449(11) 0.9945(12) 0.1491(7)
H63 H 0.3250 1.0237 0.1282
C38 C 0.3802(11) 0.8902(11) 0.1513(7)
H64 H 0.4213 0.9026 0.1599
C39 C 0.3833(11) 0.8356(11) 0.1186(8)
H65 H 0.3464 0.8348 0.1002
H66 H 0.3838 0.7993 0.1376
C40 C 0.3433(10) 0.8781(11) 0.1952(7)
H67 H 0.3033 0.8623 0.1869
C41 C 0.3367(12) 0.9357(11) 0.2248(7)
H68 H 0.3764 0.9491 0.2362
C42 C 0.3064(12) 0.9871(12) 0.1929(8)
H69 H 0.2659 0.9736 0.1836
C43 C 0.4256(15) 0.8688(14) 0.0235(11)
C44 C 0.3690(15) 0.8968(14) 0.0147(11)
H70 H 0.3404 0.8982 0.0386
C45 C 0.3549(18) 0.9216(17) -0.0274(12)
H71 H 0.3158 0.9353 -0.0332
C46 C 0.398(3) 0.926(2) -0.0606(10)
H72 H 0.3890 0.9470 -0.0880
C47 C 0.453(2) 0.902(2) -0.0556(14)
H73 H 0.4813 0.9033 -0.0796
C48 C 0.4663(17) 0.8747(17) -0.0138(12)
H74 H 0.5051 0.8590 -0.0099
O35 O 0.9687(18) 0.7828(15) 0.2065(10)
O36 O 0.620(2) 0.956(2) 0.0604(14)
O37 O 0.490(3) 0.334(3) 0.188(2)
loop_
_geom_bond_atom_site_label_1
_geom_bond_atom_site_label_2
_geom_bond_site_symmetry_1
_geom_bond_site_symmetry_2
Se1 C39 1_555 1_555
O1 C1 1_555 1_555
O2 C1 1_555 1_555
O3 H1 1_555 1_555
O4 H2 1_555 1_555
O5 H3 1_555 1_555
O6 C4 1_555 1_555
O7 C7 1_555 1_555
O8 H4 1_555 1_555
O9 H5 1_555 1_555
O10 H6 1_555 1_555
O11 C10 1_555 1_555
O12 C13 1_555 1_555
O13 H7 1_555 1_555
O14 H8 1_555 1_555
O15 H9 1_555 1_555
O16 C16 1_555 1_555
O17 C19 1_555 1_555
O18 H10 1_555 1_555
O19 H11 1_555 1_555
O20 H12 1_555 1_555
O21 C22 1_555 1_555
O22 C25 1_555 1_555
O23 H13 1_555 1_555
O24 H14 1_555 1_555
O25 H15 1_555 1_555
O26 C28 1_555 1_555
O27 C31 1_555 1_555
O28 H16 1_555 1_555
O29 H17 1_555 1_555
O30 H18 1_555 1_555
O31 C34 1_555 1_555
O32 C37 1_555 1_555
O33 H19 1_555 1_555
O34 H20 1_555 1_555
C1 H21 1_555 1_555
C2 O2 1_555 1_555
H22 C2 1_555 1_555
C3 O3 1_555 1_555
H23 C3 1_555 1_555
H24 C3 1_555 1_555
C4 C2 1_555 1_555
H25 C4 1_555 1_555
C5 O4 1_555 1_555
H26 C5 1_555 1_555
C6 O5 1_555 1_555
H27 C6 1_555 1_555
C7 O6 1_555 1_555
H28 C7 1_555 1_555
C8 O7 1_555 1_555
H29 C8 1_555 1_555
C9 O8 1_555 1_555
H30 C9 1_555 1_555
H31 C9 1_555 1_555
C10 C8 1_555 1_555
H32 C10 1_555 1_555
C11 O9 1_555 1_555
H33 C11 1_555 1_555
C12 O10 1_555 1_555
H34 C12 1_555 1_555
C13 O11 1_555 1_555
H35 C13 1_555 1_555
C14 O12 1_555 1_555
H36 C14 1_555 1_555
C15 O13 1_555 1_555
H37 C15 1_555 1_555
H38 C15 1_555 1_555
C16 C14 1_555 1_555
H39 C16 1_555 1_555
C17 O14 1_555 1_555
H40 C17 1_555 1_555
C18 O15 1_555 1_555
H41 C18 1_555 1_555
C19 O16 1_555 1_555
H42 C19 1_555 1_555
C20 O17 1_555 1_555
H43 C20 1_555 1_555
C21 O18 1_555 1_555
H44 C21 1_555 1_555
H45 C21 1_555 1_555
C22 C20 1_555 1_555
H46 C22 1_555 1_555
C23 O19 1_555 1_555
H47 C23 1_555 1_555
C24 O20 1_555 1_555
H48 C24 1_555 1_555
C25 O21 1_555 1_555
H49 C25 1_555 1_555
C26 O22 1_555 1_555
H50 C26 1_555 1_555
C27 O23 1_555 1_555
H51 C27 1_555 1_555
H52 C27 1_555 1_555
C28 C26 1_555 1_555
H53 C28 1_555 1_555
C29 O24 1_555 1_555
H54 C29 1_555 1_555
C30 O25 1_555 1_555
H55 C30 1_555 1_555
C31 O26 1_555 1_555
H56 C31 1_555 1_555
C32 O27 1_555 1_555
H57 C32 1_555 1_555
C33 O28 1_555 1_555
H58 C33 1_555 1_555
H59 C33 1_555 1_555
C34 C32 1_555 1_555
H60 C34 1_555 1_555
C35 O29 1_555 1_555
H61 C35 1_555 1_555
C36 O30 1_555 1_555
H62 C36 1_555 1_555
C37 O31 1_555 1_555
H63 C37 1_555 1_555
C38 O32 1_555 1_555
H64 C38 1_555 1_555
C39 C38 1_555 1_555
H65 C39 1_555 1_555
H66 C39 1_555 1_555
C40 O1 1_555 1_555
H67 C40 1_555 1_555
C41 O33 1_555 1_555
H68 C41 1_555 1_555
C42 O34 1_555 1_555
H69 C42 1_555 1_555
C43 Se1 1_555 1_555
C44 C43 1_555 1_555
H70 C44 1_555 1_555
C45 C44 1_555 1_555
H71 C45 1_555 1_555
C46 C45 1_555 1_555
H72 C46 1_555 1_555
C47 C46 1_555 1_555
H73 C47 1_555 1_555
C48 C43 1_555 1_555
H74 C48 1_555 1_555
C1 C6 1_555 1_555
C2 C3 1_555 1_555
C4 C5 1_555 1_555
C5 C6 1_555 1_555
C7 C12 1_555 1_555
C8 C9 1_555 1_555
C10 C11 1_555 1_555
C11 C12 1_555 1_555
C13 C18 1_555 1_555
C14 C15 1_555 1_555
C16 C17 1_555 1_555
C17 C18 1_555 1_555
C19 C24 1_555 1_555
C20 C21 1_555 1_555
C22 C23 1_555 1_555
C23 C24 1_555 1_555
C25 C30 1_555 1_555
C26 C27 1_555 1_555
C28 C29 1_555 1_555
C29 C30 1_555 1_555
C31 C36 1_555 1_555
C32 C33 1_555 1_555
C34 C35 1_555 1_555
C35 C36 1_555 1_555
C37 C42 1_555 1_555
C38 C40 1_555 1_555
C40 C41 1_555 1_555
C41 C42 1_555 1_555
C47 C48 1_555 1_555

#END
