
#######################################################################
#
#                 Cambridge Crystallographic Data Centre
#                                CCDC 
#
#######################################################################
#
# If this CIF has been generated from an entry in the Cambridge 
# Structural Database, then it will include bibliographic, chemical, 
# crystal, experimental, refinement or atomic coordinate data resulting 
# from the CCDC's data processing and validation procedures.
#
#######################################################################

data_BEFJEE
_chemical_formula_moiety         'C13 H10 N2 S1,0.5(C2 H6 O1 S1)'
_chemical_name_systematic        
'2-(1,3-benzothiazol-2-yl)aniline dimethyl sulfoxide solvate'
_symmetry_cell_setting           monoclinic
_symmetry_space_group_name_H-M   'P 21/c'
_symmetry_Int_Tables_number      14
_space_group_name_Hall           '-P 2ybc'
loop_
_symmetry_equiv_pos_site_id
_symmetry_equiv_pos_as_xyz
1 x,y,z
2 -x,1/2+y,1/2-z
3 -x,-y,-z
4 x,1/2-y,1/2+z
_cell_length_a                   9.0059(9)
_cell_length_b                   24.995(2)
_cell_length_c                   11.5046(11)
_cell_angle_alpha                90
_cell_angle_beta                 96.175(2)
_cell_angle_gamma                90
_cell_volume                     2574.69
_exptl_crystal_colour            'brown yellow'
_exptl_crystal_description       prism
_cell_formula_units_Z            8
loop_
_atom_site_label
_atom_site_type_symbol
_atom_site_fract_x
_atom_site_fract_y
_atom_site_fract_z
C1 C 0.7266(8) 0.9497(3) 0.7510(7)
C2 C 0.7573(10) 0.9511(4) 0.6360(7)
H1 H 0.8179 0.9781 0.6071
C3 C 0.6949(9) 0.9115(3) 0.5676(7)
H2 H 0.7132 0.9111 0.4878
C4 C 0.6073(8) 0.8718(3) 0.6053(7)
H3 H 0.5664 0.8452 0.5522
C5 C 0.5779(9) 0.8705(3) 0.7220(8)
H4 H 0.5181 0.8430 0.7500
C6 C 0.6395(7) 0.9110(3) 0.7965(6)
C7 C 0.6826(7) 0.9571(3) 0.9579(6)
C8 C 0.6771(8) 0.9750(3) 1.0816(6)
C9 C 0.7529(9) 1.0197(3) 1.1246(7)
H5 H 0.8145 1.0387 1.0767
C10 C 0.7402(9) 1.0372(3) 1.2369(7)
H6 H 0.7925 1.0685 1.2650
C11 C 0.6537(8) 1.0104(3) 1.3081(7)
H7 H 0.6453 1.0234 1.3847
C12 C 0.5787(8) 0.9646(3) 1.2700(7)
H8 H 0.5200 0.9458 1.3203
C13 C 0.5899(7) 0.9455(3) 1.1536(7)
N1 N 0.6156(7) 0.9160(3) 0.9146(6)
N2 N 0.5164(8) 0.8996(3) 1.1230(7)
H9 H 0.5210 0.8858 1.0530
H10 H 0.4641 0.8834 1.1730
S1 S 0.7859(2) 0.99397(8) 0.86621(18)
C14 C 0.0462(6) 0.8921(2) 0.2435(5)
C15 C -0.0068(7) 0.9183(3) 0.3379(6)
H11 H -0.0969 0.9384 0.3285
C16 C 0.0758(8) 0.9140(3) 0.4447(6)
H12 H 0.0417 0.9311 0.5106
C17 C 0.2083(7) 0.8852(3) 0.4585(5)
H13 H 0.2634 0.8833 0.5336
C18 C 0.2616(7) 0.8593(2) 0.3656(5)
H14 H 0.3522 0.8396 0.3758
C19 C 0.1787(6) 0.8628(2) 0.2564(5)
C20 C 0.1213(6) 0.8503(2) 0.0658(5)
C21 C 0.1284(6) 0.8329(2) -0.0549(5)
C22 C 0.0199(7) 0.8501(2) -0.1439(5)
H15 H -0.0575 0.8731 -0.1241
C23 C 0.0217(7) 0.8350(3) -0.2582(5)
H16 H -0.0520 0.8480 -0.3167
C24 C 0.1330(7) 0.8003(3) -0.2875(5)
H17 H 0.1340 0.7890 -0.3663
C25 C 0.2416(6) 0.7824(2) -0.2033(5)
H18 H 0.3168 0.7589 -0.2247
C26 C 0.2431(6) 0.7985(2) -0.0847(5)
N3 N 0.2188(5) 0.83951(18) 0.1542(4)
N4 N 0.3532(6) 0.7793(2) -0.0051(4)
H19 H 0.3553 0.7883 0.0690
H20 H 0.4224 0.7580 -0.0278
S2 S -0.03072(15) 0.88992(6) 0.09859(13)
C27 C 0.8671 0.7816 0.4165
H21 H 0.8582 0.8201 0.4012
H22 H 0.9577 0.7680 0.3865
H23 H 0.8730 0.7752 0.5009
C28 C 0.7372 0.7744 0.1974
H24 H 0.8054 0.7508 0.1606
H25 H 0.7765 0.8110 0.1999
H26 H 0.6387 0.7738 0.1520
O1 O 0.5868(13) 0.7760(5) 0.3931(11)
S3 S 0.7108(2) 0.80863(9) 0.3263(2)
H27? H 0.8741 0.7985 0.4938
H28? H 0.9589 0.7886 0.3804
H29? H 0.8540 0.7429 0.4248
H30? H 0.7194 0.7361 0.2080
H31? H 0.8398 0.7798 0.1789
H32? H 0.6672 0.7880 0.1332
O2? O 0.5681(12) 0.7874(4) 0.3575(10)
S4? S 0.7200(5) 0.75057(18) 0.3508(4)
loop_
_geom_bond_atom_site_label_1
_geom_bond_atom_site_label_2
_geom_bond_site_symmetry_1
_geom_bond_site_symmetry_2
C1 C2 1_555 1_555
C2 H1 1_555 1_555
C3 C2 1_555 1_555
H2 C3 1_555 1_555
C4 C3 1_555 1_555
H3 C4 1_555 1_555
C5 C4 1_555 1_555
H4 C5 1_555 1_555
C6 C1 1_555 1_555
C7 C8 1_555 1_555
C8 C9 1_555 1_555
C9 H5 1_555 1_555
C10 C9 1_555 1_555
H6 C10 1_555 1_555
C11 C10 1_555 1_555
H7 C11 1_555 1_555
C12 C11 1_555 1_555
H8 C12 1_555 1_555
C13 C8 1_555 1_555
N1 C6 1_555 1_555
N2 C13 1_555 1_555
H9 N2 1_555 1_555
H10 N2 1_555 1_555
S1 C1 1_555 1_555
C14 C15 1_555 1_555
C15 H11 1_555 1_555
C16 C15 1_555 1_555
H12 C16 1_555 1_555
C17 C16 1_555 1_555
H13 C17 1_555 1_555
C18 C17 1_555 1_555
H14 C18 1_555 1_555
C19 C14 1_555 1_555
C20 C21 1_555 1_555
C21 C22 1_555 1_555
C22 H15 1_555 1_555
C23 C22 1_555 1_555
H16 C23 1_555 1_555
C24 C23 1_555 1_555
H17 C24 1_555 1_555
C25 C24 1_555 1_555
H18 C25 1_555 1_555
C26 C21 1_555 1_555
N3 C19 1_555 1_555
N4 C26 1_555 1_555
H19 N4 1_555 1_555
H20 N4 1_555 1_555
S2 C14 1_555 1_555
C27 H21 1_555 1_555
H22 C27 1_555 1_555
H23 C27 1_555 1_555
C28 H24 1_555 1_555
H25 C28 1_555 1_555
H26 C28 1_555 1_555
O1 S3 1_555 1_555
S3 C27 1_555 1_555
C5 C6 1_555 1_555
C7 N1 1_555 1_555
C7 S1 1_555 1_555
C12 C13 1_555 1_555
C18 C19 1_555 1_555
C20 N3 1_555 1_555
C20 S2 1_555 1_555
C25 C26 1_555 1_555
C28 S3 1_555 1_555

#END
