
#######################################################################
#
#                 Cambridge Crystallographic Data Centre
#                                CCDC 
#
#######################################################################
#
# If this CIF has been generated from an entry in the Cambridge 
# Structural Database, then it will include bibliographic, chemical, 
# crystal, experimental, refinement or atomic coordinate data resulting 
# from the CCDC's data processing and validation procedures.
#
#######################################################################

data_BEFMEH
_chemical_formula_moiety         'C20 H17 F2 N1 O1'
_chemical_name_systematic        
1,1-bis(4-fluorophenyl)-2-(6-methylpyridin-2-yl)ethanol
_symmetry_cell_setting           monoclinic
_symmetry_space_group_name_H-M   'P 21/n'
_symmetry_Int_Tables_number      14
_space_group_name_Hall           '-P 2yn'
loop_
_symmetry_equiv_pos_site_id
_symmetry_equiv_pos_as_xyz
1 x,y,z
2 1/2-x,1/2+y,1/2-z
3 -x,-y,-z
4 1/2+x,1/2-y,1/2+z
_cell_length_a                   12.3947(6)
_cell_length_b                   10.5621(4)
_cell_length_c                   13.6298(6)
_cell_angle_alpha                90
_cell_angle_beta                 110.547(5)
_cell_angle_gamma                90
_cell_volume                     1670.82
_cell_formula_units_Z            4
loop_
_atom_site_label
_atom_site_type_symbol
_atom_site_fract_x
_atom_site_fract_y
_atom_site_fract_z
C1 C 0.77411(15) 0.06404(16) 0.33105(13)
C2 C 0.79959(17) -0.05540(18) 0.40127(14)
H1 H 0.7864 -0.1295 0.3565
H2 H 0.8805 -0.0548 0.4449
C3 C 0.72924(17) -0.06871(19) 0.47136(14)
C4 C 0.6787(2) -0.1816(2) 0.48043(18)
H3 H 0.6837 -0.2515 0.4407
C5 C 0.6201(2) -0.1893(3) 0.5502(2)
H4 H 0.5854 -0.2647 0.5583
C6 C 0.6140(2) -0.0846(3) 0.60688(19)
H5 H 0.5749 -0.0880 0.6538
C7 C 0.66629(19) 0.0260(2) 0.59400(16)
C8 C 0.6648(3) 0.1429(3) 0.6558(2)
H6 H 0.7339 0.1463 0.7166
H7 H 0.5990 0.1408 0.6774
H8 H 0.6607 0.2163 0.6132
C9 C 0.85823(15) 0.06264(16) 0.27080(13)
C10 C 0.96789(16) 0.1120(2) 0.31802(15)
H9 H 0.9869 0.1516 0.3828
C11 C 1.04978(18) 0.1033(2) 0.27055(17)
H10 H 1.1230 0.1374 0.3023
C12 C 1.02004(19) 0.0432(2) 0.17567(17)
C13 C 0.91323(19) -0.0045(2) 0.12575(16)
H11 H 0.8951 -0.0432 0.0607
C14 C 0.83166(17) 0.00547(18) 0.17346(15)
H12 H 0.7580 -0.0266 0.1398
C15 C 0.64838(15) 0.06974(17) 0.25751(13)
C16 C 0.59368(17) 0.18615(18) 0.23515(15)
H13 H 0.6334 0.2583 0.2674
C17 C 0.48173(19) 0.1979(2) 0.16629(18)
H14 H 0.4463 0.2768 0.1517
C18 C 0.42477(18) 0.0919(3) 0.12063(17)
C19 C 0.4743(2) -0.0249(3) 0.13979(18)
H15 H 0.4333 -0.0961 0.1070
C20 C 0.58688(19) -0.0362(2) 0.20883(17)
H16 H 0.6213 -0.1157 0.2225
F1 F 1.10123(12) 0.03242(16) 0.12997(12)
F2 F 0.31367(12) 0.1017(2) 0.05380(12)
N1 N 0.72346(14) 0.03377(16) 0.52706(12)
O1 O 0.80168(12) 0.17432(12) 0.39519(10)
H17 H 0.7813 0.1644 0.4458
loop_
_geom_bond_atom_site_label_1
_geom_bond_atom_site_label_2
_geom_bond_site_symmetry_1
_geom_bond_site_symmetry_2
C1 C2 1_555 1_555
C2 H1 1_555 1_555
H2 C2 1_555 1_555
C3 C2 1_555 1_555
C4 C3 1_555 1_555
H3 C4 1_555 1_555
C5 C4 1_555 1_555
H4 C5 1_555 1_555
C6 C5 1_555 1_555
H5 C6 1_555 1_555
C7 C6 1_555 1_555
C8 C7 1_555 1_555
H6 C8 1_555 1_555
H7 C8 1_555 1_555
H8 C8 1_555 1_555
C9 C1 1_555 1_555
C10 C9 1_555 1_555
H9 C10 1_555 1_555
C11 C10 1_555 1_555
H10 C11 1_555 1_555
C12 C11 1_555 1_555
C13 C12 1_555 1_555
H11 C13 1_555 1_555
C14 C9 1_555 1_555
H12 C14 1_555 1_555
C15 C1 1_555 1_555
C16 C15 1_555 1_555
H13 C16 1_555 1_555
C17 C16 1_555 1_555
H14 C17 1_555 1_555
C18 C17 1_555 1_555
C19 C18 1_555 1_555
H15 C19 1_555 1_555
C20 C15 1_555 1_555
H16 C20 1_555 1_555
F1 C12 1_555 1_555
F2 C18 1_555 1_555
N1 C3 1_555 1_555
O1 C1 1_555 1_555
H17 O1 1_555 1_555
C7 N1 1_555 1_555
C13 C14 1_555 1_555
C19 C20 1_555 1_555

#END
