
#######################################################################
#
#                 Cambridge Crystallographic Data Centre
#                                CCDC 
#
#######################################################################
#
# If this CIF has been generated from an entry in the Cambridge 
# Structural Database, then it will include bibliographic, chemical, 
# crystal, experimental, refinement or atomic coordinate data resulting 
# from the CCDC's data processing and validation procedures.
#
#######################################################################

data_BEFPEK
_chemical_formula_moiety         'C22 H23 N1 O3'
_chemical_name_systematic        
1,1-bis(4-methoxyphenyl)-2-(6-methylpyridin-2-yl)ethanol
_symmetry_cell_setting           monoclinic
_symmetry_space_group_name_H-M   'P 21/c'
_symmetry_Int_Tables_number      14
_space_group_name_Hall           '-P 2ybc'
loop_
_symmetry_equiv_pos_site_id
_symmetry_equiv_pos_as_xyz
1 x,y,z
2 -x,1/2+y,1/2-z
3 -x,-y,-z
4 x,1/2-y,1/2+z
_cell_length_a                   6.4836(3)
_cell_length_b                   11.7751(5)
_cell_length_c                   24.1488(10)
_cell_angle_alpha                90
_cell_angle_beta                 93.321(4)
_cell_angle_gamma                90
_cell_volume                     1840.54
_cell_formula_units_Z            4
loop_
_atom_site_label
_atom_site_type_symbol
_atom_site_fract_x
_atom_site_fract_y
_atom_site_fract_z
C1 C 0.6828(2) 0.66275(14) 0.42204(6)
C2 C 0.8513(3) 0.63115(15) 0.46700(7)
H1 H 0.7964 0.5726 0.4903
H2 H 0.9667 0.5983 0.4488
C3 C 0.9329(3) 0.72616(15) 0.50407(6)
C4 C 1.1326(3) 0.72187(17) 0.52797(8)
H3 H 1.2189 0.6612 0.5208
C5 C 1.2007(3) 0.8085(2) 0.56235(9)
H4 H 1.3337 0.8070 0.5790
C6 C 1.0698(3) 0.89782(19) 0.57201(8)
H5 H 1.1142 0.9579 0.5947
C7 C 0.8715(3) 0.89680(16) 0.54746(7)
C8 C 0.7225(5) 0.9907(2) 0.55787(12)
H6 H 0.579(6) 0.968(3) 0.5544(16)
H7 H 0.739(7) 1.049(4) 0.537(2)
H8 H 0.737(5) 1.018(3) 0.5917(16)
C9 C 0.7528(2) 0.75315(13) 0.38140(6)
C10 C 0.6062(2) 0.82291(15) 0.35557(7)
H9 H 0.4692 0.8151 0.3645
C11 C 0.6542(3) 0.90413(15) 0.31691(7)
H10 H 0.5514 0.9504 0.3007
C12 C 0.8572(2) 0.91574(14) 0.30263(6)
C13 C 1.0063(2) 0.84600(15) 0.32773(7)
H11 H 1.1427 0.8526 0.3181
C14 C 0.9560(2) 0.76669(14) 0.36683(7)
H12 H 1.0594 0.7216 0.3837
C15 C 0.6161(3) 0.55460(14) 0.39058(7)
C16 C 0.7402(3) 0.50504(15) 0.35236(8)
H13 H 0.8645 0.5395 0.3448
C17 C 0.6834(3) 0.40599(16) 0.32532(8)
H14 H 0.7693 0.3744 0.2999
C18 C 0.4992(3) 0.35316(15) 0.33573(8)
C19 C 0.3729(3) 0.40043(17) 0.37347(8)
H15 H 0.2485 0.3658 0.3808
C20 C 0.4330(3) 0.50051(16) 0.40059(8)
H16 H 0.3473 0.5318 0.4262
C21 C 0.7850(3) 1.07945(17) 0.24697(9)
H17 H 0.8554 1.1328 0.2246
H18 H 0.7354 1.1177 0.2787
H19 H 0.6705 1.0471 0.2255
C22 C 0.2585(4) 0.2081(2) 0.30729(11)
H20 H 0.2478 0.1448 0.2822
H21 H 0.1582 0.2646 0.2958
H22 H 0.2334 0.1828 0.3441
N1 N 0.8038(2) 0.81179(13) 0.51419(6)
O1 O 0.50555(19) 0.70310(11) 0.44872(5)
H23 H 0.560(4) 0.758(2) 0.4736(11)
O2 O 0.9238(2) 0.99189(11) 0.26494(5)
O3 O 0.4586(2) 0.25514(12) 0.30689(6)
loop_
_geom_bond_atom_site_label_1
_geom_bond_atom_site_label_2
_geom_bond_site_symmetry_1
_geom_bond_site_symmetry_2
C1 C2 1_555 1_555
C2 H1 1_555 1_555
H2 C2 1_555 1_555
C3 C2 1_555 1_555
C4 C3 1_555 1_555
H3 C4 1_555 1_555
C5 C4 1_555 1_555
H4 C5 1_555 1_555
C6 C5 1_555 1_555
H5 C6 1_555 1_555
C7 C6 1_555 1_555
C8 C7 1_555 1_555
H6 C8 1_555 1_555
H7 C8 1_555 1_555
H8 C8 1_555 1_555
C9 C1 1_555 1_555
C10 C9 1_555 1_555
H9 C10 1_555 1_555
C11 C10 1_555 1_555
H10 C11 1_555 1_555
C12 C11 1_555 1_555
C13 C12 1_555 1_555
H11 C13 1_555 1_555
C14 C9 1_555 1_555
H12 C14 1_555 1_555
C15 C1 1_555 1_555
C16 C15 1_555 1_555
H13 C16 1_555 1_555
C17 C16 1_555 1_555
H14 C17 1_555 1_555
C18 C17 1_555 1_555
C19 C18 1_555 1_555
H15 C19 1_555 1_555
C20 C15 1_555 1_555
H16 C20 1_555 1_555
C21 H17 1_555 1_555
H18 C21 1_555 1_555
H19 C21 1_555 1_555
C22 H20 1_555 1_555
H21 C22 1_555 1_555
H22 C22 1_555 1_555
N1 C3 1_555 1_555
O1 C1 1_555 1_555
H23 O1 1_555 1_555
O2 C12 1_555 1_555
O3 C18 1_555 1_555
C7 N1 1_555 1_555
C13 C14 1_555 1_555
C19 C20 1_555 1_555
C21 O2 1_555 1_555
C22 O3 1_555 1_555

#END
