
#######################################################################
#
#                 Cambridge Crystallographic Data Centre
#                                CCDC 
#
#######################################################################
#
# If this CIF has been generated from an entry in the Cambridge 
# Structural Database, then it will include bibliographic, chemical, 
# crystal, experimental, refinement or atomic coordinate data resulting 
# from the CCDC's data processing and validation procedures.
#
#######################################################################

data_BEFPEI
_chemical_formula_moiety         'C28 H31 N2 O1 1+,Cl1 1-'
_chemical_name_systematic        '4-vinylbenzylcinchonidinium chloride'
_symmetry_cell_setting           orthorhombic
_symmetry_space_group_name_H-M   'P 21 21 21'
_symmetry_Int_Tables_number      19
_space_group_name_Hall           'P 2ac 2ab'
loop_
_symmetry_equiv_pos_site_id
_symmetry_equiv_pos_as_xyz
1 x,y,z
2 1/2-x,-y,1/2+z
3 -x,1/2+y,1/2-z
4 1/2+x,1/2-y,-z
_cell_length_a                   8.5447(19)
_cell_length_b                   13.830(3)
_cell_length_c                   20.590(4)
_cell_angle_alpha                90
_cell_angle_beta                 90
_cell_angle_gamma                90
_cell_volume                     2433.19
_cell_formula_units_Z            4
loop_
_atom_site_label
_atom_site_type_symbol
_atom_site_fract_x
_atom_site_fract_y
_atom_site_fract_z
Cl1 Cl 1.1594(2) 0.33100(11) 0.22346(8)
N1 N 0.8192(5) 0.5506(3) 0.21798(17)
O1 O 0.9077(6) 0.3935(3) 0.31569(17)
H1 H 0.9760 0.3624 0.3343
C1 C 0.9296(8) 0.4918(4) 0.3277(2)
H2 H 1.0335 0.5108 0.3121
C2 C 0.9925(8) 0.5899(4) 0.4299(2)
C3 C 0.6979(7) 0.6224(4) 0.1931(3)
H3 H 0.7077 0.6829 0.2166
H4 H 0.7160 0.6352 0.1474
C4 C 0.9822(9) 0.6813(5) 0.0954(3)
H5 H 0.9402 0.7326 0.1188
C5 C 0.9810(7) 0.5837(4) 0.1982(2)
H6 H 1.0009 0.6459 0.2183
H7 H 1.0567 0.5383 0.2157
C6 C 0.9201(7) 0.5110(4) 0.4012(2)
C7 C 0.7783(8) 0.4534(4) 0.1890(2)
H8 H 0.7699 0.4590 0.1422
H9 H 0.8604 0.4071 0.1988
N2 N 0.9087(8) 0.5317(5) 0.5368(2)
C8 C 1.0087(7) 0.5930(4) 0.1264(2)
C9 C 0.8342(10) 0.4607(6) 0.5058(3)
H11 H 0.7738 0.4182 0.5302
C10 C 0.8046(6) 0.5532(4) 0.2922(2)
H12 H 0.8224 0.6204 0.3053
C11 C 0.9845(8) 0.5969(5) 0.5006(3)
C12 C 1.0170(10) 0.6933(6) 0.0315(3)
H13 H 0.9990 0.7526 0.0116
C13 C 0.8416(8) 0.4467(5) 0.4396(3)
H14 H 0.7930 0.3933 0.4211
C14 C 1.0682(8) 0.5178(5) 0.0912(3)
H15 H 1.0851 0.4584 0.1112
C15 C 1.1035(10) 0.5294(7) 0.0262(3)
H16 H 1.1438 0.4777 0.0027
C16 C 0.5358(8) 0.5820(5) 0.2023(3)
H17 H 0.5030 0.5552 0.1604
C17 C 0.6261(9) 0.4186(4) 0.2166(3)
H18 H 0.5615 0.3923 0.1821
H19 H 0.6454 0.3677 0.2479
C18 C 1.0791(9) 0.6178(7) -0.0041(3)
C19 C 1.0670(11) 0.6714(6) 0.5314(3)
H20 H 1.0692 0.6736 0.5765
C20 C 0.5422(9) 0.5008(5) 0.2488(3)
H21 H 0.4362 0.4811 0.2613
C21 C 0.6359(8) 0.5303(6) 0.3090(3)
H22 H 0.5878 0.5867 0.3286
H23 H 0.6332 0.4782 0.3405
C22 C 1.1426(14) 0.7393(7) 0.4975(4)
H24 H 1.1913 0.7901 0.5192
C23 C 1.0724(9) 0.6644(5) 0.3980(3)
H25 H 1.0726 0.6653 0.3529
C24 C 1.1489(12) 0.7346(6) 0.4300(4)
H26 H 1.2064 0.7802 0.4070
C25 C 0.4244(9) 0.6633(6) 0.2183(4)
H27 H 0.4247 0.6893 0.2599
C26 C 0.3275(12) 0.6981(7) 0.1751(7)
H28 H 0.3260 0.6728 0.1333
H29 H 0.2601 0.7482 0.1862
C27 C 1.1174(13) 0.6447(10) -0.0754(5)
H30 H 1.0867 0.7037 -0.0930
C28 C 1.1976(15) 0.5787(11) -0.1111(5)
H31 H 1.2272 0.5202 -0.0926
H32 H 1.2229 0.5920 -0.1541
H10? H 0.9081 0.5355 0.5785
loop_
_geom_bond_atom_site_label_1
_geom_bond_atom_site_label_2
_geom_bond_site_symmetry_1
_geom_bond_site_symmetry_2
N1 C3 1_555 1_555
O1 H1 1_555 1_555
C1 O1 1_555 1_555
H2 C1 1_555 1_555
C2 C6 1_555 1_555
C3 H3 1_555 1_555
H4 C3 1_555 1_555
C4 H5 1_555 1_555
C5 N1 1_555 1_555
H6 C5 1_555 1_555
H7 C5 1_555 1_555
C6 C1 1_555 1_555
C7 N1 1_555 1_555
H8 C7 1_555 1_555
H9 C7 1_555 1_555
N2 C9 1_555 1_555
C8 C4 1_555 1_555
C9 H11 1_555 1_555
C10 N1 1_555 1_555
H12 C10 1_555 1_555
C11 C2 1_555 1_555
C12 C4 1_555 1_555
H13 C12 1_555 1_555
C13 C6 1_555 1_555
H14 C13 1_555 1_555
C14 C8 1_555 1_555
H15 C14 1_555 1_555
C15 C14 1_555 1_555
H16 C15 1_555 1_555
C16 C3 1_555 1_555
H17 C16 1_555 1_555
C17 C7 1_555 1_555
H18 C17 1_555 1_555
H19 C17 1_555 1_555
C18 C12 1_555 1_555
C19 C11 1_555 1_555
H20 C19 1_555 1_555
C20 C16 1_555 1_555
H21 C20 1_555 1_555
C21 C10 1_555 1_555
H22 C21 1_555 1_555
H23 C21 1_555 1_555
C22 C19 1_555 1_555
H24 C22 1_555 1_555
C23 C2 1_555 1_555
H25 C23 1_555 1_555
C24 C22 1_555 1_555
H26 C24 1_555 1_555
C25 C16 1_555 1_555
H27 C25 1_555 1_555
C26 C25 1_555 1_555
H28 C26 1_555 1_555
H29 C26 1_555 1_555
C27 C18 1_555 1_555
H30 C27 1_555 1_555
C28 C27 1_555 1_555
H31 C28 1_555 1_555
H32 C28 1_555 1_555
C1 C10 1_555 1_555
C5 C8 1_555 1_555
N2 C11 1_555 1_555
C9 C13 1_555 1_555
C15 C18 1_555 1_555
C17 C20 1_555 1_555
C20 C21 1_555 1_555
C23 C24 1_555 1_555

#END
