
#######################################################################
#
#                 Cambridge Crystallographic Data Centre
#                                CCDC 
#
#######################################################################
#
# If this CIF has been generated from an entry in the Cambridge 
# Structural Database, then it will include bibliographic, chemical, 
# crystal, experimental, refinement or atomic coordinate data resulting 
# from the CCDC's data processing and validation procedures.
#
#######################################################################

data_BEFRIQ
_chemical_formula_moiety         'C24 H20 N2 O1'
_chemical_name_systematic        
phenyl(2-phenyl-2,3-dihydro-1H-perimidin-2-yl)methanol
_symmetry_cell_setting           triclinic
_symmetry_space_group_name_H-M   'P -1'
_symmetry_Int_Tables_number      2
_space_group_name_Hall           '-P 1'
loop_
_symmetry_equiv_pos_site_id
_symmetry_equiv_pos_as_xyz
1 x,y,z
2 -x,-y,-z
_cell_length_a                   10.2242(10)
_cell_length_b                   13.5627(16)
_cell_length_c                   14.8078(15)
_cell_angle_alpha                112.639(10)
_cell_angle_beta                 98.582(8)
_cell_angle_gamma                97.631(9)
_cell_volume                     1832.77
_exptl_crystal_colour            colorless
_exptl_crystal_description       needle
_cell_formula_units_Z            4
loop_
_atom_site_label
_atom_site_type_symbol
_atom_site_fract_x
_atom_site_fract_y
_atom_site_fract_z
O1 O 0.0151(2) 0.15679(19) 0.10294(18)
N1 N 0.2327(3) 0.1163(2) 0.0159(2)
H1 H 0.2158 0.0735 0.0448
N2 N 0.1522(3) 0.2571(2) -0.0150(2)
H2 H 0.0817 0.2853 -0.0086
C1 C 0.2697(3) 0.0771(3) -0.0753(2)
C2 C 0.2618(3) 0.1400(3) -0.1334(2)
C3 C 0.3029(3) 0.1038(3) -0.2270(2)
C4 C 0.3480(4) 0.0040(3) -0.2611(3)
H3 H 0.3769 -0.0205 -0.3211
C5 C 0.3487(4) -0.0562(3) -0.2051(3)
H4 H 0.3757 -0.1228 -0.2294
C6 C 0.3103(4) -0.0213(3) -0.1125(3)
H5 H 0.3123 -0.0642 -0.0763
C7 C 0.2055(3) 0.2347(3) -0.1011(2)
C8 C 0.1962(3) 0.2941(3) -0.1573(3)
H6 H 0.1603 0.3566 -0.1356
C9 C 0.2411(4) 0.2608(3) -0.2489(3)
H7 H 0.2355 0.3026 -0.2859
C10 C 0.2924(3) 0.1683(3) -0.2833(3)
H8 H 0.3205 0.1475 -0.3436
C11 C 0.2220(3) 0.2304(3) 0.0634(2)
C12 C 0.3621(3) 0.3051(3) 0.1151(2)
C13 C 0.4553(4) 0.2756(3) 0.1733(3)
H9 H 0.4341 0.2087 0.1771
C14 C 0.5784(4) 0.3443(3) 0.2255(3)
H10 H 0.6401 0.3232 0.2637
C15 C 0.6110(4) 0.4453(3) 0.2213(3)
H11 H 0.6940 0.4920 0.2567
C16 C 0.5194(4) 0.4752(3) 0.1643(3)
H12 H 0.5405 0.5428 0.1618
C17 C 0.3970(3) 0.4066(3) 0.1109(3)
H13 H 0.3368 0.4276 0.0717
C18 C 0.1350(3) 0.2397(3) 0.1438(3)
H14 H 0.1887 0.2300 0.1993
C19 C 0.0977(3) 0.3507(3) 0.1855(2)
C20 C 0.1810(4) 0.4379(3) 0.2688(3)
H15 H 0.2607 0.4280 0.3004
C21 C 0.1465(4) 0.5388(3) 0.3048(3)
H16 H 0.2040 0.5967 0.3596
C22 C 0.0277(4) 0.5545(3) 0.2604(3)
H17 H 0.0041 0.6223 0.2857
C23 C -0.0563(4) 0.4690(3) 0.1778(3)
H18 H -0.1358 0.4795 0.1466
C24 C -0.0221(3) 0.3676(3) 0.1416(3)
H19 H -0.0803 0.3099 0.0870
H20 H 0.047(7) 0.115(5) 0.132(5)
O2 O 0.1060(3) -0.0340(2) 0.09205(19)
N3 N 0.2989(3) 0.0828(2) 0.2744(2)
H21 H 0.3444 0.0636 0.2284
N4 N 0.0713(3) 0.0823(2) 0.2783(2)
H22 H -0.0058 0.0584 0.2367
C25 C 0.1228(3) -0.0812(3) 0.1637(2)
H23 H 0.0333 -0.1193 0.1617
C26 C 0.2104(3) -0.1651(3) 0.1358(2)
C27 C 0.1810(4) -0.2597(3) 0.1535(3)
H24 H 0.1120 -0.2680 0.1861
C28 C 0.2548(4) -0.3396(3) 0.1225(3)
H25 H 0.2350 -0.4017 0.1347
C29 C 0.3568(4) -0.3299(3) 0.0740(3)
H26 H 0.4052 -0.3850 0.0533
C30 C 0.3870(4) -0.2370(3) 0.0560(3)
H27 H 0.4556 -0.2298 0.0229
C31 C 0.3152(3) -0.1557(3) 0.0874(2)
H28 H 0.3371 -0.0933 0.0762
C32 C 0.1725(3) 0.0150(3) 0.2683(3)
C33 C 0.1863(3) -0.0349(3) 0.3473(2)
C34 C 0.3088(4) -0.0557(3) 0.3809(3)
H29 H 0.3858 -0.0318 0.3624
C35 C 0.3180(4) -0.1117(3) 0.4418(3)
H30 H 0.4009 -0.1258 0.4633
C36 C 0.2037(4) -0.1470(3) 0.4708(3)
H31 H 0.2092 -0.1853 0.5111
C37 C 0.0826(4) -0.1243(3) 0.4392(3)
H32 H 0.0058 -0.1466 0.4588
C38 C 0.0743(4) -0.0678(3) 0.3776(3)
H33 H -0.0080 -0.0525 0.3569
C39 C 0.3421(3) 0.1819(3) 0.3602(3)
C40 C 0.2396(3) 0.2357(3) 0.3997(2)
C41 C 0.2756(4) 0.3413(3) 0.4798(3)
C42 C 0.4147(4) 0.3892(3) 0.5200(3)
H34 H 0.4407 0.4582 0.5727
C43 C 0.5104(4) 0.3352(3) 0.4819(3)
H35 H 0.6013 0.3678 0.5095
C44 C 0.4751(3) 0.2311(3) 0.4017(3)
H36 H 0.5424 0.1958 0.3769
C45 C 0.1015(3) 0.1861(3) 0.3564(2)
C46 C 0.0027(4) 0.2429(3) 0.3878(3)
H37 H -0.0878 0.2118 0.3570
C47 C 0.0392(4) 0.3479(3) 0.4663(3)
H38 H -0.0280 0.3854 0.4876
C48 C 0.1710(4) 0.3958(3) 0.5117(3)
H39 H 0.1926 0.4649 0.5641
H40 H 0.058(5) -0.084(4) 0.036(4)
loop_
_geom_bond_atom_site_label_1
_geom_bond_atom_site_label_2
_geom_bond_site_symmetry_1
_geom_bond_site_symmetry_2
O1 C18 1_555 1_555
N1 H1 1_555 1_555
N2 H2 1_555 1_555
C1 N1 1_555 1_555
C2 C1 1_555 1_555
C3 C2 1_555 1_555
C4 C3 1_555 1_555
H3 C4 1_555 1_555
C5 C4 1_555 1_555
H4 C5 1_555 1_555
C6 C1 1_555 1_555
H5 C6 1_555 1_555
C7 N2 1_555 1_555
C8 C7 1_555 1_555
H6 C8 1_555 1_555
C9 C8 1_555 1_555
H7 C9 1_555 1_555
C10 C3 1_555 1_555
H8 C10 1_555 1_555
C11 N1 1_555 1_555
C12 C11 1_555 1_555
C13 C12 1_555 1_555
H9 C13 1_555 1_555
C14 C13 1_555 1_555
H10 C14 1_555 1_555
C15 C14 1_555 1_555
H11 C15 1_555 1_555
C16 C15 1_555 1_555
H12 C16 1_555 1_555
C17 C12 1_555 1_555
H13 C17 1_555 1_555
C18 C11 1_555 1_555
H14 C18 1_555 1_555
C19 C18 1_555 1_555
C20 C19 1_555 1_555
H15 C20 1_555 1_555
C21 C20 1_555 1_555
H16 C21 1_555 1_555
C22 C21 1_555 1_555
H17 C22 1_555 1_555
C23 C22 1_555 1_555
H18 C23 1_555 1_555
C24 C19 1_555 1_555
H19 C24 1_555 1_555
H20 O1 1_555 1_555
O2 C25 1_555 1_555
N3 H21 1_555 1_555
N4 H22 1_555 1_555
C25 H23 1_555 1_555
C26 C25 1_555 1_555
C27 C26 1_555 1_555
H24 C27 1_555 1_555
C28 C27 1_555 1_555
H25 C28 1_555 1_555
C29 C28 1_555 1_555
H26 C29 1_555 1_555
C30 C29 1_555 1_555
H27 C30 1_555 1_555
C31 C26 1_555 1_555
H28 C31 1_555 1_555
C32 N3 1_555 1_555
C33 C32 1_555 1_555
C34 C33 1_555 1_555
H29 C34 1_555 1_555
C35 C34 1_555 1_555
H30 C35 1_555 1_555
C36 C35 1_555 1_555
H31 C36 1_555 1_555
C37 C36 1_555 1_555
H32 C37 1_555 1_555
C38 C33 1_555 1_555
H33 C38 1_555 1_555
C39 N3 1_555 1_555
C40 C39 1_555 1_555
C41 C40 1_555 1_555
C42 C41 1_555 1_555
H34 C42 1_555 1_555
C43 C42 1_555 1_555
H35 C43 1_555 1_555
C44 C39 1_555 1_555
H36 C44 1_555 1_555
C45 N4 1_555 1_555
C46 C45 1_555 1_555
H37 C46 1_555 1_555
C47 C46 1_555 1_555
H38 C47 1_555 1_555
C48 C41 1_555 1_555
H39 C48 1_555 1_555
H40 O2 1_555 1_555
N2 C11 1_555 1_555
C2 C7 1_555 1_555
C5 C6 1_555 1_555
C9 C10 1_555 1_555
C16 C17 1_555 1_555
C23 C24 1_555 1_555
N4 C32 1_555 1_555
C25 C32 1_555 1_555
C30 C31 1_555 1_555
C37 C38 1_555 1_555
C40 C45 1_555 1_555
C43 C44 1_555 1_555
C47 C48 1_555 1_555

#END
