
#######################################################################
#
#                 Cambridge Crystallographic Data Centre
#                                CCDC 
#
#######################################################################
#
# If this CIF has been generated from an entry in the Cambridge 
# Structural Database, then it will include bibliographic, chemical, 
# crystal, experimental, refinement or atomic coordinate data resulting 
# from the CCDC's data processing and validation procedures.
#
#######################################################################

data_BEFSIQ
_chemical_formula_moiety         'C17 H18 Br1 F2 N1 O3'
_chemical_name_systematic        
'Ethyl 2-(bromo(difluoro)methyl)-2-hydroxy-9-methyl-2,3,4,9-tetrahydro-1H-carbazole-3-carboxylate'
_symmetry_cell_setting           triclinic
_symmetry_space_group_name_H-M   'P -1'
_symmetry_Int_Tables_number      2
_space_group_name_Hall           '-P 1'
loop_
_symmetry_equiv_pos_site_id
_symmetry_equiv_pos_as_xyz
1 x,y,z
2 -x,-y,-z
_cell_length_a                   8.8398(4)
_cell_length_b                   13.2623(5)
_cell_length_c                   14.6272(8)
_cell_angle_alpha                92.243(4)
_cell_angle_beta                 107.390(4)
_cell_angle_gamma                93.723(4)
_cell_volume                     1629.91
_exptl_crystal_colour            colorless
_exptl_crystal_description       block
_cell_formula_units_Z            4
loop_
_atom_site_label
_atom_site_type_symbol
_atom_site_fract_x
_atom_site_fract_y
_atom_site_fract_z
Br1 Br 0.75632(4) 0.30695(2) 0.29293(3)
F1 F 0.48185(19) 0.32869(12) 0.16077(13)
F2 F 0.47657(19) 0.36187(12) 0.30488(13)
O1 O 0.3579(2) 0.48926(16) 0.03338(16)
O2 O 0.1955(2) 0.44025(14) 0.11725(14)
O3 O 0.6824(2) 0.50231(16) 0.16750(14)
H1 H 0.6195 0.5019 0.1116
N1 N 0.7985(3) 0.71782(17) 0.40254(17)
C1 C 0.7562(3) 0.8145(2) 0.3822(2)
C2 C 0.8237(3) 0.9061(2) 0.4322(2)
H3 H 0.9128 0.9089 0.4883
C3 C 0.7546(3) 0.9925(2) 0.3965(3)
H4 H 0.7991 1.0565 0.4278
C4 C 0.6209(3) 0.9885(2) 0.3153(2)
H5 H 0.5756 1.0494 0.2934
C5 C 0.5539(3) 0.8974(2) 0.2665(2)
H6 H 0.4636 0.8952 0.2111
C6 C 0.6222(3) 0.8084(2) 0.3006(2)
C7 C 0.5858(3) 0.7034(2) 0.2704(2)
C8 C 0.4590(3) 0.6525(2) 0.1864(2)
H7 H 0.4900 0.6609 0.1273
H8 H 0.3583 0.6847 0.1785
C9 C 0.4334(3) 0.5394(2) 0.2005(2)
H9 H 0.3795 0.5316 0.2513
C10 C 0.3266(3) 0.4876(2) 0.1074(2)
C11 C 0.0956(3) 0.3787(2) 0.0346(2)
H10 H 0.1524 0.3208 0.0209
H11 H 0.0674 0.4193 -0.0225
C12 C -0.0512(3) 0.3413(2) 0.0578(3)
H12 H -0.0215 0.3044 0.1165
H13 H -0.1186 0.2961 0.0046
H14 H -0.1098 0.3991 0.0674
C13 C 0.5951(3) 0.4913(2) 0.2331(2)
C14 C 0.5647(3) 0.3777(2) 0.2449(2)
C15 C 0.7008(3) 0.53964(19) 0.3301(2)
H15 H 0.6648 0.5116 0.3825
H16 H 0.8121 0.5234 0.3400
C16 C 0.6930(3) 0.6516(2) 0.3327(2)
C17 C 0.9308(3) 0.6925(2) 0.4811(2)
H17 H 1.0291 0.7276 0.4765
H18 H 0.9393 0.6193 0.4781
H19 H 0.9140 0.7136 0.5421
Br2 Br 0.22767(4) 1.17593(2) 0.26507(3)
F3 F -0.04657(19) 1.10474(12) 0.13950(14)
F4 F -0.0425(2) 1.09320(12) 0.28597(15)
O4 O -0.1149(2) 0.92674(17) 0.01930(16)
O5 O -0.3252(2) 0.89106(14) 0.07022(14)
O6 O 0.1789(2) 0.95752(15) 0.15963(14)
H2 H 0.1222 0.9585 0.1023
N2 N 0.2985(3) 0.78961(16) 0.40520(17)
C18 C 0.2660(3) 0.6860(2) 0.3913(2)
C19 C 0.3403(3) 0.6095(2) 0.4461(2)
H20 H 0.4289 0.6246 0.5018
C20 C 0.2799(3) 0.5108(2) 0.4165(2)
H21 H 0.3285 0.4568 0.4520
C21 C 0.1485(3) 0.4892(2) 0.3349(2)
H22 H 0.1090 0.4207 0.3164
C22 C 0.0751(3) 0.5650(2) 0.2808(2)
H23 H -0.0135 0.5494 0.2252
C23 C 0.1338(3) 0.6653(2) 0.3094(2)
C24 C 0.0877(3) 0.7612(2) 0.2735(2)
C25 C -0.0397(3) 0.78409(19) 0.1861(2)
H24 H -0.1385 0.7421 0.1821
H25 H -0.0078 0.7660 0.1285
C26 C -0.0731(3) 0.89699(19) 0.1864(2)
H26 H -0.1391 0.9098 0.2298
C27 C -0.1704(3) 0.9105(2) 0.0836(2)
C28 C -0.4258(3) 0.8832(2) -0.0293(2)
H27 H -0.3783 0.8413 -0.0693
H28 H -0.4375 0.9512 -0.0549
C29 C -0.5845(3) 0.8350(2) -0.0306(2)
H29 H -0.5722 0.7664 -0.0083
H30 H -0.6574 0.8316 -0.0962
H31 H -0.6278 0.8753 0.0118
C30 C 0.0835(3) 0.9674(2) 0.2208(2)
C31 C 0.0425(3) 1.0785(2) 0.2249(2)
C32 C 0.1856(3) 0.94466(19) 0.3214(2)
H32 H 0.2953 0.9754 0.3330
H33 H 0.1419 0.9754 0.3699
C33 C 0.1894(3) 0.8334(2) 0.3323(2)
C34 C 0.4324(3) 0.8401(2) 0.4803(2)
H34 H 0.4268 0.9136 0.4784
H35 H 0.5321 0.8219 0.4701
H36 H 0.4285 0.8187 0.5430
loop_
_geom_bond_atom_site_label_1
_geom_bond_atom_site_label_2
_geom_bond_site_symmetry_1
_geom_bond_site_symmetry_2
Br1 C14 1_555 1_555
Br2 C31 1_555 1_555
F1 C14 1_555 1_555
F2 C14 1_555 1_555
F3 C31 1_555 1_555
F4 C31 1_555 1_555
O1 C10 1_555 1_555
O2 C10 1_555 1_555
O3 H1 1_555 1_555
O4 C27 1_555 1_555
O5 C27 1_555 1_555
O6 H2 1_555 1_555
N1 C1 1_555 1_555
N2 C18 1_555 1_555
C1 C2 1_555 1_555
C2 H3 1_555 1_555
C3 C2 1_555 1_555
H4 C3 1_555 1_555
C4 C3 1_555 1_555
H5 C4 1_555 1_555
C5 C4 1_555 1_555
H6 C5 1_555 1_555
C6 C1 1_555 1_555
C7 C6 1_555 1_555
C8 C7 1_555 1_555
H7 C8 1_555 1_555
H8 C8 1_555 1_555
C9 C8 1_555 1_555
H9 C9 1_555 1_555
C10 C9 1_555 1_555
C11 O2 1_555 1_555
H10 C11 1_555 1_555
H11 C11 1_555 1_555
C12 C11 1_555 1_555
H12 C12 1_555 1_555
H13 C12 1_555 1_555
H14 C12 1_555 1_555
C13 O3 1_555 1_555
C14 C13 1_555 1_555
C15 C13 1_555 1_555
H15 C15 1_555 1_555
H16 C15 1_555 1_555
C16 N1 1_555 1_555
C17 N1 1_555 1_555
H17 C17 1_555 1_555
H18 C17 1_555 1_555
H19 C17 1_555 1_555
C18 C19 1_555 1_555
C19 H20 1_555 1_555
C20 C19 1_555 1_555
H21 C20 1_555 1_555
C21 C20 1_555 1_555
H22 C21 1_555 1_555
C22 C21 1_555 1_555
H23 C22 1_555 1_555
C23 C18 1_555 1_555
C24 C23 1_555 1_555
C25 C24 1_555 1_555
H24 C25 1_555 1_555
H25 C25 1_555 1_555
C26 C25 1_555 1_555
H26 C26 1_555 1_555
C27 C26 1_555 1_555
C28 O5 1_555 1_555
H27 C28 1_555 1_555
H28 C28 1_555 1_555
C29 C28 1_555 1_555
H29 C29 1_555 1_555
H30 C29 1_555 1_555
H31 C29 1_555 1_555
C30 O6 1_555 1_555
C31 C30 1_555 1_555
C32 C30 1_555 1_555
H32 C32 1_555 1_555
H33 C32 1_555 1_555
C33 N2 1_555 1_555
C34 N2 1_555 1_555
H34 C34 1_555 1_555
H35 C34 1_555 1_555
H36 C34 1_555 1_555
C5 C6 1_555 1_555
C7 C16 1_555 1_555
C9 C13 1_555 1_555
C15 C16 1_555 1_555
C22 C23 1_555 1_555
C24 C33 1_555 1_555
C26 C30 1_555 1_555
C32 C33 1_555 1_555

#END
