
#######################################################################
#
#                 Cambridge Crystallographic Data Centre
#                                CCDC 
#
#######################################################################
#
# If this CIF has been generated from an entry in the Cambridge 
# Structural Database, then it will include bibliographic, chemical, 
# crystal, experimental, refinement or atomic coordinate data resulting 
# from the CCDC's data processing and validation procedures.
#
#######################################################################

data_BEFXAN
_chemical_formula_moiety         'C24 H15 Cl1 N2 O4'
_chemical_name_systematic        
3-(10-Chloro-9-anthryl)-5-((4-nitrophenoxy)methyl)-1,2-oxazole
_symmetry_cell_setting           triclinic
_symmetry_space_group_name_H-M   'P -1'
_symmetry_Int_Tables_number      2
_space_group_name_Hall           '-P 1'
loop_
_symmetry_equiv_pos_site_id
_symmetry_equiv_pos_as_xyz
1 x,y,z
2 -x,-y,-z
_cell_length_a                   8.3046(6)
_cell_length_b                   8.8532(7)
_cell_length_c                   14.3449(11)
_cell_angle_alpha                73.964(2)
_cell_angle_beta                 85.107(2)
_cell_angle_gamma                70.019(2)
_cell_volume                     952.568
_exptl_crystal_colour            'light brown'
_exptl_crystal_description       rod
_cell_formula_units_Z            2
loop_
_atom_site_label
_atom_site_type_symbol
_atom_site_fract_x
_atom_site_fract_y
_atom_site_fract_z
Cl1 Cl 0.25469(6) 0.27780(6) 0.02482(4)
N1 N 0.6707(2) 0.5242(2) 0.31018(12)
N2 N 1.7434(2) 0.0750(3) 0.64661(14)
O1 O 0.81316(17) 0.53638(17) 0.34929(10)
O2 O 1.14805(18) 0.31957(18) 0.42507(10)
O3 O 1.8516(2) 0.1446(3) 0.62517(15)
O4 O 1.7583(2) -0.0454(2) 0.71634(12)
C1 C 0.6548(2) 0.2494(2) 0.17702(13)
C2 C 0.8066(2) 0.1189(2) 0.22119(13)
H1 H 0.8815 0.1433 0.2568
C3 C 0.8450(2) -0.0389(2) 0.21299(14)
H2 H 0.9467 -0.1228 0.2425
C4 C 0.7360(2) -0.0796(2) 0.16127(14)
H3 H 0.7651 -0.1903 0.1557
C5 C 0.5893(2) 0.0386(2) 0.11927(13)
H4 H 0.5165 0.0095 0.0849
C6 C 0.5432(2) 0.2062(2) 0.12615(13)
C7 C 0.3916(2) 0.3299(2) 0.08611(13)
C8 C 0.3441(2) 0.4935(2) 0.09361(13)
C9 C 0.1881(2) 0.6187(2) 0.05222(14)
H5 H 0.1143 0.5918 0.0172
C10 C 0.1446(2) 0.7750(2) 0.06245(15)
H6 H 0.0401 0.8565 0.0350
C11 C 0.2527(3) 0.8186(2) 0.11351(15)
H7 H 0.2200 0.9288 0.1204
C12 C 0.4032(2) 0.7040(2) 0.15279(14)
H8 H 0.4749 0.7359 0.1862
C13 C 0.4560(2) 0.5364(2) 0.14499(13)
C14 C 0.6111(2) 0.4141(2) 0.18515(13)
C15 C 0.7290(2) 0.4547(2) 0.23880(13)
C16 C 0.9092(2) 0.4206(2) 0.22846(13)
H9 H 0.9818 0.3728 0.1819
C17 C 0.9531(2) 0.4714(2) 0.29962(14)
C18 C 1.1198(3) 0.4544(3) 0.33906(15)
H10 H 1.2126 0.4287 0.2919
H11 H 1.1145 0.5582 0.3545
C19 C 1.2978(2) 0.2672(2) 0.47485(14)
C20 C 1.3159(2) 0.1338(2) 0.55627(14)
H12 H 1.2271 0.0865 0.5731
C21 C 1.4615(3) 0.0701(3) 0.61244(14)
H13 H 1.4748 -0.0213 0.6681
C22 C 1.5886(3) 0.1418(3) 0.58630(14)
C23 C 1.5733(3) 0.2742(3) 0.50600(15)
H14 H 1.6625 0.3211 0.4898
C24 C 1.4264(2) 0.3383(3) 0.44918(14)
H15 H 1.4136 0.4296 0.3934
loop_
_geom_bond_atom_site_label_1
_geom_bond_atom_site_label_2
_geom_bond_site_symmetry_1
_geom_bond_site_symmetry_2
Cl1 C7 1_555 1_555
N1 O1 1_555 1_555
N2 O3 1_555 1_555
O1 C17 1_555 1_555
O2 C18 1_555 1_555
O4 N2 1_555 1_555
C1 C2 1_555 1_555
C2 H1 1_555 1_555
C3 C2 1_555 1_555
H2 C3 1_555 1_555
C4 C3 1_555 1_555
H3 C4 1_555 1_555
C5 C4 1_555 1_555
H4 C5 1_555 1_555
C6 C1 1_555 1_555
C7 C6 1_555 1_555
C8 C7 1_555 1_555
C9 C8 1_555 1_555
H5 C9 1_555 1_555
C10 C9 1_555 1_555
H6 C10 1_555 1_555
C11 C10 1_555 1_555
H7 C11 1_555 1_555
C12 C11 1_555 1_555
H8 C12 1_555 1_555
C13 C8 1_555 1_555
C14 C1 1_555 1_555
C15 N1 1_555 1_555
C16 C15 1_555 1_555
H9 C16 1_555 1_555
C17 C16 1_555 1_555
C18 C17 1_555 1_555
H10 C18 1_555 1_555
H11 C18 1_555 1_555
C19 O2 1_555 1_555
C20 C19 1_555 1_555
H12 C20 1_555 1_555
C21 C20 1_555 1_555
H13 C21 1_555 1_555
C22 N2 1_555 1_555
C23 C22 1_555 1_555
H14 C23 1_555 1_555
C24 C19 1_555 1_555
H15 C24 1_555 1_555
C5 C6 1_555 1_555
C12 C13 1_555 1_555
C13 C14 1_555 1_555
C14 C15 1_555 1_555
C21 C22 1_555 1_555
C23 C24 1_555 1_555

#END
