
#######################################################################
#
#                 Cambridge Crystallographic Data Centre
#                                CCDC 
#
#######################################################################
#
# If this CIF has been generated from an entry in the Cambridge 
# Structural Database, then it will include bibliographic, chemical, 
# crystal, experimental, refinement or atomic coordinate data resulting 
# from the CCDC's data processing and validation procedures.
#
#######################################################################

data_BEGBUN
_chemical_formula_moiety         'C26 H24 N4 O3,H2 O1'
_chemical_name_systematic        
'2,4-dimethyl-10-(4-methylbenzoyl)-6-(4-methylphenyl)-8,9-dihydropyrimido[5,4-e]pyrrolo[1,2-c]pyrimidine-1,3(2H,4H)-dione monohydrate'
_symmetry_cell_setting           monoclinic
_symmetry_space_group_name_H-M   'P 21/n'
_symmetry_Int_Tables_number      14
_space_group_name_Hall           '-P 2yn'
loop_
_symmetry_equiv_pos_site_id
_symmetry_equiv_pos_as_xyz
1 x,y,z
2 1/2-x,1/2+y,1/2-z
3 -x,-y,-z
4 1/2+x,1/2-y,1/2+z
_cell_length_a                   7.4163(15)
_cell_length_b                   21.554(4)
_cell_length_c                   14.551(3)
_cell_angle_alpha                90
_cell_angle_beta                 102.44(3)
_cell_angle_gamma                90
_cell_volume                     2271.38
_exptl_crystal_colour            red
_exptl_crystal_description       prism
_cell_formula_units_Z            4
loop_
_atom_site_label
_atom_site_type_symbol
_atom_site_fract_x
_atom_site_fract_y
_atom_site_fract_z
N1 N 0.0229(2) 0.25781(7) 0.23456(11)
C1 C 0.0523(3) 0.24306(9) 0.32901(13)
N2 N 0.1189(2) 0.18501(8) 0.35462(10)
C2 C 0.1644(3) 0.14031(9) 0.29351(12)
C3 C 0.1045(2) 0.15530(8) 0.19449(12)
C4 C 0.1338(2) 0.11373(8) 0.12215(12)
C5 C 0.1828(3) 0.05269(9) 0.11902(12)
C6 C 0.2560(4) 0.04180(10) 0.03134(15)
H1 H 0.212(3) 0.0039(12) 0.0011(17)
H2 H 0.394(4) 0.0401(11) 0.0464(17)
C7 C 0.1868(4) 0.09699(10) -0.03076(14)
H3 H 0.081(4) 0.0865(12) -0.0803(19)
H4 H 0.281(4) 0.1187(12) -0.0632(18)
N3 N 0.1299(2) 0.14217(7) 0.03457(10)
C8 C 0.0709(3) 0.20046(9) 0.01543(12)
N4 N 0.0274(2) 0.23759(7) 0.07939(11)
C9 C 0.0518(2) 0.21550(8) 0.16838(12)
C10 C -0.0340(4) 0.32180(10) 0.20859(16)
H5 H -0.0636 0.3256 0.1413
H6 H 0.0650 0.3496 0.2344
H7 H -0.1406 0.3320 0.2331
O1 O 0.0222(2) 0.28066(7) 0.38660(10)
C11 C 0.1591(4) 0.17033(12) 0.45512(14)
H8 H 0.2624 0.1946 0.4869
H9 H 0.1881 0.1270 0.4638
H10 H 0.0532 0.1797 0.4806
O2 O 0.2489(2) 0.09421(7) 0.32493(9)
C12 C 0.0608(3) 0.22669(9) -0.07946(13)
C13 C -0.0170(3) 0.19518(11) -0.16202(14)
H11 H -0.076(3) 0.1555(11) -0.1588(15)
C14 C -0.0168(3) 0.22229(11) -0.24844(15)
H12 H -0.071(3) 0.1997(11) -0.3064(16)
C15 C 0.0591(3) 0.27988(11) -0.25546(15)
C16 C 0.1305(3) 0.31177(11) -0.17277(17)
H13 H 0.183(3) 0.3504(11) -0.1729(15)
C17 C 0.1301(3) 0.28579(10) -0.08612(15)
H14 H 0.178(3) 0.3095(11) -0.0317(16)
C18 C 0.0659(3) 0.30765(14) -0.34968(17)
H15 H 0.1878 0.3028 -0.3612
H16 H 0.0357 0.3510 -0.3497
H17 H -0.0215 0.2868 -0.3982
C19 C 0.1679(3) 0.00154(9) 0.18082(13)
O3 O 0.2626(2) -0.04551(7) 0.17908(11)
C20 C 0.0243(3) 0.00002(8) 0.23803(13)
C21 C 0.0576(3) -0.03376(11) 0.32084(16)
H18 H 0.168(3) -0.0521(11) 0.3392(16)
C22 C -0.0731(4) -0.03698(13) 0.37497(18)
H19 H -0.038(4) -0.0584(13) 0.4343(19)
C23 C -0.2432(3) -0.00887(11) 0.34719(16)
C24 C -0.2791(3) 0.02327(10) 0.26246(15)
H20 H -0.406(3) 0.0405(10) 0.2404(16)
C25 C -0.1469(3) 0.02848(9) 0.20893(14)
H21 H -0.174(3) 0.0520(11) 0.1493(16)
C26 C -0.3853(4) -0.01209(15) 0.4067(2)
H22 H -0.4459 -0.0517 0.3982
H23 H -0.4747 0.0203 0.3883
H24 H -0.3260 -0.0069 0.4717
O4 O 0.1895(3) 0.38724(10) 0.48294(14)
H25 H 0.136(5) 0.3507(19) 0.450(3)
H26 H 0.177(5) 0.4146(18) 0.426(3)
loop_
_geom_bond_atom_site_label_1
_geom_bond_atom_site_label_2
_geom_bond_site_symmetry_1
_geom_bond_site_symmetry_2
N1 C1 1_555 1_555
C1 N2 1_555 1_555
N2 C2 1_555 1_555
C2 C3 1_555 1_555
C3 C4 1_555 1_555
C4 C5 1_555 1_555
C5 C6 1_555 1_555
C6 H1 1_555 1_555
H2 C6 1_555 1_555
C7 C6 1_555 1_555
H3 C7 1_555 1_555
H4 C7 1_555 1_555
N3 C4 1_555 1_555
C8 N3 1_555 1_555
N4 C8 1_555 1_555
C9 N1 1_555 1_555
C10 N1 1_555 1_555
H5 C10 1_555 1_555
H6 C10 1_555 1_555
H7 C10 1_555 1_555
O1 C1 1_555 1_555
C11 N2 1_555 1_555
H8 C11 1_555 1_555
H9 C11 1_555 1_555
H10 C11 1_555 1_555
O2 C2 1_555 1_555
C12 C8 1_555 1_555
C13 C12 1_555 1_555
H11 C13 1_555 1_555
C14 C13 1_555 1_555
H12 C14 1_555 1_555
C15 C14 1_555 1_555
C16 C15 1_555 1_555
H13 C16 1_555 1_555
C17 C12 1_555 1_555
H14 C17 1_555 1_555
C18 C15 1_555 1_555
H15 C18 1_555 1_555
H16 C18 1_555 1_555
H17 C18 1_555 1_555
C19 C5 1_555 1_555
O3 C19 1_555 1_555
C20 C19 1_555 1_555
C21 C20 1_555 1_555
H18 C21 1_555 1_555
C22 C21 1_555 1_555
H19 C22 1_555 1_555
C23 C22 1_555 1_555
C24 C23 1_555 1_555
H20 C24 1_555 1_555
C25 C20 1_555 1_555
H21 C25 1_555 1_555
C26 C23 1_555 1_555
H22 C26 1_555 1_555
H23 C26 1_555 1_555
H24 C26 1_555 1_555
O4 H25 1_555 1_555
H26 O4 1_555 1_555
C3 C9 1_555 1_555
C7 N3 1_555 1_555
N4 C9 1_555 1_555
C16 C17 1_555 1_555
C24 C25 1_555 1_555

#END
