
#######################################################################
#
#                 Cambridge Crystallographic Data Centre
#                                CCDC 
#
#######################################################################
#
# If this CIF has been generated from an entry in the Cambridge 
# Structural Database, then it will include bibliographic, chemical, 
# crystal, experimental, refinement or atomic coordinate data resulting 
# from the CCDC's data processing and validation procedures.
#
#######################################################################

data_BEGCAU
_chemical_formula_moiety         'C14 H11 Cl1 N4'
_chemical_name_systematic        
2-chloro-4-methyl-5,6-dihydropyrimido[5',4':5,6]pyrido[1,2-a]benzimidazole
_symmetry_cell_setting           triclinic
_symmetry_space_group_name_H-M   'P -1'
_symmetry_Int_Tables_number      2
_space_group_name_Hall           '-P 1'
loop_
_symmetry_equiv_pos_site_id
_symmetry_equiv_pos_as_xyz
1 x,y,z
2 -x,-y,-z
_cell_length_a                   7.7912(16)
_cell_length_b                   11.901(2)
_cell_length_c                   13.856(3)
_cell_angle_alpha                90.40(3)
_cell_angle_beta                 98.58(3)
_cell_angle_gamma                103.44(3)
_cell_volume                     1234.44
_exptl_crystal_colour            colorless
_exptl_crystal_description       prism
_cell_formula_units_Z            4
loop_
_atom_site_label
_atom_site_type_symbol
_atom_site_fract_x
_atom_site_fract_y
_atom_site_fract_z
N1 N 0.6748(2) 0.24815(13) 0.60735(11)
Cl1 Cl 0.75310(10) 0.13602(6) 0.76112(4)
C1 C 0.7157(2) 0.15149(16) 0.63544(12)
N2 N 0.73612(19) 0.06412(12) 0.58274(10)
C2 C 0.7078(2) 0.07861(13) 0.48689(11)
N3 N 0.73340(18) -0.00787(11) 0.42609(9)
C3 C 0.7871(2) -0.11017(13) 0.44903(11)
C4 C 0.8187(3) -0.16429(17) 0.53543(14)
H1 H 0.798(3) -0.130(2) 0.5989(18)
C5 C 0.8687(3) -0.26835(19) 0.52912(18)
H2 H 0.890(3) -0.309(2) 0.5882(18)
C6 C 0.8880(3) -0.31497(16) 0.44074(17)
H3 H 0.926(3) -0.3922(19) 0.4398(15)
C7 C 0.8562(3) -0.26120(16) 0.35476(16)
H4 H 0.876(3) -0.292(2) 0.2944(18)
C8 C 0.8043(2) -0.15697(14) 0.35920(12)
N4 N 0.7651(3) -0.08605(14) 0.28388(11)
C9 C 0.7253(3) 0.00033(16) 0.32537(12)
C10 C 0.7060(8) 0.1121(4) 0.2796(3)
H5 H 0.630(6) 0.082(3) 0.220(4)
H6 H 0.823(6) 0.165(4) 0.279(3)
C11 C 0.5897(6) 0.1668(4) 0.33524(19)
H7 H 0.594(6) 0.241(4) 0.305(3)
H8 H 0.466(5) 0.125(3) 0.323(2)
C12 C 0.6556(2) 0.17405(14) 0.44464(12)
C13 C 0.6444(2) 0.25967(15) 0.50990(14)
C14 C 0.6020(4) 0.37123(18) 0.47737(19)
H9 H 0.7041 0.4194 0.4550
H10 H 0.5721 0.4101 0.5311
H11 H 0.5027 0.3557 0.4251
Cl2 Cl 0.90101(9) 0.44578(5) 1.24254(3)
C17 C 0.7834(3) 0.41234(16) 1.12454(12)
N5 N 0.8168(2) 0.49778(12) 1.06422(10)
C18 C 0.7218(2) 0.47382(14) 0.97499(11)
N6 N 0.7464(2) 0.56141(12) 0.90917(9)
C19 C 0.8475(2) 0.67588(14) 0.92280(11)
C20 C 0.9641(3) 0.73799(15) 1.00111(12)
H16 H 0.989(3) 0.7082(17) 1.0639(15)
C21 C 1.0441(3) 0.85104(17) 0.98510(14)
H17 H 1.127(3) 0.8977(19) 1.0368(17)
C22 C 1.0092(3) 0.90099(17) 0.89620(15)
H18 H 1.071(3) 0.981(2) 0.8855(17)
C23 C 0.8922(3) 0.83898(18) 0.81972(15)
H19 H 0.869(3) 0.873(2) 0.7585(18)
C24 C 0.8112(3) 0.72515(16) 0.83265(12)
N7 N 0.6947(2) 0.64310(14) 0.76565(11)
C25 C 0.6612(3) 0.54873(16) 0.81217(12)
C26 C 0.5617(4) 0.4313(2) 0.77248(16)
H20 H 0.482(4) 0.442(2) 0.720(2)
H21 H 0.660(4) 0.387(3) 0.749(2)
C27 C 0.4849(3) 0.35259(19) 0.84714(16)
H22 H 0.460(3) 0.278(2) 0.8200(18)
H23 H 0.352(4) 0.376(3) 0.854(2)
C28 C 0.6002(2) 0.36861(15) 0.94625(13)
C29 C 0.5839(3) 0.28642(15) 1.01732(14)
C30 C 0.4640(3) 0.16825(18) 0.99760(19)
H24 H 0.4982 0.1177 1.0467
H25 H 0.4741 0.1389 0.9345
H26 H 0.3427 0.1722 0.9989
N8 N 0.6763(2) 0.30944(14) 1.10878(12)
C15? C 0.6223(11) 0.0846(5) 0.2802(6)
H12? H 0.691(8) 0.109(5) 0.214(5)
H13? H 0.508(11) 0.060(7) 0.275(6)
C16? C 0.6725(18) 0.1992(5) 0.3386(3)
H14? H 0.585(13) 0.254(8) 0.334(7)
H15? H 0.813(10) 0.232(6) 0.335(5)
loop_
_geom_bond_atom_site_label_1
_geom_bond_atom_site_label_2
_geom_bond_site_symmetry_1
_geom_bond_site_symmetry_2
N1 C1 1_555 1_555
Cl1 C1 1_555 1_555
C1 N2 1_555 1_555
N2 C2 1_555 1_555
C2 N3 1_555 1_555
N3 C3 1_555 1_555
C3 C4 1_555 1_555
C4 H1 1_555 1_555
C5 C4 1_555 1_555
H2 C5 1_555 1_555
C6 C5 1_555 1_555
H3 C6 1_555 1_555
C7 C6 1_555 1_555
H4 C7 1_555 1_555
C8 C3 1_555 1_555
N4 C8 1_555 1_555
C9 N3 1_555 1_555
C10 C9 1_555 1_555
H5 C10 1_555 1_555
H6 C10 1_555 1_555
C11 C10 1_555 1_555
H7 C11 1_555 1_555
H8 C11 1_555 1_555
C12 C2 1_555 1_555
C13 N1 1_555 1_555
C14 C13 1_555 1_555
H9 C14 1_555 1_555
H10 C14 1_555 1_555
H11 C14 1_555 1_555
Cl2 C17 1_555 1_555
C17 N5 1_555 1_555
N5 C18 1_555 1_555
C18 N6 1_555 1_555
N6 C19 1_555 1_555
C19 C20 1_555 1_555
C20 H16 1_555 1_555
C21 C20 1_555 1_555
H17 C21 1_555 1_555
C22 C21 1_555 1_555
H18 C22 1_555 1_555
C23 C22 1_555 1_555
H19 C23 1_555 1_555
C24 C19 1_555 1_555
N7 C24 1_555 1_555
C25 N6 1_555 1_555
C26 C25 1_555 1_555
H20 C26 1_555 1_555
H21 C26 1_555 1_555
C27 C26 1_555 1_555
H22 C27 1_555 1_555
H23 C27 1_555 1_555
C28 C18 1_555 1_555
C29 C28 1_555 1_555
C30 C29 1_555 1_555
H24 C30 1_555 1_555
H25 C30 1_555 1_555
H26 C30 1_555 1_555
N8 C17 1_555 1_555
C7 C8 1_555 1_555
N4 C9 1_555 1_555
C11 C12 1_555 1_555
C12 C13 1_555 1_555
C23 C24 1_555 1_555
N7 C25 1_555 1_555
C27 C28 1_555 1_555
C29 N8 1_555 1_555

#END
