
#######################################################################
#
#                 Cambridge Crystallographic Data Centre
#                                CCDC 
#
#######################################################################
#
# If this CIF has been generated from an entry in the Cambridge 
# Structural Database, then it will include bibliographic, chemical, 
# crystal, experimental, refinement or atomic coordinate data resulting 
# from the CCDC's data processing and validation procedures.
#
#######################################################################

data_BEGFAV
_chemical_formula_moiety         'C18 H19 N2 O3'
_chemical_name_systematic        
2-Formyl-6-(4,4,5,5-tetramethylimidazolin-2-yl-1-oxy-3-oxide)-naphthalene
_symmetry_cell_setting           monoclinic
_symmetry_space_group_name_H-M   'C 2/c'
_symmetry_Int_Tables_number      15
_space_group_name_Hall           '-C 2yn'
loop_
_symmetry_equiv_pos_site_id
_symmetry_equiv_pos_as_xyz
1 x,y,z
2 1/2+x,1/2+y,z
3 -x,y,1/2-z
4 1/2-x,1/2+y,1/2-z
5 -x,-y,-z
6 1/2-x,1/2-y,-z
7 x,-y,1/2+z
8 1/2+x,1/2-y,1/2+z
_cell_length_a                   12.404(5)
_cell_length_b                   9.730(5)
_cell_length_c                   27.049(10)
_cell_angle_alpha                90
_cell_angle_beta                 98.189(15)
_cell_angle_gamma                90
_cell_volume                     3231.28
_exptl_crystal_colour            black
_exptl_crystal_description       thin
_chemical_melting_point          167-169deg.C
_cell_formula_units_Z            8
_exptl_crystal_recrystallization_method dichloromethane
loop_
_atom_site_label
_atom_site_type_symbol
_atom_site_fract_x
_atom_site_fract_y
_atom_site_fract_z
O1 O 0.9418(7) -0.1246(10) 0.3917(3)
O2 O 0.5779(7) -0.2232(11) 0.3750(3)
O3 O 0.7523(9) 0.3135(11) 0.6667(3)
N1 N 0.8472(7) -0.1724(9) 0.3756(3)
N2 N 0.6758(7) -0.2147(10) 0.3669(3)
H1 H 0.568(15) 0.306(42) 0.629(15)
H2 H 0.8315(53) 0.1460(72) 0.6066(17)
H3 H 0.5371(50) 0.253(14) 0.5575(32)
H4 H 0.5356(52) 0.141(14) 0.4869(35)
H5 H 0.5989(39) 0.0011(62) 0.4273(13)
H6 H 0.8718(56) -0.1542(60) 0.4770(31)
H7 H 0.9261(68) -0.001(14) 0.5545(29)
H8 H 0.5978(55) -0.135(18) 0.2829(60)
H9 H 0.676(12) -0.171(16) 0.2529(33)
H10 H 0.703(11) -0.046(16) 0.2855(55)
H11 H 0.578(12) -0.375(18) 0.3026(62)
H12 H 0.677(12) -0.466(17) 0.3245(55)
H13 H 0.680(11) -0.4452(95) 0.2674(44)
H14 H 0.846(14) -0.451(18) 0.3610(67)
H15 H 0.954(12) -0.382(15) 0.3687(56)
H16 H 0.885(11) -0.473(16) 0.3133(54)
H17 H 0.9575(51) -0.203(18) 0.3015(60)
H18 H 0.871(11) -0.0773(97) 0.2852(48)
H19 H 0.882(13) -0.257(17) 0.2684(59)
C1 C 0.6829(11) 0.3066(12) 0.6307(4)
C2 C 0.6943(10) 0.2198(11) 0.5874(4)
C3 C 0.7819(12) 0.1432(14) 0.5792(5)
C4 C 0.7680(10) 0.0579(11) 0.5300(5)
C5 C 0.5958(14) 0.2181(16) 0.5501(5)
C6 C 0.5868(14) 0.1355(18) 0.5003(7)
C7 C 0.6747(9) 0.0734(13) 0.5005(5)
C8 C 0.6656(13) -0.0127(15) 0.4500(5)
C9 C 0.7535(11) -0.0844(12) 0.4433(4)
C10 C 0.8471(17) -0.0813(17) 0.4804(5)
C11 C 0.8583(12) -0.0154(17) 0.5260(6)
C12 C 0.7572(9) -0.1566(11) 0.3963(3)
C13 C 0.7063(9) -0.2580(12) 0.3182(4)
C14 C 0.6653(13) -0.1444(21) 0.2814(5)
C15 C 0.6528(14) -0.3916(18) 0.3013(6)
C16 C 0.8315(8) -0.2619(12) 0.3309(4)
C17 C 0.8804(15) -0.4000(16) 0.3477(7)
C18 C 0.8928(14) -0.1993(23) 0.2903(6)
loop_
_geom_bond_atom_site_label_1
_geom_bond_atom_site_label_2
_geom_bond_site_symmetry_1
_geom_bond_site_symmetry_2
O1 N1 1_555 1_555
O2 N2 1_555 1_555
O3 C1 1_555 1_555
N1 C12 1_555 1_555
N2 C12 1_555 1_555
H1 C1 1_555 1_555
H2 C3 1_555 1_555
H3 C5 1_555 1_555
H4 C6 1_555 1_555
H5 C8 1_555 1_555
H6 C10 1_555 1_555
H7 C11 1_555 1_555
H8 C14 1_555 1_555
H9 C14 1_555 1_555
H10 C14 1_555 1_555
H11 C15 1_555 1_555
H12 C15 1_555 1_555
H13 C15 1_555 1_555
H14 C17 1_555 1_555
H15 C17 1_555 1_555
H16 C17 1_555 1_555
H17 C18 1_555 1_555
H18 C18 1_555 1_555
H19 C18 1_555 1_555
C1 C2 1_555 1_555
C2 C3 1_555 1_555
C3 C4 1_555 1_555
C4 C7 1_555 1_555
C5 C2 1_555 1_555
C6 C5 1_555 1_555
C7 C6 1_555 1_555
C8 C7 1_555 1_555
C9 C8 1_555 1_555
C10 C9 1_555 1_555
C11 C4 1_555 1_555
C12 C9 1_555 1_555
C13 N2 1_555 1_555
C14 C13 1_555 1_555
C15 C13 1_555 1_555
C16 N1 1_555 1_555
C17 C16 1_555 1_555
C18 C16 1_555 1_555
C10 C11 1_555 1_555
C13 C16 1_555 1_555

#END
