
#######################################################################
#
#                 Cambridge Crystallographic Data Centre
#                                CCDC 
#
#######################################################################
#
# If this CIF has been generated from an entry in the Cambridge 
# Structural Database, then it will include bibliographic, chemical, 
# crystal, experimental, refinement or atomic coordinate data resulting 
# from the CCDC's data processing and validation procedures.
#
#######################################################################

data_BEGGOL
_chemical_formula_moiety         'C40 H34 P2,C1 H2 Cl2'
_chemical_name_systematic        
'tricyclo[8.2.2.2^4,7^]hexadeca-1(12),4,6,10,13,15-hexaene-5,11-diylbis(diphenylphosphine) dichloromethane solvate'
_symmetry_cell_setting           monoclinic
_symmetry_space_group_name_H-M   'P 21'
_symmetry_Int_Tables_number      4
_space_group_name_Hall           'P 2yb'
loop_
_symmetry_equiv_pos_site_id
_symmetry_equiv_pos_as_xyz
1 x,y,z
2 -x,1/2+y,-z
_cell_length_a                   10.626(2)
_cell_length_b                   16.515(3)
_cell_length_c                   10.860(2)
_cell_angle_alpha                90
_cell_angle_beta                 115.63(3)
_cell_angle_gamma                90
_cell_volume                     1718.28
_exptl_crystal_colour            colorless
_exptl_crystal_description       rod
_cell_formula_units_Z            2
loop_
_atom_site_label
_atom_site_type_symbol
_atom_site_fract_x
_atom_site_fract_y
_atom_site_fract_z
Cl1 Cl -0.33416(13) 0.34476(7) 0.27784(11)
Cl2 Cl -0.44556(12) 0.22746(5) 0.40204(11)
C41 C -0.4011(5) 0.3282(2) 0.3974(5)
H35 H -0.3306 0.3446 0.4890
H36 H -0.4848 0.3625 0.3740
P1 P 0.26632(6) 0.03011(3) 0.12198(6)
P2 P -0.01736(7) -0.11268(4) 0.32345(6)
C1 C 0.2192(2) -0.07614(13) 0.0720(2)
C2 C 0.1468(2) -0.09337(14) -0.0688(2)
C3 C 0.1255(3) -0.17475(16) -0.1072(3)
H1 H 0.0985 -0.1891 -0.1999
C4 C 0.1432(3) -0.23466(15) -0.0126(3)
H2 H 0.1304 -0.2898 -0.0404
C5 C 0.1795(2) -0.21518(14) 0.1230(2)
C6 C 0.2321(2) -0.13702(13) 0.1653(2)
H3 H 0.2778 -0.1253 0.2602
C7 C -0.0775(2) -0.11697(14) 0.1374(2)
C8 C -0.0978(2) -0.19434(13) 0.0769(2)
C9 C -0.1605(2) -0.19846(14) -0.0646(2)
H4 H -0.1969 -0.2487 -0.1081
C10 C -0.1710(2) -0.13030(15) -0.1443(2)
H5 H -0.2166 -0.1338 -0.2411
C11 C -0.1146(2) -0.05744(13) -0.0814(2)
C12 C -0.0825(2) -0.04960(13) 0.0573(2)
H6 H -0.0638 0.0026 0.0980
C13 C 0.0673(3) -0.02875(16) -0.1726(2)
H7 H 0.0339 -0.0516 -0.2657
H8 H 0.1311 0.0167 -0.1647
C14 C -0.0610(3) 0.00402(15) -0.1513(2)
H9 H -0.0332 0.0540 -0.0955
H10 H -0.1372 0.0182 -0.2412
C15 C 0.1355(3) -0.26859(14) 0.2108(3)
H11 H 0.1794 -0.2485 0.3061
H12 H 0.1693 -0.3244 0.2105
C16 C -0.0284(3) -0.26998(14) 0.1582(3)
H13 H -0.0669 -0.3183 0.0999
H14 H -0.0508 -0.2745 0.2375
C17 C 0.3910(2) 0.05164(14) 0.0498(2)
C18 C 0.4316(3) 0.13211(18) 0.0524(3)
H15 H 0.3940 0.1725 0.0892
C19 C 0.5265(4) 0.1537(2) 0.0017(3)
H16 H 0.5559 0.2084 0.0067
C20 C 0.5776(4) 0.0966(3) -0.0551(3)
H17 H 0.6407 0.1121 -0.0917
C21 C 0.5389(3) 0.0169(2) -0.0602(3)
H18 H 0.5754 -0.0226 -0.0996
C22 C 0.4460(3) -0.00570(18) -0.0074(3)
H19 H 0.4197 -0.0609 -0.0104
C23 C 0.3839(2) 0.02343(13) 0.3046(2)
C24 C 0.3358(3) 0.05078(15) 0.3976(2)
H20 H 0.2428 0.0702 0.3651
C25 C 0.4212(3) 0.05018(18) 0.5370(3)
H21 H 0.3862 0.0685 0.5991
C26 C 0.5567(3) 0.02297(17) 0.5852(2)
H22 H 0.6154 0.0226 0.6805
C27 C 0.6064(3) -0.00364(19) 0.4947(3)
H23 H 0.7001 -0.0221 0.5277
C28 C 0.5206(3) -0.00369(17) 0.3551(2)
H24 H 0.5560 -0.0225 0.2936
C29 C -0.0425(3) -0.00752(14) 0.3637(2)
C30 C -0.1612(3) 0.03838(17) 0.2888(3)
H25 H -0.2312 0.0177 0.2058
C31 C -0.1777(3) 0.11429(18) 0.3348(3)
H26 H -0.2582 0.1457 0.2827
C32 C -0.0772(3) 0.14394(17) 0.4560(3)
H27 H -0.0895 0.1955 0.4880
C33 C 0.0406(3) 0.09968(17) 0.5308(3)
H28 H 0.1101 0.1208 0.6137
C34 C 0.0578(3) 0.02371(15) 0.4848(2)
H29 H 0.1392 -0.0070 0.5370
C35 C -0.1677(3) -0.15886(14) 0.3399(3)
C36 C -0.1463(5) -0.18859(18) 0.4661(4)
H30 H -0.0569 -0.1852 0.5414
C37 C -0.2611(7) -0.2248(2) 0.4820(6)
H31 H -0.2475 -0.2469 0.5676
C38 C -0.3906(7) -0.2273(3) 0.3735(7)
H32 H -0.4665 -0.2505 0.3852
C39 C -0.4116(5) -0.1979(2) 0.2522(5)
H33 H -0.5022 -0.2001 0.1784
C40 C -0.3016(3) -0.16398(19) 0.2326(4)
H34 H -0.3177 -0.1440 0.1450
loop_
_geom_bond_atom_site_label_1
_geom_bond_atom_site_label_2
_geom_bond_site_symmetry_1
_geom_bond_site_symmetry_2
Cl1 C41 1_555 1_555
Cl2 C41 1_555 1_555
P1 C1 1_555 1_555
P2 C7 1_555 1_555
C1 C2 1_555 1_555
C2 C3 1_555 1_555
C3 H1 1_555 1_555
C4 C3 1_555 1_555
H2 C4 1_555 1_555
C5 C4 1_555 1_555
C6 C1 1_555 1_555
H3 C6 1_555 1_555
C7 C8 1_555 1_555
C8 C9 1_555 1_555
C9 H4 1_555 1_555
C10 C9 1_555 1_555
H5 C10 1_555 1_555
C11 C10 1_555 1_555
C12 C7 1_555 1_555
H6 C12 1_555 1_555
C13 C2 1_555 1_555
H7 C13 1_555 1_555
H8 C13 1_555 1_555
C14 C11 1_555 1_555
H9 C14 1_555 1_555
H10 C14 1_555 1_555
C15 C5 1_555 1_555
H11 C15 1_555 1_555
H12 C15 1_555 1_555
C16 C8 1_555 1_555
H13 C16 1_555 1_555
H14 C16 1_555 1_555
C17 P1 1_555 1_555
C18 C17 1_555 1_555
H15 C18 1_555 1_555
C19 C18 1_555 1_555
H16 C19 1_555 1_555
C20 C19 1_555 1_555
H17 C20 1_555 1_555
C21 C20 1_555 1_555
H18 C21 1_555 1_555
C22 C17 1_555 1_555
H19 C22 1_555 1_555
C23 P1 1_555 1_555
C24 C23 1_555 1_555
H20 C24 1_555 1_555
C25 C24 1_555 1_555
H21 C25 1_555 1_555
C26 C25 1_555 1_555
H22 C26 1_555 1_555
C27 C26 1_555 1_555
H23 C27 1_555 1_555
C28 C23 1_555 1_555
H24 C28 1_555 1_555
C29 P2 1_555 1_555
C30 C29 1_555 1_555
H25 C30 1_555 1_555
C31 C30 1_555 1_555
H26 C31 1_555 1_555
C32 C31 1_555 1_555
H27 C32 1_555 1_555
C33 C32 1_555 1_555
H28 C33 1_555 1_555
C34 C29 1_555 1_555
H29 C34 1_555 1_555
C35 P2 1_555 1_555
C36 C35 1_555 1_555
H30 C36 1_555 1_555
C37 C36 1_555 1_555
H31 C37 1_555 1_555
C38 C37 1_555 1_555
H32 C38 1_555 1_555
C39 C38 1_555 1_555
H33 C39 1_555 1_555
C40 C35 1_555 1_555
H34 C40 1_555 1_555
C41 H35 1_555 1_555
H36 C41 1_555 1_555
C5 C6 1_555 1_555
C11 C12 1_555 1_555
C13 C14 1_555 1_555
C15 C16 1_555 1_555
C21 C22 1_555 1_555
C27 C28 1_555 1_555
C33 C34 1_555 1_555
C39 C40 1_555 1_555

#END
