
#######################################################################
#
#                 Cambridge Crystallographic Data Centre
#                                CCDC 
#
#######################################################################
#
# If this CIF has been generated from an entry in the Cambridge 
# Structural Database, then it will include bibliographic, chemical, 
# crystal, experimental, refinement or atomic coordinate data resulting 
# from the CCDC's data processing and validation procedures.
#
#######################################################################

data_BEGHOM
_chemical_name_common            
"1,1'-((26,28-Dihydroxy-5,17-bis((4-nitrophenyl)diazenyl)pentacyclo[19.3.1.1$3,7!.1$9,13!.1$15,19!]octacosa-1(25),3(28),4,6,9(27),10,12,15(26),16,18,21,23-dodecaene-25,27-diyl)bis(oxyethane-2,1-diyloxyethane-2,1-diyloxyethane-2,1-diyloxy-2,1-phenylene))diethanone chloroform solvate"
_chemical_formula_moiety         'C68 H66 N6 O16,C1 H1 Cl3'
_chemical_name_systematic        
'5,17-bis((4-nitrophenyl)diazenyl)-26,28-dihydroxy-25,27-bis(2-[2-(2-phenoxyethoxy)ethoxy]ethoxy)calix(4)arene chloroform solvate'
_symmetry_cell_setting           monoclinic
_symmetry_space_group_name_H-M   'P 21/n'
_symmetry_Int_Tables_number      14
_space_group_name_Hall           '-P 2yn'
loop_
_symmetry_equiv_pos_site_id
_symmetry_equiv_pos_as_xyz
1 x,y,z
2 1/2-x,1/2+y,1/2-z
3 -x,-y,-z
4 1/2+x,1/2-y,1/2+z
_cell_length_a                   17.9165(5)
_cell_length_b                   16.5501(4)
_cell_length_c                   22.8972(6)
_cell_angle_alpha                90
_cell_angle_beta                 101.7260(10)
_cell_angle_gamma                90
_cell_volume                     6647.78
_exptl_crystal_colour            colorless
_exptl_crystal_description       prism
_cell_formula_units_Z            4
loop_
_atom_site_label
_atom_site_type_symbol
_atom_site_fract_x
_atom_site_fract_y
_atom_site_fract_z
C1 C 0.7096(4) 0.2583(5) 0.3014(3)
H1 H 0.6650 0.2425 0.3131
C2 C 0.7309(3) 0.3383(4) 0.3034(3)
H2 H 0.6997 0.3764 0.3163
C3 C 1.0162(3) 0.2222(3) 0.0481(2)
H3 H 1.0705 0.2333 0.0566
H4 H 0.9951 0.2409 0.0080
C4 C 1.0035(3) 0.1341(3) 0.05198(18)
H5 H 0.9497 0.1234 0.0495
H6 H 1.0194 0.1067 0.0191
C5 C 0.7549(4) 0.2028(4) 0.2821(3)
H7 H 0.7407 0.1487 0.2806
C6 C 0.9929(4) 0.3490(3) 0.0865(3)
H8 H 0.9668 0.3690 0.0479
H9 H 1.0469 0.3599 0.0904
C7 C 0.9649(4) 0.3914(3) 0.1331(3)
H10 H 0.9545 0.4468 0.1201
H11 H 0.9166 0.3673 0.1363
C8 C 0.7976(3) 0.3641(3) 0.2868(2)
C9 C 0.8125(3) 0.4530(3) 0.2901(2)
C10 C 0.8213(3) 0.2245(3) 0.2648(2)
H12 H 0.8512 0.1856 0.2512
C11 C 0.8429(3) 0.3050(3) 0.2677(2)
C12 C 0.9365(2) 0.0447(3) 0.1707(2)
H13 H 0.8842 0.0259 0.1606
H14 H 0.9379 0.0993 0.1555
C13 C 0.9860(2) -0.0092(3) 0.14114(18)
C14 C 0.9800(3) -0.0936(3) 0.1444(2)
H15 H 0.9423 -0.1166 0.1616
C15 C 0.8918(4) 0.4864(4) 0.2929(4)
H16 H 0.8936 0.5417 0.3056
H17 H 0.9043 0.4832 0.2541
H18 H 0.9279 0.4553 0.3207
C16 C 1.0416(2) 0.0218(2) 0.11351(16)
C17 C 1.2550(4) 0.0748(4) -0.0467(3)
H19 H 1.2052 0.0822 -0.0675
C18 C 1.0299(3) -0.1423(3) 0.1222(2)
H20 H 1.0248 -0.1981 0.1238
C19 C 0.9537(3) 0.2757(3) 0.2282(2)
H21 H 0.9260 0.2561 0.1900
H22 H 0.9665 0.2299 0.2548
C20 C 1.2927(6) 0.0075(5) -0.0584(3)
H23 H 1.2693 -0.0298 -0.0866
C21 C 1.0943(2) -0.0269(3) 0.09283(16)
C22 C 0.7478(3) -0.2426(3) 0.4041(3)
H24 H 0.7326 -0.2953 0.3938
C23 C 1.0866(3) -0.1102(3) 0.09795(18)
H25 H 1.1207 -0.1445 0.0846
C24 C 1.2366(4) 0.2013(4) 0.0047(3)
C25 C 0.7884(3) -0.1983(3) 0.3700(2)
H26 H 0.7995 -0.2208 0.3356
C26 C 1.1581(2) 0.0082(3) 0.06639(18)
H27 H 1.1584 -0.0183 0.0286
H28 H 1.1482 0.0652 0.0584
C27 C 0.7305(3) -0.2066(3) 0.4537(2)
C28 C 0.9626(2) 0.0458(2) 0.23826(18)
C29 C 0.9207(2) 0.0069(3) 0.27392(19)
H29 H 0.8758 -0.0194 0.2566
C30 C 1.0247(3) 0.3185(3) 0.2206(2)
H30 H 1.0564 0.3279 0.2596
H31 H 1.0528 0.2835 0.1987
C31 C 1.2860(4) 0.1326(4) -0.0058(3)
C32 C 0.8129(3) -0.1206(3) 0.3867(2)
C33 C 0.7523(3) -0.1288(4) 0.4706(2)
H32 H 0.7389 -0.1057 0.5040
C34 C 0.7943(3) -0.0860(3) 0.4370(2)
H33 H 0.8102 -0.0337 0.4480
C35 C 1.2537(4) 0.2507(4) 0.0602(3)
H34 H 1.2095 0.2818 0.0636
H35 H 1.2954 0.2864 0.0587
H36 H 1.2671 0.2156 0.0941
C36 C 1.3649(6) -0.0042(5) -0.0283(4)
H37 H 1.3909 -0.0505 -0.0356
C37 C 0.9451(3) 0.0066(3) 0.33620(19)
C38 C 1.0301(2) 0.0846(2) 0.26529(19)
C39 C 1.2357(2) -0.0010(2) 0.10623(17)
C40 C 1.3613(4) 0.1202(4) 0.0239(3)
C41 C 1.4011(4) 0.0516(5) 0.0133(3)
H38 H 1.4510 0.0431 0.0336
C42 C 1.2870(2) -0.0573(2) 0.09444(17)
H39 H 1.2733 -0.0907 0.0613
C43 C 1.0111(2) 0.0473(3) 0.36188(19)
H40 H 1.0262 0.0484 0.4032
C44 C 1.0549(2) 0.0862(2) 0.32746(19)
C45 C 1.2582(2) 0.0489(2) 0.15699(18)
C46 C 1.4363(3) -0.2687(3) 0.01788(19)
H41 H 1.3862 -0.2703 -0.0032
C47 C 1.4892(3) -0.3218(3) 0.0033(2)
H42 H 1.4753 -0.3591 -0.0274
C48 C 1.3594(2) -0.0656(2) 0.13100(17)
C49 C 1.4572(2) -0.2132(2) 0.06357(17)
C50 C 1.1268(3) 0.1305(3) 0.3550(2)
H43 H 1.1277 0.1388 0.3971
H44 H 1.1264 0.1832 0.3365
C51 C 1.2660(5) 0.3192(3) 0.2675(3)
H45 H 1.2212 0.3223 0.2356
H46 H 1.2732 0.3711 0.2875
C52 C 1.4627(4) 0.1646(5) 0.1032(3)
H47 H 1.5032 0.1518 0.0824
H48 H 1.4562 0.1191 0.1284
C53 C 1.3283(2) 0.0405(2) 0.19527(17)
C54 C 1.5626(3) -0.3178(3) 0.0351(2)
C55 C 1.3691(4) 0.3503(4) 0.2250(4)
H49 H 1.3877 0.3875 0.2574
H50 H 1.3343 0.3805 0.1948
C56 C 1.3778(2) -0.0167(2) 0.18124(18)
H51 H 1.4253 -0.0228 0.2063
C57 C 1.2568(3) 0.2558(3) 0.3095(2)
H52 H 1.3058 0.2435 0.3348
H53 H 1.2229 0.2742 0.3348
C58 C 1.2446(2) 0.1122(2) 0.30959(17)
C59 C 1.1985(2) 0.0858(2) 0.34826(18)
C60 C 1.4835(4) 0.2407(6) 0.1416(3)
H54 H 1.5322 0.2331 0.1687
H55 H 1.4877 0.2868 0.1163
C61 C 1.4323(6) 0.3286(5) 0.1998(4)
H56 H 1.4382 0.3690 0.1704
H57 H 1.4779 0.3301 0.2311
C62 C 1.5317(3) -0.2105(3) 0.0941(2)
H58 H 1.5462 -0.1731 0.1247
C63 C 1.3500(3) 0.0919(3) 0.2515(2)
H59 H 1.4041 0.0860 0.2678
H60 H 1.3402 0.1484 0.2413
C64 C 1.3054(2) 0.0675(2) 0.29848(17)
C65 C 1.5849(3) -0.2624(3) 0.0799(2)
H61 H 1.6353 -0.2601 0.1002
C66 C 1.2190(3) 0.0148(3) 0.3792(2)
H62 H 1.1904 -0.0038 0.4061
C67 C 1.3248(3) -0.0032(3) 0.3307(2)
H63 H 1.3668 -0.0333 0.3254
C68 C 1.2815(3) -0.0286(3) 0.3705(2)
H64 H 1.2947 -0.0760 0.3919
N1 N 0.6900(3) -0.2546(4) 0.4916(3)
N2 N 0.8557(3) -0.0817(3) 0.34921(18)
N3 N 0.9043(2) -0.0335(2) 0.37504(16)
N4 N 1.3974(2) -0.1624(2) 0.07455(16)
N5 N 1.4159(2) -0.1184(2) 0.11993(15)
N6 N 1.6195(3) -0.3737(3) 0.0203(2)
O1 O 0.7621(2) 0.4992(2) 0.2947(2)
O2 O 0.9812(2) 0.26362(17) 0.08936(14)
O3 O 1.1795(4) 0.2151(3) -0.0325(3)
O4 O 0.90800(19) 0.33185(19) 0.25275(16)
O5 O 1.04679(16) 0.10484(15) 0.10780(11)
O6 O 1.0114(2) 0.39312(19) 0.19021(16)
O7 O 0.6806(2) -0.3265(3) 0.4795(2)
O8 O 0.6685(3) -0.2205(4) 0.5321(2)
O9 O 1.07182(16) 0.12529(18) 0.23185(13)
H65 H 1.1173 0.1206 0.2468
O10 O 1.20679(17) 0.10596(18) 0.16615(13)
H66 H 1.2288 0.1413 0.1883
O11 O 1.3946(3) 0.1792(3) 0.0620(2)
O12 O 1.6003(3) -0.4191(3) -0.0218(2)
O13 O 1.22584(17) 0.18384(15) 0.27783(12)
O14 O 1.3308(5) 0.2987(3) 0.2445(4)
O15 O 1.4278(3) 0.2542(3) 0.1732(2)
O16 O 1.6830(3) -0.3714(3) 0.0493(2)
Cl1 Cl 0.37849(19) 0.94255(17) 0.52020(12)
Cl2 Cl 0.5059(3) 0.8768(2) 0.5948(2)
Cl3 Cl 0.3735(5) 0.9145(4) 0.63970(19)
C69 C 0.3948(9) 0.8849(6) 0.5824(5)
H67 H 0.3725 0.8313 0.5726
loop_
_geom_bond_atom_site_label_1
_geom_bond_atom_site_label_2
_geom_bond_site_symmetry_1
_geom_bond_site_symmetry_2
C1 H1 1_555 1_555
C2 C1 1_555 1_555
H2 C2 1_555 1_555
C3 H3 1_555 1_555
H4 C3 1_555 1_555
C4 C3 1_555 1_555
H5 C4 1_555 1_555
H6 C4 1_555 1_555
C5 C1 1_555 1_555
H7 C5 1_555 1_555
C6 H8 1_555 1_555
H9 C6 1_555 1_555
C7 C6 1_555 1_555
H10 C7 1_555 1_555
H11 C7 1_555 1_555
C8 C2 1_555 1_555
C9 C8 1_555 1_555
C10 C5 1_555 1_555
H12 C10 1_555 1_555
C11 C8 1_555 1_555
C12 H13 1_555 1_555
H14 C12 1_555 1_555
C13 C12 1_555 1_555
C14 C13 1_555 1_555
H15 C14 1_555 1_555
C15 C9 1_555 1_555
H16 C15 1_555 1_555
H17 C15 1_555 1_555
H18 C15 1_555 1_555
C16 C13 1_555 1_555
C17 H19 1_555 1_555
C18 C14 1_555 1_555
H20 C18 1_555 1_555
C19 H21 1_555 1_555
H22 C19 1_555 1_555
C20 C17 1_555 1_555
H23 C20 1_555 1_555
C21 C16 1_555 1_555
C22 H24 1_555 1_555
C23 C18 1_555 1_555
H25 C23 1_555 1_555
C24 C31 1_555 1_555
C25 C22 1_555 1_555
H26 C25 1_555 1_555
C26 C21 1_555 1_555
H27 C26 1_555 1_555
H28 C26 1_555 1_555
C27 C22 1_555 1_555
C28 C12 1_555 1_555
C29 C28 1_555 1_555
H29 C29 1_555 1_555
C30 C19 1_555 1_555
H30 C30 1_555 1_555
H31 C30 1_555 1_555
C31 C17 1_555 1_555
C32 C25 1_555 1_555
C33 C27 1_555 1_555
H32 C33 1_555 1_555
C34 C32 1_555 1_555
H33 C34 1_555 1_555
C35 C24 1_555 1_555
H34 C35 1_555 1_555
H35 C35 1_555 1_555
H36 C35 1_555 1_555
C36 C20 1_555 1_555
H37 C36 1_555 1_555
C37 C29 1_555 1_555
C38 C28 1_555 1_555
C39 C26 1_555 1_555
C40 C31 1_555 1_555
C41 C36 1_555 1_555
H38 C41 1_555 1_555
C42 C39 1_555 1_555
H39 C42 1_555 1_555
C43 C37 1_555 1_555
H40 C43 1_555 1_555
C44 C38 1_555 1_555
C45 C39 1_555 1_555
C46 H41 1_555 1_555
C47 C46 1_555 1_555
H42 C47 1_555 1_555
C48 C42 1_555 1_555
C49 C46 1_555 1_555
C50 C44 1_555 1_555
H43 C50 1_555 1_555
H44 C50 1_555 1_555
C51 H45 1_555 1_555
H46 C51 1_555 1_555
C52 H47 1_555 1_555
H48 C52 1_555 1_555
C53 C45 1_555 1_555
C54 C47 1_555 1_555
C55 H49 1_555 1_555
H50 C55 1_555 1_555
C56 C48 1_555 1_555
H51 C56 1_555 1_555
C57 C51 1_555 1_555
H52 C57 1_555 1_555
H53 C57 1_555 1_555
C58 C59 1_555 1_555
C59 C50 1_555 1_555
C60 C52 1_555 1_555
H54 C60 1_555 1_555
H55 C60 1_555 1_555
C61 C55 1_555 1_555
H56 C61 1_555 1_555
H57 C61 1_555 1_555
C62 C49 1_555 1_555
H58 C62 1_555 1_555
C63 C53 1_555 1_555
H59 C63 1_555 1_555
H60 C63 1_555 1_555
C64 C58 1_555 1_555
C65 C54 1_555 1_555
H61 C65 1_555 1_555
C66 C59 1_555 1_555
H62 C66 1_555 1_555
C67 C64 1_555 1_555
H63 C67 1_555 1_555
C68 C66 1_555 1_555
H64 C68 1_555 1_555
N1 C27 1_555 1_555
N2 C32 1_555 1_555
N3 C37 1_555 1_555
N4 C49 1_555 1_555
N5 C48 1_555 1_555
N6 C54 1_555 1_555
O1 C9 1_555 1_555
O2 C3 1_555 1_555
O3 C24 1_555 1_555
O4 C11 1_555 1_555
O5 C4 1_555 1_555
O6 C7 1_555 1_555
O7 N1 1_555 1_555
O8 N1 1_555 1_555
O9 C38 1_555 1_555
H65 O9 1_555 1_555
O10 C45 1_555 1_555
H66 O10 1_555 1_555
O11 C40 1_555 1_555
O12 N6 1_555 1_555
O13 C57 1_555 1_555
O14 C51 1_555 1_555
O15 C60 1_555 1_555
O16 N6 1_555 1_555
Cl1 C69 1_555 1_555
Cl2 C69 1_555 1_555
Cl3 C69 1_555 1_555
C69 H67 1_555 1_555
C6 O2 1_555 1_555
C10 C11 1_555 1_555
C16 O5 1_555 1_555
C19 O4 1_555 1_555
C21 C23 1_555 1_555
C30 O6 1_555 1_555
C33 C34 1_555 1_555
C40 C41 1_555 1_555
C43 C44 1_555 1_555
C52 O11 1_555 1_555
C53 C56 1_555 1_555
C55 O14 1_555 1_555
C58 O13 1_555 1_555
C61 O15 1_555 1_555
C62 C65 1_555 1_555
C63 C64 1_555 1_555
C67 C68 1_555 1_555
N2 N3 1_555 1_555
N4 N5 1_555 1_555

#END
