
#######################################################################
#
#                 Cambridge Crystallographic Data Centre
#                                CCDC 
#
#######################################################################
#
# If this CIF has been generated from an entry in the Cambridge 
# Structural Database, then it will include bibliographic, chemical, 
# crystal, experimental, refinement or atomic coordinate data resulting 
# from the CCDC's data processing and validation procedures.
#
#######################################################################

data_BEGHOK10
_chemical_name_common            'DrugBank: DB03619'
_chemical_formula_moiety         '2(C24 H40 O4),0.75(C8 H7 F1 O1)'
_chemical_name_systematic        
'bis(Deoxycholic acid) p-fluoroacetophenone clathrate'
_symmetry_cell_setting           orthorhombic
_symmetry_space_group_name_H-M   'P 21 21 21'
_symmetry_Int_Tables_number      19
_space_group_name_Hall           'P 2ac 2ab'
loop_
_symmetry_equiv_pos_site_id
_symmetry_equiv_pos_as_xyz
1 x,y,z
2 1/2+x,1/2-y,-z
3 -x,1/2+y,1/2-z
4 1/2-x,-y,1/2+z
_cell_length_a                   25.270(7)
_cell_length_b                   13.579(8)
_cell_length_c                   7.198(2)
_cell_angle_alpha                90
_cell_angle_beta                 90
_cell_angle_gamma                90
_cell_volume                     2469.93
_chemical_melting_point          165-167deg.C
_cell_formula_units_Z            2
loop_
_atom_site_label
_atom_site_type_symbol
_atom_site_fract_x
_atom_site_fract_y
_atom_site_fract_z
C1 C 0.1254(1) 0.2130(2) 0.3539(3)
C2 C 0.0697(1) 0.1835(2) 0.2971(3)
C3 C 0.0717(1) 0.1123(2) 0.1357(3)
C4 C 0.1017(1) 0.1565(2) -0.0271(3)
C5 C 0.1578(1) 0.1894(2) 0.0279(3)
C6 C 0.1871(1) 0.2333(2) -0.1394(4)
C7 C 0.1662(1) 0.3346(2) -0.1945(3)
C8 C 0.1649(1) 0.4065(2) -0.0306(3)
C9 C 0.1339(1) 0.3610(2) 0.1337(3)
C10 C 0.1578(1) 0.2611(2) 0.1960(3)
C11 C 0.1261(1) 0.4359(2) 0.2909(3)
C12 C 0.1004(1) 0.5327(2) 0.2263(3)
C13 C 0.1327(1) 0.5801(2) 0.0686(3)
C14 C 0.1384(1) 0.5026(2) -0.0877(3)
C15 C 0.1619(1) 0.5603(2) -0.2488(3)
C16 C 0.1358(1) 0.6630(2) -0.2322(3)
C17 C 0.1065(1) 0.6659(2) -0.0420(3)
C18 C 0.1870(1) 0.6127(2) 0.1466(4)
C19 C 0.2143(1) 0.2742(2) 0.2693(4)
C20 C 0.1067(1) 0.7696(2) 0.0402(3)
C21 C 0.0792(1) 0.7773(2) 0.2297(4)
C22 C 0.0836(1) 0.8457(2) -0.0967(4)
C23 C 0.0253(1) 0.8305(2) -0.1498(4)
C24 C 0.0077(1) 0.9098(2) -0.2817(3)
O1 O 0.0181(1) 0.0888(1) 0.0851(3)
O2 O 0.0471(1) 0.5126(1) 0.1649(2)
O3 O 0.0079(1) 0.9974(1) -0.2441(3)
O4 O -0.0085(1) 0.8767(1) -0.4429(3)
H1 H 0.1200(15) 0.2499(25) 0.4694(32)
H2 H 0.1422(11) 0.1514(22) 0.3906(46)
H3 H 0.0497(11) 0.2438(21) 0.2566(44)
H4 H 0.0494(14) 0.1511(29) 0.3812(60)
H5 H 0.0911(11) 0.0499(22) 0.1701(44)
H6 H 0.1058(12) 0.1065(23) -0.1269(52)
H7 H 0.0845(12) 0.2107(26) -0.0786(50)
H8 H 0.1754(14) 0.1249(26) 0.0782(56)
H9 H 0.1789(14) 0.1930(24) -0.2488(32)
H10 H 0.2277(14) 0.2489(26) -0.1165(52)
H11 H 0.1921(12) 0.3543(22) -0.3066(46)
H12 H 0.1264(14) 0.3211(25) -0.2451(56)
H13 H 0.2013(6) 0.4110(31) 0.0149(57)
H14 H 0.0966(12) 0.3455(24) 0.0844(50)
H15 H 0.1024(10) 0.4141(23) 0.3905(32)
H16 H 0.1568(12) 0.4525(23) 0.3539(47)
H17 H 0.0971(11) 0.5760(22) 0.3286(44)
H18 H 0.1033(13) 0.4885(23) -0.1257(49)
H19 H 0.1995(11) 0.5630(23) -0.2109(46)
H20 H 0.1567(11) 0.5164(22) -0.3694(44)
H21 H 0.1616(9) 0.7169(17) -0.2310(51)
H22 H 0.1122(12) 0.6747(24) -0.3226(49)
H23 H 0.0690(11) 0.6444(21) -0.0727(44)
H24 H 0.2107(12) 0.6360(23) 0.0395(50)
H25 H 0.2126(12) 0.5559(24) 0.1728(47)
H26 H 0.1827(12) 0.6523(23) 0.2665(49)
H27 H 0.2342(12) 0.3109(23) 0.1758(48)
H28 H 0.2344(12) 0.2135(24) 0.2777(49)
H29 H 0.2132(12) 0.3112(23) 0.3920(50)
H30 H 0.1452(11) 0.7862(22) 0.0572(46)
H31 H 0.1000(12) 0.7380(23) 0.3161(48)
H32 H 0.0411(12) 0.7435(22) 0.2383(50)
H33 H 0.0677(12) 0.8440(9) 0.2623(46)
H34 H 0.1015(13) 0.8400(27) -0.2216(56)
H35 H 0.0920(12) 0.9088(23) -0.0476(48)
H36 H 0.0098(13) 0.8417(26) -0.0268(23)
H37 H 0.0160(15) 0.7693(30) -0.2123(61)
H38 H 0.0163(13) 0.0540(22) -0.0308(26)
H39 H 0.0250(11) 0.5458(25) 0.2534(41)
H40 H -0.0187(12) 0.9338(25) -0.5008(47)
loop_
_geom_bond_atom_site_label_1
_geom_bond_atom_site_label_2
_geom_bond_site_symmetry_1
_geom_bond_site_symmetry_2
C1 C2 1_555 1_555
C2 C3 1_555 1_555
C3 C4 1_555 1_555
C4 C5 1_555 1_555
C5 C6 1_555 1_555
C6 C7 1_555 1_555
C7 C8 1_555 1_555
C8 C9 1_555 1_555
C9 C10 1_555 1_555
C10 C1 1_555 1_555
C11 C9 1_555 1_555
C12 C11 1_555 1_555
C13 C12 1_555 1_555
C14 C8 1_555 1_555
C15 C14 1_555 1_555
C16 C15 1_555 1_555
C17 C13 1_555 1_555
C18 C13 1_555 1_555
C19 C10 1_555 1_555
C20 C17 1_555 1_555
C21 C20 1_555 1_555
C22 C20 1_555 1_555
C23 C22 1_555 1_555
C24 C23 1_555 1_555
O1 C3 1_555 1_555
O2 C12 1_555 1_555
O3 C24 1_555 1_555
O4 C24 1_555 1_555
H1 C1 1_555 1_555
H2 C1 1_555 1_555
H3 C2 1_555 1_555
H4 C2 1_555 1_555
H5 C3 1_555 1_555
H6 C4 1_555 1_555
H7 C4 1_555 1_555
H8 C5 1_555 1_555
H9 C6 1_555 1_555
H10 C6 1_555 1_555
H11 C7 1_555 1_555
H12 C7 1_555 1_555
H13 C8 1_555 1_555
H14 C9 1_555 1_555
H15 C11 1_555 1_555
H16 C11 1_555 1_555
H17 C12 1_555 1_555
H18 C14 1_555 1_555
H19 C15 1_555 1_555
H20 C15 1_555 1_555
H21 C16 1_555 1_555
H22 C16 1_555 1_555
H23 C17 1_555 1_555
H24 C18 1_555 1_555
H25 C18 1_555 1_555
H26 C18 1_555 1_555
H27 C19 1_555 1_555
H28 C19 1_555 1_555
H29 C19 1_555 1_555
H30 C20 1_555 1_555
H31 C21 1_555 1_555
H32 C21 1_555 1_555
H33 C21 1_555 1_555
H34 C22 1_555 1_555
H35 C22 1_555 1_555
H36 C23 1_555 1_555
H37 C23 1_555 1_555
H38 O1 1_555 1_555
H39 O2 1_555 1_555
H40 O4 1_555 1_555
C5 C10 1_555 1_555
C13 C14 1_555 1_555
C16 C17 1_555 1_555

#END
