
#######################################################################
#
#                 Cambridge Crystallographic Data Centre
#                                CCDC 
#
#######################################################################
#
# If this CIF has been generated from an entry in the Cambridge 
# Structural Database, then it will include bibliographic, chemical, 
# crystal, experimental, refinement or atomic coordinate data resulting 
# from the CCDC's data processing and validation procedures.
#
#######################################################################

data_BEGJII
_chemical_formula_moiety         'C30 H20,C1 H4 O1'
_chemical_name_systematic        
'1,2,3-triphenylcyclopenta[a]indene methanol solvate'
_symmetry_cell_setting           hexagonal
_symmetry_space_group_name_H-M   'P 62'
_symmetry_Int_Tables_number      171
_space_group_name_Hall           'P 62'
loop_
_symmetry_equiv_pos_site_id
_symmetry_equiv_pos_as_xyz
1 x,y,z
2 x-y,x,1/3+z
3 -y,x-y,2/3+z
4 -x,-y,z
5 -x+y,-x,1/3+z
6 y,-x+y,2/3+z
_cell_length_a                   25.324(11)
_cell_length_b                   25.324(11)
_cell_length_c                   5.877(3)
_cell_angle_alpha                90
_cell_angle_beta                 90
_cell_angle_gamma                120
_cell_volume                     3264.01
_exptl_crystal_colour            green
_cell_formula_units_Z            6
loop_
_atom_site_label
_atom_site_type_symbol
_atom_site_fract_x
_atom_site_fract_y
_atom_site_fract_z
C1 C 0.5998(3) 0.6030(3) 1.3312(12)
C2 C 0.6091(3) 0.5177(3) 1.1167(11)
C3 C 0.7955(3) 0.6472(3) 0.7441(12)
H1 H 0.8039 0.6718 0.8984
C4 C 0.5708(3) 0.6761(3) 1.4616(11)
H2 H 0.5697 0.7168 1.4336
C5 C 0.6757(3) 0.6164(3) 1.0220(12)
C6 C 0.5565(3) 0.3546(3) 1.0677(13)
H3 H 0.5246 0.3293 1.1970
C7 C 0.7135(3) 0.6836(3) 1.0110(13)
C8 C 0.5829(3) 0.4179(3) 1.0554(11)
C9 C 0.7383(3) 0.5970(3) 0.7013(12)
C10 C 0.5739(3) 0.5694(3) 1.5317(11)
H4 H 0.5750 0.5286 1.5606
C11 C 0.6453(3) 0.5164(3) 0.9256(11)
C12 C 0.7521(3) 0.7168(3) 1.1891(12)
H5 H 0.7522 0.6939 1.3398
C13 C 0.6273(3) 0.4525(3) 0.8846(12)
C14 C 0.5718(3) 0.4599(3) 1.1944(12)
H6 H 0.5404 0.4474 1.3308
C15 C 0.6285(3) 0.5817(3) 1.1626(11)
C16 C 0.5972(3) 0.6564(3) 1.3027(12)
H7 H 0.6162 0.6827 1.1536
C17 C 0.7521(3) 0.7775(4) 0.7997(13)
H8 H 0.7521 0.8009 0.6501
C18 C 0.8316(3) 0.6332(3) 0.3787(12)
H9 H 0.8670 0.6472 0.2569
C19 C 0.5734(3) 0.3253(3) 0.9047(12)
H10 H 0.5540 0.2773 0.9100
C20 C 0.5459(3) 0.6426(3) 1.6575(13)
H11 H 0.5261 0.6578 1.7811
C21 C 0.6147(3) 0.3583(3) 0.7391(12)
H12 H 0.6259 0.3347 0.6168
C22 C 0.6879(3) 0.5748(3) 0.8706(11)
C23 C 0.5470(3) 0.5887(3) 1.6922(12)
H13 H 0.5272 0.5625 1.8410
C24 C 0.7142(3) 0.7154(3) 0.8136(12)
H14 H 0.6854 0.6913 0.6750
C25 C 0.7900(3) 0.7790(4) 1.1728(13)
H15 H 0.8193 0.8033 1.3103
C26 C 0.7904(3) 0.8100(3) 0.9788(15)
H16 H 0.8194 0.8578 0.9669
C27 C 0.6430(3) 0.4222(3) 0.7233(12)
H17 H 0.6752 0.4465 0.5934
C28 C 0.7280(3) 0.5653(3) 0.4957(12)
H18 H 0.6842 0.5275 0.4611
C29 C 0.7747(3) 0.5829(3) 0.3358(11)
H19 H 0.7667 0.5580 0.1825
C30 C 0.8420(3) 0.6650(3) 0.5812(11)
H20 H 0.8856 0.7033 0.6135
O1 O 0.8770(7) 0.9318(7) 0.567(3)
C31 C 0.9134(9) 0.9387(8) 0.404(4)
O2? O 0.966(2) 0.953(3) 0.248(12)
O3? O 0.8820(16) 0.9645(18) 0.272(7)
loop_
_geom_bond_atom_site_label_1
_geom_bond_atom_site_label_2
_geom_bond_site_symmetry_1
_geom_bond_site_symmetry_2
C1 C10 1_555 1_555
C2 C11 1_555 1_555
C3 H1 1_555 1_555
C4 H2 1_555 1_555
C5 C7 1_555 1_555
C6 H3 1_555 1_555
C7 C12 1_555 1_555
C8 C6 1_555 1_555
C9 C3 1_555 1_555
C10 H4 1_555 1_555
C11 C13 1_555 1_555
C12 H5 1_555 1_555
C13 C8 1_555 1_555
C14 C2 1_555 1_555
H6 C14 1_555 1_555
C15 C1 1_555 1_555
C16 C1 1_555 1_555
H7 C16 1_555 1_555
C17 H8 1_555 1_555
C18 H9 1_555 1_555
C19 C6 1_555 1_555
H10 C19 1_555 1_555
C20 C4 1_555 1_555
H11 C20 1_555 1_555
C21 C19 1_555 1_555
H12 C21 1_555 1_555
C22 C5 1_555 1_555
C23 C10 1_555 1_555
H13 C23 1_555 1_555
C24 C7 1_555 1_555
H14 C24 1_555 1_555
C25 C12 1_555 1_555
H15 C25 1_555 1_555
C26 C17 1_555 1_555
H16 C26 1_555 1_555
C27 C13 1_555 1_555
H17 C27 1_555 1_555
C28 C9 1_555 1_555
H18 C28 1_555 1_555
C29 C18 1_555 1_555
H19 C29 1_555 1_555
C30 C3 1_555 1_555
H20 C30 1_555 1_555
O1 C31 1_555 1_555
C2 C15 1_555 1_555
C4 C16 1_555 1_555
C5 C15 1_555 1_555
C8 C14 1_555 1_555
C9 C22 1_555 1_555
C11 C22 1_555 1_555
C17 C24 1_555 1_555
C18 C30 1_555 1_555
C20 C23 1_555 1_555
C21 C27 1_555 1_555
C25 C26 1_555 1_555
C28 C29 1_555 1_555

#END
