
#######################################################################
#
#                 Cambridge Crystallographic Data Centre
#                                CCDC 
#
#######################################################################
#
# If this CIF has been generated from an entry in the Cambridge 
# Structural Database, then it will include bibliographic, chemical, 
# crystal, experimental, refinement or atomic coordinate data resulting 
# from the CCDC's data processing and validation procedures.
#
#######################################################################

data_BEGKIJ
_chemical_formula_moiety         'C30 H48 O4'
_chemical_name_systematic        '3,12-Dihydroxy-13,27-cycloursan-28-oic acid'
_symmetry_cell_setting           monoclinic
_symmetry_space_group_name_H-M   'P 21'
_symmetry_Int_Tables_number      4
_space_group_name_Hall           'P 2yb'
loop_
_symmetry_equiv_pos_site_id
_symmetry_equiv_pos_as_xyz
1 x,y,z
2 -x,1/2+y,-z
_cell_length_a                   11.10660(10)
_cell_length_b                   8.93370(10)
_cell_length_c                   13.7720(2)
_cell_angle_alpha                90
_cell_angle_beta                 100.6150(10)
_cell_angle_gamma                90
_cell_volume                     1343.11
_exptl_crystal_colour            'light colorless'
_exptl_crystal_description       prism
_cell_formula_units_Z            2
loop_
_atom_site_label
_atom_site_type_symbol
_atom_site_fract_x
_atom_site_fract_y
_atom_site_fract_z
O1 O 0.34525(14) 0.43432(19) 0.34069(12)
H1 H 0.4060 0.3768 0.3521
O2 O 0.49367(13) 0.72742(19) 0.62296(11)
H2 H 0.4826 0.6748 0.5715
O3 O 0.46487(14) 0.5719(2) 0.45334(11)
C1 C 0.2628(2) 0.6667(3) 0.38018(16)
C2 C 0.3674(2) 0.5550(3) 0.39692(15)
C3 C 0.2877(2) 0.5703(3) 0.75739(16)
H3 H 0.2058 0.6135 0.7619
C4 C 0.1985(2) 0.9278(3) 0.42932(17)
H4 H 0.1119 0.8925 0.4226
C5 C 0.2172(2) 0.3723(3) 0.86125(17)
H5 H 0.1429 0.4377 0.8521
C6 C 0.2657(2) 0.7314(3) 0.27624(16)
H6 H 0.3512 0.7583 0.2725
H7 H 0.2389 0.6528 0.2263
C7 C 0.26242(19) 0.4742(3) 0.66209(16)
C8 C 0.14157(19) 0.5846(3) 0.38401(16)
H8 H 0.0745 0.6586 0.3800
H9 H 0.1216 0.5165 0.3266
C9 C 0.37590(19) 0.7707(3) 0.64575(17)
H10 H 0.3757 0.8824 0.6503
C10 C 0.3307(3) 0.5926(4) 0.94263(18)
H11 H 0.4016 0.6604 0.9442
H12 H 0.2555 0.6545 0.9315
C11 C 0.28223(19) 0.7910(3) 0.45976(16)
H13 H 0.3685 0.8268 0.4648
C12 C 0.20909(18) 0.5773(3) 0.57371(15)
C13 C 0.3253(2) 0.4819(3) 0.85648(17)
C14 C 0.1653(2) 0.3579(3) 0.67524(17)
H14 H 0.0862 0.4098 0.6735
H15 H 0.1549 0.2875 0.6188
C15 C 0.2139(2) 0.9908(3) 0.32833(18)
H16 H 0.3014 1.0209 0.3326
C16 C 0.27165(19) 0.7273(3) 0.56241(15)
C17 C 0.1960(2) 0.2682(3) 0.77139(17)
H17 H 0.1278 0.1988 0.7761
H18 H 0.2706 0.2077 0.7709
C18 C 0.3690(2) 0.7101(3) 0.74953(16)
H19 H 0.3393 0.7923 0.7873
H20 H 0.4534 0.6860 0.7831
C19 C 0.2179(2) 1.0488(3) 0.50870(18)
H21 H 0.2023 1.0070 0.5710
H22 H 0.1613 1.1319 0.4882
H23 H 0.3024 1.0852 0.5179
C20 C 0.15123(19) 0.4943(3) 0.47948(16)
H24 H 0.2001 0.4031 0.4736
H25 H 0.0680 0.4617 0.4862
C21 C 0.1847(2) 0.8689(3) 0.25068(17)
H26 H 0.1964 0.9088 0.1860
H27 H 0.0978 0.8393 0.2446
C22 C 0.3772(2) 0.3949(3) 0.63859(18)
H28 H 0.4482 0.4614 0.6550
H29 H 0.3641 0.3700 0.5681
H30 H 0.3923 0.3029 0.6777
C23 C 0.2174(3) 0.2907(4) 0.96143(19)
C24 C 0.1335(2) 1.1276(3) 0.2971(2)
H31 H 0.0488 1.1053 0.3033
H32 H 0.1364 1.1526 0.2283
H33 H 0.1637 1.2126 0.3396
C25 C 0.14616(19) 0.7223(3) 0.59075(16)
H34 H 0.1404 0.7484 0.6596
H35 H 0.0750 0.7534 0.5404
O4 O 0.2453(4) 0.3341(4) 1.13637(16)
H36 H 0.2283 0.2431 1.1266
C26 C 0.2341(3) 0.4100(5) 1.0431(2)
H37 H 0.1582 0.4726 1.0338
C27 C 0.3425(3) 0.5132(4) 1.0423(2)
H38 H 0.4193 0.4544 1.0551
H39 H 0.3464 0.5885 1.0955
C28 C 0.4521(2) 0.4060(3) 0.86547(19)
H40 H 0.4421 0.3064 0.8352
H41 H 0.4897 0.3964 0.9354
H42 H 0.5049 0.4671 0.8315
C29 C 0.3141(3) 0.1668(5) 0.9840(3)
H43 H 0.3054 0.0975 0.9281
H44 H 0.3025 0.1124 1.0434
H45 H 0.3960 0.2115 0.9951
C30 C 0.0912(3) 0.2171(4) 0.9596(2)
H46 H 0.0266 0.2919 0.9410
H47 H 0.0873 0.1774 1.0253
H48 H 0.0797 0.1353 0.9114
loop_
_geom_bond_atom_site_label_1
_geom_bond_atom_site_label_2
_geom_bond_site_symmetry_1
_geom_bond_site_symmetry_2
O1 H1 1_555 1_555
O2 H2 1_555 1_555
O3 C2 1_555 1_555
C1 C2 1_555 1_555
C2 O1 1_555 1_555
C3 H3 1_555 1_555
C4 H4 1_555 1_555
C5 H5 1_555 1_555
C6 C1 1_555 1_555
H6 C6 1_555 1_555
H7 C6 1_555 1_555
C7 C3 1_555 1_555
C8 C1 1_555 1_555
H8 C8 1_555 1_555
H9 C8 1_555 1_555
C9 O2 1_555 1_555
H10 C9 1_555 1_555
C10 H11 1_555 1_555
H12 C10 1_555 1_555
C11 C1 1_555 1_555
H13 C11 1_555 1_555
C12 C7 1_555 1_555
C13 C3 1_555 1_555
C14 C7 1_555 1_555
H14 C14 1_555 1_555
H15 C14 1_555 1_555
C15 C4 1_555 1_555
H16 C15 1_555 1_555
C16 C9 1_555 1_555
C17 C5 1_555 1_555
H17 C17 1_555 1_555
H18 C17 1_555 1_555
C18 C3 1_555 1_555
H19 C18 1_555 1_555
H20 C18 1_555 1_555
C19 C4 1_555 1_555
H21 C19 1_555 1_555
H22 C19 1_555 1_555
H23 C19 1_555 1_555
C20 C8 1_555 1_555
H24 C20 1_555 1_555
H25 C20 1_555 1_555
C21 C6 1_555 1_555
H26 C21 1_555 1_555
H27 C21 1_555 1_555
C22 C7 1_555 1_555
H28 C22 1_555 1_555
H29 C22 1_555 1_555
H30 C22 1_555 1_555
C23 C5 1_555 1_555
C24 C15 1_555 1_555
H31 C24 1_555 1_555
H32 C24 1_555 1_555
H33 C24 1_555 1_555
C25 C12 1_555 1_555
H34 C25 1_555 1_555
H35 C25 1_555 1_555
O4 H36 1_555 1_555
C26 C23 1_555 1_555
H37 C26 1_555 1_555
C27 C10 1_555 1_555
H38 C27 1_555 1_555
H39 C27 1_555 1_555
C28 C13 1_555 1_555
H40 C28 1_555 1_555
H41 C28 1_555 1_555
H42 C28 1_555 1_555
C29 C23 1_555 1_555
H43 C29 1_555 1_555
H44 C29 1_555 1_555
H45 C29 1_555 1_555
C30 C23 1_555 1_555
H46 C30 1_555 1_555
H47 C30 1_555 1_555
H48 C30 1_555 1_555
C4 C11 1_555 1_555
C5 C13 1_555 1_555
C9 C18 1_555 1_555
C10 C13 1_555 1_555
C11 C16 1_555 1_555
C12 C16 1_555 1_555
C12 C20 1_555 1_555
C14 C17 1_555 1_555
C15 C21 1_555 1_555
C16 C25 1_555 1_555
O4 C26 1_555 1_555
C26 C27 1_555 1_555

#END
