
#######################################################################
#
#                 Cambridge Crystallographic Data Centre
#                                CCDC 
#
#######################################################################
#
# If this CIF has been generated from an entry in the Cambridge 
# Structural Database, then it will include bibliographic, chemical, 
# crystal, experimental, refinement or atomic coordinate data resulting 
# from the CCDC's data processing and validation procedures.
#
#######################################################################

data_BEGSAK
_chemical_formula_moiety         'C12 H10 O5'
_chemical_name_systematic        
'methyl 8-methoxy-2-oxo-2H-chromene-3-carboxylate'
_symmetry_cell_setting           monoclinic
_symmetry_space_group_name_H-M   'P 21/c'
_symmetry_Int_Tables_number      14
_space_group_name_Hall           '-P 2ybc'
loop_
_symmetry_equiv_pos_site_id
_symmetry_equiv_pos_as_xyz
1 x,y,z
2 -x,1/2+y,1/2-z
3 -x,-y,-z
4 x,1/2-y,1/2+z
_cell_length_a                   4.0283(14)
_cell_length_b                   24.867(8)
_cell_length_c                   10.379(4)
_cell_angle_alpha                90
_cell_angle_beta                 93.272(4)
_cell_angle_gamma                90
_cell_volume                     1037.99
_exptl_crystal_colour            yellow
_exptl_crystal_description       block
_cell_formula_units_Z            4
loop_
_atom_site_label
_atom_site_type_symbol
_atom_site_fract_x
_atom_site_fract_y
_atom_site_fract_z
C1 C -0.0755(6) 0.38174(8) 0.2282(2)
C2 C 0.0613(6) 0.42795(8) 0.3007(2)
C3 C -0.0086(7) 0.48439(9) 0.2614(3)
C4 C -0.2571(8) 0.54497(10) 0.1114(3)
H1 H -0.3461 0.5648 0.1809
H2 H -0.4150 0.5449 0.0386
H3 H -0.0542 0.5615 0.0876
C5 C 0.2575(6) 0.41987(9) 0.4080(2)
H4 H 0.3403 0.4497 0.4533
C6 C 0.3446(5) 0.36799(9) 0.4556(2)
C7 C 0.2161(5) 0.32441(8) 0.38531(18)
C8 C 0.2813(5) 0.27194(8) 0.42568(19)
C9 C 0.4766(6) 0.26389(10) 0.5367(2)
H5 H 0.5211 0.2291 0.5654
C10 C 0.6077(6) 0.30710(12) 0.6065(2)
H6 H 0.7405 0.3008 0.6812
C11 C 0.5457(6) 0.35871(11) 0.5675(2)
H7 H 0.6364 0.3874 0.6150
C12 C 0.1971(7) 0.17856(9) 0.3938(2)
H8 H 0.4319 0.1717 0.4013
H9 H 0.0927 0.1541 0.3324
H10 H 0.1050 0.1736 0.4762
O1 O 0.0172(4) 0.33168(5) 0.27510(13)
O2 O -0.2591(5) 0.38178(6) 0.13334(16)
O3 O -0.1905(5) 0.49002(6) 0.15271(19)
O4 O 0.0993(7) 0.52188(7) 0.3236(2)
O5 O 0.1403(4) 0.23240(6) 0.35114(14)
loop_
_geom_bond_atom_site_label_1
_geom_bond_atom_site_label_2
_geom_bond_site_symmetry_1
_geom_bond_site_symmetry_2
C1 C2 1_555 1_555
C2 C3 1_555 1_555
C3 O3 1_555 1_555
C4 H1 1_555 1_555
H2 C4 1_555 1_555
H3 C4 1_555 1_555
C5 C2 1_555 1_555
H4 C5 1_555 1_555
C6 C5 1_555 1_555
C7 C6 1_555 1_555
C8 C7 1_555 1_555
C9 C8 1_555 1_555
H5 C9 1_555 1_555
C10 C9 1_555 1_555
H6 C10 1_555 1_555
C11 C6 1_555 1_555
H7 C11 1_555 1_555
C12 H8 1_555 1_555
H9 C12 1_555 1_555
H10 C12 1_555 1_555
O1 C1 1_555 1_555
O2 C1 1_555 1_555
O3 C4 1_555 1_555
O4 C3 1_555 1_555
O5 C8 1_555 1_555
C7 O1 1_555 1_555
C10 C11 1_555 1_555
C12 O5 1_555 1_555

#END
