
#######################################################################
#
#                 Cambridge Crystallographic Data Centre
#                                CCDC 
#
#######################################################################
#
# If this CIF has been generated from an entry in the Cambridge 
# Structural Database, then it will include bibliographic, chemical, 
# crystal, experimental, refinement or atomic coordinate data resulting 
# from the CCDC's data processing and validation procedures.
#
#######################################################################

data_BEGVAM
_chemical_formula_moiety         'C34 H30 Br1 N3 O6 S1'
_chemical_name_systematic        
(3aR,8aR)-3,3'-(6-bromo-1-((4-nitrophenyl)sulfonyl)-1,2,3,8a-tetrahydropyrrolo[2,3-b]indole-3a,8-diyl)bis(1-phenylpropan-1-one)
_symmetry_cell_setting           tetragonal
_symmetry_space_group_name_H-M   'P 43 21 2'
_symmetry_Int_Tables_number      96
_space_group_name_Hall           'P 4nw 2abw'
loop_
_symmetry_equiv_pos_site_id
_symmetry_equiv_pos_as_xyz
1 x,y,z
2 1/2-y,1/2+x,3/4+z
3 1/2+y,1/2-x,1/4+z
4 1/2+x,1/2-y,1/4-z
5 1/2-x,1/2+y,3/4-z
6 -x,-y,1/2+z
7 y,x,-z
8 -y,-x,1/2-z
_cell_length_a                   10.0277(2)
_cell_length_b                   10.0277(2)
_cell_length_c                   61.0217(12)
_cell_angle_alpha                90
_cell_angle_beta                 90
_cell_angle_gamma                90
_cell_volume                     6136.02
_exptl_crystal_colour            yellow
_exptl_crystal_description       block
_cell_formula_units_Z            8
loop_
_atom_site_label
_atom_site_type_symbol
_atom_site_fract_x
_atom_site_fract_y
_atom_site_fract_z
Br1 Br 0.40331(3) -0.13174(3) 0.120471(4)
S1 S 1.17049(6) 0.16784(5) 0.169742(8)
N1 N 0.80509(19) 0.13222(18) 0.15822(3)
N2 N 1.04017(19) 0.08025(19) 0.16226(3)
N3 N 1.3521(2) -0.12406(19) 0.24941(3)
O1 O 0.7643(3) -0.0019(3) 0.25097(3)
O2 O 0.71712(19) 0.36382(19) 0.18541(3)
O3 O 1.12184(19) 0.29703(16) 0.17535(3)
O4 O 1.26984(18) 0.1505(2) 0.15305(2)
O5 O 1.28698(18) -0.11123(18) 0.26622(3)
O6 O 1.4480(2) -0.1998(2) 0.24772(4)
C1 C 0.7210(2) 0.0264(2) 0.15516(3)
C2 C 0.6184(2) 0.0116(2) 0.13989(3)
H1 H 0.5990 0.0787 0.1294
C3 C 0.5459(2) -0.1066(2) 0.14084(3)
C4 C 0.5706(2) -0.2074(2) 0.15569(4)
H2 H 0.5171 -0.2855 0.1559
C5 C 0.6770(2) -0.1914(2) 0.17040(4)
H3 H 0.6977 -0.2600 0.1806
C6 C 0.7512(2) -0.0762(2) 0.17005(3)
C7 C 0.8709(2) -0.0374(2) 0.18372(3)
C8 C 0.9920(2) -0.1282(2) 0.17882(3)
H4 H 1.0547 -0.1296 0.1914
H5 H 0.9629 -0.2205 0.1756
C9 C 1.0566(2) -0.0645(2) 0.15869(3)
H6 H 1.1522 -0.0887 0.1577
H7 H 1.0110 -0.0932 0.1451
C10 C 0.9099(2) 0.1020(2) 0.17373(3)
H8 H 0.9173 0.1722 0.1853
C11 C 0.8050(3) 0.2572(2) 0.14594(3)
H9 H 0.8240 0.2376 0.1303
H10 H 0.8777 0.3147 0.1515
C12 C 0.6740(2) 0.3335(2) 0.14742(3)
H11 H 0.6783 0.4112 0.1374
H12 H 0.6010 0.2750 0.1422
C13 C 0.6405(2) 0.3823(2) 0.17021(3)
C14 C 0.5118(2) 0.4537(2) 0.17370(4)
C15 C 0.4170(3) 0.4723(2) 0.15704(4)
H13 H 0.4328 0.4368 0.1428
C16 C 0.3004(3) 0.5421(3) 0.16124(5)
H14 H 0.2371 0.5553 0.1499
C17 C 0.2759(3) 0.5928(3) 0.18200(5)
H15 H 0.1953 0.6394 0.1849
C18 C 0.3687(3) 0.5756(2) 0.19846(4)
H16 H 0.3520 0.6113 0.2126
C19 C 0.4858(3) 0.5068(2) 0.19449(4)
H17 H 0.5489 0.4954 0.2059
C20 C 0.8405(2) -0.0299(2) 0.20844(3)
H18 H 0.8153 -0.1199 0.2137
H19 H 0.9227 -0.0033 0.2163
C21 C 0.7298(2) 0.0671(2) 0.21432(3)
H20 H 0.7567 0.1584 0.2100
H21 H 0.6484 0.0437 0.2060
C22 C 0.6986(2) 0.0654(2) 0.23850(4)
C23 C 0.5843(2) 0.1458(2) 0.24687(3)
C24 C 0.5217(2) 0.2428(2) 0.23442(4)
H22 H 0.5525 0.2611 0.2200
C25 C 0.4147(2) 0.3135(2) 0.24282(4)
H23 H 0.3723 0.3801 0.2342
C26 C 0.3696(2) 0.2868(2) 0.26386(4)
H24 H 0.2962 0.3352 0.2697
C27 C 0.4311(2) 0.1897(3) 0.27639(4)
H25 H 0.3990 0.1708 0.2907
C28 C 0.5386(2) 0.1206(3) 0.26822(3)
H26 H 0.5820 0.0557 0.2770
C29 C 1.2347(2) 0.0912(2) 0.19358(3)
C30 C 1.1759(2) 0.1192(2) 0.21378(3)
H27 H 1.1096 0.1865 0.2149
C31 C 1.2149(2) 0.0483(2) 0.23216(3)
H28 H 1.1747 0.0647 0.2460
C32 C 1.3132(2) -0.0466(2) 0.22988(4)
C33 C 1.3767(2) -0.0731(2) 0.21015(4)
H29 H 1.4457 -0.1378 0.2093
C34 C 1.3369(2) -0.0028(2) 0.19178(4)
H30 H 1.3787 -0.0184 0.1781
loop_
_geom_bond_atom_site_label_1
_geom_bond_atom_site_label_2
_geom_bond_site_symmetry_1
_geom_bond_site_symmetry_2
Br1 C3 1_555 1_555
S1 N2 1_555 1_555
N1 C1 1_555 1_555
N2 C9 1_555 1_555
N3 O5 1_555 1_555
O1 C22 1_555 1_555
O2 C13 1_555 1_555
O3 S1 1_555 1_555
O4 S1 1_555 1_555
O6 N3 1_555 1_555
C1 C2 1_555 1_555
C2 H1 1_555 1_555
C3 C2 1_555 1_555
C4 C3 1_555 1_555
H2 C4 1_555 1_555
C5 C4 1_555 1_555
H3 C5 1_555 1_555
C6 C1 1_555 1_555
C7 C6 1_555 1_555
C8 C7 1_555 1_555
H4 C8 1_555 1_555
H5 C8 1_555 1_555
C9 C8 1_555 1_555
H6 C9 1_555 1_555
H7 C9 1_555 1_555
C10 N1 1_555 1_555
H8 C10 1_555 1_555
C11 N1 1_555 1_555
H9 C11 1_555 1_555
H10 C11 1_555 1_555
C12 C11 1_555 1_555
H11 C12 1_555 1_555
H12 C12 1_555 1_555
C13 C12 1_555 1_555
C14 C13 1_555 1_555
C15 C14 1_555 1_555
H13 C15 1_555 1_555
C16 C15 1_555 1_555
H14 C16 1_555 1_555
C17 C16 1_555 1_555
H15 C17 1_555 1_555
C18 C17 1_555 1_555
H16 C18 1_555 1_555
C19 C14 1_555 1_555
H17 C19 1_555 1_555
C20 C7 1_555 1_555
H18 C20 1_555 1_555
H19 C20 1_555 1_555
C21 C20 1_555 1_555
H20 C21 1_555 1_555
H21 C21 1_555 1_555
C22 C21 1_555 1_555
C23 C22 1_555 1_555
C24 C23 1_555 1_555
H22 C24 1_555 1_555
C25 C24 1_555 1_555
H23 C25 1_555 1_555
C26 C25 1_555 1_555
H24 C26 1_555 1_555
C27 C26 1_555 1_555
H25 C27 1_555 1_555
C28 C23 1_555 1_555
H26 C28 1_555 1_555
C29 S1 1_555 1_555
C30 C29 1_555 1_555
H27 C30 1_555 1_555
C31 C30 1_555 1_555
H28 C31 1_555 1_555
C32 N3 1_555 1_555
C33 C32 1_555 1_555
H29 C33 1_555 1_555
C34 C29 1_555 1_555
H30 C34 1_555 1_555
N2 C10 1_555 1_555
C5 C6 1_555 1_555
C7 C10 1_555 1_555
C18 C19 1_555 1_555
C27 C28 1_555 1_555
C31 C32 1_555 1_555
C33 C34 1_555 1_555

#END
