
#######################################################################
#
#                 Cambridge Crystallographic Data Centre
#                                CCDC 
#
#######################################################################
#
# If this CIF has been generated from an entry in the Cambridge 
# Structural Database, then it will include bibliographic, chemical, 
# crystal, experimental, refinement or atomic coordinate data resulting 
# from the CCDC's data processing and validation procedures.
#
#######################################################################

data_BEGXAN
_chemical_formula_moiety         'C74 H80 O14'
_chemical_name_systematic        
7,30,56,62-Tetraphenyl-3,11,14,17,20,23,26,34,38,41,44,47,50,53-tetradecaoxaoctacyclo[34.18.9.1^9,28^.0^5,10^.0^27,32^.0^37,60^]tetrahexaconta-1(54),5,7,9,27,29,31,36,55,57,60,62-dodecaene
_symmetry_cell_setting           triclinic
_symmetry_space_group_name_H-M   'P -1'
_symmetry_Int_Tables_number      2
_space_group_name_Hall           '-P 1'
loop_
_symmetry_equiv_pos_site_id
_symmetry_equiv_pos_as_xyz
1 x,y,z
2 -x,-y,-z
_cell_length_a                   11.727(5)
_cell_length_b                   13.260(5)
_cell_length_c                   11.226(5)
_cell_angle_alpha                102.434(5)
_cell_angle_beta                 109.638(5)
_cell_angle_gamma                92.964(5)
_cell_volume                     1590.87
_exptl_crystal_colour            colorless
_exptl_crystal_description       parallelepiped
_chemical_melting_point          256deg.C
_cell_formula_units_Z            1
loop_
_atom_site_label
_atom_site_type_symbol
_atom_site_fract_x
_atom_site_fract_y
_atom_site_fract_z
O1 O 0.65090(19) -0.26567(15) 0.09139(19)
O2 O 0.38567(19) -0.19849(15) 0.16663(18)
O3 O 0.2950(3) -0.42038(19) 0.0922(3)
O4 O 0.0704(4) -0.4513(4) -0.1612(5)
O5 O 0.0406(4) -0.2535(4) -0.1818(6)
O6 O 0.1449(2) -0.03501(19) -0.0432(3)
O7 O 0.40541(18) 0.04560(15) 0.06125(17)
C1 C 0.5509(3) -0.2498(2) -0.0151(3)
H1 H 0.5149 -0.1897 0.0150
H2 H 0.4887 -0.3102 -0.0486
C2 C 0.6155(3) -0.2743(2) 0.2004(3)
H3 H 0.6764 -0.3057 0.2583
H4 H 0.5382 -0.3194 0.1688
C3 C 0.6029(3) -0.1695(2) 0.2747(3)
C4 C 0.7072(3) -0.1040(2) 0.3611(3)
H5 H 0.7822 -0.1291 0.3795
C5 C 0.7027(3) -0.0019(2) 0.4208(3)
C6 C 0.8143(3) 0.0668(2) 0.5154(3)
C7 C 0.8987(3) 0.0299(3) 0.6113(3)
H6 H 0.8865 -0.0396 0.6131
C8 C 0.9995(3) 0.0940(4) 0.7032(4)
H7 H 1.0548 0.0675 0.7661
C9 C 1.0189(4) 0.1950(4) 0.7033(4)
H8 H 1.0864 0.2383 0.7671
C10 C 0.9387(4) 0.2343(4) 0.6088(5)
H9 H 0.9528 0.3037 0.6076
C11 C 0.8371(3) 0.1699(3) 0.5155(4)
H10 H 0.7832 0.1966 0.4519
C12 C 0.5893(3) 0.0338(2) 0.3906(3)
H11 H 0.5853 0.1027 0.4278
C13 C 0.4819(2) -0.0297(2) 0.3070(2)
C14 C 0.4907(3) -0.1321(2) 0.2521(3)
C15 C 0.3240(3) -0.2517(2) 0.2298(3)
H12 H 0.2827 -0.2037 0.2737
H13 H 0.3826 -0.2794 0.2946
C16 C 0.2332(4) -0.3384(3) 0.1299(4)
H14 H 0.1758 -0.3628 0.1661
H15 H 0.1879 -0.3137 0.0546
C17 C 0.2157(7) -0.5083(5) -0.0088(6)
H16 H 0.2596 -0.5683 -0.0075
H17 H 0.1455 -0.5240 0.0147
C18 C 0.1716(8) -0.4973(7) -0.1394(8)
H18 H 0.2338 -0.4558 -0.1540
H19 H 0.1540 -0.5654 -0.1998
C19 C 0.0369(10) -0.4224(7) -0.2859(7)
H20 H -0.0091 -0.4816 -0.3570
H21 H 0.1095 -0.3991 -0.3009
C20 C -0.0382(8) -0.3376(6) -0.2774(11)
H22 H -0.0705 -0.3196 -0.3606
H23 H -0.1058 -0.3579 -0.2523
C21 C -0.0189(5) -0.1787(5) -0.1269(7)
H24 H -0.0788 -0.2115 -0.1001
H25 H -0.0601 -0.1400 -0.1893
C22 C 0.0758(4) -0.1102(4) -0.0148(6)
H26 H 0.0378 -0.0744 0.0439
H27 H 0.1310 -0.1526 0.0313
C23 C 0.2325(3) -0.0720(3) -0.0978(4)
H28 H 0.1930 -0.1021 -0.1908
H29 H 0.2709 -0.1253 -0.0575
C24 C 0.3263(3) 0.0181(2) -0.0737(3)
H30 H 0.3742 -0.0003 -0.1289
H31 H 0.2862 0.0774 -0.0955
C25 C 0.3906(2) 0.1336(2) 0.1415(3)
C26 C 0.5939(3) -0.2326(2) -0.1214(3)
C27 C 0.6080(3) -0.3168(2) -0.2096(3)
H32 H 0.5990 -0.3829 -0.1956
C28 C 0.6350(3) -0.3070(2) -0.3186(3)
C29 C 0.6487(3) -0.3995(2) -0.4115(3)
C30 C 0.6799(3) -0.4901(2) -0.3749(3)
H33 H 0.6913 -0.4938 -0.2900
C31 C 0.6947(4) -0.5749(3) -0.4599(4)
H34 H 0.7162 -0.6345 -0.4317
C32 C 0.6784(4) -0.5728(3) -0.5852(4)
H35 H 0.6899 -0.6299 -0.6424
C33 C 0.6446(4) -0.4849(3) -0.6249(4)
H36 H 0.6317 -0.4827 -0.7107
C34 C 0.6296(3) -0.3999(3) -0.5403(3)
H37 H 0.6060 -0.3412 -0.5699
C35 C 0.6437(2) -0.2072(2) -0.3381(3)
H38 H 0.6583 -0.1987 -0.4120
C36 C 0.3684(2) 0.1202(2) 0.2526(3)
C37 C 0.3617(3) 0.0134(2) 0.2772(3)
H39 H 0.3016 -0.0339 0.2009
H40 H 0.3339 0.0163 0.3499
C25A C 0.6094(2) -0.1336(2) -0.1415(3)
O7A O 0.59459(18) -0.04560(15) -0.06125(17)
C24A C 0.6737(3) -0.0181(2) 0.0737(3)
C23A C 0.7675(3) 0.0720(3) 0.0978(4)
O6A O 0.8551(2) 0.03501(19) 0.0432(3)
C22A C 0.9242(4) 0.1102(4) 0.0148(6)
C21A C 1.0189(5) 0.1787(5) 0.1269(7)
O5A O 0.9594(4) 0.2535(4) 0.1818(6)
C20A C 1.0382(8) 0.3376(6) 0.2774(11)
C19A C 0.9631(10) 0.4224(7) 0.2859(7)
O4A O 0.9296(4) 0.4513(4) 0.1612(5)
C18A C 0.8284(8) 0.4973(7) 0.1394(8)
C17A C 0.7843(7) 0.5083(5) 0.0088(6)
O3A O 0.7050(3) 0.42038(19) -0.0922(3)
C16A C 0.7668(4) 0.3384(3) -0.1299(4)
C15A C 0.6760(3) 0.2517(2) -0.2298(3)
O2A O 0.61433(19) 0.19849(15) -0.16663(18)
C14A C 0.5093(3) 0.1321(2) -0.2521(3)
C3A C 0.3971(3) 0.1695(2) -0.2747(3)
C2A C 0.3845(3) 0.2743(2) -0.2004(3)
O1A O 0.34910(19) 0.26567(15) -0.09139(19)
C1A C 0.4491(3) 0.2498(2) 0.0151(3)
H1A H 0.4851 0.1897 -0.0150
H2A H 0.5113 0.3102 0.0486
C26A C 0.4061(3) 0.2326(2) 0.1214(3)
C35A C 0.3563(2) 0.2072(2) 0.3381(3)
C28A C 0.3650(3) 0.3070(2) 0.3186(3)
C27A C 0.3920(3) 0.3168(2) 0.2096(3)
H32A H 0.4010 0.3829 0.1956
C29A C 0.3513(3) 0.3995(2) 0.4115(3)
C30A C 0.3201(3) 0.4901(2) 0.3749(3)
H33A H 0.3087 0.4938 0.2900
C31A C 0.3053(4) 0.5749(3) 0.4599(4)
H34A H 0.2838 0.6345 0.4317
C32A C 0.3216(4) 0.5728(3) 0.5852(4)
H35A H 0.3101 0.6299 0.6424
C33A C 0.3554(4) 0.4849(3) 0.6249(4)
H36A H 0.3683 0.4827 0.7107
C34A C 0.3704(3) 0.3999(3) 0.5403(3)
H37A H 0.3940 0.3412 0.5699
H38A H 0.3417 0.1987 0.4120
H3A H 0.3236 0.3057 -0.2583
H4A H 0.4618 0.3194 -0.1688
C4A C 0.2928(3) 0.1040(2) -0.3611(3)
H5A H 0.2178 0.1291 -0.3795
C5A C 0.2973(3) 0.0019(2) -0.4208(3)
C6A C 0.1857(3) -0.0668(2) -0.5154(3)
C7A C 0.1013(3) -0.0299(3) -0.6113(3)
H6A H 0.1135 0.0396 -0.6131
C8A C 0.0005(3) -0.0940(4) -0.7032(4)
H7A H -0.0548 -0.0675 -0.7661
C9A C -0.0189(4) -0.1950(4) -0.7033(4)
H8A H -0.0864 -0.2383 -0.7671
C10A C 0.0613(4) -0.2343(4) -0.6088(5)
H9A H 0.0472 -0.3037 -0.6076
C11A C 0.1629(3) -0.1699(3) -0.5155(4)
H10A H 0.2168 -0.1966 -0.4519
C12A C 0.4107(3) -0.0338(2) -0.3906(3)
H11A H 0.4147 -0.1027 -0.4278
C13A C 0.5181(2) 0.0297(2) -0.3070(2)
C37A C 0.6383(3) -0.0134(2) -0.2772(3)
C36A C 0.6316(2) -0.1202(2) -0.2526(3)
H39A H 0.6984 0.0339 -0.2009
H40A H 0.6661 -0.0163 -0.3499
H12A H 0.7173 0.2037 -0.2737
H13A H 0.6174 0.2794 -0.2946
H14A H 0.8242 0.3628 -0.1661
H15A H 0.8121 0.3137 -0.0546
H16A H 0.7404 0.5683 0.0075
H17A H 0.8545 0.5240 -0.0147
H18A H 0.7662 0.4558 0.1540
H19A H 0.8460 0.5654 0.1998
H20A H 1.0091 0.4816 0.3570
H21A H 0.8905 0.3991 0.3009
H22A H 1.0705 0.3196 0.3606
H23A H 1.1058 0.3579 0.2523
H24A H 1.0788 0.2115 0.1001
H25A H 1.0601 0.1400 0.1893
H26A H 0.9622 0.0744 -0.0439
H27A H 0.8690 0.1526 -0.0313
H28A H 0.8070 0.1021 0.1908
H29A H 0.7291 0.1253 0.0575
H30A H 0.6258 0.0003 0.1289
H31A H 0.7138 -0.0774 0.0955
loop_
_geom_bond_atom_site_label_1
_geom_bond_atom_site_label_2
_geom_bond_site_symmetry_1
_geom_bond_site_symmetry_2
O1 C1 1_555 1_555
O2 C14 1_555 1_555
O3 C16 1_555 1_555
O4 C18 1_555 1_555
O5 C20 1_555 1_555
O6 C22 1_555 1_555
O7 C24 1_555 1_555
C1 H1 1_555 1_555
H2 C1 1_555 1_555
C2 O1 1_555 1_555
H3 C2 1_555 1_555
H4 C2 1_555 1_555
C3 C2 1_555 1_555
C4 C3 1_555 1_555
H5 C4 1_555 1_555
C5 C4 1_555 1_555
C6 C5 1_555 1_555
C7 C6 1_555 1_555
H6 C7 1_555 1_555
C8 C7 1_555 1_555
H7 C8 1_555 1_555
C9 C8 1_555 1_555
H8 C9 1_555 1_555
C10 C9 1_555 1_555
H9 C10 1_555 1_555
C11 C6 1_555 1_555
H10 C11 1_555 1_555
C12 C5 1_555 1_555
H11 C12 1_555 1_555
C13 C12 1_555 1_555
C14 C3 1_555 1_555
C15 O2 1_555 1_555
H12 C15 1_555 1_555
H13 C15 1_555 1_555
C16 C15 1_555 1_555
H14 C16 1_555 1_555
H15 C16 1_555 1_555
C17 O3 1_555 1_555
H16 C17 1_555 1_555
H17 C17 1_555 1_555
C18 C17 1_555 1_555
H18 C18 1_555 1_555
H19 C18 1_555 1_555
C19 O4 1_555 1_555
H20 C19 1_555 1_555
H21 C19 1_555 1_555
C20 C19 1_555 1_555
H22 C20 1_555 1_555
H23 C20 1_555 1_555
C21 O5 1_555 1_555
H24 C21 1_555 1_555
H25 C21 1_555 1_555
C22 C21 1_555 1_555
H26 C22 1_555 1_555
H27 C22 1_555 1_555
C23 O6 1_555 1_555
H28 C23 1_555 1_555
H29 C23 1_555 1_555
C24 C23 1_555 1_555
H30 C24 1_555 1_555
H31 C24 1_555 1_555
C25 O7 1_555 1_555
C26 C1 1_555 1_555
C27 C26 1_555 1_555
H32 C27 1_555 1_555
C28 C27 1_555 1_555
C29 C28 1_555 1_555
C30 C29 1_555 1_555
H33 C30 1_555 1_555
C31 C30 1_555 1_555
H34 C31 1_555 1_555
C32 C31 1_555 1_555
H35 C32 1_555 1_555
C33 C32 1_555 1_555
H36 C33 1_555 1_555
C34 C29 1_555 1_555
H37 C34 1_555 1_555
C35 C28 1_555 1_555
H38 C35 1_555 1_555
C36 C25 1_555 1_555
C37 C13 1_555 1_555
H39 C37 1_555 1_555
H40 C37 1_555 1_555
C25A C26 1_555 1_555
O7A C25A 1_555 1_555
C24A O7A 1_555 1_555
C23A C24A 1_555 1_555
O6A C23A 1_555 1_555
C22A O6A 1_555 1_555
C21A C22A 1_555 1_555
O5A C21A 1_555 1_555
C20A O5A 1_555 1_555
C19A C20A 1_555 1_555
O4A C19A 1_555 1_555
C18A O4A 1_555 1_555
C17A C18A 1_555 1_555
O3A C17A 1_555 1_555
C16A O3A 1_555 1_555
C15A C16A 1_555 1_555
O2A C15A 1_555 1_555
C14A O2A 1_555 1_555
C3A C14A 1_555 1_555
C2A C3A 1_555 1_555
O1A C2A 1_555 1_555
C1A O1A 1_555 1_555
H1A C1A 1_555 1_555
H2A C1A 1_555 1_555
C26A C25 1_555 1_555
C35A C36 1_555 1_555
C28A C35A 1_555 1_555
C27A C26A 1_555 1_555
H32A C27A 1_555 1_555
C29A C28A 1_555 1_555
C30A C29A 1_555 1_555
H33A C30A 1_555 1_555
C31A C30A 1_555 1_555
H34A C31A 1_555 1_555
C32A C31A 1_555 1_555
H35A C32A 1_555 1_555
C33A C32A 1_555 1_555
H36A C33A 1_555 1_555
C34A C29A 1_555 1_555
H37A C34A 1_555 1_555
H38A C35A 1_555 1_555
H3A C2A 1_555 1_555
H4A C2A 1_555 1_555
C4A C3A 1_555 1_555
H5A C4A 1_555 1_555
C5A C4A 1_555 1_555
C6A C5A 1_555 1_555
C7A C6A 1_555 1_555
H6A C7A 1_555 1_555
C8A C7A 1_555 1_555
H7A C8A 1_555 1_555
C9A C8A 1_555 1_555
H8A C9A 1_555 1_555
C10A C9A 1_555 1_555
H9A C10A 1_555 1_555
C11A C6A 1_555 1_555
H10A C11A 1_555 1_555
C12A C5A 1_555 1_555
H11A C12A 1_555 1_555
C13A C14A 1_555 1_555
C37A C13A 1_555 1_555
C36A C35 1_555 1_555
H39A C37A 1_555 1_555
H40A C37A 1_555 1_555
H12A C15A 1_555 1_555
H13A C15A 1_555 1_555
H14A C16A 1_555 1_555
H15A C16A 1_555 1_555
H16A C17A 1_555 1_555
H17A C17A 1_555 1_555
H18A C18A 1_555 1_555
H19A C18A 1_555 1_555
H20A C19A 1_555 1_555
H21A C19A 1_555 1_555
H22A C20A 1_555 1_555
H23A C20A 1_555 1_555
H24A C21A 1_555 1_555
H25A C21A 1_555 1_555
H26A C22A 1_555 1_555
H27A C22A 1_555 1_555
H28A C23A 1_555 1_555
H29A C23A 1_555 1_555
H30A C24A 1_555 1_555
H31A C24A 1_555 1_555
C10 C11 1_555 1_555
C13 C14 1_555 1_555
C33 C34 1_555 1_555
C36 C37 1_555 1_555
C25A C36A 1_555 1_555
C1A C26A 1_555 1_555
C28A C27A 1_555 1_555
C33A C34A 1_555 1_555
C10A C11A 1_555 1_555
C12A C13A 1_555 1_555
C37A C36A 1_555 1_555

#END
