
#######################################################################
#
#                 Cambridge Crystallographic Data Centre
#                                CCDC 
#
#######################################################################
#
# If this CIF has been generated from an entry in the Cambridge 
# Structural Database, then it will include bibliographic, chemical, 
# crystal, experimental, refinement or atomic coordinate data resulting 
# from the CCDC's data processing and validation procedures.
#
#######################################################################

data_BEGYEU
_chemical_formula_moiety         'C25 H18 O4'
_chemical_name_systematic        'di-1-naphthyl cyclopropane-1,2-dicarboxylate'
_symmetry_cell_setting           trigonal
_symmetry_space_group_name_H-M   'P 32'
_symmetry_Int_Tables_number      145
_space_group_name_Hall           'P 32'
loop_
_symmetry_equiv_pos_site_id
_symmetry_equiv_pos_as_xyz
1 x,y,z
2 -y,x-y,2/3+z
3 -x+y,-x,1/3+z
_cell_length_a                   7.73670(10)
_cell_length_b                   7.73670(10)
_cell_length_c                   27.7775(3)
_cell_angle_alpha                90
_cell_angle_beta                 90
_cell_angle_gamma                120
_cell_volume                     1439.91
_exptl_crystal_colour            colorless
_exptl_crystal_description       plate
_cell_formula_units_Z            3
loop_
_atom_site_label
_atom_site_type_symbol
_atom_site_fract_x
_atom_site_fract_y
_atom_site_fract_z
C1 C 0.9261(10) 0.6673(15) 0.5002(4)
H1 H 1.0042 0.6814 0.5296
H2 H 0.9842 0.6495 0.4701
C2 C 0.8232(11) 0.7841(11) 0.4974(2)
H3 H 0.8156 0.8384 0.4653
C3 C 0.7043(12) 0.5582(12) 0.5045(2)
H4 H 0.6473 0.5089 0.5372
C4 C 0.869(3) 0.913(2) 0.5391(5)
C5 C 0.565(2) 0.458(2) 0.4613(5)
O1 O 0.922(2) 0.8905(16) 0.5800(4)
O2 O 0.8872(17) 1.0947(15) 0.5259(3)
O3 O 0.6058(19) 0.5125(18) 0.4213(5)
O4 O 0.3807(13) 0.3203(13) 0.4766(3)
C6 C 0.9418(10) 1.2383(10) 0.5607(2)
C7 C 1.1400(9) 1.3745(12) 0.5712(2)
H5 H 1.2439 1.3631 0.5561
C8 C 1.1862(8) 1.5274(12) 0.6040(3)
H6 H 1.3216 1.6205 0.6112
C9 C 1.0342(8) 1.5441(10) 0.6262(3)
H7 H 1.0657 1.6485 0.6486
C10 C 0.8359(8) 1.4079(8) 0.6157(2)
C11 C 0.7897(8) 1.2550(7) 0.58289(16)
C12 C 0.5915(9) 1.1188(9) 0.5723(2)
H8 H 0.5600 1.0143 0.5499
C13 C 0.4395(8) 1.1355(11) 0.5945(3)
H9 H 0.3040 1.0424 0.5873
C14 C 0.4857(8) 1.2883(12) 0.6273(3)
H10 H 0.3818 1.2997 0.6425
C15 C 0.6839(9) 1.4245(11) 0.6379(3)
H11 H 0.7155 1.5290 0.6603
C16 C 0.2502(10) 0.2106(9) 0.4416(2)
C17 C 0.1146(11) 0.2702(10) 0.4283(2)
H12 H 0.1206 0.3841 0.4429
C18 C -0.0298(11) 0.1630(11) 0.3937(3)
H13 H -0.1225 0.2036 0.3847
C19 C -0.0386(9) -0.0038(11) 0.3724(3)
H14 H -0.1373 -0.0770 0.3488
C20 C 0.0970(8) -0.0633(8) 0.3857(2)
C21 C 0.2414(7) 0.0439(7) 0.42023(18)
C22 C 0.3771(9) -0.0156(10) 0.4335(2)
H15 H 0.4757 0.0576 0.4571
C23 C 0.3683(11) -0.1824(11) 0.4122(3)
H16 H 0.4610 -0.2231 0.4212
C24 C 0.2239(12) -0.2896(10) 0.3776(3)
H17 H 0.2179 -0.4035 0.3630
C25 C 0.0883(11) -0.2300(9) 0.3643(3)
H18 H -0.0104 -0.3033 0.3407
C26? C 0.765(3) 0.864(2) 0.5379(6)
C27? C 0.621(3) 0.410(3) 0.4609(6)
O5? O 0.802(2) 0.8459(17) 0.5807(4)
O6? O 0.7339(18) 1.0134(15) 0.5232(3)
O7? O 0.653(2) 0.452(2) 0.4206(5)
O8? O 0.4574(19) 0.2501(18) 0.4737(3)
C28? C 0.7028(11) 1.1223(10) 0.5610(3)
C29? C 0.5079(10) 1.0655(11) 0.5739(3)
H19? H 0.3994 0.9507 0.5597
C30? C 0.4716(9) 1.1768(13) 0.6075(3)
H20? H 0.3384 1.1381 0.6163
C31? C 0.6302(11) 1.3449(13) 0.6282(3)
H21? H 0.6055 1.4210 0.6511
C32? C 0.8251(10) 1.4016(10) 0.6153(3)
C33? C 0.8614(9) 1.2903(9) 0.5817(2)
C34? C 1.0563(10) 1.3470(13) 0.5689(3)
H22? H 1.0811 1.2710 0.5459
C35? C 1.2149(9) 1.5151(14) 0.5896(4)
H23? H 1.3481 1.5539 0.5808
C36? C 1.1787(11) 1.6264(13) 0.6232(4)
H24? H 1.2871 1.7413 0.6373
C37? C 0.9838(12) 1.5697(11) 0.6360(3)
H25? H 0.9590 1.6458 0.6590
C38? C 0.3590(11) 0.0940(13) 0.4371(2)
C39? C 0.4319(12) -0.0352(15) 0.4290(3)
H26? H 0.5488 -0.0148 0.4452
C40? C 0.3337(14) -0.1943(14) 0.3973(3)
H27? H 0.3835 -0.2826 0.3918
C41? C 0.1625(13) -0.2241(11) 0.3737(3)
H28? H 0.0954 -0.3328 0.3520
C42? C 0.0896(10) -0.0949(9) 0.3817(2)
C43? C 0.1879(9) 0.0642(9) 0.41343(18)
C44? C 0.1150(12) 0.1935(10) 0.4215(3)
H29? H 0.1821 0.3022 0.4431
C45? C -0.0562(13) 0.1637(12) 0.3978(3)
H30? H -0.1060 0.2520 0.4033
C46? C -0.1544(12) 0.0046(13) 0.3661(3)
H31? H -0.2713 -0.0158 0.3500
C47? C -0.0815(11) -0.1247(11) 0.3581(3)
H32? H -0.1486 -0.2334 0.3364
loop_
_geom_bond_atom_site_label_1
_geom_bond_atom_site_label_2
_geom_bond_site_symmetry_1
_geom_bond_site_symmetry_2
C1 H1 1_555 1_555
H2 C1 1_555 1_555
C2 C1 1_555 1_555
H3 C2 1_555 1_555
C3 C1 1_555 1_555
H4 C3 1_555 1_555
C4 C2 1_555 1_555
C5 C3 1_555 1_555
O1 C4 1_555 1_555
O2 C4 1_555 1_555
O3 C5 1_555 1_555
O4 C5 1_555 1_555
C6 O2 1_555 1_555
C7 C6 1_555 1_555
H5 C7 1_555 1_555
C8 C7 1_555 1_555
H6 C8 1_555 1_555
C9 C8 1_555 1_555
H7 C9 1_555 1_555
C10 C9 1_555 1_555
C11 C6 1_555 1_555
C12 C11 1_555 1_555
H8 C12 1_555 1_555
C13 C12 1_555 1_555
H9 C13 1_555 1_555
C14 C13 1_555 1_555
H10 C14 1_555 1_555
C15 C10 1_555 1_555
H11 C15 1_555 1_555
C16 O4 1_555 1_555
C17 C16 1_555 1_555
H12 C17 1_555 1_555
C18 C17 1_555 1_555
H13 C18 1_555 1_555
C19 C18 1_555 1_555
H14 C19 1_555 1_555
C20 C19 1_555 1_555
C21 C16 1_555 1_555
C22 C21 1_555 1_555
H15 C22 1_555 1_555
C23 C22 1_555 1_555
H16 C23 1_555 1_555
C24 C23 1_555 1_555
H17 C24 1_555 1_555
C25 C20 1_555 1_555
H18 C25 1_555 1_555
C2 C3 1_555 1_555
C10 C11 1_555 1_555
C14 C15 1_555 1_555
C20 C21 1_555 1_555
C24 C25 1_555 1_555

#END
