
#######################################################################
#
#                 Cambridge Crystallographic Data Centre
#                                CCDC 
#
#######################################################################
#
# If this CIF has been generated from an entry in the Cambridge 
# Structural Database, then it will include bibliographic, chemical, 
# crystal, experimental, refinement or atomic coordinate data resulting 
# from the CCDC's data processing and validation procedures.
#
#######################################################################

data_BEHCOH
_chemical_formula_moiety         'C11 H11 I1 O3'
_chemical_name_systematic        
3-Hydroxy-5-iodomethyl-5-phenyltetrahydrofuranone
_symmetry_cell_setting           monoclinic
_symmetry_space_group_name_H-M   'P 21'
_symmetry_Int_Tables_number      4
_space_group_name_Hall           'P 2yb'
loop_
_symmetry_equiv_pos_site_id
_symmetry_equiv_pos_as_xyz
1 x,y,z
2 -x,1/2+y,-z
_cell_length_a                   13.7422(16)
_cell_length_b                   5.7299(7)
_cell_length_c                   14.1629(17)
_cell_angle_alpha                90
_cell_angle_beta                 90.314(2)
_cell_angle_gamma                90
_cell_volume                     1115.19
_exptl_crystal_colour            colorless
_cell_formula_units_Z            4
loop_
_atom_site_label
_atom_site_type_symbol
_atom_site_fract_x
_atom_site_fract_y
_atom_site_fract_z
I1 I 0.88650(3) 0.76339(10) 0.76182(3)
O1 O 0.5157(3) 0.9151(7) 0.6565(3)
O2 O 0.6679(3) 0.7926(9) 0.6588(3)
O3 O 0.4621(3) 0.4722(9) 0.5775(3)
C1 C 0.5748(4) 0.7687(12) 0.6332(3)
C2 C 0.5595(5) 0.5530(12) 0.5758(4)
C3 C 0.6395(5) 0.4010(12) 0.6112(5)
H1 H 0.6595 0.2896 0.5636
H2 H 0.6202 0.3174 0.6676
C4 C 0.7212(5) 0.5777(11) 0.6329(4)
C5 C 0.7798(5) 0.5079(14) 0.7202(5)
H3 H 0.8126 0.3613 0.7077
H4 H 0.7355 0.4828 0.7722
C6 C 0.7866(4) 0.6252(10) 0.5482(4)
C7 C 0.8585(5) 0.4668(13) 0.5240(5)
H5 H 0.8662 0.3308 0.5591
C8 C 0.9184(5) 0.5094(19) 0.4486(5)
H6 H 0.9676 0.4039 0.4343
C9 C 0.9067(6) 0.7018(18) 0.3954(5)
H7 H 0.9478 0.7290 0.3446
C10 C 0.8339(7) 0.8586(17) 0.4160(5)
H8 H 0.8240 0.9867 0.3769
C11 C 0.7758(5) 0.8286(12) 0.4937(5)
H9 H 0.7300 0.9410 0.5099
H19 H 0.577(5) 0.601(13) 0.514(5)
H20 H 0.445(4) 0.431(10) 0.635(2)
I2 I 0.04913(3) 1.28921(8) 0.87817(3)
O4 O 0.3723(3) 1.3327(9) 0.7518(3)
O5 O 0.2851(3) 1.2216(7) 0.8748(3)
O6 O 0.3111(4) 0.8876(10) 0.6684(3)
C12 C 0.3320(4) 1.1797(11) 0.7917(4)
C13 C 0.3211(4) 0.9264(11) 0.7651(4)
C14 C 0.2318(4) 0.8552(10) 0.8206(4)
H10 H 0.2331 0.6901 0.8357
H11 H 0.1725 0.8906 0.7861
C15 C 0.2409(4) 1.0045(11) 0.9097(4)
C16 C 0.1470(5) 1.0713(13) 0.9576(5)
H12 H 0.1631 1.1511 1.0161
H13 H 0.1128 0.9291 0.9742
C17 C 0.3053(4) 0.9014(10) 0.9860(4)
C18 C 0.3871(5) 1.0174(12) 1.0209(5)
H14 H 0.4051 1.1604 0.9953
C19 C 0.4414(5) 0.9213(16) 1.0932(6)
H15 H 0.4964 0.9990 1.1154
C20 C 0.4152(5) 0.7134(13) 1.1322(5)
H16 H 0.4518 0.6508 1.1815
C21 C 0.3355(6) 0.5971(13) 1.0992(5)
H17 H 0.3175 0.4559 1.1265
C22 C 0.2812(5) 0.6875(13) 1.0256(5)
H18 H 0.2280 0.6046 1.0023
H21 H 0.384(4) 0.862(9) 0.797(4)
H22 H 0.3751(19) 0.878(17) 0.659(6)
loop_
_geom_bond_atom_site_label_1
_geom_bond_atom_site_label_2
_geom_bond_site_symmetry_1
_geom_bond_site_symmetry_2
I1 C5 1_555 1_555
I2 C16 1_555 1_555
O1 C1 1_555 1_555
O2 C1 1_555 1_555
O3 C2 1_555 1_555
O4 C12 1_555 1_555
O5 C12 1_555 1_555
O6 C13 1_555 1_555
C1 C2 1_555 1_555
C2 C3 1_555 1_555
C3 H1 1_555 1_555
H2 C3 1_555 1_555
C4 O2 1_555 1_555
C5 C4 1_555 1_555
H3 C5 1_555 1_555
H4 C5 1_555 1_555
C6 C4 1_555 1_555
C7 C6 1_555 1_555
H5 C7 1_555 1_555
C8 C7 1_555 1_555
H6 C8 1_555 1_555
C9 C8 1_555 1_555
H7 C9 1_555 1_555
C10 C9 1_555 1_555
H8 C10 1_555 1_555
C11 C6 1_555 1_555
H9 C11 1_555 1_555
C12 C13 1_555 1_555
C13 C14 1_555 1_555
C14 H10 1_555 1_555
H11 C14 1_555 1_555
C15 O5 1_555 1_555
C16 C15 1_555 1_555
H12 C16 1_555 1_555
H13 C16 1_555 1_555
C17 C15 1_555 1_555
C18 C17 1_555 1_555
H14 C18 1_555 1_555
C19 C18 1_555 1_555
H15 C19 1_555 1_555
C20 C19 1_555 1_555
H16 C20 1_555 1_555
C21 C20 1_555 1_555
H17 C21 1_555 1_555
C22 C17 1_555 1_555
H18 C22 1_555 1_555
H19 C2 1_555 1_555
H20 O3 1_555 1_555
H21 C13 1_555 1_555
H22 O6 1_555 1_555
C3 C4 1_555 1_555
C10 C11 1_555 1_555
C14 C15 1_555 1_555
C21 C22 1_555 1_555

#END
