
#######################################################################
#
#                 Cambridge Crystallographic Data Centre
#                                CCDC 
#
#######################################################################
#
# If this CIF has been generated from an entry in the Cambridge 
# Structural Database, then it will include bibliographic, chemical, 
# crystal, experimental, refinement or atomic coordinate data resulting 
# from the CCDC's data processing and validation procedures.
#
#######################################################################

data_BEHFIE
_chemical_formula_moiety         'C38 H30 N2 O4,0.5(H2 O1)'
_chemical_name_systematic        
'syn-distal-26,28-dihydroxy-25,27-bis(2-pyridoxy)calix(4)arene hemihydrate clathrate'
_symmetry_cell_setting           monoclinic
_symmetry_space_group_name_H-M   'C 2/c'
_symmetry_Int_Tables_number      15
_space_group_name_Hall           '-C 2yn'
loop_
_symmetry_equiv_pos_site_id
_symmetry_equiv_pos_as_xyz
1 x,y,z
2 1/2+x,1/2+y,z
3 x,-y,1/2+z
4 1/2+x,1/2-y,1/2+z
5 -x,-y,-z
6 1/2-x,1/2-y,-z
7 -x,y,1/2-z
8 1/2-x,1/2+y,1/2-z
_cell_length_a                   10.109(2)
_cell_length_b                   17.685(4)
_cell_length_c                   16.924(4)
_cell_angle_alpha                90
_cell_angle_beta                 96.918(5)
_cell_angle_gamma                90
_cell_volume                     3003.61
_exptl_crystal_colour            colorless
_exptl_crystal_description       needle
_chemical_melting_point          294-296deg.C
_cell_formula_units_Z            4
_exptl_crystal_recrystallization_method dichloromethane/methanol
loop_
_atom_site_label
_atom_site_type_symbol
_atom_site_fract_x
_atom_site_fract_y
_atom_site_fract_z
O1 O 0.27058(17) 0.01371(9) 0.19082(11)
O2 O 0.55612(18) -0.00900(11) 0.16435(12)
N1 N 0.0872(2) 0.03645(12) 0.09873(14)
C1 C 0.1963(2) -0.10256(14) 0.24120(15)
C2 C 0.2467(2) -0.06421(13) 0.18005(15)
C3 C 0.2814(2) -0.09936(14) 0.11236(14)
C4 C 0.5911(2) -0.06050(14) 0.10965(15)
C5 C 0.7217(2) -0.08729(15) 0.11389(16)
C6 C 0.3495(3) -0.05794(16) 0.04996(17)
H1 H 0.3003 -0.0669 -0.0027
H2 H 0.3484 -0.0035 0.0605
C7 C 0.1728(2) 0.06251(13) 0.15629(16)
C8 C 0.1730(3) -0.17999(15) 0.23080(17)
H3 H 0.1383 -0.2078 0.2710
C9 C 0.2548(3) -0.17663(15) 0.10458(17)
H4 H 0.2747 -0.2021 0.0587
C10 C 0.4916(3) -0.08409(14) 0.05033(15)
C11 C 0.1732(3) -0.06446(16) 0.31842(17)
H5 H 0.0848 -0.0783 0.3320
H6 H 0.1752 -0.0095 0.3115
C12 C 0.2002(3) -0.21611(15) 0.16235(17)
H7 H 0.1812 -0.2679 0.1553
C13 C -0.0033(3) 0.08610(16) 0.06528(19)
H8 H -0.0666 0.0692 0.0238
C14 C 0.5285(3) -0.13369(16) -0.00734(17)
H9 H 0.4641 -0.1494 -0.0488
C15 C 0.6574(3) -0.16024(17) -0.00479(18)
H10 H 0.6802 -0.1940 -0.0439
C16 C 0.1778(3) 0.13564(15) 0.18517(18)
H11 H 0.2420 0.1509 0.2270
C17 C 0.7519(3) -0.13705(16) 0.05524(17)
H12 H 0.8395 -0.1553 0.0567
C18 C -0.0081(3) 0.16005(18) 0.0885(2)
H13 H -0.0727 0.1931 0.0634
C19 C 0.0839(4) 0.18494(17) 0.1495(2)
H14 H 0.0825 0.2354 0.1667
H15 H 0.608(5) -0.001(2) 0.207(3)
C11F C 0.8268(3) -0.06446(16) 0.18158(17)
C1F C 0.8037(2) -0.10256(14) 0.25880(15)
C2F C 0.7533(2) -0.06421(13) 0.31995(15)
O1F O 0.72942(17) 0.01371(9) 0.30918(11)
C7F C 0.8272(2) 0.06251(13) 0.34371(16)
N1F N 0.9128(2) 0.03645(12) 0.40127(14)
C13F C 1.0033(3) 0.08610(16) 0.43472(19)
H8F H 1.0666 0.0692 0.4762
C18F C 1.0081(3) 0.16005(18) 0.4115(2)
H13F H 1.0727 0.1931 0.4366
C19F C 0.9161(4) 0.18494(17) 0.3505(2)
C16F C 0.8222(3) 0.13564(15) 0.31483(18)
H11F H 0.7580 0.1509 0.2730
H14F H 0.9175 0.2354 0.3333
C3F C 0.7186(2) -0.09936(14) 0.38764(14)
C6F C 0.6505(3) -0.05794(16) 0.45004(17)
H1F H 0.6997 -0.0669 0.5027
H2F H 0.6516 -0.0035 0.4395
C10F C 0.5084(3) -0.08409(14) 0.44967(15)
C4F C 0.4089(2) -0.06050(14) 0.39035(15)
O2F O 0.44388(18) -0.00900(11) 0.33565(12)
H15F H 0.392(5) -0.001(2) 0.293(3)
C5F C 0.2783(2) -0.08729(15) 0.38611(16)
C17F C 0.2481(3) -0.13705(16) 0.44476(17)
C15F C 0.3426(3) -0.16024(17) 0.50479(18)
C14F C 0.4715(3) -0.13369(16) 0.50734(17)
H9F H 0.5359 -0.1494 0.5488
H10F H 0.3198 -0.1940 0.5439
H12F H 0.1605 -0.1553 0.4433
C9F C 0.7452(3) -0.17663(15) 0.39542(17)
H4F H 0.7253 -0.2021 0.4413
C12F C 0.7998(3) -0.21611(15) 0.33765(17)
C8F C 0.8270(3) -0.17999(15) 0.26920(17)
H3F H 0.8617 -0.2078 0.2290
H7F H 0.8188 -0.2679 0.3447
H5F H 0.9152 -0.0783 0.1680
H6F H 0.8248 -0.0095 0.1885
O3 O 0.5000 0.1401(8) 0.2500
loop_
_geom_bond_atom_site_label_1
_geom_bond_atom_site_label_2
_geom_bond_site_symmetry_1
_geom_bond_site_symmetry_2
O1 C2 1_555 1_555
O2 C4 1_555 1_555
N1 C7 1_555 1_555
C1 C2 1_555 1_555
C2 C3 1_555 1_555
C3 C6 1_555 1_555
C4 C5 1_555 1_555
C5 C17 1_555 1_555
C6 H1 1_555 1_555
H2 C6 1_555 1_555
C7 O1 1_555 1_555
C8 C1 1_555 1_555
H3 C8 1_555 1_555
C9 C3 1_555 1_555
H4 C9 1_555 1_555
C10 C4 1_555 1_555
C11 C1 1_555 1_555
H5 C11 1_555 1_555
H6 C11 1_555 1_555
C12 C8 1_555 1_555
H7 C12 1_555 1_555
C13 N1 1_555 1_555
H8 C13 1_555 1_555
C14 C10 1_555 1_555
H9 C14 1_555 1_555
C15 C14 1_555 1_555
H10 C15 1_555 1_555
C16 C7 1_555 1_555
H11 C16 1_555 1_555
C17 C15 1_555 1_555
H12 C17 1_555 1_555
C18 C13 1_555 1_555
H13 C18 1_555 1_555
C19 C16 1_555 1_555
H14 C19 1_555 1_555
H15 O2 1_555 1_555
C11F C5 1_555 1_555
C1F C11F 1_555 1_555
C2F C1F 1_555 1_555
O1F C2F 1_555 1_555
C7F O1F 1_555 1_555
N1F C7F 1_555 1_555
C13F N1F 1_555 1_555
H8F C13F 1_555 1_555
C18F C13F 1_555 1_555
H13F C18F 1_555 1_555
C19F C18F 1_555 1_555
C16F C7F 1_555 1_555
H11F C16F 1_555 1_555
H14F C19F 1_555 1_555
C3F C2F 1_555 1_555
C6F C3F 1_555 1_555
H1F C6F 1_555 1_555
H2F C6F 1_555 1_555
C10F C6F 1_555 1_555
C4F C10F 1_555 1_555
O2F C4F 1_555 1_555
H15F O2F 1_555 1_555
C5F C11 1_555 1_555
C17F C5F 1_555 1_555
C15F C17F 1_555 1_555
C14F C10F 1_555 1_555
H9F C14F 1_555 1_555
H10F C15F 1_555 1_555
H12F C17F 1_555 1_555
C9F C3F 1_555 1_555
H4F C9F 1_555 1_555
C12F C9F 1_555 1_555
C8F C1F 1_555 1_555
H3F C8F 1_555 1_555
H7F C12F 1_555 1_555
H5F C11F 1_555 1_555
H6F C11F 1_555 1_555
C6 C10 1_555 1_555
C9 C12 1_555 1_555
C18 C19 1_555 1_555
C19F C16F 1_555 1_555
C4F C5F 1_555 1_555
C15F C14F 1_555 1_555
C12F C8F 1_555 1_555

#END
