
#######################################################################
#
#                 Cambridge Crystallographic Data Centre
#                                CCDC 
#
#######################################################################
#
# If this CIF has been generated from an entry in the Cambridge 
# Structural Database, then it will include bibliographic, chemical, 
# crystal, experimental, refinement or atomic coordinate data resulting 
# from the CCDC's data processing and validation procedures.
#
#######################################################################

data_BEHHUS
_chemical_formula_moiety         'C16 H17 I1 O4'
_chemical_name_systematic        
"(E,E)-2-(2'-Iodovinyl)-2-(3''-phenyl-2''-propenyl)malonic acid dimethyl ester"
_symmetry_cell_setting           orthorhombic
_symmetry_space_group_name_H-M   'P b c a'
_symmetry_Int_Tables_number      61
_space_group_name_Hall           '-P 2ac 2ab'
loop_
_symmetry_equiv_pos_site_id
_symmetry_equiv_pos_as_xyz
1 x,y,z
2 1/2+x,y,1/2-z
3 x,1/2-y,1/2+z
4 1/2-x,1/2+y,z
5 -x,-y,-z
6 1/2-x,-y,1/2+z
7 -x,1/2+y,1/2-z
8 1/2+x,1/2-y,-z
_cell_length_a                   17.5719(16)
_cell_length_b                   8.3749(7)
_cell_length_c                   23.260(2)
_cell_angle_alpha                90
_cell_angle_beta                 90
_cell_angle_gamma                90
_cell_volume                     3423.01
_exptl_crystal_colour            colorless
_exptl_crystal_description       needles
_chemical_melting_point          80-81deg.C
_cell_formula_units_Z            8
loop_
_atom_site_label
_atom_site_type_symbol
_atom_site_fract_x
_atom_site_fract_y
_atom_site_fract_z
I1 I 0.003144(16) 0.44101(3) 0.395295(13)
O1 O 0.02485(12) -0.0975(3) 0.28173(10)
O2 O 0.13609(11) -0.2232(2) 0.28196(9)
O3 O 0.23139(13) -0.0585(3) 0.39794(9)
O4 O 0.11317(13) -0.1404(3) 0.41306(9)
C1 C 0.0884(2) 0.2854(4) 0.36720(14)
C2 C 0.07418(18) 0.1422(4) 0.35331(12)
C3 C 0.13165(14) 0.0200(3) 0.33177(11)
C4 C 0.19669(17) 0.0920(4) 0.29508(13)
C5 C 0.16922(19) 0.1618(4) 0.23984(13)
C6 C 0.19174(18) 0.1155(4) 0.18836(14)
C7 C 0.16847(17) 0.1803(4) 0.13251(13)
C8 C 0.1947(2) 0.1103(5) 0.08217(16)
C9 C 0.1723(3) 0.1668(7) 0.02893(17)
C10 C 0.1232(3) 0.2933(6) 0.02510(17)
C11 C 0.0964(3) 0.3630(5) 0.07385(16)
C12 C 0.1190(2) 0.3073(5) 0.12717(15)
C13 C 0.08972(15) -0.1047(3) 0.29625(11)
C14 C 0.1034(3) -0.3471(5) 0.2467(2)
C15 C 0.16666(18) -0.0637(3) 0.38441(12)
C16 C 0.1380(3) -0.2300(6) 0.46349(19)
H1 H 0.1380(14) 0.329(4) 0.3636(16)
H2 H 0.027(2) 0.106(5) 0.3594(16)
H3 H 0.2315(14) 0.009(3) 0.2859(11)
H4 H 0.2202(15) 0.171(3) 0.3183(11)
H5 H 0.1357(15) 0.246(3) 0.2417(12)
H6 H 0.2272(17) 0.035(3) 0.1855(13)
H7 H 0.2258(19) 0.023(3) 0.0832(14)
H8 H 0.1906(17) 0.116(3) -0.0026(11)
H9 H 0.106(2) 0.327(4) -0.0117(10)
H10 H 0.065(2) 0.454(3) 0.0695(16)
H11 H 0.0928(17) 0.356(3) 0.1605(13)
H12 H 0.0530(15) -0.372(5) 0.2592(17)
H13 H 0.136(2) -0.438(3) 0.2477(16)
H14 H 0.099(3) -0.297(4) 0.2102(11)
H15 H 0.160(2) -0.155(4) 0.4911(13)
H16 H 0.0891(16) -0.257(5) 0.4810(17)
H17 H 0.182(4) -0.302(8) 0.457(3)
loop_
_geom_bond_atom_site_label_1
_geom_bond_atom_site_label_2
_geom_bond_site_symmetry_1
_geom_bond_site_symmetry_2
I1 C1 1_555 1_555
O1 C13 1_555 1_555
O2 C13 1_555 1_555
O3 C15 1_555 1_555
O4 C15 1_555 1_555
C1 C2 1_555 1_555
C2 C3 1_555 1_555
C3 C4 1_555 1_555
C4 C5 1_555 1_555
C5 C6 1_555 1_555
C6 C7 1_555 1_555
C7 C8 1_555 1_555
C8 C9 1_555 1_555
C9 C10 1_555 1_555
C10 C11 1_555 1_555
C11 C12 1_555 1_555
C12 C7 1_555 1_555
C13 C3 1_555 1_555
C14 O2 1_555 1_555
C15 C3 1_555 1_555
C16 O4 1_555 1_555
H1 C1 1_555 1_555
H2 C2 1_555 1_555
H3 C4 1_555 1_555
H4 C4 1_555 1_555
H5 C5 1_555 1_555
H6 C6 1_555 1_555
H7 C8 1_555 1_555
H8 C9 1_555 1_555
H9 C10 1_555 1_555
H10 C11 1_555 1_555
H11 C12 1_555 1_555
H12 C14 1_555 1_555
H13 C14 1_555 1_555
H14 C14 1_555 1_555
H15 C16 1_555 1_555
H16 C16 1_555 1_555
H17 C16 1_555 1_555

#END
