
#######################################################################
#
#                 Cambridge Crystallographic Data Centre
#                                CCDC 
#
#######################################################################
#
# If this CIF has been generated from an entry in the Cambridge 
# Structural Database, then it will include bibliographic, chemical, 
# crystal, experimental, refinement or atomic coordinate data resulting 
# from the CCDC's data processing and validation procedures.
#
#######################################################################

data_BEHKEF
_chemical_name_common            'Ciclopirox olamine'
_chemical_formula_moiety         'C2 H8 N1 O1 1+,C12 H16 N1 O2 1-,C12 H17 N1 O2'
_chemical_name_systematic        
'2-Ammonioethanol 6-cyclohexyl-1-oxy-4-methyl-2(1H)-piridinone 6-cyclohexyl-1-hydroxy-4-methyl-2(1H)-piridinone'
_chemical_properties_biological  
'Ciclopirox is a broad spectrum, antifungal agent that inhibits pathogenic dermatophytes and Malassezia furfur'
_symmetry_cell_setting           tetragonal
_symmetry_space_group_name_H-M   'I 41/a'
_symmetry_Int_Tables_number      88
_space_group_name_Hall           '-I 4ad'
loop_
_symmetry_equiv_pos_site_id
_symmetry_equiv_pos_as_xyz
1 x,y,z
2 1/2+x,1/2+y,1/2+z
3 3/4-y,1/4+x,1/4+z
4 1/4+y,1/4-x,1/4+z
5 1/4-y,3/4+x,3/4+z
6 1/2-x,-y,1/2+z
7 -x,1/2-y,z
8 3/4+y,3/4-x,3/4+z
9 -x,-y,-z
10 1/2-x,1/2-y,1/2-z
11 1/4+y,3/4-x,3/4-z
12 3/4-y,3/4+x,3/4-z
13 3/4+y,1/4-x,1/4-z
14 1/2+x,y,1/2-z
15 x,1/2+y,-z
16 1/4-y,1/4+x,1/4-z
_cell_length_a                   26.0133(6)
_cell_length_b                   26.0133(6)
_cell_length_c                   15.8980(8)
_cell_angle_alpha                90
_cell_angle_beta                 90
_cell_angle_gamma                90
_cell_volume                     10758
_exptl_crystal_colour            colorless
_exptl_crystal_description       prism
_cell_formula_units_Z            16
_exptl_crystal_recrystallization_method methanol/acetonitrile
loop_
_atom_site_label
_atom_site_type_symbol
_atom_site_fract_x
_atom_site_fract_y
_atom_site_fract_z
O1 O 0.09022(7) -0.08376(8) 0.8439(1)
O2 O 0.09541(8) -0.0477(1) 0.9976(1)
N1 N 0.04657(9) -0.08433(9) 0.8943(1)
C1 C 0.0519(1) -0.0654(1) 0.9754(2)
C2 C 0.0072(1) -0.0675(1) 1.0257(2)
C3 C -0.0381(1) -0.0884(1) 0.9980(2)
C4 C -0.0396(1) -0.1089(1) 0.9161(2)
C5 C 0.0022(1) -0.1063(1) 0.8635(2)
C6 C -0.0858(1) -0.0897(1) 1.0511(2)
C7 C 0.0021(1) -0.1239(1) 0.7728(2)
C8 C -0.0036(1) -0.0774(1) 0.7140(2)
C9 C -0.0019(2) -0.0929(1) 0.6216(2)
C10 C -0.0421(2) -0.1324(2) 0.6018(3)
C11 C -0.0373(2) -0.1790(2) 0.6590(3)
C12 C -0.0398(2) -0.1635(1) 0.7526(2)
H1 H 0.0084(1) -0.0535(1) 1.0808(2)
H2 H -0.0704(1) -0.1244(1) 0.8965(2)
H3 H -0.0354(2) -0.1930(1) 0.7872(2)
H4 H -0.0723(2) -0.1484(1) 0.7635(2)
H5 H -0.0361(1) -0.0621(1) 0.7246(2)
H6 H 0.0229(1) -0.0532(1) 0.7259(2)
H7 H -0.0058(2) -0.0635(1) 0.5867(2)
H8 H 0.0305(2) -0.1085(1) 0.6108(2)
H9 H -0.0745(2) -0.1170(2) 0.6134(3)
H10 H -0.0408(2) -0.1424(2) 0.5444(3)
H11 H -0.0044(2) -0.1936(2) 0.6485(3)
H12 H -0.0632(2) -0.2036(2) 0.6465(3)
H13 H 0.0344(1) -0.1395(1) 0.7613(2)
H14 H -0.0786(1) -0.0750(1) 1.1044(2)
H15 H -0.1122(1) -0.0706(1) 1.0242(2)
H16 H -0.0967(1) -0.1243(1) 1.0582(2)
H17 H 0.099(1) -0.042(2) 0.819(2)
O3 O 0.11305(7) 0.00397(8) 0.7969(1)
O4 O 0.19714(8) -0.04152(8) 0.7385(1)
N2 N 0.12092(9) 0.00035(8) 0.7116(1)
C13 C 0.1645(1) -0.0258(1) 0.6847(2)
C14 C 0.1685(1) -0.0329(1) 0.5968(2)
C15 C 0.1343(1) -0.0121(1) 0.5415(2)
C16 C 0.0936(1) 0.0180(1) 0.5738(2)
C17 C 0.0867(1) 0.0246(1) 0.6583(2)
C18 C 0.1395(1) -0.0201(1) 0.4475(2)
C19 C 0.0481(1) 0.0604(1) 0.6978(2)
C20 C 0.0739(1) 0.1128(1) 0.7120(2)
C21 C 0.0371(1) 0.1529(1) 0.7492(2)
C22 C -0.0116(2) 0.1579(1) 0.6970(3)
C23 C -0.0372(1) 0.1061(2) 0.6887(3)
C24 C -0.0015(1) 0.0670(1) 0.6467(3)
H18 H 0.0704(1) 0.0341(1) 0.5358(2)
H19 H 0.1962(1) -0.0527(1) 0.5754(2)
H20 H 0.1027(1) 0.1085(1) 0.7480(2)
H21 H 0.0852(1) 0.1251(1) 0.6588(2)
H22 H 0.0275(1) 0.1418(1) 0.8039(2)
H23 H 0.0540(1) 0.1851(1) 0.7528(2)
H24 H -0.0343(2) 0.1819(1) 0.7224(3)
H25 H -0.0024(2) 0.1697(1) 0.6424(3)
H26 H -0.0680(1) 0.1094(2) 0.6571(3)
H27 H -0.0450(1) 0.0937(2) 0.7434(3)
H28 H 0.0076(1) 0.0799(1) 0.5928(3)
H29 H -0.0181(1) 0.0346(1) 0.6405(3)
H30 H 0.0387(1) 0.0470(1) 0.7512(2)
H31 H 0.1379(1) -0.0559(1) 0.4355(2)
H32 H 0.1125(1) -0.0029(1) 0.4189(2)
H33 H 0.1717(1) -0.0069(1) 0.4292(2)
O5 O -0.1643(1) 0.0434(1) 0.8758(2)
N3 N -0.20318(9) -0.06001(9) 0.8322(1)
C25 C -0.1554(2) -0.0342(2) 0.8004(3)
C26 C -0.1545(2) 0.0194(2) 0.7999(3)
H34 H -0.1279(2) -0.0453(2) 0.8352(3)
H35 H -0.1497(2) -0.0455(2) 0.7444(3)
H36 H -0.1806(2) 0.0304(2) 0.7621(3)
H37 H -0.1220(2) 0.0308(2) 0.7802(3)
H38 H -0.20972(9) -0.04950(9) 0.8884(1)
H39 H -0.23114(9) -0.05008(9) 0.7973(1)
H40 H -0.19933(9) -0.09631(9) 0.8304(1)
H41 H -0.1323(1) 0.0480(1) 0.9036(2)
loop_
_geom_bond_atom_site_label_1
_geom_bond_atom_site_label_2
_geom_bond_site_symmetry_1
_geom_bond_site_symmetry_2
O1 N1 1_555 1_555
O2 C1 1_555 1_555
N1 C1 1_555 1_555
C1 C2 1_555 1_555
C2 C3 1_555 1_555
C3 C4 1_555 1_555
C4 C5 1_555 1_555
C5 N1 1_555 1_555
C6 C3 1_555 1_555
C7 C5 1_555 1_555
C8 C7 1_555 1_555
C9 C8 1_555 1_555
C10 C9 1_555 1_555
C11 C10 1_555 1_555
C12 C7 1_555 1_555
H1 C2 1_555 1_555
H2 C4 1_555 1_555
H3 C12 1_555 1_555
H4 C12 1_555 1_555
H5 C8 1_555 1_555
H6 C8 1_555 1_555
H7 C9 1_555 1_555
H8 C9 1_555 1_555
H9 C10 1_555 1_555
H10 C10 1_555 1_555
H11 C11 1_555 1_555
H12 C11 1_555 1_555
H13 C7 1_555 1_555
H14 C6 1_555 1_555
H15 C6 1_555 1_555
H16 C6 1_555 1_555
H17 O1 1_555 1_555
O3 N2 1_555 1_555
O4 C13 1_555 1_555
N2 C13 1_555 1_555
C13 C14 1_555 1_555
C14 C15 1_555 1_555
C15 C16 1_555 1_555
C16 C17 1_555 1_555
C17 N2 1_555 1_555
C18 C15 1_555 1_555
C19 C17 1_555 1_555
C20 C19 1_555 1_555
C21 C20 1_555 1_555
C22 C21 1_555 1_555
C23 C22 1_555 1_555
C24 C19 1_555 1_555
H18 C16 1_555 1_555
H19 C14 1_555 1_555
H20 C20 1_555 1_555
H21 C20 1_555 1_555
H22 C21 1_555 1_555
H23 C21 1_555 1_555
H24 C22 1_555 1_555
H25 C22 1_555 1_555
H26 C23 1_555 1_555
H27 C23 1_555 1_555
H28 C24 1_555 1_555
H29 C24 1_555 1_555
H30 C19 1_555 1_555
H31 C18 1_555 1_555
H32 C18 1_555 1_555
H33 C18 1_555 1_555
O5 C26 1_555 1_555
N3 C25 1_555 1_555
C25 C26 1_555 1_555
C26 H36 1_555 1_555
H34 C25 1_555 1_555
H35 C25 1_555 1_555
H37 C26 1_555 1_555
H38 N3 1_555 1_555
H39 N3 1_555 1_555
H40 N3 1_555 1_555
H41 O5 1_555 1_555
C11 C12 1_555 1_555
C23 C24 1_555 1_555

#END
