
#######################################################################
#
#                 Cambridge Crystallographic Data Centre
#                                CCDC 
#
#######################################################################
#
# If this CIF has been generated from an entry in the Cambridge 
# Structural Database, then it will include bibliographic, chemical, 
# crystal, experimental, refinement or atomic coordinate data resulting 
# from the CCDC's data processing and validation procedures.
#
#######################################################################

data_BEHQEN
_chemical_formula_moiety         'C33 H35 N3 O5 S1'
_chemical_name_systematic        
N-((3-(4-methoxybenzyl)-14-oxo-19-oxa-3,13-diazahexacyclo[15.2.1.0^2,10^.0^4,9^.0^10,18^.0^13,18^]icosa-4,6,8-trien-1-yl)methyl)-4-methylbenzenesulfonamide
_symmetry_cell_setting           triclinic
_symmetry_space_group_name_H-M   'P -1'
_symmetry_Int_Tables_number      2
_space_group_name_Hall           '-P 1'
loop_
_symmetry_equiv_pos_site_id
_symmetry_equiv_pos_as_xyz
1 x,y,z
2 -x,-y,-z
_cell_length_a                   8.4246(8)
_cell_length_b                   11.8635(9)
_cell_length_c                   14.7115(11)
_cell_angle_alpha                79.520(6)
_cell_angle_beta                 86.052(7)
_cell_angle_gamma                79.323(7)
_cell_volume                     1419.85
_exptl_crystal_colour            colorless
_exptl_crystal_description       block
_cell_formula_units_Z            2
loop_
_atom_site_label
_atom_site_type_symbol
_atom_site_fract_x
_atom_site_fract_y
_atom_site_fract_z
S1 S 0.64534(10) 0.81818(7) 0.01851(6)
O1 O 0.7956(3) 0.73902(18) 0.02714(15)
O2 O 0.2126(3) 0.33810(19) 0.25909(18)
C1 C 0.3485(4) 0.9627(2) 0.3721(2)
H1 H 0.3190 0.9835 0.4326
H2 H 0.2742 1.0127 0.3282
O3 O 0.4590(2) 0.64062(15) 0.21503(13)
O4 O 0.9927(3) 1.0136(2) 0.26806(18)
C2 C 0.5179(4) 0.9829(2) 0.3450(2)
C3 C 0.2726(5) 0.6323(3) -0.0705(2)
N1 N 0.3335(3) 0.84120(19) 0.37475(17)
C4 C 0.1496(5) 0.5710(3) -0.1011(3)
H3 H 0.1260 0.6020 -0.1646
H4 H 0.0524 0.5828 -0.0634
H5 H 0.1920 0.4892 -0.0948
N2 N 0.2666(3) 0.5156(2) 0.26253(18)
N3 N 0.5860(3) 0.8514(2) 0.11800(18)
C5 C -0.0052(4) 0.6715(3) 0.5337(3)
H6 H -0.0802 0.6306 0.5676
O5 O 0.6377(3) 0.92594(17) -0.04575(15)
C6 C 0.5014(4) 0.7447(2) -0.0139(2)
C7 C 1.0286(5) 1.0861(4) 0.1841(3)
H7 H 0.9940 1.0578 0.1330
H8 H 1.1430 1.0852 0.1778
H9 H 0.9730 1.1643 0.1848
C8 C 0.8333(4) 1.0099(3) 0.2894(2)
C9 C 0.2989(5) 0.3978(3) 0.2843(2)
C10 C 0.7063(4) 1.0713(3) 0.2370(2)
H10 H 0.7252 1.1222 0.1830
C11 C 0.5501(4) 0.6555(3) -0.0637(2)
H11 H 0.6591 0.6325 -0.0784
C12 C 0.1177(4) 0.5793(3) 0.2174(3)
H12 H 0.0236 0.5502 0.2475
H13 H 0.1219 0.5722 0.1526
C13 C 0.5130(3) 0.7213(2) 0.2642(2)
C14 C 0.1641(4) 0.8165(3) 0.5216(2)
H14 H 0.2022 0.8725 0.5467
C15 C 0.5791(4) 0.6395(2) 0.3524(2)
H15 H 0.6922 0.6065 0.3434
H16 H 0.5675 0.6803 0.4046
C16 C 0.5495(4) 1.0566(2) 0.2655(2)
H17 H 0.4639 1.0979 0.2296
C17 C 0.0515(4) 0.7556(3) 0.5698(2)
H18 H 0.0130 0.7714 0.6277
C18 C 0.1622(4) 0.7083(2) 0.3977(2)
C19 C 0.0498(4) 0.6483(3) 0.4471(2)
H19 H 0.0111 0.5923 0.4223
C20 C 0.2199(4) 0.7923(2) 0.4343(2)
C21 C 0.3549(4) 0.5932(2) 0.2897(2)
C22 C 0.3390(4) 0.7786(3) 0.0074(2)
H20 H 0.3056 0.8393 0.0404
C23 C 0.6464(4) 0.9241(2) 0.3982(2)
H21 H 0.6271 0.8753 0.4533
C24 C 0.8022(4) 0.9366(3) 0.3708(2)
H22 H 0.8874 0.8957 0.4071
C25 C 0.4352(5) 0.6010(3) -0.0914(2)
H23 H 0.4684 0.5412 -0.1252
C26 C 0.4403(5) 0.3468(3) 0.3447(3)
H24 H 0.4984 0.2782 0.3220
H25 H 0.3987 0.3210 0.4066
C27 C 0.6390(3) 0.7790(2) 0.2052(2)
H26 H 0.6814 0.8267 0.2413
H27 H 0.7275 0.7186 0.1918
C28 C 0.2265(4) 0.7217(3) -0.0207(2)
H28 H 0.1176 0.7442 -0.0057
C29 C 0.3464(3) 0.7959(2) 0.2876(2)
H29 H 0.3119 0.8583 0.2357
C30 C 0.4733(4) 0.5444(2) 0.3674(2)
H30 H 0.4170 0.5395 0.4282
C31 C 0.5604(4) 0.4258(3) 0.3513(3)
H31 H 0.6316 0.3909 0.4018
H32 H 0.6260 0.4343 0.2945
C32 C 0.2340(3) 0.7036(2) 0.3022(2)
C33 C 0.1125(4) 0.7064(3) 0.2283(2)
H33 H 0.0047 0.7406 0.2477
H34 H 0.1423 0.7520 0.1701
H35 H 0.548(4) 0.9244(10) 0.110(2)
loop_
_geom_bond_atom_site_label_1
_geom_bond_atom_site_label_2
_geom_bond_site_symmetry_1
_geom_bond_site_symmetry_2
S1 O1 1_555 1_555
O2 C9 1_555 1_555
C1 H1 1_555 1_555
H2 C1 1_555 1_555
O3 C13 1_555 1_555
O4 C7 1_555 1_555
C2 C1 1_555 1_555
C3 C4 1_555 1_555
N1 C1 1_555 1_555
C4 H3 1_555 1_555
H4 C4 1_555 1_555
H5 C4 1_555 1_555
N2 C9 1_555 1_555
N3 S1 1_555 1_555
C5 H6 1_555 1_555
O5 S1 1_555 1_555
C6 S1 1_555 1_555
C7 H7 1_555 1_555
H8 C7 1_555 1_555
H9 C7 1_555 1_555
C8 O4 1_555 1_555
C9 C26 1_555 1_555
C10 C8 1_555 1_555
H10 C10 1_555 1_555
C11 C6 1_555 1_555
H11 C11 1_555 1_555
C12 N2 1_555 1_555
H12 C12 1_555 1_555
H13 C12 1_555 1_555
C13 C15 1_555 1_555
C14 H14 1_555 1_555
C15 H15 1_555 1_555
H16 C15 1_555 1_555
C16 C2 1_555 1_555
H17 C16 1_555 1_555
C17 C5 1_555 1_555
H18 C17 1_555 1_555
C18 C19 1_555 1_555
C19 C5 1_555 1_555
H19 C19 1_555 1_555
C20 N1 1_555 1_555
C21 O3 1_555 1_555
C22 C6 1_555 1_555
H20 C22 1_555 1_555
C23 C2 1_555 1_555
H21 C23 1_555 1_555
C24 C8 1_555 1_555
H22 C24 1_555 1_555
C25 C3 1_555 1_555
H23 C25 1_555 1_555
C26 H24 1_555 1_555
H25 C26 1_555 1_555
C27 N3 1_555 1_555
H26 C27 1_555 1_555
H27 C27 1_555 1_555
C28 C3 1_555 1_555
H28 C28 1_555 1_555
C29 N1 1_555 1_555
H29 C29 1_555 1_555
C30 C15 1_555 1_555
H30 C30 1_555 1_555
C31 C26 1_555 1_555
H31 C31 1_555 1_555
H32 C31 1_555 1_555
C32 C18 1_555 1_555
C33 C12 1_555 1_555
H33 C33 1_555 1_555
H34 C33 1_555 1_555
H35 N3 1_555 1_555
N2 C21 1_555 1_555
C10 C16 1_555 1_555
C11 C25 1_555 1_555
C13 C27 1_555 1_555
C13 C29 1_555 1_555
C14 C17 1_555 1_555
C14 C20 1_555 1_555
C18 C20 1_555 1_555
C21 C30 1_555 1_555
C21 C32 1_555 1_555
C22 C28 1_555 1_555
C23 C24 1_555 1_555
C29 C32 1_555 1_555
C30 C31 1_555 1_555
C32 C33 1_555 1_555

#END
