
#######################################################################
#
#                 Cambridge Crystallographic Data Centre
#                                CCDC 
#
#######################################################################
#
# If this CIF has been generated from an entry in the Cambridge 
# Structural Database, then it will include bibliographic, chemical, 
# crystal, experimental, refinement or atomic coordinate data resulting 
# from the CCDC's data processing and validation procedures.
#
#######################################################################

data_BEHZOF01
_chemical_formula_moiety         'C28 H20 N2'
_chemical_name_systematic        
2,2'-(Anthracene-9,10-diyldiethene-2,1-diyl)dipyridine
_symmetry_cell_setting           monoclinic
_symmetry_space_group_name_H-M   'P 21/c'
_symmetry_Int_Tables_number      14
_space_group_name_Hall           '-P 2ybc'
loop_
_symmetry_equiv_pos_site_id
_symmetry_equiv_pos_as_xyz
1 x,y,z
2 -x,1/2+y,1/2-z
3 -x,-y,-z
4 x,1/2-y,1/2+z
_cell_length_a                   5.7409(11)
_cell_length_b                   7.5858(15)
_cell_length_c                   23.006(5)
_cell_angle_alpha                90
_cell_angle_beta                 91.32(3)
_cell_angle_gamma                90
_cell_volume                     1001.63
_cell_formula_units_Z            2
loop_
_atom_site_label
_atom_site_type_symbol
_atom_site_fract_x
_atom_site_fract_y
_atom_site_fract_z
C1 C 0.1672(4) 0.6356(3) 0.49380(9)
C2 C 0.0091(4) 0.6428(3) 0.53994(9)
N1 N 0.3646(4) 0.9857(3) 0.69324(9)
C3 C 0.1560(4) 0.4909(3) 0.45359(9)
C4 C 0.0059(5) 0.7946(4) 0.58123(11)
H1 H -0.1266 0.8651 0.5806
C5 C 0.1744(4) 0.9826(3) 0.65972(9)
C6 C 0.3174(5) 0.4894(3) 0.40707(10)
H2 H 0.3096 0.3987 0.3799
C7 C 0.1688(5) 0.8358(4) 0.61718(11)
H3 H 0.3009 0.7649 0.6167
C8 C 0.3807(5) 1.1109(4) 0.73325(11)
H4 H 0.5144 1.1131 0.7569
C9 C 0.2172(5) 1.2360(3) 0.74234(10)
H5 H 0.2372 1.3196 0.7716
C10 C -0.0010(4) 1.1062(4) 0.66497(11)
H6 H -0.1322 1.1025 0.6405
C11 C 0.4916(5) 0.7557(4) 0.44113(11)
H7 H 0.6055 0.8418 0.4373
C12 C 0.3390(5) 0.7671(4) 0.48487(10)
H8 H 0.3467 0.8636 0.5098
C13 C 0.0218(5) 1.2355(4) 0.70723(12)
H9 H -0.0935 1.3202 0.7116
C14 C 0.4800(5) 0.6154(4) 0.40159(12)
H10 H 0.5850 0.6095 0.3715
C1B C -0.1672(4) 0.3644(3) 0.50620(9)
C2B C -0.0091(4) 0.3572(3) 0.46006(9)
N1B N -0.3646(4) 0.0143(3) 0.30676(9)
C3B C -0.1560(4) 0.5091(3) 0.54641(9)
C4B C -0.0059(5) 0.2054(4) 0.41877(11)
H1B H 0.1266 0.1349 0.4194
C5B C -0.1744(4) 0.0174(3) 0.34028(9)
C6B C -0.3174(5) 0.5106(3) 0.59293(10)
H2B H -0.3096 0.6013 0.6201
C7B C -0.1688(5) 0.1642(4) 0.38282(11)
H3B H -0.3009 0.2351 0.3833
C8B C -0.3807(5) -0.1109(4) 0.26675(11)
H4B H -0.5144 -0.1131 0.2431
C9B C -0.2172(5) -0.2360(3) 0.25766(10)
H5B H -0.2372 -0.3196 0.2284
C10B C 0.0010(4) -0.1062(4) 0.33503(11)
H6B H 0.1322 -0.1025 0.3595
C11B C -0.4916(5) 0.2443(4) 0.55887(11)
H7B H -0.6055 0.1582 0.5627
C12B C -0.3390(5) 0.2329(4) 0.51513(10)
H8B H -0.3467 0.1364 0.4902
C13B C -0.0218(5) -0.2355(4) 0.29277(12)
H9B H 0.0935 -0.3202 0.2884
C14B C -0.4800(5) 0.3846(4) 0.59841(12)
H10B H -0.5850 0.3905 0.6285
loop_
_geom_bond_atom_site_label_1
_geom_bond_atom_site_label_2
_geom_bond_site_symmetry_1
_geom_bond_site_symmetry_2
C1 C2 1_555 1_555
C2 C4 1_555 1_555
N1 C5 1_555 1_555
C3 C1 1_555 1_555
C4 H1 1_555 1_555
C5 C7 1_555 1_555
C6 C3 1_555 1_555
H2 C6 1_555 1_555
C7 C4 1_555 1_555
H3 C7 1_555 1_555
C8 N1 1_555 1_555
H4 C8 1_555 1_555
C9 C8 1_555 1_555
H5 C9 1_555 1_555
C10 C5 1_555 1_555
H6 C10 1_555 1_555
C11 H7 1_555 1_555
C12 C1 1_555 1_555
H8 C12 1_555 1_555
C13 C9 1_555 1_555
H9 C13 1_555 1_555
C14 C6 1_555 1_555
H10 C14 1_555 1_555
C1B C2B 1_555 1_555
C2B C3 1_555 1_555
N1B C5B 1_555 1_555
C3B C2 1_555 1_555
C4B C2B 1_555 1_555
H1B C4B 1_555 1_555
C5B C7B 1_555 1_555
C6B C3B 1_555 1_555
H2B C6B 1_555 1_555
C7B C4B 1_555 1_555
H3B C7B 1_555 1_555
C8B N1B 1_555 1_555
H4B C8B 1_555 1_555
C9B C8B 1_555 1_555
H5B C9B 1_555 1_555
C10B C5B 1_555 1_555
H6B C10B 1_555 1_555
C11B H7B 1_555 1_555
C12B C1B 1_555 1_555
H8B C12B 1_555 1_555
C13B C9B 1_555 1_555
H9B C13B 1_555 1_555
C14B C6B 1_555 1_555
H10B C14B 1_555 1_555
C10 C13 1_555 1_555
C11 C12 1_555 1_555
C11 C14 1_555 1_555
C1B C3B 1_555 1_555
C10B C13B 1_555 1_555
C11B C12B 1_555 1_555
C11B C14B 1_555 1_555

#END
