
#######################################################################
#
#                 Cambridge Crystallographic Data Centre
#                                CCDC 
#
#######################################################################
#
# If this CIF has been generated from an entry in the Cambridge 
# Structural Database, then it will include bibliographic, chemical, 
# crystal, experimental, refinement or atomic coordinate data resulting 
# from the CCDC's data processing and validation procedures.
#
#######################################################################

data_BEHZOF
_chemical_formula_moiety         'C28 H20 N2'
_chemical_name_systematic        
2,2'-(Anthracene-9,10-diyldiethene-2,1-diyl)dipyridine
_symmetry_cell_setting           monoclinic
_symmetry_space_group_name_H-M   'C 2/c'
_symmetry_Int_Tables_number      15
_space_group_name_Hall           '-C 2yn'
loop_
_symmetry_equiv_pos_site_id
_symmetry_equiv_pos_as_xyz
1 x,y,z
2 -x,y,1/2-z
3 1/2+x,1/2+y,z
4 1/2-x,1/2+y,1/2-z
5 -x,-y,-z
6 x,-y,1/2+z
7 1/2-x,1/2-y,-z
8 1/2+x,1/2-y,1/2+z
_cell_length_a                   16.017(3)
_cell_length_b                   8.1213(16)
_cell_length_c                   15.553(3)
_cell_angle_alpha                90
_cell_angle_beta                 91.49(3)
_cell_angle_gamma                90
_cell_volume                     2022.43
_cell_formula_units_Z            4
loop_
_atom_site_label
_atom_site_type_symbol
_atom_site_fract_x
_atom_site_fract_y
_atom_site_fract_z
C1 C 0.33165(10) 0.58406(18) 0.70817(9)
H1 H 0.2977 0.5455 0.6631
C2 C 0.34233(10) 0.75139(17) 0.71590(9)
H2 H 0.3162 0.8237 0.6774
C3 C 0.39222(10) 0.80793(16) 0.78149(9)
H3 H 0.4006 0.9204 0.7890
C4 C 0.43024(9) 0.69683(15) 0.83668(8)
H4 H 0.4650 0.7334 0.8815
C5 C 0.41620(7) 0.53050(13) 0.82475(7)
C6 C 0.45447(7) 0.40841(14) 0.88312(7)
H5 H 0.4945 0.4451 0.9230
C7 C 0.43594(7) 0.25069(13) 0.88278(7)
H6 H 0.3976 0.2154 0.8408
C8 C 0.46979(7) 0.12358(12) 0.94220(7)
C9 C 0.55631(7) 0.09036(13) 0.94885(7)
C10 C 0.61594(7) 0.17294(14) 0.89756(8)
H7 H 0.5975 0.2501 0.8571
C11 C 0.69899(8) 0.14130(15) 0.90649(8)
H8 H 0.7366 0.1987 0.8731
C12 C 0.72878(8) 0.02291(16) 0.96556(8)
H9 H 0.7859 0.0040 0.9720
C13 C 0.67435(7) -0.06357(15) 1.01306(7)
H10 H 0.6948 -0.1448 1.0501
C14 C 0.58647(7) -0.03377(13) 1.00788(6)
N1 N 0.36667(7) 0.47399(12) 0.76078(6)
C1D C 0.66835(10) -0.58406(18) 1.29183(9)
H1D H 0.7023 -0.5455 1.3369
C2D C 0.65767(10) -0.75139(17) 1.28410(9)
H2D H 0.6838 -0.8237 1.3226
C3D C 0.60778(10) -0.80793(16) 1.21851(9)
H3D H 0.5994 -0.9204 1.2110
C4D C 0.56976(9) -0.69683(15) 1.16332(8)
H4D H 0.5350 -0.7334 1.1185
C5D C 0.58380(7) -0.53050(13) 1.17525(7)
C6D C 0.54553(7) -0.40841(14) 1.11688(7)
H5D H 0.5055 -0.4451 1.0770
C7D C 0.56406(7) -0.25069(13) 1.11722(7)
H6D H 0.6024 -0.2154 1.1592
C8D C 0.53021(7) -0.12358(12) 1.05780(7)
C9D C 0.44369(7) -0.09036(13) 1.05115(7)
C10D C 0.38406(7) -0.17294(14) 1.10244(8)
H7D H 0.4025 -0.2501 1.1429
C11D C 0.30101(8) -0.14130(15) 1.09351(8)
H8D H 0.2634 -0.1987 1.1269
C12D C 0.27122(8) -0.02291(16) 1.03444(8)
H9D H 0.2141 -0.0040 1.0280
C13D C 0.32565(7) 0.06357(15) 0.98694(7)
H10D H 0.3052 0.1448 0.9499
C14D C 0.41353(7) 0.03377(13) 0.99212(6)
N1D N 0.63333(7) -0.47399(12) 1.23922(6)
loop_
_geom_bond_atom_site_label_1
_geom_bond_atom_site_label_2
_geom_bond_site_symmetry_1
_geom_bond_site_symmetry_2
C1 H1 1_555 1_555
C2 C1 1_555 1_555
H2 C2 1_555 1_555
C3 C2 1_555 1_555
H3 C3 1_555 1_555
C4 C3 1_555 1_555
H4 C4 1_555 1_555
C5 C4 1_555 1_555
C6 C5 1_555 1_555
H5 C6 1_555 1_555
C7 C6 1_555 1_555
H6 C7 1_555 1_555
C8 C7 1_555 1_555
C9 C8 1_555 1_555
C10 C9 1_555 1_555
H7 C10 1_555 1_555
C11 C10 1_555 1_555
H8 C11 1_555 1_555
C12 C11 1_555 1_555
H9 C12 1_555 1_555
C13 C12 1_555 1_555
H10 C13 1_555 1_555
C14 C9 1_555 1_555
N1 C1 1_555 1_555
C1D H1D 1_555 1_555
C2D C1D 1_555 1_555
H2D C2D 1_555 1_555
C3D C2D 1_555 1_555
H3D C3D 1_555 1_555
C4D C3D 1_555 1_555
H4D C4D 1_555 1_555
C5D C4D 1_555 1_555
C6D C5D 1_555 1_555
H5D C6D 1_555 1_555
C7D C6D 1_555 1_555
H6D C7D 1_555 1_555
C8D C14 1_555 1_555
C9D C8D 1_555 1_555
C10D C9D 1_555 1_555
H7D C10D 1_555 1_555
C11D C10D 1_555 1_555
H8D C11D 1_555 1_555
C12D C11D 1_555 1_555
H9D C12D 1_555 1_555
C13D C12D 1_555 1_555
H10D C13D 1_555 1_555
C14D C8 1_555 1_555
N1D C1D 1_555 1_555
C5 N1 1_555 1_555
C13 C14 1_555 1_555
C5D N1D 1_555 1_555
C7D C8D 1_555 1_555
C9D C14D 1_555 1_555
C13D C14D 1_555 1_555

#END
