
#######################################################################
#
#                 Cambridge Crystallographic Data Centre
#                                CCDC 
#
#######################################################################
#
# If this CIF has been generated from an entry in the Cambridge 
# Structural Database, then it will include bibliographic, chemical, 
# crystal, experimental, refinement or atomic coordinate data resulting 
# from the CCDC's data processing and validation procedures.
#
#######################################################################

data_BEHZIZ
_chemical_formula_moiety         'C31 H40 O4'
_chemical_name_systematic        
9,11-Diallyl-12-ethyl-6-methoxy-3,4-diphenyl-2,5-dioxabicyclo[6.4.0]dodecan-10-ol
_symmetry_cell_setting           triclinic
_symmetry_space_group_name_H-M   'P -1'
_symmetry_Int_Tables_number      2
_space_group_name_Hall           '-P 1'
loop_
_symmetry_equiv_pos_site_id
_symmetry_equiv_pos_as_xyz
1 x,y,z
2 -x,-y,-z
_cell_length_a                   11.959(2)
_cell_length_b                   12.086(2)
_cell_length_c                   11.531(1)
_cell_angle_alpha                103.87(1)
_cell_angle_beta                 95.37(1)
_cell_angle_gamma                113.18(1)
_cell_volume                     1454.08
_exptl_crystal_colour            colorless
_exptl_crystal_description       plate
_cell_formula_units_Z            2
loop_
_atom_site_label
_atom_site_type_symbol
_atom_site_fract_x
_atom_site_fract_y
_atom_site_fract_z
O1 O -0.6264(1) -0.5502(1) -0.3531(1)
O2 O -0.8262(1) -0.7573(1) -0.5233(1)
O3 O -0.9041(1) -0.6899(1) -0.6675(1)
O4 O -0.8665(1) -0.3239(1) -0.3190(1)
C1 C -0.8318(2) -0.5658(2) -0.3282(2)
C2 C -0.6916(2) -0.4975(2) -0.2763(2)
C3 C -0.5276(2) -0.6775(2) -0.3079(2)
C4 C -0.8198(2) -0.6460(2) -0.5505(2)
C5 C -0.7343(2) -0.8962(2) -0.5016(2)
C6 C -0.6487(2) -0.6754(2) -0.3559(2)
C7 C -0.8676(2) -0.5724(2) -0.4647(2)
C8 C -0.6378(2) -0.3572(2) -0.2567(2)
C9 C -0.8998(2) -0.5051(2) -0.2463(2)
C10 C -0.8422(2) -0.3617(2) -0.2140(2)
C11 C -0.7088(2) -0.7608(2) -0.4905(2)
C12 C -0.8314(2) -0.9691(2) -0.4564(2)
C13 C -0.7007(2) -0.2987(2) -0.1655(2)
C14 C -0.4934(2) -0.2947(2) -0.2164(2)
C15 C -0.9058(2) -0.5435(3) -0.1289(2)
C16 C -0.4178(2) -0.6027(2) -0.3339(2)
C17 C -0.5267(2) -0.7514(2) -0.2342(2)
C18 C -0.6556(2) -0.9462(3) -0.5474(2)
C19 C -0.8682(2) -0.7543(3) -0.7649(2)
C20 C -0.4439(2) -0.3106(3) -0.0979(2)
C21 C -0.3058(3) -0.6759(3) -0.2134(3)
C22 C -0.4148(3) -0.7522(3) -0.1894(2)
C23 C -0.7679(3) -1.1373(2) -0.5045(3)
C24 C -0.6729(2) -1.0666(3) -0.5480(2)
C25 C -0.8487(2) -1.0905(3) -0.4591(2)
C26 C -0.3071(2) -0.6045(3) -0.2880(3)
C27 C -0.6493(2) -0.1547(3) -0.1349(2)
C28 C -0.9675(3) -0.6846(4) -0.1537(3)
C29 C -0.7122(3) -0.0983(3) -0.0526(3)
C30 C -0.7702(3) -0.0344(3) -0.0736(3)
C31 C -0.9211(4) -0.7504(3) -0.1087(3)
H1 H -0.8677 -0.6740 -0.3242
H2 H -0.6707 -0.5033 -0.1697
H3 H -0.7226 -0.6015 -0.5802
H4 H -0.8523 -0.4669 -0.4736
H5 H -0.6490 -0.3298 -0.3537
H6 H -0.9993 -0.5529 -0.3041
H7 H -0.6347 -0.7427 -0.5613
H8 H -0.9149 -0.9466 -0.4346
H9 H -0.6665 -0.3114 -0.0662
H10 H -0.4604 -0.2022 -0.2067
H11 H -0.9842 -0.5210 -0.0862
H12 H -0.8264 -0.5240 -0.0582
H13 H -0.6369 -0.8389 -0.2425
H14 H -0.7834 -0.7044 -0.7708
H15 H -0.4789 -0.2804 -0.0334
H16 H -0.9268 -1.1429 -0.4152
H17 H -0.6595 -0.1330 -0.2122
H18 H -0.8046 -1.2533 -0.5029
H19 H -0.8830 -0.3295 -0.1507
H20 H -0.7170 -0.7034 -0.2804
H21 H -0.4572 -0.3255 -0.2819
H22 H -0.9677 -0.5787 -0.4549
H23 H -0.8686 -0.8322 -0.7537
H24 H -0.4204 -0.5477 -0.3866
H25 H -0.5875 -0.8912 -0.5804
H26 H -0.2236 -0.6683 -0.1782
H27 H -0.4115 -0.8089 -0.1388
H28 H -0.6127 -1.1006 -0.5838
H29 H -0.2271 -0.5523 -0.3139
H30 H -0.9206 -0.7770 -0.8422
H31 H -0.4672 -0.3988 -0.1088
H32 H -0.3550 -0.2670 -0.0730
H33 H -0.8129 -0.0027 -0.0177
H34 H -0.7740 -0.0175 -0.1519
H35 H -0.8393 -0.7094 -0.0540
H36 H -0.9622 -0.8419 -0.1278
H37 H -1.0517 -0.7312 -0.2070
H38 H -0.7109 -0.1151 0.0287
H39 H -0.5591 -0.1129 -0.1039
H40 H -0.9588 -0.3059 -0.3055
loop_
_geom_bond_atom_site_label_1
_geom_bond_atom_site_label_2
_geom_bond_site_symmetry_1
_geom_bond_site_symmetry_2
O1 C2 1_555 1_555
O2 C4 1_555 1_555
O3 C4 1_555 1_555
O4 C10 1_555 1_555
C1 C2 1_555 1_555
C2 C8 1_555 1_555
C3 C6 1_555 1_555
C4 C7 1_555 1_555
C5 C11 1_555 1_555
C6 O1 1_555 1_555
C7 C1 1_555 1_555
C8 C13 1_555 1_555
C9 C1 1_555 1_555
C10 C9 1_555 1_555
C11 O2 1_555 1_555
C12 C5 1_555 1_555
C13 C10 1_555 1_555
C14 C8 1_555 1_555
C15 C9 1_555 1_555
C16 C3 1_555 1_555
C17 C3 1_555 1_555
C18 C5 1_555 1_555
C19 O3 1_555 1_555
C20 C14 1_555 1_555
C21 C22 1_555 1_555
C22 C17 1_555 1_555
C23 C24 1_555 1_555
C24 C18 1_555 1_555
C25 C12 1_555 1_555
C26 C16 1_555 1_555
C27 C13 1_555 1_555
C28 C15 1_555 1_555
C29 C27 1_555 1_555
C30 C29 1_555 1_555
C31 C28 1_555 1_555
H1 C1 1_555 1_555
H2 C2 1_555 1_555
H3 C4 1_555 1_555
H4 C7 1_555 1_555
H5 C8 1_555 1_555
H6 C9 1_555 1_555
H7 C11 1_555 1_555
H8 C12 1_555 1_555
H9 C13 1_555 1_555
H10 C14 1_555 1_555
H11 C15 1_555 1_555
H12 C15 1_555 1_555
H13 C17 1_555 1_555
H14 C19 1_555 1_555
H15 C20 1_555 1_555
H16 C25 1_555 1_555
H17 C27 1_555 1_555
H18 C23 1_555 1_555
H19 C10 1_555 1_555
H20 C6 1_555 1_555
H21 C14 1_555 1_555
H22 C7 1_555 1_555
H23 C19 1_555 1_555
H24 C16 1_555 1_555
H25 C18 1_555 1_555
H26 C21 1_555 1_555
H27 C22 1_555 1_555
H28 C24 1_555 1_555
H29 C26 1_555 1_555
H30 C19 1_555 1_555
H31 C20 1_555 1_555
H32 C20 1_555 1_555
H33 C30 1_555 1_555
H34 C30 1_555 1_555
H35 C31 1_555 1_555
H36 C31 1_555 1_555
H37 C28 1_555 1_555
H38 C29 1_555 1_555
H39 C27 1_555 1_555
H40 O4 1_555 1_555
C6 C11 1_555 1_555
C21 C26 1_555 1_555
C23 C25 1_555 1_555

#END
