
#######################################################################
#
#                 Cambridge Crystallographic Data Centre
#                                CCDC 
#
#######################################################################
#
# If this CIF has been generated from an entry in the Cambridge 
# Structural Database, then it will include bibliographic, chemical, 
# crystal, experimental, refinement or atomic coordinate data resulting 
# from the CCDC's data processing and validation procedures.
#
#######################################################################

data_BEHZIA
_chemical_formula_moiety         'C23 H20 N4 O2 2+,2(Cl1 O4 1-),H2 O1'
_chemical_name_systematic        
'1-hydroxy-3,9-dimethyl-7-oxo-6-phenyl-6,6a,7,8-tetrahydro-8,11c-diaza-2,8b-diazoniabenzo[cd]indeno[1,7-fg]azulene diperchlorate monohydrate'
_symmetry_cell_setting           triclinic
_symmetry_space_group_name_H-M   'P -1'
_symmetry_Int_Tables_number      2
_space_group_name_Hall           '-P 1'
loop_
_symmetry_equiv_pos_site_id
_symmetry_equiv_pos_as_xyz
1 x,y,z
2 -x,-y,-z
_cell_length_a                   9.3497(19)
_cell_length_b                   11.231(2)
_cell_length_c                   12.528(3)
_cell_angle_alpha                82.93(3)
_cell_angle_beta                 81.02(3)
_cell_angle_gamma                88.85(3)
_cell_volume                     1289.52
_exptl_crystal_colour            yellow
_exptl_crystal_description       block
_cell_formula_units_Z            2
loop_
_atom_site_label
_atom_site_type_symbol
_atom_site_fract_x
_atom_site_fract_y
_atom_site_fract_z
Cl1 Cl 0.33099(13) 0.84124(10) 0.34338(9)
O1 O 0.3434(5) 0.8842(5) 0.2327(4)
O2 O 0.4345(7) 0.8982(6) 0.3885(5)
O3 O 0.2010(8) 0.8595(15) 0.3941(6)
O4 O 0.3617(16) 0.7231(6) 0.3590(8)
N1 N 0.2156(4) 1.1307(3) 0.1256(3)
N2 N 0.1900(4) 1.3413(3) 0.2645(3)
O5 O 0.3574(4) 1.5851(3) 0.0927(3)
O6 O -0.0728(4) 1.0212(3) 0.3253(3)
N3 N 0.0621(4) 0.9792(3) 0.1597(3)
C1 C 0.3308(4) 1.1982(3) 0.0683(3)
N4 N 0.2777(5) 1.5211(3) 0.2743(3)
C2 C 0.3998(5) 1.1614(4) -0.0265(3)
C3 C 0.1300(4) 1.2305(4) 0.2995(3)
C4 C 0.1765(4) 1.0278(3) 0.0888(3)
C5 C 0.0291(5) 1.0455(4) 0.2434(4)
C6 C 0.1221(5) 1.1448(4) 0.2242(3)
C7 C 0.3600(5) 1.0555(4) -0.0624(4)
C8 C 0.4858(4) 1.2848(4) 0.1886(3)
C9 C 0.2476(5) 0.9853(4) -0.0054(4)
C10 C 0.2509(5) 1.3865(4) 0.1514(3)
H1 H 0.1764 1.3911 0.1040
C11 C 0.2115(5) 1.4210(4) 0.3328(4)
C12 C 0.4751(5) 1.1841(4) 0.2675(4)
C13 C 0.0803(5) 1.2057(4) 0.4108(4)
C14 C 0.5976(6) 1.3663(4) 0.1863(4)
C15 C 0.3019(5) 1.5118(4) 0.1645(4)
C16 C 0.1699(6) 1.3967(4) 0.4448(4)
C17 C 0.1009(6) 1.2878(5) 0.4803(4)
H2 H 0.0669 1.2693 0.5542
C18 C 0.5685(6) 1.1671(5) 0.3423(4)
C19 C 0.6917(6) 1.3486(5) 0.2613(5)
H3 H 0.7658 1.4034 0.2588
C20 C 0.6770(6) 1.2508(5) 0.3396(5)
C21 C 0.3799(4) 1.3090(3) 0.1081(3)
C22 C 0.2061(6) 0.8685(4) -0.0369(4)
H4 H 0.1252 0.8353 0.0141
H5 H 0.1799 0.8810 -0.1085
H6 H 0.2865 0.8140 -0.0365
C23 C 0.2013(8) 1.4840(6) 0.5192(5)
H7 H 0.2496 1.5529 0.4770
H8 H 0.1122 1.5085 0.5598
H9 H 0.2623 1.4465 0.5686
H10 H 0.429(4) 1.358(4) 0.043(3)
H11 H 0.406(6) 1.116(5) 0.272(4)
H12 H 0.041(7) 1.134(6) 0.439(5)
H13 H 0.558(6) 1.088(6) 0.385(5)
H14 H 0.745(7) 1.233(6) 0.387(5)
H15 H 0.416(6) 1.028(5) -0.138(4)
H16 H 0.293(5) 1.585(4) 0.305(3)
H17 H 0.038(6) 0.891(5) 0.162(4)
H18 H 0.608(7) 1.439(6) 0.132(5)
H19 H 0.479(6) 1.208(5) -0.070(4)
H20 H -0.141(7) 0.967(5) 0.318(5)
Cl2 Cl 0.08528(15) 0.34935(12) 0.84548(14)
O7 O 0.0243(6) 0.4597(5) 0.8168(6)
O8 O 0.0100(9) 0.2619(6) 0.8017(7)
O9 O 0.0625(10) 0.3241(9) 0.9595(6)
O10 O 0.2336(6) 0.3502(5) 0.7950(6)
O11 O -0.2629(5) 0.8688(5) 0.3158(4)
H21 H -0.253(8) 0.787(8) 0.299(6)
H22 H -0.358(8) 0.887(6) 0.329(5)
loop_
_geom_bond_atom_site_label_1
_geom_bond_atom_site_label_2
_geom_bond_site_symmetry_1
_geom_bond_site_symmetry_2
Cl1 O1 1_555 1_555
O2 Cl1 1_555 1_555
O3 Cl1 1_555 1_555
O4 Cl1 1_555 1_555
N1 C1 1_555 1_555
N2 C3 1_555 1_555
O5 C15 1_555 1_555
O6 C5 1_555 1_555
N3 C4 1_555 1_555
C1 C2 1_555 1_555
N4 C11 1_555 1_555
C2 C7 1_555 1_555
C3 C6 1_555 1_555
C4 N1 1_555 1_555
C5 N3 1_555 1_555
C6 N1 1_555 1_555
C7 C9 1_555 1_555
C8 C12 1_555 1_555
C9 C4 1_555 1_555
C10 N2 1_555 1_555
H1 C10 1_555 1_555
C11 N2 1_555 1_555
C12 C18 1_555 1_555
C13 C3 1_555 1_555
C14 C8 1_555 1_555
C15 N4 1_555 1_555
C16 C11 1_555 1_555
C17 C13 1_555 1_555
H2 C17 1_555 1_555
C18 C20 1_555 1_555
C19 C14 1_555 1_555
H3 C19 1_555 1_555
C20 C19 1_555 1_555
C21 C1 1_555 1_555
C22 C9 1_555 1_555
H4 C22 1_555 1_555
H5 C22 1_555 1_555
H6 C22 1_555 1_555
C23 C16 1_555 1_555
H7 C23 1_555 1_555
H8 C23 1_555 1_555
H9 C23 1_555 1_555
H10 C21 1_555 1_555
H11 C12 1_555 1_555
H12 C13 1_555 1_555
H13 C18 1_555 1_555
H14 C20 1_555 1_555
H15 C7 1_555 1_555
H16 N4 1_555 1_555
H17 N3 1_555 1_555
H18 C14 1_555 1_555
H19 C2 1_555 1_555
H20 O6 1_555 1_555
Cl2 O7 1_555 1_555
O8 Cl2 1_555 1_555
O9 Cl2 1_555 1_555
O10 Cl2 1_555 1_555
O11 H21 1_555 1_555
H22 O11 1_555 1_555
C5 C6 1_555 1_555
C8 C21 1_555 1_555
C10 C15 1_555 1_555
C10 C21 1_555 1_555
C16 C17 1_555 1_555

#END
