
#######################################################################
#
#                 Cambridge Crystallographic Data Centre
#                                CCDC 
#
#######################################################################
#
# If this CIF has been generated from an entry in the Cambridge 
# Structural Database, then it will include bibliographic, chemical, 
# crystal, experimental, refinement or atomic coordinate data resulting 
# from the CCDC's data processing and validation procedures.
#
#######################################################################

data_BEJDUR
_chemical_formula_moiety         'C31 H43 N3 O1 P1 1+,C1 F3 O3 S1 1-'
_chemical_name_systematic        
'1-(1,3-bis(2,6-diisopropylphenyl)-2-oxido-1,3,2-diazaphospholidin-2-yl)pyridinium trifluoromethanesulfonate'
_symmetry_cell_setting           monoclinic
_symmetry_space_group_name_H-M   'P 21/n'
_symmetry_Int_Tables_number      14
_space_group_name_Hall           '-P 2yn'
loop_
_symmetry_equiv_pos_site_id
_symmetry_equiv_pos_as_xyz
1 x,y,z
2 1/2-x,1/2+y,1/2-z
3 -x,-y,-z
4 1/2+x,1/2-y,1/2+z
_cell_length_a                   16.639(3)
_cell_length_b                   10.5222(16)
_cell_length_c                   19.419(3)
_cell_angle_alpha                90
_cell_angle_beta                 100.282(2)
_cell_angle_gamma                90
_cell_volume                     3345.26
_exptl_crystal_colour            colorless
_exptl_crystal_description       needle
_cell_formula_units_Z            4
loop_
_atom_site_label
_atom_site_type_symbol
_atom_site_fract_x
_atom_site_fract_y
_atom_site_fract_z
F1 F 0.44971(10) 0.05736(16) 0.14173(8)
F2 F 0.32175(10) 0.06108(15) 0.14757(9)
F3 F 0.38124(11) 0.23071(15) 0.12106(8)
O2 O 0.42283(11) 0.04430(15) 0.28651(9)
O3 O 0.49118(10) 0.23662(16) 0.25915(10)
O4 O 0.34731(10) 0.24146(15) 0.26562(9)
S1 S 0.41633(4) 0.16770(6) 0.25403(3)
C32 C 0.39110(18) 0.1283(3) 0.16168(15)
O1 O 0.89398(9) 0.05761(14) 0.18425(8)
P1 P 0.92638(4) 0.18614(6) 0.19323(3)
N1 N 0.93512(11) 0.28041(16) 0.12858(9)
N2 N 0.88859(11) 0.28989(16) 0.24038(9)
N3 N 1.03121(11) 0.16141(17) 0.23587(9)
C1 C 0.88857(14) 0.4206(2) 0.21168(12)
H1 H 0.9336 0.4710 0.2388
H2 H 0.8362 0.4636 0.2140
C2 C 0.90019(15) 0.4077(2) 0.13513(12)
H3 H 0.8471 0.4162 0.1030
H4 H 0.9377 0.4742 0.1236
C3 C 0.83592(14) 0.2591(2) 0.29075(12)
C4 C 0.75149(14) 0.2497(2) 0.26598(12)
C5 C 0.70196(15) 0.2217(2) 0.31485(13)
H5 H 0.6445 0.2170 0.3000
C6 C 0.73489(15) 0.2009(2) 0.38430(13)
H6 H 0.7003 0.1786 0.4164
C7 C 0.81790(15) 0.2123(2) 0.40714(13)
H7 H 0.8398 0.1982 0.4551
C8 C 0.87052(15) 0.2441(2) 0.36137(12)
C9 C 0.71221(14) 0.2685(2) 0.19000(12)
H8 H 0.7569 0.2849 0.1629
C10 C 0.96085(15) 0.2603(2) 0.38942(12)
H9 H 0.9867 0.2957 0.3509
C11 C 0.66700(15) 0.1480(2) 0.15993(13)
H10 H 0.7046 0.0756 0.1667
H11 H 0.6464 0.1599 0.1098
H12 H 0.6211 0.1317 0.1841
C12 C 0.65473(15) 0.3830(2) 0.17990(14)
H13 H 0.6093 0.3684 0.2048
H14 H 0.6334 0.3946 0.1299
H15 H 0.6847 0.4593 0.1985
C13 C 0.97604(16) 0.3547(2) 0.45060(13)
H16 H 0.9572 0.3176 0.4912
H17 H 0.9460 0.4335 0.4370
H18 H 1.0346 0.3732 0.4627
C14 C 1.00162(16) 0.1322(2) 0.41112(14)
H19 H 1.0607 0.1444 0.4251
H20 H 0.9909 0.0730 0.3716
H21 H 0.9794 0.0974 0.4506
C15 C 0.95009(14) 0.2372(2) 0.06059(12)
C16 C 1.02675(14) 0.2635(2) 0.04277(12)
C17 C 1.04023(16) 0.2199(2) -0.02202(13)
H22 H 1.0918 0.2345 -0.0351
C18 C 0.98104(16) 0.1562(2) -0.06756(14)
H23 H 0.9919 0.1270 -0.1112
C19 C 0.90554(16) 0.1350(2) -0.04936(13)
H24 H 0.8645 0.0923 -0.0813
C20 C 0.88848(14) 0.1748(2) 0.01469(12)
C21 C 1.09331(14) 0.3382(2) 0.08930(12)
H25 H 1.0729 0.3599 0.1333
C22 C 1.17053(15) 0.2580(2) 0.10949(13)
H26 H 1.1952 0.2430 0.0680
H27 H 1.1564 0.1763 0.1285
H28 H 1.2095 0.3031 0.1449
C23 C 1.11257(16) 0.4627(2) 0.05508(13)
H29 H 1.1544 0.5095 0.0872
H30 H 1.0629 0.5144 0.0443
H31 H 1.1328 0.4442 0.0117
C24 C 0.80280(14) 0.1540(2) 0.02991(13)
H32 H 0.8020 0.1849 0.0785
C25 C 0.77913(15) 0.0127(2) 0.02673(14)
H33 H 0.7811 -0.0207 -0.0200
H34 H 0.7237 0.0033 0.0366
H35 H 0.8175 -0.0346 0.0616
C26 C 0.74033(16) 0.2321(3) -0.02043(14)
H36 H 0.7565 0.3218 -0.0177
H37 H 0.6863 0.2231 -0.0075
H38 H 0.7383 0.2013 -0.0683
C27 C 1.06092(15) 0.0422(2) 0.24651(12)
H39 H 1.0264 -0.0286 0.2326
C28 C 1.14100(15) 0.0233(2) 0.27744(13)
H40 H 1.1618 -0.0606 0.2851
C29 C 1.19126(16) 0.1262(2) 0.29741(13)
H41 H 1.2468 0.1137 0.3184
C30 C 1.15984(15) 0.2475(2) 0.28657(12)
H42 H 1.1935 0.3193 0.3003
C31 C 1.08018(14) 0.2634(2) 0.25599(12)
H43 H 1.0585 0.3468 0.2486
loop_
_geom_bond_atom_site_label_1
_geom_bond_atom_site_label_2
_geom_bond_site_symmetry_1
_geom_bond_site_symmetry_2
F1 C32 1_555 1_555
F2 C32 1_555 1_555
F3 C32 1_555 1_555
O1 P1 1_555 1_555
O2 S1 1_555 1_555
O3 S1 1_555 1_555
O4 S1 1_555 1_555
P1 N1 1_555 1_555
S1 C32 1_555 1_555
N1 C2 1_555 1_555
N2 P1 1_555 1_555
N3 P1 1_555 1_555
C1 N2 1_555 1_555
H1 C1 1_555 1_555
H2 C1 1_555 1_555
C2 C1 1_555 1_555
H3 C2 1_555 1_555
H4 C2 1_555 1_555
C3 N2 1_555 1_555
C4 C3 1_555 1_555
C5 C4 1_555 1_555
H5 C5 1_555 1_555
C6 C5 1_555 1_555
H6 C6 1_555 1_555
C7 C6 1_555 1_555
H7 C7 1_555 1_555
C8 C3 1_555 1_555
C9 C4 1_555 1_555
H8 C9 1_555 1_555
C10 C8 1_555 1_555
H9 C10 1_555 1_555
C11 C9 1_555 1_555
H10 C11 1_555 1_555
H11 C11 1_555 1_555
H12 C11 1_555 1_555
C12 C9 1_555 1_555
H13 C12 1_555 1_555
H14 C12 1_555 1_555
H15 C12 1_555 1_555
C13 C10 1_555 1_555
H16 C13 1_555 1_555
H17 C13 1_555 1_555
H18 C13 1_555 1_555
C14 C10 1_555 1_555
H19 C14 1_555 1_555
H20 C14 1_555 1_555
H21 C14 1_555 1_555
C15 N1 1_555 1_555
C16 C15 1_555 1_555
C17 C16 1_555 1_555
H22 C17 1_555 1_555
C18 C17 1_555 1_555
H23 C18 1_555 1_555
C19 C18 1_555 1_555
H24 C19 1_555 1_555
C20 C15 1_555 1_555
C21 C16 1_555 1_555
H25 C21 1_555 1_555
C22 C21 1_555 1_555
H26 C22 1_555 1_555
H27 C22 1_555 1_555
H28 C22 1_555 1_555
C23 C21 1_555 1_555
H29 C23 1_555 1_555
H30 C23 1_555 1_555
H31 C23 1_555 1_555
C24 C20 1_555 1_555
H32 C24 1_555 1_555
C25 C24 1_555 1_555
H33 C25 1_555 1_555
H34 C25 1_555 1_555
H35 C25 1_555 1_555
C26 C24 1_555 1_555
H36 C26 1_555 1_555
H37 C26 1_555 1_555
H38 C26 1_555 1_555
C27 N3 1_555 1_555
H39 C27 1_555 1_555
C28 C27 1_555 1_555
H40 C28 1_555 1_555
C29 C28 1_555 1_555
H41 C29 1_555 1_555
C30 C29 1_555 1_555
H42 C30 1_555 1_555
C31 N3 1_555 1_555
H43 C31 1_555 1_555
C7 C8 1_555 1_555
C19 C20 1_555 1_555
C30 C31 1_555 1_555

#END
