
#######################################################################
#
#                 Cambridge Crystallographic Data Centre
#                                CCDC 
#
#######################################################################
#
# If this CIF has been generated from an entry in the Cambridge 
# Structural Database, then it will include bibliographic, chemical, 
# crystal, experimental, refinement or atomic coordinate data resulting 
# from the CCDC's data processing and validation procedures.
#
#######################################################################

data_BEJDEA
_chemical_formula_moiety         'C17 H16 O3'
_chemical_name_systematic        
11-Methyl-10-phenyl-8-oxatricyclo(5.3.1.0^4,11^)undec-10-ene-2,9-dione
_symmetry_cell_setting           orthorhombic
_symmetry_space_group_name_H-M   'P n a 21'
_symmetry_Int_Tables_number      33
_space_group_name_Hall           'P 2c -2n'
loop_
_symmetry_equiv_pos_site_id
_symmetry_equiv_pos_as_xyz
1 x,y,z
2 -x,-y,1/2+z
3 1/2-x,1/2+y,1/2+z
4 1/2+x,1/2-y,z
_cell_length_a                   12.8933(8)
_cell_length_b                   8.7035(6)
_cell_length_c                   24.4720(16)
_cell_angle_alpha                90
_cell_angle_beta                 90
_cell_angle_gamma                90
_cell_volume                     2746.17
_exptl_crystal_colour            colorless
_cell_formula_units_Z            8
loop_
_atom_site_label
_atom_site_type_symbol
_atom_site_fract_x
_atom_site_fract_y
_atom_site_fract_z
O1 O 0.4389(2) 0.6081(3) 0.0161
O2 O 0.4971(2) 0.3749(3) 0.0216(1)
O3 O 0.6117(2) 0.6875(3) 0.2057(1)
C1 C 0.5374(2) 0.5340(3) 0.0977(1)
C2 C 0.4910(2) 0.4979(4) 0.0430(2)
C3 C 0.4326(2) 0.7658(4) 0.0387(2)
C4 C 0.5287(3) 0.8623(4) 0.0254(2)
C5 C 0.5348(3) 0.9770(4) 0.0711(2)
C6 C 0.4612(2) 0.9263(4) 0.1176(2)
C7 C 0.5129(3) 0.9023(4) 0.1726(2)
C8 C 0.5521(2) 0.7395(4) 0.1730(2)
C9 C 0.5049(2) 0.6610(3) 0.1238(1)
C10 C 0.4240(2) 0.7641(3) 0.1001(2)
C11 C 0.3148(2) 0.7238(4) 0.1196(2)
C12 C 0.6159(2) 0.4216(3) 0.1179(1)
C13 C 0.6109(2) 0.3670(4) 0.1714(2)
C14 C 0.6831(3) 0.2660(5) 0.1904(2)
C15 C 0.7615(3) 0.2146(4) 0.1569(2)
C16 C 0.7673(2) 0.2646(4) 0.1042(2)
C17 C 0.6937(2) 0.3696(3) 0.0840(2)
H1 H 0.3771 0.8186 0.0206
H2 H 0.5270 0.9143 -0.0112
H3 H 0.6026 0.7960 0.0223
H4 H 0.5974 0.9540 0.0832
H5 H 0.5212 1.0931 0.0518
H6 H 0.4029 0.9928 0.1187
H7 H 0.4822 0.9147 0.2095
H8 H 0.5711 0.9823 0.1759
H9 H 0.2998 0.6030 0.1044
H10 H 0.3136 0.7222 0.1647
H11 H 0.2708 0.8017 0.1055
H12 H 0.5554 0.4032 0.1965
H13 H 0.6980 0.2268 0.2297
H14 H 0.8021 0.1313 0.1724
H15 H 0.8207 0.2488 0.0722
H16 H 0.6979 0.4081 0.0433
O4 O 0.2980(2) 0.1109(3) -0.0449(1)
O5 O 0.2365(2) -0.1226(3) -0.0462(1)
O6 O 0.1358(2) 0.1594(3) -0.2383(1)
C18 C 0.1983(2) 0.0281(3) -0.1247(2)
C19 C 0.2444(2) -0.0012(4) -0.0695(2)
C20 C 0.3027(2) 0.2647(4) -0.0681(2)
C21 C 0.2087(3) 0.3634(4) -0.0544(2)
C22 C 0.1988(3) 0.4762(4) -0.0997(2)
C23 C 0.2678(2) 0.4211(4) -0.1478(2)
C24 C 0.2091(3) 0.3912(4) -0.2011(2)
C25 C 0.1849(2) 0.2238(4) -0.2027(2)
C26 C 0.2320(2) 0.1517(3) -0.1527(1)
C27 C 0.3104(2) 0.2644(3) -0.1294(2)
C28 C 0.4189(2) 0.2269(4) -0.1507(2)
C29 C 0.1205(2) -0.0847(3) -0.1433(1)
C30 C 0.1268(2) -0.1519(3) -0.1945(2)
C31 C 0.0522(3) -0.2549(4) -0.2115(2)
C32 C -0.0289(3) -0.2947(4) -0.1776(2)
C33 C -0.0356(3) -0.2288(4) -0.1257(2)
C34 C 0.0383(2) -0.1257(3) -0.1093(2)
H17 H 0.3639 0.3080 -0.0535
H18 H 0.2065 0.4061 -0.0201
H19 H 0.1346 0.2835 -0.0597
H20 H 0.1283 0.4908 -0.1121
H21 H 0.2491 0.5470 -0.0899
H22 H 0.3215 0.4877 -0.1550
H23 H 0.1437 0.4545 -0.2002
H24 H 0.2283 0.4442 -0.2383
H25 H 0.4378 0.1259 -0.1339
H26 H 0.4234 0.1994 -0.1822
H27 H 0.4564 0.3097 -0.1482
H28 H 0.1809 -0.1102 -0.2190
H29 H 0.0616 -0.3083 -0.2475
H30 H -0.0866 -0.3831 -0.1879
H31 H -0.0980 -0.2606 -0.1084
H32 H 0.0290 -0.0870 -0.0728
loop_
_geom_bond_atom_site_label_1
_geom_bond_atom_site_label_2
_geom_bond_site_symmetry_1
_geom_bond_site_symmetry_2
O1 C2 1_555 1_555
O2 C2 1_555 1_555
O3 C8 1_555 1_555
O4 C19 1_555 1_555
O5 C19 1_555 1_555
O6 C25 1_555 1_555
C1 C2 1_555 1_555
C3 O1 1_555 1_555
C4 C3 1_555 1_555
C5 C4 1_555 1_555
C6 C5 1_555 1_555
C7 C6 1_555 1_555
C8 C7 1_555 1_555
C9 C1 1_555 1_555
C10 C3 1_555 1_555
C11 C10 1_555 1_555
C12 C1 1_555 1_555
C13 C12 1_555 1_555
C14 C13 1_555 1_555
C15 C14 1_555 1_555
C16 C15 1_555 1_555
C17 C12 1_555 1_555
C18 C19 1_555 1_555
C20 O4 1_555 1_555
C21 C20 1_555 1_555
C22 C21 1_555 1_555
C23 C22 1_555 1_555
C24 C23 1_555 1_555
C25 C24 1_555 1_555
C26 C18 1_555 1_555
C27 C20 1_555 1_555
C28 C27 1_555 1_555
C29 C18 1_555 1_555
C30 C29 1_555 1_555
C31 C30 1_555 1_555
C32 C31 1_555 1_555
C33 C32 1_555 1_555
C34 C29 1_555 1_555
H1 C3 1_555 1_555
H2 C4 1_555 1_555
H3 C4 1_555 1_555
H4 C5 1_555 1_555
H5 C5 1_555 1_555
H6 C6 1_555 1_555
H7 C7 1_555 1_555
H8 C7 1_555 1_555
H9 C11 1_555 1_555
H10 C11 1_555 1_555
H11 C11 1_555 1_555
H12 C13 1_555 1_555
H13 C14 1_555 1_555
H14 C15 1_555 1_555
H15 C16 1_555 1_555
H16 C17 1_555 1_555
H17 C20 1_555 1_555
H18 C21 1_555 1_555
H19 C21 1_555 1_555
H20 C22 1_555 1_555
H21 C22 1_555 1_555
H22 C23 1_555 1_555
H23 C24 1_555 1_555
H24 C24 1_555 1_555
H25 C28 1_555 1_555
H26 C28 1_555 1_555
H27 C28 1_555 1_555
H28 C30 1_555 1_555
H29 C31 1_555 1_555
H30 C32 1_555 1_555
H31 C33 1_555 1_555
H32 C34 1_555 1_555
C6 C10 1_555 1_555
C8 C9 1_555 1_555
C9 C10 1_555 1_555
C16 C17 1_555 1_555
C23 C27 1_555 1_555
C25 C26 1_555 1_555
C26 C27 1_555 1_555
C33 C34 1_555 1_555

#END
