
#######################################################################
#
#                 Cambridge Crystallographic Data Centre
#                                CCDC 
#
#######################################################################
#
# If this CIF has been generated from an entry in the Cambridge 
# Structural Database, then it will include bibliographic, chemical, 
# crystal, experimental, refinement or atomic coordinate data resulting 
# from the CCDC's data processing and validation procedures.
#
#######################################################################

data_BEJGOO
_chemical_formula_moiety         'C28 H52 O7 Si1'
_chemical_name_systematic        
t-Butyl((1-(8-((methoxymethoxy)(2-methyl-1,3-dioxolan-2-yl)methyl)-4,10-dimethyl-1,7-dioxaspiro[5.5]undec-2-yl)-2-methylprop-2-en-1-yl)oxy)dimethylsilane
_symmetry_cell_setting           tetragonal
_symmetry_space_group_name_H-M   'P 43 21 2'
_symmetry_Int_Tables_number      96
_space_group_name_Hall           'P 4nw 2abw'
loop_
_symmetry_equiv_pos_site_id
_symmetry_equiv_pos_as_xyz
1 x,y,z
2 -x,-y,1/2+z
3 1/2-y,1/2+x,3/4+z
4 1/2+y,1/2-x,1/4+z
5 1/2-x,1/2+y,3/4-z
6 1/2+x,1/2-y,1/4-z
7 y,x,-z
8 -y,-x,1/2-z
_cell_length_a                   10.3122(4)
_cell_length_b                   10.3122(4)
_cell_length_c                   60.128(3)
_cell_angle_alpha                90
_cell_angle_beta                 90
_cell_angle_gamma                90
_cell_volume                     6394.1
_exptl_crystal_colour            colorless
_exptl_crystal_description       block
_cell_formula_units_Z            8
loop_
_atom_site_label
_atom_site_type_symbol
_atom_site_fract_x
_atom_site_fract_y
_atom_site_fract_z
C1 C 0.3351(7) 0.5816(7) 0.09842(13)
H1 H 0.2939 0.6618 0.0980
H2 H 0.3053 0.5175 0.1080
C2 C 0.4363(5) 0.5587(5) 0.08541(10)
C3 C 0.5020(4) 0.4285(4) 0.08583(7)
H3 H 0.4682 0.3794 0.0985
C4 C 0.4777(4) 0.3502(4) 0.06486(7)
H4 H 0.5271 0.3876 0.0525
C5 C 0.3340(4) 0.3458(5) 0.05878(8)
H5 H 0.2843 0.3180 0.0716
H6 H 0.3050 0.4321 0.0547
C6 C 0.3093(4) 0.2536(5) 0.03962(8)
H7 H 0.3525 0.2882 0.0264
C7 C 0.3680(5) 0.1242(5) 0.04494(9)
H8 H 0.3611 0.0688 0.0320
H9 H 0.3184 0.0842 0.0568
C8 C 0.5092(4) 0.1313(4) 0.05195(7)
C9 C 0.5611(5) 0.0028(4) 0.06018(8)
H10 H 0.5224 -0.0151 0.0746
H11 H 0.5324 -0.0645 0.0500
C10 C 0.7055(6) -0.0073(5) 0.06250(8)
H12 H 0.7276 -0.0996 0.0632
C11 C 0.7694(5) 0.0491(5) 0.04173(8)
H13 H 0.8619 0.0576 0.0443
H14 H 0.7576 -0.0108 0.0295
C12 C 0.7149(4) 0.1802(5) 0.03527(7)
H15 H 0.7341 0.2423 0.0472
C13 C 0.7747(5) 0.2293(6) 0.01375(8)
H16 H 0.8683 0.2372 0.0162
C14 C 0.7251(6) 0.3617(7) 0.00585(10)
C15 C 0.8118(9) 0.5402(9) 0.02246(13)
H17 H 0.8706 0.5351 0.0350
H18 H 0.7739 0.6263 0.0221
C16 C 0.8783(9) 0.5135(10) 0.00238(14)
H19 H 0.8771 0.5901 -0.0070
H20 H 0.9681 0.4931 0.0057
C17 C 0.4895(7) 0.6559(5) 0.06967(12)
H21 H 0.4348 0.7312 0.0696
H22 H 0.4928 0.6192 0.0550
H23 H 0.5753 0.6800 0.0743
C18 C 0.1634(5) 0.2440(7) 0.03476(11)
H24 H 0.1500 0.1944 0.0214
H25 H 0.1282 0.3294 0.0328
H26 H 0.1206 0.2020 0.0470
C19 C 0.7598(6) 0.0573(6) 0.08362(8)
H27 H 0.8522 0.0461 0.0841
H28 H 0.7215 0.0179 0.0965
H29 H 0.7396 0.1482 0.0834
C20 C 0.8643(9) 0.1043(12) -0.01509(14)
H30 H 0.9138 0.1842 -0.0155
H31 H 0.9116 0.0476 -0.0051
C21 C 0.8076(11) 0.0990(13) -0.04836(15)
H32 H 0.7519 0.0285 -0.0525
H33 H 0.8635 0.1204 -0.0606
H34 H 0.7559 0.1731 -0.0445
C22 C 0.6002(6) 0.3563(7) -0.00721(11)
H35 H 0.5297 0.3368 0.0026
H36 H 0.6065 0.2901 -0.0184
H37 H 0.5852 0.4387 -0.0142
C23 C 0.6402(7) 0.5875(8) 0.13048(11)
H38 H 0.6464 0.6709 0.1234
H39 H 0.6842 0.5899 0.1445
H40 H 0.5506 0.5663 0.1328
C24 C 0.7191(9) 0.3091(7) 0.12842(12)
H41 H 0.6344 0.2918 0.1343
H42 H 0.7802 0.3162 0.1404
H43 H 0.7445 0.2397 0.1187
C25 C 0.8810(6) 0.5156(7) 0.10418(10)
C26 C 0.9385(7) 0.4139(10) 0.08822(12)
H44 H 0.8847 0.4071 0.0752
H45 H 0.9423 0.3313 0.0956
H46 H 1.0243 0.4398 0.0839
C27 C 0.8740(8) 0.6500(8) 0.09319(13)
H47 H 0.9599 0.6851 0.0918
H48 H 0.8220 0.7067 0.1022
H49 H 0.8358 0.6421 0.0787
C28 C 0.9688(6) 0.5297(9) 0.12499(12)
H50 H 0.9770 0.4471 0.1322
H51 H 0.9307 0.5909 0.1351
H52 H 1.0529 0.5598 0.1205
O1 O 0.6388(3) 0.4445(3) 0.08878(5)
O2 O 0.5249(3) 0.2229(3) 0.06961(4)
O3 O 0.5780(3) 0.1725(3) 0.03252(4)
O4 O 0.8249(5) 0.4152(5) -0.00851(7)
O5 O 0.7143(5) 0.4451(5) 0.02417(7)
O6 O 0.7558(4) 0.1368(4) -0.00324(6)
O7 O 0.8802(7) 0.0637(8) -0.03063(11)
Si1 Si 0.71573(15) 0.46385(14) 0.11253(2)
loop_
_geom_bond_atom_site_label_1
_geom_bond_atom_site_label_2
_geom_bond_site_symmetry_1
_geom_bond_site_symmetry_2
C1 H1 1_555 1_555
H2 C1 1_555 1_555
C2 C1 1_555 1_555
C3 C2 1_555 1_555
H3 C3 1_555 1_555
C4 C3 1_555 1_555
H4 C4 1_555 1_555
C5 C4 1_555 1_555
H5 C5 1_555 1_555
H6 C5 1_555 1_555
C6 C5 1_555 1_555
H7 C6 1_555 1_555
C7 C6 1_555 1_555
H8 C7 1_555 1_555
H9 C7 1_555 1_555
C8 C7 1_555 1_555
C9 C8 1_555 1_555
H10 C9 1_555 1_555
H11 C9 1_555 1_555
C10 C9 1_555 1_555
H12 C10 1_555 1_555
C11 C10 1_555 1_555
H13 C11 1_555 1_555
H14 C11 1_555 1_555
C12 C11 1_555 1_555
H15 C12 1_555 1_555
C13 C12 1_555 1_555
H16 C13 1_555 1_555
C14 C13 1_555 1_555
C15 H17 1_555 1_555
H18 C15 1_555 1_555
C16 C15 1_555 1_555
H19 C16 1_555 1_555
H20 C16 1_555 1_555
C17 C2 1_555 1_555
H21 C17 1_555 1_555
H22 C17 1_555 1_555
H23 C17 1_555 1_555
C18 C6 1_555 1_555
H24 C18 1_555 1_555
H25 C18 1_555 1_555
H26 C18 1_555 1_555
C19 C10 1_555 1_555
H27 C19 1_555 1_555
H28 C19 1_555 1_555
H29 C19 1_555 1_555
C20 H30 1_555 1_555
H31 C20 1_555 1_555
C21 H32 1_555 1_555
H33 C21 1_555 1_555
H34 C21 1_555 1_555
C22 C14 1_555 1_555
H35 C22 1_555 1_555
H36 C22 1_555 1_555
H37 C22 1_555 1_555
C23 H38 1_555 1_555
H39 C23 1_555 1_555
H40 C23 1_555 1_555
C24 H41 1_555 1_555
H42 C24 1_555 1_555
H43 C24 1_555 1_555
C25 C26 1_555 1_555
C26 H44 1_555 1_555
H45 C26 1_555 1_555
H46 C26 1_555 1_555
C27 C25 1_555 1_555
H47 C27 1_555 1_555
H48 C27 1_555 1_555
H49 C27 1_555 1_555
C28 C25 1_555 1_555
H50 C28 1_555 1_555
H51 C28 1_555 1_555
H52 C28 1_555 1_555
O1 C3 1_555 1_555
O2 C4 1_555 1_555
O3 C8 1_555 1_555
O4 C14 1_555 1_555
O5 C14 1_555 1_555
O6 C13 1_555 1_555
O7 C20 1_555 1_555
Si1 C23 1_555 1_555
C8 O2 1_555 1_555
C12 O3 1_555 1_555
C15 O5 1_555 1_555
C16 O4 1_555 1_555
C20 O6 1_555 1_555
C21 O7 1_555 1_555
C24 Si1 1_555 1_555
C25 Si1 1_555 1_555
O1 Si1 1_555 1_555

#END
