
#######################################################################
#
#                 Cambridge Crystallographic Data Centre
#                                CCDC 
#
#######################################################################
#
# If this CIF has been generated from an entry in the Cambridge 
# Structural Database, then it will include bibliographic, chemical, 
# crystal, experimental, refinement or atomic coordinate data resulting 
# from the CCDC's data processing and validation procedures.
#
#######################################################################

data_BEJJAC
_chemical_formula_moiety         'C8 H8 Cl1 N2 1+,N1 O3 1-'
_chemical_name_systematic        '2-Chloromethyl-1H-benzimidazolium nitrate'
_symmetry_cell_setting           monoclinic
_symmetry_space_group_name_H-M   'P 21/n'
_symmetry_Int_Tables_number      14
_space_group_name_Hall           '-P 2yn'
loop_
_symmetry_equiv_pos_site_id
_symmetry_equiv_pos_as_xyz
1 x,y,z
2 1/2-x,1/2+y,1/2-z
3 -x,-y,-z
4 1/2+x,1/2-y,1/2+z
_cell_length_a                   7.4189(3)
_cell_length_b                   15.3064(6)
_cell_length_c                   9.2657(3)
_cell_angle_alpha                90
_cell_angle_beta                 102.449
_cell_angle_gamma                90
_cell_volume                     1027.44
_exptl_crystal_colour            'light yellow'
_cell_formula_units_Z            4
loop_
_atom_site_label
_atom_site_type_symbol
_atom_site_fract_x
_atom_site_fract_y
_atom_site_fract_z
Cl1 Cl 0.0894(1) 0.8658(1) 0.0225(1)
N1 N 0.2410(3) 0.8902(2) 0.4019(3)
N2 N 0.2983(3) 1.0122(2) 0.3049(2)
C1 C 0.3010(4) 0.8802(2) 0.1478(3)
C2 C 0.2786(4) 0.9270(2) 0.2820(3)
C3 C 0.2346(3) 0.9541(2) 0.5065(3)
C4 C 0.2026(4) 0.9498(2) 0.6480(3)
C5 C 0.2083(4) 1.0268(3) 0.7224(4)
C6 C 0.2440(4) 1.1049(3) 0.6604(4)
C7 C 0.2770(4) 1.1107(2) 0.5194(4)
C8 C 0.2714(3) 1.0322(2) 0.4436(3)
O1 O 0.3931(4) 1.2313(2) 0.9879(3)
O2 O 0.3013(4) 1.2022(2) 1.1854(2)
O3 O 0.4097(3) 1.0996(1) 1.0721(2)
N3 N 0.3705(3) 1.1778(2) 1.0818(3)
loop_
_geom_bond_atom_site_label_1
_geom_bond_atom_site_label_2
_geom_bond_site_symmetry_1
_geom_bond_site_symmetry_2
Cl1 C1 1_555 1_555
O1 N3 1_555 1_555
O2 N3 1_555 1_555
O3 N3 1_555 1_555
N1 C2 1_555 1_555
N2 C2 1_555 1_555
C1 C2 1_555 1_555
C3 N1 1_555 1_555
C4 C3 1_555 1_555
C5 C4 1_555 1_555
C6 C5 1_555 1_555
C7 C6 1_555 1_555
C8 N2 1_555 1_555
C3 C8 1_555 1_555
C7 C8 1_555 1_555

#END
