
#######################################################################
#
#                 Cambridge Crystallographic Data Centre
#                                CCDC 
#
#######################################################################
#
# If this CIF has been generated from an entry in the Cambridge 
# Structural Database, then it will include bibliographic, chemical, 
# crystal, experimental, refinement or atomic coordinate data resulting 
# from the CCDC's data processing and validation procedures.
#
#######################################################################

data_BEJMOV
_chemical_formula_moiety         'C23 H18 N2 O3'
_chemical_name_systematic        
2,3,5-triphenyldihydro-2H-pyrrolo[3,4-d][1,2]oxazole-4,6(3H,5H)-dione
_symmetry_cell_setting           orthorhombic
_symmetry_space_group_name_H-M   'P 21 21 21'
_symmetry_Int_Tables_number      19
_space_group_name_Hall           'P 2ac 2ab'
loop_
_symmetry_equiv_pos_site_id
_symmetry_equiv_pos_as_xyz
1 x,y,z
2 1/2-x,-y,1/2+z
3 1/2+x,1/2-y,-z
4 -x,1/2+y,1/2-z
_cell_length_a                   6.857(5)
_cell_length_b                   11.112(5)
_cell_length_c                   24.656(5)
_cell_angle_alpha                90
_cell_angle_beta                 90
_cell_angle_gamma                90
_cell_volume                     1878.66
_exptl_crystal_colour            colorless
_exptl_crystal_description       Prism
_cell_formula_units_Z            4
loop_
_atom_site_label
_atom_site_type_symbol
_atom_site_fract_x
_atom_site_fract_y
_atom_site_fract_z
C1 C 0.4400(2) 0.85031(13) 0.41786(6)
C2 C 0.4907(2) 0.72254(13) 0.40009(6)
H1 H 0.6132 0.6956 0.4166
C3 C 0.3212(2) 0.64547(12) 0.41856(5)
H2 H 0.3624 0.5841 0.4447
C4 C 0.1765(3) 0.73314(12) 0.44327(6)
C5 C 0.2449(3) 0.58850(11) 0.36523(5)
H3 H 0.1020 0.5865 0.3659
C6 C 0.1589(2) 0.95165(11) 0.46218(5)
C7 C 0.2412(2) 1.01405(12) 0.50483(6)
H4 H 0.3593 0.9894 0.5197
C8 C 0.1455(3) 1.11371(13) 0.52508(7)
H5 H 0.1994 1.1567 0.5538
C9 C -0.0290(3) 1.14970(14) 0.50300(7)
H6 H -0.0925 1.2172 0.5167
C10 C -0.1098(3) 1.08634(15) 0.46084(8)
H7 H -0.2282 1.1110 0.4462
C11 C -0.0165(2) 0.98597(13) 0.43995(6)
H8 H -0.0713 0.9427 0.4115
C12 C 0.3224(3) 0.46204(13) 0.35644(6)
C13 C 0.2129(4) 0.36610(15) 0.37506(8)
H9 H 0.0916 0.3799 0.3907
C14 C 0.2831(5) 0.24905(16) 0.37050(9)
H10 H 0.2090 0.1852 0.3835
C15 C 0.4594(5) 0.22744(17) 0.34710(9)
H11 H 0.5059 0.1491 0.3444
C16 C 0.5677(4) 0.32082(18) 0.32769(8)
H12 H 0.6875 0.3060 0.3113
C17 C 0.4995(3) 0.43861(15) 0.33233(7)
H13 H 0.5743 0.5019 0.3190
C18 C 0.1840(2) 0.77164(12) 0.31028(5)
C19 C -0.0119(3) 0.75005(15) 0.29955(7)
H14 H -0.0624 0.6730 0.3038
C20 C -0.1316(3) 0.84209(19) 0.28263(8)
H15 H -0.2623 0.8265 0.2755
C21 C -0.0602(3) 0.95673(17) 0.27609(8)
H16 H -0.1420 1.0188 0.2650
C22 C 0.1340(3) 0.97846(16) 0.28612(7)
H17 H 0.1832 1.0559 0.2818
C23 C 0.2568(3) 0.88707(14) 0.30244(6)
H18 H 0.3885 0.9027 0.3082
N1 N 0.25615(17) 0.84731(9) 0.44148(4)
N2 N 0.3103(2) 0.67285(10) 0.32297(5)
O1 O 0.53604(17) 0.93904(11) 0.41125(6)
O2 O 0.0187(2) 0.70998(10) 0.46150(6)
O3 O 0.49819(16) 0.71322(9) 0.34169(4)
loop_
_geom_bond_atom_site_label_1
_geom_bond_atom_site_label_2
_geom_bond_site_symmetry_1
_geom_bond_site_symmetry_2
C1 C2 1_555 1_555
C2 H1 1_555 1_555
C3 C2 1_555 1_555
H2 C3 1_555 1_555
C4 C3 1_555 1_555
C5 C3 1_555 1_555
H3 C5 1_555 1_555
C6 C7 1_555 1_555
C7 H4 1_555 1_555
C8 C7 1_555 1_555
H5 C8 1_555 1_555
C9 C8 1_555 1_555
H6 C9 1_555 1_555
C10 C9 1_555 1_555
H7 C10 1_555 1_555
C11 C6 1_555 1_555
H8 C11 1_555 1_555
C12 C5 1_555 1_555
C13 C12 1_555 1_555
H9 C13 1_555 1_555
C14 C13 1_555 1_555
H10 C14 1_555 1_555
C15 C14 1_555 1_555
H11 C15 1_555 1_555
C16 C15 1_555 1_555
H12 C16 1_555 1_555
C17 C12 1_555 1_555
H13 C17 1_555 1_555
C18 C19 1_555 1_555
C19 H14 1_555 1_555
C20 C19 1_555 1_555
H15 C20 1_555 1_555
C21 C20 1_555 1_555
H16 C21 1_555 1_555
C22 C21 1_555 1_555
H17 C22 1_555 1_555
C23 C18 1_555 1_555
H18 C23 1_555 1_555
N1 C1 1_555 1_555
N2 C5 1_555 1_555
O1 C1 1_555 1_555
O2 C4 1_555 1_555
O3 C2 1_555 1_555
C4 N1 1_555 1_555
C6 N1 1_555 1_555
C10 C11 1_555 1_555
C16 C17 1_555 1_555
C18 N2 1_555 1_555
C22 C23 1_555 1_555
N2 O3 1_555 1_555

#END
