
#######################################################################
#
#                 Cambridge Crystallographic Data Centre
#                                CCDC 
#
#######################################################################
#
# If this CIF has been generated from an entry in the Cambridge 
# Structural Database, then it will include bibliographic, chemical, 
# crystal, experimental, refinement or atomic coordinate data resulting 
# from the CCDC's data processing and validation procedures.
#
#######################################################################

data_BEJMEJ
_chemical_formula_moiety         'C24 H32 N4 O1'
_chemical_name_systematic        4-Ethyl-4'-(4-hexanoylpiperazinyl)azobenzene
_symmetry_cell_setting           monoclinic
_symmetry_space_group_name_H-M   'P 21'
_symmetry_Int_Tables_number      4
_space_group_name_Hall           'P 2yb'
loop_
_symmetry_equiv_pos_site_id
_symmetry_equiv_pos_as_xyz
1 x,y,z
2 -x,1/2+y,-z
_cell_length_a                   7.60230(10)
_cell_length_b                   5.75590(10)
_cell_length_c                   49.91190(10)
_cell_angle_alpha                90
_cell_angle_beta                 90.19
_cell_angle_gamma                90
_cell_volume                     2184.04
_exptl_crystal_colour            yellow
_cell_formula_units_Z            4
loop_
_atom_site_label
_atom_site_type_symbol
_atom_site_fract_x
_atom_site_fract_y
_atom_site_fract_z
O1 O 0.7504(6) -0.1293(9) 0.14348(7)
N1 N 0.8439(5) 0.0180(7) 0.10368(7)
N2 N 0.7912(5) 0.0423(6) 0.04698(7)
N3 N 0.7299(5) 0.1020(7) -0.06478(6)
N4 N 0.6521(4) -0.0517(7) -0.07709(5)
C1 C 0.8333(6) 0.0235(10) 0.13078(8)
C2 C 0.7832(7) -0.1777(9) 0.08848(8)
H1 H 0.7084(7) -0.2723(9) 0.09979(8)
H2 H 0.8839(7) -0.2715(9) 0.08345(8)
C3 C 0.6845(7) -0.1149(9) 0.06401(9)
H3 H 0.5755(7) -0.0384(9) 0.06890(9)
H4 H 0.6553(7) -0.2545(9) 0.05406(9)
C4 C 0.8458(7) 0.2468(9) 0.06254(8)
H5 H 0.7428(7) 0.3357(9) 0.06767(8)
H6 H 0.9199(7) 0.3455(9) 0.05159(8)
C5 C 0.9475(8) 0.1719(9) 0.08782(8)
H7 H 1.0557(8) 0.0950(9) 0.08266(8)
H8 H 0.9780(8) 0.3081(9) 0.09830(8)
C6 C 0.7664(5) 0.0602(7) 0.02046(7)
C7 C 0.6730(5) -0.1130(8) 0.00560(7)
H9 H 0.6195(5) -0.2347(8) 0.01471(7)
C8 C 0.6604(5) -0.1033(8) -0.02233(7)
H10 H 0.6006(5) -0.2187(8) -0.03167(7)
C9 C 0.7373(5) 0.0791(8) -0.03594(6)
C10 C 0.8223(6) 0.2584(8) -0.02199(7)
H11 H 0.8687(6) 0.3851(8) -0.03112(7)
C11 C 0.8358(6) 0.2440(8) 0.00491(7)
H12 H 0.8946(6) 0.3628(8) 0.01383(7)
C12 C 0.6558(6) -0.0271(9) -0.10558(7)
C13 C 0.5801(6) -0.2086(10) -0.11979(8)
H13 H 0.5337(6) -0.3370(10) -0.11098(8)
C14 C 0.5755(7) -0.1934(13) -0.14752(10)
H14 H 0.5299(7) -0.3170(13) -0.15734(10)
C15 C 0.6362(7) -0.0011(13) -0.16090(8)
C16 C 0.7139(8) 0.1803(11) -0.14626(9)
H15 H 0.7605(8) 0.3090(11) -0.15498(9)
C17 C 0.7198(7) 0.1643(10) -0.11886(8)
H16 H 0.7683(7) 0.2858(10) -0.10902(8)
C18 C 0.6361(9) 0.0306(15) -0.19104(10)
H17 H 0.7523(9) 0.0793(15) -0.19672(10)
H18 H 0.6106(9) -0.1172(15) -0.19954(10)
C19 C 0.5045(10) 0.2056(15) -0.20007(11)
H19 H 0.5092(10) 0.2201(15) -0.21922(11)
H20 H 0.5306(10) 0.3531(15) -0.19199(11)
H21 H 0.3889(10) 0.1566(15) -0.19484(11)
C20 C 0.9082(8) 0.2359(13) 0.14572(9)
H22 H 1.0338(8) 0.2440(13) 0.14251(9)
H23 H 0.8555(8) 0.3753(13) 0.13827(9)
C21 C 0.8779(9) 0.2336(16) 0.17494(10)
H24 H 0.7541(9) 0.2024(16) 0.17798(10)
H25 H 0.9021(9) 0.3879(16) 0.18182(10)
C22 C 0.9855(10) 0.0587(13) 0.19144(10)
H26 H 1.1101(10) 0.0832(13) 0.18840(10)
H27 H 0.9564(10) -0.0984(13) 0.18597(10)
C23 C 0.9428(13) 0.0919(24) 0.22188(12)
H28 H 0.9945(13) 0.2354(24) 0.22840(12)
H29 H 0.8166(13) 0.0995(24) 0.22449(12)
C24 C 1.0200(15) -0.1165(24) 0.23717(13)
H30 H 0.9956(15) -0.1002(24) 0.25594(13)
H31 H 1.1450(15) -0.1221(24) 0.23450(13)
H32 H 0.9677(15) -0.2574(24) 0.23063(13)
O2 O 1.2560(7) -0.2338(10) 0.64307(7)
N5 N 1.3478(6) -0.3717(8) 0.60467(8)
N6 N 1.2944(5) -0.3925(8) 0.54810(7)
N7 N 1.2351(7) -0.4566(11) 0.43622(10)
N8 N 1.1498(7) -0.3013(12) 0.42459(11)
C25 C 1.3311(8) -0.3847(11) 0.63184(10)
C26 C 1.4516(6) -0.5307(11) 0.58784(10)
H33 H 1.4801(6) -0.6697(11) 0.59795(10)
H34 H 1.5610(6) -0.4561(11) 0.58280(10)
C27 C 1.3523(8) -0.5949(11) 0.56350(10)
H35 H 1.4257(8) -0.6919(11) 0.55225(10)
H36 H 1.2501(8) -0.6855(11) 0.56861(10)
C28 C 1.1878(7) -0.2433(10) 0.56430(8)
H37 H 1.0812(7) -0.3252(10) 0.56927(8)
H38 H 1.1540(7) -0.1081(10) 0.55389(8)
C29 C 1.2854(8) -0.1618(11) 0.59031(10)
H39 H 1.3843(8) -0.0633(11) 0.58570(10)
H40 H 1.2060(8) -0.0737(11) 0.60160(10)
C30 C 1.2644(7) -0.4062(11) 0.51981(10)
C31 C 1.3364(7) -0.5890(11) 0.50568(10)
H41 H 1.3934(7) -0.7103(11) 0.51443(10)
C32 C 1.3206(9) -0.5855(11) 0.47770(11)
H42 H 1.3765(9) -0.7029(11) 0.46817(11)
C33 C 1.2290(8) -0.4224(12) 0.46329(11)
C34 C 1.1597(8) -0.2453(13) 0.47965(12)
H43 H 1.0979(8) -0.1260(13) 0.47130(12)
C35 C 1.1764(9) -0.2364(13) 0.50612(11)
H44 H 1.1275(9) -0.1127(13) 0.51548(11)
C36 C 1.1472(7) -0.3434(13) 0.39544(10)
C37 C 1.2208(8) -0.5320(13) 0.38239(12)
H45 H 1.2762(8) -0.6512(13) 0.39175(12)
C38 C 1.2077(9) -0.5342(14) 0.35443(11)
H46 H 1.2503(9) -0.6649(14) 0.34563(11)
C39 C 1.1374(7) -0.3605(10) 0.33872(10)
C40 C 1.0696(8) -0.1735(11) 0.35262(10)
H47 H 1.0193(8) -0.0504(11) 0.34326(10)
C41 C 1.0755(8) -0.1672(13) 0.37994(11)
H48 H 1.0290(8) -0.0381(13) 0.38860(11)
C42 C 1.1153(9) -0.3651(13) 0.30881(9)
H49 H 1.2295(9) -0.3884(13) 0.30062(9)
H50 H 1.0711(9) -0.2154(13) 0.30290(9)
C43 C 0.9901(11) -0.5551(18) 0.29903(13)
H51 H 0.9814(11) -0.5491(18) 0.27985(13)
H52 H 0.8759(11) -0.5312(18) 0.30671(13)
H53 H 1.0343(11) -0.7042(18) 0.30441(13)
C44 C 1.4158(8) -0.5873(11) 0.64512(9)
H54 H 1.5414(8) -0.5809(11) 0.64191(9)
H55 H 1.3715(8) -0.7287(11) 0.63694(9)
C45 C 1.3838(8) -0.5996(12) 0.67584(10)
H56 H 1.2593(8) -0.5777(12) 0.67915(10)
H57 H 1.4148(8) -0.7540(12) 0.68204(10)
C46 C 1.4816(7) -0.4301(14) 0.69161(9)
H58 H 1.4551(7) -0.2765(14) 0.68472(9)
H59 H 1.6062(7) -0.4573(14) 0.68891(9)
C47 C 1.4459(10) -0.4310(16) 0.72150(11)
H60 H 1.3202(10) -0.4131(16) 0.72405(11)
H61 H 1.4780(10) -0.5828(16) 0.72843(11)
C48 C 1.5319(12) -0.2617(22) 0.73725(14)
H62 H 1.4987(12) -0.2803(22) 0.75566(14)
H63 H 1.4985(12) -0.1096(22) 0.73119(14)
H64 H 1.6569(12) -0.2799(22) 0.73560(14)
loop_
_geom_bond_atom_site_label_1
_geom_bond_atom_site_label_2
_geom_bond_site_symmetry_1
_geom_bond_site_symmetry_2
O1 C1 1_555 1_555
N1 C1 1_555 1_555
N2 C3 1_555 1_555
N3 N4 1_555 1_555
N4 C12 1_555 1_555
C1 C20 1_555 1_555
C2 N1 1_555 1_555
H1 C2 1_555 1_555
H2 C2 1_555 1_555
C3 C2 1_555 1_555
H3 C3 1_555 1_555
H4 C3 1_555 1_555
C4 N2 1_555 1_555
H5 C4 1_555 1_555
H6 C4 1_555 1_555
C5 N1 1_555 1_555
H7 C5 1_555 1_555
H8 C5 1_555 1_555
C6 N2 1_555 1_555
C7 C6 1_555 1_555
H9 C7 1_555 1_555
C8 C7 1_555 1_555
H10 C8 1_555 1_555
C9 N3 1_555 1_555
C10 C9 1_555 1_555
H11 C10 1_555 1_555
C11 C6 1_555 1_555
H12 C11 1_555 1_555
C12 C13 1_555 1_555
C13 H13 1_555 1_555
C14 C13 1_555 1_555
H14 C14 1_555 1_555
C15 C14 1_555 1_555
C16 C15 1_555 1_555
H15 C16 1_555 1_555
C17 C12 1_555 1_555
H16 C17 1_555 1_555
C18 C15 1_555 1_555
H17 C18 1_555 1_555
H18 C18 1_555 1_555
C19 C18 1_555 1_555
H19 C19 1_555 1_555
H20 C19 1_555 1_555
H21 C19 1_555 1_555
C20 H22 1_555 1_555
H23 C20 1_555 1_555
C21 C20 1_555 1_555
H24 C21 1_555 1_555
H25 C21 1_555 1_555
C22 C21 1_555 1_555
H26 C22 1_555 1_555
H27 C22 1_555 1_555
C23 C22 1_555 1_555
H28 C23 1_555 1_555
H29 C23 1_555 1_555
C24 C23 1_555 1_555
H30 C24 1_555 1_555
H31 C24 1_555 1_555
H32 C24 1_555 1_555
O2 C25 1_555 1_555
N5 C25 1_555 1_555
N6 C27 1_555 1_555
N7 N8 1_555 1_555
N8 C36 1_555 1_555
C25 C44 1_555 1_555
C26 N5 1_555 1_555
H33 C26 1_555 1_555
H34 C26 1_555 1_555
C27 C26 1_555 1_555
H35 C27 1_555 1_555
H36 C27 1_555 1_555
C28 N6 1_555 1_555
H37 C28 1_555 1_555
H38 C28 1_555 1_555
C29 N5 1_555 1_555
H39 C29 1_555 1_555
H40 C29 1_555 1_555
C30 N6 1_555 1_555
C31 C30 1_555 1_555
H41 C31 1_555 1_555
C32 C31 1_555 1_555
H42 C32 1_555 1_555
C33 N7 1_555 1_555
C34 C33 1_555 1_555
H43 C34 1_555 1_555
C35 C30 1_555 1_555
H44 C35 1_555 1_555
C36 C37 1_555 1_555
C37 H45 1_555 1_555
C38 C37 1_555 1_555
H46 C38 1_555 1_555
C39 C38 1_555 1_555
C40 C39 1_555 1_555
H47 C40 1_555 1_555
C41 C36 1_555 1_555
H48 C41 1_555 1_555
C42 C39 1_555 1_555
H49 C42 1_555 1_555
H50 C42 1_555 1_555
C43 C42 1_555 1_555
H51 C43 1_555 1_555
H52 C43 1_555 1_555
H53 C43 1_555 1_555
C44 H54 1_555 1_555
H55 C44 1_555 1_555
C45 C44 1_555 1_555
H56 C45 1_555 1_555
H57 C45 1_555 1_555
C46 C45 1_555 1_555
H58 C46 1_555 1_555
H59 C46 1_555 1_555
C47 C46 1_555 1_555
H60 C47 1_555 1_555
H61 C47 1_555 1_555
C48 C47 1_555 1_555
H62 C48 1_555 1_555
H63 C48 1_555 1_555
H64 C48 1_555 1_555
C4 C5 1_555 1_555
C8 C9 1_555 1_555
C10 C11 1_555 1_555
C16 C17 1_555 1_555
C28 C29 1_555 1_555
C32 C33 1_555 1_555
C34 C35 1_555 1_555
C40 C41 1_555 1_555

#END
