
#######################################################################
#
#                 Cambridge Crystallographic Data Centre
#                                CCDC 
#
#######################################################################
#
# If this CIF has been generated from an entry in the Cambridge 
# Structural Database, then it will include bibliographic, chemical, 
# crystal, experimental, refinement or atomic coordinate data resulting 
# from the CCDC's data processing and validation procedures.
#
#######################################################################

data_BEJMIN
_chemical_formula_moiety         'C32 H48 N4 O1'
_chemical_name_systematic        
4-n-Hexyl-4'-(4-decanoylpiperazinyl)azobenzene
_symmetry_cell_setting           orthorhombic
_symmetry_space_group_name_H-M   'P 21 21 21'
_symmetry_Int_Tables_number      19
_space_group_name_Hall           'P 2ac 2ab'
loop_
_symmetry_equiv_pos_site_id
_symmetry_equiv_pos_as_xyz
1 x,y,z
2 1/2-x,-y,1/2+z
3 -x,1/2+y,1/2-z
4 1/2+x,1/2-y,-z
_cell_length_a                   5.724(2)
_cell_length_b                   7.364(2)
_cell_length_c                   67.758(21)
_cell_angle_alpha                90
_cell_angle_beta                 90
_cell_angle_gamma                90
_cell_volume                     2856.1
_cell_formula_units_Z            4
loop_
_atom_site_label
_atom_site_type_symbol
_atom_site_fract_x
_atom_site_fract_y
_atom_site_fract_z
O1 O 0.5405(9) 0.5910(7) 0.10475(7)
N1 N 0.3379(9) 0.6225(7) 0.07640(9)
N2 N 0.2953(8) 0.5542(7) 0.03531(8)
N3 N 0.2110(10) 0.4690(6) -0.04711(9)
N4 N 0.3750(9) 0.3892(7) -0.05637(9)
C1 C 0.3612(11) 0.6422(8) 0.09608(12)
C2 C 0.5407(11) 0.5683(9) 0.06492(10)
H1 H 0.6472(11) 0.4960(9) 0.07332(10)
H2 H 0.6259(11) 0.6779(9) 0.06049(10)
C3 C 0.4701(11) 0.4579(8) 0.04727(10)
H3 H 0.6095(11) 0.4323(8) 0.03909(10)
H4 H 0.4046(11) 0.3404(8) 0.05172(10)
C4 C 0.0916(11) 0.6043(9) 0.04713(10)
H5 H 0.0102(11) 0.4927(9) 0.05147(10)
H6 H -0.0181(11) 0.6750(9) 0.03884(10)
C5 C 0.1575(10) 0.7160(9) 0.06512(11)
H7 H 0.2157(10) 0.8364(9) 0.06089(11)
H8 H 0.0180(10) 0.7348(9) 0.07351(11)
C6 C 0.2735(10) 0.5235(8) 0.01535(12)
C7 C 0.4503(11) 0.4315(8) 0.00449(11)
H9 H 0.5800(11) 0.3804(8) 0.01126(11)
C8 C 0.4356(11) 0.4156(8) -0.01567(12)
H10 H 0.5596(11) 0.3572(8) -0.02249(12)
C9 C 0.2492(11) 0.4804(8) -0.02650(12)
C10 C 0.0720(10) 0.5653(8) -0.01559(12)
H11 H -0.0599(10) 0.6119(8) -0.02241(12)
C11 C 0.0815(10) 0.5838(8) 0.00460(11)
H12 H -0.0457(10) 0.6389(8) 0.01134(11)
C12 C 0.3333(11) 0.3711(8) -0.07691(10)
C13 C 0.5042(12) 0.2817(8) -0.08796(10)
H13 H 0.6446(12) 0.2447(8) -0.08165(10)
C14 C 0.4752(11) 0.2460(8) -0.10751(11)
H14 H 0.5972(11) 0.1894(8) -0.11476(11)
C15 C 0.2606(11) 0.2938(9) -0.11722(10)
C16 C 0.0955(12) 0.3908(9) -0.10635(12)
H15 H -0.0423(12) 0.4328(9) -0.11270(12)
C17 C 0.1280(11) 0.4267(8) -0.08665(12)
H16 H 0.0105(11) 0.4898(8) -0.07951(12)
C18 C 0.1616(11) 0.7192(8) 0.10796(10)
H17 H 0.0156(11) 0.6565(8) 0.10411(10)
H18 H 0.1434(11) 0.8494(8) 0.10465(10)
C19 C 0.1944(11) 0.7009(9) 0.13010(10)
H19 H 0.3366(11) 0.7685(9) 0.13397(10)
H20 H 0.2209(11) 0.5712(9) 0.13326(10)
C20 C -0.0113(12) 0.7700(9) 0.14251(10)
H21 H -0.0160(12) 0.9042(9) 0.14181(10)
H22 H -0.1588(12) 0.7232(9) 0.13682(10)
C21 C 0.0041(12) 0.7135(10) 0.16361(9)
H23 H 0.1513(12) 0.7615(10) 0.16923(9)
H24 H 0.0121(12) 0.5793(10) 0.16420(9)
C22 C -0.1992(12) 0.7773(10) 0.17644(11)
H25 H -0.1975(12) 0.9116(10) 0.17701(11)
H26 H -0.3476(12) 0.7397(10) 0.17014(11)
C23 C -0.1928(12) 0.7039(10) 0.19710(10)
H27 H -0.0497(12) 0.7491(10) 0.20369(10)
H28 H -0.1817(12) 0.5699(10) 0.19646(10)
C24 C -0.4056(12) 0.7552(10) 0.20984(11)
H29 H -0.4137(12) 0.8891(10) 0.21083(11)
H30 H -0.5490(12) 0.7135(10) 0.20304(11)
C25 C -0.4032(14) 0.6788(13) 0.22989(12)
H31 H -0.2735(14) 0.7357(13) 0.23732(12)
H32 H -0.3691(14) 0.5473(13) 0.22892(12)
C26 C -0.6307(15) 0.7033(12) 0.24186(13)
H33 H -0.6119(15) 0.6482(12) 0.25493(13)
H34 H -0.7602(15) 0.6442(12) 0.23491(13)
H35 H -0.6644(15) 0.8331(12) 0.24333(13)
C27 C 0.2254(11) 0.2335(9) -0.13781(10)
H36 H 0.2146(11) 0.0994(9) -0.13776(10)
H37 H 0.3672(11) 0.2661(9) -0.14540(10)
C28 C 0.0133(12) 0.3073(9) -0.14905(10)
H38 H -0.1304(12) 0.2775(9) -0.14159(10)
H39 H 0.0252(12) 0.4412(9) -0.14984(10)
C29 C -0.0073(12) 0.2311(9) -0.16966(10)
H40 H -0.0258(12) 0.0977(9) -0.16873(10)
H41 H 0.1404(12) 0.2553(9) -0.17679(10)
C30 C -0.2082(12) 0.3068(10) -0.18175(10)
H42 H -0.3561(12) 0.2845(10) -0.17457(10)
H43 H -0.1884(12) 0.4398(10) -0.18299(10)
C31 C -0.2276(12) 0.2258(11) -0.20215(11)
H44 H -0.2535(12) 0.0934(11) -0.20096(11)
H45 H -0.0782(12) 0.2445(11) -0.20923(11)
C32 C -0.4280(13) 0.3094(11) -0.21443(11)
H46 H -0.4325(13) 0.2521(11) -0.22748(11)
H47 H -0.4017(13) 0.4402(11) -0.21593(11)
H48 H -0.5771(13) 0.2890(11) -0.20766(11)
loop_
_geom_bond_atom_site_label_1
_geom_bond_atom_site_label_2
_geom_bond_site_symmetry_1
_geom_bond_site_symmetry_2
O1 C1 1_555 1_555
N1 C1 1_555 1_555
N2 C3 1_555 1_555
N3 N4 1_555 1_555
N4 C12 1_555 1_555
C1 C18 1_555 1_555
C2 N1 1_555 1_555
H1 C2 1_555 1_555
H2 C2 1_555 1_555
C3 C2 1_555 1_555
H3 C3 1_555 1_555
H4 C3 1_555 1_555
C4 N2 1_555 1_555
H5 C4 1_555 1_555
H6 C4 1_555 1_555
C5 N1 1_555 1_555
H7 C5 1_555 1_555
H8 C5 1_555 1_555
C6 N2 1_555 1_555
C7 C6 1_555 1_555
H9 C7 1_555 1_555
C8 C7 1_555 1_555
H10 C8 1_555 1_555
C9 N3 1_555 1_555
C10 C9 1_555 1_555
H11 C10 1_555 1_555
C11 C6 1_555 1_555
H12 C11 1_555 1_555
C12 C13 1_555 1_555
C13 H13 1_555 1_555
C14 C13 1_555 1_555
H14 C14 1_555 1_555
C15 C14 1_555 1_555
C16 C15 1_555 1_555
H15 C16 1_555 1_555
C17 C12 1_555 1_555
H16 C17 1_555 1_555
C18 H17 1_555 1_555
H18 C18 1_555 1_555
C19 C18 1_555 1_555
H19 C19 1_555 1_555
H20 C19 1_555 1_555
C20 C19 1_555 1_555
H21 C20 1_555 1_555
H22 C20 1_555 1_555
C21 C20 1_555 1_555
H23 C21 1_555 1_555
H24 C21 1_555 1_555
C22 C21 1_555 1_555
H25 C22 1_555 1_555
H26 C22 1_555 1_555
C23 C22 1_555 1_555
H27 C23 1_555 1_555
H28 C23 1_555 1_555
C24 C23 1_555 1_555
H29 C24 1_555 1_555
H30 C24 1_555 1_555
C25 C24 1_555 1_555
H31 C25 1_555 1_555
H32 C25 1_555 1_555
C26 C25 1_555 1_555
H33 C26 1_555 1_555
H34 C26 1_555 1_555
H35 C26 1_555 1_555
C27 C15 1_555 1_555
H36 C27 1_555 1_555
H37 C27 1_555 1_555
C28 C27 1_555 1_555
H38 C28 1_555 1_555
H39 C28 1_555 1_555
C29 C28 1_555 1_555
H40 C29 1_555 1_555
H41 C29 1_555 1_555
C30 C29 1_555 1_555
H42 C30 1_555 1_555
H43 C30 1_555 1_555
C31 C30 1_555 1_555
H44 C31 1_555 1_555
H45 C31 1_555 1_555
C32 C31 1_555 1_555
H46 C32 1_555 1_555
H47 C32 1_555 1_555
H48 C32 1_555 1_555
C4 C5 1_555 1_555
C8 C9 1_555 1_555
C10 C11 1_555 1_555
C16 C17 1_555 1_555

#END
