
#######################################################################
#
#                 Cambridge Crystallographic Data Centre
#                                CCDC 
#
#######################################################################
#
# If this CIF has been generated from an entry in the Cambridge 
# Structural Database, then it will include bibliographic, chemical, 
# crystal, experimental, refinement or atomic coordinate data resulting 
# from the CCDC's data processing and validation procedures.
#
#######################################################################

data_BEJPEO
_chemical_formula_moiety         'C18 H13 Cl1 F3 N1 O2'
_chemical_name_systematic        
1-benzyl-4-chloro-5-hydroxy-5-phenyl-3-(trifluoromethyl)-1,5-dihydro-2H-pyrrol-2-one
_symmetry_cell_setting           monoclinic
_symmetry_space_group_name_H-M   'P 21/n'
_symmetry_Int_Tables_number      14
_space_group_name_Hall           '-P 2yn'
loop_
_symmetry_equiv_pos_site_id
_symmetry_equiv_pos_as_xyz
1 x,y,z
2 1/2-x,1/2+y,1/2-z
3 -x,-y,-z
4 1/2+x,1/2-y,1/2+z
_cell_length_a                   10.8503(6)
_cell_length_b                   9.1606(5)
_cell_length_c                   17.2587(9)
_cell_angle_alpha                90
_cell_angle_beta                 95.000(2)
_cell_angle_gamma                90
_cell_volume                     1708.91
_exptl_crystal_colour            colorless
_exptl_crystal_description       block
_chemical_melting_point          '400.5-402.7 K'
_cell_formula_units_Z            4
_exptl_crystal_recrystallization_method dichloromethane/hexane
loop_
_atom_site_label
_atom_site_type_symbol
_atom_site_fract_x
_atom_site_fract_y
_atom_site_fract_z
F1 F 0.88301(14) 0.5796(2) 0.06516(11)
F2 F 0.90940(13) 0.80605(19) 0.07268(11)
F3 F 0.96018(12) 0.6744(2) 0.16962(9)
Cl1 Cl 0.67595(5) 0.97174(6) 0.07754(4)
O1 O 0.74493(14) 0.47905(17) 0.21081(10)
O2 O 0.53030(12) 0.88737(16) 0.22303(8)
H1 H 0.5968 0.9162 0.2437
N1 N 0.58357(14) 0.64062(18) 0.20290(9)
C1 C 0.41420(19) 0.4574(2) 0.20367(11)
C2 C 0.2885(2) 0.4839(2) 0.19301(13)
H2 H 0.2556 0.5661 0.2151
C3 C 0.2114(2) 0.3890(3) 0.14972(15)
H3 H 0.1269 0.4076 0.1427
C4 C 0.2590(3) 0.2673(3) 0.11701(15)
H4 H 0.2068 0.2035 0.0879
C5 C 0.3825(3) 0.2397(3) 0.12715(16)
H5 H 0.4147 0.1573 0.1047
C6 C 0.4599(2) 0.3334(2) 0.17053(14)
H6 H 0.5441 0.3131 0.1777
C7 C 0.43598(16) 0.77098(19) 0.11096(11)
C8 C 0.32854(17) 0.8421(2) 0.12550(12)
H7 H 0.3276 0.9028 0.1686
C9 C 0.2225(2) 0.8238(3) 0.07650(15)
H8 H 0.1502 0.8716 0.0870
C10 C 0.2227(2) 0.7362(3) 0.01289(15)
H9 H 0.1505 0.7230 -0.0195
C11 C 0.3298(2) 0.6674(3) -0.00331(13)
H10 H 0.3306 0.6093 -0.0474
C12 C 0.43608(19) 0.6842(2) 0.04557(12)
H11 H 0.5083 0.6369 0.0345
C13 C 0.4996(2) 0.5609(3) 0.24994(12)
H12 H 0.4503 0.6308 0.2760
H13 H 0.5485 0.5060 0.2897
C14 C 0.69645(17) 0.5939(2) 0.18835(11)
C15 C 0.74955(17) 0.7070(2) 0.13867(11)
C16 C 0.66772(17) 0.8129(2) 0.12715(11)
C17 C 0.55102(17) 0.7826(2) 0.16734(11)
C18 C 0.87506(19) 0.6906(2) 0.11180(13)
loop_
_geom_bond_atom_site_label_1
_geom_bond_atom_site_label_2
_geom_bond_site_symmetry_1
_geom_bond_site_symmetry_2
F1 C18 1_555 1_555
F2 C18 1_555 1_555
F3 C18 1_555 1_555
Cl1 C16 1_555 1_555
O1 C14 1_555 1_555
O2 H1 1_555 1_555
N1 C13 1_555 1_555
C1 C2 1_555 1_555
C2 H2 1_555 1_555
C3 C2 1_555 1_555
H3 C3 1_555 1_555
C4 C3 1_555 1_555
H4 C4 1_555 1_555
C5 C4 1_555 1_555
H5 C5 1_555 1_555
C6 C1 1_555 1_555
H6 C6 1_555 1_555
C7 C8 1_555 1_555
C8 H7 1_555 1_555
C9 C8 1_555 1_555
H8 C9 1_555 1_555
C10 C9 1_555 1_555
H9 C10 1_555 1_555
C11 C10 1_555 1_555
H10 C11 1_555 1_555
C12 C7 1_555 1_555
H11 C12 1_555 1_555
C13 C1 1_555 1_555
H12 C13 1_555 1_555
H13 C13 1_555 1_555
C14 N1 1_555 1_555
C15 C14 1_555 1_555
C16 C15 1_555 1_555
C17 O2 1_555 1_555
C18 C15 1_555 1_555
N1 C17 1_555 1_555
C5 C6 1_555 1_555
C7 C17 1_555 1_555
C11 C12 1_555 1_555
C16 C17 1_555 1_555

#END
