
#######################################################################
#
#                 Cambridge Crystallographic Data Centre
#                                CCDC 
#
#######################################################################
#
# If this CIF has been generated from an entry in the Cambridge 
# Structural Database, then it will include bibliographic, chemical, 
# crystal, experimental, refinement or atomic coordinate data resulting 
# from the CCDC's data processing and validation procedures.
#
#######################################################################

data_BEJXEU01
_chemical_formula_moiety         'C32 H30 N4'
_chemical_name_systematic        
1,3-bis(1,3-dimethyl-2,3-dihydro-1H-perimidin-2-yl)benzene
_symmetry_cell_setting           monoclinic
_symmetry_space_group_name_H-M   'P 21/c'
_symmetry_Int_Tables_number      14
_space_group_name_Hall           '-P 2ybc'
loop_
_symmetry_equiv_pos_site_id
_symmetry_equiv_pos_as_xyz
1 x,y,z
2 -x,1/2+y,1/2-z
3 -x,-y,-z
4 x,1/2-y,1/2+z
_cell_length_a                   13.170(3)
_cell_length_b                   14.344(3)
_cell_length_c                   17.354(3)
_cell_angle_alpha                90
_cell_angle_beta                 130.005(11)
_cell_angle_gamma                90
_cell_volume                     2511.18
_exptl_crystal_description       block
_cell_formula_units_Z            4
loop_
_atom_site_label
_atom_site_type_symbol
_atom_site_fract_x
_atom_site_fract_y
_atom_site_fract_z
N1 N 0.23586(11) -0.10346(7) -0.28386(8)
N2 N 0.43646(11) -0.58001(8) -0.24043(8)
N3 N 0.33322(11) -0.19030(8) -0.13409(8)
N4 N 0.42778(11) -0.51437(7) -0.36994(9)
C1 C 0.31658(12) -0.18423(8) -0.22544(9)
H1 H 0.4047 -0.1729 -0.2042
C2 C 0.34245(12) -0.58288(9) -0.43760(10)
C3 C 0.35573(13) -0.65359(9) -0.30171(10)
C4 C 0.12059(13) -0.11837(9) -0.21883(10)
C5 C 0.13599(12) -0.30376(9) -0.34349(10)
H2 H 0.0727 -0.2633 -0.3544
C6 C 0.31101(12) -0.65660(9) -0.40110(10)
C7 C 0.19096(13) -0.45232(9) -0.37172(10)
H3 H 0.1644 -0.5109 -0.4016
C8 C 0.35973(12) -0.33825(9) -0.26889(9)
H4 H 0.4479 -0.3199 -0.2296
C9 C 0.32380(12) -0.42671(8) -0.31140(9)
C10 C 0.43176(12) -0.49327(9) -0.28649(10)
H5 H 0.5164 -0.4617 -0.2359
C11 C 0.13081(12) -0.07774(8) -0.28844(10)
C12 C 0.21939(14) -0.18179(9) -0.14443(10)
C13 C 0.26763(12) -0.27624(8) -0.28333(9)
C14 C 0.01278(15) -0.09499(11) -0.22301(12)
C15 C 0.09848(12) -0.39111(10) -0.38735(10)
H6 H 0.0099 -0.4088 -0.4278
C16 C 0.23468(13) -0.73378(10) -0.46435(12)
C17 C 0.23021(16) -0.08252(11) -0.36806(12)
H7 H 0.3063 -0.1087 -0.3562
H8 H 0.2296 -0.0162 -0.3756
H9 H 0.1510 -0.1088 -0.4283
C18 C 0.03684(15) -0.01338(10) -0.35727(12)
H10 H 0.0420 0.0132 -0.4035
C19 C 0.21685(17) -0.66276(16) -0.59736(13)
H11 H 0.1840 -0.6640 -0.6635
C20 C 0.29235(16) -0.58525(13) -0.53617(12)
H12 H 0.3083 -0.5360 -0.5620
C21 C -0.07943(17) -0.02766(13) -0.29373(15)
H13 H -0.1497 -0.0105 -0.2964
C22 C 0.43500(15) -0.25574(11) -0.06079(11)
H14 H 0.3995 -0.3178 -0.0787
H15 H 0.4643 -0.2406 0.0046
H16 H 0.5086 -0.2521 -0.0599
C23 C 0.32129(16) -0.72505(11) -0.26894(14)
H17 H 0.3486 -0.7231 -0.2045
C24 C 0.0030(2) -0.13997(14) -0.15523(16)
H18 H -0.0671 -0.1257 -0.1566
C25 C 0.20380(18) -0.22504(12) -0.08175(12)
H19 H 0.2658 -0.2686 -0.0349
C26 C 0.19103(16) -0.73560(14) -0.56201(14)
H20 H 0.1441 -0.7869 -0.6031
C27 C 0.24598(18) -0.79985(12) -0.33194(18)
H21 H 0.2239 -0.8473 -0.3085
C28 C 0.47026(19) -0.56768(13) -0.14344(12)
H22 H 0.3908 -0.5582 -0.1528
H23 H 0.5271 -0.5144 -0.1102
H24 H 0.5153 -0.6222 -0.1030
C29 C 0.20436(17) -0.80551(11) -0.42553(17)
H25 H 0.1552 -0.8569 -0.4654
C30 C -0.06621(17) 0.01194(12) -0.35764(14)
H26 H -0.1269 0.0570 -0.4028
C31 C 0.0946(2) -0.20339(14) -0.08864(16)
H27 H 0.0848 -0.2334 -0.0463
C32 C 0.4655(2) -0.43834(12) -0.40115(15)
H28 H 0.4987 -0.4627 -0.4328
H29 H 0.5333 -0.4020 -0.3435
H30 H 0.3898 -0.3997 -0.4480
loop_
_geom_bond_atom_site_label_1
_geom_bond_atom_site_label_2
_geom_bond_site_symmetry_1
_geom_bond_site_symmetry_2
N1 C1 1_555 1_555
N2 C3 1_555 1_555
N3 C1 1_555 1_555
N4 C2 1_555 1_555
C1 H1 1_555 1_555
C2 C6 1_555 1_555
C3 C6 1_555 1_555
C4 C11 1_555 1_555
C5 H2 1_555 1_555
C6 C16 1_555 1_555
C7 H3 1_555 1_555
C8 H4 1_555 1_555
C9 C7 1_555 1_555
C10 N2 1_555 1_555
H5 C10 1_555 1_555
C11 N1 1_555 1_555
C12 N3 1_555 1_555
C13 C1 1_555 1_555
C14 C4 1_555 1_555
C15 C5 1_555 1_555
H6 C15 1_555 1_555
C16 C26 1_555 1_555
C17 N1 1_555 1_555
H7 C17 1_555 1_555
H8 C17 1_555 1_555
H9 C17 1_555 1_555
C18 C11 1_555 1_555
H10 C18 1_555 1_555
C19 H11 1_555 1_555
C20 C2 1_555 1_555
H12 C20 1_555 1_555
C21 C14 1_555 1_555
H13 C21 1_555 1_555
C22 N3 1_555 1_555
H14 C22 1_555 1_555
H15 C22 1_555 1_555
H16 C22 1_555 1_555
C23 C3 1_555 1_555
H17 C23 1_555 1_555
C24 C14 1_555 1_555
H18 C24 1_555 1_555
C25 C12 1_555 1_555
H19 C25 1_555 1_555
C26 C19 1_555 1_555
H20 C26 1_555 1_555
C27 C23 1_555 1_555
H21 C27 1_555 1_555
C28 N2 1_555 1_555
H22 C28 1_555 1_555
H23 C28 1_555 1_555
H24 C28 1_555 1_555
C29 C16 1_555 1_555
H25 C29 1_555 1_555
C30 C18 1_555 1_555
H26 C30 1_555 1_555
C31 C24 1_555 1_555
H27 C31 1_555 1_555
C32 N4 1_555 1_555
H28 C32 1_555 1_555
H29 C32 1_555 1_555
H30 C32 1_555 1_555
N4 C10 1_555 1_555
C4 C12 1_555 1_555
C5 C13 1_555 1_555
C7 C15 1_555 1_555
C8 C9 1_555 1_555
C8 C13 1_555 1_555
C9 C10 1_555 1_555
C19 C20 1_555 1_555
C21 C30 1_555 1_555
C25 C31 1_555 1_555
C27 C29 1_555 1_555

#END
