
#######################################################################
#
#                 Cambridge Crystallographic Data Centre
#                                CCDC 
#
#######################################################################
#
# If this CIF has been generated from an entry in the Cambridge 
# Structural Database, then it will include bibliographic, chemical, 
# crystal, experimental, refinement or atomic coordinate data resulting 
# from the CCDC's data processing and validation procedures.
#
#######################################################################

data_BEJYOF
_chemical_formula_moiety         'C25 H27 N1 O5'
_chemical_name_systematic        
19-Phenethyl-3,6,13,16-tetraoxa-19-azatricyclo(16.2.2.0^7,12^)docosa-1(21),7(12),8,10,18(22)-pentaen-20-one
_symmetry_cell_setting           orthorhombic
_symmetry_space_group_name_H-M   'P 21 21 21'
_symmetry_Int_Tables_number      19
_space_group_name_Hall           'P 2ac 2ab'
loop_
_symmetry_equiv_pos_site_id
_symmetry_equiv_pos_as_xyz
1 x,y,z
2 1/2-x,-y,1/2+z
3 1/2+x,1/2-y,-z
4 -x,1/2+y,1/2-z
_cell_length_a                   10.325(1)
_cell_length_b                   11.651(1)
_cell_length_c                   17.868(2)
_cell_angle_alpha                90
_cell_angle_beta                 90
_cell_angle_gamma                90
_cell_volume                     2149.46
_exptl_crystal_colour            colorless
_exptl_crystal_description       'square plate'
_cell_formula_units_Z            4
_exptl_crystal_recrystallization_method 'ethyl acetate'
loop_
_atom_site_label
_atom_site_type_symbol
_atom_site_fract_x
_atom_site_fract_y
_atom_site_fract_z
C1 C 0.5930(2) -0.1250(2) 0.2369(1)
C2 C 0.7165(2) -0.1048(2) 0.2796(1)
O1 O 0.7003(1) -0.0205(1) 0.3372(1)
C3 C 0.6247(2) -0.0586(2) 0.3989(1)
C4 C 0.5407(2) 0.0385(2) 0.4253(1)
O2 O 0.4339(1) 0.0480(1) 0.3749(1)
C5 C 0.3463(2) 0.1330(2) 0.3896(1)
C6 C 0.3653(2) 0.2228(2) 0.4385(1)
C7 C 0.2692(2) 0.3061(2) 0.4483(1)
C8 C 0.1550(2) 0.2981(2) 0.4100(1)
C9 C 0.1339(2) 0.2072(2) 0.3615(1)
C10 C 0.2285(2) 0.1258(2) 0.3500(1)
O3 O 0.2175(1) 0.0358(1) 0.3012(1)
C11 C 0.0893(2) 0.0075(2) 0.2776(1)
C12 C 0.0973(2) -0.0995(2) 0.2317(1)
O4 O 0.1386(1) -0.0730(1) 0.1575(1)
C13 C 0.2275(2) -0.1538(2) 0.1264(1)
C14 C 0.3587(2) -0.1484(2) 0.1628(1)
N1 N 0.4321(2) -0.0507(1) 0.1519(1)
C15 C 0.5519(2) -0.0343(2) 0.1873(1)
C16 C 0.5214(2) -0.2209(2) 0.2437(1)
C17 C 0.4015(2) -0.2335(2) 0.2070(1)
C18 C 0.3927(2) 0.0405(2) 0.0997(1)
C19 C 0.4491(2) 0.0235(2) 0.0216(1)
C20 C 0.4247(2) 0.1269(2) -0.0271(1)
C21 C 0.5216(2) 0.2050(2) -0.0417(1)
C22 C 0.4978(2) 0.3027(2) -0.0842(1)
C23 C 0.3762(3) 0.3233(2) -0.1117(1)
C24 C 0.2794(2) 0.2462(2) -0.0978(1)
C25 C 0.3026(2) 0.1484(2) -0.0560(1)
O5 O 0.6153(1) 0.0530(1) 0.1744(1)
H1 H 0.7454 -0.1779 0.3024
H2 H 0.7847 -0.0790 0.2445
H3 H 0.6822 -0.0843 0.4399
H4 H 0.5700 -0.1243 0.3835
H5 H 0.5091 0.0230 0.4767
H6 H 0.5908 0.1109 0.4260
H7 H 0.4441 0.2282 0.4658
H8 H 0.2833 0.3684 0.4816
H9 H 0.0900 0.3549 0.4166
H10 H 0.0535 0.2010 0.3359
H11 H 0.0524 0.0709 0.2475
H12 H 0.0329 -0.0052 0.3216
H13 H 0.1594 -0.1535 0.2550
H14 H 0.0114 -0.1370 0.2300
H15 H 0.2370 -0.1386 0.0721
H16 H 0.1919 -0.2322 0.1323
H17 H 0.5527 -0.2819 0.2741
H18 H 0.3516 -0.3013 0.2135
H19 H 0.4216 0.1156 0.1195
H20 H 0.2970 0.0421 0.0963
H21 H 0.5435 0.0099 0.0254
H22 H 0.4093 -0.0450 -0.0018
H23 H 0.6061 0.1919 -0.0225
H24 H 0.5659 0.3553 -0.0941
H25 H 0.3593 0.3905 -0.1402
H26 H 0.1951 0.2599 -0.1170
H27 H 0.2343 0.0955 -0.0472
loop_
_geom_bond_atom_site_label_1
_geom_bond_atom_site_label_2
_geom_bond_site_symmetry_1
_geom_bond_site_symmetry_2
C1 C2 1_555 1_555
C2 O1 1_555 1_555
O1 C3 1_555 1_555
C3 C4 1_555 1_555
C4 O2 1_555 1_555
O2 C5 1_555 1_555
C5 C6 1_555 1_555
C6 C7 1_555 1_555
C7 C8 1_555 1_555
C8 C9 1_555 1_555
C9 C10 1_555 1_555
C10 C5 1_555 1_555
O3 C10 1_555 1_555
C11 O3 1_555 1_555
C12 C11 1_555 1_555
O4 C12 1_555 1_555
C13 O4 1_555 1_555
C14 C13 1_555 1_555
N1 C14 1_555 1_555
C15 C1 1_555 1_555
C16 C1 1_555 1_555
C17 C14 1_555 1_555
C18 N1 1_555 1_555
C19 C18 1_555 1_555
C20 C19 1_555 1_555
C21 C20 1_555 1_555
C22 C21 1_555 1_555
C23 C22 1_555 1_555
C24 C23 1_555 1_555
C25 C20 1_555 1_555
O5 C15 1_555 1_555
H1 C2 1_555 1_555
H2 C2 1_555 1_555
H3 C3 1_555 1_555
H4 C3 1_555 1_555
H5 C4 1_555 1_555
H6 C4 1_555 1_555
H7 C6 1_555 1_555
H8 C7 1_555 1_555
H9 C8 1_555 1_555
H10 C9 1_555 1_555
H11 C11 1_555 1_555
H12 C11 1_555 1_555
H13 C12 1_555 1_555
H14 C12 1_555 1_555
H15 C13 1_555 1_555
H16 C13 1_555 1_555
H17 C16 1_555 1_555
H18 C17 1_555 1_555
H19 C18 1_555 1_555
H20 C18 1_555 1_555
H21 C19 1_555 1_555
H22 C19 1_555 1_555
H23 C21 1_555 1_555
H24 C22 1_555 1_555
H25 C23 1_555 1_555
H26 C24 1_555 1_555
H27 C25 1_555 1_555
N1 C15 1_555 1_555
C16 C17 1_555 1_555
C24 C25 1_555 1_555

#END
