
#######################################################################
#
#                 Cambridge Crystallographic Data Centre
#                                CCDC 
#
#######################################################################
#
# If this CIF has been generated from an entry in the Cambridge 
# Structural Database, then it will include bibliographic, chemical, 
# crystal, experimental, refinement or atomic coordinate data resulting 
# from the CCDC's data processing and validation procedures.
#
#######################################################################

data_BEJZEV12
_chemical_formula_moiety         'C28 H18 O6'
_chemical_name_systematic        
4,4',5,5'-Tetrahydroxy-9,9'-bianthracenyl-10,10'(9H,9'H)-dione
_symmetry_cell_setting           monoclinic
_symmetry_space_group_name_H-M   'C 2/c'
_symmetry_Int_Tables_number      15
_space_group_name_Hall           '-C 2yn'
loop_
_symmetry_equiv_pos_site_id
_symmetry_equiv_pos_as_xyz
1 x,y,z
2 1/2+x,1/2+y,z
3 x,-y,1/2+z
4 1/2+x,1/2-y,1/2+z
5 -x,-y,-z
6 1/2-x,1/2-y,-z
7 -x,y,1/2-z
8 1/2-x,1/2+y,1/2-z
_cell_length_a                   17.5922(8)
_cell_length_b                   7.4513(4)
_cell_length_c                   16.3017(8)
_cell_angle_alpha                90
_cell_angle_beta                 106.379(2)
_cell_angle_gamma                90
_cell_volume                     2050.18
_exptl_crystal_colour            yellow
_chemical_melting_point          '210-213 deg.C'
_cell_formula_units_Z            4
_exptl_crystal_recrystallization_method benzene/hexane
loop_
_atom_site_label
_atom_site_type_symbol
_atom_site_fract_x
_atom_site_fract_y
_atom_site_fract_z
O1 O 0.36211(6) 0.6367(2) -0.06514(7)
H1 H 0.39020(6) 0.7277(2) -0.04763(7)
O2 O 0.46758(6) 0.8257(2) 0.04163(7)
O3 O 0.58648(7) 1.0076(2) 0.13080(8)
H2 H 0.54428(7) 0.9903(2) 0.09181(8)
C1 C 0.42251(9) 0.2175(2) 0.10685(10)
H3 H 0.43575(9) 0.1182(2) 0.14478(10)
C2 C 0.36248(9) 0.2013(2) 0.03088(11)
H4 H 0.33469(9) 0.0910(2) 0.01745(11)
C3 C 0.34264(9) 0.3433(2) -0.02538(10)
H5 H 0.30112(9) 0.3307(2) -0.07694(10)
C4 C 0.38318(9) 0.5039(2) -0.00671(10)
C5 C 0.60268(9) 0.8620(2) 0.18226(10)
C6 C 0.67089(9) 0.8681(3) 0.25059(11)
H6 H 0.70209(9) 0.9742(3) 0.26184(11)
C7 C 0.69295(9) 0.7196(3) 0.30185(11)
H7 H 0.74055(9) 0.7227(3) 0.34741(11)
C8 C 0.64697(8) 0.5653(2) 0.28821(10)
H8 H 0.66383(8) 0.4634(2) 0.32368(10)
C9 C 0.52291(8) 0.3973(2) 0.21388(9)
H9 H 0.55745(8) 0.2882(2) 0.22320(9)
C10 C 0.48699(8) 0.6938(2) 0.09110(10)
C11 C 0.55461(8) 0.7068(2) 0.16768(10)
C12 C 0.57643(8) 0.5590(2) 0.22303(9)
C13 C 0.46320(8) 0.3780(2) 0.12756(10)
C14 C 0.44455(8) 0.5235(2) 0.07065(10)
C9F C 0.47709(8) 0.3973(2) 0.28612(9)
H9F H 0.44255(8) 0.2882(2) 0.27680(9)
C12F C 0.42357(8) 0.5590(2) 0.27697(9)
C8F C 0.35303(8) 0.5653(2) 0.21179(10)
C7F C 0.30705(9) 0.7196(3) 0.19815(11)
C6F C 0.32911(9) 0.8681(3) 0.24941(11)
C5F C 0.39732(9) 0.8620(2) 0.31774(10)
O3F O 0.41352(7) 1.0076(2) 0.36920(8)
H2F H 0.45572(7) 0.9903(2) 0.40819(8)
C11F C 0.44539(8) 0.7068(2) 0.33232(10)
C10F C 0.51301(8) 0.6938(2) 0.40890(10)
O2F O 0.53242(6) 0.8257(2) 0.45837(7)
C14F C 0.55545(8) 0.5235(2) 0.42935(10)
C4F C 0.61682(9) 0.5039(2) 0.50671(10)
O1F O 0.63789(6) 0.6367(2) 0.56514(7)
H1F H 0.60980(6) 0.7277(2) 0.54763(7)
C3F C 0.65736(9) 0.3433(2) 0.52538(10)
C2F C 0.63752(9) 0.2013(2) 0.46912(11)
C1F C 0.57749(9) 0.2175(2) 0.39315(10)
H3F H 0.56425(9) 0.1182(2) 0.35522(10)
C13F C 0.53680(8) 0.3780(2) 0.37244(10)
H4F H 0.66531(9) 0.0910(2) 0.48255(11)
H5F H 0.69888(9) 0.3307(2) 0.57694(10)
H6F H 0.29791(9) 0.9742(3) 0.23816(11)
H7F H 0.25945(9) 0.7227(3) 0.15259(11)
H8F H 0.33617(8) 0.4634(2) 0.17632(10)
loop_
_geom_bond_atom_site_label_1
_geom_bond_atom_site_label_2
_geom_bond_site_symmetry_1
_geom_bond_site_symmetry_2
O1 H1 1_555 1_555
O2 C10 1_555 1_555
O3 H2 1_555 1_555
C1 H3 1_555 1_555
C2 C1 1_555 1_555
H4 C2 1_555 1_555
C3 C2 1_555 1_555
H5 C3 1_555 1_555
C4 O1 1_555 1_555
C5 O3 1_555 1_555
C6 C5 1_555 1_555
H6 C6 1_555 1_555
C7 C6 1_555 1_555
H7 C7 1_555 1_555
C8 C7 1_555 1_555
H8 C8 1_555 1_555
C9 H9 1_555 1_555
C10 C11 1_555 1_555
C11 C5 1_555 1_555
C12 C8 1_555 1_555
C13 C1 1_555 1_555
C14 C4 1_555 1_555
C9F C9 1_555 1_555
H9F C9F 1_555 1_555
C12F C9F 1_555 1_555
C8F C12F 1_555 1_555
C7F C8F 1_555 1_555
C6F C7F 1_555 1_555
C5F C6F 1_555 1_555
O3F C5F 1_555 1_555
H2F O3F 1_555 1_555
C11F C12F 1_555 1_555
C10F C11F 1_555 1_555
O2F C10F 1_555 1_555
C14F C10F 1_555 1_555
C4F C14F 1_555 1_555
O1F C4F 1_555 1_555
H1F O1F 1_555 1_555
C3F C4F 1_555 1_555
C2F C3F 1_555 1_555
C1F C2F 1_555 1_555
H3F C1F 1_555 1_555
C13F C9F 1_555 1_555
H4F C2F 1_555 1_555
H5F C3F 1_555 1_555
H6F C6F 1_555 1_555
H7F C7F 1_555 1_555
H8F C8F 1_555 1_555
C3 C4 1_555 1_555
C9 C13 1_555 1_555
C9 C12 1_555 1_555
C10 C14 1_555 1_555
C11 C12 1_555 1_555
C13 C14 1_555 1_555
C5F C11F 1_555 1_555
C14F C13F 1_555 1_555
C1F C13F 1_555 1_555

#END
