
#######################################################################
#
#                 Cambridge Crystallographic Data Centre
#                                CCDC 
#
#######################################################################
#
# If this CIF has been generated from an entry in the Cambridge 
# Structural Database, then it will include bibliographic, chemical, 
# crystal, experimental, refinement or atomic coordinate data resulting 
# from the CCDC's data processing and validation procedures.
#
#######################################################################

data_BEKCIE
_chemical_formula_moiety         'C20 H13 F1 N2 O1,C3 H7 N1 O1'
_chemical_name_systematic        
'2-Amino-3-cyano-4-(4-fluorophenyl)-4H-benzo(h)chromene dimethylformamide solvate'
_symmetry_cell_setting           monoclinic
_symmetry_space_group_name_H-M   'P 21/n'
_symmetry_Int_Tables_number      14
_space_group_name_Hall           '-P 2yn'
loop_
_symmetry_equiv_pos_site_id
_symmetry_equiv_pos_as_xyz
1 x,y,z
2 1/2-x,1/2+y,1/2-z
3 -x,-y,-z
4 1/2+x,1/2-y,1/2+z
_cell_length_a                   6.365(1)
_cell_length_b                   10.620(2)
_cell_length_c                   29.122(6)
_cell_angle_alpha                90
_cell_angle_beta                 92.00(1)
_cell_angle_gamma                90
_cell_volume                     1967.34
_chemical_melting_point          '234-236 deg.C'
_cell_formula_units_Z            4
_exptl_crystal_recrystallization_method DMF/water
loop_
_atom_site_label
_atom_site_type_symbol
_atom_site_fract_x
_atom_site_fract_y
_atom_site_fract_z
F1 F 1.2294(3) -0.3794(2) 0.1714(1)
O1 O 0.6855(3) 0.2884(2) 0.1169(1)
N1 N 0.4851(4) 0.2198(3) 0.0590(1)
N2 N 0.7290(4) -0.0573(3) 0.0156(1)
C1 C 0.6637(4) 0.1994(2) 0.0835(1)
C2 C 0.8053(4) 0.1068(2) 0.0782(1)
C3 C 1.0154(4) 0.1019(2) 0.1044(1)
C4 C 1.0147(4) 0.1966(2) 0.1433(1)
C5 C 0.8556(4) 0.2798(2) 0.1482(1)
C6 C 0.8473(4) 0.3678(2) 0.1848(1)
C7 C 0.6777(5) 0.4522(2) 0.1901(1)
C8 C 0.6801(5) 0.5345(3) 0.2263(1)
C9 C 0.8501(6) 0.5368(3) 0.2578(1)
C10 C 1.0134(6) 0.4565(3) 0.2537(1)
C11 C 1.0181(4) 0.3688(2) 0.2172(1)
C12 C 1.1862(5) 0.2853(3) 0.2112(1)
C13 C 1.1835(4) 0.2028(3) 0.1758(1)
C14 C 0.7636(4) 0.0168(3) 0.0434(1)
C15 C 1.0716(4) -0.0292(2) 0.1221(1)
C16 C 0.9359(5) -0.0961(3) 0.1487(1)
C17 C 0.9886(5) -0.2131(3) 0.1658(1)
C18 C 1.1766(6) -0.2621(3) 0.1557(1)
C19 C 1.3172(5) -0.2014(3) 0.1294(1)
C20 C 1.2632(5) -0.0827(3) 0.1124(1)
O2 O 0.2996(5) 0.4662(3) 0.0618(1)
N3 N 0.0248(4) 0.5953(2) 0.0510(1)
C21 C 0.1272(7) 0.4988(4) 0.0687(1)
C22 C -0.1913(6) 0.6177(4) 0.0620(1)
C23 C 0.1171(6) 0.6811(3) 0.0202(1)
loop_
_geom_bond_atom_site_label_1
_geom_bond_atom_site_label_2
_geom_bond_site_symmetry_1
_geom_bond_site_symmetry_2
F1 C18 1_555 1_555
O1 C1 1_555 1_555
N1 C1 1_555 1_555
N2 C14 1_555 1_555
C1 C2 1_555 1_555
C2 C3 1_555 1_555
C3 C4 1_555 1_555
C4 C5 1_555 1_555
C5 O1 1_555 1_555
C6 C5 1_555 1_555
C7 C6 1_555 1_555
C8 C7 1_555 1_555
C9 C8 1_555 1_555
C10 C9 1_555 1_555
C11 C6 1_555 1_555
C12 C11 1_555 1_555
C13 C4 1_555 1_555
C14 C2 1_555 1_555
C15 C3 1_555 1_555
C16 C15 1_555 1_555
C17 C16 1_555 1_555
C18 C17 1_555 1_555
C19 C18 1_555 1_555
C20 C15 1_555 1_555
O2 C21 1_555 1_555
N3 C21 1_555 1_555
C22 N3 1_555 1_555
C23 N3 1_555 1_555
C10 C11 1_555 1_555
C12 C13 1_555 1_555
C19 C20 1_555 1_555

#END
