
#######################################################################
#
#                 Cambridge Crystallographic Data Centre
#                                CCDC 
#
#######################################################################
#
# If this CIF has been generated from an entry in the Cambridge 
# Structural Database, then it will include bibliographic, chemical, 
# crystal, experimental, refinement or atomic coordinate data resulting 
# from the CCDC's data processing and validation procedures.
#
#######################################################################

data_BEKFUT
_chemical_formula_moiety         'C29 H44 O7,1.5(C1 H4 O1)'
_chemical_name_systematic        
'3\b,28-Diacetoxy-18-oxo-19,20,21,29,30-pentanorlupan-22-oic acid'
_chemical_properties_biological  'pro-apoptotic activity in cancer cells'
_symmetry_cell_setting           monoclinic
_symmetry_space_group_name_H-M   'P 21'
_symmetry_Int_Tables_number      4
_space_group_name_Hall           'P 2yb'
loop_
_symmetry_equiv_pos_site_id
_symmetry_equiv_pos_as_xyz
1 x,y,z
2 -x,1/2+y,-z
_cell_length_a                   7.4459(9)
_cell_length_b                   11.0454(9)
_cell_length_c                   36.178(4)
_cell_angle_alpha                90
_cell_angle_beta                 94.002(11)
_cell_angle_gamma                90
_cell_volume                     2968.13
_exptl_crystal_colour            colorless
_exptl_crystal_description       block
_chemical_melting_point          '137-140 deg.C'
_cell_formula_units_Z            4
_exptl_crystal_recrystallization_method 'dichloromethane/diethyl ether'
loop_
_atom_site_label
_atom_site_type_symbol
_atom_site_fract_x
_atom_site_fract_y
_atom_site_fract_z
O1 O 0.5250(2) 0.1190(2) -0.1514(1)
C1 C 0.6696(3) 0.1412(2) -0.1356(1)
C2 C 0.8952(3) 0.2392(2) -0.1719(1)
O2 O 1.0561(2) 0.2195(2) -0.1913(1)
O3 O 1.0804(3) 0.4195(2) -0.1991(1)
C3 C 1.1371(3) 0.3183(2) -0.2038(1)
C4 C 1.3009(3) 0.2848(3) -0.2231(1)
C5 C 0.8442(3) 0.1186(2) -0.1553(1)
C6 C 0.8000(5) 0.0066(7) -0.1820(2)
O4 O 0.7639(5) 0.0431(7) -0.2162(1)
O5 O 0.7952(5) -0.0967(5) -0.1718(2)
C8 C 0.9967(2) 0.0696(2) -0.1283(1)
C9 C 1.0054(2) 0.1313(2) -0.0905(1)
C10 C 0.8259(2) 0.1248(2) -0.0718(1)
C11 C 0.7677(2) -0.0096(2) -0.0705(1)
C12 C 0.8406(2) 0.1846(1) -0.0318(1)
C13 C 0.9263(2) 0.3110(2) -0.0340(1)
C14 C 0.9628(2) 0.1064(2) -0.0055(1)
C15 C 0.9595(2) 0.1417(2) 0.0353(1)
C16 C 0.7677(2) 0.1318(2) 0.0477(1)
C17 C 0.7582(2) 0.1263(2) 0.0907(1)
C18 C 0.8596(3) 0.0137(2) 0.1057(1)
C19 C 0.8394(2) 0.2366(2) 0.1115(1)
C20 C 0.5587(2) 0.1076(2) 0.0978(1)
O8 O 0.5393(2) 0.1160(1) 0.1374(1)
O9 O 0.3315(3) -0.0310(2) 0.1339(1)
C21 C 0.4163(3) 0.0449(2) 0.1516(1)
C22 C 0.3923(4) 0.0752(3) 0.1913(1)
C23 C 0.4322(2) 0.1989(2) 0.0788(1)
C24 C 0.4472(2) 0.1974(2) 0.0368(1)
C25 C 0.6407(2) 0.2224(1) 0.0257(1)
C26 C 0.6825(2) 0.3569(2) 0.0344(1)
C27 C 0.6488(2) 0.1907(1) -0.0164(1)
C28 C 0.5208(2) 0.2649(2) -0.0427(1)
C29 C 0.5024(2) 0.2085(2) -0.0812(1)
C30 C 0.6858(2) 0.1966(2) -0.0973(1)
H1 H 0.7963 0.2690 -0.1892
H3 H 1.3417 0.3550 -0.2368
H4 H 1.2720 0.2181 -0.2403
H5 H 1.3966 0.2595 -0.2047
H6 H 0.7408 -0.0171 -0.2299
H8 H 0.9790 -0.0184 -0.1249
H9 H 1.1132 0.0811 -0.1395
H10 H 1.0388 0.2173 -0.0936
H11 H 1.1009 0.0925 -0.0742
H12 H 0.7227 -0.0356 -0.0954
H13 H 0.6722 -0.0186 -0.0534
H14 H 0.8712 -0.0595 -0.0620
H15 H 0.9226 0.3517 -0.0099
H16 H 0.8591 0.3590 -0.0531
H17 H 1.0516 0.3029 -0.0402
H18 H 0.9253 0.0208 -0.0084
H19 H 1.0881 0.1128 -0.0129
H20 H 1.0035 0.2258 0.0388
H21 H 1.0404 0.0876 0.0506
H22 H 0.7255 0.0502 0.0389
H23 H 0.9893 0.0255 0.1041
H24 H 0.8201 -0.0572 0.0911
H25 H 0.8343 0.0009 0.1317
H26 H 0.8486 0.2202 0.1381
H27 H 0.7620 0.3073 0.1063
H28 H 0.9596 0.2529 0.1032
H29 H 0.5215 0.0247 0.0892
H30 H 0.3205 0.0119 0.2023
H31 H 0.3301 0.1531 0.1927
H32 H 0.5104 0.0804 0.2050
H33 H 0.4616 0.2808 0.0886
H34 H 0.3069 0.1799 0.0844
H35 H 0.3652 0.2594 0.0252
H36 H 0.4075 0.1174 0.0269
H37 H 0.6244 0.3808 0.0568
H38 H 0.6366 0.4072 0.0135
H39 H 0.8130 0.3680 0.0385
H40 H 0.6020 0.1060 -0.0186
H41 H 0.4009 0.2692 -0.0326
H42 H 0.5675 0.3485 -0.0445
H43 H 0.4225 0.2594 -0.0978
H44 H 0.4466 0.1274 -0.0798
H45 H 0.7343 0.2804 -0.0999
O10 O 0.4532(2) 0.0622(2) 0.6504(1)
C31 C 0.3111(2) 0.0895(2) 0.6342(1)
C32 C 0.1326(2) 0.0684(2) 0.6528(1)
C33 C 0.0829(3) 0.1916(2) 0.6689(1)
O11 O -0.0916(2) 0.1790(1) 0.6831(1)
O12 O -0.0485(3) 0.3521(2) 0.7128(1)
C34 C -0.1458(3) 0.2697(2) 0.7037(1)
C35 C -0.3338(4) 0.2521(3) 0.7142(1)
C36 C 0.1718(3) -0.0292(2) 0.6828(1)
O13 O 0.2044(2) 0.0156(2) 0.7163(1)
O14 O 0.1751(2) -0.1350(1) 0.6758(1)
C37 C -0.0164(2) 0.0202(2) 0.6248(1)
C38 C -0.0191(2) 0.0835(2) 0.5872(1)
C39 C 0.1637(2) 0.0765(1) 0.5697(1)
C40 C 0.2207(2) -0.0580(2) 0.5684(1)
C41 C 0.1551(2) 0.1371(2) 0.5298(1)
C42 C 0.0699(2) 0.2633(2) 0.5317(1)
C43 C 0.0355(2) 0.0598(2) 0.5028(1)
C44 C 0.0433(2) 0.0948(2) 0.4622(1)
C45 C 0.2369(2) 0.0852(2) 0.4506(1)
C46 C 0.2510(2) 0.0804(2) 0.4078(1)
C47 C 0.1518(3) -0.0322(2) 0.3922(1)
C48 C 0.1733(2) 0.1921(2) 0.3869(1)
C49 C 0.4515(2) 0.0622(2) 0.4018(1)
O15 O 0.4748(2) 0.0713(1) 0.3623(1)
O16 O 0.6863(2) -0.0741(2) 0.3667(1)
C50 C 0.6029(3) 0.0023(2) 0.3487(1)
C51 C 0.6317(4) 0.0362(3) 0.3096(1)
C52 C 0.5755(2) 0.1531(2) 0.4215(1)
C53 C 0.5569(2) 0.1502(2) 0.4633(1)
C54 C 0.3624(2) 0.1758(1) 0.4735(1)
C55 C 0.32142 0.31072 0.46501
C56 C 0.3491(2) 0.1423(1) 0.5155(1)
C57 C 0.4753(2) 0.2152(2) 0.5427(1)
C58 C 0.4871(2) 0.1579(2) 0.5812(1)
C59 C 0.3011(2) 0.1465(2) 0.5962(1)
H46 H 0.1729 0.2155 0.6890
H47 H 0.0798 0.2545 0.6493
H48 H -0.3763 0.3263 0.7255
H49 H -0.3373 0.1851 0.7319
H50 H -0.4117 0.2331 0.6920
H51 H 0.2339 -0.0407 0.7311
H52 H 0.0018 -0.0677 0.6212
H53 H -0.1348 0.0313 0.6352
H54 H -0.0519 0.1695 0.5903
H55 H -0.1129 0.0458 0.5702
H56 H 0.2645 -0.0844 0.5933
H57 H 0.3166 -0.0674 0.5514
H58 H 0.1169 -0.1075 0.5597
H59 H 0.0730 0.3032 0.5076
H60 H 0.1375 0.3118 0.5506
H61 H -0.0553 0.2554 0.5381
H62 H 0.0722 -0.0260 0.5058
H63 H -0.0907 0.0663 0.5095
H64 H -0.0006 0.1788 0.4585
H65 H -0.0358 0.0406 0.4466
H66 H 0.2781 0.0034 0.4595
H67 H 0.0217 -0.0209 0.3932
H68 H 0.1902 -0.1033 0.4069
H69 H 0.1800 -0.0445 0.3664
H70 H 0.1657 0.1761 0.3602
H71 H 0.2519 0.2620 0.3923
H72 H 0.0527 0.2095 0.3948
H73 H 0.4878 -0.0209 0.4103
H74 H 0.7145 -0.0217 0.2993
H75 H 0.6832 0.1177 0.3090
H76 H 0.5162 0.0347 0.2948
H77 H 0.5464 0.2352 0.4119
H78 H 0.7015 0.1347 0.4164
H79 H 0.6386 0.2114 0.4753
H80 H 0.5947 0.0697 0.4730
H81 H 0.3632 0.3602 0.4864
H82 H 0.1914 0.3215 0.4600
H83 H 0.3838 0.3357 0.4433
H84 H 0.3945 0.0572 0.5177
H85 H 0.5970 0.2185 0.5333
H86 H 0.4300 0.2992 0.5443
H87 H 0.5424 0.0766 0.5799
H88 H 0.5652 0.2082 0.5983
H89 H 0.2533 0.2304 0.5988
O17 O 0.3045(2) -0.1552(2) 0.7659(1)
C60 C 0.3003(4) -0.1056(2) 0.8022(1)
H90 H 0.2554 -0.2237 0.7653
H91 H 0.3830 -0.1509 0.8193
H92 H 0.1779 -0.1113 0.8103
H93 H 0.3372 -0.0205 0.8019
O18 O 1.1395(3) 0.6318(2) -0.2383(1)
C61 C 0.9812(4) 0.6433(3) -0.2616(1)
H94 H 1.1242 0.5791 -0.2220
H95 H 0.8881 0.6832 -0.2481
H96 H 0.9391 0.5628 -0.2696
H97 H 1.0061 0.6919 -0.2833
O19 O 0.6530(3) -0.1480(2) -0.2551(1)
C62 C 0.6678(4) -0.1336(4) -0.2937(1)
H98 H 0.5455 -0.1499 -0.2486
H99 H 0.5781 -0.0748 -0.3035
H100 H 0.6468 -0.2116 -0.3061
H101 H 0.7887 -0.1044 -0.2981
C7? C 0.7869(11) 0.0585(11) -0.1923(3)
O6? O 0.7977(9) -0.0590(10) -0.1874(4)
O7? O 0.7362(11) 0.1098(12) -0.2210(2)
H2? H 0.9183 0.0302 -0.1520
H7? H 0.7667 -0.0945 -0.2073
loop_
_geom_bond_atom_site_label_1
_geom_bond_atom_site_label_2
_geom_bond_site_symmetry_1
_geom_bond_site_symmetry_2
O1 C1 1_555 1_555
C1 C5 1_555 1_555
C2 O2 1_555 1_555
O2 C3 1_555 1_555
O3 C3 1_555 1_555
C3 C4 1_555 1_555
C4 H3 1_555 1_555
C5 C2 1_555 1_555
C6 C5 1_555 1_555
O4 C6 1_555 1_555
O5 C6 1_555 1_555
C8 C5 1_555 1_555
C9 C8 1_555 1_555
C10 C9 1_555 1_555
C11 C10 1_555 1_555
C12 C10 1_555 1_555
C13 C12 1_555 1_555
C14 C12 1_555 1_555
C15 C14 1_555 1_555
C16 C15 1_555 1_555
C17 C16 1_555 1_555
C18 C17 1_555 1_555
C19 C17 1_555 1_555
C20 C17 1_555 1_555
O8 C20 1_555 1_555
O9 C21 1_555 1_555
C21 O8 1_555 1_555
C22 C21 1_555 1_555
C23 C20 1_555 1_555
C24 C23 1_555 1_555
C25 C16 1_555 1_555
C26 C25 1_555 1_555
C27 C12 1_555 1_555
C28 C27 1_555 1_555
C29 C28 1_555 1_555
C30 C1 1_555 1_555
O10 C31 1_555 1_555
C31 C32 1_555 1_555
C32 C33 1_555 1_555
C33 O11 1_555 1_555
O11 C34 1_555 1_555
O12 C34 1_555 1_555
C34 C35 1_555 1_555
C35 H48 1_555 1_555
C36 C32 1_555 1_555
O13 C36 1_555 1_555
O14 C36 1_555 1_555
C37 C32 1_555 1_555
C38 C37 1_555 1_555
C39 C38 1_555 1_555
C40 C39 1_555 1_555
C41 C39 1_555 1_555
C42 C41 1_555 1_555
C43 C41 1_555 1_555
C44 C43 1_555 1_555
C45 C44 1_555 1_555
C46 C45 1_555 1_555
C47 C46 1_555 1_555
C48 C46 1_555 1_555
C49 C46 1_555 1_555
O15 C49 1_555 1_555
O16 C50 1_555 1_555
C50 O15 1_555 1_555
C51 C50 1_555 1_555
C52 C49 1_555 1_555
C53 C52 1_555 1_555
C54 C45 1_555 1_555
C55 C54 1_555 1_555
C56 C41 1_555 1_555
C57 C56 1_555 1_555
C58 C57 1_555 1_555
C59 C31 1_555 1_555
O17 C60 1_555 1_555
C60 H91 1_555 1_555
O18 C61 1_555 1_555
C61 H95 1_555 1_555
O19 C62 1_555 1_555
C62 H99 1_555 1_555
H1 C2 1_555 1_555
H4 C4 1_555 1_555
H5 C4 1_555 1_555
H6 O4 1_555 1_555
H8 C8 1_555 1_555
H9 C8 1_555 1_555
H10 C9 1_555 1_555
H11 C9 1_555 1_555
H12 C11 1_555 1_555
H13 C11 1_555 1_555
H14 C11 1_555 1_555
H15 C13 1_555 1_555
H16 C13 1_555 1_555
H17 C13 1_555 1_555
H18 C14 1_555 1_555
H19 C14 1_555 1_555
H20 C15 1_555 1_555
H21 C15 1_555 1_555
H22 C16 1_555 1_555
H23 C18 1_555 1_555
H24 C18 1_555 1_555
H25 C18 1_555 1_555
H26 C19 1_555 1_555
H27 C19 1_555 1_555
H28 C19 1_555 1_555
H29 C20 1_555 1_555
H30 C22 1_555 1_555
H31 C22 1_555 1_555
H32 C22 1_555 1_555
H33 C23 1_555 1_555
H34 C23 1_555 1_555
H35 C24 1_555 1_555
H36 C24 1_555 1_555
H37 C26 1_555 1_555
H38 C26 1_555 1_555
H39 C26 1_555 1_555
H40 C27 1_555 1_555
H41 C28 1_555 1_555
H42 C28 1_555 1_555
H43 C29 1_555 1_555
H44 C29 1_555 1_555
H45 C30 1_555 1_555
H46 C33 1_555 1_555
H47 C33 1_555 1_555
H49 C35 1_555 1_555
H50 C35 1_555 1_555
H51 O13 1_555 1_555
H52 C37 1_555 1_555
H53 C37 1_555 1_555
H54 C38 1_555 1_555
H55 C38 1_555 1_555
H56 C40 1_555 1_555
H57 C40 1_555 1_555
H58 C40 1_555 1_555
H59 C42 1_555 1_555
H60 C42 1_555 1_555
H61 C42 1_555 1_555
H62 C43 1_555 1_555
H63 C43 1_555 1_555
H64 C44 1_555 1_555
H65 C44 1_555 1_555
H66 C45 1_555 1_555
H67 C47 1_555 1_555
H68 C47 1_555 1_555
H69 C47 1_555 1_555
H70 C48 1_555 1_555
H71 C48 1_555 1_555
H72 C48 1_555 1_555
H73 C49 1_555 1_555
H74 C51 1_555 1_555
H75 C51 1_555 1_555
H76 C51 1_555 1_555
H77 C52 1_555 1_555
H78 C52 1_555 1_555
H79 C53 1_555 1_555
H80 C53 1_555 1_555
H81 C55 1_555 1_555
H82 C55 1_555 1_555
H83 C55 1_555 1_555
H84 C56 1_555 1_555
H85 C57 1_555 1_555
H86 C57 1_555 1_555
H87 C58 1_555 1_555
H88 C58 1_555 1_555
H89 C59 1_555 1_555
H90 O17 1_555 1_555
H92 C60 1_555 1_555
H93 C60 1_555 1_555
H94 O18 1_555 1_555
H96 C61 1_555 1_555
H97 C61 1_555 1_555
H98 O19 1_555 1_555
H100 C62 1_555 1_555
H101 C62 1_555 1_555
C10 C30 1_555 1_555
C24 C25 1_555 1_555
C25 C27 1_555 1_555
C29 C30 1_555 1_555
C39 C59 1_555 1_555
C53 C54 1_555 1_555
C54 C56 1_555 1_555
C58 C59 1_555 1_555

#END
