
#######################################################################
#
#                 Cambridge Crystallographic Data Centre
#                                CCDC 
#
#######################################################################
#
# If this CIF has been generated from an entry in the Cambridge 
# Structural Database, then it will include bibliographic, chemical, 
# crystal, experimental, refinement or atomic coordinate data resulting 
# from the CCDC's data processing and validation procedures.
#
#######################################################################

data_BEKJAE
_chemical_formula_moiety         'C26 H18'
_chemical_name_systematic        2,2'-Hexa-1,5-diyne-3,4-diyldinaphthalene
_symmetry_cell_setting           orthorhombic
_symmetry_space_group_name_H-M   'P c a 21'
_symmetry_Int_Tables_number      29
_space_group_name_Hall           'P 2c -2ac'
loop_
_symmetry_equiv_pos_site_id
_symmetry_equiv_pos_as_xyz
1 x,y,z
2 -x,-y,1/2+z
3 1/2+x,-y,z
4 1/2-x,y,1/2+z
_cell_length_a                   11.8926(4)
_cell_length_b                   19.5888(6)
_cell_length_c                   7.6155(3)
_cell_angle_alpha                90
_cell_angle_beta                 90
_cell_angle_gamma                90
_cell_volume                     1774.12
_exptl_crystal_colour            colorless
_exptl_crystal_description       block
_cell_formula_units_Z            4
loop_
_atom_site_label
_atom_site_type_symbol
_atom_site_fract_x
_atom_site_fract_y
_atom_site_fract_z
C1 C 0.3423(2) 0.64053(11) 0.5940(3)
H1 H 0.3158 0.6831 0.5508
C2 C 0.2830(2) 0.58256(10) 0.5592(3)
H2 H 0.2143 0.5854 0.4958
C3 C 0.3226(2) 0.51815(11) 0.6167(3)
C4 C 0.2637(2) 0.45671(11) 0.5830(3)
H3 H 0.1937 0.4584 0.5230
C5 C 0.3057(2) 0.39535(12) 0.6351(3)
H4 H 0.2645 0.3547 0.6125
C6 C 0.4106(2) 0.39179(12) 0.7231(3)
H5 H 0.4403 0.3488 0.7572
C7 C 0.4687(2) 0.44997(11) 0.7585(3)
H6 H 0.5390 0.4471 0.8173
C8 C 0.4262(2) 0.51471(11) 0.7093(3)
C9 C 0.4836(2) 0.57681(11) 0.7486(3)
H7 H 0.5515 0.5753 0.8143
C10 C 0.4429(2) 0.63833(11) 0.6937(3)
C11 C 0.5063(2) 0.70362(12) 0.7379(3)
H8 H 0.5811 0.6896 0.7859
C12 C 0.4475(2) 0.74763(12) 0.8835(3)
H9 H 0.4397 0.7179 0.9895
C13 C 0.5209(2) 0.80845(11) 0.9369(3)
C14 C 0.6268(2) 0.79558(12) 1.0183(3)
H10 H 0.6501 0.7498 1.0370
C15 C 0.6953(2) 0.84763(11) 1.0698(3)
H11 H 0.7648 0.8375 1.1255
C16 C 0.6643(2) 0.91656(11) 1.0416(3)
C17 C 0.7335(2) 0.97206(12) 1.0915(3)
H12 H 0.8034 0.9635 1.1476
C18 C 0.7012(2) 1.03732(12) 1.0601(4)
H13 H 0.7487 1.0741 1.0940
C19 C 0.5980(2) 1.05076(13) 0.9779(3)
H14 H 0.5762 1.0967 0.9566
C20 C 0.5284(2) 0.99881(12) 0.9280(4)
H15 H 0.4589 1.0088 0.8722
C21 C 0.5596(2) 0.92999(11) 0.9592(3)
C22 C 0.4899(2) 0.87455(11) 0.9096(3)
H16 H 0.4195 0.8838 0.8557
C23 C 0.5287(2) 0.74580(12) 0.5803(4)
C24 C 0.5478(3) 0.77895(13) 0.4551(4)
C25 C 0.3341(2) 0.76899(12) 0.8334(3)
C26 C 0.2435(3) 0.78793(13) 0.7925(4)
H17 H 0.5565 0.8076 0.3583
H18 H 0.1696 0.8018 0.7623
loop_
_geom_bond_atom_site_label_1
_geom_bond_atom_site_label_2
_geom_bond_site_symmetry_1
_geom_bond_site_symmetry_2
C1 H1 1_555 1_555
C2 C1 1_555 1_555
H2 C2 1_555 1_555
C3 C2 1_555 1_555
C4 C3 1_555 1_555
H3 C4 1_555 1_555
C5 C4 1_555 1_555
H4 C5 1_555 1_555
C6 C5 1_555 1_555
H5 C6 1_555 1_555
C7 C6 1_555 1_555
H6 C7 1_555 1_555
C8 C3 1_555 1_555
C9 C8 1_555 1_555
H7 C9 1_555 1_555
C10 C1 1_555 1_555
C11 C10 1_555 1_555
H8 C11 1_555 1_555
C12 C11 1_555 1_555
H9 C12 1_555 1_555
C13 C12 1_555 1_555
C14 C13 1_555 1_555
H10 C14 1_555 1_555
C15 C14 1_555 1_555
H11 C15 1_555 1_555
C16 C15 1_555 1_555
C17 C16 1_555 1_555
H12 C17 1_555 1_555
C18 C17 1_555 1_555
H13 C18 1_555 1_555
C19 C18 1_555 1_555
H14 C19 1_555 1_555
C20 C19 1_555 1_555
H15 C20 1_555 1_555
C21 C16 1_555 1_555
C22 C13 1_555 1_555
H16 C22 1_555 1_555
C23 C11 1_555 1_555
C24 C23 1_555 1_555
C25 C12 1_555 1_555
C26 C25 1_555 1_555
H17 C24 1_555 1_555
H18 C26 1_555 1_555
C7 C8 1_555 1_555
C9 C10 1_555 1_555
C20 C21 1_555 1_555
C21 C22 1_555 1_555

#END
