
#######################################################################
#
#                 Cambridge Crystallographic Data Centre
#                                CCDC 
#
#######################################################################
#
# If this CIF has been generated from an entry in the Cambridge 
# Structural Database, then it will include bibliographic, chemical, 
# crystal, experimental, refinement or atomic coordinate data resulting 
# from the CCDC's data processing and validation procedures.
#
#######################################################################

data_BEKMEK01
_chemical_formula_moiety         'C26 H34 O8'
_chemical_name_systematic        
(4'R,7R)-9-(2',2'-Dimethyl(1',3')dioxolan-4'-yl)-7-(4''-methoxybenzyloxymethyl)-3,3,8-trimethyl-2,4-dioxaspiro(5.5)undec-8-en-1,5-dione
_symmetry_cell_setting           monoclinic
_symmetry_space_group_name_H-M   'P 21'
_symmetry_Int_Tables_number      4
_space_group_name_Hall           'P 2yb'
loop_
_symmetry_equiv_pos_site_id
_symmetry_equiv_pos_as_xyz
1 x,y,z
2 -x,1/2+y,-z
_cell_length_a                   11.7306(15)
_cell_length_b                   8.7908(11)
_cell_length_c                   11.8862(15)
_cell_angle_alpha                90
_cell_angle_beta                 100.087(2)
_cell_angle_gamma                90
_cell_volume                     1206.78
_cell_formula_units_Z            2
loop_
_atom_site_label
_atom_site_type_symbol
_atom_site_fract_x
_atom_site_fract_y
_atom_site_fract_z
O1 O 0.3001(1) 0.5349(1) 0.9425(1)
O2 O 0.3711(1) 0.7892(1) 0.9770(1)
O3 O 0.1222(1) 0.4885(1) 0.8633(1)
O4 O 0.2613(1) 0.9873(1) 0.9311(1)
O5 O -0.2112(1) 0.5768(1) 0.4248(1)
O6 O -0.1377(1) 0.8038(1) 0.4990(1)
O7 O 0.1370(1) 0.7248(1) 1.0822(1)
O8 O 0.4427(1) 0.7419(2) 1.5804(1)
C1 C 0.3993(1) 0.6300(2) 0.9741(2)
C2 C 0.1963(1) 0.5823(2) 0.8884(1)
C3 C 0.1772(1) 0.7500(2) 0.8602(1)
C4 C 0.2710(1) 0.8519(2) 0.9258(1)
C5 C 0.4798(2) 0.6059(3) 0.8894(2)
C6 C 0.4509(2) 0.5870(3) 1.0955(2)
C7 C 0.1820(1) 0.7761(2) 0.7315(1)
C8 C 0.0838(1) 0.6964(2) 0.6536(1)
C9 C -0.0334(1) 0.7271(2) 0.6852(1)
C10 C -0.0448(1) 0.7774(2) 0.7890(1)
C11 C 0.0579(1) 0.8031(2) 0.8853(1)
C12 C -0.1591(2) 0.8211(2) 0.8238(1)
C13 C -0.1358(1) 0.6965(2) 0.5921(1)
C14 C -0.1364(1) 0.5439(2) 0.5301(1)
C15 C -0.1796(1) 0.7255(2) 0.3932(1)
C16 C -0.2871(2) 0.8039(2) 0.3302(2)
C17 C -0.0829(2) 0.7170(2) 0.3236(2)
C18 C 0.0337(1) 0.7324(2) 0.9981(1)
C19 C 0.1566(2) 0.8571(2) 1.1533(1)
C20 C 0.2413(1) 0.8185(2) 1.2600(1)
C21 C 0.3327(1) 0.9160(2) 1.3002(1)
C22 C 0.4031(1) 0.8945(2) 1.4062(1)
C23 C 0.3820(1) 0.7713(2) 1.4733(1)
C24 C 0.2933(1) 0.6683(2) 1.4324(1)
C25 C 0.2245(1) 0.6924(2) 1.3266(1)
C26 C 0.5242(2) 0.8550(3) 1.6287(2)
H1 H 0.4410(20) 0.6330(30) 0.8120(20)
H2 H 0.5460(20) 0.6600(30) 0.9130(20)
H3 H 0.5000(20) 0.5000(30) 0.8880(20)
H4 H 0.3960(20) 0.6020(30) 1.1430(20)
H5 H 0.5220(30) 0.6410(40) 1.1140(30)
H6 H 0.4658(19) 0.4860(30) 1.0943(19)
H7 H 0.1741(18) 0.8820(30) 0.7215(17)
H8 H 0.2540(17) 0.7490(20) 0.7124(16)
H9 H 0.0846(18) 0.7270(30) 0.5752(19)
H10 H 0.0950(19) 0.5880(30) 0.6521(19)
H11 H 0.0620(18) 0.9080(30) 0.8980(17)
H12 H -0.1500(20) 0.9150(30) 0.8710(20)
H13 H -0.2230(20) 0.8360(30) 0.7610(20)
H14 H -0.1860(20) 0.7460(30) 0.8740(20)
H15 H -0.2065(17) 0.7080(30) 0.6249(16)
H16 H -0.1713(17) 0.4680(30) 0.5669(18)
H17 H -0.0609(15) 0.5200(20) 0.5151(14)
H18 H -0.2710(20) 0.9030(30) 0.3126(19)
H19 H -0.3160(20) 0.7630(40) 0.2570(30)
H20 H -0.3428(19) 0.8000(30) 0.3707(18)
H21 H -0.0530(20) 0.8200(30) 0.3110(20)
H22 H -0.0170(20) 0.6450(30) 0.3620(20)
H23 H -0.1120(20) 0.6740(30) 0.2480(20)
H24 H -0.0082(16) 0.6240(20) 0.9825(16)
H25 H -0.0265(17) 0.7810(20) 1.0267(16)
H26 H 0.1890(20) 0.9410(30) 1.1140(20)
H27 H 0.0833(18) 0.8880(30) 1.1744(17)
H28 H 0.3490(20) 0.9970(30) 1.2540(20)
H29 H 0.4670(19) 0.9610(30) 1.4305(18)
H30 H 0.2790(18) 0.5870(30) 1.4757(19)
H31 H 0.1647(18) 0.6290(30) 1.3026(18)
H32 H 0.4800(30) 0.9500(50) 1.6380(30)
H33 H 0.5550(20) 0.8210(30) 1.7040(20)
H34 H 0.5880(20) 0.8660(40) 1.5810(20)
loop_
_geom_bond_atom_site_label_1
_geom_bond_atom_site_label_2
_geom_bond_site_symmetry_1
_geom_bond_site_symmetry_2
O1 C1 1_555 1_555
O2 C1 1_555 1_555
O3 C2 1_555 1_555
O4 C4 1_555 1_555
O5 C14 1_555 1_555
O6 C13 1_555 1_555
O7 C18 1_555 1_555
O8 C23 1_555 1_555
C1 C5 1_555 1_555
C2 O1 1_555 1_555
C3 C2 1_555 1_555
C4 O2 1_555 1_555
C5 H1 1_555 1_555
C6 C1 1_555 1_555
C7 C3 1_555 1_555
C8 C7 1_555 1_555
C9 C8 1_555 1_555
C10 C9 1_555 1_555
C11 C3 1_555 1_555
C12 C10 1_555 1_555
C13 C9 1_555 1_555
C14 C13 1_555 1_555
C15 O5 1_555 1_555
C16 C15 1_555 1_555
C17 C15 1_555 1_555
C18 C11 1_555 1_555
C19 O7 1_555 1_555
C20 C19 1_555 1_555
C21 C20 1_555 1_555
C22 C21 1_555 1_555
C23 C22 1_555 1_555
C24 C23 1_555 1_555
C25 C20 1_555 1_555
C26 O8 1_555 1_555
H2 C5 1_555 1_555
H3 C5 1_555 1_555
H4 C6 1_555 1_555
H5 C6 1_555 1_555
H6 C6 1_555 1_555
H7 C7 1_555 1_555
H8 C7 1_555 1_555
H9 C8 1_555 1_555
H10 C8 1_555 1_555
H11 C11 1_555 1_555
H12 C12 1_555 1_555
H13 C12 1_555 1_555
H14 C12 1_555 1_555
H15 C13 1_555 1_555
H16 C14 1_555 1_555
H17 C14 1_555 1_555
H18 C16 1_555 1_555
H19 C16 1_555 1_555
H20 C16 1_555 1_555
H21 C17 1_555 1_555
H22 C17 1_555 1_555
H23 C17 1_555 1_555
H24 C18 1_555 1_555
H25 C18 1_555 1_555
H26 C19 1_555 1_555
H27 C19 1_555 1_555
H28 C21 1_555 1_555
H29 C22 1_555 1_555
H30 C24 1_555 1_555
H31 C25 1_555 1_555
H32 C26 1_555 1_555
H33 C26 1_555 1_555
H34 C26 1_555 1_555
O6 C15 1_555 1_555
C3 C4 1_555 1_555
C10 C11 1_555 1_555
C24 C25 1_555 1_555

#END
