
#######################################################################
#
#                 Cambridge Crystallographic Data Centre
#                                CCDC 
#
#######################################################################
#
# If this CIF has been generated from an entry in the Cambridge 
# Structural Database, then it will include bibliographic, chemical, 
# crystal, experimental, refinement or atomic coordinate data resulting 
# from the CCDC's data processing and validation procedures.
#
#######################################################################

data_BELBIG
_chemical_formula_moiety         'C15 H11 F4 N1 O2 S1'
_chemical_name_systematic        
1,1,1-trifluoro-N-[5-fluoro-2-(2-phenylethenyl)phenyl]methanesulfonamide
_symmetry_cell_setting           orthorhombic
_symmetry_space_group_name_H-M   'P b c a'
_symmetry_Int_Tables_number      61
_space_group_name_Hall           '-P 2ac 2ab'
loop_
_symmetry_equiv_pos_site_id
_symmetry_equiv_pos_as_xyz
1 x,y,z
2 1/2-x,-y,1/2+z
3 1/2+x,1/2-y,-z
4 -x,1/2+y,1/2-z
5 -x,-y,-z
6 1/2+x,y,1/2-z
7 1/2-x,1/2+y,z
8 x,1/2-y,1/2+z
_cell_length_a                   9.3189(6)
_cell_length_b                   17.4284(11)
_cell_length_c                   17.8836(16)
_cell_angle_alpha                90
_cell_angle_beta                 90
_cell_angle_gamma                90
_cell_volume                     2904.54
_cell_formula_units_Z            8
loop_
_atom_site_label
_atom_site_type_symbol
_atom_site_fract_x
_atom_site_fract_y
_atom_site_fract_z
C1 C 0.2263(2) 0.44484(14) 0.66753(17)
C2 C 0.1328(3) 0.38774(14) 0.69108(18)
H1 H 0.1347 0.3697 0.7412
C3 C 0.0384(3) 0.35823(14) 0.6405(2)
C4 C 0.0358(3) 0.38080(15) 0.56692(19)
H2 H -0.0306 0.3588 0.5328
C5 C 0.1320(3) 0.43619(14) 0.54381(19)
H3 H 0.1328 0.4513 0.4928
C6 C 0.2282(3) 0.47068(13) 0.59349(17)
C7 C 0.3290(3) 0.52997(14) 0.56911(17)
H4 H 0.4010 0.5445 0.6040
C8 C 0.3308(3) 0.56560(15) 0.50375(17)
H5 H 0.2590 0.5517 0.4686
C9 C 0.4347(3) 0.62511(14) 0.48073(17)
C10 C 0.5468(3) 0.64930(15) 0.52639(19)
H6 H 0.5572 0.6279 0.5749
C11 C 0.6433(3) 0.70415(15) 0.50197(19)
H7 H 0.7193 0.7201 0.5338
C12 C 0.6300(3) 0.73568(15) 0.4319(2)
H8 H 0.6968 0.7731 0.4153
C13 C 0.5190(3) 0.71282(15) 0.3856(2)
H9 H 0.5091 0.7347 0.3372
C14 C 0.4225(3) 0.65784(15) 0.41000(19)
H10 H 0.3467 0.6422 0.3779
C15 C 0.2597(3) 0.62754(15) 0.74896(19)
F1 F 0.16144(17) 0.62906(9) 0.69609(11)
F2 F 0.38424(18) 0.64901(9) 0.71969(11)
F3 F 0.22483(19) 0.67677(9) 0.80191(12)
F4 F -0.05566(17) 0.30387(10) 0.66438(12)
N1 N 0.3231(2) 0.47653(11) 0.72208(13)
H11 H 0.4149 0.4653 0.7183
O1 O 0.13014(18) 0.51289(10) 0.81015(12)
O2 O 0.38516(19) 0.53585(10) 0.84244(12)
S1 S 0.27373(7) 0.53101(3) 0.78920(4)
loop_
_geom_bond_atom_site_label_1
_geom_bond_atom_site_label_2
_geom_bond_site_symmetry_1
_geom_bond_site_symmetry_2
C1 C2 1_555 1_555
C2 H1 1_555 1_555
C3 C2 1_555 1_555
C4 C3 1_555 1_555
H2 C4 1_555 1_555
C5 C4 1_555 1_555
H3 C5 1_555 1_555
C6 C1 1_555 1_555
C7 C6 1_555 1_555
H4 C7 1_555 1_555
C8 C7 1_555 1_555
H5 C8 1_555 1_555
C9 C8 1_555 1_555
C10 C9 1_555 1_555
H6 C10 1_555 1_555
C11 C10 1_555 1_555
H7 C11 1_555 1_555
C12 C11 1_555 1_555
H8 C12 1_555 1_555
C13 C12 1_555 1_555
H9 C13 1_555 1_555
C14 C9 1_555 1_555
H10 C14 1_555 1_555
C15 F1 1_555 1_555
F2 C15 1_555 1_555
F3 C15 1_555 1_555
F4 C3 1_555 1_555
N1 C1 1_555 1_555
H11 N1 1_555 1_555
O1 S1 1_555 1_555
O2 S1 1_555 1_555
S1 C15 1_555 1_555
C5 C6 1_555 1_555
C13 C14 1_555 1_555
N1 S1 1_555 1_555

#END
