
#######################################################################
#
#                 Cambridge Crystallographic Data Centre
#                                CCDC 
#
#######################################################################
#
# If this CIF has been generated from an entry in the Cambridge 
# Structural Database, then it will include bibliographic, chemical, 
# crystal, experimental, refinement or atomic coordinate data resulting 
# from the CCDC's data processing and validation procedures.
#
#######################################################################

data_BELDOO
_chemical_formula_moiety         'C21 H18 O2'
_chemical_name_systematic        
3-(1-phenyl-1,2-dihydronaphtho[2,1-b]furan-2-yl)prop-2-en-1-ol
_symmetry_cell_setting           monoclinic
_symmetry_space_group_name_H-M   'P 21'
_symmetry_Int_Tables_number      4
_space_group_name_Hall           'P 2yb'
loop_
_symmetry_equiv_pos_site_id
_symmetry_equiv_pos_as_xyz
1 x,y,z
2 -x,1/2+y,-z
_cell_length_a                   5.51350(10)
_cell_length_b                   9.1589(2)
_cell_length_c                   15.7434(3)
_cell_angle_alpha                90
_cell_angle_beta                 92.8320(10)
_cell_angle_gamma                90
_cell_volume                     794.033
_exptl_crystal_colour            colorless
_exptl_crystal_description       plate
_cell_formula_units_Z            2
loop_
_atom_site_label
_atom_site_type_symbol
_atom_site_fract_x
_atom_site_fract_y
_atom_site_fract_z
O1 O 0.8647(3) 0.73690(18) 0.14957(9)
O2 O 0.0689(3) 0.8683(3) -0.00433(14)
H1 H 0.005406 0.851559 0.040672
C1 C 0.8865(3) 0.7604(2) 0.23538(13)
C2 C 1.0635(4) 0.8524(2) 0.27344(16)
H2 H 1.176932 0.899132 0.241114
C3 C 1.0643(4) 0.8711(2) 0.35932(17)
H3 H 1.181823 0.930755 0.385734
C4 C 0.8910(4) 0.8021(2) 0.40960(14)
C5 C 0.8857(5) 0.8250(3) 0.49821(16)
H4 H 1.000290 0.886226 0.524963
C6 C 0.7171(5) 0.7596(3) 0.54497(16)
H5 H 0.715706 0.776933 0.603150
C7 C 0.5439(5) 0.6655(3) 0.50568(15)
H6 H 0.428770 0.620789 0.538197
C8 C 0.5432(4) 0.6390(2) 0.42046(13)
H7 H 0.428637 0.575693 0.395507
C9 C 0.7149(3) 0.7070(2) 0.36967(12)
C10 C 0.7198(3) 0.6876(2) 0.28062(12)
C11 C 0.5600(3) 0.5976(2) 0.22060(12)
H8 H 0.392037 0.631476 0.223656
C12 C 0.6549(4) 0.6416(2) 0.13220(12)
H9 H 0.706354 0.553869 0.102286
C13 C 0.4680(4) 0.7207(2) 0.07838(13)
H10 H 0.425914 0.814359 0.095156
C14 C 0.3598(5) 0.6690(3) 0.01011(14)
H11 H 0.417920 0.581237 -0.010528
C15 C 0.1496(5) 0.7375(4) -0.03874(18)
C16 C 0.5661(3) 0.43343(19) 0.23460(11)
C17 C 0.3803(3) 0.3484(2) 0.19838(14)
H12 H 0.251272 0.392828 0.168170
C18 C 0.3852(4) 0.1979(3) 0.20677(16)
H13 H 0.259017 0.142113 0.182450
C19 C 0.5751(4) 0.1304(2) 0.25080(15)
H14 H 0.578420 0.029306 0.256036
C20 C 0.7605(4) 0.2136(2) 0.28711(14)
H15 H 0.889305 0.168637 0.317175
C21 C 0.7557(3) 0.3640(2) 0.27898(13)
H16 H 0.881822 0.419247 0.303723
H17 H 0.196(5) 0.755(3) -0.100(2)
H18 H 0.013(6) 0.659(4) -0.044(2)
loop_
_geom_bond_atom_site_label_1
_geom_bond_atom_site_label_2
_geom_bond_site_symmetry_1
_geom_bond_site_symmetry_2
O1 C1 1_555 1_555
O2 H1 1_555 1_555
C1 C2 1_555 1_555
C2 H2 1_555 1_555
C3 C2 1_555 1_555
H3 C3 1_555 1_555
C4 C3 1_555 1_555
C5 C4 1_555 1_555
H4 C5 1_555 1_555
C6 C5 1_555 1_555
H5 C6 1_555 1_555
C7 C6 1_555 1_555
H6 C7 1_555 1_555
C8 C7 1_555 1_555
H7 C8 1_555 1_555
C9 C4 1_555 1_555
C10 C1 1_555 1_555
C11 C10 1_555 1_555
H8 C11 1_555 1_555
C12 O1 1_555 1_555
H9 C12 1_555 1_555
C13 C12 1_555 1_555
H10 C13 1_555 1_555
C14 C13 1_555 1_555
H11 C14 1_555 1_555
C15 O2 1_555 1_555
C16 C11 1_555 1_555
C17 C16 1_555 1_555
H12 C17 1_555 1_555
C18 C17 1_555 1_555
H13 C18 1_555 1_555
C19 C18 1_555 1_555
H14 C19 1_555 1_555
C20 C19 1_555 1_555
H15 C20 1_555 1_555
C21 C16 1_555 1_555
H16 C21 1_555 1_555
H17 C15 1_555 1_555
H18 C15 1_555 1_555
C8 C9 1_555 1_555
C9 C10 1_555 1_555
C11 C12 1_555 1_555
C14 C15 1_555 1_555
C20 C21 1_555 1_555

#END
