
#######################################################################
#
#                 Cambridge Crystallographic Data Centre
#                                CCDC 
#
#######################################################################
#
# If this CIF has been generated from an entry in the Cambridge 
# Structural Database, then it will include bibliographic, chemical, 
# crystal, experimental, refinement or atomic coordinate data resulting 
# from the CCDC's data processing and validation procedures.
#
#######################################################################

data_BELPEQ
_chemical_formula_moiety         'C13 H13 B1 Cl1 N1 O4'
_chemical_name_systematic        
(1-chloro-2-phenylethenyl)[2,2'-(methylazanediyl)bis(acetato)]boron
_symmetry_cell_setting           monoclinic
_symmetry_space_group_name_H-M   'P 21/c'
_symmetry_Int_Tables_number      14
_space_group_name_Hall           '-P 2ybc'
loop_
_symmetry_equiv_pos_site_id
_symmetry_equiv_pos_as_xyz
1 x,y,z
2 -x,1/2+y,1/2-z
3 -x,-y,-z
4 x,1/2-y,1/2+z
_cell_length_a                   12.1046(3)
_cell_length_b                   8.97956(18)
_cell_length_c                   12.8635(3)
_cell_angle_alpha                90
_cell_angle_beta                 98.915(3)
_cell_angle_gamma                90
_cell_volume                     1381.29
_cell_formula_units_Z            4
loop_
_atom_site_label
_atom_site_type_symbol
_atom_site_fract_x
_atom_site_fract_y
_atom_site_fract_z
Cl1 Cl 0.33863(4) 0.11220(6) 0.03173(4)
O1 O 0.09348(13) 0.22279(16) -0.01077(12)
O2 O 0.10594(15) 0.44676(18) -0.08338(12)
O3 O -0.10800(15) 0.12141(19) 0.21459(15)
O4 O 0.03113(13) 0.06956(17) 0.12465(13)
C1 C 0.2385(2) -0.1009(2) 0.13334(19)
C2 C 0.24133(19) 0.2686(3) 0.26112(17)
C3 C 0.11934(19) 0.3660(2) -0.00726(17)
N1 N 0.14936(15) 0.28738(19) 0.17152(14)
C4 C 0.17001(19) 0.4143(2) 0.10204(16)
C5 C -0.02196(19) 0.1556(2) 0.18560(18)
C6 C 0.22921(19) 0.0347(2) 0.09063(17)
C7 C 0.32978(19) -0.2111(2) 0.14284(19)
B1 B 0.1260(2) 0.1440(3) 0.09020(19)
C8 C 0.03911(18) 0.3014(2) 0.21100(17)
C9 C 0.3949(2) -0.2375(3) 0.0638(2)
C10 C 0.4971(2) -0.4282(3) 0.1689(3)
C11 C 0.4332(2) -0.4037(3) 0.2475(2)
C12 C 0.35006(19) -0.2967(3) 0.2342(2)
C13 C 0.4779(2) -0.3461(3) 0.0776(3)
H1 H 0.30694(19) -0.2816(3) 0.2872(2)
H2 H 0.4462(2) -0.4591(3) 0.3092(2)
H3 H 0.5530(2) -0.5003(3) 0.1777(3)
H4 H 0.5207(2) -0.3632(3) 0.0247(3)
H5 H 0.3826(2) -0.1824(3) 0.0018(2)
H6 H 0.1764(2) -0.1313(2) 0.16228(19)
H7 H 0.3108(3) 0.256(2) 0.23490(18)
H8 H 0.2456(10) 0.3553(9) 0.3053(8)
H9 H 0.2271(8) 0.1825(12) 0.3012(9)
H10 H 0.24953(19) 0.4326(2) 0.10600(16)
H11 H 0.13441(19) 0.5044(2) 0.12211(16)
H12 H 0.05096(18) 0.3191(2) 0.28630(17)
H13 H -0.00386(18) 0.3835(2) 0.17639(17)
loop_
_geom_bond_atom_site_label_1
_geom_bond_atom_site_label_2
_geom_bond_site_symmetry_1
_geom_bond_site_symmetry_2
Cl1 C6 1_555 1_555
O1 C3 1_555 1_555
O2 C3 1_555 1_555
O3 C5 1_555 1_555
O4 C5 1_555 1_555
C1 C6 1_555 1_555
C2 N1 1_555 1_555
C3 C4 1_555 1_555
N1 C4 1_555 1_555
C4 H10 1_555 1_555
C5 C8 1_555 1_555
C6 B1 1_555 1_555
C7 C1 1_555 1_555
B1 O1 1_555 1_555
C8 N1 1_555 1_555
C9 C7 1_555 1_555
C10 C11 1_555 1_555
C11 C12 1_555 1_555
C12 C7 1_555 1_555
C13 C9 1_555 1_555
H1 C12 1_555 1_555
H2 C11 1_555 1_555
H3 C10 1_555 1_555
H4 C13 1_555 1_555
H5 C9 1_555 1_555
H6 C1 1_555 1_555
H7 C2 1_555 1_555
H8 C2 1_555 1_555
H9 C2 1_555 1_555
H11 C4 1_555 1_555
H12 C8 1_555 1_555
H13 C8 1_555 1_555
O4 B1 1_555 1_555
N1 B1 1_555 1_555
C10 C13 1_555 1_555

#END
