
#######################################################################
#
#                 Cambridge Crystallographic Data Centre
#                                CCDC 
#
#######################################################################
#
# If this CIF has been generated from an entry in the Cambridge 
# Structural Database, then it will include bibliographic, chemical, 
# crystal, experimental, refinement or atomic coordinate data resulting 
# from the CCDC's data processing and validation procedures.
#
#######################################################################

data_BELPIU
_chemical_formula_moiety         'C13 H19 B1 Cl1 N1 O4'
_chemical_name_systematic        
(1-chloro-2-cyclohexylethenyl)[2,2'-(methylazanediyl)bis(acetato)]boron
_symmetry_cell_setting           monoclinic
_symmetry_space_group_name_H-M   'P 21/c'
_symmetry_Int_Tables_number      14
_space_group_name_Hall           '-P 2ybc'
loop_
_symmetry_equiv_pos_site_id
_symmetry_equiv_pos_as_xyz
1 x,y,z
2 -x,1/2+y,1/2-z
3 -x,-y,-z
4 x,1/2-y,1/2+z
_cell_length_a                   13.04925(19)
_cell_length_b                   9.91241(11)
_cell_length_c                   12.58464(19)
_cell_angle_alpha                90
_cell_angle_beta                 112.2614(17)
_cell_angle_gamma                90
_cell_volume                     1506.49
_exptl_crystal_colour            colorless
_exptl_crystal_description       plate
_cell_formula_units_Z            4
loop_
_atom_site_label
_atom_site_type_symbol
_atom_site_fract_x
_atom_site_fract_y
_atom_site_fract_z
Cl1 Cl 0.32173(2) 0.34129(3) 0.13321(3)
O1 O 0.01286(7) 0.41887(9) -0.11451(7)
O2 O 0.06602(7) 0.26555(9) 0.04944(7)
O3 O 0.08277(8) 0.05968(9) 0.12695(8)
O4 O -0.12719(7) 0.38528(10) -0.28317(8)
N1 N 0.12064(8) 0.21693(11) -0.10809(8)
C1 C 0.22052(11) 0.56285(14) 0.01852(11)
C2 C -0.04400(10) 0.34683(13) -0.20775(11)
C3 C 0.09360(10) 0.13634(13) 0.05733(10)
B1 B 0.10331(12) 0.34246(14) -0.03150(12)
C4 C 0.31824(11) 0.65255(13) 0.07704(12)
C5 C 0.20896(11) 0.23543(15) -0.15511(11)
C6 C 0.20935(10) 0.43192(13) 0.03187(10)
C7 C 0.14312(11) 0.09882(13) -0.02952(10)
C8 C 0.28178(11) 0.78297(14) 0.11761(12)
C9 C 0.47553(12) 0.77938(16) 0.05204(14)
C10 C 0.37750(12) 0.68427(16) -0.00462(13)
C11 C 0.43900(12) 0.90907(15) 0.09174(14)
C12 C 0.37882(12) 0.88000(16) 0.17233(13)
C13 C 0.00869(10) 0.21004(13) -0.20409(10)
H1 H 0.15759(11) 0.60619(14) -0.03596(11)
H2 H 0.37107(11) 0.60402(13) 0.14558(12)
H3 H 0.1938(5) 0.3172(6) -0.2023(7)
H4 H 0.28099(15) 0.2440(11) -0.09160(11)
H5 H 0.2100(6) 0.1572(5) -0.2023(7)
H6 H 0.10769(11) 0.01645(13) -0.07213(10)
H7 H 0.22374(11) 0.08279(13) 0.00871(10)
H8 H 0.22442(11) 0.82780(14) 0.05135(12)
H9 H 0.24846(11) 0.76082(14) 0.17424(12)
H10 H 0.53160(12) 0.73364(16) 0.11874(14)
H11 H 0.51032(12) 0.80121(16) -0.00342(14)
H12 H 0.40428(12) 0.59933(16) -0.02653(13)
H13 H 0.32460(12) 0.72663(16) -0.07539(13)
H14 H 0.50465(12) 0.96602(15) 0.13192(14)
H15 H 0.38921(12) 0.95973(15) 0.02409(14)
H16 H 0.35092(12) 0.96566(16) 0.19168(13)
H17 H 0.43151(12) 0.84019(16) 0.24449(13)
H18 H 0.01628(10) 0.19072(13) -0.27794(10)
H19 H -0.03690(10) 0.13829(13) -0.18913(10)
loop_
_geom_bond_atom_site_label_1
_geom_bond_atom_site_label_2
_geom_bond_site_symmetry_1
_geom_bond_site_symmetry_2
Cl1 C6 1_555 1_555
O1 C2 1_555 1_555
O2 C3 1_555 1_555
O3 C3 1_555 1_555
O4 C2 1_555 1_555
N1 B1 1_555 1_555
C1 C4 1_555 1_555
C2 C13 1_555 1_555
C3 C7 1_555 1_555
B1 O1 1_555 1_555
C4 C8 1_555 1_555
C5 N1 1_555 1_555
C6 C1 1_555 1_555
C7 N1 1_555 1_555
C8 C12 1_555 1_555
C9 C10 1_555 1_555
C10 C4 1_555 1_555
C11 C9 1_555 1_555
C12 C11 1_555 1_555
C13 N1 1_555 1_555
H1 C1 1_555 1_555
H2 C4 1_555 1_555
H3 C5 1_555 1_555
H4 C5 1_555 1_555
H5 C5 1_555 1_555
H6 C7 1_555 1_555
H7 C7 1_555 1_555
H8 C8 1_555 1_555
H9 C8 1_555 1_555
H10 C9 1_555 1_555
H11 C9 1_555 1_555
H12 C10 1_555 1_555
H13 C10 1_555 1_555
H14 C11 1_555 1_555
H15 C11 1_555 1_555
H16 C12 1_555 1_555
H17 C12 1_555 1_555
H18 C13 1_555 1_555
H19 C13 1_555 1_555
O2 B1 1_555 1_555
B1 C6 1_555 1_555

#END
