
#######################################################################
#
#                 Cambridge Crystallographic Data Centre
#                                CCDC 
#
#######################################################################
#
# If this CIF has been generated from an entry in the Cambridge 
# Structural Database, then it will include bibliographic, chemical, 
# crystal, experimental, refinement or atomic coordinate data resulting 
# from the CCDC's data processing and validation procedures.
#
#######################################################################

data_BELYUN01
_chemical_formula_moiety         'C55 H27 Cl10 N5,C1 H2 Cl2'
_chemical_name_systematic        
'5,10,15,20,25-pentakis(2,6-dichlorophenyl)-(24)N-fused-pentaphyrin dichloromethane solvate'
_symmetry_cell_setting           monoclinic
_symmetry_space_group_name_H-M   'P 21/n'
_symmetry_Int_Tables_number      14
_space_group_name_Hall           '-P 2yn'
loop_
_symmetry_equiv_pos_site_id
_symmetry_equiv_pos_as_xyz
1 x,y,z
2 1/2-x,1/2+y,1/2-z
3 -x,-y,-z
4 1/2+x,1/2-y,1/2+z
_cell_length_a                   18.43(1)
_cell_length_b                   14.65(1)
_cell_length_c                   20.89(1)
_cell_angle_alpha                90
_cell_angle_beta                 113.37(3)
_cell_angle_gamma                90
_cell_volume                     5177.57
_exptl_crystal_colour            violet
_exptl_crystal_description       prism
_cell_formula_units_Z            4
_exptl_crystal_recrystallization_method dichloromethane/n-hexane
loop_
_atom_site_label
_atom_site_type_symbol
_atom_site_fract_x
_atom_site_fract_y
_atom_site_fract_z
Cl1 Cl 0.7832(1) -0.2680(2) 0.5661(1)
Cl2 Cl 0.5569(1) -0.0873(2) 0.3547(1)
Cl3 Cl 0.7657(1) 0.2518(2) 0.3176(1)
Cl4 Cl 1.0427(1) 0.0890(2) 0.4739(1)
Cl5 Cl 1.1559(1) 0.2812(2) 0.6052(1)
Cl6 Cl 0.9554(1) 0.5390(2) 0.6264(1)
Cl7 Cl 0.9523(1) 0.3947(2) 0.9094(1)
Cl8 Cl 1.1481(1) 0.1072(2) 0.9474(1)
Cl9 Cl 0.6631(1) 0.0868(2) 0.7430(1)
Cl10 Cl 0.8699(1) -0.1751(2) 0.7422(1)
N1 N 0.7469(3) -0.0531(5) 0.6070(3)
N2 N 0.7913(3) 0.0268(5) 0.4725(3)
N3 N 0.9582(3) 0.2396(5) 0.5412(3)
N4 N 1.0077(3) 0.2736(5) 0.7420(3)
N5 N 0.9175(3) 0.1340(5) 0.7688(3)
C1 C 0.7976(4) 0.0162(6) 0.6488(4)
C2 C 0.8271(4) 0.0652(5) 0.6065(4)
C3 C 0.7945(4) 0.0238(6) 0.5398(4)
C4 C 0.7466(4) -0.0491(6) 0.5432(4)
C5 C 0.7164(4) -0.0970(6) 0.4788(4)
C6 C 0.7453(4) -0.0520(6) 0.4365(4)
C7 C 0.7512(4) -0.0552(6) 0.3701(4)
C8 C 0.7988(4) 0.0124(6) 0.3665(4)
C9 C 0.8262(4) 0.0666(6) 0.4294(4)
C10 C 0.8724(4) 0.1411(6) 0.4425(4)
C11 C 0.8849(4) 0.2020(5) 0.5021(4)
C12 C 0.8324(4) 0.2419(6) 0.5230(4)
C13 C 0.8726(4) 0.3000(5) 0.5786(4)
C14 C 0.9508(4) 0.2968(6) 0.5901(4)
C15 C 1.0183(4) 0.3461(6) 0.6415(4)
C16 C 1.0402(4) 0.3349(6) 0.7089(4)
C17 C 1.0962(4) 0.3876(6) 0.7684(4)
C18 C 1.0950(4) 0.3558(6) 0.8273(4)
C19 C 1.0390(4) 0.2819(6) 0.8114(4)
C20 C 1.0154(4) 0.2340(6) 0.8563(4)
C21 C 0.9564(4) 0.1627(6) 0.8365(4)
C22 C 0.9302(4) 0.1174(7) 0.8833(4)
C23 C 0.8726(4) 0.0588(6) 0.8469(4)
C24 C 0.8646(4) 0.0688(6) 0.7744(4)
C25 C 0.8102(4) 0.0197(6) 0.7200(4)
C26 C 0.6685(4) -0.1803(7) 0.4602(4)
C27 C 0.6917(4) -0.2638(7) 0.4968(4)
C28 C 0.6463(6) -0.3420(7) 0.4799(5)
C29 C 0.5735(6) -0.3410(8) 0.4252(5)
C30 C 0.5494(5) -0.2624(8) 0.3893(5)
C31 C 0.5942(5) -0.1829(7) 0.4050(4)
C32 C 0.9046(4) 0.1722(6) 0.3926(4)
C33 C 0.8627(4) 0.2247(6) 0.3325(4)
C34 C 0.8943(5) 0.2555(6) 0.2881(4)
C35 C 0.9723(5) 0.2362(7) 0.3009(4)
C36 C 1.0163(4) 0.1858(6) 0.3553(5)
C37 C 0.9852(4) 0.1525(5) 0.4005(4)
C38 C 1.0590(5) 0.4152(7) 0.6145(4)
C39 C 1.1223(5) 0.3940(7) 0.5950(4)
C40 C 1.1565(5) 0.459(1) 0.5687(5)
C41 C 1.1275(7) 0.5482(9) 0.5602(5)
C42 C 1.0645(7) 0.5698(8) 0.5773(5)
C43 C 1.0310(6) 0.5078(8) 0.6049(4)
C44 C 1.0547(4) 0.2540(6) 0.9322(4)
C45 C 1.0320(4) 0.3289(6) 0.9625(4)
C46 C 1.0706(5) 0.3525(7) 1.0313(4)
C47 C 1.1302(5) 0.2980(8) 1.0744(5)
C48 C 1.1531(4) 0.2227(7) 1.0491(4)
C49 C 1.1168(4) 0.2014(6) 0.9792(4)
C50 C 0.7639(4) -0.0510(6) 0.7418(4)
C51 C 0.6945(4) -0.0256(6) 0.7504(4)
C52 C 0.6510(4) -0.0903(7) 0.7691(3)
C53 C 0.6718(5) -0.1807(7) 0.7746(4)
C54 C 0.7383(4) -0.2065(6) 0.7642(4)
C55 C 0.7845(4) -0.1417(6) 0.7500(4)
H1 H 0.7176 -0.0951 0.6220
H2 H 1.0060 0.2269 0.5357
H3 H 0.9683 0.2299 0.7175
H4 H 0.8626 0.1154 0.6203
H5 H 0.7258 -0.0995 0.3352
H6 H 0.8123 0.0227 0.3277
H7 H 0.7771 0.2303 0.5034
H8 H 0.8499 0.3352 0.6041
H9 H 1.1286 0.4358 0.7642
H10 H 1.1256 0.3789 0.8725
H11 H 0.9494 0.1266 0.9323
H12 H 0.8431 0.0192 0.8635
H13 H 0.6653 -0.3967 0.5055
H14 H 0.5416 -0.3943 0.4125
H15 H 0.4986 -0.2605 0.3521
H16 H 0.8630 0.2906 0.2485
H17 H 0.9948 0.2589 0.2703
H18 H 1.0696 0.1723 0.3633
H19 H 1.1988 0.4432 0.5557
H20 H 1.1512 0.5936 0.5423
H21 H 1.0446 0.6304 0.5701
H22 H 1.0542 0.4047 1.0491
H23 H 1.1568 0.3137 1.1223
H24 H 1.1938 0.1847 1.0798
H25 H 0.6063 -0.0723 0.7779
H26 H 0.6404 -0.2251 0.7849
H27 H 0.7522 -0.2692 0.7671
Cl11 Cl 1.0479(1) 0.0722(2) 0.6759(1)
Cl12 Cl 1.1534(1) -0.0277(2) 0.7975(1)
C56 C 1.0712(5) 0.0329(9) 0.7612(5)
H28 H 1.0291 -0.0057 0.7594
H29 H 1.0740 0.0840 0.7901
loop_
_geom_bond_atom_site_label_1
_geom_bond_atom_site_label_2
_geom_bond_site_symmetry_1
_geom_bond_site_symmetry_2
Cl1 C27 1_555 1_555
Cl2 C31 1_555 1_555
Cl3 C33 1_555 1_555
Cl4 C37 1_555 1_555
Cl5 C39 1_555 1_555
Cl6 C43 1_555 1_555
Cl7 C45 1_555 1_555
Cl8 C49 1_555 1_555
Cl9 C51 1_555 1_555
Cl10 C55 1_555 1_555
N1 C1 1_555 1_555
N2 C3 1_555 1_555
N3 C11 1_555 1_555
N4 C16 1_555 1_555
N5 C21 1_555 1_555
C1 C2 1_555 1_555
C2 C3 1_555 1_555
C3 C4 1_555 1_555
C4 N1 1_555 1_555
C5 C4 1_555 1_555
C6 N2 1_555 1_555
C7 C6 1_555 1_555
C8 C7 1_555 1_555
C9 N2 1_555 1_555
C10 C9 1_555 1_555
C11 C10 1_555 1_555
C12 C11 1_555 1_555
C13 C12 1_555 1_555
C14 N3 1_555 1_555
C15 C14 1_555 1_555
C16 C15 1_555 1_555
C17 C16 1_555 1_555
C18 C17 1_555 1_555
C19 N4 1_555 1_555
C20 C19 1_555 1_555
C21 C20 1_555 1_555
C22 C21 1_555 1_555
C23 C22 1_555 1_555
C24 N5 1_555 1_555
C25 C1 1_555 1_555
C26 C5 1_555 1_555
C27 C26 1_555 1_555
C28 C27 1_555 1_555
C29 C28 1_555 1_555
C30 C29 1_555 1_555
C31 C26 1_555 1_555
C32 C10 1_555 1_555
C33 C32 1_555 1_555
C34 C33 1_555 1_555
C35 C34 1_555 1_555
C36 C35 1_555 1_555
C37 C32 1_555 1_555
C38 C15 1_555 1_555
C39 C38 1_555 1_555
C40 C39 1_555 1_555
C41 C40 1_555 1_555
C42 C41 1_555 1_555
C43 C38 1_555 1_555
C44 C20 1_555 1_555
C45 C44 1_555 1_555
C46 C45 1_555 1_555
C47 C46 1_555 1_555
C48 C47 1_555 1_555
C49 C44 1_555 1_555
C50 C25 1_555 1_555
C51 C50 1_555 1_555
C52 C51 1_555 1_555
C53 C52 1_555 1_555
C54 C53 1_555 1_555
C55 C50 1_555 1_555
H1 N1 1_555 1_555
H2 N3 1_555 1_555
H3 N4 1_555 1_555
H4 C2 1_555 1_555
H5 C7 1_555 1_555
H6 C8 1_555 1_555
H7 C12 1_555 1_555
H8 C13 1_555 1_555
H9 C17 1_555 1_555
H10 C18 1_555 1_555
H11 C22 1_555 1_555
H12 C23 1_555 1_555
H13 C28 1_555 1_555
H14 C29 1_555 1_555
H15 C30 1_555 1_555
H16 C34 1_555 1_555
H17 C35 1_555 1_555
H18 C36 1_555 1_555
H19 C40 1_555 1_555
H20 C41 1_555 1_555
H21 C42 1_555 1_555
H22 C46 1_555 1_555
H23 C47 1_555 1_555
H24 C48 1_555 1_555
H25 C52 1_555 1_555
H26 C53 1_555 1_555
H27 C54 1_555 1_555
Cl11 C56 1_555 1_555
Cl12 C56 1_555 1_555
C56 H28 1_555 1_555
H29 C56 1_555 1_555
C5 C6 1_555 1_555
C8 C9 1_555 1_555
C13 C14 1_555 1_555
C18 C19 1_555 1_555
C23 C24 1_555 1_555
C24 C25 1_555 1_555
C30 C31 1_555 1_555
C36 C37 1_555 1_555
C42 C43 1_555 1_555
C48 C49 1_555 1_555
C54 C55 1_555 1_555

#END
