
#######################################################################
#
#                 Cambridge Crystallographic Data Centre
#                                CCDC 
#
#######################################################################
#
# If this CIF has been generated from an entry in the Cambridge 
# Structural Database, then it will include bibliographic, chemical, 
# crystal, experimental, refinement or atomic coordinate data resulting 
# from the CCDC's data processing and validation procedures.
#
#######################################################################

data_BEMDEF
_chemical_formula_moiety         'C13 H13 N1 O4 S1'
_chemical_name_systematic        
'benzyl 3-(2,5-dioxo-1,3-thiazolidin-4-yl)propanoate'
_symmetry_cell_setting           orthorhombic
_symmetry_space_group_name_H-M   'P 21 21 21'
_symmetry_Int_Tables_number      19
_space_group_name_Hall           'P 2ac 2ab'
loop_
_symmetry_equiv_pos_site_id
_symmetry_equiv_pos_as_xyz
1 x,y,z
2 1/2-x,-y,1/2+z
3 -x,1/2+y,1/2-z
4 1/2+x,1/2-y,-z
_cell_length_a                   5.7099(14)
_cell_length_b                   14.528(3)
_cell_length_c                   15.139(3)
_cell_angle_alpha                90
_cell_angle_beta                 90
_cell_angle_gamma                90
_cell_volume                     1255.83
_exptl_crystal_colour            colorless
_exptl_crystal_description       needle
_cell_formula_units_Z            4
loop_
_atom_site_label
_atom_site_type_symbol
_atom_site_fract_x
_atom_site_fract_y
_atom_site_fract_z
S1 S 0.74175(5) 1.02648(2) 0.36672(2)
O1 O 1.08946(14) 0.94718(6) 0.45488(6)
O2 O 0.37711(17) 0.97390(6) 0.27264(7)
O3 O 0.25971(14) 0.54906(6) 0.37667(8)
O4 O 0.05239(16) 0.67602(5) 0.40590(7)
N1 N 0.82565(15) 0.85199(6) 0.38515(7)
H1 H 0.901(3) 0.8029(14) 0.3971(12)
C1 C 0.62323(16) 0.85016(6) 0.32732(6)
H2 H 0.6711 0.8238 0.2691
C2 C 0.54731(19) 0.94995(6) 0.31360(7)
C3 C 0.41769(15) 0.79427(6) 0.36344(7)
H3 H 0.3863 0.8139 0.4249
H4 H 0.2765 0.8083 0.3279
C4 C 0.45837(17) 0.69058(6) 0.36246(7)
H5 H 0.5143 0.6715 0.3033
H6 H 0.5808 0.6745 0.4061
C5 C 0.23573(18) 0.63982(6) 0.38431(6)
C6 C 0.91683(16) 0.93361(6) 0.41024(6)
C7 C 0.05360(16) 0.49507(6) 0.39620(7)
H7 H -0.0731 0.5100 0.3539
H8 H -0.0026 0.5088 0.4566
C8 C 0.11871(15) 0.39502(6) 0.38877(6)
C9 C -0.03946(16) 0.33500(6) 0.34882(6)
H9 H -0.1828 0.3581 0.3259
C10 C 0.01102(18) 0.24141(6) 0.34221(7)
H10 H -0.0973 0.2011 0.3144
C11 C 0.21930(17) 0.20679(6) 0.37622(7)
H11 H 0.2532 0.1429 0.3720
C12 C 0.37813(17) 0.26645(6) 0.41651(7)
H12 H 0.5203 0.2430 0.4401
C13 C 0.32936(16) 0.36052(6) 0.42239(6)
H13 H 0.4391 0.4010 0.4492
O5? O 0.344(3) 0.9633(13) 0.2927(12)
O6? O 0.309(4) 0.5460(12) 0.3714(16)
O7? O 0.139(3) 0.6796(10) 0.3946(10)
N2? N 0.792(3) 0.8528(13) 0.4140(13)
H14? H 0.8531 0.8037 0.4393
C14? C 0.559(3) 0.8492(10) 0.3757(11)
H15? H 0.4441 0.8390 0.4245
C15? C 0.515(4) 0.9450(13) 0.3366(15)
C16? C 0.521(3) 0.7762(10) 0.3075(11)
H16? H 0.6424 0.7831 0.2612
H17? H 0.3670 0.7865 0.2794
C17? C 0.530(3) 0.6774(11) 0.3426(13)
H18? H 0.5854 0.6368 0.2945
H19? H 0.6474 0.6747 0.3906
C18? C 0.312(3) 0.6407(11) 0.3759(14)
loop_
_geom_bond_atom_site_label_1
_geom_bond_atom_site_label_2
_geom_bond_site_symmetry_1
_geom_bond_site_symmetry_2
S1 C2 1_555 1_555
O1 C6 1_555 1_555
O2 C2 1_555 1_555
O3 C5 1_555 1_555
O4 C5 1_555 1_555
N1 H1 1_555 1_555
C1 N1 1_555 1_555
H2 C1 1_555 1_555
C2 C1 1_555 1_555
C3 C1 1_555 1_555
H3 C3 1_555 1_555
H4 C3 1_555 1_555
C4 C3 1_555 1_555
H5 C4 1_555 1_555
H6 C4 1_555 1_555
C5 C4 1_555 1_555
C6 S1 1_555 1_555
C7 O3 1_555 1_555
H7 C7 1_555 1_555
H8 C7 1_555 1_555
C8 C7 1_555 1_555
C9 C8 1_555 1_555
H9 C9 1_555 1_555
C10 C9 1_555 1_555
H10 C10 1_555 1_555
C11 C10 1_555 1_555
H11 C11 1_555 1_555
C12 C11 1_555 1_555
H12 C12 1_555 1_555
C13 C8 1_555 1_555
H13 C13 1_555 1_555
N1 C6 1_555 1_555
C12 C13 1_555 1_555

#END
