
#######################################################################
#
#                 Cambridge Crystallographic Data Centre
#                                CCDC 
#
#######################################################################
#
# If this CIF has been generated from an entry in the Cambridge 
# Structural Database, then it will include bibliographic, chemical, 
# crystal, experimental, refinement or atomic coordinate data resulting 
# from the CCDC's data processing and validation procedures.
#
#######################################################################

data_BEMDUU
_chemical_formula_moiety         'C24 H23 N1 O1,C1 H2 Cl2'
_chemical_name_systematic        
'2-((2,6-Diisopropylphenyl)imino)acenaphthylen-1(2H)-one dichloromethane solvate'
_symmetry_cell_setting           orthorhombic
_symmetry_space_group_name_H-M   'P 21 21 21'
_symmetry_Int_Tables_number      19
_space_group_name_Hall           'P 2ac 2ab'
loop_
_symmetry_equiv_pos_site_id
_symmetry_equiv_pos_as_xyz
1 x,y,z
2 1/2-x,-y,1/2+z
3 1/2+x,1/2-y,-z
4 -x,1/2+y,1/2-z
_cell_length_a                   9.5786(5)
_cell_length_b                   15.0627(8)
_cell_length_c                   15.6115(9)
_cell_angle_alpha                90
_cell_angle_beta                 90
_cell_angle_gamma                90
_cell_volume                     2252.42
_exptl_crystal_colour            red
_exptl_crystal_description       block
_cell_formula_units_Z            4
loop_
_atom_site_label
_atom_site_type_symbol
_atom_site_fract_x
_atom_site_fract_y
_atom_site_fract_z
Cl1 Cl 0.6240(3) 0.64062(14) 0.17947(16)
Cl2 Cl 0.82804(18) 0.68091(9) 0.30834(9)
C25 C 0.7251(6) 0.7227(3) 0.2254(4)
H24 H 0.6649 0.7691 0.2476
H25 H 0.7848 0.7487 0.1820
O1 O 0.5230(3) 0.37024(18) 0.24343(17)
N1 N 0.4118(3) 0.44914(19) 0.39717(18)
C1 C 0.5433(3) 0.4454(2) 0.3823(2)
C2 C 0.5964(4) 0.4044(2) 0.2981(2)
C3 C 0.7486(4) 0.4143(2) 0.2989(2)
C4 C 0.8519(4) 0.3911(3) 0.2419(2)
H1 H 0.8301 0.3641 0.1900
C5 C 0.9906(4) 0.4090(3) 0.2641(3)
H2 H 1.0608 0.3936 0.2258
C6 C 1.0272(4) 0.4483(3) 0.3401(3)
H3 H 1.1208 0.4587 0.3523
C7 C 0.9233(4) 0.4733(2) 0.4003(2)
C8 C 0.9427(4) 0.5138(3) 0.4809(3)
H4 H 1.0326 0.5274 0.4991
C9 C 0.8316(4) 0.5334(3) 0.5328(3)
H5 H 0.8477 0.5604 0.5854
C10 C 0.6913(4) 0.5135(3) 0.5080(2)
H6 H 0.6171 0.5266 0.5443
C11 C 0.6682(4) 0.4749(2) 0.4300(2)
C12 C 0.7848(4) 0.4547(2) 0.3770(2)
C13 C 0.3602(3) 0.4886(2) 0.4740(2)
C14 C 0.3152(4) 0.4318(2) 0.5403(2)
C15 C 0.2525(4) 0.4705(3) 0.6117(2)
H7 H 0.2233 0.4344 0.6567
C16 C 0.2329(4) 0.5607(3) 0.6173(2)
H8 H 0.1892 0.5850 0.6651
C17 C 0.2778(4) 0.6152(3) 0.5521(3)
H9 H 0.2645 0.6762 0.5568
C18 C 0.3429(4) 0.5812(2) 0.4788(2)
C19 C 0.3889(5) 0.6421(3) 0.4068(3)
H10 H 0.4552 0.6091 0.3711
C20 C 0.2664(6) 0.6679(4) 0.3509(4)
H11 H 0.2267 0.6155 0.3256
H12 H 0.2976 0.7072 0.3065
H13 H 0.1970 0.6972 0.3851
C21 C 0.4629(7) 0.7246(4) 0.4396(4)
H14 H 0.3995 0.7590 0.4738
H15 H 0.4941 0.7596 0.3919
H16 H 0.5417 0.7075 0.4737
C22 C 0.3366(5) 0.3323(3) 0.5352(3)
H17 H 0.3822 0.3188 0.4805
C23 C 0.1983(7) 0.2843(3) 0.5371(5)
H18 H 0.2132 0.2221 0.5276
H19 H 0.1387 0.3075 0.4931
H20 H 0.1550 0.2929 0.5920
C24 C 0.4292(6) 0.2995(3) 0.6060(4)
H21 H 0.3849 0.3101 0.6602
H22 H 0.5168 0.3304 0.6041
H23 H 0.4452 0.2370 0.5991
loop_
_geom_bond_atom_site_label_1
_geom_bond_atom_site_label_2
_geom_bond_site_symmetry_1
_geom_bond_site_symmetry_2
Cl1 C25 1_555 1_555
Cl2 C25 1_555 1_555
O1 C2 1_555 1_555
N1 C1 1_555 1_555
C1 C2 1_555 1_555
C2 C3 1_555 1_555
C3 C4 1_555 1_555
C4 H1 1_555 1_555
C5 C4 1_555 1_555
H2 C5 1_555 1_555
C6 C5 1_555 1_555
H3 C6 1_555 1_555
C7 C6 1_555 1_555
C8 C7 1_555 1_555
H4 C8 1_555 1_555
C9 C8 1_555 1_555
H5 C9 1_555 1_555
C10 C9 1_555 1_555
H6 C10 1_555 1_555
C11 C1 1_555 1_555
C12 C3 1_555 1_555
C13 N1 1_555 1_555
C14 C13 1_555 1_555
C15 C14 1_555 1_555
H7 C15 1_555 1_555
C16 C15 1_555 1_555
H8 C16 1_555 1_555
C17 C16 1_555 1_555
H9 C17 1_555 1_555
C18 C13 1_555 1_555
C19 C18 1_555 1_555
H10 C19 1_555 1_555
C20 C19 1_555 1_555
H11 C20 1_555 1_555
H12 C20 1_555 1_555
H13 C20 1_555 1_555
C21 C19 1_555 1_555
H14 C21 1_555 1_555
H15 C21 1_555 1_555
H16 C21 1_555 1_555
C22 C14 1_555 1_555
H17 C22 1_555 1_555
C23 C22 1_555 1_555
H18 C23 1_555 1_555
H19 C23 1_555 1_555
H20 C23 1_555 1_555
C24 C22 1_555 1_555
H21 C24 1_555 1_555
H22 C24 1_555 1_555
H23 C24 1_555 1_555
C25 H24 1_555 1_555
H25 C25 1_555 1_555
C7 C12 1_555 1_555
C10 C11 1_555 1_555
C11 C12 1_555 1_555
C17 C18 1_555 1_555

#END
