
#######################################################################
#
#                 Cambridge Crystallographic Data Centre
#                                CCDC 
#
#######################################################################
#
# If this CIF has been generated from an entry in the Cambridge 
# Structural Database, then it will include bibliographic, chemical, 
# crystal, experimental, refinement or atomic coordinate data resulting 
# from the CCDC's data processing and validation procedures.
#
#######################################################################

data_BEMSAP
_chemical_compound_source        'leaves of I . eriocalyx var. laxiflora'
_chemical_name_common            'laxiflorolide A'
_chemical_formula_moiety         'C22 H30 O7'
_chemical_name_systematic        
6-Hydroxy-13-(3-hydroxy-5-methyl-2-oxotetrahydrofuran-3-yl)-3,17-epoxypodocarpane-1,7-dione
_symmetry_cell_setting           orthorhombic
_symmetry_space_group_name_H-M   'P 21 21 21'
_symmetry_Int_Tables_number      19
_space_group_name_Hall           'P 2ac 2ab'
loop_
_symmetry_equiv_pos_site_id
_symmetry_equiv_pos_as_xyz
1 x,y,z
2 1/2+x,1/2-y,-z
3 -x,1/2+y,1/2-z
4 1/2-x,-y,1/2+z
_cell_length_a                   6.41970(10)
_cell_length_b                   11.1749(2)
_cell_length_c                   27.6949(5)
_cell_angle_alpha                90
_cell_angle_beta                 90
_cell_angle_gamma                90
_cell_volume                     1986.82
_exptl_crystal_colour            colorless
_exptl_crystal_description       needle
_cell_formula_units_Z            4
loop_
_atom_site_label
_atom_site_type_symbol
_atom_site_fract_x
_atom_site_fract_y
_atom_site_fract_z
O1 O 1.0388(4) 0.5094(3) 0.87673(10)
O2 O 0.3013(4) 0.6816(2) 0.98865(7)
O3 O 0.5327(3) 0.4931(2) 1.00919(6)
H1 H 0.4393 0.5291 1.0247
O4 O 0.2262(3) 1.1041(2) 0.90417(7)
H2 H 0.1849 1.0696 0.9294
O5 O -0.0891(4) 0.9829(2) 0.81577(7)
O6 O -0.1192(3) 0.9407(2) 0.89397(7)
O7 O 0.5144(5) 0.4772(2) 0.80608(8)
C1 C -0.0525(5) 1.1249(3) 0.75092(11)
H3 H -0.1438 1.0796 0.7293
H4 H 0.0479 1.1709 0.7318
H5 H -0.1365 1.1798 0.7705
C2 C 0.0625(5) 1.0397(3) 0.78353(10)
H6 H 0.1313 0.9768 0.7634
C3 C 0.2237(5) 1.0958(3) 0.81703(10)
H7 H 0.1916 1.1813 0.8228
H8 H 0.3650 1.0895 0.8030
C4 C 0.2093(5) 1.0241(3) 0.86417(10)
C5 C 0.3688(5) 0.9219(3) 0.86780(10)
H9 H 0.5091 0.9598 0.8711
C6 C 0.3341(5) 0.8446(3) 0.91351(9)
H10 H 0.3416 0.8965 0.9424
H11 H 0.1928 0.8092 0.9123
C7 C 0.4938(5) 0.7443(3) 0.91843(9)
H12 H 0.6336 0.7817 0.9235
C8 C 0.4477(5) 0.6665(3) 0.96138(9)
C9 C 0.5996(5) 0.5657(3) 0.97008(9)
H13 H 0.7375 0.6014 0.9787
C10 C 0.6297(5) 0.4858(3) 0.92501(10)
H14 H 0.4989 0.4386 0.9203
C11 C 0.8145(6) 0.3946(3) 0.93165(11)
C12 C 0.9735(6) 0.4300(4) 0.97133(12)
H15 H 0.9054 0.4276 1.0030
H16 H 1.0252 0.5110 0.9651
H17 H 1.0905 0.3736 0.9710
C13 C 0.9387(6) 0.3944(3) 0.88430(12)
H18 H 1.0480 0.3307 0.8860
C14 C 0.8946(5) 0.6067(3) 0.87924(11)
H19 H 0.9186 0.6610 0.8516
H20 H 0.9200 0.6526 0.9092
C15 C 0.6651(5) 0.5637(3) 0.87854(10)
C16 C 0.5064(5) 0.6640(3) 0.87295(9)
H21 H 0.3668 0.6257 0.8687
C17 C 0.5438(5) 0.7450(3) 0.82866(9)
H22 H 0.6815 0.7840 0.8318
H23 H 0.5465 0.6949 0.7992
C18 C 0.3779(5) 0.8402(3) 0.82319(9)
H24 H 0.2407 0.8015 0.8185
H25 H 0.4081 0.8891 0.7942
C19 C 0.7312(7) 0.2716(3) 0.94324(14)
H26 H 0.6457 0.2430 0.9163
H27 H 0.6461 0.2755 0.9726
H28 H 0.8478 0.2164 0.9484
C20 C -0.0156(5) 0.9773(3) 0.86118(10)
C21 C 0.6456(6) 0.4720(3) 0.83752(10)
C22 C 0.8044(7) 0.3729(4) 0.84075(11)
H29 H 0.7332 0.2946 0.8436
H30 H 0.8913 0.3717 0.8112
loop_
_geom_bond_atom_site_label_1
_geom_bond_atom_site_label_2
_geom_bond_site_symmetry_1
_geom_bond_site_symmetry_2
O1 C13 1_555 1_555
O2 C8 1_555 1_555
O3 H1 1_555 1_555
O4 H2 1_555 1_555
O5 C2 1_555 1_555
O6 C20 1_555 1_555
O7 C21 1_555 1_555
C1 H3 1_555 1_555
H4 C1 1_555 1_555
H5 C1 1_555 1_555
C2 C1 1_555 1_555
H6 C2 1_555 1_555
C3 C2 1_555 1_555
H7 C3 1_555 1_555
H8 C3 1_555 1_555
C4 O4 1_555 1_555
C5 C4 1_555 1_555
H9 C5 1_555 1_555
C6 C5 1_555 1_555
H10 C6 1_555 1_555
H11 C6 1_555 1_555
C7 C6 1_555 1_555
H12 C7 1_555 1_555
C8 C7 1_555 1_555
C9 O3 1_555 1_555
H13 C9 1_555 1_555
C10 C9 1_555 1_555
H14 C10 1_555 1_555
C11 C10 1_555 1_555
C12 C11 1_555 1_555
H15 C12 1_555 1_555
H16 C12 1_555 1_555
H17 C12 1_555 1_555
C13 C11 1_555 1_555
H18 C13 1_555 1_555
C14 O1 1_555 1_555
H19 C14 1_555 1_555
H20 C14 1_555 1_555
C15 C10 1_555 1_555
C16 C7 1_555 1_555
H21 C16 1_555 1_555
C17 C16 1_555 1_555
H22 C17 1_555 1_555
H23 C17 1_555 1_555
C18 C5 1_555 1_555
H24 C18 1_555 1_555
H25 C18 1_555 1_555
C19 C11 1_555 1_555
H26 C19 1_555 1_555
H27 C19 1_555 1_555
H28 C19 1_555 1_555
C20 O5 1_555 1_555
C21 C15 1_555 1_555
C22 C13 1_555 1_555
H29 C22 1_555 1_555
H30 C22 1_555 1_555
C3 C4 1_555 1_555
C4 C20 1_555 1_555
C8 C9 1_555 1_555
C14 C15 1_555 1_555
C15 C16 1_555 1_555
C17 C18 1_555 1_555
C21 C22 1_555 1_555

#END
