
#######################################################################
#
#                 Cambridge Crystallographic Data Centre
#                                CCDC 
#
#######################################################################
#
# If this CIF has been generated from an entry in the Cambridge 
# Structural Database, then it will include bibliographic, chemical, 
# crystal, experimental, refinement or atomic coordinate data resulting 
# from the CCDC's data processing and validation procedures.
#
#######################################################################

data_BEMZOK
_chemical_formula_moiety         'C6 H4 Br1 N2 O4 S1 1-,K1 1+,H2 O1'
_chemical_name_systematic        
'Potassium bromo[(2-nitrophenyl)sulfonyl]azanide monohydrate'
_symmetry_cell_setting           monoclinic
_symmetry_space_group_name_H-M   'P 21/c'
_symmetry_Int_Tables_number      14
_space_group_name_Hall           '-P 2ybc'
loop_
_symmetry_equiv_pos_site_id
_symmetry_equiv_pos_as_xyz
1 x,y,z
2 -x,1/2+y,1/2-z
3 -x,-y,-z
4 x,1/2-y,1/2+z
_cell_length_a                   13.034(2)
_cell_length_b                   12.815(2)
_cell_length_c                   6.7741(9)
_cell_angle_alpha                90
_cell_angle_beta                 100.650(10)
_cell_angle_gamma                90
_cell_volume                     1111.99
_exptl_crystal_colour            yellow
_exptl_crystal_description       prism
_cell_formula_units_Z            4
loop_
_atom_site_label
_atom_site_type_symbol
_atom_site_fract_x
_atom_site_fract_y
_atom_site_fract_z
C1 C 0.2873(3) -0.0123(3) 0.3340(6)
C2 C 0.3529(3) 0.0693(3) 0.3079(6)
C3 C 0.4505(3) 0.0546(4) 0.2573(6)
H1 H 0.4930 0.1113 0.2430
C4 C 0.4833(4) -0.0463(4) 0.2286(7)
H2 H 0.5488 -0.0583 0.1975
C5 C 0.4173(4) -0.1291(4) 0.2469(7)
H3 H 0.4377 -0.1966 0.2221
C6 C 0.3214(4) -0.1127(3) 0.3015(7)
H4 H 0.2791 -0.1695 0.3167
Br1 Br 0.24804(4) -0.10055(4) 0.78959(7)
N1 N 0.1510(3) -0.1035(3) 0.5411(6)
N2 N 0.3214(3) 0.1792(3) 0.3257(5)
O1 O 0.1685(3) 0.0941(2) 0.5295(5)
O2 O 0.0840(3) -0.0085(2) 0.2371(5)
O3 O 0.2363(3) 0.2061(3) 0.2308(5)
O4 O 0.3826(3) 0.2369(3) 0.4304(6)
S1 S 0.16307(8) -0.00155(7) 0.41728(15)
K1 K 0.09562(9) 0.13045(8) 0.88211(15)
O5 O -0.0180(3) 0.2758(3) 0.6363(6)
H5 H -0.066(3) 0.240(3) 0.566(7)
H6 H -0.044(4) 0.326(3) 0.689(8)
loop_
_geom_bond_atom_site_label_1
_geom_bond_atom_site_label_2
_geom_bond_site_symmetry_1
_geom_bond_site_symmetry_2
C1 C2 1_555 1_555
C2 C3 1_555 1_555
C3 H1 1_555 1_555
C4 C3 1_555 1_555
H2 C4 1_555 1_555
C5 C4 1_555 1_555
H3 C5 1_555 1_555
C6 C1 1_555 1_555
H4 C6 1_555 1_555
Br1 N1 1_555 1_555
N1 S1 1_555 1_555
N2 C2 1_555 1_555
O1 S1 1_555 1_555
O2 S1 1_555 1_555
O3 N2 1_555 1_555
O4 N2 1_555 1_555
S1 C1 1_555 1_555
O5 H5 1_555 1_555
H6 O5 1_555 1_555
C5 C6 1_555 1_555

#END
