
#######################################################################
#
#                 Cambridge Crystallographic Data Centre
#                                CCDC 
#
#######################################################################
#
# If this CIF has been generated from an entry in the Cambridge 
# Structural Database, then it will include bibliographic, chemical, 
# crystal, experimental, refinement or atomic coordinate data resulting 
# from the CCDC's data processing and validation procedures.
#
#######################################################################

data_BENJEM
_chemical_formula_moiety         'C23 H36 N4 O4'
_chemical_name_systematic        
1-cycloheptadecylidene-2-(2,4-dinitrophenyl)hydrazine
_symmetry_cell_setting           triclinic
_symmetry_space_group_name_H-M   'P -1'
_symmetry_Int_Tables_number      2
_space_group_name_Hall           '-P 1'
loop_
_symmetry_equiv_pos_site_id
_symmetry_equiv_pos_as_xyz
1 x,y,z
2 -x,-y,-z
_cell_length_a                   11.0454(18)
_cell_length_b                   11.673(2)
_cell_length_c                   18.277(3)
_cell_angle_alpha                94.338(8)
_cell_angle_beta                 98.091(6)
_cell_angle_gamma                91.698(7)
_cell_volume                     2324.43
_exptl_crystal_colour            yellow
_exptl_crystal_description       platelet
_cell_formula_units_Z            4
loop_
_atom_site_label
_atom_site_type_symbol
_atom_site_fract_x
_atom_site_fract_y
_atom_site_fract_z
O1 O 0.25625(11) 1.10236(9) 0.51431(6)
O2 O 0.23139(13) 1.02724(11) 0.61569(7)
O3 O 0.38209(15) 0.66882(13) 0.67684(8)
O4 O 0.44541(13) 0.55437(12) 0.59222(9)
N1 N 0.41683(11) 0.97112(11) 0.34928(7)
N2 N 0.36553(11) 0.99005(11) 0.41437(7)
N3 N 0.26963(12) 1.02326(11) 0.55579(7)
N4 N 0.41184(13) 0.64803(14) 0.61486(10)
C1 C 0.39337(13) 1.04432(14) 0.30081(8)
C2 C 0.31127(14) 1.14377(14) 0.30724(9)
H1 H 0.3282 1.2002 0.2718
H2 H 0.3287 1.1825 0.3579
C3 C 0.17564(14) 1.10313(13) 0.29110(9)
H3 H 0.1585 1.0658 0.2401
H4 H 0.1600 1.0449 0.3257
C4 C 0.08929(15) 1.19990(14) 0.29878(10)
H5 H 0.1014 1.2558 0.2620
H6 H 0.1097 1.2403 0.3488
C5 C -0.04503(15) 1.15853(15) 0.28733(9)
H7 H -0.0562 1.1022 0.3239
H8 H -0.0954 1.2249 0.2978
C6 C -0.09320(15) 1.10330(14) 0.21034(9)
H9 H -0.0722 1.1543 0.1727
H10 H -0.0532 1.0295 0.2023
C7 C -0.23078(15) 1.08158(16) 0.20048(9)
H11 H -0.2688 1.1553 0.2120
H12 H -0.2498 1.0286 0.2375
C8 C -0.29117(15) 1.03122(16) 0.12399(9)
H13 H -0.3733 1.0632 0.1138
H14 H -0.2424 1.0578 0.0866
C9 C -0.30538(17) 0.90210(17) 0.11336(10)
H15 H -0.3615 0.8814 0.0667
H16 H -0.3456 0.8752 0.1544
C10 C -0.18925(16) 0.83633(15) 0.11023(9)
H17 H -0.2102 0.7529 0.1075
H18 H -0.1325 0.8562 0.1567
C11 C -0.12379(16) 0.86101(15) 0.04462(9)
H19 H -0.0857 0.9396 0.0534
H20 H -0.1850 0.8590 -0.0006
C12 C -0.02537(17) 0.77616(16) 0.03129(10)
H21 H 0.0041 0.7908 -0.0160
H22 H -0.0629 0.6973 0.0256
C13 C 0.08483(16) 0.78145(15) 0.09266(10)
H23 H 0.0546 0.7766 0.1409
H24 H 0.1342 0.7134 0.0846
C14 C 0.16701(15) 0.88861(14) 0.09718(8)
H25 H 0.1179 0.9567 0.1055
H26 H 0.1972 0.8937 0.0490
C15 C 0.27655(15) 0.89274(14) 0.15825(8)
H27 H 0.3263 0.8251 0.1500
H28 H 0.2469 0.8881 0.2066
C16 C 0.35705(15) 1.00202(15) 0.16106(9)
H29 H 0.3037 1.0686 0.1572
H30 H 0.4010 0.9977 0.1174
C17 C 0.45125(15) 1.02364(16) 0.23131(9)
H31 H 0.5035 0.9564 0.2362
H32 H 0.5046 1.0913 0.2261
C18 C 0.37814(13) 0.90989(13) 0.46418(8)
C19 C 0.33317(13) 0.92298(13) 0.53338(8)
C20 C 0.34642(14) 0.83787(14) 0.58314(9)
H33 H 0.3164 0.8479 0.6293
C21 C 0.40348(14) 0.73950(14) 0.56434(10)
C22 C 0.44929(14) 0.72284(14) 0.49702(10)
H34 H 0.4889 0.6541 0.4852
C23 C 0.43657(14) 0.80638(14) 0.44840(9)
H35 H 0.4678 0.7947 0.4027
H36 H 0.3258(15) 1.0622(9) 0.4230(11)
O5 O 0.25805(11) 0.36182(10) 0.47027(6)
O6 O 0.26852(13) 0.44345(11) 0.36917(7)
O7 O 0.10814(15) 0.80665(12) 0.32558(7)
O8 O 0.05901(12) 0.91509(11) 0.41766(8)
N5 N 0.12168(11) 0.48193(11) 0.64725(6)
N6 N 0.15823(11) 0.46484(11) 0.57779(6)
N7 N 0.23858(12) 0.44339(12) 0.43141(7)
N8 N 0.08907(13) 0.82312(13) 0.39031(8)
C24 C 0.14319(13) 0.40082(13) 0.69028(8)
C25 C 0.20390(14) 0.29019(13) 0.67314(8)
H37 H 0.1656 0.2558 0.6238
H38 H 0.1884 0.2359 0.7102
C26 C 0.34302(14) 0.30397(14) 0.67319(8)
H39 H 0.3762 0.2265 0.6673
H40 H 0.3575 0.3448 0.6295
C27 C 0.41434(14) 0.36845(13) 0.74220(8)
H41 H 0.3866 0.4482 0.7464
H42 H 0.3965 0.3310 0.7866
C28 C 0.55193(15) 0.37133(15) 0.74068(9)
H43 H 0.5689 0.4055 0.6951
H44 H 0.5797 0.2914 0.7383
C29 C 0.62604(16) 0.43942(15) 0.80769(10)
H45 H 0.5944 0.4182 0.8531
H46 H 0.7122 0.4168 0.8114
C30 C 0.62284(16) 0.56919(15) 0.80497(9)
H47 H 0.5366 0.5911 0.7945
H48 H 0.6652 0.5919 0.7637
C31 C 0.68344(16) 0.63574(16) 0.87753(11)
H49 H 0.7596 0.5980 0.8960
H50 H 0.7063 0.7148 0.8669
C32 C 0.60136(16) 0.64253(16) 0.93838(9)
H51 H 0.5587 0.5668 0.9385
H52 H 0.6536 0.6582 0.9870
C33 C 0.50684(16) 0.73342(15) 0.93029(10)
H53 H 0.4555 0.7192 0.8813
H54 H 0.5491 0.8098 0.9319
C34 C 0.42422(17) 0.73511(17) 0.99094(10)
H55 H 0.4763 0.7338 1.0396
H56 H 0.3811 0.8083 0.9912
C35 C 0.32982(17) 0.63622(16) 0.98252(9)
H57 H 0.3718 0.5636 0.9742
H58 H 0.2962 0.6333 1.0298
C36 C 0.22387(16) 0.64141(14) 0.92038(9)
H59 H 0.2550 0.6335 0.8721
H60 H 0.1867 0.7173 0.9249
C37 C 0.12657(16) 0.54726(14) 0.92205(8)
H61 H 0.0977 0.5548 0.9710
H62 H 0.1647 0.4719 0.9174
C38 C 0.01601(15) 0.54763(15) 0.86187(9)
H63 H -0.0251 0.6212 0.8683
H64 H -0.0426 0.4850 0.8689
C39 C 0.04568(15) 0.53259(14) 0.78242(8)
H65 H -0.0307 0.5369 0.7474
H66 H 0.1020 0.5965 0.7744
C40 C 0.10402(15) 0.41915(13) 0.76575(8)
H67 H 0.1766 0.4131 0.8035
H68 H 0.0451 0.3559 0.7713
C41 C 0.14014(13) 0.54870(13) 0.53100(8)
C42 C 0.17745(13) 0.54211(13) 0.45946(8)
C43 C 0.15917(14) 0.63123(14) 0.41336(8)
H69 H 0.1846 0.6253 0.3657
C44 C 0.10409(14) 0.72763(14) 0.43748(9)
C45 C 0.06351(14) 0.73792(14) 0.50693(9)
H70 H 0.0245 0.8052 0.5224
C46 C 0.08084(13) 0.65000(13) 0.55214(8)
H71 H 0.0525 0.6567 0.5989
H72 H 0.1990(16) 0.3955(10) 0.5638(11)
loop_
_geom_bond_atom_site_label_1
_geom_bond_atom_site_label_2
_geom_bond_site_symmetry_1
_geom_bond_site_symmetry_2
O1 N3 1_555 1_555
O2 N3 1_555 1_555
O3 N4 1_555 1_555
O4 N4 1_555 1_555
N1 N2 1_555 1_555
N2 C18 1_555 1_555
N3 C19 1_555 1_555
N4 C21 1_555 1_555
C1 N1 1_555 1_555
C2 C1 1_555 1_555
H1 C2 1_555 1_555
H2 C2 1_555 1_555
C3 C2 1_555 1_555
H3 C3 1_555 1_555
H4 C3 1_555 1_555
C4 C3 1_555 1_555
H5 C4 1_555 1_555
H6 C4 1_555 1_555
C5 C4 1_555 1_555
H7 C5 1_555 1_555
H8 C5 1_555 1_555
C6 C5 1_555 1_555
H9 C6 1_555 1_555
H10 C6 1_555 1_555
C7 C6 1_555 1_555
H11 C7 1_555 1_555
H12 C7 1_555 1_555
C8 C7 1_555 1_555
H13 C8 1_555 1_555
H14 C8 1_555 1_555
C9 C8 1_555 1_555
H15 C9 1_555 1_555
H16 C9 1_555 1_555
C10 C9 1_555 1_555
H17 C10 1_555 1_555
H18 C10 1_555 1_555
C11 C10 1_555 1_555
H19 C11 1_555 1_555
H20 C11 1_555 1_555
C12 C11 1_555 1_555
H21 C12 1_555 1_555
H22 C12 1_555 1_555
C13 C12 1_555 1_555
H23 C13 1_555 1_555
H24 C13 1_555 1_555
C14 C13 1_555 1_555
H25 C14 1_555 1_555
H26 C14 1_555 1_555
C15 C14 1_555 1_555
H27 C15 1_555 1_555
H28 C15 1_555 1_555
C16 C15 1_555 1_555
H29 C16 1_555 1_555
H30 C16 1_555 1_555
C17 C1 1_555 1_555
H31 C17 1_555 1_555
H32 C17 1_555 1_555
C18 C19 1_555 1_555
C19 C20 1_555 1_555
C20 H33 1_555 1_555
C21 C20 1_555 1_555
C22 C21 1_555 1_555
H34 C22 1_555 1_555
C23 C18 1_555 1_555
H35 C23 1_555 1_555
H36 N2 1_555 1_555
O5 N7 1_555 1_555
O6 N7 1_555 1_555
O7 N8 1_555 1_555
O8 N8 1_555 1_555
N5 N6 1_555 1_555
N6 C41 1_555 1_555
N7 C42 1_555 1_555
N8 C44 1_555 1_555
C24 N5 1_555 1_555
C25 C24 1_555 1_555
H37 C25 1_555 1_555
H38 C25 1_555 1_555
C26 C25 1_555 1_555
H39 C26 1_555 1_555
H40 C26 1_555 1_555
C27 C26 1_555 1_555
H41 C27 1_555 1_555
H42 C27 1_555 1_555
C28 C27 1_555 1_555
H43 C28 1_555 1_555
H44 C28 1_555 1_555
C29 C28 1_555 1_555
H45 C29 1_555 1_555
H46 C29 1_555 1_555
C30 C29 1_555 1_555
H47 C30 1_555 1_555
H48 C30 1_555 1_555
C31 C30 1_555 1_555
H49 C31 1_555 1_555
H50 C31 1_555 1_555
C32 C31 1_555 1_555
H51 C32 1_555 1_555
H52 C32 1_555 1_555
C33 C32 1_555 1_555
H53 C33 1_555 1_555
H54 C33 1_555 1_555
C34 C33 1_555 1_555
H55 C34 1_555 1_555
H56 C34 1_555 1_555
C35 C34 1_555 1_555
H57 C35 1_555 1_555
H58 C35 1_555 1_555
C36 C35 1_555 1_555
H59 C36 1_555 1_555
H60 C36 1_555 1_555
C37 C36 1_555 1_555
H61 C37 1_555 1_555
H62 C37 1_555 1_555
C38 C37 1_555 1_555
H63 C38 1_555 1_555
H64 C38 1_555 1_555
C39 C38 1_555 1_555
H65 C39 1_555 1_555
H66 C39 1_555 1_555
C40 C24 1_555 1_555
H67 C40 1_555 1_555
H68 C40 1_555 1_555
C41 C42 1_555 1_555
C42 C43 1_555 1_555
C43 H69 1_555 1_555
C44 C43 1_555 1_555
C45 C44 1_555 1_555
H70 C45 1_555 1_555
C46 C41 1_555 1_555
H71 C46 1_555 1_555
H72 N6 1_555 1_555
C16 C17 1_555 1_555
C22 C23 1_555 1_555
C39 C40 1_555 1_555
C45 C46 1_555 1_555

#END
