
#######################################################################
#
#                 Cambridge Crystallographic Data Centre
#                                CCDC 
#
#######################################################################
#
# If this CIF has been generated from an entry in the Cambridge 
# Structural Database, then it will include bibliographic, chemical, 
# crystal, experimental, refinement or atomic coordinate data resulting 
# from the CCDC's data processing and validation procedures.
#
#######################################################################

data_BENJOW
_chemical_formula_moiety         'C17 H28 F4 O1'
_chemical_name_systematic        8,8,11,11-tetrafluorocycloheptadecanone
_symmetry_cell_setting           triclinic
_symmetry_space_group_name_H-M   'P -1'
_symmetry_Int_Tables_number      2
_space_group_name_Hall           '-P 1'
loop_
_symmetry_equiv_pos_site_id
_symmetry_equiv_pos_as_xyz
1 x,y,z
2 -x,-y,-z
_cell_length_a                   5.5442(13)
_cell_length_b                   10.435(3)
_cell_length_c                   15.409(4)
_cell_angle_alpha                88.30(3)
_cell_angle_beta                 80.49(3)
_cell_angle_gamma                81.88(3)
_cell_volume                     870.383
_exptl_crystal_colour            colorless
_exptl_crystal_description       needle
_cell_formula_units_Z            2
loop_
_atom_site_label
_atom_site_type_symbol
_atom_site_fract_x
_atom_site_fract_y
_atom_site_fract_z
F1 F 0.9818(3) 0.62883(17) 0.38194(10)
F2 F 0.5797(3) 0.63417(18) 0.41117(11)
F3 F 0.5051(4) 0.6312(2) 0.11958(13)
F4 F 0.3477(3) 0.4510(3) 0.14050(12)
O1 O 1.6492(11) -0.0849(5) 0.2414(4)
C1 C 1.4299(16) -0.0822(5) 0.2480(5)
C2 C 1.2562(10) -0.0791(4) 0.3365(4)
H1 H 1.0911 -0.0343 0.3291
H2 H 1.2381 -0.1688 0.3565
C3 C 1.3542(8) -0.0100(4) 0.4056(4)
H3 H 1.5281 -0.0474 0.4065
H4 H 1.2580 -0.0256 0.4640
C4 C 1.3415(7) 0.1363(4) 0.3899(3)
H5 H 1.4477 0.1707 0.4267
H6 H 1.4097 0.1518 0.3275
C5 C 1.0827(6) 0.2110(3) 0.4102(2)
H7 H 0.9690 0.1676 0.3816
H8 H 1.0255 0.2093 0.4745
C6 C 1.0713(5) 0.3506(3) 0.37897(18)
H9 H 1.1063 0.3521 0.3139
H10 H 1.2019 0.3901 0.4008
C7 C 0.8234(5) 0.4318(3) 0.40950(17)
H11 H 0.6908 0.3838 0.3974
H12 H 0.8026 0.4431 0.4740
C8 C 0.7915(5) 0.5633(3) 0.36671(17)
C9 C 0.7824(5) 0.5703(3) 0.26948(17)
H13 H 0.9384 0.5244 0.2371
H14 H 0.7683 0.6620 0.2502
C10 C 0.5648(5) 0.5101(3) 0.24668(18)
H15 H 0.5742 0.4203 0.2697
H16 H 0.4093 0.5593 0.2770
C11 C 0.5548(5) 0.5078(4) 0.14978(19)
C12 C 0.7721(5) 0.4385(4) 0.09029(18)
H17 H 0.9129 0.4880 0.0875
H18 H 0.7308 0.4371 0.0303
C13 C 0.8517(7) 0.3018(4) 0.1181(2)
H19 H 0.7060 0.2551 0.1286
H20 H 0.9155 0.3035 0.1743
C14 C 1.0513(8) 0.2274(5) 0.0498(3)
H21 H 0.9948 0.2350 -0.0080
H22 H 1.2031 0.2689 0.0444
C15 C 1.1142(14) 0.0868(7) 0.0709(5)
H23 H 0.9615 0.0456 0.0813
H24 H 1.2258 0.0433 0.0202
C16 C 1.2357(11) 0.0701(6) 0.1500(5)
H25 H 1.1243 0.1136 0.2007
H26 H 1.3886 0.1111 0.1396
C17 C 1.3011(17) -0.0781(7) 0.1720(6)
H27 H 1.1491 -0.1194 0.1865
H28 H 1.4088 -0.1237 0.1213
H29? H 1.1604 0.2880 0.0196
H30? H 0.9719 0.1907 0.0051
C18? C 1.209(3) 0.1166(14) 0.0932(11)
H31? H 1.3384 0.0740 0.0471
H32? H 1.2921 0.1550 0.1360
C19? C 1.063(2) 0.0117(12) 0.1412(9)
H33? H 0.9826 -0.0344 0.1010
H34? H 0.9392 0.0468 0.1918
H35? H 1.2596 -0.1671 0.1700
H36? H 1.4345 -0.0720 0.1213
loop_
_geom_bond_atom_site_label_1
_geom_bond_atom_site_label_2
_geom_bond_site_symmetry_1
_geom_bond_site_symmetry_2
F1 C8 1_555 1_555
F2 C8 1_555 1_555
F3 C11 1_555 1_555
F4 C11 1_555 1_555
O1 C1 1_555 1_555
C1 C2 1_555 1_555
C2 H1 1_555 1_555
H2 C2 1_555 1_555
C3 C2 1_555 1_555
H3 C3 1_555 1_555
H4 C3 1_555 1_555
C4 C3 1_555 1_555
H5 C4 1_555 1_555
H6 C4 1_555 1_555
C5 C4 1_555 1_555
H7 C5 1_555 1_555
H8 C5 1_555 1_555
C6 C5 1_555 1_555
H9 C6 1_555 1_555
H10 C6 1_555 1_555
C7 C6 1_555 1_555
H11 C7 1_555 1_555
H12 C7 1_555 1_555
C8 C7 1_555 1_555
C9 C8 1_555 1_555
H13 C9 1_555 1_555
H14 C9 1_555 1_555
C10 C9 1_555 1_555
H15 C10 1_555 1_555
H16 C10 1_555 1_555
C11 C10 1_555 1_555
C12 C11 1_555 1_555
H17 C12 1_555 1_555
H18 C12 1_555 1_555
C13 C12 1_555 1_555
H19 C13 1_555 1_555
H20 C13 1_555 1_555
C14 C13 1_555 1_555
H21 C14 1_555 1_555
H22 C14 1_555 1_555
C15 C14 1_555 1_555
H23 C15 1_555 1_555
H24 C15 1_555 1_555
C16 C15 1_555 1_555
H25 C16 1_555 1_555
H26 C16 1_555 1_555
C17 C1 1_555 1_555
H27 C17 1_555 1_555
H28 C17 1_555 1_555
C16 C17 1_555 1_555

#END
