
#######################################################################
#
#                 Cambridge Crystallographic Data Centre
#                                CCDC 
#
#######################################################################
#
# If this CIF has been generated from an entry in the Cambridge 
# Structural Database, then it will include bibliographic, chemical, 
# crystal, experimental, refinement or atomic coordinate data resulting 
# from the CCDC's data processing and validation procedures.
#
#######################################################################

data_BENJUC
_chemical_formula_moiety         'C17 H26 F4 O1'
_chemical_name_systematic        7,7,10,10-tetrafluorocycloheptadec-8-en-1-one
_symmetry_cell_setting           orthorhombic
_symmetry_space_group_name_H-M   'P n a 21'
_symmetry_Int_Tables_number      33
_space_group_name_Hall           'P 2c -2n'
loop_
_symmetry_equiv_pos_site_id
_symmetry_equiv_pos_as_xyz
1 x,y,z
2 1/2-x,1/2+y,1/2+z
3 1/2+x,1/2-y,z
4 -x,-y,1/2+z
_cell_length_a                   19.037(4)
_cell_length_b                   17.002(4)
_cell_length_c                   5.2685(14)
_cell_angle_alpha                90
_cell_angle_beta                 90
_cell_angle_gamma                90
_cell_volume                     1705.24
_exptl_crystal_colour            colorless
_exptl_crystal_description       platelet
_cell_formula_units_Z            4
loop_
_atom_site_label
_atom_site_type_symbol
_atom_site_fract_x
_atom_site_fract_y
_atom_site_fract_z
F1 F 0.13940(15) 0.43291(16) 0.3691(8)
F2 F 0.16951(15) 0.47483(19) 0.7463(7)
F3 F 0.21291(14) 0.62112(19) 0.8394(6)
F4 F 0.32744(15) 0.6122(2) 0.8428(7)
O1 O -0.06420(19) 0.8234(2) 0.3464(9)
C1 C -0.0415(2) 0.8119(3) 0.1340(11)
C2 C -0.0602(2) 0.7396(3) -0.0142(12)
H1 H -0.0712 0.7547 -0.1913
H2 H -0.1028 0.7154 0.0602
C3 C -0.0004(2) 0.6789(3) -0.0146(10)
H3 H -0.0132 0.6352 -0.1297
H4 H 0.0425 0.7041 -0.0832
C4 C 0.0161(2) 0.6451(3) 0.2479(10)
H5 H 0.0292 0.6884 0.3643
H6 H -0.0263 0.6192 0.3171
C5 C 0.0759(2) 0.5859(3) 0.2348(11)
H7 H 0.1174 0.6111 0.1560
H8 H 0.0616 0.5412 0.1259
C6 C 0.0959(2) 0.5550(3) 0.4984(11)
H9 H 0.1066 0.6003 0.6098
H10 H 0.0550 0.5272 0.5716
C7 C 0.1577(2) 0.5003(3) 0.4986(12)
C8 C 0.2252(2) 0.5287(3) 0.3803(11)
H11 H 0.2368 0.5046 0.2230
C9 C 0.2710(2) 0.5820(3) 0.4611(11)
H12 H 0.3111 0.5877 0.3553
C10 C 0.2708(2) 0.6342(4) 0.6872(11)
C11 C 0.2763(2) 0.7190(3) 0.6315(13)
H13 H 0.3202 0.7288 0.5360
H14 H 0.2792 0.7484 0.7934
C12 C 0.2138(2) 0.7503(3) 0.4767(16)
H15 H 0.2050 0.7146 0.3317
H16 H 0.1713 0.7505 0.5848
C13 C 0.2271(3) 0.8333(4) 0.377(2)
H17 H 0.2715 0.8335 0.2792
H18 H 0.2331 0.8693 0.5231
C14 C 0.1655(3) 0.8657(5) 0.2008(19)
H19 H 0.1824 0.9130 0.1096
H20 H 0.1538 0.8253 0.0724
C15 C 0.1012(4) 0.8862(4) 0.3440(19)
H21 H 0.1137 0.9228 0.4831
H22 H 0.0817 0.8379 0.4218
C16 C 0.0457(3) 0.9237(3) 0.1823(15)
H23 H 0.0683 0.9651 0.0785
H24 H 0.0117 0.9501 0.2960
C17 C 0.0053(3) 0.8703(3) 0.0065(12)
H25 H -0.0238 0.9033 -0.1073
H26 H 0.0393 0.8414 -0.1009
loop_
_geom_bond_atom_site_label_1
_geom_bond_atom_site_label_2
_geom_bond_site_symmetry_1
_geom_bond_site_symmetry_2
F1 C7 1_555 1_555
F2 C7 1_555 1_555
F3 C10 1_555 1_555
F4 C10 1_555 1_555
O1 C1 1_555 1_555
C1 C2 1_555 1_555
C2 H1 1_555 1_555
H2 C2 1_555 1_555
C3 C2 1_555 1_555
H3 C3 1_555 1_555
H4 C3 1_555 1_555
C4 C3 1_555 1_555
H5 C4 1_555 1_555
H6 C4 1_555 1_555
C5 C4 1_555 1_555
H7 C5 1_555 1_555
H8 C5 1_555 1_555
C6 C5 1_555 1_555
H9 C6 1_555 1_555
H10 C6 1_555 1_555
C7 C6 1_555 1_555
C8 C7 1_555 1_555
H11 C8 1_555 1_555
C9 C8 1_555 1_555
H12 C9 1_555 1_555
C10 C9 1_555 1_555
C11 C10 1_555 1_555
H13 C11 1_555 1_555
H14 C11 1_555 1_555
C12 C11 1_555 1_555
H15 C12 1_555 1_555
H16 C12 1_555 1_555
C13 C12 1_555 1_555
H17 C13 1_555 1_555
H18 C13 1_555 1_555
C14 C13 1_555 1_555
H19 C14 1_555 1_555
H20 C14 1_555 1_555
C15 C14 1_555 1_555
H21 C15 1_555 1_555
H22 C15 1_555 1_555
C16 C15 1_555 1_555
H23 C16 1_555 1_555
H24 C16 1_555 1_555
C17 C1 1_555 1_555
H25 C17 1_555 1_555
H26 C17 1_555 1_555
C16 C17 1_555 1_555

#END
