
#######################################################################
#
#                 Cambridge Crystallographic Data Centre
#                                CCDC 
#
#######################################################################
#
# If this CIF has been generated from an entry in the Cambridge 
# Structural Database, then it will include bibliographic, chemical, 
# crystal, experimental, refinement or atomic coordinate data resulting 
# from the CCDC's data processing and validation procedures.
#
#######################################################################

data_BENKAJ
_chemical_formula_moiety         'C17 H28 F4 O1'
_chemical_name_systematic        7,7,10,10-tetrafluorocycloheptadecanone
_symmetry_cell_setting           monoclinic
_symmetry_space_group_name_H-M   'P 21/c'
_symmetry_Int_Tables_number      14
_space_group_name_Hall           '-P 2ybc'
loop_
_symmetry_equiv_pos_site_id
_symmetry_equiv_pos_as_xyz
1 x,y,z
2 -x,1/2+y,1/2-z
3 -x,-y,-z
4 x,1/2-y,1/2+z
_cell_length_a                   15.7077(15)
_cell_length_b                   11.3420(14)
_cell_length_c                   9.4521(10)
_cell_angle_alpha                90
_cell_angle_beta                 92.658(4)
_cell_angle_gamma                90
_cell_volume                     1682.14
_exptl_crystal_colour            colorless
_exptl_crystal_description       platelet
_cell_formula_units_Z            4
loop_
_atom_site_label
_atom_site_type_symbol
_atom_site_fract_x
_atom_site_fract_y
_atom_site_fract_z
F1 F 0.04276(5) 0.64736(7) 1.01417(8)
F2 F 0.05184(5) 0.74262(7) 0.81464(8)
F3 F 0.34205(5) 0.58459(7) 1.20157(7)
F4 F 0.30984(5) 0.76635(6) 1.14575(7)
O1 O 0.23060(6) 0.18847(8) 0.50181(10)
C1 C 0.23062(8) 0.26844(10) 0.41577(12)
C2 C 0.14940(8) 0.32490(11) 0.35783(13)
H1 H 0.1005 0.2721 0.3733
H2 H 0.1527 0.3380 0.2547
C3 C 0.13637(8) 0.44367(10) 0.43331(12)
H3 H 0.1893 0.4907 0.4298
H4 H 0.0904 0.4880 0.3816
C4 C 0.11338(7) 0.42952(10) 0.58752(12)
H5 H 0.0568 0.3915 0.5909
H6 H 0.1556 0.3773 0.6369
C5 C 0.11146(7) 0.54754(10) 0.66396(12)
H7 H 0.0739 0.6022 0.6084
H8 H 0.1696 0.5815 0.6683
C6 C 0.08005(7) 0.53862(10) 0.81422(12)
H9 H 0.0193 0.5152 0.8094
H10 H 0.1126 0.4763 0.8663
C7 C 0.08958(7) 0.65311(11) 0.89463(12)
C8 C 0.17905(7) 0.69246(9) 0.93754(12)
H11 H 0.1771 0.7747 0.9723
H12 H 0.2141 0.6914 0.8532
C9 C 0.22147(7) 0.61496(10) 1.05245(11)
H13 H 0.1878 0.6184 1.1384
H14 H 0.2217 0.5322 1.0193
C10 C 0.31166(8) 0.65318(10) 1.08956(12)
C11 C 0.37554(7) 0.65248(10) 0.97519(12)
H15 H 0.4331 0.6656 1.0197
H16 H 0.3629 0.7194 0.9103
C12 C 0.37704(7) 0.53905(10) 0.88809(12)
H17 H 0.3838 0.4707 0.9527
H18 H 0.3221 0.5303 0.8335
C13 C 0.44959(7) 0.53960(10) 0.78638(12)
H19 H 0.5043 0.5440 0.8424
H20 H 0.4448 0.6116 0.7274
C14 C 0.45193(7) 0.43231(10) 0.68847(12)
H21 H 0.4533 0.3600 0.7472
H22 H 0.5054 0.4348 0.6369
C15 C 0.37661(7) 0.42388(10) 0.58026(12)
H23 H 0.3235 0.4127 0.6310
H24 H 0.3715 0.4990 0.5271
C16 C 0.38612(8) 0.32261(11) 0.47577(12)
H25 H 0.3886 0.2473 0.5287
H26 H 0.4407 0.3318 0.4285
C17 C 0.31328(8) 0.31676(11) 0.36293(12)
H27 H 0.3027 0.3970 0.3249
H28 H 0.3313 0.2667 0.2839
loop_
_geom_bond_atom_site_label_1
_geom_bond_atom_site_label_2
_geom_bond_site_symmetry_1
_geom_bond_site_symmetry_2
F1 C7 1_555 1_555
F2 C7 1_555 1_555
F3 C10 1_555 1_555
F4 C10 1_555 1_555
O1 C1 1_555 1_555
C1 C2 1_555 1_555
C2 H1 1_555 1_555
H2 C2 1_555 1_555
C3 C2 1_555 1_555
H3 C3 1_555 1_555
H4 C3 1_555 1_555
C4 C3 1_555 1_555
H5 C4 1_555 1_555
H6 C4 1_555 1_555
C5 C4 1_555 1_555
H7 C5 1_555 1_555
H8 C5 1_555 1_555
C6 C5 1_555 1_555
H9 C6 1_555 1_555
H10 C6 1_555 1_555
C7 C6 1_555 1_555
C8 C7 1_555 1_555
H11 C8 1_555 1_555
H12 C8 1_555 1_555
C9 C8 1_555 1_555
H13 C9 1_555 1_555
H14 C9 1_555 1_555
C10 C9 1_555 1_555
C11 C10 1_555 1_555
H15 C11 1_555 1_555
H16 C11 1_555 1_555
C12 C11 1_555 1_555
H17 C12 1_555 1_555
H18 C12 1_555 1_555
C13 C12 1_555 1_555
H19 C13 1_555 1_555
H20 C13 1_555 1_555
C14 C13 1_555 1_555
H21 C14 1_555 1_555
H22 C14 1_555 1_555
C15 C14 1_555 1_555
H23 C15 1_555 1_555
H24 C15 1_555 1_555
C16 C15 1_555 1_555
H25 C16 1_555 1_555
H26 C16 1_555 1_555
C17 C1 1_555 1_555
H27 C17 1_555 1_555
H28 C17 1_555 1_555
C16 C17 1_555 1_555

#END
