
#######################################################################
#
#                 Cambridge Crystallographic Data Centre
#                                CCDC 
#
#######################################################################
#
# If this CIF has been generated from an entry in the Cambridge 
# Structural Database, then it will include bibliographic, chemical, 
# crystal, experimental, refinement or atomic coordinate data resulting 
# from the CCDC's data processing and validation procedures.
#
#######################################################################

data_BENKOX
_chemical_formula_moiety         'C23 H32 F2 N4 O4'
_chemical_name_systematic        
1-(7,7-difluorocycloheptadec-9-en-1-ylidene)-2-(2,4-dinitrophenyl)hydrazine
_symmetry_cell_setting           triclinic
_symmetry_space_group_name_H-M   'P -1'
_symmetry_Int_Tables_number      2
_space_group_name_Hall           '-P 1'
loop_
_symmetry_equiv_pos_site_id
_symmetry_equiv_pos_as_xyz
1 x,y,z
2 -x,-y,-z
_cell_length_a                   7.8685(18)
_cell_length_b                   8.3541(19)
_cell_length_c                   18.613(4)
_cell_angle_alpha                102.037(8)
_cell_angle_beta                 94.263(18)
_cell_angle_gamma                93.010(16)
_cell_volume                     1190.39
_exptl_crystal_colour            yellow
_exptl_crystal_description       platelet
_cell_formula_units_Z            2
loop_
_atom_site_label
_atom_site_type_symbol
_atom_site_fract_x
_atom_site_fract_y
_atom_site_fract_z
F1 F 0.3555(13) 0.1577(12) 0.0059(4)
F2 F 0.2710(19) 0.3649(10) -0.0420(5)
O1 O 0.1265(4) 0.8727(4) 0.51836(17)
O2 O 0.1878(4) 0.7794(5) 0.6158(2)
O3 O 0.7145(6) 0.5692(5) 0.6684(3)
O4 O 0.8832(5) 0.5072(5) 0.5809(3)
N1 N 0.4125(5) 0.8973(4) 0.3571(2)
N2 N 0.3462(5) 0.8646(4) 0.41993(19)
H1 H 0.228(3) 0.888(5) 0.426(2)
N3 N 0.2241(5) 0.8098(4) 0.5569(2)
N4 N 0.7565(6) 0.5720(5) 0.6077(3)
C1 C 0.3098(7) 0.9499(5) 0.3114(3)
C2 C 0.3864(8) 0.9888(7) 0.2457(3)
H2 H 0.3583 1.1011 0.2420
H3 H 0.5122 0.9905 0.2546
C3 C 0.3345(9) 0.8786(9) 0.1744(3)
H4 H 0.3812 0.9275 0.1353
H5 H 0.2084 0.8735 0.1662
C4 C 0.3879(12) 0.7089(9) 0.1653(3)
H6 H 0.3658 0.6678 0.2101
H7 H 0.5125 0.7102 0.1607
C5 C 0.2917(13) 0.5858(12) 0.0952(4)
H8 H 0.1673 0.5870 0.0999
H9 H 0.3144 0.6282 0.0507
C6 C 0.3336(11) 0.4309(14) 0.0843(5)
H10 H 0.3036 0.3878 0.1278
H11 H 0.4594 0.4321 0.0840
C7 C 0.2575(12) 0.3096(14) 0.0166(6)
C8 C 0.0851(19) 0.2548(17) 0.0105(9)
H12 H 0.0594 0.1754 -0.0371
H13 H 0.0156 0.3497 0.0089
C9 C 0.0301(14) 0.1767(17) 0.0697(10)
H14 H 0.0961 0.1057 0.0923
C10 C -0.129(2) 0.2202(19) 0.0878(7)
H15 H -0.1913 0.2857 0.0606
C11 C -0.200(3) 0.1676(17) 0.1466(9)
H16 H -0.1139 0.1114 0.1719
H17 H -0.2985 0.0876 0.1271
C12 C -0.2587(12) 0.3091(9) 0.2013(4)
H18 H -0.3766 0.3275 0.1839
H19 H -0.2654 0.2736 0.2486
C13 C -0.1588(12) 0.4698(11) 0.2174(5)
H20 H -0.0369 0.4492 0.2255
H21 H -0.1712 0.5162 0.1726
C14 C -0.1985(9) 0.5923(8) 0.2781(4)
H22 H -0.1536 0.5605 0.3238
H23 H -0.3244 0.5893 0.2782
C15 C -0.1346(14) 0.7673(14) 0.2824(6)
H24 H -0.1683 0.8010 0.2357
H25 H -0.1836 0.8414 0.3231
C16 C 0.0494(12) 0.7758(13) 0.2952(6)
H26 H 0.0991 0.7209 0.2499
H27 H 0.0826 0.7187 0.3351
C17 C 0.1249(6) 0.9742(6) 0.3192(3)
H28 H 0.0772 1.0399 0.2849
H29 H 0.1035 1.0253 0.3704
C18 C 0.4429(5) 0.7979(4) 0.4655(2)
C19 C 0.3895(5) 0.7677(4) 0.5331(2)
C20 C 0.4936(5) 0.6967(4) 0.5787(2)
H30 H 0.4562 0.6787 0.6239
C21 C 0.6503(5) 0.6526(5) 0.5586(3)
C22 C 0.7099(6) 0.6808(5) 0.4930(3)
H31 H 0.8198 0.6502 0.4798
C23 C 0.6096(6) 0.7517(5) 0.4493(3)
H32 H 0.6517 0.7722 0.4053
F3? F -0.171(4) 0.204(4) 0.2343(10)
F4? F -0.4004(17) 0.3002(15) 0.2108(7)
H33? H 0.3422 0.2727 -0.0190
H34? H 0.1573 0.3489 -0.0083
C24? C 0.208(3) 0.180(3) 0.0615(17)
H35? H 0.2340 0.0692 0.0359
H36? H 0.2708 0.2065 0.1112
C25? C 0.021(3) 0.192(8) 0.066(2)
H37? H -0.0450 0.2237 0.0275
C26? C -0.0589(17) 0.1593(17) 0.1238(8)
H38? H -0.0047 0.1118 0.1608
C27? C -0.243(2) 0.205(4) 0.1241(9)
H39? H -0.3220 0.1052 0.1144
H40? H -0.2697 0.2685 0.0859
H41? H -0.2544 0.5382 0.3136
H42? H -0.2811 0.6636 0.2601
C28? C -0.035(2) 0.7036(19) 0.3199(11)
H43? H -0.0471 0.7343 0.3736
H44? H 0.0700 0.6451 0.3119
C29? C -0.031(2) 0.857(2) 0.2858(9)
H45? H -0.0263 0.8231 0.2318
H46? H -0.1368 0.9144 0.2949
H47? H 0.1046 1.0773 0.3026
H48? H 0.1144 0.9989 0.3730
loop_
_geom_bond_atom_site_label_1
_geom_bond_atom_site_label_2
_geom_bond_site_symmetry_1
_geom_bond_site_symmetry_2
F1 C7 1_555 1_555
F2 C7 1_555 1_555
O1 N3 1_555 1_555
O2 N3 1_555 1_555
O3 N4 1_555 1_555
O4 N4 1_555 1_555
N1 N2 1_555 1_555
N2 H1 1_555 1_555
N3 C19 1_555 1_555
N4 C21 1_555 1_555
C1 N1 1_555 1_555
C2 C1 1_555 1_555
H2 C2 1_555 1_555
H3 C2 1_555 1_555
C3 C2 1_555 1_555
H4 C3 1_555 1_555
H5 C3 1_555 1_555
C4 C3 1_555 1_555
H6 C4 1_555 1_555
H7 C4 1_555 1_555
C5 C4 1_555 1_555
H8 C5 1_555 1_555
H9 C5 1_555 1_555
C6 C5 1_555 1_555
H10 C6 1_555 1_555
H11 C6 1_555 1_555
C7 C6 1_555 1_555
C8 C7 1_555 1_555
H12 C8 1_555 1_555
H13 C8 1_555 1_555
C9 C8 1_555 1_555
H14 C9 1_555 1_555
C10 C9 1_555 1_555
H15 C10 1_555 1_555
C11 C10 1_555 1_555
H16 C11 1_555 1_555
H17 C11 1_555 1_555
C12 C11 1_555 1_555
H18 C12 1_555 1_555
H19 C12 1_555 1_555
C13 C12 1_555 1_555
H20 C13 1_555 1_555
H21 C13 1_555 1_555
C14 C13 1_555 1_555
H22 C14 1_555 1_555
H23 C14 1_555 1_555
C15 C14 1_555 1_555
H24 C15 1_555 1_555
H25 C15 1_555 1_555
C16 C15 1_555 1_555
H26 C16 1_555 1_555
H27 C16 1_555 1_555
C17 C1 1_555 1_555
H28 C17 1_555 1_555
H29 C17 1_555 1_555
C18 N2 1_555 1_555
C19 C18 1_555 1_555
C20 C19 1_555 1_555
H30 C20 1_555 1_555
C21 C20 1_555 1_555
C22 C21 1_555 1_555
H31 C22 1_555 1_555
C23 C18 1_555 1_555
H32 C23 1_555 1_555
C16 C17 1_555 1_555
C22 C23 1_555 1_555

#END
