
#######################################################################
#
#                 Cambridge Crystallographic Data Centre
#                                CCDC 
#
#######################################################################
#
# If this CIF has been generated from an entry in the Cambridge 
# Structural Database, then it will include bibliographic, chemical, 
# crystal, experimental, refinement or atomic coordinate data resulting 
# from the CCDC's data processing and validation procedures.
#
#######################################################################

data_BENLUD
_chemical_formula_moiety         'C28 H20 N2'
_chemical_name_systematic        9,10-bis(2-(pyridin-3-yl)ethenyl)anthracene
_symmetry_cell_setting           monoclinic
_symmetry_space_group_name_H-M   'P 21/c'
_symmetry_Int_Tables_number      14
_space_group_name_Hall           '-P 2ybc'
loop_
_symmetry_equiv_pos_site_id
_symmetry_equiv_pos_as_xyz
1 x,y,z
2 -x,1/2+y,1/2-z
3 -x,-y,-z
4 x,1/2-y,1/2+z
_cell_length_a                   7.3295(15)
_cell_length_b                   6.3418(13)
_cell_length_c                   21.422(4)
_cell_angle_alpha                90
_cell_angle_beta                 91.26(3)
_cell_angle_gamma                90
_cell_volume                     995.501
_exptl_crystal_colour            yellow
_exptl_crystal_description       block
_cell_formula_units_Z            2
loop_
_atom_site_label
_atom_site_type_symbol
_atom_site_fract_x
_atom_site_fract_y
_atom_site_fract_z
C1 C 0.2674(2) 0.1000(2) 0.24566(7)
H1 H 0.2503 -0.0105 0.2735
C2 C 0.4071(2) 0.0843(2) 0.20390(7)
H2 H 0.4830 -0.0332 0.2040
C3 C 0.4321(2) 0.2456(2) 0.16202(6)
H3 H 0.5251 0.2378 0.1333
C4 C 0.31779(18) 0.4203(2) 0.16292(6)
C5 C 0.18241(19) 0.4196(2) 0.20758(6)
H4 H 0.1052 0.5357 0.2090
C6 C 0.33322(19) 0.6002(2) 0.12038(6)
H5 H 0.2408 0.7005 0.1216
C7 C 0.46477(19) 0.6346(2) 0.08049(6)
H6 H 0.5560 0.5332 0.0783
C8 C 0.48009(18) 0.8199(2) 0.03899(6)
C9 C 0.63647(18) 0.9475(2) 0.04478(6)
C10 C 0.65661(19) 1.1302(2) 0.00591(6)
C11 C 0.8124(2) 1.2605(3) 0.01691(7)
H7 H 0.8281 1.3797 -0.0077
C12 C 0.9381(2) 1.2153(3) 0.06219(8)
H8 H 1.0384 1.3036 0.0681
C13 C 0.9189(2) 1.0369(3) 0.10025(7)
H9 H 1.0060 1.0077 0.1313
C14 C 0.7736(2) 0.9072(2) 0.09177(6)
H10 H 0.7627 0.7891 0.1171
N1 N 0.15564(18) 0.2649(2) 0.24828(6)
C1B C 0.7326(2) 1.9000(2) -0.24566(7)
H1B H 0.7497 2.0105 -0.2735
C2B C 0.5929(2) 1.9157(2) -0.20390(7)
H2B H 0.5170 2.0332 -0.2040
C3B C 0.5679(2) 1.7544(2) -0.16202(6)
H3B H 0.4749 1.7622 -0.1333
C4B C 0.68221(18) 1.5797(2) -0.16292(6)
C5B C 0.81759(19) 1.5804(2) -0.20758(6)
H4B H 0.8948 1.4643 -0.2090
C6B C 0.66678(19) 1.3998(2) -0.12038(6)
H5B H 0.7592 1.2995 -0.1216
C7B C 0.53523(19) 1.3654(2) -0.08049(6)
H6B H 0.4440 1.4668 -0.0783
C8B C 0.51991(18) 1.1801(2) -0.03899(6)
C9B C 0.36353(18) 1.0525(2) -0.04478(6)
C10B C 0.34339(19) 0.8698(2) -0.00591(6)
C11B C 0.1876(2) 0.7395(3) -0.01691(7)
H7B H 0.1719 0.6203 0.0077
C12B C 0.0619(2) 0.7847(3) -0.06219(8)
H8B H -0.0384 0.6964 -0.0681
C13B C 0.0811(2) 0.9631(3) -0.10025(7)
H9B H -0.0060 0.9923 -0.1313
C14B C 0.2264(2) 1.0928(2) -0.09177(6)
H10B H 0.2373 1.2109 -0.1171
N1B N 0.84436(18) 1.7351(2) -0.24828(6)
loop_
_geom_bond_atom_site_label_1
_geom_bond_atom_site_label_2
_geom_bond_site_symmetry_1
_geom_bond_site_symmetry_2
C1 H1 1_555 1_555
C2 C1 1_555 1_555
H2 C2 1_555 1_555
C3 C2 1_555 1_555
H3 C3 1_555 1_555
C4 C3 1_555 1_555
C5 C4 1_555 1_555
H4 C5 1_555 1_555
C6 C4 1_555 1_555
H5 C6 1_555 1_555
C7 C6 1_555 1_555
H6 C7 1_555 1_555
C8 C7 1_555 1_555
C9 C8 1_555 1_555
C10 C9 1_555 1_555
C11 C10 1_555 1_555
H7 C11 1_555 1_555
C12 C11 1_555 1_555
H8 C12 1_555 1_555
C13 C12 1_555 1_555
H9 C13 1_555 1_555
C14 C9 1_555 1_555
H10 C14 1_555 1_555
N1 C1 1_555 1_555
C1B H1B 1_555 1_555
C2B C1B 1_555 1_555
H2B C2B 1_555 1_555
C3B C2B 1_555 1_555
H3B C3B 1_555 1_555
C4B C3B 1_555 1_555
C5B C4B 1_555 1_555
H4B C5B 1_555 1_555
C6B C4B 1_555 1_555
H5B C6B 1_555 1_555
C7B C6B 1_555 1_555
H6B C7B 1_555 1_555
C8B C10 1_555 1_555
C9B C8B 1_555 1_555
C10B C8 1_555 1_555
C11B C10B 1_555 1_555
H7B C11B 1_555 1_555
C12B C11B 1_555 1_555
H8B C12B 1_555 1_555
C13B C12B 1_555 1_555
H9B C13B 1_555 1_555
C14B C9B 1_555 1_555
H10B C14B 1_555 1_555
N1B C1B 1_555 1_555
C5 N1 1_555 1_555
C13 C14 1_555 1_555
C5B N1B 1_555 1_555
C7B C8B 1_555 1_555
C9B C10B 1_555 1_555
C13B C14B 1_555 1_555

#END
