
#######################################################################
#
#                 Cambridge Crystallographic Data Centre
#                                CCDC 
#
#######################################################################
#
# If this CIF has been generated from an entry in the Cambridge 
# Structural Database, then it will include bibliographic, chemical, 
# crystal, experimental, refinement or atomic coordinate data resulting 
# from the CCDC's data processing and validation procedures.
#
#######################################################################

data_BENLOY
_chemical_formula_moiety         'C22 H32 F2 N4 O4'
_chemical_name_systematic        
1-(9,9-difluoro-3-methylcyclopentadecylidene)-2-(2,4-dinitrophenyl)hydrazine
_symmetry_cell_setting           triclinic
_symmetry_space_group_name_H-M   'P -1'
_symmetry_Int_Tables_number      2
_space_group_name_Hall           '-P 1'
loop_
_symmetry_equiv_pos_site_id
_symmetry_equiv_pos_as_xyz
1 x,y,z
2 -x,-y,-z
_cell_length_a                   7.873(6)
_cell_length_b                   8.417(4)
_cell_length_c                   17.418(12)
_cell_angle_alpha                101.92(5)
_cell_angle_beta                 92.75(5)
_cell_angle_gamma                95.46(4)
_cell_volume                     1121.51
_exptl_crystal_colour            yellow
_exptl_crystal_description       plate
_cell_formula_units_Z            2
loop_
_atom_site_label
_atom_site_type_symbol
_atom_site_fract_x
_atom_site_fract_y
_atom_site_fract_z
F1 F 0.9566(14) 1.4177(9) 0.3784(4)
F2 F 1.2076(15) 1.3645(13) 0.4152(7)
O1 O 0.8654(8) 0.6318(7) -0.0275(3)
O2 O 0.8027(9) 0.7124(8) -0.1336(3)
O3 O 0.2999(10) 0.9405(9) -0.1790(5)
O4 O 0.1220(10) 0.9908(11) -0.0865(5)
N1 N 0.5855(9) 0.6185(7) 0.1504(3)
N2 N 0.7730(9) 0.6911(8) -0.0695(4)
N3 N 0.2489(13) 0.9311(9) -0.1129(5)
N4 N 0.6499(8) 0.6418(7) 0.0799(3)
H1 H 0.7631 0.6112 0.0658
C1 C 0.6831(14) 0.5676(10) 0.1975(4)
C2 C 0.594(2) 0.5344(13) 0.2698(6)
H2 H 0.4694 0.5224 0.2561
H3 H 0.6235 0.4270 0.2778
C3 C 0.625(2) 0.6437(15) 0.3421(7)
H4 H 0.7513 0.6492 0.3523
C4 C 0.5971(18) 0.8143(14) 0.3476(6)
H5 H 0.4743 0.8259 0.3539
H6 H 0.6262 0.8459 0.2978
C5 C 0.700(2) 0.928(2) 0.4140(9)
H7 H 0.8211 0.9079 0.4116
H8 H 0.6604 0.9061 0.4643
C6 C 0.6849(17) 1.1168(15) 0.4130(7)
H9 H 0.7122 1.1367 0.3607
H10 H 0.5656 1.1406 0.4214
C7 C 0.801(4) 1.229(3) 0.4740(11)
H11 H 0.7655 1.3403 0.4807
H12 H 0.7907 1.1940 0.5247
C8 C 0.978(3) 1.232(2) 0.4541(10)
H13 H 1.0457 1.2969 0.5015
H14 H 1.0066 1.1185 0.4488
C9 C 1.0468(18) 1.2880(16) 0.3892(6)
C10 C 1.0561(14) 1.1751(12) 0.3114(6)
H15 H 1.0888 1.2402 0.2722
H16 H 0.9414 1.1162 0.2940
C11 C 1.1841(11) 1.0510(14) 0.3140(5)
H17 H 1.3010 1.1089 0.3244
H18 H 1.1607 0.9956 0.3579
C12 C 1.1760(12) 0.9272(13) 0.2400(5)
H19 H 1.2852 0.8781 0.2339
H20 H 1.1525 0.9767 0.1943
C13 C 1.031(2) 0.7993(18) 0.2465(9)
H21 H 1.0560 0.7548 0.2937
H22 H 0.9243 0.8527 0.2542
C14 C 1.0037(17) 0.672(2) 0.1818(9)
H23 H 1.1137 0.6258 0.1722
H24 H 0.9722 0.7175 0.1357
C15 C 0.8614(15) 0.5246(11) 0.1853(5)
H25 H 0.8589 0.4422 0.1356
H26 H 0.8979 0.4724 0.2285
C16 C 0.5558(10) 0.7050(8) 0.0335(4)
C17 C 0.6082(9) 0.7367(9) -0.0408(4)
C18 C 0.5073(11) 0.8040(9) -0.0878(4)
H27 H 0.5440 0.8178 -0.1374
C19 C 0.3548(11) 0.8517(10) -0.0650(5)
C20 C 0.2939(11) 0.8254(10) 0.0065(5)
H28 H 0.1864 0.8582 0.0223
C21 C 0.3899(11) 0.7535(9) 0.0519(5)
H29 H 0.3456 0.7332 0.0992
C22 C 0.558(2) 0.579(2) 0.4094(8)
H30 H 0.6171 0.4851 0.4162
H31 H 0.4347 0.5445 0.3989
H32 H 0.5767 0.6644 0.4575
loop_
_geom_bond_atom_site_label_1
_geom_bond_atom_site_label_2
_geom_bond_site_symmetry_1
_geom_bond_site_symmetry_2
F1 C9 1_555 1_555
F2 C9 1_555 1_555
O1 N2 1_555 1_555
O2 N2 1_555 1_555
O3 N3 1_555 1_555
O4 N3 1_555 1_555
N1 N4 1_555 1_555
N2 C17 1_555 1_555
N3 C19 1_555 1_555
N4 H1 1_555 1_555
C1 N1 1_555 1_555
C2 C1 1_555 1_555
H2 C2 1_555 1_555
H3 C2 1_555 1_555
C3 C2 1_555 1_555
H4 C3 1_555 1_555
C4 C3 1_555 1_555
H5 C4 1_555 1_555
H6 C4 1_555 1_555
C5 C4 1_555 1_555
H7 C5 1_555 1_555
H8 C5 1_555 1_555
C6 C5 1_555 1_555
H9 C6 1_555 1_555
H10 C6 1_555 1_555
C7 C6 1_555 1_555
H11 C7 1_555 1_555
H12 C7 1_555 1_555
C8 C7 1_555 1_555
H13 C8 1_555 1_555
H14 C8 1_555 1_555
C9 C8 1_555 1_555
C10 C9 1_555 1_555
H15 C10 1_555 1_555
H16 C10 1_555 1_555
C11 C10 1_555 1_555
H17 C11 1_555 1_555
H18 C11 1_555 1_555
C12 C11 1_555 1_555
H19 C12 1_555 1_555
H20 C12 1_555 1_555
C13 C12 1_555 1_555
H21 C13 1_555 1_555
H22 C13 1_555 1_555
C14 C13 1_555 1_555
H23 C14 1_555 1_555
H24 C14 1_555 1_555
C15 C1 1_555 1_555
H25 C15 1_555 1_555
H26 C15 1_555 1_555
C16 N4 1_555 1_555
C17 C16 1_555 1_555
C18 C17 1_555 1_555
H27 C18 1_555 1_555
C19 C18 1_555 1_555
C20 C19 1_555 1_555
H28 C20 1_555 1_555
C21 C16 1_555 1_555
H29 C21 1_555 1_555
C22 C3 1_555 1_555
H30 C22 1_555 1_555
H31 C22 1_555 1_555
H32 C22 1_555 1_555
C14 C15 1_555 1_555
C20 C21 1_555 1_555

#END
