
#######################################################################
#
#                 Cambridge Crystallographic Data Centre
#                                CCDC 
#
#######################################################################
#
# If this CIF has been generated from an entry in the Cambridge 
# Structural Database, then it will include bibliographic, chemical, 
# crystal, experimental, refinement or atomic coordinate data resulting 
# from the CCDC's data processing and validation procedures.
#
#######################################################################

data_BENMIT
_chemical_formula_moiety         'C16 H26 F2 O1'
_chemical_name_systematic        8,8-difluoro-3-methylcyclopentadec-5-en-1-one
_symmetry_cell_setting           orthorhombic
_symmetry_space_group_name_H-M   'P 21 21 21'
_symmetry_Int_Tables_number      19
_space_group_name_Hall           'P 2ac 2ab'
loop_
_symmetry_equiv_pos_site_id
_symmetry_equiv_pos_as_xyz
1 x,y,z
2 1/2+x,1/2-y,-z
3 -x,1/2+y,1/2-z
4 1/2-x,-y,1/2+z
_cell_length_a                   5.8270(14)
_cell_length_b                   16.683(4)
_cell_length_c                   32.6671(10)
_cell_angle_alpha                90
_cell_angle_beta                 90
_cell_angle_gamma                90
_cell_volume                     3175.63
_exptl_crystal_colour            colorless
_exptl_crystal_description       prism
_cell_formula_units_Z            8
loop_
_atom_site_label
_atom_site_type_symbol
_atom_site_fract_x
_atom_site_fract_y
_atom_site_fract_z
F1 F 0.9501(3) 0.18733(10) 0.40368(6)
F2 F 1.1424(3) 0.07626(11) 0.41303(6)
O1 O -0.0250(3) -0.10978(15) 0.48626(6)
C1 C 0.1688(4) -0.11654(16) 0.49889(8)
C2 C 0.3667(5) -0.13825(17) 0.47167(8)
H1 H 0.4520 -0.1829 0.4846
H2 H 0.4718 -0.0917 0.4702
C3 C 0.3044(4) -0.16301(15) 0.42797(8)
H3 H 0.1771 -0.1272 0.4186
C4 C 0.5073(5) -0.14958(16) 0.39923(8)
H4 H 0.6473 -0.1726 0.4117
H5 H 0.4787 -0.1781 0.3732
C5 C 0.5473(5) -0.06249(16) 0.39044(7)
H6 H 0.4247 -0.0343 0.3778
C6 C 0.7332(5) -0.02119(16) 0.39836(7)
H7 H 0.8564 -0.0483 0.4114
C7 C 0.7659(5) 0.06622(16) 0.38825(8)
H8 H 0.6146 0.0932 0.3888
H9 H 0.8275 0.0707 0.3601
C8 C 0.9258(5) 0.10916(17) 0.41726(9)
C9 C 0.8677(5) 0.11005(16) 0.46228(8)
H10 H 0.9959 0.1355 0.4774
H11 H 0.8548 0.0540 0.4720
C10 C 0.6471(5) 0.15407(16) 0.47272(8)
H12 H 0.5151 0.1237 0.4616
H13 H 0.6487 0.2074 0.4594
C11 C 0.6146(5) 0.16513(17) 0.51906(9)
H14 H 0.7411 0.1990 0.5296
H15 H 0.4692 0.1944 0.5238
C12 C 0.6089(5) 0.08760(17) 0.54362(8)
H16 H 0.7537 0.0580 0.5388
H17 H 0.6019 0.1011 0.5731
C13 C 0.4082(5) 0.03292(16) 0.53325(8)
H18 H 0.2642 0.0585 0.5426
H19 H 0.3990 0.0269 0.5031
C14 C 0.4271(5) -0.04942(17) 0.55253(8)
H20 H 0.4452 -0.0433 0.5825
H21 H 0.5664 -0.0763 0.5419
C15 C 0.2185(5) -0.10256(18) 0.54399(8)
H22 H 0.2428 -0.1551 0.5574
H23 H 0.0818 -0.0777 0.5567
C16 C 0.2142(6) -0.24879(17) 0.42696(10)
H24 H 0.3367 -0.2857 0.4352
H25 H 0.1634 -0.2619 0.3992
H26 H 0.0847 -0.2539 0.4459
F3 F 0.1662(4) 0.13543(17) 0.78977(11)
F4 F 0.3916(4) 0.21358(15) 0.82389(6)
O2 O 1.3235(4) 0.06134(15) 0.65624(8)
C17 C 1.1313(5) 0.08334(17) 0.64804(8)
C18 C 0.9227(5) 0.04275(18) 0.66579(9)
H27 H 0.8102 0.0346 0.6435
H28 H 0.8519 0.0796 0.6859
C19 C 0.9635(6) -0.03736(17) 0.68668(9)
H29 H 1.1072 -0.0327 0.7032
C20 C 0.7654(6) -0.05714(19) 0.71616(10)
H30 H 0.6194 -0.0567 0.7007
H31 H 0.7880 -0.1120 0.7271
C21 C 0.7463(6) -0.00015(19) 0.75115(9)
H32 H 0.8837 0.0118 0.7656
C22 C 0.5581(6) 0.0351(2) 0.76394(10)
H33 H 0.4197 0.0228 0.7499
C23 C 0.5438(6) 0.0931(2) 0.79893(9)
H34 H 0.4882 0.0644 0.8235
H35 H 0.6997 0.1136 0.8050
C24 C 0.3890(5) 0.1624(2) 0.79063(9)
C25 C 0.4283(7) 0.2109(2) 0.75301(9)
H36 H 0.4091 0.1755 0.7289
H37 H 0.3075 0.2526 0.7515
C26 C 0.6535(9) 0.2507(3) 0.74980(17)
H38 H 0.7818 0.2118 0.7493
H39 H 0.6783 0.2903 0.7720
C27 C 0.6131(10) 0.2946(3) 0.70438(16)
H40 H 0.5321 0.2567 0.6861
H41 H 0.5133 0.3420 0.7081
C28 C 0.8000(10) 0.3167(3) 0.68712(12)
H42 H 0.8787 0.3533 0.7064
H43 H 0.7567 0.3491 0.6629
C29 C 0.9786(7) 0.2556(2) 0.67274(9)
H44 H 1.1275 0.2832 0.6690
H45 H 0.9991 0.2145 0.6943
C30 C 0.9138(5) 0.21404(18) 0.63300(8)
H46 H 0.8948 0.2549 0.6113
H47 H 0.7645 0.1866 0.6366
C31 C 1.0924(5) 0.15287(18) 0.61924(8)
H48 H 1.0450 0.1312 0.5923
H49 H 1.2403 0.1810 0.6153
C32 C 0.9989(9) -0.1043(2) 0.65535(11)
H50 H 1.1349 -0.0925 0.6388
H51 H 0.8638 -0.1078 0.6376
H52 H 1.0206 -0.1553 0.6696
H53? H 0.7530 0.2082 0.7383
H54? H 0.7017 0.2561 0.7787
C33? C 0.7484(13) 0.3270(4) 0.7301(2)
H55? H 0.6347 0.3706 0.7332
H56? H 0.8899 0.3433 0.7447
H57? H 0.8486 0.3696 0.6765
H58? H 0.6540 0.3032 0.6732
loop_
_geom_bond_atom_site_label_1
_geom_bond_atom_site_label_2
_geom_bond_site_symmetry_1
_geom_bond_site_symmetry_2
F1 C8 1_555 1_555
F2 C8 1_555 1_555
O1 C1 1_555 1_555
C1 C2 1_555 1_555
C2 H1 1_555 1_555
H2 C2 1_555 1_555
C3 C2 1_555 1_555
H3 C3 1_555 1_555
C4 C3 1_555 1_555
H4 C4 1_555 1_555
H5 C4 1_555 1_555
C5 C4 1_555 1_555
H6 C5 1_555 1_555
C6 C5 1_555 1_555
H7 C6 1_555 1_555
C7 C6 1_555 1_555
H8 C7 1_555 1_555
H9 C7 1_555 1_555
C8 C7 1_555 1_555
C9 C8 1_555 1_555
H10 C9 1_555 1_555
H11 C9 1_555 1_555
C10 C9 1_555 1_555
H12 C10 1_555 1_555
H13 C10 1_555 1_555
C11 C10 1_555 1_555
H14 C11 1_555 1_555
H15 C11 1_555 1_555
C12 C11 1_555 1_555
H16 C12 1_555 1_555
H17 C12 1_555 1_555
C13 C12 1_555 1_555
H18 C13 1_555 1_555
H19 C13 1_555 1_555
C14 C13 1_555 1_555
H20 C14 1_555 1_555
H21 C14 1_555 1_555
C15 C1 1_555 1_555
H22 C15 1_555 1_555
H23 C15 1_555 1_555
C16 C3 1_555 1_555
H24 C16 1_555 1_555
H25 C16 1_555 1_555
H26 C16 1_555 1_555
F3 C24 1_555 1_555
F4 C24 1_555 1_555
O2 C17 1_555 1_555
C17 C18 1_555 1_555
C18 H27 1_555 1_555
H28 C18 1_555 1_555
C19 C18 1_555 1_555
H29 C19 1_555 1_555
C20 C19 1_555 1_555
H30 C20 1_555 1_555
H31 C20 1_555 1_555
C21 C20 1_555 1_555
H32 C21 1_555 1_555
C22 C21 1_555 1_555
H33 C22 1_555 1_555
C23 C22 1_555 1_555
H34 C23 1_555 1_555
H35 C23 1_555 1_555
C24 C23 1_555 1_555
C25 C24 1_555 1_555
H36 C25 1_555 1_555
H37 C25 1_555 1_555
C26 C25 1_555 1_555
H38 C26 1_555 1_555
H39 C26 1_555 1_555
C27 C26 1_555 1_555
H40 C27 1_555 1_555
H41 C27 1_555 1_555
C28 C27 1_555 1_555
H42 C28 1_555 1_555
H43 C28 1_555 1_555
C29 C28 1_555 1_555
H44 C29 1_555 1_555
H45 C29 1_555 1_555
C30 C29 1_555 1_555
H46 C30 1_555 1_555
H47 C30 1_555 1_555
C31 C17 1_555 1_555
H48 C31 1_555 1_555
H49 C31 1_555 1_555
C32 C19 1_555 1_555
H50 C32 1_555 1_555
H51 C32 1_555 1_555
H52 C32 1_555 1_555
C14 C15 1_555 1_555
C30 C31 1_555 1_555

#END
