
#######################################################################
#
#                 Cambridge Crystallographic Data Centre
#                                CCDC 
#
#######################################################################
#
# If this CIF has been generated from an entry in the Cambridge 
# Structural Database, then it will include bibliographic, chemical, 
# crystal, experimental, refinement or atomic coordinate data resulting 
# from the CCDC's data processing and validation procedures.
#
#######################################################################

data_BENMEP
_chemical_formula_moiety         'C16 H26 F2 O1'
_chemical_name_systematic        
10,10-difluoro-3-methylcyclopentadec-6-en-1-one
_symmetry_cell_setting           orthorhombic
_symmetry_space_group_name_H-M   'P 21 21 21'
_symmetry_Int_Tables_number      19
_space_group_name_Hall           'P 2ac 2ab'
loop_
_symmetry_equiv_pos_site_id
_symmetry_equiv_pos_as_xyz
1 x,y,z
2 1/2+x,1/2-y,-z
3 -x,1/2+y,1/2-z
4 1/2-x,-y,1/2+z
_cell_length_a                   5.542(4)
_cell_length_b                   8.116(6)
_cell_length_c                   33.69(2)
_cell_angle_alpha                90
_cell_angle_beta                 90
_cell_angle_gamma                90
_cell_volume                     1515.34
_exptl_crystal_colour            colorless
_exptl_crystal_description       needle
_cell_formula_units_Z            4
loop_
_atom_site_label
_atom_site_type_symbol
_atom_site_fract_x
_atom_site_fract_y
_atom_site_fract_z
F1 F 0.9291(15) 0.0087(10) 0.6946(3)
F2 F 1.1956(11) 0.1078(10) 0.6533(3)
O1 O 0.7179(12) 0.6078(11) 0.6258(3)
C1 C 0.5319(17) 0.6655(12) 0.6393(4)
C2 C 0.3243(18) 0.7096(14) 0.6121(4)
H1 H 0.1748 0.6595 0.6228
H2 H 0.3027 0.8307 0.6125
C3 C 0.3550(16) 0.6552(16) 0.5700(4)
H3 H 0.5184 0.6912 0.5609
C4 C 0.3443(18) 0.4655(14) 0.5673(4)
H4 H 0.3731 0.4185 0.5941
H5 H 0.1805 0.4320 0.5588
C5 C 0.530(2) 0.3935(15) 0.5383(4)
H6 H 0.4945 0.4349 0.5112
H7 H 0.6927 0.4333 0.5457
C6 C 0.532(2) 0.2092(18) 0.5375(4)
H8 H 0.4301 0.1562 0.5187
C7 C 0.666(2) 0.1129(15) 0.5612(4)
H9 H 0.6524 -0.0028 0.5575
C8 C 0.8343(18) 0.1709(15) 0.5928(4)
H10 H 0.8044 0.2887 0.5986
H11 H 1.0033 0.1589 0.5837
C9 C 0.7948(18) 0.0691(12) 0.6302(4)
H12 H 0.8294 -0.0481 0.6244
H13 H 0.6235 0.0775 0.6383
C10 C 0.9558(17) 0.1260(16) 0.6648(5)
C11 C 0.9247(18) 0.2912(15) 0.6818(4)
H14 H 0.9634 0.3744 0.6613
H15 H 1.0406 0.3055 0.7039
C12 C 0.661(2) 0.3240(13) 0.6978(4)
H16 H 0.5536 0.3488 0.6751
H17 H 0.6001 0.2228 0.7108
C13 C 0.650(2) 0.4644(14) 0.7269(4)
H18 H 0.7701 0.4431 0.7481
H19 H 0.4888 0.4641 0.7395
C14 C 0.6973(18) 0.6378(14) 0.7101(4)
H20 H 0.7132 0.7168 0.7324
H21 H 0.8515 0.6375 0.6953
C15 C 0.4979(18) 0.6943(13) 0.6830(4)
H22 H 0.3472 0.6384 0.6912
H23 H 0.4742 0.8139 0.6872
C16 C 0.167(2) 0.7319(18) 0.5422(4)
H24 H 0.1847 0.8521 0.5424
H25 H 0.0049 0.7022 0.5513
H26 H 0.1919 0.6905 0.5152
loop_
_geom_bond_atom_site_label_1
_geom_bond_atom_site_label_2
_geom_bond_site_symmetry_1
_geom_bond_site_symmetry_2
F1 C10 1_555 1_555
F2 C10 1_555 1_555
O1 C1 1_555 1_555
C1 C2 1_555 1_555
C2 H1 1_555 1_555
H2 C2 1_555 1_555
C3 C2 1_555 1_555
H3 C3 1_555 1_555
C4 C3 1_555 1_555
H4 C4 1_555 1_555
H5 C4 1_555 1_555
C5 C4 1_555 1_555
H6 C5 1_555 1_555
H7 C5 1_555 1_555
C6 C5 1_555 1_555
H8 C6 1_555 1_555
C7 C6 1_555 1_555
H9 C7 1_555 1_555
C8 C7 1_555 1_555
H10 C8 1_555 1_555
H11 C8 1_555 1_555
C9 C8 1_555 1_555
H12 C9 1_555 1_555
H13 C9 1_555 1_555
C10 C9 1_555 1_555
C11 C10 1_555 1_555
H14 C11 1_555 1_555
H15 C11 1_555 1_555
C12 C11 1_555 1_555
H16 C12 1_555 1_555
H17 C12 1_555 1_555
C13 C12 1_555 1_555
H18 C13 1_555 1_555
H19 C13 1_555 1_555
C14 C13 1_555 1_555
H20 C14 1_555 1_555
H21 C14 1_555 1_555
C15 C1 1_555 1_555
H22 C15 1_555 1_555
H23 C15 1_555 1_555
C16 C3 1_555 1_555
H24 C16 1_555 1_555
H25 C16 1_555 1_555
H26 C16 1_555 1_555
C14 C15 1_555 1_555

#END
