
#######################################################################
#
#                 Cambridge Crystallographic Data Centre
#                                CCDC 
#
#######################################################################
#
# If this CIF has been generated from an entry in the Cambridge 
# Structural Database, then it will include bibliographic, chemical, 
# crystal, experimental, refinement or atomic coordinate data resulting 
# from the CCDC's data processing and validation procedures.
#
#######################################################################

data_BENSOF
_chemical_compound_source        
'dried leaves of Ilex latifolia (Aquifoliaceae)'
_chemical_name_common            
'(3beta,12beta,19alpha)-3,12,19,20-tetrahydroxy-urs-13(18)-en-28-oic acid-28,19-lactone methanol solvate'
_chemical_formula_moiety         'C30 H46 O5,C1 H4 O1'
_chemical_name_systematic        
'(3\b,12\b,19\a)-3,12,20-trihydroxy-19,28-epoxyurs-13(18)-en-28-one methanol solvate'
_symmetry_cell_setting           monoclinic
_symmetry_space_group_name_H-M   'P 21'
_symmetry_Int_Tables_number      4
_space_group_name_Hall           'P 2yb'
loop_
_symmetry_equiv_pos_site_id
_symmetry_equiv_pos_as_xyz
1 x,y,z
2 -x,1/2+y,-z
_cell_length_a                   11.5935(3)
_cell_length_b                   7.7797(2)
_cell_length_c                   15.5894(4)
_cell_angle_alpha                90
_cell_angle_beta                 99.513(2)
_cell_angle_gamma                90
_cell_volume                     1386.73
_exptl_crystal_colour            colorless
_exptl_crystal_description       block
_chemical_melting_point          '285-286 deg.C'
_cell_formula_units_Z            2
_exptl_crystal_recrystallization_method methanol
loop_
_atom_site_label
_atom_site_type_symbol
_atom_site_fract_x
_atom_site_fract_y
_atom_site_fract_z
O1 O 0.92891(19) 0.0351(3) 1.41538(12)
H1 H 0.9859 0.0886 1.4400
O2 O 0.7933(3) -0.0333(3) 0.89125(15)
H2 H 0.7969 -0.0461 0.8395
O3 O 0.53381(16) 0.3814(3) 0.66857(12)
O4 O 0.5943(2) 0.6494(3) 0.65622(16)
O5 O 0.69826(19) -0.0206(3) 0.69137(13)
H3 H 0.6655 -0.1129 0.6792
C1 C 0.7963(3) -0.0254(4) 1.18103(16)
H4 H 0.8670 -0.0494 1.1575
H5 H 0.7372 -0.1073 1.1558
C2 C 0.8212(3) -0.0509(5) 1.28019(17)
H6 H 0.7488 -0.0396 1.3032
H7 H 0.8510 -0.1662 1.2931
C3 C 0.9085(2) 0.0775(4) 1.32423(17)
H8 H 0.9820 0.0590 1.3022
C4 C 0.8725(2) 0.2651(4) 1.30605(16)
C5 C 0.8420(2) 0.2856(4) 1.20474(16)
H9 H 0.9159 0.2605 1.1844
C6 C 0.8138(3) 0.4691(4) 1.17460(17)
H10 H 0.8648 0.5485 1.2109
H11 H 0.7336 0.4961 1.1799
C7 C 0.8307(2) 0.4883(4) 1.07950(17)
H12 H 0.8139 0.6061 1.0612
H13 H 0.9118 0.4651 1.0754
C8 C 0.7524(2) 0.3675(4) 1.01771(15)
C9 C 0.7615(2) 0.1806(4) 1.05437(15)
H14 H 0.8399 0.1413 1.0480
C10 C 0.7544(2) 0.1567(4) 1.15426(15)
C11 C 0.6777(3) 0.0639(4) 0.99509(17)
H15 H 0.6889 -0.0534 1.0159
H16 H 0.5981 0.0968 0.9992
C12 C 0.6929(3) 0.0695(4) 0.89992(17)
H17 H 0.6236 0.0190 0.8643
C13 C 0.7137(2) 0.2458(4) 0.86489(15)
C14 C 0.7939(2) 0.3681(4) 0.92450(15)
C15 C 0.7809(3) 0.5507(4) 0.88663(18)
H18 H 0.7025 0.5921 0.8888
H19 H 0.8356 0.6263 0.9223
C16 C 0.8032(3) 0.5587(4) 0.79273(18)
H20 H 0.7883 0.6744 0.7705
H21 H 0.8845 0.5317 0.7914
C17 C 0.7257(2) 0.4336(4) 0.73508(16)
C18 C 0.6752(2) 0.2887(4) 0.78199(16)
C19 C 0.5793(2) 0.2200(4) 0.71232(16)
C20 C 0.6322(2) 0.1141(4) 0.64375(17)
C21 C 0.7168(3) 0.2300(5) 0.60361(17)
H22 H 0.7666 0.1580 0.5745
H23 H 0.6716 0.3028 0.5599
C22 C 0.7932(2) 0.3427(5) 0.66869(18)
H24 H 0.8295 0.4297 0.6374
H25 H 0.8552 0.2728 0.7007
C23 C 0.7744(3) 0.3168(5) 1.35530(19)
H26 H 0.7999 0.3008 1.4166
H27 H 0.7068 0.2467 1.3364
H28 H 0.7548 0.4354 1.3439
C24 C 0.9788(3) 0.3800(5) 1.33802(19)
H29 H 0.9996 0.3699 1.4000
H30 H 0.9596 0.4974 1.3230
H31 H 1.0435 0.3444 1.3110
C25 C 0.6281(2) 0.1758(6) 1.17449(18)
H32 H 0.6289 0.1594 1.2356
H33 H 0.5783 0.0911 1.1424
H34 H 0.5990 0.2886 1.1579
C26 C 0.6261(2) 0.4358(5) 1.00704(18)
H35 H 0.6005 0.4362 1.0625
H36 H 0.5757 0.3632 0.9676
H37 H 0.6235 0.5507 0.9844
C27 C 0.9227(2) 0.3120(5) 0.93077(18)
H38 H 0.9442 0.3136 0.8739
H39 H 0.9321 0.1977 0.9542
H40 H 0.9720 0.3896 0.9682
C28 C 0.6141(3) 0.5068(4) 0.68382(18)
C29 C 0.4744(3) 0.1378(5) 0.74160(19)
H41 H 0.4466 0.2106 0.7836
H42 H 0.4963 0.0281 0.7675
H43 H 0.4135 0.1224 0.6924
C30 C 0.5402(3) 0.0416(5) 0.57191(19)
H44 H 0.5779 -0.0229 0.5319
H45 H 0.4964 0.1342 0.5416
H46 H 0.4884 -0.0324 0.5969
O6 O 1.1077(2) 0.2091(4) 1.52852(13)
H47 H 1.0851 0.3040 1.5415
C31 C 1.2216(3) 0.2229(7) 1.5089(2)
H48 H 1.2693 0.2888 1.5533
H49 H 1.2186 0.2793 1.4538
H50 H 1.2545 0.1102 1.5061
loop_
_geom_bond_atom_site_label_1
_geom_bond_atom_site_label_2
_geom_bond_site_symmetry_1
_geom_bond_site_symmetry_2
O1 H1 1_555 1_555
O2 H2 1_555 1_555
O3 C19 1_555 1_555
O4 C28 1_555 1_555
O5 H3 1_555 1_555
C1 H4 1_555 1_555
H5 C1 1_555 1_555
C2 C1 1_555 1_555
H6 C2 1_555 1_555
H7 C2 1_555 1_555
C3 O1 1_555 1_555
H8 C3 1_555 1_555
C4 C3 1_555 1_555
C5 C4 1_555 1_555
H9 C5 1_555 1_555
C6 C5 1_555 1_555
H10 C6 1_555 1_555
H11 C6 1_555 1_555
C7 C6 1_555 1_555
H12 C7 1_555 1_555
H13 C7 1_555 1_555
C8 C7 1_555 1_555
C9 C8 1_555 1_555
H14 C9 1_555 1_555
C10 C1 1_555 1_555
C11 C9 1_555 1_555
H15 C11 1_555 1_555
H16 C11 1_555 1_555
C12 O2 1_555 1_555
H17 C12 1_555 1_555
C13 C12 1_555 1_555
C14 C8 1_555 1_555
C15 C14 1_555 1_555
H18 C15 1_555 1_555
H19 C15 1_555 1_555
C16 C15 1_555 1_555
H20 C16 1_555 1_555
H21 C16 1_555 1_555
C17 C16 1_555 1_555
C18 C13 1_555 1_555
C19 C18 1_555 1_555
C20 O5 1_555 1_555
C21 C20 1_555 1_555
H22 C21 1_555 1_555
H23 C21 1_555 1_555
C22 C17 1_555 1_555
H24 C22 1_555 1_555
H25 C22 1_555 1_555
C23 C4 1_555 1_555
H26 C23 1_555 1_555
H27 C23 1_555 1_555
H28 C23 1_555 1_555
C24 C4 1_555 1_555
H29 C24 1_555 1_555
H30 C24 1_555 1_555
H31 C24 1_555 1_555
C25 C10 1_555 1_555
H32 C25 1_555 1_555
H33 C25 1_555 1_555
H34 C25 1_555 1_555
C26 C8 1_555 1_555
H35 C26 1_555 1_555
H36 C26 1_555 1_555
H37 C26 1_555 1_555
C27 C14 1_555 1_555
H38 C27 1_555 1_555
H39 C27 1_555 1_555
H40 C27 1_555 1_555
C28 O3 1_555 1_555
C29 C19 1_555 1_555
H41 C29 1_555 1_555
H42 C29 1_555 1_555
H43 C29 1_555 1_555
C30 C20 1_555 1_555
H44 C30 1_555 1_555
H45 C30 1_555 1_555
H46 C30 1_555 1_555
O6 H47 1_555 1_555
C31 O6 1_555 1_555
H48 C31 1_555 1_555
H49 C31 1_555 1_555
H50 C31 1_555 1_555
C2 C3 1_555 1_555
C5 C10 1_555 1_555
C9 C10 1_555 1_555
C11 C12 1_555 1_555
C13 C14 1_555 1_555
C17 C18 1_555 1_555
C17 C28 1_555 1_555
C19 C20 1_555 1_555
C21 C22 1_555 1_555

#END
