
#######################################################################
#
#                 Cambridge Crystallographic Data Centre
#                                CCDC 
#
#######################################################################
#
# If this CIF has been generated from an entry in the Cambridge 
# Structural Database, then it will include bibliographic, chemical, 
# crystal, experimental, refinement or atomic coordinate data resulting 
# from the CCDC's data processing and validation procedures.
#
#######################################################################

data_BENTIZ
_chemical_formula_moiety         'C10 H9 Cl1 O2'
_chemical_name_systematic        3-(4-Chlorophenyl)dihydrofuran-2(3H)-one
_symmetry_cell_setting           orthorhombic
_symmetry_space_group_name_H-M   'P 21 21 21'
_symmetry_Int_Tables_number      19
_space_group_name_Hall           'P 2ac 2ab'
loop_
_symmetry_equiv_pos_site_id
_symmetry_equiv_pos_as_xyz
1 x,y,z
2 1/2-x,-y,1/2+z
3 -x,1/2+y,1/2-z
4 1/2+x,1/2-y,-z
_cell_length_a                   5.8792(2)
_cell_length_b                   7.3319(3)
_cell_length_c                   20.5965(7)
_cell_angle_alpha                90
_cell_angle_beta                 90
_cell_angle_gamma                90
_cell_volume                     887.827
_exptl_crystal_colour            colorless
_exptl_crystal_description       block
_cell_formula_units_Z            4
loop_
_atom_site_label
_atom_site_type_symbol
_atom_site_fract_x
_atom_site_fract_y
_atom_site_fract_z
C1 C 0.61202(19) 0.75426(18) 0.43886(5)
C2 C 0.5751(2) 0.60021(16) 0.39010(5)
H1 H 0.7276 0.5643 0.3728
C3 C 0.4917(2) 0.44488(16) 0.43419(5)
H2 H 0.3249 0.4501 0.4405
H3 H 0.5335 0.3240 0.4164
C4 C 0.6180(2) 0.48448(17) 0.49689(6)
H4 H 0.5320 0.4383 0.5348
H5 H 0.7706 0.4273 0.4965
C5 C 0.4264(2) 0.64633(14) 0.33286(5)
C6 C 0.4925(2) 0.59607(14) 0.27036(5)
H6 H 0.6366 0.5403 0.2640
C7 C 0.3516(2) 0.62604(15) 0.21716(5)
H7 H 0.3976 0.5910 0.1747
C8 C 0.1426(2) 0.70824(14) 0.22753(5)
C9 C 0.07188(19) 0.76246(15) 0.28897(5)
H8 H -0.0713 0.8201 0.2950
C10 C 0.21548(19) 0.73042(16) 0.34145(5)
H9 H 0.1693 0.7663 0.3838
Cl1 Cl -0.03672(5) 0.74876(4) 0.161437(12)
O1 O 0.62336(18) 0.91564(13) 0.42933(4)
O2 O 0.63638(18) 0.68339(12) 0.49897(4)
loop_
_geom_bond_atom_site_label_1
_geom_bond_atom_site_label_2
_geom_bond_site_symmetry_1
_geom_bond_site_symmetry_2
C1 C2 1_555 1_555
C2 H1 1_555 1_555
C3 C2 1_555 1_555
H2 C3 1_555 1_555
H3 C3 1_555 1_555
C4 C3 1_555 1_555
H4 C4 1_555 1_555
H5 C4 1_555 1_555
C5 C2 1_555 1_555
C6 C5 1_555 1_555
H6 C6 1_555 1_555
C7 C6 1_555 1_555
H7 C7 1_555 1_555
C8 C7 1_555 1_555
C9 C8 1_555 1_555
H8 C9 1_555 1_555
C10 C5 1_555 1_555
H9 C10 1_555 1_555
Cl1 C8 1_555 1_555
O1 C1 1_555 1_555
O2 C1 1_555 1_555
C4 O2 1_555 1_555
C9 C10 1_555 1_555

#END
