
#######################################################################
#
#                 Cambridge Crystallographic Data Centre
#                                CCDC 
#
#######################################################################
#
# If this CIF has been generated from an entry in the Cambridge 
# Structural Database, then it will include bibliographic, chemical, 
# crystal, experimental, refinement or atomic coordinate data resulting 
# from the CCDC's data processing and validation procedures.
#
#######################################################################

data_BENVIA
_chemical_formula_moiety         'C16 H24 N2 O8'
_chemical_name_systematic        
'2,3-Dimethyl-2,3-dinitro-n-butyl 4,7,7-trimethyl-3-oxo-2-oxabicyclo(2.2.1)heptane-1-carboxylate'
_symmetry_cell_setting           monoclinic
_symmetry_space_group_name_H-M   'P 21'
_symmetry_Int_Tables_number      4
_space_group_name_Hall           'P 2yb'
loop_
_symmetry_equiv_pos_site_id
_symmetry_equiv_pos_as_xyz
1 x,y,z
2 -x,1/2+y,-z
_cell_length_a                   6.3253(4)
_cell_length_b                   13.8840(10)
_cell_length_c                   10.5060(10)
_cell_angle_alpha                90
_cell_angle_beta                 91.630(5)
_cell_angle_gamma                90
_cell_volume                     922.268
_exptl_crystal_colour            yellow
_exptl_crystal_description       prism
_chemical_melting_point          165.1deg.C
_cell_formula_units_Z            2
loop_
_atom_site_label
_atom_site_type_symbol
_atom_site_fract_x
_atom_site_fract_y
_atom_site_fract_z
O1 O -0.0706(5) -0.0380(3) 0.0918(4)
O2 O 0.1798(5) 0.1563(3) 0.2549(4)
O3 O -0.1037(7) 0.3708(4) 0.5035(5)
O4 O -0.0633(7) 0.2788(4) 0.6641(5)
O5 O -0.1301(7) -0.1509(4) -0.0559(5)
O6 O -0.1626(6) 0.1332(5) 0.2025(5)
O7 O 0.3357(10) 0.0887(5) 0.5791(7)
O8 O 0.0196(8) 0.1134(4) 0.5154(7)
N1 N 0.2052(8) 0.1356(4) 0.5213(5)
N2 N 0.0062(7) 0.3223(4) 0.5747(5)
C1 C 0.1041(7) 0.0288(4) 0.1182(5)
C2 C 0.2424(7) 0.3136(4) 0.5485(5)
C3 C 0.5025(8) 0.2179(6) 0.4189(7)
C4 C 0.3465(10) -0.0928(5) 0.0625(6)
C5 C 0.3861(9) 0.1082(5) -0.0211(6)
C6 C 0.2007(8) -0.0566(4) -0.0481(5)
C7 C 0.1795(8) 0.0518(5) -0.0180(5)
C8 C 0.2832(9) -0.0314(5) 0.1760(5)
C9 C 0.0101(10) 0.1031(5) -0.1001(6)
C10 C -0.0137(10) -0.0907(5) -0.0114(7)
C11 C 0.0192(8) 0.1094(5) 0.1940(5)
C12 C 0.2732(8) 0.2279(4) 0.4540(5)
C13 C 0.3561(9) 0.2979(6) 0.6773(6)
C14 C 0.1314(10) 0.2373(5) 0.3348(6)
C15 C 0.3100(11) 0.4092(5) 0.4894(8)
C16 C 0.2669(11) -0.0875(6) -0.1783(6)
H1 H 0.5887 0.2104 0.4950
H2 H 0.5459 0.2745 0.3742
H3 H 0.5185 0.1625 0.3654
H4 H 0.3229 -0.1607 0.0789
H5 H 0.4942 -0.0831 0.0436
H6 H 0.4893 0.0784 0.0349
H7 H 0.3621 0.1732 0.0060
H8 H 0.4371 0.1085 -0.1063
H9 H 0.2349 -0.0711 0.2454
H10 H 0.3995 0.0087 0.2065
H11 H -0.0013 0.1689 -0.0731
H12 H -0.1234 0.0713 -0.0908
H13 H 0.0489 0.1011 -0.1877
H14 H 0.3088 0.2387 0.7140
H15 H 0.3251 0.3504 0.7332
H16 H 0.5059 0.2948 0.6655
H17 H -0.0164 0.2362 0.3570
H18 H 0.1598 0.2973 0.2911
H19 H 0.2295 0.4201 0.4119
H20 H 0.4578 0.4067 0.4713
H21 H 0.2851 0.4608 0.5480
H22 H 0.4114 -0.0693 -0.1901
H23 H 0.1781 -0.0569 -0.2419
H24 H 0.2535 -0.1562 -0.1859
loop_
_geom_bond_atom_site_label_1
_geom_bond_atom_site_label_2
_geom_bond_site_symmetry_1
_geom_bond_site_symmetry_2
O1 C1 1_555 1_555
O2 C11 1_555 1_555
O3 N2 1_555 1_555
O4 N2 1_555 1_555
O5 C10 1_555 1_555
O6 C11 1_555 1_555
O7 N1 1_555 1_555
O8 N1 1_555 1_555
N1 C12 1_555 1_555
N2 C2 1_555 1_555
C1 C7 1_555 1_555
C2 C12 1_555 1_555
C3 C12 1_555 1_555
C4 C6 1_555 1_555
C5 C7 1_555 1_555
C6 C7 1_555 1_555
C7 C9 1_555 1_555
C8 C1 1_555 1_555
C9 H11 1_555 1_555
C10 O1 1_555 1_555
C11 C1 1_555 1_555
C12 C14 1_555 1_555
C13 C2 1_555 1_555
C14 O2 1_555 1_555
C15 C2 1_555 1_555
C16 C6 1_555 1_555
H1 C3 1_555 1_555
H2 C3 1_555 1_555
H3 C3 1_555 1_555
H4 C4 1_555 1_555
H5 C4 1_555 1_555
H6 C5 1_555 1_555
H7 C5 1_555 1_555
H8 C5 1_555 1_555
H9 C8 1_555 1_555
H10 C8 1_555 1_555
H12 C9 1_555 1_555
H13 C9 1_555 1_555
H14 C13 1_555 1_555
H15 C13 1_555 1_555
H16 C13 1_555 1_555
H17 C14 1_555 1_555
H18 C14 1_555 1_555
H19 C15 1_555 1_555
H20 C15 1_555 1_555
H21 C15 1_555 1_555
H22 C16 1_555 1_555
H23 C16 1_555 1_555
H24 C16 1_555 1_555
C4 C8 1_555 1_555
C6 C10 1_555 1_555

#END
