
#######################################################################
#
#                 Cambridge Crystallographic Data Centre
#                                CCDC 
#
#######################################################################
#
# If this CIF has been generated from an entry in the Cambridge 
# Structural Database, then it will include bibliographic, chemical, 
# crystal, experimental, refinement or atomic coordinate data resulting 
# from the CCDC's data processing and validation procedures.
#
#######################################################################

data_BENVEW
_chemical_formula_moiety         'C6 H12 N2 O5'
_chemical_name_systematic        (+-)-2,3-Dimethyl-2,3-dinitrobutanol
_symmetry_cell_setting           monoclinic
_symmetry_space_group_name_H-M   'P 21/n'
_symmetry_Int_Tables_number      14
_space_group_name_Hall           '-P 2yn'
loop_
_symmetry_equiv_pos_site_id
_symmetry_equiv_pos_as_xyz
1 x,y,z
2 1/2+x,1/2-y,1/2+z
3 -x,-y,-z
4 1/2-x,1/2+y,1/2-z
_cell_length_a                   6.3512(2)
_cell_length_b                   19.1820(10)
_cell_length_c                   22.1160(9)
_cell_angle_alpha                90
_cell_angle_beta                 91.623(3)
_cell_angle_gamma                90
_cell_volume                     2693.28
_exptl_crystal_colour            yellow
_exptl_crystal_description       prism
_cell_formula_units_Z            12
loop_
_atom_site_label
_atom_site_type_symbol
_atom_site_fract_x
_atom_site_fract_y
_atom_site_fract_z
N1 N 0.9891(4) 0.18012(14) 0.38432(11)
N2 N 0.8794(4) 0.04973(12) 0.43881(10)
O1 O 0.6166(4) 0.19148(14) 0.30559(11)
O2 O 1.0685(4) 0.04189(13) 0.44461(11)
O3 O 1.0547(4) 0.13830(15) 0.34775(12)
O5 O 0.7631(4) 0.00595(12) 0.41644(12)
O7 O 1.0939(4) 0.22768(16) 0.40491(13)
C2 C 0.7634(4) 0.16972(13) 0.40665(11)
C3 C 0.7810(4) 0.11830(13) 0.46168(11)
C8 C 0.9237(5) 0.14440(18) 0.51325(14)
C9 C 0.5640(5) 0.10042(19) 0.48522(15)
C10 C 0.6314(5) 0.14152(16) 0.35276(13)
C15 C 0.6818(6) 0.24032(17) 0.42620(17)
H1 H 0.7084 0.1840 0.2811
H6 H 1.0572 0.1579 0.4977
H7 H 0.9444 0.1079 0.5425
H8 H 0.8595 0.1838 0.5321
H9 H 0.5786 0.0666 0.5170
H10 H 0.4775 0.0816 0.4529
H11 H 0.4995 0.1418 0.5006
H12 H 0.6956 0.0993 0.3378
H13 H 0.4912 0.1299 0.3659
H25 H 0.5403 0.2355 0.4398
H26 H 0.6834 0.2720 0.3926
H27 H 0.7701 0.2581 0.4586
N3 N 0.3969(4) 0.28297(13) 0.59292(12)
O6 O 0.3933(4) 0.32525(15) 0.71652(11)
C1 C 0.2831(4) 0.34935(14) 0.61320(12)
O8 O 0.6024(4) 0.46438(18) 0.57285(15)
O9 O 0.5848(4) 0.28010(14) 0.59820(14)
N6 N 0.5138(4) 0.41928(17) 0.54545(14)
O12 O 0.5953(5) 0.38509(19) 0.50602(16)
C5 C 0.4043(5) 0.37485(16) 0.66980(13)
C6 C 0.2808(4) 0.40228(16) 0.55964(13)
C11 C 0.0598(5) 0.3290(2) 0.62915(17)
O14 O 0.2947(5) 0.23614(16) 0.5715(2)
C13 C 0.1792(6) 0.47104(18) 0.57733(18)
C17 C 0.1782(7) 0.3745(3) 0.50197(16)
H3 H 0.5099 0.3079 0.7227
H4 H 0.5504 0.3829 0.6602
H5 H 0.3451 0.4187 0.6831
H14 H -0.0146 0.3127 0.5935
H15 H -0.0115 0.3688 0.6451
H16 H 0.0647 0.2926 0.6590
H19 H 0.0342 0.4632 0.5865
H20 H 0.1871 0.5034 0.5444
H21 H 0.2521 0.4898 0.6123
H31 H 0.2442 0.3314 0.4911
H32 H 0.1942 0.4078 0.4700
H33 H 0.0311 0.3666 0.5081
O4 O 0.7534(4) 0.75595(12) 0.74376(13)
N4 N 1.0345(4) 0.64604(15) 0.73346(17)
C4 C 0.7982(4) 0.63073(14) 0.73852(12)
N5 N 0.8880(4) 0.50388(13) 0.74360(13)
O10 O 1.0750(4) 0.49996(15) 0.74888(16)
O11 O 1.1155(5) 0.6326(2) 0.68593(18)
C7 C 0.7742(4) 0.56255(15) 0.77655(13)
O13 O 1.1284(4) 0.66941(16) 0.77734(19)
C12 C 0.7051(5) 0.69258(16) 0.77158(15)
C14 C 0.8728(8) 0.5644(2) 0.83981(16)
O15 O 0.7921(6) 0.4646(2) 0.7129(3)
C16 C 0.7018(7) 0.6253(2) 0.67505(15)
C18 C 0.5423(5) 0.5424(2) 0.7798(2)
H2 H 0.6577 0.7667 0.7199
H17 H 0.5533 0.6874 0.7725
H18 H 0.7594 0.6931 0.8130
H22 H 1.0169 0.5791 0.8378
H23 H 0.8672 0.5187 0.8574
H24 H 0.7966 0.5966 0.8643
H28 H 0.7579 0.5851 0.6552
H29 H 0.7349 0.6665 0.6526
H30 H 0.5517 0.6208 0.6773
H34 H 0.4708 0.5754 0.8047
H35 H 0.5309 0.4967 0.7971
H36 H 0.4793 0.5426 0.7399
loop_
_geom_bond_atom_site_label_1
_geom_bond_atom_site_label_2
_geom_bond_site_symmetry_1
_geom_bond_site_symmetry_2
N1 O3 1_555 1_555
N2 O2 1_555 1_555
O1 C10 1_555 1_555
N3 C1 1_555 1_555
O4 C12 1_555 1_555
O5 N2 1_555 1_555
O6 C5 1_555 1_555
C1 C5 1_555 1_555
O7 N1 1_555 1_555
O8 N6 1_555 1_555
N4 C4 1_555 1_555
C2 N1 1_555 1_555
O9 N3 1_555 1_555
C3 N2 1_555 1_555
C4 C7 1_555 1_555
N5 O10 1_555 1_555
N6 O12 1_555 1_555
O11 N4 1_555 1_555
C5 H4 1_555 1_555
C6 C1 1_555 1_555
C7 N5 1_555 1_555
C8 C3 1_555 1_555
C9 C3 1_555 1_555
C10 C2 1_555 1_555
O13 N4 1_555 1_555
C11 C1 1_555 1_555
O14 N3 1_555 1_555
C12 C4 1_555 1_555
C13 C6 1_555 1_555
C14 C7 1_555 1_555
C15 C2 1_555 1_555
O15 N5 1_555 1_555
C16 C4 1_555 1_555
C17 C6 1_555 1_555
C18 C7 1_555 1_555
H1 O1 1_555 1_555
H2 O4 1_555 1_555
H3 O6 1_555 1_555
H5 C5 1_555 1_555
H6 C8 1_555 1_555
H7 C8 1_555 1_555
H8 C8 1_555 1_555
H9 C9 1_555 1_555
H10 C9 1_555 1_555
H11 C9 1_555 1_555
H12 C10 1_555 1_555
H13 C10 1_555 1_555
H14 C11 1_555 1_555
H15 C11 1_555 1_555
H16 C11 1_555 1_555
H17 C12 1_555 1_555
H18 C12 1_555 1_555
H19 C13 1_555 1_555
H20 C13 1_555 1_555
H21 C13 1_555 1_555
H22 C14 1_555 1_555
H23 C14 1_555 1_555
H24 C14 1_555 1_555
H25 C15 1_555 1_555
H26 C15 1_555 1_555
H27 C15 1_555 1_555
H28 C16 1_555 1_555
H29 C16 1_555 1_555
H30 C16 1_555 1_555
H31 C17 1_555 1_555
H32 C17 1_555 1_555
H33 C17 1_555 1_555
H34 C18 1_555 1_555
H35 C18 1_555 1_555
H36 C18 1_555 1_555
C2 C3 1_555 1_555
N6 C6 1_555 1_555

#END
