
#######################################################################
#
#                 Cambridge Crystallographic Data Centre
#                                CCDC 
#
#######################################################################
#
# If this CIF has been generated from an entry in the Cambridge 
# Structural Database, then it will include bibliographic, chemical, 
# crystal, experimental, refinement or atomic coordinate data resulting 
# from the CCDC's data processing and validation procedures.
#
#######################################################################

data_BENXOK
_chemical_formula_moiety         'C38 H66 N2 O6 P2 S2,15(H2 O1)'
_chemical_name_systematic        
"4,4'-(pyrazine-2,3-diylbis(methylene(dicyclohexylphosphoniumdiyl)))dibutane-1-sulfonate unknown solvate pentadecahydrate"
_symmetry_cell_setting           triclinic
_symmetry_space_group_name_H-M   'P -1'
_symmetry_Int_Tables_number      2
_space_group_name_Hall           '-P 1'
loop_
_symmetry_equiv_pos_site_id
_symmetry_equiv_pos_as_xyz
1 x,y,z
2 -x,-y,-z
_cell_length_a                   13.1432(6)
_cell_length_b                   14.2603(6)
_cell_length_c                   16.3102(7)
_cell_angle_alpha                99.7610(15)
_cell_angle_beta                 104.0954(15)
_cell_angle_gamma                96.6406(16)
_cell_volume                     2882.34
_exptl_crystal_colour            colorless
_exptl_crystal_description       prism
_cell_formula_units_Z            2
loop_
_atom_site_label
_atom_site_type_symbol
_atom_site_fract_x
_atom_site_fract_y
_atom_site_fract_z
C1 C 0.3065(2) 0.68902(16) 0.19597(15)
H1 H 0.2431 0.6897 0.2175
H2 H 0.3639 0.7355 0.2382
C2 C 0.28380(18) 0.72501(16) 0.11285(14)
C3 C 0.23787(19) 0.69370(18) -0.03398(15)
H3 H 0.2224 0.6501 -0.0872
C4 C 0.23527(19) 0.79011(19) -0.03340(15)
H4 H 0.2167 0.8103 -0.0863
C5 C 0.28432(17) 0.82389(16) 0.11372(14)
C6 C 0.31560(19) 0.89667(16) 0.19722(15)
H5 H 0.3923 0.9015 0.2220
H6 H 0.2801 0.8713 0.2371
C7 C 0.45380(19) 0.55972(17) 0.14628(14)
H7 H 0.4250 0.5495 0.0829
C8 C 0.5376(2) 0.6516(2) 0.17533(19)
H8 H 0.5049 0.7062 0.1584
H9 H 0.5649 0.6657 0.2384
C9 C 0.6293(2) 0.6385(2) 0.1342(2)
H10 H 0.6029 0.6302 0.0713
H11 H 0.6837 0.6966 0.1552
C10 C 0.6791(2) 0.5510(3) 0.1557(2)
H12 H 0.7358 0.5430 0.1270
H13 H 0.7107 0.5616 0.2182
C11 C 0.5965(2) 0.4605(2) 0.12673(19)
H14 H 0.6295 0.4060 0.1437
H15 H 0.5701 0.4466 0.0636
C12 C 0.5036(2) 0.47081(19) 0.16600(17)
H16 H 0.5283 0.4769 0.2287
H17 H 0.4495 0.4128 0.1427
C13 C 0.23454(19) 0.46970(17) 0.14234(15)
H18 H 0.2475 0.4184 0.1758
C14 C 0.2276(2) 0.42426(19) 0.04877(17)
H19 H 0.2095 0.4707 0.0118
H20 H 0.2967 0.4074 0.0447
C15 C 0.1430(3) 0.3339(2) 0.0180(2)
H21 H 0.1375 0.3065 -0.0425
H22 H 0.1644 0.2858 0.0523
C16 C 0.0353(3) 0.3560(3) 0.0264(3)
H23 H 0.0093 0.3970 -0.0141
H24 H -0.0155 0.2957 0.0109
C17 C 0.0413(3) 0.4066(3) 0.1173(3)
H25 H 0.0566 0.3618 0.1564
H26 H -0.0279 0.4251 0.1188
C18 C 0.1267(2) 0.4963(2) 0.1491(2)
H27 H 0.1312 0.5244 0.2093
H28 H 0.1078 0.5445 0.1142
C19 C 0.3884(2) 0.56528(18) 0.30670(14)
H29 H 0.4200 0.5067 0.3106
H30 H 0.4451 0.6204 0.3350
C20 C 0.3053(2) 0.5659(2) 0.35761(15)
H31 H 0.2699 0.6223 0.3522
H32 H 0.2512 0.5079 0.3339
C21 C 0.3575(2) 0.5690(2) 0.45253(16)
H33 H 0.4145 0.6249 0.4751
H34 H 0.3893 0.5108 0.4580
C22 C 0.2768(2) 0.5757(2) 0.50561(16)
H35 H 0.2178 0.5218 0.4805
H36 H 0.2480 0.6357 0.5024
C23 C 0.36232(19) 1.09085(18) 0.14146(16)
H37 H 0.3705 1.1576 0.1743
C24 C 0.3115(2) 1.0957(2) 0.04796(18)
H38 H 0.3077 1.0334 0.0101
H39 H 0.2390 1.1094 0.0419
C25 C 0.3774(2) 1.1745(2) 0.0218(2)
H40 H 0.3462 1.1754 -0.0390
H41 H 0.3755 1.2372 0.0564
C26 C 0.4911(3) 1.1591(3) 0.0343(2)
H42 H 0.5321 1.2145 0.0222
H43 H 0.4936 1.1016 -0.0072
C27 C 0.5421(3) 1.1466(3) 0.1246(3)
H44 H 0.5522 1.2083 0.1651
H45 H 0.6124 1.1288 0.1268
C28 C 0.4759(2) 1.0699(2) 0.1530(2)
H46 H 0.5079 1.0694 0.2138
H47 H 0.4748 1.0063 0.1186
C29 C 0.14581(18) 1.01508(17) 0.14963(15)
H48 H 0.1317 0.9998 0.0860
C30 C 0.0745(2) 0.9378(2) 0.17370(18)
H49 H 0.0926 0.8743 0.1553
H50 H 0.0862 0.9501 0.2365
C31 C -0.0419(2) 0.9389(2) 0.1300(2)
H51 H -0.0545 0.9205 0.0673
H52 H -0.0871 0.8912 0.1480
C32 C -0.0722(2) 1.0380(2) 0.1530(2)
H53 H -0.1463 1.0370 0.1217
H54 H -0.0664 1.0537 0.2150
C33 C -0.0007(2) 1.1151(2) 0.1301(2)
H55 H -0.0192 1.1785 0.1485
H56 H -0.0121 1.1033 0.0673
C34 C 0.1164(2) 1.11524(19) 0.1738(2)
H57 H 0.1294 1.1333 0.2366
H58 H 0.1613 1.1631 0.1557
C35 C 0.3337(2) 1.08030(17) 0.30572(15)
H59 H 0.4098 1.1044 0.3174
H60 H 0.2982 1.1369 0.3115
C36 C 0.3196(2) 1.02750(19) 0.37677(16)
H61 H 0.2442 1.0020 0.3672
H62 H 0.3590 0.9732 0.3761
C37 C 0.3606(2) 1.09699(19) 0.46349(16)
H63 H 0.4311 1.1315 0.4672
H64 H 0.3131 1.1448 0.4669
C38 C 0.3686(2) 1.04803(19) 0.53983(16)
H65 H 0.4209 1.0043 0.5397
H66 H 0.2997 1.0094 0.5342
N1 N 0.26166(17) 0.66034(15) 0.03890(13)
N2 N 0.25838(17) 0.85579(15) 0.04023(13)
O1 O 0.41519(18) 0.65670(16) 0.65166(13)
O2 O 0.37608(18) 0.48399(16) 0.61616(13)
O3 O 0.24568(19) 0.57561(18) 0.65603(14)
O4 O 0.49898(18) 1.19790(17) 0.63707(14)
O5 O 0.43110(17) 1.08028(17) 0.70779(13)
O6 O 0.31581(17) 1.18231(15) 0.64113(13)
P1 P 0.34329(5) 0.57015(4) 0.19400(4)
P2 P 0.28731(5) 1.01747(4) 0.19431(4)
S1 S 0.33256(5) 0.57284(5) 0.61565(4)
S2 S 0.40669(5) 1.13295(5) 0.63898(4)
O7 O 0.2235(2) 0.2959(2) 0.36235(18)
H67 H 0.165(2) 0.318(3) 0.348(2)
H68 H 0.235(3) 0.291(4) 0.4152(11)
O8 O 0.6085(2) 0.16287(17) 0.38367(17)
H69 H 0.610(3) 0.2182(14) 0.371(3)
H70 H 0.662(2) 0.142(3) 0.372(3)
O9 O 0.3343(2) 0.8042(2) 0.43995(17)
H71 H 0.388(2) 0.808(3) 0.419(3)
H72 H 0.352(3) 0.802(3) 0.4932(9)
O10 O 0.7463(2) 0.68772(18) 0.45907(18)
H73 H 0.727(3) 0.725(3) 0.425(2)
H74 H 0.708(3) 0.6321(15) 0.439(3)
O11 O 0.7114(2) 0.9431(2) 0.19505(19)
H75 H 0.660(2) 0.927(3) 0.217(3)
H76 H 0.765(2) 0.918(3) 0.216(3)
O12 O 0.1500(2) 0.7945(2) 0.31810(18)
H77 H 0.157(3) 0.785(3) 0.3689(12)
H78 H 0.121(3) 0.8451(19) 0.314(2)
O13 O 0.8535(2) 0.8242(2) 0.28088(19)
H79 H 0.807(3) 0.809(3) 0.306(3)
H80 H 0.907(2) 0.861(3) 0.316(2)
O14 O 0.0305(2) 0.3695(2) 0.3433(2)
H81 H 0.035(4) 0.363(3) 0.3950(11)
H82 H 0.004(4) 0.421(2) 0.342(3)
O15 O 0.8262(2) 0.2756(2) 0.24646(16)
H83 H 0.795(3) 0.317(2) 0.269(3)
H84 H 0.8914(11) 0.298(3) 0.269(3)
O16 O 0.3621(2) 0.31638(18) 0.25892(17)
H85 H 0.322(3) 0.309(3) 0.292(2)
H86 H 0.4254(13) 0.324(3) 0.291(2)
O17 O 0.0408(3) 0.9369(3) 0.3963(2)
H87 H 0.037(4) 0.9968(11) 0.405(3)
H88 H 0.062(4) 0.921(3) 0.4447(14)
O18 O 0.7740(2) 0.1154(2) 0.31286(17)
O19 O 0.9440(2) 0.5412(2) 0.3471(2)
O20 O 0.9596(2) 0.6666(2) 0.2344(2)
O21 O 0.9573(3) 0.6809(2) 0.4967(2)
loop_
_geom_bond_atom_site_label_1
_geom_bond_atom_site_label_2
_geom_bond_site_symmetry_1
_geom_bond_site_symmetry_2
C1 H1 1_555 1_555
H2 C1 1_555 1_555
C2 C1 1_555 1_555
C3 H3 1_555 1_555
C4 C3 1_555 1_555
H4 C4 1_555 1_555
C5 C2 1_555 1_555
C6 C5 1_555 1_555
H5 C6 1_555 1_555
H6 C6 1_555 1_555
C7 H7 1_555 1_555
C8 C7 1_555 1_555
H8 C8 1_555 1_555
H9 C8 1_555 1_555
C9 C8 1_555 1_555
H10 C9 1_555 1_555
H11 C9 1_555 1_555
C10 C9 1_555 1_555
H12 C10 1_555 1_555
H13 C10 1_555 1_555
C11 C10 1_555 1_555
H14 C11 1_555 1_555
H15 C11 1_555 1_555
C12 C7 1_555 1_555
H16 C12 1_555 1_555
H17 C12 1_555 1_555
C13 H18 1_555 1_555
C14 C13 1_555 1_555
H19 C14 1_555 1_555
H20 C14 1_555 1_555
C15 C14 1_555 1_555
H21 C15 1_555 1_555
H22 C15 1_555 1_555
C16 C15 1_555 1_555
H23 C16 1_555 1_555
H24 C16 1_555 1_555
C17 C16 1_555 1_555
H25 C17 1_555 1_555
H26 C17 1_555 1_555
C18 C13 1_555 1_555
H27 C18 1_555 1_555
H28 C18 1_555 1_555
C19 H29 1_555 1_555
H30 C19 1_555 1_555
C20 C19 1_555 1_555
H31 C20 1_555 1_555
H32 C20 1_555 1_555
C21 C20 1_555 1_555
H33 C21 1_555 1_555
H34 C21 1_555 1_555
C22 C21 1_555 1_555
H35 C22 1_555 1_555
H36 C22 1_555 1_555
C23 H37 1_555 1_555
C24 C23 1_555 1_555
H38 C24 1_555 1_555
H39 C24 1_555 1_555
C25 C24 1_555 1_555
H40 C25 1_555 1_555
H41 C25 1_555 1_555
C26 C25 1_555 1_555
H42 C26 1_555 1_555
H43 C26 1_555 1_555
C27 C26 1_555 1_555
H44 C27 1_555 1_555
H45 C27 1_555 1_555
C28 C23 1_555 1_555
H46 C28 1_555 1_555
H47 C28 1_555 1_555
C29 H48 1_555 1_555
C30 C29 1_555 1_555
H49 C30 1_555 1_555
H50 C30 1_555 1_555
C31 C30 1_555 1_555
H51 C31 1_555 1_555
H52 C31 1_555 1_555
C32 C31 1_555 1_555
H53 C32 1_555 1_555
H54 C32 1_555 1_555
C33 C32 1_555 1_555
H55 C33 1_555 1_555
H56 C33 1_555 1_555
C34 C29 1_555 1_555
H57 C34 1_555 1_555
H58 C34 1_555 1_555
C35 H59 1_555 1_555
H60 C35 1_555 1_555
C36 C35 1_555 1_555
H61 C36 1_555 1_555
H62 C36 1_555 1_555
C37 C36 1_555 1_555
H63 C37 1_555 1_555
H64 C37 1_555 1_555
C38 C37 1_555 1_555
H65 C38 1_555 1_555
H66 C38 1_555 1_555
N1 C2 1_555 1_555
N2 C4 1_555 1_555
O1 S1 1_555 1_555
O2 S1 1_555 1_555
O3 S1 1_555 1_555
O4 S2 1_555 1_555
O5 S2 1_555 1_555
O6 S2 1_555 1_555
P1 C1 1_555 1_555
P2 C6 1_555 1_555
S1 C22 1_555 1_555
S2 C38 1_555 1_555
O7 H67 1_555 1_555
H68 O7 1_555 1_555
O8 H69 1_555 1_555
H70 O8 1_555 1_555
O9 H71 1_555 1_555
H72 O9 1_555 1_555
O10 H73 1_555 1_555
H74 O10 1_555 1_555
O11 H75 1_555 1_555
H76 O11 1_555 1_555
O12 H77 1_555 1_555
H78 O12 1_555 1_555
O13 H79 1_555 1_555
H80 O13 1_555 1_555
O14 H81 1_555 1_555
H82 O14 1_555 1_555
O15 H83 1_555 1_555
H84 O15 1_555 1_555
O16 H85 1_555 1_555
H86 O16 1_555 1_555
O17 H87 1_555 1_555
H88 O17 1_555 1_555
C3 N1 1_555 1_555
C5 N2 1_555 1_555
C7 P1 1_555 1_555
C11 C12 1_555 1_555
C13 P1 1_555 1_555
C17 C18 1_555 1_555
C19 P1 1_555 1_555
C23 P2 1_555 1_555
C27 C28 1_555 1_555
C29 P2 1_555 1_555
C33 C34 1_555 1_555
C35 P2 1_555 1_555

#END
