
#######################################################################
#
#                 Cambridge Crystallographic Data Centre
#                                CCDC 
#
#######################################################################
#
# If this CIF has been generated from an entry in the Cambridge 
# Structural Database, then it will include bibliographic, chemical, 
# crystal, experimental, refinement or atomic coordinate data resulting 
# from the CCDC's data processing and validation procedures.
#
#######################################################################

data_BENXIB
_chemical_compound_source        'Angelica glauca Edgew'
_chemical_formula_moiety         'C24 H28 O4'
_chemical_name_systematic        Angeolide
_symmetry_cell_setting           monoclinic
_symmetry_space_group_name_H-M   'P 21/c'
_symmetry_Int_Tables_number      14
_space_group_name_Hall           '-P 2ybc'
loop_
_symmetry_equiv_pos_site_id
_symmetry_equiv_pos_as_xyz
1 x,y,z
2 -x,1/2+y,1/2-z
3 -x,-y,-z
4 x,1/2-y,1/2+z
_cell_length_a                   22.737(7)
_cell_length_b                   9.130(3)
_cell_length_c                   19.839(8)
_cell_angle_alpha                90
_cell_angle_beta                 91.43(3)
_cell_angle_gamma                90
_cell_volume                     4117.07
_chemical_melting_point          130deg.C
_cell_formula_units_Z            8
loop_
_atom_site_label
_atom_site_type_symbol
_atom_site_fract_x
_atom_site_fract_y
_atom_site_fract_z
C1 C 0.13170 0.83630 0.08260
C2 C 0.11490 0.96520 0.03530
C3 C 0.08680 0.90140 -0.03050
C4 C 0.08780 0.73430 -0.02890
C5 C 0.15060 0.68730 -0.01420
C6 C 0.17180 0.74240 0.04260
C7 C 0.05020 0.68180 0.03110
C8 C 0.07560 0.74570 0.09740
C9 C 0.22960 0.73260 0.07610
O1 O 0.22730 0.81410 0.13370
C10 C 0.16990 0.87040 0.14430
O2 O 0.27420 0.67300 0.06000
C11 C 0.16140 0.93110 0.20300
C12 C 0.10590 0.99600 0.22860
C13 C 0.10800 1.01260 0.30200
C14 C 0.05580 1.08730 0.32900
O3 O 0.06970 1.05290 0.06810
C15 C 0.08920 1.19250 0.07800
O4 O 0.05880 1.28450 0.10450
C16 C 0.14830 1.20330 0.05150
C17 C 0.16370 1.07420 0.02700
C18 C 0.18670 1.33180 0.05220
C19 C 0.23400 1.32740 0.01410
C20 C 0.24630 1.19830 -0.02940
C21 C 0.22430 1.05280 -0.00040
C22 C 0.11090 0.96190 -0.09640
C23 C 0.06980 0.94310 -0.15740
C24 C 0.09810 0.98940 -0.22320
H1 H 0.13000 0.90330 -0.22980
H2 H 0.12060 1.09290 -0.21700
H3 H 0.06910 0.99450 -0.26720
H4 H 0.04190 0.93160 -0.02400
H5 H 0.07200 0.69480 -0.07310
H6 H 0.17360 0.62450 -0.04950
H7 H 0.00790 0.72790 0.01940
H8 H 0.05620 0.56610 0.03500
H9 H 0.04880 0.81990 0.12260
H10 H 0.08980 0.65870 0.13000
H11 H 0.19740 0.91600 0.23910
H12 H 0.07280 1.00070 0.19230
H13 H 0.17590 1.42680 0.08230
H14 H 0.25970 1.42650 0.01170
H15 H 0.29230 1.18420 -0.04240
H16 H 0.22740 1.21390 -0.07880
H17 H 0.22680 0.96340 -0.03520
H18 H 0.25050 1.02150 0.04300
H19 H 0.12130 1.07410 -0.09110
H20 H 0.15190 0.90660 -0.10450
H21 H 0.03480 1.01660 -0.14720
H22 H 0.05960 0.82800 -0.16000
C25 C 0.35290 0.72960 0.29970
C26 C 0.41060 0.67590 0.33370
C27 C 0.46010 0.79260 0.32070
C28 C 0.43340 0.92240 0.28090
C29 C 0.38140 0.98020 0.31830
C30 C 0.34080 0.87870 0.32740
C31 C 0.40970 0.86270 0.21250
C32 C 0.36200 0.74650 0.22290
C33 C 0.28320 0.88330 0.35720
O5 O 0.25890 0.74760 0.35240
C34 C 0.29600 0.64950 0.31730
O6 O 0.25660 0.98330 0.38220
C35 C 0.27440 0.52030 0.30460
C36 C 0.30230 0.39440 0.26930
C37 C 0.26380 0.32050 0.22220
C38 C 0.29390 0.19090 0.18590
O7 O 0.42950 0.54090 0.30020
C39 C 0.43370 0.42830 0.34610
O8 O 0.44780 0.30700 0.32840
C40 C 0.41770 0.48490 0.41140
C41 C 0.40320 0.62630 0.40540
C42 C 0.41450 0.40470 0.47450
C43 C 0.40500 0.47840 0.52950
C44 C 0.40150 0.64160 0.52990
C45 C 0.37820 0.70590 0.46360
C46 C 0.49420 0.84160 0.38440
C47 C 0.55000 0.92650 0.36780
C48 C 0.58880 0.96120 0.42810
H23 H 0.31720 0.31630 0.30680
H24 H 0.33950 0.43540 0.24230
H25 H 0.55400 1.01530 0.45460
H26 H 0.62480 1.03650 0.42160
H27 H 0.56030 0.86760 0.45700
H28 H 0.48890 0.73710 0.28750
H29 H 0.46730 1.00020 0.27200
H30 H 0.37550 1.08460 0.34080
H31 H 0.39500 0.95290 0.18530
H32 H 0.44450 0.80790 0.18800
H33 H 0.32100 0.78380 0.20250
H34 H 0.37340 0.64250 0.20470
H35 H 0.23350 0.49620 0.32540
H36 H 0.41530 0.28960 0.46710
H37 H 0.40170 0.43130 0.57760
H38 H 0.37180 0.67720 0.56830
H39 H 0.44360 0.69130 0.54270
H40 H 0.38250 0.82370 0.45840
H41 H 0.33120 0.69980 0.46160
H42 H 0.50250 0.74940 0.41570
H43 H 0.46480 0.90660 0.41490
H44 H 0.54020 1.01620 0.33330
H45 H 0.57390 0.85110 0.33740
loop_
_geom_bond_atom_site_label_1
_geom_bond_atom_site_label_2
_geom_bond_site_symmetry_1
_geom_bond_site_symmetry_2
C1 C2 1_555 1_555
C2 C3 1_555 1_555
C3 C4 1_555 1_555
C4 C5 1_555 1_555
C5 C6 1_555 1_555
C6 C1 1_555 1_555
C7 C4 1_555 1_555
C8 C1 1_555 1_555
C9 C6 1_555 1_555
O1 C9 1_555 1_555
C10 C1 1_555 1_555
O2 C9 1_555 1_555
C11 C10 1_555 1_555
C12 C11 1_555 1_555
C13 C12 1_555 1_555
C14 C13 1_555 1_555
O3 C2 1_555 1_555
C15 O3 1_555 1_555
O4 C15 1_555 1_555
C16 C15 1_555 1_555
C17 C2 1_555 1_555
C18 C16 1_555 1_555
C19 C18 1_555 1_555
C20 C19 1_555 1_555
C21 C17 1_555 1_555
C22 C3 1_555 1_555
C23 C22 1_555 1_555
C24 C23 1_555 1_555
H1 C24 1_555 1_555
H2 C24 1_555 1_555
H3 C24 1_555 1_555
H4 C3 1_555 1_555
H5 C4 1_555 1_555
H6 C5 1_555 1_555
H7 C7 1_555 1_555
H8 C7 1_555 1_555
H9 C8 1_555 1_555
H10 C8 1_555 1_555
H11 C11 1_555 1_555
H12 C12 1_555 1_555
H13 C18 1_555 1_555
H14 C19 1_555 1_555
H15 C20 1_555 1_555
H16 C20 1_555 1_555
H17 C21 1_555 1_555
H18 C21 1_555 1_555
H19 C22 1_555 1_555
H20 C22 1_555 1_555
H21 C23 1_555 1_555
H22 C23 1_555 1_555
C25 C26 1_555 1_555
C26 C27 1_555 1_555
C27 C28 1_555 1_555
C28 C29 1_555 1_555
C29 C30 1_555 1_555
C30 C25 1_555 1_555
C31 C28 1_555 1_555
C32 C25 1_555 1_555
C33 C30 1_555 1_555
O5 C33 1_555 1_555
C34 C25 1_555 1_555
O6 C33 1_555 1_555
C35 C34 1_555 1_555
C36 C35 1_555 1_555
C37 C36 1_555 1_555
C38 C37 1_555 1_555
O7 C26 1_555 1_555
C39 O7 1_555 1_555
O8 C39 1_555 1_555
C40 C39 1_555 1_555
C41 C26 1_555 1_555
C42 C40 1_555 1_555
C43 C42 1_555 1_555
C44 C43 1_555 1_555
C45 C41 1_555 1_555
C46 C27 1_555 1_555
C47 C46 1_555 1_555
C48 C47 1_555 1_555
H23 C36 1_555 1_555
H24 C36 1_555 1_555
H25 C48 1_555 1_555
H26 C48 1_555 1_555
H27 C48 1_555 1_555
H28 C27 1_555 1_555
H29 C28 1_555 1_555
H30 C29 1_555 1_555
H31 C31 1_555 1_555
H32 C31 1_555 1_555
H33 C32 1_555 1_555
H34 C32 1_555 1_555
H35 C35 1_555 1_555
H36 C42 1_555 1_555
H37 C43 1_555 1_555
H38 C44 1_555 1_555
H39 C44 1_555 1_555
H40 C45 1_555 1_555
H41 C45 1_555 1_555
H42 C46 1_555 1_555
H43 C46 1_555 1_555
H44 C47 1_555 1_555
H45 C47 1_555 1_555
C7 C8 1_555 1_555
O1 C10 1_555 1_555
C16 C17 1_555 1_555
C20 C21 1_555 1_555
C31 C32 1_555 1_555
O5 C34 1_555 1_555
C40 C41 1_555 1_555
C44 C45 1_555 1_555

#END
