
#######################################################################
#
#                 Cambridge Crystallographic Data Centre
#                                CCDC 
#
#######################################################################
#
# If this CIF has been generated from an entry in the Cambridge 
# Structural Database, then it will include bibliographic, chemical, 
# crystal, experimental, refinement or atomic coordinate data resulting 
# from the CCDC's data processing and validation procedures.
#
#######################################################################

data_BENXEA
_chemical_formula_moiety         'C38 H42 N2 O6 P2 S2,3(H2 O1)'
_chemical_name_systematic        
"4,4'-(pyrazine-2,3-diylbis(methylene(diphenylphosphoniumdiyl)))dibutane-1-sulfonate trihydrate"
_symmetry_cell_setting           monoclinic
_symmetry_space_group_name_H-M   'P 21/n'
_symmetry_Int_Tables_number      14
_space_group_name_Hall           '-P 2yn'
loop_
_symmetry_equiv_pos_site_id
_symmetry_equiv_pos_as_xyz
1 x,y,z
2 1/2-x,1/2+y,1/2-z
3 -x,-y,-z
4 1/2+x,1/2-y,1/2+z
_cell_length_a                   12.1680(7)
_cell_length_b                   16.4620(9)
_cell_length_c                   20.5828(12)
_cell_angle_alpha                90
_cell_angle_beta                 106.522(1)
_cell_angle_gamma                90
_cell_volume                     3952.7
_exptl_crystal_colour            colorless
_exptl_crystal_description       plate
_cell_formula_units_Z            4
loop_
_atom_site_label
_atom_site_type_symbol
_atom_site_fract_x
_atom_site_fract_y
_atom_site_fract_z
C1 C 1.00017(17) 1.00748(12) 0.76816(10)
C2 C 1.09381(17) 0.95735(12) 0.79814(10)
C3 C 1.1973(2) 1.06834(14) 0.84624(12)
H1 H 1.2662 1.0922 0.8733
C4 C 1.1042(2) 1.11716(14) 0.81784(12)
H2 H 1.1102 1.1738 0.8268
C5 C 0.88967(17) 0.97263(12) 0.72416(10)
H3 H 0.8577 0.9353 0.7519
H4 H 0.9065 0.9402 0.6876
C6 C 1.08650(17) 0.86664(12) 0.78941(10)
H5 H 1.0695 0.8537 0.7406
H6 H 1.0221 0.8462 0.8053
C7 C 0.74073(18) 1.10149(12) 0.75098(10)
C8 C 0.7169(2) 1.18414(14) 0.74447(12)
H7 H 0.7187 1.2122 0.7045
C9 C 0.6905(2) 1.22526(14) 0.79689(11)
H8 H 0.6747 1.2818 0.7928
C10 C 0.6871(2) 1.18468(12) 0.85484(10)
H9 H 0.6695 1.2133 0.8907
C11 C 0.7094(2) 1.10241(13) 0.86083(12)
H10 H 0.7063 1.0745 0.9007
C12 C 0.7363(2) 1.06030(14) 0.80926(11)
H11 H 0.7516 1.0037 0.8136
C13 C 0.66287(18) 0.99130(13) 0.63356(10)
C14 C 0.6817(2) 0.92231(14) 0.59880(12)
H12 H 0.7576 0.9036 0.6041
C15 C 0.58940(19) 0.88117(16) 0.55654(14)
H13 H 0.6023 0.8346 0.5325
C16 C 0.47902(19) 0.90745(14) 0.54916(12)
H14 H 0.4160 0.8781 0.5212
C17 C 0.4603(2) 0.97639(15) 0.58237(12)
H15 H 0.3843 0.9952 0.5763
C18 C 0.55160(19) 1.01857(16) 0.62470(12)
H16 H 0.5380 1.0660 0.6476
C19 C 0.83166(19) 1.11841(13) 0.63387(10)
H17 H 0.7706 1.1589 0.6155
H18 H 0.8992 1.1478 0.6625
C20 C 0.8643(2) 1.07876(14) 0.57505(11)
H19 H 0.9185 1.0336 0.5923
H20 H 0.7949 1.0559 0.5425
C21 C 0.9195(2) 1.14077(14) 0.53915(11)
H21 H 0.8742 1.1916 0.5323
H22 H 0.9977 1.1535 0.5681
C22 C 0.9266(2) 1.10967(13) 0.47113(12)
H23 H 0.8477 1.1032 0.4409
H24 H 0.9627 1.0552 0.4777
C23 C 1.33493(18) 0.83890(12) 0.80305(11)
C24 C 1.3252(2) 0.82228(13) 0.73523(12)
H25 H 1.2549 0.8024 0.7063
C25 C 1.4179(2) 0.83478(14) 0.71009(13)
H26 H 1.4110 0.8246 0.6637
C26 C 1.5204(2) 0.86216(16) 0.75265(12)
H27 H 1.5846 0.8692 0.7356
C27 C 1.5307(2) 0.87933(19) 0.81969(12)
H28 H 1.6014 0.8986 0.8484
C28 C 1.4375(2) 0.86839(17) 0.84519(13)
H29 H 1.4439 0.8810 0.8912
C29 C 1.18858(18) 0.70829(12) 0.81656(11)
C30 C 1.2525(2) 0.65093(14) 0.86141(12)
H30 H 1.3017 0.6675 0.9040
C31 C 1.2438(2) 0.56974(15) 0.84343(12)
H31 H 1.2889 0.5307 0.8734
C32 C 1.1704(2) 0.54489(13) 0.78255(11)
H32 H 1.1653 0.4890 0.7707
C33 C 1.1044(2) 0.60104(13) 0.73878(12)
H33 H 1.0526 0.5837 0.6973
C34 C 1.1138(2) 0.68296(13) 0.75531(11)
H34 H 1.0693 0.7218 0.7248
C35 C 1.25228(18) 0.82979(13) 0.92502(10)
H35 H 1.3164 0.7933 0.9476
H36 H 1.2787 0.8864 0.9355
C36 C 1.15029(19) 0.81353(14) 0.95376(11)
H37 H 1.0977 0.7741 0.9241
H38 H 1.1791 0.7888 0.9993
C37 C 1.0839(2) 0.89083(14) 0.95907(12)
H39 H 1.1357 0.9287 0.9909
H40 H 1.0600 0.9174 0.9141
C38 C 0.9779(2) 0.87640(15) 0.98305(12)
H41 H 0.9506 0.9292 0.9955
H42 H 0.9995 0.8422 1.0243
N1 N 1.00599(16) 1.08753(11) 0.77820(10)
N2 N 1.19245(16) 0.98781(11) 0.83635(9)
O1 O 0.9447(2) 1.24940(12) 0.41791(12)
O2 O 1.00242(16) 1.13181(11) 0.36786(8)
O3 O 1.11929(18) 1.17837(16) 0.47534(10)
O4 O 0.89511(15) 0.74327(10) 0.91909(9)
O5 O 0.76372(15) 0.83810(12) 0.94649(9)
O6 O 0.85164(15) 0.86962(11) 0.85720(9)
P1 P 0.78222(4) 1.04760(3) 0.68610(3)
P2 P 1.21630(4) 0.81436(3) 0.83501(3)
S1 S 1.00437(5) 1.17251(3) 0.43023(3)
S2 S 0.86354(5) 0.82823(3) 0.92096(3)
O7 O 0.52266(18) 0.91519(13) 0.05784(13)
H43 H 0.4595(17) 0.9416(19) 0.0477(18)
H44 H 0.509(3) 0.8646(8) 0.0543(18)
O8 O 0.33845(17) 0.02145(11) 0.01454(10)
H45 H 0.380(2) 0.0444(17) -0.0074(14)
H46 H 0.307(2) 0.0605(13) 0.0301(15)
O9 O 0.2814(2) 0.74721(15) 0.56957(11)
H47 H 0.282(3) 0.725(2) 0.5315(10)
H48 H 0.2152(17) 0.742(2) 0.5775(18)
loop_
_geom_bond_atom_site_label_1
_geom_bond_atom_site_label_2
_geom_bond_site_symmetry_1
_geom_bond_site_symmetry_2
C1 C2 1_555 1_555
C2 C6 1_555 1_555
C3 H1 1_555 1_555
C4 C3 1_555 1_555
H2 C4 1_555 1_555
C5 C1 1_555 1_555
H3 C5 1_555 1_555
H4 C5 1_555 1_555
C6 H5 1_555 1_555
H6 C6 1_555 1_555
C7 C8 1_555 1_555
C8 H7 1_555 1_555
C9 C8 1_555 1_555
H8 C9 1_555 1_555
C10 C9 1_555 1_555
H9 C10 1_555 1_555
C11 C10 1_555 1_555
H10 C11 1_555 1_555
C12 C7 1_555 1_555
H11 C12 1_555 1_555
C13 C14 1_555 1_555
C14 H12 1_555 1_555
C15 C14 1_555 1_555
H13 C15 1_555 1_555
C16 C15 1_555 1_555
H14 C16 1_555 1_555
C17 C16 1_555 1_555
H15 C17 1_555 1_555
C18 C13 1_555 1_555
H16 C18 1_555 1_555
C19 H17 1_555 1_555
H18 C19 1_555 1_555
C20 C19 1_555 1_555
H19 C20 1_555 1_555
H20 C20 1_555 1_555
C21 C20 1_555 1_555
H21 C21 1_555 1_555
H22 C21 1_555 1_555
C22 C21 1_555 1_555
H23 C22 1_555 1_555
H24 C22 1_555 1_555
C23 C24 1_555 1_555
C24 H25 1_555 1_555
C25 C24 1_555 1_555
H26 C25 1_555 1_555
C26 C25 1_555 1_555
H27 C26 1_555 1_555
C27 C26 1_555 1_555
H28 C27 1_555 1_555
C28 C23 1_555 1_555
H29 C28 1_555 1_555
C29 C30 1_555 1_555
C30 H30 1_555 1_555
C31 C30 1_555 1_555
H31 C31 1_555 1_555
C32 C31 1_555 1_555
H32 C32 1_555 1_555
C33 C32 1_555 1_555
H33 C33 1_555 1_555
C34 C29 1_555 1_555
H34 C34 1_555 1_555
C35 H35 1_555 1_555
H36 C35 1_555 1_555
C36 C35 1_555 1_555
H37 C36 1_555 1_555
H38 C36 1_555 1_555
C37 C36 1_555 1_555
H39 C37 1_555 1_555
H40 C37 1_555 1_555
C38 C37 1_555 1_555
H41 C38 1_555 1_555
H42 C38 1_555 1_555
N1 C1 1_555 1_555
N2 C2 1_555 1_555
O1 S1 1_555 1_555
O2 S1 1_555 1_555
O3 S1 1_555 1_555
O4 S2 1_555 1_555
O5 S2 1_555 1_555
O6 S2 1_555 1_555
P1 C5 1_555 1_555
P2 C6 1_555 1_555
S1 C22 1_555 1_555
S2 C38 1_555 1_555
O7 H43 1_555 1_555
H44 O7 1_555 1_555
O8 H45 1_555 1_555
H46 O8 1_555 1_555
O9 H47 1_555 1_555
H48 O9 1_555 1_555
C3 N2 1_555 1_555
C4 N1 1_555 1_555
C7 P1 1_555 1_555
C11 C12 1_555 1_555
C13 P1 1_555 1_555
C17 C18 1_555 1_555
C19 P1 1_555 1_555
C23 P2 1_555 1_555
C27 C28 1_555 1_555
C29 P2 1_555 1_555
C33 C34 1_555 1_555
C35 P2 1_555 1_555

#END
