
#######################################################################
#
#                 Cambridge Crystallographic Data Centre
#                                CCDC 
#
#######################################################################
#
# If this CIF has been generated from an entry in the Cambridge 
# Structural Database, then it will include bibliographic, chemical, 
# crystal, experimental, refinement or atomic coordinate data resulting 
# from the CCDC's data processing and validation procedures.
#
#######################################################################

data_BENXUQ
_chemical_formula_moiety         'C42 H68 N2 O6 P2 S2,8(H2 O1)'
_chemical_name_systematic        
"4,4'-(quinoxaline-2,3-diylbis(methylene(dicyclohexylphosphoniumdiyl)))dibutane-1-sulfonate unknown solvate octahydrate"
_symmetry_cell_setting           triclinic
_symmetry_space_group_name_H-M   'P -1'
_symmetry_Int_Tables_number      2
_space_group_name_Hall           '-P 1'
loop_
_symmetry_equiv_pos_site_id
_symmetry_equiv_pos_as_xyz
1 x,y,z
2 -x,-y,-z
_cell_length_a                   11.5658(3)
_cell_length_b                   15.1397(4)
_cell_length_c                   17.4884(5)
_cell_angle_alpha                104.2545(8)
_cell_angle_beta                 97.3596(8)
_cell_angle_gamma                110.6962(8)
_cell_volume                     2697.17
_exptl_crystal_colour            colorless
_exptl_crystal_description       prism
_cell_formula_units_Z            2
loop_
_atom_site_label
_atom_site_type_symbol
_atom_site_fract_x
_atom_site_fract_y
_atom_site_fract_z
C1 C 0.62653(17) 0.35935(12) 0.26085(10)
H1 H 0.6973 0.3949 0.2388
H2 H 0.5461 0.3481 0.2246
C2 C 0.63766(15) 0.42544(12) 0.34395(10)
C3 C 0.64442(15) 0.44626(12) 0.47923(10)
C4 C 0.65595(15) 0.54496(12) 0.49174(10)
C5 C 0.65307(15) 0.52714(12) 0.35726(10)
C6 C 0.65304(18) 0.56824(12) 0.28704(10)
H3 H 0.5668 0.5659 0.2699
H4 H 0.6660 0.5220 0.2414
C7 C 0.64470(16) 0.40868(13) 0.54562(11)
H5 H 0.6365 0.3422 0.5375
C8 C 0.65677(17) 0.46835(14) 0.62165(11)
H6 H 0.6597 0.4437 0.6665
C9 C 0.66486(17) 0.56600(14) 0.63380(11)
H7 H 0.6713 0.6061 0.6866
C10 C 0.66356(16) 0.60388(13) 0.57017(10)
H8 H 0.6678 0.6695 0.5788
C11 C 0.48201(16) 0.15302(12) 0.27030(10)
H9 H 0.4603 0.0881 0.2278
C12 C 0.48960(19) 0.13191(14) 0.35185(11)
H10 H 0.5613 0.1120 0.3630
H11 H 0.5043 0.1926 0.3963
C13 C 0.3644(2) 0.04822(15) 0.34764(13)
H12 H 0.3526 -0.0130 0.3048
H13 H 0.3682 0.0343 0.4001
C14 C 0.2516(2) 0.07520(17) 0.32927(14)
H14 H 0.2590 0.1324 0.3747
H15 H 0.1720 0.0183 0.3244
C15 C 0.2452(2) 0.10187(19) 0.25075(14)
H16 H 0.1757 0.1249 0.2430
H17 H 0.2256 0.0419 0.2043
C16 C 0.37079(17) 0.18344(15) 0.25213(12)
H18 H 0.3854 0.2461 0.2942
H19 H 0.3659 0.1954 0.1989
C17 C 0.76834(16) 0.25462(12) 0.32903(10)
H20 H 0.7493 0.2651 0.3839
C18 C 0.88756(17) 0.34523(14) 0.33451(12)
H21 H 0.9102 0.3369 0.2812
H22 H 0.8703 0.4061 0.3487
C19 C 0.99860(18) 0.35591(15) 0.39948(13)
H23 H 1.0767 0.4112 0.3996
H24 H 0.9798 0.3729 0.4536
C20 C 1.02234(19) 0.26069(16) 0.38476(13)
H25 H 1.0543 0.2494 0.3349
H26 H 1.0887 0.2687 0.4308
C21 C 0.90192(18) 0.17057(14) 0.37567(12)
H27 H 0.8754 0.1780 0.4277
H28 H 0.9195 0.1098 0.3624
C22 C 0.79447(18) 0.15983(13) 0.30866(11)
H29 H 0.7166 0.1016 0.3040
H30 H 0.8189 0.1491 0.2560
C23 C 0.64340(17) 0.19002(13) 0.15579(10)
H31 H 0.7188 0.2388 0.1460
H32 H 0.6583 0.1287 0.1517
C24 C 0.52684(17) 0.16570(13) 0.08915(10)
H33 H 0.4542 0.1086 0.0925
H34 H 0.5030 0.2235 0.0978
C25 C 0.55343(17) 0.14040(13) 0.00485(10)
H35 H 0.6261 0.1974 0.0014
H36 H 0.5767 0.0823 -0.0042
C26 C 0.43654(17) 0.11686(14) -0.06054(10)
H37 H 0.3943 0.1616 -0.0405
H38 H 0.3757 0.0477 -0.0705
C27 C 0.74335(17) 0.78303(12) 0.37967(10)
H39 H 0.7546 0.7653 0.4307
C28 C 0.60610(18) 0.77459(14) 0.35761(12)
H40 H 0.5903 0.7861 0.3047
H41 H 0.5462 0.7065 0.3521
C29 C 0.5817(2) 0.85011(16) 0.42250(14)
H42 H 0.4945 0.8458 0.4051
H43 H 0.5881 0.8341 0.4740
C30 C 0.6774(2) 0.95544(15) 0.43636(13)
H44 H 0.6673 0.9733 0.3859
H45 H 0.6615 1.0029 0.4794
C31 C 0.8116(2) 0.96261(14) 0.46121(12)
H46 H 0.8224 0.9475 0.5130
H47 H 0.8729 1.0314 0.4702
C32 C 0.83970(18) 0.89031(13) 0.39622(11)
H48 H 0.9269 0.8951 0.4146
H49 H 0.8349 0.9082 0.3455
C33 C 0.92351(18) 0.69151(14) 0.31132(11)
H50 H 0.9161 0.6345 0.2647
C34 C 0.96869(19) 0.66883(19) 0.38772(13)
H51 H 0.9021 0.6086 0.3918
H52 H 0.9846 0.7251 0.4366
C35 C 1.0914(2) 0.6523(2) 0.38334(18)
H53 H 1.1232 0.6418 0.4343
H54 H 1.0725 0.5914 0.3379
C36 C 1.1938(2) 0.7395(2) 0.37105(18)
H55 H 1.2684 0.7235 0.3640
H56 H 1.2213 0.7983 0.4199
C37 C 1.1462(2) 0.76428(19) 0.29697(17)
H57 H 1.1280 0.7084 0.2473
H58 H 1.2134 0.8241 0.2927
C38 C 1.0261(2) 0.78328(16) 0.30263(14)
H59 H 0.9954 0.7970 0.2532
H60 H 1.0450 0.8420 0.3501
C39 C 0.72615(18) 0.71241(13) 0.20392(10)
H61 H 0.6336 0.6958 0.1901
H62 H 0.7708 0.7840 0.2108
C40 C 0.7592(2) 0.65249(13) 0.13232(10)
H63 H 0.8523 0.6806 0.1377
H64 H 0.7322 0.5825 0.1319
C41 C 0.69126(19) 0.65675(14) 0.05370(10)
H65 H 0.7114 0.7271 0.0574
H66 H 0.5982 0.6231 0.0466
C42 C 0.7297(3) 0.60746(17) -0.01982(12)
H67 H 0.7216 0.5404 -0.0191
H68 H 0.8198 0.6472 -0.0170
N1 N 0.63361(13) 0.38679(10) 0.40359(8)
N2 N 0.66097(13) 0.58470(10) 0.42947(8)
O1 O 0.54878(15) 0.07340(11) -0.17499(9)
O2 O 0.54485(14) 0.23734(10) -0.13629(9)
O3 O 0.35259(13) 0.09316(10) -0.21226(8)
O4 O 0.5049(2) 0.54228(18) -0.11040(10)
O5 O 0.6753(3) 0.54624(16) -0.17738(10)
O6 O 0.65722(16) 0.69691(11) -0.11263(9)
P1 P 0.62914(4) 0.23979(3) 0.25757(2)
P2 P 0.76594(4) 0.69247(3) 0.29952(2)
S1 S 0.47345(4) 0.13049(3) -0.15342(2)
S2 S 0.63289(6) 0.59730(4) -0.11141(3)
O7 O 0.09187(15) 0.00024(12) 0.78068(10)
H69 H 0.1701(10) 0.0272(19) 0.7824(17)
H70 H 0.074(3) 0.0424(16) 0.8131(13)
O8 O 0.96243(15) 0.86721(12) 0.11017(10)
H71 H 1.0371(12) 0.868(2) 0.1154(14)
H72 H 0.940(2) 0.873(2) 0.0640(9)
O9 O 0.03637(17) 0.86031(14) 0.86133(11)
H73 H 0.054(3) 0.9015(17) 0.8344(16)
H74 H 0.094(2) 0.887(2) 0.9056(11)
O10 O 0.21246(16) 0.96339(13) 0.00448(11)
H75 H 0.194(3) 1.0131(13) 0.0218(14)
H76 H 0.205(3) 0.9311(16) 0.0385(12)
O11 O 0.13900(15) 0.12372(12) 0.04467(10)
O12 O 0.6525(2) 0.38640(14) 0.02466(14)
O13 O 0.8464(3) 0.45314(16) 0.17292(14)
O14 O 0.2877(2) 0.62706(15) 0.19727(17)
loop_
_geom_bond_atom_site_label_1
_geom_bond_atom_site_label_2
_geom_bond_site_symmetry_1
_geom_bond_site_symmetry_2
C1 H1 1_555 1_555
H2 C1 1_555 1_555
C2 C1 1_555 1_555
C3 C4 1_555 1_555
C4 C10 1_555 1_555
C5 C2 1_555 1_555
C6 C5 1_555 1_555
H3 C6 1_555 1_555
H4 C6 1_555 1_555
C7 C3 1_555 1_555
H5 C7 1_555 1_555
C8 C7 1_555 1_555
H6 C8 1_555 1_555
C9 C8 1_555 1_555
H7 C9 1_555 1_555
C10 C9 1_555 1_555
H8 C10 1_555 1_555
C11 H9 1_555 1_555
C12 C11 1_555 1_555
H10 C12 1_555 1_555
H11 C12 1_555 1_555
C13 C12 1_555 1_555
H12 C13 1_555 1_555
H13 C13 1_555 1_555
C14 C13 1_555 1_555
H14 C14 1_555 1_555
H15 C14 1_555 1_555
C15 C14 1_555 1_555
H16 C15 1_555 1_555
H17 C15 1_555 1_555
C16 C11 1_555 1_555
H18 C16 1_555 1_555
H19 C16 1_555 1_555
C17 H20 1_555 1_555
C18 C17 1_555 1_555
H21 C18 1_555 1_555
H22 C18 1_555 1_555
C19 C18 1_555 1_555
H23 C19 1_555 1_555
H24 C19 1_555 1_555
C20 C19 1_555 1_555
H25 C20 1_555 1_555
H26 C20 1_555 1_555
C21 C20 1_555 1_555
H27 C21 1_555 1_555
H28 C21 1_555 1_555
C22 C17 1_555 1_555
H29 C22 1_555 1_555
H30 C22 1_555 1_555
C23 H31 1_555 1_555
H32 C23 1_555 1_555
C24 C23 1_555 1_555
H33 C24 1_555 1_555
H34 C24 1_555 1_555
C25 C24 1_555 1_555
H35 C25 1_555 1_555
H36 C25 1_555 1_555
C26 C25 1_555 1_555
H37 C26 1_555 1_555
H38 C26 1_555 1_555
C27 H39 1_555 1_555
C28 C27 1_555 1_555
H40 C28 1_555 1_555
H41 C28 1_555 1_555
C29 C28 1_555 1_555
H42 C29 1_555 1_555
H43 C29 1_555 1_555
C30 C29 1_555 1_555
H44 C30 1_555 1_555
H45 C30 1_555 1_555
C31 C30 1_555 1_555
H46 C31 1_555 1_555
H47 C31 1_555 1_555
C32 C27 1_555 1_555
H48 C32 1_555 1_555
H49 C32 1_555 1_555
C33 H50 1_555 1_555
C34 C33 1_555 1_555
H51 C34 1_555 1_555
H52 C34 1_555 1_555
C35 C34 1_555 1_555
H53 C35 1_555 1_555
H54 C35 1_555 1_555
C36 C35 1_555 1_555
H55 C36 1_555 1_555
H56 C36 1_555 1_555
C37 C36 1_555 1_555
H57 C37 1_555 1_555
H58 C37 1_555 1_555
C38 C33 1_555 1_555
H59 C38 1_555 1_555
H60 C38 1_555 1_555
C39 H61 1_555 1_555
H62 C39 1_555 1_555
C40 C39 1_555 1_555
H63 C40 1_555 1_555
H64 C40 1_555 1_555
C41 C40 1_555 1_555
H65 C41 1_555 1_555
H66 C41 1_555 1_555
C42 C41 1_555 1_555
H67 C42 1_555 1_555
H68 C42 1_555 1_555
N1 C2 1_555 1_555
N2 C4 1_555 1_555
O1 S1 1_555 1_555
O2 S1 1_555 1_555
O3 S1 1_555 1_555
O4 S2 1_555 1_555
O5 S2 1_555 1_555
O6 S2 1_555 1_555
P1 C1 1_555 1_555
P2 C6 1_555 1_555
S1 C26 1_555 1_555
S2 C42 1_555 1_555
O7 H69 1_555 1_555
H70 O7 1_555 1_555
O8 H71 1_555 1_555
H72 O8 1_555 1_555
O9 H73 1_555 1_555
H74 O9 1_555 1_555
O10 H75 1_555 1_555
H76 O10 1_555 1_555
C3 N1 1_555 1_555
C5 N2 1_555 1_555
C11 P1 1_555 1_555
C15 C16 1_555 1_555
C17 P1 1_555 1_555
C21 C22 1_555 1_555
C23 P1 1_555 1_555
C27 P2 1_555 1_555
C31 C32 1_555 1_555
C33 P2 1_555 1_555
C37 C38 1_555 1_555
C39 P2 1_555 1_555

#END
