
#######################################################################
#
#                 Cambridge Crystallographic Data Centre
#                                CCDC 
#
#######################################################################
#
# If this CIF has been generated from an entry in the Cambridge 
# Structural Database, then it will include bibliographic, chemical, 
# crystal, experimental, refinement or atomic coordinate data resulting 
# from the CCDC's data processing and validation procedures.
#
#######################################################################

data_BENYEB
_chemical_formula_moiety         'C16 H16 Cl1 O2 P1 Se1'
_chemical_name_systematic        
6-chloro-2,4,8,10-tetramethyldibenzo[d,g][1,3,6,2]dioxaselenaphosphocine
_symmetry_cell_setting           monoclinic
_symmetry_space_group_name_H-M   'P 21/c'
_symmetry_Int_Tables_number      14
_space_group_name_Hall           '-P 2ybc'
loop_
_symmetry_equiv_pos_site_id
_symmetry_equiv_pos_as_xyz
1 x,y,z
2 -x,1/2+y,1/2-z
3 -x,-y,-z
4 x,1/2-y,1/2+z
_cell_length_a                   11.9587(5)
_cell_length_b                   8.8151(4)
_cell_length_c                   15.6401(7)
_cell_angle_alpha                90
_cell_angle_beta                 93.4819(16)
_cell_angle_gamma                90
_cell_volume                     1645.69
_exptl_crystal_colour            colorless
_exptl_crystal_description       needle
_cell_formula_units_Z            4
loop_
_atom_site_label
_atom_site_type_symbol
_atom_site_fract_x
_atom_site_fract_y
_atom_site_fract_z
C1 C 0.37192(13) 0.34522(18) -0.00679(10)
C2 C 0.39217(13) 0.3102(2) -0.09146(11)
C3 C 0.39434(14) 0.4306(2) -0.14887(11)
H1 H 0.4080 0.4094 -0.2069
C4 C 0.37742(14) 0.5801(2) -0.12538(11)
C5 C 0.35645(13) 0.61048(19) -0.04062(11)
H2 H 0.3447 0.7121 -0.0230
C6 C 0.35252(13) 0.49367(19) 0.01846(10)
C7 C 0.41105(17) 0.1491(2) -0.11799(13)
H3 H 0.3514 0.0847 -0.0976
H4 H 0.4837 0.1140 -0.0931
H5 H 0.4104 0.1433 -0.1806
C8 C 0.38050(18) 0.7074(3) -0.18960(12)
H6 H 0.3232 0.7827 -0.1778
H7 H 0.3658 0.6667 -0.2475
H8 H 0.4545 0.7554 -0.1852
C9 C 0.11188(13) 0.38780(19) 0.10121(10)
C10 C -0.00371(14) 0.3713(2) 0.10024(11)
C11 C -0.06596(15) 0.4962(2) 0.12421(12)
H9 H -0.1452 0.4878 0.1229
C12 C -0.01650(15) 0.6325(2) 0.14994(11)
C13 C 0.09985(14) 0.6434(2) 0.15252(11)
H10 H 0.1355 0.7348 0.1715
C14 C 0.16426(14) 0.52177(19) 0.12762(11)
C15 C -0.05796(16) 0.2229(2) 0.07494(15)
H11 H -0.0384 0.1957 0.0169
H12 H -0.1395 0.2325 0.0762
H13 H -0.0314 0.1437 0.1151
C16 C -0.08680(17) 0.7678(3) 0.17140(14)
H14 H -0.1153 0.8173 0.1183
H15 H -0.0409 0.8398 0.2060
H16 H -0.1499 0.7343 0.2038
Cl1 Cl 0.25066(5) -0.02874(5) 0.08215(4)
O1 O 0.37658(10) 0.22733(13) 0.05174(8)
O2 O 0.17265(10) 0.26717(14) 0.07001(8)
P1 P 0.28319(4) 0.19587(5) 0.12065(3)
Se1 Se 0.32491(2) 0.53672(2) 0.13518(2)
loop_
_geom_bond_atom_site_label_1
_geom_bond_atom_site_label_2
_geom_bond_site_symmetry_1
_geom_bond_site_symmetry_2
C1 C2 1_555 1_555
C2 C3 1_555 1_555
C3 H1 1_555 1_555
C4 C3 1_555 1_555
C5 C4 1_555 1_555
H2 C5 1_555 1_555
C6 C1 1_555 1_555
C7 C2 1_555 1_555
H3 C7 1_555 1_555
H4 C7 1_555 1_555
H5 C7 1_555 1_555
C8 C4 1_555 1_555
H6 C8 1_555 1_555
H7 C8 1_555 1_555
H8 C8 1_555 1_555
C9 C10 1_555 1_555
C10 C11 1_555 1_555
C11 H9 1_555 1_555
C12 C11 1_555 1_555
C13 C12 1_555 1_555
H10 C13 1_555 1_555
C14 C9 1_555 1_555
C15 C10 1_555 1_555
H11 C15 1_555 1_555
H12 C15 1_555 1_555
H13 C15 1_555 1_555
C16 C12 1_555 1_555
H14 C16 1_555 1_555
H15 C16 1_555 1_555
H16 C16 1_555 1_555
Cl1 P1 1_555 1_555
O1 C1 1_555 1_555
O2 C9 1_555 1_555
P1 O1 1_555 1_555
Se1 C6 1_555 1_555
C5 C6 1_555 1_555
C13 C14 1_555 1_555
C14 Se1 1_555 1_555
O2 P1 1_555 1_555

#END
