
#######################################################################
#
#                 Cambridge Crystallographic Data Centre
#                                CCDC 
#
#######################################################################
#
# If this CIF has been generated from an entry in the Cambridge 
# Structural Database, then it will include bibliographic, chemical, 
# crystal, experimental, refinement or atomic coordinate data resulting 
# from the CCDC's data processing and validation procedures.
#
#######################################################################

data_BENZSS12
_chemical_formula_moiety         'C14 H14 S2'
_chemical_name_systematic        'Dibenzyl disulfide'
_symmetry_cell_setting           monoclinic
_symmetry_space_group_name_H-M   'C 2/c'
_symmetry_Int_Tables_number      15
_space_group_name_Hall           '-C 2yn'
loop_
_symmetry_equiv_pos_site_id
_symmetry_equiv_pos_as_xyz
1 x,y,z
2 -x,y,1/2-z
3 1/2+x,1/2+y,z
4 1/2-x,1/2+y,1/2-z
5 -x,-y,-z
6 x,-y,1/2+z
7 1/2-x,1/2-y,-z
8 1/2+x,1/2-y,1/2+z
_cell_length_a                   13.460(3)
_cell_length_b                   8.2614(13)
_cell_length_c                   11.3848(17)
_cell_angle_alpha                90
_cell_angle_beta                 99.157(16)
_cell_angle_gamma                90
_cell_volume                     1249.84
_exptl_crystal_colour            'yellow red'
_exptl_crystal_description       Needle
_cell_formula_units_Z            4
_chemical_properties_physical    
', Air-sensitive,Moisture-sensitive,Heat-sensitive'
_exptl_crystal_recrystallization_method 
'Re-crystallisation from solvent: dichloromethane, hexane'
loop_
_atom_site_label
_atom_site_type_symbol
_atom_site_fract_x
_atom_site_fract_y
_atom_site_fract_z
S1 S 0.99564(4) 0.48963(6) 0.66026(4)
C1 C 0.89798(14) 0.3406(2) 0.60964(18)
H1 H 0.9020 0.3119 0.5279
H2 H 0.9114 0.2435 0.6574
C2 C 0.79361(13) 0.3964(2) 0.61621(14)
C3 C 0.74000(14) 0.3289(2) 0.69758(16)
H3 H 0.7698 0.2495 0.7494
C4 C 0.64284(15) 0.3775(3) 0.70329(18)
H4 H 0.6075 0.3301 0.7582
C5 C 0.59859(17) 0.4952(2) 0.6283(2)
H5 H 0.5333 0.5289 0.6327
C6 C 0.65079(16) 0.5641(2) 0.54614(19)
H6 H 0.6206 0.6439 0.4949
C7 C 0.74735(16) 0.5148(2) 0.53983(17)
H7 H 0.7820 0.5612 0.4839
S1A S 1.00436(4) 0.48963(6) 0.83974(4)
C1A C 1.10202(14) 0.3406(2) 0.89036(18)
H1A H 1.0980 0.3119 0.9721
H2A H 1.0886 0.2435 0.8426
C2A C 1.20639(13) 0.3964(2) 0.88379(14)
C3A C 1.26000(14) 0.3289(2) 0.80242(16)
H3A H 1.2302 0.2495 0.7506
C4A C 1.35716(15) 0.3775(3) 0.79671(18)
H4A H 1.3925 0.3301 0.7418
C5A C 1.40141(17) 0.4952(2) 0.8717(2)
H5A H 1.4667 0.5289 0.8673
C6A C 1.34921(16) 0.5641(2) 0.95386(19)
H6A H 1.3794 0.6439 1.0051
C7A C 1.25265(16) 0.5148(2) 0.96017(17)
H7A H 1.2180 0.5612 1.0161
loop_
_geom_bond_atom_site_label_1
_geom_bond_atom_site_label_2
_geom_bond_site_symmetry_1
_geom_bond_site_symmetry_2
S1 C1 1_555 1_555
C1 H1 1_555 1_555
H2 C1 1_555 1_555
C2 C1 1_555 1_555
C3 C2 1_555 1_555
H3 C3 1_555 1_555
C4 C3 1_555 1_555
H4 C4 1_555 1_555
C5 C4 1_555 1_555
H5 C5 1_555 1_555
C6 C5 1_555 1_555
H6 C6 1_555 1_555
C7 C2 1_555 1_555
H7 C7 1_555 1_555
S1A S1 1_555 1_555
C1A S1A 1_555 1_555
H1A C1A 1_555 1_555
H2A C1A 1_555 1_555
C2A C1A 1_555 1_555
C3A C2A 1_555 1_555
H3A C3A 1_555 1_555
C4A C3A 1_555 1_555
H4A C4A 1_555 1_555
C5A C4A 1_555 1_555
H5A C5A 1_555 1_555
C6A C5A 1_555 1_555
H6A C6A 1_555 1_555
C7A C2A 1_555 1_555
H7A C7A 1_555 1_555
C6 C7 1_555 1_555
C6A C7A 1_555 1_555

#END
