
#######################################################################
#
#                 Cambridge Crystallographic Data Centre
#                                CCDC 
#
#######################################################################
#
# If this CIF has been generated from an entry in the Cambridge 
# Structural Database, then it will include bibliographic, chemical, 
# crystal, experimental, refinement or atomic coordinate data resulting 
# from the CCDC's data processing and validation procedures.
#
#######################################################################

data_BENZEB
_chemical_formula_moiety         'C17 H19 N1 O6'
_chemical_name_systematic        
'4-Isopropyl 1-methyl 2-(3-(4-nitrophenyl)prop-2-en-1-ylidene)succinate'
_symmetry_cell_setting           triclinic
_symmetry_space_group_name_H-M   'P -1'
_symmetry_Int_Tables_number      2
_space_group_name_Hall           '-P 1'
loop_
_symmetry_equiv_pos_site_id
_symmetry_equiv_pos_as_xyz
1 x,y,z
2 -x,-y,-z
_cell_length_a                   7.9346(11)
_cell_length_b                   8.2991(12)
_cell_length_c                   14.449(2)
_cell_angle_alpha                90.787(3)
_cell_angle_beta                 97.943(3)
_cell_angle_gamma                112.011(2)
_cell_volume                     871.426
_exptl_crystal_colour            green
_exptl_crystal_description       prismatic
_cell_formula_units_Z            2
loop_
_atom_site_label
_atom_site_type_symbol
_atom_site_fract_x
_atom_site_fract_y
_atom_site_fract_z
N1 N -0.1043(3) 0.0086(3) 0.71133(16)
O1 O 1.0592(2) 0.4269(2) 0.35265(12)
O2 O 0.9545(2) 0.5108(2) 0.21912(11)
O3 O 0.5801(2) 0.1649(2) 0.16977(11)
O4 O 0.4329(2) 0.32653(17) 0.10296(9)
O5 O -0.1056(3) -0.0789(3) 0.77792(17)
O6 O -0.2329(3) 0.0479(3) 0.68193(16)
C1 C 0.5265(3) 0.2389(3) 0.53033(15)
H1 H 0.6300 0.2284 0.5642
C2 C 0.5470(3) 0.3031(3) 0.44742(15)
H2 H 0.4471 0.3178 0.4122
C3 C 0.7156(3) 0.3515(3) 0.40888(15)
H3 H 0.8149 0.3432 0.4480
C4 C 0.7481(3) 0.4065(3) 0.32474(14)
C5 C 0.6060(3) 0.4282(3) 0.25109(13)
H4 H 0.5011 0.4243 0.2798
H5 H 0.6575 0.5418 0.2267
C6 C 0.3624(3) 0.1825(3) 0.57530(14)
C7 C 0.2082(3) 0.2190(3) 0.54291(15)
H6 H 0.2079 0.2821 0.4902
C8 C 0.0576(3) 0.1640(3) 0.58699(16)
H7 H -0.0449 0.1892 0.5648
C9 C 0.0592(3) 0.0703(3) 0.66507(15)
C10 C 0.2065(3) 0.0298(3) 0.69899(15)
H8 H 0.2042 -0.0355 0.7509
C11 C 0.3581(3) 0.0877(3) 0.65459(15)
H9 H 0.4606 0.0633 0.6779
C12 C 0.9360(4) 0.4473(3) 0.30295(16)
C13 C 1.1304(4) 0.5500(4) 0.1889(2)
H10 H 1.2252 0.6318 0.2340
H11 H 1.1297 0.5995 0.1293
H12 H 1.1533 0.4449 0.1833
C14 C 0.5415(3) 0.2904(3) 0.17137(14)
C15 C 0.3546(4) 0.2002(3) 0.02144(18)
H13 H 0.3195 0.0817 0.0422
C16 C 0.4964(4) 0.2308(4) -0.04246(19)
H14 H 0.5287 0.3460 -0.0637
H15 H 0.4469 0.1468 -0.0954
H16 H 0.6040 0.2190 -0.0091
C17 C 0.1843(4) 0.2290(4) -0.0219(2)
H17 H 0.1028 0.2131 0.0235
H18 H 0.1230 0.1470 -0.0750
H19 H 0.2189 0.3454 -0.0419
loop_
_geom_bond_atom_site_label_1
_geom_bond_atom_site_label_2
_geom_bond_site_symmetry_1
_geom_bond_site_symmetry_2
N1 O5 1_555 1_555
O1 C12 1_555 1_555
O2 C12 1_555 1_555
O3 C14 1_555 1_555
O4 C14 1_555 1_555
O6 N1 1_555 1_555
C1 H1 1_555 1_555
C2 C1 1_555 1_555
H2 C2 1_555 1_555
C3 C2 1_555 1_555
H3 C3 1_555 1_555
C4 C3 1_555 1_555
C5 C4 1_555 1_555
H4 C5 1_555 1_555
H5 C5 1_555 1_555
C6 C1 1_555 1_555
C7 C6 1_555 1_555
H6 C7 1_555 1_555
C8 C7 1_555 1_555
H7 C8 1_555 1_555
C9 N1 1_555 1_555
C10 C9 1_555 1_555
H8 C10 1_555 1_555
C11 C6 1_555 1_555
H9 C11 1_555 1_555
C12 C4 1_555 1_555
C13 O2 1_555 1_555
H10 C13 1_555 1_555
H11 C13 1_555 1_555
H12 C13 1_555 1_555
C14 C5 1_555 1_555
C15 O4 1_555 1_555
H13 C15 1_555 1_555
C16 C15 1_555 1_555
H14 C16 1_555 1_555
H15 C16 1_555 1_555
H16 C16 1_555 1_555
C17 C15 1_555 1_555
H17 C17 1_555 1_555
H18 C17 1_555 1_555
H19 C17 1_555 1_555
C8 C9 1_555 1_555
C10 C11 1_555 1_555

#END
