
#######################################################################
#
#                 Cambridge Crystallographic Data Centre
#                                CCDC 
#
#######################################################################
#
# If this CIF has been generated from an entry in the Cambridge 
# Structural Database, then it will include bibliographic, chemical, 
# crystal, experimental, refinement or atomic coordinate data resulting 
# from the CCDC's data processing and validation procedures.
#
#######################################################################

data_BEPBOP
_chemical_formula_moiety         'C56 H48 N4 Na4 O8'
_chemical_name_systematic        
tetrakis(\m~3~-2-(((2-Methoxyphenyl)imino)methyl)phenolato)-tetra-sodium
_symmetry_cell_setting           monoclinic
_symmetry_space_group_name_H-M   'C c'
_symmetry_Int_Tables_number      9
_space_group_name_Hall           'C -2yc'
loop_
_symmetry_equiv_pos_site_id
_symmetry_equiv_pos_as_xyz
1 x,y,z
2 x,-y,1/2+z
3 1/2+x,1/2+y,z
4 1/2+x,1/2-y,1/2+z
_cell_length_a                   16.3906(9)
_cell_length_b                   16.5378(9)
_cell_length_c                   18.1746(11)
_cell_angle_alpha                90
_cell_angle_beta                 100.2930(10)
_cell_angle_gamma                90
_cell_volume                     4847.21
_exptl_crystal_colour            orange
_exptl_crystal_description       Block
_cell_formula_units_Z            4
loop_
_atom_site_label
_atom_site_type_symbol
_atom_site_fract_x
_atom_site_fract_y
_atom_site_fract_z
Na1 Na 0.10883(7) 0.84848(7) 0.00533(7)
Na2 Na 0.06055(8) 1.03907(8) 0.00326(7)
Na3 Na 0.23646(7) 0.97691(7) 0.09592(7)
Na4 Na 0.07109(8) 0.92640(8) 0.15391(7)
O1 O -0.00061(13) 0.91621(14) 0.03048(13)
O2 O 0.15351(13) 0.71890(14) -0.01189(13)
O3 O 0.12455(14) 1.04504(13) 0.13070(13)
O4 O -0.02627(14) 0.85128(14) 0.20034(13)
O5 O 0.16661(13) 0.96804(13) -0.02739(13)
O6 O 0.01056(15) 1.16822(15) 0.01384(14)
O7 O 0.18719(13) 0.85715(13) 0.12832(12)
O8 O 0.34726(14) 1.04916(14) 0.06843(14)
N1 N -0.00402(16) 0.76273(16) -0.05411(15)
N2 N 0.01505(16) 1.00317(17) 0.24221(15)
N3 N 0.10690(17) 1.12922(17) -0.08518(16)
N4 N 0.36492(16) 0.90696(16) 0.13845(15)
C1 C -0.07996(19) 0.90549(19) 0.01991(18)
C2 C -0.1310(2) 0.9561(2) 0.0558(2)
H1 H -0.1053 0.9970 0.0887
C3 C -0.2156(2) 0.9486(2) 0.0453(2)
H2 H -0.2466 0.9832 0.0716
C4 C -0.2566(2) 0.8905(2) -0.0037(2)
H3 H -0.3154 0.8866 -0.0127
C5 C -0.2099(2) 0.8395(2) -0.0384(2)
H4 H -0.2374 0.7995 -0.0714
C6 C -0.1226(2) 0.84356(19) -0.02743(19)
C7 C -0.0820(2) 0.7789(2) -0.06096(18)
H5 H -0.1180 0.7434 -0.0925
C8 C 0.0225(2) 0.69067(19) -0.08544(17)
C9 C -0.0274(2) 0.6406(2) -0.13685(19)
H6 H -0.0840 0.6542 -0.1533
C10 C 0.0044(2) 0.5710(2) -0.1644(2)
H7 H -0.0302 0.5381 -0.1998
C11 C 0.0858(2) 0.5500(2) -0.1401(2)
H8 H 0.1073 0.5023 -0.1586
C12 C 0.1370(2) 0.5981(2) -0.0885(2)
H9 H 0.1932 0.5832 -0.0713
C13 C 0.1055(2) 0.66769(19) -0.06271(18)
C14 C 0.2393(2) 0.6987(2) 0.0118(2)
H10 H 0.2437 0.6477 0.0397
H11 H 0.2669 0.7418 0.0440
H12 H 0.2659 0.6929 -0.0321
C15 C 0.13228(19) 1.1126(2) 0.16833(19)
C16 C 0.1768(2) 1.1781(2) 0.1436(2)
H13 H 0.2008 1.1709 0.1002
C17 C 0.1865(2) 1.2514(2) 0.1798(2)
H14 H 0.2157 1.2938 0.1605
C18 C 0.1541(2) 1.2639(2) 0.2443(2)
H15 H 0.1625 1.3138 0.2703
C19 C 0.1094(2) 1.2027(2) 0.2701(2)
H16 H 0.0862 1.2117 0.3137
C20 C 0.0970(2) 1.1271(2) 0.23380(19)
C21 C 0.0450(2) 1.0715(2) 0.26712(19)
H17 H 0.0315 1.0882 0.3135
C22 C -0.0408(2) 0.9615(2) 0.28039(19)
C23 C -0.0765(2) 0.9931(2) 0.3388(2)
H18 H -0.0604 1.0454 0.3577
C24 C -0.1343(2) 0.9503(3) 0.3696(2)
H19 H -0.1577 0.9732 0.4090
C25 C -0.1582(2) 0.8741(3) 0.3430(2)
H20 H -0.1988 0.8451 0.3637
C26 C -0.1234(2) 0.8399(2) 0.2867(2)
H21 H -0.1395 0.7872 0.2688
C27 C -0.0646(2) 0.8829(2) 0.25606(18)
C28 C -0.0620(2) 0.7799(2) 0.1638(2)
H22 H -0.0563 0.7351 0.1996
H23 H -0.0334 0.7663 0.1224
H24 H -0.1209 0.7893 0.1442
C29 C 0.20588(19) 0.9700(2) -0.08357(18)
C30 C 0.2556(2) 0.9037(2) -0.09749(19)
H25 H 0.2604 0.8588 -0.0644
C31 C 0.2977(2) 0.9012(2) -0.1570(2)
H26 H 0.3292 0.8547 -0.1646
C32 C 0.2941(2) 0.9662(2) -0.2058(2)
H27 H 0.3229 0.9649 -0.2468
C33 C 0.2476(2) 1.0328(2) -0.1934(2)
H28 H 0.2460 1.0779 -0.2260
C34 C 0.2023(2) 1.0369(2) -0.13416(19)
C35 C 0.1561(2) 1.1110(2) -0.1303(2)
H29 H 0.1632 1.1514 -0.1658
C36 C 0.06919(19) 1.2078(2) -0.0906(2)
C37 C 0.0753(2) 1.2646(2) -0.1456(2)
H30 H 0.1049 1.2513 -0.1843
C38 C 0.0392(2) 1.3406(2) -0.1453(2)
H31 H 0.0433 1.3780 -0.1841
C39 C -0.0027(2) 1.3617(2) -0.0889(2)
H32 H -0.0245 1.4147 -0.0868
C40 C -0.0127(2) 1.3050(2) -0.0350(2)
H33 H -0.0431 1.3190 0.0030
C41 C 0.0211(2) 1.2282(2) -0.0360(2)
C42 C -0.0338(2) 1.1889(2) 0.0720(2)
H34 H -0.0043 1.2322 0.1027
H35 H -0.0379 1.1414 0.1032
H36 H -0.0896 1.2075 0.0499
C43 C 0.2208(2) 0.79491(19) 0.16614(17)
C44 C 0.1704(2) 0.7304(2) 0.18319(19)
H37 H 0.1121 0.7342 0.1672
C45 C 0.2020(2) 0.6627(2) 0.2218(2)
H38 H 0.1654 0.6214 0.2322
C46 C 0.2869(2) 0.6539(2) 0.2459(2)
H39 H 0.3089 0.6069 0.2724
C47 C 0.3382(2) 0.7147(2) 0.23071(19)
H40 H 0.3962 0.7089 0.2475
C48 C 0.30881(19) 0.78596(19) 0.19097(17)
C49 C 0.37269(19) 0.8404(2) 0.17576(18)
H41 H 0.4280 0.8249 0.1960
C50 C 0.4382(2) 0.9477(2) 0.12697(19)
C51 C 0.5199(2) 0.9200(2) 0.1481(2)
H42 H 0.5294 0.8699 0.1737
C52 C 0.5866(2) 0.9631(2) 0.1331(2)
H43 H 0.6413 0.9432 0.1490
C53 C 0.5743(2) 1.0353(2) 0.0949(2)
H44 H 0.6204 1.0646 0.0837
C54 C 0.4948(2) 1.0652(2) 0.0727(2)
H45 H 0.4866 1.1152 0.0467
C55 C 0.4272(2) 1.0223(2) 0.08848(18)
C56 C 0.3334(2) 1.1163(2) 0.0181(2)
H46 H 0.3576 1.1652 0.0436
H47 H 0.2736 1.1241 0.0017
H48 H 0.3594 1.1056 -0.0254
loop_
_geom_bond_atom_site_label_1
_geom_bond_atom_site_label_2
_geom_bond_site_symmetry_1
_geom_bond_site_symmetry_2
Na1 O1 1_555 1_555
Na2 O1 1_555 1_555
Na3 O3 1_555 1_555
Na4 O1 1_555 1_555
O1 C1 1_555 1_555
O2 Na1 1_555 1_555
O3 Na2 1_555 1_555
O4 Na4 1_555 1_555
O5 Na1 1_555 1_555
O6 Na2 1_555 1_555
O7 Na1 1_555 1_555
O8 Na3 1_555 1_555
N1 Na1 1_555 1_555
N2 Na4 1_555 1_555
N3 Na2 1_555 1_555
N4 Na3 1_555 1_555
C1 C2 1_555 1_555
C2 H1 1_555 1_555
C3 C2 1_555 1_555
H2 C3 1_555 1_555
C4 C3 1_555 1_555
H3 C4 1_555 1_555
C5 C4 1_555 1_555
H4 C5 1_555 1_555
C6 C1 1_555 1_555
C7 N1 1_555 1_555
H5 C7 1_555 1_555
C8 N1 1_555 1_555
C9 C8 1_555 1_555
H6 C9 1_555 1_555
C10 C9 1_555 1_555
H7 C10 1_555 1_555
C11 C10 1_555 1_555
H8 C11 1_555 1_555
C12 C11 1_555 1_555
H9 C12 1_555 1_555
C13 O2 1_555 1_555
C14 O2 1_555 1_555
H10 C14 1_555 1_555
H11 C14 1_555 1_555
H12 C14 1_555 1_555
C15 O3 1_555 1_555
C16 C15 1_555 1_555
H13 C16 1_555 1_555
C17 C16 1_555 1_555
H14 C17 1_555 1_555
C18 C17 1_555 1_555
H15 C18 1_555 1_555
C19 C18 1_555 1_555
H16 C19 1_555 1_555
C20 C15 1_555 1_555
C21 N2 1_555 1_555
H17 C21 1_555 1_555
C22 N2 1_555 1_555
C23 C22 1_555 1_555
H18 C23 1_555 1_555
C24 C23 1_555 1_555
H19 C24 1_555 1_555
C25 C24 1_555 1_555
H20 C25 1_555 1_555
C26 C25 1_555 1_555
H21 C26 1_555 1_555
C27 O4 1_555 1_555
C28 O4 1_555 1_555
H22 C28 1_555 1_555
H23 C28 1_555 1_555
H24 C28 1_555 1_555
C29 O5 1_555 1_555
C30 C29 1_555 1_555
H25 C30 1_555 1_555
C31 C30 1_555 1_555
H26 C31 1_555 1_555
C32 C31 1_555 1_555
H27 C32 1_555 1_555
C33 C32 1_555 1_555
H28 C33 1_555 1_555
C34 C29 1_555 1_555
C35 N3 1_555 1_555
H29 C35 1_555 1_555
C36 N3 1_555 1_555
C37 C36 1_555 1_555
H30 C37 1_555 1_555
C38 C37 1_555 1_555
H31 C38 1_555 1_555
C39 C38 1_555 1_555
H32 C39 1_555 1_555
C40 C39 1_555 1_555
H33 C40 1_555 1_555
C41 O6 1_555 1_555
C42 O6 1_555 1_555
H34 C42 1_555 1_555
H35 C42 1_555 1_555
H36 C42 1_555 1_555
C43 O7 1_555 1_555
C44 C43 1_555 1_555
H37 C44 1_555 1_555
C45 C44 1_555 1_555
H38 C45 1_555 1_555
C46 C45 1_555 1_555
H39 C46 1_555 1_555
C47 C46 1_555 1_555
H40 C47 1_555 1_555
C48 C43 1_555 1_555
C49 N4 1_555 1_555
H41 C49 1_555 1_555
C50 N4 1_555 1_555
C51 C50 1_555 1_555
H42 C51 1_555 1_555
C52 C51 1_555 1_555
H43 C52 1_555 1_555
C53 C52 1_555 1_555
H44 C53 1_555 1_555
C54 C53 1_555 1_555
H45 C54 1_555 1_555
C55 O8 1_555 1_555
C56 O8 1_555 1_555
H46 C56 1_555 1_555
H47 C56 1_555 1_555
H48 C56 1_555 1_555
Na2 O5 1_555 1_555
Na3 O5 1_555 1_555
Na3 O7 1_555 1_555
Na4 O3 1_555 1_555
Na4 O7 1_555 1_555
C5 C6 1_555 1_555
C6 C7 1_555 1_555
C8 C13 1_555 1_555
C12 C13 1_555 1_555
C19 C20 1_555 1_555
C20 C21 1_555 1_555
C22 C27 1_555 1_555
C26 C27 1_555 1_555
C33 C34 1_555 1_555
C34 C35 1_555 1_555
C36 C41 1_555 1_555
C40 C41 1_555 1_555
C47 C48 1_555 1_555
C48 C49 1_555 1_555
C50 C55 1_555 1_555
C54 C55 1_555 1_555

#END
