
#######################################################################
#
#                 Cambridge Crystallographic Data Centre
#                                CCDC 
#
#######################################################################
#
# If this CIF has been generated from an entry in the Cambridge 
# Structural Database, then it will include bibliographic, chemical, 
# crystal, experimental, refinement or atomic coordinate data resulting 
# from the CCDC's data processing and validation procedures.
#
#######################################################################

data_BEPCOQ
_chemical_formula_moiety         'C84 H72 N6 Na6 O6 S6'
_chemical_name_systematic        
bis(\m~4~-2-(((2-(Methylsulfanyl)phenyl)imino)methyl)phenolato)-tetrakis(\m~3~-2-(((2-(methylsulfanyl)phenyl)imino)methyl)phenolato)-hexa-sodium
_symmetry_cell_setting           triclinic
_symmetry_space_group_name_H-M   'P -1'
_symmetry_Int_Tables_number      2
_space_group_name_Hall           '-P 1'
loop_
_symmetry_equiv_pos_site_id
_symmetry_equiv_pos_as_xyz
1 x,y,z
2 -x,-y,-z
_cell_length_a                   12.5133(8)
_cell_length_b                   13.8309(9)
_cell_length_c                   25.5673(16)
_cell_angle_alpha                84.192(2)
_cell_angle_beta                 84.067(2)
_cell_angle_gamma                65.0260(10)
_cell_volume                     3981.58
_exptl_crystal_colour            yellow
_exptl_crystal_description       block
_cell_formula_units_Z            2
loop_
_atom_site_label
_atom_site_type_symbol
_atom_site_fract_x
_atom_site_fract_y
_atom_site_fract_z
Na1 Na 0.48999(8) 0.15434(7) 0.56724(3)
Na2 Na 0.34728(7) 0.08693(7) 0.49867(3)
Na3 Na 0.51227(8) 0.05435(8) 0.39118(3)
S1 S 0.55448(6) 0.31348(6) 0.60724(3)
S2 S 0.12473(6) 0.26251(6) 0.45992(3)
S3 S 0.59612(6) 0.12225(6) 0.29179(3)
O1 O 0.33493(13) 0.10546(12) 0.58908(6)
O2 O 0.52310(13) 0.10872(12) 0.47567(6)
O3 O 0.35674(13) 0.01484(12) 0.41882(6)
N1 N 0.45529(17) 0.17035(16) 0.66142(7)
N2 N 0.31095(18) 0.28933(16) 0.50426(8)
N3 N 0.35980(17) 0.18094(16) 0.34137(8)
C1 C 0.24776(19) 0.13854(17) 0.62481(9)
C2 C 0.1366(2) 0.1416(2) 0.61645(10)
H1 H 0.1258 0.1220 0.5839
C3 C 0.0432(2) 0.1722(2) 0.65402(11)
H2 H -0.0291 0.1726 0.6467
C4 C 0.0548(2) 0.2023(2) 0.70261(12)
H3 H -0.0088 0.2231 0.7283
C5 C 0.1603(2) 0.2012(2) 0.71216(10)
H4 H 0.1685 0.2209 0.7451
C6 C 0.2579(2) 0.17173(19) 0.67476(9)
C7 C 0.3628(2) 0.1768(2) 0.69066(9)
H5 H 0.3636 0.1858 0.7266
C8 C 0.5515(2) 0.1687(2) 0.68688(9)
C9 C 0.5950(2) 0.1008(2) 0.73072(10)
H6 H 0.5576 0.0568 0.7451
C10 C 0.6924(3) 0.0962(3) 0.75384(11)
H7 H 0.7213 0.0494 0.7834
C11 C 0.7464(2) 0.1615(3) 0.73281(12)
H8 H 0.8119 0.1597 0.7486
C12 C 0.7056(2) 0.2289(2) 0.68925(11)
H9 H 0.7431 0.2733 0.6756
C13 C 0.6092(2) 0.2325(2) 0.66489(10)
C14 C 0.6826(3) 0.3293(3) 0.57666(13)
H10 H 0.6958 0.3814 0.5946
H11 H 0.6702 0.3536 0.5399
H12 H 0.7511 0.2612 0.5789
C15 C 0.5632(2) 0.18048(19) 0.46008(8)
C16 C 0.6811(2) 0.1501(2) 0.43917(10)
H13 H 0.7297 0.0771 0.4359
C17 C 0.7276(3) 0.2236(3) 0.42339(11)
H14 H 0.8069 0.1993 0.4102
C18 C 0.6606(3) 0.3313(3) 0.42648(12)
H15 H 0.6929 0.3808 0.4154
C19 C 0.5455(3) 0.3650(2) 0.44614(12)
H16 H 0.4989 0.4387 0.4481
C20 C 0.4941(2) 0.2931(2) 0.46360(10)
C21 C 0.3737(2) 0.3391(2) 0.48659(10)
H17 H 0.3383 0.4136 0.4886
C22 C 0.1990(2) 0.34752(19) 0.53071(10)
C23 C 0.1882(3) 0.4047(2) 0.57393(12)
H18 H 0.2546 0.4103 0.5849
C24 C 0.0782(4) 0.4537(3) 0.60102(15)
H19 H 0.0704 0.4917 0.6307
C25 C -0.0188(3) 0.4465(3) 0.58414(16)
H20 H -0.0927 0.4800 0.6025
C26 C -0.0097(3) 0.3913(2) 0.54099(13)
H21 H -0.0772 0.3885 0.5295
C27 C 0.1003(2) 0.3393(2) 0.51435(11)
C28 C -0.0142(3) 0.2546(3) 0.45827(18)
H22 H -0.0329 0.2237 0.4918
H23 H -0.0093 0.2100 0.4304
H24 H -0.0756 0.3257 0.4517
C29 C 0.25974(19) 0.03101(18) 0.39833(9)
C30 C 0.1903(2) -0.0235(2) 0.42054(12)
H25 H 0.2147 -0.0692 0.4509
C31 C 0.0895(3) -0.0124(2) 0.39959(15)
H26 H 0.0471 -0.0510 0.4155
C32 C 0.0488(2) 0.0546(3) 0.35546(15)
H27 H -0.0194 0.0601 0.3406
C33 C 0.1097(2) 0.1131(2) 0.33356(12)
H28 H 0.0811 0.1599 0.3039
C34 C 0.2140(2) 0.10498(19) 0.35419(10)
C35 C 0.2621(2) 0.1791(2) 0.33146(9)
H29 H 0.2171 0.2318 0.3067
C36 C 0.3822(2) 0.2707(2) 0.32360(9)
C37 C 0.2971(3) 0.3746(2) 0.33098(11)
H30 H 0.2203 0.3855 0.3444
C38 C 0.3245(3) 0.4606(3) 0.31888(13)
H31 H 0.2667 0.5300 0.3242
C39 C 0.4365(3) 0.4457(3) 0.29903(13)
H32 H 0.4548 0.5050 0.2910
C40 C 0.5222(3) 0.3438(3) 0.29085(11)
H33 H 0.5982 0.3342 0.2768
C41 C 0.4962(2) 0.2561(2) 0.30332(9)
C42 C 0.7389(3) 0.1225(3) 0.29290(12)
H34 H 0.7524 0.1645 0.2623
H35 H 0.7990 0.0497 0.2922
H36 H 0.7425 0.1533 0.3247
Na1A Na 0.51001(8) -0.15434(7) 0.43276(3)
Na2A Na 0.65272(7) -0.08693(7) 0.50133(3)
Na3A Na 0.48773(8) -0.05435(8) 0.60882(3)
S1A S 0.44552(6) -0.31348(6) 0.39276(3)
S2A S 0.87527(6) -0.26251(6) 0.54008(3)
S3A S 0.40388(6) -0.12225(6) 0.70821(3)
O1A O 0.66507(13) -0.10546(12) 0.41092(6)
O2A O 0.47690(13) -0.10872(12) 0.52433(6)
O3A O 0.64326(13) -0.01484(12) 0.58118(6)
N1A N 0.54471(17) -0.17035(16) 0.33858(7)
N2A N 0.68905(18) -0.28933(16) 0.49574(8)
N3A N 0.64020(17) -0.18094(16) 0.65863(8)
C1A C 0.75224(19) -0.13854(17) 0.37519(9)
C2A C 0.8634(2) -0.1416(2) 0.38355(10)
H1A H 0.8742 -0.1220 0.4161
C3A C 0.9568(2) -0.1722(2) 0.34598(11)
H2A H 1.0291 -0.1726 0.3533
C4A C 0.9452(2) -0.2023(2) 0.29739(12)
H3A H 1.0088 -0.2231 0.2717
C5A C 0.8397(2) -0.2012(2) 0.28784(10)
H4A H 0.8315 -0.2209 0.2549
C6A C 0.7421(2) -0.17173(19) 0.32524(9)
C7A C 0.6372(2) -0.1768(2) 0.30934(9)
H5A H 0.6364 -0.1858 0.2734
C8A C 0.4485(2) -0.1687(2) 0.31312(9)
C9A C 0.4050(2) -0.1008(2) 0.26928(10)
H6A H 0.4424 -0.0568 0.2549
C10A C 0.3076(3) -0.0962(3) 0.24616(11)
H7A H 0.2787 -0.0494 0.2166
C11A C 0.2536(2) -0.1615(3) 0.26719(12)
H8A H 0.1881 -0.1597 0.2514
C12A C 0.2944(2) -0.2289(2) 0.31075(11)
H9A H 0.2569 -0.2733 0.3244
C13A C 0.3908(2) -0.2325(2) 0.33511(10)
C14A C 0.3174(3) -0.3293(3) 0.42334(13)
H10A H 0.3042 -0.3814 0.4054
H11A H 0.3298 -0.3536 0.4601
H12A H 0.2489 -0.2612 0.4211
C15A C 0.4368(2) -0.18048(19) 0.53992(8)
C16A C 0.3189(2) -0.1501(2) 0.56083(10)
H13A H 0.2703 -0.0771 0.5641
C17A C 0.2724(3) -0.2236(3) 0.57661(11)
H14A H 0.1931 -0.1993 0.5898
C18A C 0.3394(3) -0.3313(3) 0.57352(12)
H15A H 0.3071 -0.3808 0.5846
C19A C 0.4545(3) -0.3650(2) 0.55386(12)
H16A H 0.5011 -0.4387 0.5519
C20A C 0.5059(2) -0.2931(2) 0.53640(10)
C21A C 0.6263(2) -0.3391(2) 0.51341(10)
H17A H 0.6617 -0.4136 0.5114
C22A C 0.8010(2) -0.34752(19) 0.46929(10)
C23A C 0.8118(3) -0.4047(2) 0.42607(12)
H18A H 0.7454 -0.4103 0.4151
C24A C 0.9218(4) -0.4537(3) 0.39898(15)
H19A H 0.9296 -0.4917 0.3693
C25A C 1.0188(3) -0.4465(3) 0.41586(16)
H20A H 1.0927 -0.4800 0.3975
C26A C 1.0097(3) -0.3913(2) 0.45901(13)
H21A H 1.0772 -0.3885 0.4705
C27A C 0.8997(2) -0.3393(2) 0.48565(11)
C28A C 1.0142(3) -0.2546(3) 0.54173(18)
H22A H 1.0329 -0.2237 0.5082
H23A H 1.0093 -0.2100 0.5696
H24A H 1.0756 -0.3257 0.5483
C29A C 0.74026(19) -0.03101(18) 0.60167(9)
C30A C 0.8097(2) 0.0235(2) 0.57946(12)
H25A H 0.7853 0.0692 0.5491
C31A C 0.9105(3) 0.0124(2) 0.60041(15)
H26A H 0.9529 0.0510 0.5845
C32A C 0.9512(2) -0.0546(3) 0.64454(15)
H27A H 1.0194 -0.0601 0.6594
C33A C 0.8903(2) -0.1131(2) 0.66644(12)
H28A H 0.9189 -0.1599 0.6961
C34A C 0.7860(2) -0.10498(19) 0.64581(10)
C35A C 0.7379(2) -0.1791(2) 0.66854(9)
H29A H 0.7829 -0.2318 0.6933
C36A C 0.6178(2) -0.2707(2) 0.67640(9)
C37A C 0.7029(3) -0.3746(2) 0.66902(11)
H30A H 0.7797 -0.3855 0.6556
C38A C 0.6755(3) -0.4606(3) 0.68112(13)
H31A H 0.7333 -0.5300 0.6758
C39A C 0.5635(3) -0.4457(3) 0.70097(13)
H32A H 0.5452 -0.5050 0.7090
C40A C 0.4778(3) -0.3438(3) 0.70915(11)
H33A H 0.4018 -0.3342 0.7232
C41A C 0.5038(2) -0.2561(2) 0.69668(9)
C42A C 0.2611(3) -0.1225(3) 0.70710(12)
H34A H 0.2476 -0.1645 0.7377
H35A H 0.2010 -0.0497 0.7078
H36A H 0.2575 -0.1533 0.6753
Na4 Na -0.10401(8) 0.60005(7) 0.90329(4)
Na5 Na 0.11459(7) 0.39887(7) 0.90791(3)
Na6 Na -0.04782(8) 0.39641(8) 1.00312(3)
S4 S -0.25839(6) 0.70364(6) 0.81956(3)
S5 S 0.29824(5) 0.30995(5) 0.82732(3)
S6 S -0.05464(7) 0.18052(6) 1.01418(3)
O4 O 0.08493(13) 0.57521(12) 0.90873(6)
O5 O -0.08182(13) 0.42663(12) 0.91625(6)
O6 O 0.13975(13) 0.39443(12) 1.00073(6)
N4 N -0.10567(16) 0.76758(15) 0.87113(8)
N5 N 0.04626(16) 0.43883(16) 0.81717(7)
N6 N 0.13445(19) 0.21600(16) 0.95512(9)
C43 C 0.15164(19) 0.62069(18) 0.88680(8)
C44 C 0.2756(2) 0.5700(2) 0.88949(10)
H37 H 0.3090 0.5023 0.9074
C45 C 0.3495(2) 0.6155(2) 0.86706(12)
H38 H 0.4316 0.5781 0.8693
C46 C 0.3037(2) 0.7162(3) 0.84113(12)
H39 H 0.3541 0.7476 0.8258
C47 C 0.1841(2) 0.7689(2) 0.83833(11)
H40 H 0.1530 0.8374 0.8210
C48 C 0.1058(2) 0.72454(19) 0.86038(9)
C49 C -0.0185(2) 0.79152(19) 0.85647(9)
H41 H -0.0377 0.8612 0.8413
C50 C -0.2212(2) 0.84984(18) 0.86907(9)
C51 C -0.2529(2) 0.9465(2) 0.89155(11)
H42 H -0.1957 0.9597 0.9070
C52 C -0.3675(3) 1.0228(2) 0.89131(14)
H43 H -0.3885 1.0880 0.9065
C53 C -0.4510(3) 1.0037(2) 0.86894(14)
H44 H -0.5289 1.0564 0.8686
C54 C -0.4221(2) 0.9081(2) 0.84686(12)
H45 H -0.4804 0.8961 0.8317
C55 C -0.3065(2) 0.8291(2) 0.84698(10)
C56 C -0.3895(3) 0.6806(3) 0.82463(12)
H46 H -0.4254 0.6911 0.8603
H47 H -0.3695 0.6079 0.8161
H48 H -0.4448 0.7302 0.8002
C57 C -0.14638(19) 0.40318(17) 0.88762(9)
C58 C -0.2413(2) 0.3798(2) 0.91166(11)
H49 H -0.2548 0.3798 0.9485
C59 C -0.3135(2) 0.3575(2) 0.88285(13)
H50 H -0.3754 0.3426 0.9002
C60 C -0.2969(2) 0.3564(3) 0.82858(13)
H51 H -0.3465 0.3407 0.8090
C61 C -0.2069(2) 0.3787(2) 0.80389(12)
H52 H -0.1957 0.3785 0.7670
C62 C -0.1299(2) 0.40210(19) 0.83198(10)
C63 C -0.0406(2) 0.4262(2) 0.80045(9)
H53 H -0.0462 0.4335 0.7638
C64 C 0.1172(2) 0.4711(2) 0.77893(9)
C65 C 0.0686(3) 0.5578(2) 0.74310(10)
H54 H -0.0138 0.5959 0.7433
C66 C 0.1412(3) 0.5887(3) 0.70690(12)
H55 H 0.1079 0.6480 0.6830
C67 C 0.2618(3) 0.5321(3) 0.70632(12)
H56 H 0.3107 0.5520 0.6814
C68 C 0.3115(3) 0.4468(3) 0.74184(11)
H57 H 0.3940 0.4082 0.7407
C69 C 0.2403(2) 0.4172(2) 0.77948(9)
C70 C 0.4424(2) 0.3042(2) 0.83485(14)
H58 H 0.4961 0.2689 0.8056
H59 H 0.4717 0.2646 0.8677
H60 H 0.4371 0.3762 0.8353
C71 C 0.2517(2) 0.33204(19) 1.00343(8)
C72 C 0.3298(2) 0.3691(2) 1.02219(10)
H61 H 0.2995 0.4400 1.0320
C73 C 0.4477(3) 0.3055(3) 1.02661(12)
H62 H 0.4957 0.3338 1.0393
C74 C 0.4969(3) 0.2020(3) 1.01288(14)
H63 H 0.5776 0.1589 1.0164
C75 C 0.4263(2) 0.1623(2) 0.99392(13)
H64 H 0.4598 0.0911 0.9844
C76 C 0.3047(2) 0.2247(2) 0.98822(10)
C77 C 0.2424(2) 0.1739(2) 0.96475(11)
H65 H 0.2865 0.1028 0.9559
C78 C 0.0899(2) 0.16012(19) 0.92644(11)
C79 C 0.1348(3) 0.1302(2) 0.87609(12)
H66 H 0.2028 0.1389 0.8618
C80 C 0.0801(4) 0.0873(3) 0.84633(14)
H67 H 0.1102 0.0677 0.8119
C81 C -0.0186(4) 0.0740(3) 0.86783(15)
H68 H -0.0567 0.0463 0.8477
C82 C -0.0622(3) 0.1008(2) 0.91859(13)
H69 H -0.1287 0.0897 0.9330
C83 C -0.0089(2) 0.1437(2) 0.94835(11)
C84 C -0.1880(3) 0.1605(3) 1.02647(14)
H70 H -0.2420 0.2006 0.9996
H71 H -0.2245 0.1850 1.0608
H72 H -0.1694 0.0851 1.0257
Na4A Na 0.10401(8) 0.39995(7) 1.09671(4)
Na5A Na -0.11459(7) 0.60113(7) 1.09209(3)
Na6A Na 0.04782(8) 0.60359(8) 0.99688(3)
S4A S 0.25839(6) 0.29636(6) 1.18044(3)
S5A S -0.29824(5) 0.69005(5) 1.17268(3)
S6A S 0.05464(7) 0.81948(6) 0.98582(3)
O4A O -0.08493(13) 0.42479(12) 1.09127(6)
O5A O 0.08182(13) 0.57337(12) 1.08375(6)
O6A O -0.13975(13) 0.60557(12) 0.99927(6)
N4A N 0.10567(16) 0.23242(15) 1.12887(8)
N5A N -0.04626(16) 0.56117(16) 1.18283(7)
N6A N -0.13445(19) 0.78400(16) 1.04488(9)
C43A C -0.15164(19) 0.37931(18) 1.11320(8)
C44A C -0.2756(2) 0.4300(2) 1.11051(10)
H37A H -0.3090 0.4977 1.0926
C45A C -0.3495(2) 0.3845(2) 1.13294(12)
H38A H -0.4316 0.4219 1.1307
C46A C -0.3037(2) 0.2838(3) 1.15887(12)
H39A H -0.3541 0.2524 1.1742
C47A C -0.1841(2) 0.2311(2) 1.16167(11)
H40A H -0.1530 0.1626 1.1790
C48A C -0.1058(2) 0.27546(19) 1.13962(9)
C49A C 0.0185(2) 0.20848(19) 1.14353(9)
H41A H 0.0377 0.1388 1.1587
C50A C 0.2212(2) 0.15016(18) 1.13093(9)
C51A C 0.2529(2) 0.0535(2) 1.10845(11)
H42A H 0.1957 0.0403 1.0930
C52A C 0.3675(3) -0.0228(2) 1.10869(14)
H43A H 0.3885 -0.0880 1.0935
C53A C 0.4510(3) -0.0037(2) 1.13106(14)
H44A H 0.5289 -0.0564 1.1314
C54A C 0.4221(2) 0.0919(2) 1.15314(12)
H45A H 0.4804 0.1039 1.1683
C55A C 0.3065(2) 0.1709(2) 1.15302(10)
C56A C 0.3895(3) 0.3194(3) 1.17537(12)
H46A H 0.4254 0.3089 1.1397
H47A H 0.3695 0.3921 1.1839
H48A H 0.4448 0.2698 1.1998
C57A C 0.14638(19) 0.59682(17) 1.11238(9)
C58A C 0.2413(2) 0.6202(2) 1.08834(11)
H49A H 0.2548 0.6202 1.0515
C59A C 0.3135(2) 0.6425(2) 1.11715(13)
H50A H 0.3754 0.6574 1.0998
C60A C 0.2969(2) 0.6436(3) 1.17142(13)
H51A H 0.3465 0.6593 1.1910
C61A C 0.2069(2) 0.6213(2) 1.19611(12)
H52A H 0.1957 0.6215 1.2330
C62A C 0.1299(2) 0.59790(19) 1.16802(10)
C63A C 0.0406(2) 0.5738(2) 1.19955(9)
H53A H 0.0462 0.5665 1.2362
C64A C -0.1172(2) 0.5289(2) 1.22107(9)
C65A C -0.0686(3) 0.4422(2) 1.25690(10)
H54A H 0.0138 0.4041 1.2567
C66A C -0.1412(3) 0.4113(3) 1.29310(12)
H55A H -0.1079 0.3520 1.3170
C67A C -0.2618(3) 0.4679(3) 1.29368(12)
H56A H -0.3107 0.4480 1.3186
C68A C -0.3115(3) 0.5532(3) 1.25816(11)
H57A H -0.3940 0.5918 1.2593
C69A C -0.2403(2) 0.5828(2) 1.22052(9)
C70A C -0.4424(2) 0.6958(2) 1.16515(14)
H58A H -0.4961 0.7311 1.1944
H59A H -0.4717 0.7354 1.1323
H60A H -0.4371 0.6238 1.1647
C71A C -0.2517(2) 0.66796(19) 0.99657(8)
C72A C -0.3298(2) 0.6309(2) 0.97781(10)
H61A H -0.2995 0.5600 0.9680
C73A C -0.4477(3) 0.6945(3) 0.97339(12)
H62A H -0.4957 0.6662 0.9607
C74A C -0.4969(3) 0.7980(3) 0.98712(14)
H63A H -0.5776 0.8411 0.9836
C75A C -0.4263(2) 0.8377(2) 1.00608(13)
H64A H -0.4598 0.9089 1.0156
C76A C -0.3047(2) 0.7753(2) 1.01178(10)
C77A C -0.2424(2) 0.8261(2) 1.03525(11)
H65A H -0.2865 0.8972 1.0441
C78A C -0.0899(2) 0.83988(19) 1.07356(11)
C79A C -0.1348(3) 0.8698(2) 1.12391(12)
H66A H -0.2028 0.8611 1.1382
C80A C -0.0801(4) 0.9127(3) 1.15367(14)
H67A H -0.1102 0.9323 1.1881
C81A C 0.0186(4) 0.9260(3) 1.13217(15)
H68A H 0.0567 0.9537 1.1523
C82A C 0.0622(3) 0.8992(2) 1.08141(13)
H69A H 0.1287 0.9103 1.0670
C83A C 0.0089(2) 0.8563(2) 1.05165(11)
C84A C 0.1880(3) 0.8395(3) 0.97353(14)
H70A H 0.2420 0.7994 1.0004
H71A H 0.2245 0.8150 0.9392
H72A H 0.1694 0.9149 0.9743
loop_
_geom_bond_atom_site_label_1
_geom_bond_atom_site_label_2
_geom_bond_site_symmetry_1
_geom_bond_site_symmetry_2
Na1 S1 1_555 1_555
Na2 S2 1_555 1_555
Na3 S3 1_555 1_555
S1 C13 1_555 1_555
S2 C27 1_555 1_555
S3 C41 1_555 1_555
O1 Na1 1_555 1_555
O2 Na1 1_555 1_555
O3 Na2 1_555 1_555
N1 Na1 1_555 1_555
N2 Na1 1_555 1_555
N3 Na3 1_555 1_555
C1 O1 1_555 1_555
C2 C1 1_555 1_555
H1 C2 1_555 1_555
C3 C2 1_555 1_555
H2 C3 1_555 1_555
C4 C3 1_555 1_555
H3 C4 1_555 1_555
C5 C4 1_555 1_555
H4 C5 1_555 1_555
C6 C1 1_555 1_555
C7 N1 1_555 1_555
H5 C7 1_555 1_555
C8 N1 1_555 1_555
C9 C8 1_555 1_555
H6 C9 1_555 1_555
C10 C9 1_555 1_555
H7 C10 1_555 1_555
C11 C10 1_555 1_555
H8 C11 1_555 1_555
C12 C11 1_555 1_555
H9 C12 1_555 1_555
C13 C8 1_555 1_555
C14 S1 1_555 1_555
H10 C14 1_555 1_555
H11 C14 1_555 1_555
H12 C14 1_555 1_555
C15 O2 1_555 1_555
C16 C15 1_555 1_555
H13 C16 1_555 1_555
C17 C16 1_555 1_555
H14 C17 1_555 1_555
C18 C17 1_555 1_555
H15 C18 1_555 1_555
C19 C18 1_555 1_555
H16 C19 1_555 1_555
C20 C15 1_555 1_555
C21 N2 1_555 1_555
H17 C21 1_555 1_555
C22 N2 1_555 1_555
C23 C22 1_555 1_555
H18 C23 1_555 1_555
C24 C23 1_555 1_555
H19 C24 1_555 1_555
C25 C24 1_555 1_555
H20 C25 1_555 1_555
C26 C25 1_555 1_555
H21 C26 1_555 1_555
C27 C22 1_555 1_555
C28 S2 1_555 1_555
H22 C28 1_555 1_555
H23 C28 1_555 1_555
H24 C28 1_555 1_555
C29 O3 1_555 1_555
C30 C29 1_555 1_555
H25 C30 1_555 1_555
C31 C30 1_555 1_555
H26 C31 1_555 1_555
C32 C31 1_555 1_555
H27 C32 1_555 1_555
C33 C32 1_555 1_555
H28 C33 1_555 1_555
C34 C29 1_555 1_555
C35 N3 1_555 1_555
H29 C35 1_555 1_555
C36 N3 1_555 1_555
C37 C36 1_555 1_555
H30 C37 1_555 1_555
C38 C37 1_555 1_555
H31 C38 1_555 1_555
C39 C38 1_555 1_555
H32 C39 1_555 1_555
C40 C39 1_555 1_555
H33 C40 1_555 1_555
C41 C36 1_555 1_555
C42 S3 1_555 1_555
H34 C42 1_555 1_555
H35 C42 1_555 1_555
H36 C42 1_555 1_555
Na4 S4 1_555 1_555
Na5 S5 1_555 1_555
Na6 S6 1_555 1_555
S4 C55 1_555 1_555
S5 C69 1_555 1_555
S6 C83 1_555 1_555
O4 Na4 1_555 1_555
O5 Na4 1_555 1_555
O6 Na5 1_555 1_555
N4 Na4 1_555 1_555
N5 Na5 1_555 1_555
N6 Na5 1_555 1_555
C43 O4 1_555 1_555
C44 C43 1_555 1_555
H37 C44 1_555 1_555
C45 C44 1_555 1_555
H38 C45 1_555 1_555
C46 C45 1_555 1_555
H39 C46 1_555 1_555
C47 C46 1_555 1_555
H40 C47 1_555 1_555
C48 C43 1_555 1_555
C49 N4 1_555 1_555
H41 C49 1_555 1_555
C50 N4 1_555 1_555
C51 C50 1_555 1_555
H42 C51 1_555 1_555
C52 C51 1_555 1_555
H43 C52 1_555 1_555
C53 C52 1_555 1_555
H44 C53 1_555 1_555
C54 C53 1_555 1_555
H45 C54 1_555 1_555
C55 C50 1_555 1_555
C56 S4 1_555 1_555
H46 C56 1_555 1_555
H47 C56 1_555 1_555
H48 C56 1_555 1_555
C57 O5 1_555 1_555
C58 C57 1_555 1_555
H49 C58 1_555 1_555
C59 C58 1_555 1_555
H50 C59 1_555 1_555
C60 C59 1_555 1_555
H51 C60 1_555 1_555
C61 C60 1_555 1_555
H52 C61 1_555 1_555
C62 C57 1_555 1_555
C63 N5 1_555 1_555
H53 C63 1_555 1_555
C64 N5 1_555 1_555
C65 C64 1_555 1_555
H54 C65 1_555 1_555
C66 C65 1_555 1_555
H55 C66 1_555 1_555
C67 C66 1_555 1_555
H56 C67 1_555 1_555
C68 C67 1_555 1_555
H57 C68 1_555 1_555
C69 C64 1_555 1_555
C70 S5 1_555 1_555
H58 C70 1_555 1_555
H59 C70 1_555 1_555
H60 C70 1_555 1_555
C71 O6 1_555 1_555
C72 C71 1_555 1_555
H61 C72 1_555 1_555
C73 C72 1_555 1_555
H62 C73 1_555 1_555
C74 C73 1_555 1_555
H63 C74 1_555 1_555
C75 C74 1_555 1_555
H64 C75 1_555 1_555
C76 C71 1_555 1_555
C77 N6 1_555 1_555
H65 C77 1_555 1_555
C78 N6 1_555 1_555
C79 C78 1_555 1_555
H66 C79 1_555 1_555
C80 C79 1_555 1_555
H67 C80 1_555 1_555
C81 C80 1_555 1_555
H68 C81 1_555 1_555
C82 C81 1_555 1_555
H69 C82 1_555 1_555
C83 C78 1_555 1_555
C84 S6 1_555 1_555
H70 C84 1_555 1_555
H71 C84 1_555 1_555
H72 C84 1_555 1_555
Na1A O3 1_555 1_555
Na2A O2 1_555 1_555
Na3A O1 1_555 1_555
S1A Na1A 1_555 1_555
S2A Na2A 1_555 1_555
S3A Na3A 1_555 1_555
O1A Na3 1_555 1_555
O2A Na2 1_555 1_555
O3A Na1 1_555 1_555
N1A Na1A 1_555 1_555
N2A Na1A 1_555 1_555
N3A Na3A 1_555 1_555
C1A O1A 1_555 1_555
C2A C1A 1_555 1_555
H1A C2A 1_555 1_555
C3A C2A 1_555 1_555
H2A C3A 1_555 1_555
C4A C3A 1_555 1_555
H3A C4A 1_555 1_555
C5A C4A 1_555 1_555
H4A C5A 1_555 1_555
C6A C1A 1_555 1_555
C7A N1A 1_555 1_555
H5A C7A 1_555 1_555
C8A N1A 1_555 1_555
C9A C8A 1_555 1_555
H6A C9A 1_555 1_555
C10A C9A 1_555 1_555
H7A C10A 1_555 1_555
C11A C10A 1_555 1_555
H8A C11A 1_555 1_555
C12A C11A 1_555 1_555
H9A C12A 1_555 1_555
C13A S1A 1_555 1_555
C14A S1A 1_555 1_555
H10A C14A 1_555 1_555
H11A C14A 1_555 1_555
H12A C14A 1_555 1_555
C15A O2A 1_555 1_555
C16A C15A 1_555 1_555
H13A C16A 1_555 1_555
C17A C16A 1_555 1_555
H14A C17A 1_555 1_555
C18A C17A 1_555 1_555
H15A C18A 1_555 1_555
C19A C18A 1_555 1_555
H16A C19A 1_555 1_555
C20A C15A 1_555 1_555
C21A N2A 1_555 1_555
H17A C21A 1_555 1_555
C22A N2A 1_555 1_555
C23A C22A 1_555 1_555
H18A C23A 1_555 1_555
C24A C23A 1_555 1_555
H19A C24A 1_555 1_555
C25A C24A 1_555 1_555
H20A C25A 1_555 1_555
C26A C25A 1_555 1_555
H21A C26A 1_555 1_555
C27A S2A 1_555 1_555
C28A S2A 1_555 1_555
H22A C28A 1_555 1_555
H23A C28A 1_555 1_555
H24A C28A 1_555 1_555
C29A O3A 1_555 1_555
C30A C29A 1_555 1_555
H25A C30A 1_555 1_555
C31A C30A 1_555 1_555
H26A C31A 1_555 1_555
C32A C31A 1_555 1_555
H27A C32A 1_555 1_555
C33A C32A 1_555 1_555
H28A C33A 1_555 1_555
C34A C29A 1_555 1_555
C35A N3A 1_555 1_555
H29A C35A 1_555 1_555
C36A N3A 1_555 1_555
C37A C36A 1_555 1_555
H30A C37A 1_555 1_555
C38A C37A 1_555 1_555
H31A C38A 1_555 1_555
C39A C38A 1_555 1_555
H32A C39A 1_555 1_555
C40A C39A 1_555 1_555
H33A C40A 1_555 1_555
C41A S3A 1_555 1_555
C42A S3A 1_555 1_555
H34A C42A 1_555 1_555
H35A C42A 1_555 1_555
H36A C42A 1_555 1_555
Na4A O6 1_555 1_555
Na5A S5A 1_555 1_555
Na6A O4 1_555 1_555
S4A Na4A 1_555 1_555
S5A C69A 1_555 1_555
S6A Na6A 1_555 1_555
O4A Na6 1_555 1_555
O5A Na4A 1_555 1_555
O6A Na4 1_555 1_555
N4A Na4A 1_555 1_555
N5A Na5A 1_555 1_555
N6A Na5A 1_555 1_555
C43A O4A 1_555 1_555
C44A C43A 1_555 1_555
H37A C44A 1_555 1_555
C45A C44A 1_555 1_555
H38A C45A 1_555 1_555
C46A C45A 1_555 1_555
H39A C46A 1_555 1_555
C47A C46A 1_555 1_555
H40A C47A 1_555 1_555
C48A C43A 1_555 1_555
C49A N4A 1_555 1_555
H41A C49A 1_555 1_555
C50A N4A 1_555 1_555
C51A C50A 1_555 1_555
H42A C51A 1_555 1_555
C52A C51A 1_555 1_555
H43A C52A 1_555 1_555
C53A C52A 1_555 1_555
H44A C53A 1_555 1_555
C54A C53A 1_555 1_555
H45A C54A 1_555 1_555
C55A S4A 1_555 1_555
C56A S4A 1_555 1_555
H46A C56A 1_555 1_555
H47A C56A 1_555 1_555
H48A C56A 1_555 1_555
C57A O5A 1_555 1_555
C58A C57A 1_555 1_555
H49A C58A 1_555 1_555
C59A C58A 1_555 1_555
H50A C59A 1_555 1_555
C60A C59A 1_555 1_555
H51A C60A 1_555 1_555
C61A C60A 1_555 1_555
H52A C61A 1_555 1_555
C62A C57A 1_555 1_555
C63A N5A 1_555 1_555
H53A C63A 1_555 1_555
C64A N5A 1_555 1_555
C65A C64A 1_555 1_555
H54A C65A 1_555 1_555
C66A C65A 1_555 1_555
H55A C66A 1_555 1_555
C67A C66A 1_555 1_555
H56A C67A 1_555 1_555
C68A C67A 1_555 1_555
H57A C68A 1_555 1_555
C69A C64A 1_555 1_555
C70A S5A 1_555 1_555
H58A C70A 1_555 1_555
H59A C70A 1_555 1_555
H60A C70A 1_555 1_555
C71A O6A 1_555 1_555
C72A C71A 1_555 1_555
H61A C72A 1_555 1_555
C73A C72A 1_555 1_555
H62A C73A 1_555 1_555
C74A C73A 1_555 1_555
H63A C74A 1_555 1_555
C75A C74A 1_555 1_555
H64A C75A 1_555 1_555
C76A C71A 1_555 1_555
C77A N6A 1_555 1_555
H65A C77A 1_555 1_555
C78A N6A 1_555 1_555
C79A C78A 1_555 1_555
H66A C79A 1_555 1_555
C80A C79A 1_555 1_555
H67A C80A 1_555 1_555
C81A C80A 1_555 1_555
H68A C81A 1_555 1_555
C82A C81A 1_555 1_555
H69A C82A 1_555 1_555
C83A S6A 1_555 1_555
C84A S6A 1_555 1_555
H70A C84A 1_555 1_555
H71A C84A 1_555 1_555
H72A C84A 1_555 1_555
Na2 O1 1_555 1_555
Na2 O2 1_555 1_555
Na2 N2 1_555 1_555
Na3 O2 1_555 1_555
Na3 O3 1_555 1_555
C5 C6 1_555 1_555
C6 C7 1_555 1_555
C12 C13 1_555 1_555
C19 C20 1_555 1_555
C20 C21 1_555 1_555
C26 C27 1_555 1_555
C33 C34 1_555 1_555
C34 C35 1_555 1_555
C40 C41 1_555 1_555
Na5 O4 1_555 1_555
Na5 O5 1_555 1_555
Na6 O5 1_555 1_555
Na6 O6 1_555 1_555
Na6 N6 1_555 1_555
Na6 O6A 1_555 1_555
O6 Na6A 1_555 1_555
C47 C48 1_555 1_555
C48 C49 1_555 1_555
C54 C55 1_555 1_555
C61 C62 1_555 1_555
C62 C63 1_555 1_555
C68 C69 1_555 1_555
C75 C76 1_555 1_555
C76 C77 1_555 1_555
C82 C83 1_555 1_555
Na1A O1A 1_555 1_555
Na1A O2A 1_555 1_555
Na2A O1A 1_555 1_555
Na2A O2A 1_555 1_555
Na2A O3A 1_555 1_555
Na2A N2A 1_555 1_555
Na3A O2A 1_555 1_555
Na3A O3A 1_555 1_555
C5A C6A 1_555 1_555
C6A C7A 1_555 1_555
C8A C13A 1_555 1_555
C12A C13A 1_555 1_555
C19A C20A 1_555 1_555
C20A C21A 1_555 1_555
C22A C27A 1_555 1_555
C26A C27A 1_555 1_555
C33A C34A 1_555 1_555
C34A C35A 1_555 1_555
C36A C41A 1_555 1_555
C40A C41A 1_555 1_555
Na4A O4A 1_555 1_555
Na5A O4A 1_555 1_555
Na5A O5A 1_555 1_555
Na5A O6A 1_555 1_555
Na6A O5A 1_555 1_555
Na6A O6A 1_555 1_555
Na6A N6A 1_555 1_555
C47A C48A 1_555 1_555
C48A C49A 1_555 1_555
C50A C55A 1_555 1_555
C54A C55A 1_555 1_555
C61A C62A 1_555 1_555
C62A C63A 1_555 1_555
C68A C69A 1_555 1_555
C75A C76A 1_555 1_555
C76A C77A 1_555 1_555
C78A C83A 1_555 1_555
C82A C83A 1_555 1_555

#END
