
#######################################################################
#
#                 Cambridge Crystallographic Data Centre
#                                CCDC 
#
#######################################################################
#
# If this CIF has been generated from an entry in the Cambridge 
# Structural Database, then it will include bibliographic, chemical, 
# crystal, experimental, refinement or atomic coordinate data resulting 
# from the CCDC's data processing and validation procedures.
#
#######################################################################

data_BEPCAB
_chemical_formula_moiety         'C10 H18 N2 O2'
_chemical_name_systematic        gem-1,1-bis(acetamido)cyclohexane
_symmetry_cell_setting           triclinic
_symmetry_space_group_name_H-M   'P -1'
_symmetry_Int_Tables_number      2
_space_group_name_Hall           '-P 1'
loop_
_symmetry_equiv_pos_site_id
_symmetry_equiv_pos_as_xyz
1 x,y,z
2 -x,-y,-z
_cell_length_a                   8.4228(17)
_cell_length_b                   10.253(2)
_cell_length_c                   13.506(3)
_cell_angle_alpha                90.92(3)
_cell_angle_beta                 106.18(3)
_cell_angle_gamma                99.19(3)
_cell_volume                     1103.53
_exptl_crystal_colour            colorless
_exptl_crystal_description       rhombus
_chemical_melting_point          180deg.C
_cell_formula_units_Z            4
_exptl_crystal_recrystallization_method ethanol/acetonitrile
loop_
_atom_site_label
_atom_site_type_symbol
_atom_site_fract_x
_atom_site_fract_y
_atom_site_fract_z
C1 C 0.63400(18) 0.29382(15) 0.60975(10)
C2 C 0.6343(2) 0.28561(19) 0.49590(11)
H1 H 0.5373 0.2230 0.4566
H2 H 0.6251 0.3716 0.4681
C3 C 0.7914(2) 0.2430(2) 0.48341(14)
H3 H 0.8879 0.3092 0.5180
H4 H 0.7851 0.2369 0.4106
C4 C 0.8143(3) 0.1103(2) 0.52807(16)
H5 H 0.9206 0.0892 0.5239
H6 H 0.7255 0.0420 0.4876
C5 C 0.8110(2) 0.11187(19) 0.63976(15)
H7 H 0.9104 0.1696 0.6819
H8 H 0.8137 0.0233 0.6637
C6 C 0.6559(2) 0.15908(16) 0.65373(13)
H9 H 0.6641 0.1652 0.7268
H10 H 0.5575 0.0943 0.6197
C7 C 0.80043(19) 0.52209(16) 0.65371(11)
C8 C 0.9488(2) 0.60557(18) 0.72879(14)
H11 H 1.0480 0.6007 0.7081
H12 H 0.9621 0.5736 0.7965
H13 H 0.9315 0.6958 0.7298
C9 C 0.40540(18) 0.32614(15) 0.68745(11)
C10 C 0.2418(2) 0.3769(2) 0.66629(15)
H17 H 0.1918 0.3552 0.7210
H18 H 0.1673 0.3367 0.6019
H19 H 0.2620 0.4713 0.6625
N1 N 0.77134(16) 0.39352(13) 0.67251(9)
N2 N 0.47200(16) 0.32820(14) 0.60872(10)
O1 O 0.71424(18) 0.57050(13) 0.58034(10)
O2 O 0.46955(14) 0.28602(12) 0.77154(8)
H42 H 0.423(2) 0.3654(18) 0.5538(15)
H43 H 0.838(2) 0.3728(16) 0.7267(14)
C11 C 0.26055(17) 0.19474(14) 0.99040(10)
C12 C 0.33031(19) 0.10406(15) 1.07468(11)
H23 H 0.2514 0.0218 1.0658
H24 H 0.4345 0.0832 1.0666
C13 C 0.3625(2) 0.16518(17) 1.18328(12)
H25 H 0.2562 0.1727 1.1956
H26 H 0.4170 0.1073 1.2329
C14 C 0.4718(2) 0.3010(2) 1.19977(13)
H27 H 0.4799 0.3400 1.2673
H28 H 0.5839 0.2922 1.1980
C15 C 0.4000(2) 0.39138(17) 1.11733(12)
H29 H 0.2933 0.4082 1.1242
H30 H 0.4757 0.4755 1.1271
C16 C 0.37475(19) 0.33023(15) 1.00988(11)
H31 H 0.4829 0.3205 1.0012
H32 H 0.3258 0.3892 0.9591
C17 C -0.00842(19) 0.28217(15) 0.93449(11)
C18 C -0.1674(2) 0.29194(19) 0.96210(14)
H33 H -0.1577 0.3779 0.9947
H34 H -0.1856 0.2252 1.0087
H35 H -0.2602 0.2790 0.9005
C19 C 0.17235(19) 0.02486(15) 0.84273(11)
C20 C 0.2017(2) -0.01255(18) 0.74190(13)
H36 H 0.1187 -0.0869 0.7078
H37 H 0.3114 -0.0356 0.7548
H38 H 0.1937 0.0610 0.6987
N3 N 0.09195(15) 0.20788(12) 0.99376(9)
N4 N 0.25983(16) 0.14026(13) 0.88929(9)
O3 O 0.02634(15) 0.34243(13) 0.86335(9)
O4 O 0.07493(16) -0.04888(12) 0.87764(9)
H44 H 0.053(2) 0.1603(16) 1.0343(13)
H45 H 0.322(2) 0.1887(17) 0.8566(13)
H14? H 1.0034 0.6841 0.6913
H15? H 0.9057 0.6623 0.7866
H16? H 1.0396 0.5534 0.7743
H20? H 0.1508 0.2934 0.6675
H21? H 0.1984 0.4177 0.5942
H22? H 0.2598 0.4562 0.7375
H39? H 0.1000 -0.0155 0.6871
H40? H 0.2347 -0.0979 0.7450
H41? H 0.2886 0.0518 0.7291
loop_
_geom_bond_atom_site_label_1
_geom_bond_atom_site_label_2
_geom_bond_site_symmetry_1
_geom_bond_site_symmetry_2
C1 C2 1_555 1_555
C2 H1 1_555 1_555
H2 C2 1_555 1_555
C3 C2 1_555 1_555
H3 C3 1_555 1_555
H4 C3 1_555 1_555
C4 C3 1_555 1_555
H5 C4 1_555 1_555
H6 C4 1_555 1_555
C5 C4 1_555 1_555
H7 C5 1_555 1_555
H8 C5 1_555 1_555
C6 C1 1_555 1_555
H9 C6 1_555 1_555
H10 C6 1_555 1_555
C7 C8 1_555 1_555
C8 H11 1_555 1_555
H12 C8 1_555 1_555
H13 C8 1_555 1_555
C9 C10 1_555 1_555
C10 H17 1_555 1_555
H18 C10 1_555 1_555
H19 C10 1_555 1_555
C11 C12 1_555 1_555
C12 H23 1_555 1_555
H24 C12 1_555 1_555
C13 C12 1_555 1_555
H25 C13 1_555 1_555
H26 C13 1_555 1_555
C14 C13 1_555 1_555
H27 C14 1_555 1_555
H28 C14 1_555 1_555
C15 C14 1_555 1_555
H29 C15 1_555 1_555
H30 C15 1_555 1_555
C16 C11 1_555 1_555
H31 C16 1_555 1_555
H32 C16 1_555 1_555
C17 C18 1_555 1_555
C18 H33 1_555 1_555
H34 C18 1_555 1_555
H35 C18 1_555 1_555
C19 C20 1_555 1_555
C20 H36 1_555 1_555
H37 C20 1_555 1_555
H38 C20 1_555 1_555
N1 C1 1_555 1_555
N2 C1 1_555 1_555
N3 C11 1_555 1_555
N4 C11 1_555 1_555
O1 C7 1_555 1_555
O2 C9 1_555 1_555
O3 C17 1_555 1_555
O4 C19 1_555 1_555
H42 N2 1_555 1_555
H43 N1 1_555 1_555
H44 N3 1_555 1_555
H45 N4 1_555 1_555
C5 C6 1_555 1_555
C7 N1 1_555 1_555
C9 N2 1_555 1_555
C15 C16 1_555 1_555
C17 N3 1_555 1_555
C19 N4 1_555 1_555

#END
