
#######################################################################
#
#                 Cambridge Crystallographic Data Centre
#                                CCDC 
#
#######################################################################
#
# If this CIF has been generated from an entry in the Cambridge 
# Structural Database, then it will include bibliographic, chemical, 
# crystal, experimental, refinement or atomic coordinate data resulting 
# from the CCDC's data processing and validation procedures.
#
#######################################################################

data_BEPFEJ
_chemical_formula_moiety         'C21 H21 N5 O1'
_chemical_name_systematic        
6-(4-Methylphenyl)-7-(1-phenyl-1H-tetrazol-5-yl)-6-azaspiro[3.4]octan-5-one
_symmetry_cell_setting           monoclinic
_symmetry_space_group_name_H-M   'C 2/c'
_symmetry_Int_Tables_number      15
_space_group_name_Hall           '-C 2yn'
loop_
_symmetry_equiv_pos_site_id
_symmetry_equiv_pos_as_xyz
1 x,y,z
2 -x,y,1/2-z
3 1/2+x,1/2+y,z
4 1/2-x,1/2+y,1/2-z
5 -x,-y,-z
6 x,-y,1/2+z
7 1/2-x,1/2-y,-z
8 1/2+x,1/2-y,1/2+z
_cell_length_a                   22.007(2)
_cell_length_b                   11.2333(13)
_cell_length_c                   18.695(2)
_cell_angle_alpha                90
_cell_angle_beta                 123.621(2)
_cell_angle_gamma                90
_cell_volume                     3848.5
_exptl_crystal_colour            colorless
_exptl_crystal_description       needle
_cell_formula_units_Z            8
loop_
_atom_site_label
_atom_site_type_symbol
_atom_site_fract_x
_atom_site_fract_y
_atom_site_fract_z
O1 O 0.21615(8) 0.25045(11) 0.23097(9)
N1 N 0.21238(8) 0.43182(12) 0.28541(9)
N2 N 0.11280(9) 0.66194(14) 0.31731(11)
N3 N 0.07690(12) 0.64473(18) 0.35662(14)
N4 N 0.07303(13) 0.53117(19) 0.36224(14)
N5 N 0.10506(10) 0.47253(15) 0.32734(12)
C1 C 0.16818(10) 0.54067(15) 0.25568(12)
H1 H 0.1999 0.6096 0.2683
C2 C 0.18711(11) 0.34699(15) 0.22266(12)
C3 C 0.11665(11) 0.39033(17) 0.14426(12)
C4 C 0.11818(12) 0.52350(17) 0.15798(13)
H2 H 0.0695 0.5533 0.1362
H3 H 0.1375 0.5648 0.1292
C5 C 0.05063(13) 0.3184(2) 0.13177(16)
H4 H 0.0641 0.2622 0.1777
H5 H 0.0103 0.3682 0.1208
C6 C 0.03907(19) 0.2621(3) 0.0527(2)
H6 H -0.0094 0.2753 0.0018
H7 H 0.0514 0.1781 0.0596
C7 C 0.09687(16) 0.3409(2) 0.05686(14)
H8 H 0.0772 0.4005 0.0118
H9 H 0.1362 0.2969 0.0600
C8 C 0.12840(10) 0.55580(15) 0.29928(12)
C9 C 0.26989(10) 0.41702(16) 0.37309(12)
C10 C 0.31357(12) 0.5131(2) 0.41940(14)
H10 H 0.3070 0.5858 0.3922
C11 C 0.36644(14) 0.5012(3) 0.50525(17)
H11 H 0.3953 0.5667 0.5353
C12 C 0.37828(13) 0.3952(3) 0.54852(15)
C13 C 0.33499(15) 0.3005(3) 0.50168(17)
H12 H 0.3422 0.2276 0.5289
C14 C 0.28073(13) 0.3104(2) 0.41479(15)
H13 H 0.2517 0.2450 0.3848
C15 C 0.43469(16) 0.3852(4) 0.64346(17)
H14 H 0.4310 0.3084 0.6634
H15 H 0.4266 0.4462 0.6732
H16 H 0.4825 0.3944 0.6543
C16 C 0.12983(14) 0.77789(17) 0.30151(16)
C17 C 0.09231(18) 0.8205(2) 0.21956(19)
H17 H 0.0544 0.7767 0.1749
C18 C 0.1115(2) 0.9293(3) 0.2040(3)
H18 H 0.0863 0.9588 0.1481
C19 C 0.1660(3) 0.9939(3) 0.2681(4)
H19 H 0.1781 1.0673 0.2563
C20 C 0.2037(2) 0.9519(3) 0.3505(3)
H20 H 0.2412 0.9969 0.3948
C21 C 0.18575(17) 0.8414(2) 0.3682(2)
H21 H 0.2111 0.8116 0.4240
loop_
_geom_bond_atom_site_label_1
_geom_bond_atom_site_label_2
_geom_bond_site_symmetry_1
_geom_bond_site_symmetry_2
O1 C2 1_555 1_555
N1 C1 1_555 1_555
N2 N3 1_555 1_555
N3 N4 1_555 1_555
N4 N5 1_555 1_555
N5 C8 1_555 1_555
C1 H1 1_555 1_555
C2 N1 1_555 1_555
C3 C2 1_555 1_555
C4 C1 1_555 1_555
H2 C4 1_555 1_555
H3 C4 1_555 1_555
C5 C3 1_555 1_555
H4 C5 1_555 1_555
H5 C5 1_555 1_555
C6 C5 1_555 1_555
H6 C6 1_555 1_555
H7 C6 1_555 1_555
C7 C3 1_555 1_555
H8 C7 1_555 1_555
H9 C7 1_555 1_555
C8 N2 1_555 1_555
C9 N1 1_555 1_555
C10 C9 1_555 1_555
H10 C10 1_555 1_555
C11 C10 1_555 1_555
H11 C11 1_555 1_555
C12 C11 1_555 1_555
C13 C12 1_555 1_555
H12 C13 1_555 1_555
C14 C9 1_555 1_555
H13 C14 1_555 1_555
C15 C12 1_555 1_555
H14 C15 1_555 1_555
H15 C15 1_555 1_555
H16 C15 1_555 1_555
C16 N2 1_555 1_555
C17 C16 1_555 1_555
H17 C17 1_555 1_555
C18 C17 1_555 1_555
H18 C18 1_555 1_555
C19 C18 1_555 1_555
H19 C19 1_555 1_555
C20 C19 1_555 1_555
H20 C20 1_555 1_555
C21 C16 1_555 1_555
H21 C21 1_555 1_555
C1 C8 1_555 1_555
C3 C4 1_555 1_555
C6 C7 1_555 1_555
C13 C14 1_555 1_555
C20 C21 1_555 1_555

#END
