
#######################################################################
#
#                 Cambridge Crystallographic Data Centre
#                                CCDC 
#
#######################################################################
#
# If this CIF has been generated from an entry in the Cambridge 
# Structural Database, then it will include bibliographic, chemical, 
# crystal, experimental, refinement or atomic coordinate data resulting 
# from the CCDC's data processing and validation procedures.
#
#######################################################################

data_BEPFOT
_chemical_formula_moiety         'C22 H22 O8'
_chemical_name_systematic        
3-(4-(Benzyloxy)phenyl)-3a',5,6'-trihydroxyhexahydro-3H-spiro[furan-2,3'-furo[3,2-b]furan]-2'-one
_symmetry_cell_setting           monoclinic
_symmetry_space_group_name_H-M   'P 21'
_symmetry_Int_Tables_number      4
_space_group_name_Hall           'P 2yb'
loop_
_symmetry_equiv_pos_site_id
_symmetry_equiv_pos_as_xyz
1 x,y,z
2 -x,1/2+y,-z
_cell_length_a                   6.690(2)
_cell_length_b                   7.080(2)
_cell_length_c                   20.692(6)
_cell_angle_alpha                90
_cell_angle_beta                 95.955(5)
_cell_angle_gamma                90
_cell_volume                     974.792
_exptl_crystal_colour            colorless
_exptl_crystal_description       platelet
_cell_formula_units_Z            2
loop_
_atom_site_label
_atom_site_type_symbol
_atom_site_fract_x
_atom_site_fract_y
_atom_site_fract_z
O1 O 0.7592(3) 0.4635(3) 0.95264(9)
O2 O 0.6632(3) 0.5467(3) 0.81480(9)
O3 O 1.0373(3) 0.2581(3) 0.89678(10)
O4 O 0.3238(3) 0.5358(4) 0.94392(10)
H1 H 0.2314 0.4790 0.9212
O5 O 0.5896(3) 0.1811(3) 0.92866(9)
H2 H 0.6696 0.1422 0.9598
O6 O 0.9907(4) 0.5445(4) 0.80031(11)
O7 O 1.0294(4) -0.0602(4) 0.92466(12)
H3 H 1.0880 -0.0682 0.9625
O8 O 0.3847(3) 0.1929(4) 0.56377(9)
C1 C 0.8480(4) 0.2893(4) 0.86012(12)
C2 C 0.6809(4) 0.3359(4) 0.90308(12)
C3 C 0.5344(4) 0.4550(4) 0.85837(12)
H4 H 0.4216 0.3806 0.8353
C4 C 0.8518(5) 0.4707(5) 0.82191(13)
C5 C 0.4657(4) 0.6068(5) 0.90307(13)
H5 H 0.4143 0.7214 0.8784
C6 C 0.6589(4) 0.6460(5) 0.94515(14)
H6 H 0.7424 0.7379 0.9239
H7 H 0.6312 0.6970 0.9879
C7 C 0.8073(4) 0.1123(4) 0.81538(12)
H8 H 0.7288 0.0204 0.8394
C8 C 1.0194(4) 0.0322(5) 0.81527(14)
H9 H 1.0165 -0.1046 0.8054
H10 H 1.0954 0.0989 0.7836
C9 C 1.1074(4) 0.0696(5) 0.88414(15)
H11 H 1.2575 0.0640 0.8882
C10 C 0.6934(4) 0.1402(4) 0.74890(12)
C11 C 0.7753(4) 0.2302(5) 0.69761(13)
H12 H 0.9070 0.2818 0.7045
C12 C 0.6683(5) 0.2455(5) 0.63716(13)
H13 H 0.7263 0.3076 0.6029
C13 C 0.4758(5) 0.1704(5) 0.62616(13)
C14 C 0.3913(4) 0.0821(5) 0.67580(13)
H14 H 0.2594 0.0313 0.6688
C15 C 0.5014(4) 0.0679(5) 0.73657(13)
H15 H 0.4424 0.0064 0.7707
C16 C 0.1898(5) 0.1172(6) 0.55000(15)
H16 H 0.0966 0.1803 0.5773
H17 H 0.1917 -0.0194 0.5604
C17 C 0.1169(6) 0.1457(5) 0.47877(14)
C18 C 0.2398(6) 0.2139(6) 0.43446(16)
H18 H 0.3749 0.2474 0.4483
C19 C 0.1650(7) 0.2337(7) 0.36913(18)
H19 H 0.2478 0.2844 0.3388
C20 C -0.0281(7) 0.1797(6) 0.34917(16)
H20 H -0.0778 0.1891 0.3046
C21 C -0.1490(7) 0.1126(6) 0.39287(18)
H21 H -0.2833 0.0765 0.3787
C22 C -0.0776(6) 0.0965(6) 0.45775(18)
H22 H -0.1637 0.0511 0.4880
loop_
_geom_bond_atom_site_label_1
_geom_bond_atom_site_label_2
_geom_bond_site_symmetry_1
_geom_bond_site_symmetry_2
O1 C2 1_555 1_555
O2 C3 1_555 1_555
O3 C1 1_555 1_555
O4 H1 1_555 1_555
O5 H2 1_555 1_555
O6 C4 1_555 1_555
O7 H3 1_555 1_555
O8 C13 1_555 1_555
C1 C2 1_555 1_555
C2 O5 1_555 1_555
C3 C2 1_555 1_555
H4 C3 1_555 1_555
C4 O2 1_555 1_555
C5 O4 1_555 1_555
H5 C5 1_555 1_555
C6 O1 1_555 1_555
H6 C6 1_555 1_555
H7 C6 1_555 1_555
C7 C1 1_555 1_555
H8 C7 1_555 1_555
C8 C7 1_555 1_555
H9 C8 1_555 1_555
H10 C8 1_555 1_555
C9 O3 1_555 1_555
H11 C9 1_555 1_555
C10 C7 1_555 1_555
C11 C10 1_555 1_555
H12 C11 1_555 1_555
C12 C11 1_555 1_555
H13 C12 1_555 1_555
C13 C12 1_555 1_555
C14 C13 1_555 1_555
H14 C14 1_555 1_555
C15 C10 1_555 1_555
H15 C15 1_555 1_555
C16 O8 1_555 1_555
H16 C16 1_555 1_555
H17 C16 1_555 1_555
C17 C16 1_555 1_555
C18 C17 1_555 1_555
H18 C18 1_555 1_555
C19 C18 1_555 1_555
H19 C19 1_555 1_555
C20 C19 1_555 1_555
H20 C20 1_555 1_555
C21 C20 1_555 1_555
H21 C21 1_555 1_555
C22 C17 1_555 1_555
H22 C22 1_555 1_555
O7 C9 1_555 1_555
C1 C4 1_555 1_555
C3 C5 1_555 1_555
C5 C6 1_555 1_555
C8 C9 1_555 1_555
C14 C15 1_555 1_555
C21 C22 1_555 1_555

#END
