
#######################################################################
#
#                 Cambridge Crystallographic Data Centre
#                                CCDC 
#
#######################################################################
#
# If this CIF has been generated from an entry in the Cambridge 
# Structural Database, then it will include bibliographic, chemical, 
# crystal, experimental, refinement or atomic coordinate data resulting 
# from the CCDC's data processing and validation procedures.
#
#######################################################################

data_BEPMOZ
_chemical_formula_moiety         'C20 H23 Br1 N2 O6 S1'
_chemical_name_systematic        
2-(Bromomethylene)-1-((1S,5R,7R)-10,10-dimethyl-3,3-dioxo-3-thia-4-azatricyclo(5.2.1.0^1,5^)decan-4-yl)-3-hydroxy-3-(4-nitrophenyl)propanone
_symmetry_cell_setting           orthorhombic
_symmetry_space_group_name_H-M   'P 21 21 21'
_symmetry_Int_Tables_number      19
_space_group_name_Hall           'P 2ac 2ab'
loop_
_symmetry_equiv_pos_site_id
_symmetry_equiv_pos_as_xyz
1 x,y,z
2 1/2-x,-y,1/2+z
3 -x,1/2+y,1/2-z
4 1/2+x,1/2-y,-z
_cell_length_a                   7.5566(5)
_cell_length_b                   11.0074(7)
_cell_length_c                   25.5065(15)
_cell_angle_alpha                90
_cell_angle_beta                 90
_cell_angle_gamma                90
_cell_volume                     2121.59
_exptl_crystal_colour            colorless
_chemical_melting_point          '153-154 deg.C'
_cell_formula_units_Z            4
loop_
_atom_site_label
_atom_site_type_symbol
_atom_site_fract_x
_atom_site_fract_y
_atom_site_fract_z
Br1 Br 1.33048(5) 0.55346(4) 0.154911(16)
S1 S 0.83463(14) 0.41853(7) 0.25530(3)
O1 O 0.9578(4) 0.7833(2) 0.11200(10)
O2 O 0.7088(3) 0.7168(2) 0.19200(9)
O3 O 0.7857(5) 0.3588(3) 0.20855(10)
O4 O 1.0124(4) 0.4039(3) 0.27362(12)
O5 O 0.2397(6) 0.5252(5) -0.01107(19)
O6 O 0.3449(6) 0.3473(4) -0.00078(15)
N1 N 0.7866(3) 0.5694(2) 0.24912(9)
N2 N 0.3518(6) 0.4571(4) 0.00480(13)
C1 C 1.1183(4) 0.5764(3) 0.19155(14)
C2 C 0.9690(5) 0.6115(3) 0.16916(12)
C3 C 0.9496(5) 0.6534(4) 0.11331(14)
C4 C 0.8100(5) 0.6348(3) 0.20359(12)
C5 C 0.7904(5) 0.6026(3) 0.08502(12)
C6 C 0.7650(6) 0.4791(4) 0.08229(14)
C7 C 0.6232(6) 0.4307(4) 0.05561(13)
C8 C 0.5087(6) 0.5062(4) 0.03232(12)
C9 C 0.5281(6) 0.6305(4) 0.03344(15)
C10 C 0.6717(6) 0.6779(4) 0.06005(13)
C11 C 0.6849(6) 0.3896(3) 0.30755(16)
C12 C 0.6192(4) 0.5115(3) 0.32669(12)
C13 C 0.6306(4) 0.6031(3) 0.28200(12)
C14 C 0.6421(6) 0.7264(3) 0.30962(15)
C15 C 0.6077(5) 0.6913(4) 0.36652(14)
C16 C 0.7177(5) 0.5746(4) 0.37283(13)
C17 C 0.4246(5) 0.5182(3) 0.34501(16)
C18 C 0.4179(6) 0.6453(4) 0.37139(17)
C19 C 0.9173(6) 0.5968(5) 0.3657(2)
C20 C 0.6933(8) 0.5109(6) 0.42534(16)
H1 H 1.128(4) 0.564(3) 0.2248(12)
H2 H 1.046(5) 0.625(3) 0.0949(11)
H3 H 0.822(5) 0.438(3) 0.0988(13)
H4 H 0.608(5) 0.349(4) 0.0524(14)
H5 H 0.446(7) 0.677(4) 0.0151(18)
H6 H 0.701(5) 0.762(3) 0.0606(13)
H7 H 0.609(5) 0.358(3) 0.2921(14)
H8 H 0.751(5) 0.340(4) 0.3348(15)
H9 H 0.527(4) 0.596(2) 0.2600(10)
H10 H 0.755(7) 0.765(5) 0.3042(18)
H11 H 0.567(5) 0.785(4) 0.2951(13)
H12 H 0.636(5) 0.743(3) 0.3922(12)
H13 H 0.404(4) 0.461(3) 0.3723(12)
H14 H 0.331(5) 0.513(3) 0.3138(12)
H15 H 0.339(5) 0.698(3) 0.3521(14)
H16 H 0.390(5) 0.638(3) 0.4101(14)
H17 H 0.941(6) 0.631(4) 0.3272(17)
H18 H 0.976(7) 0.534(5) 0.3722(17)
H19 H 0.952(6) 0.641(4) 0.3915(16)
H20 H 0.744(6) 0.432(5) 0.4254(17)
H21 H 0.572(8) 0.499(5) 0.4382(19)
H22 H 0.739(7) 0.559(5) 0.4562(18)
loop_
_geom_bond_atom_site_label_1
_geom_bond_atom_site_label_2
_geom_bond_site_symmetry_1
_geom_bond_site_symmetry_2
Br1 C1 1_555 1_555
S1 O3 1_555 1_555
O1 C3 1_555 1_555
O2 C4 1_555 1_555
O4 S1 1_555 1_555
O5 N2 1_555 1_555
O6 N2 1_555 1_555
N1 S1 1_555 1_555
N2 C8 1_555 1_555
C1 C2 1_555 1_555
C2 C3 1_555 1_555
C3 C5 1_555 1_555
C4 N1 1_555 1_555
C5 C6 1_555 1_555
C6 C7 1_555 1_555
C7 C8 1_555 1_555
C8 C9 1_555 1_555
C9 C10 1_555 1_555
C10 C5 1_555 1_555
C11 S1 1_555 1_555
C12 C11 1_555 1_555
C13 N1 1_555 1_555
C14 C13 1_555 1_555
C15 C14 1_555 1_555
C16 C12 1_555 1_555
C17 C12 1_555 1_555
C18 C15 1_555 1_555
C19 C16 1_555 1_555
C20 C16 1_555 1_555
H1 C1 1_555 1_555
H2 C3 1_555 1_555
H3 C6 1_555 1_555
H4 C7 1_555 1_555
H5 C9 1_555 1_555
H6 C10 1_555 1_555
H7 C11 1_555 1_555
H8 C11 1_555 1_555
H9 C13 1_555 1_555
H10 C14 1_555 1_555
H11 C14 1_555 1_555
H12 C15 1_555 1_555
H13 C17 1_555 1_555
H14 C17 1_555 1_555
H15 C18 1_555 1_555
H16 C18 1_555 1_555
H17 C19 1_555 1_555
H18 C19 1_555 1_555
H19 C19 1_555 1_555
H20 C20 1_555 1_555
H21 C20 1_555 1_555
H22 C20 1_555 1_555
C2 C4 1_555 1_555
C12 C13 1_555 1_555
C15 C16 1_555 1_555
C17 C18 1_555 1_555

#END
