
#######################################################################
#
#                 Cambridge Crystallographic Data Centre
#                                CCDC 
#
#######################################################################
#
# If this CIF has been generated from an entry in the Cambridge 
# Structural Database, then it will include bibliographic, chemical, 
# crystal, experimental, refinement or atomic coordinate data resulting 
# from the CCDC's data processing and validation procedures.
#
#######################################################################

data_BEPNUG
_chemical_name_common            
N-(4-Methoxyphenyl)-1,2,9,9a-tetrahydropropa(c)benz(e)indol-4-one
_chemical_formula_moiety         'C20 H17 N1 O2'
_chemical_name_systematic        
(+-)-3-(4-Methoxyphenyl)-5-oxo-1,1a,2,5-tetrahydro-benzo[e]cyclopropa[c]indole
_chemical_properties_biological  'L1210 cytotoxic activity'
_symmetry_cell_setting           monoclinic
_symmetry_space_group_name_H-M   'P 21/n'
_symmetry_Int_Tables_number      14
_space_group_name_Hall           '-P 2yn'
loop_
_symmetry_equiv_pos_site_id
_symmetry_equiv_pos_as_xyz
1 x,y,z
2 1/2-x,1/2+y,1/2-z
3 -x,-y,-z
4 1/2+x,1/2-y,1/2+z
_cell_length_a                   8.3186(14)
_cell_length_b                   7.7502(13)
_cell_length_c                   23.710(4)
_cell_angle_alpha                90
_cell_angle_beta                 96.855(3)
_cell_angle_gamma                90
_cell_volume                     1517.68
_exptl_crystal_colour            'dull yellow or yellow'
_exptl_crystal_description       needle
_chemical_melting_point          '159-160 deg.C'
_cell_formula_units_Z            4
loop_
_atom_site_label
_atom_site_type_symbol
_atom_site_fract_x
_atom_site_fract_y
_atom_site_fract_z
O1 O 0.38235(19) 0.1765(2) 0.57160(6)
O2 O -0.0949(2) 0.3332(2) 0.25103(7)
N1 N 0.5079(2) 0.2678(2) 0.38103(8)
C1 C 0.9348(3) 0.1978(3) 0.53365(11)
H1 H 1.0103 0.2146 0.5082
C2 C 0.9865(3) 0.1537(3) 0.58890(12)
H2 H 1.0967 0.1414 0.6006
C3 C 0.8763(3) 0.1273(3) 0.62731(12)
H3 H 0.9124 0.0981 0.6647
C4 C 0.7125(3) 0.1446(3) 0.61005(10)
H4 H 0.6385 0.1259 0.6359
C5 C 0.6572(3) 0.1898(3) 0.55417(9)
C6 C 0.7691(3) 0.2177(3) 0.51517(9)
C7 C 0.7092(3) 0.2723(3) 0.45730(9)
C8 C 0.5330(3) 0.2610(3) 0.43958(9)
C9 C 0.4245(3) 0.2373(3) 0.47760(9)
H5 H 0.3142 0.2429 0.4654
C10 C 0.4782(3) 0.2040(3) 0.53599(9)
C11 C 0.7891(3) 0.4259(3) 0.43049(10)
H6 H 0.7187 0.5136 0.4117
H7 H 0.8906 0.4687 0.4498
C12 C 0.7896(3) 0.2528(3) 0.40322(10)
H8 H 0.8914 0.1886 0.4043
C13 C 0.6567(3) 0.2209(3) 0.35586(10)
H9 H 0.6698 0.2929 0.3233
H10 H 0.6542 0.1009 0.3443
C14 C 0.3570(3) 0.2838(3) 0.34685(9)
C15 C 0.3268(3) 0.1954(3) 0.29590(10)
H11 H 0.4072 0.1261 0.2838
C16 C 0.1782(3) 0.2087(3) 0.26259(10)
H12 H 0.1596 0.1485 0.2285
C17 C 0.0578(3) 0.3119(3) 0.28030(10)
C18 C 0.0891(3) 0.4067(3) 0.32981(10)
H13 H 0.0100 0.4799 0.3409
C19 C 0.2368(3) 0.3935(3) 0.36283(9)
H14 H 0.2566 0.4581 0.3960
C20 C -0.1509(4) 0.2046(4) 0.21100(12)
H15 H -0.2627 0.2252 0.1976
H16 H -0.1398 0.0931 0.2287
H17 H -0.0881 0.2082 0.1796
loop_
_geom_bond_atom_site_label_1
_geom_bond_atom_site_label_2
_geom_bond_site_symmetry_1
_geom_bond_site_symmetry_2
O1 C10 1_555 1_555
O2 C17 1_555 1_555
N1 C8 1_555 1_555
C1 H1 1_555 1_555
C2 C1 1_555 1_555
H2 C2 1_555 1_555
C3 C2 1_555 1_555
H3 C3 1_555 1_555
C4 C3 1_555 1_555
H4 C4 1_555 1_555
C5 C4 1_555 1_555
C6 C1 1_555 1_555
C7 C6 1_555 1_555
C8 C7 1_555 1_555
C9 C8 1_555 1_555
H5 C9 1_555 1_555
C10 C5 1_555 1_555
C11 C7 1_555 1_555
H6 C11 1_555 1_555
H7 C11 1_555 1_555
C12 C7 1_555 1_555
H8 C12 1_555 1_555
C13 N1 1_555 1_555
H9 C13 1_555 1_555
H10 C13 1_555 1_555
C14 N1 1_555 1_555
C15 C14 1_555 1_555
H11 C15 1_555 1_555
C16 C15 1_555 1_555
H12 C16 1_555 1_555
C17 C16 1_555 1_555
C18 C17 1_555 1_555
H13 C18 1_555 1_555
C19 C14 1_555 1_555
H14 C19 1_555 1_555
C20 O2 1_555 1_555
H15 C20 1_555 1_555
H16 C20 1_555 1_555
H17 C20 1_555 1_555
C5 C6 1_555 1_555
C9 C10 1_555 1_555
C11 C12 1_555 1_555
C12 C13 1_555 1_555
C18 C19 1_555 1_555

#END
