
#######################################################################
#
#                 Cambridge Crystallographic Data Centre
#                                CCDC 
#
#######################################################################
#
# If this CIF has been generated from an entry in the Cambridge 
# Structural Database, then it will include bibliographic, chemical, 
# crystal, experimental, refinement or atomic coordinate data resulting 
# from the CCDC's data processing and validation procedures.
#
#######################################################################

data_BEPPES
_chemical_name_common            
N-Phenyl-1,2,9,9a-tetrahydropropa(c)benz(e)indol-4-one
_chemical_formula_moiety         'C19 H15 N1 O1'
_chemical_name_systematic        
(+-)-3-Phenyl-5-oxo-1,1a,2,5-tetrahydro-benzo[e]cyclopropa[c]indole
_chemical_properties_biological  'L1210 cytotoxic activity'
_symmetry_cell_setting           monoclinic
_symmetry_space_group_name_H-M   'P 21/c'
_symmetry_Int_Tables_number      14
_space_group_name_Hall           '-P 2ybc'
loop_
_symmetry_equiv_pos_site_id
_symmetry_equiv_pos_as_xyz
1 x,y,z
2 -x,1/2+y,1/2-z
3 -x,-y,-z
4 x,1/2-y,1/2+z
_cell_length_a                   7.847(3)
_cell_length_b                   8.320(3)
_cell_length_c                   21.196(7)
_cell_angle_alpha                90
_cell_angle_beta                 90.871(6)
_cell_angle_gamma                90
_cell_volume                     1383.66
_exptl_crystal_colour            'dull yellow or yellow'
_exptl_crystal_description       Needle
_chemical_melting_point          145-146deg.C(dec.)
_cell_formula_units_Z            4
_exptl_crystal_recrystallization_method dichloromethane/hexanes
loop_
_atom_site_label
_atom_site_type_symbol
_atom_site_fract_x
_atom_site_fract_y
_atom_site_fract_z
O1 O 0.8422(3) 0.3383(3) 0.57943(10)
N1 N 0.7206(3) 0.5239(3) 0.36841(11)
C1 C 0.8061(5) 0.9016(4) 0.53698(17)
H1 H 0.7830 0.9847 0.5088
C2 C 0.8613(5) 0.9372(4) 0.59776(19)
H2 H 0.8757 1.0435 0.6103
C3 C 0.8948(5) 0.8130(5) 0.63980(18)
H3 H 0.9332 0.8361 0.6805
C4 C 0.8715(4) 0.6565(4) 0.62159(16)
H4 H 0.8919 0.5745 0.6506
C5 C 0.8177(4) 0.6177(4) 0.56034(14)
C6 C 0.7849(4) 0.7428(4) 0.51740(15)
C7 C 0.7227(4) 0.7001(4) 0.45343(15)
C8 C 0.7338(4) 0.5311(4) 0.43406(14)
C9 C 0.7640(4) 0.4098(4) 0.47590(14)
H5 H 0.7579 0.3035 0.4626
C10 C 0.8056(4) 0.4461(4) 0.54090(14)
C11 C 0.5676(4) 0.7902(4) 0.42444(16)
H6 H 0.4787 0.7265 0.4043
H7 H 0.5279 0.8857 0.4460
C12 C 0.7369(4) 0.7984(4) 0.39293(16)
H8 H 0.8009 0.8995 0.3937
C13 C 0.7640(5) 0.6814(4) 0.34008(15)
H9 H 0.6898 0.7054 0.3043
H10 H 0.8814 0.6831 0.3264
C14 C 0.6955(4) 0.3837(4) 0.33116(14)
C15 C 0.7677(4) 0.3739(4) 0.27111(15)
H11 H 0.8345 0.4579 0.2564
C16 C 0.7398(5) 0.2394(5) 0.23347(16)
H12 H 0.7872 0.2343 0.1936
C17 C 0.6429(5) 0.1144(5) 0.25480(16)
H13 H 0.6270 0.0231 0.2301
C18 C 0.5682(5) 0.1251(4) 0.31397(16)
H14 H 0.5005 0.0412 0.3282
C19 C 0.5933(4) 0.2581(4) 0.35167(15)
H15 H 0.5419 0.2639 0.3908
loop_
_geom_bond_atom_site_label_1
_geom_bond_atom_site_label_2
_geom_bond_site_symmetry_1
_geom_bond_site_symmetry_2
O1 C10 1_555 1_555
N1 C8 1_555 1_555
C1 H1 1_555 1_555
C2 C1 1_555 1_555
H2 C2 1_555 1_555
C3 C2 1_555 1_555
H3 C3 1_555 1_555
C4 C3 1_555 1_555
H4 C4 1_555 1_555
C5 C4 1_555 1_555
C6 C1 1_555 1_555
C7 C6 1_555 1_555
C8 C7 1_555 1_555
C9 C8 1_555 1_555
H5 C9 1_555 1_555
C10 C5 1_555 1_555
C11 C7 1_555 1_555
H6 C11 1_555 1_555
H7 C11 1_555 1_555
C12 C7 1_555 1_555
H8 C12 1_555 1_555
C13 N1 1_555 1_555
H9 C13 1_555 1_555
H10 C13 1_555 1_555
C14 N1 1_555 1_555
C15 C14 1_555 1_555
H11 C15 1_555 1_555
C16 C15 1_555 1_555
H12 C16 1_555 1_555
C17 C16 1_555 1_555
H13 C17 1_555 1_555
C18 C17 1_555 1_555
H14 C18 1_555 1_555
C19 C14 1_555 1_555
H15 C19 1_555 1_555
C5 C6 1_555 1_555
C9 C10 1_555 1_555
C11 C12 1_555 1_555
C12 C13 1_555 1_555
C18 C19 1_555 1_555

#END
