
#######################################################################
#
#                 Cambridge Crystallographic Data Centre
#                                CCDC 
#
#######################################################################
#
# If this CIF has been generated from an entry in the Cambridge 
# Structural Database, then it will include bibliographic, chemical, 
# crystal, experimental, refinement or atomic coordinate data resulting 
# from the CCDC's data processing and validation procedures.
#
#######################################################################

data_BEPQAP
_chemical_name_common            
N-(4-Cyanophenyl)-1,2,9,9a-tetrahydropropa(c)benz(e)indol-4-one
_chemical_formula_moiety         'C20 H14 N2 O1'
_chemical_name_systematic        
(-)-4-(5-Oxo-1a,2-dihydro-1H-benzo[e]cyclopropa[c]indol-3(5H)-yl)benzonitrile
_chemical_properties_biological  'L1210 cytotoxic activity'
_symmetry_cell_setting           monoclinic
_symmetry_space_group_name_H-M   'P 21'
_symmetry_Int_Tables_number      4
_space_group_name_Hall           'P 2yb'
loop_
_symmetry_equiv_pos_site_id
_symmetry_equiv_pos_as_xyz
1 x,y,z
2 -x,1/2+y,-z
_cell_length_a                   8.029(3)
_cell_length_b                   7.318(3)
_cell_length_c                   12.379(5)
_cell_angle_alpha                90
_cell_angle_beta                 99.979(7)
_cell_angle_gamma                90
_cell_volume                     716.34
_exptl_crystal_colour            colorless
_exptl_crystal_description       Plate
_chemical_melting_point          '213-215 deg.C(dec.)'
_cell_formula_units_Z            2
_exptl_crystal_recrystallization_method 'methanol/ethyl acetate'
loop_
_atom_site_label
_atom_site_type_symbol
_atom_site_fract_x
_atom_site_fract_y
_atom_site_fract_z
O1 O 0.7235(6) 0.3559(7) 0.6156(4)
N1 N 0.3878(5) 0.4339(6) 0.2594(4)
C1 C 0.1246(6) 0.3864(9) 0.5773(4)
H1 H 0.0170 0.3903 0.5311
C2 C 0.1334(6) 0.3764(10) 0.6892(4)
H2 H 0.0326 0.3712 0.7196
C3 C 0.2858(6) 0.3742(11) 0.7558(5)
H3 H 0.2927 0.3705 0.8331
C4 C 0.4306(6) 0.3772(10) 0.7107(4)
H4 H 0.5371 0.3723 0.7581
C5 C 0.4270(6) 0.3868(9) 0.6020(4)
C6 C 0.2691(6) 0.3907(8) 0.5308(4)
C7 C 0.2652(6) 0.3897(9) 0.4122(4)
C8 C 0.4253(5) 0.4046(7) 0.3728(4)
C9 C 0.5758(6) 0.4008(10) 0.4387(4)
H5 H 0.6763 0.4104 0.4084
C10 C 0.5861(5) 0.3824(9) 0.5547(4)
C11 C 0.1414(8) 0.2514(11) 0.3444(7)
H6 H 0.1855 0.1735 0.2903
H7 H 0.0543 0.1934 0.3807
C12 C 0.1287(7) 0.4434(11) 0.3238(5)
H8 H 0.0295 0.5127 0.3414
C13 C 0.2100(7) 0.5018(10) 0.2267(5)
H9 H 0.1534 0.4438 0.1578
H10 H 0.2069 0.6362 0.2176
C14 C 0.5019(6) 0.4298(9) 0.1877(4)
C15 C 0.7282(7) 0.4361(11) 0.0435(4)
C16 C 0.4636(10) 0.5323(10) 0.0891(6)
H11 H 0.3598 0.5971 0.0721
C17 C 0.5781(8) 0.5367(10) 0.0188(6)
H12 H 0.5556 0.6076 -0.0464
C18 C 0.7644(9) 0.3482(11) 0.1350(6)
H13 H 0.8720 0.2911 0.1529
C19 C 0.6536(8) 0.3340(10) 0.2075(6)
H14 H 0.6804 0.2591 0.2708
C20 C 0.8521(11) 0.4611(14) -0.0271(8)
N2 N 0.9481(11) 0.4812(14) -0.0874(7)
O2? O 0.7270(19) 0.465(2) 0.6222(13)
C21? C 0.452(3) 0.290(3) 0.089(2)
H15? H 0.3577 0.2100 0.0842
C22? C 0.550(6) 0.292(5) 0.016(5)
H16? H 0.5272 0.2195 -0.0484
C23? C 0.761(3) 0.481(3) 0.141(2)
H17? H 0.8711 0.5274 0.1675
C24? C 0.642(3) 0.469(4) 0.220(2)
H18? H 0.6792 0.4935 0.2956
C25? C 0.848(3) 0.346(5) -0.025(2)
N3? N 0.961(2) 0.363(3) -0.0795(15)
loop_
_geom_bond_atom_site_label_1
_geom_bond_atom_site_label_2
_geom_bond_site_symmetry_1
_geom_bond_site_symmetry_2
O1 C10 1_555 1_555
N1 C8 1_555 1_555
C1 H1 1_555 1_555
C2 C1 1_555 1_555
H2 C2 1_555 1_555
C3 C2 1_555 1_555
H3 C3 1_555 1_555
C4 C3 1_555 1_555
H4 C4 1_555 1_555
C5 C4 1_555 1_555
C6 C1 1_555 1_555
C7 C6 1_555 1_555
C8 C7 1_555 1_555
C9 C8 1_555 1_555
H5 C9 1_555 1_555
C10 C5 1_555 1_555
C11 C7 1_555 1_555
H6 C11 1_555 1_555
H7 C11 1_555 1_555
C12 C7 1_555 1_555
H8 C12 1_555 1_555
C13 N1 1_555 1_555
H9 C13 1_555 1_555
H10 C13 1_555 1_555
C14 N1 1_555 1_555
C15 C17 1_555 1_555
C16 C14 1_555 1_555
H11 C16 1_555 1_555
C17 C16 1_555 1_555
H12 C17 1_555 1_555
C18 C15 1_555 1_555
H13 C18 1_555 1_555
C19 C14 1_555 1_555
H14 C19 1_555 1_555
C20 C15 1_555 1_555
N2 C20 1_555 1_555
C5 C6 1_555 1_555
C9 C10 1_555 1_555
C11 C12 1_555 1_555
C12 C13 1_555 1_555
C18 C19 1_555 1_555

#END
