
#######################################################################
#
#                 Cambridge Crystallographic Data Centre
#                                CCDC 
#
#######################################################################
#
# If this CIF has been generated from an entry in the Cambridge 
# Structural Database, then it will include bibliographic, chemical, 
# crystal, experimental, refinement or atomic coordinate data resulting 
# from the CCDC's data processing and validation procedures.
#
#######################################################################

data_BEPQET
_chemical_name_common            
N-(4-Nitrophenyl)-1,2,9,9a-tetrahydropropa(c)benz(e)indol-4-one
_chemical_formula_moiety         'C19 H14 N2 O3'
_chemical_name_systematic        
(+)-3-(4-Nitrophenyl)-5-oxo-1,1a,2,5-tetrahydro-benzo[e]cyclopropa[c]indole
_chemical_properties_biological  'L1210 cytotoxic activity'
_symmetry_cell_setting           monoclinic
_symmetry_space_group_name_H-M   'P 21'
_symmetry_Int_Tables_number      4
_space_group_name_Hall           'P 2yb'
loop_
_symmetry_equiv_pos_site_id
_symmetry_equiv_pos_as_xyz
1 x,y,z
2 -x,1/2+y,-z
_cell_length_a                   7.9520(13)
_cell_length_b                   7.4385(12)
_cell_length_c                   12.592(2)
_cell_angle_alpha                90
_cell_angle_beta                 95.913(3)
_cell_angle_gamma                90
_cell_volume                     740.866
_exptl_crystal_colour            colorless
_exptl_crystal_description       parallelepiped
_chemical_melting_point          159-160deg.C(dec.)
_cell_formula_units_Z            2
_exptl_crystal_recrystallization_method 'methanol/ethyl acetate'
loop_
_atom_site_label
_atom_site_type_symbol
_atom_site_fract_x
_atom_site_fract_y
_atom_site_fract_z
O1 O 0.72540(18) 0.9010(3) 0.60427(13)
O2 O 1.0041(4) 0.8842(6) -0.0222(2)
O3 O 0.8316(3) 0.7246(5) -0.12454(19)
N1 N 0.4022(2) 0.8131(3) 0.26490(16)
N2 N 0.8680(4) 0.8074(5) -0.0423(2)
C1 C 0.2727(3) 0.8717(4) 0.53467(18)
C2 C 0.1238(3) 0.8729(4) 0.5854(2)
H1 H 0.0197 0.8709 0.5443
C3 C 0.1292(3) 0.8768(4) 0.6942(2)
H2 H 0.0289 0.8756 0.7261
C4 C 0.2819(3) 0.8825(4) 0.7573(2)
H3 H 0.2848 0.8865 0.8313
C5 C 0.4303(3) 0.8822(4) 0.70905(19)
H4 H 0.5335 0.8845 0.7512
C6 C 0.4279(3) 0.8786(4) 0.59885(18)
C7 C 0.5900(3) 0.8818(4) 0.54850(18)
C8 C 0.5839(3) 0.8544(4) 0.43464(19)
H5 H 0.6838 0.8383 0.4034
C9 C 0.4346(3) 0.8521(3) 0.37333(19)
C10 C 0.2730(3) 0.8777(4) 0.41764(19)
C11 C 0.1506(4) 1.0058(4) 0.3537(2)
H6 H 0.0631 1.0619 0.3906
H7 H 0.1951 1.0803 0.2999
C12 C 0.1374(3) 0.8095(5) 0.3332(2)
H8 H 0.0405 0.7418 0.3544
C13 C 0.2271(3) 0.7469(4) 0.2400(2)
H9 H 0.2247 0.6168 0.2344
H10 H 0.1754 0.7980 0.1737
C14 C 0.5167(3) 0.8166(4) 0.1886(2)
C15 C 0.4820(4) 0.7207(4) 0.0929(2)
H11 H 0.3809 0.6576 0.0802
C16 C 0.5961(4) 0.7187(5) 0.0174(2)
H12 H 0.5724 0.6541 -0.0456
C17 C 0.7452(4) 0.8131(5) 0.0361(2)
C18 C 0.7797(3) 0.9154(4) 0.1268(2)
H13 H 0.8788 0.9824 0.1372
C19 C 0.6655(3) 0.9173(4) 0.20239(19)
H14 H 0.6882 0.9870 0.2635
loop_
_geom_bond_atom_site_label_1
_geom_bond_atom_site_label_2
_geom_bond_site_symmetry_1
_geom_bond_site_symmetry_2
O1 C7 1_555 1_555
O2 N2 1_555 1_555
O3 N2 1_555 1_555
N1 C9 1_555 1_555
N2 C17 1_555 1_555
C1 C2 1_555 1_555
C2 H1 1_555 1_555
C3 C2 1_555 1_555
H2 C3 1_555 1_555
C4 C3 1_555 1_555
H3 C4 1_555 1_555
C5 C4 1_555 1_555
H4 C5 1_555 1_555
C6 C1 1_555 1_555
C7 C6 1_555 1_555
C8 C7 1_555 1_555
H5 C8 1_555 1_555
C9 C8 1_555 1_555
C10 C1 1_555 1_555
C11 C10 1_555 1_555
H6 C11 1_555 1_555
H7 C11 1_555 1_555
C12 C10 1_555 1_555
H8 C12 1_555 1_555
C13 N1 1_555 1_555
H9 C13 1_555 1_555
H10 C13 1_555 1_555
C14 N1 1_555 1_555
C15 C14 1_555 1_555
H11 C15 1_555 1_555
C16 C15 1_555 1_555
H12 C16 1_555 1_555
C17 C16 1_555 1_555
C18 C17 1_555 1_555
H13 C18 1_555 1_555
C19 C14 1_555 1_555
H14 C19 1_555 1_555
C5 C6 1_555 1_555
C9 C10 1_555 1_555
C11 C12 1_555 1_555
C12 C13 1_555 1_555
C18 C19 1_555 1_555

#END
