
#######################################################################
#
#                 Cambridge Crystallographic Data Centre
#                                CCDC 
#
#######################################################################
#
# If this CIF has been generated from an entry in the Cambridge 
# Structural Database, then it will include bibliographic, chemical, 
# crystal, experimental, refinement or atomic coordinate data resulting 
# from the CCDC's data processing and validation procedures.
#
#######################################################################

data_BEPSEW
_chemical_formula_moiety         'C57 H44 N10 O5,2(C16 H36 N1 1+),2(Cl1 1-)'
_chemical_name_systematic        
'bis(tetra-n-butylammonium) dichloride 3-(1-anthryl)-3-(2-(((2-(((2-(((2-((1-anthrylcarbamoyl)amino)phenyl)carbamoyl)amino)phenyl)carbamoyl)amino)phenyl)cara'
_symmetry_cell_setting           monoclinic
_symmetry_space_group_name_H-M   'P 21/n'
_symmetry_Int_Tables_number      14
_space_group_name_Hall           '-P 2yn'
loop_
_symmetry_equiv_pos_site_id
_symmetry_equiv_pos_as_xyz
1 x,y,z
2 1/2-x,1/2+y,1/2-z
3 -x,-y,-z
4 1/2+x,1/2-y,1/2+z
_cell_length_a                   17.473(8)
_cell_length_b                   25.261(11)
_cell_length_c                   19.357(8)
_cell_angle_alpha                90
_cell_angle_beta                 96.588(6)
_cell_angle_gamma                90
_cell_volume                     8487.48
_exptl_crystal_colour            yellow
_exptl_crystal_description       block
_cell_formula_units_Z            4
loop_
_atom_site_label
_atom_site_type_symbol
_atom_site_fract_x
_atom_site_fract_y
_atom_site_fract_z
Cl1 Cl 0.46392(5) 0.78140(4) 0.90184(6)
Cl2 Cl 0.57376(5) 0.64682(4) 0.94681(4)
C1 C 0.45700(17) 0.71559(13) 1.07991(15)
C2 C 0.36937(17) 0.64038(13) 0.83596(15)
C3 C 0.44381(18) 0.62408(13) 0.73835(15)
C4 C 0.58438(17) 0.74938(13) 1.12437(15)
C5 C 0.6706(2) 0.81443(15) 0.98134(18)
C6 C 0.67863(19) 0.81886(14) 1.13859(18)
H1 H 0.7091 0.8441 1.1199
C7 C 0.79230(18) 0.64408(14) 0.93866(16)
H2 H 0.7435 0.6577 0.9250
C8 C 0.34063(17) 0.67988(13) 1.01024(16)
C9 C 0.81001(18) 0.59369(14) 0.91749(17)
C10 C 0.84569(19) 0.67503(15) 0.98005(16)
C11 C 0.31286(17) 0.67075(13) 0.94088(16)
C12 C 0.62966(17) 0.78683(13) 1.09491(15)
C13 C 0.7582(2) 0.56178(15) 0.87294(18)
C14 C 0.6368(2) 0.56808(15) 0.79506(18)
C15 C 0.6376(2) 0.77644(18) 1.23833(18)
H3 H 0.6404 0.7730 1.2864
C16 C 0.9199(2) 0.65426(18) 1.00445(19)
C17 C 0.50933(19) 0.59315(14) 0.73322(16)
C18 C 0.8854(2) 0.57305(17) 0.9401(2)
C19 C 0.9374(2) 0.60343(19) 0.9836(2)
H4 H 0.9854 0.5892 0.9991
C20 C 0.3994(3) 0.60677(17) 0.61857(18)
H5 H 0.3625 0.6110 0.5804
C21 C 0.6807(2) 0.83012(18) 0.8574(2)
C22 C 0.3890(3) 0.94612(16) 0.83713(18)
C23 C 0.3897(2) 0.63046(15) 0.68139(17)
H6 H 0.3462 0.6509 0.6852
C24 C 0.2889(2) 0.68091(16) 1.05994(19)
H7 H 0.3065 0.6880 1.1062
C25 C 0.6819(2) 0.81314(16) 1.20986(19)
H8 H 0.7148 0.8346 1.2388
C26 C 0.5887(2) 0.74446(16) 1.19582(17)
H9 H 0.5584 0.7195 1.2153
C27 C 0.5183(2) 0.56950(17) 0.66927(18)
H10 H 0.5613 0.5486 0.6646
C28 C 0.3181(3) 0.93143(16) 0.86364(18)
C29 C 0.2587(3) 0.97112(18) 0.8629(2)
C30 C 0.8283(3) 0.72732(17) 0.9989(2)
H11 H 0.7800 0.7414 0.9842
C31 C 0.6351(3) 0.85942(16) 0.8101(2)
C32 C 0.4635(3) 0.57725(17) 0.61332(18)
H12 H 0.4705 0.5619 0.5708
C33 C 0.3983(3) 0.99665(16) 0.8132(2)
H13 H 0.4444 1.0060 0.7966
C34 C 0.2357(2) 0.66128(18) 0.9232(2)
H14 H 0.2172 0.6548 0.8770
C35 C 0.3032(3) 0.88105(18) 0.88916(19)
H15 H 0.3412 0.8552 0.8900
C36 C 0.5174(3) 0.91220(19) 0.8163(2)
C37 C 0.2120(2) 0.6715(2) 1.0408(2)
H16 H 0.1777 0.6721 1.0742
C38 C 0.1857(2) 0.6613(2) 0.9727(2)
H17 H 0.1337 0.6543 0.9601
C39 C 0.7823(3) 0.51396(18) 0.8505(3)
H18 H 0.7491 0.4937 0.8201
C40 C 0.2330(3) 0.8683(2) 0.9135(2)
C41 C 0.8808(3) 0.7570(2) 1.0378(2)
H19 H 0.8687 0.7917 1.0486
C42 C 0.1743(3) 0.9078(2) 0.9128(2)
C43 C 0.3397(4) 1.03390(19) 0.8134(3)
H20 H 0.3476 1.0678 0.7971
C44 C 0.2174(3) 0.8174(2) 0.9395(3)
H21 H 0.2546 0.7910 0.9402
C45 C 0.2727(4) 1.02253(19) 0.8362(3)
H22 H 0.2345 1.0483 0.8349
C46 C 0.8566(3) 0.4950(2) 0.8727(4)
H23 H 0.8720 0.4625 0.8566
C47 C 0.1895(3) 0.9574(2) 0.8869(3)
H24 H 0.1510 0.9830 0.8856
C48 C 0.9057(3) 0.5231(2) 0.9166(3)
H25 H 0.9540 0.5092 0.9318
C49 C 0.0925(4) 0.8462(4) 0.9628(4)
H26 H 0.0461 0.8388 0.9801
C50 C 0.6664(4) 0.8805(2) 0.7545(3)
H27 H 0.6354 0.9005 0.7220
C51 C 0.7422(4) 0.8730(2) 0.7455(3)
H28 H 0.7623 0.8880 0.7076
C52 C 0.7874(3) 0.8439(3) 0.7918(3)
H29 H 0.8385 0.8376 0.7854
C53 C 0.7570(3) 0.8234(2) 0.8489(3)
H30 H 0.7888 0.8047 0.8822
C54 C 0.1048(4) 0.8943(3) 0.9376(3)
H31 H 0.0660 0.9196 0.9365
C55 C 0.1494(4) 0.8067(3) 0.9632(3)
H32 H 0.1400 0.7731 0.9799
N1 N 0.53493(13) 0.71603(11) 1.07996(12)
H33 H 0.5552 0.6952 1.0519
N2 N 0.42041(13) 0.68528(11) 1.02761(12)
H34 H 0.4494 0.6677 1.0028
N3 N 0.43265(14) 0.64929(11) 0.80194(12)
H35 H 0.4671 0.6711 0.8199
N4 N 0.62205(15) 0.79062(12) 1.02266(13)
H36 H 0.5816 0.7761 1.0012
N5 N 0.68263(15) 0.58041(12) 0.85434(14)
H37 H 0.6639 0.6014 0.8830
N6 N 0.56404(15) 0.58872(12) 0.79243(13)
H38 H 0.5503 0.6002 0.8310
N7 N 0.4457(2) 0.90700(13) 0.83604(16)
H39 H 0.4336 0.8760 0.8495
N8 N 0.36615(14) 0.67341(11) 0.89128(12)
H40 H 0.3999 0.6983 0.8965
N9 N 0.5570(2) 0.86585(15) 0.8193(2)
H41 H 0.5319 0.8377 0.8278
N10 N 0.64836(18) 0.80561(16) 0.91301(16)
H42 H 0.6116 0.7833 0.9026
O1 O 0.32143(13) 0.60653(9) 0.81832(11)
O2 O 0.42348(13) 0.73963(11) 1.12164(12)
O3 O 0.72845(15) 0.83854(11) 1.00291(13)
O4 O 0.65905(15) 0.54217(12) 0.74845(14)
O5 O 0.5456(2) 0.95356(14) 0.7987(2)
C56 C 0.9725(2) 0.6872(2) 1.0463(2)
H43 H 1.0210 0.6743 1.0627
C57 C 0.9528(3) 0.7366(3) 1.0622(3)
H44 H 0.9878 0.7575 1.0900
N11 N 0.30851(17) 0.44846(14) 0.87033(16)
C58 C 0.2386(2) 0.4833(2) 0.8542(2)
H45 H 0.2111 0.4723 0.8101
H46 H 0.2554 0.5195 0.8491
C59 C 0.2859(2) 0.39113(18) 0.8764(2)
H47 H 0.3324 0.3705 0.8878
H48 H 0.2554 0.3879 0.9151
C60 C 0.3571(2) 0.4558(2) 0.8118(2)
H49 H 0.3706 0.4930 0.8095
H50 H 0.3260 0.4470 0.7685
C61 C 0.3523(2) 0.46472(18) 0.9397(2)
H51 H 0.3182 0.4606 0.9754
H52 H 0.3949 0.4403 0.9504
C62 C 0.3841(3) 0.5208(2) 0.9440(3)
H53 H 0.3440 0.5454 0.9263
H54 H 0.4257 0.5236 0.9151
C63 C 0.2092(3) 0.3148(2) 0.8290(3)
H55 H 0.1798 0.3187 0.8682
H56 H 0.2518 0.2911 0.8431
C64 C 0.1591(3) 0.2898(2) 0.7709(3)
H57 H 0.1155 0.3122 0.7576
H58 H 0.1416 0.2561 0.7855
H59 H 0.1878 0.2851 0.7319
C65 C 0.2409(3) 0.3670(2) 0.8132(2)
H60 H 0.1991 0.3905 0.7962
H61 H 0.2743 0.3631 0.7768
C66 C 0.4303(3) 0.4237(2) 0.8164(3)
H62 H 0.4614 0.4308 0.8602
H63 H 0.4179 0.3863 0.8146
C67 C 0.4749(4) 0.4377(4) 0.7572(4)
H64 H 0.4403 0.4349 0.7145
H65 H 0.4901 0.4746 0.7625
C68 C 0.5410(4) 0.4081(4) 0.7489(4)
H66 H 0.5785 0.4131 0.7887
H67 H 0.5621 0.4195 0.7078
H68 H 0.5276 0.3712 0.7447
C69 C 0.3541(4) 0.5459(3) 1.0639(4)
H69 H 0.3213 0.5740 1.0445
H70 H 0.3772 0.5559 1.1094
H71 H 0.3240 0.5144 1.0672
C70 C 0.4143(3) 0.5360(2) 1.0192(3)
H72 H 0.4470 0.5076 1.0395
H73 H 0.4459 0.5675 1.0183
C71 C 0.0967(5) 0.4900(4) 0.8740(5)
H74 H 0.0867 0.4738 0.8284
H75 H 0.0585 0.4788 0.9035
C72 C 0.1046(5) 0.5451(5) 0.8711(7)
H76 H 0.1288 0.5579 0.9149
H77 H 0.0547 0.5611 0.8612
H78 H 0.1357 0.5542 0.8351
C73 C 0.1838(3) 0.4814(3) 0.9093(3)
H79 H 0.1973 0.5089 0.9436
H80 H 0.1881 0.4475 0.9328
N12 N 0.65565(19) 0.11712(14) 0.84538(16)
C74 C 0.6056(2) 0.12536(17) 0.9036(2)
H81 H 0.6383 0.1225 0.9474
H82 H 0.5860 0.1613 0.9002
C75 C 0.6098(3) 0.1220(2) 0.7739(2)
H83 H 0.6418 0.1095 0.7395
H84 H 0.5657 0.0985 0.7723
C76 C 0.7755(3) 0.1631(2) 0.8035(3)
H85 H 0.8083 0.1320 0.8073
H86 H 0.7483 0.1639 0.7569
C77 C 0.5069(3) 0.0934(2) 0.9756(2)
H87 H 0.5470 0.0820 1.0114
H88 H 0.4974 0.1306 0.9837
C78 C 0.4358(3) 0.0638(2) 0.9853(2)
H89 H 0.3928 0.0794 0.9572
H90 H 0.4271 0.0652 1.0334
H91 H 0.4413 0.0276 0.9717
C79 C 0.8832(4) 0.2192(2) 0.7673(4)
H92 H 0.9259 0.1960 0.7806
H93 H 0.9009 0.2552 0.7687
H94 H 0.8609 0.2107 0.7209
C80 C 0.6890(3) 0.06094(18) 0.8460(2)
C81 C 0.7177(3) 0.15967(18) 0.8564(2)
H95 H 0.6922 0.1937 0.8576
H96 H 0.7461 0.1541 0.9019
C82 C 0.5379(3) 0.08870(19) 0.9067(2)
H97 H 0.4978 0.0975 0.8697
H98 H 0.5539 0.0525 0.9000
C83 C 0.5812(3) 0.1764(2) 0.7530(3)
H99 H 0.5467 0.1886 0.7856
H100 H 0.6246 0.2006 0.7557
C84 C 0.5282(4) 0.2323(3) 0.6522(3)
H101 H 0.5072 0.2547 0.6854
H102 H 0.4931 0.2309 0.6103
H103 H 0.5766 0.2464 0.6420
C85 C 0.7376(4) 0.0462(2) 0.9125(3)
C86 C 0.5399(4) 0.1779(3) 0.6815(3)
H104 H 0.4900 0.1612 0.6819
H105 H 0.5689 0.1574 0.6511
C87 C 0.7584(5) -0.0139(3) 0.8960(4)
C88 C 0.8250(4) 0.2126(2) 0.8156(4)
H106 H 0.7914 0.2433 0.8119
H107 H 0.8508 0.2116 0.8627
C89 C 0.8180(7) -0.0345(3) 0.9497(5)
loop_
_geom_bond_atom_site_label_1
_geom_bond_atom_site_label_2
_geom_bond_site_symmetry_1
_geom_bond_site_symmetry_2
C1 N1 1_555 1_555
C2 N3 1_555 1_555
C3 C17 1_555 1_555
C4 C12 1_555 1_555
C5 N4 1_555 1_555
C6 H1 1_555 1_555
C7 H2 1_555 1_555
C8 C11 1_555 1_555
C9 C7 1_555 1_555
C10 C7 1_555 1_555
C11 C34 1_555 1_555
C12 C6 1_555 1_555
C13 C9 1_555 1_555
C14 N5 1_555 1_555
C15 H3 1_555 1_555
C16 C10 1_555 1_555
C17 C27 1_555 1_555
C18 C9 1_555 1_555
C19 C16 1_555 1_555
H4 C19 1_555 1_555
C20 H5 1_555 1_555
C21 C31 1_555 1_555
C22 C28 1_555 1_555
C23 C3 1_555 1_555
H6 C23 1_555 1_555
C24 C8 1_555 1_555
H7 C24 1_555 1_555
C25 C6 1_555 1_555
H8 C25 1_555 1_555
C26 C4 1_555 1_555
H9 C26 1_555 1_555
C27 H10 1_555 1_555
C28 C29 1_555 1_555
C29 C45 1_555 1_555
C30 C10 1_555 1_555
H11 C30 1_555 1_555
C31 C50 1_555 1_555
C32 C20 1_555 1_555
H12 C32 1_555 1_555
C33 C22 1_555 1_555
H13 C33 1_555 1_555
C34 H14 1_555 1_555
C35 C28 1_555 1_555
H15 C35 1_555 1_555
C36 N7 1_555 1_555
C37 C24 1_555 1_555
H16 C37 1_555 1_555
C38 C34 1_555 1_555
H17 C38 1_555 1_555
C39 C13 1_555 1_555
H18 C39 1_555 1_555
C40 C35 1_555 1_555
C41 C30 1_555 1_555
H19 C41 1_555 1_555
C42 C40 1_555 1_555
C43 C33 1_555 1_555
H20 C43 1_555 1_555
C44 C40 1_555 1_555
H21 C44 1_555 1_555
C45 C43 1_555 1_555
H22 C45 1_555 1_555
C46 C39 1_555 1_555
H23 C46 1_555 1_555
C47 C29 1_555 1_555
H24 C47 1_555 1_555
C48 C18 1_555 1_555
H25 C48 1_555 1_555
C49 H26 1_555 1_555
C50 H27 1_555 1_555
C51 C50 1_555 1_555
H28 C51 1_555 1_555
C52 C51 1_555 1_555
H29 C52 1_555 1_555
C53 C21 1_555 1_555
H30 C53 1_555 1_555
C54 C42 1_555 1_555
H31 C54 1_555 1_555
C55 C44 1_555 1_555
H32 C55 1_555 1_555
N1 C4 1_555 1_555
H33 N1 1_555 1_555
N2 C1 1_555 1_555
H34 N2 1_555 1_555
N3 C3 1_555 1_555
H35 N3 1_555 1_555
N4 C12 1_555 1_555
H36 N4 1_555 1_555
N5 C13 1_555 1_555
H37 N5 1_555 1_555
N6 C14 1_555 1_555
H38 N6 1_555 1_555
N7 C22 1_555 1_555
H39 N7 1_555 1_555
N8 C2 1_555 1_555
H40 N8 1_555 1_555
N9 C31 1_555 1_555
H41 N9 1_555 1_555
N10 C5 1_555 1_555
H42 N10 1_555 1_555
O1 C2 1_555 1_555
O2 C1 1_555 1_555
O3 C5 1_555 1_555
O4 C14 1_555 1_555
O5 C36 1_555 1_555
C56 C16 1_555 1_555
H43 C56 1_555 1_555
C57 C41 1_555 1_555
H44 C57 1_555 1_555
N11 C58 1_555 1_555
C58 H45 1_555 1_555
H46 C58 1_555 1_555
C59 N11 1_555 1_555
H47 C59 1_555 1_555
H48 C59 1_555 1_555
C60 N11 1_555 1_555
H49 C60 1_555 1_555
H50 C60 1_555 1_555
C61 N11 1_555 1_555
H51 C61 1_555 1_555
H52 C61 1_555 1_555
C62 C61 1_555 1_555
H53 C62 1_555 1_555
H54 C62 1_555 1_555
C63 H55 1_555 1_555
H56 C63 1_555 1_555
C64 C63 1_555 1_555
H57 C64 1_555 1_555
H58 C64 1_555 1_555
H59 C64 1_555 1_555
C65 C59 1_555 1_555
H60 C65 1_555 1_555
H61 C65 1_555 1_555
C66 C60 1_555 1_555
H62 C66 1_555 1_555
H63 C66 1_555 1_555
C67 C66 1_555 1_555
H64 C67 1_555 1_555
H65 C67 1_555 1_555
C68 C67 1_555 1_555
H66 C68 1_555 1_555
H67 C68 1_555 1_555
H68 C68 1_555 1_555
C69 H69 1_555 1_555
H70 C69 1_555 1_555
H71 C69 1_555 1_555
C70 C62 1_555 1_555
H72 C70 1_555 1_555
H73 C70 1_555 1_555
C71 H74 1_555 1_555
H75 C71 1_555 1_555
C72 C71 1_555 1_555
H76 C72 1_555 1_555
H77 C72 1_555 1_555
H78 C72 1_555 1_555
C73 C58 1_555 1_555
H79 C73 1_555 1_555
H80 C73 1_555 1_555
N12 C74 1_555 1_555
C74 H81 1_555 1_555
H82 C74 1_555 1_555
C75 N12 1_555 1_555
H83 C75 1_555 1_555
H84 C75 1_555 1_555
C76 H85 1_555 1_555
H86 C76 1_555 1_555
C77 H87 1_555 1_555
H88 C77 1_555 1_555
C78 C77 1_555 1_555
H89 C78 1_555 1_555
H90 C78 1_555 1_555
H91 C78 1_555 1_555
C79 H92 1_555 1_555
H93 C79 1_555 1_555
H94 C79 1_555 1_555
C80 N12 1_555 1_555
C81 N12 1_555 1_555
H95 C81 1_555 1_555
H96 C81 1_555 1_555
C82 C74 1_555 1_555
H97 C82 1_555 1_555
H98 C82 1_555 1_555
C83 C75 1_555 1_555
H99 C83 1_555 1_555
H100 C83 1_555 1_555
C84 H101 1_555 1_555
H102 C84 1_555 1_555
H103 C84 1_555 1_555
C85 C80 1_555 1_555
C86 C83 1_555 1_555
H104 C86 1_555 1_555
H105 C86 1_555 1_555
C87 C85 1_555 1_555
C88 C76 1_555 1_555
H106 C88 1_555 1_555
H107 C88 1_555 1_555
C89 C87 1_555 1_555
C8 N2 1_555 1_555
C11 N8 1_555 1_555
C15 C25 1_555 1_555
C15 C26 1_555 1_555
C17 N6 1_555 1_555
C18 C19 1_555 1_555
C20 C23 1_555 1_555
C21 N10 1_555 1_555
C27 C32 1_555 1_555
C36 N9 1_555 1_555
C37 C38 1_555 1_555
C42 C47 1_555 1_555
C46 C48 1_555 1_555
C49 C54 1_555 1_555
C49 C55 1_555 1_555
C52 C53 1_555 1_555
C56 C57 1_555 1_555
C63 C65 1_555 1_555
C69 C70 1_555 1_555
C71 C73 1_555 1_555
C76 C81 1_555 1_555
C77 C82 1_555 1_555
C79 C88 1_555 1_555
C84 C86 1_555 1_555

#END
