
#######################################################################
#
#                 Cambridge Crystallographic Data Centre
#                                CCDC 
#
#######################################################################
#
# If this CIF has been generated from an entry in the Cambridge 
# Structural Database, then it will include bibliographic, chemical, 
# crystal, experimental, refinement or atomic coordinate data resulting 
# from the CCDC's data processing and validation procedures.
#
#######################################################################

data_BEPSAS
_chemical_formula_moiety         
'C69 H68 K1 N10 O11 1+,C12 H26 Cl1 K1 O7,C3 H10 N1 1+,2(Cl1 1-)'
_chemical_name_systematic        
'(3-(1-Anthryl)-3-(2-(((2-(((2-(((2-((1-anthrylcarbamoyl)amino)phenyl)carbamoyl)amino)phenyl)carbamoyl)amino)phenyl)car-(18-crown-6)-potassium N-methylethanaminium dichloride (18-crown-6)-chloro-aqua-potassium'
_symmetry_cell_setting           monoclinic
_symmetry_space_group_name_H-M   'P 21/n'
_symmetry_Int_Tables_number      14
_space_group_name_Hall           '-P 2yn'
loop_
_symmetry_equiv_pos_site_id
_symmetry_equiv_pos_as_xyz
1 x,y,z
2 1/2-x,1/2+y,1/2-z
3 -x,-y,-z
4 1/2+x,1/2-y,1/2+z
_cell_length_a                   13.549(11)
_cell_length_b                   25.33(2)
_cell_length_c                   26.00(2)
_cell_angle_alpha                90
_cell_angle_beta                 92.683(14)
_cell_angle_gamma                90
_cell_volume                     8913.32
_exptl_crystal_colour            yellow
_exptl_crystal_description       block
_cell_formula_units_Z            4
loop_
_atom_site_label
_atom_site_type_symbol
_atom_site_fract_x
_atom_site_fract_y
_atom_site_fract_z
K1 K 0.13175(6) 0.10463(3) 0.18489(3)
Cl1 Cl 0.09152(6) 0.18797(3) 0.26836(3)
O1 O 0.2631(2) 0.06341(9) 0.26064(9)
O2 O 0.0652(2) 0.02170(10) 0.25066(9)
O3 O -0.0690(2) 0.07931(12) 0.18247(12)
O4 O 0.0061(2) 0.14543(13) 0.10278(12)
O5 O 0.2025(2) 0.18035(10) 0.11723(9)
O6 O 0.3413(2) 0.12173(10) 0.17864(9)
C1 C -0.1157(4) 0.0864(2) 0.1317(2)
H1 H -0.1864 0.0810 0.1329
H2 H -0.0897 0.0610 0.1079
C2 C -0.0944(4) 0.1425(3) 0.1138(3)
H3 H -0.1353 0.1509 0.0833
H4 H -0.1089 0.1676 0.1406
C3 C 0.0355(4) 0.19786(19) 0.08995(19)
H5 H 0.0308 0.2208 0.1196
H6 H -0.0075 0.2116 0.0622
C4 C 0.1406(3) 0.19596(19) 0.07346(16)
H7 H 0.1465 0.1708 0.0457
H8 H 0.1605 0.2304 0.0613
C5 C 0.3630(3) 0.17263(17) 0.15776(16)
H9 H 0.4332 0.1752 0.1524
H10 H 0.3460 0.1999 0.1820
C6 C 0.3968(3) 0.11133(17) 0.22618(15)
H11 H 0.3859 0.1394 0.2506
H12 H 0.4668 0.1100 0.2200
C7 C 0.3641(3) 0.05928(16) 0.24786(16)
H13 H 0.3714 0.0315 0.2227
H14 H 0.4047 0.0505 0.2784
C8 C 0.2310(3) 0.01754(15) 0.28818(14)
H15 H 0.2698 0.0139 0.3203
H16 H 0.2402 -0.0140 0.2677
C9 C 0.1248(3) 0.02394(16) 0.29881(14)
H17 H 0.1046 -0.0039 0.3217
H18 H 0.1147 0.0576 0.3156
C10 C -0.0366(4) 0.02776(18) 0.25866(17)
H19 H -0.0474 0.0599 0.2778
H20 H -0.0599 -0.0018 0.2785
C11 C -0.0933(3) 0.03019(18) 0.20646(18)
H21 H -0.0747 0.0008 0.1851
H22 H -0.1638 0.0282 0.2111
C12 C 0.3059(3) 0.18113(18) 0.10769(16)
H23 H 0.3236 0.2148 0.0930
H24 H 0.3212 0.1535 0.0835
O7 O 0.1524(9) 0.0178(3) 0.1115(3)
K2 K 0.51891(6) 0.25400(3) 0.44888(3)
O8 O -0.0359(3) 0.41072(11) 0.51120(11)
O9 O 0.1858(2) 0.42806(10) 0.30564(12)
O10 O 0.41594(19) 0.20709(10) 0.37451(9)
O11 O 0.0064(2) 0.05769(10) 0.40587(10)
O12 O -0.2603(2) 0.25810(13) 0.27963(11)
O13 O 0.4121(2) 0.18869(13) 0.51662(11)
O14 O 0.3344(2) 0.28790(14) 0.48955(12)
O15 O 0.4478(3) 0.35629(13) 0.42947(15)
O16 O 0.6541(3) 0.34031(15) 0.42762(12)
O17 O 0.7207(3) 0.23490(16) 0.44879(13)
O18 O 0.6170(3) 0.17013(13) 0.51655(12)
N1 N 0.0181(2) 0.32415(11) 0.50680(11)
H25 H 0.0152 0.2969 0.4870
N2 N -0.0233(2) 0.36943(11) 0.43229(11)
H26 H -0.0126 0.3392 0.4185
N3 N 0.0677(2) 0.37348(10) 0.33789(10)
H27 H 0.0510 0.3412 0.3429
N4 N 0.2161(2) 0.33832(11) 0.31484(10)
H28 H 0.1896 0.3093 0.3243
N5 N 0.3020(2) 0.23893(11) 0.31271(11)
H29 H 0.2439 0.2344 0.2986
N6 N 0.2729(2) 0.16059(11) 0.35451(11)
H30 H 0.2209 0.1596 0.3343
N7 N 0.1120(2) 0.12901(11) 0.40729(11)
H31 H 0.1143 0.1629 0.4068
N8 N -0.0519(2) 0.14067(11) 0.38220(11)
H32 H -0.0377 0.1737 0.3832
N9 N -0.1377(2) 0.19856(14) 0.30077(12)
H33 H -0.0751 0.1934 0.2999
N10 N -0.0982(2) 0.27604(13) 0.26082(12)
H34 H -0.0401 0.2623 0.2617
C13 C 0.0904(3) 0.35650(15) 0.59072(14)
H35 H 0.0842 0.3914 0.5798
C14 C 0.1340(3) 0.34559(16) 0.64051(15)
H36 H 0.1530 0.3735 0.6620
C15 C 0.1484(3) 0.29478(16) 0.65750(14)
H37 H 0.1797 0.2884 0.6895
C16 C 0.1146(3) 0.25109(14) 0.62542(13)
C17 C 0.1270(3) 0.19839(14) 0.64204(13)
H38 H 0.1595 0.1918 0.6737
C18 C 0.0917(3) 0.15532(14) 0.61204(13)
C19 C 0.1023(3) 0.10195(15) 0.62888(16)
H39 H 0.1343 0.0949 0.6606
C20 C 0.0666(3) 0.06107(15) 0.59955(17)
H40 H 0.0745 0.0266 0.6115
C21 C 0.0169(3) 0.07050(14) 0.55024(16)
H41 H -0.0062 0.0422 0.5304
C22 C 0.0032(3) 0.12178(14) 0.53223(14)
H42 H -0.0301 0.1277 0.5007
C23 C 0.0406(3) 0.16584(13) 0.56230(12)
C24 C 0.0294(3) 0.21828(12) 0.54502(12)
H43 H -0.0020 0.2248 0.5131
C25 C 0.0653(3) 0.26144(13) 0.57542(12)
C26 C 0.0573(3) 0.31636(13) 0.55820(13)
C27 C -0.0156(3) 0.37182(14) 0.48585(14)
C28 C -0.0471(3) 0.41204(12) 0.39801(13)
C29 C -0.1147(3) 0.45128(14) 0.41031(15)
H44 H -0.1469 0.4494 0.4411
C30 C -0.1340(3) 0.49324(14) 0.37642(16)
H45 H -0.1772 0.5199 0.3854
C31 C -0.0893(3) 0.49562(14) 0.32954(15)
H46 H -0.1037 0.5233 0.3070
C32 C -0.0222(3) 0.45612(13) 0.31615(14)
H47 H 0.0078 0.4577 0.2848
C33 C -0.0008(3) 0.41421(12) 0.35046(12)
C34 C 0.1587(3) 0.38317(14) 0.31828(12)
C35 C 0.3138(3) 0.33457(14) 0.29755(12)
C36 C 0.3691(3) 0.37795(15) 0.28076(14)
H48 H 0.3411 0.4115 0.2800
C37 C 0.4644(3) 0.37095(17) 0.26546(15)
H49 H 0.4996 0.4000 0.2544
C38 C 0.5091(3) 0.32158(17) 0.26619(15)
H50 H 0.5738 0.3176 0.2564
C39 C 0.4553(3) 0.27818(16) 0.28178(14)
H51 H 0.4842 0.2449 0.2818
C40 C 0.3584(3) 0.28359(14) 0.29755(12)
C41 C 0.3365(3) 0.20265(13) 0.34895(13)
C42 C 0.2858(3) 0.11874(13) 0.39067(13)
C43 C 0.3774(3) 0.09341(14) 0.39997(15)
H52 H 0.4331 0.1053 0.3838
C44 C 0.3846(3) 0.05002(15) 0.43374(17)
H53 H 0.4449 0.0330 0.4394
C45 C 0.3031(4) 0.03256(16) 0.45843(16)
H54 H 0.3088 0.0037 0.4805
C46 C 0.2121(4) 0.05758(15) 0.45073(15)
H55 H 0.1577 0.0458 0.4680
C47 C 0.2024(3) 0.10119(13) 0.41646(13)
C48 C 0.0211(3) 0.10528(13) 0.39907(13)
C49 C -0.1489(3) 0.12619(15) 0.36329(14)
C50 C -0.2008(3) 0.08358(16) 0.38390(16)
H56 H -0.1710 0.0628 0.4097
C51 C -0.2964(4) 0.0725(2) 0.36566(19)
H57 H -0.3306 0.0444 0.3795
C52 C -0.3416(4) 0.1032(2) 0.32688(19)
H58 H -0.4056 0.0954 0.3148
C53 C -0.2913(4) 0.1457(2) 0.30584(17)
H59 H -0.3224 0.1664 0.2804
C54 C -0.1937(3) 0.15729(17) 0.32316(14)
C55 C -0.1726(3) 0.24518(17) 0.28069(14)
C56 C -0.1065(3) 0.32747(16) 0.23928(15)
C57 C -0.1860(3) 0.36017(18) 0.24642(19)
H60 H -0.2374 0.3487 0.2661
C58 C -0.1899(4) 0.4119(2) 0.2237(2)
H61 H -0.2448 0.4331 0.2282
C59 C -0.1136(4) 0.43078(18) 0.19515(19)
H62 H -0.1181 0.4642 0.1804
C60 C -0.0291(4) 0.39950(15) 0.18842(15)
C61 C 0.0533(4) 0.41884(16) 0.16262(15)
H63 H 0.0504 0.4528 0.1489
C62 C 0.1392(4) 0.38886(15) 0.15688(13)
C63 C 0.2259(4) 0.40818(18) 0.13177(14)
H64 H 0.2250 0.4420 0.1178
C64 C 0.3097(4) 0.3773(2) 0.12823(16)
H65 H 0.3648 0.3907 0.1127
C65 C 0.3114(3) 0.32512(18) 0.14842(15)
H66 H 0.3679 0.3045 0.1460
C66 C 0.2305(3) 0.30487(16) 0.17141(14)
H67 H 0.2326 0.2704 0.1838
C67 C 0.1423(3) 0.33603(14) 0.17671(12)
C68 C 0.0604(3) 0.31588(14) 0.20220(13)
H68 H 0.0626 0.2814 0.2144
C69 C -0.0241(3) 0.34639(14) 0.20957(13)
C70 C 0.2733(4) 0.2425(2) 0.49287(18)
H69 H 0.2673 0.2249 0.4598
H70 H 0.2077 0.2528 0.5026
C71 C 0.3208(4) 0.2050(2) 0.53377(18)
H71 H 0.3298 0.2232 0.5665
H72 H 0.2785 0.1747 0.5384
C72 C 0.4591(4) 0.1506(2) 0.55065(18)
H73 H 0.4137 0.1221 0.5575
H74 H 0.4794 0.1671 0.5831
C73 C 0.5493(4) 0.1292(2) 0.52406(19)
H75 H 0.5806 0.1017 0.5451
H76 H 0.5286 0.1139 0.4911
C74 C 0.6989(4) 0.1518(2) 0.4898(2)
H77 H 0.6760 0.1363 0.4573
H78 H 0.7333 0.1246 0.5100
C75 C 0.7705(4) 0.1978(3) 0.4798(2)
H79 H 0.7927 0.2138 0.5122
H80 H 0.8278 0.1847 0.4628
C76 C 0.7849(4) 0.2772(3) 0.4345(2)
H81 H 0.8398 0.2629 0.4162
H82 H 0.8116 0.2948 0.4652
C77 C 0.7290(4) 0.3164(3) 0.4006(2)
H83 H 0.7740 0.3432 0.3891
H84 H 0.7003 0.2986 0.3705
C78 C 0.6054(6) 0.3803(3) 0.3978(3)
H85 H 0.5855 0.3666 0.3641
H86 H 0.6498 0.4098 0.3933
C79 C 0.5141(6) 0.3987(2) 0.4259(3)
H87 H 0.5339 0.4112 0.4601
H88 H 0.4822 0.4276 0.4071
C80 C 0.3585(4) 0.3718(2) 0.4492(3)
H89 H 0.3274 0.3984 0.4270
H90 H 0.3703 0.3871 0.4831
C81 C 0.2902(4) 0.3236(2) 0.4525(3)
H91 H 0.2256 0.3345 0.4631
H92 H 0.2823 0.3065 0.4192
Cl2 Cl 0.06072(6) 0.25720(3) 0.39555(3)
N11 N 0.1932(6) 0.0258(5) 0.0182(4)
C82 C 0.2546(4) 0.00643(18) 0.0559(3)
C83 C 0.3439(6) -0.0153(5) 0.0521(6)
C84 C 0.1847(16) -0.0145(8) -0.0270(6)
loop_
_geom_bond_atom_site_label_1
_geom_bond_atom_site_label_2
_geom_bond_site_symmetry_1
_geom_bond_site_symmetry_2
K1 Cl1 1_555 1_555
O1 K1 1_555 1_555
O2 K1 1_555 1_555
O3 K1 1_555 1_555
O4 K1 1_555 1_555
O5 K1 1_555 1_555
O6 K1 1_555 1_555
C1 O3 1_555 1_555
H1 C1 1_555 1_555
H2 C1 1_555 1_555
C2 O4 1_555 1_555
H3 C2 1_555 1_555
H4 C2 1_555 1_555
C3 O4 1_555 1_555
H5 C3 1_555 1_555
H6 C3 1_555 1_555
C4 O5 1_555 1_555
H7 C4 1_555 1_555
H8 C4 1_555 1_555
C5 O6 1_555 1_555
H9 C5 1_555 1_555
H10 C5 1_555 1_555
C6 O6 1_555 1_555
H11 C6 1_555 1_555
H12 C6 1_555 1_555
C7 O1 1_555 1_555
H13 C7 1_555 1_555
H14 C7 1_555 1_555
C8 O1 1_555 1_555
H15 C8 1_555 1_555
H16 C8 1_555 1_555
C9 O2 1_555 1_555
H17 C9 1_555 1_555
H18 C9 1_555 1_555
C10 O2 1_555 1_555
H19 C10 1_555 1_555
H20 C10 1_555 1_555
C11 O3 1_555 1_555
H21 C11 1_555 1_555
H22 C11 1_555 1_555
C12 O5 1_555 1_555
H23 C12 1_555 1_555
H24 C12 1_555 1_555
O7 K1 1_555 1_555
K2 O10 1_555 1_555
O8 C27 1_555 1_555
O9 C34 1_555 1_555
O10 C41 1_555 1_555
O11 C48 1_555 1_555
O12 C55 1_555 1_555
O13 K2 1_555 1_555
O14 K2 1_555 1_555
O15 K2 1_555 1_555
O16 K2 1_555 1_555
O17 K2 1_555 1_555
O18 K2 1_555 1_555
N1 H25 1_555 1_555
N2 H26 1_555 1_555
N3 H27 1_555 1_555
N4 H28 1_555 1_555
N5 H29 1_555 1_555
N6 H30 1_555 1_555
N7 H31 1_555 1_555
N8 H32 1_555 1_555
N9 H33 1_555 1_555
N10 H34 1_555 1_555
C13 H35 1_555 1_555
C14 C13 1_555 1_555
H36 C14 1_555 1_555
C15 C14 1_555 1_555
H37 C15 1_555 1_555
C16 C15 1_555 1_555
C17 C16 1_555 1_555
H38 C17 1_555 1_555
C18 C17 1_555 1_555
C19 C18 1_555 1_555
H39 C19 1_555 1_555
C20 C19 1_555 1_555
H40 C20 1_555 1_555
C21 C20 1_555 1_555
H41 C21 1_555 1_555
C22 C21 1_555 1_555
H42 C22 1_555 1_555
C23 C18 1_555 1_555
C24 C23 1_555 1_555
H43 C24 1_555 1_555
C25 C16 1_555 1_555
C26 N1 1_555 1_555
C27 N1 1_555 1_555
C28 N2 1_555 1_555
C29 C28 1_555 1_555
H44 C29 1_555 1_555
C30 C29 1_555 1_555
H45 C30 1_555 1_555
C31 C30 1_555 1_555
H46 C31 1_555 1_555
C32 C31 1_555 1_555
H47 C32 1_555 1_555
C33 N3 1_555 1_555
C34 N3 1_555 1_555
C35 N4 1_555 1_555
C36 C35 1_555 1_555
H48 C36 1_555 1_555
C37 C36 1_555 1_555
H49 C37 1_555 1_555
C38 C37 1_555 1_555
H50 C38 1_555 1_555
C39 C38 1_555 1_555
H51 C39 1_555 1_555
C40 N5 1_555 1_555
C41 N5 1_555 1_555
C42 N6 1_555 1_555
C43 C42 1_555 1_555
H52 C43 1_555 1_555
C44 C43 1_555 1_555
H53 C44 1_555 1_555
C45 C44 1_555 1_555
H54 C45 1_555 1_555
C46 C45 1_555 1_555
H55 C46 1_555 1_555
C47 N7 1_555 1_555
C48 N7 1_555 1_555
C49 N8 1_555 1_555
C50 C49 1_555 1_555
H56 C50 1_555 1_555
C51 C50 1_555 1_555
H57 C51 1_555 1_555
C52 C51 1_555 1_555
H58 C52 1_555 1_555
C53 C52 1_555 1_555
H59 C53 1_555 1_555
C54 N9 1_555 1_555
C55 N9 1_555 1_555
C56 N10 1_555 1_555
C57 C56 1_555 1_555
H60 C57 1_555 1_555
C58 C57 1_555 1_555
H61 C58 1_555 1_555
C59 C58 1_555 1_555
H62 C59 1_555 1_555
C60 C59 1_555 1_555
C61 C60 1_555 1_555
H63 C61 1_555 1_555
C62 C61 1_555 1_555
C63 C62 1_555 1_555
H64 C63 1_555 1_555
C64 C63 1_555 1_555
H65 C64 1_555 1_555
C65 C64 1_555 1_555
H66 C65 1_555 1_555
C66 C65 1_555 1_555
H67 C66 1_555 1_555
C67 C62 1_555 1_555
C68 C67 1_555 1_555
H68 C68 1_555 1_555
C69 C56 1_555 1_555
C70 O14 1_555 1_555
H69 C70 1_555 1_555
H70 C70 1_555 1_555
C71 O13 1_555 1_555
H71 C71 1_555 1_555
H72 C71 1_555 1_555
C72 O13 1_555 1_555
H73 C72 1_555 1_555
H74 C72 1_555 1_555
C73 O18 1_555 1_555
H75 C73 1_555 1_555
H76 C73 1_555 1_555
C74 O18 1_555 1_555
H77 C74 1_555 1_555
H78 C74 1_555 1_555
C75 O17 1_555 1_555
H79 C75 1_555 1_555
H80 C75 1_555 1_555
C76 O17 1_555 1_555
H81 C76 1_555 1_555
H82 C76 1_555 1_555
C77 O16 1_555 1_555
H83 C77 1_555 1_555
H84 C77 1_555 1_555
C78 O16 1_555 1_555
H85 C78 1_555 1_555
H86 C78 1_555 1_555
C79 O15 1_555 1_555
H87 C79 1_555 1_555
H88 C79 1_555 1_555
C80 O15 1_555 1_555
H89 C80 1_555 1_555
H90 C80 1_555 1_555
C81 O14 1_555 1_555
H91 C81 1_555 1_555
H92 C81 1_555 1_555
N11 C82 1_555 1_555
C82 C83 1_555 1_555
C84 N11 1_555 1_555
C1 C2 1_555 1_555
C3 C4 1_555 1_555
C5 C12 1_555 1_555
C6 C7 1_555 1_555
C8 C9 1_555 1_555
C10 C11 1_555 1_555
N2 C27 1_555 1_555
N4 C34 1_555 1_555
N6 C41 1_555 1_555
N8 C48 1_555 1_555
N10 C55 1_555 1_555
C13 C26 1_555 1_555
C22 C23 1_555 1_555
C24 C25 1_555 1_555
C25 C26 1_555 1_555
C28 C33 1_555 1_555
C32 C33 1_555 1_555
C35 C40 1_555 1_555
C39 C40 1_555 1_555
C42 C47 1_555 1_555
C46 C47 1_555 1_555
C49 C54 1_555 1_555
C53 C54 1_555 1_555
C60 C69 1_555 1_555
C66 C67 1_555 1_555
C68 C69 1_555 1_555
C70 C71 1_555 1_555
C72 C73 1_555 1_555
C74 C75 1_555 1_555
C76 C77 1_555 1_555
C78 C79 1_555 1_555
C80 C81 1_555 1_555

#END
