
#######################################################################
#
#                 Cambridge Crystallographic Data Centre
#                                CCDC 
#
#######################################################################
#
# If this CIF has been generated from an entry in the Cambridge 
# Structural Database, then it will include bibliographic, chemical, 
# crystal, experimental, refinement or atomic coordinate data resulting 
# from the CCDC's data processing and validation procedures.
#
#######################################################################

data_BEPWUR
_chemical_formula_moiety         'C18 H19 N5 O4 S2'
_chemical_name_systematic        
5-({1-[(4-methylphenyl)sulfonyl]pyrrolidin-3-yl}sulfonyl)-1-phenyl-1H-tetrazole
_symmetry_cell_setting           monoclinic
_symmetry_space_group_name_H-M   'P 21'
_symmetry_Int_Tables_number      4
_space_group_name_Hall           'P 2yb'
loop_
_symmetry_equiv_pos_site_id
_symmetry_equiv_pos_as_xyz
1 x,y,z
2 -x,1/2+y,-z
_cell_length_a                   11.2275(9)
_cell_length_b                   6.1899(5)
_cell_length_c                   14.2105(13)
_cell_angle_alpha                90
_cell_angle_beta                 102.680(2)
_cell_angle_gamma                90
_cell_volume                     963.502
_exptl_crystal_colour            colorless
_exptl_crystal_description       block
_cell_formula_units_Z            2
loop_
_atom_site_label
_atom_site_type_symbol
_atom_site_fract_x
_atom_site_fract_y
_atom_site_fract_z
S1 S 0.16748(4) 0.34362(8) 0.30905(3)
S2 S 0.20086(4) 0.65583(8) 0.00179(3)
O1 O 0.19343(15) 0.1183(3) 0.30239(11)
O2 O 0.19353(13) 0.8832(3) -0.01818(11)
O3 O 0.26699(13) 0.4946(3) 0.32684(11)
O4 O 0.16601(14) 0.5039(3) -0.07557(11)
N1 N 0.14441(14) 0.3808(3) 0.49874(12)
N2 N -0.02973(15) 0.3767(3) 0.39492(12)
N3 N 0.05570(16) 0.3929(3) 0.54965(13)
N4 N 0.11175(15) 0.6126(3) 0.07682(12)
N5 N -0.04738(16) 0.3902(3) 0.48708(13)
C1 C 0.35043(18) 0.5937(4) 0.06361(14)
C2 C 0.58525(19) 0.4961(4) 0.16574(15)
C3 C 0.39520(19) 0.3851(4) 0.05955(14)
H1 H 0.346444 0.276873 0.022190
C4 C 0.42084(19) 0.7538(4) 0.11766(15)
H2 H 0.389178 0.895480 0.120325
C5 C 0.27286(17) 0.3834(3) 0.54483(13)
C6 C 0.3208(2) 0.5711(4) 0.59138(15)
H3 H 0.270295 0.692607 0.594937
C7 C 0.34259(19) 0.2027(4) 0.53832(14)
H4 H 0.306864 0.076313 0.506059
C8 C 0.05414(18) 0.4252(3) 0.20634(14)
H5 H -0.022105 0.338416 0.201357
C9 C 0.4455(2) 0.5761(4) 0.63285(15)
H6 H 0.481175 0.702537 0.665163
C10 C 0.51241(19) 0.3377(4) 0.11103(15)
H7 H 0.543555 0.195428 0.109028
C11 C 0.08905(17) 0.3710(3) 0.40468(14)
C12 C 0.51762(19) 0.3962(4) 0.62689(15)
H8 H 0.602548 0.400820 0.655026
C13 C 0.4671(2) 0.2109(4) 0.58049(15)
H9 H 0.517271 0.088714 0.577271
C14 C 0.53811(19) 0.7035(4) 0.16767(15)
H10 H 0.587187 0.812848 0.203940
C15 C 0.10793(18) 0.3912(3) 0.11568(14)
H11 H 0.190736 0.327518 0.133250
H12 H 0.054845 0.295922 0.068293
C16 C 0.7130(2) 0.4458(4) 0.22037(17)
H13 H 0.727147 0.289659 0.219013
H14 H 0.723288 0.493813 0.287378
H15 H 0.771844 0.521087 0.190250
C17 C 0.02640(19) 0.6678(4) 0.20963(16)
H16 H -0.059779 0.698260 0.178395
H17 H 0.042580 0.720680 0.276998
C18 C 0.11282(19) 0.7730(4) 0.15408(15)
H18 H 0.081730 0.915023 0.127359
H19 H 0.195703 0.791283 0.195070
loop_
_geom_bond_atom_site_label_1
_geom_bond_atom_site_label_2
_geom_bond_site_symmetry_1
_geom_bond_site_symmetry_2
S1 O1 1_555 1_555
S2 O2 1_555 1_555
O3 S1 1_555 1_555
O4 S2 1_555 1_555
N1 N3 1_555 1_555
N2 N5 1_555 1_555
N3 N5 1_555 1_555
N4 S2 1_555 1_555
C1 S2 1_555 1_555
C2 C10 1_555 1_555
C3 C1 1_555 1_555
H1 C3 1_555 1_555
C4 C1 1_555 1_555
H2 C4 1_555 1_555
C5 N1 1_555 1_555
C6 C5 1_555 1_555
H3 C6 1_555 1_555
C7 C5 1_555 1_555
H4 C7 1_555 1_555
C8 S1 1_555 1_555
H5 C8 1_555 1_555
C9 C6 1_555 1_555
H6 C9 1_555 1_555
C10 C3 1_555 1_555
H7 C10 1_555 1_555
C11 S1 1_555 1_555
C12 C9 1_555 1_555
H8 C12 1_555 1_555
C13 C7 1_555 1_555
H9 C13 1_555 1_555
C14 C2 1_555 1_555
H10 C14 1_555 1_555
C15 N4 1_555 1_555
H11 C15 1_555 1_555
H12 C15 1_555 1_555
C16 C2 1_555 1_555
H13 C16 1_555 1_555
H14 C16 1_555 1_555
H15 C16 1_555 1_555
C17 C8 1_555 1_555
H16 C17 1_555 1_555
H17 C17 1_555 1_555
C18 N4 1_555 1_555
H18 C18 1_555 1_555
H19 C18 1_555 1_555
N1 C11 1_555 1_555
N2 C11 1_555 1_555
C4 C14 1_555 1_555
C8 C15 1_555 1_555
C12 C13 1_555 1_555
C17 C18 1_555 1_555

#END
