
#######################################################################
#
#                 Cambridge Crystallographic Data Centre
#                                CCDC 
#
#######################################################################
#
# If this CIF has been generated from an entry in the Cambridge 
# Structural Database, then it will include bibliographic, chemical, 
# crystal, experimental, refinement or atomic coordinate data resulting 
# from the CCDC's data processing and validation procedures.
#
#######################################################################

data_BEPXUS
_chemical_formula_moiety         'C9 H7 F1 N4 O2 S1'
_chemical_name_systematic        
5-[(1-fluoroethenyl)sulfonyl]-1-phenyl-1H-tetrazole
_symmetry_cell_setting           monoclinic
_symmetry_space_group_name_H-M   'P 21/c'
_symmetry_Int_Tables_number      14
_space_group_name_Hall           '-P 2ybc'
loop_
_symmetry_equiv_pos_site_id
_symmetry_equiv_pos_as_xyz
1 x,y,z
2 -x,1/2+y,1/2-z
3 -x,-y,-z
4 x,1/2-y,1/2+z
_cell_length_a                   10.8516(15)
_cell_length_b                   6.1729(7)
_cell_length_c                   15.847(2)
_cell_angle_alpha                90
_cell_angle_beta                 95.940(6)
_cell_angle_gamma                90
_cell_volume                     1055.83
_exptl_crystal_colour            colorless
_exptl_crystal_description       plate
_cell_formula_units_Z            4
loop_
_atom_site_label
_atom_site_type_symbol
_atom_site_fract_x
_atom_site_fract_y
_atom_site_fract_z
S1 S 0.71951(5) 0.49170(9) 0.42687(3)
F1 F 0.75173(13) 0.0815(2) 0.40618(8)
O1 O 0.84329(14) 0.5183(3) 0.40652(10)
O2 O 0.66831(15) 0.6250(3) 0.48759(10)
N1 N 0.49903(17) 0.5375(3) 0.33240(12)
N2 N 0.45308(17) 0.5518(3) 0.24987(12)
N3 N 0.54094(16) 0.5412(3) 0.20023(12)
N4 N 0.64828(15) 0.5178(3) 0.25083(11)
C1 C 0.7988(2) 0.6623(4) 0.16304(13)
H1 H 0.7538 0.7945 0.1587
C2 C 0.9026(2) 0.6325(4) 0.12007(14)
H2 H 0.9295 0.7454 0.0856
C3 C 0.9673(2) 0.4385(4) 0.12733(14)
H3 H 1.0381 0.4190 0.0975
C4 C 0.9294(2) 0.2725(4) 0.17780(14)
H4 H 0.9745 0.1404 0.1828
C5 C 0.82576(19) 0.2997(4) 0.22083(13)
H5 H 0.7986 0.1874 0.2555
C6 C 0.76306(18) 0.4940(3) 0.21216(13)
C7 C 0.61956(19) 0.5170(3) 0.33125(13)
C8 C 0.6956(2) 0.2206(4) 0.45557(14)
C9 C 0.6313(2) 0.1620(4) 0.51651(14)
H6 H 0.593(2) 0.272(4) 0.5496(15)
H7 H 0.621(2) 0.010(5) 0.5278(16)
loop_
_geom_bond_atom_site_label_1
_geom_bond_atom_site_label_2
_geom_bond_site_symmetry_1
_geom_bond_site_symmetry_2
S1 O1 1_555 1_555
F1 C8 1_555 1_555
O2 S1 1_555 1_555
N1 N2 1_555 1_555
N2 N3 1_555 1_555
N3 N4 1_555 1_555
N4 C6 1_555 1_555
C1 H1 1_555 1_555
C2 C1 1_555 1_555
H2 C2 1_555 1_555
C3 C2 1_555 1_555
H3 C3 1_555 1_555
C4 C3 1_555 1_555
H4 C4 1_555 1_555
C5 C4 1_555 1_555
H5 C5 1_555 1_555
C6 C1 1_555 1_555
C7 S1 1_555 1_555
C8 S1 1_555 1_555
C9 C8 1_555 1_555
H6 C9 1_555 1_555
H7 C9 1_555 1_555
N1 C7 1_555 1_555
N4 C7 1_555 1_555
C5 C6 1_555 1_555

#END
