
#######################################################################
#
#                 Cambridge Crystallographic Data Centre
#                                CCDC 
#
#######################################################################
#
# If this CIF has been generated from an entry in the Cambridge 
# Structural Database, then it will include bibliographic, chemical, 
# crystal, experimental, refinement or atomic coordinate data resulting 
# from the CCDC's data processing and validation procedures.
#
#######################################################################

data_BEPXOM
_chemical_formula_moiety         'C9 H8 F2 N4 O2 S1'
_chemical_name_systematic        
5-[(1,1-difluoroethyl)sulfonyl]-1-phenyl-1H-tetrazole
_symmetry_cell_setting           monoclinic
_symmetry_space_group_name_H-M   'C 2/c'
_symmetry_Int_Tables_number      15
_space_group_name_Hall           '-C 2yn'
loop_
_symmetry_equiv_pos_site_id
_symmetry_equiv_pos_as_xyz
1 x,y,z
2 -x,y,1/2-z
3 1/2+x,1/2+y,z
4 1/2-x,1/2+y,1/2-z
5 -x,-y,-z
6 x,-y,1/2+z
7 1/2-x,1/2-y,-z
8 1/2+x,1/2-y,1/2+z
_cell_length_a                   25.323(2)
_cell_length_b                   5.4549(6)
_cell_length_c                   17.8038(15)
_cell_angle_alpha                90
_cell_angle_beta                 114.423(2)
_cell_angle_gamma                90
_cell_volume                     2239.25
_exptl_crystal_colour            colorless
_exptl_crystal_description       block
_cell_formula_units_Z            8
loop_
_atom_site_label
_atom_site_type_symbol
_atom_site_fract_x
_atom_site_fract_y
_atom_site_fract_z
S1 S 0.58600(2) 0.49773(10) 0.41670(3)
F1 F 0.53033(5) 0.8048(3) 0.46679(8)
F2 F 0.52049(5) 0.8618(3) 0.34100(8)
O1 O 0.59350(6) 0.3442(3) 0.48535(8)
O2 O 0.58135(6) 0.3980(3) 0.34030(9)
N1 N 0.65967(7) 0.8283(3) 0.39678(10)
N2 N 0.70147(7) 0.9892(4) 0.44397(11)
N3 N 0.70922(7) 0.9780(3) 0.52102(10)
N4 N 0.67200(6) 0.8073(3) 0.52548(10)
C1 C 0.46774(9) 0.5343(5) 0.36395(14)
H1 H 0.462979 0.457224 0.311817
H2 H 0.433964 0.637535 0.354886
H3 H 0.471162 0.407059 0.404557
C2 C 0.52111(8) 0.6881(4) 0.39524(12)
C3 C 0.64246(8) 0.7190(4) 0.44875(12)
C4 C 0.67087(8) 0.7507(4) 0.60456(11)
C5 C 0.64592(8) 0.9195(4) 0.63791(12)
H4 H 0.627842 1.063276 0.608372
C6 C 0.64800(8) 0.8730(4) 0.71596(12)
H5 H 0.631472 0.986580 0.740566
C7 C 0.67416(8) 0.6613(4) 0.75779(12)
H6 H 0.675807 0.631099 0.811263
C8 C 0.69795(8) 0.4933(4) 0.72220(12)
H7 H 0.715170 0.347298 0.751023
C9 C 0.69677(8) 0.5369(4) 0.64464(12)
H8 H 0.713240 0.423394 0.619918
loop_
_geom_bond_atom_site_label_1
_geom_bond_atom_site_label_2
_geom_bond_site_symmetry_1
_geom_bond_site_symmetry_2
S1 O1 1_555 1_555
F1 C2 1_555 1_555
F2 C2 1_555 1_555
O2 S1 1_555 1_555
N1 N2 1_555 1_555
N2 N3 1_555 1_555
N3 N4 1_555 1_555
N4 C3 1_555 1_555
C1 H1 1_555 1_555
H2 C1 1_555 1_555
H3 C1 1_555 1_555
C2 S1 1_555 1_555
C3 S1 1_555 1_555
C4 N4 1_555 1_555
C5 C4 1_555 1_555
H4 C5 1_555 1_555
C6 C5 1_555 1_555
H5 C6 1_555 1_555
C7 C6 1_555 1_555
H6 C7 1_555 1_555
C8 C7 1_555 1_555
H7 C8 1_555 1_555
C9 C4 1_555 1_555
H8 C9 1_555 1_555
N1 C3 1_555 1_555
C1 C2 1_555 1_555
C8 C9 1_555 1_555

#END
