
#######################################################################
#
#                 Cambridge Crystallographic Data Centre
#                                CCDC 
#
#######################################################################
#
# If this CIF has been generated from an entry in the Cambridge 
# Structural Database, then it will include bibliographic, chemical, 
# crystal, experimental, refinement or atomic coordinate data resulting 
# from the CCDC's data processing and validation procedures.
#
#######################################################################

data_BEQCEH
_chemical_formula_moiety         'C23 H18 N2 O4'
_chemical_name_systematic        
"Ethyl 9,11-dioxo-10-phenyl-5,9,10,11-tetrahydro-6H-pyrrolo[3',4':3,4]pyrrolo[2,1-a]isoquinoline-8-carboxylate"
_symmetry_cell_setting           monoclinic
_symmetry_space_group_name_H-M   'P 21/c'
_symmetry_Int_Tables_number      14
_space_group_name_Hall           '-P 2ybc'
loop_
_symmetry_equiv_pos_site_id
_symmetry_equiv_pos_as_xyz
1 x,y,z
2 -x,1/2+y,1/2-z
3 -x,-y,-z
4 x,1/2-y,1/2+z
_cell_length_a                   7.313(2)
_cell_length_b                   24.203(7)
_cell_length_c                   10.898(3)
_cell_angle_alpha                90
_cell_angle_beta                 106.903(4)
_cell_angle_gamma                90
_cell_volume                     1845.58
_exptl_crystal_colour            white
_exptl_crystal_description       block
_cell_formula_units_Z            4
loop_
_atom_site_label
_atom_site_type_symbol
_atom_site_fract_x
_atom_site_fract_y
_atom_site_fract_z
N1 N 0.21629(16) 0.07064(5) 0.93916(11)
N2 N 0.29498(17) -0.09322(5) 0.81901(10)
C1 C 0.22321(19) 0.05654(6) 0.81841(12)
C2 C 0.20116(19) 0.09825(6) 0.71899(14)
C3 C 0.1672(2) 0.08359(6) 0.59070(14)
H1 H 0.1608 0.0465 0.5679
C4 C 0.1431(3) 0.12359(7) 0.49720(16)
H2 H 0.1210 0.1136 0.4117
C5 C 0.1519(3) 0.17847(7) 0.53201(18)
H3 H 0.1339 0.2057 0.4693
C6 C 0.1872(2) 0.19352(7) 0.65880(18)
H4 H 0.1944 0.2308 0.6806
C7 C 0.2122(2) 0.15395(6) 0.75453(15)
C8 C 0.2547(2) 0.16804(6) 0.89427(16)
H5 H 0.2047 0.2046 0.9021
H6 H 0.3921 0.1692 0.9324
C9 C 0.1705(2) 0.12749(6) 0.96802(16)
H7 H 0.2219 0.1344 1.0593
H8 H 0.0329 0.1322 0.9447
C10 C 0.24944(18) -0.00013(5) 0.82024(12)
C11 C 0.25855(18) -0.01981(6) 0.94190(12)
C12 C 0.23600(18) 0.02420(6) 1.01638(13)
C13 C 0.28755(19) -0.08007(6) 0.94440(12)
C14 C 0.2707(2) -0.04580(6) 0.73843(13)
C15 C 0.2337(2) 0.02508(6) 1.15112(13)
C16 C 0.2851(3) -0.03397(8) 1.33333(14)
H9 H 0.1698 -0.0214 1.3516
H10 H 0.3935 -0.0142 1.3885
C17 C 0.3099(3) -0.09500(8) 1.35460(16)
H11 H 0.3197 -0.1034 1.4424
H12 H 0.4241 -0.1068 1.3357
H13 H 0.2017 -0.1139 1.2994
C18 C 0.3102(2) -0.14821(6) 0.77494(13)
C19 C 0.4220(2) -0.15835(6) 0.69435(15)
H14 H 0.4917 -0.1299 0.6721
C20 C 0.4291(3) -0.21109(7) 0.64727(18)
H15 H 0.5002 -0.2177 0.5905
C21 C 0.3323(3) -0.25393(7) 0.68335(19)
H16 H 0.3388 -0.2894 0.6520
C22 C 0.2262(3) -0.24379(7) 0.76606(19)
H17 H 0.1634 -0.2728 0.7925
C23 C 0.2113(2) -0.19108(6) 0.81057(16)
H18 H 0.1353 -0.1844 0.8642
O1 O 0.30395(17) -0.11351(4) 1.02866(10)
O2 O 0.26778(18) -0.04688(4) 0.62723(9)
O3 O 0.1992(2) 0.06470(5) 1.20752(11)
O4 O 0.27200(19) -0.02467(5) 1.19976(10)
loop_
_geom_bond_atom_site_label_1
_geom_bond_atom_site_label_2
_geom_bond_site_symmetry_1
_geom_bond_site_symmetry_2
N1 C1 1_555 1_555
N2 C13 1_555 1_555
C1 C2 1_555 1_555
C2 C3 1_555 1_555
C3 H1 1_555 1_555
C4 C3 1_555 1_555
H2 C4 1_555 1_555
C5 C4 1_555 1_555
H3 C5 1_555 1_555
C6 C5 1_555 1_555
H4 C6 1_555 1_555
C7 C2 1_555 1_555
C8 C7 1_555 1_555
H5 C8 1_555 1_555
H6 C8 1_555 1_555
C9 N1 1_555 1_555
H7 C9 1_555 1_555
H8 C9 1_555 1_555
C10 C1 1_555 1_555
C11 C10 1_555 1_555
C12 N1 1_555 1_555
C13 C11 1_555 1_555
C14 N2 1_555 1_555
C15 C12 1_555 1_555
C16 H9 1_555 1_555
H10 C16 1_555 1_555
C17 C16 1_555 1_555
H11 C17 1_555 1_555
H12 C17 1_555 1_555
H13 C17 1_555 1_555
C18 N2 1_555 1_555
C19 C18 1_555 1_555
H14 C19 1_555 1_555
C20 C19 1_555 1_555
H15 C20 1_555 1_555
C21 C20 1_555 1_555
H16 C21 1_555 1_555
C22 C21 1_555 1_555
H17 C22 1_555 1_555
C23 C18 1_555 1_555
H18 C23 1_555 1_555
O1 C13 1_555 1_555
O2 C14 1_555 1_555
O3 C15 1_555 1_555
O4 C15 1_555 1_555
C6 C7 1_555 1_555
C8 C9 1_555 1_555
C10 C14 1_555 1_555
C11 C12 1_555 1_555
C16 O4 1_555 1_555
C22 C23 1_555 1_555

#END
