
#######################################################################
#
#                 Cambridge Crystallographic Data Centre
#                                CCDC 
#
#######################################################################
#
# If this CIF has been generated from an entry in the Cambridge 
# Structural Database, then it will include bibliographic, chemical, 
# crystal, experimental, refinement or atomic coordinate data resulting 
# from the CCDC's data processing and validation procedures.
#
#######################################################################

data_BEQCAD
_chemical_formula_moiety         'C23 H15 Br1 N2 O4'
_chemical_name_systematic        
"Ethyl 10-(4-bromophenyl)-9,11-dioxo-10,11-dihydro-9H-pyrrolo[3',4':3,4]pyrrolo[2,1-a]isoquinoline-8-carboxylate"
_symmetry_cell_setting           monoclinic
_symmetry_space_group_name_H-M   'P 21/c'
_symmetry_Int_Tables_number      14
_space_group_name_Hall           '-P 2ybc'
loop_
_symmetry_equiv_pos_site_id
_symmetry_equiv_pos_as_xyz
1 x,y,z
2 -x,1/2+y,1/2-z
3 -x,-y,-z
4 x,1/2-y,1/2+z
_cell_length_a                   7.854(3)
_cell_length_b                   20.136(8)
_cell_length_c                   12.952(5)
_cell_angle_alpha                90
_cell_angle_beta                 106.591(7)
_cell_angle_gamma                90
_cell_volume                     1963.06
_exptl_crystal_colour            white
_exptl_crystal_description       BLOCK
_cell_formula_units_Z            4
loop_
_atom_site_label
_atom_site_type_symbol
_atom_site_fract_x
_atom_site_fract_y
_atom_site_fract_z
C1 C 0.1773(4) 1.30796(13) -0.0592(2)
C2 C 0.2456(4) 1.28337(13) 0.0428(2)
H1 H 0.2753 1.3120 0.1017
C3 C 0.2701(4) 1.21569(13) 0.0576(2)
H2 H 0.3180 1.1986 0.1265
C4 C 0.2233(3) 1.17317(11) -0.0301(2)
C5 C 0.1555(3) 1.19905(12) -0.1327(2)
H3 H 0.1250 1.1707 -0.1919
C6 C 0.1330(4) 1.26699(13) -0.1475(2)
H4 H 0.0883 1.2846 -0.2163
C7 C 0.2889(3) 1.05918(11) -0.08804(19)
C8 C 0.2754(3) 0.99302(11) -0.04387(18)
C9 C 0.2287(3) 0.99938(11) 0.05135(18)
C10 C 0.1987(3) 1.06920(12) 0.07037(19)
C11 C 0.2282(3) 0.93648(11) 0.09563(18)
C12 C 0.2020(3) 0.91254(11) 0.19568(19)
C13 C 0.1158(3) 0.95134(12) 0.25487(19)
H5 H 0.0742 0.9935 0.2308
C14 C 0.0931(4) 0.92682(15) 0.3486(2)
H6 H 0.0337 0.9521 0.3875
C15 C 0.1577(4) 0.86479(15) 0.3858(2)
H7 H 0.1425 0.8488 0.4500
C16 C 0.2443(4) 0.82667(14) 0.3288(2)
H8 H 0.2885 0.7852 0.3549
C17 C 0.2663(3) 0.84967(12) 0.2320(2)
C18 C 0.3580(4) 0.80902(13) 0.1664(2)
H9 H 0.4513 0.7800 0.1958
C19 C 0.2805(4) 0.82100(12) 0.0472(2)
H10 H 0.2444 0.7880 -0.0047
C20 C 0.2980(3) 0.92623(11) -0.06144(18)
C21 C 0.3303(3) 0.89298(12) -0.1544(2)
C22 C 0.4063(5) 0.91266(18) -0.3150(2)
H11 H 0.3088 0.8841 -0.3525
H12 H 0.5161 0.8876 -0.3008
C23 C 0.4145(5) 0.9719(2) -0.3807(3)
H13 H 0.4329 0.9583 -0.4477
H14 H 0.5110 0.9998 -0.3424
H15 H 0.3049 0.9961 -0.3946
N1 N 0.2415(3) 1.10337(9) -0.01505(16)
N2 N 0.2707(3) 0.89293(9) 0.02551(16)
O1 O 0.1464(3) 1.09551(9) 0.13877(15)
O2 O 0.3332(2) 1.07690(9) -0.16495(15)
O3 O 0.3800(3) 0.93614(10) -0.21553(15)
O4 O 0.3143(4) 0.83432(10) -0.17320(17)
Br1 Br 0.14133(6) 1.400515(14) -0.08008(3)
loop_
_geom_bond_atom_site_label_1
_geom_bond_atom_site_label_2
_geom_bond_site_symmetry_1
_geom_bond_site_symmetry_2
C1 C2 1_555 1_555
C2 H1 1_555 1_555
C3 C2 1_555 1_555
H2 C3 1_555 1_555
C4 C3 1_555 1_555
C5 C4 1_555 1_555
H3 C5 1_555 1_555
C6 C1 1_555 1_555
H4 C6 1_555 1_555
C7 C8 1_555 1_555
C8 C9 1_555 1_555
C9 C10 1_555 1_555
C10 N1 1_555 1_555
C11 C9 1_555 1_555
C12 C11 1_555 1_555
C13 C12 1_555 1_555
H5 C13 1_555 1_555
C14 C13 1_555 1_555
H6 C14 1_555 1_555
C15 C14 1_555 1_555
H7 C15 1_555 1_555
C16 C15 1_555 1_555
H8 C16 1_555 1_555
C17 C12 1_555 1_555
C18 C17 1_555 1_555
H9 C18 1_555 1_555
C19 C18 1_555 1_555
H10 C19 1_555 1_555
C20 C8 1_555 1_555
C21 C20 1_555 1_555
C22 H11 1_555 1_555
H12 C22 1_555 1_555
C23 C22 1_555 1_555
H13 C23 1_555 1_555
H14 C23 1_555 1_555
H15 C23 1_555 1_555
N1 C4 1_555 1_555
N2 C11 1_555 1_555
O1 C10 1_555 1_555
O2 C7 1_555 1_555
O3 C21 1_555 1_555
O4 C21 1_555 1_555
Br1 C1 1_555 1_555
C5 C6 1_555 1_555
C7 N1 1_555 1_555
C16 C17 1_555 1_555
C19 N2 1_555 1_555
C20 N2 1_555 1_555
C22 O3 1_555 1_555

#END
