
#######################################################################
#
#                 Cambridge Crystallographic Data Centre
#                                CCDC 
#
#######################################################################
#
# If this CIF has been generated from an entry in the Cambridge 
# Structural Database, then it will include bibliographic, chemical, 
# crystal, experimental, refinement or atomic coordinate data resulting 
# from the CCDC's data processing and validation procedures.
#
#######################################################################

data_BEQFAG
_chemical_formula_moiety         'C19 H20 Cl1 N1 O5'
_chemical_name_systematic        
'Ethyl 2-((4-chlorophenyl)amino)-3-hydroxy-4-(4-methoxyphenyl)-4-oxobutanoate'
_symmetry_cell_setting           orthorhombic
_symmetry_space_group_name_H-M   'P 21 21 21'
_symmetry_Int_Tables_number      19
_space_group_name_Hall           'P 2ac 2ab'
loop_
_symmetry_equiv_pos_site_id
_symmetry_equiv_pos_as_xyz
1 x,y,z
2 1/2-x,-y,1/2+z
3 -x,1/2+y,1/2-z
4 1/2+x,1/2-y,-z
_cell_length_a                   5.5633(2)
_cell_length_b                   18.1464(5)
_cell_length_c                   18.1598(5)
_cell_angle_alpha                90
_cell_angle_beta                 90
_cell_angle_gamma                90
_cell_volume                     1833.3
_exptl_crystal_colour            colorless
_exptl_crystal_description       block
_cell_formula_units_Z            4
loop_
_atom_site_label
_atom_site_type_symbol
_atom_site_fract_x
_atom_site_fract_y
_atom_site_fract_z
Cl1 Cl 0.84119(16) 0.68651(4) 0.38452(3)
O1 O 0.5020(3) 0.92231(8) 0.86553(9)
O2 O 1.3350(3) 0.68773(8) 0.88955(7)
O3 O 1.4951(2) 0.63358(7) 0.76695(8)
H1 H 1.4820 0.5899 0.7778
O4 O 0.9095(2) 0.57242(7) 0.85670(6)
O5 O 1.1755(3) 0.49493(7) 0.80825(9)
N1 N 1.1298(3) 0.57108(8) 0.67540(7)
H2 H 1.2040 0.5295 0.6760
C1 C 0.7081(5) 0.55965(15) 0.97047(13)
H3 H 0.6966 0.5316 1.0152
H4 H 0.5564 0.5586 0.9453
H5 H 0.7496 0.6097 0.9820
C2 C 0.8939(4) 0.52764(12) 0.92313(11)
H6 H 1.0473 0.5274 0.9485
H7 H 0.8525 0.4773 0.9105
C3 C 1.0610(3) 0.55022(8) 0.80525(9)
C4 C 1.0748(3) 0.60707(8) 0.74391(8)
H8 H 0.9179 0.6312 0.7394
C5 C 1.2654(3) 0.66609(9) 0.76400(9)
H9 H 1.2664 0.7034 0.7250
C6 C 1.2107(3) 0.70448(9) 0.83676(9)
C7 C 1.0165(3) 0.75922(8) 0.84118(9)
C8 C 0.8932(3) 0.78492(9) 0.77992(9)
H10 H 0.9294 0.7654 0.7339
C9 C 0.7184(3) 0.83858(9) 0.78543(10)
H11 H 0.6379 0.8548 0.7436
C10 C 0.6639(3) 0.86797(10) 0.85341(11)
C11 C 0.7817(4) 0.84149(12) 0.91607(11)
H12 H 0.7423 0.8603 0.9622
C12 C 0.9539(4) 0.78837(11) 0.91006(10)
H13 H 1.0308 0.7713 0.9522
C13 C 0.3422(4) 0.94143(11) 0.80655(14)
H14 H 0.2373 0.9804 0.8222
H15 H 0.2482 0.8991 0.7931
H16 H 0.4340 0.9576 0.7648
C14 C 1.0652(3) 0.60215(9) 0.60820(9)
C15 C 1.2021(4) 0.58790(11) 0.54582(10)
H17 H 1.3424 0.5604 0.5504
C16 C 1.1355(4) 0.61337(12) 0.47766(10)
H18 H 1.2289 0.6030 0.4365
C17 C 0.9292(4) 0.65431(10) 0.47101(10)
C18 C 0.7898(4) 0.66970(11) 0.53111(10)
H19 H 0.6507 0.6976 0.5259
C19 C 0.8561(3) 0.64379(11) 0.59926(10)
H20 H 0.7604 0.6541 0.6400
loop_
_geom_bond_atom_site_label_1
_geom_bond_atom_site_label_2
_geom_bond_site_symmetry_1
_geom_bond_site_symmetry_2
Cl1 C17 1_555 1_555
O1 C10 1_555 1_555
O2 C6 1_555 1_555
O3 H1 1_555 1_555
O4 C2 1_555 1_555
O5 C3 1_555 1_555
N1 H2 1_555 1_555
C1 H3 1_555 1_555
H4 C1 1_555 1_555
H5 C1 1_555 1_555
C2 C1 1_555 1_555
H6 C2 1_555 1_555
H7 C2 1_555 1_555
C3 O4 1_555 1_555
C4 N1 1_555 1_555
H8 C4 1_555 1_555
C5 O3 1_555 1_555
H9 C5 1_555 1_555
C6 C5 1_555 1_555
C7 C6 1_555 1_555
C8 C7 1_555 1_555
H10 C8 1_555 1_555
C9 C8 1_555 1_555
H11 C9 1_555 1_555
C10 C9 1_555 1_555
C11 C10 1_555 1_555
H12 C11 1_555 1_555
C12 C7 1_555 1_555
H13 C12 1_555 1_555
C13 O1 1_555 1_555
H14 C13 1_555 1_555
H15 C13 1_555 1_555
H16 C13 1_555 1_555
C14 N1 1_555 1_555
C15 C14 1_555 1_555
H17 C15 1_555 1_555
C16 C15 1_555 1_555
H18 C16 1_555 1_555
C17 C16 1_555 1_555
C18 C17 1_555 1_555
H19 C18 1_555 1_555
C19 C14 1_555 1_555
H20 C19 1_555 1_555
C3 C4 1_555 1_555
C4 C5 1_555 1_555
C11 C12 1_555 1_555
C18 C19 1_555 1_555

#END
