
#######################################################################
#
#                 Cambridge Crystallographic Data Centre
#                                CCDC 
#
#######################################################################
#
# If this CIF has been generated from an entry in the Cambridge 
# Structural Database, then it will include bibliographic, chemical, 
# crystal, experimental, refinement or atomic coordinate data resulting 
# from the CCDC's data processing and validation procedures.
#
#######################################################################

data_BEQMOB
_chemical_formula_moiety         
'2(C28 H32 O7 S2),C32 H12 B1 F24 1-,C22 H32 N1 1+,C1 H2 Cl2'
_chemical_name_systematic        
'N-(4-t-Butylbenzyl)(4-t-butylphenyl)methanaminium tetrakis(3,5-bis(trifluoromethyl)phenyl)borate 17,20,23-trioxa-3,10-dithiatetracyclo[23.2.2.25,8.212,15]tritriaconta-1(27),5,7,12,14,25,28,30,32-nonaene 3,3,10,10-tetraoxide dichloromethane solvate'
_symmetry_cell_setting           triclinic
_symmetry_space_group_name_H-M   'P -1'
_symmetry_Int_Tables_number      2
_space_group_name_Hall           '-P 1'
loop_
_symmetry_equiv_pos_site_id
_symmetry_equiv_pos_as_xyz
1 x,y,z
2 -x,-y,-z
_cell_length_a                   14.4985(3)
_cell_length_b                   17.7566(3)
_cell_length_c                   24.1925(5)
_cell_angle_alpha                84.976(2)
_cell_angle_beta                 75.337(2)
_cell_angle_gamma                82.686(2)
_cell_volume                     5966.4
_exptl_crystal_colour            colorless
_exptl_crystal_description       columnar
_cell_formula_units_Z            2
loop_
_atom_site_label
_atom_site_type_symbol
_atom_site_fract_x
_atom_site_fract_y
_atom_site_fract_z
S1 S 0.28160(7) 0.16060(5) 0.02913(5)
S2 S 0.72730(7) 0.14695(5) -0.04594(4)
O1 O 0.3465(2) 0.12045(17) 0.06046(14)
O2 O 0.2867(2) 0.24079(17) 0.01717(17)
O3 O 0.7387(2) 0.07210(17) -0.01911(13)
O4 O 0.8051(2) 0.19297(19) -0.05492(15)
O5 O 0.1905(2) 0.25566(19) 0.30533(15)
O6 O 0.3555(2) 0.28931(18) 0.33602(14)
O7 O 0.5290(2) 0.28769(19) 0.25314(13)
C1 C 0.1122(5) 0.2185(5) 0.3016(3)
H1 H 0.0517 0.2518 0.3149
H2 H 0.1095 0.1712 0.3265
C2 C 0.1944(4) 0.2619(3) 0.3626(2)
H3 H 0.2165 0.2116 0.3786
H4 H 0.1295 0.2784 0.3859
C3 C 0.2612(4) 0.3180(3) 0.3654(2)
H5 H 0.2419 0.3677 0.3473
H6 H 0.2592 0.3253 0.4058
C4 C 0.4255(4) 0.3378(3) 0.3381(2)
H7 H 0.4211 0.3483 0.3783
H8 H 0.4146 0.3867 0.3165
C5 C 0.5219(3) 0.2982(3) 0.3121(2)
H9 H 0.5725 0.3289 0.3153
H10 H 0.5312 0.2482 0.3327
C6 C 0.6222(3) 0.2562(4) 0.2263(2)
H11 H 0.6390 0.2078 0.2469
H12 H 0.6693 0.2917 0.2270
C7 C 0.6254(3) 0.2421(3) 0.1651(2)
C8 C 0.6186(3) 0.3014(3) 0.1248(2)
H13 H 0.6132 0.3524 0.1354
C9 C 0.6196(3) 0.2876(3) 0.0690(2)
H14 H 0.6156 0.3288 0.0416
C10 C 0.6266(3) 0.2130(2) 0.05352(18)
C11 C 0.6345(3) 0.1536(3) 0.0938(2)
H15 H 0.6399 0.1026 0.0835
C12 C 0.6343(3) 0.1683(3) 0.1489(2)
H16 H 0.6405 0.1271 0.1760
C13 C 0.6193(3) 0.1982(2) -0.00570(18)
H17 H 0.6065 0.2473 -0.0266
H18 H 0.5646 0.1685 -0.0024
C14 C 0.7026(3) 0.1369(2) -0.11432(18)
H19 H 0.7171 0.1831 -0.1395
H20 H 0.7440 0.0929 -0.1330
C15 C 0.5997(3) 0.1254(2) -0.10617(17)
C16 C 0.5337(3) 0.1864(2) -0.11597(18)
H21 H 0.5558 0.2317 -0.1359
C17 C 0.4363(3) 0.1812(2) -0.09681(19)
H22 H 0.3921 0.2229 -0.1038
C18 C 0.4025(3) 0.1156(2) -0.06741(18)
C19 C 0.4685(4) 0.0530(2) -0.06154(19)
H23 H 0.4461 0.0066 -0.0439
C20 C 0.5659(3) 0.0571(2) -0.08090(18)
H24 H 0.6099 0.0137 -0.0771
C21 C 0.2992(3) 0.1158(3) -0.0371(2)
H25 H 0.2818 0.0631 -0.0295
H26 H 0.2584 0.1443 -0.0608
C22 C 0.1615(3) 0.1447(3) 0.0662(2)
H27 H 0.1153 0.1767 0.0478
H28 H 0.1521 0.0907 0.0649
C23 C 0.1450(3) 0.1649(3) 0.1276(2)
C24 C 0.1615(4) 0.1089(3) 0.1691(2)
H29 H 0.1804 0.0579 0.1587
C25 C 0.1510(4) 0.1261(4) 0.2251(3)
H30 H 0.1631 0.0871 0.2527
C26 C 0.1228(4) 0.1999(4) 0.2409(3)
C27 C 0.1051(4) 0.2555(4) 0.1999(3)
H31 H 0.0849 0.3063 0.2107
C28 C 0.1162(3) 0.2385(3) 0.1432(3)
H32 H 0.1039 0.2774 0.1156
N1 N 0.3627(3) 0.2655(2) 0.21210(15)
H33 H 0.411(4) 0.272(3) 0.227(2)
H34 H 0.315(4) 0.263(3) 0.243(3)
C29 C 0.3835(3) 0.1934(2) 0.18181(19)
H35 H 0.4428 0.1961 0.1509
H36 H 0.3305 0.1893 0.1636
C30 C 0.3955(3) 0.1228(2) 0.21942(19)
C31 C 0.4095(5) 0.0553(3) 0.1940(2)
H37 H 0.4137 0.0551 0.1542
C32 C 0.4176(5) -0.0126(3) 0.2254(2)
H38 H 0.4284 -0.0586 0.2063
C33 C 0.4106(4) -0.0165(3) 0.2837(2)
C34 C 0.3998(4) 0.0527(3) 0.3077(2)
H39 H 0.3970 0.0534 0.3473
C35 C 0.3931(4) 0.1212(3) 0.2762(2)
H40 H 0.3866 0.1676 0.2944
C36 C 0.4152(5) -0.0920(3) 0.3194(3)
C37 C 0.4238(10) -0.1601(5) 0.2851(5)
H41 H 0.3646 -0.1607 0.2728
H42 H 0.4346 -0.2065 0.3087
H43 H 0.4779 -0.1575 0.2515
C38 C 0.3434(10) -0.0915(6) 0.3707(5)
H44 H 0.3035 -0.1326 0.3719
H45 H 0.3033 -0.0425 0.3729
H46 H 0.3731 -0.0992 0.4032
C39 C 0.5119(9) -0.1040(6) 0.3340(5)
H47 H 0.5171 -0.1520 0.3569
H48 H 0.5182 -0.0619 0.3559
H49 H 0.5631 -0.1060 0.2986
C40 C 0.3490(3) 0.3318(3) 0.1708(2)
H50 H 0.4090 0.3340 0.1404
H51 H 0.2979 0.3228 0.1524
C41 C 0.3229(3) 0.4070(2) 0.19729(19)
C42 C 0.3881(4) 0.4570(3) 0.1910(3)
H52 H 0.4531 0.4423 0.1723
C43 C 0.3622(4) 0.5293(3) 0.2113(3)
H53 H 0.4102 0.5627 0.2067
C44 C 0.2688(3) 0.5538(3) 0.2379(2)
C45 C 0.2039(4) 0.5023(3) 0.2450(3)
H54 H 0.1390 0.5164 0.2642
C46 C 0.2301(4) 0.4305(3) 0.2251(3)
H55 H 0.1828 0.3963 0.2307
C47 C 0.2383(4) 0.6346(3) 0.2571(3)
C48 C 0.2932(8) 0.6901(4) 0.2177(4)
H56 H 0.3597 0.6833 0.2211
H57 H 0.2644 0.7417 0.2273
H58 H 0.2919 0.6820 0.1783
C49 C 0.2040(10) 0.6402(5) 0.3157(4)
H59 H 0.2581 0.6359 0.3336
H60 H 0.1640 0.5991 0.3315
H61 H 0.1657 0.6894 0.3235
C50 C 0.1347(8) 0.6617(6) 0.2459(6)
H62 H 0.1140 0.7138 0.2578
H63 H 0.0886 0.6278 0.2681
H64 H 0.1379 0.6600 0.2051
S3 S 0.57701(7) 0.57477(5) 0.04778(4)
S4 S 0.98296(8) 0.31452(7) -0.01211(5)
O8 O 0.5586(2) 0.49667(16) 0.06133(13)
O9 O 0.4970(2) 0.63289(18) 0.06164(15)
O10 O 1.0416(3) 0.2435(2) -0.02344(17)
O11 O 1.0201(3) 0.3720(2) 0.01086(18)
O12 O 0.6458(4) 0.4559(3) 0.33727(19)
O13 O 0.7124(4) 0.3159(4) 0.3800(2)
O14 O 0.7814(7) 0.1901(6) 0.3010(3)
C51 C 0.7981(11) 0.2679(8) 0.3853(5)
H65 H 0.8025 0.2600 0.4256
H66 H 0.8567 0.2886 0.3617
C52 C 0.7784(12) 0.1883(9) 0.3600(5)
H67 H 0.8266 0.1469 0.3681
H68 H 0.7146 0.1746 0.3818
C53 C 0.5827(6) 0.5190(4) 0.3264(3)
H69 H 0.5918 0.5632 0.3459
H70 H 0.5156 0.5074 0.3413
C54 C 0.6352(7) 0.4363(5) 0.3954(3)
H71 H 0.6313 0.4825 0.4164
H72 H 0.5752 0.4123 0.4109
C55 C 0.7136(6) 0.3860(7) 0.4024(3)
H73 H 0.7122 0.3780 0.4436
H74 H 0.7736 0.4079 0.3826
C56 C 0.8701(4) 0.1759(4) 0.2637(3)
H75 H 0.8879 0.1202 0.2633
H76 H 0.9181 0.1979 0.2784
C57 C 0.8758(3) 0.2073(3) 0.2030(2)
C58 C 0.8863(3) 0.1591(3) 0.1594(3)
H77 H 0.8927 0.1056 0.1675
C59 C 0.8876(3) 0.1874(3) 0.1045(2)
H78 H 0.8955 0.1534 0.0750
C60 C 0.8774(3) 0.2654(3) 0.0919(2)
C61 C 0.8685(3) 0.3138(3) 0.1351(2)
H79 H 0.8629 0.3673 0.1269
C62 C 0.8678(3) 0.2850(3) 0.1905(2)
H80 H 0.8618 0.3188 0.2198
C63 C 0.8696(3) 0.2974(3) 0.0337(2)
H81 H 0.8267 0.3457 0.0376
H82 H 0.8403 0.2614 0.0161
C64 C 0.9521(3) 0.3514(3) -0.0775(2)
H83 H 1.0098 0.3691 -0.1045
H84 H 0.9325 0.3096 -0.0951
C65 C 0.8728(3) 0.4157(3) -0.06977(19)
C66 C 0.8864(3) 0.4886(3) -0.0591(2)
H85 H 0.9490 0.4999 -0.0597
C67 C 0.8107(3) 0.5448(3) -0.04768(19)
H86 H 0.8215 0.5945 -0.0410
C68 C 0.7177(3) 0.5291(2) -0.04588(17)
C69 C 0.7049(3) 0.4570(3) -0.05916(19)
H87 H 0.6429 0.4461 -0.0602
C70 C 0.7812(3) 0.4015(3) -0.0708(2)
H88 H 0.7712 0.3525 -0.0796
C71 C 0.6329(3) 0.5869(2) -0.02721(18)
H89 H 0.5853 0.5827 -0.0495
H90 H 0.6539 0.6385 -0.0356
C72 C 0.6683(3) 0.5940(3) 0.08156(19)
H91 H 0.7296 0.5640 0.0641
H92 H 0.6779 0.6486 0.0749
C73 C 0.6410(3) 0.5742(2) 0.14507(18)
C74 C 0.5946(3) 0.6281(3) 0.1839(2)
H93 H 0.5757 0.6781 0.1704
C75 C 0.5757(4) 0.6101(3) 0.2420(2)
H94 H 0.5441 0.6477 0.2680
C76 C 0.6023(4) 0.5376(3) 0.2628(2)
C77 C 0.6464(5) 0.4840(3) 0.2247(2)
H95 H 0.6639 0.4337 0.2383
C78 C 0.6659(4) 0.5021(3) 0.1665(2)
H96 H 0.6971 0.4641 0.1407
C81 C 0.7216(3) 0.7397(2) 0.41837(18)
C82 C 0.7098(4) 0.7972(3) 0.4553(2)
H101 H 0.7646 0.8190 0.4585
C83 C 0.6190(5) 0.8245(4) 0.4884(3)
C84 C 0.5388(4) 0.7952(4) 0.4835(3)
H102 H 0.4774 0.8140 0.5055
C85 C 0.5471(4) 0.7392(3) 0.4473(2)
C86 C 0.6371(3) 0.7129(3) 0.4149(2)
H103 H 0.6414 0.6746 0.3891
C87 C 0.6127(8) 0.8849(8) 0.5273(5)
C88 C 0.4627(4) 0.7009(4) 0.4443(3)
C89 C 0.8408(3) 0.6153(2) 0.42664(16)
C90 C 0.7699(3) 0.5872(2) 0.47094(17)
H104 H 0.7106 0.6179 0.4830
C91 C 0.7825(3) 0.5159(2) 0.49818(18)
C92 C 0.8666(3) 0.4693(2) 0.48188(19)
H105 H 0.8748 0.4200 0.4999
C93 C 0.9391(3) 0.4959(2) 0.43850(18)
C94 C 0.9272(3) 0.5682(2) 0.41284(17)
H106 H 0.9796 0.5863 0.3849
C95 C 0.7029(3) 0.4900(3) 0.5456(2)
C96 C 1.0279(4) 0.4449(3) 0.4160(2)
C97 C 0.8253(3) 0.6732(3) 0.32276(18)
C98 C 0.7921(3) 0.7289(3) 0.2849(2)
H107 H 0.7660 0.7778 0.2979
C99 C 0.7972(4) 0.7134(4) 0.2285(2)
C100 C 0.8319(4) 0.6416(4) 0.2079(2)
H108 H 0.8346 0.6312 0.1697
C101 C 0.8618(3) 0.5873(4) 0.2446(2)
C102 C 0.8580(3) 0.6023(3) 0.30084(19)
H109 H 0.8788 0.5624 0.3252
C103 C 0.7652(6) 0.7761(6) 0.1904(3)
C104 C 0.9040(5) 0.5108(5) 0.2243(3)
C105 C 0.9132(3) 0.7473(2) 0.38510(19)
C106 C 0.9574(4) 0.7445(3) 0.4301(2)
H110 H 0.9378 0.7104 0.4623
C107 C 1.0289(4) 0.7896(3) 0.4298(3)
C108 C 1.0578(5) 0.8409(3) 0.3849(3)
H111 H 1.1055 0.8730 0.3851
C109 C 1.0158(5) 0.8447(3) 0.3394(3)
C110 C 0.9456(4) 0.7989(3) 0.3399(2)
H112 H 0.9182 0.8028 0.3079
C111 C 1.0759(6) 0.7815(4) 0.4787(4)
C112 C 1.0493(7) 0.8979(6) 0.2889(4)
B1 B 0.8258(4) 0.6949(3) 0.3880(2)
F1 F 1.0526(2) 0.39345(17) 0.45469(13)
F2 F 1.1051(2) 0.4816(2) 0.39485(16)
F3 F 1.0194(3) 0.4058(2) 0.37305(16)
F4 F 0.7097(2) 0.41482(16) 0.55567(13)
F5 F 0.6996(3) 0.5186(2) 0.59523(14)
F6 F 0.6167(2) 0.5105(2) 0.53549(17)
F7 F 0.8904(4) 0.4986(3) 0.1732(2)
F8 F 0.9971(3) 0.5007(3) 0.2166(3)
F9 F 0.8685(5) 0.4552(3) 0.2584(2)
F10 F 0.7736(4) 0.7512(4) 0.13713(18)
F11 F 0.6738(4) 0.7989(3) 0.2056(2)
F12 F 0.8153(6) 0.8306(4) 0.1818(4)
F13 F 1.1316(4) 0.8334(3) 0.4785(2)
F14 F 1.0207(5) 0.7736(6) 0.5270(2)
F15 F 1.1372(6) 0.7164(3) 0.4762(4)
F16 F 0.9818(5) 0.9365(4) 0.2706(3)
F17 F 1.0826(11) 0.9552(6) 0.3020(5)
F18 F 1.1072(8) 0.8719(5) 0.2496(4)
F19 F 0.4576(3) 0.6925(3) 0.39181(18)
F20 F 0.3793(3) 0.7370(3) 0.4699(2)
F21 F 0.4661(3) 0.6302(3) 0.4694(2)
F22 F 0.6827(5) 0.8862(4) 0.5498(3)
F23 F 0.5915(12) 0.9492(4) 0.5098(6)
F24 F 0.5392(7) 0.8790(9) 0.5735(5)
C113 C 0.0076(5) 0.0793(4) 0.9249(4)
H113 H -0.0459 0.0855 0.9595
H114 H 0.0262 0.1304 0.9101
Cl1 Cl 0.10649(13) 0.02257(10) 0.94305(11)
Cl2 Cl -0.02939(14) 0.03764(15) 0.87367(9)
O15? O 0.8593(9) 0.2377(8) 0.2962(4)
C79? C 0.7352(15) 0.2361(15) 0.3992(7)
H97? H 0.6857 0.2039 0.3966
H98? H 0.7437 0.2316 0.4388
C80? C 0.8332(13) 0.2162(14) 0.3536(6)
H99? H 0.8828 0.2331 0.3699
H100? H 0.8438 0.1600 0.3555
C114? C 0.678(2) 0.0318(14) 0.2979(11)
H115? H 0.6921 0.0851 0.2969
H116? H 0.6076 0.0309 0.3074
Cl3? Cl 0.7317(10) -0.0079(6) 0.2323(8)
Cl4? Cl 0.7268(13) -0.0233(10) 0.3464(9)
loop_
_geom_bond_atom_site_label_1
_geom_bond_atom_site_label_2
_geom_bond_site_symmetry_1
_geom_bond_site_symmetry_2
S1 O1 1_555 1_555
S2 O3 1_555 1_555
O2 S1 1_555 1_555
O4 S2 1_555 1_555
O5 C1 1_555 1_555
O6 C3 1_555 1_555
O7 C5 1_555 1_555
C1 H1 1_555 1_555
H2 C1 1_555 1_555
C2 O5 1_555 1_555
H3 C2 1_555 1_555
H4 C2 1_555 1_555
C3 C2 1_555 1_555
H5 C3 1_555 1_555
H6 C3 1_555 1_555
C4 O6 1_555 1_555
H7 C4 1_555 1_555
H8 C4 1_555 1_555
C5 C4 1_555 1_555
H9 C5 1_555 1_555
H10 C5 1_555 1_555
C6 O7 1_555 1_555
H11 C6 1_555 1_555
H12 C6 1_555 1_555
C7 C6 1_555 1_555
C8 C7 1_555 1_555
H13 C8 1_555 1_555
C9 C8 1_555 1_555
H14 C9 1_555 1_555
C10 C9 1_555 1_555
C11 C10 1_555 1_555
H15 C11 1_555 1_555
C12 C7 1_555 1_555
H16 C12 1_555 1_555
C13 S2 1_555 1_555
H17 C13 1_555 1_555
H18 C13 1_555 1_555
C14 S2 1_555 1_555
H19 C14 1_555 1_555
H20 C14 1_555 1_555
C15 C14 1_555 1_555
C16 C15 1_555 1_555
H21 C16 1_555 1_555
C17 C16 1_555 1_555
H22 C17 1_555 1_555
C18 C17 1_555 1_555
C19 C18 1_555 1_555
H23 C19 1_555 1_555
C20 C15 1_555 1_555
H24 C20 1_555 1_555
C21 S1 1_555 1_555
H25 C21 1_555 1_555
H26 C21 1_555 1_555
C22 S1 1_555 1_555
H27 C22 1_555 1_555
H28 C22 1_555 1_555
C23 C22 1_555 1_555
C24 C23 1_555 1_555
H29 C24 1_555 1_555
C25 C24 1_555 1_555
H30 C25 1_555 1_555
C26 C1 1_555 1_555
C27 C26 1_555 1_555
H31 C27 1_555 1_555
C28 C23 1_555 1_555
H32 C28 1_555 1_555
N1 H33 1_555 1_555
H34 N1 1_555 1_555
C29 N1 1_555 1_555
H35 C29 1_555 1_555
H36 C29 1_555 1_555
C30 C29 1_555 1_555
C31 C30 1_555 1_555
H37 C31 1_555 1_555
C32 C31 1_555 1_555
H38 C32 1_555 1_555
C33 C32 1_555 1_555
C34 C33 1_555 1_555
H39 C34 1_555 1_555
C35 C30 1_555 1_555
H40 C35 1_555 1_555
C36 C33 1_555 1_555
C37 C36 1_555 1_555
H41 C37 1_555 1_555
H42 C37 1_555 1_555
H43 C37 1_555 1_555
C38 C36 1_555 1_555
H44 C38 1_555 1_555
H45 C38 1_555 1_555
H46 C38 1_555 1_555
C39 C36 1_555 1_555
H47 C39 1_555 1_555
H48 C39 1_555 1_555
H49 C39 1_555 1_555
C40 N1 1_555 1_555
H50 C40 1_555 1_555
H51 C40 1_555 1_555
C41 C40 1_555 1_555
C42 C41 1_555 1_555
H52 C42 1_555 1_555
C43 C42 1_555 1_555
H53 C43 1_555 1_555
C44 C43 1_555 1_555
C45 C44 1_555 1_555
H54 C45 1_555 1_555
C46 C41 1_555 1_555
H55 C46 1_555 1_555
C47 C44 1_555 1_555
C48 C47 1_555 1_555
H56 C48 1_555 1_555
H57 C48 1_555 1_555
H58 C48 1_555 1_555
C49 C47 1_555 1_555
H59 C49 1_555 1_555
H60 C49 1_555 1_555
H61 C49 1_555 1_555
C50 C47 1_555 1_555
H62 C50 1_555 1_555
H63 C50 1_555 1_555
H64 C50 1_555 1_555
S3 O8 1_555 1_555
S4 O10 1_555 1_555
O9 S3 1_555 1_555
O11 S4 1_555 1_555
O12 C53 1_555 1_555
O13 C51 1_555 1_555
O14 C52 1_555 1_555
C51 H65 1_555 1_555
H66 C51 1_555 1_555
C52 C51 1_555 1_555
H67 C52 1_555 1_555
H68 C52 1_555 1_555
C53 H69 1_555 1_555
H70 C53 1_555 1_555
C54 O12 1_555 1_555
H71 C54 1_555 1_555
H72 C54 1_555 1_555
C55 O13 1_555 1_555
H73 C55 1_555 1_555
H74 C55 1_555 1_555
C56 O14 1_555 1_555
H75 C56 1_555 1_555
H76 C56 1_555 1_555
C57 C56 1_555 1_555
C58 C57 1_555 1_555
H77 C58 1_555 1_555
C59 C58 1_555 1_555
H78 C59 1_555 1_555
C60 C59 1_555 1_555
C61 C60 1_555 1_555
H79 C61 1_555 1_555
C62 C57 1_555 1_555
H80 C62 1_555 1_555
C63 S4 1_555 1_555
H81 C63 1_555 1_555
H82 C63 1_555 1_555
C64 S4 1_555 1_555
H83 C64 1_555 1_555
H84 C64 1_555 1_555
C65 C64 1_555 1_555
C66 C65 1_555 1_555
H85 C66 1_555 1_555
C67 C66 1_555 1_555
H86 C67 1_555 1_555
C68 C67 1_555 1_555
C69 C68 1_555 1_555
H87 C69 1_555 1_555
C70 C65 1_555 1_555
H88 C70 1_555 1_555
C71 S3 1_555 1_555
H89 C71 1_555 1_555
H90 C71 1_555 1_555
C72 S3 1_555 1_555
H91 C72 1_555 1_555
H92 C72 1_555 1_555
C73 C72 1_555 1_555
C74 C73 1_555 1_555
H93 C74 1_555 1_555
C75 C74 1_555 1_555
H94 C75 1_555 1_555
C76 C53 1_555 1_555
C77 C76 1_555 1_555
H95 C77 1_555 1_555
C78 C73 1_555 1_555
H96 C78 1_555 1_555
C81 C82 1_555 1_555
C82 H101 1_555 1_555
C83 C82 1_555 1_555
C84 C83 1_555 1_555
H102 C84 1_555 1_555
C85 C84 1_555 1_555
C86 C81 1_555 1_555
H103 C86 1_555 1_555
C87 C83 1_555 1_555
C88 C85 1_555 1_555
C89 C90 1_555 1_555
C90 H104 1_555 1_555
C91 C90 1_555 1_555
C92 C91 1_555 1_555
H105 C92 1_555 1_555
C93 C92 1_555 1_555
C94 C89 1_555 1_555
H106 C94 1_555 1_555
C95 C91 1_555 1_555
C96 C93 1_555 1_555
C97 C98 1_555 1_555
C98 H107 1_555 1_555
C99 C98 1_555 1_555
C100 C99 1_555 1_555
H108 C100 1_555 1_555
C101 C100 1_555 1_555
C102 C97 1_555 1_555
H109 C102 1_555 1_555
C103 C99 1_555 1_555
C104 C101 1_555 1_555
C105 C106 1_555 1_555
C106 H110 1_555 1_555
C107 C106 1_555 1_555
C108 C107 1_555 1_555
H111 C108 1_555 1_555
C109 C108 1_555 1_555
C110 C105 1_555 1_555
H112 C110 1_555 1_555
C111 C107 1_555 1_555
C112 C109 1_555 1_555
B1 C81 1_555 1_555
F1 C96 1_555 1_555
F2 C96 1_555 1_555
F3 C96 1_555 1_555
F4 C95 1_555 1_555
F5 C95 1_555 1_555
F6 C95 1_555 1_555
F7 C104 1_555 1_555
F8 C104 1_555 1_555
F9 C104 1_555 1_555
F10 C103 1_555 1_555
F11 C103 1_555 1_555
F12 C103 1_555 1_555
F13 C111 1_555 1_555
F14 C111 1_555 1_555
F15 C111 1_555 1_555
F16 C112 1_555 1_555
F17 C112 1_555 1_555
F18 C112 1_555 1_555
F19 C88 1_555 1_555
F20 C88 1_555 1_555
F21 C88 1_555 1_555
F22 C87 1_555 1_555
F23 C87 1_555 1_555
F24 C87 1_555 1_555
C113 H113 1_555 1_555
H114 C113 1_555 1_555
Cl1 C113 1_555 1_555
Cl2 C113 1_555 1_555
C10 C13 1_555 1_555
C11 C12 1_555 1_555
C18 C21 1_555 1_555
C19 C20 1_555 1_555
C25 C26 1_555 1_555
C27 C28 1_555 1_555
C34 C35 1_555 1_555
C45 C46 1_555 1_555
C54 C55 1_555 1_555
C60 C63 1_555 1_555
C61 C62 1_555 1_555
C68 C71 1_555 1_555
C69 C70 1_555 1_555
C75 C76 1_555 1_555
C77 C78 1_555 1_555
C85 C86 1_555 1_555
C89 B1 1_555 1_555
C93 C94 1_555 1_555
C97 B1 1_555 1_555
C101 C102 1_555 1_555
C105 B1 1_555 1_555
C109 C110 1_555 1_555

#END
