
#######################################################################
#
#                 Cambridge Crystallographic Data Centre
#                                CCDC 
#
#######################################################################
#
# If this CIF has been generated from an entry in the Cambridge 
# Structural Database, then it will include bibliographic, chemical, 
# crystal, experimental, refinement or atomic coordinate data resulting 
# from the CCDC's data processing and validation procedures.
#
#######################################################################

data_BEQNAN
_chemical_formula_moiety         'C16 H22 N2 O5'
_chemical_name_systematic        
'Methyl 4-(3-methylphenylureido)-5-methoxymethyltetrahydrofuran-2-carboxylate'
_symmetry_cell_setting           orthorhombic
_symmetry_space_group_name_H-M   'P 21 21 21'
_symmetry_Int_Tables_number      19
_space_group_name_Hall           'P 2ac 2ab'
loop_
_symmetry_equiv_pos_site_id
_symmetry_equiv_pos_as_xyz
1 x,y,z
2 1/2+x,1/2-y,-z
3 -x,1/2+y,1/2-z
4 1/2-x,-y,1/2+z
_cell_length_a                   4.5824(1)
_cell_length_b                   9.3380(2)
_cell_length_c                   39.0339(9)
_cell_angle_alpha                90
_cell_angle_beta                 90
_cell_angle_gamma                90
_cell_volume                     1670.28
_exptl_crystal_colour            colorless
_exptl_crystal_description       plate
_cell_formula_units_Z            4
loop_
_atom_site_label
_atom_site_type_symbol
_atom_site_fract_x
_atom_site_fract_y
_atom_site_fract_z
C1 C 0.7806(8) 0.1095(4) 0.59125(8)
C2 C 0.8763(8) -0.0419(3) 0.58205(8)
O1 O 1.1359(5) -0.0227(2) 0.56173(5)
C3 C 1.0662(8) 0.0923(3) 0.53898(8)
C4 C 0.8844(9) 0.1979(4) 0.56010(8)
C5 C 0.9097(8) 0.0408(3) 0.50704(8)
O2 O 0.9802(7) -0.0902(3) 0.49802(6)
C6 C 0.8502(13) -0.1433(5) 0.4664(1)
O3 O 0.7425(8) 0.1135(3) 0.49087(8)
C7 C 0.949(1) -0.1403(3) 0.61147(9)
O4 O 0.9629(7) -0.2830(2) 0.59885(6)
C8 C 1.0844(14) -0.3790(4) 0.62328(11)
N1 N 0.9089(6) 0.1615(3) 0.62325(6)
C9 C 0.7478(7) 0.2238(4) 0.64803(8)
N2 N 0.9051(6) 0.2815(3) 0.67424(6)
C10 C 0.7864(7) 0.3643(3) 0.70160(8)
C11 C 0.8963(8) 0.3450(3) 0.73424(8)
C12 C 0.7997(8) 0.4272(4) 0.76152(9)
C13 C 0.5876(9) 0.5301(4) 0.75559(9)
C14 C 0.4758(9) 0.5486(4) 0.7230(1)
C15 C 0.5729(8) 0.4669(3) 0.69567(9)
C16 C 0.9252(11) 0.4045(4) 0.79700(9)
O5 O 0.4775(5) 0.2261(3) 0.64760(6)
H1 H 0.5658(8) 0.1162(4) 0.59551(8)
H2 H 0.7094(8) -0.0906(3) 0.57037(8)
H3 H 1.2469(8) 0.1393(3) 0.53004(8)
H4 H 1.0059(9) 0.2810(4) 0.56765(8)
H5 H 0.7142(9) 0.2334(4) 0.54650(8)
H6 H 0.9186(13) -0.2433(5) 0.4620(1)
H7 H 0.6327(13) -0.1426(5) 0.4685(1)
H8 H 0.9101(13) -0.0802(5) 0.4469(1)
H9 H 0.793(1) -0.1330(3) 0.62938(9)
H10 H 1.141(1) -0.1128(3) 0.62161(9)
H11 H 1.0900(14) -0.4777(4) 0.61338(11)
H12 H 0.9621(14) -0.3791(4) 0.64450(11)
H13 H 1.2871(14) -0.3477(4) 0.62909(11)
H14 H 1.0479(8) 0.2699(3) 0.73827(8)
H15 H 0.5147(9) 0.5906(4) 0.77492(9)
H16 H 0.3224(9) 0.6229(4) 0.7191(1)
H17 H 0.4904(8) 0.4811(3) 0.67220(9)
H18 H 0.8310(11) 0.4730(4) 0.81331(9)
H19 H 0.8855(11) 0.3041(4) 0.80456(9)
H20 H 1.1406(11) 0.4216(4) 0.79661(9)
H21 H 1.1190(6) 0.1620(3) 0.62423(6)
H22 H 1.1068(6) 0.2767(3) 0.67468(6)
loop_
_geom_bond_atom_site_label_1
_geom_bond_atom_site_label_2
_geom_bond_site_symmetry_1
_geom_bond_site_symmetry_2
C1 C2 1_555 1_555
C2 O1 1_555 1_555
O1 C3 1_555 1_555
C3 C4 1_555 1_555
C4 C1 1_555 1_555
C5 C3 1_555 1_555
O2 C5 1_555 1_555
C6 O2 1_555 1_555
O3 C5 1_555 1_555
C7 C2 1_555 1_555
O4 C7 1_555 1_555
C8 O4 1_555 1_555
N1 C1 1_555 1_555
C9 N1 1_555 1_555
N2 C9 1_555 1_555
C10 N2 1_555 1_555
C11 C10 1_555 1_555
C12 C11 1_555 1_555
C13 C12 1_555 1_555
C14 C13 1_555 1_555
C15 C10 1_555 1_555
C16 C12 1_555 1_555
O5 C9 1_555 1_555
H1 C1 1_555 1_555
H2 C2 1_555 1_555
H3 C3 1_555 1_555
H4 C4 1_555 1_555
H5 C4 1_555 1_555
H6 C6 1_555 1_555
H7 C6 1_555 1_555
H8 C6 1_555 1_555
H9 C7 1_555 1_555
H10 C7 1_555 1_555
H11 C8 1_555 1_555
H12 C8 1_555 1_555
H13 C8 1_555 1_555
H14 C11 1_555 1_555
H15 C13 1_555 1_555
H16 C14 1_555 1_555
H17 C15 1_555 1_555
H18 C16 1_555 1_555
H19 C16 1_555 1_555
H20 C16 1_555 1_555
H21 N1 1_555 1_555
H22 N2 1_555 1_555
C14 C15 1_555 1_555

#END
