
#######################################################################
#
#                 Cambridge Crystallographic Data Centre
#                                CCDC 
#
#######################################################################
#
# If this CIF has been generated from an entry in the Cambridge 
# Structural Database, then it will include bibliographic, chemical, 
# crystal, experimental, refinement or atomic coordinate data resulting 
# from the CCDC's data processing and validation procedures.
#
#######################################################################

data_BEQVEZ
_chemical_formula_moiety         'C30 H35 N7 O6,3(H2 O1)'
_chemical_name_systematic        
"N,N'-bis(6-(3,3-Dimethylbutyrylamino)-2-pyridyl)-5-nitroisophthalamide trihydrate clathrate"
_symmetry_cell_setting           triclinic
_symmetry_space_group_name_H-M   'P -1'
_symmetry_Int_Tables_number      2
_space_group_name_Hall           '-P 1'
loop_
_symmetry_equiv_pos_site_id
_symmetry_equiv_pos_as_xyz
1 x,y,z
2 -x,-y,-z
_cell_length_a                   9.3024(1)
_cell_length_b                   13.3131(2)
_cell_length_c                   14.1360(3)
_cell_angle_alpha                105.161(1)
_cell_angle_beta                 103.689(1)
_cell_angle_gamma                100.292(1)
_cell_volume                     1586.79
_exptl_crystal_colour            colorless
_exptl_crystal_description       plates
_chemical_melting_point          184deg.C
_cell_formula_units_Z            2
loop_
_atom_site_label
_atom_site_type_symbol
_atom_site_fract_x
_atom_site_fract_y
_atom_site_fract_z
N1 N 0.2991(4) 0.3084(3) 0.7311(3)
O1 O 0.2021(4) 0.2218(3) 0.7017(3)
O2 O 0.3965(4) 0.3448(3) 0.8150(2)
C1 C 0.2966(5) 0.3728(3) 0.6601(3)
C2 C 0.4205(5) 0.4587(3) 0.6821(3)
H1 H 0.5067 0.4754 0.7405
C3 C 0.4150(5) 0.5203(3) 0.6154(3)
C4 C 0.2870(5) 0.4938(3) 0.5304(3)
H2 H 0.2836 0.5361 0.4856
C5 C 0.1633(5) 0.4061(3) 0.5096(3)
C6 C 0.1689(5) 0.3450(3) 0.5760(3)
H3 H 0.0861 0.2851 0.5637
C7 C 0.5521(5) 0.6124(3) 0.6405(3)
O3 O 0.6720(4) 0.6195(3) 0.7038(2)
N2 N 0.5342(4) 0.6842(3) 0.5881(3)
H4 H 0.442(2) 0.670(4) 0.545(3)
C8 C 0.6457(5) 0.7732(3) 0.5916(3)
C9 C 0.7881(5) 0.8128(3) 0.6640(3)
H5 H 0.8188 0.7810 0.7158
C10 C 0.8844(5) 0.9019(4) 0.6570(3)
H6 H 0.9838 0.9318 0.7049
C11 C 0.8374(5) 0.9472(3) 0.5817(3)
H7 H 0.9027 1.0077 0.5763
C12 C 0.6902(5) 0.9010(3) 0.5138(3)
N3 N 0.5945(4) 0.8148(3) 0.5174(3)
N4 N 0.6361(4) 0.9511(3) 0.4417(3)
H8 H 0.685(5) 1.0192(13) 0.457(4)
C13 C 0.5231(5) 0.9059(3) 0.3510(3)
O4 O 0.4616(4) 0.8087(2) 0.3159(2)
C14 C 0.4768(5) 0.9842(3) 0.2963(3)
H9 H 0.5178 1.0580 0.3458
H10 H 0.3637 0.9692 0.2754
C15 C 0.5305(5) 0.9816(3) 0.2001(3)
C16 C 0.7056(5) 1.0178(4) 0.2318(4)
H11 H 0.7413 1.0894 0.2835
H12 H 0.7388 1.0207 0.1715
H13 H 0.7488 0.9665 0.2607
C17 C 0.4758(5) 0.8706(4) 0.1200(3)
H14 H 0.5191 0.8194 0.1490
H15 H 0.5092 0.8736 0.0598
H16 H 0.3638 0.8473 0.0996
C18 C 0.4637(6) 1.0622(4) 0.1558(4)
H17 H 0.4995 1.1335 0.2079
H18 H 0.3516 1.0392 0.1355
H19 H 0.4970 1.0655 0.0957
C19 C 0.0217(5) 0.3759(3) 0.4198(3)
O5 O -0.0922(4) 0.3088(3) 0.4124(3)
N5 N 0.0269(4) 0.4278(3) 0.3499(3)
H20 H 0.114(3) 0.473(3) 0.359(4)
C20 C -0.0920(5) 0.4211(3) 0.2631(3)
C21 C -0.2334(5) 0.3472(3) 0.2272(3)
H21 H -0.2572 0.2940 0.2586
C22 C -0.3387(5) 0.3545(4) 0.1430(3)
H22 H -0.4380 0.3065 0.1171
C23 C -0.3017(5) 0.4304(3) 0.0960(3)
H23 H -0.3740 0.4369 0.0394
C24 C -0.1528(5) 0.4970(3) 0.1359(3)
N6 N -0.0505(4) 0.4942(3) 0.2190(3)
N7 N -0.0925(4) 0.5725(3) 0.0926(3)
H24 H 0.0048(18) 0.602(3) 0.126(3)
C25 C -0.1616(5) 0.5914(3) 0.0046(3)
O6 O -0.2970(4) 0.5489(3) -0.0451(2)
C26 C -0.0587(5) 0.6656(3) -0.0302(3)
H25 H -0.0889 0.6397 -0.1062
H26 H 0.0476 0.6603 -0.0049
C27 C -0.0601(5) 0.7855(3) 0.0053(3)
C28 C 0.0106(6) 0.8354(4) 0.1222(3)
H27 H 0.1153 0.8275 0.1420
H28 H -0.0509 0.7985 0.1566
H29 H 0.0126 0.9120 0.1427
C29 C 0.0370(5) 0.8425(4) -0.0484(4)
H30 H 0.1414 0.8341 -0.0284
H31 H 0.0398 0.9193 -0.0280
H32 H -0.0080 0.8107 -0.1229
C30 C -0.2227(5) 0.7981(4) -0.0250(4)
H33 H -0.2840 0.7614 0.0097
H34 H -0.2683 0.7662 -0.0995
H35 H -0.2205 0.8747 -0.0045
O7 O 0.2406(3) 0.6417(3) 0.1646(3)
H36 H 0.310(4) 0.697(2) 0.201(4)
H37 H 0.283(5) 0.597(3) 0.135(4)
O8 O -0.1984(4) 0.1679(2) 0.5097(3)
H38 H -0.170(6) 0.201(3) 0.471(3)
H39 H -0.225(6) 0.213(3) 0.552(3)
O9 O 0.2938(4) 0.6543(3) 0.3820(2)
H40 H 0.374(4) 0.696(4) 0.383(3)
H41 H 0.243(5) 0.625(4) 0.3199(13)
loop_
_geom_bond_atom_site_label_1
_geom_bond_atom_site_label_2
_geom_bond_site_symmetry_1
_geom_bond_site_symmetry_2
N1 O1 1_555 1_555
O2 N1 1_555 1_555
C1 N1 1_555 1_555
C2 C1 1_555 1_555
H1 C2 1_555 1_555
C3 C2 1_555 1_555
C4 C3 1_555 1_555
H2 C4 1_555 1_555
C5 C4 1_555 1_555
C6 C1 1_555 1_555
H3 C6 1_555 1_555
C7 C3 1_555 1_555
O3 C7 1_555 1_555
N2 C7 1_555 1_555
H4 N2 1_555 1_555
C8 N2 1_555 1_555
C9 C8 1_555 1_555
H5 C9 1_555 1_555
C10 C9 1_555 1_555
H6 C10 1_555 1_555
C11 C10 1_555 1_555
H7 C11 1_555 1_555
C12 C11 1_555 1_555
N3 C8 1_555 1_555
N4 C12 1_555 1_555
H8 N4 1_555 1_555
C13 N4 1_555 1_555
O4 C13 1_555 1_555
C14 C13 1_555 1_555
H9 C14 1_555 1_555
H10 C14 1_555 1_555
C15 C14 1_555 1_555
C16 C15 1_555 1_555
H11 C16 1_555 1_555
H12 C16 1_555 1_555
H13 C16 1_555 1_555
C17 C15 1_555 1_555
H14 C17 1_555 1_555
H15 C17 1_555 1_555
H16 C17 1_555 1_555
C18 C15 1_555 1_555
H17 C18 1_555 1_555
H18 C18 1_555 1_555
H19 C18 1_555 1_555
C19 C5 1_555 1_555
O5 C19 1_555 1_555
N5 C19 1_555 1_555
H20 N5 1_555 1_555
C20 N5 1_555 1_555
C21 C20 1_555 1_555
H21 C21 1_555 1_555
C22 C21 1_555 1_555
H22 C22 1_555 1_555
C23 C22 1_555 1_555
H23 C23 1_555 1_555
C24 C23 1_555 1_555
N6 C20 1_555 1_555
N7 C24 1_555 1_555
H24 N7 1_555 1_555
C25 N7 1_555 1_555
O6 C25 1_555 1_555
C26 C25 1_555 1_555
H25 C26 1_555 1_555
H26 C26 1_555 1_555
C27 C26 1_555 1_555
C28 C27 1_555 1_555
H27 C28 1_555 1_555
H28 C28 1_555 1_555
H29 C28 1_555 1_555
C29 C27 1_555 1_555
H30 C29 1_555 1_555
H31 C29 1_555 1_555
H32 C29 1_555 1_555
C30 C27 1_555 1_555
H33 C30 1_555 1_555
H34 C30 1_555 1_555
H35 C30 1_555 1_555
O7 H36 1_555 1_555
H37 O7 1_555 1_555
O8 H38 1_555 1_555
H39 O8 1_555 1_555
O9 H40 1_555 1_555
H41 O9 1_555 1_555
C5 C6 1_555 1_555
C12 N3 1_555 1_555
C24 N6 1_555 1_555

#END
