
#######################################################################
#
#                 Cambridge Crystallographic Data Centre
#                                CCDC 
#
#######################################################################
#
# If this CIF has been generated from an entry in the Cambridge 
# Structural Database, then it will include bibliographic, chemical, 
# crystal, experimental, refinement or atomic coordinate data resulting 
# from the CCDC's data processing and validation procedures.
#
#######################################################################

data_BEQWID
_chemical_formula_moiety         'C18 H30 N8,5(H2 O1)'
_chemical_name_systematic        
'1,4,7,10,13,16,21,24-Octa-azabicyclo(8.8.8)hexacosa-4,6,13,15,21,23-hexaene pentahydrate'
_symmetry_cell_setting           monoclinic
_symmetry_space_group_name_H-M   'C c'
_symmetry_Int_Tables_number      9
_space_group_name_Hall           'C -2yc'
loop_
_symmetry_equiv_pos_site_id
_symmetry_equiv_pos_as_xyz
1 x,y,z
2 x,-y,1/2+z
3 1/2+x,1/2+y,z
4 1/2+x,1/2-y,1/2+z
_cell_length_a                   22.3117(14)
_cell_length_b                   8.2925(6)
_cell_length_c                   16.1711(18)
_cell_angle_alpha                90
_cell_angle_beta                 122.532(6)
_cell_angle_gamma                90
_cell_volume                     2522.51
_exptl_crystal_colour            colorless
_exptl_crystal_description       block
_cell_formula_units_Z            4
_exptl_crystal_recrystallization_method 'diethyl ether'
loop_
_atom_site_label
_atom_site_type_symbol
_atom_site_fract_x
_atom_site_fract_y
_atom_site_fract_z
N1 N -0.16337(10) -0.1370(2) 0.29803(14)
C1 C -0.19079(13) -0.2691(3) 0.22715(19)
H1 H -0.2182 -0.2240 0.1600
H2 H -0.2235 -0.3355 0.2366
C2 C -0.13168(13) -0.3756(3) 0.23753(19)
H3 H -0.0991 -0.4052 0.3073
H4 H -0.1524 -0.4762 0.1996
N2 N -0.09196(11) -0.2935(3) 0.20241(14)
C3 C -0.02451(13) -0.3013(3) 0.25430(18)
H5 H -0.0015 -0.3544 0.3160
C4 C 0.01792(14) -0.2289(3) 0.21954(18)
H6 H -0.0046 -0.1640 0.1622
N3 N 0.08425(10) -0.2523(3) 0.26532(14)
C5 C 0.12302(13) -0.1791(3) 0.22545(19)
H7 H 0.0900 -0.1142 0.1668
H8 H 0.1436 -0.2646 0.2053
C6 C 0.18194(13) -0.0721(3) 0.3022(2)
H9 H 0.2136 -0.1368 0.3616
H10 H 0.2106 -0.0311 0.2766
N4 N 0.15403(10) 0.0649(2) 0.32891(15)
C7 C -0.21262(13) -0.0013(3) 0.26611(19)
H11 H -0.2029 0.0610 0.3243
H12 H -0.2618 -0.0429 0.2331
C8 C -0.20654(13) 0.1105(3) 0.19607(18)
H13 H -0.2133 0.0477 0.1396
H14 H -0.2442 0.1938 0.1708
N5 N -0.13684(11) 0.1878(3) 0.24670(14)
C9 C -0.09662(13) 0.1581(3) 0.21552(17)
H15 H -0.1123 0.0847 0.1626
C10 C -0.02707(13) 0.2332(3) 0.25841(18)
H16 H -0.0080 0.2965 0.3162
N6 N 0.00786(11) 0.2137(3) 0.21805(14)
C11 C 0.07425(13) 0.3019(3) 0.25698(19)
H17 H 0.0919 0.3377 0.3247
H18 H 0.0658 0.3990 0.2164
C12 C 0.12973(13) 0.1964(3) 0.25705(19)
H19 H 0.1095 0.1499 0.1908
H20 H 0.1710 0.2638 0.2720
C13 C -0.14148(13) -0.1902(3) 0.39677(18)
H21 H -0.1293 -0.3063 0.4039
H22 H -0.1817 -0.1766 0.4059
C14 C -0.07803(14) -0.0960(4) 0.47519(19)
H23 H -0.0873 0.0210 0.4624
H24 H -0.0706 -0.1194 0.5401
N7 N -0.01402(11) -0.1388(3) 0.47636(15)
C15 C 0.02213(14) -0.0239(3) 0.47292(18)
H25 H 0.0051 0.0836 0.4649
C16 C 0.08981(13) -0.0550(3) 0.48121(17)
H26 H 0.1032 -0.1622 0.4775
N8 N 0.13043(11) 0.0623(3) 0.49341(15)
C17 C 0.19836(13) 0.0260(3) 0.50396(19)
H27 H 0.2013 -0.0909 0.4943
H28 H 0.2379 0.0545 0.5710
C18 C 0.20545(13) 0.1203(3) 0.42927(19)
H29 H 0.1976 0.2363 0.4347
H30 H 0.2543 0.1074 0.4435
O1 O 0.18836(10) -0.4032(3) 0.45043(16)
H31 H 0.1530(16) -0.360(4) 0.389(2)
H32 H 0.1722(16) -0.458(4) 0.472(2)
O2 O -0.17484(11) -0.1825(3) 0.00214(14)
H33 H -0.1536(16) -0.207(4) 0.056(2)
H34 H -0.2134(18) -0.156(4) -0.010(2)
O3 O 0.12500(12) 0.4050(3) 0.51967(18)
H35 H 0.1208(17) 0.307(4) 0.508(2)
H36 H 0.0879(17) 0.439(4) 0.520(2)
O4 O -0.11569(12) 0.3656(3) 0.41687(16)
H37 H -0.1232(16) 0.313(4) 0.365(2)
H38 H -0.1360(17) 0.318(4) 0.438(2)
O5 O 0.01454(12) -0.4807(3) 0.52799(18)
H39 H 0.0073(17) -0.386(4) 0.510(2)
H40 H -0.0224(18) -0.530(4) 0.501(2)
loop_
_geom_bond_atom_site_label_1
_geom_bond_atom_site_label_2
_geom_bond_site_symmetry_1
_geom_bond_site_symmetry_2
N1 C1 1_555 1_555
C1 H1 1_555 1_555
H2 C1 1_555 1_555
C2 C1 1_555 1_555
H3 C2 1_555 1_555
H4 C2 1_555 1_555
N2 C2 1_555 1_555
C3 N2 1_555 1_555
H5 C3 1_555 1_555
C4 C3 1_555 1_555
H6 C4 1_555 1_555
N3 C4 1_555 1_555
C5 N3 1_555 1_555
H7 C5 1_555 1_555
H8 C5 1_555 1_555
C6 C5 1_555 1_555
H9 C6 1_555 1_555
H10 C6 1_555 1_555
N4 C6 1_555 1_555
C7 N1 1_555 1_555
H11 C7 1_555 1_555
H12 C7 1_555 1_555
C8 C7 1_555 1_555
H13 C8 1_555 1_555
H14 C8 1_555 1_555
N5 C8 1_555 1_555
C9 N5 1_555 1_555
H15 C9 1_555 1_555
C10 C9 1_555 1_555
H16 C10 1_555 1_555
N6 C10 1_555 1_555
C11 N6 1_555 1_555
H17 C11 1_555 1_555
H18 C11 1_555 1_555
C12 N4 1_555 1_555
H19 C12 1_555 1_555
H20 C12 1_555 1_555
C13 N1 1_555 1_555
H21 C13 1_555 1_555
H22 C13 1_555 1_555
C14 C13 1_555 1_555
H23 C14 1_555 1_555
H24 C14 1_555 1_555
N7 C14 1_555 1_555
C15 N7 1_555 1_555
H25 C15 1_555 1_555
C16 C15 1_555 1_555
H26 C16 1_555 1_555
N8 C16 1_555 1_555
C17 N8 1_555 1_555
H27 C17 1_555 1_555
H28 C17 1_555 1_555
C18 N4 1_555 1_555
H29 C18 1_555 1_555
H30 C18 1_555 1_555
O1 H31 1_555 1_555
H32 O1 1_555 1_555
O2 H33 1_555 1_555
H34 O2 1_555 1_555
O3 H35 1_555 1_555
H36 O3 1_555 1_555
O4 H37 1_555 1_555
H38 O4 1_555 1_555
O5 H39 1_555 1_555
H40 O5 1_555 1_555
C11 C12 1_555 1_555
C17 C18 1_555 1_555

#END
