
#######################################################################
#
#                 Cambridge Crystallographic Data Centre
#                                CCDC 
#
#######################################################################
#
# If this CIF has been generated from an entry in the Cambridge 
# Structural Database, then it will include bibliographic, chemical, 
# crystal, experimental, refinement or atomic coordinate data resulting 
# from the CCDC's data processing and validation procedures.
#
#######################################################################

data_BEQWAY
_chemical_formula_moiety         'C12 H12 N4 O3'
_chemical_name_systematic        
N-(benzyloxy)-1-(1-methyl-5-nitro-1H-imidazol-2-yl)methanimine
_symmetry_cell_setting           monoclinic
_symmetry_space_group_name_H-M   'P 21/c'
_symmetry_Int_Tables_number      14
_space_group_name_Hall           '-P 2ybc'
loop_
_symmetry_equiv_pos_site_id
_symmetry_equiv_pos_as_xyz
1 x,y,z
2 -x,1/2+y,1/2-z
3 -x,-y,-z
4 x,1/2-y,1/2+z
_cell_length_a                   7.6399(5)
_cell_length_b                   10.5071(7)
_cell_length_c                   14.9243(11)
_cell_angle_alpha                90
_cell_angle_beta                 97.942(3)
_cell_angle_gamma                90
_cell_volume                     1186.53
_exptl_crystal_colour            colorless
_exptl_crystal_description       plate
_cell_formula_units_Z            4
loop_
_atom_site_label
_atom_site_type_symbol
_atom_site_fract_x
_atom_site_fract_y
_atom_site_fract_z
C1 C -0.2026(2) 0.18424(17) 0.08287(11)
C2 C -0.1242(2) 0.06989(17) 0.10516(11)
H1 H -0.1177 0.0010 0.0646
C3 C -0.0953(2) 0.18453(17) 0.22478(11)
C4 C -0.2593(2) 0.38590(16) 0.17211(11)
H2 H -0.3780 0.3918 0.1378
H3 H -0.1832 0.4512 0.1508
H4 H -0.2661 0.3991 0.2365
C5 C -0.0422(2) 0.23260(16) 0.31595(11)
H5 H -0.0610 0.3193 0.3300
C6 C 0.1846(3) 0.13647(17) 0.51983(12)
H6 H 0.2794 0.0969 0.4903
H7 H 0.1069 0.0680 0.5372
C7 C 0.2641(2) 0.20824(16) 0.60261(11)
C8 C 0.2637(2) 0.15343(17) 0.68727(11)
H8 H 0.2039 0.0751 0.6927
C9 C 0.3508(2) 0.21295(18) 0.76444(12)
H9 H 0.3522 0.1739 0.8220
C10 C 0.4346(2) 0.32796(18) 0.75770(12)
H10 H 0.4943 0.3680 0.8103
C11 C 0.4313(2) 0.38490(17) 0.67342(12)
H11 H 0.4865 0.4652 0.6686
C12 C 0.3475(2) 0.32503(17) 0.59602(11)
H12 H 0.3471 0.3639 0.5385
N1 N -0.05705(18) 0.06958(14) 0.19410(9)
N2 N -0.18520(17) 0.25946(13) 0.15896(9)
N3 N 0.03028(18) 0.15619(14) 0.37682(9)
N4 N -0.28663(19) 0.22404(14) -0.00435(9)
O1 O 0.08352(16) 0.22291(11) 0.45775(7)
O2 O -0.33264(17) 0.33549(12) -0.01644(8)
O3 O -0.30669(18) 0.14106(13) -0.06357(8)
loop_
_geom_bond_atom_site_label_1
_geom_bond_atom_site_label_2
_geom_bond_site_symmetry_1
_geom_bond_site_symmetry_2
C1 C2 1_555 1_555
C2 H1 1_555 1_555
C3 C5 1_555 1_555
C4 H2 1_555 1_555
H3 C4 1_555 1_555
H4 C4 1_555 1_555
C5 H5 1_555 1_555
C6 H6 1_555 1_555
H7 C6 1_555 1_555
C7 C6 1_555 1_555
C8 C7 1_555 1_555
H8 C8 1_555 1_555
C9 C8 1_555 1_555
H9 C9 1_555 1_555
C10 C9 1_555 1_555
H10 C10 1_555 1_555
C11 C10 1_555 1_555
H11 C11 1_555 1_555
C12 C7 1_555 1_555
H12 C12 1_555 1_555
N1 C2 1_555 1_555
N2 C1 1_555 1_555
N3 C5 1_555 1_555
N4 C1 1_555 1_555
O1 C6 1_555 1_555
O2 N4 1_555 1_555
O3 N4 1_555 1_555
C3 N1 1_555 1_555
C3 N2 1_555 1_555
C4 N2 1_555 1_555
C11 C12 1_555 1_555
N3 O1 1_555 1_555

#END
