
#######################################################################
#
#                 Cambridge Crystallographic Data Centre
#                                CCDC 
#
#######################################################################
#
# If this CIF has been generated from an entry in the Cambridge 
# Structural Database, then it will include bibliographic, chemical, 
# crystal, experimental, refinement or atomic coordinate data resulting 
# from the CCDC's data processing and validation procedures.
#
#######################################################################

data_BEQXIE
_chemical_formula_moiety         'C12 H10 N2 2+,Cl2 I1 1-,Cl1 1-'
_chemical_name_systematic        '1,10-Phenanthrolinium dichloroiodide chloride'
_symmetry_cell_setting           monoclinic
_symmetry_space_group_name_H-M   'C 2/c'
_symmetry_Int_Tables_number      15
_space_group_name_Hall           '-C 2yn'
loop_
_symmetry_equiv_pos_site_id
_symmetry_equiv_pos_as_xyz
1 x,y,z
2 1/2+x,1/2+y,z
3 -x,y,1/2-z
4 1/2-x,1/2+y,1/2-z
5 -x,-y,-z
6 1/2-x,1/2-y,-z
7 x,-y,1/2+z
8 1/2+x,1/2-y,1/2+z
_cell_length_a                   25.1766(10)
_cell_length_b                   6.6867(3)
_cell_length_c                   19.3304(7)
_cell_angle_alpha                90
_cell_angle_beta                 113.807(3)
_cell_angle_gamma                90
_cell_volume                     2977.34
_exptl_crystal_colour            'light yellow'
_exptl_crystal_description       block
_cell_formula_units_Z            8
loop_
_atom_site_label
_atom_site_type_symbol
_atom_site_fract_x
_atom_site_fract_y
_atom_site_fract_z
I1 I 0.5000 0.60730(5) 0.7500
Cl1 Cl 0.60788(4) 0.59938(15) 0.77674(5)
Cl1B Cl 0.39212(4) 0.59938(15) 0.72326(5)
I2 I 0.5000 1.0000 0.5000
Cl2 Cl 0.49036(3) 0.74997(16) 0.39624(5)
Cl2D Cl 0.50964(3) 1.25003(16) 0.60376(5)
Cl3 Cl 0.23404(4) 0.47104(15) 0.18731(4)
N1 N 0.17955(10) 0.4378(4) 0.29888(13)
N2 N 0.30368(10) 0.4784(4) 0.35927(13)
C1 C 0.12287(14) 0.4092(6) 0.27063(19)
C2 C 0.09313(14) 0.4071(6) 0.3173(2)
C3 C 0.12298(14) 0.4363(5) 0.3927(2)
C4 C 0.18333(12) 0.4647(4) 0.42346(15)
C5 C 0.21622(14) 0.4921(4) 0.50262(16)
C6 C 0.27449(14) 0.5114(4) 0.53120(15)
C7 C 0.30476(12) 0.5066(4) 0.48267(15)
C8 C 0.36529(14) 0.5224(5) 0.51043(18)
C9 C 0.39313(14) 0.5155(6) 0.4631(2)
C10 C 0.36088(14) 0.4924(5) 0.38637(19)
C11 C 0.27358(11) 0.4841(4) 0.40443(14)
C12 C 0.21184(11) 0.4638(4) 0.37421(14)
H1 H 0.1992(17) 0.444(6) 0.263(2)
H2 H 0.1043(14) 0.392(5) 0.217(2)
H3 H 0.0546(16) 0.401(6) 0.298(2)
H4 H 0.1027(16) 0.445(6) 0.423(2)
H5 H 0.1952(14) 0.500(5) 0.5304(19)
H6 H 0.3010(14) 0.533(5) 0.5882(18)
H7 H 0.3819(17) 0.540(6) 0.559(2)
H8 H 0.4355(17) 0.528(5) 0.482(2)
H9 H 0.3776(16) 0.480(5) 0.346(2)
H10 H 0.2796(16) 0.463(6) 0.304(2)
loop_
_geom_bond_atom_site_label_1
_geom_bond_atom_site_label_2
_geom_bond_site_symmetry_1
_geom_bond_site_symmetry_2
I1 Cl1 1_555 1_555
I2 Cl2 1_555 1_555
N1 C1 1_555 1_555
N2 C10 1_555 1_555
C1 C2 1_555 1_555
C2 C3 1_555 1_555
C3 C4 1_555 1_555
C4 C5 1_555 1_555
C5 C6 1_555 1_555
C6 C7 1_555 1_555
C7 C8 1_555 1_555
C8 C9 1_555 1_555
C9 C10 1_555 1_555
C10 H9 1_555 1_555
C11 N2 1_555 1_555
C12 N1 1_555 1_555
H1 N1 1_555 1_555
H2 C1 1_555 1_555
H3 C2 1_555 1_555
H4 C3 1_555 1_555
H5 C5 1_555 1_555
H6 C6 1_555 1_555
H7 C8 1_555 1_555
H8 C9 1_555 1_555
H10 N2 1_555 1_555
Cl1B I1 1_555 1_555
Cl2D I2 1_555 1_555
C4 C12 1_555 1_555
C7 C11 1_555 1_555
C11 C12 1_555 1_555

#END
