
#######################################################################
#
#                 Cambridge Crystallographic Data Centre
#                                CCDC 
#
#######################################################################
#
# If this CIF has been generated from an entry in the Cambridge 
# Structural Database, then it will include bibliographic, chemical, 
# crystal, experimental, refinement or atomic coordinate data resulting 
# from the CCDC's data processing and validation procedures.
#
#######################################################################

data_BEQZOM
_chemical_formula_moiety         'C13 H8 N6'
_chemical_name_systematic        
9-(4H-1,2,4-Triazol-4-ylimino)-4,5-diazafluorene
_symmetry_cell_setting           monoclinic
_symmetry_space_group_name_H-M   'C 2/c'
_symmetry_Int_Tables_number      15
_space_group_name_Hall           '-C 2yn'
loop_
_symmetry_equiv_pos_site_id
_symmetry_equiv_pos_as_xyz
1 x,y,z
2 1/2+x,1/2+y,z
3 -x,y,1/2-z
4 1/2-x,1/2+y,1/2-z
5 -x,-y,-z
6 1/2-x,1/2-y,-z
7 x,-y,1/2+z
8 1/2+x,1/2-y,1/2+z
_cell_length_a                   18.304(1)
_cell_length_b                   10.488(1)
_cell_length_c                   14.267(1)
_cell_angle_alpha                90
_cell_angle_beta                 123.790(1)
_cell_angle_gamma                90
_cell_volume                     2276.22
_exptl_crystal_colour            yellow
_exptl_crystal_description       block
_cell_formula_units_Z            8
_exptl_crystal_recrystallization_method dimethylformamide/ether
loop_
_atom_site_label
_atom_site_type_symbol
_atom_site_fract_x
_atom_site_fract_y
_atom_site_fract_z
N1 N 0.28719(12) 0.54676(19) 0.01741(18)
N2 N 0.16892(15) 0.4553(2) -0.0141(2)
N3 N 0.18406(14) 0.4119(2) -0.0933(2)
N4 N 0.35391(13) 0.6396(2) 0.05776(19)
N5 N 0.65616(12) 0.67890(19) 0.19482(18)
N6 N 0.61828(13) 0.39625(19) 0.17843(18)
C1 C 0.23120(17) 0.5360(3) 0.0496(3)
H1 H 0.2363 0.5802 0.1095
C2 C 0.25431(17) 0.4680(3) -0.0724(2)
H2 H 0.2791 0.4559 -0.1137
C3 C 0.43059(14) 0.5982(2) 0.0917(2)
C4 C 0.50250(15) 0.6913(2) 0.1266(2)
C5 C 0.50356(18) 0.8223(3) 0.1285(3)
H3 H 0.4536 0.8697 0.1070
C6 C 0.58326(19) 0.8796(3) 0.1644(3)
H4 H 0.5877 0.9680 0.1674
C7 C 0.65583(18) 0.8064(2) 0.1957(3)
H5 H 0.7081 0.8483 0.2190
C8 C 0.57854(14) 0.6259(2) 0.15952(19)
C9 C 0.55991(14) 0.4876(2) 0.15069(19)
C10 C 0.58666(18) 0.2771(3) 0.1672(3)
H6 H 0.6252 0.2093 0.1862
C11 C 0.50092(18) 0.2493(2) 0.1295(3)
H7 H 0.4835 0.1649 0.1243
C12 C 0.44105(16) 0.3457(2) 0.0995(2)
H8 H 0.3830 0.3282 0.0738
C13 C 0.47020(15) 0.4696(2) 0.10895(19)
loop_
_geom_bond_atom_site_label_1
_geom_bond_atom_site_label_2
_geom_bond_site_symmetry_1
_geom_bond_site_symmetry_2
N1 N4 1_555 1_555
N2 N3 1_555 1_555
N3 C2 1_555 1_555
N4 C3 1_555 1_555
N5 C7 1_555 1_555
N6 C9 1_555 1_555
C1 N1 1_555 1_555
H1 C1 1_555 1_555
C2 N1 1_555 1_555
H2 C2 1_555 1_555
C3 C4 1_555 1_555
C4 C5 1_555 1_555
C5 H3 1_555 1_555
C6 C5 1_555 1_555
H4 C6 1_555 1_555
C7 C6 1_555 1_555
H5 C7 1_555 1_555
C8 N5 1_555 1_555
C9 C8 1_555 1_555
C10 N6 1_555 1_555
H6 C10 1_555 1_555
C11 C10 1_555 1_555
H7 C11 1_555 1_555
C12 C11 1_555 1_555
H8 C12 1_555 1_555
C13 C3 1_555 1_555
N2 C1 1_555 1_555
C4 C8 1_555 1_555
C9 C13 1_555 1_555
C12 C13 1_555 1_555

#END
