
#######################################################################
#
#                 Cambridge Crystallographic Data Centre
#                                CCDC 
#
#######################################################################
#
# If this CIF has been generated from an entry in the Cambridge 
# Structural Database, then it will include bibliographic, chemical, 
# crystal, experimental, refinement or atomic coordinate data resulting 
# from the CCDC's data processing and validation procedures.
#
#######################################################################

data_BERHUE
_chemical_formula_moiety         'C19 H23 N1 O1 Se1'
_chemical_name_systematic        N-[3-(phenylselanyl)hexan-2-yl]benzamide
_symmetry_cell_setting           monoclinic
_symmetry_space_group_name_H-M   'P 21'
_symmetry_Int_Tables_number      4
_space_group_name_Hall           'P 2yb'
loop_
_symmetry_equiv_pos_site_id
_symmetry_equiv_pos_as_xyz
1 x,y,z
2 -x,1/2+y,-z
_cell_length_a                   5.3670(4)
_cell_length_b                   8.3352(6)
_cell_length_c                   18.9301(14)
_cell_angle_alpha                90
_cell_angle_beta                 94.546(2)
_cell_angle_gamma                90
_cell_volume                     844.174
_exptl_crystal_colour            colorless
_exptl_crystal_description       lath
_cell_formula_units_Z            2
loop_
_atom_site_label
_atom_site_type_symbol
_atom_site_fract_x
_atom_site_fract_y
_atom_site_fract_z
C1 C 0.5300(5) -0.0003(4) 0.33689(15)
H1 H 0.547955 -0.089303 0.303875
H2 H 0.5114 -0.042883 0.384431
H3 H 0.678741 0.068172 0.338002
C2 C 0.3006(4) 0.0977(3) 0.31267(12)
H4 H 0.153113 0.024264 0.312003
N1 N 0.3239(4) 0.1497(3) 0.23990(10)
H5 H 0.474(5) 0.160(5) 0.229(2)
C3 C 0.1236(4) 0.1856(3) 0.19605(12)
O1 O -0.0932(3) 0.1735(3) 0.21296(10)
C4 C 0.1753(4) 0.2430(3) 0.12364(12)
C5 C 0.3853(5) 0.1939(3) 0.09017(13)
H6 H 0.50382 0.123602 0.113807
C6 C 0.4203(5) 0.2478(4) 0.02250(14)
H7 H 0.560401 0.211641 -0.000734
C7 C 0.2520(6) 0.3544(4) -0.01175(14)
H8 H 0.27788 0.391871 -0.057997
C8 C 0.0462(5) 0.4058(5) 0.02199(12)
H9 H -0.067842 0.480087 -0.000806
C9 C 0.0069(5) 0.3486(4) 0.08908(14)
H10 H -0.136545 0.382003 0.11152
C10 C 0.2468(4) 0.2410(3) 0.36055(12)
H11 H 0.087735 0.29224 0.340814
Se1 Se 0.51376(4) 0.40499(3) 0.36207(2)
C11 C 0.4057(5) 0.5301(3) 0.28027(13)
C12 C 0.5549(5) 0.5343(4) 0.22388(15)
H12 H 0.700155 0.469014 0.22456
C13 C 0.4928(6) 0.6335(4) 0.16656(16)
H13 H 0.596588 0.63692 0.128211
C14 C 0.2799(6) 0.7276(4) 0.16486(17)
H14 H 0.237593 0.795269 0.125338
C15 C 0.1289(6) 0.7231(4) 0.22077(18)
H15 H -0.017882 0.787047 0.219538
C16 C 0.1923(5) 0.6246(4) 0.27884(15)
H16 H 0.089618 0.622029 0.317464
C17 C 0.2110(5) 0.1889(3) 0.43626(13)
H17 H 0.090228 0.098912 0.434506
H18 H 0.372502 0.147506 0.457795
C18 C 0.1191(5) 0.3184(3) 0.48448(13)
H19 H 0.254034 0.397945 0.494902
H20 H -0.024494 0.374806 0.459528
C19 C 0.0400(6) 0.2507(3) 0.55353(15)
H21 H -0.101409 0.177598 0.543689
H22 H -0.00975 0.338682 0.583763
H23 H 0.180163 0.192172 0.577816
loop_
_geom_bond_atom_site_label_1
_geom_bond_atom_site_label_2
_geom_bond_site_symmetry_1
_geom_bond_site_symmetry_2
C1 H1 1_555 1_555
H2 C1 1_555 1_555
H3 C1 1_555 1_555
C2 C1 1_555 1_555
H4 C2 1_555 1_555
N1 C2 1_555 1_555
H5 N1 1_555 1_555
C3 N1 1_555 1_555
O1 C3 1_555 1_555
C4 C3 1_555 1_555
C5 C4 1_555 1_555
H6 C5 1_555 1_555
C6 C5 1_555 1_555
H7 C6 1_555 1_555
C7 C6 1_555 1_555
H8 C7 1_555 1_555
C8 C7 1_555 1_555
H9 C8 1_555 1_555
C9 C4 1_555 1_555
H10 C9 1_555 1_555
C10 C2 1_555 1_555
H11 C10 1_555 1_555
Se1 C10 1_555 1_555
C11 Se1 1_555 1_555
C12 C11 1_555 1_555
H12 C12 1_555 1_555
C13 C12 1_555 1_555
H13 C13 1_555 1_555
C14 C13 1_555 1_555
H14 C14 1_555 1_555
C15 C14 1_555 1_555
H15 C15 1_555 1_555
C16 C11 1_555 1_555
H16 C16 1_555 1_555
C17 C10 1_555 1_555
H17 C17 1_555 1_555
H18 C17 1_555 1_555
C18 C17 1_555 1_555
H19 C18 1_555 1_555
H20 C18 1_555 1_555
C19 C18 1_555 1_555
H21 C19 1_555 1_555
H22 C19 1_555 1_555
H23 C19 1_555 1_555
C8 C9 1_555 1_555
C15 C16 1_555 1_555

#END
