
#######################################################################
#
#                 Cambridge Crystallographic Data Centre
#                                CCDC 
#
#######################################################################
#
# If this CIF has been generated from an entry in the Cambridge 
# Structural Database, then it will include bibliographic, chemical, 
# crystal, experimental, refinement or atomic coordinate data resulting 
# from the CCDC's data processing and validation procedures.
#
#######################################################################

data_BERMUI
_chemical_formula_moiety         'C22 H16 N2 O4'
_chemical_name_systematic        
'Ethyl 2-(4-cyano-5-oxo-3-phenyl-1,5-dihydro-2H-pyrrol-2-ylidene)-3-oxo-3-phenylpropanoate'
_symmetry_cell_setting           monoclinic
_symmetry_space_group_name_H-M   'P 21/n'
_symmetry_Int_Tables_number      14
_space_group_name_Hall           '-P 2yn'
loop_
_symmetry_equiv_pos_site_id
_symmetry_equiv_pos_as_xyz
1 x,y,z
2 1/2-x,1/2+y,1/2-z
3 -x,-y,-z
4 1/2+x,1/2-y,1/2+z
_cell_length_a                   10.8804(15)
_cell_length_b                   5.4346(7)
_cell_length_c                   31.653(4)
_cell_angle_alpha                90
_cell_angle_beta                 91.258(2)
_cell_angle_gamma                90
_cell_volume                     1871.21
_cell_formula_units_Z            4
loop_
_atom_site_label
_atom_site_type_symbol
_atom_site_fract_x
_atom_site_fract_y
_atom_site_fract_z
C1 C 1.1201(2) 0.0344(4) 0.14519(7)
C2 C 1.0511(2) -0.0195(5) 0.18060(8)
H1 H 0.9871 -0.1324 0.1786
C3 C 1.0778(3) 0.0942(6) 0.21840(8)
H2 H 1.0317 0.0570 0.2420
C4 C 1.1718(3) 0.2625(6) 0.22189(9)
H3 H 1.1879 0.3416 0.2475
C5 C 1.2422(3) 0.3135(6) 0.18733(10)
H4 H 1.3065 0.4258 0.1896
C6 C 1.2172(2) 0.1981(5) 0.14938(9)
H5 H 1.2661 0.2304 0.1263
C7 C 1.0926(2) -0.0827(4) 0.10431(7)
C8 C 1.1696(2) -0.2299(5) 0.08298(8)
C9 C 1.1047(2) -0.3331(5) 0.04522(8)
C10 C 0.9783(2) -0.0623(5) 0.07834(7)
C11 C 1.2926(2) -0.2914(5) 0.09502(9)
C12 C 0.8812(2) 0.0876(5) 0.08423(7)
C13 C 0.7802(2) 0.1044(5) 0.05214(8)
C14 C 0.5987(3) 0.3315(6) 0.03480(9)
H6 H 0.6158 0.2898 0.0057
H7 H 0.5743 0.5030 0.0357
C15 C 0.4971(3) 0.1743(7) 0.05018(11)
H8 H 0.5187 0.0042 0.0470
H9 H 0.4234 0.2083 0.0340
H10 H 0.4836 0.2091 0.0795
C16 C 0.8698(2) 0.2585(4) 0.12156(7)
C17 C 0.7746(2) 0.1993(4) 0.15312(7)
C18 C 0.6974(3) -0.0030(5) 0.14883(9)
H11 H 0.7060 -0.1097 0.1261
C19 C 0.6075(3) -0.0463(7) 0.17840(10)
H12 H 0.5550 -0.1804 0.1752
C20 C 0.5960(3) 0.1092(7) 0.21250(10)
H13 H 0.5345 0.0825 0.2319
C21 C 0.6754(3) 0.3035(7) 0.21771(10)
H14 H 0.6698 0.4040 0.2414
C22 C 0.7634(2) 0.3509(6) 0.18812(9)
H15 H 0.8156 0.4852 0.1916
N1 N 1.3922(2) -0.3373(5) 0.10460(10)
N2 N 0.99351(19) -0.2183(4) 0.04414(6)
H16 H 0.9388 -0.2401 0.0245
O1 O 1.14242(19) -0.4884(4) 0.02097(7)
O2 O 0.76474(19) -0.0337(4) 0.02280(6)
O3 O 0.70854(17) 0.2955(4) 0.06088(6)
O4 O 0.93397(17) 0.4410(3) 0.12482(6)
loop_
_geom_bond_atom_site_label_1
_geom_bond_atom_site_label_2
_geom_bond_site_symmetry_1
_geom_bond_site_symmetry_2
C1 C2 1_555 1_555
C2 H1 1_555 1_555
C3 C2 1_555 1_555
H2 C3 1_555 1_555
C4 C3 1_555 1_555
H3 C4 1_555 1_555
C5 C4 1_555 1_555
H4 C5 1_555 1_555
C6 C1 1_555 1_555
H5 C6 1_555 1_555
C7 C1 1_555 1_555
C8 C7 1_555 1_555
C9 C8 1_555 1_555
C10 C7 1_555 1_555
C11 C8 1_555 1_555
C12 C10 1_555 1_555
C13 C12 1_555 1_555
C14 H6 1_555 1_555
H7 C14 1_555 1_555
C15 C14 1_555 1_555
H8 C15 1_555 1_555
H9 C15 1_555 1_555
H10 C15 1_555 1_555
C16 C12 1_555 1_555
C17 C16 1_555 1_555
C18 C17 1_555 1_555
H11 C18 1_555 1_555
C19 C18 1_555 1_555
H12 C19 1_555 1_555
C20 C19 1_555 1_555
H13 C20 1_555 1_555
C21 C20 1_555 1_555
H14 C21 1_555 1_555
C22 C17 1_555 1_555
H15 C22 1_555 1_555
N1 C11 1_555 1_555
N2 C9 1_555 1_555
H16 N2 1_555 1_555
O1 C9 1_555 1_555
O2 C13 1_555 1_555
O3 C13 1_555 1_555
O4 C16 1_555 1_555
C5 C6 1_555 1_555
C10 N2 1_555 1_555
C14 O3 1_555 1_555
C21 C22 1_555 1_555

#END
