
#######################################################################
#
#                 Cambridge Crystallographic Data Centre
#                                CCDC 
#
#######################################################################
#
# If this CIF has been generated from an entry in the Cambridge 
# Structural Database, then it will include bibliographic, chemical, 
# crystal, experimental, refinement or atomic coordinate data resulting 
# from the CCDC's data processing and validation procedures.
#
#######################################################################

data_BERMYA
_chemical_formula_moiety         'C12 H6 N2 O5 S1,2(H2 O1)'
_chemical_name_systematic        'Berninamycinic acid dihydrate'
_symmetry_cell_setting           monoclinic
_symmetry_space_group_name_H-M   'P 21/c'
_symmetry_Int_Tables_number      14
_space_group_name_Hall           '-P 2ybc'
loop_
_symmetry_equiv_pos_site_id
_symmetry_equiv_pos_as_xyz
1 x,y,z
2 -x,1/2+y,1/2-z
3 -x,-y,-z
4 x,1/2-y,1/2+z
_cell_length_a                   8.499(3)
_cell_length_b                   7.116(4)
_cell_length_c                   22.158(14)
_cell_angle_alpha                90
_cell_angle_beta                 108.08
_cell_angle_gamma                90
_cell_volume                     1273.92
_cell_formula_units_Z            4
loop_
_atom_site_label
_atom_site_type_symbol
_atom_site_fract_x
_atom_site_fract_y
_atom_site_fract_z
S1 S 0.33850 0.23010 0.32620
O1 O 0.35810 0.16070 0.58920
O2 O -0.17480 0.02920 0.30710
O3 O -0.08960 -0.01210 0.41040
O4 O 1.04430 0.45680 0.60340
O5 O 0.91010 0.35950 0.66900
N1 N 0.22640 0.15770 0.41740
N2 N 0.63770 0.28490 0.56950
C1 C 0.13900 0.15230 0.30960
C2 C 0.09360 0.11890 0.36150
C3 C 0.21940 0.13950 0.47920
C4 C 0.35640 0.17900 0.52960
C5 C 0.50470 0.24490 0.51830
C6 C 0.77430 0.34190 0.55800
C7 C 0.78950 0.35880 0.49750
C8 C 0.65550 0.32150 0.44570
C9 C 0.50920 0.26270 0.45610
C10 C 0.36340 0.21800 0.40490
C11 C -0.07230 0.03990 0.35950
C12 C 0.91870 0.38580 0.61700
H1 H 0.07700 0.15200 0.26300
H2 H 0.11800 0.09300 0.48400
H3 H 0.25400 0.09000 0.59600
H4 H 0.89400 0.39900 0.49200
H5 H 0.65900 0.33300 0.40000
H6 H 1.13300 0.47600 0.63200
O6 O 0.60210 0.22300 0.21050
H7 H 0.63300 0.25000 0.16900
H8 H 0.73300 0.15700 0.23000
O7 O 0.31790 0.00580 0.19550
H9 H 0.41800 0.08600 0.20100
H10 H 0.34300 -0.06200 0.23700
loop_
_geom_bond_atom_site_label_1
_geom_bond_atom_site_label_2
_geom_bond_site_symmetry_1
_geom_bond_site_symmetry_2
S1 C1 1_555 1_555
O1 C4 1_555 1_555
O2 C11 1_555 1_555
O3 C11 1_555 1_555
O4 C12 1_555 1_555
O5 C12 1_555 1_555
O6 H7 1_555 1_555
O7 H9 1_555 1_555
N1 C2 1_555 1_555
N2 C5 1_555 1_555
C1 C2 1_555 1_555
C2 C11 1_555 1_555
C3 N1 1_555 1_555
C4 C3 1_555 1_555
C5 C4 1_555 1_555
C6 N2 1_555 1_555
C7 C6 1_555 1_555
C8 C7 1_555 1_555
C9 C5 1_555 1_555
C10 S1 1_555 1_555
C12 C6 1_555 1_555
H1 C1 1_555 1_555
H2 C3 1_555 1_555
H3 O1 1_555 1_555
H4 C7 1_555 1_555
H5 C8 1_555 1_555
H6 O4 1_555 1_555
H8 O6 1_555 1_555
H10 O7 1_555 1_555
N1 C10 1_555 1_555
C8 C9 1_555 1_555
C9 C10 1_555 1_555

#END
