
#######################################################################
#
#                 Cambridge Crystallographic Data Centre
#                                CCDC 
#
#######################################################################
#
# If this CIF has been generated from an entry in the Cambridge 
# Structural Database, then it will include bibliographic, chemical, 
# crystal, experimental, refinement or atomic coordinate data resulting 
# from the CCDC's data processing and validation procedures.
#
#######################################################################

data_BERMAO
_chemical_formula_moiety         'C50 H53 O3 1-,C7 H8,K1 1+'
_chemical_name_systematic        
'Potassium 2-(((2-hydroxy-3,5-bis(2-phenylpropan-2-yl)benzyl)oxy)methyl)-4,6-bis(2-phenylpropan-2-yl)phenolate toluene solvate'
_symmetry_cell_setting           monoclinic
_symmetry_space_group_name_H-M   'P 21/c'
_symmetry_Int_Tables_number      14
_space_group_name_Hall           '-P 2ybc'
loop_
_symmetry_equiv_pos_site_id
_symmetry_equiv_pos_as_xyz
1 x,y,z
2 -x,1/2+y,1/2-z
3 -x,-y,-z
4 x,1/2-y,1/2+z
_cell_length_a                   14.889(3)
_cell_length_b                   11.600(2)
_cell_length_c                   27.630(6)
_cell_angle_alpha                90
_cell_angle_beta                 100.77(3)
_cell_angle_gamma                90
_cell_volume                     4687.99
_exptl_crystal_colour            colorless
_exptl_crystal_description       block
_cell_formula_units_Z            4
loop_
_atom_site_label
_atom_site_type_symbol
_atom_site_fract_x
_atom_site_fract_y
_atom_site_fract_z
K1 K 0.65450(3) 0.36326(4) 0.509782(18)
O1 O 0.60661(8) 0.52398(11) 0.44080(5)
O2 O 0.65940(8) 0.58104(11) 0.55351(5)
O3 O 0.53511(9) 0.36499(11) 0.56891(5)
H1 H 0.468(2) 0.411(2) 0.5642(11)
C1 C 0.68465(12) 0.58512(16) 0.44402(7)
C2 C 0.74078(12) 0.57054(16) 0.40847(7)
C3 C 0.82017(12) 0.63568(16) 0.41349(7)
H2 H 0.8572 0.6267 0.3901
C4 C 0.84732(12) 0.71384(16) 0.45179(7)
C5 C 0.79228(12) 0.72391(16) 0.48659(7)
H3 H 0.8095 0.7738 0.5130
C6 C 0.71154(12) 0.66120(16) 0.48312(7)
C7 C 0.65266(12) 0.67799(16) 0.52085(7)
H4 H 0.6715 0.7473 0.5397
H5 H 0.5896 0.6878 0.5045
C8 C 0.59636(12) 0.59461(17) 0.58673(7)
H6 H 0.5341 0.5891 0.5686
H7 H 0.6043 0.6700 0.6021
C9 C 0.61294(12) 0.50309(16) 0.62540(7)
C10 C 0.66000(12) 0.52948(17) 0.67219(8)
H8 H 0.6807 0.6045 0.6788
C11 C 0.67749(13) 0.44849(18) 0.70958(7)
C12 C 0.64597(13) 0.33682(19) 0.69806(8)
H9 H 0.6574 0.2807 0.7225
C13 C 0.59808(13) 0.30520(17) 0.65163(8)
C14 C 0.58089(12) 0.39030(17) 0.61449(7)
C15 C 0.71148(13) 0.48786(17) 0.36459(8)
C16 C 0.78642(15) 0.47268(19) 0.33371(8)
H10 H 0.7654 0.4208 0.3069
H11 H 0.8404 0.4417 0.3540
H12 H 0.8003 0.5461 0.3209
C17 C 0.62766(14) 0.53865(19) 0.33035(8)
H13 H 0.6089 0.4877 0.3029
H14 H 0.6431 0.6125 0.3185
H15 H 0.5786 0.5474 0.3482
C18 C 0.69247(13) 0.36807(17) 0.38394(8)
C19 C 0.76149(14) 0.31203(18) 0.41625(8)
H16 H 0.8241 0.3406 0.4189
C20 C 0.74953(15) 0.20251(19) 0.43352(9)
H17 H 0.8038 0.1568 0.4471
C21 C 0.66708(16) 0.1460(2) 0.41859(9)
H18 H 0.6587 0.0719 0.4298
C22 C 0.59782(16) 0.2006(2) 0.38697(9)
H19 H 0.5421 0.1634 0.3770
C23 C 0.61049(13) 0.31025(19) 0.36995(8)
H20 H 0.5629 0.3460 0.3486
C24 C 0.93163(12) 0.79014(17) 0.45193(8)
C25 C 0.96866(14) 0.8412(2) 0.50311(8)
H21 H 1.0211 0.8882 0.5016
H22 H 0.9858 0.7798 0.5263
H23 H 0.9222 0.8874 0.5134
C26 C 0.90195(14) 0.89093(18) 0.41691(9)
H24 H 0.8784 0.8618 0.3845
H25 H 0.9536 0.9398 0.4158
H26 H 0.8553 0.9344 0.4284
C27 C 1.00744(12) 0.71807(17) 0.43638(8)
C28 C 1.03780(14) 0.7369(2) 0.39276(9)
H27 H 1.0126 0.7966 0.3722
C29 C 1.10521(15) 0.6682(2) 0.37912(11)
H28 H 1.1237 0.6814 0.3493
C30 C 1.14435(16) 0.5820(3) 0.40896(14)
H29 H 1.1901 0.5369 0.3998
C31 C 1.11593(16) 0.5615(2) 0.45313(13)
H30 H 1.1426 0.5027 0.4738
C32 C 1.04720(14) 0.62927(19) 0.46637(9)
H31 H 1.0277 0.6146 0.4958
C33 C 0.72519(14) 0.4855(2) 0.76117(8)
C34 C 0.75718(16) 0.3822(2) 0.79515(9)
H32 H 0.7054 0.3356 0.7984
H33 H 0.7861 0.4099 0.8270
H34 H 0.7999 0.3369 0.7812
C35 C 0.65657(17) 0.5528(3) 0.78475(9)
H35 H 0.6350 0.6181 0.7645
H36 H 0.6857 0.5789 0.8168
H37 H 0.6059 0.5038 0.7877
C36 C 0.81016(14) 0.55697(19) 0.75713(8)
C37 C 0.82598(17) 0.6668(2) 0.77576(9)
H38 H 0.7827 0.7020 0.7911
C38 C 0.9050(2) 0.7256(2) 0.77199(10)
H39 H 0.9144 0.7993 0.7852
C39 C 0.96896(19) 0.6778(3) 0.74939(10)
H40 H 1.0219 0.7182 0.7470
C40 C 0.95486(16) 0.5691(3) 0.73007(9)
H41 H 0.9985 0.5353 0.7145
C41 C 0.87577(14) 0.5096(2) 0.73363(8)
H42 H 0.8666 0.4363 0.7200
C42 C 0.56471(13) 0.18158(18) 0.64035(8)
C43 C 0.45898(14) 0.1806(2) 0.62461(10)
H43 H 0.4413 0.2286 0.5961
H44 H 0.4318 0.2095 0.6511
H45 H 0.4384 0.1032 0.6169
C44 C 0.58780(16) 0.1037(2) 0.68581(9)
H46 H 0.6529 0.1016 0.6968
H47 H 0.5657 0.0271 0.6774
H48 H 0.5592 0.1335 0.7116
C45 C 0.61175(13) 0.12853(17) 0.60109(8)
C46 C 0.57015(15) 0.04527(19) 0.56834(9)
H49 H 0.5094 0.0259 0.5680
C47 C 0.61697(17) -0.0095(2) 0.53619(10)
H50 H 0.5873 -0.0648 0.5145
C48 C 0.70723(16) 0.0169(2) 0.53591(9)
H51 H 0.7390 -0.0208 0.5146
C49 C 0.74899(15) 0.0998(2) 0.56763(10)
H52 H 0.8097 0.1189 0.5676
C50 C 0.70229(14) 0.15547(19) 0.59961(9)
H53 H 0.7396 0.1807 0.6309
C51 C 0.74184(18) 0.8650(2) 0.66117(13)
H54 H 0.7018 0.8019 0.6498
H55 H 0.7182 0.9344 0.6445
H56 H 0.7458 0.8746 0.6960
C52 C 0.83436(16) 0.8408(2) 0.65058(10)
C53 C 0.85465(18) 0.7398(2) 0.62853(9)
H57 H 0.8089 0.6855 0.6189
C54 C 0.94154(19) 0.7182(2) 0.62053(9)
H58 H 0.9541 0.6496 0.6057
C55 C 1.01013(19) 0.7983(2) 0.63440(9)
H59 H 1.0691 0.7838 0.6293
C56 C 0.99034(18) 0.8992(2) 0.65583(9)
H60 H 1.0360 0.9538 0.6651
C57 C 0.90361(19) 0.9204(2) 0.66375(10)
H61 H 0.8912 0.9895 0.6782
loop_
_geom_bond_atom_site_label_1
_geom_bond_atom_site_label_2
_geom_bond_site_symmetry_1
_geom_bond_site_symmetry_2
O1 C1 1_555 1_555
O2 C7 1_555 1_555
O3 H1 1_555 1_555
C1 C2 1_555 1_555
C2 C3 1_555 1_555
C3 H2 1_555 1_555
C4 C3 1_555 1_555
C5 C4 1_555 1_555
H3 C5 1_555 1_555
C6 C1 1_555 1_555
C7 C6 1_555 1_555
H4 C7 1_555 1_555
H5 C7 1_555 1_555
C8 O2 1_555 1_555
H6 C8 1_555 1_555
H7 C8 1_555 1_555
C9 C8 1_555 1_555
C10 C9 1_555 1_555
H8 C10 1_555 1_555
C11 C10 1_555 1_555
C12 C11 1_555 1_555
H9 C12 1_555 1_555
C13 C12 1_555 1_555
C14 O3 1_555 1_555
C15 C2 1_555 1_555
C16 C15 1_555 1_555
H10 C16 1_555 1_555
H11 C16 1_555 1_555
H12 C16 1_555 1_555
C17 C15 1_555 1_555
H13 C17 1_555 1_555
H14 C17 1_555 1_555
H15 C17 1_555 1_555
C18 C15 1_555 1_555
C19 C18 1_555 1_555
H16 C19 1_555 1_555
C20 C19 1_555 1_555
H17 C20 1_555 1_555
C21 C20 1_555 1_555
H18 C21 1_555 1_555
C22 C21 1_555 1_555
H19 C22 1_555 1_555
C23 C18 1_555 1_555
H20 C23 1_555 1_555
C24 C4 1_555 1_555
C25 C24 1_555 1_555
H21 C25 1_555 1_555
H22 C25 1_555 1_555
H23 C25 1_555 1_555
C26 C24 1_555 1_555
H24 C26 1_555 1_555
H25 C26 1_555 1_555
H26 C26 1_555 1_555
C27 C24 1_555 1_555
C28 C27 1_555 1_555
H27 C28 1_555 1_555
C29 C28 1_555 1_555
H28 C29 1_555 1_555
C30 C29 1_555 1_555
H29 C30 1_555 1_555
C31 C30 1_555 1_555
H30 C31 1_555 1_555
C32 C27 1_555 1_555
H31 C32 1_555 1_555
C33 C11 1_555 1_555
C34 C33 1_555 1_555
H32 C34 1_555 1_555
H33 C34 1_555 1_555
H34 C34 1_555 1_555
C35 C33 1_555 1_555
H35 C35 1_555 1_555
H36 C35 1_555 1_555
H37 C35 1_555 1_555
C36 C33 1_555 1_555
C37 C36 1_555 1_555
H38 C37 1_555 1_555
C38 C37 1_555 1_555
H39 C38 1_555 1_555
C39 C38 1_555 1_555
H40 C39 1_555 1_555
C40 C39 1_555 1_555
H41 C40 1_555 1_555
C41 C36 1_555 1_555
H42 C41 1_555 1_555
C42 C13 1_555 1_555
C43 C42 1_555 1_555
H43 C43 1_555 1_555
H44 C43 1_555 1_555
H45 C43 1_555 1_555
C44 C42 1_555 1_555
H46 C44 1_555 1_555
H47 C44 1_555 1_555
H48 C44 1_555 1_555
C45 C42 1_555 1_555
C46 C45 1_555 1_555
H49 C46 1_555 1_555
C47 C46 1_555 1_555
H50 C47 1_555 1_555
C48 C47 1_555 1_555
H51 C48 1_555 1_555
C49 C48 1_555 1_555
H52 C49 1_555 1_555
C50 C45 1_555 1_555
H53 C50 1_555 1_555
C51 H54 1_555 1_555
H55 C51 1_555 1_555
H56 C51 1_555 1_555
C52 C51 1_555 1_555
C53 C52 1_555 1_555
H57 C53 1_555 1_555
C54 C53 1_555 1_555
H58 C54 1_555 1_555
C55 C54 1_555 1_555
H59 C55 1_555 1_555
C56 C55 1_555 1_555
H60 C56 1_555 1_555
C57 C52 1_555 1_555
H61 C57 1_555 1_555
C5 C6 1_555 1_555
C9 C14 1_555 1_555
C13 C14 1_555 1_555
C22 C23 1_555 1_555
C31 C32 1_555 1_555
C40 C41 1_555 1_555
C49 C50 1_555 1_555
C56 C57 1_555 1_555

#END
