
#######################################################################
#
#                 Cambridge Crystallographic Data Centre
#                                CCDC 
#
#######################################################################
#
# If this CIF has been generated from an entry in the Cambridge 
# Structural Database, then it will include bibliographic, chemical, 
# crystal, experimental, refinement or atomic coordinate data resulting 
# from the CCDC's data processing and validation procedures.
#
#######################################################################

data_BERROI
_chemical_formula_moiety         'C27 H34 Cl4 Si3'
_chemical_name_systematic        
1,1,3,3-tetrachloro-1,2,3-tris(2,4,6-trimethylphenyl)trisilane
_symmetry_cell_setting           monoclinic
_symmetry_space_group_name_H-M   'P 21/c'
_symmetry_Int_Tables_number      14
_space_group_name_Hall           '-P 2ybc'
loop_
_symmetry_equiv_pos_site_id
_symmetry_equiv_pos_as_xyz
1 x,y,z
2 -x,1/2+y,1/2-z
3 -x,-y,-z
4 x,1/2-y,1/2+z
_cell_length_a                   9.7979(10)
_cell_length_b                   29.913(3)
_cell_length_c                   30.341(3)
_cell_angle_alpha                90
_cell_angle_beta                 90.8860(10)
_cell_angle_gamma                90
_cell_volume                     8891.42
_exptl_crystal_colour            colorless
_exptl_crystal_description       prism
_cell_formula_units_Z            12
loop_
_atom_site_label
_atom_site_type_symbol
_atom_site_fract_x
_atom_site_fract_y
_atom_site_fract_z
Si1 Si 0.40770(6) 0.269740(17) 0.155921(17)
Si2 Si 0.46707(5) 0.204474(18) 0.116501(17)
H1 H 0.539(2) 0.1782(8) 0.1471(7)
Si3 Si 0.61650(6) 0.230208(19) 0.061040(18)
Cl1 Cl 0.58700(5) 0.282688(18) 0.191181(17)
Cl2 Cl 0.39777(5) 0.320407(16) 0.109280(16)
Cl3 Cl 0.48857(6) 0.24196(2) 0.007812(17)
Cl4 Cl 0.73171(6) 0.176050(19) 0.03957(2)
C1 C 0.2604(2) 0.27476(6) 0.19448(6)
C2 C 0.1816(2) 0.23706(6) 0.20615(6)
C3 C 0.0671(2) 0.24253(7) 0.23231(6)
H2 H 0.0129 0.2171 0.2388
C4 C 0.0296(2) 0.28367(8) 0.24923(7)
C5 C 0.1118(2) 0.32021(7) 0.23971(7)
H3 H 0.0895 0.3485 0.2519
C6 C 0.2257(2) 0.31691(7) 0.21296(6)
C7 C 0.2174(2) 0.18968(6) 0.19304(7)
H4 H 0.1677 0.1686 0.2116
H5 H 0.3158 0.1850 0.1970
H6 H 0.1919 0.1848 0.1620
C8 C -0.0946(3) 0.28830(9) 0.27797(9)
H7 H -0.0786 0.3120 0.2998
H8 H -0.1114 0.2600 0.2932
H9 H -0.1743 0.2960 0.2596
C9 C 0.3076(2) 0.35917(7) 0.20565(7)
H10 H 0.2846 0.3716 0.1766
H11 H 0.4053 0.3521 0.2071
H12 H 0.2860 0.3811 0.2285
C10 C 0.3378(2) 0.16716(6) 0.08808(6)
C11 C 0.21625(19) 0.18452(6) 0.06967(6)
C12 C 0.1285(2) 0.15682(7) 0.04531(6)
H13 H 0.0464 0.1690 0.0333
C13 C 0.1581(2) 0.11204(7) 0.03825(6)
C14 C 0.2766(2) 0.09486(7) 0.05750(7)
H14 H 0.2972 0.0641 0.0535
C15 C 0.3660(2) 0.12100(6) 0.08244(6)
C16 C 0.1766(2) 0.23278(7) 0.07589(7)
H15 H 0.2405 0.2520 0.0601
H16 H 0.1798 0.2402 0.1074
H17 H 0.0839 0.2376 0.0643
C17 C 0.0654(2) 0.08322(8) 0.01013(8)
H18 H -0.0268 0.0959 0.0098
H19 H 0.0630 0.0529 0.0223
H20 H 0.1000 0.0821 -0.0200
C18 C 0.4900(2) 0.09874(7) 0.10340(8)
H21 H 0.4920 0.0671 0.0950
H22 H 0.4852 0.1012 0.1355
H23 H 0.5731 0.1135 0.0932
C19 C 0.73775(19) 0.27638(6) 0.07548(6)
C20 C 0.74052(19) 0.31949(6) 0.05566(6)
C21 C 0.8382(2) 0.35037(7) 0.06996(6)
H24 H 0.8410 0.3788 0.0560
C22 C 0.9316(2) 0.34137(7) 0.10369(7)
C23 C 0.9265(2) 0.29962(7) 0.12341(7)
H25 H 0.9882 0.2930 0.1470
C24 C 0.8336(2) 0.26718(7) 0.10969(7)
C25 C 0.6455(2) 0.33465(7) 0.01885(6)
H26 H 0.6656 0.3658 0.0113
H27 H 0.5507 0.3323 0.0285
H28 H 0.6585 0.3157 -0.0071
C26 C 1.0371(2) 0.37537(7) 0.11796(8)
H29 H 1.0094 0.3892 0.1457
H30 H 1.0450 0.3984 0.0952
H31 H 1.1255 0.3605 0.1223
C27 C 0.8445(2) 0.22216(7) 0.13262(8)
H32 H 0.7535 0.2087 0.1345
H33 H 0.8829 0.2263 0.1624
H34 H 0.9040 0.2024 0.1158
Si4 Si 0.02868(5) 0.384679(18) 0.948527(17)
Si5 Si 0.16798(5) 0.414234(16) 0.892730(16)
H35 H 0.080(2) 0.4399(8) 0.8633(7)
Si6 Si 0.23362(6) 0.352425(18) 0.849838(18)
Cl5 Cl -0.08687(6) 0.436682(18) 0.974397(19)
Cl6 Cl 0.16376(6) 0.371329(19) 0.999662(16)
Cl7 Cl 0.25641(8) 0.300268(18) 0.89465(2)
Cl8 Cl 0.05644(6) 0.33862(3) 0.81494(2)
C28 C -0.08780(19) 0.33752(6) 0.93259(6)
C29 C -0.18580(19) 0.34628(6) 0.89887(6)
C30 C -0.2721(2) 0.31226(7) 0.88415(7)
H36 H -0.3379 0.3187 0.8617
C31 C -0.2653(2) 0.26935(7) 0.90119(8)
C32 C -0.1689(2) 0.26081(7) 0.93408(7)
H37 H -0.1629 0.2315 0.9460
C33 C -0.0808(2) 0.29353(6) 0.95028(6)
C34 C -0.2031(2) 0.39153(7) 0.87704(7)
H38 H -0.2685 0.3891 0.8524
H39 H -0.1148 0.4017 0.8660
H40 H -0.2370 0.4131 0.8986
C35 C -0.3602(3) 0.23293(9) 0.88527(11)
H41 H -0.4536 0.2398 0.8942
H42 H -0.3319 0.2043 0.8982
H43 H -0.3569 0.2310 0.8531
C36 C 0.0160(2) 0.27894(7) 0.98652(7)
H44 H 0.0007 0.2473 0.9932
H45 H 0.0002 0.2969 1.0130
H46 H 0.1103 0.2832 0.9770
C37 C 0.3007(2) 0.45335(6) 0.91619(6)
C38 C 0.2699(2) 0.49953(7) 0.91844(7)
C39 C 0.3714(3) 0.52961(8) 0.93172(7)
H47 H 0.3500 0.5605 0.9333
C40 C 0.5013(3) 0.51577(9) 0.94251(7)
C41 C 0.5302(2) 0.47063(9) 0.94167(7)
H48 H 0.6191 0.4608 0.9500
C42 C 0.4318(2) 0.43870(7) 0.92878(6)
C43 C 0.1307(3) 0.51792(8) 0.90652(9)
H49 H 0.1246 0.5491 0.9163
H50 H 0.0604 0.5001 0.9210
H51 H 0.1169 0.5165 0.8745
C44 C 0.6114(3) 0.54950(11) 0.95529(9)
H52 H 0.6526 0.5616 0.9286
H53 H 0.6819 0.5347 0.9733
H54 H 0.5707 0.5739 0.9722
C45 C 0.4695(2) 0.39003(8) 0.92803(7)
H55 H 0.4763 0.3799 0.8974
H56 H 0.3993 0.3726 0.9430
H57 H 0.5576 0.3858 0.9432
C46 C 0.37890(19) 0.35261(6) 0.81037(6)
C47 C 0.4342(2) 0.39382(7) 0.79638(6)
C48 C 0.5493(2) 0.39416(8) 0.76985(7)
H58 H 0.5861 0.4220 0.7609
C49 C 0.6112(2) 0.35504(8) 0.75623(7)
C50 C 0.5522(2) 0.31480(8) 0.76798(7)
H59 H 0.5918 0.2877 0.7579
C51 C 0.4362(2) 0.31261(7) 0.79412(6)
C52 C 0.3736(2) 0.43842(6) 0.80853(7)
H60 H 0.2738 0.4363 0.8077
H61 H 0.4032 0.4612 0.7875
H62 H 0.4044 0.4467 0.8383
C53 C 0.7394(3) 0.35676(11) 0.72868(9)
H63 H 0.7215 0.3744 0.7020
H64 H 0.7659 0.3263 0.7204
H65 H 0.8135 0.3707 0.7459
C54 C 0.3752(2) 0.26692(7) 0.80234(7)
H66 H 0.4070 0.2459 0.7799
H67 H 0.2754 0.2689 0.8008
H68 H 0.4038 0.2563 0.8316
Si7 Si 0.69375(6) 0.080293(18) 0.869433(18)
Si8 Si 0.74050(6) 0.059342(18) 0.795781(18)
H69 H 0.812(2) 0.0969(7) 0.7796(7)
Si9 Si 0.88949(6) -0.003564(18) 0.797165(18)
Cl9 Cl 0.85949(6) 0.11903(2) 0.888609(19)
Cl10 Cl 0.71726(7) 0.020719(19) 0.903731(18)
Cl11 Cl 0.75587(6) -0.056803(17) 0.80046(2)
Cl12 Cl 0.97058(6) -0.00804(2) 0.734445(18)
C55 C 0.5380(2) 0.11181(6) 0.88692(6)
C56 C 0.4623(2) 0.13685(6) 0.85549(7)
C57 C 0.3448(2) 0.15953(6) 0.86837(7)
H70 H 0.2927 0.1754 0.8468
C58 C 0.3019(2) 0.15959(7) 0.91176(8)
C59 C 0.3815(2) 0.13718(7) 0.94295(7)
H71 H 0.3552 0.1380 0.9730
C60 C 0.4982(2) 0.11359(7) 0.93175(7)
C61 C 0.5060(3) 0.14219(7) 0.80820(7)
H72 H 0.4877 0.1144 0.7920
H73 H 0.6039 0.1488 0.8075
H74 H 0.4549 0.1668 0.7944
C62 C 0.1746(3) 0.18435(8) 0.92529(9)
H75 H 0.1367 0.2006 0.8999
H76 H 0.1977 0.2056 0.9489
H77 H 0.1070 0.1629 0.9359
C63 C 0.5784(2) 0.09171(8) 0.96884(7)
H78 H 0.5489 0.1039 0.9971
H79 H 0.6759 0.0976 0.9652
H80 H 0.5624 0.0594 0.9683
C64 C 0.5955(2) 0.04665(6) 0.75592(6)
C65 C 0.6045(2) 0.06011(6) 0.71123(6)
C66 C 0.4983(2) 0.05001(7) 0.68212(7)
H81 H 0.5059 0.0587 0.6521
C67 C 0.3811(2) 0.02765(7) 0.69517(7)
C68 C 0.3717(2) 0.01549(7) 0.73923(7)
H82 H 0.2914 0.0009 0.7489
C69 C 0.4765(2) 0.02404(6) 0.76964(6)
C70 C 0.7254(2) 0.08567(8) 0.69352(7)
H83 H 0.7164 0.0883 0.6614
H84 H 0.8099 0.0697 0.7010
H85 H 0.7282 0.1156 0.7067
C71 C 0.2687(3) 0.01674(9) 0.66251(8)
H86 H 0.2048 -0.0044 0.6758
H87 H 0.3080 0.0033 0.6361
H88 H 0.2200 0.0442 0.6543
C72 C 0.4578(2) 0.00966(7) 0.81678(7)
H89 H 0.4422 0.0360 0.8352
H90 H 0.5399 -0.0060 0.8273
H91 H 0.3790 -0.0104 0.8185
C73 C 1.0305(2) -0.00706(6) 0.83928(7)
C74 C 1.1038(2) 0.03288(7) 0.84836(7)
C75 C 1.1896(2) 0.03568(7) 0.88536(7)
H92 H 1.2339 0.0632 0.8920
C76 C 1.2115(2) -0.00082(8) 0.91268(7)
C77 C 1.1506(2) -0.04116(7) 0.90109(7)
H93 H 1.1712 -0.0669 0.9183
C78 C 1.0608(2) -0.04547(7) 0.86534(7)
C79 C 1.1025(2) 0.07255(7) 0.81715(7)
H94 H 1.1898 0.0741 0.8019
H95 H 1.0888 0.1001 0.8340
H96 H 1.0281 0.0690 0.7955
C80 C 1.3047(3) 0.00255(9) 0.95280(9)
H97 H 1.2733 -0.0181 0.9756
H98 H 1.3030 0.0332 0.9642
H99 H 1.3980 -0.0052 0.9446
C81 C 1.0064(2) -0.09176(7) 0.85563(8)
H100 H 1.0659 -0.1141 0.8697
H101 H 1.0040 -0.0967 0.8237
H102 H 0.9139 -0.0945 0.8672
loop_
_geom_bond_atom_site_label_1
_geom_bond_atom_site_label_2
_geom_bond_site_symmetry_1
_geom_bond_site_symmetry_2
Si1 Si2 1_555 1_555
Si2 H1 1_555 1_555
Si3 Si2 1_555 1_555
Cl1 Si1 1_555 1_555
Cl2 Si1 1_555 1_555
Cl3 Si3 1_555 1_555
Cl4 Si3 1_555 1_555
C1 Si1 1_555 1_555
C2 C1 1_555 1_555
C3 C2 1_555 1_555
H2 C3 1_555 1_555
C4 C3 1_555 1_555
C5 C4 1_555 1_555
H3 C5 1_555 1_555
C6 C1 1_555 1_555
C7 C2 1_555 1_555
H4 C7 1_555 1_555
H5 C7 1_555 1_555
H6 C7 1_555 1_555
C8 C4 1_555 1_555
H7 C8 1_555 1_555
H8 C8 1_555 1_555
H9 C8 1_555 1_555
C9 C6 1_555 1_555
H10 C9 1_555 1_555
H11 C9 1_555 1_555
H12 C9 1_555 1_555
C10 Si2 1_555 1_555
C11 C10 1_555 1_555
C12 C11 1_555 1_555
H13 C12 1_555 1_555
C13 C12 1_555 1_555
C14 C13 1_555 1_555
H14 C14 1_555 1_555
C15 C10 1_555 1_555
C16 C11 1_555 1_555
H15 C16 1_555 1_555
H16 C16 1_555 1_555
H17 C16 1_555 1_555
C17 C13 1_555 1_555
H18 C17 1_555 1_555
H19 C17 1_555 1_555
H20 C17 1_555 1_555
C18 C15 1_555 1_555
H21 C18 1_555 1_555
H22 C18 1_555 1_555
H23 C18 1_555 1_555
C19 Si3 1_555 1_555
C20 C19 1_555 1_555
C21 C20 1_555 1_555
H24 C21 1_555 1_555
C22 C21 1_555 1_555
C23 C22 1_555 1_555
H25 C23 1_555 1_555
C24 C19 1_555 1_555
C25 C20 1_555 1_555
H26 C25 1_555 1_555
H27 C25 1_555 1_555
H28 C25 1_555 1_555
C26 C22 1_555 1_555
H29 C26 1_555 1_555
H30 C26 1_555 1_555
H31 C26 1_555 1_555
C27 C24 1_555 1_555
H32 C27 1_555 1_555
H33 C27 1_555 1_555
H34 C27 1_555 1_555
Si4 Si5 1_555 1_555
Si5 H35 1_555 1_555
Si6 Si5 1_555 1_555
Cl5 Si4 1_555 1_555
Cl6 Si4 1_555 1_555
Cl7 Si6 1_555 1_555
Cl8 Si6 1_555 1_555
C28 Si4 1_555 1_555
C29 C28 1_555 1_555
C30 C29 1_555 1_555
H36 C30 1_555 1_555
C31 C30 1_555 1_555
C32 C31 1_555 1_555
H37 C32 1_555 1_555
C33 C28 1_555 1_555
C34 C29 1_555 1_555
H38 C34 1_555 1_555
H39 C34 1_555 1_555
H40 C34 1_555 1_555
C35 C31 1_555 1_555
H41 C35 1_555 1_555
H42 C35 1_555 1_555
H43 C35 1_555 1_555
C36 C33 1_555 1_555
H44 C36 1_555 1_555
H45 C36 1_555 1_555
H46 C36 1_555 1_555
C37 Si5 1_555 1_555
C38 C37 1_555 1_555
C39 C38 1_555 1_555
H47 C39 1_555 1_555
C40 C39 1_555 1_555
C41 C40 1_555 1_555
H48 C41 1_555 1_555
C42 C37 1_555 1_555
C43 C38 1_555 1_555
H49 C43 1_555 1_555
H50 C43 1_555 1_555
H51 C43 1_555 1_555
C44 C40 1_555 1_555
H52 C44 1_555 1_555
H53 C44 1_555 1_555
H54 C44 1_555 1_555
C45 C42 1_555 1_555
H55 C45 1_555 1_555
H56 C45 1_555 1_555
H57 C45 1_555 1_555
C46 Si6 1_555 1_555
C47 C46 1_555 1_555
C48 C47 1_555 1_555
H58 C48 1_555 1_555
C49 C48 1_555 1_555
C50 C49 1_555 1_555
H59 C50 1_555 1_555
C51 C46 1_555 1_555
C52 C47 1_555 1_555
H60 C52 1_555 1_555
H61 C52 1_555 1_555
H62 C52 1_555 1_555
C53 C49 1_555 1_555
H63 C53 1_555 1_555
H64 C53 1_555 1_555
H65 C53 1_555 1_555
C54 C51 1_555 1_555
H66 C54 1_555 1_555
H67 C54 1_555 1_555
H68 C54 1_555 1_555
Si7 Si8 1_555 1_555
Si8 H69 1_555 1_555
Si9 Si8 1_555 1_555
Cl9 Si7 1_555 1_555
Cl10 Si7 1_555 1_555
Cl11 Si9 1_555 1_555
Cl12 Si9 1_555 1_555
C55 Si7 1_555 1_555
C56 C55 1_555 1_555
C57 C56 1_555 1_555
H70 C57 1_555 1_555
C58 C57 1_555 1_555
C59 C58 1_555 1_555
H71 C59 1_555 1_555
C60 C55 1_555 1_555
C61 C56 1_555 1_555
H72 C61 1_555 1_555
H73 C61 1_555 1_555
H74 C61 1_555 1_555
C62 C58 1_555 1_555
H75 C62 1_555 1_555
H76 C62 1_555 1_555
H77 C62 1_555 1_555
C63 C60 1_555 1_555
H78 C63 1_555 1_555
H79 C63 1_555 1_555
H80 C63 1_555 1_555
C64 Si8 1_555 1_555
C65 C64 1_555 1_555
C66 C65 1_555 1_555
H81 C66 1_555 1_555
C67 C66 1_555 1_555
C68 C67 1_555 1_555
H82 C68 1_555 1_555
C69 C64 1_555 1_555
C70 C65 1_555 1_555
H83 C70 1_555 1_555
H84 C70 1_555 1_555
H85 C70 1_555 1_555
C71 C67 1_555 1_555
H86 C71 1_555 1_555
H87 C71 1_555 1_555
H88 C71 1_555 1_555
C72 C69 1_555 1_555
H89 C72 1_555 1_555
H90 C72 1_555 1_555
H91 C72 1_555 1_555
C73 Si9 1_555 1_555
C74 C73 1_555 1_555
C75 C74 1_555 1_555
H92 C75 1_555 1_555
C76 C75 1_555 1_555
C77 C76 1_555 1_555
H93 C77 1_555 1_555
C78 C73 1_555 1_555
C79 C74 1_555 1_555
H94 C79 1_555 1_555
H95 C79 1_555 1_555
H96 C79 1_555 1_555
C80 C76 1_555 1_555
H97 C80 1_555 1_555
H98 C80 1_555 1_555
H99 C80 1_555 1_555
C81 C78 1_555 1_555
H100 C81 1_555 1_555
H101 C81 1_555 1_555
H102 C81 1_555 1_555
C5 C6 1_555 1_555
C14 C15 1_555 1_555
C23 C24 1_555 1_555
C32 C33 1_555 1_555
C41 C42 1_555 1_555
C50 C51 1_555 1_555
C59 C60 1_555 1_555
C68 C69 1_555 1_555
C77 C78 1_555 1_555

#END
