
#######################################################################
#
#                 Cambridge Crystallographic Data Centre
#                                CCDC 
#
#######################################################################
#
# If this CIF has been generated from an entry in the Cambridge 
# Structural Database, then it will include bibliographic, chemical, 
# crystal, experimental, refinement or atomic coordinate data resulting 
# from the CCDC's data processing and validation procedures.
#
#######################################################################

data_BERVUR
_chemical_formula_moiety         'C28 H36 N4 2+,2(Br1 1-)'
_chemical_name_systematic        
"3,3'-Butane-1,4-diylbis(1-mesityl-1H-imidazol-3-ium) dibromide unknown solvate"
_symmetry_cell_setting           monoclinic
_symmetry_space_group_name_H-M   'P 21/c'
_symmetry_Int_Tables_number      14
_space_group_name_Hall           '-P 2ybc'
loop_
_symmetry_equiv_pos_site_id
_symmetry_equiv_pos_as_xyz
1 x,y,z
2 -x,1/2+y,1/2-z
3 -x,-y,-z
4 x,1/2-y,1/2+z
_cell_length_a                   14.276(3)
_cell_length_b                   9.1205(18)
_cell_length_c                   13.007(3)
_cell_angle_alpha                90
_cell_angle_beta                 113.75(3)
_cell_angle_gamma                90
_cell_volume                     1550.14
_cell_formula_units_Z            2
loop_
_atom_site_label
_atom_site_type_symbol
_atom_site_fract_x
_atom_site_fract_y
_atom_site_fract_z
Br1 Br 0.31048(11) 0.16365(13) 0.14693(13)
N1 N 0.3719(8) 0.5966(11) 0.1347(9)
N2 N 0.2306(7) 0.6499(9) 0.1504(8)
C1 C 0.2862(8) 0.5399(11) 0.1330(8)
H1 H 0.2673 0.4416 0.1218
C2 C 0.3741(12) 0.7420(15) 0.1574(15)
H2 H 0.4282 0.8052 0.1673
C3 C 0.2844(12) 0.7803(15) 0.1631(12)
H3 H 0.2635 0.8737 0.1732
C4 C 0.4534(9) 0.5141(15) 0.1197(10)
H4 H 0.4433 0.4103 0.1277
H5 H 0.5187 0.5417 0.1783
C5 C 0.4569(10) 0.5405(15) 0.0068(12)
H6 H 0.3925 0.5096 -0.0518
H7 H 0.4647 0.6447 -0.0024
C6 C 0.1302(8) 0.6290(11) 0.1544(9)
C7 C 0.1277(9) 0.5430(13) 0.2410(9)
C8 C 0.0324(11) 0.5195(16) 0.2430(11)
H8 H 0.0278 0.4611 0.2995
C9 C -0.0541(10) 0.5790(16) 0.1654(12)
C10 C -0.0468(11) 0.6604(16) 0.0808(16)
H9 H -0.1069 0.6972 0.0260
C11 C 0.0443(9) 0.6918(12) 0.0715(9)
C12 C 0.2199(13) 0.4808(19) 0.3325(12)
H10 H 0.2005 0.4354 0.3876
H11 H 0.2682 0.5578 0.3671
H12 H 0.2506 0.4089 0.3018
C13 C -0.1614(13) 0.545(3) 0.1641(16)
H13 H -0.2096 0.6175 0.1198
H14 H -0.1575 0.5469 0.2395
H15 H -0.1834 0.4497 0.1321
C14 C 0.0518(13) 0.7868(17) -0.0219(12)
H16 H 0.0870 0.8763 0.0098
H17 H -0.0158 0.8091 -0.0762
H18 H 0.0888 0.7347 -0.0577
N1B N 0.6281(8) 0.4034(11) -0.1347(9)
N2B N 0.7694(7) 0.3501(9) -0.1504(8)
C1B C 0.7138(8) 0.4601(11) -0.1330(8)
H1B H 0.7327 0.5584 -0.1218
C2B C 0.6259(12) 0.2580(15) -0.1574(15)
H2B H 0.5718 0.1948 -0.1673
C3B C 0.7156(12) 0.2197(15) -0.1631(12)
H3B H 0.7365 0.1263 -0.1732
C4B C 0.5466(9) 0.4859(15) -0.1197(10)
H4B H 0.5567 0.5897 -0.1277
H5B H 0.4813 0.4583 -0.1783
C5B C 0.5431(10) 0.4595(15) -0.0068(12)
H6B H 0.6075 0.4904 0.0518
H7B H 0.5353 0.3553 0.0024
C6B C 0.8698(8) 0.3710(11) -0.1544(9)
C7B C 0.8723(9) 0.4570(13) -0.2410(9)
C8B C 0.9676(11) 0.4805(16) -0.2430(11)
H8B H 0.9722 0.5389 -0.2995
C9B C 1.0541(10) 0.4210(16) -0.1654(12)
C10B C 1.0468(11) 0.3396(16) -0.0808(16)
H9B H 1.1069 0.3028 -0.0260
C11B C 0.9557(9) 0.3082(12) -0.0715(9)
C12B C 0.7801(13) 0.5192(19) -0.3325(12)
H10B H 0.7995 0.5646 -0.3876
H11B H 0.7318 0.4422 -0.3671
H12B H 0.7494 0.5911 -0.3018
C13B C 1.1614(13) 0.455(3) -0.1641(16)
H13B H 1.2096 0.3825 -0.1198
H14B H 1.1575 0.4531 -0.2395
H15B H 1.1834 0.5503 -0.1321
C14B C 0.9482(13) 0.2132(17) 0.0219(12)
H16B H 0.9130 0.1237 -0.0098
H17B H 1.0158 0.1909 0.0762
H18B H 0.9112 0.2653 0.0577
loop_
_geom_bond_atom_site_label_1
_geom_bond_atom_site_label_2
_geom_bond_site_symmetry_1
_geom_bond_site_symmetry_2
N1 C1 1_555 1_555
N2 C1 1_555 1_555
C1 H1 1_555 1_555
C2 N1 1_555 1_555
H2 C2 1_555 1_555
C3 N2 1_555 1_555
H3 C3 1_555 1_555
C4 N1 1_555 1_555
H4 C4 1_555 1_555
H5 C4 1_555 1_555
C5 C4 1_555 1_555
H6 C5 1_555 1_555
H7 C5 1_555 1_555
C6 N2 1_555 1_555
C7 C6 1_555 1_555
C8 C7 1_555 1_555
H8 C8 1_555 1_555
C9 C8 1_555 1_555
C10 C9 1_555 1_555
H9 C10 1_555 1_555
C11 C6 1_555 1_555
C12 C7 1_555 1_555
H10 C12 1_555 1_555
H11 C12 1_555 1_555
H12 C12 1_555 1_555
C13 C9 1_555 1_555
H13 C13 1_555 1_555
H14 C13 1_555 1_555
H15 C13 1_555 1_555
C14 C11 1_555 1_555
H16 C14 1_555 1_555
H17 C14 1_555 1_555
H18 C14 1_555 1_555
N1B C1B 1_555 1_555
N2B C1B 1_555 1_555
C1B H1B 1_555 1_555
C2B N1B 1_555 1_555
H2B C2B 1_555 1_555
C3B N2B 1_555 1_555
H3B C3B 1_555 1_555
C4B N1B 1_555 1_555
H4B C4B 1_555 1_555
H5B C4B 1_555 1_555
C5B C5 1_555 1_555
H6B C5B 1_555 1_555
H7B C5B 1_555 1_555
C6B N2B 1_555 1_555
C7B C6B 1_555 1_555
C8B C7B 1_555 1_555
H8B C8B 1_555 1_555
C9B C8B 1_555 1_555
C10B C9B 1_555 1_555
H9B C10B 1_555 1_555
C11B C6B 1_555 1_555
C12B C7B 1_555 1_555
H10B C12B 1_555 1_555
H11B C12B 1_555 1_555
H12B C12B 1_555 1_555
C13B C9B 1_555 1_555
H13B C13B 1_555 1_555
H14B C13B 1_555 1_555
H15B C13B 1_555 1_555
C14B C11B 1_555 1_555
H16B C14B 1_555 1_555
H17B C14B 1_555 1_555
H18B C14B 1_555 1_555
C2 C3 1_555 1_555
C10 C11 1_555 1_555
C2B C3B 1_555 1_555
C4B C5B 1_555 1_555
C10B C11B 1_555 1_555

#END
