
#######################################################################
#
#                 Cambridge Crystallographic Data Centre
#                                CCDC 
#
#######################################################################
#
# If this CIF has been generated from an entry in the Cambridge 
# Structural Database, then it will include bibliographic, chemical, 
# crystal, experimental, refinement or atomic coordinate data resulting 
# from the CCDC's data processing and validation procedures.
#
#######################################################################

data_BERWAY
_chemical_formula_moiety         'C27 H34 N4 2+,H2 O1,2(Br1 1-)'
_chemical_name_systematic        
"3,3'-Propane-1,3-diylbis(1-mesityl-1H-imidazol-3-ium) dibromide monohydrate"
_symmetry_cell_setting           monoclinic
_symmetry_space_group_name_H-M   'P 21/c'
_symmetry_Int_Tables_number      14
_space_group_name_Hall           '-P 2ybc'
loop_
_symmetry_equiv_pos_site_id
_symmetry_equiv_pos_as_xyz
1 x,y,z
2 -x,1/2+y,1/2-z
3 -x,-y,-z
4 x,1/2-y,1/2+z
_cell_length_a                   6.8588(14)
_cell_length_b                   18.823(4)
_cell_length_c                   22.137(4)
_cell_angle_alpha                90
_cell_angle_beta                 93.85(3)
_cell_angle_gamma                90
_cell_volume                     2851.51
_cell_formula_units_Z            4
loop_
_atom_site_label
_atom_site_type_symbol
_atom_site_fract_x
_atom_site_fract_y
_atom_site_fract_z
N1 N -0.1842(4) 0.33454(13) 0.50291(12)
N2 N -0.0511(4) 0.37012(14) 0.42295(12)
N3 N -0.1987(4) 0.11406(13) 0.62150(12)
N4 N -0.0556(4) 0.01249(13) 0.63746(12)
C1 C -0.0235(5) 0.33233(17) 0.47326(15)
H1 H 0.0905 0.3082 0.4857
C2 C -0.3191(5) 0.3757(2) 0.47087(18)
H2 H -0.4449 0.3859 0.4815
C3 C -0.2366(5) 0.3983(2) 0.42153(18)
H3 H -0.2939 0.4278 0.3916
C4 C -0.2078(5) 0.30191(17) 0.56267(16)
H4 H -0.3286 0.3184 0.5783
H5 H -0.1007 0.3165 0.5908
C5 C -0.2114(4) 0.22157(16) 0.55807(15)
H6 H -0.0916 0.2047 0.5421
H7 H -0.3205 0.2065 0.5309
C6 C -0.2316(5) 0.19108(17) 0.62087(16)
H8 H -0.1378 0.2137 0.6494
H9 H -0.3615 0.2011 0.6335
C7 C -0.0405(5) 0.08246(16) 0.64668(15)
H10 H 0.0640 0.1053 0.6674
C8 C -0.3185(5) 0.06324(18) 0.59447(15)
H11 H -0.4381 0.0710 0.5732
C9 C -0.2309(5) 0.00019(18) 0.60439(15)
H12 H -0.2792 -0.0438 0.5914
C10 C 0.0880(4) 0.37964(16) 0.37700(15)
C11 C 0.2088(4) 0.43870(16) 0.38114(15)
C12 C 0.3363(4) 0.44757(17) 0.33536(16)
H13 H 0.4202 0.4864 0.3369
C13 C 0.3417(5) 0.40013(17) 0.28746(16)
C14 C 0.2166(5) 0.34232(17) 0.28549(15)
H14 H 0.2191 0.3106 0.2533
C15 C 0.0873(5) 0.33026(17) 0.33016(15)
C16 C 0.2033(6) 0.49194(19) 0.43152(18)
H15 H 0.0813 0.5171 0.4280
H16 H 0.3090 0.5250 0.4290
H17 H 0.2161 0.4678 0.4698
C17 C 0.4809(6) 0.4114(2) 0.23823(19)
H18 H 0.6113 0.3997 0.2534
H19 H 0.4763 0.4603 0.2257
H20 H 0.4434 0.3815 0.2043
C18 C -0.0420(6) 0.2658(2) 0.3280(2)
H21 H 0.0021 0.2334 0.3596
H22 H -0.0367 0.2429 0.2894
H23 H -0.1740 0.2799 0.3337
C19 C 0.0866(4) -0.03862(15) 0.66155(15)
C20 C 0.2212(5) -0.06571(16) 0.62313(15)
C21 C 0.3613(5) -0.11245(18) 0.64864(18)
H24 H 0.4525 -0.1318 0.6241
C22 C 0.3693(5) -0.13090(18) 0.70892(19)
C23 C 0.2296(6) -0.10394(17) 0.74456(17)
H25 H 0.2328 -0.1171 0.7851
C24 C 0.0838(5) -0.05769(17) 0.72199(15)
C25 C 0.2164(6) -0.0465(2) 0.55703(17)
H26 H 0.1021 -0.0667 0.5363
H27 H 0.3311 -0.0647 0.5399
H28 H 0.2128 0.0043 0.5528
C26 C 0.5242(7) -0.1813(2) 0.7354(2)
H29 H 0.4633 -0.2240 0.7485
H30 H 0.5943 -0.1591 0.7694
H31 H 0.6134 -0.1926 0.7052
C27 C -0.0708(5) -0.0303(2) 0.76130(17)
H32 H -0.0525 0.0198 0.7679
H33 H -0.0607 -0.0546 0.7995
H34 H -0.1977 -0.0385 0.7416
Br1 Br 0.28027(6) 0.16124(2) 0.49048(2)
Br2 Br 0.30549(5) 0.39064(2) 0.595725(19)
O1 O 0.2590(5) 0.21761(16) 0.63206(13)
H35 H 0.265(8) 0.2625(13) 0.628(2)
H36 H 0.269(7) 0.199(2) 0.5956(15)
loop_
_geom_bond_atom_site_label_1
_geom_bond_atom_site_label_2
_geom_bond_site_symmetry_1
_geom_bond_site_symmetry_2
N1 C1 1_555 1_555
N2 C1 1_555 1_555
N3 C6 1_555 1_555
N4 C7 1_555 1_555
C1 H1 1_555 1_555
C2 N1 1_555 1_555
H2 C2 1_555 1_555
C3 N2 1_555 1_555
H3 C3 1_555 1_555
C4 N1 1_555 1_555
H4 C4 1_555 1_555
H5 C4 1_555 1_555
C5 C4 1_555 1_555
H6 C5 1_555 1_555
H7 C5 1_555 1_555
C6 C5 1_555 1_555
H8 C6 1_555 1_555
H9 C6 1_555 1_555
C7 N3 1_555 1_555
H10 C7 1_555 1_555
C8 N3 1_555 1_555
H11 C8 1_555 1_555
C9 N4 1_555 1_555
H12 C9 1_555 1_555
C10 N2 1_555 1_555
C11 C10 1_555 1_555
C12 C11 1_555 1_555
H13 C12 1_555 1_555
C13 C12 1_555 1_555
C14 C13 1_555 1_555
H14 C14 1_555 1_555
C15 C10 1_555 1_555
C16 C11 1_555 1_555
H15 C16 1_555 1_555
H16 C16 1_555 1_555
H17 C16 1_555 1_555
C17 C13 1_555 1_555
H18 C17 1_555 1_555
H19 C17 1_555 1_555
H20 C17 1_555 1_555
C18 C15 1_555 1_555
H21 C18 1_555 1_555
H22 C18 1_555 1_555
H23 C18 1_555 1_555
C19 N4 1_555 1_555
C20 C19 1_555 1_555
C21 C20 1_555 1_555
H24 C21 1_555 1_555
C22 C21 1_555 1_555
C23 C22 1_555 1_555
H25 C23 1_555 1_555
C24 C19 1_555 1_555
C25 C20 1_555 1_555
H26 C25 1_555 1_555
H27 C25 1_555 1_555
H28 C25 1_555 1_555
C26 C22 1_555 1_555
H29 C26 1_555 1_555
H30 C26 1_555 1_555
H31 C26 1_555 1_555
C27 C24 1_555 1_555
H32 C27 1_555 1_555
H33 C27 1_555 1_555
H34 C27 1_555 1_555
O1 H35 1_555 1_555
H36 O1 1_555 1_555
C2 C3 1_555 1_555
C8 C9 1_555 1_555
C14 C15 1_555 1_555
C23 C24 1_555 1_555

#END
