
#######################################################################
#
#                 Cambridge Crystallographic Data Centre
#                                CCDC 
#
#######################################################################
#
# If this CIF has been generated from an entry in the Cambridge 
# Structural Database, then it will include bibliographic, chemical, 
# crystal, experimental, refinement or atomic coordinate data resulting 
# from the CCDC's data processing and validation procedures.
#
#######################################################################

data_BERXEC
_chemical_formula_moiety         'C29 H22 N2 O3'
_chemical_name_systematic        
1-Benzyloxy-3,5-bis(3-oxo-3-(2-pyridyl)propenyl)benzene
_symmetry_cell_setting           triclinic
_symmetry_space_group_name_H-M   'P -1'
_symmetry_Int_Tables_number      2
_space_group_name_Hall           '-P 1'
loop_
_symmetry_equiv_pos_site_id
_symmetry_equiv_pos_as_xyz
1 x,y,z
2 -x,-y,-z
_cell_length_a                   12.665(6)
_cell_length_b                   13.210(7)
_cell_length_c                   13.883(8)
_cell_angle_alpha                104.02(3)
_cell_angle_beta                 95.65(3)
_cell_angle_gamma                95.33(2)
_cell_volume                     2226.1
_exptl_crystal_colour            yellow
_cell_formula_units_Z            4
_exptl_crystal_recrystallization_method 'dichloromethane/ethyl acetate'
loop_
_atom_site_label
_atom_site_type_symbol
_atom_site_fract_x
_atom_site_fract_y
_atom_site_fract_z
O1 O 0.69524(19) 0.67053(19) 0.81203(17)
O2 O 0.5379(2) 0.9286(2) 0.39365(19)
O3 O 0.1881(2) 0.3352(2) 0.5628(2)
N1 N 0.7689(3) 1.0615(2) 0.5532(2)
N2 N 0.3350(3) 0.2577(2) 0.7571(2)
C1 C 0.6229(3) 0.6663(3) 0.7299(3)
C2 C 0.6308(3) 0.7349(3) 0.6693(3)
H1 H 0.6889 0.7894 0.6829
C3 C 0.5525(3) 0.7235(3) 0.5875(3)
C4 C 0.4692(3) 0.6427(3) 0.5690(3)
H2 H 0.4171 0.6339 0.5126
C5 C 0.4596(3) 0.5743(3) 0.6302(3)
C6 C 0.5381(3) 0.5865(3) 0.7115(3)
H3 H 0.5336 0.5403 0.7542
C7 C 0.7872(3) 0.7482(3) 0.8332(3)
H4 H 0.7658 0.8195 0.8559
H5 H 0.8230 0.7449 0.7725
C8 C 0.8606(3) 0.7245(3) 0.9136(3)
C9 C 0.9233(3) 0.6446(3) 0.8905(3)
H6 H 0.9195 0.6051 0.8230
C10 C 0.9917(3) 0.6202(3) 0.9633(3)
H7 H 1.0364 0.5664 0.9457
C11 C 0.9943(3) 0.6754(3) 1.0622(3)
H8 H 1.0388 0.6575 1.1132
C12 C 0.9331(3) 0.7558(3) 1.0867(3)
H9 H 0.9360 0.7943 1.1545
C13 C 0.8667(3) 0.7809(3) 1.0125(3)
H10 H 0.8250 0.8373 1.0297
C14 C 0.5562(3) 0.7951(3) 0.5216(3)
H11 H 0.5101 0.7735 0.4602
C15 C 0.6158(3) 0.8852(3) 0.5380(3)
H12 H 0.6657 0.9084 0.5969
C16 C 0.6072(3) 0.9518(3) 0.4667(3)
C17 C 0.6863(3) 1.0484(3) 0.4820(3)
C18 C 0.6724(3) 1.1164(3) 0.4209(3)
H13 H 0.6112 1.1044 0.3724
C19 C 0.7466(3) 1.1996(3) 0.4311(3)
H14 H 0.7387 1.2466 0.3895
C20 C 0.8344(4) 1.2152(3) 0.5032(3)
H15 H 0.8880 1.2732 0.5124
C21 C 0.8421(3) 1.1438(3) 0.5620(3)
H16 H 0.9027 1.1542 0.6110
C22 C 0.3694(3) 0.4914(3) 0.6094(3)
H17 H 0.3132 0.4943 0.5599
C23 C 0.3580(3) 0.4123(3) 0.6526(3)
H18 H 0.4127 0.4066 0.7023
C24 C 0.2630(3) 0.3330(3) 0.6256(3)
C25 C 0.2591(3) 0.2460(3) 0.6785(3)
C26 C 0.1810(3) 0.1614(3) 0.6472(3)
H19 H 0.1275 0.1577 0.5930
C27 C 0.1819(3) 0.0817(3) 0.6964(3)
H20 H 0.1297 0.0217 0.6758
C28 C 0.2598(3) 0.0914(3) 0.7756(3)
H21 H 0.2630 0.0378 0.8103
C29 C 0.3337(3) 0.1811(3) 0.8038(3)
H22 H 0.3862 0.1879 0.8596
O4 O 0.80210(18) 0.05551(19) 1.05760(18)
O5 O 0.6257(2) 0.3582(2) 0.6807(2)
O6 O 0.3009(2) -0.2831(2) 0.7949(2)
N3 N 0.9075(3) 0.3804(2) 0.7243(2)
N4 N 0.4342(2) -0.3474(2) 1.0043(2)
C30 C 0.7283(3) 0.0563(3) 0.9778(3)
C31 C 0.7314(3) 0.1304(3) 0.9231(2)
H23 H 0.7881 0.1864 0.9393
C32 C 0.6518(3) 0.1241(3) 0.8437(3)
C33 C 0.5691(3) 0.0397(3) 0.8229(3)
H24 H 0.5141 0.0344 0.7696
C34 C 0.5649(3) -0.0353(3) 0.8765(3)
C35 C 0.6455(3) -0.0265(3) 0.9548(3)
H25 H 0.6441 -0.0772 0.9929
C36 C 0.8842(3) 0.1432(3) 1.0905(3)
H26 H 0.8522 0.2092 1.1126
H27 H 0.9261 0.1493 1.0352
C37 C 0.9552(3) 0.1241(3) 1.1759(3)
C38 C 1.0182(3) 0.0430(3) 1.1620(3)
H28 H 1.0154 -0.0033 1.0974
C39 C 1.0853(3) 0.0284(3) 1.2410(3)
H29 H 1.1270 -0.0286 1.2308
C40 C 1.0917(3) 0.0964(3) 1.3345(3)
H30 H 1.1382 0.0868 1.3887
C41 C 1.0307(3) 0.1779(3) 1.3489(3)
H31 H 1.0359 0.2254 1.4131
C42 C 0.9618(3) 0.1915(3) 1.2708(3)
H32 H 0.9186 0.2472 1.2820
C43 C 0.6498(3) 0.2010(3) 0.7840(3)
H33 H 0.5842 0.2013 0.7445
C44 C 0.7298(3) 0.2701(3) 0.7795(3)
H34 H 0.7973 0.2720 0.8169
C45 C 0.7153(3) 0.3450(3) 0.7164(3)
C46 C 0.8112(3) 0.4047(3) 0.6928(3)
C47 C 0.7998(3) 0.4772(3) 0.6364(3)
H35 H 0.7310 0.4947 0.6176
C48 C 0.8895(3) 0.5238(3) 0.6078(3)
H36 H 0.8835 0.5730 0.5682
C49 C 0.9882(4) 0.4973(3) 0.6381(3)
H37 H 1.0513 0.5274 0.6187
C50 C 0.9943(3) 0.4262(3) 0.6972(3)
H38 H 1.0625 0.4097 0.7190
C51 C 0.4762(3) -0.1204(3) 0.8522(3)
H39 H 0.4211 -0.1176 0.8016
C52 C 0.4648(3) -0.1999(3) 0.8928(3)
H40 H 0.5193 -0.2059 0.9425
C53 C 0.3708(3) -0.2807(3) 0.8643(3)
C54 C 0.3614(3) -0.3619(3) 0.9236(3)
C55 C 0.2802(3) -0.4447(3) 0.8957(3)
H41 H 0.2305 -0.4528 0.8377
C56 C 0.2728(3) -0.5155(3) 0.9545(3)
H42 H 0.2178 -0.5731 0.9375
C57 C 0.3456(3) -0.5013(3) 1.0371(3)
H43 H 0.3420 -0.5487 1.0787
C58 C 0.4246(3) -0.4171(3) 1.0594(3)
H44 H 0.4750 -0.4082 1.1171
loop_
_geom_bond_atom_site_label_1
_geom_bond_atom_site_label_2
_geom_bond_site_symmetry_1
_geom_bond_site_symmetry_2
O1 C1 1_555 1_555
O2 C16 1_555 1_555
O3 C24 1_555 1_555
N1 C17 1_555 1_555
N2 C25 1_555 1_555
C1 C2 1_555 1_555
C2 H1 1_555 1_555
C3 C2 1_555 1_555
C4 C3 1_555 1_555
H2 C4 1_555 1_555
C5 C4 1_555 1_555
C6 C1 1_555 1_555
H3 C6 1_555 1_555
C7 O1 1_555 1_555
H4 C7 1_555 1_555
H5 C7 1_555 1_555
C8 C7 1_555 1_555
C9 C8 1_555 1_555
H6 C9 1_555 1_555
C10 C9 1_555 1_555
H7 C10 1_555 1_555
C11 C10 1_555 1_555
H8 C11 1_555 1_555
C12 C11 1_555 1_555
H9 C12 1_555 1_555
C13 C8 1_555 1_555
H10 C13 1_555 1_555
C14 C3 1_555 1_555
H11 C14 1_555 1_555
C15 C14 1_555 1_555
H12 C15 1_555 1_555
C16 C15 1_555 1_555
C17 C16 1_555 1_555
C18 C17 1_555 1_555
H13 C18 1_555 1_555
C19 C18 1_555 1_555
H14 C19 1_555 1_555
C20 C19 1_555 1_555
H15 C20 1_555 1_555
C21 N1 1_555 1_555
H16 C21 1_555 1_555
C22 C5 1_555 1_555
H17 C22 1_555 1_555
C23 C22 1_555 1_555
H18 C23 1_555 1_555
C24 C23 1_555 1_555
C25 C24 1_555 1_555
C26 C25 1_555 1_555
H19 C26 1_555 1_555
C27 C26 1_555 1_555
H20 C27 1_555 1_555
C28 C27 1_555 1_555
H21 C28 1_555 1_555
C29 N2 1_555 1_555
H22 C29 1_555 1_555
O4 C30 1_555 1_555
O5 C45 1_555 1_555
O6 C53 1_555 1_555
N3 C46 1_555 1_555
N4 C54 1_555 1_555
C30 C31 1_555 1_555
C31 H23 1_555 1_555
C32 C31 1_555 1_555
C33 C32 1_555 1_555
H24 C33 1_555 1_555
C34 C33 1_555 1_555
C35 C30 1_555 1_555
H25 C35 1_555 1_555
C36 O4 1_555 1_555
H26 C36 1_555 1_555
H27 C36 1_555 1_555
C37 C36 1_555 1_555
C38 C37 1_555 1_555
H28 C38 1_555 1_555
C39 C38 1_555 1_555
H29 C39 1_555 1_555
C40 C39 1_555 1_555
H30 C40 1_555 1_555
C41 C40 1_555 1_555
H31 C41 1_555 1_555
C42 C37 1_555 1_555
H32 C42 1_555 1_555
C43 C32 1_555 1_555
H33 C43 1_555 1_555
C44 C43 1_555 1_555
H34 C44 1_555 1_555
C45 C44 1_555 1_555
C46 C45 1_555 1_555
C47 C46 1_555 1_555
H35 C47 1_555 1_555
C48 C47 1_555 1_555
H36 C48 1_555 1_555
C49 C48 1_555 1_555
H37 C49 1_555 1_555
C50 N3 1_555 1_555
H38 C50 1_555 1_555
C51 C34 1_555 1_555
H39 C51 1_555 1_555
C52 C51 1_555 1_555
H40 C52 1_555 1_555
C53 C52 1_555 1_555
C54 C53 1_555 1_555
C55 C54 1_555 1_555
H41 C55 1_555 1_555
C56 C55 1_555 1_555
H42 C56 1_555 1_555
C57 C56 1_555 1_555
H43 C57 1_555 1_555
C58 N4 1_555 1_555
H44 C58 1_555 1_555
C5 C6 1_555 1_555
C12 C13 1_555 1_555
C20 C21 1_555 1_555
C28 C29 1_555 1_555
C34 C35 1_555 1_555
C41 C42 1_555 1_555
C49 C50 1_555 1_555
C57 C58 1_555 1_555

#END
