
#######################################################################
#
#                 Cambridge Crystallographic Data Centre
#                                CCDC 
#
#######################################################################
#
# If this CIF has been generated from an entry in the Cambridge 
# Structural Database, then it will include bibliographic, chemical, 
# crystal, experimental, refinement or atomic coordinate data resulting 
# from the CCDC's data processing and validation procedures.
#
#######################################################################

data_BERXIG
_chemical_formula_moiety         'C43 H30 N6 O1'
_chemical_name_systematic        
1-Benzyloxy-3,5-bis(4'-(2,2':6',2''-terpyridyl))benzene
_symmetry_cell_setting           triclinic
_symmetry_space_group_name_H-M   'P -1'
_symmetry_Int_Tables_number      2
_space_group_name_Hall           '-P 1'
loop_
_symmetry_equiv_pos_site_id
_symmetry_equiv_pos_as_xyz
1 x,y,z
2 -x,-y,-z
_cell_length_a                   8.8878(18)
_cell_length_b                   13.261(3)
_cell_length_c                   15.659(3)
_cell_angle_alpha                65.805(3)
_cell_angle_beta                 85.892(4)
_cell_angle_gamma                72.284(4)
_cell_volume                     1600.63
_exptl_crystal_colour            colorless
_exptl_crystal_description       plate
_chemical_melting_point          257-260deg.C
_cell_formula_units_Z            2
_exptl_crystal_recrystallization_method 'chloroform/ethyl acetate'
loop_
_atom_site_label
_atom_site_type_symbol
_atom_site_fract_x
_atom_site_fract_y
_atom_site_fract_z
O1 O 0.7932(2) 0.56146(13) 0.30773(11)
N1 N 0.4546(2) 0.04697(17) 0.23245(14)
N2 N 0.6791(2) -0.02203(15) 0.44260(13)
N3 N 0.9023(2) 0.01237(15) 0.60703(13)
N4 N -0.0649(2) 0.52057(16) 0.10205(13)
N5 N 0.0770(2) 0.77093(15) 0.00307(12)
N6 N 0.3107(2) 0.96141(17) -0.02427(13)
C1 C 0.3916(3) -0.0068(2) 0.19505(19)
H1 H 0.3364 0.0377 0.1352
C2 C 0.4020(3) -0.1223(2) 0.23792(19)
H2 H 0.3542 -0.1566 0.2092
C3 C 0.4838(3) -0.1867(2) 0.32382(19)
H3 H 0.4961 -0.2673 0.3549
C4 C 0.5476(3) -0.1337(2) 0.36444(17)
H4 H 0.6024 -0.1767 0.4245
C5 C 0.5310(3) -0.01646(18) 0.31658(15)
C6 C 0.5982(2) 0.04351(18) 0.35931(15)
C7 C 0.5747(2) 0.16146(18) 0.31365(15)
H5 H 0.5173 0.2045 0.2544
C8 C 0.6358(2) 0.21666(18) 0.35515(15)
C9 C 0.7188(3) 0.14928(18) 0.44083(15)
H6 H 0.7620 0.1841 0.4713
C10 C 0.7396(2) 0.03086(18) 0.48282(15)
C11 C 0.8284(3) -0.04119(18) 0.57508(15)
C12 C 0.8322(3) -0.15587(19) 0.62587(16)
H7 H 0.7804 -0.1920 0.6011
C13 C 0.9121(3) -0.2164(2) 0.71268(17)
H8 H 0.9148 -0.2945 0.7491
C14 C 0.9885(3) -0.1623(2) 0.74639(16)
H9 H 1.0446 -0.2020 0.8061
C15 C 0.9806(3) -0.04860(19) 0.69041(15)
H10 H 1.0345 -0.0117 0.7129
C16 C -0.1859(3) 0.4881(2) 0.08753(16)
H11 H -0.1895 0.4121 0.1266
C17 C -0.3055(3) 0.5590(2) 0.01893(17)
H12 H -0.3887 0.5321 0.0108
C18 C -0.3022(3) 0.6705(2) -0.03814(17)
H13 H -0.3836 0.7221 -0.0856
C19 C -0.1773(3) 0.7043(2) -0.02404(16)
H14 H -0.1712 0.7799 -0.0621
C20 C -0.0617(3) 0.62786(19) 0.04553(15)
C21 C 0.0758(3) 0.66249(18) 0.05991(15)
C22 C 0.1953(3) 0.58634(18) 0.12769(15)
H15 H 0.1884 0.5116 0.1680
C23 C 0.3252(3) 0.61868(18) 0.13699(14)
C24 C 0.3258(3) 0.73036(18) 0.07812(15)
H16 H 0.4132 0.7559 0.0817
C25 C 0.1998(3) 0.80403(19) 0.01460(15)
C26 C 0.1944(3) 0.92684(19) -0.04353(15)
C27 C 0.0723(3) 1.0016(2) -0.11043(15)
H17 H -0.0098 0.9754 -0.1213
C28 C 0.0715(3) 1.1147(2) -0.16102(16)
H18 H -0.0109 1.1673 -0.2076
C29 C 0.1916(3) 1.1507(2) -0.14343(16)
H19 H 0.1947 1.2279 -0.1779
C30 C 0.3063(3) 1.0717(2) -0.07462(16)
H20 H 0.3880 1.0970 -0.0619
C31 C 0.4598(3) 0.53823(18) 0.20599(15)
C32 C 0.4847(3) 0.41850(18) 0.24660(14)
H21 H 0.4130 0.3877 0.2305
C33 C 0.6119(3) 0.34413(18) 0.30982(14)
C34 C 0.7194(3) 0.38942(19) 0.33215(15)
H22 H 0.8083 0.3391 0.3746
C35 C 0.6952(3) 0.50780(18) 0.29200(15)
C36 C 0.5667(3) 0.58116(18) 0.23036(15)
H23 H 0.5509 0.6624 0.2040
C37 C 0.9311(3) 0.4907(2) 0.36698(17)
H24 H 1.0021 0.4406 0.3388
H25 H 0.9028 0.4405 0.4287
C38 C 1.0128(3) 0.5687(2) 0.37898(15)
C39 C 1.1740(4) 0.5411(3) 0.3796(2)
H26 H 1.2346 0.4733 0.3715
C40 C 1.2492(4) 0.6122(3) 0.3922(2)
H27 H 1.3613 0.5926 0.3929
C41 C 1.1626(4) 0.7107(3) 0.40346(18)
H28 H 1.2149 0.7601 0.4101
C42 C 1.0029(4) 0.7378(2) 0.40511(17)
H29 H 0.9432 0.8044 0.4150
C43 C 0.9275(3) 0.6672(2) 0.39218(18)
H30 H 0.8154 0.6867 0.3924
loop_
_geom_bond_atom_site_label_1
_geom_bond_atom_site_label_2
_geom_bond_site_symmetry_1
_geom_bond_site_symmetry_2
O1 C35 1_555 1_555
N1 C1 1_555 1_555
N2 C6 1_555 1_555
N3 C11 1_555 1_555
N4 C16 1_555 1_555
N5 C21 1_555 1_555
N6 C26 1_555 1_555
C1 H1 1_555 1_555
C2 C1 1_555 1_555
H2 C2 1_555 1_555
C3 C2 1_555 1_555
H3 C3 1_555 1_555
C4 C3 1_555 1_555
H4 C4 1_555 1_555
C5 N1 1_555 1_555
C6 C5 1_555 1_555
C7 C6 1_555 1_555
H5 C7 1_555 1_555
C8 C7 1_555 1_555
C9 C8 1_555 1_555
H6 C9 1_555 1_555
C10 N2 1_555 1_555
C11 C10 1_555 1_555
C12 C11 1_555 1_555
H7 C12 1_555 1_555
C13 C12 1_555 1_555
H8 C13 1_555 1_555
C14 C13 1_555 1_555
H9 C14 1_555 1_555
C15 N3 1_555 1_555
H10 C15 1_555 1_555
C16 H11 1_555 1_555
C17 C16 1_555 1_555
H12 C17 1_555 1_555
C18 C17 1_555 1_555
H13 C18 1_555 1_555
C19 C18 1_555 1_555
H14 C19 1_555 1_555
C20 N4 1_555 1_555
C21 C20 1_555 1_555
C22 C21 1_555 1_555
H15 C22 1_555 1_555
C23 C22 1_555 1_555
C24 C23 1_555 1_555
H16 C24 1_555 1_555
C25 N5 1_555 1_555
C26 C25 1_555 1_555
C27 C26 1_555 1_555
H17 C27 1_555 1_555
C28 C27 1_555 1_555
H18 C28 1_555 1_555
C29 C28 1_555 1_555
H19 C29 1_555 1_555
C30 N6 1_555 1_555
H20 C30 1_555 1_555
C31 C23 1_555 1_555
C32 C31 1_555 1_555
H21 C32 1_555 1_555
C33 C8 1_555 1_555
C34 C33 1_555 1_555
H22 C34 1_555 1_555
C35 C34 1_555 1_555
C36 C31 1_555 1_555
H23 C36 1_555 1_555
C37 O1 1_555 1_555
H24 C37 1_555 1_555
H25 C37 1_555 1_555
C38 C37 1_555 1_555
C39 C38 1_555 1_555
H26 C39 1_555 1_555
C40 C39 1_555 1_555
H27 C40 1_555 1_555
C41 C40 1_555 1_555
H28 C41 1_555 1_555
C42 C41 1_555 1_555
H29 C42 1_555 1_555
C43 C38 1_555 1_555
H30 C43 1_555 1_555
C4 C5 1_555 1_555
C9 C10 1_555 1_555
C14 C15 1_555 1_555
C19 C20 1_555 1_555
C24 C25 1_555 1_555
C29 C30 1_555 1_555
C32 C33 1_555 1_555
C35 C36 1_555 1_555
C42 C43 1_555 1_555

#END
