
#######################################################################
#
#                 Cambridge Crystallographic Data Centre
#                                CCDC 
#
#######################################################################
#
# If this CIF has been generated from an entry in the Cambridge 
# Structural Database, then it will include bibliographic, chemical, 
# crystal, experimental, refinement or atomic coordinate data resulting 
# from the CCDC's data processing and validation procedures.
#
#######################################################################

data_BESCUX
_chemical_formula_moiety         'C34 H32 O6'
_chemical_name_systematic        
(2S,3S,9S,10S)-2,3,9,10-Tetraphenyl-1,4,8,11-tetraoxacyclotetradecane-6,13-dione
_symmetry_cell_setting           tetragonal
_symmetry_space_group_name_H-M   'P 43 21 2'
_symmetry_Int_Tables_number      96
_space_group_name_Hall           'P 4nw 2abw'
loop_
_symmetry_equiv_pos_site_id
_symmetry_equiv_pos_as_xyz
1 x,y,z
2 -x,-y,1/2+z
3 1/2-y,1/2+x,3/4+z
4 1/2+y,1/2-x,1/4+z
5 1/2-x,1/2+y,3/4-z
6 1/2+x,1/2-y,1/4-z
7 y,x,-z
8 -y,-x,1/2-z
_cell_length_a                   14.945(2)
_cell_length_b                   14.945(2)
_cell_length_c                   39.572(2)
_cell_angle_alpha                90
_cell_angle_beta                 90
_cell_angle_gamma                90
_cell_volume                     8838.53
_exptl_crystal_colour            colorless
_exptl_crystal_description       octahedron
_chemical_melting_point          451-456K
_cell_formula_units_Z            12
_exptl_crystal_recrystallization_method 'diethyl ether'
loop_
_atom_site_label
_atom_site_type_symbol
_atom_site_fract_x
_atom_site_fract_y
_atom_site_fract_z
O1 O 0.1197(3) 0.3057(3) 0.18074(13)
O2 O 0.3139(2) 0.1938(2) 0.18118(8)
O3 O 0.3108(3) 0.2863(3) 0.26491(11)
O4 O 0.4411(2) 0.2020(2) 0.23138(8)
O5 O 0.3138(2) 0.4212(2) 0.19554(7)
O6 O 0.2033(3) 0.4163(2) 0.13658(10)
C1 C 0.1853(4) 0.2774(4) 0.16716(13)
C2 C 0.2211(4) 0.1868(4) 0.17564(15)
H1 H 0.1920 0.1641 0.1958
H2 H 0.2095 0.1457 0.1572
C3 C 0.3591(3) 0.1128(3) 0.19039(12)
H3 H 0.3265 0.0840 0.2089
C4 C 0.3646(4) 0.0491(3) 0.16101(12)
C5 C 0.3370(4) -0.0376(4) 0.16429(16)
H4 H 0.3142 -0.0570 0.1849
C6 C 0.3422(6) -0.0962(5) 0.13787(19)
H5 H 0.3228 -0.1549 0.1405
C7 C 0.3763(6) -0.0679(5) 0.10729(19)
H6 H 0.3802 -0.1072 0.0891
C8 C 0.4045(5) 0.0189(5) 0.10404(14)
H7 H 0.4275 0.0387 0.0835
C9 C 0.3988(4) 0.0764(4) 0.13071(12)
H8 H 0.4185 0.1351 0.1282
C10 C 0.4503(3) 0.1426(3) 0.20310(11)
H9 H 0.4811 0.1744 0.1848
C11 C 0.5083(3) 0.0676(3) 0.21482(12)
C12 C 0.4976(4) 0.0316(3) 0.24709(13)
H10 H 0.4515 0.0518 0.2609
C13 C 0.5551(4) -0.0337(4) 0.25850(15)
H11 H 0.5472 -0.0576 0.2800
C14 C 0.6237(4) -0.0641(4) 0.23855(17)
H12 H 0.6627 -0.1077 0.2465
C15 C 0.6341(4) -0.0295(4) 0.20694(15)
H13 H 0.6803 -0.0499 0.1932
C16 C 0.5771(4) 0.0348(4) 0.19525(13)
H14 H 0.5849 0.0570 0.1735
C17 C 0.4260(3) 0.2921(3) 0.22418(12)
H15 H 0.4183 0.2994 0.2000
H16 H 0.4779 0.3267 0.2310
C18 C 0.3453(4) 0.3268(3) 0.24196(13)
C19 C 0.3115(4) 0.4164(4) 0.23130(11)
H17 H 0.2507 0.4248 0.2393
H18 H 0.3487 0.4631 0.2409
C20 C 0.2747(3) 0.5017(3) 0.18277(11)
H19 H 0.2154 0.5104 0.1928
C21 C 0.3317(4) 0.5810(4) 0.18989(12)
C22 C 0.2940(5) 0.6591(4) 0.20196(14)
H20 H 0.2332 0.6607 0.2069
C23 C 0.3454(9) 0.7345(6) 0.2067(2)
H21 H 0.3189 0.7875 0.2139
C24 C 0.4361(11) 0.7312(8) 0.2007(3)
H22 H 0.4717 0.7815 0.2040
C25 C 0.4719(7) 0.6541(8) 0.1901(3)
H23 H 0.5333 0.6514 0.1863
C26 C 0.4222(5) 0.5802(6) 0.18464(16)
H24 H 0.4498 0.5281 0.1772
C27 C 0.2656(4) 0.4857(3) 0.14437(12)
H25 H 0.3243 0.4697 0.1351
C28 C 0.2325(4) 0.5690(4) 0.12718(12)
C29 C 0.1455(4) 0.5951(4) 0.13085(13)
H26 H 0.1061 0.5595 0.1431
C30 C 0.1156(5) 0.6738(5) 0.11660(16)
H27 H 0.0563 0.6913 0.1193
C31 C 0.1742(6) 0.7267(5) 0.09828(17)
H28 H 0.1542 0.7798 0.0886
C32 C 0.2597(6) 0.7016(4) 0.09452(15)
H29 H 0.2990 0.7368 0.0820
C33 C 0.2895(4) 0.6230(4) 0.10927(13)
H30 H 0.3492 0.6066 0.1070
C34 C 0.2358(4) 0.3281(3) 0.14051(11)
H31 H 0.2987 0.3303 0.1466
H32 H 0.2309 0.2967 0.1191
O7 O 0.4536(3) 0.3057(3) 0.11023(9)
O8 O 0.5044(2) 0.4280(2) 0.03993(8)
O9 O 0.3475(2) 0.3098(2) 0.03388(7)
C35 C 0.4435(3) 0.3296(4) 0.08148(12)
C36 C 0.4662(4) 0.4226(4) 0.07247(12)
H33 H 0.4124 0.4590 0.0732
H34 H 0.5080 0.4464 0.0889
C37 C 0.4603(3) 0.4886(3) 0.01774(12)
H35 H 0.3957 0.4788 0.0198
C38 C 0.4795(3) 0.5853(3) 0.02684(12)
C39 C 0.5583(4) 0.6082(4) 0.04186(16)
H36 H 0.6007 0.5642 0.0464
C40 C 0.5758(5) 0.6955(4) 0.05041(17)
H37 H 0.6289 0.7095 0.0614
C41 C 0.5165(5) 0.7619(5) 0.04302(17)
H38 H 0.5297 0.8212 0.0481
C42 C 0.4372(5) 0.7395(4) 0.02803(15)
H39 H 0.3958 0.7839 0.0229
C43 C 0.4180(4) 0.6510(4) 0.02035(13)
H40 H 0.3631 0.6363 0.0108
C44 C 0.4115(3) 0.2666(3) 0.05492(12)
H41 H 0.4618 0.2466 0.0414
H42 H 0.3846 0.2146 0.0655
C45 C 0.2999(3) 0.2475(3) 0.01325(10)
H43 H 0.3432 0.2087 0.0017
C46 C 0.2391(3) 0.1899(3) 0.03493(10)
C47 C 0.2467(4) 0.0979(4) 0.03524(12)
H44 H 0.2877 0.0703 0.0210
C48 C 0.1949(5) 0.0466(4) 0.05617(16)
H45 H 0.2010 -0.0153 0.0561
C49 C 0.1340(5) 0.0865(6) 0.07713(15)
H46 H 0.0986 0.0517 0.0913
C50 C 0.1252(4) 0.1763(5) 0.07716(13)
H47 H 0.0838 0.2029 0.0915
C51 C 0.1767(3) 0.2293(4) 0.05626(11)
H48 H 0.1697 0.2911 0.0565
C37F C 0.4886(3) 0.4603(3) -0.01774(12)
O8F O 0.4280(2) 0.5044(2) -0.03993(8)
C36F C 0.4226(4) 0.4662(4) -0.07247(12)
C35F C 0.3296(4) 0.4435(3) -0.08148(12)
O7F O 0.3057(3) 0.4536(3) -0.11023(9)
C44F C 0.2666(3) 0.4115(3) -0.05492(12)
O9F O 0.3098(2) 0.3475(2) -0.03388(7)
C45F C 0.2475(3) 0.2999(3) -0.01325(10)
H43F H 0.2087 0.3432 -0.0017
C46F C 0.1899(3) 0.2391(3) -0.03493(10)
C47F C 0.0979(4) 0.2467(4) -0.03524(12)
H44F H 0.0703 0.2877 -0.0210
C48F C 0.0466(4) 0.1949(5) -0.05617(16)
H45F H -0.0153 0.2010 -0.0561
C49F C 0.0865(6) 0.1340(5) -0.07713(15)
H46F H 0.0517 0.0986 -0.0913
C50F C 0.1763(5) 0.1252(4) -0.07716(13)
H47F H 0.2029 0.0838 -0.0915
C51F C 0.2293(4) 0.1767(3) -0.05626(11)
H48F H 0.2911 0.1697 -0.0565
H41F H 0.2466 0.4618 -0.0414
H42F H 0.2146 0.3846 -0.0655
H33F H 0.4590 0.4124 -0.0732
H34F H 0.4464 0.5080 -0.0889
H35F H 0.4788 0.3957 -0.0198
C38F C 0.5853(3) 0.4795(3) -0.02684(12)
C39F C 0.6082(4) 0.5583(4) -0.04186(16)
H36F H 0.5642 0.6007 -0.0464
C40F C 0.6955(4) 0.5758(5) -0.05041(17)
H37F H 0.7095 0.6289 -0.0614
C41F C 0.7619(5) 0.5165(5) -0.04302(17)
H38F H 0.8212 0.5297 -0.0481
C42F C 0.7395(4) 0.4372(5) -0.02803(15)
H39F H 0.7839 0.3958 -0.0229
C43F C 0.6510(4) 0.4180(4) -0.02035(13)
H40F H 0.6363 0.3631 -0.0108
loop_
_geom_bond_atom_site_label_1
_geom_bond_atom_site_label_2
_geom_bond_site_symmetry_1
_geom_bond_site_symmetry_2
O1 C1 1_555 1_555
O2 C2 1_555 1_555
O3 C18 1_555 1_555
O4 C10 1_555 1_555
O5 C19 1_555 1_555
O6 C27 1_555 1_555
C1 C2 1_555 1_555
C2 H1 1_555 1_555
H2 C2 1_555 1_555
C3 O2 1_555 1_555
H3 C3 1_555 1_555
C4 C3 1_555 1_555
C5 C4 1_555 1_555
H4 C5 1_555 1_555
C6 C5 1_555 1_555
H5 C6 1_555 1_555
C7 C6 1_555 1_555
H6 C7 1_555 1_555
C8 C7 1_555 1_555
H7 C8 1_555 1_555
C9 C4 1_555 1_555
H8 C9 1_555 1_555
C10 C3 1_555 1_555
H9 C10 1_555 1_555
C11 C10 1_555 1_555
C12 C11 1_555 1_555
H10 C12 1_555 1_555
C13 C12 1_555 1_555
H11 C13 1_555 1_555
C14 C13 1_555 1_555
H12 C14 1_555 1_555
C15 C14 1_555 1_555
H13 C15 1_555 1_555
C16 C11 1_555 1_555
H14 C16 1_555 1_555
C17 O4 1_555 1_555
H15 C17 1_555 1_555
H16 C17 1_555 1_555
C18 C17 1_555 1_555
C19 C18 1_555 1_555
H17 C19 1_555 1_555
H18 C19 1_555 1_555
C20 O5 1_555 1_555
H19 C20 1_555 1_555
C21 C20 1_555 1_555
C22 C21 1_555 1_555
H20 C22 1_555 1_555
C23 C22 1_555 1_555
H21 C23 1_555 1_555
C24 C23 1_555 1_555
H22 C24 1_555 1_555
C25 C24 1_555 1_555
H23 C25 1_555 1_555
C26 C21 1_555 1_555
H24 C26 1_555 1_555
C27 C20 1_555 1_555
H25 C27 1_555 1_555
C28 C27 1_555 1_555
C29 C28 1_555 1_555
H26 C29 1_555 1_555
C30 C29 1_555 1_555
H27 C30 1_555 1_555
C31 C30 1_555 1_555
H28 C31 1_555 1_555
C32 C31 1_555 1_555
H29 C32 1_555 1_555
C33 C28 1_555 1_555
H30 C33 1_555 1_555
C34 O6 1_555 1_555
H31 C34 1_555 1_555
H32 C34 1_555 1_555
O7 C35 1_555 1_555
O8 C36 1_555 1_555
O9 C44 1_555 1_555
C35 C36 1_555 1_555
C36 H33 1_555 1_555
H34 C36 1_555 1_555
C37 O8 1_555 1_555
H35 C37 1_555 1_555
C38 C37 1_555 1_555
C39 C38 1_555 1_555
H36 C39 1_555 1_555
C40 C39 1_555 1_555
H37 C40 1_555 1_555
C41 C40 1_555 1_555
H38 C41 1_555 1_555
C42 C41 1_555 1_555
H39 C42 1_555 1_555
C43 C38 1_555 1_555
H40 C43 1_555 1_555
C44 C35 1_555 1_555
H41 C44 1_555 1_555
H42 C44 1_555 1_555
C45 O9 1_555 1_555
H43 C45 1_555 1_555
C46 C45 1_555 1_555
C47 C46 1_555 1_555
H44 C47 1_555 1_555
C48 C47 1_555 1_555
H45 C48 1_555 1_555
C49 C48 1_555 1_555
H46 C49 1_555 1_555
C50 C49 1_555 1_555
H47 C50 1_555 1_555
C51 C46 1_555 1_555
H48 C51 1_555 1_555
C37F C37 1_555 1_555
O8F C37F 1_555 1_555
C36F O8F 1_555 1_555
C35F C36F 1_555 1_555
O7F C35F 1_555 1_555
C44F C35F 1_555 1_555
O9F C44F 1_555 1_555
C45F C45 1_555 1_555
H43F C45F 1_555 1_555
C46F C45F 1_555 1_555
C47F C46F 1_555 1_555
H44F C47F 1_555 1_555
C48F C47F 1_555 1_555
H45F C48F 1_555 1_555
C49F C48F 1_555 1_555
H46F C49F 1_555 1_555
C50F C49F 1_555 1_555
H47F C50F 1_555 1_555
C51F C46F 1_555 1_555
H48F C51F 1_555 1_555
H41F C44F 1_555 1_555
H42F C44F 1_555 1_555
H33F C36F 1_555 1_555
H34F C36F 1_555 1_555
H35F C37F 1_555 1_555
C38F C37F 1_555 1_555
C39F C38F 1_555 1_555
H36F C39F 1_555 1_555
C40F C39F 1_555 1_555
H37F C40F 1_555 1_555
C41F C40F 1_555 1_555
H38F C41F 1_555 1_555
C42F C41F 1_555 1_555
H39F C42F 1_555 1_555
C43F C38F 1_555 1_555
H40F C43F 1_555 1_555
C1 C34 1_555 1_555
C8 C9 1_555 1_555
C15 C16 1_555 1_555
C25 C26 1_555 1_555
C32 C33 1_555 1_555
C42 C43 1_555 1_555
C50 C51 1_555 1_555
O9F C45F 1_555 1_555
C50F C51F 1_555 1_555
C42F C43F 1_555 1_555

#END
