
#######################################################################
#
#                 Cambridge Crystallographic Data Centre
#                                CCDC 
#
#######################################################################
#
# If this CIF has been generated from an entry in the Cambridge 
# Structural Database, then it will include bibliographic, chemical, 
# crystal, experimental, refinement or atomic coordinate data resulting 
# from the CCDC's data processing and validation procedures.
#
#######################################################################

data_BESDOU
_chemical_formula_moiety         'C15 H14 Br1 N1 O3'
_chemical_name_systematic        
6-Bromo-7a-ethyl-3-phenyl-3a,7a-dihydro-1,3-benzoxazole-2,5(3H,4H)-dione
_symmetry_cell_setting           monoclinic
_symmetry_space_group_name_H-M   'P 21/c'
_symmetry_Int_Tables_number      14
_space_group_name_Hall           '-P 2ybc'
loop_
_symmetry_equiv_pos_site_id
_symmetry_equiv_pos_as_xyz
1 x,y,z
2 -x,1/2+y,1/2-z
3 -x,-y,-z
4 x,1/2-y,1/2+z
_cell_length_a                   11.3435(10)
_cell_length_b                   5.9481(5)
_cell_length_c                   20.6935(18)
_cell_angle_alpha                90
_cell_angle_beta                 103.5110(10)
_cell_angle_gamma                90
_cell_volume                     1357.6
_exptl_crystal_colour            colorless
_exptl_crystal_description       plate
_cell_formula_units_Z            4
loop_
_atom_site_label
_atom_site_type_symbol
_atom_site_fract_x
_atom_site_fract_y
_atom_site_fract_z
Br1 Br 0.459362(16) 1.07716(3) 0.103359(9)
O1 O 0.07101(11) 1.0455(2) 0.16808(6)
O2 O 0.08280(11) 1.2571(2) 0.25938(7)
O3 O 0.50865(11) 0.7404(2) 0.21798(7)
N1 N 0.19268(12) 0.9268(2) 0.26245(7)
C1 C 0.11364(15) 1.0911(3) 0.23385(9)
C2 C 0.13339(15) 0.8476(3) 0.15013(9)
C3 C 0.18647(15) 0.7344(3) 0.21748(8)
H1 H 0.1277 0.6210 0.2270
C4 C 0.30938(15) 0.6239(3) 0.22267(9)
H2 H 0.3444 0.5868 0.2699
H3 H 0.2967 0.4806 0.1977
C5 C 0.40064(16) 0.7624(3) 0.19725(9)
C6 C 0.34747(16) 0.9191(3) 0.14157(9)
C7 C 0.22909(16) 0.9466(3) 0.11840(9)
H4 H 0.2026 1.0342 0.0793
C8 C 0.23520(14) 0.9096(3) 0.33300(8)
C9 C 0.21522(16) 0.7152(3) 0.36606(9)
H5 H 0.1718 0.5928 0.3422
C10 C 0.25972(17) 0.7021(3) 0.43464(9)
H6 H 0.2472 0.5691 0.4575
C11 C 0.32201(18) 0.8806(3) 0.46979(10)
H7 H 0.3514 0.8706 0.5166
C12 C 0.34127(17) 1.0743(3) 0.43629(9)
H8 H 0.3835 1.1975 0.4603
C13 C 0.29915(15) 1.0889(3) 0.36781(9)
H9 H 0.3139 1.2204 0.3449
C14 C 0.0471(11) 0.6823(15) 0.1052(5)
H10 H 0.0936 0.5466 0.0988
H11 H -0.0160 0.6353 0.1283
C15 C -0.0152(3) 0.7757(7) 0.03695(18)
H12 H 0.0430 0.7807 0.0086
H13 H -0.0450 0.9278 0.0420
H14 H -0.0834 0.6784 0.0165
C16? C 0.0328(10) 0.7253(15) 0.1014(6)
H15? H -0.0366 0.6978 0.1217
H16? H 0.0043 0.8172 0.0608
C17? C 0.0840(4) 0.5040(7) 0.0839(2)
H17? H 0.1142 0.4164 0.1245
H18? H 0.1508 0.5334 0.0623
H19? H 0.0202 0.4192 0.0535
loop_
_geom_bond_atom_site_label_1
_geom_bond_atom_site_label_2
_geom_bond_site_symmetry_1
_geom_bond_site_symmetry_2
Br1 C6 1_555 1_555
O1 C1 1_555 1_555
O2 C1 1_555 1_555
O3 C5 1_555 1_555
N1 C1 1_555 1_555
C2 O1 1_555 1_555
C3 N1 1_555 1_555
H1 C3 1_555 1_555
C4 C3 1_555 1_555
H2 C4 1_555 1_555
H3 C4 1_555 1_555
C5 C4 1_555 1_555
C6 C5 1_555 1_555
C7 C2 1_555 1_555
H4 C7 1_555 1_555
C8 N1 1_555 1_555
C9 C8 1_555 1_555
H5 C9 1_555 1_555
C10 C9 1_555 1_555
H6 C10 1_555 1_555
C11 C10 1_555 1_555
H7 C11 1_555 1_555
C12 C11 1_555 1_555
H8 C12 1_555 1_555
C13 C8 1_555 1_555
H9 C13 1_555 1_555
C14 C2 1_555 1_555
H10 C14 1_555 1_555
H11 C14 1_555 1_555
C15 C14 1_555 1_555
H12 C15 1_555 1_555
H13 C15 1_555 1_555
H14 C15 1_555 1_555
C2 C3 1_555 1_555
C6 C7 1_555 1_555
C12 C13 1_555 1_555

#END
