
#######################################################################
#
#                 Cambridge Crystallographic Data Centre
#                                CCDC 
#
#######################################################################
#
# If this CIF has been generated from an entry in the Cambridge 
# Structural Database, then it will include bibliographic, chemical, 
# crystal, experimental, refinement or atomic coordinate data resulting 
# from the CCDC's data processing and validation procedures.
#
#######################################################################

data_BESDOV
_chemical_formula_moiety         'C20 H14 Br1 N1 O1'
_chemical_name_systematic        
2-(4-bromophenyl)-3-(6-methoxynaphthalen-2-yl)prop-2-enenitrile
_symmetry_cell_setting           monoclinic
_symmetry_space_group_name_H-M   'P 21/n'
_symmetry_Int_Tables_number      14
_space_group_name_Hall           '-P 2yn'
loop_
_symmetry_equiv_pos_site_id
_symmetry_equiv_pos_as_xyz
1 x,y,z
2 1/2-x,1/2+y,1/2-z
3 -x,-y,-z
4 1/2+x,1/2-y,1/2+z
_cell_length_a                   6.66937(16)
_cell_length_b                   34.1143(8)
_cell_length_c                   6.96815(15)
_cell_angle_alpha                90
_cell_angle_beta                 96.866(2)
_cell_angle_gamma                90
_cell_volume                     1574.03
_exptl_crystal_colour            colorless
_exptl_crystal_description       block
_cell_formula_units_Z            4
_chemical_properties_physical    Light-sensitive
loop_
_atom_site_label
_atom_site_type_symbol
_atom_site_fract_x
_atom_site_fract_y
_atom_site_fract_z
Br1 Br 0.38259(3) 0.04850(2) 0.26368(3)
O1 O 0.4396(2) 0.48146(4) 0.2809(2)
N1 N 1.0093(3) 0.23526(6) 0.2312(3)
C1 C 0.8391(3) 0.22996(6) 0.2253(3)
C2 C 0.6258(3) 0.22245(6) 0.2215(3)
C3 C 0.5693(3) 0.18037(6) 0.2274(3)
C4 C 0.7102(3) 0.15226(6) 0.3048(3)
H1 H 0.8442 0.1602 0.3495
C5 C 0.6567(3) 0.11310(6) 0.3169(3)
H2 H 0.7525 0.0943 0.3709
C6 C 0.4613(3) 0.10185(6) 0.2489(3)
C7 C 0.3193(3) 0.12869(6) 0.1692(3)
H3 H 0.1863 0.1204 0.1229
C8 C 0.3737(3) 0.16783(6) 0.1577(3)
H4 H 0.2774 0.1863 0.1019
C9 C 0.4920(3) 0.25200(6) 0.2208(3)
H5 H 0.3563 0.2441 0.2267
C10 C 0.5228(3) 0.29442(6) 0.2125(3)
C11 C 0.6935(3) 0.31247(6) 0.1426(3)
H6 H 0.7944 0.2966 0.0962
C12 C 0.7129(3) 0.35231(6) 0.1418(3)
H7 H 0.8280 0.3636 0.0955
C13 C 0.5655(3) 0.37726(6) 0.2086(3)
C14 C 0.5858(3) 0.41862(6) 0.2102(3)
H8 H 0.7021 0.4305 0.1686
C15 C 0.4366(3) 0.44145(6) 0.2722(3)
C16 C 0.2613(3) 0.42408(6) 0.3335(3)
H9 H 0.1582 0.4403 0.3738
C17 C 0.2404(3) 0.38438(6) 0.3348(3)
H10 H 0.1232 0.3731 0.3772
C18 C 0.3925(3) 0.35958(6) 0.2733(3)
C19 C 0.3755(3) 0.31826(6) 0.2727(3)
H11 H 0.2592 0.3066 0.3151
C20 C 0.6246(3) 0.50062(6) 0.2515(3)
H12 H 0.6541 0.4959 0.1190
H13 H 0.7348 0.4902 0.3430
H14 H 0.6114 0.5289 0.2724
loop_
_geom_bond_atom_site_label_1
_geom_bond_atom_site_label_2
_geom_bond_site_symmetry_1
_geom_bond_site_symmetry_2
Br1 C6 1_555 1_555
O1 C15 1_555 1_555
N1 C1 1_555 1_555
C1 C2 1_555 1_555
C2 C3 1_555 1_555
C3 C4 1_555 1_555
C4 H1 1_555 1_555
C5 C4 1_555 1_555
H2 C5 1_555 1_555
C6 C5 1_555 1_555
C7 C6 1_555 1_555
H3 C7 1_555 1_555
C8 C3 1_555 1_555
H4 C8 1_555 1_555
C9 C2 1_555 1_555
H5 C9 1_555 1_555
C10 C9 1_555 1_555
C11 C10 1_555 1_555
H6 C11 1_555 1_555
C12 C11 1_555 1_555
H7 C12 1_555 1_555
C13 C12 1_555 1_555
C14 C13 1_555 1_555
H8 C14 1_555 1_555
C15 C14 1_555 1_555
C16 C15 1_555 1_555
H9 C16 1_555 1_555
C17 C16 1_555 1_555
H10 C17 1_555 1_555
C18 C13 1_555 1_555
C19 C10 1_555 1_555
H11 C19 1_555 1_555
C20 O1 1_555 1_555
H12 C20 1_555 1_555
H13 C20 1_555 1_555
H14 C20 1_555 1_555
C7 C8 1_555 1_555
C17 C18 1_555 1_555
C18 C19 1_555 1_555

#END
