
#######################################################################
#
#                 Cambridge Crystallographic Data Centre
#                                CCDC 
#
#######################################################################
#
# If this CIF has been generated from an entry in the Cambridge 
# Structural Database, then it will include bibliographic, chemical, 
# crystal, experimental, refinement or atomic coordinate data resulting 
# from the CCDC's data processing and validation procedures.
#
#######################################################################

data_BESDIP
_chemical_formula_moiety         'C26 H19 N2 O1 1+,I1 1-'
_chemical_name_systematic        
'4-(5-cyano-10-methoxybenzo[c]phenanthren-2-yl)-1-methylpyridin-1-ium iodide'
_symmetry_cell_setting           orthorhombic
_symmetry_space_group_name_H-M   'P n a 21'
_symmetry_Int_Tables_number      33
_space_group_name_Hall           'P 2c -2n'
loop_
_symmetry_equiv_pos_site_id
_symmetry_equiv_pos_as_xyz
1 x,y,z
2 -x,-y,1/2+z
3 1/2-x,1/2+y,1/2+z
4 1/2+x,1/2-y,z
_cell_length_a                   7.5220(3)
_cell_length_b                   28.6640(7)
_cell_length_c                   9.5331(3)
_cell_angle_alpha                90
_cell_angle_beta                 90
_cell_angle_gamma                90
_cell_volume                     2055.44
_exptl_crystal_colour            yellow
_exptl_crystal_description       needle
_cell_formula_units_Z            4
loop_
_atom_site_label
_atom_site_type_symbol
_atom_site_fract_x
_atom_site_fract_y
_atom_site_fract_z
O1 O 0.6817(7) 0.37604(17) 0.8921(5)
N1 N 0.6840(7) 0.07050(19) 0.5792(6)
N2 N 0.1284(8) 0.2862(2) -0.1393(7)
C1 C 0.2095(10) 0.2901(2) -0.0377(7)
C2 C 0.3109(9) 0.2975(2) 0.0889(6)
C3 C 0.3672(9) 0.3414(2) 0.1202(7)
H1 H 0.3490 0.3658 0.0543
C4 C 0.4530(8) 0.3514(2) 0.2500(7)
C5 C 0.5168(9) 0.3978(2) 0.2722(7)
H2 H 0.5068 0.4205 0.2000
C6 C 0.5913(9) 0.4092(2) 0.3964(8)
H3 H 0.6456 0.4390 0.4070
C7 C 0.5902(9) 0.3779(2) 0.5112(7)
C8 C 0.6452(9) 0.3932(3) 0.6432(8)
H4 H 0.6919 0.4238 0.6535
C9 C 0.6329(8) 0.3646(2) 0.7583(7)
C10 C 0.5554(10) 0.3202(2) 0.7438(7)
H5 H 0.5400 0.3009 0.8240
C11 C 0.5019(9) 0.3045(2) 0.6143(7)
H6 H 0.4486 0.2745 0.6072
C12 C 0.5232(8) 0.3311(2) 0.4927(7)
C13 C 0.4712(9) 0.3166(2) 0.3516(7)
C14 C 0.4376(8) 0.2681(2) 0.3108(7)
C15 C 0.4974(8) 0.2296(2) 0.3890(6)
H7 H 0.5600 0.2349 0.4740
C16 C 0.4681(9) 0.1844(2) 0.3460(7)
C17 C 0.3783(8) 0.1760(2) 0.2199(7)
H8 H 0.3545 0.1449 0.1913
C18 C 0.3249(9) 0.2123(2) 0.1380(7)
H9 H 0.2671 0.2062 0.0514
C19 C 0.3538(8) 0.2588(2) 0.1792(7)
C20 C 0.7443(11) 0.4228(3) 0.9138(8)
H10 H 0.6492 0.4449 0.8913
H11 H 0.8468 0.4286 0.8529
H12 H 0.7796 0.4267 1.0120
C21 C 0.6453(9) 0.0657(2) 0.4420(7)
H13 H 0.6684 0.0367 0.3970
C22 C 0.5733(9) 0.1016(2) 0.3657(7)
H14 H 0.5473 0.0974 0.2690
C23 C 0.5383(8) 0.1446(2) 0.4310(7)
C24 C 0.5742(8) 0.1479(2) 0.5735(9)
H15 H 0.5485 0.1760 0.6224
C25 C 0.6470(9) 0.1106(2) 0.6443(8)
H16 H 0.6715 0.1135 0.7417
C26 C 0.7661(10) 0.0311(2) 0.6527(8)
H17 H 0.7881 0.0398 0.7507
H18 H 0.8791 0.0232 0.6073
H19 H 0.6863 0.0042 0.6493
I1 I 0.69509(5) 0.02541(2) 0.05517(6)
loop_
_geom_bond_atom_site_label_1
_geom_bond_atom_site_label_2
_geom_bond_site_symmetry_1
_geom_bond_site_symmetry_2
O1 C9 1_555 1_555
N1 C21 1_555 1_555
N2 C1 1_555 1_555
C1 C2 1_555 1_555
C2 C3 1_555 1_555
C3 H1 1_555 1_555
C4 C3 1_555 1_555
C5 C4 1_555 1_555
H2 C5 1_555 1_555
C6 C5 1_555 1_555
H3 C6 1_555 1_555
C7 C6 1_555 1_555
C8 C7 1_555 1_555
H4 C8 1_555 1_555
C9 C8 1_555 1_555
C10 C9 1_555 1_555
H5 C10 1_555 1_555
C11 C10 1_555 1_555
H6 C11 1_555 1_555
C12 C7 1_555 1_555
C13 C4 1_555 1_555
C14 C13 1_555 1_555
C15 C14 1_555 1_555
H7 C15 1_555 1_555
C16 C15 1_555 1_555
C17 C16 1_555 1_555
H8 C17 1_555 1_555
C18 C17 1_555 1_555
H9 C18 1_555 1_555
C19 C2 1_555 1_555
C20 O1 1_555 1_555
H10 C20 1_555 1_555
H11 C20 1_555 1_555
H12 C20 1_555 1_555
C21 H13 1_555 1_555
C22 C21 1_555 1_555
H14 C22 1_555 1_555
C23 C16 1_555 1_555
C24 C23 1_555 1_555
H15 C24 1_555 1_555
C25 N1 1_555 1_555
H16 C25 1_555 1_555
C26 N1 1_555 1_555
H17 C26 1_555 1_555
H18 C26 1_555 1_555
H19 C26 1_555 1_555
C11 C12 1_555 1_555
C12 C13 1_555 1_555
C14 C19 1_555 1_555
C18 C19 1_555 1_555
C22 C23 1_555 1_555
C24 C25 1_555 1_555

#END
