
#######################################################################
#
#                 Cambridge Crystallographic Data Centre
#                                CCDC 
#
#######################################################################
#
# If this CIF has been generated from an entry in the Cambridge 
# Structural Database, then it will include bibliographic, chemical, 
# crystal, experimental, refinement or atomic coordinate data resulting 
# from the CCDC's data processing and validation procedures.
#
#######################################################################

data_BESDAH
_chemical_formula_moiety         'C25 H18 N2 O1'
_chemical_name_systematic        
3-(6-methoxynaphthalen-2-yl)-2-[4-(pyridin-4-yl)phenyl]prop-2-enenitrile
_symmetry_cell_setting           monoclinic
_symmetry_space_group_name_H-M   'P n'
_symmetry_Int_Tables_number      7
_space_group_name_Hall           'P -2yac'
loop_
_symmetry_equiv_pos_site_id
_symmetry_equiv_pos_as_xyz
1 x,y,z
2 1/2+x,-y,1/2+z
_cell_length_a                   6.67174(13)
_cell_length_b                   39.4337(10)
_cell_length_c                   7.0432(2)
_cell_angle_alpha                90
_cell_angle_beta                 99.304(3)
_cell_angle_gamma                90
_cell_volume                     1828.63
_exptl_crystal_colour            yellow
_exptl_crystal_description       needle
_cell_formula_units_Z            4
_chemical_properties_physical    Light-sensitive
loop_
_atom_site_label
_atom_site_type_symbol
_atom_site_fract_x
_atom_site_fract_y
_atom_site_fract_z
O1 O 0.2401(4) 0.72274(6) 0.3140(4)
N1 N -0.3524(5) 0.51090(8) 0.4264(6)
C1 C -0.1840(5) 0.50653(8) 0.4189(6)
C2 C 0.0248(5) 0.49959(8) 0.4063(5)
C3 C 0.1578(5) 0.52479(8) 0.3914(5)
H1 H 0.2900 0.5174 0.3768
C4 C 0.1323(5) 0.56155(8) 0.3939(5)
C5 C -0.0325(5) 0.57839(8) 0.4609(5)
H2 H -0.1348 0.5654 0.5066
C6 C -0.0441(5) 0.61290(8) 0.4600(5)
H3 H -0.1555 0.6235 0.5048
C7 C 0.1048(5) 0.63335(8) 0.3941(5)
C8 C 0.0915(5) 0.66933(8) 0.3922(5)
H4 H -0.0186 0.6803 0.4371
C9 C 0.2385(5) 0.68809(8) 0.3251(5)
C10 C 0.4036(5) 0.67205(8) 0.2586(5)
H5 H 0.5035 0.6854 0.2114
C11 C 0.4202(5) 0.63747(8) 0.2619(5)
H6 H 0.5331 0.6270 0.2190
C12 C 0.2706(5) 0.61699(8) 0.3286(5)
C13 C 0.2808(5) 0.58118(8) 0.3314(5)
H7 H 0.3927 0.5703 0.2893
C14 C 0.0672(7) 0.74026(9) 0.3591(8)
H8 H -0.0541 0.7331 0.2705
H9 H 0.0866 0.7647 0.3463
H10 H 0.0499 0.7350 0.4915
C15 C 0.1282(6) 0.29969(9) 0.2494(6)
H11 H 0.0247 0.2843 0.1959
C16 C 0.0738(5) 0.33333(9) 0.2712(6)
H12 H -0.0629 0.3403 0.2322
C17 C 0.2198(5) 0.35671(8) 0.3502(4)
C18 C 0.4172(5) 0.34413(8) 0.4012(5)
H13 H 0.5242 0.3589 0.4547
C19 C 0.4561(6) 0.31028(9) 0.3738(5)
H14 H 0.5916 0.3025 0.4109
N2 N 0.3162(5) 0.28760(7) 0.2986(5)
C20 C 0.0744(5) 0.46295(8) 0.4004(5)
C21 C -0.0760(5) 0.43888(8) 0.3451(5)
H15 H -0.2137 0.4460 0.3172
C22 C -0.0308(5) 0.40491(8) 0.3298(5)
H16 H -0.1376 0.3892 0.2911
C23 C 0.1695(5) 0.39319(8) 0.3700(5)
C24 C 0.3192(5) 0.41743(8) 0.4308(5)
H17 H 0.4564 0.4103 0.4633
C25 C 0.2747(5) 0.45131(8) 0.4450(6)
H18 H 0.3812 0.4670 0.4854
O2 O 0.7527(4) 0.79880(6) 0.3751(4)
N3 N 0.1801(4) 1.01067(7) 0.4569(5)
C26 C 0.3509(5) 1.01528(8) 0.4623(5)
C27 C 0.5632(4) 1.02227(8) 0.4647(4)
C28 C 0.6970(4) 0.99668(8) 0.4646(5)
H19 H 0.8324 1.0036 0.4595
C29 C 0.6677(4) 0.96003(8) 0.4711(4)
C30 C 0.5012(5) 0.94376(8) 0.5395(4)
H20 H 0.4016 0.9571 0.5870
C31 C 0.4843(4) 0.90923(8) 0.5369(4)
H21 H 0.3728 0.8990 0.5835
C32 C 0.6284(5) 0.88823(8) 0.4667(5)
C33 C 0.6097(5) 0.85241(8) 0.4600(5)
H22 H 0.4965 0.8417 0.5012
C34 C 0.7556(5) 0.83318(8) 0.3938(5)
C35 C 0.9275(5) 0.84890(8) 0.3365(5)
H23 H 1.0300 0.8353 0.2957
C36 C 0.9474(5) 0.88321(8) 0.3394(5)
H24 H 1.0620 0.8933 0.2975
C37 C 0.7983(5) 0.90424(8) 0.4043(5)
C38 C 0.8137(4) 0.93979(8) 0.4086(4)
H25 H 0.9276 0.9502 0.3673
C39 C 0.5748(7) 0.78132(9) 0.4126(7)
H26 H 0.4544 0.7910 0.3330
H27 H 0.5629 0.7837 0.5488
H28 H 0.5854 0.7572 0.3815
C40 C 0.6670(6) 1.22317(9) 0.3789(6)
H29 H 0.5596 1.2392 0.3595
C41 C 0.6166(6) 1.18921(9) 0.3915(6)
H30 H 0.4782 1.1827 0.3822
C42 C 0.7675(5) 1.16461(8) 0.4177(5)
C43 C 0.9670(5) 1.17637(8) 0.4312(5)
H31 H 1.0773 1.1608 0.4479
C44 C 1.0022(6) 1.21100(9) 0.4199(6)
H32 H 1.1392 1.2184 0.4329
N4 N 0.8565(5) 1.23468(8) 0.3921(5)
C45 C 0.6169(5) 1.05869(8) 0.4564(4)
C46 C 0.4719(5) 1.08240(8) 0.3782(5)
H33 H 0.3366 1.0751 0.3340
C47 C 0.5206(5) 1.11618(8) 0.3634(5)
H34 H 0.4189 1.1317 0.3073
C48 C 0.7175(5) 1.12811(8) 0.4297(4)
C49 C 0.8627(4) 1.10425(8) 0.5095(4)
H35 H 0.9974 1.1116 0.5555
C50 C 0.8145(5) 1.07030(8) 0.5230(4)
H36 H 0.9162 1.0547 0.5778
loop_
_geom_bond_atom_site_label_1
_geom_bond_atom_site_label_2
_geom_bond_site_symmetry_1
_geom_bond_site_symmetry_2
O1 C9 1_555 1_555
N1 C1 1_555 1_555
C1 C2 1_555 1_555
C2 C3 1_555 1_555
C3 H1 1_555 1_555
C4 C3 1_555 1_555
C5 C4 1_555 1_555
H2 C5 1_555 1_555
C6 C5 1_555 1_555
H3 C6 1_555 1_555
C7 C6 1_555 1_555
C8 C7 1_555 1_555
H4 C8 1_555 1_555
C9 C8 1_555 1_555
C10 C9 1_555 1_555
H5 C10 1_555 1_555
C11 C10 1_555 1_555
H6 C11 1_555 1_555
C12 C7 1_555 1_555
C13 C4 1_555 1_555
H7 C13 1_555 1_555
C14 O1 1_555 1_555
H8 C14 1_555 1_555
H9 C14 1_555 1_555
H10 C14 1_555 1_555
C15 H11 1_555 1_555
C16 C15 1_555 1_555
H12 C16 1_555 1_555
C17 C16 1_555 1_555
C18 C17 1_555 1_555
H13 C18 1_555 1_555
C19 C18 1_555 1_555
H14 C19 1_555 1_555
N2 C15 1_555 1_555
C20 C2 1_555 1_555
C21 C20 1_555 1_555
H15 C21 1_555 1_555
C22 C21 1_555 1_555
H16 C22 1_555 1_555
C23 C17 1_555 1_555
C24 C23 1_555 1_555
H17 C24 1_555 1_555
C25 C20 1_555 1_555
H18 C25 1_555 1_555
O2 C34 1_555 1_555
N3 C26 1_555 1_555
C26 C27 1_555 1_555
C27 C28 1_555 1_555
C28 H19 1_555 1_555
C29 C28 1_555 1_555
C30 C29 1_555 1_555
H20 C30 1_555 1_555
C31 C30 1_555 1_555
H21 C31 1_555 1_555
C32 C31 1_555 1_555
C33 C32 1_555 1_555
H22 C33 1_555 1_555
C34 C33 1_555 1_555
C35 C34 1_555 1_555
H23 C35 1_555 1_555
C36 C35 1_555 1_555
H24 C36 1_555 1_555
C37 C32 1_555 1_555
C38 C29 1_555 1_555
H25 C38 1_555 1_555
C39 O2 1_555 1_555
H26 C39 1_555 1_555
H27 C39 1_555 1_555
H28 C39 1_555 1_555
C40 H29 1_555 1_555
C41 C40 1_555 1_555
H30 C41 1_555 1_555
C42 C41 1_555 1_555
C43 C42 1_555 1_555
H31 C43 1_555 1_555
C44 C43 1_555 1_555
H32 C44 1_555 1_555
N4 C40 1_555 1_555
C45 C27 1_555 1_555
C46 C45 1_555 1_555
H33 C46 1_555 1_555
C47 C46 1_555 1_555
H34 C47 1_555 1_555
C48 C42 1_555 1_555
C49 C48 1_555 1_555
H35 C49 1_555 1_555
C50 C45 1_555 1_555
H36 C50 1_555 1_555
C11 C12 1_555 1_555
C12 C13 1_555 1_555
C19 N2 1_555 1_555
C22 C23 1_555 1_555
C24 C25 1_555 1_555
C36 C37 1_555 1_555
C37 C38 1_555 1_555
C44 N4 1_555 1_555
C47 C48 1_555 1_555
C49 C50 1_555 1_555

#END
