
#######################################################################
#
#                 Cambridge Crystallographic Data Centre
#                                CCDC 
#
#######################################################################
#
# If this CIF has been generated from an entry in the Cambridge 
# Structural Database, then it will include bibliographic, chemical, 
# crystal, experimental, refinement or atomic coordinate data resulting 
# from the CCDC's data processing and validation procedures.
#
#######################################################################

data_BESEAZ01
_chemical_name_common            Piaselenole
_chemical_formula_moiety         'C6 H4 N2 Se1'
_chemical_name_systematic        2,1,3-Benzoselenadiazole
_chemical_properties_biological  'carcinogenic activity'
_symmetry_cell_setting           orthorhombic
_symmetry_space_group_name_H-M   'P n a 21'
_symmetry_Int_Tables_number      33
_space_group_name_Hall           'P 2c -2n'
loop_
_symmetry_equiv_pos_site_id
_symmetry_equiv_pos_as_xyz
1 x,y,z
2 1/2-x,1/2+y,1/2+z
3 1/2+x,1/2-y,z
4 -x,-y,1/2+z
_cell_length_a                   12.553(4)
_cell_length_b                   12.414(3)
_cell_length_c                   3.941(1)
_cell_angle_alpha                90
_cell_angle_beta                 90
_cell_angle_gamma                90
_cell_volume                     614.138
_cell_formula_units_Z            4
loop_
_atom_site_label
_atom_site_type_symbol
_atom_site_fract_x
_atom_site_fract_y
_atom_site_fract_z
Se1 Se 0.95740(5) 0.13914(5) 0.23369(84)
N1 N 0.8547(5) 0.2272(5) 0.3846
N2 N 0.8886(4) 0.0190(5) 0.3435(19)
C1 C 0.7970(5) 0.0496(5) 0.4816(21)
C2 C 0.7782(5) 0.1637(5) 0.4983(22)
C3 C 0.6789(5) 0.2020(6) 0.6373(23)
C4 C 0.6079(5) 0.1297(7) 0.7507(46)
C5 C 0.6264(5) 0.0173(6) 0.7324(48)
C6 C 0.7185(6) -0.0232(6) 0.6031(25)
H1 H 0.6608(65) 0.2838(70) 0.664(32)
H2 H 0.5393(68) 0.1719(87) 0.808(38)
H3 H 0.5676(64) -0.0356(79) 0.805(35)
H4 H 0.7345(76) -0.0989(75) 0.589(32)
loop_
_geom_bond_atom_site_label_1
_geom_bond_atom_site_label_2
_geom_bond_site_symmetry_1
_geom_bond_site_symmetry_2
Se1 N1 1_555 1_555
N1 C2 1_555 1_555
N2 Se1 1_555 1_555
C1 N2 1_555 1_555
C2 C1 1_555 1_555
C3 C2 1_555 1_555
C4 C3 1_555 1_555
C5 C4 1_555 1_555
C6 C1 1_555 1_555
H1 C3 1_555 1_555
H2 C4 1_555 1_555
H3 C5 1_555 1_555
H4 C6 1_555 1_555
C5 C6 1_555 1_555

#END
