
#######################################################################
#
#                 Cambridge Crystallographic Data Centre
#                                CCDC 
#
#######################################################################
#
# If this CIF has been generated from an entry in the Cambridge 
# Structural Database, then it will include bibliographic, chemical, 
# crystal, experimental, refinement or atomic coordinate data resulting 
# from the CCDC's data processing and validation procedures.
#
#######################################################################

data_BESFEK
_chemical_formula_moiety         'C20 H16 O1 Si1'
_chemical_name_systematic        
2,2-Diphenyl-1-oxa-2-sila-1,2-dihydronaphthalene
_symmetry_cell_setting           monoclinic
_symmetry_space_group_name_H-M   'P 1 1 21/b'
_symmetry_Int_Tables_number      14
_space_group_name_Hall           '-P 2bc'
loop_
_symmetry_equiv_pos_site_id
_symmetry_equiv_pos_as_xyz
1 x,y,z
2 -x,1/2-y,1/2+z
3 -x,-y,-z
4 x,1/2+y,1/2-z
_cell_length_a                   10.598(3)
_cell_length_b                   10.661(3)
_cell_length_c                   14.659(4)
_cell_angle_alpha                90
_cell_angle_beta                 90
_cell_angle_gamma                104.30(3)
_cell_volume                     1604.93
_cell_formula_units_Z            4
loop_
_atom_site_label
_atom_site_type_symbol
_atom_site_fract_x
_atom_site_fract_y
_atom_site_fract_z
Si1 Si -0.07000 0.15930 0.84220
O1 O 0.05470 0.29080 0.83300
C1 C 0.00980 0.02720 0.86300
C2 C 0.13870 0.05500 0.86710
C3 C 0.22730 0.18120 0.85130
C4 C 0.36330 0.19610 0.85320
C5 C 0.44770 0.31050 0.83830
C6 C 0.40330 0.42160 0.82040
C7 C 0.26920 0.40990 0.81810
C8 C 0.18530 0.29290 0.83490
C9 C -0.16790 0.19170 0.94040
C10 C -0.10590 0.26260 1.01470
C11 C -0.17520 0.28370 1.09130
C12 C -0.30750 0.23620 1.09340
C13 C -0.37270 0.16610 1.02300
C14 C -0.30280 0.14300 0.94440
C15 C -0.16740 0.13950 0.73590
C16 C -0.24900 0.22880 0.71800
C17 C -0.31650 0.21770 0.63410
C18 C -0.30630 0.12310 0.57130
C19 C -0.22730 0.04080 0.58810
C20 C -0.15670 0.05200 0.66920
loop_
_geom_bond_atom_site_label_1
_geom_bond_atom_site_label_2
_geom_bond_site_symmetry_1
_geom_bond_site_symmetry_2
Si1 O1 1_555 1_555
O1 C8 1_555 1_555
C1 Si1 1_555 1_555
C2 C1 1_555 1_555
C3 C2 1_555 1_555
C4 C3 1_555 1_555
C5 C4 1_555 1_555
C6 C5 1_555 1_555
C7 C6 1_555 1_555
C8 C3 1_555 1_555
C9 Si1 1_555 1_555
C10 C9 1_555 1_555
C11 C10 1_555 1_555
C12 C11 1_555 1_555
C13 C12 1_555 1_555
C14 C9 1_555 1_555
C15 Si1 1_555 1_555
C16 C15 1_555 1_555
C17 C16 1_555 1_555
C18 C17 1_555 1_555
C19 C18 1_555 1_555
C20 C15 1_555 1_555
C7 C8 1_555 1_555
C13 C14 1_555 1_555
C19 C20 1_555 1_555

#END
