
#######################################################################
#
#                 Cambridge Crystallographic Data Centre
#                                CCDC 
#
#######################################################################
#
# If this CIF has been generated from an entry in the Cambridge 
# Structural Database, then it will include bibliographic, chemical, 
# crystal, experimental, refinement or atomic coordinate data resulting 
# from the CCDC's data processing and validation procedures.
#
#######################################################################

data_BESFAJ
_chemical_formula_moiety         'C52 H42 N4 O2 2+,2(F6 P1 1-),1.75(C2 H3 N1)'
_chemical_name_systematic        
"4,4'-{[1,3-dicyano-2,4-bis(6-methoxynaphthalen-2-yl)cyclobutane-1,3-diyl]bis(4,1-phenylene)}bis(1-methylpyridin-1-ium) bis(hexafluorophosphate) acetonitrile solvate"
_symmetry_cell_setting           orthorhombic
_symmetry_space_group_name_H-M   'P c a 21'
_symmetry_Int_Tables_number      29
_space_group_name_Hall           'P 2c -2ac'
loop_
_symmetry_equiv_pos_site_id
_symmetry_equiv_pos_as_xyz
1 x,y,z
2 -x,-y,1/2+z
3 1/2-x,y,1/2+z
4 1/2+x,-y,z
_cell_length_a                   20.1183(6)
_cell_length_b                   14.0176(4)
_cell_length_c                   19.1001(6)
_cell_angle_alpha                90
_cell_angle_beta                 90
_cell_angle_gamma                90
_cell_volume                     5386.42
_exptl_crystal_colour            yellow
_exptl_crystal_description       block
_cell_formula_units_Z            4
loop_
_atom_site_label
_atom_site_type_symbol
_atom_site_fract_x
_atom_site_fract_y
_atom_site_fract_z
P1 P 0.4306(8) 0.4190(11) 0.5026(9)
F1 F 0.3921(9) 0.3714(13) 0.5630(11)
F2 F 0.4816(10) 0.4401(13) 0.4433(12)
F3 F 0.3746(8) 0.4795(12) 0.4727(11)
F4 F 0.4486(8) 0.4951(13) 0.5588(12)
F5 F 0.4978(8) 0.3636(12) 0.5215(11)
F6 F 0.4208(9) 0.3333(11) 0.4527(11)
O1 O 0.7672(8) 0.1837(13) 0.1859(10)
O2 O 0.0721(8) 0.1500(11) 0.7023(11)
N1 N 0.4892(17) 0.124(3) 0.6197(13)
N2 N 0.4400(12) -0.0969(13) 0.3265(11)
N3 N 0.6855(8) -0.4859(12) 0.5057(8)
N4 N 0.0626(12) 0.3164(17) 0.2200(15)
C1 C 0.4630(11) 0.1040(18) 0.4346(14)
H1 H 0.4437 0.1658 0.4510
C2 C 0.4616(13) 0.036(2) 0.5023(13)
C3 C 0.3877(11) 0.0100(18) 0.4812(12)
H2 H 0.3815 -0.0608 0.4811
C4 C 0.4024(10) 0.0474(14) 0.4029(11)
C5 C 0.4748(15) 0.087(2) 0.5682(12)
C6 C 0.4264(9) -0.0319(14) 0.3605(11)
C7 C 0.8252(10) 0.2042(15) 0.2224(12)
H3 H 0.8630 0.2038 0.1899
H4 H 0.8322 0.1560 0.2588
H5 H 0.8214 0.2673 0.2441
C8 C 0.5258(10) 0.1315(16) 0.3966(10)
C9 C 0.5799(8) 0.1660(14) 0.4337(12)
H6 H 0.5759 0.1771 0.4826
C10 C 0.6396(9) 0.1846(15) 0.4005(10)
H7 H 0.6760 0.2090 0.4265
C11 C 0.6464(8) 0.1677(16) 0.3292(10)
C12 C 0.7073(10) 0.1837(16) 0.2958(10)
H8 H 0.7447 0.2044 0.3222
C13 C 0.7129(9) 0.1694(16) 0.2247(11)
C14 C 0.6580(8) 0.1397(18) 0.1854(11)
H9 H 0.6620 0.1318 0.1361
C15 C 0.5979(9) 0.1219(16) 0.2183(10)
H10 H 0.5612 0.0989 0.1919
C16 C 0.5910(8) 0.1378(17) 0.2903(9)
C17 C 0.5319(10) 0.1187(15) 0.3249(10)
H11 H 0.4947 0.0963 0.2990
C18 C 0.5063(12) -0.0528(15) 0.4991(15)
C19 C 0.5653(14) -0.068(2) 0.463(2)
H12 H 0.5813 -0.0168 0.4354
C20 C 0.6036(16) -0.1504(17) 0.463(2)
H13 H 0.6441 -0.1563 0.4382
C21 C 0.5774(14) -0.2234(18) 0.5040(18)
C22 C 0.5205(9) -0.2133(14) 0.5458(12)
H14 H 0.5067 -0.2627 0.5766
C23 C 0.4852(9) -0.1288(13) 0.5406(11)
H15 H 0.4451 -0.1224 0.5663
C24 C 0.0668(11) 0.2498(19) 0.7212(15)
H16 H 0.0680 0.2890 0.6787
H17 H 0.1040 0.2673 0.7517
H18 H 0.0248 0.2607 0.7459
C25 C 0.3328(12) 0.056(2) 0.5195(16)
C26 C 0.334(2) 0.151(2) 0.556(2)
H19 H 0.3756 0.1827 0.5563
C27 C 0.2811(17) 0.199(3) 0.591(2)
H20 H 0.2848 0.2658 0.5985
C28 C 0.2240(15) 0.151(2) 0.6132(18)
C29 C 0.1763(17) 0.1797(18) 0.645(2)
H21 H 0.1746 0.2451 0.6585
C30 C 0.1232(12) 0.1201(18) 0.6641(17)
C31 C 0.1219(14) 0.0258(16) 0.6433(16)
H22 H 0.0866 -0.0139 0.6588
C32 C 0.1699(9) -0.0120(15) 0.6010(14)
H23 H 0.1661 -0.0759 0.5849
C33 C 0.2261(11) 0.0451(18) 0.5809(15)
C34 C 0.2781(10) 0.0058(17) 0.5378(14)
H24 H 0.2738 -0.0579 0.5215
C35 C 0.3466(10) 0.0961(16) 0.3683(13)
C36 C 0.3420(12) 0.1981(17) 0.3618(16)
H25 H 0.3771 0.2376 0.3780
C37 C 0.2858(12) 0.2385(17) 0.3318(15)
H26 H 0.2823 0.3061 0.3304
C38 C 0.2344(11) 0.1842(16) 0.3039(13)
C39 C 0.2363(9) 0.0815(15) 0.3132(11)
H27 H 0.1998 0.0430 0.2993
C40 C 0.2923(10) 0.0406(15) 0.3427(13)
H28 H 0.2947 -0.0269 0.3460
C41 C 0.7251(12) -0.5746(16) 0.5069(14)
H29 H 0.7551 -0.5758 0.4665
H30 H 0.6953 -0.6298 0.5049
H31 H 0.7513 -0.5771 0.5502
C42 C 0.7156(14) -0.409(2) 0.4828(13)
H32 H 0.7608 -0.4122 0.4688
C43 C 0.683(3) -0.325(4) 0.4787(17)
H33 H 0.7042 -0.2707 0.4589
C44 C 0.6165(10) -0.3170(16) 0.5041(12)
C45 C 0.5886(10) -0.4002(14) 0.5248(12)
H34 H 0.5438 -0.3992 0.5403
C46 C 0.6218(11) -0.4861(16) 0.5246(14)
H35 H 0.6000 -0.5436 0.5375
C47 C 0.0048(11) 0.361(2) 0.1901(18)
H36 H 0.0090 0.4308 0.1942
H37 H -0.0351 0.3402 0.2152
H38 H 0.0011 0.3438 0.1406
C48 C 0.1214(13) 0.357(2) 0.2177(17)
H39 H 0.1253 0.4177 0.1964
C49 C 0.1772(12) 0.3150(18) 0.2443(15)
H40 H 0.2183 0.3484 0.2425
C50 C 0.1749(11) 0.224(2) 0.2741(15)
C51 C 0.1109(10) 0.1816(18) 0.2767(12)
H41 H 0.1058 0.1206 0.2977
C52 C 0.0572(11) 0.227(2) 0.2497(15)
H42 H 0.0151 0.1963 0.2511
P2 P 0.6839(4) -0.5036(5) 0.7216(6)
F7 F 0.6496(8) -0.5729(10) 0.7732(11)
F8 F 0.7104(9) -0.4269(11) 0.6653(12)
F9 F 0.6115(7) -0.4722(11) 0.6927(13)
F10 F 0.6871(9) -0.4237(10) 0.7780(12)
F11 F 0.7583(8) -0.5353(12) 0.7204(14)
F12 F 0.6734(10) -0.5860(11) 0.6628(12)
N5 N 0.4003(12) 0.6009(17) 0.7162(12)
C53 C 0.3867(12) 0.6352(17) 0.6606(12)
C54 C 0.3503(12) 0.6681(18) 0.5996(13)
H43 H 0.3740 0.6491 0.5571
H44 H 0.3464 0.7377 0.6011
H45 H 0.3058 0.6396 0.5995
N6 N 0.3190(13) 0.7733(17) 0.4392(11)
C55 C 0.3647(15) 0.7333(17) 0.4192(12)
C56 C 0.4284(13) 0.6826(15) 0.3942(14)
H46 H 0.4188 0.6152 0.3854
H47 H 0.4628 0.6879 0.4304
H48 H 0.4442 0.7127 0.3509
P3? P 0.4262(7) 0.4243(9) 0.5002(7)
F13? F 0.3685(7) 0.4138(10) 0.5586(9)
F14? F 0.4680(9) 0.4752(11) 0.4397(11)
F15? F 0.3946(7) 0.5293(10) 0.4930(10)
F16? F 0.4746(8) 0.4759(11) 0.5526(10)
F17? F 0.4557(7) 0.3239(9) 0.5179(10)
F18? F 0.3726(7) 0.3802(11) 0.4488(9)
P4? P 0.6922(3) -0.5111(5) 0.6545(5)
F19? F 0.6386(7) -0.5738(11) 0.6918(10)
F20? F 0.7430(7) -0.4437(10) 0.6180(10)
F21? F 0.6338(7) -0.4631(11) 0.6120(10)
F22? F 0.6829(7) -0.4317(11) 0.7132(9)
F23? F 0.7483(7) -0.5672(11) 0.6988(10)
F24? F 0.7003(7) -0.5892(10) 0.5964(9)
O3? O 0.7465(9) 0.1597(15) 0.1787(10)
O4? O 0.0629(8) 0.1881(13) 0.7019(10)
N7? N 0.482(3) 0.106(3) 0.620(2)
N8? N 0.4170(13) -0.1224(14) 0.3456(13)
N9? N 0.6883(9) -0.4835(12) 0.4329(10)
N10? N 0.0498(11) 0.299(2) 0.2276(19)
C57? C 0.4460(11) 0.0894(18) 0.4414(14)
H49? H 0.4278 0.1516 0.4586
C58? C 0.4493(13) 0.020(2) 0.5061(14)
C59? C 0.3749(12) -0.0019(18) 0.4976(14)
H50? H 0.3656 -0.0717 0.5025
C60? C 0.3859(10) 0.0270(14) 0.4179(12)
C61? C 0.4674(17) 0.065(2) 0.5715(15)
C62? C 0.4045(11) -0.0562(14) 0.3769(12)
C63? C 0.7973(14) 0.2033(16) 0.2097(14)
H51? H 0.8188 0.2466 0.1764
H52? H 0.8295 0.1557 0.2258
H53? H 0.7810 0.2400 0.2499
C64? C 0.5072(10) 0.1113(15) 0.3987(10)
C65? C 0.5542(9) 0.1727(15) 0.4292(13)
H54? H 0.5461 0.1996 0.4741
C66? C 0.6123(10) 0.1940(19) 0.3937(11)
H55? H 0.6453 0.2321 0.4158
C67? C 0.6232(11) 0.1600(19) 0.3255(12)
C68? C 0.6818(10) 0.182(2) 0.2878(11)
H56? H 0.7139 0.2238 0.3079
C69? C 0.6926(10) 0.1439(15) 0.2218(11)
C70? C 0.6435(8) 0.0865(14) 0.1913(11)
H57? H 0.6504 0.0604 0.1460
C71? C 0.5858(8) 0.0679(14) 0.2264(9)
H58? H 0.5526 0.0305 0.2042
C72? C 0.5743(11) 0.1024(13) 0.2937(10)
C73? C 0.5162(10) 0.0800(15) 0.3309(10)
H59? H 0.4826 0.0429 0.3090
C74? C 0.4944(11) -0.0728(14) 0.5001(15)
C75? C 0.5600(13) -0.060(2) 0.4782(19)
H60? H 0.5777 0.0017 0.4688
C76? C 0.5976(16) -0.1413(15) 0.4709(19)
H61? H 0.6421 -0.1331 0.4555
C77? C 0.5770(12) -0.2343(15) 0.4838(16)
C78? C 0.5105(8) -0.2422(12) 0.5059(13)
H62? H 0.4926 -0.3041 0.5135
C79? C 0.4698(8) -0.1632(11) 0.5172(11)
H63? H 0.4264 -0.1706 0.5360
C80? C 0.0614(12) 0.2903(17) 0.7096(18)
H64? H 0.0518 0.3198 0.6642
H65? H 0.1047 0.3126 0.7266
H66? H 0.0268 0.3080 0.7433
C81? C 0.3239(15) 0.058(2) 0.5385(15)
C82? C 0.331(2) 0.157(3) 0.540(2)
H67? H 0.3643 0.1923 0.5158
C83? C 0.286(2) 0.192(3) 0.580(3)
H68? H 0.2904 0.2556 0.5966
C84? C 0.2278(17) 0.138(2) 0.6013(18)
C85? C 0.1717(19) 0.200(2) 0.648(2)
H69? H 0.1777 0.2656 0.6589
C86? C 0.1169(12) 0.1498(16) 0.6688(13)
C87? C 0.1107(11) 0.0510(17) 0.6554(11)
H70? H 0.0723 0.0177 0.6709
C88? C 0.1570(13) 0.0054(17) 0.6222(13)
H71? H 0.1529 -0.0614 0.6149
C89? C 0.2137(13) 0.0546(19) 0.5964(14)
C90? C 0.2654(13) 0.0050(19) 0.5588(14)
H72? H 0.2611 -0.0607 0.5476
C91? C 0.3280(10) 0.0779(16) 0.3805(13)
C92? C 0.3301(12) 0.1729(17) 0.3659(17)
H73? H 0.3683 0.2097 0.3770
C93? C 0.2739(13) 0.2157(18) 0.3335(18)
H74? H 0.2750 0.2817 0.3221
C94? C 0.2194(10) 0.1645(16) 0.3189(12)
C95? C 0.2171(9) 0.0660(14) 0.3366(10)
H75? H 0.1778 0.0302 0.3278
C96? C 0.2697(10) 0.0237(16) 0.3655(14)
H76? H 0.2683 -0.0425 0.3762
C97? C 0.7238(13) -0.5706(19) 0.4145(17)
H77? H 0.7717 -0.5599 0.4190
H78? H 0.7102 -0.6221 0.4461
H79? H 0.7133 -0.5883 0.3661
C98? C 0.7190(13) -0.3983(18) 0.4538(16)
H80? H 0.7661 -0.3961 0.4562
C99? C 0.683(3) -0.316(4) 0.471(2)
H81? H 0.7053 -0.2602 0.4858
C100? C 0.6154(10) -0.3184(14) 0.4673(12)
C101? C 0.5843(11) -0.4060(15) 0.4450(16)
H82? H 0.5373 -0.4085 0.4409
C102? C 0.6201(12) -0.4838(17) 0.4299(15)
H83? H 0.5977 -0.5408 0.4168
C103? C -0.0107(13) 0.346(3) 0.199(3)
H84? H -0.0061 0.4153 0.2034
H85? H -0.0498 0.3248 0.2253
H86? H -0.0160 0.3290 0.1496
C104? C 0.1118(16) 0.335(3) 0.220(3)
H87? H 0.1174 0.3932 0.1954
C105? C 0.1669(14) 0.290(2) 0.247(2)
H88? H 0.2100 0.3149 0.2380
C106? C 0.1596(11) 0.2127(19) 0.2849(15)
C107? C 0.0950(10) 0.1767(19) 0.2954(15)
H89? H 0.0882 0.1217 0.3236
C108? C 0.0419(11) 0.222(2) 0.2647(17)
H90? H -0.0015 0.1963 0.2706
N11? N 0.308(2) 0.768(3) 0.472(2)
C109? C 0.323(2) 0.718(3) 0.418(3)
C110? C 0.3646(18) 0.653(3) 0.368(2)
H91? H 0.3349 0.6210 0.3353
H92? H 0.3882 0.6052 0.3964
H93? H 0.3968 0.6919 0.3427
N12? N 0.4340(14) 0.5150(19) 0.8248(14)
C111? C 0.4180(17) 0.569(2) 0.7779(16)
C112? C 0.4269(19) 0.619(3) 0.7052(17)
H94? H 0.3906 0.5997 0.6740
H95? H 0.4695 0.5993 0.6846
H96? H 0.4263 0.6880 0.7114
loop_
_geom_bond_atom_site_label_1
_geom_bond_atom_site_label_2
_geom_bond_site_symmetry_1
_geom_bond_site_symmetry_2
P1 F1 1_555 1_555
F2 P1 1_555 1_555
F3 P1 1_555 1_555
F4 P1 1_555 1_555
F5 P1 1_555 1_555
F6 P1 1_555 1_555
O1 C7 1_555 1_555
O2 C24 1_555 1_555
N1 C5 1_555 1_555
N2 C6 1_555 1_555
N3 C41 1_555 1_555
N4 C47 1_555 1_555
C1 H1 1_555 1_555
C2 C1 1_555 1_555
C3 C2 1_555 1_555
H2 C3 1_555 1_555
C4 C1 1_555 1_555
C5 C2 1_555 1_555
C6 C4 1_555 1_555
C7 H3 1_555 1_555
H4 C7 1_555 1_555
H5 C7 1_555 1_555
C8 C1 1_555 1_555
C9 C8 1_555 1_555
H6 C9 1_555 1_555
C10 C9 1_555 1_555
H7 C10 1_555 1_555
C11 C10 1_555 1_555
C12 C11 1_555 1_555
H8 C12 1_555 1_555
C13 O1 1_555 1_555
C14 C13 1_555 1_555
H9 C14 1_555 1_555
C15 C14 1_555 1_555
H10 C15 1_555 1_555
C16 C11 1_555 1_555
C17 C8 1_555 1_555
H11 C17 1_555 1_555
C18 C2 1_555 1_555
C19 C18 1_555 1_555
H12 C19 1_555 1_555
C20 C19 1_555 1_555
H13 C20 1_555 1_555
C21 C20 1_555 1_555
C22 C21 1_555 1_555
H14 C22 1_555 1_555
C23 C18 1_555 1_555
H15 C23 1_555 1_555
C24 H16 1_555 1_555
H17 C24 1_555 1_555
H18 C24 1_555 1_555
C25 C3 1_555 1_555
C26 C25 1_555 1_555
H19 C26 1_555 1_555
C27 C26 1_555 1_555
H20 C27 1_555 1_555
C28 C27 1_555 1_555
C29 C28 1_555 1_555
H21 C29 1_555 1_555
C30 O2 1_555 1_555
C31 C30 1_555 1_555
H22 C31 1_555 1_555
C32 C31 1_555 1_555
H23 C32 1_555 1_555
C33 C28 1_555 1_555
C34 C25 1_555 1_555
H24 C34 1_555 1_555
C35 C4 1_555 1_555
C36 C35 1_555 1_555
H25 C36 1_555 1_555
C37 C36 1_555 1_555
H26 C37 1_555 1_555
C38 C37 1_555 1_555
C39 C38 1_555 1_555
H27 C39 1_555 1_555
C40 C35 1_555 1_555
H28 C40 1_555 1_555
C41 H29 1_555 1_555
H30 C41 1_555 1_555
H31 C41 1_555 1_555
C42 N3 1_555 1_555
H32 C42 1_555 1_555
C43 C42 1_555 1_555
H33 C43 1_555 1_555
C44 C21 1_555 1_555
C45 C44 1_555 1_555
H34 C45 1_555 1_555
C46 N3 1_555 1_555
H35 C46 1_555 1_555
C47 H36 1_555 1_555
H37 C47 1_555 1_555
H38 C47 1_555 1_555
C48 N4 1_555 1_555
H39 C48 1_555 1_555
C49 C48 1_555 1_555
H40 C49 1_555 1_555
C50 C38 1_555 1_555
C51 C50 1_555 1_555
H41 C51 1_555 1_555
C52 N4 1_555 1_555
H42 C52 1_555 1_555
P2 F7 1_555 1_555
F8 P2 1_555 1_555
F9 P2 1_555 1_555
F10 P2 1_555 1_555
F11 P2 1_555 1_555
F12 P2 1_555 1_555
N5 C53 1_555 1_555
C53 C54 1_555 1_555
C54 H43 1_555 1_555
H44 C54 1_555 1_555
H45 C54 1_555 1_555
N6 C55 1_555 1_555
C55 C56 1_555 1_555
C56 H46 1_555 1_555
H47 C56 1_555 1_555
H48 C56 1_555 1_555
C3 C4 1_555 1_555
C12 C13 1_555 1_555
C15 C16 1_555 1_555
C16 C17 1_555 1_555
C22 C23 1_555 1_555
C29 C30 1_555 1_555
C32 C33 1_555 1_555
C33 C34 1_555 1_555
C39 C40 1_555 1_555
C43 C44 1_555 1_555
C45 C46 1_555 1_555
C49 C50 1_555 1_555
C51 C52 1_555 1_555

#END
