
#######################################################################
#
#                 Cambridge Crystallographic Data Centre
#                                CCDC 
#
#######################################################################
#
# If this CIF has been generated from an entry in the Cambridge 
# Structural Database, then it will include bibliographic, chemical, 
# crystal, experimental, refinement or atomic coordinate data resulting 
# from the CCDC's data processing and validation procedures.
#
#######################################################################

data_BESHOZ01
_chemical_formula_moiety         'C22 H23 N3 O3'
_chemical_name_systematic        
N'-{[4-(diethylamino)-2-hydroxyphenyl]methylidene}-3-hydroxynaphthalene-2-carbohydrazide
_symmetry_cell_setting           monoclinic
_symmetry_space_group_name_H-M   'P 21'
_symmetry_Int_Tables_number      4
_space_group_name_Hall           'P 2yb'
loop_
_symmetry_equiv_pos_site_id
_symmetry_equiv_pos_as_xyz
1 x,y,z
2 -x,1/2+y,-z
_cell_length_a                   6.2031(7)
_cell_length_b                   24.906(3)
_cell_length_c                   6.6553(7)
_cell_angle_alpha                90
_cell_angle_beta                 113.154(2)
_cell_angle_gamma                90
_cell_volume                     945.386
_exptl_crystal_colour            orange
_exptl_crystal_description       bulk
_cell_formula_units_Z            2
loop_
_atom_site_label
_atom_site_type_symbol
_atom_site_fract_x
_atom_site_fract_y
_atom_site_fract_z
O1 O 0.8813(8) 0.4315(2) 0.1435(8)
O2 O 0.4519(8) 0.5412(2) 0.7912(6)
H1 H 0.5362 0.5208 0.7576
O3 O 1.0116(8) 0.4471(2) 0.8080(7)
N1 N 0.7653(9) 0.4646(2) 0.4614(8)
H2 H 0.7361 0.4605 0.3248
N2 N 0.6110(9) 0.4926(2) 0.5224(8)
N3 N -0.2747(10) 0.6346(2) 0.4819(9)
C1 C 1.0694(11) 0.4058(2) 0.2971(10)
C2 C 1.2132(12) 0.3745(3) 0.2366(10)
H3 H 1.1795 0.3696 0.0887
C3 C 1.4115(11) 0.3493(3) 0.3917(11)
C4 C 1.5629(14) 0.3164(3) 0.3308(13)
H4 H 1.5289 0.3102 0.1837
C5 C 1.7563(14) 0.2938(3) 0.4847(14)
H5 H 1.8521 0.2719 0.4421
C6 C 1.8133(13) 0.3032(3) 0.7067(13)
H6 H 1.9491 0.2884 0.8106
C7 C 1.6698(12) 0.3341(3) 0.7717(12)
H7 H 1.7067 0.3395 0.9199
C8 C 1.4656(11) 0.3578(2) 0.6151(10)
C9 C 1.3107(11) 0.3899(2) 0.6728(10)
H8 H 1.3451 0.3956 0.8203
C10 C 1.1132(11) 0.4130(2) 0.5228(10)
C11 C 0.9600(11) 0.4436(3) 0.6106(9)
C12 C 0.4272(11) 0.5093(3) 0.3661(10)
H9 H 0.4071 0.5010 0.2236
C13 C 0.2505(11) 0.5403(3) 0.4004(9)
C14 C 0.2669(10) 0.5563(2) 0.6086(9)
C15 C 0.0986(11) 0.5881(3) 0.6362(10)
H10 H 0.1177 0.5987 0.7762
C16 C -0.1016(12) 0.6048(3) 0.4561(10)
C17 C -0.1228(12) 0.5878(3) 0.2463(10)
H11 H -0.2536 0.5976 0.1235
C18 C 0.0489(11) 0.5571(3) 0.2241(10)
H12 H 0.0309 0.5468 0.0842
C19 C -0.4683(13) 0.6573(4) 0.2926(13)
H13 H -0.5937 0.6676 0.3373
H14 H -0.5290 0.6297 0.1815
C20 C -0.4003(16) 0.7046(4) 0.1958(15)
H15 H -0.5321 0.7163 0.0692
H16 H -0.2737 0.6950 0.1542
H17 H -0.3512 0.7331 0.3013
C21 C -0.2507(13) 0.6522(3) 0.6974(12)
H18 H -0.1897 0.6227 0.7991
H19 H -0.4048 0.6611 0.6928
C22 C -0.0912(15) 0.7005(4) 0.7831(14)
H20 H -0.1647 0.7318 0.6996
H21 H 0.0553 0.6941 0.7699
H22 H -0.0635 0.7063 0.9339
H23 H 0.883(13) 0.431(3) 0.021(13)
loop_
_geom_bond_atom_site_label_1
_geom_bond_atom_site_label_2
_geom_bond_site_symmetry_1
_geom_bond_site_symmetry_2
O1 C1 1_555 1_555
O2 H1 1_555 1_555
O3 C11 1_555 1_555
N1 H2 1_555 1_555
N2 N1 1_555 1_555
N3 C16 1_555 1_555
C1 C2 1_555 1_555
C2 H3 1_555 1_555
C3 C2 1_555 1_555
C4 C3 1_555 1_555
H4 C4 1_555 1_555
C5 C4 1_555 1_555
H5 C5 1_555 1_555
C6 C5 1_555 1_555
H6 C6 1_555 1_555
C7 C6 1_555 1_555
H7 C7 1_555 1_555
C8 C3 1_555 1_555
C9 C8 1_555 1_555
H8 C9 1_555 1_555
C10 C1 1_555 1_555
C11 N1 1_555 1_555
C12 N2 1_555 1_555
H9 C12 1_555 1_555
C13 C12 1_555 1_555
C14 O2 1_555 1_555
C15 C14 1_555 1_555
H10 C15 1_555 1_555
C16 C15 1_555 1_555
C17 C16 1_555 1_555
H11 C17 1_555 1_555
C18 C13 1_555 1_555
H12 C18 1_555 1_555
C19 N3 1_555 1_555
H13 C19 1_555 1_555
H14 C19 1_555 1_555
C20 C19 1_555 1_555
H15 C20 1_555 1_555
H16 C20 1_555 1_555
H17 C20 1_555 1_555
C21 N3 1_555 1_555
H18 C21 1_555 1_555
H19 C21 1_555 1_555
C22 C21 1_555 1_555
H20 C22 1_555 1_555
H21 C22 1_555 1_555
H22 C22 1_555 1_555
H23 O1 1_555 1_555
C7 C8 1_555 1_555
C9 C10 1_555 1_555
C10 C11 1_555 1_555
C13 C14 1_555 1_555
C17 C18 1_555 1_555

#END
