
#######################################################################
#
#                 Cambridge Crystallographic Data Centre
#                                CCDC 
#
#######################################################################
#
# If this CIF has been generated from an entry in the Cambridge 
# Structural Database, then it will include bibliographic, chemical, 
# crystal, experimental, refinement or atomic coordinate data resulting 
# from the CCDC's data processing and validation procedures.
#
#######################################################################

data_BESTOI
_chemical_formula_moiety         'C9 H21 N2 O1 P1 S1'
_chemical_name_systematic        
cis-2-Dimethylamino-2-thio-5-t-butyl-1,3,2-oxazaphosphorinane
_symmetry_cell_setting           monoclinic
_symmetry_space_group_name_H-M   'P 21/c'
_symmetry_Int_Tables_number      14
_space_group_name_Hall           '-P 2ybc'
loop_
_symmetry_equiv_pos_site_id
_symmetry_equiv_pos_as_xyz
1 x,y,z
2 -x,1/2+y,1/2-z
3 -x,-y,-z
4 x,1/2-y,1/2+z
_cell_length_a                   9.929(2)
_cell_length_b                   12.190(4)
_cell_length_c                   10.968(4)
_cell_angle_alpha                90
_cell_angle_beta                 107.32(4)
_cell_angle_gamma                90
_cell_volume                     1267.31
_cell_formula_units_Z            4
loop_
_atom_site_label
_atom_site_type_symbol
_atom_site_fract_x
_atom_site_fract_y
_atom_site_fract_z
P1 P 0.05423 0.40566 0.28954
S1 S -0.12662 0.40046 0.32132
O1 O 0.04473 0.46991 0.16050
N1 N 0.17720 0.46738 0.40109
N2 N 0.12569 0.28737 0.26610
C1 C 0.30505 0.50520 0.37070
C2 C 0.27243 0.56575 0.24211
C3 C 0.17752 0.49570 0.13595
C4 C 0.40745 0.60261 0.20893
C5 C 0.49747 0.50469 0.19280
C6 C 0.49536 0.67691 0.31588
C7 C 0.36585 0.67024 0.08503
C8 C 0.04761 0.22529 0.15238
C9 C 0.18131 0.21614 0.37763
loop_
_geom_bond_atom_site_label_1
_geom_bond_atom_site_label_2
_geom_bond_site_symmetry_1
_geom_bond_site_symmetry_2
P1 S1 1_555 1_555
O1 P1 1_555 1_555
N1 P1 1_555 1_555
N2 P1 1_555 1_555
C1 N1 1_555 1_555
C2 C1 1_555 1_555
C3 O1 1_555 1_555
C4 C2 1_555 1_555
C5 C4 1_555 1_555
C6 C4 1_555 1_555
C7 C4 1_555 1_555
C8 N2 1_555 1_555
C9 N2 1_555 1_555
C2 C3 1_555 1_555

#END
