
#######################################################################
#
#                 Cambridge Crystallographic Data Centre
#                                CCDC 
#
#######################################################################
#
# If this CIF has been generated from an entry in the Cambridge 
# Structural Database, then it will include bibliographic, chemical, 
# crystal, experimental, refinement or atomic coordinate data resulting 
# from the CCDC's data processing and validation procedures.
#
#######################################################################

data_BESVAY
_chemical_formula_moiety         'C20 H25 N1 O5'
_chemical_name_systematic        
'4-Hydroxy-3-((R)-3-methyl-1-(2-morpholino-2-oxoethyl)butyl)-2Hchromen-2-one unknown solvate'
_symmetry_cell_setting           monoclinic
_symmetry_space_group_name_H-M   'P 21'
_symmetry_Int_Tables_number      4
_space_group_name_Hall           'P 2yb'
loop_
_symmetry_equiv_pos_site_id
_symmetry_equiv_pos_as_xyz
1 x,y,z
2 -x,1/2+y,-z
_cell_length_a                   12.7160(15)
_cell_length_b                   10.2710(10)
_cell_length_c                   17.077(2)
_cell_angle_alpha                90
_cell_angle_beta                 91.416(6)
_cell_angle_gamma                90
_cell_volume                     2229.68
_exptl_crystal_colour            colorless
_exptl_crystal_description       prism
_chemical_melting_point          '95-98 deg.C'
_cell_formula_units_Z            4
loop_
_atom_site_label
_atom_site_type_symbol
_atom_site_fract_x
_atom_site_fract_y
_atom_site_fract_z
O1 O 0.1633(2) 0.2275(2) 0.73572(14)
H1 H 0.1142 0.2231 0.7020
O2 O 0.2134(2) 0.6684(2) 0.66720(15)
O3 O 0.2183(2) 0.6127(2) 0.79102(14)
O4 O 0.03988(19) 0.2339(2) 0.61152(12)
O5 O -0.27723(18) 0.4204(2) 0.48862(13)
N1 N -0.0682(2) 0.3568(2) 0.53530(13)
C1 C 0.1858(2) 0.3519(3) 0.75050(17)
C2 C 0.2043(2) 0.4415(3) 0.69350(16)
C3 C 0.2123(3) 0.5766(3) 0.71367(19)
C4 C 0.2126(3) 0.5224(4) 0.8492(2)
C5 C 0.1953(3) 0.3887(4) 0.83255(18)
C6 C 0.1880(3) 0.3000(5) 0.89377(19)
H2 H 0.1761 0.2102 0.8835
C7 C 0.1987(4) 0.3458(7) 0.9710(2)
H3 H 0.1933 0.2870 1.0136
C8 C 0.2172(4) 0.4786(7) 0.9853(2)
H4 H 0.2258 0.5076 1.0379
C9 C 0.2233(4) 0.5675(6) 0.9260(2)
H5 H 0.2346 0.6572 0.9368
C10 C 0.2126(3) 0.4034(3) 0.60684(16)
H6 H 0.2229 0.3070 0.6050
C11 C 0.1115(3) 0.4334(3) 0.56064(17)
H7 H 0.0856 0.5201 0.5766
H8 H 0.1275 0.4379 0.5043
C12 C 0.0251(3) 0.3345(3) 0.57181(16)
C13 C 0.3079(3) 0.4660(4) 0.5678(2)
H9 H 0.3133 0.4288 0.5145
H10 H 0.2938 0.5603 0.5617
C14 C 0.4142(3) 0.4499(5) 0.6100(2)
H11 H 0.4059 0.4843 0.6643
C15 C 0.4472(4) 0.3105(5) 0.6182(3)
H12 H 0.4526 0.2714 0.5661
H13 H 0.3948 0.2629 0.6481
H14 H 0.5157 0.3060 0.6457
C16 C 0.4974(4) 0.5349(7) 0.5715(3)
H15 H 0.5659 0.5201 0.5975
H16 H 0.4779 0.6268 0.5765
H17 H 0.5015 0.5121 0.5160
C17 C -0.1501(3) 0.2577(3) 0.53204(19)
H18 H -0.1363 0.1918 0.5733
H19 H -0.1497 0.2133 0.4806
C18 C -0.2555(3) 0.3190(3) 0.5437(2)
H20 H -0.3107 0.2514 0.5386
H21 H -0.2578 0.3550 0.5974
C19 C -0.2005(3) 0.5197(3) 0.4981(2)
H22 H -0.2039 0.5557 0.5517
H23 H -0.2165 0.5910 0.4607
C20 C -0.0900(3) 0.4697(3) 0.48454(17)
H24 H -0.0832 0.4442 0.4290
H25 H -0.0382 0.5395 0.4963
O6 O 1.02602(17) 0.2338(2) 0.09472(10)
H26 H 0.9884 0.2996 0.1021
O7 O 1.04512(18) 0.1977(2) 0.37157(11)
O8 O 1.06913(19) 0.0240(2) 0.29783(11)
O9 O 0.87916(18) 0.4033(2) 0.12259(12)
O10 O 0.5261(2) 0.4050(4) 0.22496(19)
N2 N 0.7454(2) 0.4387(3) 0.20351(16)
C21 C 1.0441(2) 0.1729(3) 0.16267(15)
C22 C 1.0460(2) 0.2349(3) 0.23380(14)
C23 C 1.0529(2) 0.1575(3) 0.30466(15)
C24 C 1.0754(3) -0.0365(3) 0.22626(16)
C25 C 1.0629(2) 0.0339(3) 0.15675(15)
C26 C 1.0681(3) -0.0340(3) 0.08511(18)
H27 H 1.0605 0.0116 0.0369
C27 C 1.0843(3) -0.1667(4) 0.0852(2)
H28 H 1.0884 -0.2120 0.0369
C28 C 1.0948(3) -0.2354(3) 0.1559(2)
H29 H 1.1048 -0.3270 0.1552
C29 C 1.0907(3) -0.1702(3) 0.2262(2)
H30 H 1.0983 -0.2164 0.2742
C30 C 1.0348(2) 0.3813(3) 0.24099(15)
H31 H 1.0475 0.4180 0.1878
C31 C 0.9215(2) 0.4183(3) 0.26115(17)
H32 H 0.8953 0.3562 0.3005
H33 H 0.9217 0.5061 0.2851
C32 C 0.8472(2) 0.4182(3) 0.19086(17)
C33 C 1.1154(2) 0.4463(3) 0.29731(16)
H34 H 1.1039 0.5416 0.2952
H35 H 1.1004 0.4175 0.3512
C34 C 1.2307(2) 0.4204(4) 0.28263(17)
H36 H 1.2469 0.3290 0.2992
C35 C 1.2991(3) 0.5111(6) 0.3316(3)
H37 H 1.3733 0.4889 0.3248
H38 H 1.2817 0.5020 0.3869
H39 H 1.2867 0.6011 0.3148
C36 C 1.2612(3) 0.4352(5) 0.1997(2)
H40 H 1.2438 0.5234 0.1816
H41 H 1.2228 0.3715 0.1672
H42 H 1.3370 0.4205 0.1955
C37 C 0.6704(3) 0.4502(4) 0.1373(2)
H43 H 0.7036 0.4193 0.0889
H44 H 0.6505 0.5426 0.1298
C38 C 0.5722(3) 0.3691(6) 0.1528(3)
H45 H 0.5202 0.3818 0.1094
H46 H 0.5914 0.2757 0.1545
C39 C 0.5984(3) 0.3814(4) 0.2884(3)
H47 H 0.6172 0.2878 0.2899
H48 H 0.5651 0.4037 0.3385
C40 C 0.6990(3) 0.4638(4) 0.2791(2)
H49 H 0.6814 0.5573 0.2834
H50 H 0.7504 0.4421 0.3216
loop_
_geom_bond_atom_site_label_1
_geom_bond_atom_site_label_2
_geom_bond_site_symmetry_1
_geom_bond_site_symmetry_2
O1 H1 1_555 1_555
O2 C3 1_555 1_555
O3 C3 1_555 1_555
O4 C12 1_555 1_555
O5 C18 1_555 1_555
N1 C12 1_555 1_555
C1 O1 1_555 1_555
C2 C1 1_555 1_555
C3 C2 1_555 1_555
C4 O3 1_555 1_555
C5 C1 1_555 1_555
C6 C5 1_555 1_555
H2 C6 1_555 1_555
C7 C6 1_555 1_555
H3 C7 1_555 1_555
C8 C7 1_555 1_555
H4 C8 1_555 1_555
C9 C4 1_555 1_555
H5 C9 1_555 1_555
C10 C2 1_555 1_555
H6 C10 1_555 1_555
C11 C10 1_555 1_555
H7 C11 1_555 1_555
H8 C11 1_555 1_555
C12 C11 1_555 1_555
C13 C10 1_555 1_555
H9 C13 1_555 1_555
H10 C13 1_555 1_555
C14 C13 1_555 1_555
H11 C14 1_555 1_555
C15 C14 1_555 1_555
H12 C15 1_555 1_555
H13 C15 1_555 1_555
H14 C15 1_555 1_555
C16 C14 1_555 1_555
H15 C16 1_555 1_555
H16 C16 1_555 1_555
H17 C16 1_555 1_555
C17 N1 1_555 1_555
H18 C17 1_555 1_555
H19 C17 1_555 1_555
C18 C17 1_555 1_555
H20 C18 1_555 1_555
H21 C18 1_555 1_555
C19 O5 1_555 1_555
H22 C19 1_555 1_555
H23 C19 1_555 1_555
C20 N1 1_555 1_555
H24 C20 1_555 1_555
H25 C20 1_555 1_555
O6 H26 1_555 1_555
O7 C23 1_555 1_555
O8 C23 1_555 1_555
O9 C32 1_555 1_555
O10 C38 1_555 1_555
N2 C32 1_555 1_555
C21 O6 1_555 1_555
C22 C21 1_555 1_555
C23 C22 1_555 1_555
C24 O8 1_555 1_555
C25 C21 1_555 1_555
C26 C25 1_555 1_555
H27 C26 1_555 1_555
C27 C26 1_555 1_555
H28 C27 1_555 1_555
C28 C27 1_555 1_555
H29 C28 1_555 1_555
C29 C24 1_555 1_555
H30 C29 1_555 1_555
C30 C22 1_555 1_555
H31 C30 1_555 1_555
C31 C30 1_555 1_555
H32 C31 1_555 1_555
H33 C31 1_555 1_555
C32 C31 1_555 1_555
C33 C30 1_555 1_555
H34 C33 1_555 1_555
H35 C33 1_555 1_555
C34 C33 1_555 1_555
H36 C34 1_555 1_555
C35 C34 1_555 1_555
H37 C35 1_555 1_555
H38 C35 1_555 1_555
H39 C35 1_555 1_555
C36 C34 1_555 1_555
H40 C36 1_555 1_555
H41 C36 1_555 1_555
H42 C36 1_555 1_555
C37 N2 1_555 1_555
H43 C37 1_555 1_555
H44 C37 1_555 1_555
C38 C37 1_555 1_555
H45 C38 1_555 1_555
H46 C38 1_555 1_555
C39 O10 1_555 1_555
H47 C39 1_555 1_555
H48 C39 1_555 1_555
C40 N2 1_555 1_555
H49 C40 1_555 1_555
H50 C40 1_555 1_555
C4 C5 1_555 1_555
C8 C9 1_555 1_555
C19 C20 1_555 1_555
C24 C25 1_555 1_555
C28 C29 1_555 1_555
C39 C40 1_555 1_555

#END
