
#######################################################################
#
#                 Cambridge Crystallographic Data Centre
#                                CCDC 
#
#######################################################################
#
# If this CIF has been generated from an entry in the Cambridge 
# Structural Database, then it will include bibliographic, chemical, 
# crystal, experimental, refinement or atomic coordinate data resulting 
# from the CCDC's data processing and validation procedures.
#
#######################################################################

data_BESZEF
_chemical_formula_moiety         'C16 H14 F4 N2 O6'
_chemical_name_systematic        
19,20-diaza-7,9,16,18-tetrafluoro-8,17-dimethoxy-2,5,11,14-tetraoxatricyclo(13.3.1.1^6,10^)icosa-1(18),6,8,10,(20),15(19),16-hexaene
_symmetry_cell_setting           triclinic
_symmetry_space_group_name_H-M   'P -1'
_symmetry_Int_Tables_number      2
_space_group_name_Hall           '-P 1'
loop_
_symmetry_equiv_pos_site_id
_symmetry_equiv_pos_as_xyz
1 x,y,z
2 -x,-y,-z
_cell_length_a                   4.437(1)
_cell_length_b                   8.275(2)
_cell_length_c                   10.899(3)
_cell_angle_alpha                97.02(1)
_cell_angle_beta                 92.79(1)
_cell_angle_gamma                91.74(1)
_cell_volume                     396.433
_exptl_crystal_colour            colorless
_exptl_crystal_description       plate
_chemical_melting_point          '563-565 K'
_cell_formula_units_Z            1
_exptl_crystal_recrystallization_method 'n-hexane/ethyl acetate'
loop_
_atom_site_label
_atom_site_type_symbol
_atom_site_fract_x
_atom_site_fract_y
_atom_site_fract_z
N1 N 0.8601(3) -0.10429(17) 0.85215(14)
O1 O 0.7651(3) 0.14314(14) 0.77822(12)
C1 C 0.7093(4) -0.0198(2) 0.77474(17)
F1 F 0.3325(3) 0.00764(13) 0.61854(10)
C2 C 0.4890(4) -0.0897(2) 0.68816(17)
C3 C 0.4233(4) -0.2571(2) 0.67725(16)
O2 O 0.2150(3) -0.34224(16) 0.59872(12)
F2 F 0.5308(3) -0.50570(12) 0.75503(10)
C4 C 0.5855(4) -0.3430(2) 0.75896(17)
O3 O 0.9496(3) -0.35621(14) 0.92027(12)
C5 C 0.7985(4) -0.2640(2) 0.84399(17)
C6 C 0.9892(4) 0.2202(2) 0.87020(18)
H1 H 1.148(5) 0.147(2) 0.8835(18)
H2 H 1.063(4) 0.312(3) 0.8323(18)
C7 C 0.1326(6) -0.2843(3) 0.4824(2)
H3 H 0.021(5) -0.371(3) 0.435(2)
H4 H 0.311(7) -0.252(3) 0.442(2)
H5 H -0.007(6) -0.191(3) 0.498(2)
C8 C 1.1675(4) -0.2734(2) 1.01247(18)
H6 H 1.320(4) -0.355(2) 1.0265(17)
H7 H 1.264(4) -0.183(2) 0.9790(17)
C8A C 0.8325(4) 0.2734(2) 0.98753(18)
O3A O 1.0504(3) 0.35621(14) 1.07973(12)
C5A C 1.2015(4) 0.2640(2) 1.15601(17)
N1A N 1.1399(3) 0.10429(17) 1.14785(14)
C1A C 1.2907(4) 0.0198(2) 1.22526(17)
O1A O 1.2349(3) -0.14314(14) 1.22178(12)
C6A C 1.0108(4) -0.2202(2) 1.12980(18)
H1A H 0.852(5) -0.147(2) 1.1165(18)
H2A H 0.937(4) -0.312(3) 1.1677(18)
C2A C 1.5110(4) 0.0897(2) 1.31184(17)
F1A F 1.6675(3) -0.00764(13) 1.38146(10)
C3A C 1.5767(4) 0.2571(2) 1.32275(16)
O2A O 1.7850(3) 0.34224(16) 1.40128(12)
C7A C 1.8674(6) 0.2843(3) 1.5176(2)
H3A H 1.979(5) 0.371(3) 1.565(2)
H4A H 1.689(7) 0.252(3) 1.558(2)
H5A H 2.007(6) 0.191(3) 1.502(2)
C4A C 1.4145(4) 0.3430(2) 1.24104(17)
F2A F 1.4692(3) 0.50570(12) 1.24497(10)
H6A H 0.680(4) 0.355(2) 0.9735(17)
H7A H 0.736(4) 0.183(2) 1.0210(17)
loop_
_geom_bond_atom_site_label_1
_geom_bond_atom_site_label_2
_geom_bond_site_symmetry_1
_geom_bond_site_symmetry_2
N1 C1 1_555 1_555
O1 C1 1_555 1_555
C1 C2 1_555 1_555
F1 C2 1_555 1_555
C2 C3 1_555 1_555
C3 O2 1_555 1_555
O2 C7 1_555 1_555
F2 C4 1_555 1_555
C4 C3 1_555 1_555
O3 C5 1_555 1_555
C5 N1 1_555 1_555
C6 O1 1_555 1_555
H1 C6 1_555 1_555
H2 C6 1_555 1_555
C7 H3 1_555 1_555
H4 C7 1_555 1_555
H5 C7 1_555 1_555
C8 O3 1_555 1_555
H6 C8 1_555 1_555
H7 C8 1_555 1_555
C8A C6 1_555 1_555
O3A C8A 1_555 1_555
C5A O3A 1_555 1_555
N1A C5A 1_555 1_555
C1A N1A 1_555 1_555
O1A C1A 1_555 1_555
C6A C8 1_555 1_555
H1A C6A 1_555 1_555
H2A C6A 1_555 1_555
C2A C1A 1_555 1_555
F1A C2A 1_555 1_555
C3A C2A 1_555 1_555
O2A C3A 1_555 1_555
C7A O2A 1_555 1_555
H3A C7A 1_555 1_555
H4A C7A 1_555 1_555
H5A C7A 1_555 1_555
C4A C5A 1_555 1_555
F2A C4A 1_555 1_555
H6A C8A 1_555 1_555
H7A C8A 1_555 1_555
C4 C5 1_555 1_555
O1A C6A 1_555 1_555
C3A C4A 1_555 1_555

#END
