
#######################################################################
#
#                 Cambridge Crystallographic Data Centre
#                                CCDC 
#
#######################################################################
#
# If this CIF has been generated from an entry in the Cambridge 
# Structural Database, then it will include bibliographic, chemical, 
# crystal, experimental, refinement or atomic coordinate data resulting 
# from the CCDC's data processing and validation procedures.
#
#######################################################################

data_BETDOW
_chemical_formula_moiety         'C17 H16 N3 P1 S1'
_chemical_name_systematic        
N-[(diphenylphosphorothioyl)methyl]pyrimidin-2-amine
_symmetry_cell_setting           monoclinic
_symmetry_space_group_name_H-M   'P 21/c'
_symmetry_Int_Tables_number      14
_space_group_name_Hall           '-P 2ybc'
loop_
_symmetry_equiv_pos_site_id
_symmetry_equiv_pos_as_xyz
1 x,y,z
2 -x,1/2+y,1/2-z
3 -x,-y,-z
4 x,1/2-y,1/2+z
_cell_length_a                   15.790(3)
_cell_length_b                   10.7872(19)
_cell_length_c                   9.8192(18)
_cell_angle_alpha                90
_cell_angle_beta                 102.512(2)
_cell_angle_gamma                90
_cell_volume                     1632.78
_exptl_crystal_colour            colorless
_exptl_crystal_description       block
_cell_formula_units_Z            4
loop_
_atom_site_label
_atom_site_type_symbol
_atom_site_fract_x
_atom_site_fract_y
_atom_site_fract_z
P1 P 0.25095(2) 0.10058(3) 0.36283(4)
S1 S 0.29351(3) 0.04289(4) 0.20126(4)
N1 N 0.40799(8) 0.10353(11) 0.53682(13)
H1 H 0.4485 0.1020 0.4908
C1 C 0.21956(9) -0.02649(13) 0.46188(15)
N2 N 0.36825(9) 0.05549(12) 0.74515(14)
N3 N 0.47382(9) -0.06327(13) 0.65997(14)
C2 C 0.15688(10) 0.20099(14) 0.31711(15)
C3 C 0.41600(9) 0.02962(13) 0.65146(15)
C4 C 0.33445(9) 0.18442(13) 0.48882(15)
H2 H 0.3527 0.2574 0.4450
H3 H 0.3109 0.2112 0.5674
C5 C 0.37839(12) -0.02185(17) 0.85329(18)
H4 H 0.3460 -0.0077 0.9204
C6 C 0.43414(12) -0.12159(17) 0.87116(18)
H5 H 0.4392 -0.1752 0.9467
C7 C 0.25904(11) -0.14134(15) 0.45755(17)
H6 H 0.2986 -0.1530 0.4009
C8 C 0.09017(11) 0.16542(16) 0.20690(18)
H7 H 0.0946 0.0917 0.1598
C9 C 0.23930(12) -0.23801(16) 0.53781(19)
H8 H 0.2664 -0.3144 0.5361
C10 C 0.16022(11) -0.01031(16) 0.54583(17)
H9 H 0.1339 0.0664 0.5498
C11 C 0.14917(12) 0.31035(16) 0.38636(17)
H10 H 0.1932 0.3352 0.4604
C12 C 0.18002(12) -0.22212(17) 0.61987(18)
H11 H 0.1667 -0.2878 0.6728
C13 C 0.48178(11) -0.13721(17) 0.77079(18)
H12 H 0.5213 -0.2022 0.7806
C14 C 0.01741(11) 0.23874(19) 0.1670(2)
H13 H -0.0269 0.2144 0.0930
C15 C 0.14021(12) -0.10893(17) 0.62393(19)
H14 H 0.0998 -0.0986 0.6792
C16 C 0.01030(11) 0.34760(19) 0.23626(19)
H15 H -0.0387 0.3970 0.2092
C17 C 0.07552(13) 0.38335(19) 0.3452(2)
H16 H 0.0705 0.4570 0.3920
loop_
_geom_bond_atom_site_label_1
_geom_bond_atom_site_label_2
_geom_bond_site_symmetry_1
_geom_bond_site_symmetry_2
P1 S1 1_555 1_555
N1 H1 1_555 1_555
C1 P1 1_555 1_555
N2 C3 1_555 1_555
N3 C3 1_555 1_555
C2 P1 1_555 1_555
C3 N1 1_555 1_555
C4 P1 1_555 1_555
H2 C4 1_555 1_555
H3 C4 1_555 1_555
C5 N2 1_555 1_555
H4 C5 1_555 1_555
C6 C5 1_555 1_555
H5 C6 1_555 1_555
C7 C1 1_555 1_555
H6 C7 1_555 1_555
C8 C2 1_555 1_555
H7 C8 1_555 1_555
C9 C7 1_555 1_555
H8 C9 1_555 1_555
C10 C1 1_555 1_555
H9 C10 1_555 1_555
C11 C2 1_555 1_555
H10 C11 1_555 1_555
C12 C9 1_555 1_555
H11 C12 1_555 1_555
C13 N3 1_555 1_555
H12 C13 1_555 1_555
C14 C8 1_555 1_555
H13 C14 1_555 1_555
C15 C10 1_555 1_555
H14 C15 1_555 1_555
C16 C14 1_555 1_555
H15 C16 1_555 1_555
C17 C11 1_555 1_555
H16 C17 1_555 1_555
N1 C4 1_555 1_555
C6 C13 1_555 1_555
C12 C15 1_555 1_555
C16 C17 1_555 1_555

#END
