
#######################################################################
#
#                 Cambridge Crystallographic Data Centre
#                                CCDC 
#
#######################################################################
#
# If this CIF has been generated from an entry in the Cambridge 
# Structural Database, then it will include bibliographic, chemical, 
# crystal, experimental, refinement or atomic coordinate data resulting 
# from the CCDC's data processing and validation procedures.
#
#######################################################################

data_BETDUC
_chemical_formula_moiety         'C17 H16 N3 P1 Se1'
_chemical_name_systematic        
N-[(diphenylphosphoroselenoyl)methyl]pyrimidin-2-amine
_symmetry_cell_setting           monoclinic
_symmetry_space_group_name_H-M   'P 21/c'
_symmetry_Int_Tables_number      14
_space_group_name_Hall           '-P 2ybc'
loop_
_symmetry_equiv_pos_site_id
_symmetry_equiv_pos_as_xyz
1 x,y,z
2 -x,1/2+y,1/2-z
3 -x,-y,-z
4 x,1/2-y,1/2+z
_cell_length_a                   17.8575(6)
_cell_length_b                   9.6463(3)
_cell_length_c                   19.5900(6)
_cell_angle_alpha                90
_cell_angle_beta                 99.183(3)
_cell_angle_gamma                90
_cell_volume                     3331.3
_exptl_crystal_colour            colorless
_exptl_crystal_description       plate
_cell_formula_units_Z            8
loop_
_atom_site_label
_atom_site_type_symbol
_atom_site_fract_x
_atom_site_fract_y
_atom_site_fract_z
Se1 Se 0.62480(2) 0.72391(2) 0.08148(2)
P1 P 0.70034(3) 0.88394(5) 0.11992(3)
N1 N 0.84288(11) 0.57502(19) 0.28408(10)
N2 N 0.75520(11) 0.73648(18) 0.23728(9)
H1 H 0.7204 0.6741 0.2420
N3 N 0.88150(11) 0.78550(19) 0.23389(10)
C1 C 0.97400(14) 0.6184(3) 0.28170(12)
H2 H 1.0255 0.5902 0.2920
C2 C 0.91563(13) 0.5383(2) 0.29899(12)
H3 H 0.9279 0.4533 0.3226
C3 C 0.82910(12) 0.6988(2) 0.25194(10)
C4 C 0.68104(14) 1.1645(2) 0.15352(12)
H4 H 0.7155 1.1477 0.1949
C5 C 0.65044(16) 1.2965(2) 0.13987(14)
H5 H 0.6642 1.3697 0.1718
C6 C 0.60980(13) 1.0834(2) 0.04599(12)
H6 H 0.5957 1.0108 0.0138
C7 C 0.73056(13) 0.8733(2) 0.21438(11)
H7 H 0.7726 0.9395 0.2282
H8 H 0.6877 0.9013 0.2378
C8 C 0.57957(15) 1.2150(3) 0.03294(14)
H9 H 0.5448 1.2323 -0.0082
C9 C 0.83491(13) 0.9991(2) 0.09042(12)
H10 H 0.8212 1.0788 0.1140
C10 C 0.66094(12) 1.0574(2) 0.10638(11)
C11 C 0.78687(12) 0.8848(2) 0.08216(10)
C12 C 0.59994(16) 1.3207(3) 0.07963(15)
H11 H 0.5792 1.4108 0.0704
C13 C 0.90245(14) 0.9973(2) 0.06447(13)
H12 H 0.9348 1.0761 0.0698
C14 C 0.95283(14) 0.7416(3) 0.24862(12)
H13 H 0.9915 0.7986 0.2355
C15 C 0.92278(16) 0.8806(3) 0.03080(15)
H14 H 0.9691 0.8790 0.0127
C16 C 0.80766(15) 0.7686(3) 0.04840(15)
H15 H 0.7751 0.6902 0.0423
C17 C 0.87577(18) 0.7666(3) 0.02351(19)
H16 H 0.8903 0.6858 0.0012
Se2 Se 0.86114(2) 0.16259(3) 0.32238(2)
P2 P 0.79196(3) 0.17838(6) 0.39995(3)
N4 N 0.63517(10) 0.54359(18) 0.27051(9)
N5 N 0.72302(11) 0.42046(19) 0.34471(9)
H17 H 0.7540 0.4350 0.3148
N6 N 0.59897(11) 0.4215(2) 0.36680(10)
C18 C 0.56341(13) 0.5837(2) 0.25241(12)
H18 H 0.5507 0.6404 0.2126
C19 C 0.75327(13) 0.3540(2) 0.40927(11)
H19 H 0.7126 0.3477 0.4380
H20 H 0.7940 0.4131 0.4342
C20 C 0.64986(12) 0.4619(2) 0.32724(11)
C21 C 0.80084(15) 0.1228(2) 0.54062(12)
H21 H 0.7470 0.1278 0.5321
C22 C 0.84229(13) 0.1442(2) 0.48663(11)
C23 C 0.95799(16) 0.1097(3) 0.56619(14)
H22 H 1.0118 0.1059 0.5753
C24 C 0.50656(14) 0.5461(3) 0.28914(13)
H23 H 0.4556 0.5753 0.2756
C25 C 0.91658(18) 0.0872(3) 0.61910(14)
H24 H 0.9421 0.0666 0.6643
C26 C 0.73492(17) -0.0857(2) 0.38823(13)
H25 H 0.7860 -0.1112 0.3868
C27 C 0.64050(15) 0.0895(3) 0.39111(14)
H26 H 0.6264 0.1843 0.3924
C28 C 0.92097(14) 0.1378(2) 0.49966(13)
H27 H 0.9494 0.1525 0.4632
C29 C 0.71503(14) 0.0541(2) 0.39058(11)
C30 C 0.6059(2) -0.1512(3) 0.38865(14)
H28 H 0.5685 -0.2213 0.3883
C31 C 0.6800(2) -0.1870(3) 0.38797(14)
H29 H 0.6938 -0.2821 0.3873
C32 C 0.83858(17) 0.0944(3) 0.60661(13)
H30 H 0.8105 0.0800 0.6433
C33 C 0.52785(14) 0.4643(3) 0.34616(13)
H31 H 0.4900 0.4367 0.3724
C34 C 0.58573(17) -0.0140(3) 0.38977(15)
H32 H 0.5342 0.0106 0.3896
loop_
_geom_bond_atom_site_label_1
_geom_bond_atom_site_label_2
_geom_bond_site_symmetry_1
_geom_bond_site_symmetry_2
Se1 P1 1_555 1_555
P1 C7 1_555 1_555
N1 C2 1_555 1_555
N2 H1 1_555 1_555
N3 C3 1_555 1_555
C1 H2 1_555 1_555
C2 C1 1_555 1_555
H3 C2 1_555 1_555
C3 N1 1_555 1_555
C4 H4 1_555 1_555
C5 C4 1_555 1_555
H5 C5 1_555 1_555
C6 H6 1_555 1_555
C7 N2 1_555 1_555
H7 C7 1_555 1_555
H8 C7 1_555 1_555
C8 C6 1_555 1_555
H9 C8 1_555 1_555
C9 H10 1_555 1_555
C10 P1 1_555 1_555
C11 P1 1_555 1_555
C12 C5 1_555 1_555
H11 C12 1_555 1_555
C13 C9 1_555 1_555
H12 C13 1_555 1_555
C14 N3 1_555 1_555
H13 C14 1_555 1_555
C15 C13 1_555 1_555
H14 C15 1_555 1_555
C16 C11 1_555 1_555
H15 C16 1_555 1_555
C17 C15 1_555 1_555
H16 C17 1_555 1_555
Se2 P2 1_555 1_555
P2 C19 1_555 1_555
N4 C18 1_555 1_555
N5 H17 1_555 1_555
N6 C20 1_555 1_555
C18 H18 1_555 1_555
C19 N5 1_555 1_555
H19 C19 1_555 1_555
H20 C19 1_555 1_555
C20 N4 1_555 1_555
C21 H21 1_555 1_555
C22 P2 1_555 1_555
C23 H22 1_555 1_555
C24 C18 1_555 1_555
H23 C24 1_555 1_555
C25 C23 1_555 1_555
H24 C25 1_555 1_555
C26 H25 1_555 1_555
C27 H26 1_555 1_555
C28 C22 1_555 1_555
H27 C28 1_555 1_555
C29 P2 1_555 1_555
C30 H28 1_555 1_555
C31 C26 1_555 1_555
H29 C31 1_555 1_555
C32 C21 1_555 1_555
H30 C32 1_555 1_555
C33 N6 1_555 1_555
H31 C33 1_555 1_555
C34 C27 1_555 1_555
H32 C34 1_555 1_555
N2 C3 1_555 1_555
C1 C14 1_555 1_555
C4 C10 1_555 1_555
C6 C10 1_555 1_555
C8 C12 1_555 1_555
C9 C11 1_555 1_555
C16 C17 1_555 1_555
N5 C20 1_555 1_555
C21 C22 1_555 1_555
C23 C28 1_555 1_555
C24 C33 1_555 1_555
C25 C32 1_555 1_555
C26 C29 1_555 1_555
C27 C29 1_555 1_555
C30 C31 1_555 1_555
C30 C34 1_555 1_555

#END
