
#######################################################################
#
#                 Cambridge Crystallographic Data Centre
#                                CCDC 
#
#######################################################################
#
# If this CIF has been generated from an entry in the Cambridge 
# Structural Database, then it will include bibliographic, chemical, 
# crystal, experimental, refinement or atomic coordinate data resulting 
# from the CCDC's data processing and validation procedures.
#
#######################################################################

data_BETFAK
_chemical_formula_moiety         'C26 H20 N3 P1 Se1'
_chemical_name_systematic        
5-(diphenylphosphoroselenoyl)-1,4-diphenyl-1H-1,2,3-triazole
_symmetry_cell_setting           monoclinic
_symmetry_space_group_name_H-M   'P 21/n'
_symmetry_Int_Tables_number      14
_space_group_name_Hall           '-P 2yn'
loop_
_symmetry_equiv_pos_site_id
_symmetry_equiv_pos_as_xyz
1 x,y,z
2 1/2-x,1/2+y,1/2-z
3 -x,-y,-z
4 1/2+x,1/2-y,1/2+z
_cell_length_a                   13.5331(7)
_cell_length_b                   8.0550(4)
_cell_length_c                   20.7172(10)
_cell_angle_alpha                90
_cell_angle_beta                 97.311(5)
_cell_angle_gamma                90
_cell_volume                     2240
_exptl_crystal_colour            colorless
_exptl_crystal_description       block
_cell_formula_units_Z            4
_exptl_crystal_recrystallization_method 'dichloromethane / pet ether'
loop_
_atom_site_label
_atom_site_type_symbol
_atom_site_fract_x
_atom_site_fract_y
_atom_site_fract_z
Se1 Se 0.67347(3) 1.01482(4) 0.47916(2)
P1 P 0.67843(6) 0.80139(9) 0.42128(4)
C1 C 0.7850(2) 0.8609(4) 0.31090(13)
N1 N 0.7642(2) 0.8821(4) 0.24472(13)
N2 N 0.6240(2) 0.8641(4) 0.28527(13)
C2 C 0.8899(2) 0.8702(4) 0.33822(14)
N3 N 0.6666(2) 0.8826(4) 0.22954(13)
C3 C 0.5162(2) 0.8764(4) 0.27993(15)
C4 C 0.4722(3) 0.9759(4) 0.32276(18)
H1 H 0.5112 1.0302 0.3565
C5 C 0.7751(2) 0.6556(4) 0.45158(14)
C6 C 0.4910(2) 0.7075(4) 0.44993(15)
H2 H 0.4974 0.7951 0.4794
C7 C 0.9194(3) 0.9692(4) 0.39236(16)
H3 H 0.8722 1.0223 0.4141
C8 C 0.5556(3) 0.5421(4) 0.36797(16)
H4 H 0.6058 0.5187 0.3426
C9 C 0.5664(2) 0.6744(4) 0.41239(14)
C10 C 0.9601(3) 0.7879(4) 0.30714(16)
H5 H 0.9397 0.7205 0.2715
C11 C 0.6981(2) 0.8467(4) 0.33796(14)
C12 C 1.0916(3) 0.9068(5) 0.38158(17)
H6 H 1.1592 0.9207 0.3956
C13 C 0.3956(3) 0.4820(4) 0.39946(19)
H7 H 0.3378 0.4184 0.3946
C14 C 0.4058(3) 0.6098(4) 0.44363(17)
H8 H 0.3556 0.6309 0.4693
C15 C 1.0607(3) 0.8055(4) 0.32877(17)
H9 H 1.1075 0.7493 0.3078
C16 C 0.8096(2) 0.6547(4) 0.51815(14)
H10 H 0.7912 0.7390 0.5449
C17 C 0.8066(3) 0.5324(4) 0.41166(17)
H11 H 0.7856 0.5344 0.3671
C18 C 1.0211(3) 0.9874(4) 0.41343(18)
H12 H 1.0417 1.0542 0.4492
C19 C 0.8689(3) 0.4077(4) 0.43788(17)
H13 H 0.8898 0.3255 0.4112
C20 C 0.9002(3) 0.4051(5) 0.50402(18)
H14 H 0.9413 0.3197 0.5217
C21 C 0.4592(3) 0.7950(5) 0.22950(17)
H15 H 0.4892 0.7279 0.2011
C22 C 0.4706(3) 0.4474(4) 0.36215(17)
H16 H 0.4635 0.3593 0.3329
C23 C 0.8713(3) 0.5270(5) 0.54405(18)
H17 H 0.8930 0.5241 0.5885
C24 C 0.3566(3) 0.8153(5) 0.2219(2)
H18 H 0.3176 0.7613 0.1881
C25 C 0.3685(3) 0.9938(4) 0.3146(2)
H19 H 0.3380 1.0593 0.3433
C26 C 0.3117(3) 0.9142(5) 0.2639(2)
H20 H 0.2429 0.9274 0.2580
loop_
_geom_bond_atom_site_label_1
_geom_bond_atom_site_label_2
_geom_bond_site_symmetry_1
_geom_bond_site_symmetry_2
Se1 P1 1_555 1_555
P1 C5 1_555 1_555
C1 N1 1_555 1_555
N1 N3 1_555 1_555
N2 N3 1_555 1_555
C2 C1 1_555 1_555
C3 N2 1_555 1_555
C4 C3 1_555 1_555
H1 C4 1_555 1_555
C5 C16 1_555 1_555
C6 H2 1_555 1_555
C7 C2 1_555 1_555
H3 C7 1_555 1_555
C8 H4 1_555 1_555
C9 P1 1_555 1_555
C10 C2 1_555 1_555
H5 C10 1_555 1_555
C11 P1 1_555 1_555
C12 H6 1_555 1_555
C13 H7 1_555 1_555
C14 C6 1_555 1_555
H8 C14 1_555 1_555
C15 C10 1_555 1_555
H9 C15 1_555 1_555
C16 H10 1_555 1_555
C17 C5 1_555 1_555
H11 C17 1_555 1_555
C18 C7 1_555 1_555
H12 C18 1_555 1_555
C19 C17 1_555 1_555
H13 C19 1_555 1_555
C20 C19 1_555 1_555
H14 C20 1_555 1_555
C21 C3 1_555 1_555
H15 C21 1_555 1_555
C22 C8 1_555 1_555
H16 C22 1_555 1_555
C23 C16 1_555 1_555
H17 C23 1_555 1_555
C24 C21 1_555 1_555
H18 C24 1_555 1_555
C25 C4 1_555 1_555
H19 C25 1_555 1_555
C26 C24 1_555 1_555
H20 C26 1_555 1_555
C1 C11 1_555 1_555
N2 C11 1_555 1_555
C6 C9 1_555 1_555
C8 C9 1_555 1_555
C12 C15 1_555 1_555
C12 C18 1_555 1_555
C13 C14 1_555 1_555
C13 C22 1_555 1_555
C20 C23 1_555 1_555
C25 C26 1_555 1_555

#END
