
#######################################################################
#
#                 Cambridge Crystallographic Data Centre
#                                CCDC 
#
#######################################################################
#
# If this CIF has been generated from an entry in the Cambridge 
# Structural Database, then it will include bibliographic, chemical, 
# crystal, experimental, refinement or atomic coordinate data resulting 
# from the CCDC's data processing and validation procedures.
#
#######################################################################

data_BETFEL
_chemical_name_common            '(+)-ketopinic acid'
_chemical_formula_moiety         'C10 H14 O3'
_chemical_name_systematic        
'(+)-7,7-Dimethyl-2-oxobicyclo(2.2.1)heptane-1-carboxylic acid'
_symmetry_cell_setting           orthorhombic
_symmetry_space_group_name_H-M   'P 21 21 21'
_symmetry_Int_Tables_number      19
_space_group_name_Hall           'P 2ac 2ab'
loop_
_symmetry_equiv_pos_site_id
_symmetry_equiv_pos_as_xyz
1 x,y,z
2 1/2-x,-y,1/2+z
3 1/2+x,1/2-y,-z
4 -x,1/2+y,1/2-z
_cell_length_a                   7.363(1)
_cell_length_b                   11.299(1)
_cell_length_c                   23.502(3)
_cell_angle_alpha                90
_cell_angle_beta                 90
_cell_angle_gamma                90
_cell_volume                     1955.24
_exptl_crystal_colour            colorless
_exptl_crystal_description       Prism
_chemical_melting_point          'Sublimes below 502-508K'
_cell_formula_units_Z            8
_exptl_crystal_recrystallization_method 'aqueous ethanol'
loop_
_atom_site_label
_atom_site_type_symbol
_atom_site_fract_x
_atom_site_fract_y
_atom_site_fract_z
O1 O 0.1899(6) 1.1483(3) 0.07413(15)
O2 O 0.1198(4) 0.8342(3) 0.06613(12)
O3 O 0.3865(4) 0.8946(3) 0.09592(11)
C1 C 0.2672(5) 0.9814(3) 0.01278(13)
C2 C 0.2096(7) 1.1082(3) 0.02763(19)
C3 C 0.1792(7) 1.1691(4) -0.02876(19)
C4 C 0.2237(6) 1.0727(4) -0.07162(17)
C5 C 0.4294(6) 1.0564(4) -0.07025(17)
C6 C 0.4615(5) 0.9999(4) -0.01183(15)
C7 C 0.1528(5) 0.9598(3) -0.04184(15)
C8 C 0.2011(6) 0.8460(4) -0.07227(17)
C9 C -0.0534(5) 0.9623(5) -0.0317(2)
C10 C 0.2584(5) 0.8980(3) 0.06109(14)
H1 H 0.1304 0.7919 0.0943
H3 H 0.2595 1.2366 -0.0332
H4 H 0.0543 1.1954 -0.0326
H5 H 0.1735 1.0860 -0.1097
H6 H 0.4916 1.1318 -0.0734
H7 H 0.4698 1.0047 -0.1007
H8 H 0.5323 1.0519 0.0124
H9 H 0.5247 0.9249 -0.0156
H10 H 0.3305 0.8407 -0.0763
H11 H 0.1456 0.8455 -0.1092
H12 H 0.1576 0.7798 -0.0506
H13 H -0.0826 1.0252 -0.0058
H14 H -0.0916 0.8882 -0.0157
H15 H -0.1149 0.9752 -0.0671
O4 O 0.2257(5) 0.7970(3) 0.30368(12)
O5 O 0.3664(3) 0.74821(17) 0.18471(8)
O6 O 0.0981(3) 0.69042(17) 0.15406(8)
C11 C 0.1949(4) 0.6212(3) 0.24375(14)
C12 C 0.2302(5) 0.6908(4) 0.29895(14)
C13 C 0.2584(7) 0.5991(4) 0.34442(17)
C14 C 0.2330(6) 0.4839(4) 0.31230(16)
C15 C 0.0296(6) 0.4742(4) 0.29874(18)
C16 C 0.0010(5) 0.5700(4) 0.25324(19)
C17 C 0.3187(5) 0.5108(3) 0.25382(16)
C18 C 0.5217(5) 0.5415(4) 0.2564(2)
C19 C 0.2896(7) 0.4143(3) 0.20936(19)
C20 C 0.2207(5) 0.6907(3) 0.19089(14)
H16 H 0.3647 0.7828 0.1540
H18 H 0.1694 0.6072 0.3746
H19 H 0.3793 0.6045 0.3606
H20 H 0.2839 0.4144 0.3315
H21 H -0.0436 0.4898 0.3322
H22 H -0.0004 0.3964 0.2841
H23 H -0.0817 0.6307 0.2666
H24 H -0.0468 0.5361 0.2184
H25 H 0.5395 0.6082 0.2810
H26 H 0.5644 0.5606 0.2189
H27 H 0.5882 0.4748 0.2708
H28 H 0.1619 0.4007 0.2045
H29 H 0.3471 0.3425 0.2218
H30 H 0.3417 0.4388 0.1738
H2? H 0.3646 0.8450 0.1204
H17? H 0.1288 0.7320 0.1271
loop_
_geom_bond_atom_site_label_1
_geom_bond_atom_site_label_2
_geom_bond_site_symmetry_1
_geom_bond_site_symmetry_2
O1 C2 1_555 1_555
O2 C10 1_555 1_555
O3 C10 1_555 1_555
C1 C2 1_555 1_555
C2 C3 1_555 1_555
C3 C4 1_555 1_555
C4 C5 1_555 1_555
C5 C6 1_555 1_555
C6 C1 1_555 1_555
C7 C1 1_555 1_555
C8 C7 1_555 1_555
C9 C7 1_555 1_555
C10 C1 1_555 1_555
H1 O2 1_555 1_555
H3 C3 1_555 1_555
H4 C3 1_555 1_555
H5 C4 1_555 1_555
H6 C5 1_555 1_555
H7 C5 1_555 1_555
H8 C6 1_555 1_555
H9 C6 1_555 1_555
H10 C8 1_555 1_555
H11 C8 1_555 1_555
H12 C8 1_555 1_555
H13 C9 1_555 1_555
H14 C9 1_555 1_555
H15 C9 1_555 1_555
O4 C12 1_555 1_555
O5 C20 1_555 1_555
O6 C20 1_555 1_555
C11 C12 1_555 1_555
C12 C13 1_555 1_555
C13 C14 1_555 1_555
C14 C15 1_555 1_555
C15 C16 1_555 1_555
C16 C11 1_555 1_555
C17 C11 1_555 1_555
C18 C17 1_555 1_555
C19 C17 1_555 1_555
C20 C11 1_555 1_555
H16 O5 1_555 1_555
H18 C13 1_555 1_555
H19 C13 1_555 1_555
H20 C14 1_555 1_555
H21 C15 1_555 1_555
H22 C15 1_555 1_555
H23 C16 1_555 1_555
H24 C16 1_555 1_555
H25 C18 1_555 1_555
H26 C18 1_555 1_555
H27 C18 1_555 1_555
H28 C19 1_555 1_555
H29 C19 1_555 1_555
H30 C19 1_555 1_555
C4 C7 1_555 1_555
C14 C17 1_555 1_555

#END
