
#######################################################################
#
#                 Cambridge Crystallographic Data Centre
#                                CCDC 
#
#######################################################################
#
# If this CIF has been generated from an entry in the Cambridge 
# Structural Database, then it will include bibliographic, chemical, 
# crystal, experimental, refinement or atomic coordinate data resulting 
# from the CCDC's data processing and validation procedures.
#
#######################################################################

data_BETJIT
_chemical_compound_source        'leaves of Callicarpa pentandra'
_chemical_formula_moiety         'C20 H30 O4'
_chemical_name_systematic        
'3-\a-hydroxy-12-oxo-cleroda-4(18),13(16)-dien-15-oic acid'
_chemical_properties_biological  
'treatment of rheumatism, stomach and intestinal disorders'
_symmetry_cell_setting           orthorhombic
_symmetry_space_group_name_H-M   'P 21 21 21'
_symmetry_Int_Tables_number      19
_space_group_name_Hall           'P 2ac 2ab'
loop_
_symmetry_equiv_pos_site_id
_symmetry_equiv_pos_as_xyz
1 x,y,z
2 1/2-x,-y,1/2+z
3 1/2+x,1/2-y,-z
4 -x,1/2+y,1/2-z
_cell_length_a                   7.2303(1)
_cell_length_b                   11.5201(3)
_cell_length_c                   22.5240(5)
_cell_angle_alpha                90
_cell_angle_beta                 90
_cell_angle_gamma                90
_cell_volume                     1876.11
_exptl_crystal_colour            colorless
_chemical_melting_point          135-137deg.C
_cell_formula_units_Z            4
loop_
_atom_site_label
_atom_site_type_symbol
_atom_site_fract_x
_atom_site_fract_y
_atom_site_fract_z
O1 O 0.4423(3) 0.6756(2) 0.0127(1)
O2 O 0.5271(3) 0.1851(2) 0.0921(1)
O3 O 0.8115(2) -0.0991(2) 0.0910(1)
O4 O 0.5294(2) -0.0985(2) 0.0503(1)
C1 C 0.3603(3) 0.4245(2) 0.0340(1)
C2 C 0.5470(3) 0.4811(2) 0.0219(1)
C3 C 0.5603(3) 0.6016(2) 0.0490(1)
C4 C 0.5042(3) 0.6000(2) 0.1139(1)
C5 C 0.3212(3) 0.5403(2) 0.1301(1)
C6 C 0.3053(3) 0.5230(2) 0.1977(1)
C7 C 0.1399(4) 0.4487(2) 0.2151(1)
C8 C 0.1456(4) 0.3271(2) 0.1873(1)
C9 C 0.1630(3) 0.3324(2) 0.1183(1)
C10 C 0.3247(3) 0.4159(2) 0.1011(1)
C11 C 0.2007(3) 0.2079(2) 0.0938(1)
C12 C 0.3791(4) 0.1470(2) 0.1101(1)
C13 C 0.3824(4) 0.0352(2) 0.1428(1)
C14 C 0.5685(4) -0.0209(2) 0.1481(1)
C15 C 0.6325(4) -0.0753(2) 0.0910(1)
C16 C 0.2321(6) -0.0165(3) 0.1638(2)
C17 C -0.0192(5) 0.2568(3) 0.2110(2)
C18 C 0.6197(4) 0.6461(2) 0.1531(1)
C19 C 0.1614(4) 0.6210(2) 0.1088(1)
C20 C -0.0239(3) 0.3683(3) 0.0897(1)
H1 H 0.4720(40) 0.7410(30) 0.0230(12)
H2 H 0.8480(40) -0.1290(30) 0.0544(14)
H3 H 0.3581 0.3474 0.0167
H4 H 0.2631 0.4700 0.0156
H5 H 0.6443 0.4326 0.0382
H6 H 0.5660 0.4865 -0.0206
H7 H 0.6883 0.6289 0.0459
H8 H 0.4174 0.4865 0.2123
H9 H 0.2945 0.5983 0.2167
H10 H 0.0574 0.4876 0.2026
H11 H 0.1364 0.4413 0.2579
H12 H 0.2579 0.2893 0.2021
H13 H 0.4360 0.3790 0.1172
H14 H 0.0994 0.1586 0.1065
H15 H 0.1951 0.2120 0.0508
H16 H 0.5633 -0.0802 0.1786
H17 H 0.6581 0.0369 0.1604
H18 H 0.1166 0.0173 0.1584
H19 H 0.2423 -0.0866 0.1840
H20 H -0.0090 0.2492 0.2533
H21 H -0.0193 0.1811 0.1931
H22 H -0.1324 0.2961 0.2014
H23 H 0.7310 0.6781 0.1404
H24 H 0.5892 0.6465 0.1932
H25 H 0.0550(40) 0.6020(30) 0.1288(12)
H26 H 0.1970(40) 0.7010(30) 0.1213(12)
H27 H 0.1360(40) 0.6180(20) 0.0651(12)
H28 H -0.1116 0.3062 0.0941
H29 H -0.0056 0.3841 0.0483
H30 H -0.0703 0.4366 0.1091
loop_
_geom_bond_atom_site_label_1
_geom_bond_atom_site_label_2
_geom_bond_site_symmetry_1
_geom_bond_site_symmetry_2
O1 C3 1_555 1_555
O2 C12 1_555 1_555
O3 C15 1_555 1_555
O4 C15 1_555 1_555
C1 C2 1_555 1_555
C2 C3 1_555 1_555
C3 C4 1_555 1_555
C4 C5 1_555 1_555
C5 C6 1_555 1_555
C6 C7 1_555 1_555
C7 C8 1_555 1_555
C8 C9 1_555 1_555
C9 C10 1_555 1_555
C10 C1 1_555 1_555
C11 C9 1_555 1_555
C12 C11 1_555 1_555
C13 C12 1_555 1_555
C14 C13 1_555 1_555
C15 C14 1_555 1_555
C16 C13 1_555 1_555
C17 C8 1_555 1_555
C18 C4 1_555 1_555
C19 C5 1_555 1_555
C20 C9 1_555 1_555
H1 O1 1_555 1_555
H2 O3 1_555 1_555
H3 C1 1_555 1_555
H4 C1 1_555 1_555
H5 C2 1_555 1_555
H6 C2 1_555 1_555
H7 C3 1_555 1_555
H8 C6 1_555 1_555
H9 C6 1_555 1_555
H10 C7 1_555 1_555
H11 C7 1_555 1_555
H12 C8 1_555 1_555
H13 C10 1_555 1_555
H14 C11 1_555 1_555
H15 C11 1_555 1_555
H16 C14 1_555 1_555
H17 C14 1_555 1_555
H18 C16 1_555 1_555
H19 C16 1_555 1_555
H20 C17 1_555 1_555
H21 C17 1_555 1_555
H22 C17 1_555 1_555
H23 C18 1_555 1_555
H24 C18 1_555 1_555
H25 C19 1_555 1_555
H26 C19 1_555 1_555
H27 C19 1_555 1_555
H28 C20 1_555 1_555
H29 C20 1_555 1_555
H30 C20 1_555 1_555
C5 C10 1_555 1_555

#END
