
#######################################################################
#
#                 Cambridge Crystallographic Data Centre
#                                CCDC 
#
#######################################################################
#
# If this CIF has been generated from an entry in the Cambridge 
# Structural Database, then it will include bibliographic, chemical, 
# crystal, experimental, refinement or atomic coordinate data resulting 
# from the CCDC's data processing and validation procedures.
#
#######################################################################

data_BETJAL03
_chemical_name_common            N-(pyridin-3-oyl)-N,N'-dicyclohexylurea
_chemical_formula_moiety         'C19 H27 N3 O2'
_chemical_name_systematic        
N-Cyclohexyl-N-(cyclohexylcarbamoyl)nicotinamide
_symmetry_cell_setting           triclinic
_symmetry_space_group_name_H-M   'P -1'
_symmetry_Int_Tables_number      2
_space_group_name_Hall           '-P 1'
loop_
_symmetry_equiv_pos_site_id
_symmetry_equiv_pos_as_xyz
1 x,y,z
2 -x,-y,-z
_cell_length_a                   9.5410(3)
_cell_length_b                   12.8113(6)
_cell_length_c                   15.7832(8)
_cell_angle_alpha                67.425(2)
_cell_angle_beta                 86.977(3)
_cell_angle_gamma                85.107(3)
_cell_volume                     1774.49
_exptl_crystal_colour            colorless
_exptl_crystal_description       slab
_cell_formula_units_Z            4
_exptl_crystal_recrystallization_method acetone
loop_
_atom_site_label
_atom_site_type_symbol
_atom_site_fract_x
_atom_site_fract_y
_atom_site_fract_z
N1 N 0.4332(2) 0.68569(18) 0.32837(15)
O2 O 0.61625(17) 0.77379(16) 0.23172(13)
N2 N 0.4542(2) 0.69539(19) 0.17797(16)
H1 H 0.372(3) 0.669(2) 0.1845(19)
N3 N 0.6858(2) 0.3874(2) 0.31964(17)
O4 O 0.3284(2) 0.54857(16) 0.44682(14)
C5 C 0.4764(3) 0.4865(2) 0.34827(18)
C6 C 0.5108(3) 0.7210(2) 0.24240(19)
C7 C 0.4056(3) 0.5753(2) 0.3789(2)
C8 C 0.3837(3) 0.7746(2) 0.36390(19)
H5 H 0.3003 0.7481 0.4029
C11 C 0.6206(3) 0.4682(2) 0.34481(19)
H9 H 0.6754 0.5143 0.3607
C12 C 0.3946(3) 0.4162(2) 0.32690(19)
H10 H 0.2970 0.4249 0.3306
C15 C 0.5131(3) 0.7284(2) 0.08491(19)
H12 H 0.6139 0.7367 0.0870
C17 C 0.4442(3) 0.8418(2) 0.02229(19)
H14 H 0.4597 0.8996 0.0458
H15 H 0.3436 0.8362 0.0216
C18 C 0.4960(3) 0.6367(2) 0.0481(2)
H16 H 0.3971 0.6237 0.0496
H17 H 0.5452 0.5666 0.0872
C21 C 0.5054(3) 0.8759(2) -0.0753(2)
H21 H 0.4569 0.9461 -0.1148
H22 H 0.6041 0.8888 -0.0754
C23 C 0.4914(3) 0.7926(2) 0.4233(2)
H25 H 0.5764 0.8177 0.3872
H26 H 0.5153 0.7216 0.4737
C24 C 0.6042(3) 0.3223(2) 0.2972(2)
H27 H 0.6478 0.2666 0.2786
C26 C 0.3382(3) 0.8851(2) 0.2865(2)
H30 H 0.2661 0.8716 0.2516
H31 H 0.4179 0.9127 0.2455
C29 C 0.2811(3) 0.9746(2) 0.3235(2)
H36 H 0.2592 1.0457 0.2726
H37 H 0.1950 0.9510 0.3587
C30 C 0.5539(3) 0.6701(3) -0.0501(2)
H38 H 0.6553 0.6722 -0.0501
H39 H 0.5337 0.6131 -0.0733
C31 C 0.4907(3) 0.7848(3) -0.1131(2)
H40 H 0.3918 0.7793 -0.1210
H41 H 0.5373 0.8062 -0.1729
C32 C 0.3878(3) 0.9919(3) 0.3840(2)
H42 H 0.3469 1.0453 0.4100
H43 H 0.4695 1.0240 0.3470
C33 C 0.4592(3) 0.3333(2) 0.3002(2)
H44 H 0.4064 0.2859 0.2845
C36 C 0.4333(3) 0.8809(3) 0.4612(2)
H49 H 0.3534 0.8526 0.5018
H50 H 0.5049 0.8941 0.4966
O1 O 0.17329(17) 0.24932(15) 0.24959(13)
O3 O -0.16032(19) 0.47165(16) 0.06071(14)
N4 N -0.0295(2) 0.33109(18) 0.16816(15)
N5 N -0.0112(2) 0.30733(19) 0.32102(16)
H2 H -0.099(3) 0.332(2) 0.3194(19)
N6 N 0.1655(2) 0.61595(19) 0.18719(16)
C1 C 0.0546(3) 0.2933(2) 0.24923(19)
C2 C -0.0263(3) 0.5269(2) 0.15636(19)
C3 C 0.0592(3) 0.2762(2) 0.40791(18)
H3 H 0.1606 0.2789 0.3945
C4 C -0.1215(3) 0.6005(2) 0.17872(19)
H4 H -0.2176 0.5971 0.1740
C9 C 0.0743(3) 0.2283(2) 0.0727(2)
H6 H 0.1560 0.2029 0.1114
H7 H 0.0933 0.2995 0.0233
C10 C -0.0727(3) 0.6791(2) 0.2081(2)
H8 H -0.1348 0.7278 0.2254
C13 C 0.1162(3) 0.5392(2) 0.16028(19)
H11 H 0.1806 0.4916 0.1433
C14 C -0.0787(3) 0.4418(2) 0.12376(19)
C16 C -0.0530(3) 0.2463(2) 0.12888(19)
H13 H -0.1324 0.2762 0.0874
C19 C 0.0701(3) 0.6833(2) 0.2111(2)
H18 H 0.1027 0.7361 0.2311
C20 C -0.0926(3) 0.1351(2) 0.2033(2)
H19 H -0.1778 0.1484 0.2351
H20 H -0.0181 0.1060 0.2477
C22 C 0.0332(3) 0.1562(2) 0.47251(19)
H23 H 0.0636 0.1039 0.4431
H24 H -0.0667 0.1502 0.4866
C25 C 0.0761(3) 0.2092(3) 0.6066(2)
H28 H -0.0212 0.2034 0.6282
H29 H 0.1350 0.1905 0.6594
C27 C 0.0175(3) 0.3609(2) 0.4518(2)
H32 H -0.0830 0.3616 0.4646
H33 H 0.0390 0.4361 0.4096
C28 C 0.1132(3) 0.1251(2) 0.5608(2)
H34 H 0.0912 0.0499 0.6028
H35 H 0.2135 0.1232 0.5471
C34 C 0.0134(3) 0.0290(3) 0.1087(2)
H45 H -0.0041 -0.0253 0.0821
H46 H 0.0922 -0.0017 0.1496
C35 C 0.0965(3) 0.3300(2) 0.5409(2)
H47 H 0.1960 0.3388 0.5267
H48 H 0.0633 0.3818 0.5703
C37 C -0.1160(3) 0.0477(3) 0.1626(2)
H51 H -0.1368 -0.0234 0.2116
H52 H -0.1961 0.0737 0.1225
C38 C 0.0498(3) 0.1407(3) 0.0326(2)
H53 H 0.1338 0.1282 -0.0006
H54 H -0.0266 0.1690 -0.0104
loop_
_geom_bond_atom_site_label_1
_geom_bond_atom_site_label_2
_geom_bond_site_symmetry_1
_geom_bond_site_symmetry_2
N1 C6 1_555 1_555
O1 C1 1_555 1_555
O2 C6 1_555 1_555
O3 C14 1_555 1_555
N2 H1 1_555 1_555
N3 C11 1_555 1_555
N4 C1 1_555 1_555
N5 H2 1_555 1_555
O4 C7 1_555 1_555
N6 C13 1_555 1_555
C1 N5 1_555 1_555
C2 C4 1_555 1_555
C3 N5 1_555 1_555
H3 C3 1_555 1_555
C4 H4 1_555 1_555
C5 C7 1_555 1_555
C6 N2 1_555 1_555
C7 N1 1_555 1_555
C8 N1 1_555 1_555
H5 C8 1_555 1_555
C9 H6 1_555 1_555
H7 C9 1_555 1_555
C10 C4 1_555 1_555
H8 C10 1_555 1_555
C11 C5 1_555 1_555
H9 C11 1_555 1_555
C12 C5 1_555 1_555
H10 C12 1_555 1_555
C13 C2 1_555 1_555
H11 C13 1_555 1_555
C14 N4 1_555 1_555
C15 N2 1_555 1_555
H12 C15 1_555 1_555
C16 N4 1_555 1_555
H13 C16 1_555 1_555
C17 C15 1_555 1_555
H14 C17 1_555 1_555
H15 C17 1_555 1_555
C18 C15 1_555 1_555
H16 C18 1_555 1_555
H17 C18 1_555 1_555
C19 N6 1_555 1_555
H18 C19 1_555 1_555
C20 C16 1_555 1_555
H19 C20 1_555 1_555
H20 C20 1_555 1_555
C21 C17 1_555 1_555
H21 C21 1_555 1_555
H22 C21 1_555 1_555
C22 C3 1_555 1_555
H23 C22 1_555 1_555
H24 C22 1_555 1_555
C23 C8 1_555 1_555
H25 C23 1_555 1_555
H26 C23 1_555 1_555
C24 N3 1_555 1_555
H27 C24 1_555 1_555
C25 H28 1_555 1_555
H29 C25 1_555 1_555
C26 C8 1_555 1_555
H30 C26 1_555 1_555
H31 C26 1_555 1_555
C27 C3 1_555 1_555
H32 C27 1_555 1_555
H33 C27 1_555 1_555
C28 C22 1_555 1_555
H34 C28 1_555 1_555
H35 C28 1_555 1_555
C29 C26 1_555 1_555
H36 C29 1_555 1_555
H37 C29 1_555 1_555
C30 C18 1_555 1_555
H38 C30 1_555 1_555
H39 C30 1_555 1_555
C31 C21 1_555 1_555
H40 C31 1_555 1_555
H41 C31 1_555 1_555
C32 C29 1_555 1_555
H42 C32 1_555 1_555
H43 C32 1_555 1_555
C33 C12 1_555 1_555
H44 C33 1_555 1_555
C34 H45 1_555 1_555
H46 C34 1_555 1_555
C35 C25 1_555 1_555
H47 C35 1_555 1_555
H48 C35 1_555 1_555
C36 C23 1_555 1_555
H49 C36 1_555 1_555
H50 C36 1_555 1_555
C37 C20 1_555 1_555
H51 C37 1_555 1_555
H52 C37 1_555 1_555
C38 C9 1_555 1_555
H53 C38 1_555 1_555
H54 C38 1_555 1_555
C2 C14 1_555 1_555
C9 C16 1_555 1_555
C10 C19 1_555 1_555
C24 C33 1_555 1_555
C25 C28 1_555 1_555
C27 C35 1_555 1_555
C30 C31 1_555 1_555
C32 C36 1_555 1_555
C34 C37 1_555 1_555
C34 C38 1_555 1_555

#END
