
#######################################################################
#
#                 Cambridge Crystallographic Data Centre
#                                CCDC 
#
#######################################################################
#
# If this CIF has been generated from an entry in the Cambridge 
# Structural Database, then it will include bibliographic, chemical, 
# crystal, experimental, refinement or atomic coordinate data resulting 
# from the CCDC's data processing and validation procedures.
#
#######################################################################

data_BETJEQ
_chemical_formula_moiety         'C17 H19 N1 O3 S1'
_chemical_name_systematic        
6-Methyl-2-(toluene-4-sulfonyl)-3-vinyl-2,3,3a,4-tetrahydro-1H-cyclopenta(c)pyrrol-5-one
_symmetry_cell_setting           orthorhombic
_symmetry_space_group_name_H-M   'P 21 21 21'
_symmetry_Int_Tables_number      19
_space_group_name_Hall           'P 2ac 2ab'
loop_
_symmetry_equiv_pos_site_id
_symmetry_equiv_pos_as_xyz
1 x,y,z
2 1/2-x,-y,1/2+z
3 -x,1/2+y,1/2-z
4 1/2+x,1/2-y,-z
_cell_length_a                   5.794(8)
_cell_length_b                   14.0776(12)
_cell_length_c                   19.4686(13)
_cell_angle_alpha                90
_cell_angle_beta                 90
_cell_angle_gamma                90
_cell_volume                     1587.97
_exptl_crystal_colour            colorless
_exptl_crystal_description       block
_cell_formula_units_Z            4
loop_
_atom_site_label
_atom_site_type_symbol
_atom_site_fract_x
_atom_site_fract_y
_atom_site_fract_z
S1 S 0.9838(3) 1.70941(12) 1.21296(9)
N1 N 1.1133(7) 1.7185(4) 1.2861(2)
O1 O 1.7916(9) 1.8310(4) 1.4614(2)
O2 O 0.9752(9) 1.6118(3) 1.1960(2)
O3 O 0.7804(7) 1.7628(4) 1.2210(3)
C1 C 1.3191(9) 1.6630(4) 1.3029(3)
H1 H 1.4463 1.6816 1.2726
C2 C 1.3617(10) 1.7017(5) 1.3748(3)
H2 H 1.2508 1.6733 1.4068
C3 C 1.3115(9) 1.8041(5) 1.3669(3)
C4 C 1.1275(11) 1.8155(4) 1.3158(3)
H3 H 1.1689 1.8620 1.2812
H4 H 0.9830 1.8339 1.3371
C5 C 1.2872(14) 1.5584(5) 1.3000(3)
H5 H 1.1445 1.5336 1.3126
C6 C 1.4473(16) 1.4996(5) 1.2808(4)
H6 H 1.5915 1.5224 1.2679
H7 H 1.4177 1.4346 1.2800
C7 C 1.5962(11) 1.7003(5) 1.4059(3)
H8 H 1.7118 1.6811 1.3727
H9 H 1.6023 1.6577 1.4451
C8 C 1.6304(13) 1.8022(6) 1.4277(3)
C9 C 1.4564(13) 1.8621(5) 1.3982(3)
C10 C 1.4678(17) 1.9674(5) 1.3988(4)
H10 H 1.5981 1.9874 1.4256
H11 H 1.3288 1.9925 1.4186
H12 H 1.4838 1.9904 1.3526
C11 C 1.1435(9) 1.7692(4) 1.1513(3)
C12 C 1.3394(10) 1.7285(4) 1.1261(4)
H13 H 1.3865 1.6687 1.1407
C13 C 1.4648(10) 1.7781(5) 1.0786(3)
H14 H 1.5976 1.7503 1.0608
C14 C 1.4045(12) 1.8660(5) 1.0562(3)
C15 C 1.2089(11) 1.9049(5) 1.0820(3)
H15 H 1.1620 1.9649 1.0678
C16 C 1.0820(11) 1.8563(4) 1.1285(3)
H16 H 0.9476 1.8838 1.1454
C17 C 1.5517(12) 1.9200(6) 1.0067(3)
H17 H 1.6882 1.8840 0.9966
H18 H 1.5945 1.9799 1.0265
H19 H 1.4668 1.9309 0.9650
loop_
_geom_bond_atom_site_label_1
_geom_bond_atom_site_label_2
_geom_bond_site_symmetry_1
_geom_bond_site_symmetry_2
S1 N1 1_555 1_555
N1 C1 1_555 1_555
O1 C8 1_555 1_555
O2 S1 1_555 1_555
O3 S1 1_555 1_555
C1 H1 1_555 1_555
C2 C1 1_555 1_555
H2 C2 1_555 1_555
C3 C2 1_555 1_555
C4 N1 1_555 1_555
H3 C4 1_555 1_555
H4 C4 1_555 1_555
C5 C1 1_555 1_555
H5 C5 1_555 1_555
C6 C5 1_555 1_555
H6 C6 1_555 1_555
H7 C6 1_555 1_555
C7 C2 1_555 1_555
H8 C7 1_555 1_555
H9 C7 1_555 1_555
C8 C7 1_555 1_555
C9 C3 1_555 1_555
C10 C9 1_555 1_555
H10 C10 1_555 1_555
H11 C10 1_555 1_555
H12 C10 1_555 1_555
C11 S1 1_555 1_555
C12 C11 1_555 1_555
H13 C12 1_555 1_555
C13 C12 1_555 1_555
H14 C13 1_555 1_555
C14 C13 1_555 1_555
C15 C14 1_555 1_555
H15 C15 1_555 1_555
C16 C11 1_555 1_555
H16 C16 1_555 1_555
C17 C14 1_555 1_555
H17 C17 1_555 1_555
H18 C17 1_555 1_555
H19 C17 1_555 1_555
C3 C4 1_555 1_555
C8 C9 1_555 1_555
C15 C16 1_555 1_555

#END
