
#######################################################################
#
#                 Cambridge Crystallographic Data Centre
#                                CCDC 
#
#######################################################################
#
# If this CIF has been generated from an entry in the Cambridge 
# Structural Database, then it will include bibliographic, chemical, 
# crystal, experimental, refinement or atomic coordinate data resulting 
# from the CCDC's data processing and validation procedures.
#
#######################################################################

data_BETKUJ
_chemical_compound_source        
'EtOH extract of stems of Dendrobium findlayanum'
_chemical_name_common            'findlayine D'
_chemical_formula_moiety         'C17 H25 N1 O5'
_chemical_name_systematic        
'3-(2,3a-dimethyl-3-oxooctahydrocyclopenta[c]pyrrol-4-yl)-2-isopropyl-4-methoxy-4-oxobut-2-enoic acid'
_symmetry_cell_setting           orthorhombic
_symmetry_space_group_name_H-M   'P 21 21 21'
_symmetry_Int_Tables_number      19
_space_group_name_Hall           'P 2ac 2ab'
loop_
_symmetry_equiv_pos_site_id
_symmetry_equiv_pos_as_xyz
1 x,y,z
2 1/2+x,1/2-y,-z
3 -x,1/2+y,1/2-z
4 1/2-x,-y,1/2+z
_cell_length_a                   9.8684(8)
_cell_length_b                   9.9030(8)
_cell_length_c                   17.2493(14)
_cell_angle_alpha                90
_cell_angle_beta                 90
_cell_angle_gamma                90
_cell_volume                     1685.72
_exptl_crystal_colour            colorless
_exptl_crystal_description       block
_cell_formula_units_Z            4
_exptl_crystal_recrystallization_method 'Re-crystallisation from solvent:'
loop_
_atom_site_label
_atom_site_type_symbol
_atom_site_fract_x
_atom_site_fract_y
_atom_site_fract_z
O1 O 0.62020(19) 0.68103(18) 0.11581(12)
O2 O 0.94411(17) 0.22650(17) 0.13564(10)
O3 O 1.0044(2) 0.3823(2) 0.22342(11)
O4 O 0.61297(19) 0.25106(18) 0.03526(10)
O5 O 0.54743(18) 0.49349(18) 0.06256(12)
H1 H 0.5773 0.4151 0.0553
N1 N 0.6939(2) 0.0598(2) 0.08979(12)
C1 C 0.6409(3) 0.5673(3) 0.09801(14)
C2 C 0.7758(2) 0.4969(2) 0.11310(13)
C3 C 0.7856(2) 0.3966(2) 0.16344(13)
C4 C 0.6653(2) 0.3411(3) 0.20913(13)
H2 H 0.5954 0.4140 0.2127
C5 C 0.5952(2) 0.2115(3) 0.17560(13)
C6 C 0.6354(2) 0.1771(2) 0.09254(13)
C7 C 0.7460(3) -0.0003(3) 0.01911(14)
H3 H 0.7338 0.0629 -0.0241
H4 H 0.6967 -0.0841 0.0082
H5 H 0.8426 -0.0202 0.0255
C8 C 1.0736(3) 0.1609(3) 0.14629(16)
H6 H 1.1465 0.2247 0.1343
H7 H 1.0799 0.0828 0.1116
H8 H 1.0821 0.1309 0.2002
C9 C 0.9233(2) 0.3356(2) 0.17834(13)
C10 C 0.7015(3) 0.2961(3) 0.29294(14)
H9 H 0.7768 0.3512 0.3139
H10 H 0.6221 0.3053 0.3276
C11 C 0.7436(3) 0.1485(3) 0.28548(14)
H11 H 0.7324 0.1005 0.3354
H12 H 0.8394 0.1411 0.2688
C12 C 0.6483(2) 0.0900(3) 0.22365(14)
H13 H 0.5704 0.0439 0.2496
C13 C 0.7133(3) -0.0063(3) 0.16515(14)
H14 H 0.8109 -0.0187 0.1764
H15 H 0.6681 -0.0955 0.1662
C14 C 0.4399(3) 0.2263(3) 0.18045(16)
H16 H 0.4104 0.2999 0.1464
H17 H 0.4136 0.2467 0.2340
H18 H 0.3969 0.1418 0.1641
C15 C 0.8950(2) 0.5533(2) 0.06700(14)
H19 H 0.9727 0.4892 0.0728
C16 C 0.8597(3) 0.5616(4) -0.01936(15)
H20 H 0.7875 0.6282 -0.0271
H21 H 0.8289 0.4730 -0.0375
H22 H 0.9402 0.5890 -0.0487
C17 C 0.9406(3) 0.6907(3) 0.09720(16)
H23 H 0.8658 0.7553 0.0927
H24 H 1.0180 0.7226 0.0666
H25 H 0.9674 0.6825 0.1517
loop_
_geom_bond_atom_site_label_1
_geom_bond_atom_site_label_2
_geom_bond_site_symmetry_1
_geom_bond_site_symmetry_2
O1 C1 1_555 1_555
O2 C8 1_555 1_555
O3 C9 1_555 1_555
O4 C6 1_555 1_555
O5 H1 1_555 1_555
N1 C6 1_555 1_555
C1 O5 1_555 1_555
C2 C1 1_555 1_555
C3 C2 1_555 1_555
C4 C3 1_555 1_555
H2 C4 1_555 1_555
C5 C4 1_555 1_555
C6 C5 1_555 1_555
C7 N1 1_555 1_555
H3 C7 1_555 1_555
H4 C7 1_555 1_555
H5 C7 1_555 1_555
C8 H6 1_555 1_555
H7 C8 1_555 1_555
H8 C8 1_555 1_555
C9 O2 1_555 1_555
C10 C4 1_555 1_555
H9 C10 1_555 1_555
H10 C10 1_555 1_555
C11 C10 1_555 1_555
H11 C11 1_555 1_555
H12 C11 1_555 1_555
C12 C5 1_555 1_555
H13 C12 1_555 1_555
C13 N1 1_555 1_555
H14 C13 1_555 1_555
H15 C13 1_555 1_555
C14 C5 1_555 1_555
H16 C14 1_555 1_555
H17 C14 1_555 1_555
H18 C14 1_555 1_555
C15 C2 1_555 1_555
H19 C15 1_555 1_555
C16 C15 1_555 1_555
H20 C16 1_555 1_555
H21 C16 1_555 1_555
H22 C16 1_555 1_555
C17 C15 1_555 1_555
H23 C17 1_555 1_555
H24 C17 1_555 1_555
H25 C17 1_555 1_555
C3 C9 1_555 1_555
C11 C12 1_555 1_555
C12 C13 1_555 1_555

#END
