
#######################################################################
#
#                 Cambridge Crystallographic Data Centre
#                                CCDC 
#
#######################################################################
#
# If this CIF has been generated from an entry in the Cambridge 
# Structural Database, then it will include bibliographic, chemical, 
# crystal, experimental, refinement or atomic coordinate data resulting 
# from the CCDC's data processing and validation procedures.
#
#######################################################################

data_BETKOD
_chemical_compound_source        
'EtOH extract of stems of Dendrobium findlayanum'
_chemical_name_common            'findlayine A'
_chemical_formula_moiety         'C16 H23 N1 O3'
_chemical_name_systematic        
10-hydroxy-9-isopropyl-6,12-dimethyl-6-azatricyclo[6.4.0.0^4,12^]dodec-9-ene-7,11-dione
_symmetry_cell_setting           monoclinic
_symmetry_space_group_name_H-M   'P 21'
_symmetry_Int_Tables_number      4
_space_group_name_Hall           'P 2yb'
loop_
_symmetry_equiv_pos_site_id
_symmetry_equiv_pos_as_xyz
1 x,y,z
2 -x,1/2+y,-z
_cell_length_a                   8.1168(3)
_cell_length_b                   9.4717(3)
_cell_length_c                   9.3676(3)
_cell_angle_alpha                90
_cell_angle_beta                 98.3700(10)
_cell_angle_gamma                90
_cell_volume                     712.509
_exptl_crystal_colour            colorless
_exptl_crystal_description       block
_cell_formula_units_Z            2
_exptl_crystal_recrystallization_method 'Re-crystallisation from solvent:'
loop_
_atom_site_label
_atom_site_type_symbol
_atom_site_fract_x
_atom_site_fract_y
_atom_site_fract_z
O1 O 0.67436(14) 0.59450(14) 0.83894(12)
H1 H 0.7546 0.5579 0.8050
O2 O 0.67642(15) 0.40837(16) 0.62431(14)
O3 O -0.00465(14) 0.54442(16) 0.81065(13)
C1 C 0.38498(19) 0.61876(19) 0.77826(16)
C2 C 0.5295(2) 0.56335(19) 0.75183(16)
C3 C 0.22336(18) 0.58420(19) 0.68190(17)
H2 H 0.1621 0.6759 0.6681
C4 C 0.11389(19) 0.4889(2) 0.76257(16)
N1 N 0.15074(17) 0.35217(18) 0.78313(14)
C5 C 0.0494(2) 0.2668(2) 0.8676(2)
H3 H -0.0311 0.3276 0.9065
H4 H 0.1217 0.2212 0.9473
H5 H -0.0102 0.1944 0.8056
C6 C 0.5423(2) 0.46285(19) 0.63425(17)
C7 C 0.2901(2) 0.2766(2) 0.73245(18)
H6 H 0.2802 0.1751 0.7548
H7 H 0.3954 0.3110 0.7882
C8 C 0.30286(19) 0.29098(19) 0.57071(17)
H8 H 0.3653 0.2082 0.5395
C9 C 0.3865(2) 0.4289(2) 0.52894(16)
C10 C 0.24624(19) 0.53641(19) 0.52907(15)
H9 H 0.2687 0.6205 0.4702
C11 C 0.0911(2) 0.4566(2) 0.45285(18)
H10 H -0.0095 0.4841 0.4946
H11 H 0.0725 0.4783 0.3483
C12 C 0.1290(2) 0.2976(2) 0.47826(18)
H12 H 0.0443 0.2531 0.5298
H13 H 0.1297 0.2481 0.3853
C13 C 0.4367(2) 0.4141(2) 0.37750(18)
H14 H 0.4762 0.5054 0.3467
H15 H 0.3401 0.3836 0.3093
H16 H 0.5258 0.3439 0.3800
C14 C 0.38038(19) 0.7156(2) 0.90669(17)
H17 H 0.4931 0.7596 0.9297
C15 C 0.3504(2) 0.6292(2) 1.03950(17)
H18 H 0.2411 0.5836 1.0205
H19 H 0.3540 0.6921 1.1230
H20 H 0.4372 0.5570 1.0597
C16 C 0.2544(2) 0.8360(2) 0.87735(18)
H21 H 0.2729 0.8863 0.7897
H22 H 0.2683 0.9014 0.9592
H23 H 0.1412 0.7972 0.8643
loop_
_geom_bond_atom_site_label_1
_geom_bond_atom_site_label_2
_geom_bond_site_symmetry_1
_geom_bond_site_symmetry_2
O1 H1 1_555 1_555
O2 C6 1_555 1_555
O3 C4 1_555 1_555
C1 C2 1_555 1_555
C2 O1 1_555 1_555
C3 C1 1_555 1_555
H2 C3 1_555 1_555
C4 C3 1_555 1_555
N1 C4 1_555 1_555
C5 N1 1_555 1_555
H3 C5 1_555 1_555
H4 C5 1_555 1_555
H5 C5 1_555 1_555
C6 C2 1_555 1_555
C7 N1 1_555 1_555
H6 C7 1_555 1_555
H7 C7 1_555 1_555
C8 C7 1_555 1_555
H8 C8 1_555 1_555
C9 C6 1_555 1_555
C10 C3 1_555 1_555
H9 C10 1_555 1_555
C11 C10 1_555 1_555
H10 C11 1_555 1_555
H11 C11 1_555 1_555
C12 C8 1_555 1_555
H12 C12 1_555 1_555
H13 C12 1_555 1_555
C13 C9 1_555 1_555
H14 C13 1_555 1_555
H15 C13 1_555 1_555
H16 C13 1_555 1_555
C14 C1 1_555 1_555
H17 C14 1_555 1_555
C15 C14 1_555 1_555
H18 C15 1_555 1_555
H19 C15 1_555 1_555
H20 C15 1_555 1_555
C16 C14 1_555 1_555
H21 C16 1_555 1_555
H22 C16 1_555 1_555
H23 C16 1_555 1_555
C8 C9 1_555 1_555
C9 C10 1_555 1_555
C11 C12 1_555 1_555

#END
