
#######################################################################
#
#                 Cambridge Crystallographic Data Centre
#                                CCDC 
#
#######################################################################
#
# If this CIF has been generated from an entry in the Cambridge 
# Structural Database, then it will include bibliographic, chemical, 
# crystal, experimental, refinement or atomic coordinate data resulting 
# from the CCDC's data processing and validation procedures.
#
#######################################################################

data_BETMAR
_chemical_formula_moiety         'C20 H19 N3 O1'
_chemical_name_systematic        
3,4-dihydroquinolin-1(2H)-yl(3-methyl-1-phenyl-1H-pyrazol-5-yl)methanone
_symmetry_cell_setting           orthorhombic
_symmetry_space_group_name_H-M   'P 21 21 21'
_symmetry_Int_Tables_number      19
_space_group_name_Hall           'P 2ac 2ab'
loop_
_symmetry_equiv_pos_site_id
_symmetry_equiv_pos_as_xyz
1 x,y,z
2 1/2-x,-y,1/2+z
3 1/2+x,1/2-y,-z
4 -x,1/2+y,1/2-z
_cell_length_a                   8.3512(9)
_cell_length_b                   12.5600(13)
_cell_length_c                   15.3638(16)
_cell_angle_alpha                90
_cell_angle_beta                 90
_cell_angle_gamma                90
_cell_volume                     1611.53
_exptl_crystal_colour            yellow
_cell_formula_units_Z            4
loop_
_atom_site_label
_atom_site_type_symbol
_atom_site_fract_x
_atom_site_fract_y
_atom_site_fract_z
C1 C 0.2751(3) 0.83612(17) 0.64728(12)
C2 C 0.3311(3) 0.73484(17) 0.66670(13)
H1 H 0.4085 0.7249 0.7113
C3 C 0.2730(3) 0.64837(19) 0.62055(13)
H2 H 0.3091 0.5786 0.6341
C4 C 0.1626(3) 0.6636(2) 0.55476(15)
H3 H 0.1198 0.6040 0.5247
C5 C 0.1146(3) 0.7648(2) 0.53270(14)
H4 H 0.0425 0.7746 0.4855
C6 C 0.1694(3) 0.85255(19) 0.57811(12)
C7 C 0.1332(3) 0.96525(19) 0.55239(15)
H5 H 0.0543 0.9969 0.5930
H6 H 0.0882 0.9675 0.4928
C8 C 0.2906(3) 1.0265(2) 0.55610(15)
H7 H 0.3695 0.9925 0.5168
H8 H 0.2731 1.1004 0.5358
C9 C 0.3564(3) 1.02827(17) 0.64785(15)
H9 H 0.4733 1.0411 0.6455
H10 H 0.3069 1.0880 0.6802
C10 C 0.3432(3) 0.93168(19) 0.78268(14)
C11 C 0.0042(3) 0.82011(18) 0.78391(13)
C12 C -0.0808(3) 0.73822(18) 0.74610(14)
H11 H -0.0483 0.6665 0.7546
C13 C -0.2131(3) 0.7611(2) 0.69588(15)
H12 H -0.2723 0.7049 0.6699
C14 C -0.2599(3) 0.8652(2) 0.68324(15)
H13 H -0.3506 0.8807 0.6481
C15 C -0.1752(3) 0.9471(2) 0.72165(14)
H14 H -0.2072 1.0188 0.7127
C16 C -0.0430(3) 0.9245(2) 0.77338(14)
H15 H 0.0142 0.9803 0.8012
C17 C 0.2885(3) 0.84139(17) 0.83798(13)
C18 C 0.3736(3) 0.78945(18) 0.90122(13)
H16 H 0.4805 0.8035 0.9190
C19 C 0.2706(3) 0.71148(19) 0.93420(13)
C20 C 0.2989(3) 0.6343(2) 1.00677(15)
H17 H 0.2876 0.6710 1.0627
H18 H 0.4072 0.6048 1.0019
H19 H 0.2204 0.5764 1.0032
N1 N 0.1405(2) 0.79504(14) 0.83577(11)
N2 N 0.1289(2) 0.71421(15) 0.89484(11)
N3 N 0.3258(2) 0.92780(14) 0.69518(11)
O1 O 0.4038(2) 1.00940(14) 0.81844(10)
loop_
_geom_bond_atom_site_label_1
_geom_bond_atom_site_label_2
_geom_bond_site_symmetry_1
_geom_bond_site_symmetry_2
C1 C2 1_555 1_555
C2 H1 1_555 1_555
C3 C2 1_555 1_555
H2 C3 1_555 1_555
C4 C3 1_555 1_555
H3 C4 1_555 1_555
C5 C4 1_555 1_555
H4 C5 1_555 1_555
C6 C1 1_555 1_555
C7 C6 1_555 1_555
H5 C7 1_555 1_555
H6 C7 1_555 1_555
C8 C7 1_555 1_555
H7 C8 1_555 1_555
H8 C8 1_555 1_555
C9 C8 1_555 1_555
H9 C9 1_555 1_555
H10 C9 1_555 1_555
C10 C17 1_555 1_555
C11 C12 1_555 1_555
C12 H11 1_555 1_555
C13 C12 1_555 1_555
H12 C13 1_555 1_555
C14 C13 1_555 1_555
H13 C14 1_555 1_555
C15 C14 1_555 1_555
H14 C15 1_555 1_555
C16 C11 1_555 1_555
H15 C16 1_555 1_555
C17 C18 1_555 1_555
C18 H16 1_555 1_555
C19 C18 1_555 1_555
C20 C19 1_555 1_555
H17 C20 1_555 1_555
H18 C20 1_555 1_555
H19 C20 1_555 1_555
N1 C11 1_555 1_555
N2 C19 1_555 1_555
N3 C1 1_555 1_555
O1 C10 1_555 1_555
C5 C6 1_555 1_555
C9 N3 1_555 1_555
C10 N3 1_555 1_555
C15 C16 1_555 1_555
C17 N1 1_555 1_555
N1 N2 1_555 1_555

#END
