
#######################################################################
#
#                 Cambridge Crystallographic Data Centre
#                                CCDC 
#
#######################################################################
#
# If this CIF has been generated from an entry in the Cambridge 
# Structural Database, then it will include bibliographic, chemical, 
# crystal, experimental, refinement or atomic coordinate data resulting 
# from the CCDC's data processing and validation procedures.
#
#######################################################################

data_BETMEV
_chemical_formula_moiety         'C66 H69 N3 O6'
_chemical_name_systematic        
"1,3,8,10,15,17-hexa-t-butyl-6,13,20-trimethoxy-7,14,21-trioxa-5,12,19-triazatrinaphtho[1,2,3-bc:1',2',3'-hi:1'',2'',3''-no]coronene unknown solvate"
_symmetry_cell_setting           triclinic
_symmetry_space_group_name_H-M   'P 1'
_symmetry_Int_Tables_number      1
_space_group_name_Hall           'P 1'
loop_
_symmetry_equiv_pos_site_id
_symmetry_equiv_pos_as_xyz
1 x,y,z
_cell_length_a                   14.6208(4)
_cell_length_b                   18.7953(8)
_cell_length_c                   18.8158(9)
_cell_angle_alpha                60.164(5)
_cell_angle_beta                 79.248(3)
_cell_angle_gamma                82.958(3)
_cell_volume                     4403.84
_exptl_crystal_colour            'light orange'
_exptl_crystal_description       plate
_cell_formula_units_Z            3
loop_
_atom_site_label
_atom_site_type_symbol
_atom_site_fract_x
_atom_site_fract_y
_atom_site_fract_z
O1 O 0.8513(3) 0.1373(2) 0.9321(2)
O2 O 0.8797(3) 0.4420(2) 1.1578(2)
O3 O 0.9028(3) 0.66751(19) 0.62366(18)
O4 O 0.9064(2) 0.59280(19) 1.02563(18)
O5 O 0.8890(3) 0.54097(19) 0.59978(18)
C1 C 0.8914(3) 0.4766(3) 0.5841(3)
C2 C 0.9188(3) 0.6710(3) 0.9599(2)
N1 N 0.8850(3) 0.6441(2) 0.7859(2)
C3 C 0.8823(3) 0.0983(3) 1.1573(3)
C4 C 0.8970(3) 0.1395(3) 1.2576(3)
H1 H 0.8924 0.1802 1.2726
O6 O 0.8660(3) 0.11350(18) 1.08120(19)
C5 C 0.9023(4) 0.2838(3) 0.5192(3)
C6 C 0.9602(4) 0.8086(3) 0.9097(3)
H2 H 0.9782 0.8485 0.9193
C7 C 0.9695(4) 0.9199(3) 0.7579(3)
C8 C 0.9222(3) 0.7729(3) 0.8151(3)
H3 H 0.9128 0.7869 0.7621
C9 C 0.9193(4) -0.0508(3) 1.1851(3)
C10 C 0.8968(4) 0.3505(3) 0.5453(3)
C11 C 0.8572(3) 0.4835(3) 0.9220(3)
C12 C 0.9212(4) 0.0605(3) 1.3130(3)
N2 N 0.8644(3) 0.3059(2) 1.1334(2)
C13 C 0.9080(3) 0.6922(3) 0.8788(3)
C14 C 0.8759(3) 0.3326(3) 0.6261(3)
H4 H 0.8643 0.2790 0.6676
C15 C 0.9458(3) 0.7300(3) 0.9771(3)
C16 C 0.9431(4) 0.0338(3) 1.3989(3)
N3 N 0.8524(3) 0.3004(2) 0.7946(2)
C17 C 0.9241(4) -0.0001(3) 1.2886(3)
H5 H 0.9385 -0.0541 1.3263
C18 C 0.8485(3) 0.2860(3) 0.8746(3)
C19 C 0.8520(3) 0.4030(3) 0.9883(3)
C20 C 0.8615(4) 0.2458(3) 1.1161(3)
C21 C 0.8608(3) 0.3857(3) 1.0688(3)
C22 C 0.8863(3) 0.6274(3) 0.8633(3)
C23 C 0.9161(4) 0.4319(3) 0.4838(3)
H6 H 0.9299 0.4434 0.4289
C24 C 0.8462(3) 0.3376(3) 0.9724(3)
C25 C 0.8719(4) 0.3962(3) 0.6465(3)
C26 C 0.8501(3) 0.4338(3) 0.8255(3)
C27 C 0.8760(4) 0.4517(3) 1.0815(3)
C28 C 0.8589(3) 0.3770(3) 0.7335(3)
C29 C 0.8744(3) 0.5486(3) 0.9331(3)
C30 C 0.8524(3) 0.2046(3) 0.9413(3)
C31 C 1.0411(4) 0.6422(3) 1.0929(3)
H7 H 1.0231 0.5926 1.0972
H8 H 1.0526 0.6315 1.1460
H9 H 1.0967 0.6613 1.0535
C32 C 0.8790(4) 0.1601(3) 1.1788(3)
C33 C 0.8561(3) 0.4995(3) 0.8401(3)
C34 C 0.9464(4) 0.5830(3) 0.4325(3)
C35 C 0.9157(4) 0.4964(3) 0.5008(3)
C36 C 0.8838(3) 0.5309(3) 1.0139(3)
C37 C 0.8737(3) 0.5273(3) 0.6787(3)
C38 C 0.9492(4) 0.8313(3) 0.8286(3)
C39 C 0.8552(4) 0.1921(3) 1.0195(3)
C40 C 0.8700(3) 0.5806(3) 0.7732(3)
C41 C 0.9322(6) 0.1254(3) 0.8824(4)
H10 H 0.9274 0.1611 0.8249
H11 H 0.9366 0.0694 0.8939
H12 H 0.9868 0.1376 0.8953
C42 C 0.9067(3) 0.0166(3) 1.2116(3)
C43 C 0.8930(5) 0.1978(3) 0.5944(3)
H13 H 0.9430 0.1866 0.6255
H14 H 0.8956 0.1581 0.5761
H15 H 0.8345 0.1949 0.6287
C44 C 0.8589(3) 0.4469(3) 0.7449(3)
C45 C 1.0007(5) -0.0292(3) 1.1143(3)
H16 H 0.9856 0.0209 1.0666
H17 H 1.0123 -0.0726 1.1006
H18 H 1.0554 -0.0221 1.1312
C46 C 0.8512(4) 0.2579(3) 1.0376(3)
C47 C 0.8458(3) 0.3521(3) 0.8919(3)
C48 C 0.9889(4) 0.7830(3) 1.0668(3)
H19 H 1.0468 0.8030 1.0314
H20 H 0.9955 0.7675 1.1226
H21 H 0.9411 0.8254 1.0483
C49 C 0.8714(4) 0.6772(3) 1.1250(3)
H22 H 0.8213 0.7162 1.1035
H23 H 0.8790 0.6709 1.1775
H24 H 0.8574 0.6253 1.1321
C50 C 0.8301(4) -0.0592(3) 1.1583(3)
H25 H 0.7801 -0.0744 1.2037
H26 H 0.8402 -0.1008 1.1419
H27 H 0.8142 -0.0078 1.1125
C51 C 0.8781(3) 0.5927(3) 0.6916(3)
C52 C 0.9623(5) 0.5899(3) 0.3463(3)
H28 H 1.0076 0.5488 0.3453
H29 H 0.9844 0.6434 0.3056
H30 H 0.9047 0.5820 0.3340
C53 C 1.0435(5) -0.0028(4) 1.4063(4)
H31 H 1.0422 -0.0615 1.4323
H32 H 1.0713 0.0122 1.4390
H33 H 1.0793 0.0180 1.3520
C54 C 0.9957(6) 0.2841(4) 0.4667(5)
H34 H 0.9932 0.3251 0.4101
H35 H 1.0085 0.2312 0.4702
H36 H 1.0441 0.2962 0.4869
C55 C 0.9420(5) -0.1350(3) 1.2578(3)
H37 H 1.0018 -0.1340 1.2714
H38 H 0.9432 -0.1766 1.2423
H39 H 0.8952 -0.1467 1.3051
C56 C 0.9622(4) 0.7082(3) 1.0640(3)
C57 C 0.9631(6) 0.4012(4) 1.1915(4)
H40 H 1.0157 0.4333 1.1564
H41 H 0.9701 0.3482 1.1949
H42 H 0.9592 0.3948 1.2459
C58 C 0.8715(5) 0.6483(3) 0.4316(3)
H43 H 0.8118 0.6319 0.4315
H44 H 0.8862 0.7000 0.3829
H45 H 0.8696 0.6538 0.4800
C59 C 0.8219(6) 0.3002(4) 0.4705(4)
H46 H 0.7636 0.2946 0.5060
H47 H 0.8264 0.2615 0.4507
H48 H 0.8252 0.3549 0.4243
C60 C 0.8308(5) 0.7304(3) 0.6034(4)
H49 H 0.8471 0.7737 0.5477
H50 H 0.8237 0.7520 0.6409
H51 H 0.7732 0.7079 0.6079
C61 C 0.9375(6) 0.1074(3) 1.4151(3)
H52 H 0.9756 0.1503 1.3710
H53 H 0.9592 0.0900 1.4667
H54 H 0.8741 0.1276 1.4179
C62 C 1.0375(4) 0.6023(4) 0.4475(3)
H55 H 1.0282 0.6009 0.5000
H56 H 1.0565 0.6559 0.4043
H57 H 1.0850 0.5622 0.4475
C63 C 0.9439(11) 0.9361(5) 0.6780(5)
H58 H 0.9568 0.9919 0.6367
H59 H 0.8788 0.9273 0.6852
H60 H 0.9797 0.8996 0.6607
C64 C 0.8764(6) -0.0307(4) 1.4651(3)
H61 H 0.8150 -0.0063 1.4664
H62 H 0.8966 -0.0523 1.5180
H63 H 0.8756 -0.0743 1.4526
C65 C 0.9052(9) 0.9804(5) 0.7807(5)
H64 H 0.8422 0.9626 0.7969
H65 H 0.9079 1.0345 0.7335
H66 H 0.9259 0.9815 0.8257
C66 C 1.0616(9) 0.9405(8) 0.7465(7)
H67 H 1.0808 0.9211 0.7995
H68 H 1.0664 0.9991 0.7148
H69 H 1.1011 0.9156 0.7176
O7 O 0.3317(3) 0.82518(18) 0.38147(18)
O8 O 0.3365(3) 0.29061(19) 0.6927(2)
O9 O 0.3575(3) 0.26827(19) 0.8401(2)
C67 C 0.2771(4) 1.0813(3) 0.5359(3)
O10 O 0.3760(3) 0.60129(19) 0.90837(19)
O11 O 0.3068(2) 0.69549(18) 0.36441(18)
O12 O 0.3618(2) 0.75346(18) 0.78142(19)
C68 C 0.2621(4) 0.4364(3) 0.2985(3)
C69 C 0.3201(3) 0.9321(3) 0.5796(3)
H70 H 0.3179 0.9451 0.5253
C70 C 0.2996(3) 0.6299(2) 0.3514(3)
N4 N 0.3394(3) 0.4518(2) 0.5533(2)
C71 C 0.3516(4) 0.2543(3) 0.9203(3)
N5 N 0.3507(3) 0.8010(2) 0.5402(2)
C72 C 0.3424(3) 0.8320(3) 0.7202(3)
C73 C 0.3100(3) 0.5483(3) 0.4120(3)
C74 C 0.3529(3) 0.7353(2) 0.5267(3)
C75 C 0.3558(3) 0.7855(3) 0.6166(3)
C76 C 0.3688(3) 0.6892(3) 0.7652(3)
C77 C 0.3297(4) 0.1747(3) 0.9831(3)
C78 C 0.2778(3) 0.5031(3) 0.3195(3)
C79 C 0.3547(3) 0.4388(3) 0.6287(3)
C80 C 0.3636(4) 0.3172(3) 0.9369(3)
C81 C 0.2815(3) 0.6511(3) 0.2722(3)
C82 C 0.2729(3) 0.7417(3) 0.2038(3)
C83 C 0.3601(3) 0.5864(3) 0.5775(3)
N6 N 0.3772(3) 0.4631(2) 0.8833(2)
C84 C 0.3371(3) 0.7474(3) 0.4485(3)
C85 C 0.3545(4) 0.2996(3) 1.0201(3)
H71 H 0.3634 0.3408 1.0316
C86 C 0.3286(3) 0.6811(3) 0.4381(3)
C87 C 0.3210(4) 0.8707(3) 0.8359(3)
C88 C 0.3177(5) 0.2045(3) 1.1745(3)
C89 C 0.3736(3) 0.6108(3) 0.8306(3)
C90 C 0.3221(3) 0.8922(3) 0.7451(3)
C91 C 0.2476(5) 0.8051(3) 0.8929(3)
H72 H 0.1913 0.8198 0.8688
H73 H 0.2350 0.8022 0.9462
H74 H 0.2712 0.7526 0.8992
C92 C 0.3022(3) 0.9929(3) 0.6017(3)
C93 C 0.3616(4) 0.7867(3) 0.1842(3)
H75 H 0.3750 0.7835 0.2338
H76 H 0.3533 0.8432 0.1436
H77 H 0.4124 0.7619 0.1628
C94 C 0.2985(3) 0.4852(3) 0.3955(3)
H78 H 0.3049 0.4307 0.4361
C95 C 0.2700(3) 0.5871(3) 0.2591(3)
H79 H 0.2563 0.5996 0.2077
C96 C 0.3417(3) 0.8503(3) 0.6381(3)
C97 C 0.3565(4) 1.1114(3) 0.4629(3)
H80 H 0.4148 1.1016 0.4833
H81 H 0.3472 1.1691 0.4268
H82 H 0.3571 1.0823 0.4329
C98 C 0.3741(3) 0.6382(3) 0.6698(3)
C99 C 0.3412(3) 0.5995(3) 0.5012(3)
C100 C 0.3775(3) 0.5422(3) 0.8175(2)
C101 C 0.3030(3) 0.9720(3) 0.6839(3)
H83 H 0.2903 1.0131 0.6986
C102 C 0.2680(5) 0.3501(3) 0.3721(3)
H84 H 0.3220 0.3445 0.3970
H85 H 0.2725 0.3104 0.3535
H86 H 0.2131 0.3410 0.4122
C103 C 0.3312(3) 0.5294(2) 0.4925(3)
C104 C 0.3128(4) 0.1065(3) 0.9645(3)
C105 C 0.3354(5) 0.4422(3) 0.2259(4)
H87 H 0.3318 0.4961 0.1790
H88 H 0.3239 0.4020 0.2116
H89 H 0.3964 0.4321 0.2418
C106 C 0.3753(3) 0.4915(3) 0.7218(3)
C107 C 0.3751(4) 0.4117(3) 0.7881(3)
C108 C 0.3640(4) 0.3454(3) 0.7746(3)
C109 C 0.3756(3) 0.4022(3) 0.8680(3)
C110 C 0.3567(4) 0.3575(3) 0.6972(3)
C111 C 0.3194(4) 0.1611(3) 1.0647(3)
H90 H 0.3033 0.1092 1.1079
C112 C 0.3657(3) 0.6530(3) 0.5895(3)
C113 C 0.1900(4) 0.7859(3) 0.2301(3)
H91 H 0.1356 0.7539 0.2489
H92 H 0.1789 0.8387 0.1838
H93 H 0.2034 0.7930 0.2742
C114 C 0.3698(3) 0.7051(2) 0.6836(3)
C115 C 0.2559(5) 0.7474(3) 0.1224(3)
H94 H 0.3081 0.7226 0.1024
H95 H 0.2485 0.8040 0.0817
H96 H 0.2005 0.7191 0.1326
C116 C 0.4151(5) 0.8387(4) 0.8642(3)
H97 H 0.4313 0.7880 0.8635
H98 H 0.4125 0.8297 0.9194
H99 H 0.4612 0.8782 0.8276
C117 C 0.1898(5) 1.0816(4) 0.5027(5)
H100 H 0.2004 1.0469 0.4778
H101 H 0.1748 1.1366 0.4619
H102 H 0.1389 1.0616 0.5473
C118 C 0.3323(4) 0.2221(3) 1.0846(3)
C119 C 0.3969(5) 0.0964(3) 0.9069(4)
H103 H 0.4052 0.1467 0.8554
H104 H 0.3861 0.0531 0.8967
H105 H 0.4520 0.0830 0.9328
C120 C 0.3791(3) 0.5582(3) 0.7355(3)
C121 C 0.2463(5) 0.8701(3) 0.3852(3)
H106 H 0.2511 0.9254 0.3403
H107 H 0.2341 0.8705 0.4369
H108 H 0.1963 0.8444 0.3808
C122 C 0.1660(5) 0.4499(3) 0.2719(4)
H109 H 0.1214 0.4184 0.3192
H110 H 0.1684 0.4326 0.2313
H111 H 0.1479 0.5070 0.2483
C123 C 0.3668(3) 0.5050(3) 0.6418(3)
C124 C 0.2925(6) 0.9458(3) 0.8480(3)
H112 H 0.3318 0.9904 0.8088
H113 H 0.2992 0.9323 0.9032
H114 H 0.2288 0.9616 0.8396
C125 C 0.4001(6) 0.2323(5) 1.1927(4)
H115 H 0.4546 0.1995 1.1891
H116 H 0.3866 0.2260 1.2474
H117 H 0.4109 0.2889 1.1530
C126 C 0.2228(5) 0.1292(4) 0.9238(4)
H118 H 0.1716 0.1372 0.9596
H119 H 0.2096 0.0855 0.9151
H120 H 0.2315 0.1788 0.8716
C127 C 0.3000(8) 0.1157(4) 1.2373(4)
H121 H 0.2463 0.0990 1.2274
H122 H 0.2891 0.1093 1.2920
H123 H 0.3532 0.0822 1.2323
C128 C 0.2613(8) 1.1405(4) 0.5700(4)
H124 H 0.2165 1.1189 0.6195
H125 H 0.2384 1.1925 0.5295
H126 H 0.3190 1.1477 0.5827
C129 C 0.4057(5) 0.2648(4) 0.6451(4)
H127 H 0.3989 0.2972 0.5876
H128 H 0.3983 0.2079 0.6630
H129 H 0.4665 0.2718 0.6526
C130 C 0.2943(5) 0.5662(4) 0.9675(3)
H130 H 0.2423 0.5766 0.9387
H131 H 0.2814 0.5906 1.0028
H132 H 0.3047 0.5081 1.0004
C131 C 0.2988(6) 0.0243(3) 1.0432(3)
H133 H 0.3494 0.0124 1.0739
H134 H 0.2969 -0.0180 1.0290
H135 H 0.2412 0.0264 1.0764
C132 C 0.2301(7) 0.2562(6) 1.1880(4)
H136 H 0.2387 0.3133 1.1488
H137 H 0.2224 0.2483 1.2432
H138 H 0.1757 0.2387 1.1801
O13 O 0.6540(3) 0.43603(19) 0.49804(18)
O14 O 0.6434(3) 0.1259(2) 1.0319(2)
O15 O 0.6274(2) 0.58768(18) 0.47808(18)
O16 O 0.6423(3) 0.10172(18) 0.90446(19)
O17 O 0.5931(3) 0.53163(18) 0.96725(19)
O18 O 0.5755(3) 0.65961(19) 0.81892(19)
N7 N 0.6369(3) 0.2963(2) 0.6625(2)
C133 C 0.6377(3) 0.0494(2) 0.7135(3)
C134 C 0.6383(3) 0.1499(2) 0.7590(3)
C135 C 0.6299(4) 0.0304(3) 0.6445(3)
N8 N 0.6157(3) 0.2881(2) 1.0124(2)
C136 C 0.5959(3) 0.8310(3) 0.4297(3)
N9 N 0.6028(3) 0.6363(2) 0.6761(2)
C137 C 0.5817(4) 0.9357(3) 0.4785(3)
H139 H 0.5250 0.9138 0.5153
H140 H 0.5826 0.9933 0.4602
H141 H 0.6340 0.9079 0.5070
C138 C 0.6066(3) 0.3859(3) 1.0640(3)
C139 C 0.6167(3) 0.4732(2) 0.7032(2)
C140 C 0.6087(3) 0.6871(3) 0.5284(3)
C141 C 0.5871(4) 0.9229(3) 0.4035(3)
C142 C 0.6709(4) 0.9670(3) 0.3419(3)
H142 H 0.7264 0.9446 0.3671
H143 H 0.6641 1.0244 0.3252
H144 H 0.6754 0.9599 0.2942
C143 C 0.6056(3) 0.4348(2) 0.9175(2)
C144 C 0.5927(3) 0.4902(3) 1.1078(3)
C145 C 0.6213(3) 0.3263(3) 0.7980(3)
C146 C 0.6129(3) 0.3421(3) 1.2083(3)
C147 C 0.6295(3) 0.2469(3) 0.8103(3)
C148 C 0.5380(5) 0.2829(3) 1.3559(3)
H145 H 0.5380 0.3330 1.3578
H146 H 0.5394 0.2370 1.4106
H147 H 0.4828 0.2819 1.3358
C149 C 0.6349(3) 0.4441(3) 0.5677(3)
C150 C 0.6372(3) 0.1307(2) 0.6960(2)
H148 H 0.6362 0.1727 0.6419
C151 C 0.6434(4) 0.0865(3) 0.8405(3)
C152 C 0.6440(3) -0.0120(2) 0.7957(3)
H149 H 0.6455 -0.0664 0.8077
C153 C 0.5839(4) 0.5804(3) 1.0876(3)
C154 C 0.6088(3) 0.3660(2) 0.9974(2)
C155 C 0.6337(4) 0.1912(3) 1.3085(3)
H150 H 0.5946 0.1874 1.2749
H151 H 0.6152 0.1521 1.3656
H152 H 0.6974 0.1797 1.2917
C156 C 0.6143(3) 0.3242(2) 1.1454(3)
H153 H 0.6205 0.2697 1.1572
C157 C 0.4973(4) 0.9606(3) 0.3639(3)
H154 H 0.5038 0.9609 0.3120
H155 H 0.4872 1.0158 0.3547
H156 H 0.4452 0.9284 0.4004
C158 C 0.7099(4) 0.6600(3) 0.3027(3)
H157 H 0.7126 0.6079 0.3520
H158 H 0.7615 0.6917 0.2943
H159 H 0.7129 0.6515 0.2560
C159 C 0.6277(4) 0.1924(3) 0.9591(3)
C160 C 0.6481(4) 0.0034(3) 0.8608(3)
C161 C 0.6153(3) 0.3404(2) 0.8654(3)
C162 C 0.6181(3) 0.5392(3) 0.6237(3)
C163 C 0.6187(3) 0.2748(2) 0.9469(3)
C164 C 0.6100(3) 0.6200(2) 0.6136(3)
C165 C 0.6153(3) 0.6674(2) 0.4634(2)
C166 C 0.6229(3) 0.3924(3) 0.7163(3)
C167 C 0.5980(3) 0.7699(3) 0.5086(3)
H160 H 0.5923 0.7831 0.5507
C168 C 0.6242(4) 0.2777(3) 1.2979(3)
C169 C 0.5957(3) 0.5842(3) 0.8240(3)
C170 C 0.6261(3) 0.5233(3) 0.5567(2)
C171 C 0.5987(3) 0.5169(2) 0.9029(2)
C172 C 0.6311(3) 0.3758(2) 0.6497(3)
C173 C 0.6323(4) 0.1807(2) 0.8912(3)
C174 C 0.6106(3) 0.4887(3) 0.7702(3)
C175 C 0.5822(5) 0.4046(4) 0.4816(3)
H161 H 0.5985 0.4093 0.4276
H162 H 0.5251 0.4351 0.4837
H163 H 0.5744 0.3479 0.5225
C176 C 0.5355(4) 0.6546(3) 0.3291(3)
H164 H 0.5401 0.6394 0.2868
H165 H 0.4788 0.6863 0.3292
H166 H 0.5354 0.6061 0.3821
C177 C 0.4969(4) 0.6228(3) 1.0483(3)
H167 H 0.5007 0.6227 0.9969
H168 H 0.4922 0.6784 1.0382
H169 H 0.4429 0.5942 1.0851
C178 C 0.7112(4) 0.2937(3) 1.3204(3)
H170 H 0.7631 0.2994 1.2785
H171 H 0.7237 0.2486 1.3727
H172 H 0.7018 0.3433 1.3241
C179 C 0.6667(6) -0.1509(3) 0.9533(3)
H173 H 0.6188 -0.1570 0.9283
H174 H 0.6622 -0.1931 1.0102
H175 H 0.7266 -0.1553 0.9243
C180 C 0.6053(3) 0.5707(2) 0.7542(3)
C181 C 0.6017(4) 0.4257(3) 1.1877(3)
H176 H 0.6001 0.4386 1.2297
C182 C 0.6415(5) -0.0614(3) 0.6724(3)
H177 H 0.6968 -0.0831 0.6980
H178 H 0.6466 -0.0693 0.6252
H179 H 0.5883 -0.0892 0.7114
C183 C 0.6695(4) 0.6252(3) 1.0296(3)
H180 H 0.7225 0.6056 1.0586
H181 H 0.6596 0.6830 1.0102
H182 H 0.6806 0.6153 0.9833
C184 C 0.6134(3) 0.7285(3) 0.3814(3)
C185 C 0.6110(3) 0.4219(2) 0.8500(3)
C186 C 0.5760(5) 0.5882(3) 1.1659(3)
H183 H 0.5320 0.5500 1.2086
H184 H 0.5552 0.6430 1.1538
H185 H 0.6357 0.5764 1.1843
C187 C 0.5979(3) 0.4678(2) 1.0461(2)
C188 C 0.6188(4) 0.7060(3) 0.3118(3)
C189 C 0.6349(3) 0.2358(3) 0.7401(3)
C190 C 0.6545(5) -0.0659(3) 0.9485(3)
C191 C 0.6031(3) 0.8090(3) 0.3663(2)
H186 H 0.6009 0.8507 0.3122
C192 C 0.6133(4) 0.7838(3) 0.2272(3)
H187 H 0.6639 0.8183 0.2144
H188 H 0.5552 0.8131 0.2294
H189 H 0.6175 0.7684 0.1850
C193 C 0.6454(5) 0.7187(3) 0.7740(4)
H190 H 0.6398 0.7465 0.7162
H191 H 0.7058 0.6917 0.7821
H192 H 0.6380 0.7579 0.7935
C194 C 0.7406(5) -0.0577(3) 0.9798(4)
H193 H 0.7961 -0.0626 0.9459
H194 H 0.7416 -0.1002 1.0362
H195 H 0.7379 -0.0050 0.9770
C195 C 0.5664(6) -0.0676(3) 1.0078(3)
H196 H 0.5666 -0.0233 1.0194
H197 H 0.5649 -0.1189 1.0584
H198 H 0.5125 -0.0615 0.9826
C196 C 0.7025(5) 0.0767(3) 0.5688(3)
H199 H 0.6922 0.1347 0.5482
H200 H 0.6971 0.0637 0.5265
H201 H 0.7638 0.0607 0.5843
C197 C 0.5341(5) 0.0593(4) 0.6187(4)
H202 H 0.4875 0.0285 0.6643
H203 H 0.5296 0.0512 0.5729
H204 H 0.5245 0.1166 0.6023
C198 C 0.5733(7) 0.1075(4) 1.0987(4)
H205 H 0.5163 0.1000 1.0851
H206 H 0.5646 0.1517 1.1112
H207 H 0.5903 0.0580 1.1460
loop_
_geom_bond_atom_site_label_1
_geom_bond_atom_site_label_2
_geom_bond_site_symmetry_1
_geom_bond_site_symmetry_2
O1 C30 1_555 1_555
O2 C27 1_555 1_555
O3 C51 1_555 1_555
O4 C2 1_555 1_555
O5 C1 1_555 1_555
C1 C25 1_555 1_555
C2 C13 1_555 1_555
N1 C22 1_555 1_555
C3 O6 1_555 1_555
C4 H1 1_555 1_555
O6 C39 1_555 1_555
C5 C10 1_555 1_555
C6 H2 1_555 1_555
C7 C38 1_555 1_555
C8 H3 1_555 1_555
C9 C42 1_555 1_555
C10 C14 1_555 1_555
C11 C19 1_555 1_555
C12 C4 1_555 1_555
N2 C20 1_555 1_555
C13 C8 1_555 1_555
C14 H4 1_555 1_555
C15 C2 1_555 1_555
C16 C12 1_555 1_555
N3 C18 1_555 1_555
C17 C12 1_555 1_555
H5 C17 1_555 1_555
C18 C30 1_555 1_555
C19 C21 1_555 1_555
C20 C32 1_555 1_555
C21 N2 1_555 1_555
C22 C13 1_555 1_555
C23 C10 1_555 1_555
H6 C23 1_555 1_555
C24 C19 1_555 1_555
C25 C14 1_555 1_555
C26 C33 1_555 1_555
C27 C21 1_555 1_555
C28 N3 1_555 1_555
C29 C11 1_555 1_555
C30 C39 1_555 1_555
C31 H7 1_555 1_555
H8 C31 1_555 1_555
H9 C31 1_555 1_555
C32 C3 1_555 1_555
C33 C11 1_555 1_555
C34 C35 1_555 1_555
C35 C1 1_555 1_555
C36 O4 1_555 1_555
C37 O5 1_555 1_555
C38 C6 1_555 1_555
C39 C46 1_555 1_555
C40 N1 1_555 1_555
C41 O1 1_555 1_555
H10 C41 1_555 1_555
H11 C41 1_555 1_555
H12 C41 1_555 1_555
C42 C3 1_555 1_555
C43 C5 1_555 1_555
H13 C43 1_555 1_555
H14 C43 1_555 1_555
H15 C43 1_555 1_555
C44 C26 1_555 1_555
C45 C9 1_555 1_555
H16 C45 1_555 1_555
H17 C45 1_555 1_555
H18 C45 1_555 1_555
C46 C20 1_555 1_555
C47 C18 1_555 1_555
C48 H19 1_555 1_555
H20 C48 1_555 1_555
H21 C48 1_555 1_555
C49 H22 1_555 1_555
H23 C49 1_555 1_555
H24 C49 1_555 1_555
C50 C9 1_555 1_555
H25 C50 1_555 1_555
H26 C50 1_555 1_555
H27 C50 1_555 1_555
C51 C37 1_555 1_555
C52 C34 1_555 1_555
H28 C52 1_555 1_555
H29 C52 1_555 1_555
H30 C52 1_555 1_555
C53 C16 1_555 1_555
H31 C53 1_555 1_555
H32 C53 1_555 1_555
H33 C53 1_555 1_555
C54 C5 1_555 1_555
H34 C54 1_555 1_555
H35 C54 1_555 1_555
H36 C54 1_555 1_555
C55 C9 1_555 1_555
H37 C55 1_555 1_555
H38 C55 1_555 1_555
H39 C55 1_555 1_555
C56 C15 1_555 1_555
C57 O2 1_555 1_555
H40 C57 1_555 1_555
H41 C57 1_555 1_555
H42 C57 1_555 1_555
C58 C34 1_555 1_555
H43 C58 1_555 1_555
H44 C58 1_555 1_555
H45 C58 1_555 1_555
C59 C5 1_555 1_555
H46 C59 1_555 1_555
H47 C59 1_555 1_555
H48 C59 1_555 1_555
C60 O3 1_555 1_555
H49 C60 1_555 1_555
H50 C60 1_555 1_555
H51 C60 1_555 1_555
C61 C16 1_555 1_555
H52 C61 1_555 1_555
H53 C61 1_555 1_555
H54 C61 1_555 1_555
C62 C34 1_555 1_555
H55 C62 1_555 1_555
H56 C62 1_555 1_555
H57 C62 1_555 1_555
C63 C7 1_555 1_555
H58 C63 1_555 1_555
H59 C63 1_555 1_555
H60 C63 1_555 1_555
C64 C16 1_555 1_555
H61 C64 1_555 1_555
H62 C64 1_555 1_555
H63 C64 1_555 1_555
C65 C7 1_555 1_555
H64 C65 1_555 1_555
H65 C65 1_555 1_555
H66 C65 1_555 1_555
C66 C7 1_555 1_555
H67 C66 1_555 1_555
H68 C66 1_555 1_555
H69 C66 1_555 1_555
O7 C84 1_555 1_555
O8 C110 1_555 1_555
O9 C71 1_555 1_555
C67 C92 1_555 1_555
O10 C89 1_555 1_555
O11 C70 1_555 1_555
O12 C72 1_555 1_555
C68 C78 1_555 1_555
C69 H70 1_555 1_555
C70 C73 1_555 1_555
N4 C79 1_555 1_555
C71 C77 1_555 1_555
N5 C74 1_555 1_555
C72 C90 1_555 1_555
C73 C94 1_555 1_555
C74 C84 1_555 1_555
C75 N5 1_555 1_555
C76 O12 1_555 1_555
C77 C104 1_555 1_555
C78 C94 1_555 1_555
C79 C110 1_555 1_555
C80 C71 1_555 1_555
C81 C70 1_555 1_555
C82 C81 1_555 1_555
C83 C99 1_555 1_555
N6 C100 1_555 1_555
C84 C86 1_555 1_555
C85 C80 1_555 1_555
H71 C85 1_555 1_555
C86 O11 1_555 1_555
C87 C90 1_555 1_555
C88 C118 1_555 1_555
C89 C76 1_555 1_555
C90 C101 1_555 1_555
C91 C87 1_555 1_555
H72 C91 1_555 1_555
H73 C91 1_555 1_555
H74 C91 1_555 1_555
C92 C69 1_555 1_555
C93 C82 1_555 1_555
H75 C93 1_555 1_555
H76 C93 1_555 1_555
H77 C93 1_555 1_555
C94 H78 1_555 1_555
C95 C78 1_555 1_555
H79 C95 1_555 1_555
C96 C69 1_555 1_555
C97 C67 1_555 1_555
H80 C97 1_555 1_555
H81 C97 1_555 1_555
H82 C97 1_555 1_555
C98 C112 1_555 1_555
C99 C86 1_555 1_555
C100 C89 1_555 1_555
C101 C92 1_555 1_555
H83 C101 1_555 1_555
C102 C68 1_555 1_555
H84 C102 1_555 1_555
H85 C102 1_555 1_555
H86 C102 1_555 1_555
C103 N4 1_555 1_555
C104 C119 1_555 1_555
C105 C68 1_555 1_555
H87 C105 1_555 1_555
H88 C105 1_555 1_555
H89 C105 1_555 1_555
C106 C107 1_555 1_555
C107 C108 1_555 1_555
C108 O9 1_555 1_555
C109 C80 1_555 1_555
C110 C108 1_555 1_555
C111 C77 1_555 1_555
H90 C111 1_555 1_555
C112 C74 1_555 1_555
C113 C82 1_555 1_555
H91 C113 1_555 1_555
H92 C113 1_555 1_555
H93 C113 1_555 1_555
C114 C75 1_555 1_555
C115 C82 1_555 1_555
H94 C115 1_555 1_555
H95 C115 1_555 1_555
H96 C115 1_555 1_555
C116 C87 1_555 1_555
H97 C116 1_555 1_555
H98 C116 1_555 1_555
H99 C116 1_555 1_555
C117 C67 1_555 1_555
H100 C117 1_555 1_555
H101 C117 1_555 1_555
H102 C117 1_555 1_555
C118 C85 1_555 1_555
C119 H103 1_555 1_555
H104 C119 1_555 1_555
H105 C119 1_555 1_555
C120 C98 1_555 1_555
C121 O7 1_555 1_555
H106 C121 1_555 1_555
H107 C121 1_555 1_555
H108 C121 1_555 1_555
C122 C68 1_555 1_555
H109 C122 1_555 1_555
H110 C122 1_555 1_555
H111 C122 1_555 1_555
C123 C79 1_555 1_555
C124 C87 1_555 1_555
H112 C124 1_555 1_555
H113 C124 1_555 1_555
H114 C124 1_555 1_555
C125 C88 1_555 1_555
H115 C125 1_555 1_555
H116 C125 1_555 1_555
H117 C125 1_555 1_555
C126 C104 1_555 1_555
H118 C126 1_555 1_555
H119 C126 1_555 1_555
H120 C126 1_555 1_555
C127 C88 1_555 1_555
H121 C127 1_555 1_555
H122 C127 1_555 1_555
H123 C127 1_555 1_555
C128 C67 1_555 1_555
H124 C128 1_555 1_555
H125 C128 1_555 1_555
H126 C128 1_555 1_555
C129 O8 1_555 1_555
H127 C129 1_555 1_555
H128 C129 1_555 1_555
H129 C129 1_555 1_555
C130 O10 1_555 1_555
H130 C130 1_555 1_555
H131 C130 1_555 1_555
H132 C130 1_555 1_555
C131 C104 1_555 1_555
H133 C131 1_555 1_555
H134 C131 1_555 1_555
H135 C131 1_555 1_555
C132 C88 1_555 1_555
H136 C132 1_555 1_555
H137 C132 1_555 1_555
H138 C132 1_555 1_555
O13 C149 1_555 1_555
O14 C159 1_555 1_555
O15 C165 1_555 1_555
O16 C151 1_555 1_555
O17 C171 1_555 1_555
O18 C169 1_555 1_555
N7 C172 1_555 1_555
C133 C135 1_555 1_555
C134 C150 1_555 1_555
C135 C182 1_555 1_555
N8 C154 1_555 1_555
C136 C141 1_555 1_555
N9 C164 1_555 1_555
C137 H139 1_555 1_555
H140 C137 1_555 1_555
H141 C137 1_555 1_555
C138 C154 1_555 1_555
C139 C162 1_555 1_555
C140 C164 1_555 1_555
C141 C137 1_555 1_555
C142 C141 1_555 1_555
H142 C142 1_555 1_555
H143 C142 1_555 1_555
H144 C142 1_555 1_555
C143 C154 1_555 1_555
C144 C153 1_555 1_555
C145 C147 1_555 1_555
C146 C156 1_555 1_555
C147 C173 1_555 1_555
C148 H145 1_555 1_555
H146 C148 1_555 1_555
H147 C148 1_555 1_555
C149 C170 1_555 1_555
C150 C133 1_555 1_555
H148 C150 1_555 1_555
C151 C134 1_555 1_555
C152 C133 1_555 1_555
H149 C152 1_555 1_555
C153 C177 1_555 1_555
C155 H150 1_555 1_555
H151 C155 1_555 1_555
H152 C155 1_555 1_555
C156 C138 1_555 1_555
H153 C156 1_555 1_555
C157 C141 1_555 1_555
H154 C157 1_555 1_555
H155 C157 1_555 1_555
H156 C157 1_555 1_555
C158 H157 1_555 1_555
H158 C158 1_555 1_555
H159 C158 1_555 1_555
C159 C163 1_555 1_555
C160 C151 1_555 1_555
C161 C145 1_555 1_555
C162 C164 1_555 1_555
C163 N8 1_555 1_555
C165 C140 1_555 1_555
C166 C139 1_555 1_555
C167 C136 1_555 1_555
H160 C167 1_555 1_555
C168 C146 1_555 1_555
C169 C171 1_555 1_555
C170 O15 1_555 1_555
C171 C143 1_555 1_555
C172 C149 1_555 1_555
C173 O16 1_555 1_555
C174 C139 1_555 1_555
C175 O13 1_555 1_555
H161 C175 1_555 1_555
H162 C175 1_555 1_555
H163 C175 1_555 1_555
C176 H164 1_555 1_555
H165 C176 1_555 1_555
H166 C176 1_555 1_555
C177 H167 1_555 1_555
H168 C177 1_555 1_555
H169 C177 1_555 1_555
C178 C168 1_555 1_555
H170 C178 1_555 1_555
H171 C178 1_555 1_555
H172 C178 1_555 1_555
C179 H173 1_555 1_555
H174 C179 1_555 1_555
H175 C179 1_555 1_555
C180 N9 1_555 1_555
C181 C144 1_555 1_555
H176 C181 1_555 1_555
C182 H177 1_555 1_555
H178 C182 1_555 1_555
H179 C182 1_555 1_555
C183 C153 1_555 1_555
H180 C183 1_555 1_555
H181 C183 1_555 1_555
H182 C183 1_555 1_555
C184 C165 1_555 1_555
C185 C143 1_555 1_555
C186 C153 1_555 1_555
H183 C186 1_555 1_555
H184 C186 1_555 1_555
H185 C186 1_555 1_555
C187 O17 1_555 1_555
C188 C158 1_555 1_555
C189 N7 1_555 1_555
C190 C160 1_555 1_555
C191 C136 1_555 1_555
H186 C191 1_555 1_555
C192 C188 1_555 1_555
H187 C192 1_555 1_555
H188 C192 1_555 1_555
H189 C192 1_555 1_555
C193 O18 1_555 1_555
H190 C193 1_555 1_555
H191 C193 1_555 1_555
H192 C193 1_555 1_555
C194 C190 1_555 1_555
H193 C194 1_555 1_555
H194 C194 1_555 1_555
H195 C194 1_555 1_555
C195 C190 1_555 1_555
H196 C195 1_555 1_555
H197 C195 1_555 1_555
H198 C195 1_555 1_555
C196 C135 1_555 1_555
H199 C196 1_555 1_555
H200 C196 1_555 1_555
H201 C196 1_555 1_555
C197 C135 1_555 1_555
H202 C197 1_555 1_555
H203 C197 1_555 1_555
H204 C197 1_555 1_555
C198 O14 1_555 1_555
H205 C198 1_555 1_555
H206 C198 1_555 1_555
H207 C198 1_555 1_555
C4 C32 1_555 1_555
C6 C15 1_555 1_555
C8 C38 1_555 1_555
C17 C42 1_555 1_555
C22 C29 1_555 1_555
C23 C35 1_555 1_555
C24 C46 1_555 1_555
C24 C47 1_555 1_555
C25 C28 1_555 1_555
C26 C47 1_555 1_555
C27 C36 1_555 1_555
C28 C44 1_555 1_555
C29 C36 1_555 1_555
C31 C56 1_555 1_555
C33 C40 1_555 1_555
C37 C44 1_555 1_555
C40 C51 1_555 1_555
C48 C56 1_555 1_555
C49 C56 1_555 1_555
C72 C96 1_555 1_555
C73 C103 1_555 1_555
C75 C96 1_555 1_555
C76 C114 1_555 1_555
C81 C95 1_555 1_555
C83 C112 1_555 1_555
C83 C123 1_555 1_555
N6 C109 1_555 1_555
C98 C114 1_555 1_555
C99 C103 1_555 1_555
C100 C120 1_555 1_555
C106 C120 1_555 1_555
C106 C123 1_555 1_555
C107 C109 1_555 1_555
C111 C118 1_555 1_555
C134 C189 1_555 1_555
C138 C187 1_555 1_555
C140 C167 1_555 1_555
C144 C187 1_555 1_555
C145 C166 1_555 1_555
C146 C181 1_555 1_555
C147 C189 1_555 1_555
C148 C168 1_555 1_555
C152 C160 1_555 1_555
C155 C168 1_555 1_555
C159 C173 1_555 1_555
C161 C163 1_555 1_555
C161 C185 1_555 1_555
C162 C170 1_555 1_555
C166 C172 1_555 1_555
C169 C180 1_555 1_555
C174 C180 1_555 1_555
C174 C185 1_555 1_555
C176 C188 1_555 1_555
C179 C190 1_555 1_555
C184 C188 1_555 1_555
C184 C191 1_555 1_555

#END
