
#######################################################################
#
#                 Cambridge Crystallographic Data Centre
#                                CCDC 
#
#######################################################################
#
# If this CIF has been generated from an entry in the Cambridge 
# Structural Database, then it will include bibliographic, chemical, 
# crystal, experimental, refinement or atomic coordinate data resulting 
# from the CCDC's data processing and validation procedures.
#
#######################################################################

data_BETMIX
_chemical_formula_moiety         'C23 H18 F3 N3 O2'
_chemical_name_systematic        
(+-)-3,5-Difluoro-4-((3aSR,4RS,8aSR,8bRS)-2-(4-fluorobenzyl)-1,3-dioxodecahydropyrrolo(3,4-a)pyrrolizin-4-yl)benzonitrile
_symmetry_cell_setting           monoclinic
_symmetry_space_group_name_H-M   'P 21/n'
_symmetry_Int_Tables_number      14
_space_group_name_Hall           '-P 2yn'
loop_
_symmetry_equiv_pos_site_id
_symmetry_equiv_pos_as_xyz
1 x,y,z
2 1/2+x,1/2-y,1/2+z
3 -x,-y,-z
4 1/2-x,1/2+y,1/2-z
_cell_length_a                   4.8890(7)
_cell_length_b                   20.180(2)
_cell_length_c                   19.844(2)
_cell_angle_alpha                90
_cell_angle_beta                 96.211(5)
_cell_angle_gamma                90
_cell_volume                     1946.32
_exptl_crystal_colour            colorless
_chemical_melting_point          165-166deg.C
_cell_formula_units_Z            4
_exptl_crystal_recrystallization_method 'ethyl acetate/hexane'
loop_
_atom_site_label
_atom_site_type_symbol
_atom_site_fract_x
_atom_site_fract_y
_atom_site_fract_z
C1 C 0.0581(18) 0.4377(4) 0.7306(4)
N1 N -0.0061(14) 0.4637(3) 0.6664(3)
C2 C -0.1977(16) 0.5159(4) 0.6653(4)
C3 C -0.2622(16) 0.5278(3) 0.7372(4)
H1 H -0.4625 0.5237 0.7398
C4 C -0.1071(16) 0.4728(4) 0.7793(4)
H2 H -0.2375 0.4420 0.7979
O1 O 0.2239(14) 0.3929(3) 0.7426(3)
O2 O -0.2924(13) 0.5428(3) 0.6143(3)
C5 C 0.1029(19) 0.4389(4) 0.6052(5)
H3 H 0.2897 0.4219 0.6169
H4 H 0.1120 0.4753 0.5728
C6 C -0.0796(17) 0.3842(4) 0.5730(4)
C7 C -0.2914(19) 0.3974(4) 0.5223(4)
H5 H -0.3186 0.4411 0.5065
C8 C -0.463(2) 0.3476(4) 0.4945(5)
H6 H -0.6062 0.3569 0.4602
C9 C -0.419(2) 0.2848(4) 0.5185(4)
C10 C -0.211(2) 0.2694(4) 0.5672(5)
H7 H -0.1807 0.2254 0.5817
C11 C -0.046(2) 0.3196(4) 0.5944(5)
H8 H 0.0952 0.3096 0.6289
F1 F -0.5862(15) 0.2359(3) 0.4912(3)
C12 C -0.1523(16) 0.5931(3) 0.7723(4)
H9 H -0.2779 0.6050 0.8063
N2 N 0.1158(14) 0.5744(3) 0.8096(3)
C13 C 0.1831(19) 0.6165(4) 0.8708(4)
H10 H 0.1152 0.6618 0.8621
H11 H 0.3828 0.6184 0.8828
C14 C 0.042(3) 0.5851(5) 0.9293(5)
H12 H 0.1721 0.5816 0.9704
H13 H -0.1156 0.6117 0.9394
C15 C -0.052(2) 0.5157(4) 0.9037(4)
H14 H -0.2527 0.5132 0.8962
H15 H 0.0157 0.4815 0.9364
C16 C 0.0756(17) 0.5070(3) 0.8364(4)
H16 H 0.2546 0.4838 0.8446
C17 C -0.1235(15) 0.6536(3) 0.7284(4)
C18 C 0.0610(16) 0.6591(3) 0.6805(4)
C19 C 0.0954(17) 0.7157(4) 0.6425(4)
H17 H 0.2229 0.7168 0.6102
C20 C -0.0663(17) 0.7709(4) 0.6538(4)
C21 C -0.2520(19) 0.7689(4) 0.7008(4)
H18 H -0.3587 0.8063 0.7088
C22 C -0.2781(15) 0.7112(4) 0.7359(4)
C23 C -0.023(2) 0.8304(4) 0.6159(5)
N3 N 0.015(2) 0.8776(4) 0.5848(5)
F2 F 0.2209(10) 0.6067(2) 0.6699(2)
F3 F -0.4630(10) 0.7099(2) 0.7821(2)
loop_
_geom_bond_atom_site_label_1
_geom_bond_atom_site_label_2
_geom_bond_site_symmetry_1
_geom_bond_site_symmetry_2
C1 N1 1_555 1_555
N1 C2 1_555 1_555
C2 C3 1_555 1_555
C3 H1 1_555 1_555
C4 C1 1_555 1_555
H2 C4 1_555 1_555
O1 C1 1_555 1_555
O2 C2 1_555 1_555
C5 N1 1_555 1_555
H3 C5 1_555 1_555
H4 C5 1_555 1_555
C6 C5 1_555 1_555
C7 C6 1_555 1_555
H5 C7 1_555 1_555
C8 C7 1_555 1_555
H6 C8 1_555 1_555
C9 C8 1_555 1_555
C10 C9 1_555 1_555
H7 C10 1_555 1_555
C11 C6 1_555 1_555
H8 C11 1_555 1_555
F1 C9 1_555 1_555
C12 C3 1_555 1_555
H9 C12 1_555 1_555
N2 C12 1_555 1_555
C13 N2 1_555 1_555
H10 C13 1_555 1_555
H11 C13 1_555 1_555
C14 C13 1_555 1_555
H12 C14 1_555 1_555
H13 C14 1_555 1_555
C15 C14 1_555 1_555
H14 C15 1_555 1_555
H15 C15 1_555 1_555
C16 C4 1_555 1_555
H16 C16 1_555 1_555
C17 C12 1_555 1_555
C18 C17 1_555 1_555
C19 C18 1_555 1_555
H17 C19 1_555 1_555
C20 C19 1_555 1_555
C21 C20 1_555 1_555
H18 C21 1_555 1_555
C22 C17 1_555 1_555
C23 C20 1_555 1_555
N3 C23 1_555 1_555
F2 C18 1_555 1_555
F3 C22 1_555 1_555
C3 C4 1_555 1_555
C10 C11 1_555 1_555
N2 C16 1_555 1_555
C15 C16 1_555 1_555
C21 C22 1_555 1_555

#END
