
#######################################################################
#
#                 Cambridge Crystallographic Data Centre
#                                CCDC 
#
#######################################################################
#
# If this CIF has been generated from an entry in the Cambridge 
# Structural Database, then it will include bibliographic, chemical, 
# crystal, experimental, refinement or atomic coordinate data resulting 
# from the CCDC's data processing and validation procedures.
#
#######################################################################

data_BETNIY
_chemical_formula_moiety         'C20 H14 O1 S1'
_chemical_name_systematic        
(E)-4-(11-Azuleno(1,2-b)benzothiophenyl)-3-butene-2-one
_symmetry_cell_setting           orthorhombic
_symmetry_space_group_name_H-M   'P c a 21'
_symmetry_Int_Tables_number      29
_space_group_name_Hall           'P 2c -2ac'
loop_
_symmetry_equiv_pos_site_id
_symmetry_equiv_pos_as_xyz
1 x,y,z
2 -x,-y,1/2+z
3 1/2+x,-y,z
4 1/2-x,y,1/2+z
_cell_length_a                   18.905(3)
_cell_length_b                   4.7718(7)
_cell_length_c                   33.799(5)
_cell_angle_alpha                90
_cell_angle_beta                 90
_cell_angle_gamma                90
_cell_volume                     3049.04
_exptl_crystal_colour            black
_exptl_crystal_description       plate
_chemical_melting_point          166-169deg.C
_cell_formula_units_Z            8
loop_
_atom_site_label
_atom_site_type_symbol
_atom_site_fract_x
_atom_site_fract_y
_atom_site_fract_z
C1 C 0.6851(4) -0.0746(16) 0.1568(2)
C2 C 0.6354(4) -0.2547(16) 0.1731(2)
H1 H 0.6296 -0.2691 0.2004
C3 C 0.5954(5) -0.4102(19) 0.1475(3)
H2 H 0.5610 -0.5299 0.1576
C4 C 0.6050(4) -0.3931(17) 0.1066(3)
H3 H 0.5779 -0.5055 0.0900
C5 C 0.6532(4) -0.215(2) 0.0907(2)
H4 H 0.6579 -0.2033 0.0634
C6 C 0.6964(4) -0.0468(15) 0.1153(3)
C7 C 0.7519(4) 0.1536(15) 0.1069(3)
C8 C 0.7884(4) 0.2781(17) 0.0746(2)
C9 C 0.8374(4) 0.4661(15) 0.0892(2)
C10 C 0.8823(4) 0.6306(16) 0.0682(2)
H5 H 0.8794 0.6088 0.0409
C11 C 0.9324(4) 0.8282(18) 0.0808(3)
H6 H 0.9573 0.9207 0.0610
C12 C 0.9491(5) 0.9017(17) 0.1195(3)
H7 H 0.9844 1.0364 0.1222
C13 C 0.9209(5) 0.8035(19) 0.1543(3)
H8 H 0.9401 0.8824 0.1770
C14 C 0.8707(4) 0.6142(16) 0.1608(2)
H9 H 0.8602 0.5777 0.1872
C15 C 0.8319(4) 0.4641(16) 0.1330(2)
C16 C 0.7798(3) 0.2667(16) 0.1418(2)
C17 C 0.7759(5) 0.190(2) 0.0329(3)
H10 H 0.7312 0.1099 0.0307
C18 C 0.7703(11) 0.031(4) -0.0332(4)
C19 C 0.8134(11) 0.143(4) -0.0624(6)
H11 H 0.7947 0.0947 -0.0880
H12 H 0.8603 0.0674 -0.0598
H13 H 0.8150 0.3427 -0.0598
O2 O 0.7276(7) -0.101(4) -0.0433(3)
S1 S 0.74174(11) 0.1391(4) 0.18467(6)
C40 C 0.8012(10) 0.188(4) 0.0044(5)
H28 H 0.8437 0.2844 0.0017
C20 C 0.5293(4) 0.4363(16) 0.2735(2)
C21 C 0.5801(4) 0.2544(18) 0.2591(2)
H14 H 0.5879 0.2405 0.2320
C22 C 0.6194(4) 0.0926(17) 0.2853(4)
H15 H 0.6539 -0.0266 0.2752
C23 C 0.6094(5) 0.1020(18) 0.3251(3)
H16 H 0.6356 -0.0134 0.3417
C24 C 0.5596(4) 0.2851(16) 0.3408(3)
H17 H 0.5537 0.2943 0.3680
C25 C 0.5190(4) 0.4520(15) 0.3169(2)
C26 C 0.4648(4) 0.6604(14) 0.3246(2)
C27 C 0.4293(4) 0.7790(16) 0.3578(2)
C28 C 0.3777(4) 0.9743(17) 0.3413(2)
C29 C 0.3321(5) 1.1414(17) 0.3644(3)
H18 H 0.3353 1.1198 0.3917
C30 C 0.2841(5) 1.3300(19) 0.3512(3)
H19 H 0.2602 1.4251 0.3712
C31 C 0.2638(5) 1.4078(18) 0.3127(3)
H20 H 0.2277 1.5391 0.3106
C32 C 0.2923(4) 1.3085(18) 0.2777(3)
H21 H 0.2738 1.3871 0.2548
C33 C 0.3428(4) 1.1158(18) 0.2720(2)
H22 H 0.3525 1.0774 0.2456
C34 C 0.3823(4) 0.9659(16) 0.2983(2)
C35 C 0.4370(3) 0.7658(14) 0.2898(2)
C36 C 0.4407(6) 0.729(2) 0.3984(3)
H23 H 0.4008 0.7681 0.4136
C37 C 0.4912(8) 0.646(4) 0.4189(3)
H24 H 0.5340 0.6037 0.4067
C38 C 0.4842(12) 0.611(4) 0.4654(4)
C39 C 0.4288(9) 0.638(5) 0.4914(5)
H25 H 0.4415 0.5568 0.5164
H26 H 0.3880 0.5445 0.4810
H27 H 0.4183 0.8336 0.4951
O1 O 0.5477(8) 0.592(3) 0.4752(3)
S2 S 0.47362(11) 0.6401(4) 0.24707(5)
loop_
_geom_bond_atom_site_label_1
_geom_bond_atom_site_label_2
_geom_bond_site_symmetry_1
_geom_bond_site_symmetry_2
C1 C2 1_555 1_555
C2 H1 1_555 1_555
C3 C2 1_555 1_555
H2 C3 1_555 1_555
C4 C3 1_555 1_555
H3 C4 1_555 1_555
C5 C4 1_555 1_555
H4 C5 1_555 1_555
C6 C1 1_555 1_555
C7 C6 1_555 1_555
C8 C7 1_555 1_555
C9 C8 1_555 1_555
C10 C9 1_555 1_555
H5 C10 1_555 1_555
C11 C10 1_555 1_555
H6 C11 1_555 1_555
C12 C11 1_555 1_555
H7 C12 1_555 1_555
C13 C12 1_555 1_555
H8 C13 1_555 1_555
C14 C13 1_555 1_555
H9 C14 1_555 1_555
C15 C9 1_555 1_555
C16 C7 1_555 1_555
C17 C8 1_555 1_555
H10 C17 1_555 1_555
C18 C19 1_555 1_555
C19 H11 1_555 1_555
H12 C19 1_555 1_555
H13 C19 1_555 1_555
C20 C21 1_555 1_555
C21 H14 1_555 1_555
C22 C21 1_555 1_555
H15 C22 1_555 1_555
C23 C22 1_555 1_555
H16 C23 1_555 1_555
C24 C23 1_555 1_555
H17 C24 1_555 1_555
C25 C20 1_555 1_555
C26 C25 1_555 1_555
C27 C26 1_555 1_555
C28 C27 1_555 1_555
C29 C28 1_555 1_555
H18 C29 1_555 1_555
C30 C29 1_555 1_555
H19 C30 1_555 1_555
C31 C30 1_555 1_555
H20 C31 1_555 1_555
C32 C31 1_555 1_555
H21 C32 1_555 1_555
C33 C32 1_555 1_555
H22 C33 1_555 1_555
C34 C28 1_555 1_555
C35 C26 1_555 1_555
C36 C27 1_555 1_555
H23 C36 1_555 1_555
C37 C36 1_555 1_555
H24 C37 1_555 1_555
C38 C37 1_555 1_555
C39 C38 1_555 1_555
H25 C39 1_555 1_555
H26 C39 1_555 1_555
H27 C39 1_555 1_555
O1 C38 1_555 1_555
O2 C18 1_555 1_555
S1 C1 1_555 1_555
S2 C20 1_555 1_555
C40 C17 1_555 1_555
H28 C40 1_555 1_555
C5 C6 1_555 1_555
C14 C15 1_555 1_555
C15 C16 1_555 1_555
C16 S1 1_555 1_555
C18 C40 1_555 1_555
C24 C25 1_555 1_555
C33 C34 1_555 1_555
C34 C35 1_555 1_555
C35 S2 1_555 1_555

#END
