
#######################################################################
#
#                 Cambridge Crystallographic Data Centre
#                                CCDC 
#
#######################################################################
#
# If this CIF has been generated from an entry in the Cambridge 
# Structural Database, then it will include bibliographic, chemical, 
# crystal, experimental, refinement or atomic coordinate data resulting 
# from the CCDC's data processing and validation procedures.
#
#######################################################################

data_BETPIZ
_chemical_formula_moiety         'C12 H13 N2 O1 P1'
_chemical_name_systematic        'bis(Anilino)-phosphine oxide'
_symmetry_cell_setting           monoclinic
_symmetry_space_group_name_H-M   'C 2/c'
_symmetry_Int_Tables_number      15
_space_group_name_Hall           '-C 2yn'
loop_
_symmetry_equiv_pos_site_id
_symmetry_equiv_pos_as_xyz
1 x,y,z
2 1/2+x,1/2+y,z
3 -x,y,1/2-z
4 1/2-x,1/2+y,1/2-z
5 -x,-y,-z
6 1/2-x,1/2-y,-z
7 x,-y,1/2+z
8 1/2+x,1/2-y,1/2+z
_cell_length_a                   17.929(7)
_cell_length_b                   5.232(2)
_cell_length_c                   24.804(6)
_cell_angle_alpha                90
_cell_angle_beta                 103.59(3)
_cell_angle_gamma                90
_cell_volume                     2261.58
_chemical_melting_point          161-2deg.C
_cell_formula_units_Z            8
loop_
_atom_site_label
_atom_site_type_symbol
_atom_site_fract_x
_atom_site_fract_y
_atom_site_fract_z
P1 P 0.65618 0.08316 0.04131
O1 O 0.70538 0.30580 0.06121
N1 N 0.66373 -0.15930 0.08378
N2 N 0.67235 -0.03230 -0.01610
C1 C 0.65237 -0.15050 0.13859
C2 C 0.60823 0.04030 0.15447
C3 C 0.59674 0.04180 0.20766
C4 C 0.62886 -0.14260 0.24515
C5 C 0.67295 -0.33100 0.22966
C6 C 0.68473 -0.33500 0.17625
C7 C 0.62745 -0.20000 -0.05499
C8 C 0.57460 -0.36600 -0.04171
C9 C 0.53437 -0.53390 -0.08112
C10 C 0.54546 -0.53690 -0.13383
C11 C 0.59702 -0.36760 -0.14758
C12 C 0.63779 -0.19950 -0.10877
H1 H 0.58450 0.14400 0.02910
H2 H 0.68390 -0.28500 0.07620
H3 H 0.70520 0.05000 -0.02860
H4 H 0.58340 0.14600 0.12920
H5 H 0.56910 0.18300 0.21600
H6 H 0.61960 -0.13300 0.28190
H7 H 0.69960 -0.45900 0.25350
H8 H 0.71440 -0.46900 0.16730
H9 H 0.56540 -0.36600 -0.00610
H10 H 0.49640 -0.64900 -0.07090
H11 H 0.51540 -0.64300 -0.16100
H12 H 0.60690 -0.36700 -0.18470
H13 H 0.67220 -0.07700 -0.11800
loop_
_geom_bond_atom_site_label_1
_geom_bond_atom_site_label_2
_geom_bond_site_symmetry_1
_geom_bond_site_symmetry_2
P1 O1 1_555 1_555
N1 P1 1_555 1_555
N2 P1 1_555 1_555
C1 N1 1_555 1_555
C2 C1 1_555 1_555
C3 C2 1_555 1_555
C4 C3 1_555 1_555
C5 C4 1_555 1_555
C6 C1 1_555 1_555
C7 N2 1_555 1_555
C8 C7 1_555 1_555
C9 C8 1_555 1_555
C10 C9 1_555 1_555
C11 C10 1_555 1_555
C12 C7 1_555 1_555
H1 P1 1_555 1_555
H2 N1 1_555 1_555
H3 N2 1_555 1_555
H4 C2 1_555 1_555
H5 C3 1_555 1_555
H6 C4 1_555 1_555
H7 C5 1_555 1_555
H8 C6 1_555 1_555
H9 C8 1_555 1_555
H10 C9 1_555 1_555
H11 C10 1_555 1_555
H12 C11 1_555 1_555
H13 C12 1_555 1_555
C5 C6 1_555 1_555
C11 C12 1_555 1_555

#END
