
#######################################################################
#
#                 Cambridge Crystallographic Data Centre
#                                CCDC 
#
#######################################################################
#
# If this CIF has been generated from an entry in the Cambridge 
# Structural Database, then it will include bibliographic, chemical, 
# crystal, experimental, refinement or atomic coordinate data resulting 
# from the CCDC's data processing and validation procedures.
#
#######################################################################

data_BETQEW01
_chemical_formula_moiety         'C13 H20 O6,0.4(H2 O1)'
_chemical_name_systematic        
'3,3,7-Trimethyl-2,8,10-trioxa-9-oxobicyclo[5.4.0]undec-4-yl acetate hydrate'
_symmetry_cell_setting           orthorhombic
_symmetry_space_group_name_H-M   'P 21 21 21'
_symmetry_Int_Tables_number      19
_space_group_name_Hall           'P 2ac 2ab'
loop_
_symmetry_equiv_pos_site_id
_symmetry_equiv_pos_as_xyz
1 x,y,z
2 1/2-x,-y,1/2+z
3 -x,1/2+y,1/2-z
4 1/2+x,1/2-y,-z
_cell_length_a                   8.0614(8)
_cell_length_b                   10.6645(11)
_cell_length_c                   16.1512(16)
_cell_angle_alpha                90
_cell_angle_beta                 90
_cell_angle_gamma                90
_cell_volume                     1388.53
_exptl_crystal_colour            colorless
_exptl_crystal_description       rod
_cell_formula_units_Z            4
_exptl_crystal_recrystallization_method hexanes/dichloromethane
loop_
_atom_site_label
_atom_site_type_symbol
_atom_site_fract_x
_atom_site_fract_y
_atom_site_fract_z
O1 O 0.40161(12) 1.04087(10) 0.25708(6)
C1 C 0.48386(18) 0.99923(15) 0.33206(9)
O2 O 0.15672(16) 0.90207(11) 0.09253(7)
C2 C 0.36058(18) 0.95783(13) 0.39917(9)
H1 H 0.4159 0.9695 0.4541
O3 O -0.10337(18) 0.84469(10) 0.09006(7)
C3 C 0.19597(17) 1.02752(13) 0.40205(9)
H2 H 0.2180 1.1178 0.3930
H3 H 0.1490 1.0185 0.4584
O4 O -0.01985(13) 0.94232(9) 0.20194(6)
C4 C 0.06495(17) 0.98496(13) 0.33949(8)
H4 H 0.0490 0.8934 0.3455
H5 H -0.0416 1.0260 0.3534
O5 O 0.32518(13) 0.82420(9) 0.38968(6)
C5 C 0.10590(17) 1.01326(13) 0.24958(8)
O6 O 0.3958(2) 0.78435(12) 0.52131(7)
C6 C 0.0066(2) 0.89533(13) 0.12671(9)
C7 C 0.29326(19) 0.96595(14) 0.13231(9)
H6 H 0.2970 1.0541 0.1133
H7 H 0.3989 0.9252 0.1164
C8 C 0.27521(17) 0.96289(13) 0.22490(9)
H8 H 0.2893 0.8752 0.2457
C9 C 0.5726(2) 1.11677(16) 0.36113(12)
H9 H 0.6297 1.1460 0.3221
H10 H 0.6432 1.0951 0.4085
H11 H 0.4910 1.1799 0.3781
C10 C 0.6072(2) 0.89593(16) 0.31066(11)
H12 H 0.6781 0.9238 0.2773
H13 H 0.5484 0.8245 0.2862
H14 H 0.6641 0.8688 0.3613
C11 C 0.34569(19) 0.74885(14) 0.45525(9)
C12 C 0.2977(2) 0.61733(15) 0.43459(10)
H15 H 0.3406 0.5680 0.4690
H16 H 0.3411 0.5942 0.3799
H17 H 0.1763 0.6098 0.4343
C13 C 0.0813(2) 1.15142(13) 0.22922(9)
H18 H 0.0996 1.1633 0.1786
H19 H 0.1578 1.2021 0.2625
H20 H -0.0332 1.1756 0.2419
O7 O 0.5870(5) 0.8428(3) 0.0156(2)
H21 H 0.5341 0.7580 -0.0002
H22 H 0.7012 0.8125 0.0325
loop_
_geom_bond_atom_site_label_1
_geom_bond_atom_site_label_2
_geom_bond_site_symmetry_1
_geom_bond_site_symmetry_2
O1 C1 1_555 1_555
C1 C2 1_555 1_555
O2 C6 1_555 1_555
C2 H1 1_555 1_555
O3 C6 1_555 1_555
C3 C2 1_555 1_555
H2 C3 1_555 1_555
H3 C3 1_555 1_555
O4 C5 1_555 1_555
C4 C3 1_555 1_555
H4 C4 1_555 1_555
H5 C4 1_555 1_555
O5 C2 1_555 1_555
C5 C4 1_555 1_555
O6 C11 1_555 1_555
C6 O4 1_555 1_555
C7 O2 1_555 1_555
H6 C7 1_555 1_555
H7 C7 1_555 1_555
C8 O1 1_555 1_555
H8 C8 1_555 1_555
C9 C1 1_555 1_555
H9 C9 1_555 1_555
H10 C9 1_555 1_555
H11 C9 1_555 1_555
C10 C1 1_555 1_555
H12 C10 1_555 1_555
H13 C10 1_555 1_555
H14 C10 1_555 1_555
C11 O5 1_555 1_555
C12 C11 1_555 1_555
H15 C12 1_555 1_555
H16 C12 1_555 1_555
H17 C12 1_555 1_555
C13 C5 1_555 1_555
H18 C13 1_555 1_555
H19 C13 1_555 1_555
H20 C13 1_555 1_555
O7 H21 1_555 1_555
H22 O7 1_555 1_555
C5 C8 1_555 1_555
C7 C8 1_555 1_555

#END
