
#######################################################################
#
#                 Cambridge Crystallographic Data Centre
#                                CCDC 
#
#######################################################################
#
# If this CIF has been generated from an entry in the Cambridge 
# Structural Database, then it will include bibliographic, chemical, 
# crystal, experimental, refinement or atomic coordinate data resulting 
# from the CCDC's data processing and validation procedures.
#
#######################################################################

data_BETQAS
_chemical_formula_moiety         'C14 H24 O6'
_chemical_name_systematic        
'7-(acetyloxymethyl)-6-hydroxy-2,2,6-trimethyloxepan-3-yl acetate'
_symmetry_cell_setting           monoclinic
_symmetry_space_group_name_H-M   'P 21'
_symmetry_Int_Tables_number      4
_space_group_name_Hall           'P 2yb'
loop_
_symmetry_equiv_pos_site_id
_symmetry_equiv_pos_as_xyz
1 x,y,z
2 -x,1/2+y,-z
_cell_length_a                   6.7703(3)
_cell_length_b                   15.9227(12)
_cell_length_c                   7.3866(5)
_cell_angle_alpha                90
_cell_angle_beta                 99.446(4)
_cell_angle_gamma                90
_cell_volume                     785.489
_exptl_crystal_colour            colorless
_cell_formula_units_Z            2
_exptl_crystal_recrystallization_method hexanes/dichloromethane
loop_
_atom_site_label
_atom_site_type_symbol
_atom_site_fract_x
_atom_site_fract_y
_atom_site_fract_z
O1 O 1.0137(3) 0.1821(1) 0.5014(2)
O2 O 0.6914(3) 0.0951(1) 0.6051(3)
O3 O 0.6062(4) -0.0313(2) 0.6876(4)
O4 O 0.8026(3) 0.3069(1) 0.1789(3)
O5 O 0.8680(4) 0.4319(2) 0.0722(4)
O6 O 0.8852(4) 0.0337(2) 0.1310(4)
C1 C 0.9846(5) 0.2710(2) 0.4834(4)
C2 C 1.0019(4) 0.3030(2) 0.2901(4)
C3 C 1.1341(5) 0.2494(2) 0.1873(5)
C4 C 1.0422(5) 0.1676(2) 0.1022(4)
C5 C 1.0113(4) 0.0959(2) 0.2326(4)
C6 C 0.8905(4) 0.1280(2) 0.3776(4)
C7 C 0.8205(5) 0.0584(2) 0.4884(5)
C8 C 0.5950(5) 0.0434(2) 0.6995(4)
C9 C 0.4713(6) 0.0892(2) 0.8150(5)
C10 C 0.7576(4) 0.3737(2) 0.0735(4)
C11 C 0.5539(5) 0.3685(2) -0.0351(4)
C12 C 0.7885(6) 0.2959(2) 0.5440(5)
C13 C 1.1626(6) 0.3071(2) 0.6163(5)
C14 C 1.2102(5) 0.0583(2) 0.3199(5)
H1 H 1.0572 0.3600 0.3015
H2 H 1.2551 0.2354 0.2716
H3 H 1.1734 0.2833 0.0901
H4 H 0.9132 0.1810 0.0298
H5 H 1.1270 0.1470 0.0180
H6 H 0.7741 0.1595 0.3164
H7 H 0.7476 0.0167 0.4080
H8 H 0.9341 0.0312 0.5625
H9 H 0.3467 0.0602 0.8132
H10 H 0.4454 0.1450 0.7679
H11 H 0.5415 0.0921 0.9388
H12 H 0.5469 0.4026 -0.1432
H13 H 0.4582 0.3883 0.0375
H14 H 0.5243 0.3112 -0.0702
H15 H 0.7878 0.2763 0.6668
H16 H 0.6786 0.2711 0.4628
H17 H 0.7753 0.3559 0.5406
H18 H 1.1665 0.2824 0.7354
H19 H 1.1478 0.3668 0.6248
H20 H 1.2848 0.2945 0.5717
H21 H 1.1866 0.0116 0.3959
H22 H 1.2880 0.1001 0.3935
H23 H 1.2817 0.0394 0.2256
H24 H 0.9560(70) 0.0140(30) 0.0630(60)
loop_
_geom_bond_atom_site_label_1
_geom_bond_atom_site_label_2
_geom_bond_site_symmetry_1
_geom_bond_site_symmetry_2
O1 C1 1_555 1_555
O2 C7 1_555 1_555
O3 C8 1_555 1_555
O4 C2 1_555 1_555
O5 C10 1_555 1_555
O6 C5 1_555 1_555
C1 C2 1_555 1_555
C2 C3 1_555 1_555
C3 C4 1_555 1_555
C4 C5 1_555 1_555
C5 C6 1_555 1_555
C6 O1 1_555 1_555
C7 C6 1_555 1_555
C8 O2 1_555 1_555
C9 C8 1_555 1_555
C10 O4 1_555 1_555
C11 C10 1_555 1_555
C12 C1 1_555 1_555
C13 C1 1_555 1_555
C14 C5 1_555 1_555
H1 C2 1_555 1_555
H2 C3 1_555 1_555
H3 C3 1_555 1_555
H4 C4 1_555 1_555
H5 C4 1_555 1_555
H6 C6 1_555 1_555
H7 C7 1_555 1_555
H8 C7 1_555 1_555
H9 C9 1_555 1_555
H10 C9 1_555 1_555
H11 C9 1_555 1_555
H12 C11 1_555 1_555
H13 C11 1_555 1_555
H14 C11 1_555 1_555
H15 C12 1_555 1_555
H16 C12 1_555 1_555
H17 C12 1_555 1_555
H18 C13 1_555 1_555
H19 C13 1_555 1_555
H20 C13 1_555 1_555
H21 C14 1_555 1_555
H22 C14 1_555 1_555
H23 C14 1_555 1_555
H24 O6 1_555 1_555

#END
