
#######################################################################
#
#                 Cambridge Crystallographic Data Centre
#                                CCDC 
#
#######################################################################
#
# If this CIF has been generated from an entry in the Cambridge 
# Structural Database, then it will include bibliographic, chemical, 
# crystal, experimental, refinement or atomic coordinate data resulting 
# from the CCDC's data processing and validation procedures.
#
#######################################################################

data_BETWEF
_chemical_formula_moiety         'C23 H21 N1 O3 S1'
_chemical_name_systematic        
4-((4-methylphenyl)sulfonyl)-2-(2-phenylvinyl)-3,4-dihydro-2H-1,4-benzoxazine
_symmetry_cell_setting           monoclinic
_symmetry_space_group_name_H-M   'P 21/n'
_symmetry_Int_Tables_number      14
_space_group_name_Hall           '-P 2yn'
loop_
_symmetry_equiv_pos_site_id
_symmetry_equiv_pos_as_xyz
1 x,y,z
2 1/2-x,1/2+y,1/2-z
3 -x,-y,-z
4 1/2+x,1/2-y,1/2+z
_cell_length_a                   14.9286(12)
_cell_length_b                   8.2478(5)
_cell_length_c                   17.4786(14)
_cell_angle_alpha                90
_cell_angle_beta                 108.980(9)
_cell_angle_gamma                90
_cell_volume                     2035.1
_exptl_crystal_colour            colorless
_exptl_crystal_description       plate
_cell_formula_units_Z            4
_exptl_crystal_recrystallization_method n-hexane/dichloromethane
loop_
_atom_site_label
_atom_site_type_symbol
_atom_site_fract_x
_atom_site_fract_y
_atom_site_fract_z
S1 S 0.80024(5) 0.35343(8) 0.84077(5)
O1 O 0.84621(13) 0.2069(2) 0.87535(14)
O2 O 0.79877(13) 0.4019(2) 0.76194(11)
O3 O 0.56107(13) 0.4924(3) 0.90398(12)
N1 N 0.68674(14) 0.3346(3) 0.83393(13)
C1 C 0.84883(18) 0.6665(3) 0.87773(17)
H1 H 0.8327 0.6834 0.8223
C2 C 0.87561(19) 0.7956(3) 0.93065(19)
H2 H 0.8775 0.8992 0.9102
C3 C 0.89947(18) 0.7743(3) 1.01288(18)
C4 C 0.8996(2) 0.6179(4) 1.04173(18)
H3 H 0.9185 0.6005 1.0973
C5 C 0.87237(18) 0.4871(3) 0.99019(17)
H4 H 0.8716 0.3832 1.0107
C6 C 0.84619(16) 0.5128(3) 0.90744(16)
C7 C 0.9251(2) 0.9155(4) 1.0703(2)
H5 H 0.9224 1.0139 1.0402
H6 H 0.9881 0.9009 1.1073
H7 H 0.8813 0.9220 1.1000
C8 C 0.66006(17) 0.2605(3) 0.89723(16)
C9 C 0.6874(2) 0.1040(4) 0.92336(19)
H8 H 0.7256 0.0459 0.9004
C10 C 0.6586(2) 0.0332(4) 0.9829(2)
H9 H 0.6792 -0.0705 1.0013
C11 C 0.5992(2) 0.1165(5) 1.0153(2)
H10 H 0.5803 0.0693 1.0559
C12 C 0.5679(2) 0.2686(5) 0.98769(19)
H11 H 0.5262 0.3229 1.0084
C13 C 0.59805(18) 0.3416(4) 0.92932(17)
C14 C 0.62454(19) 0.4697(3) 0.79421(16)
H12 H 0.5652 0.4267 0.7584
H13 H 0.6543 0.5308 0.7616
C15 C 0.6046(2) 0.5817(3) 0.85547(17)
H14 H 0.6657 0.6217 0.8913
C16 C 0.3976(3) 0.8759(5) 0.7528(2)
C17 C 0.3065(3) 0.8494(6) 0.7073(3)
H15 H 0.2803 0.7469 0.7064
C18 C 0.2517(3) 0.9731(7) 0.6620(3)
H16 H 0.1892 0.9528 0.6310
C19 C 0.2883(4) 1.1233(6) 0.6623(3)
H17 H 0.2512 1.2046 0.6305
C20 C 0.3782(4) 1.1560(5) 0.7083(3)
H18 H 0.4030 1.2597 0.7095
C21 C 0.4339(3) 1.0297(6) 0.7547(2)
H19 H 0.4958 1.0508 0.7869
C22 C 0.5470(4) 0.7259(6) 0.8161(2)
H20 H 0.5788 0.8145 0.8044
C23 C 0.4534(3) 0.7353(5) 0.7967(2)
H21 H 0.4213 0.6502 0.8112
H22? H 0.6559 0.6554 0.8844
C24? C 0.5051(15) 0.663(3) 0.8108(11)
H23? H 0.4489 0.6040 0.7923
C25? C 0.5088(15) 0.803(3) 0.8032(10)
H24? H 0.5635 0.8660 0.8216
loop_
_geom_bond_atom_site_label_1
_geom_bond_atom_site_label_2
_geom_bond_site_symmetry_1
_geom_bond_site_symmetry_2
S1 O1 1_555 1_555
O2 S1 1_555 1_555
O3 C13 1_555 1_555
N1 S1 1_555 1_555
C1 H1 1_555 1_555
C2 C1 1_555 1_555
H2 C2 1_555 1_555
C3 C2 1_555 1_555
C4 C3 1_555 1_555
H3 C4 1_555 1_555
C5 C4 1_555 1_555
H4 C5 1_555 1_555
C6 S1 1_555 1_555
C7 C3 1_555 1_555
H5 C7 1_555 1_555
H6 C7 1_555 1_555
H7 C7 1_555 1_555
C8 N1 1_555 1_555
C9 C8 1_555 1_555
H8 C9 1_555 1_555
C10 C9 1_555 1_555
H9 C10 1_555 1_555
C11 C10 1_555 1_555
H10 C11 1_555 1_555
C12 C11 1_555 1_555
H11 C12 1_555 1_555
C13 C8 1_555 1_555
C14 N1 1_555 1_555
H12 C14 1_555 1_555
H13 C14 1_555 1_555
C15 O3 1_555 1_555
H14 C15 1_555 1_555
C16 C17 1_555 1_555
C17 H15 1_555 1_555
C18 C17 1_555 1_555
H16 C18 1_555 1_555
C19 C18 1_555 1_555
H17 C19 1_555 1_555
C20 C19 1_555 1_555
H18 C20 1_555 1_555
C21 C16 1_555 1_555
H19 C21 1_555 1_555
C22 C15 1_555 1_555
H20 C22 1_555 1_555
C23 C16 1_555 1_555
H21 C23 1_555 1_555
C1 C6 1_555 1_555
C5 C6 1_555 1_555
C12 C13 1_555 1_555
C14 C15 1_555 1_555
C20 C21 1_555 1_555
C22 C23 1_555 1_555

#END
