
#######################################################################
#
#                 Cambridge Crystallographic Data Centre
#                                CCDC 
#
#######################################################################
#
# If this CIF has been generated from an entry in the Cambridge 
# Structural Database, then it will include bibliographic, chemical, 
# crystal, experimental, refinement or atomic coordinate data resulting 
# from the CCDC's data processing and validation procedures.
#
#######################################################################

data_BETWOP
_chemical_formula_moiety         'C18 H19 N1 O3 S1'
_chemical_name_systematic        
4-((4-methylphenyl)sulfonyl)-3-(prop-1-en-2-yl)-3,4-dihydro-2H-1,4-benzoxazine
_symmetry_cell_setting           monoclinic
_symmetry_space_group_name_H-M   'P 21/c'
_symmetry_Int_Tables_number      14
_space_group_name_Hall           '-P 2ybc'
loop_
_symmetry_equiv_pos_site_id
_symmetry_equiv_pos_as_xyz
1 x,y,z
2 -x,1/2+y,1/2-z
3 -x,-y,-z
4 x,1/2-y,1/2+z
_cell_length_a                   10.596(2)
_cell_length_b                   6.3846(12)
_cell_length_c                   24.794(5)
_cell_angle_alpha                90
_cell_angle_beta                 96.536(4)
_cell_angle_gamma                90
_cell_volume                     1666.44
_exptl_crystal_colour            colorless
_exptl_crystal_description       needle-like
_cell_formula_units_Z            4
_exptl_crystal_recrystallization_method n-Hexane/dichloromethane
loop_
_atom_site_label
_atom_site_type_symbol
_atom_site_fract_x
_atom_site_fract_y
_atom_site_fract_z
S1 S 0.45103(7) 0.59712(12) 0.34849(3)
O1 O 0.4328(2) 0.7581(3) 0.38692(9)
O2 O 0.5058(2) 0.6456(4) 0.30004(9)
O3 O 0.1850(2) 0.1034(3) 0.33406(9)
N1 N 0.3094(2) 0.5008(4) 0.32791(8)
C1 C 0.5253(4) 0.3596(6) 0.43721(12)
H1 H 0.4694 0.4412 0.4546
C2 C 0.5925(4) 0.2012(6) 0.46442(13)
H2 H 0.5813 0.1761 0.5005
C3 C 0.6764(4) 0.0774(6) 0.43978(16)
C4 C 0.6899(3) 0.1170(6) 0.38562(15)
H3 H 0.7445 0.0337 0.3680
C5 C 0.6251(3) 0.2750(6) 0.35772(13)
H4 H 0.6367 0.3010 0.3217
C6 C 0.5419(3) 0.3961(5) 0.38352(11)
C7 C 0.7492(5) -0.0987(8) 0.4701(2)
H5 H 0.7055 -0.2287 0.4621
H6 H 0.7551 -0.0722 0.5084
H7 H 0.8329 -0.1069 0.4591
C8 C 0.2177(3) 0.4638(5) 0.36514(10)
C9 C 0.1748(3) 0.6259(6) 0.39683(12)
H8 H 0.2116 0.7579 0.3959
C10 C 0.0799(4) 0.5929(7) 0.42901(13)
H9 H 0.0554 0.6999 0.4511
C11 C 0.0209(4) 0.4016(8) 0.42863(14)
H10 H -0.0450 0.3804 0.4498
C12 C 0.0589(3) 0.2393(7) 0.39688(12)
H11 H 0.0185 0.1099 0.3969
C13 C 0.1563(3) 0.2697(5) 0.36550(11)
C14 C 0.2975(3) 0.1283(5) 0.30717(14)
H12 H 0.2979 0.0243 0.2787
H13 H 0.3722 0.1062 0.3330
C15 C 0.3020(3) 0.3466(5) 0.28281(11)
H14 H 0.3794 0.3583 0.2648
C16 C 0.1876(3) 0.3932(5) 0.24105(11)
C17 C 0.1255(3) 0.5718(6) 0.24056(13)
H15 H 0.0583 0.5973 0.2138
H16 H 0.1488 0.6724 0.2669
C18 C 0.1544(4) 0.2241(7) 0.19948(13)
H17 H 0.2282 0.1894 0.1821
H18 H 0.0883 0.2731 0.1728
H19 H 0.1256 0.1019 0.2171
loop_
_geom_bond_atom_site_label_1
_geom_bond_atom_site_label_2
_geom_bond_site_symmetry_1
_geom_bond_site_symmetry_2
S1 O1 1_555 1_555
O2 S1 1_555 1_555
O3 C13 1_555 1_555
N1 S1 1_555 1_555
C1 H1 1_555 1_555
C2 C1 1_555 1_555
H2 C2 1_555 1_555
C3 C2 1_555 1_555
C4 C3 1_555 1_555
H3 C4 1_555 1_555
C5 C4 1_555 1_555
H4 C5 1_555 1_555
C6 S1 1_555 1_555
C7 C3 1_555 1_555
H5 C7 1_555 1_555
H6 C7 1_555 1_555
H7 C7 1_555 1_555
C8 N1 1_555 1_555
C9 C8 1_555 1_555
H8 C9 1_555 1_555
C10 C9 1_555 1_555
H9 C10 1_555 1_555
C11 C10 1_555 1_555
H10 C11 1_555 1_555
C12 C11 1_555 1_555
H11 C12 1_555 1_555
C13 C8 1_555 1_555
C14 O3 1_555 1_555
H12 C14 1_555 1_555
H13 C14 1_555 1_555
C15 N1 1_555 1_555
H14 C15 1_555 1_555
C16 C15 1_555 1_555
C17 C16 1_555 1_555
H15 C17 1_555 1_555
H16 C17 1_555 1_555
C18 C16 1_555 1_555
H17 C18 1_555 1_555
H18 C18 1_555 1_555
H19 C18 1_555 1_555
C1 C6 1_555 1_555
C5 C6 1_555 1_555
C12 C13 1_555 1_555
C14 C15 1_555 1_555

#END
