
#######################################################################
#
#                 Cambridge Crystallographic Data Centre
#                                CCDC 
#
#######################################################################
#
# If this CIF has been generated from an entry in the Cambridge 
# Structural Database, then it will include bibliographic, chemical, 
# crystal, experimental, refinement or atomic coordinate data resulting 
# from the CCDC's data processing and validation procedures.
#
#######################################################################

data_BETXEF
_chemical_formula_moiety         'C15 H22 Cl2 N4'
_chemical_name_systematic        
4,6-Dichloro-N,N-dicyclohexyl-1,3,5-triazin-2-amine
_symmetry_cell_setting           monoclinic
_symmetry_space_group_name_H-M   'P 21/n'
_symmetry_Int_Tables_number      14
_space_group_name_Hall           '-P 2yn'
loop_
_symmetry_equiv_pos_site_id
_symmetry_equiv_pos_as_xyz
1 x,y,z
2 1/2-x,1/2+y,1/2-z
3 -x,-y,-z
4 1/2+x,1/2-y,1/2+z
_cell_length_a                   8.9129(4)
_cell_length_b                   10.6123(5)
_cell_length_c                   17.5227(8)
_cell_angle_alpha                90
_cell_angle_beta                 100.085(2)
_cell_angle_gamma                90
_cell_volume                     1631.8
_exptl_crystal_colour            colorless
_exptl_crystal_description       needle
_cell_formula_units_Z            4
loop_
_atom_site_label
_atom_site_type_symbol
_atom_site_fract_x
_atom_site_fract_y
_atom_site_fract_z
Cl1 Cl 0.00618(6) 0.10741(5) 0.36152(3)
Cl2 Cl 0.42782(6) 0.38416(5) 0.27703(3)
N1 N 0.45357(19) 0.28775(16) 0.41417(9)
N2 N 0.2265(2) 0.24062(17) 0.32358(10)
N3 N 0.25125(19) 0.17076(16) 0.45508(10)
N4 N 0.47592(19) 0.21189(16) 0.54048(9)
C1 C 0.3935(2) 0.22404(18) 0.46950(11)
C2 C 0.3632(2) 0.29301(19) 0.34675(12)
C3 C 0.1823(2) 0.18074(19) 0.38323(12)
C4 C 0.6352(2) 0.25810(19) 0.56151(11)
C5 C 0.6536(2) 0.4008(2) 0.55210(13)
C6 C 0.8185(3) 0.4388(2) 0.58473(14)
C7 C 0.9317(3) 0.3647(2) 0.54674(15)
C8 C 0.9100(3) 0.2230(2) 0.55502(14)
C9 C 0.7467(2) 0.1838(2) 0.52145(12)
C10 C 0.4069(2) 0.1512(2) 0.60247(11)
C11 C 0.3715(3) 0.2475(2) 0.66153(13)
C12 C 0.2834(3) 0.1823(2) 0.71808(13)
C13 C 0.3719(3) 0.0704(2) 0.75835(12)
C14 C 0.4166(3) -0.0223(2) 0.69925(12)
C15 C 0.5029(3) 0.0429(2) 0.64243(13)
H1 H 0.659(3) 0.238(2) 0.6196(15)
H2 H 0.627(3) 0.426(2) 0.4931(15)
H3 H 0.580(3) 0.443(2) 0.5811(14)
H4 H 0.830(3) 0.530(3) 0.5788(14)
H5 H 0.848(3) 0.433(2) 0.6417(15)
H6 H 0.920(3) 0.379(2) 0.4874(17)
H7 H 1.028(4) 0.387(3) 0.5683(18)
H8 H 0.936(3) 0.200(2) 0.6103(15)
H9 H 0.982(3) 0.177(2) 0.5285(14)
H10 H 0.722(3) 0.203(3) 0.4640(16)
H11 H 0.734(3) 0.089(2) 0.5302(14)
H12 H 0.308(3) 0.114(2) 0.5764(14)
H13 H 0.315(3) 0.313(3) 0.6363(16)
H14 H 0.465(3) 0.284(2) 0.6885(14)
H15 H 0.263(3) 0.245(3) 0.7574(17)
H16 H 0.182(3) 0.150(3) 0.6863(16)
H17 H 0.468(3) 0.104(2) 0.7911(16)
H18 H 0.314(3) 0.029(3) 0.7944(15)
H19 H 0.320(3) -0.059(3) 0.6709(16)
H20 H 0.478(3) -0.094(2) 0.7245(15)
H21 H 0.524(3) -0.013(3) 0.6066(17)
H22 H 0.604(4) 0.073(3) 0.6738(17)
loop_
_geom_bond_atom_site_label_1
_geom_bond_atom_site_label_2
_geom_bond_site_symmetry_1
_geom_bond_site_symmetry_2
Cl1 C3 1_555 1_555
Cl2 C2 1_555 1_555
N1 C1 1_555 1_555
N2 C2 1_555 1_555
N3 C1 1_555 1_555
N4 C1 1_555 1_555
C2 N1 1_555 1_555
C3 N2 1_555 1_555
C4 N4 1_555 1_555
C5 C4 1_555 1_555
C6 C5 1_555 1_555
C7 C6 1_555 1_555
C8 C7 1_555 1_555
C9 C4 1_555 1_555
C10 N4 1_555 1_555
C11 C10 1_555 1_555
C12 C11 1_555 1_555
C13 C12 1_555 1_555
C14 C13 1_555 1_555
C15 C10 1_555 1_555
H1 C4 1_555 1_555
H2 C5 1_555 1_555
H3 C5 1_555 1_555
H4 C6 1_555 1_555
H5 C6 1_555 1_555
H6 C7 1_555 1_555
H7 C7 1_555 1_555
H8 C8 1_555 1_555
H9 C8 1_555 1_555
H10 C9 1_555 1_555
H11 C9 1_555 1_555
H12 C10 1_555 1_555
H13 C11 1_555 1_555
H14 C11 1_555 1_555
H15 C12 1_555 1_555
H16 C12 1_555 1_555
H17 C13 1_555 1_555
H18 C13 1_555 1_555
H19 C14 1_555 1_555
H20 C14 1_555 1_555
H21 C15 1_555 1_555
H22 C15 1_555 1_555
N3 C3 1_555 1_555
C8 C9 1_555 1_555
C14 C15 1_555 1_555

#END
