
#######################################################################
#
#                 Cambridge Crystallographic Data Centre
#                                CCDC 
#
#######################################################################
#
# If this CIF has been generated from an entry in the Cambridge 
# Structural Database, then it will include bibliographic, chemical, 
# crystal, experimental, refinement or atomic coordinate data resulting 
# from the CCDC's data processing and validation procedures.
#
#######################################################################

data_BEVBOV
_chemical_formula_moiety         'C23 H15 N1 O1'
_chemical_name_systematic        2-(Benzo[k]phenanthridin-6-yl)phenol
_symmetry_cell_setting           monoclinic
_symmetry_space_group_name_H-M   'P 21/c'
_symmetry_Int_Tables_number      14
_space_group_name_Hall           '-P 2ybc'
loop_
_symmetry_equiv_pos_site_id
_symmetry_equiv_pos_as_xyz
1 x,y,z
2 -x,1/2+y,1/2-z
3 -x,-y,-z
4 x,1/2-y,1/2+z
_cell_length_a                   11.245(3)
_cell_length_b                   13.306(4)
_cell_length_c                   11.013(3)
_cell_angle_alpha                90
_cell_angle_beta                 103.069(5)
_cell_angle_gamma                90
_cell_volume                     1605.15
_exptl_crystal_colour            yellow
_exptl_crystal_description       plate
_cell_formula_units_Z            4
loop_
_atom_site_label
_atom_site_type_symbol
_atom_site_fract_x
_atom_site_fract_y
_atom_site_fract_z
O1 O 0.79420(16) 0.76104(13) 0.52430(16)
H1 H 0.7955 0.7998 0.5848
N1 N 0.81675(17) 0.62715(15) 0.23794(17)
C1 C 0.7508(2) 0.63077(18) 0.3225(2)
C2 C 0.7465(2) 0.55016(18) 0.4081(2)
C3 C 0.8193(2) 0.46393(17) 0.4061(2)
C4 C 0.9094(2) 0.46967(18) 0.3309(2)
C5 C 0.8994(2) 0.54931(18) 0.2434(2)
C6 C 0.9791(2) 0.5545(2) 0.1619(2)
H2 H 0.9691 0.6061 0.1008
C7 C 1.0711(2) 0.4856(2) 0.1701(2)
H3 H 1.1231 0.4881 0.1131
C8 C 1.0885(2) 0.4119(2) 0.2619(2)
H4 H 1.1548 0.3663 0.2698
C9 C 1.0106(2) 0.40435(19) 0.3412(2)
H5 H 1.0250 0.3543 0.4043
C10 C 0.6663(2) 0.55570(19) 0.4916(2)
H6 H 0.6176 0.6140 0.4920
C11 C 0.6589(2) 0.47925(19) 0.5696(2)
H7 H 0.6112 0.4870 0.6301
C12 C 0.7213(2) 0.38705(19) 0.5630(2)
C13 C 0.7983(2) 0.37681(18) 0.4775(2)
C14 C 0.8401(3) 0.2783(2) 0.4597(3)
H8 H 0.8868 0.2676 0.3990
C15 C 0.8149(3) 0.1989(2) 0.5279(3)
H9 H 0.8450 0.1341 0.5146
C16 C 0.7450(3) 0.2116(2) 0.6174(3)
H10 H 0.7303 0.1562 0.6665
C17 C 0.6985(3) 0.3038(2) 0.6336(3)
H11 H 0.6500 0.3121 0.6932
C18 C 0.6761(2) 0.72391(18) 0.3242(2)
C19 C 0.5829(2) 0.7497(2) 0.2220(2)
H12 H 0.5653 0.7070 0.1510
C20 C 0.5157(2) 0.8373(2) 0.2233(3)
H13 H 0.4515 0.8540 0.1540
C21 C 0.5426(2) 0.8997(2) 0.3255(3)
H14 H 0.4968 0.9596 0.3262
C22 C 0.6352(2) 0.8765(2) 0.4268(3)
H15 H 0.6535 0.9207 0.4963
C23 C 0.7020(2) 0.78813(18) 0.4275(2)
loop_
_geom_bond_atom_site_label_1
_geom_bond_atom_site_label_2
_geom_bond_site_symmetry_1
_geom_bond_site_symmetry_2
O1 H1 1_555 1_555
N1 C1 1_555 1_555
C1 C2 1_555 1_555
C2 C3 1_555 1_555
C3 C4 1_555 1_555
C4 C5 1_555 1_555
C5 N1 1_555 1_555
C6 C5 1_555 1_555
H2 C6 1_555 1_555
C7 C6 1_555 1_555
H3 C7 1_555 1_555
C8 C7 1_555 1_555
H4 C8 1_555 1_555
C9 C4 1_555 1_555
H5 C9 1_555 1_555
C10 C2 1_555 1_555
H6 C10 1_555 1_555
C11 C10 1_555 1_555
H7 C11 1_555 1_555
C12 C11 1_555 1_555
C13 C3 1_555 1_555
C14 C13 1_555 1_555
H8 C14 1_555 1_555
C15 C14 1_555 1_555
H9 C15 1_555 1_555
C16 C15 1_555 1_555
H10 C16 1_555 1_555
C17 C12 1_555 1_555
H11 C17 1_555 1_555
C18 C1 1_555 1_555
C19 C18 1_555 1_555
H12 C19 1_555 1_555
C20 C19 1_555 1_555
H13 C20 1_555 1_555
C21 C20 1_555 1_555
H14 C21 1_555 1_555
C22 C21 1_555 1_555
H15 C22 1_555 1_555
C23 O1 1_555 1_555
C8 C9 1_555 1_555
C12 C13 1_555 1_555
C16 C17 1_555 1_555
C18 C23 1_555 1_555
C22 C23 1_555 1_555

#END
