
#######################################################################
#
#                 Cambridge Crystallographic Data Centre
#                                CCDC 
#
#######################################################################
#
# If this CIF has been generated from an entry in the Cambridge 
# Structural Database, then it will include bibliographic, chemical, 
# crystal, experimental, refinement or atomic coordinate data resulting 
# from the CCDC's data processing and validation procedures.
#
#######################################################################

data_BEVFOA
_chemical_formula_moiety         'C19 H36 Br4 K1 N2 O6 1+,C1 Br4,C1 N1 S1 1-'
_chemical_name_systematic        
'(4,7,13,16,21,24-hexaoxa-1,10-diazabicyclo[8.8.8]hexacosane)-[tetrabromomethane]-potassium thiocyanate tetrabromomethane solvate'
_symmetry_cell_setting           triclinic
_symmetry_space_group_name_H-M   'P -1'
_symmetry_Int_Tables_number      2
_space_group_name_Hall           '-P 1'
loop_
_symmetry_equiv_pos_site_id
_symmetry_equiv_pos_as_xyz
1 x,y,z
2 -x,-y,-z
_cell_length_a                   10.3728(7)
_cell_length_b                   13.0176(9)
_cell_length_c                   14.4077(9)
_cell_angle_alpha                104.596(3)
_cell_angle_beta                 96.894(2)
_cell_angle_gamma                104.555(3)
_cell_volume                     1786.99
_exptl_crystal_colour            colorless
_exptl_crystal_description       block
_cell_formula_units_Z            2
loop_
_atom_site_label
_atom_site_type_symbol
_atom_site_fract_x
_atom_site_fract_y
_atom_site_fract_z
C1 C 0.5892(3) 0.4721(2) 0.8035(2)
Br1 Br 0.40440(3) 0.39814(2) 0.80730(2)
Br2 Br 0.59343(4) 0.55557(3) 0.70918(2)
Br3 Br 0.68836(3) 0.36379(2) 0.76753(2)
Br4 Br 0.67780(3) 0.57193(2) 0.93223(2)
C2 C 0.0333(3) 0.2696(2) 0.8046(2)
N1 N 0.1372(3) 0.3138(2) 0.8563(2)
S1 S -0.11510(8) 0.20242(6) 0.72921(6)
C3 C 0.6976(3) -0.0178(3) 0.3504(2)
H1 H 0.649407 -0.077136 0.376177
H2 H 0.773586 0.033560 0.403090
C4 C 0.7556(3) -0.0696(2) 0.2655(2)
H3 H 0.815879 -0.110849 0.286949
H4 H 0.681024 -0.122840 0.212719
C5 C 0.8983(3) -0.0323(2) 0.1569(2)
H5 H 0.831191 -0.079577 0.097084
H6 H 0.947729 -0.079204 0.181260
C6 C 0.9966(3) 0.0597(2) 0.1336(2)
H7 H 1.062765 0.107578 0.193743
H8 H 1.047414 0.027939 0.085586
C7 C 1.0169(3) 0.2130(2) 0.0743(2)
H9 H 1.068343 0.183423 0.025678
H10 H 1.082642 0.260360 0.134830
C8 C 0.9384(3) 0.2807(2) 0.0350(2)
H11 H 1.001394 0.336444 0.013060
H12 H 0.869274 0.231088 -0.022976
C9 C 0.5763(3) 0.1091(3) 0.4174(2)
H13 H 0.561250 0.062588 0.462130
H14 H 0.491472 0.128341 0.401555
C10 C 0.6886(3) 0.2145(3) 0.4696(2)
H15 H 0.666618 0.252069 0.531873
H16 H 0.774818 0.196971 0.484807
C11 C 0.7923(3) 0.3926(2) 0.4601(2)
H17 H 0.880703 0.386070 0.488404
H18 H 0.753182 0.428414 0.514331
C12 C 0.8129(3) 0.4619(2) 0.3911(2)
H19 H 0.723980 0.464687 0.359919
H20 H 0.868257 0.538741 0.427753
C13 C 0.9202(3) 0.4911(2) 0.2628(2)
H21 H 0.992530 0.557781 0.304556
H22 H 0.841677 0.514897 0.240097
C14 C 0.9716(3) 0.4350(2) 0.1759(2)
H23 H 1.005504 0.490020 0.141305
H24 H 1.049493 0.411316 0.200000
C15 C 0.4748(3) -0.0332(3) 0.2655(2)
H25 H 0.421317 -0.069548 0.306994
H26 H 0.494919 -0.091789 0.215726
C16 C 0.3897(3) 0.0225(3) 0.2141(2)
H27 H 0.301095 -0.031776 0.179311
H28 H 0.372373 0.083755 0.262863
C17 C 0.3801(3) 0.1184(3) 0.0979(2)
H29 H 0.368192 0.182875 0.146043
H30 H 0.289114 0.065984 0.066305
C18 C 0.4502(3) 0.1563(3) 0.0225(2)
H31 H 0.466790 0.092581 -0.023605
H32 H 0.392312 0.187781 -0.015172
C19 C 0.6407(3) 0.2832(3) 0.0005(2)
H33 H 0.578481 0.312311 -0.036092
H34 H 0.663844 0.224288 -0.046898
C20 C 0.7678(3) 0.3752(3) 0.0539(2)
H35 H 0.808385 0.409829 0.006292
H36 H 0.743147 0.432784 0.101726
N2 N 0.6035(2) 0.0436(2) 0.32674(17)
N3 N 0.8703(2) 0.33828(18) 0.10582(16)
O1 O 0.8303(2) 0.01421(16) 0.22950(15)
O2 O 0.92559(19) 0.12389(16) 0.09466(14)
O3 O 0.7030(2) 0.28530(17) 0.40846(15)
O4 O 0.8800(2) 0.41524(15) 0.31814(14)
O5 O 0.4590(2) 0.06518(17) 0.14633(15)
O6 O 0.5755(2) 0.23816(18) 0.06967(14)
K1 K 0.73527(6) 0.19187(5) 0.21508(4)
C21 C 1.1624(3) 0.2114(2) 0.4596(2)
Br5 Br 1.06538(3) 0.20956(2) 0.56633(2)
Br6 Br 1.08084(3) 0.28383(2) 0.37614(2)
Br7 Br 1.14785(3) 0.06015(2) 0.38782(2)
Br8 Br 1.35141(3) 0.29649(3) 0.50952(3)
loop_
_geom_bond_atom_site_label_1
_geom_bond_atom_site_label_2
_geom_bond_site_symmetry_1
_geom_bond_site_symmetry_2
C1 Br1 1_555 1_555
Br2 C1 1_555 1_555
Br3 C1 1_555 1_555
Br4 C1 1_555 1_555
C2 N1 1_555 1_555
S1 C2 1_555 1_555
C3 H1 1_555 1_555
H2 C3 1_555 1_555
C4 C3 1_555 1_555
H3 C4 1_555 1_555
H4 C4 1_555 1_555
C5 H5 1_555 1_555
H6 C5 1_555 1_555
C6 C5 1_555 1_555
H7 C6 1_555 1_555
H8 C6 1_555 1_555
C7 H9 1_555 1_555
H10 C7 1_555 1_555
C8 C7 1_555 1_555
H11 C8 1_555 1_555
H12 C8 1_555 1_555
C9 H13 1_555 1_555
H14 C9 1_555 1_555
C10 C9 1_555 1_555
H15 C10 1_555 1_555
H16 C10 1_555 1_555
C11 H17 1_555 1_555
H18 C11 1_555 1_555
C12 C11 1_555 1_555
H19 C12 1_555 1_555
H20 C12 1_555 1_555
C13 H21 1_555 1_555
H22 C13 1_555 1_555
C14 C13 1_555 1_555
H23 C14 1_555 1_555
H24 C14 1_555 1_555
C15 H25 1_555 1_555
H26 C15 1_555 1_555
C16 C15 1_555 1_555
H27 C16 1_555 1_555
H28 C16 1_555 1_555
C17 H29 1_555 1_555
H30 C17 1_555 1_555
C18 C17 1_555 1_555
H31 C18 1_555 1_555
H32 C18 1_555 1_555
C19 H33 1_555 1_555
H34 C19 1_555 1_555
C20 C19 1_555 1_555
H35 C20 1_555 1_555
H36 C20 1_555 1_555
N2 C3 1_555 1_555
N3 C8 1_555 1_555
O1 C4 1_555 1_555
O2 C6 1_555 1_555
O3 C10 1_555 1_555
O4 C12 1_555 1_555
O5 C16 1_555 1_555
O6 C18 1_555 1_555
K1 N2 1_555 1_555
C21 Br5 1_555 1_555
Br6 K1 1_555 1_555
Br7 C21 1_555 1_555
Br8 C21 1_555 1_555
C5 O1 1_555 1_555
C7 O2 1_555 1_555
C9 N2 1_555 1_555
C11 O3 1_555 1_555
C13 O4 1_555 1_555
C14 N3 1_555 1_555
C15 N2 1_555 1_555
C17 O5 1_555 1_555
C19 O6 1_555 1_555
C20 N3 1_555 1_555
N3 K1 1_555 1_555
O1 K1 1_555 1_555
O2 K1 1_555 1_555
O3 K1 1_555 1_555
O4 K1 1_555 1_555
O5 K1 1_555 1_555
O6 K1 1_555 1_555
C21 Br6 1_555 1_555

#END
