
#######################################################################
#
#                 Cambridge Crystallographic Data Centre
#                                CCDC 
#
#######################################################################
#
# If this CIF has been generated from an entry in the Cambridge 
# Structural Database, then it will include bibliographic, chemical, 
# crystal, experimental, refinement or atomic coordinate data resulting 
# from the CCDC's data processing and validation procedures.
#
#######################################################################

data_BEVGUH
_chemical_formula_moiety         'C12 H28 N1 1+,C1 Br3 F1,C1 N1 S1 1-'
_chemical_name_systematic        
'tetra-n-propylammonium thiocyanate tribromo(fluoro)methane'
_symmetry_cell_setting           monoclinic
_symmetry_space_group_name_H-M   'P 21/n'
_symmetry_Int_Tables_number      14
_space_group_name_Hall           '-P 2yn'
loop_
_symmetry_equiv_pos_site_id
_symmetry_equiv_pos_as_xyz
1 x,y,z
2 1/2-x,1/2+y,1/2-z
3 -x,-y,-z
4 1/2+x,1/2-y,1/2+z
_cell_length_a                   9.1839(5)
_cell_length_b                   15.2227(8)
_cell_length_c                   14.7732(8)
_cell_angle_alpha                90
_cell_angle_beta                 93.029(2)
_cell_angle_gamma                90
_cell_volume                     2062.46
_exptl_crystal_colour            colorless
_exptl_crystal_description       block
_cell_formula_units_Z            4
loop_
_atom_site_label
_atom_site_type_symbol
_atom_site_fract_x
_atom_site_fract_y
_atom_site_fract_z
Br1 Br 0.65758(2) 0.15870(2) 0.83142(2)
F1 F 0.60645(11) 0.04944(8) 0.96833(8)
C1 C 0.72464(16) 0.07462(10) 0.92314(11)
Br2 Br 0.86154(2) 0.12725(2) 1.01090(2)
Br3 Br 0.80823(2) -0.02867(2) 0.87077(2)
N1 N 1.05719(14) 0.19087(9) 0.64441(9)
C2 C 1.08091(17) 0.12910(11) 0.72450(11)
H1 H 1.063348 0.068261 0.702905
H2 H 1.006905 0.142420 0.768884
C3 C 1.23068(19) 0.13264(13) 0.77333(13)
H3 H 1.253465 0.193660 0.792456
H4 H 1.305883 0.113017 0.732189
C4 C 1.2307(2) 0.07272(14) 0.85612(13)
H5 H 1.207307 0.012574 0.836715
H6 H 1.157627 0.093351 0.897175
H7 H 1.327333 0.073761 0.887645
C5 C 1.07960(17) 0.28617(11) 0.67269(11)
H8 H 1.183249 0.293941 0.693015
H9 H 1.061131 0.323563 0.618461
C6 C 0.98617(19) 0.31993(12) 0.74700(12)
H10 H 1.001009 0.283167 0.801989
H11 H 0.881775 0.317456 0.726710
C7 C 1.0310(2) 0.41475(13) 0.76800(14)
H12 H 1.018504 0.450238 0.712783
H13 H 1.133407 0.416254 0.790181
H14 H 0.969728 0.438565 0.814492
C8 C 1.16675(18) 0.17296(12) 0.57290(12)
H15 H 1.150406 0.216448 0.523577
H16 H 1.265765 0.183351 0.600594
C9 C 1.1638(2) 0.08235(13) 0.53111(15)
H17 H 1.067844 0.071520 0.499354
H18 H 1.179463 0.037294 0.578957
C10 C 1.2846(3) 0.07685(16) 0.46401(19)
H19 H 1.285232 0.018027 0.437074
H20 H 1.379036 0.088304 0.495831
H21 H 1.267007 0.120693 0.416098
C11 C 0.90189(17) 0.17509(12) 0.60673(12)
H22 H 0.893683 0.112921 0.587460
H23 H 0.835261 0.183571 0.656543
C12 C 0.7009(2) 0.19891(16) 0.49134(15)
H24 H 0.660897 0.239463 0.444893
H25 H 0.634474 0.195323 0.540963
H26 H 0.712192 0.140524 0.464659
C13 C 0.8490(2) 0.23223(14) 0.52787(13)
H27 H 0.919661 0.230056 0.479557
H28 H 0.840600 0.293940 0.548089
C14 C 1.4727(2) 0.35573(12) 0.77336(13)
N2 N 1.4281(2) 0.39815(14) 0.83046(15)
S1 S 1.53527(5) 0.29483(3) 0.69115(3)
loop_
_geom_bond_atom_site_label_1
_geom_bond_atom_site_label_2
_geom_bond_site_symmetry_1
_geom_bond_site_symmetry_2
Br1 C1 1_555 1_555
F1 C1 1_555 1_555
C1 Br2 1_555 1_555
Br3 C1 1_555 1_555
N1 C2 1_555 1_555
C2 H1 1_555 1_555
H2 C2 1_555 1_555
C3 C2 1_555 1_555
H3 C3 1_555 1_555
H4 C3 1_555 1_555
C4 C3 1_555 1_555
H5 C4 1_555 1_555
H6 C4 1_555 1_555
H7 C4 1_555 1_555
C5 N1 1_555 1_555
H8 C5 1_555 1_555
H9 C5 1_555 1_555
C6 C5 1_555 1_555
H10 C6 1_555 1_555
H11 C6 1_555 1_555
C7 C6 1_555 1_555
H12 C7 1_555 1_555
H13 C7 1_555 1_555
H14 C7 1_555 1_555
C8 N1 1_555 1_555
H15 C8 1_555 1_555
H16 C8 1_555 1_555
C9 C8 1_555 1_555
H17 C9 1_555 1_555
H18 C9 1_555 1_555
C10 C9 1_555 1_555
H19 C10 1_555 1_555
H20 C10 1_555 1_555
H21 C10 1_555 1_555
C11 N1 1_555 1_555
H22 C11 1_555 1_555
H23 C11 1_555 1_555
C12 H24 1_555 1_555
H25 C12 1_555 1_555
H26 C12 1_555 1_555
C13 C11 1_555 1_555
H27 C13 1_555 1_555
H28 C13 1_555 1_555
C14 N2 1_555 1_555
S1 C14 1_555 1_555
C12 C13 1_555 1_555

#END
