
#######################################################################
#
#                 Cambridge Crystallographic Data Centre
#                                CCDC 
#
#######################################################################
#
# If this CIF has been generated from an entry in the Cambridge 
# Structural Database, then it will include bibliographic, chemical, 
# crystal, experimental, refinement or atomic coordinate data resulting 
# from the CCDC's data processing and validation procedures.
#
#######################################################################

data_BEVGUG
_chemical_formula_moiety         'C25 H18 N6'
_chemical_name_systematic        
1,1'-Methylenebis(3-(pyridin-2-yl)imidazo[1,5-a]pyridine)
_symmetry_cell_setting           monoclinic
_symmetry_space_group_name_H-M   'P 2/c'
_symmetry_Int_Tables_number      13
_space_group_name_Hall           '-P 2yc'
loop_
_symmetry_equiv_pos_site_id
_symmetry_equiv_pos_as_xyz
1 x,y,z
2 -x,y,1/2-z
3 -x,-y,-z
4 x,-y,1/2+z
_cell_length_a                   12.8398(18)
_cell_length_b                   5.1086(7)
_cell_length_c                   15.192(2)
_cell_angle_alpha                90
_cell_angle_beta                 105.007(3)
_cell_angle_gamma                90
_cell_volume                     962.509
_exptl_crystal_colour            yellow
_exptl_crystal_description       block
_cell_formula_units_Z            2
loop_
_atom_site_label
_atom_site_type_symbol
_atom_site_fract_x
_atom_site_fract_y
_atom_site_fract_z
N1 N 0.26306(8) 0.44953(18) 0.37281(6)
C1 C 0.21756(9) 0.0878(2) 0.46986(8)
N2 N 0.08935(8) 0.3623(2) 0.35895(7)
N3 N 0.32139(8) 0.0495(2) 0.51305(7)
C2 C 0.37455(10) 0.4582(3) 0.39619(9)
H1 H 0.4145 0.3396 0.4380
C3 C 0.19056(9) 0.2939(2) 0.40134(8)
C4 C 0.20204(10) 0.6246(2) 0.30872(7)
C5 C 0.25607(11) 0.8139(3) 0.26968(9)
H2 H 0.2170 0.9325 0.2274
C6 C 0.09540(10) 0.5637(2) 0.30249(8)
C7 C 0.16107(13) -0.2571(3) 0.55328(10)
H3 H 0.1073 -0.3586 0.5671
C8 C 0.34373(12) -0.1428(3) 0.57497(9)
H4 H 0.4156 -0.1724 0.6049
C9 C 0.13516(11) -0.0621(3) 0.48842(9)
H5 H 0.0637 -0.0312 0.4575
C10 C 0.36515(12) 0.8227(3) 0.29389(9)
H6 H 0.4011 0.9484 0.2687
C11 C 0.26727(13) -0.2988(3) 0.59699(10)
H7 H 0.2871 -0.4299 0.6406
C12 C 0.0000 0.7166(4) 0.2500
H8 H -0.0237 0.8292 0.2925
C13 C 0.42440(11) 0.6402(3) 0.35768(10)
H9 H 0.4993 0.6462 0.3733
N1A N -0.26306(8) 0.44953(18) 0.12719(6)
C1A C -0.21756(9) 0.0878(2) 0.03014(8)
N2A N -0.08935(8) 0.3623(2) 0.14105(7)
N3A N -0.32139(8) 0.0495(2) -0.01305(7)
C2A C -0.37455(10) 0.4582(3) 0.10381(9)
H1A H -0.4145 0.3396 0.0620
C3A C -0.19056(9) 0.2939(2) 0.09866(8)
C4A C -0.20204(10) 0.6246(2) 0.19128(7)
C5A C -0.25607(11) 0.8139(3) 0.23032(9)
H2A H -0.2170 0.9325 0.2726
C6A C -0.09540(10) 0.5637(2) 0.19751(8)
C7A C -0.16107(13) -0.2571(3) -0.05328(10)
H3A H -0.1073 -0.3586 -0.0671
C8A C -0.34373(12) -0.1428(3) -0.07497(9)
H4A H -0.4156 -0.1724 -0.1049
C9A C -0.13516(11) -0.0621(3) 0.01158(9)
H5A H -0.0637 -0.0312 0.0425
C10A C -0.36515(12) 0.8227(3) 0.20611(9)
H6A H -0.4011 0.9484 0.2313
C11A C -0.26727(13) -0.2988(3) -0.09699(10)
H7A H -0.2871 -0.4299 -0.1406
H8A H 0.0237 0.8292 0.2075
C13A C -0.42440(11) 0.6402(3) 0.14232(10)
H9A H -0.4993 0.6462 0.1267
H10? H -0.0237 0.8292 0.2925
loop_
_geom_bond_atom_site_label_1
_geom_bond_atom_site_label_2
_geom_bond_site_symmetry_1
_geom_bond_site_symmetry_2
N1 C2 1_555 1_555
C1 N3 1_555 1_555
N2 C3 1_555 1_555
N3 C8 1_555 1_555
C2 H1 1_555 1_555
C3 N1 1_555 1_555
C4 N1 1_555 1_555
C5 C4 1_555 1_555
H2 C5 1_555 1_555
C6 N2 1_555 1_555
C7 H3 1_555 1_555
C8 H4 1_555 1_555
C9 C1 1_555 1_555
H5 C9 1_555 1_555
C10 C5 1_555 1_555
H6 C10 1_555 1_555
C11 C7 1_555 1_555
H7 C11 1_555 1_555
C12 C6 1_555 1_555
H8 C12 1_555 1_555
C13 C2 1_555 1_555
H9 C13 1_555 1_555
N1A C2A 1_555 1_555
C1A N3A 1_555 1_555
N2A C3A 1_555 1_555
N3A C8A 1_555 1_555
C2A H1A 1_555 1_555
C3A N1A 1_555 1_555
C4A N1A 1_555 1_555
C5A C4A 1_555 1_555
H2A C5A 1_555 1_555
C6A C12 1_555 1_555
C7A H3A 1_555 1_555
C8A H4A 1_555 1_555
C9A C1A 1_555 1_555
H5A C9A 1_555 1_555
C10A C5A 1_555 1_555
H6A C10A 1_555 1_555
C11A C7A 1_555 1_555
H7A C11A 1_555 1_555
H8A C12 1_555 1_555
C13A C2A 1_555 1_555
H9A C13A 1_555 1_555
C1 C3 1_555 1_555
C4 C6 1_555 1_555
C7 C9 1_555 1_555
C8 C11 1_555 1_555
C10 C13 1_555 1_555
C1A C3A 1_555 1_555
N2A C6A 1_555 1_555
C4A C6A 1_555 1_555
C7A C9A 1_555 1_555
C8A C11A 1_555 1_555
C10A C13A 1_555 1_555

#END
