
#######################################################################
#
#                 Cambridge Crystallographic Data Centre
#                                CCDC 
#
#######################################################################
#
# If this CIF has been generated from an entry in the Cambridge 
# Structural Database, then it will include bibliographic, chemical, 
# crystal, experimental, refinement or atomic coordinate data resulting 
# from the CCDC's data processing and validation procedures.
#
#######################################################################

data_BEVGAN
_chemical_formula_moiety         
'C18 H36 K1 N2 O6 1+,1.5(C8 N6),Cl1 1-,0.5(C1 H2 Cl2)'
_chemical_name_systematic        
'(4,7,13,16,21,24-hexaoxa-1,10-diazabicyclo[8.8.8]hexacosane)-potassium chloride sesquikis(pyrazine-2,3,5,6-tetracarbonitrile) dichloromethane solvate'
_symmetry_cell_setting           rhombohedral
_symmetry_space_group_name_H-M   'R -3'
_symmetry_Int_Tables_number      148
_space_group_name_Hall           '-R 3'
loop_
_symmetry_equiv_pos_site_id
_symmetry_equiv_pos_as_xyz
1 x,y,z
2 -y,x-y,z
3 -x+y,-x,z
4 2/3+x,1/3+y,1/3+z
5 2/3-y,1/3+x-y,1/3+z
6 2/3-x+y,1/3-x,1/3+z
7 1/3+x,2/3+y,2/3+z
8 1/3-y,2/3+x-y,2/3+z
9 1/3-x+y,2/3-x,2/3+z
10 -x,-y,-z
11 y,-x+y,-z
12 x-y,x,-z
13 1/3-x,2/3-y,2/3-z
14 1/3+y,2/3-x+y,2/3-z
15 1/3+x-y,2/3+x,2/3-z
16 2/3-x,1/3-y,1/3-z
17 2/3+y,1/3-x+y,1/3-z
18 2/3+x-y,1/3+x,1/3-z
_cell_length_a                   12.4970(8)
_cell_length_b                   12.4970(8)
_cell_length_c                   40.188(3)
_cell_angle_alpha                90
_cell_angle_beta                 90
_cell_angle_gamma                120
_cell_volume                     5435.49
_exptl_crystal_colour            yellow
_exptl_crystal_description       prism
_cell_formula_units_Z            6
loop_
_atom_site_label
_atom_site_type_symbol
_atom_site_fract_x
_atom_site_fract_y
_atom_site_fract_z
Cl1 Cl 0.666667 0.333333 0.16429(2)
N3 N 0.88089(10) 0.66827(10) 0.13472(3)
N4 N 0.79276(16) 0.85060(14) 0.09321(4)
N5 N 1.00992(12) 0.48777(12) 0.14795(3)
C7 C 0.82268(12) 0.73068(11) 0.14168(3)
C8 C 0.80878(14) 0.80009(13) 0.11473(3)
C9 C 0.89155(11) 0.60486(11) 0.15995(3)
C10 C 0.95642(12) 0.53832(12) 0.15324(3)
N3O N 0.78578(10) 0.66506(10) 0.19861(3)
N4O N 0.87391(16) 0.48273(14) 0.24012(4)
N5O N 0.65675(12) 0.84556(12) 0.18538(3)
C7O C 0.84399(12) 0.60265(11) 0.19165(3)
C8O C 0.85789(14) 0.53324(13) 0.21860(3)
C9O C 0.77512(11) 0.72847(11) 0.17338(3)
C10O C 0.71025(12) 0.79501(12) 0.18009(3)
K1 K 0.333333 0.666667 0.00889(2)
O1 O 0.29025(9) 0.45064(8) 0.04299(2)
O2 O 0.33781(9) 0.47262(8) -0.02603(2)
N1 N 0.333333 0.666667 0.08333(4)
N2 N 0.333333 0.666667 -0.06560(4)
C1 C 0.28244(13) 0.53892(12) 0.09544(3)
H1 H 0.191311 0.495236 0.093397
H2 H 0.302794 0.541141 0.119333
C2 C 0.33090(13) 0.46715(12) 0.07682(3)
H3 H 0.422332 0.512352 0.077581
H4 H 0.300603 0.385563 0.087469
C3 C 0.32808(14) 0.37551(13) 0.02587(3)
H5 H 0.294185 0.294684 0.037223
H6 H 0.419353 0.415928 0.026120
C4 C 0.28289(13) 0.35616(12) -0.00942(3)
H7 H 0.305400 0.300199 -0.020967
H8 H 0.191781 0.317599 -0.009754
C5 C 0.31054(12) 0.45672(12) -0.06078(3)
H9 H 0.220056 0.415715 -0.064147
H10 H 0.340150 0.403434 -0.070524
C6 C 0.37254(12) 0.58054(11) -0.07790(3)
H11 H 0.463029 0.619074 -0.074964
H12 H 0.354925 0.567527 -0.102040
O1A O 0.54936(8) 0.83961(12) 0.04299(2)
O2A O 0.52738(8) 0.86519(12) -0.02603(2)
C1A C 0.46108(12) 0.74352(18) 0.09544(3)
H1A H 0.504764 0.696075 0.093397
H2A H 0.458859 0.761653 0.119333
C2A C 0.53285(12) 0.86375(18) 0.07682(3)
H3A H 0.487648 0.909980 0.077581
H4A H 0.614437 0.915040 0.087469
C3A C 0.62449(13) 0.95257(19) 0.02587(3)
H5A H 0.705316 0.999501 0.037223
H6A H 0.584072 1.003425 0.026120
C4A C 0.64384(12) 0.92673(18) -0.00942(3)
H7A H 0.699801 1.005201 -0.020967
H8A H 0.682401 0.874182 -0.009754
C5A C 0.54328(12) 0.85382(17) -0.06078(3)
H9A H 0.584285 0.804341 -0.064147
H10A H 0.596566 0.936716 -0.070524
C6A C 0.41946(11) 0.79200(16) -0.07790(3)
H11A H 0.380926 0.843955 -0.074964
H12A H 0.432473 0.787398 -0.102040
O1B O 0.16039(12) 0.70975(9) 0.04299(2)
O2B O 0.13481(12) 0.66219(9) -0.02603(2)
C1B C 0.25648(18) 0.71756(13) 0.09544(3)
H1B H 0.303925 0.808689 0.093397
H2B H 0.238347 0.697206 0.119333
C2B C 0.13625(18) 0.66910(13) 0.07682(3)
H3B H 0.090020 0.577668 0.077581
H4B H 0.084960 0.699397 0.087469
C3B C 0.04743(19) 0.67192(14) 0.02587(3)
H5B H 0.000499 0.705815 0.037223
H6B H -0.003425 0.580647 0.026120
C4B C 0.07327(18) 0.71711(13) -0.00942(3)
H7B H -0.005201 0.694600 -0.020967
H8B H 0.125818 0.808219 -0.009754
C5B C 0.14618(17) 0.68946(12) -0.06078(3)
H9B H 0.195659 0.779944 -0.064147
H10B H 0.063284 0.659850 -0.070524
C6B C 0.20800(16) 0.62746(12) -0.07790(3)
H11B H 0.156045 0.536971 -0.074964
H12B H 0.212602 0.645075 -0.102040
C11? C -0.0511(14) -0.030(4) -0.0218(3)
H13? H -0.098610 0.009057 -0.029850
H14? H -0.094324 -0.116408 -0.029670
Cl2? Cl -0.0544(5) -0.0309(13) 0.02070(9)
Cl3? Cl 0.0955(2) 0.0470(3) -0.04023(8)
loop_
_geom_bond_atom_site_label_1
_geom_bond_atom_site_label_2
_geom_bond_site_symmetry_1
_geom_bond_site_symmetry_2
K1 O1 1_555 1_555
O1 C2 1_555 1_555
O2 K1 1_555 1_555
N1 K1 1_555 1_555
N2 K1 1_555 1_555
C1 N1 1_555 1_555
H1 C1 1_555 1_555
H2 C1 1_555 1_555
C2 C1 1_555 1_555
H3 C2 1_555 1_555
H4 C2 1_555 1_555
C3 O1 1_555 1_555
H5 C3 1_555 1_555
H6 C3 1_555 1_555
C4 O2 1_555 1_555
H7 C4 1_555 1_555
H8 C4 1_555 1_555
C5 O2 1_555 1_555
H9 C5 1_555 1_555
H10 C5 1_555 1_555
C6 N2 1_555 1_555
H11 C6 1_555 1_555
H12 C6 1_555 1_555
N3 C7 1_555 1_555
N4 C8 1_555 1_555
N5 C10 1_555 1_555
C7 C8 1_555 1_555
C9 N3 1_555 1_555
C10 C9 1_555 1_555
O1A K1 1_555 1_555
O2A K1 1_555 1_555
C1A N1 1_555 1_555
H1A C1A 1_555 1_555
H2A C1A 1_555 1_555
C2A O1A 1_555 1_555
H3A C2A 1_555 1_555
H4A C2A 1_555 1_555
C3A O1A 1_555 1_555
H5A C3A 1_555 1_555
H6A C3A 1_555 1_555
C4A O2A 1_555 1_555
H7A C4A 1_555 1_555
H8A C4A 1_555 1_555
C5A O2A 1_555 1_555
H9A C5A 1_555 1_555
H10A C5A 1_555 1_555
C6A N2 1_555 1_555
H11A C6A 1_555 1_555
H12A C6A 1_555 1_555
O1B K1 1_555 1_555
O2B K1 1_555 1_555
C1B N1 1_555 1_555
H1B C1B 1_555 1_555
H2B C1B 1_555 1_555
C2B O1B 1_555 1_555
H3B C2B 1_555 1_555
H4B C2B 1_555 1_555
C3B O1B 1_555 1_555
H5B C3B 1_555 1_555
H6B C3B 1_555 1_555
C4B O2B 1_555 1_555
H7B C4B 1_555 1_555
H8B C4B 1_555 1_555
C5B O2B 1_555 1_555
H9B C5B 1_555 1_555
H10B C5B 1_555 1_555
C6B N2 1_555 1_555
H11B C6B 1_555 1_555
H12B C6B 1_555 1_555
N3O C7O 1_555 1_555
N4O C8O 1_555 1_555
N5O C10O 1_555 1_555
C7O C9 1_555 1_555
C8O C7O 1_555 1_555
C9O C7 1_555 1_555
C10O C9O 1_555 1_555
C3 C4 1_555 1_555
C5 C6 1_555 1_555
C1A C2A 1_555 1_555
C3A C4A 1_555 1_555
C5A C6A 1_555 1_555
C1B C2B 1_555 1_555
C3B C4B 1_555 1_555
C5B C6B 1_555 1_555
N3O C9O 1_555 1_555

#END
