
#######################################################################
#
#                 Cambridge Crystallographic Data Centre
#                                CCDC 
#
#######################################################################
#
# If this CIF has been generated from an entry in the Cambridge 
# Structural Database, then it will include bibliographic, chemical, 
# crystal, experimental, refinement or atomic coordinate data resulting 
# from the CCDC's data processing and validation procedures.
#
#######################################################################

data_BEVHUH
_chemical_formula_moiety         'C23 H14 N2 O2'
_chemical_name_systematic        6-(2-Nitrophenyl)benzo[k]phenanthridine
_symmetry_cell_setting           orthorhombic
_symmetry_space_group_name_H-M   'P b c a'
_symmetry_Int_Tables_number      61
_space_group_name_Hall           '-P 2ac 2ab'
loop_
_symmetry_equiv_pos_site_id
_symmetry_equiv_pos_as_xyz
1 x,y,z
2 1/2-x,-y,1/2+z
3 -x,1/2+y,1/2-z
4 1/2+x,1/2-y,-z
5 -x,-y,-z
6 1/2+x,y,1/2-z
7 x,1/2-y,1/2+z
8 1/2-x,1/2+y,z
_cell_length_a                   13.323(3)
_cell_length_b                   13.347(3)
_cell_length_c                   18.983(4)
_cell_angle_alpha                90
_cell_angle_beta                 90
_cell_angle_gamma                90
_cell_volume                     3375.6
_exptl_crystal_colour            yellow
_exptl_crystal_description       block
_cell_formula_units_Z            8
loop_
_atom_site_label
_atom_site_type_symbol
_atom_site_fract_x
_atom_site_fract_y
_atom_site_fract_z
O1 O 0.1276(2) 0.28703(19) 0.40284(14)
O2 O 0.1064(2) 0.39567(19) 0.31968(16)
N1 N 0.13455(19) 0.07871(19) 0.33589(13)
N2 N 0.1517(2) 0.3250(2) 0.34669(16)
C1 C 0.0830(2) 0.0060(2) 0.37253(15)
C2 C -0.0097(3) -0.0246(3) 0.34389(18)
H1 H -0.0312 0.0031 0.3003
C3 C -0.0693(3) -0.0927(3) 0.37708(19)
H2 H -0.1307 -0.1138 0.3564
C4 C -0.0389(3) -0.1310(3) 0.44183(18)
H3 H -0.0814 -0.1763 0.4663
C5 C 0.0505(3) -0.1046(2) 0.47052(17)
H4 H 0.0684 -0.1313 0.5152
C6 C 0.1185(2) -0.0384(2) 0.43605(15)
C7 C 0.2157(2) -0.0065(2) 0.46224(14)
C8 C 0.2678(2) -0.0498(2) 0.52228(15)
C9 C 0.2425(3) -0.1448(3) 0.55210(17)
H5 H 0.1919 -0.1846 0.5307
C10 C 0.2905(3) -0.1794(3) 0.6113(2)
H6 H 0.2707 -0.2415 0.6314
C11 C 0.3681(3) -0.1244(3) 0.64240(19)
H7 H 0.3978 -0.1469 0.6851
C12 C 0.4009(3) -0.0386(3) 0.61115(18)
H8 H 0.4569 -0.0041 0.6305
C13 C 0.3530(2) -0.0001(2) 0.55034(15)
C14 C 0.3910(3) 0.0862(2) 0.51611(18)
H9 H 0.4467 0.1206 0.5360
C15 C 0.3497(2) 0.1207(2) 0.45550(16)
H10 H 0.3795 0.1757 0.4316
C16 C 0.2618(2) 0.0748(2) 0.42767(14)
C17 C 0.2176(2) 0.1124(2) 0.36347(15)
C18 C 0.2726(2) 0.1889(2) 0.32057(16)
C19 C 0.3590(3) 0.1592(3) 0.28466(18)
H11 H 0.3835 0.0930 0.2910
C20 C 0.4102(3) 0.2234(3) 0.24007(19)
H12 H 0.4687 0.2012 0.2161
C21 C 0.3754(3) 0.3198(3) 0.2307(2)
H13 H 0.4107 0.3643 0.2005
C22 C 0.2907(3) 0.3518(2) 0.26440(19)
H14 H 0.2665 0.4180 0.2574
C23 C 0.2404(2) 0.2867(2) 0.30897(16)
loop_
_geom_bond_atom_site_label_1
_geom_bond_atom_site_label_2
_geom_bond_site_symmetry_1
_geom_bond_site_symmetry_2
O1 N2 1_555 1_555
O2 N2 1_555 1_555
N1 C1 1_555 1_555
N2 C23 1_555 1_555
C1 C2 1_555 1_555
C2 H1 1_555 1_555
C3 C2 1_555 1_555
H2 C3 1_555 1_555
C4 C3 1_555 1_555
H3 C4 1_555 1_555
C5 C4 1_555 1_555
H4 C5 1_555 1_555
C6 C1 1_555 1_555
C7 C6 1_555 1_555
C8 C7 1_555 1_555
C9 C8 1_555 1_555
H5 C9 1_555 1_555
C10 C9 1_555 1_555
H6 C10 1_555 1_555
C11 C10 1_555 1_555
H7 C11 1_555 1_555
C12 C11 1_555 1_555
H8 C12 1_555 1_555
C13 C8 1_555 1_555
C14 C13 1_555 1_555
H9 C14 1_555 1_555
C15 C14 1_555 1_555
H10 C15 1_555 1_555
C16 C7 1_555 1_555
C17 N1 1_555 1_555
C18 C17 1_555 1_555
C19 C18 1_555 1_555
H11 C19 1_555 1_555
C20 C19 1_555 1_555
H12 C20 1_555 1_555
C21 C20 1_555 1_555
H13 C21 1_555 1_555
C22 C21 1_555 1_555
H14 C22 1_555 1_555
C23 C18 1_555 1_555
C5 C6 1_555 1_555
C12 C13 1_555 1_555
C15 C16 1_555 1_555
C16 C17 1_555 1_555
C22 C23 1_555 1_555

#END
