
#######################################################################
#
#                 Cambridge Crystallographic Data Centre
#                                CCDC 
#
#######################################################################
#
# If this CIF has been generated from an entry in the Cambridge 
# Structural Database, then it will include bibliographic, chemical, 
# crystal, experimental, refinement or atomic coordinate data resulting 
# from the CCDC's data processing and validation procedures.
#
#######################################################################

data_BEVJUK
_chemical_formula_moiety         'C6 H6,C2 H2'
_chemical_name_systematic        'benzene acetylene'
_symmetry_cell_setting           rhombohedral
_symmetry_space_group_name_H-M   'R -3 m'
_symmetry_Int_Tables_number      166
_space_group_name_Hall           '-R 3 2"'
loop_
_symmetry_equiv_pos_site_id
_symmetry_equiv_pos_as_xyz
1 x,y,z
2 -y,x-y,z
3 -x+y,-x,z
4 y,x,-z
5 x-y,-y,-z
6 -x,-x+y,-z
7 2/3+x,1/3+y,1/3+z
8 2/3-y,1/3+x-y,1/3+z
9 2/3-x+y,1/3-x,1/3+z
10 2/3+y,1/3+x,1/3-z
11 2/3+x-y,1/3-y,1/3-z
12 2/3-x,1/3-x+y,1/3-z
13 1/3+x,2/3+y,2/3+z
14 1/3-y,2/3+x-y,2/3+z
15 1/3-x+y,2/3-x,2/3+z
16 1/3+y,2/3+x,2/3-z
17 1/3+x-y,2/3-y,2/3-z
18 1/3-x,2/3-x+y,2/3-z
19 -x,-y,-z
20 y,-x+y,-z
21 x-y,x,-z
22 -y,-x,z
23 -x+y,y,z
24 x,x-y,z
25 1/3-x,2/3-y,2/3-z
26 1/3+y,2/3-x+y,2/3-z
27 1/3+x-y,2/3+x,2/3-z
28 1/3-y,2/3-x,2/3+z
29 1/3-x+y,2/3+y,2/3+z
30 1/3+x,2/3+x-y,2/3+z
31 2/3-x,1/3-y,1/3-z
32 2/3+y,1/3-x+y,1/3-z
33 2/3+x-y,1/3+x,1/3-z
34 2/3-y,1/3-x,1/3+z
35 2/3-x+y,1/3+y,1/3+z
36 2/3+x,1/3+x-y,1/3+z
_cell_length_a                   8.1945(12)
_cell_length_b                   8.1945(12)
_cell_length_c                   8.0541(16)
_cell_angle_alpha                90
_cell_angle_beta                 90
_cell_angle_gamma                120
_cell_volume                     468.374
_exptl_crystal_colour            colorless
_exptl_crystal_description       plate
_cell_formula_units_Z            3
loop_
_atom_site_label
_atom_site_type_symbol
_atom_site_fract_x
_atom_site_fract_y
_atom_site_fract_z
C1 C 0.0000 0.0000 0.4285(8)
H1 H 0.0000 0.0000 0.307(12)
C1C C 0.0000 0.0000 0.5715(8)
H1C H 0.0000 0.0000 0.693(12)
C2 C 0.0000 0.8317(5) 0.0000
H2 H 0.0000 0.704(4) 0.0000
C2S C -0.1683(5) 0.8317(5) 0.0000
H2S H -0.296(4) 0.7040(40) 0.0000
C2T C 0.1683(5) 1.0000 0.0000
H2T H 0.2960(40) 1.0000 0.0000
C2A C 0.1683(5) 1.1683(5) 0.0000
H2A H 0.296(4) 1.2960(40) 0.0000
C2B C -0.1683(5) 1.0000 0.0000
H2B H -0.2960(40) 1.0000 0.0000
C2R C 0.0000 1.1683(5) 0.0000
H2R H 0.0000 1.296(4) 0.0000
loop_
_geom_bond_atom_site_label_1
_geom_bond_atom_site_label_2
_geom_bond_site_symmetry_1
_geom_bond_site_symmetry_2
C1 H1 1_555 1_555
C2 H2 1_555 1_555
C1C C1 1_555 1_555
H1C C1C 1_555 1_555
C2S C2 1_555 1_555
H2S C2S 1_555 1_555
C2T C2 1_555 1_555
H2T C2T 1_555 1_555
C2A C2T 1_555 1_555
H2A C2A 1_555 1_555
C2B C2S 1_555 1_555
H2B C2B 1_555 1_555
C2R C2A 1_555 1_555
H2R C2R 1_555 1_555
C2B C2R 1_555 1_555

#END
