
#######################################################################
#
#                 Cambridge Crystallographic Data Centre
#                                CCDC 
#
#######################################################################
#
# If this CIF has been generated from an entry in the Cambridge 
# Structural Database, then it will include bibliographic, chemical, 
# crystal, experimental, refinement or atomic coordinate data resulting 
# from the CCDC's data processing and validation procedures.
#
#######################################################################

data_BEVKOE
_chemical_formula_moiety         'C28 H41 B1 N1 P1'
_chemical_name_systematic        
(E)-N-(3-(\l^5^-Boranyl(dicyclohexyl)phosphoranyl)-4-phenylbut-3-en-2-yl)aniline
_symmetry_cell_setting           monoclinic
_symmetry_space_group_name_H-M   'C 2'
_symmetry_Int_Tables_number      5
_space_group_name_Hall           'C 2y'
loop_
_symmetry_equiv_pos_site_id
_symmetry_equiv_pos_as_xyz
1 x,y,z
2 -x,y,-z
3 1/2+x,1/2+y,z
4 1/2-x,1/2+y,-z
_cell_length_a                   20.7790(3)
_cell_length_b                   7.37770(10)
_cell_length_c                   16.7226(2)
_cell_angle_alpha                90
_cell_angle_beta                 98.2590(10)
_cell_angle_gamma                90
_cell_volume                     2537.01
_exptl_crystal_colour            colorless
_exptl_crystal_description       chunk
_cell_formula_units_Z            4
loop_
_atom_site_label
_atom_site_type_symbol
_atom_site_fract_x
_atom_site_fract_y
_atom_site_fract_z
P1 P 0.350194(15) 0.24757(5) 0.660643(19)
N1 N 0.42153(6) -0.07128(18) 0.77656(7)
H1 H 0.3930(8) -0.114(2) 0.7400(10)
B1 B 0.30822(8) 0.0180(2) 0.62961(10)
H2 H 0.3450(9) -0.072(3) 0.6083(11)
H3 H 0.2725(9) 0.055(3) 0.5766(11)
H4 H 0.2882(8) -0.039(3) 0.6822(10)
C1 C 0.23000(7) 0.4112(2) 0.66106(8)
H5 H 0.2353 0.4774 0.6123
H6 H 0.2127 0.2923 0.6452
C2 C 0.18171(7) 0.5118(2) 0.70612(9)
H7 H 0.1970 0.6346 0.7176
H8 H 0.1398 0.5184 0.6721
C3 C 0.17379(7) 0.4166(2) 0.78505(9)
H9 H 0.1436 0.4840 0.8129
H10 H 0.1561 0.2961 0.7737
C4 C 0.23931(7) 0.4031(2) 0.83859(8)
H11 H 0.2340 0.3387 0.8878
H12 H 0.2551 0.5240 0.8534
C5 C 0.28943(7) 0.3042(2) 0.79583(8)
H13 H 0.2765 0.1785 0.7877
H14 H 0.3313 0.3065 0.8301
C6 C 0.29658(6) 0.3897(2) 0.71356(8)
H15 H 0.3164 0.5098 0.7229
C7 C 0.38918(8) 0.5606(2) 0.57889(8)
H16 H 0.4347 0.5511 0.6015
H17 H 0.3671 0.6289 0.6164
C8 C 0.38279(8) 0.6601(2) 0.49763(9)
H18 H 0.3371 0.6811 0.4783
H19 H 0.4040 0.7772 0.5054
C9 C 0.41279(7) 0.5537(2) 0.43396(9)
H20 H 0.4023 0.6132 0.3820
H21 H 0.4597 0.5530 0.4480
C10 C 0.38801(8) 0.3595(2) 0.42729(9)
H22 H 0.4120 0.2926 0.3913
H23 H 0.3426 0.3600 0.4036
C11 C 0.39485(8) 0.2629(2) 0.50892(9)
H24 H 0.4405 0.2511 0.5307
H25 H 0.3763 0.1423 0.5021
C12 C 0.35961(6) 0.3718(2) 0.56752(8)
H26 H 0.3154 0.3902 0.5394
C13 C 0.42972(6) 0.2420(2) 0.72521(7)
C14 C 0.45271(7) 0.4008(2) 0.75741(8)
H27 H 0.4238(8) 0.507(3) 0.7508(10)
C15 C 0.51465(7) 0.5627(2) 0.87317(9)
H28 H 0.4757 0.6163 0.8815
C16 C 0.57141(8) 0.6066(2) 0.92369(9)
H29 H 0.5702 0.6872 0.9662
C17 C 0.62995(7) 0.5303(2) 0.91074(9)
H30 H 0.6680 0.5592 0.9447
C18 C 0.63163(7) 0.4109(2) 0.84701(9)
H31 H 0.6710 0.3616 0.8376
C19 C 0.57440(7) 0.3646(2) 0.79703(8)
H32 H 0.5758 0.2835 0.7548
C20 C 0.51511(7) 0.4390(2) 0.80988(8)
C21 C 0.46384(7) 0.0604(2) 0.74424(9)
H33 H 0.5010 0.0825 0.7863
C22 C 0.49021(7) -0.0253(2) 0.67245(9)
H34 H 0.5111 -0.1381 0.6888
H35 H 0.5211 0.0552 0.6536
H36 H 0.4550 -0.0471 0.6297
C23 C 0.42884(7) 0.0812(2) 0.90814(8)
H37 H 0.4669 0.1400 0.8998
C24 C 0.40234(8) 0.1131(2) 0.97815(9)
H38 H 0.4225 0.1950 1.0160
C25 C 0.34628(8) 0.0253(2) 0.99307(9)
H39 H 0.3283 0.0496 1.0398
C26 C 0.31744(7) -0.0996(2) 0.93691(9)
H40 H 0.2804 -0.1615 0.9467
C27 C 0.34336(7) -0.1328(2) 0.86657(9)
H41 H 0.3239 -0.2184 0.8300
C28 C 0.39861(7) -0.0392(2) 0.84976(8)
loop_
_geom_bond_atom_site_label_1
_geom_bond_atom_site_label_2
_geom_bond_site_symmetry_1
_geom_bond_site_symmetry_2
P1 B1 1_555 1_555
N1 H1 1_555 1_555
B1 H2 1_555 1_555
H3 B1 1_555 1_555
H4 B1 1_555 1_555
C1 H5 1_555 1_555
H6 C1 1_555 1_555
C2 C1 1_555 1_555
H7 C2 1_555 1_555
H8 C2 1_555 1_555
C3 C2 1_555 1_555
H9 C3 1_555 1_555
H10 C3 1_555 1_555
C4 C3 1_555 1_555
H11 C4 1_555 1_555
H12 C4 1_555 1_555
C5 C4 1_555 1_555
H13 C5 1_555 1_555
H14 C5 1_555 1_555
C6 P1 1_555 1_555
H15 C6 1_555 1_555
C7 H16 1_555 1_555
H17 C7 1_555 1_555
C8 C7 1_555 1_555
H18 C8 1_555 1_555
H19 C8 1_555 1_555
C9 C8 1_555 1_555
H20 C9 1_555 1_555
H21 C9 1_555 1_555
C10 C9 1_555 1_555
H22 C10 1_555 1_555
H23 C10 1_555 1_555
C11 C10 1_555 1_555
H24 C11 1_555 1_555
H25 C11 1_555 1_555
C12 P1 1_555 1_555
H26 C12 1_555 1_555
C13 P1 1_555 1_555
C14 C13 1_555 1_555
H27 C14 1_555 1_555
C15 H28 1_555 1_555
C16 C15 1_555 1_555
H29 C16 1_555 1_555
C17 C16 1_555 1_555
H30 C17 1_555 1_555
C18 C17 1_555 1_555
H31 C18 1_555 1_555
C19 C18 1_555 1_555
H32 C19 1_555 1_555
C20 C14 1_555 1_555
C21 N1 1_555 1_555
H33 C21 1_555 1_555
C22 C21 1_555 1_555
H34 C22 1_555 1_555
H35 C22 1_555 1_555
H36 C22 1_555 1_555
C23 H37 1_555 1_555
C24 C23 1_555 1_555
H38 C24 1_555 1_555
C25 C24 1_555 1_555
H39 C25 1_555 1_555
C26 C25 1_555 1_555
H40 C26 1_555 1_555
C27 C26 1_555 1_555
H41 C27 1_555 1_555
C28 N1 1_555 1_555
C1 C6 1_555 1_555
C5 C6 1_555 1_555
C7 C12 1_555 1_555
C11 C12 1_555 1_555
C13 C21 1_555 1_555
C15 C20 1_555 1_555
C19 C20 1_555 1_555
C23 C28 1_555 1_555
C27 C28 1_555 1_555

#END
