
#######################################################################
#
#                 Cambridge Crystallographic Data Centre
#                                CCDC 
#
#######################################################################
#
# If this CIF has been generated from an entry in the Cambridge 
# Structural Database, then it will include bibliographic, chemical, 
# crystal, experimental, refinement or atomic coordinate data resulting 
# from the CCDC's data processing and validation procedures.
#
#######################################################################

data_BEVKAQ
_chemical_formula_moiety         'C36 H43 B1 O3 P2'
_chemical_name_systematic        
(1-(bis(4-methoxyphenyl)phosphoryl)-1-phenylbut-2-en-2-yl)(\l^5^-boranyl)cyclohexyl(phenyl)phosphorane
_symmetry_cell_setting           orthorhombic
_symmetry_space_group_name_H-M   'P 21 21 21'
_symmetry_Int_Tables_number      19
_space_group_name_Hall           'P 2ac 2ab'
loop_
_symmetry_equiv_pos_site_id
_symmetry_equiv_pos_as_xyz
1 x,y,z
2 1/2+x,1/2-y,-z
3 -x,1/2+y,1/2-z
4 1/2-x,-y,1/2+z
_cell_length_a                   11.4367(6)
_cell_length_b                   13.5135(7)
_cell_length_c                   21.0484(11)
_cell_angle_alpha                90
_cell_angle_beta                 90
_cell_angle_gamma                90
_cell_volume                     3253.03
_exptl_crystal_colour            colorless
_exptl_crystal_description       plate
_cell_formula_units_Z            4
loop_
_atom_site_label
_atom_site_type_symbol
_atom_site_fract_x
_atom_site_fract_y
_atom_site_fract_z
P1 P 0.74984(3) 0.61985(2) 0.879828(14)
P2 P 0.91330(3) 0.75824(2) 0.705409(15)
O1 O 1.19805(9) 0.49974(7) 0.53696(5)
O2 O 0.44205(8) 0.76229(7) 0.58553(4)
O3 O 0.97146(8) 0.85628(7) 0.70809(4)
C1 C 0.59624(16) 0.39042(13) 0.74156(8)
H1 H 0.5634 0.3434 0.7132
C2 C 0.71415(15) 0.38725(12) 0.75600(7)
H2 H 0.7623 0.3376 0.7376
C3 C 0.76251(13) 0.45604(10) 0.79711(6)
H3 H 0.8438 0.4540 0.8062
C4 C 0.69264(12) 0.52806(10) 0.82516(6)
C5 C 0.80771(11) 0.71904(9) 0.82956(6)
C6 C 0.90382(11) 0.69075(9) 0.78245(6)
H4 H 0.8884 0.6201 0.7710
C7 C 0.99445(11) 0.67500(10) 0.65519(6)
C8 C 0.94670(11) 0.58859(10) 0.62969(6)
H5 H 0.8686 0.5708 0.6400
C9 C 1.01144(12) 0.52812(10) 0.58958(6)
H6 H 0.9777 0.4698 0.5723
C10 C 1.12616(12) 0.55380(10) 0.57503(6)
C11 C 1.15320(13) 0.40898(11) 0.51200(7)
H7 H 1.1242 0.3678 0.5469
H8 H 1.2156 0.3738 0.4895
H9 H 1.0891 0.4232 0.4825
C12 C 0.99105(14) 0.47958(11) 1.03445(8)
H10 H 1.0597 0.4457 1.0532
H11 H 0.9355 0.4949 1.0692
C13 C 0.93252(13) 0.41169(11) 0.98633(7)
H12 H 0.9032 0.3519 1.0083
H13 H 0.9909 0.3904 0.9544
C14 C 0.83116(12) 0.46290(10) 0.95275(6)
H14 H 0.7692 0.4785 0.9840
H15 H 0.7976 0.4178 0.9205
C15 C 0.87204(12) 0.55880(9) 0.92035(6)
H16 H 0.9325 0.5414 0.8879
C16 C 0.52660(15) 0.46228(14) 0.76865(9)
H17 H 0.4458 0.4651 0.7583
C17 C 0.57328(13) 0.53024(12) 0.81062(7)
H18 H 0.5242 0.5786 0.8297
C18 C 0.76790(11) 0.76118(10) 0.67244(6)
C19 C 0.67985(12) 0.69455(10) 0.68910(6)
H19 H 0.6944 0.6464 0.7210
C20 C 0.57208(13) 0.69782(10) 0.65985(6)
H20 H 0.5125 0.6528 0.6722
C21 C 0.55043(11) 0.76698(10) 0.61233(6)
C22 C 0.42283(13) 0.82050(11) 0.52993(7)
H21 H 0.4274 0.8909 0.5409
H22 H 0.3453 0.8057 0.5126
H23 H 0.4827 0.8049 0.4981
C23 C 0.63676(12) 0.83432(10) 0.59513(6)
H24 H 0.6221 0.8820 0.5630
C24 C 0.74440(12) 0.83124(9) 0.62529(6)
H25 H 0.8032 0.8775 0.6137
C25 C 1.10968(12) 0.69978(10) 0.63931(6)
H26 H 1.1432 0.7587 0.6559
C26 C 1.17499(12) 0.64025(10) 0.60005(6)
H27 H 1.2532 0.6578 0.5899
C27 C 1.02581(12) 0.69182(10) 0.81152(6)
C28 C 1.10192(12) 0.61243(11) 0.80186(7)
H28 H 1.0774 0.5571 0.7774
C29 C 1.21373(13) 0.61417(12) 0.82808(7)
H29 H 1.2655 0.5603 0.8211
C30 C 1.24984(13) 0.69393(13) 0.86424(7)
H30 H 1.3262 0.6949 0.8820
C31 C 1.17456(13) 0.77228(12) 0.87446(7)
H31 H 1.1987 0.8267 0.8998
C32 C 1.06348(12) 0.77147(11) 0.84770(6)
H32 H 1.0127 0.8262 0.8543
C33 C 0.75717(12) 0.80716(10) 0.83880(6)
H33 H 0.6996 0.8086 0.8713
C34 C 0.77702(13) 0.90333(10) 0.80607(7)
H34 H 0.8609 0.9125 0.7986
H35 H 0.7476 0.9574 0.8327
H36 H 0.7356 0.9035 0.7653
C35 C 0.92854(12) 0.62747(10) 0.96986(6)
H37 H 0.9571 0.6883 0.9487
H38 H 0.8695 0.6469 1.0019
C36 C 1.03007(14) 0.57535(11) 1.00256(8)
H39 H 1.0643 0.6200 1.0349
H40 H 1.0914 0.5603 0.9708
B1 B 0.63184(14) 0.66133(12) 0.93925(8)
H41 H 0.5659 0.6904 0.9161
H42 H 0.6648 0.7107 0.9682
H43 H 0.6047 0.6040 0.9637
loop_
_geom_bond_atom_site_label_1
_geom_bond_atom_site_label_2
_geom_bond_site_symmetry_1
_geom_bond_site_symmetry_2
P1 C4 1_555 1_555
P2 O3 1_555 1_555
O1 C10 1_555 1_555
O2 C21 1_555 1_555
C1 H1 1_555 1_555
C2 C1 1_555 1_555
H2 C2 1_555 1_555
C3 C2 1_555 1_555
H3 C3 1_555 1_555
C4 C3 1_555 1_555
C5 P1 1_555 1_555
C6 P2 1_555 1_555
H4 C6 1_555 1_555
C7 P2 1_555 1_555
C8 C7 1_555 1_555
H5 C8 1_555 1_555
C9 C8 1_555 1_555
H6 C9 1_555 1_555
C10 C9 1_555 1_555
C11 O1 1_555 1_555
H7 C11 1_555 1_555
H8 C11 1_555 1_555
H9 C11 1_555 1_555
C12 H10 1_555 1_555
H11 C12 1_555 1_555
C13 C12 1_555 1_555
H12 C13 1_555 1_555
H13 C13 1_555 1_555
C14 C13 1_555 1_555
H14 C14 1_555 1_555
H15 C14 1_555 1_555
C15 P1 1_555 1_555
H16 C15 1_555 1_555
C16 C1 1_555 1_555
H17 C16 1_555 1_555
C17 C4 1_555 1_555
H18 C17 1_555 1_555
C18 P2 1_555 1_555
C19 C18 1_555 1_555
H19 C19 1_555 1_555
C20 C19 1_555 1_555
H20 C20 1_555 1_555
C21 C20 1_555 1_555
C22 O2 1_555 1_555
H21 C22 1_555 1_555
H22 C22 1_555 1_555
H23 C22 1_555 1_555
C23 C21 1_555 1_555
H24 C23 1_555 1_555
C24 C18 1_555 1_555
H25 C24 1_555 1_555
C25 C7 1_555 1_555
H26 C25 1_555 1_555
C26 C10 1_555 1_555
H27 C26 1_555 1_555
C27 C6 1_555 1_555
C28 C27 1_555 1_555
H28 C28 1_555 1_555
C29 C28 1_555 1_555
H29 C29 1_555 1_555
C30 C29 1_555 1_555
H30 C30 1_555 1_555
C31 C30 1_555 1_555
H31 C31 1_555 1_555
C32 C27 1_555 1_555
H32 C32 1_555 1_555
C33 C5 1_555 1_555
H33 C33 1_555 1_555
C34 C33 1_555 1_555
H34 C34 1_555 1_555
H35 C34 1_555 1_555
H36 C34 1_555 1_555
C35 C15 1_555 1_555
H37 C35 1_555 1_555
H38 C35 1_555 1_555
C36 C12 1_555 1_555
H39 C36 1_555 1_555
H40 C36 1_555 1_555
B1 P1 1_555 1_555
H41 B1 1_555 1_555
H42 B1 1_555 1_555
H43 B1 1_555 1_555
C5 C6 1_555 1_555
C14 C15 1_555 1_555
C16 C17 1_555 1_555
C23 C24 1_555 1_555
C25 C26 1_555 1_555
C31 C32 1_555 1_555
C35 C36 1_555 1_555

#END
