
#######################################################################
#
#                 Cambridge Crystallographic Data Centre
#                                CCDC 
#
#######################################################################
#
# If this CIF has been generated from an entry in the Cambridge 
# Structural Database, then it will include bibliographic, chemical, 
# crystal, experimental, refinement or atomic coordinate data resulting 
# from the CCDC's data processing and validation procedures.
#
#######################################################################

data_BEVLOG
_chemical_formula_moiety         'C19 H21 N1 O4 S1'
_chemical_name_systematic        
4-(phenylsulfonyl)decahydro-1,4-methanopyrrolo[1,2-a]quinoline-6,11(1H)-dione
_symmetry_cell_setting           monoclinic
_symmetry_space_group_name_H-M   'P 21/c'
_symmetry_Int_Tables_number      14
_space_group_name_Hall           '-P 2ybc'
loop_
_symmetry_equiv_pos_site_id
_symmetry_equiv_pos_as_xyz
1 x,y,z
2 -x,1/2+y,1/2-z
3 -x,-y,-z
4 x,1/2-y,1/2+z
_cell_length_a                   10.9781(4)
_cell_length_b                   11.1490(5)
_cell_length_c                   14.1416(6)
_cell_angle_alpha                90
_cell_angle_beta                 93.087(4)
_cell_angle_gamma                90
_cell_volume                     1728.35
_exptl_crystal_colour            colorless
_exptl_crystal_description       block
_cell_formula_units_Z            4
_exptl_crystal_recrystallization_method 'ethyl acetate/hexane'
loop_
_atom_site_label
_atom_site_type_symbol
_atom_site_fract_x
_atom_site_fract_y
_atom_site_fract_z
S1 S -0.33002(6) -0.55784(7) -0.27573(5)
O1 O -0.39695(19) -0.5871(3) -0.19474(16)
N1 N -0.0030(2) -0.5741(3) -0.14261(19)
O2 O -0.1960(2) -0.8039(2) -0.21001(19)
C1 C -0.0991(3) -0.5987(3) -0.3373(2)
H1 H -0.1129 -0.6761 -0.3675
H2 H -0.1263 -0.5369 -0.3818
O3 O -0.3337(2) -0.4375(2) -0.3101(2)
C2 C -0.4447(4) -0.6834(4) -0.5305(2)
H3 H -0.4505 -0.6563 -0.5928
C3 C -0.1727(2) -0.5909(3) -0.24755(19)
C4 C -0.1730(3) -0.4860(4) -0.0840(2)
H4 H -0.1369 -0.4215 -0.0458
H5 H -0.2592 -0.4697 -0.0963
C5 C -0.1083(3) -0.5009(3) -0.1761(2)
H6 H -0.0856 -0.4248 -0.2050
C6 C 0.2090(3) -0.5980(4) -0.1895(3)
H7 H 0.2291 -0.6450 -0.1330
H8 H 0.2239 -0.5144 -0.1737
C7 C 0.0784(3) -0.6133(5) -0.2156(3)
H9 H 0.0689 -0.7007 -0.2145
O4 O 0.0835(3) -0.6523(5) -0.4604(3)
C8 C -0.3837(2) -0.6535(3) -0.3687(2)
C9 C -0.4804(3) -0.8344(4) -0.4179(3)
H10 H -0.5102 -0.9102 -0.4042
C10 C 0.0353(3) -0.5831(5) -0.3117(2)
H11 H 0.0442 -0.4956 -0.3122
C11 C -0.1567(2) -0.7068(3) -0.1892(2)
C12 C -0.0743(3) -0.6720(3) -0.1042(2)
H12 H -0.0256 -0.7379 -0.0762
C13 C -0.4283(3) -0.7654(3) -0.3462(2)
H13 H -0.4232 -0.7931 -0.2841
C14 C -0.4891(3) -0.7935(4) -0.5086(3)
H14 H -0.5257 -0.8411 -0.5561
C15 C -0.3907(3) -0.6117(4) -0.4597(2)
H15 H -0.3600 -0.5365 -0.4739
C16 C 0.1197(3) -0.6211(4) -0.3865(3)
C17 C -0.1531(3) -0.6068(4) -0.0355(2)
H16 H -0.1111 -0.5979 0.0262
H17 H -0.2298 -0.6482 -0.0284
C18 C 0.2918(3) -0.6337(5) -0.2640(3)
H18 H 0.3704 -0.5962 -0.2498
H19 H 0.3038 -0.7198 -0.2599
C19 C 0.2535(4) -0.6048(6) -0.3610(3)
H20 H 0.2992 -0.6546 -0.4027
H21 H 0.2749 -0.5220 -0.3729
loop_
_geom_bond_atom_site_label_1
_geom_bond_atom_site_label_2
_geom_bond_site_symmetry_1
_geom_bond_site_symmetry_2
S1 O1 1_555 1_555
N1 C5 1_555 1_555
O2 C11 1_555 1_555
C1 H1 1_555 1_555
H2 C1 1_555 1_555
O3 S1 1_555 1_555
C2 H3 1_555 1_555
C3 S1 1_555 1_555
C4 H4 1_555 1_555
H5 C4 1_555 1_555
C5 C3 1_555 1_555
H6 C5 1_555 1_555
C6 H7 1_555 1_555
H8 C6 1_555 1_555
C7 N1 1_555 1_555
H9 C7 1_555 1_555
O4 C16 1_555 1_555
C8 S1 1_555 1_555
C9 H10 1_555 1_555
C10 C1 1_555 1_555
H11 C10 1_555 1_555
C11 C3 1_555 1_555
C12 N1 1_555 1_555
H12 C12 1_555 1_555
C13 C8 1_555 1_555
H13 C13 1_555 1_555
C14 C2 1_555 1_555
H14 C14 1_555 1_555
C15 C2 1_555 1_555
H15 C15 1_555 1_555
C16 C10 1_555 1_555
C17 C4 1_555 1_555
H16 C17 1_555 1_555
H17 C17 1_555 1_555
C18 C6 1_555 1_555
H18 C18 1_555 1_555
H19 C18 1_555 1_555
C19 C16 1_555 1_555
H20 C19 1_555 1_555
H21 C19 1_555 1_555
C1 C3 1_555 1_555
C4 C5 1_555 1_555
C6 C7 1_555 1_555
C7 C10 1_555 1_555
C8 C15 1_555 1_555
C9 C13 1_555 1_555
C9 C14 1_555 1_555
C11 C12 1_555 1_555
C12 C17 1_555 1_555
C18 C19 1_555 1_555

#END
