
#######################################################################
#
#                 Cambridge Crystallographic Data Centre
#                                CCDC 
#
#######################################################################
#
# If this CIF has been generated from an entry in the Cambridge 
# Structural Database, then it will include bibliographic, chemical, 
# crystal, experimental, refinement or atomic coordinate data resulting 
# from the CCDC's data processing and validation procedures.
#
#######################################################################

data_BEVNUM
_chemical_name_common            'Nilvadipine monohydrate'
_chemical_formula_moiety         'C19 H19 N3 O6,H2 O1'
_chemical_name_systematic        
'5-Isopropyl-3-methyl 2-cyano-6-methyl-4-(3-nitrophenyl)-1,4-dihydro-3,5-pyridinedicarboxylate monohydrate'
_chemical_properties_biological  'calcium channel antagonist'
_symmetry_cell_setting           orthorhombic
_symmetry_space_group_name_H-M   'P b c a'
_symmetry_Int_Tables_number      61
_space_group_name_Hall           '-P 2ac 2ab'
loop_
_symmetry_equiv_pos_site_id
_symmetry_equiv_pos_as_xyz
1 x,y,z
2 1/2-x,-y,1/2+z
3 1/2+x,1/2-y,-z
4 -x,1/2+y,1/2-z
5 -x,-y,-z
6 1/2+x,y,1/2-z
7 1/2-x,1/2+y,z
8 x,1/2-y,1/2+z
_cell_length_a                   16.677(7)
_cell_length_b                   16.264(10)
_cell_length_c                   14.834(9)
_cell_angle_alpha                90
_cell_angle_beta                 90
_cell_angle_gamma                90
_cell_volume                     4023.5
_exptl_crystal_colour            yellow
_exptl_crystal_description       prisms
_cell_formula_units_Z            8
_exptl_crystal_recrystallization_method 'aqueous acetonitrile'
loop_
_atom_site_label
_atom_site_type_symbol
_atom_site_fract_x
_atom_site_fract_y
_atom_site_fract_z
O1 O 0.2300(2) 0.1602(2) 0.3263(2)
O2 O 0.1049(2) 0.1554(2) 0.3793(3)
O3 O 0.4483(3) -0.0421(3) 0.2289(4)
O4 O 0.4247(3) -0.1705(3) 0.2147(4)
O5 O 0.1870(2) 0.0916(3) -0.0935(3)
O6 O 0.2789(2) 0.1266(2) 0.0082(2)
N1 N 0.0179(2) 0.1159(3) 0.1202(3)
N2 N -0.0717(3) 0.1748(3) 0.3089(4)
N3 N 0.4041(3) -0.0997(4) 0.2148(4)
C1 C 0.0463(3) 0.1306(3) 0.2063(4)
C2 C 0.1242(3) 0.1283(3) 0.2265(3)
C3 C 0.1838(3) 0.1016(3) 0.1549(3)
C4 C 0.1494(3) 0.1085(3) 0.0600(3)
C5 C 0.0693(3) 0.1111(3) 0.0477(3)
C6 C -0.0176(3) 0.1546(3) 0.2677(4)
C7 C 0.1593(3) 0.1494(3) 0.3145(4)
C8 C 0.1341(4) 0.1754(4) 0.4670(4)
C9 C 0.2135(3) 0.0129(3) 0.1726(3)
C10 C 0.2949(3) -0.0028(3) 0.1855(3)
C11 C 0.3190(3) -0.0835(3) 0.1978(4)
C12 C 0.2665(4) -0.1480(3) 0.1944(4)
C13 C 0.1867(4) -0.1324(4) 0.1811(4)
C14 C 0.1596(3) -0.0509(4) 0.1707(4)
C15 C 0.2049(3) 0.1075(3) -0.0160(4)
C16 C 0.3415(4) 0.1258(7) -0.0613(4)
C17 C 0.3956(6) 0.0560(5) -0.0432(8)
C18 C 0.3844(5) 0.2052(5) -0.0550(6)
C19 C 0.0257(3) 0.1124(4) -0.0414(4)
O7 O 0.8559(2) 0.0793(2) 0.0928(3)
loop_
_geom_bond_atom_site_label_1
_geom_bond_atom_site_label_2
_geom_bond_site_symmetry_1
_geom_bond_site_symmetry_2
O1 C7 1_555 1_555
O2 C7 1_555 1_555
O3 N3 1_555 1_555
O4 N3 1_555 1_555
O5 C15 1_555 1_555
O6 C15 1_555 1_555
N1 C1 1_555 1_555
N2 C6 1_555 1_555
N3 C11 1_555 1_555
C1 C2 1_555 1_555
C2 C3 1_555 1_555
C3 C4 1_555 1_555
C4 C5 1_555 1_555
C5 N1 1_555 1_555
C6 C1 1_555 1_555
C7 C2 1_555 1_555
C8 O2 1_555 1_555
C9 C3 1_555 1_555
C10 C9 1_555 1_555
C11 C10 1_555 1_555
C12 C11 1_555 1_555
C13 C12 1_555 1_555
C14 C9 1_555 1_555
C15 C4 1_555 1_555
C16 O6 1_555 1_555
C17 C16 1_555 1_555
C18 C16 1_555 1_555
C19 C5 1_555 1_555
C13 C14 1_555 1_555

#END
