
#######################################################################
#
#                 Cambridge Crystallographic Data Centre
#                                CCDC 
#
#######################################################################
#
# If this CIF has been generated from an entry in the Cambridge 
# Structural Database, then it will include bibliographic, chemical, 
# crystal, experimental, refinement or atomic coordinate data resulting 
# from the CCDC's data processing and validation procedures.
#
#######################################################################

data_BEVNAU
_chemical_formula_moiety         'C24 H24 B1 N1'
_chemical_name_systematic        
3-benzylidene-1-methyl-2-(2,4,6-trimethylphenyl)-2,3-dihydro-1H-1,2-benzazaborole
_symmetry_cell_setting           triclinic
_symmetry_space_group_name_H-M   'P -1'
_symmetry_Int_Tables_number      2
_space_group_name_Hall           '-P 1'
loop_
_symmetry_equiv_pos_site_id
_symmetry_equiv_pos_as_xyz
1 x,y,z
2 -x,-y,-z
_cell_length_a                   8.2282(6)
_cell_length_b                   11.2619(8)
_cell_length_c                   22.0093(14)
_cell_angle_alpha                92.560(2)
_cell_angle_beta                 94.228(2)
_cell_angle_gamma                106.767(2)
_cell_volume                     1942.83
_exptl_crystal_colour            yellow
_exptl_crystal_description       block
_cell_formula_units_Z            4
loop_
_atom_site_label
_atom_site_type_symbol
_atom_site_fract_x
_atom_site_fract_y
_atom_site_fract_z
N1 N -0.2357(3) 0.6594(2) 0.41325(10)
C1 C -0.0050(4) 0.7924(3) 0.47787(13)
C2 C -0.1659(4) 0.7715(3) 0.50705(12)
C3 C -0.2108(4) 0.8221(3) 0.56011(14)
H1 H -0.1261 0.8793 0.5872
C4 C -0.3802(5) 0.7883(3) 0.57289(14)
H2 H -0.4096 0.8223 0.6093
C5 C -0.5061(5) 0.7071(3) 0.53456(16)
H3 H -0.6204 0.6845 0.5451
C6 C -0.4673(4) 0.6575(3) 0.48008(15)
H4 H -0.5537 0.6017 0.4529
C7 C -0.2996(4) 0.6921(3) 0.46707(13)
C8 C -0.3485(4) 0.5817(3) 0.36418(15)
H5 H -0.4082 0.5017 0.3793
H6 H -0.2817 0.5678 0.3309
H7 H -0.4318 0.6229 0.3490
C9 C 0.0536(4) 0.6981(3) 0.36237(12)
C10 C 0.1118(4) 0.5921(3) 0.36070(14)
C11 C 0.2089(4) 0.5724(3) 0.31428(14)
H8 H 0.2466 0.5001 0.3135
C12 C 0.2527(4) 0.6553(3) 0.26888(13)
C13 C 0.1939(4) 0.7590(3) 0.27061(13)
H9 H 0.2211 0.8162 0.2398
C14 C 0.0964(4) 0.7812(3) 0.31605(13)
C15 C 0.0697(5) 0.5001(3) 0.40953(18)
H10 H 0.1340 0.4397 0.4053
H11 H -0.0527 0.4565 0.4049
H12 H 0.1006 0.5446 0.4500
C16 C 0.3596(4) 0.6331(3) 0.21981(15)
H13 H 0.3116 0.6506 0.1803
H14 H 0.3608 0.5462 0.2185
H15 H 0.4763 0.6879 0.2286
C17 C 0.0330(5) 0.8944(3) 0.31530(17)
H16 H 0.1284 0.9691 0.3271
H17 H -0.0539 0.8870 0.3442
H18 H -0.0166 0.9006 0.2741
C18 C 0.1573(4) 0.8568(3) 0.49768(13)
H19 H 0.2365 0.8650 0.4677
C19 C 0.2306(4) 0.9161(3) 0.55842(13)
C20 C 0.1822(4) 0.8621(3) 0.61191(14)
H20 H 0.0945 0.7853 0.6101
C21 C 0.2594(4) 0.9181(3) 0.66807(14)
H21 H 0.2238 0.8801 0.7045
C22 C 0.3890(4) 1.0298(3) 0.67136(14)
H22 H 0.4408 1.0690 0.7100
C23 C 0.4420(4) 1.0837(3) 0.61850(14)
H23 H 0.5313 1.1597 0.6206
C24 C 0.3657(4) 1.0274(3) 0.56245(13)
H24 H 0.4048 1.0640 0.5262
B1 B -0.0576(4) 0.7181(3) 0.41458(15)
N2 N 0.0153(3) 0.1862(2) 0.16471(10)
C25 C 0.1189(3) 0.0437(2) 0.10795(13)
C26 C -0.0616(3) -0.0134(2) 0.11756(12)
C27 C -0.1822(4) -0.1253(3) 0.09714(14)
H25 H -0.1497 -0.1853 0.0730
C28 C -0.3486(4) -0.1500(3) 0.11153(14)
H26 H -0.4286 -0.2278 0.0981
C29 C -0.4001(4) -0.0633(3) 0.14509(13)
H27 H -0.5150 -0.0820 0.1548
C30 C -0.2846(4) 0.0522(3) 0.16492(13)
H28 H -0.3198 0.1129 0.1874
C31 C -0.1184(3) 0.0750(2) 0.15082(12)
C32 C -0.0122(4) 0.2923(3) 0.19788(16)
H29 H -0.1060 0.3155 0.1764
H30 H 0.0919 0.3625 0.2004
H31 H -0.0409 0.2704 0.2392
C33 C 0.3411(3) 0.2816(2) 0.15066(11)
C34 C 0.3983(4) 0.3669(2) 0.10712(12)
C35 C 0.5517(4) 0.4613(2) 0.11861(13)
H32 H 0.5867 0.5199 0.0889
C36 C 0.6546(4) 0.4711(2) 0.17276(13)
C37 C 0.5995(4) 0.3848(3) 0.21515(13)
H33 H 0.6692 0.3893 0.2521
C38 C 0.4452(4) 0.2915(2) 0.20542(12)
C39 C 0.3888(5) 0.2018(3) 0.25385(15)
H34 H 0.4826 0.2130 0.2857
H35 H 0.3561 0.1164 0.2354
H36 H 0.2909 0.2175 0.2719
C40 C 0.2936(5) 0.3559(3) 0.04624(14)
H37 H 0.3341 0.4329 0.0256
H38 H 0.1734 0.3418 0.0532
H39 H 0.3058 0.2859 0.0207
C41 C 0.8188(4) 0.5741(3) 0.18504(18)
H40 H 0.8842 0.5577 0.2211
H41 H 0.7939 0.6533 0.1924
H42 H 0.8854 0.5784 0.1497
C42 C 0.2296(4) 0.0028(2) 0.07670(13)
H43 H 0.3351 0.0638 0.0731
C43 C 0.2145(3) -0.1201(2) 0.04736(13)
C44 C 0.2812(4) -0.1279(3) -0.00869(13)
H44 H 0.3313 -0.0541 -0.0281
C45 C 0.2748(4) -0.2422(3) -0.03619(14)
H45 H 0.3169 -0.2468 -0.0750
C46 C 0.2078(4) -0.3494(3) -0.00743(14)
H46 H 0.2049 -0.4277 -0.0262
C47 C 0.1447(4) -0.3433(3) 0.04868(15)
H47 H 0.0995 -0.4173 0.0686
C48 C 0.1473(4) -0.2297(2) 0.07589(13)
H48 H 0.1030 -0.2262 0.1144
B2 B 0.1664(4) 0.1776(3) 0.14050(14)
loop_
_geom_bond_atom_site_label_1
_geom_bond_atom_site_label_2
_geom_bond_site_symmetry_1
_geom_bond_site_symmetry_2
N1 C7 1_555 1_555
C1 C2 1_555 1_555
C2 C3 1_555 1_555
C3 H1 1_555 1_555
C4 C3 1_555 1_555
H2 C4 1_555 1_555
C5 C4 1_555 1_555
H3 C5 1_555 1_555
C6 C5 1_555 1_555
H4 C6 1_555 1_555
C7 C2 1_555 1_555
C8 N1 1_555 1_555
H5 C8 1_555 1_555
H6 C8 1_555 1_555
H7 C8 1_555 1_555
C9 C10 1_555 1_555
C10 C11 1_555 1_555
C11 H8 1_555 1_555
C12 C11 1_555 1_555
C13 C12 1_555 1_555
H9 C13 1_555 1_555
C14 C9 1_555 1_555
C15 C10 1_555 1_555
H10 C15 1_555 1_555
H11 C15 1_555 1_555
H12 C15 1_555 1_555
C16 C12 1_555 1_555
H13 C16 1_555 1_555
H14 C16 1_555 1_555
H15 C16 1_555 1_555
C17 C14 1_555 1_555
H16 C17 1_555 1_555
H17 C17 1_555 1_555
H18 C17 1_555 1_555
C18 C1 1_555 1_555
H19 C18 1_555 1_555
C19 C18 1_555 1_555
C20 C19 1_555 1_555
H20 C20 1_555 1_555
C21 C20 1_555 1_555
H21 C21 1_555 1_555
C22 C21 1_555 1_555
H22 C22 1_555 1_555
C23 C22 1_555 1_555
H23 C23 1_555 1_555
C24 C19 1_555 1_555
H24 C24 1_555 1_555
B1 N1 1_555 1_555
N2 C31 1_555 1_555
C25 C26 1_555 1_555
C26 C27 1_555 1_555
C27 H25 1_555 1_555
C28 C27 1_555 1_555
H26 C28 1_555 1_555
C29 C28 1_555 1_555
H27 C29 1_555 1_555
C30 C29 1_555 1_555
H28 C30 1_555 1_555
C31 C26 1_555 1_555
C32 N2 1_555 1_555
H29 C32 1_555 1_555
H30 C32 1_555 1_555
H31 C32 1_555 1_555
C33 C34 1_555 1_555
C34 C35 1_555 1_555
C35 H32 1_555 1_555
C36 C35 1_555 1_555
C37 C36 1_555 1_555
H33 C37 1_555 1_555
C38 C33 1_555 1_555
C39 C38 1_555 1_555
H34 C39 1_555 1_555
H35 C39 1_555 1_555
H36 C39 1_555 1_555
C40 C34 1_555 1_555
H37 C40 1_555 1_555
H38 C40 1_555 1_555
H39 C40 1_555 1_555
C41 C36 1_555 1_555
H40 C41 1_555 1_555
H41 C41 1_555 1_555
H42 C41 1_555 1_555
C42 C25 1_555 1_555
H43 C42 1_555 1_555
C43 C42 1_555 1_555
C44 C43 1_555 1_555
H44 C44 1_555 1_555
C45 C44 1_555 1_555
H45 C45 1_555 1_555
C46 C45 1_555 1_555
H46 C46 1_555 1_555
C47 C46 1_555 1_555
H47 C47 1_555 1_555
C48 C43 1_555 1_555
H48 C48 1_555 1_555
B2 N2 1_555 1_555
C1 B1 1_555 1_555
C6 C7 1_555 1_555
C9 B1 1_555 1_555
C13 C14 1_555 1_555
C23 C24 1_555 1_555
C25 B2 1_555 1_555
C30 C31 1_555 1_555
C33 B2 1_555 1_555
C37 C38 1_555 1_555
C47 C48 1_555 1_555

#END
