
#######################################################################
#
#                 Cambridge Crystallographic Data Centre
#                                CCDC 
#
#######################################################################
#
# If this CIF has been generated from an entry in the Cambridge 
# Structural Database, then it will include bibliographic, chemical, 
# crystal, experimental, refinement or atomic coordinate data resulting 
# from the CCDC's data processing and validation procedures.
#
#######################################################################

data_BEVNAR
_chemical_formula_moiety         'C14 H20 N4 S1'
_chemical_name_systematic        
p-Aminobenzaldehyde-cyclohexylthiosemicarbazone
_symmetry_cell_setting           monoclinic
_symmetry_space_group_name_H-M   'C 2/c'
_symmetry_Int_Tables_number      15
_space_group_name_Hall           '-C 2yn'
loop_
_symmetry_equiv_pos_site_id
_symmetry_equiv_pos_as_xyz
1 x,y,z
2 1/2+x,1/2+y,z
3 -x,y,1/2-z
4 1/2-x,1/2+y,1/2-z
5 -x,-y,-z
6 1/2-x,1/2-y,-z
7 x,-y,1/2+z
8 1/2+x,1/2-y,1/2+z
_cell_length_a                   12.488(2)
_cell_length_b                   12.276(4)
_cell_length_c                   19.997(6)
_cell_angle_alpha                90
_cell_angle_beta                 103.55(3)
_cell_angle_gamma                90
_cell_volume                     2980.27
_cell_formula_units_Z            8
loop_
_atom_site_label
_atom_site_type_symbol
_atom_site_fract_x
_atom_site_fract_y
_atom_site_fract_z
S1 S -0.26230 0.07215 -0.00213
N1 N -0.08550 0.01520 0.09610
N2 N -0.10570 0.19600 0.07000
N3 N -0.01630 0.21960 0.12360
N4 N 0.32360 0.51640 0.34580
C1 C 0.24980 0.46610 0.29090
C2 C 0.21130 0.36040 0.29870
C3 C 0.13790 0.31120 0.24490
C4 C 0.10170 0.36310 0.18150
C5 C 0.14350 0.46660 0.17370
C6 C 0.21600 0.51690 0.22750
C7 C 0.01680 0.31830 0.12530
C8 C -0.14410 0.09350 0.05880
C9 C -0.11470 -0.10090 0.09270
C10 C -0.08310 -0.14730 0.16460
C11 C -0.11430 -0.26760 0.16340
C12 C -0.05990 -0.33080 0.11660
C13 C -0.08550 -0.28430 0.04550
C14 C -0.06010 -0.16220 0.04420
H1 H -0.02600 0.03200 0.12100
H2 H -0.15700 0.25500 0.04100
H3 H 0.30900 0.49400 0.38700
H4 H 0.33400 0.59600 0.34200
H5 H 0.23200 0.32200 0.34400
H6 H 0.09700 0.23600 0.24800
H7 H 0.11900 0.50300 0.12900
H8 H 0.25100 0.58900 0.22600
H9 H -0.02300 0.37200 0.08500
H10 H -0.19400 -0.10300 0.07500
H11 H -0.12600 -0.10900 0.19500
H12 H 0.00300 -0.14400 0.18200
H13 H -0.20700 -0.27000 0.14200
H14 H -0.10000 -0.29900 0.21500
H15 H 0.02300 -0.32500 0.13600
H16 H -0.09000 -0.40500 0.12100
H17 H -0.04600 -0.31600 0.01600
H18 H -0.16900 -0.30700 0.02300
H19 H 0.02500 -0.15600 0.06500
H20 H -0.09000 -0.12700 -0.00500
loop_
_geom_bond_atom_site_label_1
_geom_bond_atom_site_label_2
_geom_bond_site_symmetry_1
_geom_bond_site_symmetry_2
S1 C8 1_555 1_555
N1 C8 1_555 1_555
N2 N3 1_555 1_555
N3 C7 1_555 1_555
N4 C1 1_555 1_555
C1 C2 1_555 1_555
C2 C3 1_555 1_555
C3 C4 1_555 1_555
C4 C5 1_555 1_555
C5 C6 1_555 1_555
C6 C1 1_555 1_555
C7 C4 1_555 1_555
C8 N2 1_555 1_555
C9 N1 1_555 1_555
C10 C9 1_555 1_555
C11 C10 1_555 1_555
C12 C11 1_555 1_555
C13 C12 1_555 1_555
C14 C9 1_555 1_555
H1 N1 1_555 1_555
H2 N2 1_555 1_555
H3 N4 1_555 1_555
H4 N4 1_555 1_555
H5 C2 1_555 1_555
H6 C3 1_555 1_555
H7 C5 1_555 1_555
H8 C6 1_555 1_555
H9 C7 1_555 1_555
H10 C9 1_555 1_555
H11 C10 1_555 1_555
H12 C10 1_555 1_555
H13 C11 1_555 1_555
H14 C11 1_555 1_555
H15 C12 1_555 1_555
H16 C12 1_555 1_555
H17 C13 1_555 1_555
H18 C13 1_555 1_555
H19 C14 1_555 1_555
H20 C14 1_555 1_555
C13 C14 1_555 1_555

#END
