
#######################################################################
#
#                 Cambridge Crystallographic Data Centre
#                                CCDC 
#
#######################################################################
#
# If this CIF has been generated from an entry in the Cambridge 
# Structural Database, then it will include bibliographic, chemical, 
# crystal, experimental, refinement or atomic coordinate data resulting 
# from the CCDC's data processing and validation procedures.
#
#######################################################################

data_BEVZAG
_chemical_formula_moiety         'C18 H18 N3 P1 Se1'
_chemical_name_systematic        
2,2',2''-phosphoroselenoyltris(4-methylpyridine)
_symmetry_cell_setting           monoclinic
_symmetry_space_group_name_H-M   'P 21/n'
_symmetry_Int_Tables_number      14
_space_group_name_Hall           '-P 2yn'
loop_
_symmetry_equiv_pos_site_id
_symmetry_equiv_pos_as_xyz
1 x,y,z
2 1/2-x,1/2+y,1/2-z
3 -x,-y,-z
4 1/2+x,1/2-y,1/2+z
_cell_length_a                   14.154(3)
_cell_length_b                   8.4907(19)
_cell_length_c                   30.189(7)
_cell_angle_alpha                90
_cell_angle_beta                 97.841(4)
_cell_angle_gamma                90
_cell_volume                     3594.11
_exptl_crystal_colour            colorless
_exptl_crystal_description       Plate
_cell_formula_units_Z            8
loop_
_atom_site_label
_atom_site_type_symbol
_atom_site_fract_x
_atom_site_fract_y
_atom_site_fract_z
C1 C 0.1616(3) 1.1012(5) 0.11825(14)
C2 C 0.0972(3) 1.1603(6) 0.08399(15)
H1 H 0.0781 1.1000 0.0586
C3 C 0.0610(3) 1.3121(6) 0.08784(17)
C4 C 0.0941(4) 1.3947(6) 0.12628(19)
H2 H 0.0738 1.4974 0.1300
C5 C 0.1570(4) 1.3246(7) 0.15874(19)
H3 H 0.1767 1.3817 0.1846
C6 C 0.3813(4) 0.8675(6) 0.07887(16)
H4 H 0.3445 0.8148 0.0556
C7 C -0.0098(4) 1.3833(8) 0.0512(2)
H5 H -0.0733 1.3710 0.0586
H6 H -0.0050 1.3307 0.0234
H7 H 0.0039 1.4933 0.0483
C8 C 0.3401(3) 0.9258(6) 0.11444(15)
C9 C 0.4807(4) 1.0266(8) 0.1467(2)
H8 H 0.5161 1.0825 0.1697
C10 C 0.5272(4) 0.9713(8) 0.1128(2)
H9 H 0.5920 0.9903 0.1133
C11 C 0.4784(4) 0.8887(6) 0.07832(18)
C12 C 0.5277(5) 0.8244(9) 0.0408(2)
H10 H 0.5816 0.8895 0.0372
H11 H 0.4839 0.8240 0.0136
H12 H 0.5490 0.7188 0.0479
C13 C 0.1959(3) 0.8183(5) 0.16969(15)
C14 C 0.1091(3) 0.8378(6) 0.18558(16)
H13 H 0.0615 0.8980 0.1694
C15 C 0.0933(4) 0.7688(6) 0.22505(16)
C16 C 0.1668(4) 0.6822(6) 0.24812(16)
H14 H 0.1599 0.6341 0.2752
C17 C 0.2506(4) 0.6690(7) 0.22990(17)
H15 H 0.2997 0.6109 0.2458
C18 C -0.0018(5) 0.7869(10) 0.2430(2)
H16 H -0.0396 0.8654 0.2259
H17 H 0.0095 0.8186 0.2738
H18 H -0.0352 0.6882 0.2406
N1 N 0.1923(3) 1.1786(5) 0.15569(14)
N2 N 0.3876(3) 1.0054(6) 0.14877(14)
N3 N 0.2668(3) 0.7327(5) 0.19143(14)
P1 P 0.21155(8) 0.90108(15) 0.11545(4)
Se1 Se 0.14448(4) 0.76768(7) 0.061396(17)
C19 C 0.5680(3) 0.4331(6) 0.11765(14)
C20 C 0.5012(3) 0.3802(6) 0.08339(16)
H19 H 0.5204 0.3261 0.0593
C21 C 0.4044(3) 0.4084(6) 0.08504(17)
C22 C 0.3821(4) 0.4915(7) 0.12170(19)
H20 H 0.3190 0.5155 0.1242
C23 C 0.4538(4) 0.5382(8) 0.1544(2)
H21 H 0.4365 0.5909 0.1790
C24 C 0.3290(4) 0.3526(9) 0.0494(2)
H22 H 0.2823 0.2933 0.0626
H23 H 0.3571 0.2870 0.0288
H24 H 0.2988 0.4416 0.0337
C25 C 0.7474(3) 0.3179(6) 0.16750(15)
C26 C 0.8429(3) 0.3431(6) 0.18260(16)
H25 H 0.8794 0.4062 0.1664
C27 C 0.8835(4) 0.2732(6) 0.22218(17)
C28 C 0.8249(4) 0.1816(7) 0.24482(17)
H26 H 0.8487 0.1335 0.2717
C29 C 0.7316(4) 0.1631(7) 0.22704(18)
H27 H 0.6936 0.1006 0.2428
C30 C 0.9878(5) 0.2966(10) 0.2399(3)
H28 H 1.0223 0.2015 0.2360
H29 H 0.9941 0.3225 0.2712
H30 H 1.0132 0.3809 0.2239
C31 C 0.7475(3) 0.6000(6) 0.11456(14)
C32 C 0.7817(3) 0.6600(6) 0.07732(16)
H31 H 0.7794 0.5996 0.0515
C33 C 0.8197(4) 0.8118(7) 0.07869(18)
C34 C 0.8219(4) 0.8934(7) 0.1178(2)
H32 H 0.8470 0.9947 0.1202
C35 C 0.7868(5) 0.8251(7) 0.15353(19)
H33 H 0.7892 0.8836 0.1797
C36 C 0.8586(5) 0.8807(8) 0.0381(2)
H34 H 0.8400 0.9892 0.0346
H35 H 0.8334 0.8228 0.0118
H36 H 0.9269 0.8734 0.0424
N4 N 0.5472(3) 0.5129(6) 0.15314(15)
N5 N 0.6907(3) 0.2273(5) 0.18898(15)
N6 N 0.7494(3) 0.6800(5) 0.15317(14)
P2 P 0.69504(8) 0.40240(15) 0.11412(4)
Se2 Se 0.72047(4) 0.26736(7) 0.058443(17)
loop_
_geom_bond_atom_site_label_1
_geom_bond_atom_site_label_2
_geom_bond_site_symmetry_1
_geom_bond_site_symmetry_2
C1 C2 1_555 1_555
C2 H1 1_555 1_555
C3 C2 1_555 1_555
C4 C3 1_555 1_555
H2 C4 1_555 1_555
C5 C4 1_555 1_555
H3 C5 1_555 1_555
C6 H4 1_555 1_555
C7 C3 1_555 1_555
H5 C7 1_555 1_555
H6 C7 1_555 1_555
H7 C7 1_555 1_555
C8 C6 1_555 1_555
C9 H8 1_555 1_555
C10 C9 1_555 1_555
H9 C10 1_555 1_555
C11 C6 1_555 1_555
C12 C11 1_555 1_555
H10 C12 1_555 1_555
H11 C12 1_555 1_555
H12 C12 1_555 1_555
C13 C14 1_555 1_555
C14 H13 1_555 1_555
C15 C14 1_555 1_555
C16 C15 1_555 1_555
H14 C16 1_555 1_555
C17 C16 1_555 1_555
H15 C17 1_555 1_555
C18 C15 1_555 1_555
H16 C18 1_555 1_555
H17 C18 1_555 1_555
H18 C18 1_555 1_555
N1 C1 1_555 1_555
N2 C8 1_555 1_555
N3 C13 1_555 1_555
P1 C1 1_555 1_555
Se1 P1 1_555 1_555
C19 C20 1_555 1_555
C20 H19 1_555 1_555
C21 C20 1_555 1_555
C22 C21 1_555 1_555
H20 C22 1_555 1_555
C23 C22 1_555 1_555
H21 C23 1_555 1_555
C24 C21 1_555 1_555
H22 C24 1_555 1_555
H23 C24 1_555 1_555
H24 C24 1_555 1_555
C25 C26 1_555 1_555
C26 H25 1_555 1_555
C27 C26 1_555 1_555
C28 C27 1_555 1_555
H26 C28 1_555 1_555
C29 C28 1_555 1_555
H27 C29 1_555 1_555
C30 C27 1_555 1_555
H28 C30 1_555 1_555
H29 C30 1_555 1_555
H30 C30 1_555 1_555
C31 C32 1_555 1_555
C32 H31 1_555 1_555
C33 C32 1_555 1_555
C34 C33 1_555 1_555
H32 C34 1_555 1_555
C35 C34 1_555 1_555
H33 C35 1_555 1_555
C36 C33 1_555 1_555
H34 C36 1_555 1_555
H35 C36 1_555 1_555
H36 C36 1_555 1_555
N4 C19 1_555 1_555
N5 C25 1_555 1_555
N6 C31 1_555 1_555
P2 C19 1_555 1_555
Se2 P2 1_555 1_555
C5 N1 1_555 1_555
C8 P1 1_555 1_555
C9 N2 1_555 1_555
C10 C11 1_555 1_555
C13 P1 1_555 1_555
C17 N3 1_555 1_555
C23 N4 1_555 1_555
C25 P2 1_555 1_555
C29 N5 1_555 1_555
C31 P2 1_555 1_555
C35 N6 1_555 1_555

#END
