
#######################################################################
#
#                 Cambridge Crystallographic Data Centre
#                                CCDC 
#
#######################################################################
#
# If this CIF has been generated from an entry in the Cambridge 
# Structural Database, then it will include bibliographic, chemical, 
# crystal, experimental, refinement or atomic coordinate data resulting 
# from the CCDC's data processing and validation procedures.
#
#######################################################################

data_BEWBUC
_chemical_formula_moiety         'C26 H26 O2'
_chemical_name_systematic        2,2'-Dipropoxy-1,1'-binaphthalene
_symmetry_cell_setting           orthorhombic
_symmetry_space_group_name_H-M   'P 21 21 21'
_symmetry_Int_Tables_number      19
_space_group_name_Hall           'P 2ac 2ab'
loop_
_symmetry_equiv_pos_site_id
_symmetry_equiv_pos_as_xyz
1 x,y,z
2 1/2-x,-y,1/2+z
3 1/2+x,1/2-y,-z
4 -x,1/2+y,1/2-z
_cell_length_a                   7.7428(10)
_cell_length_b                   11.7870(16)
_cell_length_c                   21.658(3)
_cell_angle_alpha                90
_cell_angle_beta                 90
_cell_angle_gamma                90
_cell_volume                     1976.6
_exptl_crystal_colour            colorless
_exptl_crystal_description       Block
_cell_formula_units_Z            4
loop_
_atom_site_label
_atom_site_type_symbol
_atom_site_fract_x
_atom_site_fract_y
_atom_site_fract_z
C1 C 0.87209(18) -0.12943(11) 0.40915(6)
C2 C 0.87728(18) -0.17972(12) 0.46719(6)
C3 C 0.89919(18) -0.29869(12) 0.47374(7)
H1 H 0.9040 -0.3319 0.5137
C4 C 0.9133(2) -0.36541(12) 0.42228(7)
H2 H 0.9260 -0.4451 0.4271
C5 C 0.9283(2) -0.38670(13) 0.30822(7)
H3 H 0.9415 -0.4665 0.3124
C6 C 0.9277(2) -0.33957(14) 0.25060(7)
H4 H 0.9408 -0.3862 0.2151
C7 C 0.90721(19) -0.22073(13) 0.24403(7)
H5 H 0.9066 -0.1880 0.2039
C8 C 0.88839(19) -0.15254(13) 0.29474(7)
H6 H 0.8746 -0.0731 0.2893
C9 C 0.88913(17) -0.19880(12) 0.35572(6)
C10 C 0.90957(18) -0.31889(12) 0.36205(7)
O1 O 0.85974(14) -0.10777(9) 0.51615(4)
C11 C 0.8702(2) -0.15329(12) 0.57767(6)
H7 H 0.9826 -0.1914 0.5842
H8 H 0.7766 -0.2090 0.5848
C12 C 0.8513(2) -0.05291(13) 0.62083(7)
H9 H 0.8379 -0.0812 0.6636
H10 H 0.7450 -0.0108 0.6099
C13 C 1.0041(2) 0.02822(15) 0.61855(8)
H11 H 1.1067 -0.0094 0.6353
H12 H 0.9781 0.0958 0.6432
H13 H 1.0260 0.0505 0.5757
C14 C 0.85158(19) -0.00390(11) 0.40366(6)
C15 C 0.70064(18) 0.04137(12) 0.37977(6)
C16 C 0.6794(2) 0.16022(13) 0.37289(7)
H14 H 0.5744 0.1899 0.3570
C17 C 0.8103(2) 0.23201(13) 0.38916(7)
H15 H 0.7950 0.3115 0.3843
C18 C 1.1055(2) 0.26453(13) 0.42945(7)
H16 H 1.0910 0.3441 0.4249
C19 C 1.2583(2) 0.22304(14) 0.45170(7)
H17 H 1.3498 0.2734 0.4619
C20 C 1.2791(2) 0.10499(14) 0.45935(7)
H18 H 1.3850 0.0762 0.4750
C21 C 1.14850(19) 0.03107(13) 0.44459(6)
H19 H 1.1653 -0.0481 0.4503
C22 C 0.98850(19) 0.07110(12) 0.42082(6)
C23 C 0.9678(2) 0.19043(12) 0.41303(6)
O2 O 0.57167(13) -0.03374(9) 0.36474(5)
C24 C 0.4518(2) 0.00108(14) 0.31746(7)
H20 H 0.5153 0.0262 0.2802
H21 H 0.3804 0.0651 0.3324
C25 C 0.3382(2) -0.09914(15) 0.30211(8)
H22 H 0.2512 -0.0750 0.2713
H23 H 0.2755 -0.1223 0.3399
C26 C 0.4346(2) -0.20139(14) 0.27686(8)
H24 H 0.5029 -0.1785 0.2409
H25 H 0.3515 -0.2599 0.2646
H26 H 0.5116 -0.2317 0.3088
loop_
_geom_bond_atom_site_label_1
_geom_bond_atom_site_label_2
_geom_bond_site_symmetry_1
_geom_bond_site_symmetry_2
C1 C2 1_555 1_555
C2 C3 1_555 1_555
C3 H1 1_555 1_555
C4 C3 1_555 1_555
H2 C4 1_555 1_555
C5 H3 1_555 1_555
C6 C5 1_555 1_555
H4 C6 1_555 1_555
C7 C6 1_555 1_555
H5 C7 1_555 1_555
C8 C7 1_555 1_555
H6 C8 1_555 1_555
C9 C1 1_555 1_555
C10 C4 1_555 1_555
O1 C2 1_555 1_555
C11 O1 1_555 1_555
H7 C11 1_555 1_555
H8 C11 1_555 1_555
C12 C11 1_555 1_555
H9 C12 1_555 1_555
H10 C12 1_555 1_555
C13 C12 1_555 1_555
H11 C13 1_555 1_555
H12 C13 1_555 1_555
H13 C13 1_555 1_555
C14 C1 1_555 1_555
C15 C14 1_555 1_555
C16 C15 1_555 1_555
H14 C16 1_555 1_555
C17 C16 1_555 1_555
H15 C17 1_555 1_555
C18 H16 1_555 1_555
C19 C18 1_555 1_555
H17 C19 1_555 1_555
C20 C19 1_555 1_555
H18 C20 1_555 1_555
C21 C20 1_555 1_555
H19 C21 1_555 1_555
C22 C14 1_555 1_555
C23 C17 1_555 1_555
O2 C15 1_555 1_555
C24 O2 1_555 1_555
H20 C24 1_555 1_555
H21 C24 1_555 1_555
C25 C24 1_555 1_555
H22 C25 1_555 1_555
H23 C25 1_555 1_555
C26 C25 1_555 1_555
H24 C26 1_555 1_555
H25 C26 1_555 1_555
H26 C26 1_555 1_555
C5 C10 1_555 1_555
C8 C9 1_555 1_555
C9 C10 1_555 1_555
C18 C23 1_555 1_555
C21 C22 1_555 1_555
C22 C23 1_555 1_555

#END
