
#######################################################################
#
#                 Cambridge Crystallographic Data Centre
#                                CCDC 
#
#######################################################################
#
# If this CIF has been generated from an entry in the Cambridge 
# Structural Database, then it will include bibliographic, chemical, 
# crystal, experimental, refinement or atomic coordinate data resulting 
# from the CCDC's data processing and validation procedures.
#
#######################################################################

data_BEWDUD
_chemical_formula_moiety         'C22 H17 N3'
_chemical_name_systematic        
rac-trans-2,3-dihydro-2,3-bis(pyrid-4-yl)benzo(e)indole
_symmetry_cell_setting           orthorhombic
_symmetry_space_group_name_H-M   'P c a 21'
_symmetry_Int_Tables_number      29
_space_group_name_Hall           'P 2c -2ac'
loop_
_symmetry_equiv_pos_site_id
_symmetry_equiv_pos_as_xyz
1 x,y,z
2 -x,-y,1/2+z
3 1/2+x,-y,z
4 1/2-x,y,1/2+z
_cell_length_a                   10.671(2)
_cell_length_b                   15.145(3)
_cell_length_c                   9.9724(18)
_cell_angle_alpha                90
_cell_angle_beta                 90
_cell_angle_gamma                90
_cell_volume                     1611.66
_exptl_crystal_colour            'pale yellow'
_exptl_crystal_description       block
_cell_formula_units_Z            4
_exptl_crystal_recrystallization_method toluene
loop_
_atom_site_label
_atom_site_type_symbol
_atom_site_fract_x
_atom_site_fract_y
_atom_site_fract_z
C1 C 0.2805(3) 0.2810(2) 0.8997(3)
H1 H 0.2925 0.2895 0.9963
C2 C 0.0889(3) 0.2402(2) 0.7976(3)
C3 C 0.1857(3) 0.2093(2) 0.8771(3)
C4 C 0.4062(3) 0.2642(2) 0.8342(3)
C5 C 0.1898(3) 0.1202(2) 0.9171(3)
C6 C 0.2856(3) 0.0857(2) 1.0020(3)
H2 H 0.3487 0.1227 1.0332
C7 C 0.0922(3) 0.0637(2) 0.8756(3)
C8 C 0.4175(3) 0.2171(2) 0.7152(4)
H3 H 0.3472 0.1920 0.6755
C9 C 0.2371(3) 0.5023(2) 0.9786(4)
H4 H 0.3098 0.5150 0.9310
C10 C 0.2121(3) 0.3643(2) 0.8394(3)
H5 H 0.2700 0.3956 0.7797
N1 N 0.1085(3) 0.3274(2) 0.7593(3)
H6 H 0.0670 0.3553 0.6987
C11 C 0.5340(3) 0.2079(2) 0.6564(4)
H7 H 0.5387 0.1767 0.5761
C12 C 0.0987(4) -0.0272(3) 0.9134(4)
H8 H 0.0370 -0.0659 0.8836
C13 C 0.5154(3) 0.2967(3) 0.8881(5)
H9 H 0.5138 0.3277 0.9685
N2 N 0.0960(3) 0.5424(2) 1.1544(3)
C14 C 0.0607(3) 0.4128(2) 1.0220(4)
H10 H 0.0094 0.3647 1.0035
N3 N 0.6387(3) 0.2401(2) 0.7061(3)
C15 C 0.1983(3) 0.5576(2) 1.0795(4)
H11 H 0.2452 0.6081 1.0968
C16 C 0.1929(4) -0.0581(3) 0.9916(4)
H12 H 0.1955 -0.1177 1.0143
C17 C 0.2854(4) -0.0016(2) 1.0381(4)
H13 H 0.3479 -0.0231 1.0943
C18 C 0.1674(3) 0.4273(2) 0.9476(3)
C19 C 0.0307(3) 0.4704(3) 1.1242(4)
H14 H -0.0400 0.4581 1.1754
C20 C -0.0107(3) 0.1845(3) 0.7593(4)
H15 H -0.0779 0.2062 0.7099
C21 C -0.0061(4) 0.0980(3) 0.7963(4)
H16 H -0.0698 0.0603 0.7685
C22 C 0.6266(4) 0.2832(3) 0.8228(5)
H17 H 0.6989 0.3055 0.8622
loop_
_geom_bond_atom_site_label_1
_geom_bond_atom_site_label_2
_geom_bond_site_symmetry_1
_geom_bond_site_symmetry_2
C1 H1 1_555 1_555
C2 C3 1_555 1_555
C3 C1 1_555 1_555
C4 C1 1_555 1_555
C5 C3 1_555 1_555
C6 C5 1_555 1_555
H2 C6 1_555 1_555
C7 C5 1_555 1_555
C8 C4 1_555 1_555
H3 C8 1_555 1_555
C9 H4 1_555 1_555
C10 C1 1_555 1_555
H5 C10 1_555 1_555
N1 C2 1_555 1_555
H6 N1 1_555 1_555
C11 C8 1_555 1_555
H7 C11 1_555 1_555
C12 C7 1_555 1_555
H8 C12 1_555 1_555
C13 C4 1_555 1_555
H9 C13 1_555 1_555
N2 C15 1_555 1_555
C14 H10 1_555 1_555
N3 C11 1_555 1_555
C15 C9 1_555 1_555
H11 C15 1_555 1_555
C16 C12 1_555 1_555
H12 C16 1_555 1_555
C17 C6 1_555 1_555
H13 C17 1_555 1_555
C18 C9 1_555 1_555
C19 N2 1_555 1_555
H14 C19 1_555 1_555
C20 C2 1_555 1_555
H15 C20 1_555 1_555
C21 C7 1_555 1_555
H16 C21 1_555 1_555
C22 C13 1_555 1_555
H17 C22 1_555 1_555
C10 N1 1_555 1_555
C10 C18 1_555 1_555
C14 C18 1_555 1_555
C14 C19 1_555 1_555
N3 C22 1_555 1_555
C16 C17 1_555 1_555
C20 C21 1_555 1_555

#END
