
#######################################################################
#
#                 Cambridge Crystallographic Data Centre
#                                CCDC 
#
#######################################################################
#
# If this CIF has been generated from an entry in the Cambridge 
# Structural Database, then it will include bibliographic, chemical, 
# crystal, experimental, refinement or atomic coordinate data resulting 
# from the CCDC's data processing and validation procedures.
#
#######################################################################

data_BEWFOZ
_chemical_formula_moiety         'C24 H22 N2 O5'
_chemical_name_systematic        
"(3-amino-2-ethoxycarbonyl-1-(pyrid-4-yl)-1H-naphtho(2,1-b)pyran)-2'-methylacetic acid"
_symmetry_cell_setting           monoclinic
_symmetry_space_group_name_H-M   'P 21'
_symmetry_Int_Tables_number      4
_space_group_name_Hall           'P 2yb'
loop_
_symmetry_equiv_pos_site_id
_symmetry_equiv_pos_as_xyz
1 x,y,z
2 -x,1/2+y,-z
_cell_length_a                   8.562(2)
_cell_length_b                   9.520(2)
_cell_length_c                   25.861(6)
_cell_angle_alpha                90
_cell_angle_beta                 93.012(5)
_cell_angle_gamma                90
_cell_volume                     2105.02
_exptl_crystal_colour            colorless
_exptl_crystal_description       needle
_cell_formula_units_Z            4
_exptl_crystal_recrystallization_method ethanol
loop_
_atom_site_label
_atom_site_type_symbol
_atom_site_fract_x
_atom_site_fract_y
_atom_site_fract_z
C1 C 0.7929(6) 0.8032(6) 0.46173(18)
O1 O 1.1368(5) 0.6885(4) 0.39292(15)
C2 C 0.9089(6) 0.8009(6) 0.42378(18)
C3 C 0.8006(6) 0.7011(6) 0.50152(19)
C4 C 0.9158(5) 0.9084(6) 0.38146(17)
H1 H 0.8868 0.9994 0.3958
C5 C 1.0185(6) 0.6985(6) 0.4277(2)
C6 C 1.0830(6) 0.9209(6) 0.36367(19)
C7 C 0.6895(6) 0.7017(7) 0.53928(19)
H2 H 0.6955 0.6340 0.5652
C8 C 0.5650(6) 0.9002(7) 0.4998(2)
H3 H 0.4878 0.9690 0.4994
O2 O 1.0352(5) 1.1477(5) 0.33758(17)
C9 C 0.9191(6) 0.5974(7) 0.5014(2)
H4 H 0.9236 0.5302 0.5276
C10 C 0.5711(6) 0.8003(6) 0.53903(17)
O3 O 1.2678(5) 1.0589(5) 0.32265(17)
C11 C 0.8009(6) 0.8759(6) 0.33612(17)
C12 C 1.0256(7) 0.5924(7) 0.4649(2)
H5 H 1.1003 0.5215 0.4646
C13 C 0.6712(7) 0.8995(6) 0.46148(18)
H6 H 0.6609 0.9650 0.4349
C14 C 0.4533(6) 0.7972(7) 0.58077(19)
H7 H 0.4641 0.7056 0.5979
N1 N 0.6135(6) 0.8141(7) 0.24828(18)
C15 C 1.1782(7) 0.8075(7) 0.3682(2)
C16 C 0.7015(6) 0.9755(7) 0.31467(19)
H8 H 0.6958 1.0652 0.3287
C17 C 1.1423(8) 1.0439(7) 0.3405(2)
C18 C 0.7051(8) 0.7174(9) 0.2696(2)
H9 H 0.7067 0.6283 0.2549
O4 O 0.4374(5) 0.8747(6) 0.66564(15)
C19 C 0.2852(7) 0.8084(9) 0.5601(2)
H10 H 0.2170 0.8042 0.5883
H11 H 0.2617 0.7321 0.5367
H12 H 0.2701 0.8960 0.5421
N2 N 1.3190(6) 0.7919(7) 0.35010(19)
H13 H 1.3601 0.8590 0.3332
H14 H 1.3694 0.7146 0.3553
C20 C 0.7991(7) 0.7456(7) 0.3134(2)
H15 H 0.8623 0.6749 0.3278
C21 C 0.4859(7) 0.9059(9) 0.6217(2)
C22 C 0.6077(7) 0.9360(8) 0.2701(2)
H16 H 0.5380 1.0018 0.2557
C23 C 0.9806(13) 1.3677(12) 0.3095(5)
H17 H 1.0195 1.4531 0.2952
H18 H 0.9397 1.3868 0.3426
H19 H 0.8990 1.3303 0.2866
O5 O 0.5452(8) 1.0161(7) 0.6146(2)
C24 C 1.0901(11) 1.2797(10) 0.3148(4)
H20 H 1.1921 1.2957 0.3055
O6 O 0.8882(5) 0.5777(4) 0.09058(15)
C25 C 1.3552(5) 0.4747(6) -0.04709(18)
H21 H 1.3541 0.5256 -0.0778
C26 C 1.1167(6) 0.4483(5) 0.07021(17)
C27 C 1.2395(6) 0.5029(5) -0.01106(18)
C28 C 1.2374(5) 0.4250(5) 0.03533(17)
C29 C 1.0140(6) 0.6345(6) 0.0156(2)
H22 H 0.9409 0.7060 0.0102
C30 C 1.0129(6) 0.5504(6) 0.0592(2)
C31 C 1.1000(6) 0.3526(6) 0.11687(18)
H23 H 1.1229 0.2560 0.1066
C32 C 1.3569(6) 0.3231(5) 0.04442(19)
H24 H 1.3595 0.2707 0.0748
C33 C 0.9327(6) 0.3594(7) 0.1326(2)
O7 O 0.9713(6) 0.1359(5) 0.16718(16)
C34 C 1.6002(5) 0.3449(5) -0.07251(17)
H25 H 1.6281 0.2455 -0.0686
N3 N 1.4142(6) 0.4591(7) 0.24811(18)
C35 C 1.4687(6) 0.3743(6) -0.03785(17)
C36 C 1.1260(6) 0.6095(6) -0.0195(2)
H26 H 1.1270 0.6637 -0.0494
O8 O 1.4800(5) 0.2659(5) -0.15087(14)
C37 C 1.3163(6) 0.2965(8) 0.1838(2)
H27 H 1.3212 0.2065 0.1701
C38 C 1.4674(6) 0.3008(6) 0.00951(18)
H28 H 1.5452 0.2347 0.0171
C39 C 1.2130(6) 0.3935(6) 0.16177(18)
O9 O 0.7423(6) 0.2384(6) 0.18110(19)
C40 C 0.8719(8) 0.2450(8) 0.1623(2)
N4 N 0.6971(5) 0.4967(7) 0.13835(19)
H29 H 0.6540 0.4371 0.1581
H30 H 0.6484 0.5723 0.1291
C41 C 1.7455(6) 0.4322(8) -0.0561(2)
H31 H 1.7741 0.4145 -0.0203
H32 H 1.7225 0.5302 -0.0608
H33 H 1.8305 0.4065 -0.0769
C42 C 0.8409(6) 0.4716(8) 0.1219(2)
C43 C 1.2136(7) 0.5247(6) 0.1844(2)
H34 H 1.1473 0.5944 0.1708
C44 C 1.4118(7) 0.3328(9) 0.2260(2)
H35 H 1.4793 0.2647 0.2401
C45 C 1.3111(7) 0.5523(8) 0.2265(2)
H36 H 1.3062 0.6410 0.2414
C46 C 1.0334(15) -0.0898(12) 0.1946(4)
H37 H 1.0000 -0.1694 0.2139
H38 H 1.1315 -0.0562 0.2095
H39 H 1.0457 -0.1169 0.1593
C47 C 0.9230(11) 0.0153(9) 0.1962(3)
H40 H 0.9097 0.0422 0.2319
H41 H 0.8233 -0.0189 0.1818
C48 C 1.5513(7) 0.3694(8) -0.1286(2)
O10 O 1.5766(6) 0.4761(6) -0.15125(17)
loop_
_geom_bond_atom_site_label_1
_geom_bond_atom_site_label_2
_geom_bond_site_symmetry_1
_geom_bond_site_symmetry_2
C1 C2 1_555 1_555
O1 C5 1_555 1_555
C2 C4 1_555 1_555
C3 C1 1_555 1_555
C4 H1 1_555 1_555
C5 C2 1_555 1_555
C6 C4 1_555 1_555
C7 C3 1_555 1_555
H2 C7 1_555 1_555
C8 H3 1_555 1_555
O2 C17 1_555 1_555
C9 C3 1_555 1_555
H4 C9 1_555 1_555
C10 C7 1_555 1_555
O3 C17 1_555 1_555
C11 C4 1_555 1_555
C12 C5 1_555 1_555
H5 C12 1_555 1_555
C13 C1 1_555 1_555
H6 C13 1_555 1_555
C14 C10 1_555 1_555
H7 C14 1_555 1_555
N1 C18 1_555 1_555
C15 O1 1_555 1_555
C16 C11 1_555 1_555
H8 C16 1_555 1_555
C17 C6 1_555 1_555
C18 H9 1_555 1_555
O4 C21 1_555 1_555
C19 C14 1_555 1_555
H10 C19 1_555 1_555
H11 C19 1_555 1_555
H12 C19 1_555 1_555
N2 C15 1_555 1_555
H13 N2 1_555 1_555
H14 N2 1_555 1_555
C20 C11 1_555 1_555
H15 C20 1_555 1_555
C21 C14 1_555 1_555
C22 N1 1_555 1_555
H16 C22 1_555 1_555
C23 H17 1_555 1_555
H18 C23 1_555 1_555
H19 C23 1_555 1_555
O5 C21 1_555 1_555
C24 O2 1_555 1_555
H20 C24 1_555 1_555
O6 C30 1_555 1_555
C25 H21 1_555 1_555
C26 C28 1_555 1_555
C27 C25 1_555 1_555
C28 C27 1_555 1_555
C29 H22 1_555 1_555
C30 C26 1_555 1_555
C31 C26 1_555 1_555
H23 C31 1_555 1_555
C32 C28 1_555 1_555
H24 C32 1_555 1_555
C33 C31 1_555 1_555
O7 C40 1_555 1_555
C34 H25 1_555 1_555
N3 C44 1_555 1_555
C35 C25 1_555 1_555
C36 C27 1_555 1_555
H26 C36 1_555 1_555
O8 C48 1_555 1_555
C37 H27 1_555 1_555
C38 C32 1_555 1_555
H28 C38 1_555 1_555
C39 C31 1_555 1_555
O9 C40 1_555 1_555
C40 C33 1_555 1_555
N4 H29 1_555 1_555
H30 N4 1_555 1_555
C41 C34 1_555 1_555
H31 C41 1_555 1_555
H32 C41 1_555 1_555
H33 C41 1_555 1_555
C42 O6 1_555 1_555
C43 C39 1_555 1_555
H34 C43 1_555 1_555
C44 C37 1_555 1_555
H35 C44 1_555 1_555
C45 N3 1_555 1_555
H36 C45 1_555 1_555
C46 H37 1_555 1_555
H38 C46 1_555 1_555
H39 C46 1_555 1_555
C47 O7 1_555 1_555
H40 C47 1_555 1_555
H41 C47 1_555 1_555
C48 C34 1_555 1_555
O10 C48 1_555 1_555
C6 C15 1_555 1_555
C8 C13 1_555 1_555
C8 C10 1_555 1_555
C9 C12 1_555 1_555
C16 C22 1_555 1_555
C18 C20 1_555 1_555
C23 C24 1_555 1_555
C29 C36 1_555 1_555
C29 C30 1_555 1_555
C33 C42 1_555 1_555
C34 C35 1_555 1_555
C35 C38 1_555 1_555
C37 C39 1_555 1_555
N4 C42 1_555 1_555
C43 C45 1_555 1_555
C46 C47 1_555 1_555

#END
