
#######################################################################
#
#                 Cambridge Crystallographic Data Centre
#                                CCDC 
#
#######################################################################
#
# If this CIF has been generated from an entry in the Cambridge 
# Structural Database, then it will include bibliographic, chemical, 
# crystal, experimental, refinement or atomic coordinate data resulting 
# from the CCDC's data processing and validation procedures.
#
#######################################################################

data_BEWFEP
_chemical_formula_moiety         'C24 H17 N3'
_chemical_name_systematic        
trans-2,3-dihydro-2-(pyrid-4-yl)-3-(4-cyanophenyl)benzo(e)indole
_symmetry_cell_setting           orthorhombic
_symmetry_space_group_name_H-M   'P 21 21 21'
_symmetry_Int_Tables_number      19
_space_group_name_Hall           'P 2ac 2ab'
loop_
_symmetry_equiv_pos_site_id
_symmetry_equiv_pos_as_xyz
1 x,y,z
2 1/2-x,-y,1/2+z
3 -x,1/2+y,1/2-z
4 1/2+x,1/2-y,-z
_cell_length_a                   9.0449(16)
_cell_length_b                   11.4354(19)
_cell_length_c                   18.083(3)
_cell_angle_alpha                90
_cell_angle_beta                 90
_cell_angle_gamma                90
_cell_volume                     1870.36
_cell_formula_units_Z            4
loop_
_atom_site_label
_atom_site_type_symbol
_atom_site_fract_x
_atom_site_fract_y
_atom_site_fract_z
C1 C 0.7789(4) 0.0741(3) 0.03549(19)
N1 N 0.7650(4) 0.3965(3) 0.04169(19)
H1 H 0.7643 0.4652 0.0611
C2 C 0.8367(4) 0.1981(3) 0.02895(19)
H2 H 0.9420 0.1985 0.0418
C3 C 0.8169(4) 0.2581(3) -0.0455(2)
C4 C 0.8152(4) 0.2884(4) 0.1589(2)
C5 C 0.8612(4) -0.0106(3) 0.0712(2)
H3 H 0.9508 0.0094 0.0931
C6 C 0.6439(4) 0.0437(3) 0.0049(2)
H4 H 0.5866 0.1006 -0.0181
C7 C 0.6781(5) -0.1543(3) 0.0422(2)
C8 C 0.9010(4) 0.1003(4) -0.1316(2)
H5 H 0.9145 0.0476 -0.0930
C9 C 0.7534(4) 0.2846(3) 0.0814(2)
H6 H 0.6491 0.2618 0.0838
C10 C 0.8298(4) 0.2953(4) -0.1772(2)
C11 C 0.7772(4) 0.3702(3) -0.0330(2)
C12 C 0.8120(5) -0.1242(3) 0.0747(2)
H7 H 0.8681 -0.1807 0.0988
C13 C 0.6298(5) -0.2733(4) 0.0478(2)
C14 C 0.7838(4) 0.4095(4) -0.1617(3)
H8 H 0.7689 0.4602 -0.2012
C15 C 0.8486(4) 0.2146(4) -0.1163(2)
C16 C 0.9318(5) 0.0668(5) -0.2025(3)
H9 H 0.9661 -0.0084 -0.2117
C17 C 0.5937(4) -0.0699(3) 0.0081(2)
H10 H 0.5029 -0.0896 -0.0126
C18 C 0.7599(5) 0.4501(4) -0.0929(3)
H11 H 0.7330 0.5275 -0.0847
C19 C 0.8619(5) 0.2539(5) -0.2490(3)
H12 H 0.8478 0.3037 -0.2891
C20 C 0.7660(5) 0.2101(4) 0.2113(3)
H13 H 0.6916 0.1569 0.2000
N2 N 0.9337(5) 0.2837(5) 0.3027(2)
C21 C 0.9797(6) 0.3586(5) 0.2507(3)
H14 H 1.0538 0.4111 0.2637
N3 N 0.5942(5) -0.3687(3) 0.0542(2)
C22 C 0.9265(5) 0.3641(4) 0.1801(2)
H15 H 0.9647 0.4180 0.1466
C23 C 0.9124(6) 0.1445(5) -0.2613(3)
H16 H 0.9344 0.1207 -0.3092
C24 C 0.8282(7) 0.2118(6) 0.2802(3)
H17 H 0.7933 0.1575 0.3142
loop_
_geom_bond_atom_site_label_1
_geom_bond_atom_site_label_2
_geom_bond_site_symmetry_1
_geom_bond_site_symmetry_2
C1 C2 1_555 1_555
N1 H1 1_555 1_555
C2 H2 1_555 1_555
C3 C2 1_555 1_555
C4 C9 1_555 1_555
C5 C1 1_555 1_555
H3 C5 1_555 1_555
C6 C1 1_555 1_555
H4 C6 1_555 1_555
C7 C12 1_555 1_555
C8 H5 1_555 1_555
C9 N1 1_555 1_555
H6 C9 1_555 1_555
C10 C14 1_555 1_555
C11 N1 1_555 1_555
C12 C5 1_555 1_555
H7 C12 1_555 1_555
C13 C7 1_555 1_555
C14 H8 1_555 1_555
C15 C3 1_555 1_555
C16 C8 1_555 1_555
H9 C16 1_555 1_555
C17 C6 1_555 1_555
H10 C17 1_555 1_555
C18 C11 1_555 1_555
H11 C18 1_555 1_555
C19 C10 1_555 1_555
H12 C19 1_555 1_555
C20 C4 1_555 1_555
H13 C20 1_555 1_555
N2 C21 1_555 1_555
C21 H14 1_555 1_555
N3 C13 1_555 1_555
C22 C4 1_555 1_555
H15 C22 1_555 1_555
C23 C16 1_555 1_555
H16 C23 1_555 1_555
C24 C20 1_555 1_555
H17 C24 1_555 1_555
C2 C9 1_555 1_555
C3 C11 1_555 1_555
C7 C17 1_555 1_555
C8 C15 1_555 1_555
C10 C15 1_555 1_555
C14 C18 1_555 1_555
C19 C23 1_555 1_555
N2 C24 1_555 1_555
C21 C22 1_555 1_555

#END
