
#######################################################################
#
#                 Cambridge Crystallographic Data Centre
#                                CCDC 
#
#######################################################################
#
# If this CIF has been generated from an entry in the Cambridge 
# Structural Database, then it will include bibliographic, chemical, 
# crystal, experimental, refinement or atomic coordinate data resulting 
# from the CCDC's data processing and validation procedures.
#
#######################################################################

data_BEWFIT
_chemical_formula_moiety         'C24 H17 N3,0.5(C7 H8)'
_chemical_name_systematic        
'trans-2,3-dihydro-2-(pyrid-4-yl)-3-(3-cyanophenyl)benzo(e)indole toluene solvate'
_symmetry_cell_setting           monoclinic
_symmetry_space_group_name_H-M   'C c'
_symmetry_Int_Tables_number      9
_space_group_name_Hall           'C -2yc'
loop_
_symmetry_equiv_pos_site_id
_symmetry_equiv_pos_as_xyz
1 x,y,z
2 x,-y,1/2+z
3 1/2+x,1/2+y,z
4 1/2+x,1/2-y,1/2+z
_cell_length_a                   30.497(4)
_cell_length_b                   11.3416(16)
_cell_length_c                   12.5910(17)
_cell_angle_alpha                90
_cell_angle_beta                 102.291(3)
_cell_angle_gamma                90
_cell_volume                     4255.21
_cell_formula_units_Z            8
loop_
_atom_site_label
_atom_site_type_symbol
_atom_site_fract_x
_atom_site_fract_y
_atom_site_fract_z
C1 C 0.28329(9) 0.9158(3) 0.4766(2)
C2 C 0.27706(10) 1.0373(3) 0.4872(2)
C3 C 0.26527(10) 0.8365(3) 0.5377(2)
C4 C 0.30367(10) 0.7192(3) 0.4394(2)
H1 H 0.3329 0.7048 0.4878
C5 C 0.25331(10) 1.0762(3) 0.5670(2)
N1 N 0.26926(10) 0.7204(2) 0.5050(2)
H2 H 0.2544 0.6606 0.5204
C6 C 0.30338(10) 0.8481(3) 0.3945(2)
H3 H 0.2823 0.8516 0.3239
C7 C 0.23713(10) 0.9917(3) 0.6315(2)
H4 H 0.2226 1.0173 0.6852
C8 C 0.29611(10) 0.6266(3) 0.3523(2)
C9 C 0.29119(11) 1.1244(3) 0.4211(3)
H5 H 0.3066 1.1016 0.3681
C10 C 0.34915(10) 0.8849(3) 0.3789(2)
N2 N 0.28348(12) 0.4591(3) 0.1854(2)
C11 C 0.24553(12) 1.1977(3) 0.5786(3)
H6 H 0.2306 1.2233 0.6316
C12 C 0.38457(11) 0.8975(3) 0.4670(2)
H7 H 0.3799 0.8875 0.5371
C13 C 0.24222(11) 0.8738(3) 0.6174(2)
H8 H 0.2307 0.8192 0.6595
C14 C 0.25514(12) 0.5751(3) 0.3132(3)
H9 H 0.2304 0.5961 0.3414
C15 C 0.42695(11) 0.9249(3) 0.4513(3)
C16 C 0.35741(13) 0.9004(4) 0.2754(3)
H10 H 0.3341 0.8920 0.2149
C17 C 0.25989(14) 1.2783(4) 0.5120(3)
H11 H 0.2543 1.3581 0.5194
C18 C 0.25100(13) 0.4926(3) 0.2322(3)
H12 H 0.2230 0.4576 0.2086
C19 C 0.28264(14) 1.2413(3) 0.4337(3)
H13 H 0.2922 1.2967 0.3892
C20 C 0.33034(13) 0.5919(4) 0.3026(3)
H14 H 0.3589 0.6237 0.3256
C21 C 0.46351(14) 0.9353(4) 0.5444(4)
C22 C 0.40025(15) 0.9284(5) 0.2616(3)
H15 H 0.4052 0.9389 0.1919
C23 C 0.32264(15) 0.5121(4) 0.2207(4)
H16 H 0.3462 0.4933 0.1873
C24 C 0.43470(14) 0.9405(5) 0.3482(4)
H17 H 0.4633 0.9590 0.3385
N3 N 0.49235(15) 0.9413(5) 0.6175(4)
C25 C 0.11831(9) 0.9146(3) 0.1458(2)
C26 C 0.09790(9) 0.8456(3) 0.0444(2)
H18 H 0.1188 0.8480 -0.0048
N4 N 0.13177(9) 0.7209(2) 0.19165(19)
H19 H 0.1461 0.6611 0.2237
C27 C 0.10626(10) 0.6244(3) 0.0119(2)
C28 C 0.12419(10) 1.0371(3) 0.1620(2)
C29 C 0.09777(10) 0.7177(3) 0.0903(2)
H20 H 0.0685 0.7027 0.1078
C30 C 0.13683(9) 0.8361(3) 0.2271(2)
C31 C 0.05229(10) 0.8826(3) -0.0185(2)
C32 C 0.14808(11) 1.0770(3) 0.2656(3)
C33 C 0.01736(11) 0.8958(3) 0.0334(3)
H21 H 0.0224 0.8865 0.1084
C34 C 0.16425(11) 0.9928(4) 0.3470(3)
H22 H 0.1787 1.0188 0.4156
C35 C 0.15943(11) 0.8750(4) 0.3287(2)
H23 H 0.1711 0.8213 0.3832
C36 C 0.10937(11) 1.1226(3) 0.0803(3)
H24 H 0.0943 1.0989 0.0115
C37 C 0.04397(12) 0.8979(4) -0.1304(3)
H25 H 0.0672 0.8884 -0.1670
C38 C 0.14686(12) 0.5700(3) 0.0216(3)
H26 H 0.1705 0.5890 0.0789
C39 C -0.02541(12) 0.9231(3) -0.0251(3)
C40 C 0.15499(13) 1.1985(4) 0.2842(3)
H27 H 0.1702 1.2248 0.3520
N5 N 0.12187(14) 0.4571(3) -0.1381(3)
C41 C 0.15273(15) 0.4875(3) -0.0532(3)
H28 H 0.1805 0.4504 -0.0432
C42 C 0.13959(15) 1.2782(4) 0.2039(4)
H29 H 0.1441 1.3584 0.2175
C43 C -0.06159(14) 0.9316(4) 0.0306(4)
C44 C 0.00167(15) 0.9271(5) -0.1881(3)
H30 H -0.0031 0.9386 -0.2628
C45 C 0.07315(13) 0.5922(4) -0.0751(3)
H31 H 0.0447 0.6257 -0.0850
C46 C 0.11711(14) 1.2401(4) 0.1019(4)
H32 H 0.1072 1.2953 0.0474
C47 C -0.03345(14) 0.9395(4) -0.1364(3)
H33 H -0.0620 0.9584 -0.1754
C48 C 0.08226(17) 0.5104(4) -0.1470(3)
H34 H 0.0594 0.4907 -0.2059
N6 N -0.09093(15) 0.9372(5) 0.0747(4)
C49 C 0.4101(5) 1.2553(11) 0.459(2)
H35 H 0.3838 1.2610 0.4849
C50 C 0.4811(4) 1.2484(11) 0.3853(13)
C51 C 0.4468(7) 1.2512(10) 0.5395(16)
H36 H 0.4454 1.2518 0.6125
C52 C 0.4424(7) 1.2518(13) 0.3123(17)
H37 H 0.4451 1.2540 0.2402
C53 C 0.4004(11) 1.2525(17) 0.327(3)
H38 H 0.3734 1.2518 0.2758
C54 C 0.4840(4) 1.2464(7) 0.5074(14)
H39 H 0.5115 1.2418 0.5565
C55 C 0.5132(9) 1.2465(17) 0.364(2)
H40 H 0.5363 1.2407 0.4287
H41 H 0.5173 1.3175 0.3257
H42 H 0.5148 1.1797 0.3181
loop_
_geom_bond_atom_site_label_1
_geom_bond_atom_site_label_2
_geom_bond_site_symmetry_1
_geom_bond_site_symmetry_2
C1 C2 1_555 1_555
C2 C5 1_555 1_555
C3 C1 1_555 1_555
C4 H1 1_555 1_555
C5 C7 1_555 1_555
N1 C3 1_555 1_555
H2 N1 1_555 1_555
C6 C1 1_555 1_555
H3 C6 1_555 1_555
C7 H4 1_555 1_555
C8 C4 1_555 1_555
C9 C2 1_555 1_555
H5 C9 1_555 1_555
C10 C6 1_555 1_555
N2 C18 1_555 1_555
C11 C5 1_555 1_555
H6 C11 1_555 1_555
C12 C10 1_555 1_555
H7 C12 1_555 1_555
C13 C3 1_555 1_555
H8 C13 1_555 1_555
C14 C8 1_555 1_555
H9 C14 1_555 1_555
C15 C12 1_555 1_555
C16 C10 1_555 1_555
H10 C16 1_555 1_555
C17 C11 1_555 1_555
H11 C17 1_555 1_555
C18 C14 1_555 1_555
H12 C18 1_555 1_555
C19 C9 1_555 1_555
H13 C19 1_555 1_555
C20 C8 1_555 1_555
H14 C20 1_555 1_555
C21 C15 1_555 1_555
C22 C16 1_555 1_555
H15 C22 1_555 1_555
C23 N2 1_555 1_555
H16 C23 1_555 1_555
C24 C15 1_555 1_555
H17 C24 1_555 1_555
N3 C21 1_555 1_555
C25 C26 1_555 1_555
C26 H18 1_555 1_555
N4 H19 1_555 1_555
C27 C29 1_555 1_555
C28 C25 1_555 1_555
C29 C26 1_555 1_555
H20 C29 1_555 1_555
C30 C25 1_555 1_555
C31 C26 1_555 1_555
C32 C28 1_555 1_555
C33 C31 1_555 1_555
H21 C33 1_555 1_555
C34 C32 1_555 1_555
H22 C34 1_555 1_555
C35 C30 1_555 1_555
H23 C35 1_555 1_555
C36 C28 1_555 1_555
H24 C36 1_555 1_555
C37 C31 1_555 1_555
H25 C37 1_555 1_555
C38 C27 1_555 1_555
H26 C38 1_555 1_555
C39 C33 1_555 1_555
C40 C32 1_555 1_555
H27 C40 1_555 1_555
N5 C41 1_555 1_555
C41 C38 1_555 1_555
H28 C41 1_555 1_555
C42 C40 1_555 1_555
H29 C42 1_555 1_555
C43 C39 1_555 1_555
C44 C37 1_555 1_555
H30 C44 1_555 1_555
C45 C27 1_555 1_555
H31 C45 1_555 1_555
C46 C36 1_555 1_555
H32 C46 1_555 1_555
C47 C39 1_555 1_555
H33 C47 1_555 1_555
C48 N5 1_555 1_555
H34 C48 1_555 1_555
N6 C43 1_555 1_555
C49 H35 1_555 1_555
C50 C52 1_555 1_555
C51 C49 1_555 1_555
H36 C51 1_555 1_555
C52 H37 1_555 1_555
C53 C49 1_555 1_555
H38 C53 1_555 1_555
C54 C50 1_555 1_555
H39 C54 1_555 1_555
C55 C50 1_555 1_555
H40 C55 1_555 1_555
H41 C55 1_555 1_555
H42 C55 1_555 1_555
C4 C6 1_555 1_555
C4 N1 1_555 1_555
C7 C13 1_555 1_555
C17 C19 1_555 1_555
C20 C23 1_555 1_555
C22 C24 1_555 1_555
N4 C29 1_555 1_555
N4 C30 1_555 1_555
C34 C35 1_555 1_555
C42 C46 1_555 1_555
C44 C47 1_555 1_555
C45 C48 1_555 1_555
C51 C54 1_555 1_555
C52 C53 1_555 1_555

#END
