
#######################################################################
#
#                 Cambridge Crystallographic Data Centre
#                                CCDC 
#
#######################################################################
#
# If this CIF has been generated from an entry in the Cambridge 
# Structural Database, then it will include bibliographic, chemical, 
# crystal, experimental, refinement or atomic coordinate data resulting 
# from the CCDC's data processing and validation procedures.
#
#######################################################################

data_BEWFAL
_chemical_formula_moiety         'C22 H17 N3'
_chemical_name_systematic        
trans-2,3-dihydro-2-(pyrid-4-yl)-3-(pyridy-3-yl)benzo(e)indole
_symmetry_cell_setting           orthorhombic
_symmetry_space_group_name_H-M   'P c a 21'
_symmetry_Int_Tables_number      29
_space_group_name_Hall           'P 2c -2ac'
loop_
_symmetry_equiv_pos_site_id
_symmetry_equiv_pos_as_xyz
1 x,y,z
2 -x,-y,1/2+z
3 1/2+x,-y,z
4 1/2-x,y,1/2+z
_cell_length_a                   10.8369(14)
_cell_length_b                   15.202(2)
_cell_length_c                   9.9136(12)
_cell_angle_alpha                90
_cell_angle_beta                 90
_cell_angle_gamma                90
_cell_volume                     1633.19
_cell_formula_units_Z            4
loop_
_atom_site_label
_atom_site_type_symbol
_atom_site_fract_x
_atom_site_fract_y
_atom_site_fract_z
C1 C 0.5974(6) 0.2653(4) 0.7871(6)
C2 C 0.8165(5) 0.2103(4) 0.7482(6)
C3 C 0.8104(6) 0.1222(4) 0.7085(6)
C4 C 0.9101(6) 0.0657(5) 0.7525(6)
C5 C 0.7214(5) 0.2821(4) 0.7254(6)
H1 H 0.7107 0.2903 0.6280
C6 C 0.9099(7) 0.2433(5) 0.8290(6)
C7 C 0.4914(6) 0.3001(5) 0.7368(9)
H2 H 0.4957 0.3341 0.6590
C8 C 1.0077(7) 0.1868(5) 0.8685(7)
H3 H 1.0725 0.2083 0.9205
C9 C 0.4687(7) 0.2064(5) 0.9647(8)
H4 H 0.4615 0.1744 1.0443
C10 C 0.7179(6) 0.0860(5) 0.6263(7)
H5 H 0.6551 0.1221 0.5943
N1 N 0.9080(6) 0.5423(4) 0.4682(6)
C11 C 0.7893(6) 0.3645(4) 0.7837(6)
H6 H 0.7325 0.3961 0.8434
C12 C 0.9385(7) 0.4120(5) 0.6022(7)
H7 H 0.9869 0.3630 0.6207
C13 C 0.7179(7) 0.0001(5) 0.5929(7)
H8 H 0.6547 -0.0221 0.5393
C14 C 0.9723(7) 0.4706(6) 0.5007(8)
H9 H 1.0441 0.4589 0.4526
N2 N 0.8907(5) 0.3293(4) 0.8646(6)
H10 H 0.9316 0.3579 0.9246
C15 C 0.8073(8) 0.5559(5) 0.5396(8)
H11 H 0.7605 0.6056 0.5201
C16 C 0.9048(7) -0.0236(5) 0.7132(8)
H12 H 0.9677 -0.0613 0.7404
C17 C 0.8339(6) 0.4275(4) 0.6738(6)
C18 C 0.8115(9) -0.0565(5) 0.6375(8)
H13 H 0.8096 -0.1159 0.6153
C19 C 0.7667(6) 0.5011(5) 0.6418(8)
H14 H 0.6944 0.5140 0.6884
C20 C 0.5845(7) 0.2161(4) 0.9065(7)
H15 H 0.6532 0.1902 0.9462
N3 N 0.3779(7) 0.2873(6) 0.7958(9)
C21 C 0.3680(6) 0.2413(5) 0.9103(8)
H16 H 0.2915 0.2339 0.9514
C22 C 1.0058(7) 0.1023(6) 0.8303(7)
H17 H 1.0708 0.0661 0.8563
loop_
_geom_bond_atom_site_label_1
_geom_bond_atom_site_label_2
_geom_bond_site_symmetry_1
_geom_bond_site_symmetry_2
C1 C5 1_555 1_555
C2 C3 1_555 1_555
C3 C4 1_555 1_555
C4 C16 1_555 1_555
C5 C2 1_555 1_555
H1 C5 1_555 1_555
C6 C2 1_555 1_555
C7 C1 1_555 1_555
H2 C7 1_555 1_555
C8 C6 1_555 1_555
H3 C8 1_555 1_555
C9 H4 1_555 1_555
C10 C3 1_555 1_555
H5 C10 1_555 1_555
N1 C14 1_555 1_555
C11 C5 1_555 1_555
H6 C11 1_555 1_555
C12 H7 1_555 1_555
C13 C10 1_555 1_555
H8 C13 1_555 1_555
C14 C12 1_555 1_555
H9 C14 1_555 1_555
N2 C6 1_555 1_555
H10 N2 1_555 1_555
C15 N1 1_555 1_555
H11 C15 1_555 1_555
C16 H12 1_555 1_555
C17 C11 1_555 1_555
C18 C13 1_555 1_555
H13 C18 1_555 1_555
C19 C15 1_555 1_555
H14 C19 1_555 1_555
C20 C1 1_555 1_555
H15 C20 1_555 1_555
N3 C7 1_555 1_555
C21 C9 1_555 1_555
H16 C21 1_555 1_555
C22 C4 1_555 1_555
H17 C22 1_555 1_555
C8 C22 1_555 1_555
C9 C20 1_555 1_555
C11 N2 1_555 1_555
C12 C17 1_555 1_555
C16 C18 1_555 1_555
C17 C19 1_555 1_555
N3 C21 1_555 1_555

#END
