
#######################################################################
#
#                 Cambridge Crystallographic Data Centre
#                                CCDC 
#
#######################################################################
#
# If this CIF has been generated from an entry in the Cambridge 
# Structural Database, then it will include bibliographic, chemical, 
# crystal, experimental, refinement or atomic coordinate data resulting 
# from the CCDC's data processing and validation procedures.
#
#######################################################################

data_BEWKUM01
_chemical_name_common            entecavir
_chemical_formula_moiety         'C12 H15 N5 O3'
_chemical_name_systematic        
2-amino-9-[4-hydroxy-3-(hydroxymethyl)-2-methylidenecyclopentyl]-1,9-dihydro-6H-purin-6-one
_chemical_properties_biological  'antihepatitis B virus drug'
_symmetry_cell_setting           tetragonal
_symmetry_space_group_name_H-M   'P 43 21 2'
_symmetry_Int_Tables_number      96
_space_group_name_Hall           'P 4nw 2abw'
loop_
_symmetry_equiv_pos_site_id
_symmetry_equiv_pos_as_xyz
1 x,y,z
2 1/2-y,1/2+x,3/4+z
3 1/2+y,1/2-x,1/4+z
4 1/2+x,1/2-y,1/4-z
5 1/2-x,1/2+y,3/4-z
6 -x,-y,1/2+z
7 y,x,-z
8 -y,-x,1/2-z
_cell_length_a                   7.52956(15)
_cell_length_b                   7.52956(15)
_cell_length_c                   43.9846(11)
_cell_angle_alpha                90
_cell_angle_beta                 90
_cell_angle_gamma                90
_cell_volume                     2493.67
_exptl_crystal_colour            colorless
_exptl_crystal_description       block
_cell_formula_units_Z            8
loop_
_atom_site_label
_atom_site_type_symbol
_atom_site_fract_x
_atom_site_fract_y
_atom_site_fract_z
O1 O -0.66778(19) -0.06927(16) -0.10688(2)
N1 N -0.68996(18) -0.44901(17) -0.03853(3)
C1 C -0.6973(2) -0.1330(2) -0.05362(3)
N2 N -0.70140(19) -0.19420(18) -0.00496(2)
N3 N -0.67271(19) -0.35464(18) -0.08984(2)
H1 H -0.66556(19) -0.38976(18) -0.10841(2)
O2 O -0.5706(2) -0.1161(2) 0.09910(3)
H2 H -0.614(2) -0.046(3) 0.1112(3)
N4 N -0.7044(2) 0.02878(18) -0.03863(3)
C2 C -0.6967(2) -0.2720(2) -0.03307(3)
N5 N -0.66269(19) -0.65160(18) -0.07760(3)
H3 H -0.66207(19) -0.73760(18) -0.06473(3)
H4 H -0.65420(19) -0.67339(18) -0.09674(3)
C3 C -0.67686(19) -0.4840(2) -0.06785(3)
C4 C -0.6790(2) -0.1722(2) -0.08496(3)
C5 C -0.7064(2) -0.0146(2) -0.00990(3)
H5 H -0.7108(2) 0.0685(2) 0.00572(3)
C6 C -0.7049(2) -0.2853(2) 0.02465(3)
H6 H -0.6814(2) -0.4120(2) 0.02145(3)
O3 O -0.9662(3) -0.0863(2) 0.11954(3)
H7 H -0.996(5) -0.168(2) 0.13068(8)
C7 C -0.5679(3) -0.2116(3) 0.04741(3)
H8 H -0.4971(3) -0.3070(3) 0.05591(3)
H9 H -0.4893(3) -0.1275(3) 0.03750(3)
C8 C -0.6754(3) -0.1204(2) 0.07214(3)
H10 H -0.7018(3) 0.0015(2) 0.06581(3)
C9 C -1.0367(3) -0.2677(3) 0.02664(4)
C10 C -0.8828(2) -0.2649(2) 0.04058(3)
C11 C -1.0032(3) -0.1316(3) 0.08889(4)
H11 H -1.1072(3) -0.2076(3) 0.08824(4)
H12 H -1.0302(3) -0.0243(3) 0.07758(4)
C12 C -0.8488(3) -0.2263(2) 0.07379(3)
H13 H -0.8266(3) -0.3384(2) 0.08446(3)
H14 H -1.038(3) -0.283(3) 0.0049(5)
H15 H -1.148(3) -0.264(3) 0.0385(5)
loop_
_geom_bond_atom_site_label_1
_geom_bond_atom_site_label_2
_geom_bond_site_symmetry_1
_geom_bond_site_symmetry_2
O1 C4 1_555 1_555
N1 C2 1_555 1_555
C1 N4 1_555 1_555
N2 C2 1_555 1_555
N3 H1 1_555 1_555
O2 H2 1_555 1_555
N4 C5 1_555 1_555
C2 C1 1_555 1_555
N5 H3 1_555 1_555
H4 N5 1_555 1_555
C3 N1 1_555 1_555
C4 C1 1_555 1_555
C5 N2 1_555 1_555
H5 C5 1_555 1_555
C6 N2 1_555 1_555
H6 C6 1_555 1_555
O3 H7 1_555 1_555
C7 C6 1_555 1_555
H8 C7 1_555 1_555
H9 C7 1_555 1_555
C8 O2 1_555 1_555
H10 C8 1_555 1_555
C9 C10 1_555 1_555
C10 C6 1_555 1_555
C11 O3 1_555 1_555
H11 C11 1_555 1_555
H12 C11 1_555 1_555
C12 C8 1_555 1_555
H13 C12 1_555 1_555
H14 C9 1_555 1_555
H15 C9 1_555 1_555
N3 C3 1_555 1_555
N3 C4 1_555 1_555
N5 C3 1_555 1_555
C7 C8 1_555 1_555
C10 C12 1_555 1_555
C11 C12 1_555 1_555

#END
