
#######################################################################
#
#                 Cambridge Crystallographic Data Centre
#                                CCDC 
#
#######################################################################
#
# If this CIF has been generated from an entry in the Cambridge 
# Structural Database, then it will include bibliographic, chemical, 
# crystal, experimental, refinement or atomic coordinate data resulting 
# from the CCDC's data processing and validation procedures.
#
#######################################################################

data_BEWNUP
_chemical_formula_moiety         
'C72 H34 F20 N12 O4,C16 H36 N1 1+,C1 H2 Cl2,2(H2 O1),Cl1 1-'
_chemical_name_systematic        
"tetra-n-butylammonium chloride N,N',N'',N'''-[porphyrin-5,10,15,20-tetrayltetrakis(2,1-phenylene)]tetrakis[N'-(pentafluorophenyl)urea] dichloromethane solvate dihydrate"
_symmetry_cell_setting           triclinic
_symmetry_space_group_name_H-M   'P -1'
_symmetry_Int_Tables_number      2
_space_group_name_Hall           '-P 1'
loop_
_symmetry_equiv_pos_site_id
_symmetry_equiv_pos_as_xyz
1 x,y,z
2 -x,-y,-z
_cell_length_a                   13.6198(4)
_cell_length_b                   14.5652(8)
_cell_length_c                   23.3121(11)
_cell_angle_alpha                101.191(4)
_cell_angle_beta                 97.752(3)
_cell_angle_gamma                100.652(3)
_cell_volume                     4387.94
_exptl_crystal_colour            'dark red'
_exptl_crystal_description       plate
_cell_formula_units_Z            2
loop_
_atom_site_label
_atom_site_type_symbol
_atom_site_fract_x
_atom_site_fract_y
_atom_site_fract_z
F1 F 0.7042(3) -0.1924(4) 0.36083(19)
F2 F 0.7466(4) -0.2535(5) 0.4586(2)
F3 F 0.9424(5) -0.2671(4) 0.49872(19)
F4 F 1.0879(4) -0.2151(3) 0.43657(18)
F5 F 1.0418(3) -0.1668(3) 0.33198(16)
F6 F 0.9012(3) -0.3841(3) 0.24381(16)
F7 F 0.7965(3) -0.4620(3) 0.3190(2)
F8 F 0.8971(3) -0.5089(3) 0.41406(19)
F9 F 1.1015(3) -0.4840(3) 0.43043(16)
F10 F 1.2072(2) -0.3986(3) 0.35832(15)
F11 F 1.3431(4) -0.0422(3) 0.3470(2)
F12 F 1.3609(6) -0.0587(5) 0.4604(3)
F13 F 1.4343(5) 0.0997(5) 0.5495(2)
F14 F 1.4855(5) 0.2719(5) 0.5239(2)
F15 F 1.4617(4) 0.2895(3) 0.4110(2)
F16 F 0.7143(3) 0.0352(3) 0.2780(2)
F17 F 0.6121(4) 0.0387(4) 0.3701(3)
F18 F 0.6722(5) 0.1820(5) 0.4674(3)
F19 F 0.8364(5) 0.3206(4) 0.47526(18)
F20 F 0.9471(3) 0.3130(3) 0.38709(15)
O1 O 0.7186(3) -0.2843(3) 0.24740(17)
O2 O 1.1707(2) -0.4784(2) 0.22724(14)
O3 O 1.5508(3) 0.2114(4) 0.31613(19)
O4 O 0.8529(3) 0.3187(2) 0.26874(15)
N1 N 1.0313(2) -0.1867(2) 0.08144(15)
N2 N 1.2381(2) -0.0868(2) 0.08705(16)
H1 H 1.1785 -0.0713 0.0843
N3 N 1.1671(3) 0.0906(2) 0.09935(16)
N4 N 0.9574(2) -0.0117(2) 0.08350(15)
H2 H 1.0164 -0.0280 0.0833
N5 N 0.7803(3) -0.1896(3) 0.18728(19)
H3 H 0.8294 -0.1412 0.1869
N6 N 0.8497(3) -0.1584(3) 0.28585(19)
H4 H 0.8870 -0.1062 0.2798
N7 N 1.1851(3) -0.3557(3) 0.17777(16)
H5 H 1.1811 -0.2952 0.1822
N8 N 1.1084(3) -0.3468(3) 0.25946(19)
H6 H 1.1100 -0.2864 0.2588
N9 N 1.4406(3) 0.1464(3) 0.2270(2)
H7 H 1.3762 0.1197 0.2131
N10 N 1.3908(4) 0.1268(4) 0.3139(2)
H8 H 1.3300 0.1038 0.2921
N11 N 0.9403(3) 0.2374(3) 0.20657(17)
H9 H 0.9714 0.1892 0.2030
N12 N 0.8844(3) 0.1757(3) 0.28190(19)
H10 H 0.9140 0.1281 0.2705
C1 C 0.9304(3) -0.2223(3) 0.07963(18)
C2 C 0.9126(3) -0.3244(3) 0.0777(2)
H11 H 0.8496 -0.3659 0.0770
C3 C 1.0032(3) -0.3483(3) 0.0773(2)
H12 H 1.0160 -0.4107 0.0757
C4 C 1.0773(3) -0.2630(3) 0.07956(18)
C5 C 1.1810(3) -0.2599(3) 0.08017(18)
C6 C 1.2541(3) -0.1781(3) 0.08317(18)
C7 C 1.3621(3) -0.1711(3) 0.0879(2)
H13 H 1.3956 -0.2231 0.0857
C8 C 1.4071(3) -0.0778(3) 0.0958(2)
H14 H 1.4779 -0.0525 0.1006
C9 C 1.3297(3) -0.0239(3) 0.0959(2)
C10 C 1.3461(3) 0.0762(3) 0.1077(2)
C11 C 1.2690(3) 0.1285(3) 0.11034(19)
C12 C 1.2886(3) 0.2318(3) 0.1269(2)
H15 H 1.3532 0.2746 0.1364
C13 C 1.1976(3) 0.2560(3) 0.1264(2)
H16 H 1.1860 0.3191 0.1359
C14 C 1.1210(3) 0.1677(3) 0.10863(19)
C15 C 1.0170(3) 0.1631(3) 0.10226(18)
C16 C 0.9418(3) 0.0799(3) 0.08871(19)
C17 C 0.8343(3) 0.0733(3) 0.0833(2)
H17 H 0.8012 0.1254 0.0837
C18 C 0.7885(3) -0.0191(3) 0.0774(2)
H18 H 0.7176 -0.0438 0.0731
C19 C 0.8662(3) -0.0736(3) 0.07869(19)
C20 C 0.8527(3) -0.1704(3) 0.07911(18)
C21 C 1.2174(3) -0.3523(3) 0.07834(19)
C22 C 1.2514(3) -0.3925(3) 0.0280(2)
H19 H 1.2503 -0.3621 -0.0045
C23 C 1.2873(3) -0.4770(3) 0.0241(2)
H20 H 1.3105 -0.5041 -0.0107
C24 C 1.2883(3) -0.5201(3) 0.0718(2)
H21 H 1.3116 -0.5781 0.0695
C25 C 1.2563(3) -0.4811(3) 0.1227(2)
H22 H 1.2588 -0.5115 0.1553
C26 C 1.2202(3) -0.3967(3) 0.12663(19)
C27 C 1.1566(3) -0.4005(3) 0.2213(2)
C28 C 1.0566(4) -0.3893(3) 0.2993(2)
C29 C 1.1053(4) -0.4156(4) 0.3473(2)
C30 C 1.0527(4) -0.4581(4) 0.3851(2)
C31 C 0.9492(4) -0.4717(4) 0.3762(3)
C32 C 0.8989(4) -0.4473(4) 0.3291(3)
C33 C 0.9519(4) -0.4073(4) 0.2905(2)
C34 C 1.4536(3) 0.1308(3) 0.1239(2)
C35 C 1.5086(3) 0.1468(3) 0.0792(2)
H23 H 1.4769 0.1242 0.0387
C36 C 1.6097(4) 0.1956(4) 0.0935(3)
H24 H 1.6473 0.2066 0.0631
C37 C 1.6544(3) 0.2279(4) 0.1525(3)
H25 H 1.7235 0.2611 0.1621
C38 C 1.6024(3) 0.2137(4) 0.1982(3)
H26 H 1.6348 0.2369 0.2386
C39 C 1.5005(3) 0.1643(3) 0.1835(2)
C40 C 1.4687(4) 0.1649(4) 0.2877(3)
C41 C 1.4053(4) 0.1235(5) 0.3750(3)
C42 C 1.4387(5) 0.2016(5) 0.4212(3)
C43 C 1.4510(7) 0.1951(7) 0.4800(4)
C44 C 1.4239(7) 0.1049(8) 0.4916(4)
C45 C 1.3882(7) 0.0271(7) 0.4468(4)
C46 C 1.3791(5) 0.0373(5) 0.3903(3)
C47 C 0.9841(3) 0.2568(3) 0.11185(19)
C48 C 0.9929(3) 0.3107(3) 0.06907(19)
H27 H 1.0180 0.2867 0.0344
C49 C 0.9659(3) 0.3983(3) 0.0759(2)
H28 H 0.9714 0.4340 0.0460
C50 C 0.9308(3) 0.4338(3) 0.1270(2)
H29 H 0.9120 0.4941 0.1319
C51 C 0.9227(3) 0.3829(3) 0.1705(2)
H30 H 0.8999 0.4088 0.2057
C52 C 0.9481(3) 0.2930(3) 0.16336(19)
C53 C 0.8900(3) 0.2503(3) 0.2531(2)
C54 C 0.8315(4) 0.1761(4) 0.3293(2)
C55 C 0.8627(5) 0.2469(4) 0.3809(2)
C56 C 0.8060(7) 0.2483(6) 0.4268(3)
C57 C 0.7262(8) 0.1797(9) 0.4234(5)
C58 C 0.6958(6) 0.1070(8) 0.3750(5)
C59 C 0.7466(5) 0.1043(5) 0.3264(3)
C60 C 0.7471(3) -0.2231(3) 0.0797(2)
C61 C 0.6795(3) -0.2612(3) 0.0262(2)
H31 H 0.7008 -0.2520 -0.0099
C62 C 0.5825(3) -0.3118(4) 0.0243(2)
H32 H 0.5377 -0.3381 -0.0126
C63 C 0.5515(3) -0.3238(3) 0.0766(2)
H33 H 0.4851 -0.3593 0.0756
C64 C 0.6159(3) -0.2846(4) 0.1311(2)
H34 H 0.5930 -0.2926 0.1669
C65 C 0.7143(3) -0.2336(3) 0.1329(2)
C66 C 0.7753(4) -0.2146(4) 0.2398(2)
C67 C 0.8685(5) -0.1800(5) 0.3409(2)
C68 C 0.7966(4) -0.2036(5) 0.3744(3)
C69 C 0.8218(7) -0.2321(7) 0.4282(3)
C70 C 0.9206(7) -0.2387(6) 0.4484(3)
C71 C 0.9978(6) -0.2123(5) 0.4176(3)
C72 C 0.9693(5) -0.1856(4) 0.3640(3)
N13 N 1.4780(3) -0.4871(3) 0.30025(17)
C73 C 1.3709(4) -0.5185(4) 0.3141(2)
H35 H 1.3717 -0.4868 0.3558
H36 H 1.3235 -0.4928 0.2887
C74 C 1.3280(4) -0.6219(5) 0.3066(3)
H37 H 1.3737 -0.6491 0.3321
H38 H 1.3244 -0.6550 0.2648
C75 C 1.2234(5) -0.6404(5) 0.3224(3)
H39 H 1.2279 -0.6070 0.3642
H40 H 1.1788 -0.6117 0.2972
C76 C 1.1749(6) -0.7441(6) 0.3151(5)
H41 H 1.1734 -0.7788 0.2744
H42 H 1.1054 -0.7498 0.3230
H43 H 1.2142 -0.7716 0.3431
C77 C 1.5057(4) -0.3818(4) 0.3103(2)
H44 H 1.5782 -0.3634 0.3075
H45 H 1.4989 -0.3545 0.3516
C78 C 1.4467(5) -0.3351(5) 0.2697(3)
H46 H 1.4562 -0.3586 0.2285
H47 H 1.3736 -0.3544 0.2711
C79 C 1.4778(5) -0.2280(5) 0.2856(3)
H48 H 1.4639 -0.2048 0.3259
H49 H 1.5521 -0.2094 0.2874
C80 C 1.4273(7) -0.1789(6) 0.2447(4)
H50 H 1.4292 -0.2096 0.2037
H51 H 1.4625 -0.1114 0.2532
H52 H 1.3566 -0.1831 0.2500
C81 C 1.5552(4) -0.5251(4) 0.3385(2)
H53 H 1.5377 -0.5960 0.3271
H54 H 1.6231 -0.5039 0.3287
C82 C 1.5626(4) -0.4949(5) 0.4046(2)
H55 H 1.4990 -0.5243 0.4162
H56 H 1.5720 -0.4243 0.4164
C83 C 1.6511(5) -0.5258(8) 0.4360(3)
H57 H 1.6440 -0.5955 0.4209
H58 H 1.7146 -0.4925 0.4260
C84 C 1.6605(6) -0.5058(9) 0.5020(3)
H59 H 1.6039 -0.5473 0.5127
H60 H 1.6591 -0.4385 0.5171
H61 H 1.7248 -0.5186 0.5195
C85 C 1.4763(4) -0.5366(4) 0.2355(2)
H62 H 1.4591 -0.6069 0.2317
H63 H 1.4213 -0.5199 0.2098
C86 C 1.5732(4) -0.5118(4) 0.2124(2)
H64 H 1.6269 -0.5351 0.2348
H65 H 1.5946 -0.4412 0.2194
C87 C 1.5624(4) -0.5549(5) 0.1472(3)
H66 H 1.5345 -0.6247 0.1400
H67 H 1.5127 -0.5272 0.1249
C88 C 1.6576(5) -0.5397(5) 0.1238(3)
H68 H 1.6443 -0.5691 0.0812
H69 H 1.7066 -0.5691 0.1445
H70 H 1.6854 -0.4708 0.1300
Cl1 Cl 0.9360(2) 0.04696(18) 0.43562(13)
Cl2 Cl 1.1454(3) 0.0563(4) 0.4267(2)
C89 C 1.0200(9) 0.0781(8) 0.3995(4)
H71 H 1.0272 0.1474 0.4007
H72 H 0.9975 0.0431 0.3575
Cl3 Cl 0.98348(11) 0.00144(10) 0.23172(6)
O5 O 1.2254(4) 0.0240(4) 0.2242(2)
H73 H 1.1718 0.0460 0.2205
H74 H 1.2100 -0.0368 0.2128
O6 O 1.1059(6) -0.1702(3) 0.2151(2)
H75 H 1.1209 -0.1687 0.1810
H76 H 1.053(3) -0.155(3) 0.2232(18)
loop_
_geom_bond_atom_site_label_1
_geom_bond_atom_site_label_2
_geom_bond_site_symmetry_1
_geom_bond_site_symmetry_2
F1 C68 1_555 1_555
F2 C69 1_555 1_555
F3 C70 1_555 1_555
F4 C71 1_555 1_555
F5 C72 1_555 1_555
F6 C33 1_555 1_555
F7 C32 1_555 1_555
F8 C31 1_555 1_555
F9 C30 1_555 1_555
F10 C29 1_555 1_555
F11 C46 1_555 1_555
F12 C45 1_555 1_555
F13 C44 1_555 1_555
F14 C43 1_555 1_555
F15 C42 1_555 1_555
F16 C59 1_555 1_555
F17 C58 1_555 1_555
F18 C57 1_555 1_555
F19 C56 1_555 1_555
F20 C55 1_555 1_555
O1 C66 1_555 1_555
O2 C27 1_555 1_555
O3 C40 1_555 1_555
O4 C53 1_555 1_555
N1 C1 1_555 1_555
N2 H1 1_555 1_555
N3 C11 1_555 1_555
N4 H2 1_555 1_555
N5 H3 1_555 1_555
N6 H4 1_555 1_555
N7 H5 1_555 1_555
N8 H6 1_555 1_555
N9 H7 1_555 1_555
N10 H8 1_555 1_555
N11 H9 1_555 1_555
N12 H10 1_555 1_555
C1 C2 1_555 1_555
C2 H11 1_555 1_555
C3 C2 1_555 1_555
H12 C3 1_555 1_555
C4 N1 1_555 1_555
C5 C4 1_555 1_555
C6 N2 1_555 1_555
C7 C6 1_555 1_555
H13 C7 1_555 1_555
C8 C7 1_555 1_555
H14 C8 1_555 1_555
C9 N2 1_555 1_555
C10 C9 1_555 1_555
C11 C10 1_555 1_555
C12 C11 1_555 1_555
H15 C12 1_555 1_555
C13 C12 1_555 1_555
H16 C13 1_555 1_555
C14 N3 1_555 1_555
C15 C14 1_555 1_555
C16 N4 1_555 1_555
C17 C16 1_555 1_555
H17 C17 1_555 1_555
C18 C17 1_555 1_555
H18 C18 1_555 1_555
C19 N4 1_555 1_555
C20 C1 1_555 1_555
C21 C5 1_555 1_555
C22 C21 1_555 1_555
H19 C22 1_555 1_555
C23 C22 1_555 1_555
H20 C23 1_555 1_555
C24 C23 1_555 1_555
H21 C24 1_555 1_555
C25 C24 1_555 1_555
H22 C25 1_555 1_555
C26 N7 1_555 1_555
C27 N7 1_555 1_555
C28 N8 1_555 1_555
C29 C28 1_555 1_555
C30 C29 1_555 1_555
C31 C30 1_555 1_555
C32 C31 1_555 1_555
C33 C28 1_555 1_555
C34 C10 1_555 1_555
C35 C34 1_555 1_555
H23 C35 1_555 1_555
C36 C35 1_555 1_555
H24 C36 1_555 1_555
C37 C36 1_555 1_555
H25 C37 1_555 1_555
C38 C37 1_555 1_555
H26 C38 1_555 1_555
C39 N9 1_555 1_555
C40 N9 1_555 1_555
C41 N10 1_555 1_555
C42 C41 1_555 1_555
C43 C42 1_555 1_555
C44 C43 1_555 1_555
C45 C44 1_555 1_555
C46 C41 1_555 1_555
C47 C15 1_555 1_555
C48 C47 1_555 1_555
H27 C48 1_555 1_555
C49 C48 1_555 1_555
H28 C49 1_555 1_555
C50 C49 1_555 1_555
H29 C50 1_555 1_555
C51 C50 1_555 1_555
H30 C51 1_555 1_555
C52 N11 1_555 1_555
C53 N11 1_555 1_555
C54 N12 1_555 1_555
C55 C54 1_555 1_555
C56 C55 1_555 1_555
C57 C56 1_555 1_555
C58 C57 1_555 1_555
C59 C54 1_555 1_555
C60 C20 1_555 1_555
C61 C60 1_555 1_555
H31 C61 1_555 1_555
C62 C61 1_555 1_555
H32 C62 1_555 1_555
C63 C62 1_555 1_555
H33 C63 1_555 1_555
C64 C63 1_555 1_555
H34 C64 1_555 1_555
C65 N5 1_555 1_555
C66 N5 1_555 1_555
C67 N6 1_555 1_555
C68 C67 1_555 1_555
C69 C68 1_555 1_555
C70 C69 1_555 1_555
C71 C70 1_555 1_555
C72 C67 1_555 1_555
N13 C73 1_555 1_555
C73 H35 1_555 1_555
H36 C73 1_555 1_555
C74 C73 1_555 1_555
H37 C74 1_555 1_555
H38 C74 1_555 1_555
C75 C74 1_555 1_555
H39 C75 1_555 1_555
H40 C75 1_555 1_555
C76 C75 1_555 1_555
H41 C76 1_555 1_555
H42 C76 1_555 1_555
H43 C76 1_555 1_555
C77 N13 1_555 1_555
H44 C77 1_555 1_555
H45 C77 1_555 1_555
C78 C77 1_555 1_555
H46 C78 1_555 1_555
H47 C78 1_555 1_555
C79 C78 1_555 1_555
H48 C79 1_555 1_555
H49 C79 1_555 1_555
C80 C79 1_555 1_555
H50 C80 1_555 1_555
H51 C80 1_555 1_555
H52 C80 1_555 1_555
C81 N13 1_555 1_555
H53 C81 1_555 1_555
H54 C81 1_555 1_555
C82 C81 1_555 1_555
H55 C82 1_555 1_555
H56 C82 1_555 1_555
C83 C82 1_555 1_555
H57 C83 1_555 1_555
H58 C83 1_555 1_555
C84 C83 1_555 1_555
H59 C84 1_555 1_555
H60 C84 1_555 1_555
H61 C84 1_555 1_555
C85 N13 1_555 1_555
H62 C85 1_555 1_555
H63 C85 1_555 1_555
C86 C85 1_555 1_555
H64 C86 1_555 1_555
H65 C86 1_555 1_555
C87 C86 1_555 1_555
H66 C87 1_555 1_555
H67 C87 1_555 1_555
C88 C87 1_555 1_555
H68 C88 1_555 1_555
H69 C88 1_555 1_555
H70 C88 1_555 1_555
Cl1 C89 1_555 1_555
Cl2 C89 1_555 1_555
C89 H71 1_555 1_555
H72 C89 1_555 1_555
O5 H73 1_555 1_555
H74 O5 1_555 1_555
O6 H75 1_555 1_555
H76 O6 1_555 1_555
N6 C66 1_555 1_555
N8 C27 1_555 1_555
N10 C40 1_555 1_555
N12 C53 1_555 1_555
C3 C4 1_555 1_555
C5 C6 1_555 1_555
C8 C9 1_555 1_555
C13 C14 1_555 1_555
C15 C16 1_555 1_555
C18 C19 1_555 1_555
C19 C20 1_555 1_555
C21 C26 1_555 1_555
C25 C26 1_555 1_555
C32 C33 1_555 1_555
C34 C39 1_555 1_555
C38 C39 1_555 1_555
C45 C46 1_555 1_555
C47 C52 1_555 1_555
C51 C52 1_555 1_555
C58 C59 1_555 1_555
C60 C65 1_555 1_555
C64 C65 1_555 1_555
C71 C72 1_555 1_555

#END
