
#######################################################################
#
#                 Cambridge Crystallographic Data Centre
#                                CCDC 
#
#######################################################################
#
# If this CIF has been generated from an entry in the Cambridge 
# Structural Database, then it will include bibliographic, chemical, 
# crystal, experimental, refinement or atomic coordinate data resulting 
# from the CCDC's data processing and validation procedures.
#
#######################################################################

data_BEWYUY02
_chemical_formula_moiety         'C22 H14'
_chemical_name_systematic        1,4-bis(Phenylethynyl)benzene
_symmetry_cell_setting           triclinic
_symmetry_space_group_name_H-M   'P -1'
_symmetry_Int_Tables_number      2
_space_group_name_Hall           '-P 1'
loop_
_symmetry_equiv_pos_site_id
_symmetry_equiv_pos_as_xyz
1 x,y,z
2 -x,-y,-z
_cell_length_a                   6.055(3)
_cell_length_b                   9.804(4)
_cell_length_c                   13.814(2)
_cell_angle_alpha                90.34
_cell_angle_beta                 94.20
_cell_angle_gamma                103.93
_cell_volume                     793.554
_exptl_crystal_colour            colorless
_exptl_crystal_description       block
_cell_formula_units_Z            2
loop_
_atom_site_label
_atom_site_type_symbol
_atom_site_fract_x
_atom_site_fract_y
_atom_site_fract_z
C1 C 0.5056(4) 0.7534(2) 0.13391(17)
H1 H 0.3518 0.7213 0.1135
C2 C 0.6616(5) 0.8105(2) 0.06791(16)
H2 H 0.6124 0.8171 0.0031
C3 C 0.8891(5) 0.8577(2) 0.09787(19)
H3 H 0.9937 0.8950 0.0532
C4 C 0.9616(4) 0.8498(2) 0.19318(19)
H4 H 1.1156 0.8819 0.2132
C5 C 0.8083(4) 0.7945(2) 0.25980(15)
H5 H 0.8588 0.7910 0.3247
C6 C 0.5794(4) 0.7441(2) 0.23082(15)
C7 C 0.4235(4) 0.6809(2) 0.30061(15)
C8 C 0.2990(4) 0.6252(2) 0.35944(15)
C9 C 0.1484(4) 0.5611(2) 0.43064(15)
C10 C 0.2287(4) 0.55242(19) 0.52663(16)
H6 H 0.3831 0.5872 0.5450
C11 C -0.0827(4) 0.5070(2) 0.40510(14)
H7 H -0.1393 0.5110 0.3410
C1A C -0.5056(4) 0.2466(2) 0.86609(17)
H1A H -0.3518 0.2787 0.8865
C2A C -0.6616(5) 0.1895(2) 0.93209(16)
H2A H -0.6124 0.1829 0.9969
C3A C -0.8891(5) 0.1423(2) 0.90213(19)
H3A H -0.9937 0.1050 0.9468
C4A C -0.9616(4) 0.1502(2) 0.80682(19)
H4A H -1.1156 0.1181 0.7868
C5A C -0.8083(4) 0.2055(2) 0.74020(15)
H5A H -0.8588 0.2090 0.6753
C6A C -0.5794(4) 0.2559(2) 0.76918(15)
C7A C -0.4235(4) 0.3191(2) 0.69939(15)
C8A C -0.2990(4) 0.3748(2) 0.64056(15)
C9A C -0.1484(4) 0.4389(2) 0.56936(15)
C10A C -0.2287(4) 0.44758(19) 0.47337(16)
H6A H -0.3831 0.4128 0.4550
C11A C 0.0827(4) 0.4930(2) 0.59490(14)
H7A H 0.1393 0.4890 0.6590
C12 C 0.5704(4) 0.3675(2) 0.18689(14)
H8 H 0.4549 0.4110 0.2000
C13 C 0.7303(4) 0.4276(2) 0.12456(15)
H9 H 0.7220 0.5117 0.0954
C14 C 0.9018(4) 0.3655(3) 0.10475(16)
H10 H 1.0115 0.4079 0.0634
C15 C 0.9106(4) 0.2398(2) 0.14640(16)
H11 H 1.0253 0.1963 0.1321
C16 C 0.7520(4) 0.1779(2) 0.20879(14)
H12 H 0.7597 0.0929 0.2366
C17 C 0.5809(4) 0.2414(2) 0.23051(14)
C18 C 0.4225(4) 0.1793(2) 0.29980(15)
C19 C 0.2998(4) 0.1276(2) 0.36065(15)
C20 C 0.1492(4) 0.0641(2) 0.43183(14)
C21 C -0.0288(4) 0.1208(2) 0.45596(14)
H13 H -0.0491 0.2024 0.4265
C22 C 0.1757(3) -0.0581(2) 0.47722(14)
H14 H 0.2943 -0.0976 0.4621
C12A C -0.5704(4) -0.3675(2) 0.81311(14)
H8A H -0.4549 -0.4110 0.8000
C13A C -0.7303(4) -0.4276(2) 0.87544(15)
H9A H -0.7220 -0.5117 0.9046
C14A C -0.9018(4) -0.3655(3) 0.89525(16)
H10A H -1.0115 -0.4079 0.9366
C15A C -0.9106(4) -0.2398(2) 0.85360(16)
H11A H -1.0253 -0.1963 0.8679
C16A C -0.7520(4) -0.1779(2) 0.79121(14)
H12A H -0.7597 -0.0929 0.7634
C17A C -0.5809(4) -0.2414(2) 0.76949(14)
C18A C -0.4225(4) -0.1793(2) 0.70020(15)
C19A C -0.2998(4) -0.1276(2) 0.63935(15)
C20A C -0.1492(4) -0.0641(2) 0.56817(14)
C21A C 0.0288(4) -0.1208(2) 0.54404(14)
H13A H 0.0491 -0.2024 0.5735
C22A C -0.1757(3) 0.0581(2) 0.52278(14)
H14A H -0.2943 0.0976 0.5379
loop_
_geom_bond_atom_site_label_1
_geom_bond_atom_site_label_2
_geom_bond_site_symmetry_1
_geom_bond_site_symmetry_2
C1 H1 1_555 1_555
C2 C1 1_555 1_555
H2 C2 1_555 1_555
C3 C2 1_555 1_555
H3 C3 1_555 1_555
C4 C3 1_555 1_555
H4 C4 1_555 1_555
C5 C4 1_555 1_555
H5 C5 1_555 1_555
C6 C1 1_555 1_555
C7 C6 1_555 1_555
C8 C7 1_555 1_555
C9 C8 1_555 1_555
C10 C9 1_555 1_555
H6 C10 1_555 1_555
C11 C9 1_555 1_555
H7 C11 1_555 1_555
C12 H8 1_555 1_555
C13 C12 1_555 1_555
H9 C13 1_555 1_555
C14 C13 1_555 1_555
H10 C14 1_555 1_555
C15 C14 1_555 1_555
H11 C15 1_555 1_555
C16 C15 1_555 1_555
H12 C16 1_555 1_555
C17 C12 1_555 1_555
C18 C17 1_555 1_555
C19 C18 1_555 1_555
C20 C19 1_555 1_555
C21 C20 1_555 1_555
H13 C21 1_555 1_555
C22 C20 1_555 1_555
H14 C22 1_555 1_555
C1A H1A 1_555 1_555
C2A C1A 1_555 1_555
H2A C2A 1_555 1_555
C3A C2A 1_555 1_555
H3A C3A 1_555 1_555
C4A C3A 1_555 1_555
H4A C4A 1_555 1_555
C5A C4A 1_555 1_555
H5A C5A 1_555 1_555
C6A C1A 1_555 1_555
C7A C6A 1_555 1_555
C8A C7A 1_555 1_555
C9A C8A 1_555 1_555
C10A C11 1_555 1_555
H6A C10A 1_555 1_555
C11A C10 1_555 1_555
H7A C11A 1_555 1_555
C12A H8A 1_555 1_555
C13A C12A 1_555 1_555
H9A C13A 1_555 1_555
C14A C13A 1_555 1_555
H10A C14A 1_555 1_555
C15A C14A 1_555 1_555
H11A C15A 1_555 1_555
C16A C15A 1_555 1_555
H12A C16A 1_555 1_555
C17A C12A 1_555 1_555
C18A C17A 1_555 1_555
C19A C18A 1_555 1_555
C20A C19A 1_555 1_555
C21A C22 1_555 1_555
H13A C21A 1_555 1_555
C22A C21 1_555 1_555
H14A C22A 1_555 1_555
C5 C6 1_555 1_555
C16 C17 1_555 1_555
C5A C6A 1_555 1_555
C9A C10A 1_555 1_555
C9A C11A 1_555 1_555
C16A C17A 1_555 1_555
C20A C21A 1_555 1_555
C20A C22A 1_555 1_555

#END
