
#######################################################################
#
#                 Cambridge Crystallographic Data Centre
#                                CCDC 
#
#######################################################################
#
# If this CIF has been generated from an entry in the Cambridge 
# Structural Database, then it will include bibliographic, chemical, 
# crystal, experimental, refinement or atomic coordinate data resulting 
# from the CCDC's data processing and validation procedures.
#
#######################################################################

data_BEWYAF
_chemical_formula_moiety         'C22 H22 N2 O2 S1'
_chemical_name_systematic        
4-Methyl-N-(2-phenyl-1,2,3,4-tetrahydroquinolin-3-yl)benzenesulfonamide
_symmetry_cell_setting           orthorhombic
_symmetry_space_group_name_H-M   'P 21 21 21'
_symmetry_Int_Tables_number      19
_space_group_name_Hall           'P 2ac 2ab'
loop_
_symmetry_equiv_pos_site_id
_symmetry_equiv_pos_as_xyz
1 x,y,z
2 1/2-x,-y,1/2+z
3 -x,1/2+y,1/2-z
4 1/2+x,1/2-y,-z
_cell_length_a                   7.6792(7)
_cell_length_b                   11.3428(10)
_cell_length_c                   21.994(2)
_cell_angle_alpha                90
_cell_angle_beta                 90
_cell_angle_gamma                90
_cell_volume                     1915.76
_exptl_crystal_colour            colorless
_exptl_crystal_description       prismatic
_cell_formula_units_Z            4
loop_
_atom_site_label
_atom_site_type_symbol
_atom_site_fract_x
_atom_site_fract_y
_atom_site_fract_z
S1 S 0.44794(8) 0.75353(6) 0.78965(3)
N1 N -0.0458(3) 0.60778(19) 0.84114(9)
N2 N 0.2799(3) 0.6934(2) 0.81970(10)
O1 O 0.4509(3) 0.87277(16) 0.80981(8)
O2 O 0.5906(2) 0.67711(19) 0.80210(8)
C1 C 0.0718(3) 0.5316(2) 0.80766(10)
H1 H 0.0513 0.4505 0.8212
C2 C 0.2564(3) 0.5667(2) 0.82774(10)
H2 H 0.3423 0.5242 0.8031
C3 C 0.2781(3) 0.5329(3) 0.89457(11)
H3 H 0.2902 0.4481 0.8979
H4 H 0.3835 0.5688 0.9104
C4 C 0.1237(3) 0.5729(2) 0.93219(11)
C5 C -0.0314(3) 0.6076(2) 0.90444(10)
C6 C -0.1684(4) 0.6474(2) 0.94025(11)
H5 H -0.2707 0.6729 0.9218
C7 C -0.1553(5) 0.6498(3) 1.00246(13)
H6 H -0.2489 0.6755 1.0258
C8 C -0.0040(5) 0.6142(3) 1.03030(14)
H7 H 0.0056 0.6157 1.0724
C9 C 0.1329(5) 0.5762(3) 0.99512(13)
H8 H 0.2350 0.5520 1.0141
C10 C 0.0415(3) 0.5357(2) 0.73990(10)
C11 C 0.0962(4) 0.4413(2) 0.70509(13)
H9 H 0.1531 0.3786 0.7238
C12 C 0.0684(5) 0.4383(3) 0.64368(13)
H10 H 0.1048 0.3734 0.6211
C13 C -0.0127(4) 0.5302(3) 0.61544(13)
H11 H -0.0323 0.5281 0.5737
C14 C -0.0649(5) 0.6253(3) 0.64867(12)
H12 H -0.1191 0.6886 0.6296
C15 C -0.0374(4) 0.6277(2) 0.71075(11)
H13 H -0.0732 0.6930 0.7331
C16 C 0.4186(3) 0.7565(2) 0.71074(10)
C17 C 0.4710(4) 0.6637(2) 0.67473(12)
H14 H 0.5249 0.5985 0.6921
C18 C 0.4433(5) 0.6682(3) 0.61312(12)
H15 H 0.4804 0.6055 0.5891
C19 C 0.3628(4) 0.7620(3) 0.58596(12)
C20 C 0.3130(4) 0.8545(3) 0.62254(14)
H16 H 0.2595 0.9197 0.6050
C21 C 0.3406(4) 0.8529(2) 0.68460(12)
H17 H 0.3066 0.9166 0.7085
C22 C 0.3292(5) 0.7647(4) 0.51804(12)
H18 H 0.4350 0.7844 0.4971
H19 H 0.2419 0.8228 0.5092
H20 H 0.2894 0.6886 0.5049
H21 H -0.150(2) 0.614(2) 0.8290(10)
H22 H 0.194(3) 0.731(2) 0.8238(12)
loop_
_geom_bond_atom_site_label_1
_geom_bond_atom_site_label_2
_geom_bond_site_symmetry_1
_geom_bond_site_symmetry_2
S1 N2 1_555 1_555
N1 C1 1_555 1_555
N2 C2 1_555 1_555
O1 S1 1_555 1_555
O2 S1 1_555 1_555
C1 H1 1_555 1_555
C2 C1 1_555 1_555
H2 C2 1_555 1_555
C3 C2 1_555 1_555
H3 C3 1_555 1_555
H4 C3 1_555 1_555
C4 C3 1_555 1_555
C5 N1 1_555 1_555
C6 C5 1_555 1_555
H5 C6 1_555 1_555
C7 C6 1_555 1_555
H6 C7 1_555 1_555
C8 C7 1_555 1_555
H7 C8 1_555 1_555
C9 C4 1_555 1_555
H8 C9 1_555 1_555
C10 C1 1_555 1_555
C11 C10 1_555 1_555
H9 C11 1_555 1_555
C12 C11 1_555 1_555
H10 C12 1_555 1_555
C13 C12 1_555 1_555
H11 C13 1_555 1_555
C14 C13 1_555 1_555
H12 C14 1_555 1_555
C15 C10 1_555 1_555
H13 C15 1_555 1_555
C16 S1 1_555 1_555
C17 C16 1_555 1_555
H14 C17 1_555 1_555
C18 C17 1_555 1_555
H15 C18 1_555 1_555
C19 C18 1_555 1_555
C20 C19 1_555 1_555
H16 C20 1_555 1_555
C21 C16 1_555 1_555
H17 C21 1_555 1_555
C22 C19 1_555 1_555
H18 C22 1_555 1_555
H19 C22 1_555 1_555
H20 C22 1_555 1_555
H21 N1 1_555 1_555
H22 N2 1_555 1_555
C4 C5 1_555 1_555
C8 C9 1_555 1_555
C14 C15 1_555 1_555
C20 C21 1_555 1_555

#END
