
#######################################################################
#
#                 Cambridge Crystallographic Data Centre
#                                CCDC 
#
#######################################################################
#
# If this CIF has been generated from an entry in the Cambridge 
# Structural Database, then it will include bibliographic, chemical, 
# crystal, experimental, refinement or atomic coordinate data resulting 
# from the CCDC's data processing and validation procedures.
#
#######################################################################

data_BEWZOU
_chemical_formula_moiety         'C16 H23 N1 O3'
_chemical_name_systematic        
't-Butyl 3-(hydroxy(phenyl)methyl)pyrrolidine-1-carboxylate'
_symmetry_cell_setting           monoclinic
_symmetry_space_group_name_H-M   'P 21'
_symmetry_Int_Tables_number      4
_space_group_name_Hall           'P 2yb'
loop_
_symmetry_equiv_pos_site_id
_symmetry_equiv_pos_as_xyz
1 x,y,z
2 -x,1/2+y,-z
_cell_length_a                   8.543(2)
_cell_length_b                   8.432(2)
_cell_length_c                   11.504(2)
_cell_angle_alpha                90
_cell_angle_beta                 103.716(8)
_cell_angle_gamma                90
_cell_volume                     805.054
_exptl_crystal_colour            colorless
_exptl_crystal_description       Lath
_cell_formula_units_Z            2
loop_
_atom_site_label
_atom_site_type_symbol
_atom_site_fract_x
_atom_site_fract_y
_atom_site_fract_z
C1 C 0.65598(12) 0.39403(15) 0.94128(9)
H1 H 0.753(2) 0.328(3) 0.9372(17)
H2 H 0.6365(18) 0.377(2) 1.0220(14)
H3 H 0.684(2) 0.509(2) 0.9375(15)
C2 C 0.36759(13) 0.46589(15) 0.85017(10)
H4 H 0.397(2) 0.569(3) 0.8401(17)
H5 H 0.345(2) 0.450(2) 0.9310(16)
H6 H 0.2712(19) 0.446(2) 0.7867(14)
C3 C 0.46538(19) 0.18326(14) 0.84408(11)
H7 H 0.374(2) 0.159(3) 0.7812(17)
H8 H 0.430(2) 0.174(2) 0.9188(17)
H9 H 0.558(3) 0.120(3) 0.843(2)
C4 C 0.50735(10) 0.35852(10) 0.84220(7)
O1 O 0.56448(7) 0.39332(9) 0.73445(5)
C5 C 0.46966(9) 0.36762(9) 0.62450(7)
O2 O 0.32655(7) 0.33070(8) 0.60322(6)
N1 N 0.55283(8) 0.38837(10) 0.54071(6)
C6 C 0.72730(9) 0.41613(11) 0.56657(7)
H10 H 0.7862(17) 0.3241(18) 0.6127(13)
H11 H 0.7536(17) 0.5113(17) 0.6152(13)
C7 C 0.76130(9) 0.43207(8) 0.44216(7)
H12 H 0.7430(14) 0.5419(15) 0.4166(11)
C8 C 0.63002(10) 0.32842(11) 0.36393(7)
H13 H 0.6094(17) 0.3538(18) 0.2785(13)
H14 H 0.6614(18) 0.2155(19) 0.3753(13)
C9 C 0.48179(10) 0.36015(12) 0.41318(7)
H15 H 0.422(2) 0.459(2) 0.3809(16)
H16 H 0.4059(18) 0.2678(19) 0.4023(13)
C10 C 0.93279(9) 0.38326(9) 0.44350(7)
H17 H 0.9479(16) 0.2658(17) 0.4678(12)
O3 O 1.03444(7) 0.47559(8) 0.53572(6)
H18 H 1.1323(16) 0.4384(17) 0.5527(12)
C11 C 0.97636(9) 0.40804(10) 0.32471(7)
C12 C 0.98385(13) 0.56173(12) 0.27994(10)
H19 H 0.9547(18) 0.6549(19) 0.3252(13)
C13 C 1.02956(15) 0.58543(18) 0.17313(11)
H20 H 1.039(2) 0.696(2) 0.1429(16)
C14 C 1.06861(14) 0.4569(2) 0.11003(11)
H21 H 1.098(2) 0.474(2) 0.0364(17)
C15 C 1.05959(14) 0.30388(19) 0.15312(10)
H22 H 1.085(2) 0.208(2) 0.1115(17)
C16 C 1.01242(11) 0.27897(13) 0.26033(9)
H23 H 1.0047(18) 0.175(2) 0.2897(13)
loop_
_geom_bond_atom_site_label_1
_geom_bond_atom_site_label_2
_geom_bond_site_symmetry_1
_geom_bond_site_symmetry_2
C1 H1 1_555 1_555
H2 C1 1_555 1_555
H3 C1 1_555 1_555
C2 H4 1_555 1_555
H5 C2 1_555 1_555
H6 C2 1_555 1_555
C3 H7 1_555 1_555
H8 C3 1_555 1_555
H9 C3 1_555 1_555
C4 C1 1_555 1_555
O1 C4 1_555 1_555
C5 O1 1_555 1_555
O2 C5 1_555 1_555
N1 C5 1_555 1_555
C6 N1 1_555 1_555
H10 C6 1_555 1_555
H11 C6 1_555 1_555
C7 C6 1_555 1_555
H12 C7 1_555 1_555
C8 C7 1_555 1_555
H13 C8 1_555 1_555
H14 C8 1_555 1_555
C9 N1 1_555 1_555
H15 C9 1_555 1_555
H16 C9 1_555 1_555
C10 C7 1_555 1_555
H17 C10 1_555 1_555
O3 C10 1_555 1_555
H18 O3 1_555 1_555
C11 C10 1_555 1_555
C12 C11 1_555 1_555
H19 C12 1_555 1_555
C13 C12 1_555 1_555
H20 C13 1_555 1_555
C14 C13 1_555 1_555
H21 C14 1_555 1_555
C15 C14 1_555 1_555
H22 C15 1_555 1_555
C16 C11 1_555 1_555
H23 C16 1_555 1_555
C2 C4 1_555 1_555
C3 C4 1_555 1_555
C8 C9 1_555 1_555
C15 C16 1_555 1_555

#END
