
#######################################################################
#
#                 Cambridge Crystallographic Data Centre
#                                CCDC 
#
#######################################################################
#
# If this CIF has been generated from an entry in the Cambridge 
# Structural Database, then it will include bibliographic, chemical, 
# crystal, experimental, refinement or atomic coordinate data resulting 
# from the CCDC's data processing and validation procedures.
#
#######################################################################

data_BEXFOC
_chemical_formula_moiety         'C43 H26 F1 N3 O2'
_chemical_name_systematic        
5-(9,9-dimethylacridin-10(9H)-yl)-6-fluorobenzo[b]dinaphtho[2,1-e:1',2'-g][1,4]dioxocine-4,7-dicarbonitrile
_symmetry_cell_setting           monoclinic
_symmetry_space_group_name_H-M   'P 21'
_symmetry_Int_Tables_number      4
_space_group_name_Hall           'P 2yb'
loop_
_symmetry_equiv_pos_site_id
_symmetry_equiv_pos_as_xyz
1 x,y,z
2 -x,1/2+y,-z
_cell_length_a                   9.26179(17)
_cell_length_b                   12.6260(2)
_cell_length_c                   13.4225(3)
_cell_angle_alpha                90
_cell_angle_beta                 101.5586(19)
_cell_angle_gamma                90
_cell_volume                     1537.79
_exptl_crystal_colour            red
_exptl_crystal_description       plate
_cell_formula_units_Z            2
loop_
_atom_site_label
_atom_site_type_symbol
_atom_site_fract_x
_atom_site_fract_y
_atom_site_fract_z
F1 F 0.36390(15) 0.21389(12) 0.60925(11)
O1 O 0.74405(18) 0.40606(14) 0.81794(12)
O2 O 0.65028(18) 0.59368(14) 0.69745(13)
N1 N 0.2684(2) 0.39159(18) 0.48550(15)
N2 N 0.6332(3) 0.1485(2) 0.82629(18)
N3 N 0.3912(2) 0.65276(19) 0.48075(17)
C1 C 0.4358(3) 0.3060(2) 0.62868(19)
C2 C 0.5537(3) 0.3109(2) 0.71097(18)
C3 C 0.6283(3) 0.4068(2) 0.73616(18)
C4 C 0.5879(3) 0.4959(2) 0.67576(18)
C5 C 0.4691(3) 0.4877(2) 0.59330(18)
C6 C 0.3893(3) 0.3935(2) 0.56918(18)
C7 C 0.5989(3) 0.2195(2) 0.77330(18)
C8 C 0.4268(3) 0.5797(2) 0.53112(17)
C9 C 0.7396(3) 0.4838(2) 0.89240(18)
C10 C 0.8218(3) 0.5742(2) 0.89176(17)
C11 C 0.8235(3) 0.6499(2) 0.97177(18)
C12 C 0.9052(3) 0.7447(2) 0.97828(18)
H1 H 0.9639 0.7586 0.9293
C13 C 0.9018(3) 0.8168(2) 1.0535(2)
H2 H 0.9588 0.8798 1.0568
C14 C 0.8137(3) 0.7983(2) 1.1268(2)
H3 H 0.8091 0.8497 1.1777
C15 C 0.7356(3) 0.7063(2) 1.1240(2)
H4 H 0.6790 0.6934 1.1745
C16 C 0.7373(3) 0.6294(2) 1.04694(19)
C17 C 0.6547(3) 0.5344(2) 1.04250(18)
H5 H 0.5975 0.5211 1.0925
C18 C 0.6562(3) 0.4614(2) 0.96733(19)
H6 H 0.6025 0.3971 0.9655
C19 C 0.8052(3) 0.60106(19) 0.70865(18)
C20 C 0.8932(3) 0.59398(19) 0.80389(18)
C21 C 1.0489(3) 0.60570(19) 0.81288(18)
C22 C 1.1495(3) 0.5966(2) 0.90720(18)
H7 H 1.1134 0.5809 0.9670
C23 C 1.2979(3) 0.6099(2) 0.9136(2)
H8 H 1.3635 0.6033 0.9775
C24 C 1.3535(3) 0.6335(2) 0.8258(2)
H9 H 1.4565 0.6429 0.8307
C25 C 1.2596(3) 0.6427(2) 0.7336(2)
H10 H 1.2983 0.6592 0.6750
C26 C 1.1057(3) 0.62808(19) 0.72361(19)
C27 C 1.0080(3) 0.6368(2) 0.62832(19)
H11 H 1.0460 0.6523 0.5693
C28 C 0.8601(3) 0.62323(19) 0.62025(19)
H12 H 0.7950 0.6286 0.5560
C29 C 0.2972(3) 0.3895(2) 0.38564(18)
C30 C 0.4355(3) 0.3599(2) 0.36966(19)
H13 H 0.5104 0.3406 0.4260
C31 C 0.4651(3) 0.3584(2) 0.27264(19)
H14 H 0.5603 0.3392 0.2626
C32 C 0.3555(3) 0.3849(2) 0.1904(2)
H15 H 0.3744 0.3833 0.1234
C33 C 0.2177(3) 0.4138(2) 0.20670(19)
H16 H 0.1433 0.4325 0.1498
C34 C 0.1840(3) 0.4166(2) 0.30346(19)
C35 C 0.0346(3) 0.4545(2) 0.32058(19)
C36 C 0.0051(3) 0.4103(2) 0.42092(18)
C37 C -0.1367(3) 0.3995(2) 0.4385(2)
H17 H -0.2177 0.4143 0.3846
C38 C -0.1649(3) 0.3677(2) 0.5320(2)
H18 H -0.2635 0.3591 0.5409
C39 C -0.0486(3) 0.3487(2) 0.6118(2)
H19 H -0.0662 0.3293 0.6766
C40 C 0.0950(3) 0.3583(2) 0.59622(19)
H20 H 0.1753 0.3455 0.6511
C41 C 0.1227(3) 0.38656(19) 0.50137(19)
C42 C -0.0883(3) 0.4238(2) 0.23123(19)
H21 H -0.0927 0.3465 0.2248
H22 H -0.0682 0.4548 0.1685
H23 H -0.1827 0.4504 0.2432
C43 C 0.0396(3) 0.5770(2) 0.3293(2)
H24 H -0.0549 0.6030 0.3418
H25 H 0.0579 0.6074 0.2658
H26 H 0.1188 0.5979 0.3858
loop_
_geom_bond_atom_site_label_1
_geom_bond_atom_site_label_2
_geom_bond_site_symmetry_1
_geom_bond_site_symmetry_2
F1 C1 1_555 1_555
O1 C3 1_555 1_555
O2 C4 1_555 1_555
N1 C6 1_555 1_555
N2 C7 1_555 1_555
N3 C8 1_555 1_555
C1 C2 1_555 1_555
C2 C3 1_555 1_555
C3 C4 1_555 1_555
C4 C5 1_555 1_555
C5 C6 1_555 1_555
C6 C1 1_555 1_555
C7 C2 1_555 1_555
C8 C5 1_555 1_555
C9 O1 1_555 1_555
C10 C9 1_555 1_555
C11 C10 1_555 1_555
C12 C11 1_555 1_555
H1 C12 1_555 1_555
C13 C12 1_555 1_555
H2 C13 1_555 1_555
C14 C13 1_555 1_555
H3 C14 1_555 1_555
C15 C14 1_555 1_555
H4 C15 1_555 1_555
C16 C11 1_555 1_555
C17 C16 1_555 1_555
H5 C17 1_555 1_555
C18 C9 1_555 1_555
H6 C18 1_555 1_555
C19 O2 1_555 1_555
C20 C10 1_555 1_555
C21 C20 1_555 1_555
C22 C21 1_555 1_555
H7 C22 1_555 1_555
C23 C22 1_555 1_555
H8 C23 1_555 1_555
C24 C23 1_555 1_555
H9 C24 1_555 1_555
C25 C24 1_555 1_555
H10 C25 1_555 1_555
C26 C21 1_555 1_555
C27 C26 1_555 1_555
H11 C27 1_555 1_555
C28 C19 1_555 1_555
H12 C28 1_555 1_555
C29 N1 1_555 1_555
C30 C29 1_555 1_555
H13 C30 1_555 1_555
C31 C30 1_555 1_555
H14 C31 1_555 1_555
C32 C31 1_555 1_555
H15 C32 1_555 1_555
C33 C32 1_555 1_555
H16 C33 1_555 1_555
C34 C29 1_555 1_555
C35 C34 1_555 1_555
C36 C35 1_555 1_555
C37 C36 1_555 1_555
H17 C37 1_555 1_555
C38 C37 1_555 1_555
H18 C38 1_555 1_555
C39 C38 1_555 1_555
H19 C39 1_555 1_555
C40 C39 1_555 1_555
H20 C40 1_555 1_555
C41 N1 1_555 1_555
C42 C35 1_555 1_555
H21 C42 1_555 1_555
H22 C42 1_555 1_555
H23 C42 1_555 1_555
C43 C35 1_555 1_555
H24 C43 1_555 1_555
H25 C43 1_555 1_555
H26 C43 1_555 1_555
C15 C16 1_555 1_555
C17 C18 1_555 1_555
C19 C20 1_555 1_555
C25 C26 1_555 1_555
C27 C28 1_555 1_555
C33 C34 1_555 1_555
C36 C41 1_555 1_555
C40 C41 1_555 1_555

#END
