
#######################################################################
#
#                 Cambridge Crystallographic Data Centre
#                                CCDC 
#
#######################################################################
#
# If this CIF has been generated from an entry in the Cambridge 
# Structural Database, then it will include bibliographic, chemical, 
# crystal, experimental, refinement or atomic coordinate data resulting 
# from the CCDC's data processing and validation procedures.
#
#######################################################################

data_BEXHAQ
_chemical_compound_source        'Macrolepiota procera'
_chemical_name_common            'lepiotaprocerin G'
_chemical_formula_moiety         'C30 H38 O5'
_chemical_name_systematic        
16,23:23,26-diepoxylanosta-1,8,24-triene-3,11,26-trione
_symmetry_cell_setting           orthorhombic
_symmetry_space_group_name_H-M   'P 21 21 21'
_symmetry_Int_Tables_number      19
_space_group_name_Hall           'P 2ac 2ab'
loop_
_symmetry_equiv_pos_site_id
_symmetry_equiv_pos_as_xyz
1 x,y,z
2 1/2+x,1/2-y,-z
3 -x,1/2+y,1/2-z
4 1/2-x,-y,1/2+z
_cell_length_a                   6.2081(3)
_cell_length_b                   19.8715(11)
_cell_length_c                   20.2149(11)
_cell_angle_alpha                90
_cell_angle_beta                 90
_cell_angle_gamma                90
_cell_volume                     2493.8
_exptl_crystal_colour            colorless
_exptl_crystal_description       needle
_cell_formula_units_Z            4
loop_
_atom_site_label
_atom_site_type_symbol
_atom_site_fract_x
_atom_site_fract_y
_atom_site_fract_z
O1 O 0.0180(4) 0.72910(9) 1.07983(11)
O2 O 0.1722(3) 0.21605(8) 0.87584(9)
O3 O 0.0683(3) 0.10482(8) 0.85536(9)
O4 O 0.1967(3) -0.00083(9) 0.85077(10)
O5 O -0.0477(4) 0.54574(9) 0.82116(10)
C1 C 0.0395(5) 0.67848(13) 1.04724(15)
C2 C -0.0842(6) 0.67044(14) 0.98599(18)
H1 H -0.1905 0.7033 0.9761
C3 C -0.0572(6) 0.61942(13) 0.94262(16)
H2 H -0.1449 0.6176 0.9042
C4 C 0.1119(5) 0.56430(13) 0.95407(14)
C5 C 0.0342(5) 0.49622(13) 0.92580(13)
C6 C 0.0611(4) 0.43780(12) 0.95887(12)
C7 C -0.0354(4) 0.37271(12) 0.93170(12)
C8 C 0.0689(5) 0.30466(12) 0.95111(13)
H3 H 0.2280 0.3079 0.9509
H4 H 0.0204 0.2900 0.9955
C9 C -0.0111(4) 0.25596(13) 0.89718(13)
H5 H -0.1267 0.2261 0.9152
C10 C 0.1265(5) 0.16951(12) 0.82517(14)
C11 C 0.2135(5) 0.05724(13) 0.83552(13)
C12 C 0.1923(5) 0.62188(13) 1.06882(14)
C13 C 0.1361(5) 0.55659(12) 1.03025(13)
H6 H -0.0100 0.5433 1.0464
C14 C 0.3184(6) 0.58528(17) 0.91747(15)
H7 H 0.3512 0.6324 0.9275
H8 H 0.2972 0.5800 0.8697
H9 H 0.4383 0.5568 0.9319
C15 C -0.0508(5) 0.49557(13) 0.85610(13)
C16 C -0.1343(5) 0.43060(12) 0.82676(13)
H10 H -0.1163 0.4316 0.7781
H11 H -0.2900 0.4261 0.8365
C17 C -0.0142(4) 0.37037(12) 0.85500(12)
C18 C -0.2701(4) 0.37101(13) 0.95704(14)
H12 H -0.3495 0.4095 0.9390
H13 H -0.2707 0.3734 1.0055
H14 H -0.3392 0.3291 0.9428
C19 C 0.1707(5) 0.43255(13) 1.02468(13)
H15 H 0.2796 0.3962 1.0226
H16 H 0.0628 0.4198 1.0585
C20 C 0.2804(5) 0.49727(13) 1.04613(13)
H17 H 0.3096 0.4958 1.0943
H18 H 0.4196 0.5022 1.0227
C21 C -0.1004(4) 0.29926(12) 0.83936(13)
H19 H -0.2606 0.3008 0.8444
C22 C -0.0528(5) 0.26777(12) 0.77152(13)
H20 H 0.0956 0.2811 0.7574
C23 C -0.0595(5) 0.19155(12) 0.78144(13)
H21 H -0.1977 0.1786 0.8023
H22 H -0.0496 0.1687 0.7380
C24 C 0.3809(5) 0.08965(13) 0.79434(13)
C25 C 0.3286(5) 0.15416(13) 0.78908(13)
H23 H 0.4103 0.1865 0.7652
C26 C 0.5622(5) 0.05001(13) 0.76606(14)
H24 H 0.6588 0.0357 0.8017
H25 H 0.6421 0.0779 0.7345
H26 H 0.5051 0.0103 0.7433
C27 C -0.2124(5) 0.29030(13) 0.71889(14)
H27 H -0.3596 0.2820 0.7345
H28 H -0.1872 0.2649 0.6781
H29 H -0.1933 0.3385 0.7102
C28 C 0.2234(4) 0.37567(13) 0.83346(13)
H30 H 0.2905 0.4144 0.8553
H31 H 0.2308 0.3815 0.7854
H32 H 0.2999 0.3345 0.8460
C29 C 0.4248(5) 0.64652(15) 1.06026(16)
H33 H 0.5245 0.6094 1.0691
H34 H 0.4528 0.6834 1.0913
H35 H 0.4456 0.6626 1.0149
C30 C 0.1562(6) 0.61032(14) 1.14307(14)
H36 H 0.1681 0.6533 1.1666
H37 H 0.2651 0.5790 1.1599
H38 H 0.0124 0.5913 1.1502
loop_
_geom_bond_atom_site_label_1
_geom_bond_atom_site_label_2
_geom_bond_site_symmetry_1
_geom_bond_site_symmetry_2
O1 C1 1_555 1_555
O2 C9 1_555 1_555
O3 C10 1_555 1_555
O4 C11 1_555 1_555
O5 C15 1_555 1_555
C1 C2 1_555 1_555
C2 H1 1_555 1_555
C3 C2 1_555 1_555
H2 C3 1_555 1_555
C4 C3 1_555 1_555
C5 C4 1_555 1_555
C6 C5 1_555 1_555
C7 C6 1_555 1_555
C8 C7 1_555 1_555
H3 C8 1_555 1_555
H4 C8 1_555 1_555
C9 C8 1_555 1_555
H5 C9 1_555 1_555
C10 O2 1_555 1_555
C11 O3 1_555 1_555
C12 C1 1_555 1_555
C13 C4 1_555 1_555
H6 C13 1_555 1_555
C14 C4 1_555 1_555
H7 C14 1_555 1_555
H8 C14 1_555 1_555
H9 C14 1_555 1_555
C15 C5 1_555 1_555
C16 C15 1_555 1_555
H10 C16 1_555 1_555
H11 C16 1_555 1_555
C17 C7 1_555 1_555
C18 C7 1_555 1_555
H12 C18 1_555 1_555
H13 C18 1_555 1_555
H14 C18 1_555 1_555
C19 C6 1_555 1_555
H15 C19 1_555 1_555
H16 C19 1_555 1_555
C20 C13 1_555 1_555
H17 C20 1_555 1_555
H18 C20 1_555 1_555
C21 C9 1_555 1_555
H19 C21 1_555 1_555
C22 C21 1_555 1_555
H20 C22 1_555 1_555
C23 C10 1_555 1_555
H21 C23 1_555 1_555
H22 C23 1_555 1_555
C24 C11 1_555 1_555
C25 C10 1_555 1_555
H23 C25 1_555 1_555
C26 C24 1_555 1_555
H24 C26 1_555 1_555
H25 C26 1_555 1_555
H26 C26 1_555 1_555
C27 C22 1_555 1_555
H27 C27 1_555 1_555
H28 C27 1_555 1_555
H29 C27 1_555 1_555
C28 C17 1_555 1_555
H30 C28 1_555 1_555
H31 C28 1_555 1_555
H32 C28 1_555 1_555
C29 C12 1_555 1_555
H33 C29 1_555 1_555
H34 C29 1_555 1_555
H35 C29 1_555 1_555
C30 C12 1_555 1_555
H36 C30 1_555 1_555
H37 C30 1_555 1_555
H38 C30 1_555 1_555
C12 C13 1_555 1_555
C16 C17 1_555 1_555
C17 C21 1_555 1_555
C19 C20 1_555 1_555
C22 C23 1_555 1_555
C24 C25 1_555 1_555

#END
