
#######################################################################
#
#                 Cambridge Crystallographic Data Centre
#                                CCDC 
#
#######################################################################
#
# If this CIF has been generated from an entry in the Cambridge 
# Structural Database, then it will include bibliographic, chemical, 
# crystal, experimental, refinement or atomic coordinate data resulting 
# from the CCDC's data processing and validation procedures.
#
#######################################################################

data_BEXLUL02
_chemical_formula_moiety         'C19 H18 N2 O3'
_chemical_name_systematic        
1',3',3'-trimethyl-6-nitro-1',3'-dihydrospiro[chromene-2,2'-indole]
_symmetry_cell_setting           monoclinic
_symmetry_space_group_name_H-M   'P 21/n'
_symmetry_Int_Tables_number      14
_space_group_name_Hall           '-P 2yn'
loop_
_symmetry_equiv_pos_site_id
_symmetry_equiv_pos_as_xyz
1 x,y,z
2 1/2-x,1/2+y,1/2-z
3 -x,-y,-z
4 1/2+x,1/2-y,1/2+z
_cell_length_a                   16.076(3)
_cell_length_b                   10.906(6)
_cell_length_c                   19.607(4)
_cell_angle_alpha                90
_cell_angle_beta                 106.382(4)
_cell_angle_gamma                90
_cell_volume                     3298.04
_cell_formula_units_Z            8
loop_
_atom_site_label
_atom_site_type_symbol
_atom_site_fract_x
_atom_site_fract_y
_atom_site_fract_z
O1 O 0.79119(11) 0.66301(15) 0.40370(9)
O2 O 1.03962(14) 0.86452(18) 0.23677(11)
O3 O 1.07966(13) 0.67467(18) 0.24708(11)
N1 N 0.69088(14) 0.5285(2) 0.42962(11)
N2 N 1.03357(14) 0.7592(2) 0.25656(11)
C1 C 0.78132(16) 0.5404(2) 0.43379(13)
C2 C 0.82728(16) 0.5427(2) 0.51556(13)
C3 C 0.75465(16) 0.5853(2) 0.54471(13)
C4 C 0.75629(19) 0.6193(2) 0.61299(14)
H1 H 0.8087 0.6251 0.6483
C5 C 0.6785(2) 0.6448(2) 0.62832(16)
H2 H 0.6788 0.6675 0.6741
C6 C 0.6017(2) 0.6363(2) 0.57569(17)
H3 H 0.5503 0.6539 0.5866
C7 C 0.59821(17) 0.6022(2) 0.50612(16)
H4 H 0.5457 0.5978 0.4707
C8 C 0.67629(16) 0.5750(2) 0.49199(13)
C9 C 0.90737(18) 0.6249(3) 0.53562(15)
H5 H 0.9478 0.5981 0.5109
H6 H 0.9340 0.6203 0.5860
H7 H 0.8906 0.7081 0.5226
C10 C 0.85357(19) 0.4120(3) 0.54341(16)
H8 H 0.8045 0.3583 0.5281
H9 H 0.8732 0.4131 0.5944
H10 H 0.8994 0.3830 0.5250
C11 C 0.6260(2) 0.5409(4) 0.36155(16)
H11 H 0.6172 0.6262 0.3496
H12 H 0.5725 0.5052 0.3643
H13 H 0.6454 0.4995 0.3256
C12 C 0.81218(17) 0.4411(2) 0.39404(13)
H14 H 0.7928 0.3614 0.3969
C13 C 0.86604(17) 0.4622(2) 0.35495(13)
H15 H 0.8873 0.3967 0.3346
C14 C 0.89204(15) 0.5857(2) 0.34366(12)
C15 C 0.95310(15) 0.6123(2) 0.30765(12)
H16 H 0.9830 0.5494 0.2928
C16 C 0.96880(15) 0.7334(2) 0.29421(12)
C17 C 0.92532(16) 0.8298(2) 0.31507(13)
H17 H 0.9359 0.9102 0.3042
C18 C 0.86595(17) 0.8045(2) 0.35232(13)
H18 H 0.8367 0.8680 0.3673
C19 C 0.85017(15) 0.6831(2) 0.36723(12)
O4 O 0.69929(13) 0.16489(16) 0.54249(10)
O5 O 0.50668(14) 0.17958(18) 0.77745(11)
O6 O 0.53728(14) 0.37102(18) 0.77261(11)
N3 N 0.80581(14) 0.0300(2) 0.52554(11)
N4 N 0.54039(14) 0.2650(2) 0.75393(11)
C20 C 0.71389(17) 0.0409(2) 0.51768(14)
C21 C 0.67217(16) 0.0395(2) 0.43524(14)
C22 C 0.74703(16) 0.0819(2) 0.40896(13)
C23 C 0.75065(19) 0.1160(2) 0.34208(14)
H19 H 0.7002 0.1202 0.3046
C24 C 0.8304(2) 0.1442(3) 0.33119(15)
H20 H 0.8333 0.1661 0.2861
C25 C 0.9048(2) 0.1399(2) 0.38672(17)
H21 H 0.9575 0.1604 0.3788
C26 C 0.90287(17) 0.1055(2) 0.45455(15)
H22 H 0.9533 0.1032 0.4922
C27 C 0.82326(16) 0.0747(2) 0.46434(13)
C28 C 0.6467(2) -0.0911(3) 0.40777(16)
H23 H 0.5991 -0.1188 0.4242
H24 H 0.6953 -0.1450 0.4252
H25 H 0.6298 -0.0910 0.3567
C29 C 0.59180(19) 0.1221(3) 0.41175(18)
H26 H 0.6089 0.2062 0.4207
H27 H 0.5517 0.1008 0.4380
H28 H 0.5646 0.1108 0.3619
C30 C 0.8664(2) 0.0488(3) 0.59493(15)
H29 H 0.8444 0.0109 0.6305
H30 H 0.8738 0.1351 0.6044
H31 H 0.9213 0.0128 0.5960
C31 C 0.68311(19) -0.0575(2) 0.55785(15)
H32 H 0.6901 -0.1387 0.5460
C32 C 0.64626(19) -0.0358(2) 0.60951(15)
H33 H 0.6287 -0.1011 0.6326
C33 C 0.63317(16) 0.0889(2) 0.63011(13)
C34 C 0.59386(16) 0.1166(2) 0.68311(13)
H34 H 0.5741 0.0542 0.7068
C35 C 0.58463(15) 0.2376(2) 0.70003(12)
C36 C 0.61464(17) 0.3336(2) 0.66701(13)
H35 H 0.6087 0.4144 0.6801
C37 C 0.65364(17) 0.3066(2) 0.61425(14)
H36 H 0.6740 0.3696 0.5913
C38 C 0.66242(16) 0.1850(2) 0.59545(13)
loop_
_geom_bond_atom_site_label_1
_geom_bond_atom_site_label_2
_geom_bond_site_symmetry_1
_geom_bond_site_symmetry_2
O1 C1 1_555 1_555
O2 N2 1_555 1_555
O3 N2 1_555 1_555
N1 C1 1_555 1_555
N2 C16 1_555 1_555
C1 C2 1_555 1_555
C2 C3 1_555 1_555
C3 C4 1_555 1_555
C4 H1 1_555 1_555
C5 C4 1_555 1_555
H2 C5 1_555 1_555
C6 C5 1_555 1_555
H3 C6 1_555 1_555
C7 C6 1_555 1_555
H4 C7 1_555 1_555
C8 N1 1_555 1_555
C9 C2 1_555 1_555
H5 C9 1_555 1_555
H6 C9 1_555 1_555
H7 C9 1_555 1_555
C10 C2 1_555 1_555
H8 C10 1_555 1_555
H9 C10 1_555 1_555
H10 C10 1_555 1_555
C11 N1 1_555 1_555
H11 C11 1_555 1_555
H12 C11 1_555 1_555
H13 C11 1_555 1_555
C12 C1 1_555 1_555
H14 C12 1_555 1_555
C13 C12 1_555 1_555
H15 C13 1_555 1_555
C14 C13 1_555 1_555
C15 C14 1_555 1_555
H16 C15 1_555 1_555
C16 C15 1_555 1_555
C17 C16 1_555 1_555
H17 C17 1_555 1_555
C18 C17 1_555 1_555
H18 C18 1_555 1_555
C19 O1 1_555 1_555
O4 C20 1_555 1_555
O5 N4 1_555 1_555
O6 N4 1_555 1_555
N3 C20 1_555 1_555
N4 C35 1_555 1_555
C20 C21 1_555 1_555
C21 C22 1_555 1_555
C22 C23 1_555 1_555
C23 H19 1_555 1_555
C24 C23 1_555 1_555
H20 C24 1_555 1_555
C25 C24 1_555 1_555
H21 C25 1_555 1_555
C26 C25 1_555 1_555
H22 C26 1_555 1_555
C27 N3 1_555 1_555
C28 C21 1_555 1_555
H23 C28 1_555 1_555
H24 C28 1_555 1_555
H25 C28 1_555 1_555
C29 C21 1_555 1_555
H26 C29 1_555 1_555
H27 C29 1_555 1_555
H28 C29 1_555 1_555
C30 N3 1_555 1_555
H29 C30 1_555 1_555
H30 C30 1_555 1_555
H31 C30 1_555 1_555
C31 C20 1_555 1_555
H32 C31 1_555 1_555
C32 C31 1_555 1_555
H33 C32 1_555 1_555
C33 C32 1_555 1_555
C34 C33 1_555 1_555
H34 C34 1_555 1_555
C35 C34 1_555 1_555
C36 C35 1_555 1_555
H35 C36 1_555 1_555
C37 C36 1_555 1_555
H36 C37 1_555 1_555
C38 O4 1_555 1_555
C3 C8 1_555 1_555
C7 C8 1_555 1_555
C14 C19 1_555 1_555
C18 C19 1_555 1_555
C22 C27 1_555 1_555
C26 C27 1_555 1_555
C33 C38 1_555 1_555
C37 C38 1_555 1_555

#END
