
#######################################################################
#
#                 Cambridge Crystallographic Data Centre
#                                CCDC 
#
#######################################################################
#
# If this CIF has been generated from an entry in the Cambridge 
# Structural Database, then it will include bibliographic, chemical, 
# crystal, experimental, refinement or atomic coordinate data resulting 
# from the CCDC's data processing and validation procedures.
#
#######################################################################

data_BEXNAT
_chemical_formula_moiety         
'C48 H68 N4 O8,C5 H16 N2 2+,2(C6 H2 Br1 N2 O5 1-),2(C4 H8 O1)'
_chemical_name_systematic        
'bis(2,6-((\m~2~-1,10-Diaza-4,7,13,16-tetraoxacyclo-octadeca-1,10-diyl)-methyl)-naphthalene) pentamethylene-diammonium bis(2-bromo-4,6-dinitrophenolate) tetrahydrofuran solvate clathrate'
_symmetry_cell_setting           monoclinic
_symmetry_space_group_name_H-M   'P 21/c'
_symmetry_Int_Tables_number      14
_space_group_name_Hall           '-P 2ybc'
loop_
_symmetry_equiv_pos_site_id
_symmetry_equiv_pos_as_xyz
1 x,y,z
2 -x,1/2+y,1/2-z
3 -x,-y,-z
4 x,1/2-y,1/2+z
_cell_length_a                   11.865(1)
_cell_length_b                   32.622(2)
_cell_length_c                   20.179(2)
_cell_angle_alpha                90
_cell_angle_beta                 100.40(2)
_cell_angle_gamma                90
_cell_volume                     7682.17
_cell_formula_units_Z            4
loop_
_atom_site_label
_atom_site_type_symbol
_atom_site_fract_x
_atom_site_fract_y
_atom_site_fract_z
N2 N 0.19830 0.14780 0.42670
C7 C 0.13750 0.11710 0.38420
C8 C 0.13370 0.11250 0.30960
O4 O 0.21850 0.13220 0.28120
C9 C 0.21790 0.12690 0.20970
C10 C 0.29310 0.15070 0.18380
O5 O 0.41140 0.13920 0.21820
C11 C 0.45770 0.10430 0.18680
C12 C 0.58580 0.10500 0.21550
N3 N 0.61600 0.09330 0.28750
C13 C 0.58520 0.04940 0.30590
C14 C 0.60420 0.04040 0.37260
O6 O 0.54950 0.06330 0.41370
C15 C 0.54800 0.04900 0.47820
C16 C 0.51320 0.07260 0.51300
O7 O 0.40370 0.09360 0.48940
C17 C 0.33390 0.11140 0.52220
C18 C 0.22450 0.11740 0.48760
N4 N 0.87010 0.36200 0.31600
C19 C 0.91820 0.40450 0.34680
C20 C 0.94310 0.40850 0.42170
O8 O 0.84800 0.39380 0.45170
C21 C 0.85980 0.40790 0.52390
C22 C 0.77690 0.38600 0.54880
O9 O 0.65690 0.39570 0.51450
C23 C 0.60490 0.43280 0.52130
C24 C 0.47690 0.42870 0.49250
N5 N 0.44350 0.42200 0.42040
C25 C 0.48020 0.46010 0.38290
C26 C 0.45230 0.45570 0.30960
O10 O 0.49770 0.41640 0.29020
C27 C 0.48930 0.41290 0.21680
C28 C 0.52300 0.37150 0.19930
O11 O 0.63230 0.35730 0.23930
C29 C 0.72420 0.38060 0.21840
C30 C 0.84200 0.36090 0.24090
C31 C 0.74380 0.09580 0.31170
C32 C 0.78450 0.14320 0.30420
C33 C 0.79220 0.16890 0.35730
C34 C 0.83300 0.21140 0.35100
C35 C 0.83480 0.23940 0.40050
C36 C 0.88440 0.27510 0.39320
C37 C 0.92640 0.28840 0.33570
C38 C 0.91950 0.26140 0.28580
C39 C 0.87940 0.22270 0.28830
C40 C 0.87280 0.19160 0.24070
C41 C 0.82400 0.15270 0.24420
C42 C 0.12580 0.18260 0.43120
C43 C 0.32370 0.41510 0.40150
C44 C 0.27860 0.37340 0.41790
C45 C 0.28610 0.34110 0.37580
C46 C 0.25400 0.29860 0.38940
C47 C 0.24560 0.26720 0.33830
C48 C 0.21130 0.23050 0.35620
C49 C 0.18890 0.22330 0.41770
C50 C 0.17780 0.25300 0.45660
C51 C 0.21150 0.29180 0.44690
C52 C 0.21090 0.32420 0.49430
C53 C 0.24530 0.36410 0.48220
C54 C 0.96560 0.33210 0.33640
N6 N 0.44360 0.13790 0.36250
C55 C 0.48410 0.17790 0.40030
C56 C 0.50700 0.21350 0.35660
C57 C 0.53100 0.24970 0.39830
C58 C 0.56440 0.28560 0.36170
C59 C 0.60230 0.32170 0.41330
N7 N 0.62980 0.36170 0.38030
C60 C 0.45800 0.71300 0.42200
C61 C 0.53400 0.74600 0.41600
C62 C 0.48600 0.74800 0.33700
C63 C 0.37700 0.75900 0.34400
C64 C 0.37840 0.72150 0.39570
C65 C -0.08540 -0.00300 0.48600
C66 C -0.05350 0.02650 0.47200
C67 C -0.15100 0.05860 0.45500
Br2 Br -0.19680 0.52480 0.42610
C68 C -0.21240 0.50750 0.28760
C69 C -0.17130 0.50010 0.22320
C70 C -0.05180 0.50020 0.22710
C71 C 0.01540 0.50740 0.29300
C72 C -0.02060 0.51380 0.35600
C73 C -0.13460 0.51560 0.35590
O12 O -0.32570 0.50780 0.28310
N8 N 0.14650 0.50820 0.29870
O13 O 0.19960 0.51560 0.34880
O14 O 0.17220 0.50140 0.24650
Br1 Br 0.16410 0.41120 0.18620
C1 C 0.12570 0.32600 0.15130
C2 C 0.06530 0.28970 0.12660
C3 C -0.05850 0.29020 0.08320
C4 C -0.08860 0.33550 0.07760
C5 C -0.03060 0.37100 0.10180
C6 C 0.07530 0.36490 0.14110
O1 O 0.23000 0.32000 0.19000
N1 N -0.20890 0.35080 0.04090
O2 O -0.25480 0.31850 0.03170
O3 O -0.20160 0.38200 0.03290
loop_
_geom_bond_atom_site_label_1
_geom_bond_atom_site_label_2
_geom_bond_site_symmetry_1
_geom_bond_site_symmetry_2
Br1 C6 1_555 1_555
C1 C2 1_555 1_555
C2 C3 1_555 1_555
C3 C4 1_555 1_555
C4 C5 1_555 1_555
C5 C6 1_555 1_555
C6 C1 1_555 1_555
O1 C1 1_555 1_555
N1 C4 1_555 1_555
O2 N1 1_555 1_555
O3 N1 1_555 1_555
N2 C7 1_555 1_555
C7 C8 1_555 1_555
C8 O4 1_555 1_555
O4 C9 1_555 1_555
C9 C10 1_555 1_555
C10 O5 1_555 1_555
O5 C11 1_555 1_555
C11 C12 1_555 1_555
C12 N3 1_555 1_555
N3 C13 1_555 1_555
C13 C14 1_555 1_555
C14 O6 1_555 1_555
O6 C15 1_555 1_555
C15 C16 1_555 1_555
C16 O7 1_555 1_555
O7 C17 1_555 1_555
C17 C18 1_555 1_555
C18 N2 1_555 1_555
N4 C19 1_555 1_555
C19 C20 1_555 1_555
C20 O8 1_555 1_555
O8 C21 1_555 1_555
C21 C22 1_555 1_555
C22 O9 1_555 1_555
O9 C23 1_555 1_555
C23 C24 1_555 1_555
C24 N5 1_555 1_555
N5 C25 1_555 1_555
C25 C26 1_555 1_555
C26 O10 1_555 1_555
O10 C27 1_555 1_555
C27 C28 1_555 1_555
C28 O11 1_555 1_555
O11 C29 1_555 1_555
C29 C30 1_555 1_555
C30 N4 1_555 1_555
C31 N3 1_555 1_555
C32 C31 1_555 1_555
C33 C32 1_555 1_555
C34 C33 1_555 1_555
C35 C34 1_555 1_555
C36 C35 1_555 1_555
C37 C36 1_555 1_555
C38 C37 1_555 1_555
C39 C34 1_555 1_555
C40 C39 1_555 1_555
C41 C32 1_555 1_555
C42 N2 1_555 1_555
C43 N5 1_555 1_555
C44 C43 1_555 1_555
C45 C44 1_555 1_555
C46 C45 1_555 1_555
C47 C46 1_555 1_555
C48 C47 1_555 1_555
C49 C42 1_555 1_555
C50 C49 1_555 1_555
C51 C46 1_555 1_555
C52 C51 1_555 1_555
C53 C44 1_555 1_555
C54 N4 1_555 1_555
N6 C55 1_555 1_555
C55 C56 1_555 1_555
C56 C57 1_555 1_555
C57 C58 1_555 1_555
C58 C59 1_555 1_555
C59 N7 1_555 1_555
C60 C61 1_555 1_555
C61 C62 1_555 1_555
C62 C63 1_555 1_555
C63 C64 1_555 1_555
C64 C60 1_555 1_555
C65 C66 1_555 1_555
C66 C67 1_555 1_555
Br2 C73 1_555 1_555
C68 C69 1_555 1_555
C69 C70 1_555 1_555
C70 C71 1_555 1_555
C71 C72 1_555 1_555
C72 C73 1_555 1_555
C73 C68 1_555 1_555
O12 C68 1_555 1_555
N8 C71 1_555 1_555
O13 N8 1_555 1_555
O14 N8 1_555 1_555
C37 C54 1_555 1_555
C38 C39 1_555 1_555
C40 C41 1_555 1_555
C48 C49 1_555 1_555
C50 C51 1_555 1_555
C52 C53 1_555 1_555

#END
