
#######################################################################
#
#                 Cambridge Crystallographic Data Centre
#                                CCDC 
#
#######################################################################
#
# If this CIF has been generated from an entry in the Cambridge 
# Structural Database, then it will include bibliographic, chemical, 
# crystal, experimental, refinement or atomic coordinate data resulting 
# from the CCDC's data processing and validation procedures.
#
#######################################################################

data_BEXQAX
_chemical_formula_moiety         'C6 H13 N2 1+,C7 H6 N1 O2 1-,2(H2 O1)'
_chemical_name_systematic        
'1-Azonia-4-azabicyclo(2.2.2)octane 3-aminobenzoate dihydrate'
_symmetry_cell_setting           monoclinic
_symmetry_space_group_name_H-M   'C c'
_symmetry_Int_Tables_number      9
_space_group_name_Hall           'C -2yc'
loop_
_symmetry_equiv_pos_site_id
_symmetry_equiv_pos_as_xyz
1 x,y,z
2 x,-y,1/2+z
3 1/2+x,1/2+y,z
4 1/2+x,1/2-y,1/2+z
_cell_length_a                   14.2950(9)
_cell_length_b                   11.7660(7)
_cell_length_c                   9.8130(14)
_cell_angle_alpha                90
_cell_angle_beta                 116.214(7)
_cell_angle_gamma                90
_cell_volume                     1480.74
_exptl_crystal_colour            brown
_exptl_crystal_description       block
_chemical_melting_point          '184-186 deg.C'
_cell_formula_units_Z            4
loop_
_atom_site_label
_atom_site_type_symbol
_atom_site_fract_x
_atom_site_fract_y
_atom_site_fract_z
O1 O 0.1919 0.2862(4) 1.0656
O2 O 0.3340 0.1898(3) 1.1254
N1 N -0.0208 0.2211(5) 0.4898
C1 C 0.2457(5) 0.2193(4) 1.0310(6)
C2 C 0.2005(4) 0.1712(4) 0.8730(6)
C3 C 0.1105(4) 0.2164(4) 0.7576(6)
H1 H 0.0768 0.2765 0.7789
C4 C 0.0701(4) 0.1730(4) 0.6105(6)
C5 C 0.1217(5) 0.0823(4) 0.5813(7)
H2 H 0.0961 0.0528 0.4835
C6 C 0.2095(5) 0.0364(5) 0.6948(7)
H3 H 0.2422 -0.0248 0.6739
C7 C 0.2500(5) 0.0802(4) 0.8402(7)
H4 H 0.3102 0.0491 0.9163
H17 H -0.063(5) 0.266(5) 0.520(8)
H18 H -0.076(7) 0.174(8) 0.372(11)
O3 O 0.4731(5) 0.0023(5) 0.6849(8)
H20 H 0.433(5) -0.068(6) 0.668(7)
H21 H 0.507(6) 0.008(7) 0.777(12)
O4 O 0.5849(5) -0.0092(6) 0.0006(9)
H22 H 0.561(7) -0.008(7) 0.062(11)
H23 H 0.557(10) 0.067(13) -0.038(18)
N2 N 0.8233(5) 0.1784(5) -0.1207(7)
N3 N 0.8952 0.1338(4) 0.1576
C8 C 0.8048(5) 0.2108(6) 0.1094(7)
H5 H 0.8262 0.2810 0.1667
H6 H 0.7516 0.1758 0.1314
C9 C 0.7591(6) 0.2375(7) -0.0612(8)
H7 H 0.6874 0.2115 -0.1127
H8 H 0.7603 0.3188 -0.0770
C10 C 0.9735(6) 0.1869(7) 0.1250(8)
H9 H 1.0318 0.1353 0.1510
H10 H 0.9989 0.2547 0.1867
C11 C 0.9296(7) 0.2191(9) -0.0439(10)
H11 H 0.9313 0.3010 -0.0546
H12 H 0.9715 0.1848 -0.0884
C12 C 0.8579(6) 0.0302(5) 0.0653(7)
H13 H 0.8009 -0.0024 0.0804
H14 H 0.9138 -0.0253 0.0977
C13 C 0.8211(7) 0.0566(6) -0.1026(8)
H15 H 0.8663 0.0199 -0.1393
H16 H 0.7508 0.0283 -0.1610
H19 H 0.799(5) 0.195(5) -0.192(7)
loop_
_geom_bond_atom_site_label_1
_geom_bond_atom_site_label_2
_geom_bond_site_symmetry_1
_geom_bond_site_symmetry_2
O1 C1 1_555 1_555
O2 C1 1_555 1_555
O3 H20 1_555 1_555
O4 H22 1_555 1_555
N1 C4 1_555 1_555
N2 C9 1_555 1_555
N3 C8 1_555 1_555
C1 C2 1_555 1_555
C2 C3 1_555 1_555
C3 H1 1_555 1_555
C4 C3 1_555 1_555
C5 C4 1_555 1_555
H2 C5 1_555 1_555
C6 C5 1_555 1_555
H3 C6 1_555 1_555
C7 C2 1_555 1_555
H4 C7 1_555 1_555
C8 H5 1_555 1_555
H6 C8 1_555 1_555
C9 C8 1_555 1_555
H7 C9 1_555 1_555
H8 C9 1_555 1_555
C10 N3 1_555 1_555
H9 C10 1_555 1_555
H10 C10 1_555 1_555
C11 N2 1_555 1_555
H11 C11 1_555 1_555
H12 C11 1_555 1_555
C12 N3 1_555 1_555
H13 C12 1_555 1_555
H14 C12 1_555 1_555
C13 N2 1_555 1_555
H15 C13 1_555 1_555
H16 C13 1_555 1_555
H17 N1 1_555 1_555
H18 N1 1_555 1_555
H19 N2 1_555 1_555
H21 O3 1_555 1_555
H23 O4 1_555 1_555
C6 C7 1_555 1_555
C10 C11 1_555 1_555
C12 C13 1_555 1_555

#END
