
#######################################################################
#
#                 Cambridge Crystallographic Data Centre
#                                CCDC 
#
#######################################################################
#
# If this CIF has been generated from an entry in the Cambridge 
# Structural Database, then it will include bibliographic, chemical, 
# crystal, experimental, refinement or atomic coordinate data resulting 
# from the CCDC's data processing and validation procedures.
#
#######################################################################

data_BEXQEB
_chemical_formula_moiety         
'4(C7 H8 N1 O2 1+),O4 S1 2-,2(H1 O4 S1 1-),H2 O1'
_chemical_name_systematic        
'tetrakis(2-Ammoniobenzoic acid) sulfate bis(hydrogen sulfate) monohydrate'
_symmetry_cell_setting           triclinic
_symmetry_space_group_name_H-M   'P -1'
_symmetry_Int_Tables_number      2
_space_group_name_Hall           '-P 1'
loop_
_symmetry_equiv_pos_site_id
_symmetry_equiv_pos_as_xyz
1 x,y,z
2 -x,-y,-z
_cell_length_a                   7.4700(10)
_cell_length_b                   11.1280(10)
_cell_length_c                   22.552(2)
_cell_angle_alpha                85.075(7)
_cell_angle_beta                 88.712(9)
_cell_angle_gamma                72.509(8)
_cell_volume                     1781.37
_exptl_crystal_colour            'light green'
_exptl_crystal_description       prism
_chemical_melting_point          '176-178 deg.C'
_cell_formula_units_Z            2
loop_
_atom_site_label
_atom_site_type_symbol
_atom_site_fract_x
_atom_site_fract_y
_atom_site_fract_z
S1 S 0.37664(13) 0.08822(9) 0.11886(4)
O9 O 0.5565(4) 0.0675(3) 0.15006(13)
O10 O 0.3933(4) 0.1339(3) 0.05646(13)
O11 O 0.3300(4) -0.0306(3) 0.12118(13)
O12 O 0.2290(4) 0.1840(3) 0.14781(13)
S2 S 0.14258(14) 0.42398(9) 0.38896(4)
O13 O 0.0531(5) 0.4049(3) 0.33278(15)
O14 O -0.0144(5) 0.4859(3) 0.42577(16)
O15 O 0.2530(5) 0.3028(3) 0.41637(14)
O16 O 0.2539(5) 0.5082(3) 0.37549(15)
H22 H 0.130(10) 0.331(6) 0.319(3)
S3 S 0.70872(16) 0.24175(10) 0.24987(5)
O17 O 0.6042(5) 0.2629(3) 0.18942(15)
O18 O 0.5794(5) 0.2161(4) 0.29505(16)
O19 O 0.7478(5) 0.3576(3) 0.25515(16)
O20 O 0.8710(5) 0.1332(3) 0.24709(15)
H21 H 0.591(8) 0.178(5) 0.172(2)
N1 N 0.6831(6) 0.1510(3) -0.01902(17)
O1 O 0.9640(5) 0.3504(3) 0.07716(16)
O2 O 0.8757(5) 0.1795(3) 0.07206(14)
C1 C 0.8699(6) 0.2843(4) 0.05242(18)
C2 C 0.7607(5) 0.3477(3) -0.00230(17)
C3 C 0.6760(5) 0.2818(3) -0.03662(16)
C4 C 0.5807(6) 0.3383(4) -0.08851(19)
C5 C 0.5687(7) 0.4627(4) -0.1067(2)
C6 C 0.6524(7) 0.5289(4) -0.0734(2)
C7 C 0.7486(6) 0.4734(4) -0.0220(2)
H2 H 1.036(13) 0.297(8) 0.097(4)
H3 H 0.776(7) 0.117(4) -0.003(2)
H4 H 0.589(8) 0.148(5) 0.007(2)
H5 H 0.658(5) 0.119(3) -0.0490(18)
H15 H 0.525(6) 0.299(4) -0.1098(19)
H16 H 0.518(6) 0.499(4) -0.142(2)
H18 H 0.646(7) 0.600(5) -0.083(2)
H19 H 0.808(5) 0.515(4) 0.0019(17)
N2 N -0.3776(6) 0.5092(3) 0.34829(18)
O3 O -0.2847(5) 0.7480(3) 0.46830(15)
O4 O -0.4151(4) 0.5934(3) 0.45980(12)
C8 C -0.3615(5) 0.6800(3) 0.43726(17)
C9 C -0.3801(5) 0.7216(3) 0.37270(18)
C10 C -0.3995(5) 0.6427(4) 0.33062(17)
C11 C -0.4323(7) 0.6859(4) 0.2721(2)
C12 C -0.4455(8) 0.8097(5) 0.2532(2)
C13 C -0.4224(7) 0.8888(5) 0.2939(2)
C14 C -0.3896(7) 0.8468(4) 0.3529(2)
H7 H -0.285(8) 0.479(5) 0.379(3)
H8 H -0.344(6) 0.465(4) 0.318(2)
H9 H -0.486(6) 0.502(4) 0.3529(18)
H12 H -0.294(9) 0.735(6) 0.503(3)
H23 H -0.445(6) 0.632(4) 0.246(2)
H24 H -0.462(6) 0.841(4) 0.214(2)
H25 H -0.432(8) 0.961(5) 0.280(2)
H26 H -0.373(6) 0.897(4) 0.3805(19)
N3 N -0.0260(7) -0.0289(3) 0.15754(18)
O5 O -0.2245(5) -0.2391(3) 0.04151(14)
O6 O -0.1054(4) -0.0799(3) 0.04740(12)
C15 C -0.1380(5) -0.1741(4) 0.06999(17)
C16 C -0.0761(5) -0.2296(4) 0.13131(17)
C17 C -0.0176(5) -0.1612(4) 0.17197(17)
C18 C 0.0536(7) -0.2168(5) 0.2266(2)
C19 C 0.0667(8) -0.3425(5) 0.2422(2)
C20 C 0.0050(8) -0.4104(5) 0.2029(2)
C21 C -0.0651(7) -0.3548(4) 0.1483(2)
H11 H 0.087(8) -0.025(5) 0.148(2)
H13 H -0.124(7) 0.005(4) 0.133(2)
H14 H -0.071(7) 0.014(5) 0.186(2)
H17 H -0.246(10) -0.195(6) 0.009(3)
H29 H 0.088(6) -0.168(4) 0.2537(19)
H30 H 0.100(6) -0.379(4) 0.276(2)
H31 H 0.010(7) -0.484(5) 0.209(2)
H32 H -0.098(6) -0.398(4) 0.122(2)
N4 N 0.8317(7) 0.3439(4) 0.5212(2)
O7 O 0.6554(5) 0.1172(3) 0.40884(15)
O8 O 0.7370(6) 0.2889(3) 0.41769(15)
C22 C 0.7187(6) 0.1906(4) 0.43981(19)
C23 C 0.7694(5) 0.1431(3) 0.50255(18)
C24 C 0.8332(5) 0.2139(4) 0.54020(18)
C25 C 0.8927(7) 0.1677(4) 0.5971(2)
C26 C 0.8859(7) 0.0483(5) 0.6183(2)
C27 C 0.8192(8) -0.0222(4) 0.5820(2)
C28 C 0.7607(6) 0.0234(4) 0.5248(2)
H1 H 0.891(10) 0.373(6) 0.543(3)
H6 H 0.882(9) 0.342(6) 0.490(3)
H10 H 0.712(10) 0.402(6) 0.513(3)
H20 H 0.518(11) 0.160(7) 0.422(3)
H33 H 0.928(7) 0.212(5) 0.621(2)
H34 H 0.917(7) 0.016(4) 0.661(2)
H35 H 0.795(8) -0.092(5) 0.596(3)
H36 H 0.713(6) -0.024(4) 0.5008(19)
O21 O 0.2141(6) 0.2149(4) 0.28009(19)
H27 H 0.161(9) 0.192(6) 0.253(3)
H28 H 0.260(10) 0.279(7) 0.235(3)
loop_
_geom_bond_atom_site_label_1
_geom_bond_atom_site_label_2
_geom_bond_site_symmetry_1
_geom_bond_site_symmetry_2
S1 O9 1_555 1_555
S2 O13 1_555 1_555
S3 O17 1_555 1_555
N1 C3 1_555 1_555
N2 C10 1_555 1_555
N3 C17 1_555 1_555
N4 C24 1_555 1_555
O1 C1 1_555 1_555
O2 C1 1_555 1_555
O3 C8 1_555 1_555
O4 C8 1_555 1_555
O5 C15 1_555 1_555
O6 C15 1_555 1_555
O7 C22 1_555 1_555
O8 C22 1_555 1_555
O10 S1 1_555 1_555
O11 S1 1_555 1_555
O12 S1 1_555 1_555
O13 H22 1_555 1_555
O14 S2 1_555 1_555
O15 S2 1_555 1_555
O16 S2 1_555 1_555
O17 H21 1_555 1_555
O18 S3 1_555 1_555
O19 S3 1_555 1_555
O20 S3 1_555 1_555
O21 H27 1_555 1_555
C1 C2 1_555 1_555
C2 C3 1_555 1_555
C3 C4 1_555 1_555
C4 C5 1_555 1_555
C5 C6 1_555 1_555
C6 C7 1_555 1_555
C7 C2 1_555 1_555
C8 C9 1_555 1_555
C9 C10 1_555 1_555
C10 C11 1_555 1_555
C11 C12 1_555 1_555
C12 C13 1_555 1_555
C13 C14 1_555 1_555
C14 C9 1_555 1_555
C15 C16 1_555 1_555
C16 C17 1_555 1_555
C17 C18 1_555 1_555
C18 C19 1_555 1_555
C19 C20 1_555 1_555
C20 C21 1_555 1_555
C21 C16 1_555 1_555
C22 C23 1_555 1_555
C23 C24 1_555 1_555
C24 C25 1_555 1_555
C25 C26 1_555 1_555
C26 C27 1_555 1_555
C27 C28 1_555 1_555
C28 C23 1_555 1_555
H1 N4 1_555 1_555
H2 O1 1_555 1_555
H3 N1 1_555 1_555
H4 N1 1_555 1_555
H5 N1 1_555 1_555
H6 N4 1_555 1_555
H7 N2 1_555 1_555
H8 N2 1_555 1_555
H9 N2 1_555 1_555
H10 N4 1_555 1_555
H11 N3 1_555 1_555
H12 O3 1_555 1_555
H13 N3 1_555 1_555
H14 N3 1_555 1_555
H15 C4 1_555 1_555
H16 C5 1_555 1_555
H17 O5 1_555 1_555
H18 C6 1_555 1_555
H19 C7 1_555 1_555
H20 O7 1_555 1_555
H23 C11 1_555 1_555
H24 C12 1_555 1_555
H25 C13 1_555 1_555
H26 C14 1_555 1_555
H28 O21 1_555 1_555
H29 C18 1_555 1_555
H30 C19 1_555 1_555
H31 C20 1_555 1_555
H32 C21 1_555 1_555
H33 C25 1_555 1_555
H34 C26 1_555 1_555
H35 C27 1_555 1_555
H36 C28 1_555 1_555

#END
