
#######################################################################
#
#                 Cambridge Crystallographic Data Centre
#                                CCDC 
#
#######################################################################
#
# If this CIF has been generated from an entry in the Cambridge 
# Structural Database, then it will include bibliographic, chemical, 
# crystal, experimental, refinement or atomic coordinate data resulting 
# from the CCDC's data processing and validation procedures.
#
#######################################################################

data_BEXQUT
_chemical_formula_moiety         'C4 N10 O6 2-,2(K1 1+)'
_chemical_name_systematic        
"di-potassium (4H,8H-bis[1,2,5]oxadiazolo[3,4-b:3',4'-e]pyrazine-4,8-diyl)bis(nitroazanide)"
_symmetry_cell_setting           monoclinic
_symmetry_space_group_name_H-M   'P 21/c'
_symmetry_Int_Tables_number      14
_space_group_name_Hall           '-P 2ybc'
loop_
_symmetry_equiv_pos_site_id
_symmetry_equiv_pos_as_xyz
1 x,y,z
2 -x,1/2+y,1/2-z
3 -x,-y,-z
4 x,1/2-y,1/2+z
_cell_length_a                   5.203(4)
_cell_length_b                   17.965(13)
_cell_length_c                   6.291(5)
_cell_angle_alpha                90
_cell_angle_beta                 104.539(13)
_cell_angle_gamma                90
_cell_volume                     569.201
_exptl_crystal_colour            'whiteish colorless'
_exptl_crystal_description       block
_cell_formula_units_Z            2
loop_
_atom_site_label
_atom_site_type_symbol
_atom_site_fract_x
_atom_site_fract_y
_atom_site_fract_z
K1 K 0.07171(12) 0.32562(4) 0.04735(10)
O1 O 0.3051(4) 0.30903(13) 0.4835(4)
O2 O 0.6351(5) 0.23759(11) 0.6487(4)
N1 N 0.5441(4) 0.30084(13) 0.5846(4)
O3 O 0.1635(5) 0.49528(13) 0.8564(4)
N2 N 0.7141(5) 0.35654(13) 0.6349(4)
N3 N 0.5869(5) 0.42385(14) 0.5546(4)
N4 N 0.3185(5) 0.43581(15) 0.8118(4)
N5 N 0.8230(5) 0.44228(15) 0.2773(5)
C1 C 0.6661(5) 0.46377(15) 0.3973(4)
C2 C 0.4195(5) 0.46096(15) 0.6573(4)
O1B O 0.6949(4) 0.69097(13) 0.5165(4)
O2B O 0.3649(5) 0.76241(11) 0.3513(4)
N1B N 0.4559(4) 0.69916(13) 0.4154(4)
O3B O 0.8365(5) 0.50472(13) 0.1436(4)
N2B N 0.2859(5) 0.64346(13) 0.3651(4)
N3B N 0.4131(5) 0.57615(14) 0.4454(4)
N4B N 0.6815(5) 0.56419(15) 0.1882(4)
N5B N 0.1770(5) 0.55772(15) 0.7227(5)
C1B C 0.3339(5) 0.53623(15) 0.6027(4)
C2B C 0.5805(5) 0.53904(15) 0.3427(4)
loop_
_geom_bond_atom_site_label_1
_geom_bond_atom_site_label_2
_geom_bond_site_symmetry_1
_geom_bond_site_symmetry_2
O1 N1 1_555 1_555
O2 N1 1_555 1_555
N1 N2 1_555 1_555
O3 N4 1_555 1_555
N2 N3 1_555 1_555
N3 C1 1_555 1_555
N4 C2 1_555 1_555
N5 C1 1_555 1_555
C1 C2B 1_555 1_555
C2 N3 1_555 1_555
O1B N1B 1_555 1_555
O2B N1B 1_555 1_555
N1B N2B 1_555 1_555
O3B N5 1_555 1_555
N2B N3B 1_555 1_555
N3B C1B 1_555 1_555
N4B O3B 1_555 1_555
N5B O3 1_555 1_555
C1B C2 1_555 1_555
C2B N3B 1_555 1_555
N4B C2B 1_555 1_555
N5B C1B 1_555 1_555

#END
