
#######################################################################
#
#                 Cambridge Crystallographic Data Centre
#                                CCDC 
#
#######################################################################
#
# If this CIF has been generated from an entry in the Cambridge 
# Structural Database, then it will include bibliographic, chemical, 
# crystal, experimental, refinement or atomic coordinate data resulting 
# from the CCDC's data processing and validation procedures.
#
#######################################################################

data_BEXVOR
_chemical_formula_moiety         'C27 H20 Br1 N1 O2'
_chemical_name_systematic        
2-(2-Bromophenyl)-3-(((1-naphthylmethyl)amino)methylene)-2,3-dihydro-4H-chromen-4-one
_symmetry_cell_setting           monoclinic
_symmetry_space_group_name_H-M   'P 21'
_symmetry_Int_Tables_number      4
_space_group_name_Hall           'P 2yb'
loop_
_symmetry_equiv_pos_site_id
_symmetry_equiv_pos_as_xyz
1 x,y,z
2 -x,1/2+y,-z
_cell_length_a                   7.419(3)
_cell_length_b                   32.757(7)
_cell_length_c                   8.541(3)
_cell_angle_alpha                90
_cell_angle_beta                 99.572(4)
_cell_angle_gamma                90
_cell_volume                     2046.77
_exptl_crystal_colour            colorless
_exptl_crystal_description       block
_cell_formula_units_Z            4
loop_
_atom_site_label
_atom_site_type_symbol
_atom_site_fract_x
_atom_site_fract_y
_atom_site_fract_z
Br1 Br 0.03116(13) 0.81881(3) 0.11096(13)
O1 O 0.1683(9) 0.73348(19) 0.4718(7)
O2 O -0.2043(8) 0.6439(2) 0.3266(7)
N1 N -0.0645(11) 0.6376(3) 0.0591(10)
H1 H -0.1289 0.6255 0.1232
C1 C 0.0924(12) 0.7322(3) 0.2985(11)
H2 H -0.0077 0.7529 0.2776
C2 C 0.0102(12) 0.6911(3) 0.2517(11)
C3 C -0.1102(13) 0.6744(3) 0.3567(12)
C4 C -0.1070(12) 0.6963(3) 0.5040(11)
C5 C 0.0335(13) 0.7234(3) 0.5589(11)
C6 C 0.0491(15) 0.7417(3) 0.7110(11)
H3 H 0.1511 0.7586 0.7491
C7 C -0.0844(14) 0.7350(3) 0.8042(11)
H4 H -0.0772 0.7479 0.9048
C8 C -0.2303(15) 0.7089(3) 0.7470(12)
H5 H -0.3245 0.7047 0.8082
C9 C -0.2392(14) 0.6894(3) 0.6038(12)
H6 H -0.3361 0.6708 0.5706
C10 C 0.2427(11) 0.7458(3) 0.2142(10)
C11 C 0.2362(12) 0.7830(3) 0.1266(10)
C12 C 0.3742(14) 0.7949(3) 0.0469(11)
H7 H 0.3654 0.8201 -0.0089
C13 C 0.5227(15) 0.7707(4) 0.0482(13)
H8 H 0.6158 0.7785 -0.0097
C14 C 0.5404(12) 0.7324(3) 0.1385(11)
H9 H 0.6459 0.7157 0.1434
C15 C 0.3982(12) 0.7214(3) 0.2163(11)
H10 H 0.4065 0.6964 0.2734
C16 C 0.0273(12) 0.6718(3) 0.1103(12)
H11 H 0.1078 0.6833 0.0466
C17 C -0.0633(12) 0.6193(3) -0.0990(11)
H12 H 0.0193 0.6351 -0.1559
H13 H -0.1878 0.6205 -0.1620
C18 C 0.0010(12) 0.5746(3) -0.0831(11)
C19 C 0.0615(14) 0.5574(3) 0.0598(12)
H14 H 0.0683 0.5731 0.1540
C20 C 0.1153(16) 0.5154(3) 0.0688(14)
H15 H 0.1591 0.5033 0.1689
C21 C 0.1038(13) 0.4932(3) -0.0651(12)
H16 H 0.1374 0.4652 -0.0567
C22 C 0.0430(11) 0.5100(3) -0.2191(11)
C23 C -0.0115(12) 0.5522(3) -0.2316(11)
C24 C -0.0746(12) 0.5689(3) -0.3820(11)
H17 H -0.1115 0.5966 -0.3908
C25 C -0.0838(12) 0.5452(4) -0.5190(12)
H18 H -0.1237 0.5570 -0.6204
C26 C -0.0344(13) 0.5041(3) -0.5063(12)
H19 H -0.0453 0.4878 -0.5992
C27 C 0.0302(14) 0.4871(3) -0.3597(13)
H20 H 0.0668 0.4592 -0.3539
Br2 Br -0.05463(18) 0.38035(6) 0.3931(2)
O3 O 0.2546(10) 0.3958(2) 0.0302(9)
O4 O 0.6628(10) 0.4763(2) 0.2064(9)
N2 N 0.5138(11) 0.4861(2) 0.4625(9)
H21 H 0.5963 0.4952 0.4081
C28 C 0.2631(14) 0.4067(3) 0.1964(13)
H22 H 0.1419 0.4181 0.2109
C29 C 0.4087(13) 0.4379(3) 0.2533(11)
C30 C 0.5481(12) 0.4490(3) 0.1645(11)
C31 C 0.5475(14) 0.4270(3) 0.0150(12)
C32 C 0.6904(15) 0.4312(3) -0.0769(13)
H23 H 0.7938 0.4475 -0.0368
C33 C 0.6829(15) 0.4130(3) -0.2185(13)
H24 H 0.7788 0.4167 -0.2783
C34 C 0.5309(16) 0.3881(3) -0.2781(13)
H25 H 0.5265 0.3750 -0.3778
C35 C 0.3898(17) 0.3826(3) -0.1951(12)
H26 H 0.2854 0.3667 -0.2360
C36 C 0.4077(10) 0.4013(2) -0.0500(10)
C37 C 0.2988(9) 0.36561(17) 0.2977(8)
C38 C 0.4572(8) 0.34246(17) 0.3072(8)
H27 H 0.5494 0.3502 0.2480
C39 C 0.4807(7) 0.30795(15) 0.4031(7)
H28 H 0.5890 0.2921 0.4095
C40 C 0.3458(9) 0.29659(19) 0.4896(8)
H29 H 0.3619 0.2730 0.5552
C41 C 0.1874(8) 0.3197(3) 0.4802(9)
H30 H 0.0952 0.3120 0.5393
C42 C 0.1638(7) 0.3543(2) 0.3842(9)
C43 C 0.4048(13) 0.4565(3) 0.3983(11)
H31 H 0.3153 0.4470 0.4574
C44 C 0.5083(12) 0.5047(3) 0.6141(11)
H32 H 0.6313 0.5028 0.6796
H33 H 0.4230 0.4890 0.6687
C45 C 0.4487(12) 0.5494(3) 0.6045(11)
C46 C 0.3802(14) 0.5671(3) 0.4618(12)
H34 H 0.3666 0.5514 0.3670
C47 C 0.3305(14) 0.6082(3) 0.4562(13)
H35 H 0.2915 0.6207 0.3560
C48 C 0.3363(13) 0.6307(3) 0.5900(15)
H36 H 0.2963 0.6583 0.5827
C49 C 0.4019(12) 0.6132(3) 0.7418(13)
C50 C 0.4603(13) 0.5716(3) 0.7467(12)
C51 C 0.5225(13) 0.5543(3) 0.8992(12)
H37 H 0.5594 0.5265 0.9073
C52 C 0.5297(14) 0.5776(3) 1.0368(12)
H38 H 0.5718 0.5656 1.1374
C53 C 0.4750(13) 0.6189(3) 1.0275(12)
H39 H 0.4815 0.6346 1.1218
C54 C 0.4136(13) 0.6361(3) 0.8859(12)
H40 H 0.3774 0.6640 0.8813
loop_
_geom_bond_atom_site_label_1
_geom_bond_atom_site_label_2
_geom_bond_site_symmetry_1
_geom_bond_site_symmetry_2
Br1 C11 1_555 1_555
O1 C1 1_555 1_555
O2 C3 1_555 1_555
N1 H1 1_555 1_555
C1 H2 1_555 1_555
C2 C1 1_555 1_555
C3 C2 1_555 1_555
C4 C3 1_555 1_555
C5 O1 1_555 1_555
C6 C5 1_555 1_555
H3 C6 1_555 1_555
C7 C6 1_555 1_555
H4 C7 1_555 1_555
C8 C7 1_555 1_555
H5 C8 1_555 1_555
C9 C4 1_555 1_555
H6 C9 1_555 1_555
C10 C1 1_555 1_555
C11 C10 1_555 1_555
C12 C11 1_555 1_555
H7 C12 1_555 1_555
C13 C12 1_555 1_555
H8 C13 1_555 1_555
C14 C13 1_555 1_555
H9 C14 1_555 1_555
C15 C10 1_555 1_555
H10 C15 1_555 1_555
C16 N1 1_555 1_555
H11 C16 1_555 1_555
C17 N1 1_555 1_555
H12 C17 1_555 1_555
H13 C17 1_555 1_555
C18 C17 1_555 1_555
C19 C18 1_555 1_555
H14 C19 1_555 1_555
C20 C19 1_555 1_555
H15 C20 1_555 1_555
C21 C20 1_555 1_555
H16 C21 1_555 1_555
C22 C21 1_555 1_555
C23 C18 1_555 1_555
C24 C23 1_555 1_555
H17 C24 1_555 1_555
C25 C24 1_555 1_555
H18 C25 1_555 1_555
C26 C25 1_555 1_555
H19 C26 1_555 1_555
C27 C22 1_555 1_555
H20 C27 1_555 1_555
Br2 C42 1_555 1_555
O3 C28 1_555 1_555
O4 C30 1_555 1_555
N2 H21 1_555 1_555
C28 H22 1_555 1_555
C29 C28 1_555 1_555
C30 C29 1_555 1_555
C31 C30 1_555 1_555
C32 C31 1_555 1_555
H23 C32 1_555 1_555
C33 C32 1_555 1_555
H24 C33 1_555 1_555
C34 C33 1_555 1_555
H25 C34 1_555 1_555
C35 C34 1_555 1_555
H26 C35 1_555 1_555
C36 O3 1_555 1_555
C37 C28 1_555 1_555
C38 C37 1_555 1_555
H27 C38 1_555 1_555
C39 C38 1_555 1_555
H28 C39 1_555 1_555
C40 C39 1_555 1_555
H29 C40 1_555 1_555
C41 C40 1_555 1_555
H30 C41 1_555 1_555
C42 C37 1_555 1_555
C43 N2 1_555 1_555
H31 C43 1_555 1_555
C44 N2 1_555 1_555
H32 C44 1_555 1_555
H33 C44 1_555 1_555
C45 C44 1_555 1_555
C46 C45 1_555 1_555
H34 C46 1_555 1_555
C47 C46 1_555 1_555
H35 C47 1_555 1_555
C48 C47 1_555 1_555
H36 C48 1_555 1_555
C49 C48 1_555 1_555
C50 C45 1_555 1_555
C51 C50 1_555 1_555
H37 C51 1_555 1_555
C52 C51 1_555 1_555
H38 C52 1_555 1_555
C53 C52 1_555 1_555
H39 C53 1_555 1_555
C54 C49 1_555 1_555
H40 C54 1_555 1_555
C2 C16 1_555 1_555
C4 C5 1_555 1_555
C8 C9 1_555 1_555
C14 C15 1_555 1_555
C22 C23 1_555 1_555
C26 C27 1_555 1_555
C29 C43 1_555 1_555
C31 C36 1_555 1_555
C35 C36 1_555 1_555
C41 C42 1_555 1_555
C49 C50 1_555 1_555
C53 C54 1_555 1_555

#END
