
#######################################################################
#
#                 Cambridge Crystallographic Data Centre
#                                CCDC 
#
#######################################################################
#
# If this CIF has been generated from an entry in the Cambridge 
# Structural Database, then it will include bibliographic, chemical, 
# crystal, experimental, refinement or atomic coordinate data resulting 
# from the CCDC's data processing and validation procedures.
#
#######################################################################

data_BEYDEQ
_chemical_formula_moiety         'C22 H20 F6 N3 1+,F6 P1 1-'
_chemical_name_systematic        
'5-(3,5-bis(Trifluoromethyl)phenyl)-1,14,14-trimethyl-3,6-diaza-5-azoniatetracyclo[9.2.1.0^2,10^.0^3,7^]tetradeca-2(10),4,6,8-tetraene hexafluorophosphate'
_symmetry_cell_setting           orthorhombic
_symmetry_space_group_name_H-M   'P 21 21 21'
_symmetry_Int_Tables_number      19
_space_group_name_Hall           'P 2ac 2ab'
loop_
_symmetry_equiv_pos_site_id
_symmetry_equiv_pos_as_xyz
1 x,y,z
2 1/2-x,-y,1/2+z
3 -x,1/2+y,1/2-z
4 1/2+x,1/2-y,-z
_cell_length_a                   11.1991(7)
_cell_length_b                   15.3487(8)
_cell_length_c                   28.0564(13)
_cell_angle_alpha                90
_cell_angle_beta                 90
_cell_angle_gamma                90
_cell_volume                     4822.66
_exptl_crystal_colour            colorless
_exptl_crystal_description       block
_chemical_melting_point          '270-271 deg.C'
_cell_formula_units_Z            8
loop_
_atom_site_label
_atom_site_type_symbol
_atom_site_fract_x
_atom_site_fract_y
_atom_site_fract_z
C1 C 0.0045(7) 0.2908(4) 0.3371(2)
C2 C 0.2203(7) 0.3014(5) 0.3397(3)
H1 H 0.2892 0.3045 0.3581
C3 C 0.0020(8) 0.3650(6) 0.0445(3)
C4 C 0.1222(6) 0.2946(4) 0.2650(2)
C5 C -0.1283(6) 0.2455(4) 0.0721(2)
H2 H -0.1507 0.2352 0.0407
C6 C -0.2596(7) 0.1231(5) 0.0951(3)
C7 C -0.1726(7) 0.1957(5) 0.1083(2)
C8 C 0.2278(6) 0.3024(5) 0.2912(3)
H3 H 0.3012 0.3082 0.2760
C9 C -0.1408(6) 0.2061(4) 0.1553(2)
H4 H -0.1730 0.1715 0.1792
C10 C 0.1084(7) 0.2955(5) 0.3618(2)
C11 C -0.0704(7) 0.2805(4) 0.2536(2)
H5 H -0.1525 0.2758 0.2578
C12 C -0.1000(6) 0.2958(4) 0.3704(2)
C13 C -0.0494(7) 0.3115(4) 0.0833(2)
C14 C -0.0122(7) 0.3252(5) 0.1301(2)
H6 H 0.0415 0.3694 0.1374
C15 C -0.0566(7) 0.2721(4) 0.1654(2)
C16 C -0.0434(8) 0.2499(5) 0.4147(2)
C17 C -0.2230(7) 0.2680(6) 0.3536(3)
H7 H -0.2204 0.2084 0.3434
H8 H -0.2475 0.3043 0.3275
H9 H -0.2789 0.2738 0.3794
C18 C -0.1179(7) 0.2592(5) 0.4605(2)
H10 H -0.1328 0.3198 0.4666
H11 H -0.0749 0.2345 0.4869
H12 H -0.1925 0.2292 0.4567
C19 C -0.0247(9) 0.1514(5) 0.4061(3)
H13 H 0.0092 0.1254 0.4341
H14 H 0.0284 0.1432 0.3796
H15 H -0.1002 0.1245 0.3993
C20 C 0.0223(7) 0.3995(5) 0.4169(3)
H16 H 0.0775 0.4406 0.4027
H17 H 0.0074 0.4161 0.4498
C21 C 0.0704(7) 0.3043(5) 0.4135(2)
H18 H 0.1311 0.2885 0.4371
C22 C -0.0965(7) 0.3937(4) 0.3878(2)
H19 H -0.0954 0.4335 0.3610
H20 H -0.1649 0.4069 0.4078
N1 N 0.0128(5) 0.2883(3) 0.28785(17)
N2 N -0.0123(5) 0.2811(4) 0.21295(18)
N3 N 0.1074(5) 0.2923(4) 0.21816(18)
F1 F -0.3700(5) 0.1501(3) 0.08669(19)
F2 F -0.2221(5) 0.0812(3) 0.05554(16)
F3 F -0.2679(5) 0.0613(3) 0.12837(16)
F4 F -0.0015(12) 0.3365(8) 0.0031(2)
F5 F -0.0656(11) 0.4371(6) 0.0367(4)
F6 F 0.1107(6) 0.3946(5) 0.0538(2)
C23 C -0.5748(6) 0.0134(4) 0.2634(2)
H21 H -0.6566 0.0202 0.2680
C24 C -0.3834(7) -0.0037(4) 0.2737(2)
C25 C -0.2751(6) -0.0120(4) 0.3000(2)
H22 H -0.2023 -0.0187 0.2845
C26 C -0.2814(7) -0.0099(5) 0.3481(2)
H23 H -0.2117 -0.0136 0.3660
C27 C -0.3920(6) -0.0021(4) 0.3715(2)
C28 C -0.4959(6) 0.0047(4) 0.3474(2)
C29 C -0.5987(6) 0.0186(5) 0.3816(2)
C30 C -0.4233(7) 0.0060(5) 0.4235(2)
H24 H -0.3648 -0.0165 0.4463
C31 C -0.4605(7) 0.1045(5) 0.4293(2)
H25 H -0.4734 0.1187 0.4625
H26 H -0.3994 0.1427 0.4165
C32 C -0.5772(8) 0.1132(5) 0.4007(3)
H27 H -0.5682 0.1543 0.3747
H28 H -0.6424 0.1320 0.4210
C33 C -0.5491(7) -0.0370(5) 0.4240(2)
C34 C -0.5476(9) -0.1359(5) 0.4135(3)
H29 H -0.5167 -0.1666 0.4406
H30 H -0.4977 -0.1471 0.3863
H31 H -0.6273 -0.1555 0.4070
C35 C -0.6172(9) -0.0241(6) 0.4704(2)
H32 H -0.6198 0.0368 0.4780
H33 H -0.5776 -0.0551 0.4955
H34 H -0.6970 -0.0459 0.4668
C36 C -0.7268(6) 0.0030(6) 0.3646(2)
H35 H -0.7347 -0.0560 0.3537
H36 H -0.7450 0.0423 0.3390
H37 H -0.7811 0.0129 0.3906
C37 C -0.5650(6) 0.0144(4) 0.17514(19)
C38 C -0.5241(7) -0.0445(4) 0.1422(2)
H38 H -0.4723 -0.0888 0.1514
C39 C -0.5602(7) -0.0377(4) 0.0958(2)
C40 C -0.6379(7) 0.0278(5) 0.0821(2)
H39 H -0.6623 0.0322 0.0505
C41 C -0.6786(6) 0.0859(5) 0.1152(2)
C42 C -0.6459(6) 0.0802(5) 0.1627(2)
H40 H -0.6763 0.1184 0.1854
C43 C -0.5153(8) -0.1002(5) 0.0591(2)
C44 C -0.7607(7) 0.1584(5) 0.0998(3)
N4 N -0.4004(5) -0.0023(3) 0.22750(18)
N5 N -0.5201(5) 0.0089(4) 0.22296(18)
N6 N -0.4923(5) 0.0065(3) 0.29749(17)
F9 F -0.8744(5) 0.1289(4) 0.0937(2)
F10 F -0.7333(5) 0.1886(3) 0.05769(16)
F11 F -0.7703(5) 0.2228(3) 0.13025(17)
F12 F -0.4263(7) -0.0693(4) 0.0342(2)
F13 F -0.4785(7) -0.1732(3) 0.07654(15)
F14 F -0.5957(5) -0.1201(4) 0.02680(18)
P1 P 0.05424(19) 0.03535(12) 0.24513(7)
F15 F 0.0742(4) 0.0861(3) 0.19646(14)
F16 F 0.0358(4) -0.0163(3) 0.29403(14)
F17 F -0.0436(4) -0.0257(3) 0.22031(15)
F18 F 0.1579(4) -0.0324(3) 0.23116(17)
F19 F -0.0483(4) 0.1018(3) 0.25985(15)
F20 F 0.1522(4) 0.0961(3) 0.27010(16)
P2 P 0.56055(19) 0.25825(12) 0.23299(7)
F21 F 0.5723(4) 0.2029(3) 0.18549(14)
F22 F 0.5483(4) 0.3139(3) 0.28081(15)
F23 F 0.6645(4) 0.2002(3) 0.25636(16)
F24 F 0.6611(4) 0.3256(3) 0.2147(2)
F25 F 0.4597(4) 0.3161(3) 0.20977(15)
F26 F 0.4627(4) 0.1920(3) 0.25221(15)
F7? F 0.084(5) 0.320(2) 0.0216(16)
F8? F 0.027(3) 0.4517(14) 0.0602(10)
loop_
_geom_bond_atom_site_label_1
_geom_bond_atom_site_label_2
_geom_bond_site_symmetry_1
_geom_bond_site_symmetry_2
C1 C10 1_555 1_555
C2 H1 1_555 1_555
C3 C13 1_555 1_555
C4 C8 1_555 1_555
C5 H2 1_555 1_555
C6 C7 1_555 1_555
C7 C5 1_555 1_555
C8 C2 1_555 1_555
H3 C8 1_555 1_555
C9 C7 1_555 1_555
H4 C9 1_555 1_555
C10 C2 1_555 1_555
C11 H5 1_555 1_555
C12 C1 1_555 1_555
C13 C5 1_555 1_555
C14 C13 1_555 1_555
H6 C14 1_555 1_555
C15 C9 1_555 1_555
C16 C12 1_555 1_555
C17 C12 1_555 1_555
H7 C17 1_555 1_555
H8 C17 1_555 1_555
H9 C17 1_555 1_555
C18 C16 1_555 1_555
H10 C18 1_555 1_555
H11 C18 1_555 1_555
H12 C18 1_555 1_555
C19 C16 1_555 1_555
H13 C19 1_555 1_555
H14 C19 1_555 1_555
H15 C19 1_555 1_555
C20 H16 1_555 1_555
H17 C20 1_555 1_555
C21 C10 1_555 1_555
H18 C21 1_555 1_555
C22 C12 1_555 1_555
H19 C22 1_555 1_555
H20 C22 1_555 1_555
N1 C1 1_555 1_555
N2 C11 1_555 1_555
N3 C4 1_555 1_555
F1 C6 1_555 1_555
F2 C6 1_555 1_555
F3 C6 1_555 1_555
F4 C3 1_555 1_555
F5 C3 1_555 1_555
F6 C3 1_555 1_555
C23 H21 1_555 1_555
C24 C25 1_555 1_555
C25 H22 1_555 1_555
C26 C25 1_555 1_555
H23 C26 1_555 1_555
C27 C26 1_555 1_555
C28 C27 1_555 1_555
C29 C28 1_555 1_555
C30 C27 1_555 1_555
H24 C30 1_555 1_555
C31 C30 1_555 1_555
H25 C31 1_555 1_555
H26 C31 1_555 1_555
C32 C29 1_555 1_555
H27 C32 1_555 1_555
H28 C32 1_555 1_555
C33 C29 1_555 1_555
C34 C33 1_555 1_555
H29 C34 1_555 1_555
H30 C34 1_555 1_555
H31 C34 1_555 1_555
C35 C33 1_555 1_555
H32 C35 1_555 1_555
H33 C35 1_555 1_555
H34 C35 1_555 1_555
C36 C29 1_555 1_555
H35 C36 1_555 1_555
H36 C36 1_555 1_555
H37 C36 1_555 1_555
C37 C38 1_555 1_555
C38 H38 1_555 1_555
C39 C38 1_555 1_555
C40 C39 1_555 1_555
H39 C40 1_555 1_555
C41 C40 1_555 1_555
C42 C37 1_555 1_555
H40 C42 1_555 1_555
C43 C39 1_555 1_555
C44 C41 1_555 1_555
N4 C24 1_555 1_555
N5 C23 1_555 1_555
N6 C23 1_555 1_555
F9 C44 1_555 1_555
F10 C44 1_555 1_555
F11 C44 1_555 1_555
F12 C43 1_555 1_555
F13 C43 1_555 1_555
F14 C43 1_555 1_555
P1 F15 1_555 1_555
F16 P1 1_555 1_555
F17 P1 1_555 1_555
F18 P1 1_555 1_555
F19 P1 1_555 1_555
F20 P1 1_555 1_555
P2 F21 1_555 1_555
F22 P2 1_555 1_555
F23 P2 1_555 1_555
F24 P2 1_555 1_555
F25 P2 1_555 1_555
F26 P2 1_555 1_555
C4 N1 1_555 1_555
C11 N1 1_555 1_555
C14 C15 1_555 1_555
C15 N2 1_555 1_555
C16 C21 1_555 1_555
C20 C21 1_555 1_555
C20 C22 1_555 1_555
N2 N3 1_555 1_555
C24 N6 1_555 1_555
C28 N6 1_555 1_555
C30 C33 1_555 1_555
C31 C32 1_555 1_555
C37 N5 1_555 1_555
C41 C42 1_555 1_555
N4 N5 1_555 1_555

#END
