
#######################################################################
#
#                 Cambridge Crystallographic Data Centre
#                                CCDC 
#
#######################################################################
#
# If this CIF has been generated from an entry in the Cambridge 
# Structural Database, then it will include bibliographic, chemical, 
# crystal, experimental, refinement or atomic coordinate data resulting 
# from the CCDC's data processing and validation procedures.
#
#######################################################################

data_BEYLUO
_chemical_name_common            
'1,4-Dipropoxypillar[5]arene[1]quinone unknown solvate'
_chemical_formula_moiety         'C72 H94 O12'
_chemical_name_systematic        
'9,14,19,24,29,31,33,35,37,39-Decapropoxyheptacyclo[26.2.2.2^3,6^.2^8,11^.2^13,16^.2^18,21^.2^23,26^]dotetraconta-1(30),3(42),5,8,10,13,15,18,20,23,25,28,31,33,35,37,39-heptadecaene-4,41-dione unknown solvate'
_symmetry_cell_setting           monoclinic
_symmetry_space_group_name_H-M   'C 2/c'
_symmetry_Int_Tables_number      15
_space_group_name_Hall           '-C 2yn'
loop_
_symmetry_equiv_pos_site_id
_symmetry_equiv_pos_as_xyz
1 x,y,z
2 -x,y,1/2-z
3 1/2+x,1/2+y,z
4 1/2-x,1/2+y,1/2-z
5 -x,-y,-z
6 x,-y,1/2+z
7 1/2-x,1/2-y,-z
8 1/2+x,1/2-y,1/2+z
_cell_length_a                   31.278(4)
_cell_length_b                   13.7497(6)
_cell_length_c                   22.777(9)
_cell_angle_alpha                90
_cell_angle_beta                 130.675(11)
_cell_angle_gamma                90
_cell_volume                     7429.13
_exptl_crystal_colour            red
_exptl_crystal_description       block
_chemical_melting_point          '62.2-63.8 deg.C'
_cell_formula_units_Z            4
_exptl_crystal_recrystallization_method 'petroleum ether/ethyl acetate'
loop_
_atom_site_label
_atom_site_type_symbol
_atom_site_fract_x
_atom_site_fract_y
_atom_site_fract_z
O1 O 0.49018(10) 0.8866(2) 0.12556(13)
O2 O 0.36064(11) 0.60973(18) -0.06502(15)
O3 O 0.32767(9) 0.77967(14) 0.12220(12)
O4 O 0.41028(8) 0.23336(15) 0.00896(12)
O5 O 0.27331(8) 0.43071(14) 0.04232(12)
O6 O 0.40299(9) 0.1358(2) 0.22986(13)
C1 C 0.44986(12) 0.8873(2) 0.23865(18)
H1 H 0.4171 0.8879 0.2333
C2 C 0.44336(12) 0.88716(18) 0.17488(17)
C3 C 0.49434(13) 0.8867(2) 0.18255(18)
C4 C 0.38692(13) 0.8893(2) 0.09426(17)
H2 H 0.3902 0.9273 0.0604
H3 H 0.3594 0.9229 0.0953
C5 C 0.36474(12) 0.7882(2) 0.06000(16)
C6 C 0.37376(13) 0.7463(2) 0.01359(18)
H4 H 0.3959 0.7799 0.0051
C7 C 0.35115(13) 0.6559(2) -0.02098(17)
C8 C 0.31681(11) 0.6080(2) -0.01192(16)
C9 C 0.30835(12) 0.6483(2) 0.03542(16)
H5 H 0.2853 0.6154 0.0424
C10 C 0.33332(12) 0.7370(2) 0.07311(16)
C11 C 0.4033(2) 0.6486(4) -0.0640(3)
H6 H 0.4370 0.6663 -0.0106
H7 H 0.3894 0.7074 -0.0969
C12 C 0.4176(3) 0.5687(5) -0.0956(4)
H8 H 0.4467 0.5936 -0.0969
H9 H 0.4341 0.5127 -0.0596
C13 C 0.3720(3) 0.5368(6) -0.1686(4)
H10 H 0.3551 0.5919 -0.2046
H11 H 0.3440 0.5080 -0.1672
H12 H 0.3845 0.4879 -0.1859
C14 C 0.30014(13) 0.7249(2) 0.14236(17)
H13 H 0.3180 0.6601 0.1621
H14 H 0.2600 0.7154 0.0961
C15 C 0.30467(15) 0.7786(2) 0.20317(19)
H15 H 0.2885 0.8445 0.1840
H16 H 0.3449 0.7857 0.2499
C16 C 0.27417(18) 0.7259(3) 0.2240(2)
H17 H 0.2344 0.7186 0.1777
H18 H 0.2772 0.7632 0.2632
H19 H 0.2911 0.6616 0.2447
C17 C 0.28656(12) 0.5144(2) -0.05616(16)
H20 H 0.2487 0.5147 -0.0718
H21 H 0.2812 0.5144 -0.1041
C18 C 0.31596(11) 0.4215(2) -0.01279(15)
C19 C 0.35012(11) 0.3727(2) -0.02158(15)
H22 H 0.3565 0.4002 -0.0535
C20 C 0.37527(11) 0.2846(2) 0.01496(15)
C21 C 0.36495(11) 0.24123(19) 0.05996(15)
C22 C 0.33115(11) 0.28975(19) 0.06955(15)
H23 H 0.3242 0.2614 0.1006
C23 C 0.30710(11) 0.3795(2) 0.03450(15)
C24 C 0.42032(14) 0.2704(2) -0.0390(2)
H24 H 0.4370 0.3363 -0.0214
H25 H 0.3844 0.2751 -0.0931
C25 C 0.46007(15) 0.2028(3) -0.0344(2)
H26 H 0.4958 0.1995 0.0200
H27 H 0.4687 0.2296 -0.0660
C26 C 0.43669(17) 0.1009(3) -0.0623(3)
H28 H 0.4006 0.1038 -0.1155
H29 H 0.4309 0.0719 -0.0287
H30 H 0.4634 0.0612 -0.0607
C27 C 0.26534(12) 0.3932(2) 0.09283(17)
H31 H 0.3023 0.3814 0.1448
H32 H 0.2445 0.3309 0.0725
C28 C 0.23244(13) 0.4665(2) 0.09795(19)
H33 H 0.1982 0.4847 0.0450
H34 H 0.2556 0.5258 0.1238
C29 C 0.21532(17) 0.4285(3) 0.1420(2)
H35 H 0.1898 0.3730 0.1142
H36 H 0.1961 0.4800 0.1468
H37 H 0.2489 0.4076 0.1937
C30 C 0.38828(12) 0.14129(19) 0.09514(16)
H38 H 0.3907 0.1030 0.0606
H39 H 0.3616 0.1076 0.0978
C31 C 0.49463(12) 0.1437(2) 0.18528(17)
H40 H 0.4914 0.1452 0.1408
C32 C 0.44627(11) 0.14339(18) 0.17596(15)
C33 C 0.45240(12) 0.1420(2) 0.24207(16)
C34 C 0.40789(15) 0.1212(4) 0.2961(2)
H41 H 0.4189 0.1825 0.3257
H42 H 0.4366 0.0711 0.3305
C35 C 0.34798(19) 0.0869(4) 0.2639(3)
H43 H 0.3378 0.0258 0.2344
H44 H 0.3494 0.0734 0.3079
C36 C 0.30583(19) 0.1585(4) 0.2150(3)
H45 H 0.2989 0.1626 0.1665
H46 H 0.3187 0.2217 0.2411
H47 H 0.2709 0.1402 0.2038
O1A O 0.50982(10) 0.8866(2) 0.37444(13)
O2A O 0.63936(11) 0.60973(18) 0.56502(15)
O3A O 0.67233(9) 0.77967(14) 0.37780(12)
O4A O 0.58972(8) 0.23336(15) 0.49104(12)
O5A O 0.72669(8) 0.43071(14) 0.45768(12)
O6A O 0.59701(9) 0.1358(2) 0.27014(13)
C1A C 0.55014(12) 0.8873(2) 0.26135(18)
H1A H 0.5829 0.8879 0.2667
C2A C 0.55664(12) 0.88716(18) 0.32512(17)
C3A C 0.50566(13) 0.8867(2) 0.31745(18)
C4A C 0.61308(13) 0.8893(2) 0.40574(17)
H2A H 0.6098 0.9273 0.4396
H3A H 0.6406 0.9229 0.4047
C5A C 0.63526(12) 0.7882(2) 0.44000(16)
C6A C 0.62624(13) 0.7463(2) 0.48641(18)
H4A H 0.6041 0.7799 0.4949
C7A C 0.64885(13) 0.6559(2) 0.52098(17)
C8A C 0.68319(11) 0.6080(2) 0.51192(16)
C9A C 0.69165(12) 0.6483(2) 0.46458(16)
H5A H 0.7147 0.6154 0.4576
C10A C 0.66668(12) 0.7370(2) 0.42689(16)
C11A C 0.5967(2) 0.6486(4) 0.5640(3)
H6A H 0.5630 0.6663 0.5106
H7A H 0.6106 0.7074 0.5969
C12A C 0.5824(3) 0.5687(5) 0.5956(4)
H8A H 0.5533 0.5936 0.5969
H9A H 0.5659 0.5127 0.5596
C13A C 0.6280(3) 0.5368(6) 0.6686(4)
H10A H 0.6449 0.5919 0.7046
H11A H 0.6560 0.5080 0.6672
H12A H 0.6155 0.4879 0.6859
C14A C 0.69986(13) 0.7249(2) 0.35764(17)
H13A H 0.6820 0.6601 0.3379
H14A H 0.7400 0.7154 0.4039
C15A C 0.69533(15) 0.7786(2) 0.29683(19)
H15A H 0.7115 0.8445 0.3160
H16A H 0.6551 0.7857 0.2501
C16A C 0.72583(18) 0.7259(3) 0.2760(2)
H17A H 0.7656 0.7186 0.3223
H18A H 0.7228 0.7632 0.2368
H19A H 0.7089 0.6616 0.2553
C17A C 0.71344(12) 0.5144(2) 0.55616(16)
H20A H 0.7513 0.5147 0.5718
H21A H 0.7188 0.5144 0.6041
C18A C 0.68404(11) 0.4215(2) 0.51279(15)
C19A C 0.64988(11) 0.3727(2) 0.52158(15)
H22A H 0.6435 0.4002 0.5535
C20A C 0.62473(11) 0.2846(2) 0.48504(15)
C21A C 0.63505(11) 0.24123(19) 0.44004(15)
C22A C 0.66885(11) 0.28975(19) 0.43045(15)
H23A H 0.6758 0.2614 0.3994
C23A C 0.69290(11) 0.3795(2) 0.46550(15)
C24A C 0.57968(14) 0.2704(2) 0.5390(2)
H24A H 0.5630 0.3363 0.5214
H25A H 0.6156 0.2751 0.5931
C25A C 0.53993(15) 0.2028(3) 0.5344(2)
H26A H 0.5042 0.1995 0.4800
H27A H 0.5313 0.2296 0.5660
C26A C 0.56331(17) 0.1009(3) 0.5623(3)
H28A H 0.5994 0.1038 0.6155
H29A H 0.5691 0.0719 0.5287
H30A H 0.5366 0.0612 0.5607
C27A C 0.73466(12) 0.3932(2) 0.40717(17)
H31A H 0.6977 0.3814 0.3552
H32A H 0.7555 0.3309 0.4275
C28A C 0.76756(13) 0.4665(2) 0.40205(19)
H33A H 0.8018 0.4847 0.4550
H34A H 0.7444 0.5258 0.3762
C29A C 0.78468(17) 0.4285(3) 0.3580(2)
H35A H 0.8102 0.3730 0.3858
H36A H 0.8039 0.4800 0.3532
H37A H 0.7511 0.4076 0.3063
C30A C 0.61172(12) 0.14129(19) 0.40486(16)
H38A H 0.6093 0.1030 0.4394
H39A H 0.6384 0.1076 0.4022
C31A C 0.50537(12) 0.1437(2) 0.31472(17)
H40A H 0.5086 0.1452 0.3592
C32A C 0.55373(11) 0.14339(18) 0.32404(15)
C33A C 0.54760(12) 0.1420(2) 0.25793(16)
C34A C 0.59211(15) 0.1212(4) 0.2039(2)
H41A H 0.5811 0.1825 0.1743
H42A H 0.5634 0.0711 0.1695
C35A C 0.65202(19) 0.0869(4) 0.2361(3)
H43A H 0.6622 0.0258 0.2656
H44A H 0.6506 0.0734 0.1921
C36A C 0.69417(19) 0.1585(4) 0.2850(3)
H45A H 0.7011 0.1626 0.3335
H46A H 0.6813 0.2217 0.2589
H47A H 0.7291 0.1402 0.2962
loop_
_geom_bond_atom_site_label_1
_geom_bond_atom_site_label_2
_geom_bond_site_symmetry_1
_geom_bond_site_symmetry_2
O1 C3 1_555 1_555
O2 C7 1_555 1_555
O3 C10 1_555 1_555
O4 C20 1_555 1_555
O5 C23 1_555 1_555
O6 C33 1_555 1_555
C1 H1 1_555 1_555
C2 C1 1_555 1_555
C3 C2 1_555 1_555
C4 C2 1_555 1_555
H2 C4 1_555 1_555
H3 C4 1_555 1_555
C5 C4 1_555 1_555
C6 C5 1_555 1_555
H4 C6 1_555 1_555
C7 C6 1_555 1_555
C8 C7 1_555 1_555
C9 C8 1_555 1_555
H5 C9 1_555 1_555
C10 C5 1_555 1_555
C11 O2 1_555 1_555
H6 C11 1_555 1_555
H7 C11 1_555 1_555
C12 C11 1_555 1_555
H8 C12 1_555 1_555
H9 C12 1_555 1_555
C13 C12 1_555 1_555
H10 C13 1_555 1_555
H11 C13 1_555 1_555
H12 C13 1_555 1_555
C14 O3 1_555 1_555
H13 C14 1_555 1_555
H14 C14 1_555 1_555
C15 C14 1_555 1_555
H15 C15 1_555 1_555
H16 C15 1_555 1_555
C16 C15 1_555 1_555
H17 C16 1_555 1_555
H18 C16 1_555 1_555
H19 C16 1_555 1_555
C17 C8 1_555 1_555
H20 C17 1_555 1_555
H21 C17 1_555 1_555
C18 C17 1_555 1_555
C19 C18 1_555 1_555
H22 C19 1_555 1_555
C20 C19 1_555 1_555
C21 C20 1_555 1_555
C22 C21 1_555 1_555
H23 C22 1_555 1_555
C23 C18 1_555 1_555
C24 O4 1_555 1_555
H24 C24 1_555 1_555
H25 C24 1_555 1_555
C25 C24 1_555 1_555
H26 C25 1_555 1_555
H27 C25 1_555 1_555
C26 C25 1_555 1_555
H28 C26 1_555 1_555
H29 C26 1_555 1_555
H30 C26 1_555 1_555
C27 O5 1_555 1_555
H31 C27 1_555 1_555
H32 C27 1_555 1_555
C28 C27 1_555 1_555
H33 C28 1_555 1_555
H34 C28 1_555 1_555
C29 C28 1_555 1_555
H35 C29 1_555 1_555
H36 C29 1_555 1_555
H37 C29 1_555 1_555
C30 C21 1_555 1_555
H38 C30 1_555 1_555
H39 C30 1_555 1_555
C31 H40 1_555 1_555
C32 C30 1_555 1_555
C33 C32 1_555 1_555
C34 O6 1_555 1_555
H41 C34 1_555 1_555
H42 C34 1_555 1_555
C35 C34 1_555 1_555
H43 C35 1_555 1_555
H44 C35 1_555 1_555
C36 C35 1_555 1_555
H45 C36 1_555 1_555
H46 C36 1_555 1_555
H47 C36 1_555 1_555
O1A C3A 1_555 1_555
O2A C7A 1_555 1_555
O3A C10A 1_555 1_555
O4A C20A 1_555 1_555
O5A C23A 1_555 1_555
O6A C33A 1_555 1_555
C1A C3 1_555 1_555
H1A C1A 1_555 1_555
C2A C1A 1_555 1_555
C3A C1 1_555 1_555
C4A C2A 1_555 1_555
H2A C4A 1_555 1_555
H3A C4A 1_555 1_555
C5A C4A 1_555 1_555
C6A C5A 1_555 1_555
H4A C6A 1_555 1_555
C7A C6A 1_555 1_555
C8A C7A 1_555 1_555
C9A C8A 1_555 1_555
H5A C9A 1_555 1_555
C10A C5A 1_555 1_555
C11A O2A 1_555 1_555
H6A C11A 1_555 1_555
H7A C11A 1_555 1_555
C12A C11A 1_555 1_555
H8A C12A 1_555 1_555
H9A C12A 1_555 1_555
C13A C12A 1_555 1_555
H10A C13A 1_555 1_555
H11A C13A 1_555 1_555
H12A C13A 1_555 1_555
C14A O3A 1_555 1_555
H13A C14A 1_555 1_555
H14A C14A 1_555 1_555
C15A C14A 1_555 1_555
H15A C15A 1_555 1_555
H16A C15A 1_555 1_555
C16A C15A 1_555 1_555
H17A C16A 1_555 1_555
H18A C16A 1_555 1_555
H19A C16A 1_555 1_555
C17A C8A 1_555 1_555
H20A C17A 1_555 1_555
H21A C17A 1_555 1_555
C18A C17A 1_555 1_555
C19A C18A 1_555 1_555
H22A C19A 1_555 1_555
C20A C19A 1_555 1_555
C21A C20A 1_555 1_555
C22A C21A 1_555 1_555
H23A C22A 1_555 1_555
C23A C18A 1_555 1_555
C24A O4A 1_555 1_555
H24A C24A 1_555 1_555
H25A C24A 1_555 1_555
C25A C24A 1_555 1_555
H26A C25A 1_555 1_555
H27A C25A 1_555 1_555
C26A C25A 1_555 1_555
H28A C26A 1_555 1_555
H29A C26A 1_555 1_555
H30A C26A 1_555 1_555
C27A O5A 1_555 1_555
H31A C27A 1_555 1_555
H32A C27A 1_555 1_555
C28A C27A 1_555 1_555
H33A C28A 1_555 1_555
H34A C28A 1_555 1_555
C29A C28A 1_555 1_555
H35A C29A 1_555 1_555
H36A C29A 1_555 1_555
H37A C29A 1_555 1_555
C30A C21A 1_555 1_555
H38A C30A 1_555 1_555
H39A C30A 1_555 1_555
C31A C33 1_555 1_555
H40A C31A 1_555 1_555
C32A C30A 1_555 1_555
C33A C31 1_555 1_555
C34A O6A 1_555 1_555
H41A C34A 1_555 1_555
H42A C34A 1_555 1_555
C35A C34A 1_555 1_555
H43A C35A 1_555 1_555
H44A C35A 1_555 1_555
C36A C35A 1_555 1_555
H45A C36A 1_555 1_555
H46A C36A 1_555 1_555
H47A C36A 1_555 1_555
C9 C10 1_555 1_555
C22 C23 1_555 1_555
C31 C32 1_555 1_555
C2A C3A 1_555 1_555
C9A C10A 1_555 1_555
C22A C23A 1_555 1_555
C31A C32A 1_555 1_555
C32A C33A 1_555 1_555

#END
