
#######################################################################
#
#                 Cambridge Crystallographic Data Centre
#                                CCDC 
#
#######################################################################
#
# If this CIF has been generated from an entry in the Cambridge 
# Structural Database, then it will include bibliographic, chemical, 
# crystal, experimental, refinement or atomic coordinate data resulting 
# from the CCDC's data processing and validation procedures.
#
#######################################################################

data_BEYMEX
_chemical_formula_moiety         'C14 H18 N2 S1'
_chemical_name_systematic        
4-Ethyl-4-methyl-5-methylene-2-p-tolylimino-thiazolidine
_symmetry_cell_setting           triclinic
_symmetry_space_group_name_H-M   'P -1'
_symmetry_Int_Tables_number      2
_space_group_name_Hall           '-P 1'
loop_
_symmetry_equiv_pos_site_id
_symmetry_equiv_pos_as_xyz
1 x,y,z
2 -x,-y,-z
_cell_length_a                   10.264(1)
_cell_length_b                   10.448(1)
_cell_length_c                   7.0781(1)
_cell_angle_alpha                82.47(2)
_cell_angle_beta                 100.12(2)
_cell_angle_gamma                109.77(1)
_cell_volume                     701.086
_chemical_melting_point          130deg.C
_cell_formula_units_Z            2
loop_
_atom_site_label
_atom_site_type_symbol
_atom_site_fract_x
_atom_site_fract_y
_atom_site_fract_z
S1 S 0.34650 0.49940 0.81150
C1 C 0.18560 0.50540 0.68010
N1 N 0.13430 0.41110 0.55290
C2 C 0.20520 0.31390 0.54090
C3 C 0.34000 0.36030 0.68360
N2 N 0.12540 0.59160 0.69910
C4 C 0.18600 0.68690 0.84270
C5 C 0.17430 0.65010 1.03380
C6 C 0.22730 0.74690 1.16860
C7 C 0.29160 0.88070 1.11580
C8 C 0.30150 0.91680 0.92660
C9 C 0.24820 0.82220 0.78780
C10 C 0.34930 0.98700 1.26310
C11 C 0.43820 0.30710 0.71220
C12 C 0.23580 0.32520 0.32730
C13 C 0.11620 0.17250 0.59420
C14 C 0.08300 0.14990 0.79350
H1 H 0.05300 0.40100 0.48800
H2 H 0.13600 0.56300 1.07600
H3 H 0.21500 0.71400 1.31100
H4 H 0.34800 1.00700 0.88200
H5 H 0.26100 0.85100 0.65400
H6 H 0.39200 1.07300 1.19000
H7 H 0.27400 1.00600 1.32000
H8 H 0.37400 0.93800 1.37800
H9 H 0.52100 0.33700 0.82600
H10 H 0.42300 0.22300 0.60200
H11 H 0.14700 0.27500 0.24700
H12 H 0.28100 0.27100 0.30900
H13 H 0.26900 0.40100 0.29700
H14 H 0.02500 0.15400 0.48200
H15 H 0.16400 0.10800 0.57000
H16 H 0.04000 0.22400 0.82600
H17 H 0.02500 0.05400 0.81700
H18 H 0.18500 0.17400 0.91000
loop_
_geom_bond_atom_site_label_1
_geom_bond_atom_site_label_2
_geom_bond_site_symmetry_1
_geom_bond_site_symmetry_2
S1 C1 1_555 1_555
C1 N1 1_555 1_555
N1 C2 1_555 1_555
C2 C3 1_555 1_555
C3 S1 1_555 1_555
N2 C1 1_555 1_555
C4 N2 1_555 1_555
C5 C4 1_555 1_555
C6 C5 1_555 1_555
C7 C6 1_555 1_555
C8 C7 1_555 1_555
C9 C4 1_555 1_555
C10 C7 1_555 1_555
C11 C3 1_555 1_555
C12 C2 1_555 1_555
C13 C2 1_555 1_555
C14 C13 1_555 1_555
H1 N1 1_555 1_555
H2 C5 1_555 1_555
H3 C6 1_555 1_555
H4 C8 1_555 1_555
H5 C9 1_555 1_555
H6 C10 1_555 1_555
H7 C10 1_555 1_555
H8 C10 1_555 1_555
H9 C11 1_555 1_555
H10 C11 1_555 1_555
H11 C12 1_555 1_555
H12 C12 1_555 1_555
H13 C12 1_555 1_555
H14 C13 1_555 1_555
H15 C13 1_555 1_555
H16 C14 1_555 1_555
H17 C14 1_555 1_555
H18 C14 1_555 1_555
C8 C9 1_555 1_555

#END
