
#######################################################################
#
#                 Cambridge Crystallographic Data Centre
#                                CCDC 
#
#######################################################################
#
# If this CIF has been generated from an entry in the Cambridge 
# Structural Database, then it will include bibliographic, chemical, 
# crystal, experimental, refinement or atomic coordinate data resulting 
# from the CCDC's data processing and validation procedures.
#
#######################################################################

data_BEYTEF
_chemical_formula_moiety         'C20 H26 N2 O5 S1'
_chemical_name_systematic        
'Methyl (3S,4R,5S,8R)-4-benzyl-3-(t-butoxycarbonylamino)-2-oxo-1-aza-6-thiabicyclo(3.3.0)octane-8-carboxylate'
_symmetry_cell_setting           orthorhombic
_symmetry_space_group_name_H-M   'P 21 21 21'
_symmetry_Int_Tables_number      19
_space_group_name_Hall           'P 2ac 2ab'
loop_
_symmetry_equiv_pos_site_id
_symmetry_equiv_pos_as_xyz
1 x,y,z
2 1/2-x,-y,1/2+z
3 -x,1/2+y,1/2-z
4 1/2+x,1/2-y,-z
_cell_length_a                   8.884(2)
_cell_length_b                   10.997(3)
_cell_length_c                   20.970(6)
_cell_angle_alpha                90
_cell_angle_beta                 90
_cell_angle_gamma                90
_cell_volume                     2048.71
_exptl_crystal_colour            colorless
_exptl_crystal_description       needle
_cell_formula_units_Z            4
loop_
_atom_site_label
_atom_site_type_symbol
_atom_site_fract_x
_atom_site_fract_y
_atom_site_fract_z
S1 S 0.33705(13) 0.61492(10) 0.01373(5)
O1 O 0.7235(3) 0.3138(2) -0.01526(14)
O2 O 0.4546(3) 0.3228(3) 0.12051(13)
O3 O 0.4211(3) 0.0243(2) -0.13051(12)
N1 N 0.5172(4) 0.4273(3) 0.01150(15)
O4 O 0.5373(3) 0.1716(2) -0.18888(13)
N2 N 0.4538(4) 0.2067(3) -0.08815(15)
H1 H 0.4075 0.1755 -0.0548
O5 O 0.4882(4) 0.4916(3) 0.17818(13)
C1 C 0.4966(5) 0.4359(4) 0.1296(2)
C2 C 0.3764(5) 0.4291(4) -0.08323(18)
H2 H 0.4129 0.5040 -0.1054
C3 C 0.4778(5) 0.1360(4) -0.1412(2)
C4 C 0.5040(5) 0.3317(3) -0.08648(18)
H3 H 0.5674 0.3478 -0.1250
C5 C 0.5633(5) 0.4901(3) 0.06855(17)
H4 H 0.6756 0.4874 0.0716
C6 C 0.0980(5) 0.4787(4) -0.1104(2)
C7 C -0.1103(5) 0.5655(4) -0.0543(2)
H5 H -0.1650 0.5751 -0.0157
C8 C 0.5145(4) 0.6211(4) 0.05719(18)
H6 H 0.5914 0.6650 0.0319
H7 H 0.5008 0.6639 0.0983
C9 C 0.5986(5) 0.3543(4) -0.0268(2)
C10 C 0.4483(5) -0.0729(3) -0.17881(19)
C11 C 0.6141(4) -0.0917(4) -0.1884(2)
H8 H 0.6574 -0.0197 -0.2090
H9 H 0.6305 -0.1631 -0.2155
H10 H 0.6627 -0.1045 -0.1470
C12 C 0.0528(5) 0.5416(4) -0.1647(2)
H11 H 0.1104 0.5357 -0.2027
C13 C 0.0164(5) 0.4930(4) -0.0557(2)
H12 H 0.0474 0.4524 -0.0179
C14 C -0.0750(5) 0.6124(4) -0.1636(2)
H13 H -0.1060 0.6534 -0.2012
C15 C -0.1579(6) 0.6243(4) -0.1090(2)
H14 H -0.2469 0.6722 -0.1086
C16 C 0.3674(5) -0.0409(4) -0.23979(19)
H15 H 0.4176 0.0284 -0.2601
H16 H 0.2628 -0.0195 -0.2302
H17 H 0.3694 -0.1109 -0.2687
C17 C 0.3948(4) 0.2590(4) 0.1761(2)
H18 H 0.3691 0.1753 0.1642
H19 H 0.3043 0.3009 0.1913
H20 H 0.4708 0.2580 0.2099
C18 C 0.2289(4) 0.3906(4) -0.11416(19)
H21 H 0.2490 0.3737 -0.1597
H22 H 0.1968 0.3131 -0.0943
C19 C 0.3769(5) -0.1827(3) -0.1478(2)
H23 H 0.4306 -0.2020 -0.1082
H24 H 0.3824 -0.2522 -0.1769
H25 H 0.2712 -0.1650 -0.1380
C20 C 0.3673(4) 0.4569(3) -0.01093(18)
H26 H 0.2914 0.4027 0.0098
loop_
_geom_bond_atom_site_label_1
_geom_bond_atom_site_label_2
_geom_bond_site_symmetry_1
_geom_bond_site_symmetry_2
S1 C8 1_555 1_555
O1 C9 1_555 1_555
O2 C1 1_555 1_555
O3 C3 1_555 1_555
N1 C5 1_555 1_555
O4 C3 1_555 1_555
N2 H1 1_555 1_555
O5 C1 1_555 1_555
C1 C5 1_555 1_555
C2 H2 1_555 1_555
C3 N2 1_555 1_555
C4 N2 1_555 1_555
H3 C4 1_555 1_555
C5 H4 1_555 1_555
C6 C12 1_555 1_555
C7 H5 1_555 1_555
C8 C5 1_555 1_555
H6 C8 1_555 1_555
H7 C8 1_555 1_555
C9 N1 1_555 1_555
C10 O3 1_555 1_555
C11 C10 1_555 1_555
H8 C11 1_555 1_555
H9 C11 1_555 1_555
H10 C11 1_555 1_555
C12 H11 1_555 1_555
C13 C6 1_555 1_555
H12 C13 1_555 1_555
C14 C12 1_555 1_555
H13 C14 1_555 1_555
C15 C7 1_555 1_555
H14 C15 1_555 1_555
C16 C10 1_555 1_555
H15 C16 1_555 1_555
H16 C16 1_555 1_555
H17 C16 1_555 1_555
C17 O2 1_555 1_555
H18 C17 1_555 1_555
H19 C17 1_555 1_555
H20 C17 1_555 1_555
C18 C2 1_555 1_555
H21 C18 1_555 1_555
H22 C18 1_555 1_555
C19 C10 1_555 1_555
H23 C19 1_555 1_555
H24 C19 1_555 1_555
H25 C19 1_555 1_555
C20 S1 1_555 1_555
H26 C20 1_555 1_555
N1 C20 1_555 1_555
C2 C4 1_555 1_555
C2 C20 1_555 1_555
C4 C9 1_555 1_555
C6 C18 1_555 1_555
C7 C13 1_555 1_555
C14 C15 1_555 1_555

#END
