
#######################################################################
#
#                 Cambridge Crystallographic Data Centre
#                                CCDC 
#
#######################################################################
#
# If this CIF has been generated from an entry in the Cambridge 
# Structural Database, then it will include bibliographic, chemical, 
# crystal, experimental, refinement or atomic coordinate data resulting 
# from the CCDC's data processing and validation procedures.
#
#######################################################################

data_BEYXUY
_chemical_name_common            Hexaphenylmelamine
_chemical_formula_moiety         'C39 H30 N6'
_chemical_name_systematic        2,4,6-tris(Diphenylamino)-1,3,5-triazine
_symmetry_cell_setting           rhombohedral
_symmetry_space_group_name_H-M   'R -3 c'
_symmetry_Int_Tables_number      167
_space_group_name_Hall           '-R 3 2"c'
loop_
_symmetry_equiv_pos_site_id
_symmetry_equiv_pos_as_xyz
1 x,y,z
2 1/3+x,2/3+y,2/3+z
3 2/3+x,1/3+y,1/3+z
4 -y,x-y,z
5 -x+y,-x,z
6 1/3-y,2/3+x-y,2/3+z
7 1/3-x+y,2/3-x,2/3+z
8 2/3-y,1/3+x-y,1/3+z
9 2/3-x+y,1/3-x,1/3+z
10 y,x,1/2-z
11 2/3+y,1/3+x,5/6-z
12 1/3+y,2/3+x,1/6-z
13 x-y,-y,1/2-z
14 -x,-x+y,1/2-z
15 2/3+x-y,1/3-y,5/6-z
16 2/3-x,1/3-x+y,5/6-z
17 1/3+x-y,2/3-y,1/6-z
18 1/3-x,2/3-x+y,1/6-z
19 -x,-y,-z
20 2/3-x,1/3-y,1/3-z
21 1/3-x,2/3-y,2/3-z
22 y,-x+y,-z
23 x-y,x,-z
24 2/3+y,1/3-x+y,1/3-z
25 2/3+x-y,1/3+x,1/3-z
26 1/3+y,2/3-x+y,2/3-z
27 1/3+x-y,2/3+x,2/3-z
28 -y,-x,1/2+z
29 1/3-y,2/3-x,1/6+z
30 2/3-y,1/3-x,5/6+z
31 -x+y,y,1/2+z
32 x,x-y,1/2+z
33 1/3-x+y,2/3+y,1/6+z
34 1/3+x,2/3+x-y,1/6+z
35 2/3-x+y,1/3+y,5/6+z
36 2/3+x,1/3+x-y,5/6+z
_cell_length_a                   14.409(2)
_cell_length_b                   14.409(2)
_cell_length_c                   25.659(2)
_cell_angle_alpha                90
_cell_angle_beta                 90
_cell_angle_gamma                120
_cell_volume                     4613.58
_cell_formula_units_Z            6
loop_
_atom_site_label
_atom_site_type_symbol
_atom_site_fract_x
_atom_site_fract_y
_atom_site_fract_z
N1 N 0.09554 0.00000 0.75000
N2 N 0.18513 0.18513 0.75000
C1 C 0.08976 0.08976 0.75000
C2 C 0.28563 0.18825 0.75707
C3 C 0.30451 0.14464 0.80103
C4 C 0.40144 0.14873 0.80731
C5 C 0.48044 0.19696 0.76999
C6 C 0.46253 0.24224 0.72692
C7 C 0.36530 0.23798 0.72024
H1 H 0.25050 0.11300 0.82720
H2 H 0.41410 0.11850 0.83820
H3 H 0.54610 0.19940 0.77470
H4 H 0.51870 0.27770 0.69960
H5 H 0.34950 0.26790 0.69020
C1D C 0.00000 -0.08976 0.75000
N1C N 0.00000 0.09554 0.75000
C2I C 0.18825 0.28563 0.74293
N1D N -0.09554 -0.09554 0.75000
N2D N 0.00000 -0.18513 0.75000
C1C C -0.08976 0.00000 0.75000
C3I C 0.14464 0.30451 0.69897
C7I C 0.23798 0.36530 0.77976
C2D C -0.09738 -0.28563 0.75707
C2L C 0.09738 -0.18825 0.74293
N2C N -0.18513 0.00000 0.75000
C4I C 0.14873 0.40144 0.69269
H1I H 0.11300 0.25050 0.67280
C6I C 0.24224 0.46253 0.77308
H5I H 0.26790 0.34950 0.80980
C3D C -0.15987 -0.30451 0.80103
C7D C -0.12732 -0.36530 0.72024
C3L C 0.15987 -0.14464 0.69897
C7L C 0.12732 -0.23798 0.77976
C2C C -0.18825 0.09738 0.75707
C2M C -0.28563 -0.09738 0.74293
C5I C 0.19696 0.48044 0.73001
H2I H 0.11850 0.41410 0.66180
H4I H 0.27770 0.51870 0.80040
C4D C -0.25271 -0.40144 0.80731
H1D H -0.13750 -0.25050 0.82720
C6D C -0.22029 -0.46253 0.72692
H5D H -0.08160 -0.34950 0.69020
C4L C 0.25271 -0.14873 0.69269
H1L H 0.13750 -0.11300 0.67280
C6L C 0.22029 -0.24224 0.77308
H5L H 0.08160 -0.26790 0.80980
C3C C -0.14464 0.15987 0.80103
C7C C -0.23798 0.12732 0.72024
C3M C -0.30451 -0.15987 0.69897
C7M C -0.36530 -0.12732 0.77976
H3I H 0.19940 0.54610 0.72530
C5D C -0.28348 -0.48044 0.76999
H2D H -0.29560 -0.41410 0.83820
H4D H -0.24100 -0.51870 0.69960
C5L C 0.28348 -0.19696 0.73001
H2L H 0.29560 -0.11850 0.66180
H4L H 0.24100 -0.27770 0.80040
C4C C -0.14873 0.25271 0.80731
H1C H -0.11300 0.13750 0.82720
C6C C -0.24224 0.22029 0.72692
H5C H -0.26790 0.08160 0.69020
C4M C -0.40144 -0.25271 0.69269
H1M H -0.25050 -0.13750 0.67280
C6M C -0.46253 -0.22029 0.77308
H5M H -0.34950 -0.08160 0.80980
H3D H -0.34670 -0.54610 0.77470
H3L H 0.34670 -0.19940 0.72530
C5C C -0.19696 0.28348 0.76999
H2C H -0.11850 0.29560 0.83820
H4C H -0.27770 0.24100 0.69960
C5M C -0.48044 -0.28348 0.73001
H2M H -0.41410 -0.29560 0.66180
H4M H -0.51870 -0.24100 0.80040
H3C H -0.19940 0.34670 0.77470
H3M H -0.54610 -0.34670 0.72530
loop_
_geom_bond_atom_site_label_1
_geom_bond_atom_site_label_2
_geom_bond_site_symmetry_1
_geom_bond_site_symmetry_2
N1 C1 1_555 1_555
N2 C1 1_555 1_555
C1 N1C 1_555 1_555
C2 N2 1_555 1_555
C3 C2 1_555 1_555
C4 C3 1_555 1_555
C5 C4 1_555 1_555
C6 C5 1_555 1_555
C7 C2 1_555 1_555
H1 C3 1_555 1_555
H2 C4 1_555 1_555
H3 C5 1_555 1_555
H4 C6 1_555 1_555
H5 C7 1_555 1_555
C1D N1 1_555 1_555
N1C C1C 1_555 1_555
C2I N2 1_555 1_555
N1D C1D 1_555 1_555
N2D C1D 1_555 1_555
C1C N1D 1_555 1_555
C3I C2I 1_555 1_555
C7I C2I 1_555 1_555
C2D N2D 1_555 1_555
C2L N2D 1_555 1_555
N2C C1C 1_555 1_555
C4I C3I 1_555 1_555
H1I C3I 1_555 1_555
C6I C7I 1_555 1_555
H5I C7I 1_555 1_555
C3D C2D 1_555 1_555
C7D C2D 1_555 1_555
C3L C2L 1_555 1_555
C7L C2L 1_555 1_555
C2C N2C 1_555 1_555
C2M N2C 1_555 1_555
C5I C4I 1_555 1_555
H2I C4I 1_555 1_555
H4I C6I 1_555 1_555
C4D C3D 1_555 1_555
H1D C3D 1_555 1_555
C6D C7D 1_555 1_555
H5D C7D 1_555 1_555
C4L C3L 1_555 1_555
H1L C3L 1_555 1_555
C6L C7L 1_555 1_555
H5L C7L 1_555 1_555
C3C C2C 1_555 1_555
C7C C2C 1_555 1_555
C3M C2M 1_555 1_555
C7M C2M 1_555 1_555
H3I C5I 1_555 1_555
C5D C4D 1_555 1_555
H2D C4D 1_555 1_555
H4D C6D 1_555 1_555
C5L C4L 1_555 1_555
H2L C4L 1_555 1_555
H4L C6L 1_555 1_555
C4C C3C 1_555 1_555
H1C C3C 1_555 1_555
C6C C7C 1_555 1_555
H5C C7C 1_555 1_555
C4M C3M 1_555 1_555
H1M C3M 1_555 1_555
C6M C7M 1_555 1_555
H5M C7M 1_555 1_555
H3D C5D 1_555 1_555
H3L C5L 1_555 1_555
C5C C4C 1_555 1_555
H2C C4C 1_555 1_555
H4C C6C 1_555 1_555
C5M C4M 1_555 1_555
H2M C4M 1_555 1_555
H4M C6M 1_555 1_555
H3C C5C 1_555 1_555
H3M C5M 1_555 1_555
C6 C7 1_555 1_555
C6I C5I 1_555 1_555
C6D C5D 1_555 1_555
C6L C5L 1_555 1_555
C6C C5C 1_555 1_555
C6M C5M 1_555 1_555

#END
