
#######################################################################
#
#                 Cambridge Crystallographic Data Centre
#                                CCDC 
#
#######################################################################
#
# If this CIF has been generated from an entry in the Cambridge 
# Structural Database, then it will include bibliographic, chemical, 
# crystal, experimental, refinement or atomic coordinate data resulting 
# from the CCDC's data processing and validation procedures.
#
#######################################################################

data_BEYXOS
_chemical_name_common            Hexaphenylisomelamine
_chemical_formula_moiety         'C39 H30 N6'
_chemical_name_systematic        
1,3,5-Triphenyl-2,4,6-tris(phenylimino)-1,3,5-hexahydrotriazine
_symmetry_cell_setting           monoclinic
_symmetry_space_group_name_H-M   'P 21/c'
_symmetry_Int_Tables_number      14
_space_group_name_Hall           '-P 2ybc'
loop_
_symmetry_equiv_pos_site_id
_symmetry_equiv_pos_as_xyz
1 x,y,z
2 -x,1/2+y,1/2-z
3 -x,-y,-z
4 x,1/2-y,1/2+z
_cell_length_a                   17.309(2)
_cell_length_b                   15.188(2)
_cell_length_c                   11.831(1)
_cell_angle_alpha                90
_cell_angle_beta                 91.07(1)
_cell_angle_gamma                90
_cell_volume                     3109.7
_cell_formula_units_Z            4
loop_
_atom_site_label
_atom_site_type_symbol
_atom_site_fract_x
_atom_site_fract_y
_atom_site_fract_z
N1 N 0.71930 0.09080 0.04880
N2 N 0.74970 0.23430 -0.02120
N3 N 0.83670 0.16130 0.09210
N4 N 0.92500 0.07170 0.19820
N5 N 0.79610 0.03680 0.19750
N6 N 0.67170 -0.02250 0.15210
C1 C 0.76410 0.16600 0.03650
C2 C 0.85760 0.08990 0.15990
C3 C 0.72710 0.03020 0.13840
C4 C 0.66440 0.06960 -0.04150
C5 C 0.58620 0.08270 -0.02710
C6 C 0.53540 0.06400 -0.11470
C7 C 0.56250 0.03240 -0.21450
C8 C 0.63930 0.01740 -0.22620
C9 C 0.69210 0.03580 -0.14090
C10 C 0.67550 0.26080 -0.06030
C11 C 0.65290 0.25580 -0.17150
C12 C 0.58270 0.28920 -0.20710
C13 C 0.53430 0.32910 -0.13110
C14 C 0.55810 0.33790 -0.02150
C15 C 0.62840 0.30360 0.01490
C16 C 0.87540 0.24420 0.11620
C17 C 0.86790 0.28020 0.22270
C18 C 0.90540 0.35900 0.24880
C19 C 0.94870 0.40070 0.16850
C20 C 0.95370 0.36600 0.06230
C21 C 0.91730 0.28710 0.03600
C22 C 0.99370 0.11020 0.15890
C23 C 1.01670 0.10220 0.04930
C24 C 1.09030 0.12850 0.01840
C25 C 1.13930 0.16400 0.09930
C26 C 1.11580 0.17620 0.20700
C27 C 1.04370 0.14760 0.23820
C28 C 0.80390 0.00090 0.31040
C29 C 0.83760 -0.07870 0.33240
C30 C 0.84250 -0.10710 0.44510
C31 C 0.81440 -0.05420 0.52950
C32 C 0.78270 0.02430 0.50520
C33 C 0.77760 0.05160 0.39450
C34 C 0.66910 -0.09890 0.21860
C35 C 0.68980 -0.17830 0.16850
C36 C 0.68130 -0.25660 0.22610
C37 C 0.65250 -0.25590 0.33130
C38 C 0.63160 -0.18000 0.38510
C39 C 0.63980 -0.10000 0.32500
H1 H 0.56700 0.10600 0.04600
H2 H 0.47900 0.07300 -0.10600
H3 H 0.52600 0.02000 -0.27900
H4 H 0.65800 -0.00800 -0.29900
H5 H 0.74900 0.02500 -0.15000
H6 H 0.68800 0.22800 -0.22800
H7 H 0.56600 0.28400 -0.28800
H8 H 0.48200 0.35100 -0.15600
H9 H 0.52500 0.36900 0.03300
H10 H 0.64500 0.31000 0.09600
H11 H 0.83600 0.25000 0.28100
H12 H 0.90100 0.38500 0.32600
H13 H 0.97600 0.45700 0.18800
H14 H 0.98400 0.39700 0.00300
H15 H 0.92200 0.26100 -0.04100
H16 H 0.98000 0.07700 -0.00900
H17 H 1.10700 0.12200 -0.06100
H18 H 1.19300 0.18100 0.07900
H19 H 1.15100 0.20500 0.26400
H20 H 1.02700 0.15400 0.31900
H21 H 0.85800 -0.11600 0.27000
H22 H 0.86600 -0.16500 0.46400
H23 H 0.81800 -0.07500 0.61000
H24 H 0.76300 0.06200 0.56700
H25 H 0.75400 0.11000 0.37600
H26 H 0.71100 -0.17800 0.09000
H27 H 0.69600 -0.31300 0.19000
H28 H 0.64600 -0.31300 0.37200
H29 H 0.61100 -0.18100 0.46300
H30 H 0.62400 -0.04300 0.36200
loop_
_geom_bond_atom_site_label_1
_geom_bond_atom_site_label_2
_geom_bond_site_symmetry_1
_geom_bond_site_symmetry_2
N1 C1 1_555 1_555
N2 C1 1_555 1_555
N3 C1 1_555 1_555
N4 C2 1_555 1_555
N5 C2 1_555 1_555
N6 C3 1_555 1_555
C2 N3 1_555 1_555
C3 N1 1_555 1_555
C4 N1 1_555 1_555
C5 C4 1_555 1_555
C6 C5 1_555 1_555
C7 C6 1_555 1_555
C8 C7 1_555 1_555
C9 C4 1_555 1_555
C10 N2 1_555 1_555
C11 C10 1_555 1_555
C12 C11 1_555 1_555
C13 C12 1_555 1_555
C14 C13 1_555 1_555
C15 C10 1_555 1_555
C16 N3 1_555 1_555
C17 C16 1_555 1_555
C18 C17 1_555 1_555
C19 C18 1_555 1_555
C20 C19 1_555 1_555
C21 C16 1_555 1_555
C22 N4 1_555 1_555
C23 C22 1_555 1_555
C24 C23 1_555 1_555
C25 C24 1_555 1_555
C26 C25 1_555 1_555
C27 C22 1_555 1_555
C28 N5 1_555 1_555
C29 C28 1_555 1_555
C30 C29 1_555 1_555
C31 C30 1_555 1_555
C32 C31 1_555 1_555
C33 C28 1_555 1_555
C34 N6 1_555 1_555
C35 C34 1_555 1_555
C36 C35 1_555 1_555
C37 C36 1_555 1_555
C38 C37 1_555 1_555
C39 C34 1_555 1_555
H1 C5 1_555 1_555
H2 C6 1_555 1_555
H3 C7 1_555 1_555
H4 C8 1_555 1_555
H5 C9 1_555 1_555
H6 C11 1_555 1_555
H7 C12 1_555 1_555
H8 C13 1_555 1_555
H9 C14 1_555 1_555
H10 C15 1_555 1_555
H11 C17 1_555 1_555
H12 C18 1_555 1_555
H13 C19 1_555 1_555
H14 C20 1_555 1_555
H15 C21 1_555 1_555
H16 C23 1_555 1_555
H17 C24 1_555 1_555
H18 C25 1_555 1_555
H19 C26 1_555 1_555
H20 C27 1_555 1_555
H21 C29 1_555 1_555
H22 C30 1_555 1_555
H23 C31 1_555 1_555
H24 C32 1_555 1_555
H25 C33 1_555 1_555
H26 C35 1_555 1_555
H27 C36 1_555 1_555
H28 C37 1_555 1_555
H29 C38 1_555 1_555
H30 C39 1_555 1_555
N5 C3 1_555 1_555
C8 C9 1_555 1_555
C14 C15 1_555 1_555
C20 C21 1_555 1_555
C26 C27 1_555 1_555
C32 C33 1_555 1_555
C38 C39 1_555 1_555

#END
