
#######################################################################
#
#                 Cambridge Crystallographic Data Centre
#                                CCDC 
#
#######################################################################
#
# If this CIF has been generated from an entry in the Cambridge 
# Structural Database, then it will include bibliographic, chemical, 
# crystal, experimental, refinement or atomic coordinate data resulting 
# from the CCDC's data processing and validation procedures.
#
#######################################################################

data_BEZLEZ
_chemical_formula_moiety         'C25 H26 Cl1 N1'
_chemical_name_systematic        
5-Chloro-1-(4-methylbenzyl)-3,3-diphenylpiperidine
_symmetry_cell_setting           monoclinic
_symmetry_space_group_name_H-M   'P 21/c'
_symmetry_Int_Tables_number      14
_space_group_name_Hall           '-P 2ybc'
loop_
_symmetry_equiv_pos_site_id
_symmetry_equiv_pos_as_xyz
1 x,y,z
2 -x,1/2+y,1/2-z
3 -x,-y,-z
4 x,1/2-y,1/2+z
_cell_length_a                   11.830(4)
_cell_length_b                   10.224(4)
_cell_length_c                   16.394(6)
_cell_angle_alpha                90
_cell_angle_beta                 92.623(5)
_cell_angle_gamma                90
_cell_volume                     1980.78
_exptl_crystal_colour            colorless
_exptl_crystal_description       Prism
_cell_formula_units_Z            4
loop_
_atom_site_label
_atom_site_type_symbol
_atom_site_fract_x
_atom_site_fract_y
_atom_site_fract_z
Cl1 Cl 0.02531(3) 0.24349(3) 0.06695(2)
N1 N 0.20833(8) 0.47706(10) 0.21565(6)
C1 C 0.26145(10) 0.25067(11) 0.25641(7)
C2 C 0.16439(10) 0.20186(12) 0.19920(8)
H1 H 0.1842 0.1155 0.1765
H2 H 0.0950 0.1914 0.2301
C3 C 0.14283(11) 0.29787(13) 0.13082(8)
H3 H 0.2115 0.3035 0.0977
C4 C 0.11537(10) 0.43194(12) 0.16249(8)
H4 H 0.1031 0.4934 0.1163
H5 H 0.0451 0.4283 0.1930
C5 C 0.22862(10) 0.38852(11) 0.28370(7)
H6 H 0.1594 0.3830 0.3153
H7 H 0.2900 0.4242 0.3202
C6 C 0.37210(10) 0.24828(11) 0.21201(7)
C7 C 0.44194(10) 0.35624(12) 0.20625(7)
H8 H 0.4208 0.4365 0.2305
C8 C 0.54192(11) 0.34953(13) 0.16581(8)
H9 H 0.5892 0.4244 0.1633
C9 C 0.57314(11) 0.23479(13) 0.12923(8)
H10 H 0.6407 0.2306 0.1001
C10 C 0.50525(11) 0.12591(13) 0.13535(8)
H11 H 0.5265 0.0460 0.1108
C11 C 0.40670(10) 0.13224(12) 0.17691(8)
H12 H 0.3617 0.0559 0.1816
C12 C 0.27561(10) 0.16840(12) 0.33407(7)
C13 C 0.36432(11) 0.19713(13) 0.38894(8)
H13 H 0.4164 0.2639 0.3760
C14 C 0.37887(12) 0.13111(13) 0.46187(8)
H14 H 0.4404 0.1527 0.4987
C15 C 0.30440(12) 0.03381(14) 0.48150(8)
H15 H 0.3138 -0.0113 0.5320
C16 C 0.21728(12) 0.00272(14) 0.42795(9)
H16 H 0.1662 -0.0650 0.4409
C17 C 0.20275(11) 0.06947(13) 0.35454(8)
H17 H 0.1416 0.0467 0.3177
C18 C 0.18799(11) 0.60974(12) 0.24464(8)
H18 H 0.2421 0.6295 0.2908
H19 H 0.1106 0.6149 0.2650
C19 C 0.20036(11) 0.71014(12) 0.17895(8)
C20 C 0.11066(11) 0.78619(13) 0.15137(8)
H20 H 0.0386 0.7741 0.1736
C21 C 0.12379(11) 0.88003(12) 0.09185(8)
H21 H 0.0610 0.9324 0.0743
C22 C 0.22704(11) 0.89860(12) 0.05762(8)
C23 C 0.31640(11) 0.82144(13) 0.08510(8)
H22 H 0.3881 0.8321 0.0621
C24 C 0.30407(11) 0.72935(12) 0.14513(8)
H23 H 0.3674 0.6784 0.1636
C25 C 0.24131(13) 0.99947(14) -0.00756(8)
H24 H 0.3200 1.0297 -0.0058
H25 H 0.1911 1.0737 0.0017
H26 H 0.2222 0.9609 -0.0612
loop_
_geom_bond_atom_site_label_1
_geom_bond_atom_site_label_2
_geom_bond_site_symmetry_1
_geom_bond_site_symmetry_2
Cl1 C3 1_555 1_555
N1 C4 1_555 1_555
C1 C2 1_555 1_555
C2 H1 1_555 1_555
H2 C2 1_555 1_555
C3 C2 1_555 1_555
H3 C3 1_555 1_555
C4 C3 1_555 1_555
H4 C4 1_555 1_555
H5 C4 1_555 1_555
C5 N1 1_555 1_555
H6 C5 1_555 1_555
H7 C5 1_555 1_555
C6 C1 1_555 1_555
C7 C6 1_555 1_555
H8 C7 1_555 1_555
C8 C7 1_555 1_555
H9 C8 1_555 1_555
C9 C8 1_555 1_555
H10 C9 1_555 1_555
C10 C9 1_555 1_555
H11 C10 1_555 1_555
C11 C6 1_555 1_555
H12 C11 1_555 1_555
C12 C1 1_555 1_555
C13 C12 1_555 1_555
H13 C13 1_555 1_555
C14 C13 1_555 1_555
H14 C14 1_555 1_555
C15 C14 1_555 1_555
H15 C15 1_555 1_555
C16 C15 1_555 1_555
H16 C16 1_555 1_555
C17 C12 1_555 1_555
H17 C17 1_555 1_555
C18 N1 1_555 1_555
H18 C18 1_555 1_555
H19 C18 1_555 1_555
C19 C18 1_555 1_555
C20 C19 1_555 1_555
H20 C20 1_555 1_555
C21 C20 1_555 1_555
H21 C21 1_555 1_555
C22 C21 1_555 1_555
C23 C22 1_555 1_555
H22 C23 1_555 1_555
C24 C19 1_555 1_555
H23 C24 1_555 1_555
C25 C22 1_555 1_555
H24 C25 1_555 1_555
H25 C25 1_555 1_555
H26 C25 1_555 1_555
C1 C5 1_555 1_555
C10 C11 1_555 1_555
C16 C17 1_555 1_555
C23 C24 1_555 1_555

#END
