
#######################################################################
#
#                 Cambridge Crystallographic Data Centre
#                                CCDC 
#
#######################################################################
#
# If this CIF has been generated from an entry in the Cambridge 
# Structural Database, then it will include bibliographic, chemical, 
# crystal, experimental, refinement or atomic coordinate data resulting 
# from the CCDC's data processing and validation procedures.
#
#######################################################################

data_BEZNUS
_chemical_formula_moiety         'C42 H38 N4 O6 P1 S2 1-,C6 H16 N1 1+'
_chemical_name_systematic        
'triethylammonium bis[N-(2-{[2-(hydroxy)phenyl]amino}-1,2-diphenylethyl)methanesulfonamidato]phosphate'
_symmetry_cell_setting           orthorhombic
_symmetry_space_group_name_H-M   'P 21 21 21'
_symmetry_Int_Tables_number      19
_space_group_name_Hall           'P 2ac 2ab'
loop_
_symmetry_equiv_pos_site_id
_symmetry_equiv_pos_as_xyz
1 x,y,z
2 1/2-x,-y,1/2+z
3 1/2+x,1/2-y,-z
4 -x,1/2+y,1/2-z
_cell_length_a                   10.174(3)
_cell_length_b                   19.220(5)
_cell_length_c                   22.736(6)
_cell_angle_alpha                90
_cell_angle_beta                 90
_cell_angle_gamma                90
_cell_volume                     4445.89
_exptl_crystal_colour            colorless
_exptl_crystal_description       Platelet
_cell_formula_units_Z            4
loop_
_atom_site_label
_atom_site_type_symbol
_atom_site_fract_x
_atom_site_fract_y
_atom_site_fract_z
S1 S 0.04319(8) 0.06990(4) 0.00117(4)
P1 P 0.26421(8) 0.00264(4) 0.07498(3)
O1 O 0.4198(2) -0.02464(11) 0.09919(9)
O2 O 0.1244(2) 0.05864(12) -0.04997(9)
O3 O -0.0947(2) 0.05594(13) -0.00533(10)
N1 N 0.0969(3) 0.02806(14) 0.05780(11)
N2 N 0.1933(3) -0.06932(14) 0.11023(11)
C1 C -0.0066(3) -0.00638(18) 0.09398(13)
H1 H -0.0598 -0.0358 0.0680
C2 C 0.0663(3) -0.05375(17) 0.13766(14)
H2 H 0.0822 -0.0275 0.1739
C3 C 0.0577(4) 0.15838(18) 0.01938(16)
H3 H 0.1483 0.1694 0.0265
H4 H 0.0071 0.1679 0.0541
H5 H 0.0254 0.1862 -0.0126
C4 C 0.4148(3) -0.08251(17) 0.13255(13)
C5 C 0.2870(3) -0.10792(17) 0.14181(13)
C6 C 0.2694(3) -0.16669(17) 0.17607(14)
H6 H 0.1855 -0.1839 0.1833
C7 C 0.3790(4) -0.19954(18) 0.19939(15)
H7 H 0.3677 -0.2388 0.2228
C8 C 0.5053(4) -0.17533(19) 0.18862(15)
H8 H 0.5775 -0.1992 0.2036
C9 C 0.5237(3) -0.11515(18) 0.15535(14)
H9 H 0.6076 -0.0975 0.1487
C10 C -0.0980(3) 0.04288(17) 0.12632(14)
C11 C -0.2320(3) 0.03505(19) 0.12081(15)
H10 H -0.2651 0.0012 0.0956
C12 C -0.3190(3) 0.0770(2) 0.15229(15)
H11 H -0.4092 0.0709 0.1483
C13 C -0.2709(4) 0.12725(19) 0.18910(15)
H12 H -0.3287 0.1555 0.2099
C14 C -0.1365(4) 0.13622(19) 0.19553(16)
H13 H -0.1041 0.1704 0.2206
C15 C -0.0504(3) 0.09388(18) 0.16445(15)
H14 H 0.0398 0.0996 0.1691
C16 C -0.0147(3) -0.11725(17) 0.15256(14)
C17 C -0.0323(3) -0.17149(18) 0.11281(15)
H15 H 0.0006 -0.1675 0.0748
C18 C -0.0978(4) -0.23099(19) 0.12916(16)
H16 H -0.1069 -0.2674 0.1025
C19 C -0.1506(4) -0.23692(19) 0.18538(17)
H17 H -0.1940 -0.2774 0.1966
C20 C -0.1383(4) -0.1826(2) 0.22434(16)
H18 H -0.1762 -0.1856 0.2615
C21 C -0.0690(3) -0.12304(19) 0.20828(15)
H19 H -0.0592 -0.0869 0.2351
S2 S 0.20505(8) -0.10183(4) -0.02463(3)
O4 O 0.2495(2) 0.05151(11) 0.14031(9)
O5 O 0.2334(2) -0.10001(13) -0.08683(9)
O6 O 0.0691(2) -0.09757(12) -0.00837(10)
N3 N 0.2939(3) -0.04243(13) 0.00611(11)
N4 N 0.3404(2) 0.07464(14) 0.04107(11)
C22 C 0.3954(3) -0.01093(16) -0.03203(13)
H20 H 0.3524 0.0041 -0.0685
C23 C 0.4453(3) 0.05521(16) 0.00033(14)
H21 H 0.5239 0.0431 0.0231
C24 C 0.2659(4) -0.18084(16) 0.00269(16)
H22 H 0.2525 -0.1828 0.0445
H23 H 0.3582 -0.1842 -0.0057
H24 H 0.2204 -0.2188 -0.0157
C25 C 0.3129(3) 0.11291(16) 0.13720(14)
C26 C 0.3705(3) 0.12663(17) 0.08251(14)
C27 C 0.4475(3) 0.18543(16) 0.07548(15)
H25 H 0.4896 0.1943 0.0399
C28 C 0.4609(4) 0.23134(18) 0.12291(15)
H26 H 0.5124 0.2710 0.1187
C29 C 0.3992(3) 0.21872(17) 0.17550(15)
H27 H 0.4076 0.2504 0.2062
C30 C 0.3241(3) 0.15892(17) 0.18339(15)
H28 H 0.2825 0.1502 0.2191
C31 C 0.5077(3) -0.05862(17) -0.04853(14)
C32 C 0.5912(3) -0.08708(18) -0.00611(16)
H29 H 0.5781 -0.0765 0.0334
C33 C 0.6934(4) -0.13088(19) -0.02216(17)
H30 H 0.7496 -0.1485 0.0065
C34 C 0.7121(4) -0.14843(19) -0.08049(18)
H31 H 0.7792 -0.1788 -0.0911
C35 C 0.6304(4) -0.1205(2) -0.12281(18)
H32 H 0.6434 -0.1318 -0.1622
C36 C 0.5296(4) -0.07605(19) -0.10729(15)
H33 H 0.4756 -0.0575 -0.1364
C37 C 0.4813(3) 0.11028(17) -0.04422(13)
C38 C 0.3863(4) 0.15040(18) -0.07241(15)
H34 H 0.2977 0.1429 -0.0644
C39 C 0.4223(4) 0.20114(19) -0.11207(16)
H35 H 0.3583 0.2276 -0.1308
C40 C 0.5548(4) 0.21274(19) -0.12415(17)
H36 H 0.5795 0.2474 -0.1504
C41 C 0.6478(4) 0.1729(2) -0.09715(18)
H37 H 0.7362 0.1803 -0.1056
C42 C 0.6128(4) 0.12172(19) -0.05741(16)
H38 H 0.6774 0.0949 -0.0395
N5 N 0.0438(3) 0.00420(16) -0.16197(12)
H39 H 0.084(4) -0.006(2) -0.1264(19)
C43 C 0.0611(4) -0.05917(19) -0.19895(16)
H40 H 0.1540 -0.0698 -0.2017
H41 H 0.0293 -0.0495 -0.2383
C44 C -0.0101(4) -0.1217(2) -0.17528(18)
H42 H 0.0094 -0.1270 -0.1342
H43 H 0.0180 -0.1625 -0.1962
H44 H -0.1030 -0.1156 -0.1804
C45 C -0.0973(4) 0.0202(2) -0.14635(16)
H45 H -0.0994 0.0617 -0.1220
H46 H -0.1323 -0.0179 -0.1232
C46 C -0.1854(4) 0.0315(2) -0.19903(18)
H47 H -0.1526 0.0697 -0.2220
H48 H -0.2730 0.0419 -0.1859
H49 H -0.1868 -0.0098 -0.2227
C47 C 0.1122(4) 0.06593(19) -0.18909(16)
H50 H 0.0989 0.1062 -0.1640
H51 H 0.0721 0.0759 -0.2269
C48 C 0.2579(4) 0.0551(2) -0.19780(17)
H52 H 0.2961 0.0381 -0.1620
H53 H 0.2983 0.0985 -0.2083
H54 H 0.2719 0.0219 -0.2287
loop_
_geom_bond_atom_site_label_1
_geom_bond_atom_site_label_2
_geom_bond_site_symmetry_1
_geom_bond_site_symmetry_2
S1 O2 1_555 1_555
P1 O1 1_555 1_555
O1 C4 1_555 1_555
O3 S1 1_555 1_555
N1 S1 1_555 1_555
N2 P1 1_555 1_555
C1 N1 1_555 1_555
H1 C1 1_555 1_555
C2 N2 1_555 1_555
H2 C2 1_555 1_555
C3 S1 1_555 1_555
H3 C3 1_555 1_555
H4 C3 1_555 1_555
H5 C3 1_555 1_555
C4 C5 1_555 1_555
C5 N2 1_555 1_555
C6 C5 1_555 1_555
H6 C6 1_555 1_555
C7 C6 1_555 1_555
H7 C7 1_555 1_555
C8 C7 1_555 1_555
H8 C8 1_555 1_555
C9 C4 1_555 1_555
H9 C9 1_555 1_555
C10 C1 1_555 1_555
C11 C10 1_555 1_555
H10 C11 1_555 1_555
C12 C11 1_555 1_555
H11 C12 1_555 1_555
C13 C12 1_555 1_555
H12 C13 1_555 1_555
C14 C13 1_555 1_555
H13 C14 1_555 1_555
C15 C10 1_555 1_555
H14 C15 1_555 1_555
C16 C2 1_555 1_555
C17 C16 1_555 1_555
H15 C17 1_555 1_555
C18 C17 1_555 1_555
H16 C18 1_555 1_555
C19 C18 1_555 1_555
H17 C19 1_555 1_555
C20 C19 1_555 1_555
H18 C20 1_555 1_555
C21 C16 1_555 1_555
H19 C21 1_555 1_555
S2 O5 1_555 1_555
O4 P1 1_555 1_555
O6 S2 1_555 1_555
N3 P1 1_555 1_555
N4 P1 1_555 1_555
C22 N3 1_555 1_555
H20 C22 1_555 1_555
C23 N4 1_555 1_555
H21 C23 1_555 1_555
C24 S2 1_555 1_555
H22 C24 1_555 1_555
H23 C24 1_555 1_555
H24 C24 1_555 1_555
C25 O4 1_555 1_555
C26 N4 1_555 1_555
C27 C26 1_555 1_555
H25 C27 1_555 1_555
C28 C27 1_555 1_555
H26 C28 1_555 1_555
C29 C28 1_555 1_555
H27 C29 1_555 1_555
C30 C25 1_555 1_555
H28 C30 1_555 1_555
C31 C22 1_555 1_555
C32 C31 1_555 1_555
H29 C32 1_555 1_555
C33 C32 1_555 1_555
H30 C33 1_555 1_555
C34 C33 1_555 1_555
H31 C34 1_555 1_555
C35 C34 1_555 1_555
H32 C35 1_555 1_555
C36 C31 1_555 1_555
H33 C36 1_555 1_555
C37 C23 1_555 1_555
C38 C37 1_555 1_555
H34 C38 1_555 1_555
C39 C38 1_555 1_555
H35 C39 1_555 1_555
C40 C39 1_555 1_555
H36 C40 1_555 1_555
C41 C40 1_555 1_555
H37 C41 1_555 1_555
C42 C37 1_555 1_555
H38 C42 1_555 1_555
N5 H39 1_555 1_555
C43 N5 1_555 1_555
H40 C43 1_555 1_555
H41 C43 1_555 1_555
C44 C43 1_555 1_555
H42 C44 1_555 1_555
H43 C44 1_555 1_555
H44 C44 1_555 1_555
C45 N5 1_555 1_555
H45 C45 1_555 1_555
H46 C45 1_555 1_555
C46 C45 1_555 1_555
H47 C46 1_555 1_555
H48 C46 1_555 1_555
H49 C46 1_555 1_555
C47 N5 1_555 1_555
H50 C47 1_555 1_555
H51 C47 1_555 1_555
C48 C47 1_555 1_555
H52 C48 1_555 1_555
H53 C48 1_555 1_555
H54 C48 1_555 1_555
P1 N1 1_555 1_555
C1 C2 1_555 1_555
C8 C9 1_555 1_555
C14 C15 1_555 1_555
C20 C21 1_555 1_555
S2 N3 1_555 1_555
C22 C23 1_555 1_555
C25 C26 1_555 1_555
C29 C30 1_555 1_555
C35 C36 1_555 1_555
C41 C42 1_555 1_555

#END
