
#######################################################################
#
#                 Cambridge Crystallographic Data Centre
#                                CCDC 
#
#######################################################################
#
# If this CIF has been generated from an entry in the Cambridge 
# Structural Database, then it will include bibliographic, chemical, 
# crystal, experimental, refinement or atomic coordinate data resulting 
# from the CCDC's data processing and validation procedures.
#
#######################################################################

data_BEZPEE
_chemical_formula_moiety         'C56 H44 F6 N4 O6 P1 S2 1-,C6 H16 N1 1+'
_chemical_name_systematic        
'triethylammonium bis[N-(2-{[2-(hydroxy)-5-(trifluoromethyl)phenyl]amino}-1,2-diphenylethyl)-1-phenylmethanesulfonamidato]phosphate'
_symmetry_cell_setting           orthorhombic
_symmetry_space_group_name_H-M   'P 21 21 21'
_symmetry_Int_Tables_number      19
_space_group_name_Hall           'P 2ac 2ab'
loop_
_symmetry_equiv_pos_site_id
_symmetry_equiv_pos_as_xyz
1 x,y,z
2 1/2-x,-y,1/2+z
3 1/2+x,1/2-y,-z
4 -x,1/2+y,1/2-z
_cell_length_a                   10.407(3)
_cell_length_b                   22.291(5)
_cell_length_c                   25.239(6)
_cell_angle_alpha                90
_cell_angle_beta                 90
_cell_angle_gamma                90
_cell_volume                     5855
_exptl_crystal_colour            colorless
_exptl_crystal_description       Prism
_cell_formula_units_Z            4
loop_
_atom_site_label
_atom_site_type_symbol
_atom_site_fract_x
_atom_site_fract_y
_atom_site_fract_z
S1 S 0.23318(9) -0.00785(4) 0.80584(4)
P1 P 0.02783(10) 0.06431(4) 0.74412(4)
F1 F -0.1192(3) 0.22290(12) 0.50270(10)
F2 F 0.0749(3) 0.23918(12) 0.52730(11)
F3 F -0.0779(3) 0.29303(10) 0.55640(10)
O1 O -0.1216(2) 0.08829(10) 0.71900(10)
O2 O 0.1562(3) -0.06089(11) 0.79763(10)
O3 O 0.3694(2) -0.01447(11) 0.79916(10)
N1 N 0.1875(3) 0.04759(13) 0.76812(12)
N2 N 0.1037(3) 0.09693(12) 0.68850(12)
C1 C 0.2932(4) 0.08090(16) 0.74129(15)
H1 H 0.3454 0.0514 0.7206
C2 C 0.2284(4) 0.12449(16) 0.70163(15)
H2 H 0.2125 0.1636 0.7199
C3 C 0.2064(4) 0.01702(17) 0.87284(15)
H3 H 0.2285 0.0601 0.8755
H4 H 0.1141 0.0126 0.8815
C4 C 0.2846(4) -0.01759(16) 0.91232(15)
C5 C 0.2421(4) -0.07135(18) 0.93380(16)
H5 H 0.1623 -0.0877 0.9225
C6 C 0.3143(5) -0.1016(2) 0.97139(18)
H6 H 0.2839 -0.1383 0.9857
C7 C 0.4297(5) -0.07844(19) 0.98794(16)
H7 H 0.4790 -0.0992 1.0138
C8 C 0.4747(5) -0.02480(19) 0.96703(16)
H8 H 0.5545 -0.0088 0.9787
C9 C 0.4030(5) 0.00532(18) 0.92912(16)
H9 H 0.4344 0.0417 0.9145
C10 C -0.0458(4) 0.23638(17) 0.54432(16)
C11 C -0.1107(4) 0.12275(15) 0.67556(15)
C12 C 0.0159(4) 0.13051(15) 0.65783(14)
C13 C 0.0392(4) 0.16729(15) 0.61467(15)
H10 H 0.1243 0.1738 0.6023
C14 C -0.0659(4) 0.19482(15) 0.58954(15)
C15 C -0.1900(4) 0.18504(17) 0.60679(16)
H11 H -0.2597 0.2034 0.5887
C16 C -0.2141(4) 0.14863(16) 0.65027(16)
H12 H -0.2993 0.1418 0.6622
C17 C 0.3823(4) 0.11376(16) 0.77867(16)
C18 C 0.5148(4) 0.10586(18) 0.77305(19)
H13 H 0.5472 0.0819 0.7449
C19 C 0.5994(5) 0.13275(19) 0.8083(2)
H14 H 0.6895 0.1277 0.8039
C20 C 0.5527(5) 0.1670(2) 0.8499(2)
H15 H 0.6104 0.1837 0.8750
C21 C 0.4230(5) 0.17663(19) 0.85471(18)
H16 H 0.3910 0.2012 0.8825
C22 C 0.3386(5) 0.15041(17) 0.81903(17)
H17 H 0.2491 0.1578 0.8224
C23 C 0.3164(4) 0.13519(17) 0.65497(15)
C24 C 0.3505(4) 0.08902(18) 0.62068(17)
H18 H 0.3180 0.0498 0.6265
C25 C 0.4316(4) 0.09961(19) 0.57802(17)
H19 H 0.4539 0.0678 0.5547
C26 C 0.4800(5) 0.15662(19) 0.56954(17)
H20 H 0.5357 0.1640 0.5405
C27 C 0.4471(4) 0.20254(19) 0.60333(17)
H21 H 0.4804 0.2417 0.5975
C28 C 0.3661(4) 0.19220(17) 0.64568(16)
H22 H 0.3440 0.2243 0.6687
S2 S 0.09309(10) -0.04561(4) 0.67371(4)
F4 F -0.1947(5) 0.15912(17) 1.00511(14)
F5 F -0.3321(4) 0.1032(2) 0.96717(14)
F6 F -0.1716(4) 0.06650(17) 1.00025(13)
O4 O 0.0385(3) 0.13436(10) 0.77766(10)
O5 O 0.0658(3) -0.10848(10) 0.68187(10)
O6 O 0.2253(3) -0.02824(11) 0.67855(11)
N3 N -0.0010(3) -0.00789(13) 0.71259(12)
N4 N -0.0526(3) 0.03415(13) 0.79966(12)
C29 C -0.1056(4) -0.04345(16) 0.73747(14)
H23 H -0.0660 -0.0805 0.7527
C30 C -0.1593(4) -0.00575(16) 0.78426(15)
H24 H -0.2329 0.0191 0.7714
C31 C 0.0436(4) -0.02885(17) 0.60745(15)
H25 H -0.0503 -0.0348 0.6041
H26 H 0.0629 0.0136 0.5993
C32 C 0.1130(4) -0.06917(18) 0.56853(15)
C33 C 0.0548(5) -0.1225(2) 0.55136(18)
H27 H -0.0282 -0.1330 0.5640
C34 C 0.1179(6) -0.1600(2) 0.5160(2)
H28 H 0.0778 -0.1958 0.5041
C35 C 0.2392(6) -0.1450(2) 0.4981(2)
H29 H 0.2827 -0.1710 0.4742
C36 C 0.2970(5) -0.0934(2) 0.51434(19)
H30 H 0.3802 -0.0833 0.5016
C37 C 0.2344(5) -0.0554(2) 0.54961(17)
H31 H 0.2754 -0.0195 0.5609
C38 C -0.2065(6) 0.1149(3) 0.9727(2)
C39 C -0.0170(4) 0.13337(15) 0.82550(16)
C40 C -0.0749(4) 0.07787(16) 0.83894(15)
C41 C -0.1369(4) 0.07206(18) 0.88691(16)
H32 H -0.1773 0.0353 0.8963
C42 C -0.1397(4) 0.1213(2) 0.92181(16)
C43 C -0.0803(5) 0.17489(19) 0.90844(17)
H33 H -0.0814 0.2075 0.9327
C44 C -0.0190(4) 0.18132(18) 0.85973(16)
H34 H 0.0208 0.2182 0.8503
C45 C -0.2099(4) -0.06298(17) 0.69926(15)
C46 C -0.2864(4) -0.02181(19) 0.67215(18)
H35 H -0.2741 0.0199 0.6781
C47 C -0.3798(5) -0.0404(2) 0.63680(18)
H36 H -0.4308 -0.0116 0.6188
C48 C -0.3990(5) -0.1007(2) 0.62761(19)
H37 H -0.4632 -0.1136 0.6034
C49 C -0.3245(5) -0.1421(2) 0.6539(2)
H38 H -0.3372 -0.1837 0.6476
C50 C -0.2307(4) -0.12361(18) 0.68976(18)
H39 H -0.1805 -0.1527 0.7079
C51 C -0.2070(4) -0.04860(16) 0.82680(15)
C52 C -0.1240(4) -0.08213(18) 0.85795(17)
H40 H -0.0338 -0.0774 0.8542
C53 C -0.1724(5) -0.1224(2) 0.89449(18)
H41 H -0.1152 -0.1443 0.9165
C54 C -0.3037(5) -0.1308(2) 0.89927(19)
H42 H -0.3364 -0.1589 0.9242
C55 C -0.3861(5) -0.09885(19) 0.86824(17)
H43 H -0.4761 -0.1050 0.8713
C56 C -0.3383(4) -0.05686(17) 0.83176(16)
H44 H -0.3960 -0.0342 0.8105
N5 N 0.2599(4) -0.17293(15) 0.74308(14)
H45 H 0.208(4) -0.1433(18) 0.7357(16)
C57 C 0.2445(5) -0.21415(18) 0.69644(17)
H46 H 0.1518 -0.2201 0.6896
H47 H 0.2820 -0.2537 0.7054
C58 C 0.3075(5) -0.19114(19) 0.64650(18)
H48 H 0.2827 -0.1492 0.6408
H49 H 0.2795 -0.2154 0.6163
H50 H 0.4010 -0.1938 0.6501
C59 C 0.3960(5) -0.15162(18) 0.75184(19)
H51 H 0.3969 -0.1228 0.7817
H52 H 0.4255 -0.1301 0.7198
C60 C 0.4893(5) -0.2021(2) 0.7638(2)
H53 H 0.4621 -0.2230 0.7961
H54 H 0.5756 -0.1855 0.7690
H55 H 0.4905 -0.2304 0.7341
C61 C 0.2025(5) -0.19972(19) 0.79226(18)
H56 H 0.2178 -0.1722 0.8224
H57 H 0.2469 -0.2380 0.8002
C62 C 0.0598(5) -0.2115(2) 0.7877(2)
H58 H 0.0172 -0.1760 0.7729
H59 H 0.0245 -0.2201 0.8229
H60 H 0.0452 -0.2459 0.7644
loop_
_geom_bond_atom_site_label_1
_geom_bond_atom_site_label_2
_geom_bond_site_symmetry_1
_geom_bond_site_symmetry_2
S1 O2 1_555 1_555
P1 O1 1_555 1_555
F1 C10 1_555 1_555
F2 C10 1_555 1_555
F3 C10 1_555 1_555
O1 C11 1_555 1_555
O3 S1 1_555 1_555
N1 S1 1_555 1_555
N2 P1 1_555 1_555
C1 N1 1_555 1_555
H1 C1 1_555 1_555
C2 N2 1_555 1_555
H2 C2 1_555 1_555
C3 S1 1_555 1_555
H3 C3 1_555 1_555
H4 C3 1_555 1_555
C4 C3 1_555 1_555
C5 C4 1_555 1_555
H5 C5 1_555 1_555
C6 C5 1_555 1_555
H6 C6 1_555 1_555
C7 C6 1_555 1_555
H7 C7 1_555 1_555
C8 C7 1_555 1_555
H8 C8 1_555 1_555
C9 C4 1_555 1_555
H9 C9 1_555 1_555
C10 C14 1_555 1_555
C11 C12 1_555 1_555
C12 N2 1_555 1_555
C13 C12 1_555 1_555
H10 C13 1_555 1_555
C14 C13 1_555 1_555
C15 C14 1_555 1_555
H11 C15 1_555 1_555
C16 C11 1_555 1_555
H12 C16 1_555 1_555
C17 C1 1_555 1_555
C18 C17 1_555 1_555
H13 C18 1_555 1_555
C19 C18 1_555 1_555
H14 C19 1_555 1_555
C20 C19 1_555 1_555
H15 C20 1_555 1_555
C21 C20 1_555 1_555
H16 C21 1_555 1_555
C22 C17 1_555 1_555
H17 C22 1_555 1_555
C23 C2 1_555 1_555
C24 C23 1_555 1_555
H18 C24 1_555 1_555
C25 C24 1_555 1_555
H19 C25 1_555 1_555
C26 C25 1_555 1_555
H20 C26 1_555 1_555
C27 C26 1_555 1_555
H21 C27 1_555 1_555
C28 C23 1_555 1_555
H22 C28 1_555 1_555
S2 O5 1_555 1_555
F4 C38 1_555 1_555
F5 C38 1_555 1_555
F6 C38 1_555 1_555
O4 P1 1_555 1_555
O6 S2 1_555 1_555
N3 P1 1_555 1_555
N4 P1 1_555 1_555
C29 N3 1_555 1_555
H23 C29 1_555 1_555
C30 N4 1_555 1_555
H24 C30 1_555 1_555
C31 S2 1_555 1_555
H25 C31 1_555 1_555
H26 C31 1_555 1_555
C32 C31 1_555 1_555
C33 C32 1_555 1_555
H27 C33 1_555 1_555
C34 C33 1_555 1_555
H28 C34 1_555 1_555
C35 C34 1_555 1_555
H29 C35 1_555 1_555
C36 C35 1_555 1_555
H30 C36 1_555 1_555
C37 C32 1_555 1_555
H31 C37 1_555 1_555
C38 C42 1_555 1_555
C39 O4 1_555 1_555
C40 N4 1_555 1_555
C41 C40 1_555 1_555
H32 C41 1_555 1_555
C42 C41 1_555 1_555
C43 C42 1_555 1_555
H33 C43 1_555 1_555
C44 C39 1_555 1_555
H34 C44 1_555 1_555
C45 C29 1_555 1_555
C46 C45 1_555 1_555
H35 C46 1_555 1_555
C47 C46 1_555 1_555
H36 C47 1_555 1_555
C48 C47 1_555 1_555
H37 C48 1_555 1_555
C49 C48 1_555 1_555
H38 C49 1_555 1_555
C50 C45 1_555 1_555
H39 C50 1_555 1_555
C51 C30 1_555 1_555
C52 C51 1_555 1_555
H40 C52 1_555 1_555
C53 C52 1_555 1_555
H41 C53 1_555 1_555
C54 C53 1_555 1_555
H42 C54 1_555 1_555
C55 C54 1_555 1_555
H43 C55 1_555 1_555
C56 C51 1_555 1_555
H44 C56 1_555 1_555
N5 H45 1_555 1_555
C57 N5 1_555 1_555
H46 C57 1_555 1_555
H47 C57 1_555 1_555
C58 C57 1_555 1_555
H48 C58 1_555 1_555
H49 C58 1_555 1_555
H50 C58 1_555 1_555
C59 N5 1_555 1_555
H51 C59 1_555 1_555
H52 C59 1_555 1_555
C60 C59 1_555 1_555
H53 C60 1_555 1_555
H54 C60 1_555 1_555
H55 C60 1_555 1_555
C61 N5 1_555 1_555
H56 C61 1_555 1_555
H57 C61 1_555 1_555
C62 C61 1_555 1_555
H58 C62 1_555 1_555
H59 C62 1_555 1_555
H60 C62 1_555 1_555
P1 N1 1_555 1_555
C1 C2 1_555 1_555
C8 C9 1_555 1_555
C15 C16 1_555 1_555
C21 C22 1_555 1_555
C27 C28 1_555 1_555
S2 N3 1_555 1_555
C29 C30 1_555 1_555
C36 C37 1_555 1_555
C39 C40 1_555 1_555
C43 C44 1_555 1_555
C49 C50 1_555 1_555
C55 C56 1_555 1_555

#END
