
#######################################################################
#
#                 Cambridge Crystallographic Data Centre
#                                CCDC 
#
#######################################################################
#
# If this CIF has been generated from an entry in the Cambridge 
# Structural Database, then it will include bibliographic, chemical, 
# crystal, experimental, refinement or atomic coordinate data resulting 
# from the CCDC's data processing and validation procedures.
#
#######################################################################

data_BEZQEF
_chemical_formula_moiety         'C21 H16 Cl1 F3 N2 O1'
_chemical_name_systematic        
1-[7-chloro-4-(2-phenylethyl)pyrrolo[1,2-a]quinoxalin-5(4H)-yl]-2,2,2-trifluoroethan-1-one
_symmetry_cell_setting           orthorhombic
_symmetry_space_group_name_H-M   'P 21 21 21'
_symmetry_Int_Tables_number      19
_space_group_name_Hall           'P 2ac 2ab'
loop_
_symmetry_equiv_pos_site_id
_symmetry_equiv_pos_as_xyz
1 x,y,z
2 1/2-x,-y,1/2+z
3 1/2+x,1/2-y,-z
4 -x,1/2+y,1/2-z
_cell_length_a                   7.2745(15)
_cell_length_b                   10.702(2)
_cell_length_c                   23.579(5)
_cell_angle_alpha                90
_cell_angle_beta                 90
_cell_angle_gamma                90
_cell_volume                     1835.67
_exptl_crystal_colour            colorless
_exptl_crystal_description       Prism
_cell_formula_units_Z            4
loop_
_atom_site_label
_atom_site_type_symbol
_atom_site_fract_x
_atom_site_fract_y
_atom_site_fract_z
Cl1 Cl 0.76750(10) 0.13506(7) 0.31436(4)
F1 F -0.2142(2) 0.31016(18) 0.43544(8)
F2 F 0.0014(2) 0.38052(18) 0.48885(7)
F3 F -0.0805(3) 0.18934(18) 0.49489(8)
O1 O 0.1514(3) 0.13644(19) 0.41665(9)
N1 N 0.1480(3) 0.32998(19) 0.37612(9)
N2 N 0.0618(3) 0.3873(2) 0.26652(9)
C1 C 0.2747(4) 0.2955(2) 0.33243(10)
C2 C 0.4428(4) 0.2385(2) 0.34480(12)
H1 H 0.4753 0.2203 0.3820
C3 C -0.0314(4) 0.4480(2) 0.30906(12)
C4 C 0.0595(4) 0.4539(2) 0.36601(12)
H2 H -0.0339 0.4687 0.3952
C5 C 0.0937(4) 0.2421(3) 0.41414(12)
C6 C 0.2311(4) 0.3262(2) 0.27633(11)
C7 C 0.3528(4) 0.2993(3) 0.23290(12)
H3 H 0.3243 0.3208 0.1957
C8 C 0.5598(4) 0.2097(3) 0.30043(12)
C9 C 0.2038(4) 0.5586(2) 0.36835(11)
H4 H 0.2986 0.5408 0.3406
H5 H 0.1454 0.6365 0.3575
C10 C 0.5176(4) 0.2400(3) 0.24518(12)
H6 H 0.5994 0.2208 0.2162
C11 C -0.0351(4) 0.3998(3) 0.21630(12)
H7 H -0.0021 0.3675 0.1811
C12 C -0.0511(4) 0.2819(3) 0.45876(12)
C13 C 0.4376(4) 0.6779(3) 0.42587(11)
C14 C -0.1868(4) 0.4991(3) 0.28632(15)
H8 H -0.2752 0.5454 0.3056
C15 C 0.2941(5) 0.5762(3) 0.42579(12)
H9 H 0.2003 0.5963 0.4536
H10 H 0.3511 0.4981 0.4372
C16 C -0.1882(4) 0.4687(3) 0.22820(15)
H11 H -0.2784 0.4917 0.2023
C17 C 0.3920(5) 0.8017(3) 0.41600(13)
H12 H 0.2697 0.8224 0.4094
C18 C 0.6227(5) 0.6507(3) 0.43563(15)
H13 H 0.6585 0.5685 0.4422
C19 C 0.5221(6) 0.8949(3) 0.41571(13)
H14 H 0.4874 0.9774 0.4092
C20 C 0.7053(6) 0.8657(4) 0.42508(13)
H15 H 0.7945 0.9279 0.4242
C21 C 0.7533(5) 0.7446(4) 0.43562(15)
H16 H 0.8756 0.7249 0.4429
loop_
_geom_bond_atom_site_label_1
_geom_bond_atom_site_label_2
_geom_bond_site_symmetry_1
_geom_bond_site_symmetry_2
Cl1 C8 1_555 1_555
F1 C12 1_555 1_555
F2 C12 1_555 1_555
F3 C12 1_555 1_555
O1 C5 1_555 1_555
N1 C1 1_555 1_555
N2 C3 1_555 1_555
C1 C2 1_555 1_555
C2 H1 1_555 1_555
C3 C4 1_555 1_555
C4 N1 1_555 1_555
H2 C4 1_555 1_555
C5 N1 1_555 1_555
C6 N2 1_555 1_555
C7 C6 1_555 1_555
H3 C7 1_555 1_555
C8 C2 1_555 1_555
C9 C4 1_555 1_555
H4 C9 1_555 1_555
H5 C9 1_555 1_555
C10 C7 1_555 1_555
H6 C10 1_555 1_555
C11 N2 1_555 1_555
H7 C11 1_555 1_555
C12 C5 1_555 1_555
C13 C15 1_555 1_555
C14 C3 1_555 1_555
H8 C14 1_555 1_555
C15 C9 1_555 1_555
H9 C15 1_555 1_555
H10 C15 1_555 1_555
C16 C11 1_555 1_555
H11 C16 1_555 1_555
C17 C13 1_555 1_555
H12 C17 1_555 1_555
C18 C13 1_555 1_555
H13 C18 1_555 1_555
C19 C17 1_555 1_555
H14 C19 1_555 1_555
C20 C19 1_555 1_555
H15 C20 1_555 1_555
C21 C18 1_555 1_555
H16 C21 1_555 1_555
C1 C6 1_555 1_555
C8 C10 1_555 1_555
C14 C16 1_555 1_555
C20 C21 1_555 1_555

#END
