
#######################################################################
#
#                 Cambridge Crystallographic Data Centre
#                                CCDC 
#
#######################################################################
#
# If this CIF has been generated from an entry in the Cambridge 
# Structural Database, then it will include bibliographic, chemical, 
# crystal, experimental, refinement or atomic coordinate data resulting 
# from the CCDC's data processing and validation procedures.
#
#######################################################################

data_BEZREG
_chemical_formula_moiety         'C50 H62 B2 F10 P2'
_chemical_name_systematic        
9,10-dimethyl-2,6-bis(pentafluorophenyl)-1,5-bis[2,4,6-tris(propan-2-yl)phenyl]-1,5-diphospha-2,6-diboratricyclo[4.2.1.1^2,5^]decane
_symmetry_cell_setting           orthorhombic
_symmetry_space_group_name_H-M   'P b c a'
_symmetry_Int_Tables_number      61
_space_group_name_Hall           '-P 2ac 2ab'
loop_
_symmetry_equiv_pos_site_id
_symmetry_equiv_pos_as_xyz
1 x,y,z
2 1/2-x,-y,1/2+z
3 1/2+x,1/2-y,-z
4 -x,1/2+y,1/2-z
5 -x,-y,-z
6 1/2+x,y,1/2-z
7 1/2-x,1/2+y,z
8 x,1/2-y,1/2+z
_cell_length_a                   22.6598(4)
_cell_length_b                   11.9386(2)
_cell_length_c                   35.4316(7)
_cell_angle_alpha                90
_cell_angle_beta                 90
_cell_angle_gamma                90
_cell_volume                     9585.18
_exptl_crystal_colour            colorless
_exptl_crystal_description       plate
_cell_formula_units_Z            8
loop_
_atom_site_label
_atom_site_type_symbol
_atom_site_fract_x
_atom_site_fract_y
_atom_site_fract_z
P1 P 0.42971(4) 0.38036(9) 0.12575(3)
P2 P 0.56605(4) 0.44739(9) 0.15034(3)
B1 B 0.49513(18) 0.5570(4) 0.14701(13)
B2 B 0.50206(17) 0.2727(4) 0.12590(13)
C1 C 0.41303(15) 0.4260(4) 0.17446(11)
H1 H 0.3706 0.4440 0.1769
H2 H 0.4227 0.3656 0.1926
C2 C 0.45102(16) 0.5316(4) 0.18278(11)
H3 H 0.4746 0.5194 0.2059
H4 H 0.4249 0.5969 0.1871
C3 C 0.45379(16) 0.5202(3) 0.11073(11)
H5 H 0.4778 0.5158 0.0871
C4 C 0.40110(17) 0.6017(4) 0.10581(13)
H6 H 0.3789 0.6063 0.1295
H7 H 0.3751 0.5742 0.0857
H8 H 0.4159 0.6762 0.0991
C5 C 0.51866(16) 0.2442(4) 0.16950(11)
H9 H 0.4821 0.2296 0.1840
H10 H 0.5433 0.1758 0.1704
C6 C 0.55242(16) 0.3426(3) 0.18749(11)
H11 H 0.5903 0.3161 0.1981
H12 H 0.5288 0.3760 0.2081
C7 C 0.56032(15) 0.3456(3) 0.11133(10)
H13 H 0.5947 0.2941 0.1148
C8 C 0.56369(16) 0.3840(4) 0.06955(10)
H14 H 0.5326 0.3467 0.0550
H15 H 0.6024 0.3642 0.0591
H16 H 0.5582 0.4653 0.0682
C9 C 0.36029(15) 0.3404(3) 0.10110(11)
C10 C 0.30667(15) 0.3131(3) 0.11989(11)
C11 C 0.25478(16) 0.3095(4) 0.09898(11)
H17 H 0.2189 0.2938 0.1118
C12 C 0.25263(17) 0.3276(4) 0.06058(11)
C13 C 0.30607(17) 0.3446(4) 0.04224(11)
H18 H 0.3062 0.3533 0.0156
C14 C 0.35906(16) 0.3494(3) 0.06143(11)
C15 C 0.30078(15) 0.2773(4) 0.16110(11)
H19 H 0.3411 0.2767 0.1726
C16 C 0.27518(17) 0.1583(4) 0.16387(12)
H20 H 0.2337 0.1593 0.1560
H21 H 0.2780 0.1319 0.1900
H22 H 0.2975 0.1080 0.1473
C17 C 0.26221(16) 0.3585(4) 0.18383(12)
H23 H 0.2764 0.4352 0.1801
H24 H 0.2644 0.3392 0.2107
H25 H 0.2212 0.3528 0.1752
C18 C 0.19512(18) 0.3251(4) 0.03894(14)
H26 H 0.1632 0.2983 0.0562
C19 C 0.1946(7) 0.2541(19) 0.0039(5)
H27 H 0.2241 0.2821 -0.0139
H28 H 0.1554 0.2574 -0.0078
H29 H 0.2038 0.1763 0.0106
C20 C 0.1817(6) 0.4521(11) 0.0277(5)
H30 H 0.1789 0.4976 0.0507
H31 H 0.1444 0.4559 0.0139
H32 H 0.2137 0.4806 0.0118
C21 C 0.41441(16) 0.3565(4) 0.03756(11)
H33 H 0.4488 0.3599 0.0552
C22 C 0.42151(19) 0.2503(5) 0.01368(13)
H34 H 0.4181 0.1842 0.0299
H35 H 0.4604 0.2507 0.0015
H36 H 0.3907 0.2482 -0.0057
C23 C 0.41741(19) 0.4593(5) 0.01266(13)
H37 H 0.3837 0.4597 -0.0046
H38 H 0.4542 0.4581 -0.0019
H39 H 0.4163 0.5268 0.0284
C24 C 0.63996(15) 0.5071(3) 0.16356(11)
C25 C 0.69126(16) 0.4957(4) 0.14149(11)
C26 C 0.74534(17) 0.5308(4) 0.15599(11)
H40 H 0.7794 0.5229 0.1406
C27 C 0.70121(16) 0.5892(4) 0.21237(11)
H41 H 0.7042 0.6220 0.2367
C28 C 0.64591(16) 0.5563(4) 0.19965(11)
C29 C 0.69270(17) 0.4440(4) 0.10285(12)
H42 H 0.6509 0.4380 0.0941
C30 C 0.7175(2) 0.3248(5) 0.10436(16)
H43 H 0.7594 0.3275 0.1110
H44 H 0.7128 0.2891 0.0796
H45 H 0.6960 0.2814 0.1234
C31 C 0.7255(2) 0.5144(5) 0.07375(13)
H46 H 0.7094 0.5906 0.0736
H47 H 0.7206 0.4809 0.0487
H48 H 0.7675 0.5169 0.0802
C32 C 0.75221(18) 0.5765(4) 0.19136(11)
C33 C 0.8141(3) 0.5969(9) 0.2069(3)
H49 H 0.8393 0.6201 0.1850
C34 C 0.8415(4) 0.4925(10) 0.2230(3)
H50 H 0.8178 0.4661 0.2444
H51 H 0.8817 0.5090 0.2316
H52 H 0.8429 0.4342 0.2035
C35 C 0.8167(4) 0.6910(11) 0.2354(3)
H53 H 0.8016 0.7599 0.2239
H54 H 0.8577 0.7026 0.2433
H55 H 0.7926 0.6716 0.2574
C36 C 0.59524(17) 0.5797(4) 0.22689(12)
H56 H 0.5574 0.5612 0.2137
C37 C 0.59915(19) 0.5076(4) 0.26260(12)
H57 H 0.5988 0.4282 0.2556
H58 H 0.5653 0.5236 0.2790
H59 H 0.6358 0.5248 0.2761
C38 C 0.5934(2) 0.7032(4) 0.23806(14)
H60 H 0.6251 0.7188 0.2561
H61 H 0.5552 0.7203 0.2497
H62 H 0.5988 0.7498 0.2155
C39 C 0.52233(15) 0.6835(4) 0.14281(12)
F1 F 0.46880(11) 0.7663(2) 0.19345(8)
C40 C 0.50894(17) 0.7752(4) 0.16513(13)
F2 F 0.52024(12) 0.9634(2) 0.18526(9)
C41 C 0.53469(18) 0.8792(4) 0.16166(14)
F3 F 0.60350(10) 0.9976(2) 0.13119(8)
C42 C 0.57700(17) 0.8966(4) 0.13440(14)
F4 F 0.63219(10) 0.8264(2) 0.08373(7)
C43 C 0.59152(17) 0.8106(4) 0.11113(13)
F5 F 0.58173(10) 0.6276(2) 0.09129(7)
C44 C 0.56438(16) 0.7088(4) 0.11560(12)
C45 C 0.48804(15) 0.1589(3) 0.10249(11)
F6 F 0.40648(9) 0.1278(2) 0.14279(6)
C46 C 0.44132(16) 0.0929(4) 0.11390(11)
F7 F 0.38214(10) -0.0716(2) 0.11312(8)
C47 C 0.42746(17) -0.0119(4) 0.09931(12)
F8 F 0.45057(10) -0.1559(2) 0.05584(8)
C48 C 0.46192(17) -0.0536(4) 0.07066(12)
F9 F 0.54434(10) -0.0352(2) 0.03114(7)
C49 C 0.50925(17) 0.0065(4) 0.05838(12)
F10 F 0.57213(10) 0.1569(2) 0.06185(7)
C50 C 0.52176(16) 0.1090(4) 0.07459(12)
H63? H 0.1627 0.3180 0.0579
C51? C 0.1946(7) 0.2142(16) 0.0143(6)
H64? H 0.2263 0.2176 -0.0044
H65? H 0.1565 0.2073 0.0014
H66? H 0.2006 0.1492 0.0308
C52? C 0.1815(9) 0.4261(17) 0.0152(7)
H67? H 0.1798 0.4927 0.0314
H68? H 0.1434 0.4157 0.0027
H69? H 0.2125 0.4358 -0.0038
C53? C 0.8090(8) 0.6331(17) 0.2051(7)
H70? H 0.8362 0.6436 0.1831
C54? C 0.8006(10) 0.743(2) 0.2245(7)
H71? H 0.7748 0.7333 0.2464
H72? H 0.7825 0.7968 0.2070
H73? H 0.8389 0.7720 0.2329
C55? C 0.8362(11) 0.550(3) 0.2322(8)
H74? H 0.8729 0.5804 0.2424
H75? H 0.8446 0.4796 0.2187
H76? H 0.8085 0.5348 0.2528
loop_
_geom_bond_atom_site_label_1
_geom_bond_atom_site_label_2
_geom_bond_site_symmetry_1
_geom_bond_site_symmetry_2
P1 B2 1_555 1_555
P2 B1 1_555 1_555
B1 C2 1_555 1_555
B2 C5 1_555 1_555
C1 P1 1_555 1_555
H1 C1 1_555 1_555
H2 C1 1_555 1_555
C2 C1 1_555 1_555
H3 C2 1_555 1_555
H4 C2 1_555 1_555
C3 P1 1_555 1_555
H5 C3 1_555 1_555
C4 C3 1_555 1_555
H6 C4 1_555 1_555
H7 C4 1_555 1_555
H8 C4 1_555 1_555
C5 H9 1_555 1_555
H10 C5 1_555 1_555
C6 P2 1_555 1_555
H11 C6 1_555 1_555
H12 C6 1_555 1_555
C7 P2 1_555 1_555
H13 C7 1_555 1_555
C8 C7 1_555 1_555
H14 C8 1_555 1_555
H15 C8 1_555 1_555
H16 C8 1_555 1_555
C9 P1 1_555 1_555
C10 C9 1_555 1_555
C11 C10 1_555 1_555
H17 C11 1_555 1_555
C12 C11 1_555 1_555
C13 C12 1_555 1_555
H18 C13 1_555 1_555
C14 C9 1_555 1_555
C15 C10 1_555 1_555
H19 C15 1_555 1_555
C16 C15 1_555 1_555
H20 C16 1_555 1_555
H21 C16 1_555 1_555
H22 C16 1_555 1_555
C17 C15 1_555 1_555
H23 C17 1_555 1_555
H24 C17 1_555 1_555
H25 C17 1_555 1_555
C18 C12 1_555 1_555
H26 C18 1_555 1_555
C19 C18 1_555 1_555
H27 C19 1_555 1_555
H28 C19 1_555 1_555
H29 C19 1_555 1_555
C20 C18 1_555 1_555
H30 C20 1_555 1_555
H31 C20 1_555 1_555
H32 C20 1_555 1_555
C21 C14 1_555 1_555
H33 C21 1_555 1_555
C22 C21 1_555 1_555
H34 C22 1_555 1_555
H35 C22 1_555 1_555
H36 C22 1_555 1_555
C23 C21 1_555 1_555
H37 C23 1_555 1_555
H38 C23 1_555 1_555
H39 C23 1_555 1_555
C24 P2 1_555 1_555
C25 C24 1_555 1_555
C26 C25 1_555 1_555
H40 C26 1_555 1_555
C27 H41 1_555 1_555
C28 C24 1_555 1_555
C29 C25 1_555 1_555
H42 C29 1_555 1_555
C30 C29 1_555 1_555
H43 C30 1_555 1_555
H44 C30 1_555 1_555
H45 C30 1_555 1_555
C31 C29 1_555 1_555
H46 C31 1_555 1_555
H47 C31 1_555 1_555
H48 C31 1_555 1_555
C32 C26 1_555 1_555
C33 C32 1_555 1_555
H49 C33 1_555 1_555
C34 C33 1_555 1_555
H50 C34 1_555 1_555
H51 C34 1_555 1_555
H52 C34 1_555 1_555
C35 C33 1_555 1_555
H53 C35 1_555 1_555
H54 C35 1_555 1_555
H55 C35 1_555 1_555
C36 C28 1_555 1_555
H56 C36 1_555 1_555
C37 C36 1_555 1_555
H57 C37 1_555 1_555
H58 C37 1_555 1_555
H59 C37 1_555 1_555
C38 C36 1_555 1_555
H60 C38 1_555 1_555
H61 C38 1_555 1_555
H62 C38 1_555 1_555
C39 B1 1_555 1_555
F1 C40 1_555 1_555
C40 C39 1_555 1_555
F2 C41 1_555 1_555
C41 C40 1_555 1_555
F3 C42 1_555 1_555
C42 C41 1_555 1_555
F4 C43 1_555 1_555
C43 C42 1_555 1_555
F5 C44 1_555 1_555
C44 C39 1_555 1_555
C45 B2 1_555 1_555
F6 C46 1_555 1_555
C46 C45 1_555 1_555
F7 C47 1_555 1_555
C47 C46 1_555 1_555
F8 C48 1_555 1_555
C48 C47 1_555 1_555
F9 C49 1_555 1_555
C49 C48 1_555 1_555
F10 C50 1_555 1_555
C50 C45 1_555 1_555
B1 C3 1_555 1_555
B2 C7 1_555 1_555
C5 C6 1_555 1_555
C13 C14 1_555 1_555
C27 C28 1_555 1_555
C27 C32 1_555 1_555
C43 C44 1_555 1_555
C49 C50 1_555 1_555

#END
