
#######################################################################
#
#                 Cambridge Crystallographic Data Centre
#                                CCDC 
#
#######################################################################
#
# If this CIF has been generated from an entry in the Cambridge 
# Structural Database, then it will include bibliographic, chemical, 
# crystal, experimental, refinement or atomic coordinate data resulting 
# from the CCDC's data processing and validation procedures.
#
#######################################################################

data_BEZROQ
_chemical_formula_moiety         'C56 H74 B2 F10 P2'
_chemical_name_systematic        
9,10-dimethyl-2,6-bis(pentafluorophenyl)-1,5-bis(2,4,6-tri-t-butylphenyl)-1,5-diphospha-2,6-diboratricyclo[4.2.1.1^2,5^]decane
_symmetry_cell_setting           triclinic
_symmetry_space_group_name_H-M   'P -1'
_symmetry_Int_Tables_number      2
_space_group_name_Hall           '-P 1'
loop_
_symmetry_equiv_pos_site_id
_symmetry_equiv_pos_as_xyz
1 x,y,z
2 -x,-y,-z
_cell_length_a                   10.6253(5)
_cell_length_b                   10.6747(5)
_cell_length_c                   12.3972(6)
_cell_angle_alpha                103.882(2)
_cell_angle_beta                 97.692(2)
_cell_angle_gamma                100.679(2)
_cell_volume                     1317.76
_exptl_crystal_colour            colorless
_exptl_crystal_description       prism
_cell_formula_units_Z            1
loop_
_atom_site_label
_atom_site_type_symbol
_atom_site_fract_x
_atom_site_fract_y
_atom_site_fract_z
B1 B 0.8869(3) 0.4220(4) 0.3775(3)
C1 C 0.8222(3) 0.5960(3) 0.5384(3)
H1 H 0.7351 0.5893 0.5595
H2 H 0.8685 0.6905 0.5623
P1 P 0.91567(7) 0.49857(8) 0.60887(7)
C2 C 0.8081(3) 0.5398(3) 0.4084(3)
H3 H 0.8423 0.6122 0.3757
H4 H 0.7146 0.5047 0.3742
C3 C 0.8768(3) 0.3547(3) 0.4852(3)
H5 H 0.9411 0.2978 0.4896
C4 C 0.7355(3) 0.2731(4) 0.4692(3)
H6 H 0.6769 0.3335 0.4849
H7 H 0.7323 0.2172 0.5214
H8 H 0.7078 0.2171 0.3912
C5 C 0.8163(3) 0.4458(3) 0.7121(2)
C6 C 0.7056(3) 0.5027(3) 0.7317(3)
C7 C 0.5885(3) 0.4170(3) 0.7263(3)
H9 H 0.5125 0.4518 0.7287
C8 C 0.5760(3) 0.2824(3) 0.7175(3)
C9 C 0.6920(3) 0.2419(3) 0.7344(3)
H10 H 0.6892 0.1567 0.746
C10 C 0.8133(3) 0.3211(3) 0.7349(3)
C11 C 0.7127(3) 0.6519(3) 0.7870(3)
C12 C 0.6810(4) 0.6564(4) 0.9059(3)
H11 H 0.7428 0.6183 0.9467
H12 H 0.5921 0.6052 0.8984
H13 H 0.6881 0.7485 0.9479
C13 C 0.6114(4) 0.7084(4) 0.7248(3)
H14 H 0.6135 0.7984 0.7691
H15 H 0.5244 0.6522 0.7154
H16 H 0.6317 0.7106 0.6504
C14 C 0.8483(3) 0.7398(4) 0.8065(3)
H17 H 0.869 0.7501 0.734
H18 H 0.9123 0.6991 0.8415
H19 H 0.851 0.8269 0.8567
C15 C 0.4422(3) 0.1894(3) 0.6968(3)
C16 C 0.3578(3) 0.2477(4) 0.7781(3)
H20 H 0.4025 0.2644 0.8563
H21 H 0.2738 0.1849 0.7653
H22 H 0.3432 0.3311 0.7645
C17 C 0.4517(4) 0.0535(4) 0.7133(4)
H23 H 0.4967 0.0094 0.6566
H24 H 0.3638 -0.0006 0.7046
H25 H 0.5005 0.0649 0.7892
C18 C 0.3755(4) 0.1714(4) 0.5745(3)
H26 H 0.3683 0.258 0.5636
H27 H 0.2882 0.1138 0.5597
H28 H 0.4274 0.131 0.5221
C19 C 0.9338(3) 0.2676(4) 0.7695(3)
C20 C 0.9114(4) 0.2040(5) 0.8662(4)
H29 H 0.9925 0.1832 0.897
H30 H 0.8431 0.1224 0.8374
H31 H 0.8845 0.2659 0.926
C21 C 0.9597(4) 0.1618(4) 0.6718(3)
H32 H 0.9862 0.2028 0.6132
H33 H 0.88 0.0923 0.6396
H34 H 1.0293 0.1229 0.7004
C22 C 1.0529(3) 0.3819(4) 0.8195(3)
H35 H 1.129 0.3468 0.8397
H36 H 1.0367 0.4413 0.8872
H37 H 1.0695 0.4311 0.7635
C23 C 0.8283(3) 0.3090(3) 0.2556(3)
C24 C 0.7378(3) 0.3246(3) 0.1703(3)
F1 F 0.69822(18) 0.43862(19) 0.17770(16)
C25 C 0.6796(3) 0.2258(4) 0.0706(3)
F2 F 0.5941(2) 0.2485(2) -0.00788(18)
C26 C 0.7120(3) 0.1042(3) 0.0536(3)
F3 F 0.6574(2) 0.0078(2) -0.04230(18)
C27 C 0.8000(3) 0.0833(3) 0.1348(3)
F4 F 0.8327(2) -0.0348(2) 0.11941(18)
C28 C 0.8530(3) 0.1830(3) 0.2329(3)
F5 F 0.93223(18) 0.15016(19) 0.31164(16)
B1A B 1.1131(3) 0.5780(4) 0.6225(3)
C1A C 1.1778(3) 0.4040(3) 0.4616(3)
H1A H 1.2649 0.4107 0.4405
H2A H 1.1315 0.3095 0.4377
P1A P 1.08433(7) 0.50143(8) 0.39113(7)
C2A C 1.1919(3) 0.4602(3) 0.5916(3)
H3A H 1.1577 0.3878 0.6243
H4A H 1.2854 0.4953 0.6258
C3A C 1.1232(3) 0.6453(3) 0.5148(3)
H5A H 1.0589 0.7022 0.5104
C4A C 1.2645(3) 0.7269(4) 0.5308(3)
H6A H 1.3231 0.6665 0.5151
H7A H 1.2677 0.7828 0.4786
H8A H 1.2922 0.7829 0.6088
C5A C 1.1837(3) 0.5542(3) 0.2879(2)
C6A C 1.2944(3) 0.4973(3) 0.2683(3)
C7A C 1.4115(3) 0.5830(3) 0.2737(3)
H9A H 1.4875 0.5482 0.2713
C8A C 1.4240(3) 0.7176(3) 0.2825(3)
C9A C 1.3080(3) 0.7581(3) 0.2656(3)
H10A H 1.3108 0.8433 0.254
C10A C 1.1867(3) 0.6789(3) 0.2651(3)
C11A C 1.2873(3) 0.3481(3) 0.2130(3)
C12A C 1.3190(4) 0.3436(4) 0.0941(3)
H11A H 1.2572 0.3817 0.0533
H12A H 1.4079 0.3948 0.1016
H13A H 1.3119 0.2515 0.0521
C13A C 1.3886(4) 0.2916(4) 0.2752(3)
H14A H 1.3865 0.2016 0.2309
H15A H 1.4756 0.3478 0.2846
H16A H 1.3683 0.2894 0.3496
C14A C 1.1517(3) 0.2602(4) 0.1935(3)
H17A H 1.131 0.2499 0.266
H18A H 1.0877 0.3009 0.1585
H19A H 1.149 0.1731 0.1433
C15A C 1.5578(3) 0.8106(3) 0.3032(3)
C16A C 1.6422(3) 0.7523(4) 0.2219(3)
H20A H 1.5975 0.7356 0.1437
H21A H 1.7262 0.8151 0.2347
H22A H 1.6568 0.6689 0.2355
C17A C 1.5483(4) 0.9465(4) 0.2867(4)
H23A H 1.5033 0.9906 0.3434
H24A H 1.6362 1.0006 0.2954
H25A H 1.4995 0.9351 0.2108
C18A C 1.6245(4) 0.8286(4) 0.4255(3)
H26A H 1.6317 0.742 0.4364
H27A H 1.7118 0.8862 0.4403
H28A H 1.5726 0.869 0.4779
C19A C 1.0662(3) 0.7324(4) 0.2305(3)
C20A C 1.0886(4) 0.7960(5) 0.1338(4)
H29A H 1.0075 0.8168 0.103
H30A H 1.1569 0.8776 0.1626
H31A H 1.1155 0.7341 0.074
C21A C 1.0403(4) 0.8382(4) 0.3282(3)
H32A H 1.0138 0.7972 0.3868
H33A H 1.12 0.9077 0.3604
H34A H 0.9707 0.8771 0.2996
C22A C 0.9471(3) 0.6181(4) 0.1805(3)
H35A H 0.871 0.6532 0.1603
H36A H 0.9633 0.5587 0.1128
H37A H 0.9305 0.5689 0.2365
C23A C 1.1717(3) 0.6910(3) 0.7444(3)
C24A C 1.2622(3) 0.6754(3) 0.8297(3)
F1A F 1.30178(18) 0.56138(19) 0.82230(16)
C25A C 1.3204(3) 0.7742(4) 0.9294(3)
F2A F 1.4059(2) 0.7515(2) 1.00788(18)
C26A C 1.2880(3) 0.8958(3) 0.9464(3)
F3A F 1.3426(2) 0.9922(2) 1.04230(18)
C27A C 1.2000(3) 0.9167(3) 0.8652(3)
F4A F 1.1673(2) 1.0348(2) 0.88059(18)
C28A C 1.1470(3) 0.8170(3) 0.7671(3)
F5A F 1.06777(18) 0.84984(19) 0.68836(16)
loop_
_geom_bond_atom_site_label_1
_geom_bond_atom_site_label_2
_geom_bond_site_symmetry_1
_geom_bond_site_symmetry_2
B1 C2 1_555 1_555
C1 H1 1_555 1_555
H2 C1 1_555 1_555
P1 C1 1_555 1_555
C2 C1 1_555 1_555
H3 C2 1_555 1_555
H4 C2 1_555 1_555
C3 B1 1_555 1_555
H5 C3 1_555 1_555
C4 C3 1_555 1_555
H6 C4 1_555 1_555
H7 C4 1_555 1_555
H8 C4 1_555 1_555
C5 P1 1_555 1_555
C6 C5 1_555 1_555
C7 C6 1_555 1_555
H9 C7 1_555 1_555
C8 C7 1_555 1_555
C9 C8 1_555 1_555
H10 C9 1_555 1_555
C10 C5 1_555 1_555
C11 C6 1_555 1_555
C12 C11 1_555 1_555
H11 C12 1_555 1_555
H12 C12 1_555 1_555
H13 C12 1_555 1_555
C13 C11 1_555 1_555
H14 C13 1_555 1_555
H15 C13 1_555 1_555
H16 C13 1_555 1_555
C14 C11 1_555 1_555
H17 C14 1_555 1_555
H18 C14 1_555 1_555
H19 C14 1_555 1_555
C15 C8 1_555 1_555
C16 C15 1_555 1_555
H20 C16 1_555 1_555
H21 C16 1_555 1_555
H22 C16 1_555 1_555
C17 C15 1_555 1_555
H23 C17 1_555 1_555
H24 C17 1_555 1_555
H25 C17 1_555 1_555
C18 C15 1_555 1_555
H26 C18 1_555 1_555
H27 C18 1_555 1_555
H28 C18 1_555 1_555
C19 C10 1_555 1_555
C20 C19 1_555 1_555
H29 C20 1_555 1_555
H30 C20 1_555 1_555
H31 C20 1_555 1_555
C21 C19 1_555 1_555
H32 C21 1_555 1_555
H33 C21 1_555 1_555
H34 C21 1_555 1_555
C22 C19 1_555 1_555
H35 C22 1_555 1_555
H36 C22 1_555 1_555
H37 C22 1_555 1_555
C23 B1 1_555 1_555
C24 C23 1_555 1_555
F1 C24 1_555 1_555
C25 C24 1_555 1_555
F2 C25 1_555 1_555
C26 C25 1_555 1_555
F3 C26 1_555 1_555
C27 C26 1_555 1_555
F4 C27 1_555 1_555
C28 C23 1_555 1_555
F5 C28 1_555 1_555
B1A P1 1_555 1_555
C1A H1A 1_555 1_555
H2A C1A 1_555 1_555
P1A B1 1_555 1_555
C2A B1A 1_555 1_555
H3A C2A 1_555 1_555
H4A C2A 1_555 1_555
C3A B1A 1_555 1_555
H5A C3A 1_555 1_555
C4A C3A 1_555 1_555
H6A C4A 1_555 1_555
H7A C4A 1_555 1_555
H8A C4A 1_555 1_555
C5A P1A 1_555 1_555
C6A C5A 1_555 1_555
C7A C6A 1_555 1_555
H9A C7A 1_555 1_555
C8A C7A 1_555 1_555
C9A C8A 1_555 1_555
H10A C9A 1_555 1_555
C10A C5A 1_555 1_555
C11A C6A 1_555 1_555
C12A C11A 1_555 1_555
H11A C12A 1_555 1_555
H12A C12A 1_555 1_555
H13A C12A 1_555 1_555
C13A C11A 1_555 1_555
H14A C13A 1_555 1_555
H15A C13A 1_555 1_555
H16A C13A 1_555 1_555
C14A C11A 1_555 1_555
H17A C14A 1_555 1_555
H18A C14A 1_555 1_555
H19A C14A 1_555 1_555
C15A C8A 1_555 1_555
C16A C15A 1_555 1_555
H20A C16A 1_555 1_555
H21A C16A 1_555 1_555
H22A C16A 1_555 1_555
C17A C15A 1_555 1_555
H23A C17A 1_555 1_555
H24A C17A 1_555 1_555
H25A C17A 1_555 1_555
C18A C15A 1_555 1_555
H26A C18A 1_555 1_555
H27A C18A 1_555 1_555
H28A C18A 1_555 1_555
C19A C10A 1_555 1_555
C20A C19A 1_555 1_555
H29A C20A 1_555 1_555
H30A C20A 1_555 1_555
H31A C20A 1_555 1_555
C21A C19A 1_555 1_555
H32A C21A 1_555 1_555
H33A C21A 1_555 1_555
H34A C21A 1_555 1_555
C22A C19A 1_555 1_555
H35A C22A 1_555 1_555
H36A C22A 1_555 1_555
H37A C22A 1_555 1_555
C23A B1A 1_555 1_555
C24A C23A 1_555 1_555
F1A C24A 1_555 1_555
C25A C24A 1_555 1_555
F2A C25A 1_555 1_555
C26A C25A 1_555 1_555
F3A C26A 1_555 1_555
C27A C26A 1_555 1_555
F4A C27A 1_555 1_555
C28A C23A 1_555 1_555
F5A C28A 1_555 1_555
P1 C3 1_555 1_555
C9 C10 1_555 1_555
C27 C28 1_555 1_555
C1A P1A 1_555 1_555
C1A C2A 1_555 1_555
P1A C3A 1_555 1_555
C9A C10A 1_555 1_555
C27A C28A 1_555 1_555

#END
