
#######################################################################
#
#                 Cambridge Crystallographic Data Centre
#                                CCDC 
#
#######################################################################
#
# If this CIF has been generated from an entry in the Cambridge 
# Structural Database, then it will include bibliographic, chemical, 
# crystal, experimental, refinement or atomic coordinate data resulting 
# from the CCDC's data processing and validation procedures.
#
#######################################################################

data_BEZRIJ
_chemical_name_common            1,3,5-tris(4-Hydroxyphenylmethyl)benzene
_chemical_formula_moiety         'C27 H24 O3'
_chemical_name_systematic        
4,4',4''-(Benzene-1,3,5-triyltris(methylene))triphenol
_symmetry_cell_setting           monoclinic
_symmetry_space_group_name_H-M   'P 21/n'
_symmetry_Int_Tables_number      14
_space_group_name_Hall           '-P 2yn'
loop_
_symmetry_equiv_pos_site_id
_symmetry_equiv_pos_as_xyz
1 x,y,z
2 1/2-x,1/2+y,1/2-z
3 -x,-y,-z
4 1/2+x,1/2-y,1/2+z
_cell_length_a                   13.2101(5)
_cell_length_b                   5.9068(2)
_cell_length_c                   26.6540(10)
_cell_angle_alpha                90
_cell_angle_beta                 91.1740(10)
_cell_angle_gamma                90
_cell_volume                     2079.36
_exptl_crystal_colour            colorless
_exptl_crystal_description       platelet
_chemical_melting_point          '478 K'
_cell_formula_units_Z            4
loop_
_atom_site_label
_atom_site_type_symbol
_atom_site_fract_x
_atom_site_fract_y
_atom_site_fract_z
O1 O 0.66458(14) 0.8611(2) 0.11172(5)
H1 H 0.6639 0.9951 0.1037
O2 O -0.01341(13) 1.0591(4) 0.42955(6)
H2 H 0.0039 1.0384 0.4589
O3 O 0.18621(12) 0.2128(2) 0.57222(6)
H3 H 0.1386 0.1241 0.5699
C1 C 0.64899(13) 0.8424(2) 0.16258(6)
C2 C 0.59969(13) 1.0060(2) 0.18949(6)
H4 H 0.5786 1.1394 0.1739
C3 C 0.58170(12) 0.9711(2) 0.23975(6)
H5 H 0.5489 1.0827 0.2579
C4 C 0.61162(12) 0.7727(2) 0.26375(6)
C5 C 0.59452(13) 0.7348(2) 0.31893(6)
H6 H 0.5802 0.8796 0.3344
H7 H 0.6567 0.6774 0.3342
C6 C 0.50932(12) 0.5724(2) 0.33069(6)
C7 C 0.41234(12) 0.6070(2) 0.31132(6)
H8 H 0.4002 0.7292 0.29
C8 C 0.33299(12) 0.4636(2) 0.32296(6)
C9 C 0.22607(12) 0.5098(4) 0.30393(6)
H9 H 0.2292 0.5822 0.2713
H10 H 0.1911 0.3666 0.2995
C10 C 0.16534(12) 0.6577(2) 0.33834(6)
C11 C 0.12718(13) 0.8633(4) 0.32171(9)
H11 H 0.1409 0.9106 0.2893
C12 C 0.06980(14) 0.9997(4) 0.35160(10)
H12 H 0.0459 1.1378 0.3395
C13 C 0.04817(14) 0.9325(4) 0.39852(10)
C14 C 0.25418(14) 0.1684(4) 0.53470(6)
C15 C 0.25421(18) -0.0317(4) 0.50911(9)
H13 H 0.2083 -0.1446 0.5172
C16 C 0.32237(17) -0.0674(4) 0.47110(8)
H14 H 0.3214 -0.2045 0.454
C17 C 0.39089(12) 0.0941(2) 0.45826(6)
C18 C 0.39061(17) 0.2918(4) 0.48531(8)
H15 H 0.4375 0.4037 0.4779
C19 C 0.32277(18) 0.3294(4) 0.52314(8)
H16 H 0.3242 0.4655 0.5407
C20 C 0.46200(14) 0.0618(2) 0.41514(6)
H17 H 0.4496 -0.0846 0.3997
H18 H 0.5314 0.064 0.4278
C21 C 0.44764(12) 0.2464(2) 0.37612(6)
C22 C 0.35242(12) 0.2825(2) 0.35475(6)
H19 H 0.3003 0.1826 0.3619
C23 C 0.14322(14) 0.5907(4) 0.38672(8)
H20 H 0.1683 0.4538 0.3989
C24 C 0.08415(17) 0.7252(5) 0.41721(9)
H21 H 0.0687 0.6786 0.4495
C25 C 0.67987(13) 0.6449(2) 0.18573(6)
H22 H 0.7135 0.5346 0.1676
C26 C 0.66085(12) 0.6111(2) 0.23564(6)
H23 H 0.6815 0.4767 0.2509
C27 C 0.52544(12) 0.3913(2) 0.36309(6)
H24 H 0.5901 0.3666 0.3764
loop_
_geom_bond_atom_site_label_1
_geom_bond_atom_site_label_2
_geom_bond_site_symmetry_1
_geom_bond_site_symmetry_2
O1 H1 1_555 1_555
O2 H2 1_555 1_555
O3 H3 1_555 1_555
C1 O1 1_555 1_555
C2 C1 1_555 1_555
H4 C2 1_555 1_555
C3 C2 1_555 1_555
H5 C3 1_555 1_555
C4 C3 1_555 1_555
C5 C4 1_555 1_555
H6 C5 1_555 1_555
H7 C5 1_555 1_555
C6 C5 1_555 1_555
C7 C6 1_555 1_555
H8 C7 1_555 1_555
C8 C7 1_555 1_555
C9 C8 1_555 1_555
H9 C9 1_555 1_555
H10 C9 1_555 1_555
C10 C9 1_555 1_555
C11 C10 1_555 1_555
H11 C11 1_555 1_555
C12 C11 1_555 1_555
H12 C12 1_555 1_555
C13 O2 1_555 1_555
C14 O3 1_555 1_555
C15 C14 1_555 1_555
H13 C15 1_555 1_555
C16 C15 1_555 1_555
H14 C16 1_555 1_555
C17 C16 1_555 1_555
C18 C17 1_555 1_555
H15 C18 1_555 1_555
C19 C14 1_555 1_555
H16 C19 1_555 1_555
C20 C17 1_555 1_555
H17 C20 1_555 1_555
H18 C20 1_555 1_555
C21 C20 1_555 1_555
C22 C8 1_555 1_555
H19 C22 1_555 1_555
C23 C10 1_555 1_555
H20 C23 1_555 1_555
C24 C13 1_555 1_555
H21 C24 1_555 1_555
C25 C1 1_555 1_555
H22 C25 1_555 1_555
C26 C4 1_555 1_555
H23 C26 1_555 1_555
C27 C6 1_555 1_555
H24 C27 1_555 1_555
C12 C13 1_555 1_555
C18 C19 1_555 1_555
C21 C22 1_555 1_555
C21 C27 1_555 1_555
C23 C24 1_555 1_555
C25 C26 1_555 1_555

#END
