
#######################################################################
#
#                 Cambridge Crystallographic Data Centre
#                                CCDC 
#
#######################################################################
#
# If this CIF has been generated from an entry in the Cambridge 
# Structural Database, then it will include bibliographic, chemical, 
# crystal, experimental, refinement or atomic coordinate data resulting 
# from the CCDC's data processing and validation procedures.
#
#######################################################################

data_BEZSEH
_chemical_formula_moiety         'C32 H37 B1 F5 O1 P1'
_chemical_name_systematic        
7-methyl-1-(pentafluorophenyl)-3-phenyl-4-[2,4,6-tris(propan-2-yl)phenyl]-2-oxa-4-phospha-1-borabicyclo[2.2.1]heptane
_symmetry_cell_setting           triclinic
_symmetry_space_group_name_H-M   'P -1'
_symmetry_Int_Tables_number      2
_space_group_name_Hall           '-P 1'
loop_
_symmetry_equiv_pos_site_id
_symmetry_equiv_pos_as_xyz
1 x,y,z
2 -x,-y,-z
_cell_length_a                   12.1408(3)
_cell_length_b                   15.4506(4)
_cell_length_c                   16.6403(5)
_cell_angle_alpha                77.2090(10)
_cell_angle_beta                 76.7190(10)
_cell_angle_gamma                77.9290(10)
_cell_volume                     2921.08
_exptl_crystal_colour            colorless
_exptl_crystal_description       prism
_cell_formula_units_Z            4
loop_
_atom_site_label
_atom_site_type_symbol
_atom_site_fract_x
_atom_site_fract_y
_atom_site_fract_z
B1 B 0.5976(2) 0.47015(16) 0.24245(15)
P1 P 0.47458(4) 0.40873(3) 0.37299(3)
O1 O 0.55205(13) 0.39852(9) 0.21716(9)
C1 C 0.62225(18) 0.38121(15) 0.38892(14)
H1 H 0.6316 0.4087 0.4348
H2 H 0.647 0.3153 0.4022
C2 C 0.69093(18) 0.42241(15) 0.30311(14)
H3 H 0.7472 0.3748 0.2778
H4 H 0.733 0.4676 0.3107
C3 C 0.48525(18) 0.51710(14) 0.30840(13)
H5 H 0.4172 0.5403 0.2808
C4 C 0.5112(2) 0.58897(14) 0.34725(14)
H6 H 0.5794 0.5652 0.3725
H7 H 0.4456 0.6064 0.3906
H8 H 0.5255 0.6417 0.3037
C5 C 0.47903(18) 0.35203(14) 0.28411(13)
H9 H 0.5167 0.2879 0.2972
C6 C 0.36611(18) 0.38166(13) 0.46681(13)
C7 C 0.38509(18) 0.29499(14) 0.51800(13)
C8 C 0.30768(19) 0.27629(15) 0.59283(14)
H10 H 0.3208 0.2191 0.628
C9 C 0.2117(2) 0.33825(16) 0.61817(14)
C10 C 0.19365(19) 0.42084(15) 0.56582(14)
H11 H 0.128 0.4633 0.5824
C11 C 0.26686(18) 0.44470(14) 0.49024(14)
C12 C 0.48436(19) 0.21937(13) 0.49675(13)
H12 H 0.5234 0.2375 0.4373
C13 C 0.5733(2) 0.20451(15) 0.55294(14)
H13 H 0.6028 0.2605 0.5465
H14 H 0.6368 0.1572 0.5365
H15 H 0.5371 0.1863 0.6117
C14 C 0.4433(2) 0.13023(14) 0.50388(14)
H16 H 0.4083 0.1093 0.5624
H17 H 0.5088 0.0852 0.4857
H18 H 0.3865 0.1392 0.4682
C15 C 0.1293(2) 0.31739(17) 0.70095(16)
H19 H 0.0583 0.3636 0.6981
C16 C 0.0927(3) 0.2271(2) 0.71567(18)
H20 H 0.1583 0.1794 0.7246
H21 H 0.0647 0.2215 0.6666
H22 H 0.0313 0.2217 0.7654
C17 C 0.1763(3) 0.3287(2) 0.77283(18)
H23 H 0.1195 0.3186 0.8249
H24 H 0.1933 0.3898 0.7631
H25 H 0.2468 0.285 0.7777
C18 C 0.23065(19) 0.53471(15) 0.43481(14)
H26 H 0.302 0.5567 0.4007
C19 C 0.1616(2) 0.52112(18) 0.37421(16)
H27 H 0.2072 0.4764 0.3408
H28 H 0.1426 0.5783 0.3368
H29 H 0.0908 0.4999 0.406
C20 C 0.1614(2) 0.60838(16) 0.48304(16)
H30 H 0.0851 0.5935 0.5092
H31 H 0.1536 0.6661 0.4442
H32 H 0.2012 0.6128 0.5266
C21 C 0.64531(18) 0.53967(14) 0.15779(13)
C22 C 0.75803(18) 0.52729(14) 0.11455(14)
C23 C 0.80359(18) 0.58740(15) 0.04600(14)
C24 C 0.7350(2) 0.66520(15) 0.01720(14)
C25 C 0.6206(2) 0.68025(15) 0.05506(14)
C26 C 0.57965(18) 0.61777(15) 0.12320(13)
C27 C 0.36318(19) 0.35453(14) 0.26395(13)
C28 C 0.2897(2) 0.29709(15) 0.31467(14)
H33 H 0.313 0.2559 0.3617
C29 C 0.1830(2) 0.29985(16) 0.29677(15)
H34 H 0.1333 0.2607 0.3316
C30 C 0.1483(2) 0.35960(17) 0.22802(16)
H35 H 0.0747 0.3622 0.2161
C31 C 0.2224(2) 0.41545(16) 0.17692(15)
H36 H 0.1997 0.4557 0.1292
C32 C 0.3288(2) 0.41323(15) 0.19469(14)
H37 H 0.3786 0.452 0.1593
F1 F 0.83201(11) 0.45255(9) 0.13869(9)
F2 F 0.91353(11) 0.57101(10) 0.00739(9)
F3 F 0.77821(12) 0.72553(9) -0.04723(8)
F4 F 0.55146(12) 0.75495(9) 0.02643(8)
F5 F 0.46659(11) 0.63845(9) 0.15654(8)
O2 O 0.72234(12) 0.17899(10) 0.29952(9)
P2 P 0.81870(4) 0.14676(3) 0.15181(3)
B2 B 0.8445(2) 0.12957(16) 0.29716(15)
C33 C 0.92774(19) 0.21277(15) 0.15082(13)
H38 H 1.0024 0.1905 0.1169
H39 H 0.904 0.2773 0.1284
C34 C 0.93451(18) 0.19760(14) 0.24530(13)
H40 H 0.9133 0.2556 0.2655
H41 H 1.0135 0.1705 0.2535
C35 C 0.85976(18) 0.05559(14) 0.23293(13)
H42 H 0.7999 0.0159 0.2536
C36 C 0.97950(18) -0.00051(15) 0.21494(14)
H43 H 1.037 0.0394 0.1968
H44 H 0.9835 -0.034 0.1705
H45 H 0.9947 -0.0429 0.266
C37 C 0.68770(17) 0.19496(14) 0.22111(12)
H46 H 0.6691 0.2613 0.2007
C38 C 0.79054(17) 0.14125(14) 0.04973(12)
C39 C 0.77004(17) 0.22337(14) -0.00698(12)
C40 C 0.75112(17) 0.22150(14) -0.08584(13)
H47 H 0.74 0.2766 -0.1242
C41 C 0.74787(18) 0.14213(15) -0.11057(13)
C42 C 0.76420(18) 0.06285(14) -0.05286(14)
H48 H 0.7608 0.008 -0.0683
C43 C 0.78541(17) 0.05976(14) 0.02675(13)
C44 C 0.76817(19) 0.31632(14) 0.01140(13)
H49 H 0.7691 0.3091 0.0725
C45 C 0.8772(2) 0.35223(16) -0.03853(15)
H50 H 0.9448 0.3081 -0.0264
H51 H 0.8799 0.4089 -0.0224
H52 H 0.8766 0.3627 -0.0987
C46 C 0.6605(2) 0.38381(14) -0.00670(14)
H53 H 0.6602 0.3954 -0.067
H54 H 0.6606 0.4403 0.0109
H55 H 0.5918 0.3588 0.0245
C47 C 0.7208(2) 0.14009(16) -0.19482(14)
H56 H 0.7667 0.0839 -0.2136
C48 C 0.7519(2) 0.21901(18) -0.26375(14)
H57 H 0.703 0.2748 -0.2498
H58 H 0.7401 0.2095 -0.3173
H59 H 0.8325 0.2236 -0.2686
C49 C 0.5937(2) 0.13388(18) -0.18392(16)
H60 H 0.5755 0.0818 -0.1406
H61 H 0.5781 0.127 -0.2372
H62 H 0.5462 0.1889 -0.167
C50 C 0.79640(19) -0.03175(14) 0.08458(14)
H63 H 0.8217 -0.0247 0.1355
C51 C 0.6791(2) -0.06252(16) 0.11320(17)
H64 H 0.6234 -0.0166 0.1401
H65 H 0.6858 -0.1194 0.1534
H66 H 0.6531 -0.0712 0.0644
C52 C 0.8858(2) -0.10267(15) 0.04362(15)
H67 H 0.8606 -0.1136 -0.0046
H68 H 0.8946 -0.1588 0.0845
H69 H 0.9596 -0.0811 0.0247
C53 C 0.85528(17) 0.08719(14) 0.39497(13)
C54 C 0.88807(19) 0.13435(14) 0.44519(14)
C55 C 0.89277(19) 0.10261(15) 0.52930(14)
C56 C 0.86228(18) 0.02026(16) 0.56735(13)
C57 C 0.82964(19) -0.02965(16) 0.52107(14)
C58 C 0.82700(19) 0.00435(15) 0.43726(14)
C59 C 0.58533(17) 0.15140(13) 0.22535(13)
C60 C 0.51919(18) 0.17931(14) 0.16290(13)
H70 H 0.5412 0.2238 0.1157
C61 C 0.42204(19) 0.14302(15) 0.16888(14)
H71 H 0.3777 0.1628 0.126
C62 C 0.38931(19) 0.07788(15) 0.23739(14)
H72 H 0.3222 0.0533 0.242
C63 C 0.45522(19) 0.04885(15) 0.29915(14)
H73 H 0.4334 0.0038 0.3459
C64 C 0.55281(18) 0.08508(14) 0.29311(13)
H74 H 0.5977 0.0644 0.3356
F6 F 0.91771(14) 0.21632(9) 0.41362(8)
F7 F 0.92861(13) 0.15104(10) 0.57364(8)
F8 F 0.86599(11) -0.01173(10) 0.64901(8)
F9 F 0.80325(14) -0.11123(10) 0.55718(9)
F10 F 0.79314(13) -0.04905(9) 0.39634(8)
loop_
_geom_bond_atom_site_label_1
_geom_bond_atom_site_label_2
_geom_bond_site_symmetry_1
_geom_bond_site_symmetry_2
B1 O1 1_555 1_555
P1 C1 1_555 1_555
O1 C5 1_555 1_555
C1 H1 1_555 1_555
H2 C1 1_555 1_555
C2 B1 1_555 1_555
H3 C2 1_555 1_555
H4 C2 1_555 1_555
C3 B1 1_555 1_555
H5 C3 1_555 1_555
C4 C3 1_555 1_555
H6 C4 1_555 1_555
H7 C4 1_555 1_555
H8 C4 1_555 1_555
C5 P1 1_555 1_555
H9 C5 1_555 1_555
C6 P1 1_555 1_555
C7 C6 1_555 1_555
C8 C7 1_555 1_555
H10 C8 1_555 1_555
C9 C8 1_555 1_555
C10 C9 1_555 1_555
H11 C10 1_555 1_555
C11 C6 1_555 1_555
C12 C7 1_555 1_555
H12 C12 1_555 1_555
C13 C12 1_555 1_555
H13 C13 1_555 1_555
H14 C13 1_555 1_555
H15 C13 1_555 1_555
C14 C12 1_555 1_555
H16 C14 1_555 1_555
H17 C14 1_555 1_555
H18 C14 1_555 1_555
C15 C9 1_555 1_555
H19 C15 1_555 1_555
C16 C15 1_555 1_555
H20 C16 1_555 1_555
H21 C16 1_555 1_555
H22 C16 1_555 1_555
C17 C15 1_555 1_555
H23 C17 1_555 1_555
H24 C17 1_555 1_555
H25 C17 1_555 1_555
C18 C11 1_555 1_555
H26 C18 1_555 1_555
C19 C18 1_555 1_555
H27 C19 1_555 1_555
H28 C19 1_555 1_555
H29 C19 1_555 1_555
C20 C18 1_555 1_555
H30 C20 1_555 1_555
H31 C20 1_555 1_555
H32 C20 1_555 1_555
C21 B1 1_555 1_555
C22 C21 1_555 1_555
C23 C22 1_555 1_555
C24 C23 1_555 1_555
C25 C24 1_555 1_555
C26 C21 1_555 1_555
C27 C5 1_555 1_555
C28 C27 1_555 1_555
H33 C28 1_555 1_555
C29 C28 1_555 1_555
H34 C29 1_555 1_555
C30 C29 1_555 1_555
H35 C30 1_555 1_555
C31 C30 1_555 1_555
H36 C31 1_555 1_555
C32 C27 1_555 1_555
H37 C32 1_555 1_555
F1 C22 1_555 1_555
F2 C23 1_555 1_555
F3 C24 1_555 1_555
F4 C25 1_555 1_555
F5 C26 1_555 1_555
O2 B2 1_555 1_555
P2 C33 1_555 1_555
B2 C34 1_555 1_555
C33 H38 1_555 1_555
H39 C33 1_555 1_555
C34 C33 1_555 1_555
H40 C34 1_555 1_555
H41 C34 1_555 1_555
C35 P2 1_555 1_555
H42 C35 1_555 1_555
C36 C35 1_555 1_555
H43 C36 1_555 1_555
H44 C36 1_555 1_555
H45 C36 1_555 1_555
C37 O2 1_555 1_555
H46 C37 1_555 1_555
C38 P2 1_555 1_555
C39 C38 1_555 1_555
C40 C39 1_555 1_555
H47 C40 1_555 1_555
C41 C40 1_555 1_555
C42 C41 1_555 1_555
H48 C42 1_555 1_555
C43 C38 1_555 1_555
C44 C39 1_555 1_555
H49 C44 1_555 1_555
C45 C44 1_555 1_555
H50 C45 1_555 1_555
H51 C45 1_555 1_555
H52 C45 1_555 1_555
C46 C44 1_555 1_555
H53 C46 1_555 1_555
H54 C46 1_555 1_555
H55 C46 1_555 1_555
C47 C41 1_555 1_555
H56 C47 1_555 1_555
C48 C47 1_555 1_555
H57 C48 1_555 1_555
H58 C48 1_555 1_555
H59 C48 1_555 1_555
C49 C47 1_555 1_555
H60 C49 1_555 1_555
H61 C49 1_555 1_555
H62 C49 1_555 1_555
C50 C43 1_555 1_555
H63 C50 1_555 1_555
C51 C50 1_555 1_555
H64 C51 1_555 1_555
H65 C51 1_555 1_555
H66 C51 1_555 1_555
C52 C50 1_555 1_555
H67 C52 1_555 1_555
H68 C52 1_555 1_555
H69 C52 1_555 1_555
C53 B2 1_555 1_555
C54 C53 1_555 1_555
C55 C54 1_555 1_555
C56 C55 1_555 1_555
C57 C56 1_555 1_555
C58 C53 1_555 1_555
C59 C37 1_555 1_555
C60 C59 1_555 1_555
H70 C60 1_555 1_555
C61 C60 1_555 1_555
H71 C61 1_555 1_555
C62 C61 1_555 1_555
H72 C62 1_555 1_555
C63 C62 1_555 1_555
H73 C63 1_555 1_555
C64 C59 1_555 1_555
H74 C64 1_555 1_555
F6 C54 1_555 1_555
F7 C55 1_555 1_555
F8 C56 1_555 1_555
F9 C57 1_555 1_555
F10 C58 1_555 1_555
P1 C3 1_555 1_555
C1 C2 1_555 1_555
C10 C11 1_555 1_555
C25 C26 1_555 1_555
C31 C32 1_555 1_555
P2 C37 1_555 1_555
B2 C35 1_555 1_555
C42 C43 1_555 1_555
C57 C58 1_555 1_555
C63 C64 1_555 1_555

#END
