
#######################################################################
#
#                 Cambridge Crystallographic Data Centre
#                                CCDC 
#
#######################################################################
#
# If this CIF has been generated from an entry in the Cambridge 
# Structural Database, then it will include bibliographic, chemical, 
# crystal, experimental, refinement or atomic coordinate data resulting 
# from the CCDC's data processing and validation procedures.
#
#######################################################################

data_BEZSAD
_chemical_formula_moiety         'C28 H39 B1 F5 P1'
_chemical_name_systematic        
2-methyl-3-(pentafluorophenyl)-1-(2,4,6-tri-t-butylphenyl)-1,3-phosphaborolane
_symmetry_cell_setting           triclinic
_symmetry_space_group_name_H-M   'P -1'
_symmetry_Int_Tables_number      2
_space_group_name_Hall           '-P 1'
loop_
_symmetry_equiv_pos_site_id
_symmetry_equiv_pos_as_xyz
1 x,y,z
2 -x,-y,-z
_cell_length_a                   10.2009(3)
_cell_length_b                   13.8694(6)
_cell_length_c                   20.6471(9)
_cell_angle_alpha                104.008(4)
_cell_angle_beta                 97.438(3)
_cell_angle_gamma                91.575(2)
_cell_volume                     2805.18
_exptl_crystal_colour            colorless
_exptl_crystal_description       plate
_cell_formula_units_Z            4
loop_
_atom_site_label
_atom_site_type_symbol
_atom_site_fract_x
_atom_site_fract_y
_atom_site_fract_z
P1 P 0.29471(12) 0.09093(9) 0.32389(6)
H1 H 0.376(4) 0.168(3) 0.3598(19)
C1 C 0.3654(5) 0.0453(3) 0.2457(2)
H2 H 0.2952 0.0294 0.2062
H3 H 0.4306 0.0954 0.2395
C2 C 0.4338(5) -0.0500(3) 0.2553(2)
H4 H 0.5155 -0.0568 0.2337
H5 H 0.3737 -0.1097 0.2343
C3 C 0.3329(5) -0.0018(3) 0.3678(2)
H6 H 0.2626 -0.0573 0.3527
C4 C 0.3437(5) 0.0389(4) 0.4443(2)
H7 H 0.3704 -0.0136 0.4667
H8 H 0.2576 0.0612 0.4560
H9 H 0.4099 0.0951 0.4590
C5 C 0.1346(4) 0.1432(3) 0.3320(2)
C6 C 0.1364(5) 0.2481(3) 0.3600(2)
C7 C 0.0424(5) 0.2824(3) 0.4023(2)
H10 H 0.0460 0.3515 0.4236
C8 C -0.0553(5) 0.2215(3) 0.4150(2)
C9 C -0.0674(5) 0.1235(3) 0.3779(2)
H11 H -0.1402 0.0822 0.3819
C10 C 0.0217(4) 0.0823(3) 0.3349(2)
C11 C 0.2273(5) 0.3299(3) 0.3463(2)
C12 C 0.3238(5) 0.3798(4) 0.4101(3)
H12 H 0.3815 0.4305 0.4002
H13 H 0.3779 0.3295 0.4246
H14 H 0.2735 0.4112 0.4461
C13 C 0.3058(6) 0.2950(4) 0.2869(3)
H15 H 0.2496 0.2479 0.2500
H16 H 0.3842 0.2623 0.3016
H17 H 0.3336 0.3526 0.2712
C14 C 0.1382(5) 0.4086(4) 0.3259(3)
H18 H 0.1933 0.4619 0.3173
H19 H 0.0873 0.4366 0.3625
H20 H 0.0772 0.3775 0.2850
C15 C -0.1519(5) 0.2603(3) 0.4656(2)
C16 C -0.1099(7) 0.3636(5) 0.5086(4)
H21 H -0.1170 0.4112 0.4802
H22 H -0.0179 0.3651 0.5297
H23 H -0.1674 0.3818 0.5436
C17 C -0.2888(6) 0.2608(6) 0.4275(3)
H24 H -0.2894 0.3122 0.4022
H25 H -0.3531 0.2749 0.4594
H26 H -0.3125 0.1955 0.3961
C18 C -0.1570(8) 0.1903(5) 0.5118(3)
H27 H -0.2110 0.2177 0.5471
H28 H -0.0670 0.1831 0.5326
H29 H -0.1961 0.1250 0.4856
C19 C -0.0171(4) -0.0258(3) 0.2923(2)
C20 C -0.1598(5) -0.0265(4) 0.2570(3)
H30 H -0.1646 0.0236 0.2306
H31 H -0.2201 -0.0113 0.2909
H32 H -0.1856 -0.0925 0.2269
C21 C 0.0668(5) -0.0631(3) 0.2358(2)
H33 H 0.0248 -0.1250 0.2057
H34 H 0.1556 -0.0754 0.2554
H35 H 0.0737 -0.0127 0.2101
C22 C -0.0151(5) -0.1000(3) 0.3372(2)
H36 H -0.0538 -0.1650 0.3101
H37 H -0.0667 -0.0755 0.3740
H38 H 0.0765 -0.1067 0.3559
B1 B 0.4699(6) -0.0390(4) 0.3365(3)
H39 H 0.554(4) 0.023(3) 0.3590(19)
C23 C 0.5113(4) -0.1409(3) 0.3571(2)
F1 F 0.7244(3) -0.0731(2) 0.41104(13)
C24 C 0.6338(5) -0.1510(3) 0.3925(2)
F2 F 0.7923(3) -0.2403(3) 0.44466(17)
C25 C 0.6712(5) -0.2365(4) 0.4105(2)
F3 F 0.6202(4) -0.4027(2) 0.41141(17)
C26 C 0.5833(7) -0.3187(4) 0.3946(3)
F4 F 0.3761(4) -0.3944(2) 0.34327(19)
C27 C 0.4613(6) -0.3138(4) 0.3595(3)
F5 F 0.3066(3) -0.2285(2) 0.30777(16)
C28 C 0.4302(5) -0.2267(4) 0.3427(2)
P2 P 0.73182(12) 0.52461(8) 0.13093(6)
H40 H 0.628(3) 0.483(2) 0.1449(17)
C29 C 0.7140(5) 0.4993(3) 0.0388(2)
H41 H 0.8001 0.4837 0.0227
H42 H 0.6492 0.4424 0.0178
C30 C 0.6654(5) 0.5942(3) 0.0217(2)
H43 H 0.5994 0.5778 -0.0195
H44 H 0.7403 0.6349 0.0140
C31 C 0.7059(5) 0.6536(3) 0.1540(2)
H45 H 0.7893 0.6932 0.1540
C32 C 0.6543(5) 0.6890(4) 0.2219(2)
H46 H 0.6436 0.7608 0.2312
H47 H 0.7177 0.6746 0.2578
H48 H 0.5686 0.6540 0.2201
C33 C 0.8612(4) 0.4479(3) 0.1572(2)
C34 C 0.8154(4) 0.3532(3) 0.1645(2)
C35 C 0.8914(4) 0.2732(3) 0.1421(2)
H49 H 0.8601 0.2087 0.1435
C36 C 1.0101(4) 0.2828(3) 0.1179(2)
C37 C 1.0628(4) 0.3782(3) 0.1248(2)
H50 H 1.1506 0.3865 0.1154
C38 C 0.9933(4) 0.4624(3) 0.1448(2)
C39 C 0.6942(5) 0.3343(3) 0.1988(2)
C40 C 0.5670(5) 0.3026(4) 0.1478(3)
H51 H 0.4976 0.2794 0.1701
H52 H 0.5852 0.2486 0.1102
H53 H 0.5375 0.3595 0.1306
C41 C 0.6757(6) 0.4223(4) 0.2573(3)
H54 H 0.6014 0.4059 0.2792
H55 H 0.6572 0.4812 0.2401
H56 H 0.7566 0.4361 0.2900
C42 C 0.7193(6) 0.2457(4) 0.2314(3)
H57 H 0.8049 0.2578 0.2606
H58 H 0.7201 0.1843 0.1960
H59 H 0.6488 0.2389 0.2583
C43 C 1.0763(4) 0.1897(3) 0.0841(2)
C44 C 1.0037(5) 0.1528(4) 0.0123(2)
H60 H 1.0097 0.2052 -0.0118
H61 H 0.9104 0.1359 0.0138
H62 H 1.0445 0.0936 -0.0112
C45 C 1.2232(5) 0.2103(3) 0.0819(3)
H63 H 1.2333 0.2578 0.0544
H64 H 1.2621 0.1480 0.0621
H65 H 1.2685 0.2384 0.1278
C46 C 1.0643(5) 0.1078(3) 0.1219(3)
H66 H 1.1170 0.0523 0.1032
H67 H 0.9713 0.0840 0.1166
H68 H 1.0971 0.1347 0.1698
C47 C 1.0654(4) 0.5654(3) 0.1561(2)
C48 C 1.0361(5) 0.6330(3) 0.2230(2)
H69 H 0.9402 0.6372 0.2220
H70 H 1.0777 0.6997 0.2291
H71 H 1.0719 0.6051 0.2604
C49 C 1.0266(5) 0.6150(3) 0.0976(2)
H72 H 1.0488 0.5725 0.0556
H73 H 1.0751 0.6799 0.1071
H74 H 0.9312 0.6239 0.0928
C50 C 1.2167(5) 0.5588(3) 0.1633(3)
H75 H 1.2455 0.5264 0.1995
H76 H 1.2596 0.6260 0.1742
H77 H 1.2415 0.5199 0.1208
B2 B 0.5976(6) 0.6554(4) 0.0864(3)
H78 H 0.502(4) 0.611(3) 0.090(2)
C51 C 0.5643(4) 0.7685(3) 0.0857(2)
F6 F 0.7894(3) 0.81927(18) 0.09112(14)
C52 C 0.6595(5) 0.8413(3) 0.0868(2)
F7 F 0.7340(3) 1.0040(2) 0.08488(16)
C53 C 0.6351(5) 0.9376(3) 0.0845(2)
F8 F 0.4802(3) 1.0585(2) 0.07823(17)
C54 C 0.5072(5) 0.9637(3) 0.0806(2)
F9 F 0.2816(3) 0.9230(2) 0.07720(17)
C55 C 0.4076(5) 0.8964(3) 0.0791(2)
F10 F 0.3329(3) 0.7380(2) 0.08091(17)
C56 C 0.4370(5) 0.8012(3) 0.0818(2)
loop_
_geom_bond_atom_site_label_1
_geom_bond_atom_site_label_2
_geom_bond_site_symmetry_1
_geom_bond_site_symmetry_2
P1 H1 1_555 1_555
C1 P1 1_555 1_555
H2 C1 1_555 1_555
H3 C1 1_555 1_555
C2 C1 1_555 1_555
H4 C2 1_555 1_555
H5 C2 1_555 1_555
C3 P1 1_555 1_555
H6 C3 1_555 1_555
C4 C3 1_555 1_555
H7 C4 1_555 1_555
H8 C4 1_555 1_555
H9 C4 1_555 1_555
C5 P1 1_555 1_555
C6 C5 1_555 1_555
C7 C6 1_555 1_555
H10 C7 1_555 1_555
C8 C7 1_555 1_555
C9 C8 1_555 1_555
H11 C9 1_555 1_555
C10 C5 1_555 1_555
C11 C6 1_555 1_555
C12 C11 1_555 1_555
H12 C12 1_555 1_555
H13 C12 1_555 1_555
H14 C12 1_555 1_555
C13 C11 1_555 1_555
H15 C13 1_555 1_555
H16 C13 1_555 1_555
H17 C13 1_555 1_555
C14 C11 1_555 1_555
H18 C14 1_555 1_555
H19 C14 1_555 1_555
H20 C14 1_555 1_555
C15 C8 1_555 1_555
C16 C15 1_555 1_555
H21 C16 1_555 1_555
H22 C16 1_555 1_555
H23 C16 1_555 1_555
C17 C15 1_555 1_555
H24 C17 1_555 1_555
H25 C17 1_555 1_555
H26 C17 1_555 1_555
C18 C15 1_555 1_555
H27 C18 1_555 1_555
H28 C18 1_555 1_555
H29 C18 1_555 1_555
C19 C10 1_555 1_555
C20 C19 1_555 1_555
H30 C20 1_555 1_555
H31 C20 1_555 1_555
H32 C20 1_555 1_555
C21 C19 1_555 1_555
H33 C21 1_555 1_555
H34 C21 1_555 1_555
H35 C21 1_555 1_555
C22 C19 1_555 1_555
H36 C22 1_555 1_555
H37 C22 1_555 1_555
H38 C22 1_555 1_555
B1 C2 1_555 1_555
H39 B1 1_555 1_555
C23 B1 1_555 1_555
F1 C24 1_555 1_555
C24 C23 1_555 1_555
F2 C25 1_555 1_555
C25 C24 1_555 1_555
F3 C26 1_555 1_555
C26 C25 1_555 1_555
F4 C27 1_555 1_555
C27 C26 1_555 1_555
F5 C28 1_555 1_555
C28 C23 1_555 1_555
P2 H40 1_555 1_555
C29 P2 1_555 1_555
H41 C29 1_555 1_555
H42 C29 1_555 1_555
C30 C29 1_555 1_555
H43 C30 1_555 1_555
H44 C30 1_555 1_555
C31 P2 1_555 1_555
H45 C31 1_555 1_555
C32 C31 1_555 1_555
H46 C32 1_555 1_555
H47 C32 1_555 1_555
H48 C32 1_555 1_555
C33 P2 1_555 1_555
C34 C33 1_555 1_555
C35 C34 1_555 1_555
H49 C35 1_555 1_555
C36 C35 1_555 1_555
C37 C36 1_555 1_555
H50 C37 1_555 1_555
C38 C33 1_555 1_555
C39 C34 1_555 1_555
C40 C39 1_555 1_555
H51 C40 1_555 1_555
H52 C40 1_555 1_555
H53 C40 1_555 1_555
C41 C39 1_555 1_555
H54 C41 1_555 1_555
H55 C41 1_555 1_555
H56 C41 1_555 1_555
C42 C39 1_555 1_555
H57 C42 1_555 1_555
H58 C42 1_555 1_555
H59 C42 1_555 1_555
C43 C36 1_555 1_555
C44 C43 1_555 1_555
H60 C44 1_555 1_555
H61 C44 1_555 1_555
H62 C44 1_555 1_555
C45 C43 1_555 1_555
H63 C45 1_555 1_555
H64 C45 1_555 1_555
H65 C45 1_555 1_555
C46 C43 1_555 1_555
H66 C46 1_555 1_555
H67 C46 1_555 1_555
H68 C46 1_555 1_555
C47 C38 1_555 1_555
C48 C47 1_555 1_555
H69 C48 1_555 1_555
H70 C48 1_555 1_555
H71 C48 1_555 1_555
C49 C47 1_555 1_555
H72 C49 1_555 1_555
H73 C49 1_555 1_555
H74 C49 1_555 1_555
C50 C47 1_555 1_555
H75 C50 1_555 1_555
H76 C50 1_555 1_555
H77 C50 1_555 1_555
B2 C30 1_555 1_555
H78 B2 1_555 1_555
C51 B2 1_555 1_555
F6 C52 1_555 1_555
C52 C51 1_555 1_555
F7 C53 1_555 1_555
C53 C52 1_555 1_555
F8 C54 1_555 1_555
C54 C53 1_555 1_555
F9 C55 1_555 1_555
C55 C54 1_555 1_555
F10 C56 1_555 1_555
C56 C51 1_555 1_555
C3 B1 1_555 1_555
C9 C10 1_555 1_555
C27 C28 1_555 1_555
C31 B2 1_555 1_555
C37 C38 1_555 1_555
C55 C56 1_555 1_555

#END
