
#######################################################################
#
#                 Cambridge Crystallographic Data Centre
#                                CCDC 
#
#######################################################################
#
# If this CIF has been generated from an entry in the Cambridge 
# Structural Database, then it will include bibliographic, chemical, 
# crystal, experimental, refinement or atomic coordinate data resulting 
# from the CCDC's data processing and validation procedures.
#
#######################################################################

data_BEZTUY
_chemical_formula_moiety         'C44 H44 N4 O4 P1 1+,N1 O3 1-'
_chemical_name_systematic        
'1,6-bis[2-(methoxymethoxy)phenyl]-2,3,7,8-tetraphenyl-1,4,6,9-tetraaza-5-phosphaspiro[4.4]nonan-5-ium nitrate'
_symmetry_cell_setting           monoclinic
_symmetry_space_group_name_H-M   'P 21'
_symmetry_Int_Tables_number      4
_space_group_name_Hall           'P 2yb'
loop_
_symmetry_equiv_pos_site_id
_symmetry_equiv_pos_as_xyz
1 x,y,z
2 -x,1/2+y,-z
_cell_length_a                   12.4253(11)
_cell_length_b                   12.5926(10)
_cell_length_c                   12.9927(11)
_cell_angle_alpha                90
_cell_angle_beta                 97.359(2)
_cell_angle_gamma                90
_cell_volume                     2016.18
_exptl_crystal_colour            colorless
_exptl_crystal_description       Prism
_cell_formula_units_Z            2
loop_
_atom_site_label
_atom_site_type_symbol
_atom_site_fract_x
_atom_site_fract_y
_atom_site_fract_z
P1 P 0.62728(6) 0.51028(6) 0.37097(5)
N1 N 0.6649(2) 0.5270(2) 0.49387(19)
H1 H 0.635(3) 0.573(3) 0.529(3)
N2 N 0.69486(19) 0.3997(2) 0.36334(18)
O1 O 0.88523(19) 0.44972(19) 0.29959(18)
O2 O 1.0456(2) 0.3630(2) 0.3403(2)
C1 C 0.7053(2) 0.4290(2) 0.5473(2)
H2 H 0.6428 0.3869 0.5669
C2 C 0.7595(2) 0.3678(2) 0.4638(2)
H3 H 0.8361 0.3928 0.4649
C3 C 0.9973(3) 0.4552(3) 0.2940(3)
H4 H 1.0109 0.4598 0.2207
H5 H 1.0285 0.5191 0.3310
C4 C 1.1479(3) 0.3404(4) 0.3064(3)
H6 H 1.1379 0.3283 0.2313
H7 H 1.1792 0.2767 0.3419
H8 H 1.1971 0.4007 0.3228
C5 C 0.8248(3) 0.3740(3) 0.2409(2)
C6 C 0.7237(3) 0.3528(2) 0.2702(2)
C7 C 0.6556(3) 0.2794(3) 0.2162(2)
H9 H 0.5864 0.2646 0.2368
C8 C 0.6892(4) 0.2273(3) 0.1317(3)
H10 H 0.6428 0.1773 0.0934
C9 C 0.7898(4) 0.2484(3) 0.1036(3)
H11 H 0.8124 0.2124 0.0458
C10 C 0.8588(3) 0.3206(3) 0.1574(3)
H12 H 0.9286 0.3337 0.1376
C11 C 0.7837(3) 0.4528(3) 0.6432(2)
C12 C 0.8651(3) 0.5271(3) 0.6417(3)
H13 H 0.8732 0.5637 0.5792
C13 C 0.9357(3) 0.5489(4) 0.7321(4)
H14 H 0.9912 0.6008 0.7317
C14 C 0.9235(4) 0.4936(5) 0.8220(3)
H15 H 0.9717 0.5071 0.8834
C15 C 0.8434(4) 0.4201(5) 0.8238(3)
H16 H 0.8360 0.3831 0.8863
C16 C 0.7721(3) 0.3989(3) 0.7345(3)
H17 H 0.7160 0.3479 0.7360
C17 C 0.7586(2) 0.2482(2) 0.4749(2)
C18 C 0.8520(3) 0.1917(3) 0.4608(3)
H18 H 0.9160 0.2286 0.4491
C19 C 0.8516(3) 0.0812(3) 0.4639(3)
H19 H 0.9154 0.0427 0.4547
C20 C 0.7581(3) 0.0276(3) 0.4806(3)
H20 H 0.7577 -0.0479 0.4826
C21 C 0.6658(3) 0.0834(3) 0.4943(3)
H21 H 0.6019 0.0464 0.5063
C22 C 0.6658(2) 0.1936(3) 0.4905(2)
H22 H 0.6015 0.2316 0.4987
N3 N 0.5028(2) 0.4950(2) 0.32165(19)
H23 H 0.473(3) 0.436(3) 0.317(3)
N4 N 0.64525(19) 0.61935(19) 0.30611(18)
O3 O 0.75275(17) 0.61388(17) 0.13678(16)
O4 O 0.83065(19) 0.67235(19) -0.00819(17)
C23 C 0.4547(2) 0.5895(2) 0.2680(2)
H24 H 0.4279 0.6379 0.3202
C24 C 0.5516(2) 0.6429(2) 0.2250(2)
H25 H 0.5637 0.6082 0.1583
C25 C 0.8177(3) 0.5884(3) 0.0573(2)
H26 H 0.8900 0.5646 0.0899
H27 H 0.7836 0.5284 0.0158
C26 C 0.7361(3) 0.6913(3) -0.0815(3)
H28 H 0.7241 0.6308 -0.1289
H29 H 0.7468 0.7558 -0.1212
H30 H 0.6728 0.7004 -0.0444
C27 C 0.8011(2) 0.6726(2) 0.2195(2)
C28 C 0.7467(2) 0.6735(2) 0.3075(2)
C29 C 0.7915(2) 0.7277(2) 0.3955(2)
H31 H 0.7543 0.7293 0.4549
C30 C 0.8899(3) 0.7793(3) 0.3975(2)
H32 H 0.9214 0.8143 0.4588
C31 C 0.9419(3) 0.7797(3) 0.3100(3)
H33 H 1.0092 0.8159 0.3111
C32 C 0.8975(3) 0.7283(3) 0.2205(3)
H34 H 0.9330 0.7310 0.1599
C33 C 0.3616(3) 0.5616(3) 0.1871(3)
C34 C 0.3763(3) 0.4911(3) 0.1070(3)
H35 H 0.4459 0.4611 0.1035
C35 C 0.2903(5) 0.4641(4) 0.0323(4)
H36 H 0.3017 0.4172 -0.0225
C36 C 0.1907(5) 0.5046(6) 0.0375(5)
H37 H 0.1320 0.4852 -0.0132
C37 C 0.1734(3) 0.5734(5) 0.1153(5)
H38 H 0.1029 0.6020 0.1174
C38 C 0.2594(3) 0.6028(3) 0.1929(4)
H39 H 0.2469 0.6496 0.2475
C39 C 0.5318(2) 0.7600(2) 0.2073(2)
C40 C 0.4890(3) 0.7930(3) 0.1085(3)
H40 H 0.4795 0.7433 0.0530
C41 C 0.4601(3) 0.8985(3) 0.0905(3)
H41 H 0.4287 0.9204 0.0234
C42 C 0.4769(3) 0.9714(3) 0.1699(3)
H42 H 0.4586 1.0438 0.1571
C43 C 0.5200(3) 0.9394(3) 0.2677(3)
H43 H 0.5319 0.9901 0.3221
C44 C 0.5463(3) 0.8339(3) 0.2874(3)
H44 H 0.5742 0.8119 0.3556
O5 O 0.3978(2) 0.30316(18) 0.28102(18)
O6 O 0.4048(2) 0.2804(2) 0.44681(18)
N5 N 0.4010(2) 0.2432(2) 0.3583(2)
O7 O 0.4009(2) 0.14590(19) 0.3442(2)
loop_
_geom_bond_atom_site_label_1
_geom_bond_atom_site_label_2
_geom_bond_site_symmetry_1
_geom_bond_site_symmetry_2
P1 N1 1_555 1_555
N1 H1 1_555 1_555
N2 P1 1_555 1_555
O1 C3 1_555 1_555
O2 C3 1_555 1_555
C1 N1 1_555 1_555
H2 C1 1_555 1_555
C2 N2 1_555 1_555
H3 C2 1_555 1_555
C3 H4 1_555 1_555
H5 C3 1_555 1_555
C4 O2 1_555 1_555
H6 C4 1_555 1_555
H7 C4 1_555 1_555
H8 C4 1_555 1_555
C5 O1 1_555 1_555
C6 N2 1_555 1_555
C7 C6 1_555 1_555
H9 C7 1_555 1_555
C8 C7 1_555 1_555
H10 C8 1_555 1_555
C9 C8 1_555 1_555
H11 C9 1_555 1_555
C10 C5 1_555 1_555
H12 C10 1_555 1_555
C11 C1 1_555 1_555
C12 C11 1_555 1_555
H13 C12 1_555 1_555
C13 C12 1_555 1_555
H14 C13 1_555 1_555
C14 C13 1_555 1_555
H15 C14 1_555 1_555
C15 C14 1_555 1_555
H16 C15 1_555 1_555
C16 C11 1_555 1_555
H17 C16 1_555 1_555
C17 C2 1_555 1_555
C18 C17 1_555 1_555
H18 C18 1_555 1_555
C19 C18 1_555 1_555
H19 C19 1_555 1_555
C20 C19 1_555 1_555
H20 C20 1_555 1_555
C21 C20 1_555 1_555
H21 C21 1_555 1_555
C22 C17 1_555 1_555
H22 C22 1_555 1_555
N3 P1 1_555 1_555
H23 N3 1_555 1_555
N4 P1 1_555 1_555
O3 C25 1_555 1_555
O4 C25 1_555 1_555
C23 N3 1_555 1_555
H24 C23 1_555 1_555
C24 N4 1_555 1_555
H25 C24 1_555 1_555
C25 H26 1_555 1_555
H27 C25 1_555 1_555
C26 O4 1_555 1_555
H28 C26 1_555 1_555
H29 C26 1_555 1_555
H30 C26 1_555 1_555
C27 O3 1_555 1_555
C28 N4 1_555 1_555
C29 C28 1_555 1_555
H31 C29 1_555 1_555
C30 C29 1_555 1_555
H32 C30 1_555 1_555
C31 C30 1_555 1_555
H33 C31 1_555 1_555
C32 C27 1_555 1_555
H34 C32 1_555 1_555
C33 C23 1_555 1_555
C34 C33 1_555 1_555
H35 C34 1_555 1_555
C35 C34 1_555 1_555
H36 C35 1_555 1_555
C36 C35 1_555 1_555
H37 C36 1_555 1_555
C37 C36 1_555 1_555
H38 C37 1_555 1_555
C38 C33 1_555 1_555
H39 C38 1_555 1_555
C39 C24 1_555 1_555
C40 C39 1_555 1_555
H40 C40 1_555 1_555
C41 C40 1_555 1_555
H41 C41 1_555 1_555
C42 C41 1_555 1_555
H42 C42 1_555 1_555
C43 C42 1_555 1_555
H43 C43 1_555 1_555
C44 C39 1_555 1_555
H44 C44 1_555 1_555
O5 N5 1_555 1_555
O6 N5 1_555 1_555
N5 O7 1_555 1_555
C1 C2 1_555 1_555
C5 C6 1_555 1_555
C9 C10 1_555 1_555
C15 C16 1_555 1_555
C21 C22 1_555 1_555
C23 C24 1_555 1_555
C27 C28 1_555 1_555
C31 C32 1_555 1_555
C37 C38 1_555 1_555
C43 C44 1_555 1_555

#END
