
#######################################################################
#
#                 Cambridge Crystallographic Data Centre
#                                CCDC 
#
#######################################################################
#
# If this CIF has been generated from an entry in the Cambridge 
# Structural Database, then it will include bibliographic, chemical, 
# crystal, experimental, refinement or atomic coordinate data resulting 
# from the CCDC's data processing and validation procedures.
#
#######################################################################

data_BHMSIN01
_chemical_formula_moiety         'C23 H26 Br2 O2'
_chemical_name_systematic        
7,7'-dibromo-3,3,3',3',5,5'-hexamethyl-2,2',3,3'-tetrahydro-1,1'-spirobi[indene]-6,6'-diol
_symmetry_cell_setting           orthorhombic
_symmetry_space_group_name_H-M   'P 21 21 21'
_symmetry_Int_Tables_number      19
_space_group_name_Hall           'P 2ac 2ab'
loop_
_symmetry_equiv_pos_site_id
_symmetry_equiv_pos_as_xyz
1 x,y,z
2 1/2-x,-y,1/2+z
3 1/2+x,1/2-y,-z
4 -x,1/2+y,1/2-z
_cell_length_a                   7.5979(5)
_cell_length_b                   14.0001(10)
_cell_length_c                   19.6290(12)
_cell_angle_alpha                90
_cell_angle_beta                 90
_cell_angle_gamma                90
_cell_volume                     2087.96
_exptl_crystal_colour            colorless
_exptl_crystal_description       block
_cell_formula_units_Z            4
loop_
_atom_site_label
_atom_site_type_symbol
_atom_site_fract_x
_atom_site_fract_y
_atom_site_fract_z
Br1 Br 0.75737(6) 0.27026(3) 0.169145(17)
Br2 Br 0.74163(7) -0.02173(3) 0.244445(18)
O1 O 0.8666(4) 0.3569(2) 0.30552(14)
H1 H 0.8863 0.3674 0.2641
O2 O 0.8448(4) -0.0945(2) 0.10068(15)
H2 H 0.8793 -0.1029 0.1409
C1 C 0.6550(4) 0.2476(3) 0.25626(18)
C2 C 0.7272(5) 0.2950(2) 0.31174(18)
C3 C 0.6569(5) 0.2823(3) 0.3771(2)
C4 C 0.5148(5) 0.2199(3) 0.3844(2)
H3 H 0.4650 0.2102 0.4282
C5 C 0.4451(5) 0.1719(3) 0.3289(2)
C6 C 0.5146(4) 0.1851(3) 0.26388(19)
C7 C 0.4071(5) 0.1324(3) 0.21086(18)
C8 C 0.2960(5) 0.0635(3) 0.25582(18)
H4 H 0.1764 0.0562 0.2365
H5 H 0.3522 -0.0002 0.2576
C9 C 0.2853(5) 0.1070(3) 0.32847(19)
C10 C 0.2933(5) 0.2044(3) 0.16835(18)
H6 H 0.1740 0.2098 0.1883
H7 H 0.3486 0.2684 0.1687
C11 C 0.2812(5) 0.1666(3) 0.09482(18)
C12 C 0.4372(5) 0.1012(3) 0.0907(2)
C13 C 0.5069(5) 0.0791(3) 0.15445(19)
C14 C 0.6423(5) 0.0136(3) 0.15872(19)
C15 C 0.7136(5) -0.0291(3) 0.10007(19)
C16 C 0.6464(5) -0.0050(3) 0.03600(19)
C17 C 0.5093(5) 0.0594(3) 0.0323(2)
H8 H 0.4627 0.0759 -0.0111
C18 C 0.7357(7) 0.3333(3) 0.43705(19)
H9 H 0.8611 0.3177 0.4403
H10 H 0.6756 0.3132 0.4788
H11 H 0.7217 0.4024 0.4311
C19 C 0.2963(5) 0.0292(3) 0.3833(2)
H12 H 0.1950 -0.0137 0.3791
H13 H 0.2955 0.0590 0.4285
H14 H 0.4053 -0.0073 0.3774
C20 C 0.1173(5) 0.1655(3) 0.3388(2)
H15 H 0.1113 0.2160 0.3044
H16 H 0.1185 0.1943 0.3844
H17 H 0.0145 0.1237 0.3344
C21 C 0.1118(5) 0.1092(4) 0.0821(2)
H18 H 0.1038 0.0570 0.1152
H19 H 0.1140 0.0827 0.0359
H20 H 0.0095 0.1513 0.0871
C22 C 0.2903(6) 0.2499(3) 0.0434(2)
H21 H 0.1925 0.2941 0.0517
H22 H 0.2818 0.2247 -0.0031
H23 H 0.4022 0.2839 0.0488
C23 C 0.7247(6) -0.0496(3) -0.0267(2)
H24 H 0.8516 -0.0372 -0.0278
H25 H 0.6696 -0.0219 -0.0674
H26 H 0.7039 -0.1186 -0.0260
loop_
_geom_bond_atom_site_label_1
_geom_bond_atom_site_label_2
_geom_bond_site_symmetry_1
_geom_bond_site_symmetry_2
Br1 C1 1_555 1_555
Br2 C14 1_555 1_555
O1 H1 1_555 1_555
O2 H2 1_555 1_555
C1 C2 1_555 1_555
C2 O1 1_555 1_555
C3 C2 1_555 1_555
C4 C3 1_555 1_555
H3 C4 1_555 1_555
C5 C4 1_555 1_555
C6 C1 1_555 1_555
C7 C6 1_555 1_555
C8 C7 1_555 1_555
H4 C8 1_555 1_555
H5 C8 1_555 1_555
C9 C5 1_555 1_555
C10 C7 1_555 1_555
H6 C10 1_555 1_555
H7 C10 1_555 1_555
C11 C10 1_555 1_555
C12 C11 1_555 1_555
C13 C7 1_555 1_555
C14 C13 1_555 1_555
C15 O2 1_555 1_555
C16 C15 1_555 1_555
C17 C12 1_555 1_555
H8 C17 1_555 1_555
C18 C3 1_555 1_555
H9 C18 1_555 1_555
H10 C18 1_555 1_555
H11 C18 1_555 1_555
C19 C9 1_555 1_555
H12 C19 1_555 1_555
H13 C19 1_555 1_555
H14 C19 1_555 1_555
C20 C9 1_555 1_555
H15 C20 1_555 1_555
H16 C20 1_555 1_555
H17 C20 1_555 1_555
C21 C11 1_555 1_555
H18 C21 1_555 1_555
H19 C21 1_555 1_555
H20 C21 1_555 1_555
C22 C11 1_555 1_555
H21 C22 1_555 1_555
H22 C22 1_555 1_555
H23 C22 1_555 1_555
C23 C16 1_555 1_555
H24 C23 1_555 1_555
H25 C23 1_555 1_555
H26 C23 1_555 1_555
C5 C6 1_555 1_555
C8 C9 1_555 1_555
C12 C13 1_555 1_555
C14 C15 1_555 1_555
C16 C17 1_555 1_555

#END
