
#######################################################################
#
#                 Cambridge Crystallographic Data Centre
#                                CCDC 
#
#######################################################################
#
# If this CIF has been generated from an entry in the Cambridge 
# Structural Database, then it will include bibliographic, chemical, 
# crystal, experimental, refinement or atomic coordinate data resulting 
# from the CCDC's data processing and validation procedures.
#
#######################################################################

data_BHYFLV
_chemical_formula_moiety         'C15 H9 Br1 O3'
_chemical_name_systematic        4'-Bromo-5-hydroxyflavone
_symmetry_cell_setting           monoclinic
_symmetry_space_group_name_H-M   'P 21/c'
_symmetry_Int_Tables_number      14
_space_group_name_Hall           '-P 2ybc'
loop_
_symmetry_equiv_pos_site_id
_symmetry_equiv_pos_as_xyz
1 x,y,z
2 -x,1/2+y,1/2-z
3 -x,-y,-z
4 x,1/2-y,1/2+z
_cell_length_a                   12.81(1)
_cell_length_b                   12.68(1)
_cell_length_c                   7.848(7)
_cell_angle_alpha                90
_cell_angle_beta                 91.3(1)
_cell_angle_gamma                90
_cell_volume                     1274.43
_chemical_melting_point          180-1deg.C
_cell_formula_units_Z            4
loop_
_atom_site_label
_atom_site_type_symbol
_atom_site_fract_x
_atom_site_fract_y
_atom_site_fract_z
Br1 Br -0.04090 -0.36160 0.38350
C1 C -0.28890 0.04370 0.23440
C2 C -0.23060 -0.05290 0.27300
C3 C -0.27150 -0.15200 0.22430
C4 C -0.21600 -0.24320 0.25780
C5 C -0.11920 -0.23690 0.33980
C6 C -0.07540 -0.14050 0.38920
C7 C -0.13240 -0.05100 0.35680
C8 C -0.38660 0.05080 0.16820
C9 C -0.43580 0.14960 0.13160
C10 C -0.37280 0.24200 0.17070
C11 C -0.41000 0.34520 0.13890
C12 C -0.34890 0.43110 0.17960
C13 C -0.25000 0.41490 0.25240
C14 C -0.20890 0.31460 0.28330
C15 C -0.27250 0.22960 0.24160
H1 H -0.52700 0.27900 0.05700
H2 H -0.42100 -0.00300 0.14800
H3 H -0.37200 0.49400 0.15400
H4 H -0.20900 0.47000 0.28200
H5 H -0.14200 0.30300 0.33900
H6 H -0.34400 -0.15800 0.14200
H7 H -0.24300 -0.30700 0.22600
H8 H -0.00900 -0.13900 0.46100
H9 H -0.11100 0.01400 0.39800
O1 O -0.23100 0.13150 0.27240
O2 O -0.52680 0.15750 0.07080
O3 O -0.50690 0.35950 0.06700
loop_
_geom_bond_atom_site_label_1
_geom_bond_atom_site_label_2
_geom_bond_site_symmetry_1
_geom_bond_site_symmetry_2
Br1 C5 1_555 1_555
C1 C2 1_555 1_555
C2 C3 1_555 1_555
C3 C4 1_555 1_555
C4 C5 1_555 1_555
C5 C6 1_555 1_555
C6 C7 1_555 1_555
C7 C2 1_555 1_555
C8 C1 1_555 1_555
C9 C8 1_555 1_555
C10 C9 1_555 1_555
C11 C10 1_555 1_555
C12 C11 1_555 1_555
C13 C12 1_555 1_555
C14 C13 1_555 1_555
C15 C10 1_555 1_555
H1 O3 1_555 1_555
H2 C8 1_555 1_555
H3 C12 1_555 1_555
H4 C13 1_555 1_555
H5 C14 1_555 1_555
H6 C3 1_555 1_555
H7 C4 1_555 1_555
H8 C6 1_555 1_555
H9 C7 1_555 1_555
O1 C1 1_555 1_555
O2 C9 1_555 1_555
O3 C11 1_555 1_555
C14 C15 1_555 1_555
C15 O1 1_555 1_555

#END
