
#######################################################################
#
#                 Cambridge Crystallographic Data Centre
#                                CCDC 
#
#######################################################################
#
# If this CIF has been generated from an entry in the Cambridge 
# Structural Database, then it will include bibliographic, chemical, 
# crystal, experimental, refinement or atomic coordinate data resulting 
# from the CCDC's data processing and validation procedures.
#
#######################################################################

data_BIBCIB
_chemical_formula_moiety         'C16 H15 I1 O2 S1'
_chemical_name_systematic        
1-((3-iodo-1-phenylprop-1-en-2-yl)sulfonyl)-4-methylbenzene
_symmetry_cell_setting           monoclinic
_symmetry_space_group_name_H-M   'P 21/c'
_symmetry_Int_Tables_number      14
_space_group_name_Hall           '-P 2ybc'
loop_
_symmetry_equiv_pos_site_id
_symmetry_equiv_pos_as_xyz
1 x,y,z
2 -x,1/2+y,1/2-z
3 -x,-y,-z
4 x,1/2-y,1/2+z
_cell_length_a                   7.5922(4)
_cell_length_b                   37.3596(14)
_cell_length_c                   5.5648(3)
_cell_angle_alpha                90
_cell_angle_beta                 98.554(6)
_cell_angle_gamma                90
_cell_volume                     1560.85
_exptl_crystal_colour            colorless
_exptl_crystal_description       needle
_cell_formula_units_Z            4
loop_
_atom_site_label
_atom_site_type_symbol
_atom_site_fract_x
_atom_site_fract_y
_atom_site_fract_z
C1 C 0.8262(8) 0.66315(14) 0.5092(11)
H1 H 0.9386 0.6504 0.5212
H2 H 0.8114 0.6707 0.6718
C2 C 0.6814(7) 0.63817(13) 0.4191(9)
C3 C 0.5191(7) 0.63557(14) 0.4841(10)
H3 H 0.4501 0.6165 0.4168
C4 C 0.4352(7) 0.65886(15) 0.6476(10)
C5 C 0.4699(9) 0.69502(17) 0.6749(13)
H4 H 0.5529 0.7056 0.5902
C6 C 0.3829(9) 0.71563(18) 0.8266(15)
H5 H 0.4072 0.7400 0.8411
C7 C 0.2624(9) 0.70089(19) 0.9549(13)
H6 H 0.2036 0.7151 1.0551
C8 C 0.2281(8) 0.66455(18) 0.9351(13)
H7 H 0.1496 0.6540 1.0272
C9 C 0.3104(7) 0.64408(17) 0.7788(11)
H8 H 0.2821 0.6199 0.7604
C10 C 0.9086(7) 0.57981(13) 0.3866(10)
C11 C 1.0725(8) 0.57678(15) 0.3045(11)
H9 H 1.0945 0.5889 0.1662
C12 C 1.2019(8) 0.55526(16) 0.4337(14)
H10 H 1.3112 0.5528 0.3789
C13 C 1.1733(9) 0.53723(15) 0.6420(13)
C14 C 1.0093(11) 0.54121(16) 0.7186(12)
H11 H 0.9872 0.5295 0.8585
C15 C 0.8776(9) 0.56223(15) 0.5917(11)
H12 H 0.7679 0.5644 0.6456
C16 C 1.3200(11) 0.5154(2) 0.7840(15)
H13 H 1.3761 0.5290 0.9204
H14 H 1.4066 0.5093 0.6812
H15 H 1.2708 0.4938 0.8408
I1 I 0.84093(6) 0.71047(2) 0.28661(9)
O1 O 0.8129(6) 0.62262(11) 0.0234(7)
O2 O 0.5881(6) 0.58177(12) 0.1476(9)
S1 S 0.7374(2) 0.60524(3) 0.2140(2)
loop_
_geom_bond_atom_site_label_1
_geom_bond_atom_site_label_2
_geom_bond_site_symmetry_1
_geom_bond_site_symmetry_2
C1 H1 1_555 1_555
H2 C1 1_555 1_555
C2 C1 1_555 1_555
C3 C2 1_555 1_555
H3 C3 1_555 1_555
C4 C3 1_555 1_555
C5 C4 1_555 1_555
H4 C5 1_555 1_555
C6 C5 1_555 1_555
H5 C6 1_555 1_555
C7 C6 1_555 1_555
H6 C7 1_555 1_555
C8 C7 1_555 1_555
H7 C8 1_555 1_555
C9 C4 1_555 1_555
H8 C9 1_555 1_555
C10 C11 1_555 1_555
C11 H9 1_555 1_555
C12 C11 1_555 1_555
H10 C12 1_555 1_555
C13 C12 1_555 1_555
C14 C13 1_555 1_555
H11 C14 1_555 1_555
C15 C10 1_555 1_555
H12 C15 1_555 1_555
C16 C13 1_555 1_555
H13 C16 1_555 1_555
H14 C16 1_555 1_555
H15 C16 1_555 1_555
I1 C1 1_555 1_555
O1 S1 1_555 1_555
O2 S1 1_555 1_555
S1 C2 1_555 1_555
C8 C9 1_555 1_555
C10 S1 1_555 1_555
C14 C15 1_555 1_555

#END
