
#######################################################################
#
#                 Cambridge Crystallographic Data Centre
#                                CCDC 
#
#######################################################################
#
# If this CIF has been generated from an entry in the Cambridge 
# Structural Database, then it will include bibliographic, chemical, 
# crystal, experimental, refinement or atomic coordinate data resulting 
# from the CCDC's data processing and validation procedures.
#
#######################################################################

data_BIBGOL
_chemical_formula_moiety         'C8 H20 N1 1+,C16 H20 B11 O2 1-'
_chemical_name_systematic        
'tetraethylammonium 1,2-(1-oxo-3,4-diphenyl-2-oxabut-3-en-1,4-diyl)-1-carba-closo-dodecaborate(10)'
_symmetry_cell_setting           orthorhombic
_symmetry_space_group_name_H-M   'P b c a'
_symmetry_Int_Tables_number      61
_space_group_name_Hall           '-P 2ac 2ab'
loop_
_symmetry_equiv_pos_site_id
_symmetry_equiv_pos_as_xyz
1 x,y,z
2 1/2-x,-y,1/2+z
3 1/2+x,1/2-y,-z
4 -x,1/2+y,1/2-z
5 -x,-y,-z
6 1/2+x,y,1/2-z
7 1/2-x,1/2+y,z
8 x,1/2-y,1/2+z
_cell_length_a                   24.8380(9)
_cell_length_b                   18.5368(5)
_cell_length_c                   25.7418(7)
_cell_angle_alpha                90
_cell_angle_beta                 90
_cell_angle_gamma                90
_cell_volume                     11852
_exptl_crystal_colour            colorless
_exptl_crystal_description       chunk
_cell_formula_units_Z            16
loop_
_atom_site_label
_atom_site_type_symbol
_atom_site_fract_x
_atom_site_fract_y
_atom_site_fract_z
C1 C 0.27887(19) 0.6074(2) 0.41618(18)
H1 H 0.2859 0.6451 0.4415
H2 H 0.2603 0.6294 0.3871
C2 C 0.2681(2) 0.5186(2) 0.48790(16)
H3 H 0.2997 0.4918 0.4771
H4 H 0.2431 0.4847 0.5034
C3 C 0.2042(2) 0.5135(2) 0.35276(16)
H5 H 0.1707 0.5372 0.3601
H6 H 0.1976 0.4715 0.3319
H7 H 0.2274 0.5460 0.3343
C4 C 0.23102(19) 0.4911(2) 0.40362(15)
H8 H 0.2081 0.4562 0.4209
H9 H 0.2647 0.4672 0.3956
C5 C 0.1910(2) 0.5916(2) 0.4551(2)
H10 H 0.1760 0.6134 0.4240
H11 H 0.1999 0.6302 0.4790
C6 C 0.33272(18) 0.5772(3) 0.39706(19)
H12 H 0.3515 0.5554 0.4256
H13 H 0.3541 0.6157 0.3830
H14 H 0.3263 0.5418 0.3706
C7 C 0.1480(2) 0.5436(3) 0.4800(2)
H15 H 0.1369 0.5073 0.4557
H16 H 0.1176 0.5725 0.4896
H17 H 0.1627 0.5209 0.5104
C8 C 0.2849(2) 0.5746(3) 0.52922(19)
H18 H 0.3097 0.6083 0.5142
H19 H 0.3017 0.5505 0.5579
H20 H 0.2535 0.6000 0.5413
N1 N 0.24225(13) 0.55180(14) 0.44060(11)
C9 C 0.50334(18) 0.5135(2) 0.2079(2)
H21 H 0.4922 0.4947 0.1744
H22 H 0.4964 0.4763 0.2336
C10 C 0.41222(17) 0.5498(2) 0.22136(19)
H23 H 0.4041 0.5296 0.1875
H24 H 0.4101 0.5109 0.2465
C11 C 0.4845(2) 0.6094(3) 0.27276(19)
H25 H 0.4610 0.6499 0.2800
H26 H 0.5210 0.6278 0.2705
C12 C 0.4768(3) 0.6378(3) 0.1822(2)
H27 H 0.5143 0.6527 0.1828
H28 H 0.4552 0.6788 0.1930
C13 C 0.3698(2) 0.6051(3) 0.2345(3)
H29 H 0.3780 0.6266 0.2675
H30 H 0.3352 0.5822 0.2361
H31 H 0.3693 0.6418 0.2082
C14 C 0.5633(2) 0.5275(4) 0.2062(3)
H32 H 0.5708 0.5647 0.1812
H33 H 0.5818 0.4841 0.1964
H34 H 0.5755 0.5427 0.2398
C15 C 0.4816(3) 0.5569(3) 0.3182(2)
H35 H 0.4455 0.5389 0.3214
H36 H 0.4916 0.5814 0.3496
H37 H 0.5058 0.5174 0.3123
C16 C 0.4617(4) 0.6179(4) 0.1268(2)
H38 H 0.4870 0.5835 0.1135
H39 H 0.4622 0.6604 0.1055
H40 H 0.4262 0.5973 0.1264
N2 N 0.46920(14) 0.57806(16) 0.22058(13)
O1 O 0.39022(11) 0.33553(13) 0.07418(10)
O2 O 0.42692(11) 0.42748(14) 0.11314(11)
C17 C 0.38843(16) 0.26634(19) 0.05097(13)
C18 C 0.48794(15) 0.33701(18) 0.08473(13)
C19 C 0.43218(16) 0.22863(19) 0.03873(13)
B1 B 0.48896(18) 0.2586(2) 0.05066(15)
C20 C 0.33170(16) 0.24611(19) 0.04403(15)
C21 C 0.43425(16) 0.3704(2) 0.09274(14)
C22 C 0.42783(16) 0.1517(2) 0.02271(16)
B2 B 0.50475(19) 0.2601(2) 0.11819(16)
H41 H 0.4792 0.2331 0.1472
C23 C 0.29447(18) 0.2557(2) 0.08341(16)
H42 H 0.3051 0.2770 0.1145
B3 B 0.5115(2) 0.3409(2) 0.02227(17)
H43 H 0.4905 0.3660 -0.0107
C24 C 0.31434(18) 0.2162(2) -0.00250(16)
H44 H 0.3387 0.2096 -0.0295
B4 B 0.5496(2) 0.2612(3) 0.01497(18)
H45 H 0.5538 0.2343 -0.0229
B5 B 0.5755(2) 0.2645(2) 0.1244(2)
H46 H 0.5967 0.2397 0.1574
C25 C 0.2616(2) 0.1962(2) -0.0090(2)
H47 H 0.2503 0.1768 -0.0406
B6 B 0.5816(2) 0.3454(3) 0.0297(2)
H48 H 0.6071 0.3734 0.0011
C26 C 0.2421(2) 0.2341(3) 0.0770(2)
H49 H 0.2177 0.2395 0.1041
B7 B 0.54574(19) 0.2116(2) 0.07405(17)
H50 H 0.5475 0.1523 0.0744
B8 B 0.5369(2) 0.3439(2) 0.1316(2)
H51 H 0.5320 0.3710 0.1693
B9 B 0.6027(2) 0.2652(3) 0.0608(2)
H52 H 0.6419 0.2405 0.0523
C27 C 0.4098(2) 0.1017(2) 0.0578(2)
H53 H 0.3972 0.1170 0.0900
C28 C 0.44597(19) 0.1280(3) -0.02491(18)
H54 H 0.4588 0.1610 -0.0492
C29 C 0.2254(2) 0.2046(3) 0.0309(3)
H55 H 0.1898 0.1904 0.0267
B10 B 0.5407(2) 0.3938(2) 0.0729(2)
H56 H 0.5383 0.4531 0.0727
C30 C 0.4452(3) 0.0550(4) -0.0368(3)
H57 H 0.4566 0.0393 -0.0693
C31 C 0.4278(3) 0.0064(3) -0.0009(4)
H58 H 0.4281 -0.0426 -0.0087
C32 C 0.4101(3) 0.0292(3) 0.0464(3)
H59 H 0.3982 -0.0042 0.0708
B11 B 0.5971(2) 0.3470(3) 0.0965(2)
H60 H 0.6327 0.3757 0.1114
O3 O 0.29784(10) 0.75226(12) 0.24942(10)
O4 O 0.26841(12) 0.66636(14) 0.29906(11)
C33 C 0.20871(14) 0.76452(16) 0.28758(13)
C34 C 0.25412(15) 0.86235(17) 0.22167(12)
C35 C 0.25913(16) 0.72329(19) 0.27997(14)
C36 C 0.29640(15) 0.81892(18) 0.22246(13)
C37 C 0.25707(16) 0.93383(18) 0.19528(13)
C38 C 0.39603(17) 0.8212(2) 0.22788(15)
H61 H 0.3931 0.8101 0.2630
C39 C 0.35012(15) 0.82870(18) 0.19843(14)
B12 B 0.16420(17) 0.8993(2) 0.29436(16)
H62 H 0.1690 0.9583 0.2938
C40 C 0.35522(17) 0.8445(2) 0.14607(14)
H63 H 0.3247 0.8502 0.1256
C41 C 0.45090(19) 0.8445(2) 0.1541(2)
H64 H 0.4848 0.8494 0.1393
B13 B 0.20300(16) 0.84299(19) 0.25373(16)
B14 B 0.15015(19) 0.8511(2) 0.35308(18)
H65 H 0.1458 0.8789 0.3906
C42 C 0.40585(19) 0.8517(2) 0.12431(17)
H66 H 0.4092 0.8615 0.0890
C43 C 0.29691(19) 0.9827(2) 0.20751(17)
H67 H 0.3227 0.9706 0.2322
B15 B 0.11065(19) 0.7743(2) 0.33685(19)
H68 H 0.0805 0.7524 0.3638
B16 B 0.18024(18) 0.7648(2) 0.34829(16)
H69 H 0.1961 0.7357 0.3823
B17 B 0.21308(17) 0.8421(2) 0.32231(15)
H70 H 0.2502 0.8632 0.3399
B18 B 0.14957(18) 0.7180(2) 0.29633(17)
H71 H 0.1458 0.6588 0.2968
C44 C 0.21812(19) 0.9538(2) 0.15949(16)
H72 H 0.1901 0.9224 0.1515
B19 B 0.16297(19) 0.7659(2) 0.23780(17)
H73 H 0.1676 0.7375 0.2005
B20 B 0.1003(2) 0.7748(3) 0.2687(2)
H74 H 0.0633 0.7528 0.2514
B21 B 0.10068(19) 0.8572(2) 0.30344(19)
H75 H 0.0638 0.8893 0.3088
B22 B 0.13277(17) 0.8520(2) 0.24214(18)
H76 H 0.1171 0.8801 0.2077
C45 C 0.44597(18) 0.8300(2) 0.20609(19)
H77 H 0.4766 0.8262 0.2267
C46 C 0.2213(3) 1.0212(3) 0.1356(2)
H78 H 0.1955 1.0345 0.1112
C47 C 0.2991(3) 1.0494(3) 0.1836(2)
H79 H 0.3262 1.0817 0.1923
C48 C 0.2622(4) 1.0680(3) 0.1479(3)
H80 H 0.2643 1.1126 0.1315
loop_
_geom_bond_atom_site_label_1
_geom_bond_atom_site_label_2
_geom_bond_site_symmetry_1
_geom_bond_site_symmetry_2
C1 H1 1_555 1_555
H2 C1 1_555 1_555
C2 H3 1_555 1_555
H4 C2 1_555 1_555
C3 H5 1_555 1_555
H6 C3 1_555 1_555
H7 C3 1_555 1_555
C4 C3 1_555 1_555
H8 C4 1_555 1_555
H9 C4 1_555 1_555
C5 H10 1_555 1_555
H11 C5 1_555 1_555
C6 C1 1_555 1_555
H12 C6 1_555 1_555
H13 C6 1_555 1_555
H14 C6 1_555 1_555
C7 C5 1_555 1_555
H15 C7 1_555 1_555
H16 C7 1_555 1_555
H17 C7 1_555 1_555
C8 C2 1_555 1_555
H18 C8 1_555 1_555
H19 C8 1_555 1_555
H20 C8 1_555 1_555
N1 C1 1_555 1_555
C9 H21 1_555 1_555
H22 C9 1_555 1_555
C10 H23 1_555 1_555
H24 C10 1_555 1_555
C11 H25 1_555 1_555
H26 C11 1_555 1_555
C12 H27 1_555 1_555
H28 C12 1_555 1_555
C13 C10 1_555 1_555
H29 C13 1_555 1_555
H30 C13 1_555 1_555
H31 C13 1_555 1_555
C14 C9 1_555 1_555
H32 C14 1_555 1_555
H33 C14 1_555 1_555
H34 C14 1_555 1_555
C15 C11 1_555 1_555
H35 C15 1_555 1_555
H36 C15 1_555 1_555
H37 C15 1_555 1_555
C16 C12 1_555 1_555
H38 C16 1_555 1_555
H39 C16 1_555 1_555
H40 C16 1_555 1_555
N2 C9 1_555 1_555
O1 C17 1_555 1_555
O2 C21 1_555 1_555
C17 C19 1_555 1_555
C18 B1 1_555 1_555
C19 B1 1_555 1_555
B1 B2 1_555 1_555
C20 C17 1_555 1_555
C21 O1 1_555 1_555
C22 C19 1_555 1_555
B2 C18 1_555 1_555
H41 B2 1_555 1_555
C23 C20 1_555 1_555
H42 C23 1_555 1_555
B3 C18 1_555 1_555
H43 B3 1_555 1_555
C24 C20 1_555 1_555
H44 C24 1_555 1_555
B4 B1 1_555 1_555
H45 B4 1_555 1_555
B5 B2 1_555 1_555
H46 B5 1_555 1_555
C25 C24 1_555 1_555
H47 C25 1_555 1_555
B6 B3 1_555 1_555
H48 B6 1_555 1_555
C26 C23 1_555 1_555
H49 C26 1_555 1_555
B7 B1 1_555 1_555
H50 B7 1_555 1_555
B8 C18 1_555 1_555
H51 B8 1_555 1_555
B9 B4 1_555 1_555
H52 B9 1_555 1_555
C27 C22 1_555 1_555
H53 C27 1_555 1_555
C28 C22 1_555 1_555
H54 C28 1_555 1_555
C29 C25 1_555 1_555
H55 C29 1_555 1_555
B10 C18 1_555 1_555
H56 B10 1_555 1_555
C30 C28 1_555 1_555
H57 C30 1_555 1_555
C31 C30 1_555 1_555
H58 C31 1_555 1_555
C32 C27 1_555 1_555
H59 C32 1_555 1_555
B11 B5 1_555 1_555
H60 B11 1_555 1_555
O3 C35 1_555 1_555
O4 C35 1_555 1_555
C33 C35 1_555 1_555
C34 C36 1_555 1_555
C36 O3 1_555 1_555
C37 C34 1_555 1_555
C38 H61 1_555 1_555
C39 C36 1_555 1_555
B12 H62 1_555 1_555
C40 C39 1_555 1_555
H63 C40 1_555 1_555
C41 H64 1_555 1_555
B13 C33 1_555 1_555
B14 B12 1_555 1_555
H65 B14 1_555 1_555
C42 C40 1_555 1_555
H66 C42 1_555 1_555
C43 C37 1_555 1_555
H67 C43 1_555 1_555
B15 B14 1_555 1_555
H68 B15 1_555 1_555
B16 C33 1_555 1_555
H69 B16 1_555 1_555
B17 C33 1_555 1_555
H70 B17 1_555 1_555
B18 C33 1_555 1_555
H71 B18 1_555 1_555
C44 C37 1_555 1_555
H72 C44 1_555 1_555
B19 C33 1_555 1_555
H73 B19 1_555 1_555
B20 B15 1_555 1_555
H74 B20 1_555 1_555
B21 B12 1_555 1_555
H75 B21 1_555 1_555
B22 B12 1_555 1_555
H76 B22 1_555 1_555
C45 C38 1_555 1_555
H77 C45 1_555 1_555
C46 C44 1_555 1_555
H78 C46 1_555 1_555
C47 C43 1_555 1_555
H79 C47 1_555 1_555
C48 C46 1_555 1_555
H80 C48 1_555 1_555
C2 N1 1_555 1_555
C4 N1 1_555 1_555
C5 N1 1_555 1_555
C10 N2 1_555 1_555
C11 N2 1_555 1_555
C12 N2 1_555 1_555
C18 C21 1_555 1_555
B1 B3 1_555 1_555
B2 B7 1_555 1_555
B2 B8 1_555 1_555
B3 B4 1_555 1_555
B3 B10 1_555 1_555
B4 B6 1_555 1_555
B4 B7 1_555 1_555
B5 B7 1_555 1_555
B5 B8 1_555 1_555
B5 B9 1_555 1_555
B6 B9 1_555 1_555
B6 B10 1_555 1_555
B6 B11 1_555 1_555
C26 C29 1_555 1_555
B7 B9 1_555 1_555
B8 B10 1_555 1_555
B8 B11 1_555 1_555
B9 B11 1_555 1_555
B10 B11 1_555 1_555
C31 C32 1_555 1_555
C34 B13 1_555 1_555
C38 C39 1_555 1_555
B12 B13 1_555 1_555
B12 B17 1_555 1_555
C41 C42 1_555 1_555
C41 C45 1_555 1_555
B13 B17 1_555 1_555
B13 B19 1_555 1_555
B13 B22 1_555 1_555
B14 B16 1_555 1_555
B14 B17 1_555 1_555
B14 B21 1_555 1_555
B15 B16 1_555 1_555
B15 B18 1_555 1_555
B15 B21 1_555 1_555
B16 B17 1_555 1_555
B16 B18 1_555 1_555
B18 B19 1_555 1_555
B18 B20 1_555 1_555
B19 B20 1_555 1_555
B19 B22 1_555 1_555
B20 B21 1_555 1_555
B20 B22 1_555 1_555
B21 B22 1_555 1_555
C47 C48 1_555 1_555

#END
