
#######################################################################
#
#                 Cambridge Crystallographic Data Centre
#                                CCDC 
#
#######################################################################
#
# If this CIF has been generated from an entry in the Cambridge 
# Structural Database, then it will include bibliographic, chemical, 
# crystal, experimental, refinement or atomic coordinate data resulting 
# from the CCDC's data processing and validation procedures.
#
#######################################################################

data_BIBHOM
_chemical_formula_moiety         'C8 H20 N1 1+,C34 H38 B11 O2 1-'
_chemical_name_systematic        
'tetraethylammonium 1,2-(1-oxo-3,4-bis(4-methylphenyl)-2-oxabut-3-en-1,4-diyl)-5-(1,2-bis(4-methylphenyl)ethenyl)-1-carba-closo-dodecaborate(9)'
_symmetry_cell_setting           orthorhombic
_symmetry_space_group_name_H-M   'P n a 21'
_symmetry_Int_Tables_number      33
_space_group_name_Hall           'P 2c -2n'
loop_
_symmetry_equiv_pos_site_id
_symmetry_equiv_pos_as_xyz
1 x,y,z
2 -x,-y,1/2+z
3 1/2-x,1/2+y,1/2+z
4 1/2+x,1/2-y,z
_cell_length_a                   20.6826(10)
_cell_length_b                   11.2017(6)
_cell_length_c                   19.1227(15)
_cell_angle_alpha                90
_cell_angle_beta                 90
_cell_angle_gamma                90
_cell_volume                     4430.35
_exptl_crystal_colour            'light yellow'
_exptl_crystal_description       block
_cell_formula_units_Z            4
loop_
_atom_site_label
_atom_site_type_symbol
_atom_site_fract_x
_atom_site_fract_y
_atom_site_fract_z
O1 O 0.3709(2) 0.5182(4) 0.2989(2)
O2 O 0.37258(17) 0.7004(3) 0.2606(2)
C1 C 0.2794(2) 0.6316(4) 0.3245(3)
C2 C 0.3423(3) 0.6092(5) 0.2947(3)
C3 C 0.3473(2) 0.8116(4) 0.2383(3)
C4 C 0.2878(2) 0.8458(4) 0.2550(3)
C5 C 0.3971(2) 0.8736(4) 0.1964(3)
C6 C 0.4610(3) 0.8677(5) 0.2149(4)
H1 H 0.4731 0.8262 0.2549
C7 C 0.5081(3) 0.9234(6) 0.1741(4)
H2 H 0.5512 0.9185 0.1875
C8 C 0.4924(3) 0.9842(7) 0.1155(4)
C9 C 0.4279(3) 0.9904(6) 0.0968(4)
H3 H 0.4159 1.0328 0.0570
C10 C 0.3812(2) 0.9347(6) 0.1363(3)
H4 H 0.3382 0.9383 0.1221
C11 C 0.5431(4) 1.0460(10) 0.0705(6)
H5 H 0.5306 1.0413 0.0222
H6 H 0.5841 1.0073 0.0768
H7 H 0.5465 1.1282 0.0841
C12 C 0.2630(2) 0.9652(4) 0.2341(2)
C13 C 0.2948(3) 1.0685(4) 0.2548(3)
H8 H 0.3308 1.0631 0.2837
C14 C 0.2734(3) 1.1794(5) 0.2328(4)
H9 H 0.2952 1.2474 0.2476
C15 C 0.2215(3) 1.1910(4) 0.1902(3)
C16 C 0.1878(3) 1.0887(5) 0.1723(3)
H10 H 0.1508 1.0947 0.1449
C17 C 0.2085(2) 0.9776(4) 0.1946(3)
H11 H 0.1848 0.9101 0.1825
C18 C 0.1999(4) 1.3094(6) 0.1633(5)
H12 H 0.1772 1.2986 0.1199
H13 H 0.2369 1.3596 0.1558
H14 H 0.1716 1.3461 0.1968
C19 C 0.3173(2) 0.5219(4) 0.4527(2)
C20 C 0.3707(2) 0.5808(4) 0.4715(3)
H15 H 0.3709 0.6610 0.4588
C21 C 0.3065(2) 0.3929(4) 0.4690(3)
C22 C 0.2744(2) 0.3587(5) 0.5285(3)
H16 H 0.2571 0.4170 0.5576
C23 C 0.2671(3) 0.2413(5) 0.5460(3)
H17 H 0.2470 0.2215 0.5878
C24 C 0.2891(2) 0.1519(5) 0.5029(3)
C25 C 0.3195(3) 0.1856(5) 0.4421(3)
H18 H 0.3344 0.1271 0.4116
C26 C 0.3284(2) 0.3042(4) 0.4253(3)
H19 H 0.3495 0.3244 0.3840
C27 C 0.2787(3) 0.0214(5) 0.5208(5)
H20 H 0.2816 0.0108 0.5705
H21 H 0.3112 -0.0261 0.4982
H22 H 0.2367 -0.0031 0.5050
C28 C 0.4296(2) 0.5418(4) 0.5088(3)
C29 C 0.4363(2) 0.4393(5) 0.5476(3)
H23 H 0.4013 0.3878 0.5522
C30 C 0.4943(3) 0.4112(6) 0.5799(3)
H24 H 0.4973 0.3420 0.6066
C31 C 0.5477(3) 0.4844(6) 0.5731(3)
C32 C 0.5407(3) 0.5861(6) 0.5350(4)
H25 H 0.5755 0.6384 0.5313
C33 C 0.4843(3) 0.6132(5) 0.5024(4)
H26 H 0.4821 0.6816 0.4749
C34 C 0.6108(3) 0.4545(9) 0.6092(5)
H27 H 0.6019 0.4197 0.6541
H28 H 0.6357 0.5261 0.6153
H29 H 0.6347 0.3988 0.5812
B1 B 0.2433(3) 0.7620(4) 0.2993(3)
B2 B 0.2713(2) 0.7392(4) 0.3865(3)
H30 H 0.3115 0.7922 0.4077
B3 B 0.2627(2) 0.5848(4) 0.4095(3)
B4 B 0.2276(3) 0.5147(4) 0.3352(3)
H31 H 0.2391 0.4212 0.3228
B5 B 0.2159(3) 0.6223(5) 0.2678(3)
H32 H 0.2198 0.5986 0.2121
B6 B 0.1601(3) 0.7285(5) 0.2978(4)
H33 H 0.1270 0.7746 0.2617
B7 B 0.1929(3) 0.8008(5) 0.3711(3)
H34 H 0.1808 0.8944 0.3828
B8 B 0.2060(3) 0.6946(5) 0.4391(4)
H35 H 0.2029 0.7195 0.4946
B9 B 0.1789(3) 0.5545(5) 0.4069(4)
H36 H 0.1576 0.4872 0.4419
B10 B 0.1504(3) 0.5751(5) 0.3200(4)
H37 H 0.1108 0.5210 0.2983
B11 B 0.1366(3) 0.6861(6) 0.3842(4)
H38 H 0.0878 0.7042 0.4046
N1 N 0.5360(2) 0.2967(4) 0.3360(3)
C35 C 0.5224(3) 0.2532(6) 0.2642(4)
H39 H 0.5492 0.2984 0.2320
H40 H 0.5362 0.1706 0.2614
C36 C 0.4546(4) 0.2599(9) 0.2392(7)
H41 H 0.4540 0.2570 0.1890
H42 H 0.4354 0.3333 0.2547
H43 H 0.4305 0.1938 0.2576
C37 C 0.5161(4) 0.4221(6) 0.3462(5)
H44 H 0.4696 0.4273 0.3405
H45 H 0.5262 0.4454 0.3938
C38 C 0.5461(4) 0.5056(8) 0.2992(8)
H46 H 0.5443 0.4750 0.2523
H47 H 0.5905 0.5170 0.3125
H48 H 0.5237 0.5805 0.3014
C39 C 0.6071(3) 0.2728(6) 0.3490(4)
H49 H 0.6147 0.1879 0.3433
H50 H 0.6319 0.3139 0.3134
C40 C 0.6326(6) 0.3098(10) 0.4196(8)
H51 H 0.6789 0.3033 0.4199
H52 H 0.6148 0.2587 0.4550
H53 H 0.6204 0.3909 0.4289
C41 C 0.4946(4) 0.2210(9) 0.3895(6)
H54 H 0.5061 0.2459 0.4365
H55 H 0.4494 0.2405 0.3825
C42 C 0.5019(5) 0.0874(9) 0.3851(9)
H56 H 0.4929 0.0614 0.3383
H57 H 0.4721 0.0501 0.4168
H58 H 0.5452 0.0655 0.3975
loop_
_geom_bond_atom_site_label_1
_geom_bond_atom_site_label_2
_geom_bond_site_symmetry_1
_geom_bond_site_symmetry_2
O1 C2 1_555 1_555
O2 C2 1_555 1_555
C1 C2 1_555 1_555
C3 O2 1_555 1_555
C4 C3 1_555 1_555
C5 C3 1_555 1_555
C6 C5 1_555 1_555
H1 C6 1_555 1_555
C7 C6 1_555 1_555
H2 C7 1_555 1_555
C8 C7 1_555 1_555
C9 C8 1_555 1_555
H3 C9 1_555 1_555
C10 C5 1_555 1_555
H4 C10 1_555 1_555
C11 C8 1_555 1_555
H5 C11 1_555 1_555
H6 C11 1_555 1_555
H7 C11 1_555 1_555
C12 C4 1_555 1_555
C13 C12 1_555 1_555
H8 C13 1_555 1_555
C14 C13 1_555 1_555
H9 C14 1_555 1_555
C15 C14 1_555 1_555
C16 C15 1_555 1_555
H10 C16 1_555 1_555
C17 C12 1_555 1_555
H11 C17 1_555 1_555
C18 C15 1_555 1_555
H12 C18 1_555 1_555
H13 C18 1_555 1_555
H14 C18 1_555 1_555
C19 C20 1_555 1_555
C20 H15 1_555 1_555
C21 C19 1_555 1_555
C22 C21 1_555 1_555
H16 C22 1_555 1_555
C23 C22 1_555 1_555
H17 C23 1_555 1_555
C24 C23 1_555 1_555
C25 C24 1_555 1_555
H18 C25 1_555 1_555
C26 C21 1_555 1_555
H19 C26 1_555 1_555
C27 C24 1_555 1_555
H20 C27 1_555 1_555
H21 C27 1_555 1_555
H22 C27 1_555 1_555
C28 C20 1_555 1_555
C29 C28 1_555 1_555
H23 C29 1_555 1_555
C30 C29 1_555 1_555
H24 C30 1_555 1_555
C31 C30 1_555 1_555
C32 C31 1_555 1_555
H25 C32 1_555 1_555
C33 C28 1_555 1_555
H26 C33 1_555 1_555
C34 C31 1_555 1_555
H27 C34 1_555 1_555
H28 C34 1_555 1_555
H29 C34 1_555 1_555
B1 C1 1_555 1_555
B2 C1 1_555 1_555
H30 B2 1_555 1_555
B3 C1 1_555 1_555
B4 C1 1_555 1_555
H31 B4 1_555 1_555
B5 C1 1_555 1_555
H32 B5 1_555 1_555
B6 B1 1_555 1_555
H33 B6 1_555 1_555
B7 B1 1_555 1_555
H34 B7 1_555 1_555
B8 B2 1_555 1_555
H35 B8 1_555 1_555
B9 B3 1_555 1_555
H36 B9 1_555 1_555
B10 B4 1_555 1_555
H37 B10 1_555 1_555
B11 B6 1_555 1_555
H38 B11 1_555 1_555
N1 C35 1_555 1_555
C35 H39 1_555 1_555
H40 C35 1_555 1_555
C36 C35 1_555 1_555
H41 C36 1_555 1_555
H42 C36 1_555 1_555
H43 C36 1_555 1_555
C37 N1 1_555 1_555
H44 C37 1_555 1_555
H45 C37 1_555 1_555
C38 C37 1_555 1_555
H46 C38 1_555 1_555
H47 C38 1_555 1_555
H48 C38 1_555 1_555
C39 N1 1_555 1_555
H49 C39 1_555 1_555
H50 C39 1_555 1_555
C40 C39 1_555 1_555
H51 C40 1_555 1_555
H52 C40 1_555 1_555
H53 C40 1_555 1_555
C41 N1 1_555 1_555
H54 C41 1_555 1_555
H55 C41 1_555 1_555
C42 C41 1_555 1_555
H56 C42 1_555 1_555
H57 C42 1_555 1_555
H58 C42 1_555 1_555
C4 B1 1_555 1_555
C9 C10 1_555 1_555
C16 C17 1_555 1_555
C19 B3 1_555 1_555
C25 C26 1_555 1_555
C32 C33 1_555 1_555
B1 B2 1_555 1_555
B1 B5 1_555 1_555
B2 B3 1_555 1_555
B2 B7 1_555 1_555
B3 B4 1_555 1_555
B3 B8 1_555 1_555
B4 B5 1_555 1_555
B4 B9 1_555 1_555
B5 B6 1_555 1_555
B5 B10 1_555 1_555
B6 B7 1_555 1_555
B6 B10 1_555 1_555
B7 B8 1_555 1_555
B7 B11 1_555 1_555
B8 B9 1_555 1_555
B8 B11 1_555 1_555
B9 B10 1_555 1_555
B9 B11 1_555 1_555
B10 B11 1_555 1_555

#END
