
#######################################################################
#
#                 Cambridge Crystallographic Data Centre
#                                CCDC 
#
#######################################################################
#
# If this CIF has been generated from an entry in the Cambridge 
# Structural Database, then it will include bibliographic, chemical, 
# crystal, experimental, refinement or atomic coordinate data resulting 
# from the CCDC's data processing and validation procedures.
#
#######################################################################

data_BIBHEC
_chemical_formula_moiety         'C8 H20 N1 1+,C20 H24 B11 O4 1-'
_chemical_name_systematic        
'tetraethylammonium 1,2-(1-oxo-3,4-bis(4-acetylphenyl)-2-oxabut-3-en-1,4-diyl)-1-carba-closo-dodecaborate(10)'
_symmetry_cell_setting           monoclinic
_symmetry_space_group_name_H-M   'P 21/c'
_symmetry_Int_Tables_number      14
_space_group_name_Hall           '-P 2ybc'
loop_
_symmetry_equiv_pos_site_id
_symmetry_equiv_pos_as_xyz
1 x,y,z
2 -x,1/2+y,1/2-z
3 -x,-y,-z
4 x,1/2-y,1/2+z
_cell_length_a                   11.5139(8)
_cell_length_b                   14.1491(10)
_cell_length_c                   21.411(2)
_cell_angle_alpha                90
_cell_angle_beta                 104.454(9)
_cell_angle_gamma                90
_cell_volume                     3377.69
_exptl_crystal_colour            colorless
_exptl_crystal_description       block
_cell_formula_units_Z            4
loop_
_atom_site_label
_atom_site_type_symbol
_atom_site_fract_x
_atom_site_fract_y
_atom_site_fract_z
O1 O 0.4019(5) 0.3239(4) 0.3448(4)
O2 O 0.3782(3) 0.1725(3) 0.3594(3)
O3 O -0.0123(4) -0.2263(4) 0.3556(3)
O4 O 0.6697(11) -0.3815(5) 0.4503(4)
C1 C 0.5796(4) 0.2356(3) 0.3672(3)
C2 C 0.4503(6) 0.2493(5) 0.3566(4)
C3 C 0.4138(5) 0.0752(4) 0.3656(3)
C4 C 0.5271(4) 0.0480(3) 0.3716(2)
C5 C 0.3061(4) 0.0196(4) 0.3677(3)
C6 C 0.2831(5) -0.0674(5) 0.3373(3)
H1 H 0.3347 -0.0906 0.3137
C7 C 0.1854(5) -0.1194(5) 0.3416(3)
H2 H 0.1703 -0.1766 0.3196
C8 C 0.1085(4) -0.0893(4) 0.3778(3)
C9 C 0.1288(5) -0.0013(4) 0.4060(2)
H3 H 0.0767 0.0224 0.4291
C10 C 0.2264(5) 0.0525(4) 0.4001(3)
H4 H 0.2377 0.1122 0.4188
C11 C 0.0074(5) -0.1520(5) 0.3849(3)
C12 C -0.0662(5) -0.1230(5) 0.4277(3)
H5 H -0.1235 -0.0768 0.4064
H6 H -0.0160 -0.0962 0.4662
H7 H -0.1076 -0.1770 0.4386
C13 C 0.5591(4) -0.0534(3) 0.3776(3)
C14 C 0.5942(4) -0.0991(3) 0.3279(3)
H8 H 0.5945 -0.0664 0.2902
C15 C 0.6283(4) -0.1914(4) 0.3340(3)
H9 H 0.6507 -0.2210 0.3000
C16 C 0.6303(4) -0.2427(4) 0.3896(3)
C17 C 0.5969(6) -0.1973(4) 0.4388(3)
H10 H 0.5972 -0.2298 0.4766
C18 C 0.5628(5) -0.1034(4) 0.4325(3)
H11 H 0.5417 -0.0735 0.4668
C19 C 0.6666(7) -0.3416(5) 0.3979(4)
C20 C 0.6979(7) -0.3942(5) 0.3420(5)
H12 H 0.7609 -0.4387 0.3586
H13 H 0.7242 -0.3497 0.3145
H14 H 0.6283 -0.4271 0.3177
B1 B 0.6269(5) 0.1215(4) 0.3744(3)
B2 B 0.6564(5) 0.1972(4) 0.4441(3)
H15 H 0.6176 0.1838 0.4853
B3 B 0.6745(6) 0.3149(5) 0.4153(4)
H16 H 0.6452 0.3771 0.4381
B4 B 0.6607(7) 0.3097(5) 0.3324(4)
H17 H 0.6224 0.3693 0.3010
B5 B 0.6346(7) 0.1911(5) 0.3069(3)
H18 H 0.5799 0.1730 0.2585
B6 B 0.7570(5) 0.1233(4) 0.3438(3)
H19 H 0.7844 0.0609 0.3204
B7 B 0.7707(4) 0.1282(4) 0.4280(3)
H20 H 0.8072 0.0683 0.4596
B8 B 0.8001(5) 0.2468(4) 0.4528(3)
H21 H 0.8568 0.2652 0.5006
B9 B 0.8000(7) 0.3171(5) 0.3855(3)
H22 H 0.8554 0.3812 0.3893
B10 B 0.7757(7) 0.2403(5) 0.3170(3)
H23 H 0.8151 0.2545 0.2761
B11 B 0.8627(6) 0.1996(4) 0.3931(3)
H24 H 0.9596 0.1865 0.4018
N1 N 0.8518(4) 0.4922(3) 0.6449(2)
C21 C 0.7786(11) 0.4096(9) 0.6396(9)
H25 H 0.8121 0.3632 0.6157
H26 H 0.7894 0.3847 0.6829
C22 C 0.6569(9) 0.4123(17) 0.6123(8)
H27 H 0.6382 0.4660 0.5842
H28 H 0.6149 0.4173 0.6457
H29 H 0.6328 0.3555 0.5880
C23 C 0.8302(8) 0.5638(7) 0.6917(5)
H30 H 0.7455 0.5795 0.6798
H31 H 0.8466 0.5340 0.7338
C24 C 0.8981(12) 0.6524(9) 0.6984(10)
H32 H 0.8925 0.6788 0.6565
H33 H 0.9806 0.6401 0.7193
H34 H 0.8655 0.6962 0.7238
C25 C 0.8325(15) 0.5393(12) 0.5832(5)
H35 H 0.8605 0.6039 0.5911
H36 H 0.7468 0.5419 0.5643
C26 C 0.893(2) 0.4956(12) 0.5319(6)
H37 H 0.8949 0.5419 0.4994
H38 H 0.8479 0.4416 0.5123
H39 H 0.9735 0.4765 0.5526
C27 C 0.9799(10) 0.4559(10) 0.6691(7)
H40 H 0.9945 0.4090 0.6389
H41 H 1.0347 0.5080 0.6692
C28 C 1.0083(9) 0.4127(7) 0.7355(4)
H42 H 1.0593 0.3587 0.7366
H43 H 0.9353 0.3935 0.7457
H44 H 1.0486 0.4585 0.7665
loop_
_geom_bond_atom_site_label_1
_geom_bond_atom_site_label_2
_geom_bond_site_symmetry_1
_geom_bond_site_symmetry_2
O1 C2 1_555 1_555
O2 C2 1_555 1_555
O3 C11 1_555 1_555
O4 C19 1_555 1_555
C1 C2 1_555 1_555
C3 O2 1_555 1_555
C4 C3 1_555 1_555
C5 C3 1_555 1_555
C6 C5 1_555 1_555
H1 C6 1_555 1_555
C7 C6 1_555 1_555
H2 C7 1_555 1_555
C8 C7 1_555 1_555
C9 C8 1_555 1_555
H3 C9 1_555 1_555
C10 C5 1_555 1_555
H4 C10 1_555 1_555
C11 C8 1_555 1_555
C12 C11 1_555 1_555
H5 C12 1_555 1_555
H6 C12 1_555 1_555
H7 C12 1_555 1_555
C13 C4 1_555 1_555
C14 C13 1_555 1_555
H8 C14 1_555 1_555
C15 C14 1_555 1_555
H9 C15 1_555 1_555
C16 C15 1_555 1_555
C17 C16 1_555 1_555
H10 C17 1_555 1_555
C18 C13 1_555 1_555
H11 C18 1_555 1_555
C19 C16 1_555 1_555
C20 C19 1_555 1_555
H12 C20 1_555 1_555
H13 C20 1_555 1_555
H14 C20 1_555 1_555
B1 C1 1_555 1_555
B2 C1 1_555 1_555
H15 B2 1_555 1_555
B3 C1 1_555 1_555
H16 B3 1_555 1_555
B4 C1 1_555 1_555
H17 B4 1_555 1_555
B5 C1 1_555 1_555
H18 B5 1_555 1_555
B6 B1 1_555 1_555
H19 B6 1_555 1_555
B7 B1 1_555 1_555
H20 B7 1_555 1_555
B8 B2 1_555 1_555
H21 B8 1_555 1_555
B9 B3 1_555 1_555
H22 B9 1_555 1_555
B10 B4 1_555 1_555
H23 B10 1_555 1_555
B11 B6 1_555 1_555
H24 B11 1_555 1_555
N1 C21 1_555 1_555
C21 H25 1_555 1_555
H26 C21 1_555 1_555
C22 C21 1_555 1_555
H27 C22 1_555 1_555
H28 C22 1_555 1_555
H29 C22 1_555 1_555
C23 N1 1_555 1_555
H30 C23 1_555 1_555
H31 C23 1_555 1_555
C24 C23 1_555 1_555
H32 C24 1_555 1_555
H33 C24 1_555 1_555
H34 C24 1_555 1_555
C25 N1 1_555 1_555
H35 C25 1_555 1_555
H36 C25 1_555 1_555
C26 C25 1_555 1_555
H37 C26 1_555 1_555
H38 C26 1_555 1_555
H39 C26 1_555 1_555
C27 N1 1_555 1_555
H40 C27 1_555 1_555
H41 C27 1_555 1_555
C28 C27 1_555 1_555
H42 C28 1_555 1_555
H43 C28 1_555 1_555
H44 C28 1_555 1_555
C4 B1 1_555 1_555
C9 C10 1_555 1_555
C17 C18 1_555 1_555
B1 B2 1_555 1_555
B1 B5 1_555 1_555
B2 B3 1_555 1_555
B2 B7 1_555 1_555
B3 B4 1_555 1_555
B3 B8 1_555 1_555
B4 B5 1_555 1_555
B4 B9 1_555 1_555
B5 B6 1_555 1_555
B5 B10 1_555 1_555
B6 B7 1_555 1_555
B6 B10 1_555 1_555
B7 B8 1_555 1_555
B7 B11 1_555 1_555
B8 B9 1_555 1_555
B8 B11 1_555 1_555
B9 B10 1_555 1_555
B9 B11 1_555 1_555
B10 B11 1_555 1_555

#END
