
#######################################################################
#
#                 Cambridge Crystallographic Data Centre
#                                CCDC 
#
#######################################################################
#
# If this CIF has been generated from an entry in the Cambridge 
# Structural Database, then it will include bibliographic, chemical, 
# crystal, experimental, refinement or atomic coordinate data resulting 
# from the CCDC's data processing and validation procedures.
#
#######################################################################

data_BIBKII
_chemical_formula_moiety         'C37 H40 N4 O7 S1 Si1,C1 H2 Cl2'
_chemical_name_systematic        
"t-Butyl 17,17-diethyl-14-methyl-12,15-dioxo-10-(phenylsulfonyl)-10,10a,12,13,14,15,15a,15b-octahydroindolo[2'',3'':3',4'][1,2]oxasilino[5',6':3,4]pyrazino[1',2':1,5]pyrrolo[2,3-b]indole-1(17H)-carboxylate dichloromethane solvate"
_symmetry_cell_setting           orthorhombic
_symmetry_space_group_name_H-M   'P 21 21 21'
_symmetry_Int_Tables_number      19
_space_group_name_Hall           'P 2ac 2ab'
loop_
_symmetry_equiv_pos_site_id
_symmetry_equiv_pos_as_xyz
1 x,y,z
2 1/2-x,-y,1/2+z
3 -x,1/2+y,1/2-z
4 1/2+x,1/2-y,-z
_cell_length_a                   9.7839(4)
_cell_length_b                   16.5231(8)
_cell_length_c                   24.2524(12)
_cell_angle_alpha                90
_cell_angle_beta                 90
_cell_angle_gamma                90
_cell_volume                     3920.65
_exptl_crystal_description       block
_cell_formula_units_Z            4
loop_
_atom_site_label
_atom_site_type_symbol
_atom_site_fract_x
_atom_site_fract_y
_atom_site_fract_z
S1 S -0.14664(6) -0.16680(4) -0.21822(2)
N1 N -0.14889(18) -0.13771(11) -0.15255(7)
O1 O 0.19582(19) -0.23322(11) -0.16787(7)
O2 O -0.09449(18) -0.29415(10) 0.01193(7)
C1 C -0.0117(2) -0.12375(12) -0.12578(8)
H1 H 0.0542 -0.0978 -0.1519
O3 O -0.07002(15) -0.09706(9) 0.02404(6)
C2 C -0.04686(19) -0.06657(11) -0.07654(8)
O4 O -0.0575(2) -0.23469(11) -0.22072(7)
C3 C -0.1800(2) -0.02899(12) -0.09339(8)
O5 O -0.2866(2) -0.17417(13) -0.23507(7)
C4 C -0.2480(2) 0.03547(13) -0.06984(10)
H2 H -0.2052 0.0676 -0.0423
C5 C -0.3806(2) 0.05247(15) -0.08727(11)
H3 H -0.4289 0.0969 -0.0719
C6 C -0.4419(3) 0.00490(16) -0.12681(11)
H4 H -0.5327 0.0171 -0.1379
C7 C -0.3749(2) -0.06057(15) -0.15102(10)
H5 H -0.4189 -0.0940 -0.1775
C8 C -0.2405(2) -0.07469(13) -0.13471(8)
N2 N 0.04591(19) -0.19483(10) -0.10055(7)
C9 C 0.0328(2) -0.19491(12) -0.04014(8)
H6 H 0.1219 -0.1785 -0.0233
C10 C -0.0727(2) -0.12984(11) -0.02936(8)
H7 H -0.1651 -0.1541 -0.0354
C11 C -0.0037(2) -0.27994(12) -0.02116(9)
N3 N 0.0747(2) -0.33599(11) -0.04640(8)
C12 C 0.1821(2) -0.31273(13) -0.08510(9)
H8 H 0.2060 -0.3603 -0.1080
H9 H 0.2646 -0.2973 -0.0640
C13 C 0.1431(2) -0.24297(13) -0.12299(9)
C14 C 0.0587(3) -0.42206(13) -0.03312(12)
H10 H -0.0044 -0.4280 -0.0020
H11 H 0.1477 -0.4450 -0.0232
H12 H 0.0220 -0.4507 -0.0652
C15 C -0.0727(3) -0.08533(16) -0.25405(9)
C16 C 0.0651(3) -0.08724(17) -0.26785(10)
H13 H 0.1191 -0.1336 -0.2599
C17 C 0.1223(3) -0.02049(19) -0.29329(11)
H14 H 0.2157 -0.0216 -0.3040
C18 C 0.0445(4) 0.0480(2) -0.30338(11)
H15 H 0.0855 0.0941 -0.3200
C19 C -0.0926(3) 0.0496(2) -0.28943(11)
H16 H -0.1453 0.0967 -0.2966
C20 C -0.1532(3) -0.01684(19) -0.26513(11)
H17 H -0.2477 -0.0163 -0.2561
N4 N 0.22544(17) 0.06213(10) -0.01741(8)
C21 C 0.1253(2) 0.00134(11) -0.01246(8)
C22 C 0.0663(2) -0.00849(11) -0.06320(8)
C23 C 0.1264(2) 0.04902(12) -0.10126(8)
C24 C 0.0978(2) 0.07013(13) -0.15575(9)
H18 H 0.0298 0.0420 -0.1761
C25 C 0.1707(3) 0.13320(14) -0.17964(11)
H19 H 0.1521 0.1485 -0.2166
O6 O 0.27926(18) 0.05652(11) 0.07365(7)
C26 C 0.2706(2) 0.17416(14) -0.14992(11)
H20 H 0.3196 0.2166 -0.1674
C27 C 0.3008(2) 0.15535(13) -0.09608(11)
H21 H 0.3690 0.1840 -0.0761
C28 C 0.2268(2) 0.09207(12) -0.07189(9)
C29 C 0.2955(2) 0.08849(13) 0.02922(10)
O7 O 0.3735(2) 0.15039(11) 0.01714(8)
C30 C 0.4426(5) 0.1969(2) 0.0627(2)
C31 C 0.4999(6) 0.2668(3) 0.0307(2)
H22 H 0.5699 0.2471 0.0051
H23 H 0.5408 0.3058 0.0563
H24 H 0.4264 0.2931 0.0099
C32 C 0.5554(7) 0.1422(3) 0.0866(3)
H25 H 0.5134 0.0975 0.1070
H26 H 0.6134 0.1739 0.1115
H27 H 0.6111 0.1204 0.0565
C33 C 0.3435(6) 0.2251(3) 0.1063(2)
H28 H 0.2744 0.2602 0.0894
H29 H 0.3930 0.2554 0.1347
H30 H 0.2988 0.1781 0.1230
C34 C 0.1815(3) -0.12217(16) 0.08508(10)
H31 H 0.2343 -0.1504 0.0560
H32 H 0.2471 -0.0923 0.1086
C35 C 0.1070(4) -0.1851(2) 0.12030(15)
H33 H 0.0508 -0.1576 0.1480
H34 H 0.1742 -0.2197 0.1388
H35 H 0.0485 -0.2184 0.0966
Si1 Si 0.06315(6) -0.04831(4) 0.05191(2)
C36 C -0.0150(4) 0.0131(2) 0.10756(14)
H36 H -0.0848 -0.0201 0.1266
H37 H 0.0566 0.0268 0.1349
C37 C -0.0803(6) 0.0897(3) 0.08819(19)
H38 H -0.0107 0.1249 0.0717
H39 H -0.1227 0.1174 0.1195
H40 H -0.1503 0.0770 0.0606
C45 C -0.434(2) 0.2325(8) -0.2531(6)
H57 H -0.5251 0.2484 -0.2668
H58 H -0.3654 0.2478 -0.2813
Cl3 Cl -0.3980(5) 0.2860(7) -0.1903(2)
Cl4 Cl -0.4296(9) 0.1266(5) -0.2433(3)
C38? C 0.4826(17) 0.1885(10) 0.0522(8)
C39? C 0.564(2) 0.2422(12) 0.0139(9)
H41? H 0.6368 0.2105 -0.0034
H42? H 0.6038 0.2869 0.0350
H43? H 0.5033 0.2640 -0.0147
C40? C 0.566(3) 0.1248(16) 0.0814(14)
H44? H 0.5952 0.0835 0.0549
H45? H 0.5106 0.0994 0.1103
H46? H 0.6468 0.1500 0.0981
C41? C 0.395(2) 0.2358(12) 0.0926(9)
H47? H 0.4492 0.2800 0.1085
H48? H 0.3640 0.1998 0.1222
H49? H 0.3158 0.2583 0.0733
C42? C -0.0264(12) 0.0405(7) 0.0892(4)
H50? H 0.0417 0.0835 0.0965
H51? H -0.0972 0.0633 0.0646
C43? C -0.0915(16) 0.0168(10) 0.1423(5)
H52? H -0.1457 -0.0324 0.1369
H53? H -0.1512 0.0606 0.1551
H54? H -0.0205 0.0066 0.1700
C44? C -0.4328(7) 0.2453(3) -0.2496(2)
H55? H -0.5299 0.2371 -0.2596
H56? H -0.3791 0.2484 -0.2842
Cl1? Cl -0.41581(18) 0.33799(11) -0.21278(10)
Cl2? Cl -0.3764(2) 0.16377(16) -0.21068(10)
loop_
_geom_bond_atom_site_label_1
_geom_bond_atom_site_label_2
_geom_bond_site_symmetry_1
_geom_bond_site_symmetry_2
S1 N1 1_555 1_555
N1 C1 1_555 1_555
O1 C13 1_555 1_555
O2 C11 1_555 1_555
C1 H1 1_555 1_555
O3 C10 1_555 1_555
C2 C1 1_555 1_555
O4 S1 1_555 1_555
C3 C2 1_555 1_555
O5 S1 1_555 1_555
C4 C3 1_555 1_555
H2 C4 1_555 1_555
C5 C4 1_555 1_555
H3 C5 1_555 1_555
C6 C5 1_555 1_555
H4 C6 1_555 1_555
C7 C6 1_555 1_555
H5 C7 1_555 1_555
C8 N1 1_555 1_555
N2 C1 1_555 1_555
C9 N2 1_555 1_555
H6 C9 1_555 1_555
C10 C2 1_555 1_555
H7 C10 1_555 1_555
C11 C9 1_555 1_555
N3 C11 1_555 1_555
C12 N3 1_555 1_555
H8 C12 1_555 1_555
H9 C12 1_555 1_555
C13 N2 1_555 1_555
C14 N3 1_555 1_555
H10 C14 1_555 1_555
H11 C14 1_555 1_555
H12 C14 1_555 1_555
C15 S1 1_555 1_555
C16 C15 1_555 1_555
H13 C16 1_555 1_555
C17 C16 1_555 1_555
H14 C17 1_555 1_555
C18 C17 1_555 1_555
H15 C18 1_555 1_555
C19 C18 1_555 1_555
H16 C19 1_555 1_555
C20 C15 1_555 1_555
H17 C20 1_555 1_555
N4 C21 1_555 1_555
C21 C22 1_555 1_555
C22 C2 1_555 1_555
C23 C22 1_555 1_555
C24 C23 1_555 1_555
H18 C24 1_555 1_555
C25 C24 1_555 1_555
H19 C25 1_555 1_555
O6 C29 1_555 1_555
C26 C25 1_555 1_555
H20 C26 1_555 1_555
C27 C26 1_555 1_555
H21 C27 1_555 1_555
C28 N4 1_555 1_555
C29 N4 1_555 1_555
O7 C29 1_555 1_555
C30 O7 1_555 1_555
C31 C30 1_555 1_555
H22 C31 1_555 1_555
H23 C31 1_555 1_555
H24 C31 1_555 1_555
C32 C30 1_555 1_555
H25 C32 1_555 1_555
H26 C32 1_555 1_555
H27 C32 1_555 1_555
C33 C30 1_555 1_555
H28 C33 1_555 1_555
H29 C33 1_555 1_555
H30 C33 1_555 1_555
C34 H31 1_555 1_555
H32 C34 1_555 1_555
C35 C34 1_555 1_555
H33 C35 1_555 1_555
H34 C35 1_555 1_555
H35 C35 1_555 1_555
Si1 O3 1_555 1_555
C36 Si1 1_555 1_555
H36 C36 1_555 1_555
H37 C36 1_555 1_555
C37 C36 1_555 1_555
H38 C37 1_555 1_555
H39 C37 1_555 1_555
H40 C37 1_555 1_555
C45 H57 1_555 1_555
H58 C45 1_555 1_555
Cl3 C45 1_555 1_555
Cl4 C45 1_555 1_555
C3 C8 1_555 1_555
C7 C8 1_555 1_555
C9 C10 1_555 1_555
C12 C13 1_555 1_555
C19 C20 1_555 1_555
C21 Si1 1_555 1_555
C23 C28 1_555 1_555
C27 C28 1_555 1_555
C34 Si1 1_555 1_555

#END
