
#######################################################################
#
#                 Cambridge Crystallographic Data Centre
#                                CCDC 
#
#######################################################################
#
# If this CIF has been generated from an entry in the Cambridge 
# Structural Database, then it will include bibliographic, chemical, 
# crystal, experimental, refinement or atomic coordinate data resulting 
# from the CCDC's data processing and validation procedures.
#
#######################################################################

data_BIBMOQ
_chemical_formula_moiety         'C30 H22 O4,2(C4 H8 O1)'
_chemical_name_systematic        
"4,4'-(1,4-Diphenylbuta-1,3-diene-1,4-diyl)dibenzoic acid tetrahydrofuran solvate"
_symmetry_cell_setting           triclinic
_symmetry_space_group_name_H-M   'P -1'
_symmetry_Int_Tables_number      2
_space_group_name_Hall           '-P 1'
loop_
_symmetry_equiv_pos_site_id
_symmetry_equiv_pos_as_xyz
1 x,y,z
2 -x,-y,-z
_cell_length_a                   6.1724(5)
_cell_length_b                   7.5580(7)
_cell_length_c                   17.4798(17)
_cell_angle_alpha                94.621(7)
_cell_angle_beta                 94.116(7)
_cell_angle_gamma                97.738(6)
_cell_volume                     802.575
_cell_formula_units_Z            1
loop_
_atom_site_label
_atom_site_type_symbol
_atom_site_fract_x
_atom_site_fract_y
_atom_site_fract_z
O1 O 0.7420(14) 0.6587(9) 0.1250(6)
H1 H 0.7501 0.7117 0.0859
O2 O 0.4468(15) 0.7627(10) 0.1060(7)
C1 C 0.545(3) 0.684(2) 0.1582(15)
C2 C 0.504(3) 0.603(2) 0.2254(12)
C3 C 0.641(2) 0.5106(17) 0.2540(12)
H2 H 0.7706 0.4897 0.2334
C4 C 0.566(2) 0.4452(18) 0.3211(11)
H3 H 0.6534 0.3769 0.3485
C5 C 0.379(3) 0.475(2) 0.3477(11)
C6 C 0.242(2) 0.5736(17) 0.3133(11)
H4 H 0.1116 0.5935 0.3337
C7 C 0.304(2) 0.6465(16) 0.2448(10)
H5 H 0.2203 0.7155 0.2163
C8 C 0.291(3) 0.390(2) 0.4154(13)
C9 C 0.4033(15) 0.4307(15) 0.4881(11)
H6 H 0.3509 0.3624 0.5266
C10 C 0.085(3) 0.250(2) 0.4127(12)
C11 C 0.065(2) 0.1516(18) 0.3422(9)
H7 H 0.1611 0.1731 0.3043
C12 C -0.127(2) 0.0073(18) 0.3330(9)
H8 H -0.1474 -0.0731 0.2891
C13 C -0.271(2) -0.0088(18) 0.3875(10)
H9 H -0.3969 -0.0928 0.3774
C14 C -0.240(3) 0.0976(18) 0.4600(9)
H10 H -0.3333 0.0803 0.4990
C15 C -0.054(2) 0.2318(17) 0.4669(9)
H11 H -0.0284 0.3107 0.5113
O1A O 0.2580(14) 0.3413(9) 0.8750(6)
H1A H 0.2499 0.2883 0.9141
O2A O 0.5532(15) 0.2373(10) 0.8940(7)
C1A C 0.455(3) 0.316(2) 0.8418(15)
C2A C 0.496(3) 0.397(2) 0.7746(12)
C3A C 0.359(2) 0.4894(17) 0.7460(12)
H2A H 0.2294 0.5103 0.7666
C4A C 0.434(2) 0.5548(18) 0.6789(11)
H3A H 0.3466 0.6231 0.6515
C5A C 0.621(3) 0.525(2) 0.6523(11)
C6A C 0.758(2) 0.4264(17) 0.6867(11)
H4A H 0.8884 0.4065 0.6663
C7A C 0.696(2) 0.3535(16) 0.7552(10)
H5A H 0.7797 0.2845 0.7837
C8A C 0.709(3) 0.610(2) 0.5846(13)
C9A C 0.5967(15) 0.5693(15) 0.5119(11)
H6A H 0.6491 0.6376 0.4734
C10A C 0.915(3) 0.750(2) 0.5873(12)
C11A C 0.935(2) 0.8484(18) 0.6578(9)
H7A H 0.8389 0.8269 0.6957
C12A C 1.127(2) 0.9927(18) 0.6670(9)
H8A H 1.1474 1.0731 0.7109
C13A C 1.271(2) 1.0088(18) 0.6125(10)
H9A H 1.3969 1.0928 0.6226
C14A C 1.240(3) 0.9024(18) 0.5400(9)
H10A H 1.3333 0.9197 0.5010
C15A C 1.054(2) 0.7682(17) 0.5331(9)
H11A H 1.0284 0.6893 0.4887
O3 O 0.8355(18) 0.7437(13) 0.9861(8)
C16 C 1.008(2) 0.707(2) 0.9446(11)
H12 H 0.9877 0.5803 0.9262
H13 H 1.1444 0.7332 0.9772
C17 C 1.017(2) 0.8115(19) 0.8817(10)
H14 H 1.0513 0.7426 0.8360
H15 H 1.1282 0.9161 0.8929
C18 C 0.800(2) 0.8642(18) 0.8709(10)
H16 H 0.8119 0.9918 0.8655
H17 H 0.7213 0.8000 0.8248
C19 C 0.688(3) 0.822(2) 0.9370(12)
H18 H 0.6481 0.9292 0.9630
H19 H 0.5559 0.7378 0.9221
loop_
_geom_bond_atom_site_label_1
_geom_bond_atom_site_label_2
_geom_bond_site_symmetry_1
_geom_bond_site_symmetry_2
O1 H1 1_555 1_555
O2 C1 1_555 1_555
C1 O1 1_555 1_555
C2 C1 1_555 1_555
C3 C2 1_555 1_555
H2 C3 1_555 1_555
C4 C3 1_555 1_555
H3 C4 1_555 1_555
C5 C4 1_555 1_555
C6 C5 1_555 1_555
H4 C6 1_555 1_555
C7 C2 1_555 1_555
H5 C7 1_555 1_555
C8 C5 1_555 1_555
C9 C8 1_555 1_555
H6 C9 1_555 1_555
C10 C8 1_555 1_555
C11 C10 1_555 1_555
H7 C11 1_555 1_555
C12 C11 1_555 1_555
H8 C12 1_555 1_555
C13 C12 1_555 1_555
H9 C13 1_555 1_555
C14 C13 1_555 1_555
H10 C14 1_555 1_555
C15 C10 1_555 1_555
H11 C15 1_555 1_555
O3 C16 1_555 1_555
C16 H12 1_555 1_555
H13 C16 1_555 1_555
C17 C16 1_555 1_555
H14 C17 1_555 1_555
H15 C17 1_555 1_555
C18 C17 1_555 1_555
H16 C18 1_555 1_555
H17 C18 1_555 1_555
C19 O3 1_555 1_555
H18 C19 1_555 1_555
H19 C19 1_555 1_555
O1A H1A 1_555 1_555
O2A C1A 1_555 1_555
C1A O1A 1_555 1_555
C2A C1A 1_555 1_555
C3A C2A 1_555 1_555
H2A C3A 1_555 1_555
C4A C3A 1_555 1_555
H3A C4A 1_555 1_555
C5A C4A 1_555 1_555
C6A C5A 1_555 1_555
H4A C6A 1_555 1_555
C7A C2A 1_555 1_555
H5A C7A 1_555 1_555
C8A C5A 1_555 1_555
C9A C9 1_555 1_555
H6A C9A 1_555 1_555
C10A C8A 1_555 1_555
C11A C10A 1_555 1_555
H7A C11A 1_555 1_555
C12A C11A 1_555 1_555
H8A C12A 1_555 1_555
C13A C12A 1_555 1_555
H9A C13A 1_555 1_555
C14A C13A 1_555 1_555
H10A C14A 1_555 1_555
C15A C10A 1_555 1_555
H11A C15A 1_555 1_555
C6 C7 1_555 1_555
C14 C15 1_555 1_555
C18 C19 1_555 1_555
C6A C7A 1_555 1_555
C8A C9A 1_555 1_555
C14A C15A 1_555 1_555

#END
