
#######################################################################
#
#                 Cambridge Crystallographic Data Centre
#                                CCDC 
#
#######################################################################
#
# If this CIF has been generated from an entry in the Cambridge 
# Structural Database, then it will include bibliographic, chemical, 
# crystal, experimental, refinement or atomic coordinate data resulting 
# from the CCDC's data processing and validation procedures.
#
#######################################################################

data_BIBQAH
_chemical_formula_moiety         'C4 H1 N5 O5,H2 O1'
_chemical_name_systematic        
'3-(4-nitro-1,2,5-oxadiazol-3-yl)-1,2,4-oxadiazol-5(4H)-one monohydrate'
_symmetry_cell_setting           orthorhombic
_symmetry_space_group_name_H-M   'P b c a'
_symmetry_Int_Tables_number      61
_space_group_name_Hall           '-P 2ac 2ab'
loop_
_symmetry_equiv_pos_site_id
_symmetry_equiv_pos_as_xyz
1 x,y,z
2 1/2-x,-y,1/2+z
3 -x,1/2+y,1/2-z
4 1/2+x,1/2-y,-z
5 -x,-y,-z
6 1/2+x,y,1/2-z
7 x,1/2-y,1/2+z
8 1/2-x,1/2+y,z
_cell_length_a                   8.7552(8)
_cell_length_b                   8.1840(6)
_cell_length_c                   22.4827(17)
_cell_angle_alpha                90
_cell_angle_beta                 90
_cell_angle_gamma                90
_cell_volume                     1610.94
_exptl_crystal_description       block
_cell_formula_units_Z            8
loop_
_atom_site_label
_atom_site_type_symbol
_atom_site_fract_x
_atom_site_fract_y
_atom_site_fract_z
C1 C 0.5450(3) 0.7021(3) 0.69565(10)
C2 C 0.5091(3) 0.7954(3) 0.64435(10)
C3 C 0.5542(3) 0.9575(3) 0.62313(10)
C4 C 0.5467(3) 1.1805(3) 0.56996(10)
N1 N 0.4735(3) 0.5638(2) 0.69490(9)
N2 N 0.4131(3) 0.7108(2) 0.61251(9)
N3 N 0.6466(3) 0.7382(3) 0.74532(9)
N4 N 0.6690(3) 1.0396(2) 0.64303(9)
N5 N 0.4749(2) 1.0363(2) 0.57960(8)
H1 H 0.396(3) 1.005(3) 0.5580(10)
O1 O 0.3918(2) 0.5661(2) 0.64296(8)
O2 O 0.6173(3) 0.6745(3) 0.79289(8)
O3 O 0.7534(2) 0.8288(2) 0.73531(7)
O4 O 0.6649(2) 1.18671(18) 0.60904(7)
O5 O 0.5189(2) 1.28873(19) 0.53475(8)
O6 O 0.2633(2) 1.4766(2) 0.50722(8)
H2 H 0.314(3) 1.555(3) 0.4951(11)
H3 H 0.327(3) 1.410(3) 0.5156(11)
loop_
_geom_bond_atom_site_label_1
_geom_bond_atom_site_label_2
_geom_bond_site_symmetry_1
_geom_bond_site_symmetry_2
C1 C2 1_555 1_555
C2 C3 1_555 1_555
C3 N4 1_555 1_555
C4 N5 1_555 1_555
N1 C1 1_555 1_555
N2 C2 1_555 1_555
N3 C1 1_555 1_555
N4 O4 1_555 1_555
N5 C3 1_555 1_555
H1 N5 1_555 1_555
O1 N1 1_555 1_555
O2 N3 1_555 1_555
O3 N3 1_555 1_555
O4 C4 1_555 1_555
O5 C4 1_555 1_555
O6 H2 1_555 1_555
H3 O6 1_555 1_555
N2 O1 1_555 1_555

#END
