
#######################################################################
#
#                 Cambridge Crystallographic Data Centre
#                                CCDC 
#
#######################################################################
#
# If this CIF has been generated from an entry in the Cambridge 
# Structural Database, then it will include bibliographic, chemical, 
# crystal, experimental, refinement or atomic coordinate data resulting 
# from the CCDC's data processing and validation procedures.
#
#######################################################################

data_BIBSUB
_chemical_formula_moiety         'C33 H32 N2 P2 S2'
_chemical_name_systematic        
3,4-bis((diphenylthiophosphoryl)methylamino)toluene
_symmetry_cell_setting           triclinic
_symmetry_space_group_name_H-M   'P -1'
_symmetry_Int_Tables_number      2
_space_group_name_Hall           '-P 1'
loop_
_symmetry_equiv_pos_site_id
_symmetry_equiv_pos_as_xyz
1 x,y,z
2 -x,-y,-z
_cell_length_a                   10.788(5)
_cell_length_b                   16.64(1)
_cell_length_c                   9.196(4)
_cell_angle_alpha                96.81(5)
_cell_angle_beta                 110.37(4)
_cell_angle_gamma                73.51(5)
_cell_volume                     1483.55
_exptl_crystal_description       block
_cell_formula_units_Z            2
_exptl_crystal_recrystallization_method 
'diethyl ether/petroleum ether/dichloromethane'
loop_
_atom_site_label
_atom_site_type_symbol
_atom_site_fract_x
_atom_site_fract_y
_atom_site_fract_z
S1 S -0.2978(2) 0.1033(1) -0.5269(2)
S2 S 0.2397(2) 0.3641(1) -0.0996(2)
P1 P -0.1393(2) 0.1479(1) -0.4219(2)
P2 P 0.3437(2) 0.3238(1) 0.1101(2)
N1 N 0.0991(5) 0.1110(3) -0.1689(6)
N2 N 0.3040(5) 0.1721(4) 0.0208(6)
C1 C 0.2064(6) 0.0546(5) -0.0570(7)
C2 C 0.3146(6) 0.0886(5) 0.0389(7)
C3 C 0.4227(6) 0.0360(5) 0.1480(7)
C4 C 0.4245(6) -0.0456(5) 0.1620(8)
C5 C 0.3194(7) -0.0778(5) 0.0687(8)
C6 C 0.2117(6) -0.0258(5) -0.0420(8)
C7 C 0.5409(7) -0.1016(6) 0.288(1)
C8 C -0.0155(6) 0.0774(4) -0.2697(7)
C9 C -0.0561(7) 0.1631(5) -0.5496(8)
C10 C 0.0765(7) 0.1174(5) -0.5423(9)
C11 C 0.1265(8) 0.1261(6) -0.655(1)
C12 C 0.052(1) 0.1798(7) -0.774(1)
C13 C -0.0805(9) 0.2266(6) -0.783(1)
C14 C -0.1306(8) 0.2160(5) -0.670(1)
C15 C -0.1813(7) 0.2477(5) -0.3272(8)
C16 C -0.0939(7) 0.2967(5) -0.2738(8)
C17 C -0.1223(9) 0.3724(6) -0.198(1)
C18 C -0.247(1) 0.3968(7) -0.170(1)
C19 C -0.337(1) 0.3495(8) -0.223(1)
C20 C -0.3063(8) 0.2731(6) -0.297(1)
C21 C 0.4141(6) 0.2115(4) 0.1091(8)
C22 C 0.4837(6) 0.3719(4) 0.2019(9)
C23 C 0.546(1) 0.3939(8) 0.116(1)
C24 C 0.648(1) 0.4357(9) 0.180(1)
C25 C 0.6840(7) 0.4584(6) 0.328(1)
C26 C 0.6272(9) 0.4351(7) 0.418(1)
C27 C 0.5262(8) 0.3923(6) 0.355(1)
C28 C 0.2469(6) 0.3439(5) 0.2418(9)
C29 C 0.2918(7) 0.3014(5) 0.377(1)
C30 C 0.219(1) 0.3201(6) 0.4808(9)
C31 C 0.096(1) 0.3824(7) 0.443(1)
C32 C 0.0491(8) 0.4231(6) 0.308(1)
C33 C 0.1227(7) 0.4065(5) 0.2054(9)
H1 H 0.0458 0.1774 -0.1655
H2 H 0.2542 0.2352 -0.0329
H3 H 0.4961 0.0579 0.2137
H4 H 0.3193 -0.1348 0.0787
H5 H 0.1399 -0.0477 -0.1108
H6 H 0.6085 -0.0730 0.3415
H7 H 0.5045 -0.1162 0.3587
H8 H 0.5805 -0.1515 0.2399
H9 H 0.0218 0.0270 -0.3176
H10 H -0.0612 0.0661 -0.2070
H11 H 0.1314 0.0803 -0.4583
H12 H 0.2153 0.0934 -0.6519
H13 H 0.0892 0.1852 -0.8511
H14 H -0.1340 0.2653 -0.8653
H15 H -0.2208 0.2476 -0.6769
H16 H -0.0077 0.2776 -0.2887
H17 H -0.0592 0.4072 -0.1669
H18 H -0.2682 0.4477 -0.1119
H19 H -0.4223 0.3697 -0.2086
H20 H -0.3687 0.2387 -0.3281
H21 H 0.4525 0.1923 0.2127
H22 H 0.4835 0.1977 0.0622
H23 H 0.5188 0.3823 0.0088
H24 H 0.6905 0.4496 0.1157
H25 H 0.7500 0.4891 0.3694
H26 H 0.6555 0.4473 0.5269
H27 H 0.4850 0.3775 0.4199
H28 H 0.3752 0.2586 0.4016
H29 H 0.2505 0.2912 0.5763
H30 H 0.0433 0.3963 0.5104
H31 H -0.0358 0.4656 0.2822
H32 H 0.0890 0.4362 0.1105
loop_
_geom_bond_atom_site_label_1
_geom_bond_atom_site_label_2
_geom_bond_site_symmetry_1
_geom_bond_site_symmetry_2
S1 P1 1_555 1_555
S2 P2 1_555 1_555
P1 C8 1_555 1_555
P2 C21 1_555 1_555
N1 C1 1_555 1_555
N2 C2 1_555 1_555
C1 C2 1_555 1_555
C2 C3 1_555 1_555
C3 C4 1_555 1_555
C4 C5 1_555 1_555
C5 C6 1_555 1_555
C6 C1 1_555 1_555
C7 C4 1_555 1_555
C8 N1 1_555 1_555
C9 P1 1_555 1_555
C10 C9 1_555 1_555
C11 C10 1_555 1_555
C12 C11 1_555 1_555
C13 C12 1_555 1_555
C14 C9 1_555 1_555
C15 P1 1_555 1_555
C16 C15 1_555 1_555
C17 C16 1_555 1_555
C18 C17 1_555 1_555
C19 C18 1_555 1_555
C20 C15 1_555 1_555
C21 N2 1_555 1_555
C22 P2 1_555 1_555
C23 C22 1_555 1_555
C24 C23 1_555 1_555
C25 C24 1_555 1_555
C26 C25 1_555 1_555
C27 C22 1_555 1_555
C28 P2 1_555 1_555
C29 C28 1_555 1_555
C30 C29 1_555 1_555
C31 C30 1_555 1_555
C32 C31 1_555 1_555
C33 C28 1_555 1_555
H1 N1 1_555 1_555
H2 N2 1_555 1_555
H3 C3 1_555 1_555
H4 C5 1_555 1_555
H5 C6 1_555 1_555
H6 C7 1_555 1_555
H7 C7 1_555 1_555
H8 C7 1_555 1_555
H9 C8 1_555 1_555
H10 C8 1_555 1_555
H11 C10 1_555 1_555
H12 C11 1_555 1_555
H13 C12 1_555 1_555
H14 C13 1_555 1_555
H15 C14 1_555 1_555
H16 C16 1_555 1_555
H17 C17 1_555 1_555
H18 C18 1_555 1_555
H19 C19 1_555 1_555
H20 C20 1_555 1_555
H21 C21 1_555 1_555
H22 C21 1_555 1_555
H23 C23 1_555 1_555
H24 C24 1_555 1_555
H25 C25 1_555 1_555
H26 C26 1_555 1_555
H27 C27 1_555 1_555
H28 C29 1_555 1_555
H29 C30 1_555 1_555
H30 C31 1_555 1_555
H31 C32 1_555 1_555
H32 C33 1_555 1_555
C13 C14 1_555 1_555
C19 C20 1_555 1_555
C26 C27 1_555 1_555
C32 C33 1_555 1_555

#END
