
#######################################################################
#
#                 Cambridge Crystallographic Data Centre
#                                CCDC 
#
#######################################################################
#
# If this CIF has been generated from an entry in the Cambridge 
# Structural Database, then it will include bibliographic, chemical, 
# crystal, experimental, refinement or atomic coordinate data resulting 
# from the CCDC's data processing and validation procedures.
#
#######################################################################

data_BIBTUC
_chemical_formula_moiety         'C5 H13 B1 N2 O2'
_chemical_name_systematic        piperazine(carboxy)borate
_chemical_properties_biological  'potential antineoplastic agent'
_symmetry_cell_setting           orthorhombic
_symmetry_space_group_name_H-M   'P b c a'
_symmetry_Int_Tables_number      61
_space_group_name_Hall           '-P 2ac 2ab'
loop_
_symmetry_equiv_pos_site_id
_symmetry_equiv_pos_as_xyz
1 x,y,z
2 1/2+x,y,1/2-z
3 x,1/2-y,1/2+z
4 1/2-x,1/2+y,z
5 -x,-y,-z
6 1/2-x,-y,1/2+z
7 -x,1/2+y,1/2-z
8 1/2+x,1/2-y,-z
_cell_length_a                   10.976(1)
_cell_length_b                   11.650(1)
_cell_length_c                   12.183(1)
_cell_angle_alpha                90
_cell_angle_beta                 90
_cell_angle_gamma                90
_cell_volume                     1557.85
_exptl_crystal_colour            colorless
_exptl_crystal_description       prismatic
_cell_formula_units_Z            8
loop_
_atom_site_label
_atom_site_type_symbol
_atom_site_fract_x
_atom_site_fract_y
_atom_site_fract_z
C1 C 0.12850(14) 0.48705(12) 0.13766(12)
B1 B 0.0162(2) 0.5365(2) 0.20815(15)
H1 H 0.0462(17) 0.5731(15) 0.2904(15)
H2 H -0.0475(17) 0.4674(15) 0.2182(15)
O1 O 0.14973(10) 0.51247(10) 0.04117(8)
O2 O 0.20055(10) 0.40802(10) 0.18360(10)
H3 H 0.1805(19) 0.4004(18) 0.2603(22)
N1 N -0.04975(11) 0.63244(10) 0.13638(10)
H4 H -0.0562(15) 0.6031(15) 0.0719(15)
C2 C 0.01952(14) 0.74240(13) 0.13057(13)
H5 H 0.10023(14) 0.72747(13) 0.10144(13)
H6 H 0.02888(14) 0.77329(13) 0.20403(13)
C3 C -0.0434(2) 0.82993(14) 0.05933(15)
H7 H 0.0028(2) 0.90093(14) 0.05940(15)
H8 H -0.0477(2) 0.80200(14) -0.01558(15)
N2 N -0.16711(14) 0.85127(12) 0.10122(12)
H9 H -0.2029(18) 0.9014(17) 0.0600(17)
C4 C -0.2377(2) 0.74431(15) 0.10010(14)
H10 H -0.2432(2) 0.71541(15) 0.02560(14)
H11 H -0.3196(2) 0.75900(15) 0.12639(14)
C5 C -0.17701(13) 0.65585(13) 0.17240(14)
H12 H -0.17630(13) 0.68314(13) 0.24762(14)
H13 H -0.22361(13) 0.58515(13) 0.17020(14)
loop_
_geom_bond_atom_site_label_1
_geom_bond_atom_site_label_2
_geom_bond_site_symmetry_1
_geom_bond_site_symmetry_2
C1 B1 1_555 1_555
B1 H1 1_555 1_555
H2 B1 1_555 1_555
O1 C1 1_555 1_555
O2 C1 1_555 1_555
H3 O2 1_555 1_555
N1 B1 1_555 1_555
H4 N1 1_555 1_555
C2 N1 1_555 1_555
H5 C2 1_555 1_555
H6 C2 1_555 1_555
C3 C2 1_555 1_555
H7 C3 1_555 1_555
H8 C3 1_555 1_555
N2 C3 1_555 1_555
H9 N2 1_555 1_555
C4 N2 1_555 1_555
H10 C4 1_555 1_555
H11 C4 1_555 1_555
C5 N1 1_555 1_555
H12 C5 1_555 1_555
H13 C5 1_555 1_555
C4 C5 1_555 1_555

#END
