
#######################################################################
#
#                 Cambridge Crystallographic Data Centre
#                                CCDC 
#
#######################################################################
#
# If this CIF has been generated from an entry in the Cambridge 
# Structural Database, then it will include bibliographic, chemical, 
# crystal, experimental, refinement or atomic coordinate data resulting 
# from the CCDC's data processing and validation procedures.
#
#######################################################################

data_BIBZUJ02
_chemical_formula_moiety         'C40 H28 N4 S2'
_chemical_name_systematic        
4,4'-[1,3]thiazolo[5,4-d][1,3]thiazole-2,5-diylbis(N,N-diphenylaniline)
_symmetry_cell_setting           triclinic
_symmetry_space_group_name_H-M   'P -1'
_symmetry_Int_Tables_number      2
_space_group_name_Hall           '-P 1'
loop_
_symmetry_equiv_pos_site_id
_symmetry_equiv_pos_as_xyz
1 x,y,z
2 -x,-y,-z
_cell_length_a                   6.693(6)
_cell_length_b                   9.665(7)
_cell_length_c                   12.870(12)
_cell_angle_alpha                96.34(3)
_cell_angle_beta                 93.87(3)
_cell_angle_gamma                96.89(3)
_cell_volume                     818.711
_cell_formula_units_Z            1
loop_
_atom_site_label
_atom_site_type_symbol
_atom_site_fract_x
_atom_site_fract_y
_atom_site_fract_z
C1 C 1.1328(19) 0.4657(12) 0.2676(10)
C2 C 1.035(2) 0.5837(16) 0.2801(12)
H1 H 0.9106 0.5813 0.3083
C3 C 1.133(3) 0.7091(15) 0.2482(14)
H2 H 1.0686 0.7894 0.2543
C4 C 1.320(3) 0.7161(16) 0.2084(12)
H3 H 1.3808 0.7999 0.1889
C5 C 1.413(2) 0.5993(14) 0.1983(10)
H4 H 1.5389 0.6023 0.1717
C6 C 1.321(2) 0.4761(13) 0.2275(10)
H5 H 1.3874 0.3967 0.2201
C7 C 1.1353(18) 0.2764(14) 0.3797(10)
C8 C 1.253(2) 0.3615(15) 0.4577(10)
H6 H 1.2668 0.4583 0.4570
C9 C 1.353(3) 0.3059(19) 0.5377(11)
H7 H 1.4304 0.3643 0.5918
C10 C 1.336(3) 0.163(2) 0.5357(12)
H8 H 1.4031 0.1250 0.5891
C11 C 1.224(2) 0.0762(16) 0.4579(11)
H9 H 1.2143 -0.0206 0.4579
C12 C 1.1232(19) 0.1333(14) 0.3780(10)
H10 H 1.0478 0.0745 0.3235
C13 C 0.8566(18) 0.2727(13) 0.2410(10)
C14 C 0.7135(17) 0.1931(13) 0.2912(10)
H11 H 0.7360 0.1822 0.3618
C15 C 0.5386(18) 0.1309(12) 0.2341(9)
H12 H 0.4474 0.0720 0.2658
C16 C 0.4926(17) 0.1531(11) 0.1302(9)
C17 C 0.6319(18) 0.2349(12) 0.0830(9)
H13 H 0.6032 0.2515 0.0141
C18 C 0.8204(19) 0.2952(12) 0.1373(9)
H14 H 0.9163 0.3482 0.1040
C19 C 0.2999(17) 0.0936(11) 0.0747(8)
C20 C -0.0026(17) 0.0307(11) -0.0450(9)
N1 N 1.0402(15) 0.3373(11) 0.2955(8)
N2 N 0.1675(15) 0.0036(10) 0.1135(8)
S1 S 0.2179(5) 0.1420(3) -0.0467(3)
C1A C -1.1328(19) -0.4657(12) -0.2676(10)
C2A C -1.035(2) -0.5837(16) -0.2801(12)
H1A H -0.9106 -0.5813 -0.3083
C3A C -1.133(3) -0.7091(15) -0.2482(14)
H2A H -1.0686 -0.7894 -0.2543
C4A C -1.320(3) -0.7161(16) -0.2084(12)
H3A H -1.3808 -0.7999 -0.1889
C5A C -1.413(2) -0.5993(14) -0.1983(10)
H4A H -1.5389 -0.6023 -0.1717
C6A C -1.321(2) -0.4761(13) -0.2275(10)
H5A H -1.3874 -0.3967 -0.2201
C7A C -1.1353(18) -0.2764(14) -0.3797(10)
C8A C -1.253(2) -0.3615(15) -0.4577(10)
H6A H -1.2668 -0.4583 -0.4570
C9A C -1.353(3) -0.3059(19) -0.5377(11)
H7A H -1.4304 -0.3643 -0.5918
C10A C -1.336(3) -0.163(2) -0.5357(12)
H8A H -1.4031 -0.1250 -0.5891
C11A C -1.224(2) -0.0762(16) -0.4579(11)
H9A H -1.2143 0.0206 -0.4579
C12A C -1.1232(19) -0.1333(14) -0.3780(10)
H10A H -1.0478 -0.0745 -0.3235
C13A C -0.8566(18) -0.2727(13) -0.2410(10)
C14A C -0.7135(17) -0.1931(13) -0.2912(10)
H11A H -0.7360 -0.1822 -0.3618
C15A C -0.5386(18) -0.1309(12) -0.2341(9)
H12A H -0.4474 -0.0720 -0.2658
C16A C -0.4926(17) -0.1531(11) -0.1302(9)
C17A C -0.6319(18) -0.2349(12) -0.0830(9)
H13A H -0.6032 -0.2515 -0.0141
C18A C -0.8204(19) -0.2952(12) -0.1373(9)
H14A H -0.9163 -0.3482 -0.1040
C19A C -0.2999(17) -0.0936(11) -0.0747(8)
C20A C 0.0026(17) -0.0307(11) 0.0450(9)
N1A N -1.0402(15) -0.3373(11) -0.2955(8)
N2A N -0.1675(15) -0.0036(10) -0.1135(8)
S1A S -0.2179(5) -0.1420(3) 0.0467(3)
loop_
_geom_bond_atom_site_label_1
_geom_bond_atom_site_label_2
_geom_bond_site_symmetry_1
_geom_bond_site_symmetry_2
C1 C2 1_555 1_555
C2 H1 1_555 1_555
C3 C2 1_555 1_555
H2 C3 1_555 1_555
C4 C3 1_555 1_555
H3 C4 1_555 1_555
C5 C4 1_555 1_555
H4 C5 1_555 1_555
C6 C1 1_555 1_555
H5 C6 1_555 1_555
C7 C8 1_555 1_555
C8 H6 1_555 1_555
C9 C8 1_555 1_555
H7 C9 1_555 1_555
C10 C9 1_555 1_555
H8 C10 1_555 1_555
C11 C10 1_555 1_555
H9 C11 1_555 1_555
C12 C7 1_555 1_555
H10 C12 1_555 1_555
C13 C14 1_555 1_555
C14 H11 1_555 1_555
C15 C14 1_555 1_555
H12 C15 1_555 1_555
C16 C15 1_555 1_555
C17 C16 1_555 1_555
H13 C17 1_555 1_555
C18 C13 1_555 1_555
H14 C18 1_555 1_555
C19 C16 1_555 1_555
C20 S1 1_555 1_555
N1 C1 1_555 1_555
N2 C19 1_555 1_555
S1 C19 1_555 1_555
C1A C2A 1_555 1_555
C2A H1A 1_555 1_555
C3A C2A 1_555 1_555
H2A C3A 1_555 1_555
C4A C3A 1_555 1_555
H3A C4A 1_555 1_555
C5A C4A 1_555 1_555
H4A C5A 1_555 1_555
C6A C1A 1_555 1_555
H5A C6A 1_555 1_555
C7A C8A 1_555 1_555
C8A H6A 1_555 1_555
C9A C8A 1_555 1_555
H7A C9A 1_555 1_555
C10A C9A 1_555 1_555
H8A C10A 1_555 1_555
C11A C10A 1_555 1_555
H9A C11A 1_555 1_555
C12A C7A 1_555 1_555
H10A C12A 1_555 1_555
C13A C14A 1_555 1_555
C14A H11A 1_555 1_555
C15A C14A 1_555 1_555
H12A C15A 1_555 1_555
C16A C15A 1_555 1_555
C17A C16A 1_555 1_555
H13A C17A 1_555 1_555
C18A C13A 1_555 1_555
H14A C18A 1_555 1_555
C19A C16A 1_555 1_555
C20A C20 1_555 1_555
N1A C1A 1_555 1_555
N2A C20 1_555 1_555
S1A C19A 1_555 1_555
C5 C6 1_555 1_555
C7 N1 1_555 1_555
C11 C12 1_555 1_555
C13 N1 1_555 1_555
C17 C18 1_555 1_555
N2 C20A 1_555 1_555
C5A C6A 1_555 1_555
C7A N1A 1_555 1_555
C11A C12A 1_555 1_555
C13A N1A 1_555 1_555
C17A C18A 1_555 1_555
C19A N2A 1_555 1_555
C20A S1A 1_555 1_555

#END
