
#######################################################################
#
#                 Cambridge Crystallographic Data Centre
#                                CCDC 
#
#######################################################################
#
# If this CIF has been generated from an entry in the Cambridge 
# Structural Database, then it will include bibliographic, chemical, 
# crystal, experimental, refinement or atomic coordinate data resulting 
# from the CCDC's data processing and validation procedures.
#
#######################################################################

data_BICBAS
_chemical_formula_moiety         'C40 H30 N4 S2 2+,2(C2 F3 O2 1-),4(H2 O1)'
_chemical_name_systematic        
'2,5-bis(4-(diphenylamino)phenyl)[1,3]thiazolo[5,4-d][1,3]thiazole-3,6-diium bis(trifluoroacetate) tetrahydrate'
_symmetry_cell_setting           triclinic
_symmetry_space_group_name_H-M   'P -1'
_symmetry_Int_Tables_number      2
_space_group_name_Hall           '-P 1'
loop_
_symmetry_equiv_pos_site_id
_symmetry_equiv_pos_as_xyz
1 x,y,z
2 -x,-y,-z
_cell_length_a                   11.445(2)
_cell_length_b                   12.104(2)
_cell_length_c                   17.978(4)
_cell_angle_alpha                77.35(3)
_cell_angle_beta                 76.40(3)
_cell_angle_gamma                65.63(3)
_cell_volume                     2183.96
_cell_formula_units_Z            2
loop_
_atom_site_label
_atom_site_type_symbol
_atom_site_fract_x
_atom_site_fract_y
_atom_site_fract_z
C1 C -0.1102(5) 0.2755(5) 0.2011(4)
H1 H -0.1316 0.2468 0.2528
C2 C -0.1880(7) 0.3909(7) 0.1690(6)
H2 H -0.2621 0.4402 0.1984
C3 C -0.1516(9) 0.4303(6) 0.0913(6)
H3 H -0.2017 0.5077 0.0692
C4 C -0.0491(8) 0.3614(6) 0.0487(4)
H4 H -0.0277 0.3887 -0.0032
C5 C 0.0258(6) 0.2492(5) 0.0813(3)
H5 H 0.0991 0.2010 0.0507
C6 C -0.0021(5) 0.2045(5) 0.1565(3)
C7 C 0.1120(5) -0.0122(4) 0.1454(3)
C8 C 0.0137(6) -0.0269(5) 0.1213(3)
H6 H -0.0723 0.0244 0.1354
C9 C 0.0418(7) -0.1165(6) 0.0769(4)
H7 H -0.0252 -0.1251 0.0609
C10 C 0.1673(7) -0.1928(5) 0.0562(4)
H8 H 0.1863 -0.2535 0.0262
C11 C 0.2665(6) -0.1789(5) 0.0805(4)
H9 H 0.3522 -0.2314 0.0670
C12 C 0.2397(5) -0.0884(5) 0.1243(3)
H10 H 0.3068 -0.0787 0.1394
C13 C 0.1407(4) 0.0725(4) 0.2503(3)
C14 C 0.1980(5) -0.0424(4) 0.2924(3)
H11 H 0.1888 -0.1101 0.2821
C15 C 0.2678(5) -0.0563(4) 0.3491(3)
H12 H 0.3055 -0.1335 0.3763
C16 C 0.2829(4) 0.0439(4) 0.3663(3)
C17 C 0.2200(5) 0.1573(4) 0.3269(3)
H13 H 0.2250 0.2259 0.3391
C18 C 0.1503(5) 0.1725(4) 0.2704(3)
H14 H 0.1090 0.2506 0.2453
C19 C 0.3651(4) 0.0279(4) 0.4213(3)
C20 C 0.4766(4) 0.0575(4) 0.5094(3)
N1 N 0.0792(4) 0.0852(4) 0.1885(2)
N2 N 0.4633(4) -0.0796(4) 0.4410(2)
H15 H 0.4837 -0.1484 0.4254
S1 S 0.34904(12) 0.15158(12) 0.46303(8)
C1A C 1.1102(5) -0.2755(5) 0.7989(4)
H1A H 1.1316 -0.2468 0.7472
C2A C 1.1880(7) -0.3909(7) 0.8310(6)
H2A H 1.2621 -0.4402 0.8016
C3A C 1.1516(9) -0.4303(6) 0.9087(6)
H3A H 1.2017 -0.5077 0.9308
C4A C 1.0491(8) -0.3614(6) 0.9513(4)
H4A H 1.0277 -0.3887 1.0032
C5A C 0.9742(6) -0.2492(5) 0.9187(3)
H5A H 0.9009 -0.2010 0.9493
C6A C 1.0021(5) -0.2045(5) 0.8435(3)
C7A C 0.8880(5) 0.0122(4) 0.8546(3)
C8A C 0.9863(6) 0.0269(5) 0.8787(3)
H6A H 1.0723 -0.0244 0.8646
C9A C 0.9582(7) 0.1165(6) 0.9231(4)
H7A H 1.0252 0.1251 0.9391
C10A C 0.8327(7) 0.1928(5) 0.9438(4)
H8A H 0.8137 0.2535 0.9738
C11A C 0.7335(6) 0.1789(5) 0.9195(4)
H9A H 0.6478 0.2314 0.9330
C12A C 0.7603(5) 0.0884(5) 0.8757(3)
H10A H 0.6932 0.0787 0.8606
C13A C 0.8593(4) -0.0725(4) 0.7497(3)
C14A C 0.8020(5) 0.0424(4) 0.7076(3)
H11A H 0.8112 0.1101 0.7179
C15A C 0.7322(5) 0.0563(4) 0.6509(3)
H12A H 0.6945 0.1335 0.6237
C16A C 0.7171(4) -0.0439(4) 0.6337(3)
C17A C 0.7800(5) -0.1573(4) 0.6731(3)
H13A H 0.7750 -0.2259 0.6609
C18A C 0.8497(5) -0.1725(4) 0.7296(3)
H14A H 0.8910 -0.2506 0.7547
C19A C 0.6349(4) -0.0279(4) 0.5787(3)
C20A C 0.5234(4) -0.0575(4) 0.4906(3)
N1A N 0.9208(4) -0.0852(4) 0.8115(2)
N2A N 0.5367(4) 0.0796(4) 0.5590(2)
H15A H 0.5163 0.1484 0.5746
S1A S 0.65096(12) -0.15158(12) 0.53697(8)
C21 C 0.376(2) 0.5324(12) 0.3225(10)
C22 C 0.3714(13) 0.5169(11) 0.4069(9)
F1 F 0.3187(16) 0.6356(10) 0.2942(8)
F2 F 0.3312(11) 0.4550(11) 0.3049(6)
F3 F 0.4985(15) 0.4944(14) 0.2891(9)
O1 O 0.4292(13) 0.4133(9) 0.4364(7)
O2 O 0.3077(13) 0.6105(10) 0.4312(9)
C23 C 0.9922(16) 0.5859(13) 0.2258(11)
C24 C 0.8951(15) 0.5571(9) 0.2885(8)
F4 F 0.9218(13) 0.6539(13) 0.1670(5)
F5 F 1.0756(12) 0.5060(9) 0.1952(11)
F6 F 1.0279(9) 0.6672(8) 0.2355(6)
O3 O 0.8018(8) 0.6409(11) 0.3122(5)
O4 O 0.938(2) 0.4533(8) 0.3140(6)
O5 O 0.5781(7) 0.6809(6) 0.4134(4)
O6 O 0.2386(13) 0.6451(9) 0.5823(8)
S2? S 0.02215(19) 1.1282(2) 0.54390(12)
S3? S 0.1273(2) 0.8613(3) 0.55528(15)
H16? H 0.1686 0.7839 0.5668
C25? C 0.4259(6) 0.7248(5) 0.8682(3)
H17? H 0.3433 0.7446 0.8576
C26? C 0.4929(8) 0.6094(6) 0.9034(4)
H18? H 0.4552 0.5513 0.9168
C27? C 0.6170(8) 0.5793(6) 0.9188(4)
H19? H 0.6636 0.5006 0.9410
C28? C 0.6697(7) 0.6663(6) 0.9012(4)
H20? H 0.7510 0.6482 0.9131
C29? C 0.6023(5) 0.7801(5) 0.8658(3)
H21? H 0.6395 0.8385 0.8530
C30? C 0.4815(5) 0.8104(5) 0.8488(3)
C31? C 0.4099(5) 1.0310(5) 0.8400(3)
C32? C 0.3790(6) 1.0382(6) 0.9188(3)
H22? H 0.3596 0.9760 0.9529
C33? C 0.3767(7) 1.1337(8) 0.9463(5)
H23? H 0.3575 1.1355 0.9994
C34? C 0.4017(7) 1.2273(8) 0.8988(7)
H24? H 0.3996 1.2929 0.9188
C35? C 0.4297(7) 1.2242(6) 0.8216(6)
H25? H 0.4450 1.2893 0.7886
C36? C 0.4363(5) 1.1244(5) 0.7901(4)
H26? H 0.4578 1.1219 0.7371
C37? C 0.3495(5) 0.9459(4) 0.7503(3)
C38? C 0.2407(5) 1.0537(5) 0.7368(3)
H27? H 0.2156 1.1171 0.7658
C39? C 0.1719(5) 1.0651(5) 0.6809(3)
H28? H 0.0993 1.1364 0.6731
C40? C 0.2064(5) 0.9741(5) 0.6355(3)
C41? C 0.3159(5) 0.8690(4) 0.6480(3)
H29? H 0.3419 0.8064 0.6182
C42? C 0.3853(5) 0.8568(5) 0.7034(3)
H30? H 0.4591 0.7862 0.7098
C43? C 0.1265(5) 0.9839(6) 0.5799(3)
C44? C -0.0258(5) 1.0611(4) 0.4963(3)
N3? N 0.4130(4) 0.9299(4) 0.8112(2)
N4? N 0.1273(2) 0.8613(3) 0.55528(15)
N5? N 0.02215(19) 1.1282(2) 0.54390(12)
H31? H 0.0042 1.2026 0.5492
loop_
_geom_bond_atom_site_label_1
_geom_bond_atom_site_label_2
_geom_bond_site_symmetry_1
_geom_bond_site_symmetry_2
C1 H1 1_555 1_555
C2 C1 1_555 1_555
H2 C2 1_555 1_555
C3 C2 1_555 1_555
H3 C3 1_555 1_555
C4 C3 1_555 1_555
H4 C4 1_555 1_555
C5 C4 1_555 1_555
H5 C5 1_555 1_555
C6 C1 1_555 1_555
C7 C8 1_555 1_555
C8 H6 1_555 1_555
C9 C8 1_555 1_555
H7 C9 1_555 1_555
C10 C9 1_555 1_555
H8 C10 1_555 1_555
C11 C10 1_555 1_555
H9 C11 1_555 1_555
C12 C7 1_555 1_555
H10 C12 1_555 1_555
C13 C14 1_555 1_555
C14 H11 1_555 1_555
C15 C14 1_555 1_555
H12 C15 1_555 1_555
C16 C15 1_555 1_555
C17 C16 1_555 1_555
H13 C17 1_555 1_555
C18 C13 1_555 1_555
H14 C18 1_555 1_555
C19 C16 1_555 1_555
C20 S1 1_555 1_555
N1 C6 1_555 1_555
N2 C19 1_555 1_555
H15 N2 1_555 1_555
S1 C19 1_555 1_555
C21 C22 1_555 1_555
C22 O1 1_555 1_555
F1 C21 1_555 1_555
F2 C21 1_555 1_555
F3 C21 1_555 1_555
O2 C22 1_555 1_555
C23 C24 1_555 1_555
C24 O3 1_555 1_555
F4 C23 1_555 1_555
F5 C23 1_555 1_555
F6 C23 1_555 1_555
O4 C24 1_555 1_555
C1A H1A 1_555 1_555
C2A C1A 1_555 1_555
H2A C2A 1_555 1_555
C3A C2A 1_555 1_555
H3A C3A 1_555 1_555
C4A C3A 1_555 1_555
H4A C4A 1_555 1_555
C5A C4A 1_555 1_555
H5A C5A 1_555 1_555
C6A C1A 1_555 1_555
C7A C8A 1_555 1_555
C8A H6A 1_555 1_555
C9A C8A 1_555 1_555
H7A C9A 1_555 1_555
C10A C9A 1_555 1_555
H8A C10A 1_555 1_555
C11A C10A 1_555 1_555
H9A C11A 1_555 1_555
C12A C7A 1_555 1_555
H10A C12A 1_555 1_555
C13A C14A 1_555 1_555
C14A H11A 1_555 1_555
C15A C14A 1_555 1_555
H12A C15A 1_555 1_555
C16A C15A 1_555 1_555
C17A C16A 1_555 1_555
H13A C17A 1_555 1_555
C18A C13A 1_555 1_555
H14A C18A 1_555 1_555
C19A C16A 1_555 1_555
C20A C20 1_555 1_555
N1A C6A 1_555 1_555
N2A C20 1_555 1_555
H15A N2A 1_555 1_555
S1A C19A 1_555 1_555
C5 C6 1_555 1_555
C7 N1 1_555 1_555
C11 C12 1_555 1_555
C13 N1 1_555 1_555
C17 C18 1_555 1_555
N2 C20A 1_555 1_555
C5A C6A 1_555 1_555
C7A N1A 1_555 1_555
C11A C12A 1_555 1_555
C13A N1A 1_555 1_555
C17A C18A 1_555 1_555
C19A N2A 1_555 1_555
C20A S1A 1_555 1_555

#END
