
#######################################################################
#
#                 Cambridge Crystallographic Data Centre
#                                CCDC 
#
#######################################################################
#
# If this CIF has been generated from an entry in the Cambridge 
# Structural Database, then it will include bibliographic, chemical, 
# crystal, experimental, refinement or atomic coordinate data resulting 
# from the CCDC's data processing and validation procedures.
#
#######################################################################

data_BICCUL
_chemical_formula_moiety         'C42 H72 O18'
_chemical_name_systematic        tris(Tetrahydroxymethylethylene)
_symmetry_cell_setting           triclinic
_symmetry_space_group_name_H-M   'P -1'
_symmetry_Int_Tables_number      2
_space_group_name_Hall           '-P 1'
loop_
_symmetry_equiv_pos_site_id
_symmetry_equiv_pos_as_xyz
1 x,y,z
2 -x,-y,-z
_cell_length_a                   11.841(6)
_cell_length_b                   17.390(9)
_cell_length_c                   11.551(6)
_cell_angle_alpha                95.46(4)
_cell_angle_beta                 107.65(4)
_cell_angle_gamma                91.30(4)
_cell_volume                     2252.94
_cell_formula_units_Z            2
loop_
_atom_site_label
_atom_site_type_symbol
_atom_site_fract_x
_atom_site_fract_y
_atom_site_fract_z
O1 O 0.41650 0.33330 0.41660
O2 O 0.56850 0.42380 0.71220
O3 O 0.70160 0.37140 0.95240
O4 O 0.99640 0.26090 1.03460
O6 O 1.22570 0.03160 0.96360
O7 O 0.99660 0.01590 0.70010
O8 O 0.80200 0.11510 0.64220
O9 O 0.61180 0.19590 0.48870
O10 O 0.66870 0.40520 0.27280
O11 O 0.81040 0.49110 0.49000
O12 O 0.88220 0.50340 0.76560
O13 O 1.13930 0.37510 0.84880
O14 O 1.39220 0.27820 0.92750
O15 O 1.47680 0.09500 0.84260
O16 O 1.24170 0.11380 0.60750
O17 O 1.05080 0.20030 0.46960
O18 O 0.82230 0.23440 0.31410
C1 C 0.53390 0.25750 0.31310
C2 C 0.43310 0.31650 0.30200
C3 C 0.51850 0.38010 0.50510
C4 C 0.46710 0.38970 0.61480
C5 C 0.54750 0.44310 0.82890
C6 C 0.67040 0.44390 0.92750
C7 C 0.75990 0.32850 0.87480
C8 C 0.88900 0.35730 0.92660
C9 C 0.95500 0.33670 1.06400
C10 C 1.03890 0.22440 1.15090
C12 C 1.21130 0.01270 1.07590
C13 C 1.20350 -0.03620 0.88230
C14 C 1.20460 -0.00970 0.76130
C15 C 1.08320 -0.02050 0.65180
C16 C 1.00750 0.09970 0.70600
C17 C 0.90970 0.13390 0.74760
C18 C 0.69960 0.14730 0.67540
C19 C 0.59670 0.13390 0.56530
C20 C 0.51480 0.18970 0.37380
C21 C 0.61810 0.26950 0.26290
C22 C 0.62340 0.33530 0.18510
C23 C 0.78810 0.42600 0.29380
C24 C 0.81960 0.50140 0.37250
C25 C 0.83850 0.56130 0.56890
C26 C 0.79470 0.54280 0.67210
C27 C 0.88560 0.42110 0.73150
C28 C 0.94430 0.39450 0.86510
C29 C 1.07450 0.42130 0.91390
C30 C 1.12690 0.32120 0.87540
C31 C 1.26960 0.26160 0.93930
C32 C 1.44770 0.21690 0.86070
C33 C 1.42780 0.14760 0.92130
C34 C 1.42060 0.01440 0.83340
C35 C 1.29890 0.01470 0.73570
C36 C 1.29790 0.03940 0.61470
C37 C 1.23080 0.13840 0.48510
C38 C 1.17740 0.21710 0.49030
C39 C 0.99050 0.27040 0.48200
C40 C 0.85860 0.24730 0.44770
C41 C 0.70400 0.20210 0.25100
O5 O 1.17100 0.11640 1.18700
C11 C 1.08760 0.12750 1.08780
loop_
_geom_bond_atom_site_label_1
_geom_bond_atom_site_label_2
_geom_bond_site_symmetry_1
_geom_bond_site_symmetry_2
O1 C2 1_555 1_555
O2 C4 1_555 1_555
O3 C6 1_555 1_555
O4 C9 1_555 1_555
O5 C11 1_555 1_555
O6 C12 1_555 1_555
O7 C15 1_555 1_555
O8 C17 1_555 1_555
O9 C19 1_555 1_555
O10 C22 1_555 1_555
O11 C24 1_555 1_555
O12 C26 1_555 1_555
O13 C29 1_555 1_555
O14 C31 1_555 1_555
O15 C33 1_555 1_555
O16 C36 1_555 1_555
O17 C38 1_555 1_555
O18 C40 1_555 1_555
C1 C2 1_555 1_555
C3 O1 1_555 1_555
C4 C3 1_555 1_555
C5 O2 1_555 1_555
C6 C5 1_555 1_555
C7 O3 1_555 1_555
C8 C7 1_555 1_555
C9 C8 1_555 1_555
C10 O4 1_555 1_555
C13 O6 1_555 1_555
C14 C13 1_555 1_555
C15 C14 1_555 1_555
C16 O7 1_555 1_555
C17 C16 1_555 1_555
C18 O8 1_555 1_555
C19 C18 1_555 1_555
C20 O9 1_555 1_555
C21 C1 1_555 1_555
C22 C21 1_555 1_555
C23 O10 1_555 1_555
C24 C23 1_555 1_555
C25 O11 1_555 1_555
C26 C25 1_555 1_555
C27 O12 1_555 1_555
C28 C8 1_555 1_555
C29 C28 1_555 1_555
C30 O13 1_555 1_555
C32 O14 1_555 1_555
C33 C32 1_555 1_555
C34 O15 1_555 1_555
C35 C14 1_555 1_555
C36 C35 1_555 1_555
C37 O16 1_555 1_555
C38 C37 1_555 1_555
C39 O17 1_555 1_555
C40 C39 1_555 1_555
C41 O18 1_555 1_555
C1 C20 1_555 1_555
C21 C41 1_555 1_555
C27 C28 1_555 1_555
C34 C35 1_555 1_555

#END
