
#######################################################################
#
#                 Cambridge Crystallographic Data Centre
#                                CCDC 
#
#######################################################################
#
# If this CIF has been generated from an entry in the Cambridge 
# Structural Database, then it will include bibliographic, chemical, 
# crystal, experimental, refinement or atomic coordinate data resulting 
# from the CCDC's data processing and validation procedures.
#
#######################################################################

data_BICFAX
_chemical_formula_moiety         'C27 H30 N2 O11 S1'
_chemical_name_systematic        
'triethyl 5-[(2-methoxyphenyl)methyl]-1-[(4-nitrophenyl)sulfonyl]-1,5-dihydro-2H-pyrrole-2,2,3-tricarboxylate'
_symmetry_cell_setting           monoclinic
_symmetry_space_group_name_H-M   'P 21/n'
_symmetry_Int_Tables_number      14
_space_group_name_Hall           '-P 2yn'
loop_
_symmetry_equiv_pos_site_id
_symmetry_equiv_pos_as_xyz
1 x,y,z
2 1/2-x,1/2+y,1/2-z
3 -x,-y,-z
4 1/2+x,1/2-y,1/2+z
_cell_length_a                   10.3778(2)
_cell_length_b                   10.7064(2)
_cell_length_c                   25.6220(5)
_cell_angle_alpha                90
_cell_angle_beta                 98.8670(10)
_cell_angle_gamma                90
_cell_volume                     2812.81
_exptl_crystal_colour            colorless
_exptl_crystal_description       Block
_cell_formula_units_Z            4
loop_
_atom_site_label
_atom_site_type_symbol
_atom_site_fract_x
_atom_site_fract_y
_atom_site_fract_z
S1 S 0.65850(3) 0.74355(3) 0.77580(2)
O1 O 0.63058(9) 0.87157(8) 0.78566(3)
O2 O 0.78763(8) 0.69614(9) 0.79091(3)
O3 O 0.33361(8) 0.82382(8) 0.76177(3)
O4 O 0.39347(9) 0.92351(8) 0.83914(3)
O5 O 0.18194(10) 0.51573(10) 0.86489(5)
O6 O 0.20196(9) 0.72429(9) 0.85912(4)
O7 O 0.46732(9) 0.70094(9) 0.92793(3)
O8 O 0.62983(8) 0.79785(8) 0.89536(3)
O9 O 0.50542(10) 0.33118(10) 0.88898(4)
O10 O 0.62174(15) 0.59732(15) 0.52291(4)
O11 O 0.46566(12) 0.72943(13) 0.51670(4)
N1 N 0.55581(9) 0.65964(9) 0.80293(4)
N2 N 0.55268(12) 0.66945(12) 0.54237(4)
C1 C 0.53396(11) 0.52505(10) 0.79004(4)
H1 H 0.521859 0.515019 0.750787
C2 C 0.40579(11) 0.50361(11) 0.80829(5)
H2 H 0.359248 0.427006 0.803614
C3 C 0.36411(11) 0.60234(11) 0.83160(4)
C4 C 0.45887(11) 0.71114(10) 0.83358(4)
C5 C 0.38867(11) 0.82707(11) 0.80662(5)
C6 C 0.32755(14) 1.03674(13) 0.81713(6)
H3 H 0.302255 1.087982 0.846077
H4 H 0.247087 1.013646 0.793051
C7 C 0.41439(17) 1.11172(14) 0.78744(7)
H5 H 0.439170 1.061135 0.758696
H6 H 0.492962 1.136557 0.811496
H7 H 0.367830 1.186499 0.772733
C8 C 0.24052(12) 0.60691(12) 0.85402(5)
C9 C 0.08468(16) 0.74238(16) 0.88268(8)
H8 H 0.097424 0.708774 0.919105
H9 H 0.010293 0.698149 0.861744
C10 C 0.0582(2) 0.8775(2) 0.88331(10)
H10 H 0.039673 0.908673 0.846958
H11 H 0.134578 0.920947 0.902203
H12 H -0.017248 0.892849 0.901185
C11 C 0.51820(11) 0.73629(11) 0.89168(5)
C12 C 0.69276(13) 0.82725(14) 0.94865(5)
H13 H 0.785118 0.849495 0.948064
H14 H 0.690840 0.752883 0.971479
C13 C 0.62497(17) 0.93420(16) 0.97106(6)
H15 H 0.621485 1.006015 0.947165
H16 H 0.673121 0.957151 1.005681
H17 H 0.536108 0.909156 0.974935
C14 C 0.64418(12) 0.43704(11) 0.81480(5)
H18 H 0.615541 0.349909 0.807018
H19 H 0.721111 0.451989 0.797111
C15 C 0.68663(12) 0.44890(11) 0.87377(5)
C16 C 0.61605(14) 0.39466(12) 0.91018(5)
C17 C 0.65894(16) 0.40483(15) 0.96433(6)
H20 H 0.609991 0.368442 0.988837
C18 C 0.77354(17) 0.46844(16) 0.98207(6)
H21 H 0.803043 0.475427 1.018935
C19 C 0.84499(16) 0.52150(15) 0.94705(6)
H22 H 0.923632 0.564792 0.959510
C20 C 0.80115(13) 0.51128(13) 0.89315(5)
H23 H 0.850887 0.547949 0.868980
C21 C 0.4141(2) 0.3039(2) 0.92336(8)
H24 H 0.332597 0.274144 0.902629
H25 H 0.396883 0.379667 0.942629
H26 H 0.449739 0.239165 0.948541
C22 C 0.62012(11) 0.71572(11) 0.70682(4)
C23 C 0.69537(12) 0.63086(11) 0.68377(5)
H27 H 0.761404 0.583975 0.705001
C24 C 0.67308(13) 0.61533(12) 0.62943(5)
H28 H 0.723562 0.558139 0.612693
C25 C 0.57554(12) 0.68513(12) 0.60020(5)
C26 C 0.49909(12) 0.76917(12) 0.62258(5)
H29 H 0.432453 0.815090 0.601232
C27 C 0.52188(12) 0.78491(12) 0.67694(5)
H30 H 0.471127 0.842143 0.693525
loop_
_geom_bond_atom_site_label_1
_geom_bond_atom_site_label_2
_geom_bond_site_symmetry_1
_geom_bond_site_symmetry_2
S1 O1 1_555 1_555
O2 S1 1_555 1_555
O3 C5 1_555 1_555
O4 C5 1_555 1_555
O5 C8 1_555 1_555
O6 C8 1_555 1_555
O7 C11 1_555 1_555
O8 C11 1_555 1_555
O9 C16 1_555 1_555
O10 N2 1_555 1_555
O11 N2 1_555 1_555
N1 S1 1_555 1_555
N2 C25 1_555 1_555
C1 N1 1_555 1_555
H1 C1 1_555 1_555
C2 C1 1_555 1_555
H2 C2 1_555 1_555
C3 C2 1_555 1_555
C4 N1 1_555 1_555
C5 C4 1_555 1_555
C6 O4 1_555 1_555
H3 C6 1_555 1_555
H4 C6 1_555 1_555
C7 C6 1_555 1_555
H5 C7 1_555 1_555
H6 C7 1_555 1_555
H7 C7 1_555 1_555
C8 C3 1_555 1_555
C9 O6 1_555 1_555
H8 C9 1_555 1_555
H9 C9 1_555 1_555
C10 C9 1_555 1_555
H10 C10 1_555 1_555
H11 C10 1_555 1_555
H12 C10 1_555 1_555
C11 C4 1_555 1_555
C12 O8 1_555 1_555
H13 C12 1_555 1_555
H14 C12 1_555 1_555
C13 C12 1_555 1_555
H15 C13 1_555 1_555
H16 C13 1_555 1_555
H17 C13 1_555 1_555
C14 C1 1_555 1_555
H18 C14 1_555 1_555
H19 C14 1_555 1_555
C15 C14 1_555 1_555
C16 C15 1_555 1_555
C17 C16 1_555 1_555
H20 C17 1_555 1_555
C18 C17 1_555 1_555
H21 C18 1_555 1_555
C19 C18 1_555 1_555
H22 C19 1_555 1_555
C20 C15 1_555 1_555
H23 C20 1_555 1_555
C21 O9 1_555 1_555
H24 C21 1_555 1_555
H25 C21 1_555 1_555
H26 C21 1_555 1_555
C22 S1 1_555 1_555
C23 C22 1_555 1_555
H27 C23 1_555 1_555
C24 C23 1_555 1_555
H28 C24 1_555 1_555
C25 C24 1_555 1_555
C26 C25 1_555 1_555
H29 C26 1_555 1_555
C27 C22 1_555 1_555
H30 C27 1_555 1_555
C3 C4 1_555 1_555
C19 C20 1_555 1_555
C26 C27 1_555 1_555

#END
