
#######################################################################
#
#                 Cambridge Crystallographic Data Centre
#                                CCDC 
#
#######################################################################
#
# If this CIF has been generated from an entry in the Cambridge 
# Structural Database, then it will include bibliographic, chemical, 
# crystal, experimental, refinement or atomic coordinate data resulting 
# from the CCDC's data processing and validation procedures.
#
#######################################################################

data_BICQIQ
_chemical_formula_moiety         'C41 H30 N2 O4'
_chemical_name_systematic        
2,2-dimethyl-1,3-bis[4-(10H-phenoxazin-10-yl)phenyl]propane-1,3-dione
_symmetry_cell_setting           monoclinic
_symmetry_space_group_name_H-M   'C 2/c'
_symmetry_Int_Tables_number      15
_space_group_name_Hall           '-C 2yn'
loop_
_symmetry_equiv_pos_site_id
_symmetry_equiv_pos_as_xyz
1 x,y,z
2 -x,y,1/2-z
3 1/2+x,1/2+y,z
4 1/2-x,1/2+y,1/2-z
5 -x,-y,-z
6 x,-y,1/2+z
7 1/2-x,1/2-y,-z
8 1/2+x,1/2-y,1/2+z
_cell_length_a                   12.253(3)
_cell_length_b                   13.695(3)
_cell_length_c                   18.695(5)
_cell_angle_alpha                90
_cell_angle_beta                 102.729(6)
_cell_angle_gamma                90
_cell_volume                     3060.01
_exptl_crystal_description       block
_cell_formula_units_Z            4
loop_
_atom_site_label
_atom_site_type_symbol
_atom_site_fract_x
_atom_site_fract_y
_atom_site_fract_z
N1 N 0.90190(10) 0.04002(8) 0.40594(7)
O1 O 0.85017(9) -0.15236(7) 0.44129(6)
O2 O 0.80553(8) 0.42447(7) 0.21055(6)
C1 C 0.90011(9) 0.30542(8) 0.29108(6)
C2 C 0.89438(10) 0.39775(8) 0.24710(6)
C3 C 0.81859(11) 0.02272(9) 0.44519(7)
C4 C 0.79528(11) -0.07327(10) 0.46272(7)
C5 C 0.96139(11) -0.03977(9) 0.38626(7)
C6 C 0.90098(11) 0.13062(9) 0.36704(7)
C7 C 0.98197(11) 0.28712(9) 0.35368(7)
H1 H 1.0376 0.3332 0.3700
C8 C 0.71568(13) -0.09311(12) 0.50244(9)
H2 H 0.7016 -0.1573 0.5140
C9 C 1.0000 0.45907(11) 0.2500
C10 C 0.81864(11) 0.23487(10) 0.26651(8)
H3 H 0.7628 0.2466 0.2249
C11 C 0.75927(13) 0.09738(11) 0.46912(8)
H4 H 0.7739 0.1618 0.4585
C12 C 1.01472(14) 0.52518(10) 0.31806(8)
H5 H 1.0782 0.5670 0.3203
H6 H 1.0264 0.4855 0.3614
H7 H 0.9488 0.5642 0.3149
C13 C 0.82037(12) 0.14730(10) 0.30390(8)
H8 H 0.7671 0.0996 0.2864
C14 C 1.04669(12) -0.02895(11) 0.34877(9)
H9 H 1.0655 0.0331 0.3352
C15 C 0.93533(11) -0.13398(9) 0.40528(7)
C16 C 0.99316(15) -0.21357(11) 0.38862(10)
H10 H 0.9753 -0.2758 0.4024
C17 C 0.98159(12) 0.20027(10) 0.39226(7)
H11 H 1.0356 0.1892 0.4349
C18 C 0.67856(14) 0.07778(14) 0.50862(9)
H12 H 0.6391 0.1287 0.5240
C19 C 1.10415(15) -0.10931(13) 0.33128(10)
H13 H 1.1607 -0.1009 0.3058
C20 C 0.65676(15) -0.01758(15) 0.52510(10)
H14 H 0.6024 -0.0309 0.5515
C21 C 1.07816(16) -0.20126(13) 0.35125(11)
H15 H 1.1173 -0.2551 0.3398
N1A N 1.09810(10) 0.04002(8) 0.09406(7)
O1A O 1.14983(9) -0.15236(7) 0.05871(6)
O2A O 1.19447(8) 0.42447(7) 0.28945(6)
C1A C 1.09989(9) 0.30542(8) 0.20892(6)
C2A C 1.10562(10) 0.39775(8) 0.25290(6)
C3A C 1.18141(11) 0.02272(9) 0.05481(7)
C4A C 1.20472(11) -0.07327(10) 0.03728(7)
C5A C 1.03861(11) -0.03977(9) 0.11374(7)
C6A C 1.09902(11) 0.13062(9) 0.13296(7)
C7A C 1.01803(11) 0.28712(9) 0.14632(7)
H1A H 0.9624 0.3332 0.1300
C8A C 1.28432(13) -0.09311(12) -0.00244(9)
H2A H 1.2984 -0.1573 -0.0140
C10A C 1.18136(11) 0.23487(10) 0.23349(8)
H3A H 1.2372 0.2466 0.2751
C11A C 1.24073(13) 0.09738(11) 0.03088(8)
H4A H 1.2261 0.1618 0.0415
C12A C 0.98528(14) 0.52518(10) 0.18194(8)
H5A H 0.9218 0.5670 0.1797
H6A H 0.9736 0.4855 0.1386
H7A H 1.0512 0.5642 0.1851
C13A C 1.17963(12) 0.14730(10) 0.19610(8)
H8A H 1.2329 0.0996 0.2136
C14A C 0.95331(12) -0.02895(11) 0.15123(9)
H9A H 0.9345 0.0331 0.1648
C15A C 1.06467(11) -0.13398(9) 0.09472(7)
C16A C 1.00684(15) -0.21357(11) 0.11138(10)
H10A H 1.0247 -0.2758 0.0976
C17A C 1.01841(12) 0.20027(10) 0.10774(7)
H11A H 0.9644 0.1892 0.0651
C18A C 1.32144(14) 0.07778(14) -0.00862(9)
H12A H 1.3609 0.1287 -0.0240
C19A C 0.89585(15) -0.10931(13) 0.16872(10)
H13A H 0.8393 -0.1009 0.1942
C20A C 1.34324(15) -0.01758(15) -0.02510(10)
H14A H 1.3976 -0.0309 -0.0515
C21A C 0.92184(16) -0.20126(13) 0.14875(11)
H15A H 0.8827 -0.2551 0.1602
loop_
_geom_bond_atom_site_label_1
_geom_bond_atom_site_label_2
_geom_bond_site_symmetry_1
_geom_bond_site_symmetry_2
N1 C3 1_555 1_555
O1 C4 1_555 1_555
O2 C2 1_555 1_555
C1 C2 1_555 1_555
C2 C9 1_555 1_555
C3 C4 1_555 1_555
C4 C8 1_555 1_555
C5 N1 1_555 1_555
C6 N1 1_555 1_555
C7 C1 1_555 1_555
H1 C7 1_555 1_555
C8 H2 1_555 1_555
C9 C12 1_555 1_555
C10 C1 1_555 1_555
H3 C10 1_555 1_555
C11 C3 1_555 1_555
H4 C11 1_555 1_555
C12 H5 1_555 1_555
H6 C12 1_555 1_555
H7 C12 1_555 1_555
C13 C6 1_555 1_555
H8 C13 1_555 1_555
C14 C5 1_555 1_555
H9 C14 1_555 1_555
C15 O1 1_555 1_555
C16 C15 1_555 1_555
H10 C16 1_555 1_555
C17 C6 1_555 1_555
H11 C17 1_555 1_555
C18 C11 1_555 1_555
H12 C18 1_555 1_555
C19 C14 1_555 1_555
H13 C19 1_555 1_555
C20 C8 1_555 1_555
H14 C20 1_555 1_555
C21 C16 1_555 1_555
H15 C21 1_555 1_555
N1A C3A 1_555 1_555
O1A C4A 1_555 1_555
O2A C2A 1_555 1_555
C1A C2A 1_555 1_555
C2A C9 1_555 1_555
C3A C4A 1_555 1_555
C4A C8A 1_555 1_555
C5A N1A 1_555 1_555
C6A N1A 1_555 1_555
C7A C1A 1_555 1_555
H1A C7A 1_555 1_555
C8A H2A 1_555 1_555
C10A C1A 1_555 1_555
H3A C10A 1_555 1_555
C11A C3A 1_555 1_555
H4A C11A 1_555 1_555
C12A C9 1_555 1_555
H5A C12A 1_555 1_555
H6A C12A 1_555 1_555
H7A C12A 1_555 1_555
C13A C6A 1_555 1_555
H8A C13A 1_555 1_555
C14A C5A 1_555 1_555
H9A C14A 1_555 1_555
C15A O1A 1_555 1_555
C16A C15A 1_555 1_555
H10A C16A 1_555 1_555
C17A C6A 1_555 1_555
H11A C17A 1_555 1_555
C18A C11A 1_555 1_555
H12A C18A 1_555 1_555
C19A C14A 1_555 1_555
H13A C19A 1_555 1_555
C20A C8A 1_555 1_555
H14A C20A 1_555 1_555
C21A C16A 1_555 1_555
H15A C21A 1_555 1_555
C5 C15 1_555 1_555
C7 C17 1_555 1_555
C10 C13 1_555 1_555
C18 C20 1_555 1_555
C19 C21 1_555 1_555
C5A C15A 1_555 1_555
C7A C17A 1_555 1_555
C10A C13A 1_555 1_555
C18A C20A 1_555 1_555
C19A C21A 1_555 1_555

#END
