
#######################################################################
#
#                 Cambridge Crystallographic Data Centre
#                                CCDC 
#
#######################################################################
#
# If this CIF has been generated from an entry in the Cambridge 
# Structural Database, then it will include bibliographic, chemical, 
# crystal, experimental, refinement or atomic coordinate data resulting 
# from the CCDC's data processing and validation procedures.
#
#######################################################################

data_BICQEM
_chemical_formula_moiety         'C39 H26 N2 O4,0.75(C1 H1 Cl3)'
_chemical_name_systematic        
'3-hydroxy-1,3-bis[4-(10H-phenoxazin-10-yl)phenyl]prop-2-en-1-one chloroform solvate'
_symmetry_cell_setting           monoclinic
_symmetry_space_group_name_H-M   'C 2/c'
_symmetry_Int_Tables_number      15
_space_group_name_Hall           '-C 2yn'
loop_
_symmetry_equiv_pos_site_id
_symmetry_equiv_pos_as_xyz
1 x,y,z
2 -x,y,1/2-z
3 1/2+x,1/2+y,z
4 1/2-x,1/2+y,1/2-z
5 -x,-y,-z
6 x,-y,1/2+z
7 1/2-x,1/2-y,-z
8 1/2+x,1/2-y,1/2+z
_cell_length_a                   9.1525(10)
_cell_length_b                   12.9741(12)
_cell_length_c                   27.813(3)
_cell_angle_alpha                90
_cell_angle_beta                 95.477(2)
_cell_angle_gamma                90
_cell_volume                     3287.59
_exptl_crystal_description       block
_cell_formula_units_Z            4
loop_
_atom_site_label
_atom_site_type_symbol
_atom_site_fract_x
_atom_site_fract_y
_atom_site_fract_z
N1 N 0.1196(3) 0.0949(2) 0.42936(8)
O1 O -0.0559(3) 0.1435(2) 0.50347(8)
C1 C -0.0317(3) 0.1115(2) 0.41874(10)
C2 C 0.1830(3) 0.1072(2) 0.47670(9)
C3 C 0.0938(3) 0.1310(2) 0.51316(10)
C4 C 0.5000 -0.0401(3) 0.2500
H1 H 0.5000 0.0316 0.2500
C5 C -0.1164(3) 0.1368(2) 0.45627(10)
C6 C 0.3594(3) -0.0409(2) 0.32404(10)
C7 C 0.3257(4) 0.0632(3) 0.32188(11)
H2 H 0.3562 0.1032 0.2970
C8 C 0.1510(4) 0.1433(2) 0.56001(11)
H3 H 0.0893 0.1582 0.5838
C9 C -0.2642(4) 0.1534(3) 0.44760(13)
H4 H -0.3185 0.1709 0.4730
C10 C 0.4352(4) -0.0928(3) 0.28600(11)
C11 C 0.2026(3) 0.0497(2) 0.39369(9)
C12 C 0.2376(3) -0.0534(3) 0.39673(9)
H5 H 0.2088 -0.0927 0.4222
C13 C 0.3156(3) -0.0988(2) 0.36202(10)
H6 H 0.3387 -0.1686 0.3642
C14 C 0.3328(3) 0.0991(2) 0.48920(11)
H7 H 0.3948 0.0848 0.4654
C15 C 0.3000(4) 0.1335(3) 0.57218(12)
H8 H 0.3388 0.1412 0.6041
C16 C -0.1025(4) 0.1020(3) 0.37299(11)
H9 H -0.0490 0.0844 0.3474
C17 C -0.3331(4) 0.1445(3) 0.40184(15)
H10 H -0.4335 0.1559 0.3960
C18 C 0.3915(4) 0.1120(3) 0.53657(12)
H11 H 0.4922 0.1062 0.5445
C19 C -0.2515(4) 0.1183(3) 0.36459(13)
H12 H -0.2974 0.1116 0.3334
C20 C 0.2468(4) 0.1082(3) 0.35652(12)
H13 H 0.2238 0.1780 0.3546
O2 O 0.410(5) -0.1923(9) 0.2815(11)
N1A N 0.8804(3) 0.0949(2) 0.07064(8)
O1A O 1.0559(3) 0.1435(2) -0.00347(8)
C1A C 1.0317(3) 0.1115(2) 0.08126(10)
C2A C 0.8170(3) 0.1072(2) 0.02330(9)
C3A C 0.9062(3) 0.1310(2) -0.01316(10)
C5A C 1.1164(3) 0.1368(2) 0.04373(10)
C6A C 0.6406(3) -0.0409(2) 0.17596(10)
C7A C 0.6743(4) 0.0632(3) 0.17812(11)
H2A H 0.6438 0.1032 0.2030
C8A C 0.8490(4) 0.1433(2) -0.06001(11)
H3A H 0.9107 0.1582 -0.0838
C9A C 1.2642(4) 0.1534(3) 0.05240(13)
H4A H 1.3185 0.1709 0.0270
C10A C 0.5648(4) -0.0928(3) 0.21400(11)
C11A C 0.7974(3) 0.0497(2) 0.10631(9)
C12A C 0.7624(3) -0.0534(3) 0.10327(9)
H5A H 0.7912 -0.0927 0.0778
C13A C 0.6844(3) -0.0988(2) 0.13798(10)
H6A H 0.6613 -0.1686 0.1358
C14A C 0.6672(3) 0.0991(2) 0.01080(11)
H7A H 0.6052 0.0848 0.0346
C15A C 0.7000(4) 0.1335(3) -0.07218(12)
H8A H 0.6612 0.1412 -0.1041
C16A C 1.1025(4) 0.1020(3) 0.12701(11)
H9A H 1.0490 0.0844 0.1526
C17A C 1.3331(4) 0.1445(3) 0.09816(15)
H10A H 1.4335 0.1559 0.1040
C18A C 0.6085(4) 0.1120(3) -0.03657(12)
H11A H 0.5078 0.1062 -0.0445
C19A C 1.2515(4) 0.1183(3) 0.13541(13)
H12A H 1.2974 0.1116 0.1666
C20A C 0.7532(4) 0.1082(3) 0.14348(12)
H13A H 0.7762 0.1780 0.1454
O2A O 0.590(5) -0.1923(9) 0.2185(11)
O3? O 0.479(5) -0.1863(18) 0.2965(10)
H14? H 0.486(9) -0.211(7) 0.267(2)
Cl1? Cl 0.0000 1.0007(2) 0.2500
Cl2? Cl 0.1171(7) 0.8537(4) 0.19652(18)
Cl3? Cl 0.0242(12) 0.7819(7) 0.2814(3)
C21? C -0.016(3) 0.870(2) 0.2386(8)
loop_
_geom_bond_atom_site_label_1
_geom_bond_atom_site_label_2
_geom_bond_site_symmetry_1
_geom_bond_site_symmetry_2
N1 C1 1_555 1_555
O1 C3 1_555 1_555
C1 C5 1_555 1_555
C2 N1 1_555 1_555
C3 C2 1_555 1_555
C4 H1 1_555 1_555
C5 O1 1_555 1_555
C6 C7 1_555 1_555
C7 H2 1_555 1_555
C8 C3 1_555 1_555
H3 C8 1_555 1_555
C9 C5 1_555 1_555
H4 C9 1_555 1_555
C10 C4 1_555 1_555
C11 N1 1_555 1_555
C12 C11 1_555 1_555
H5 C12 1_555 1_555
C13 C6 1_555 1_555
H6 C13 1_555 1_555
C14 C2 1_555 1_555
H7 C14 1_555 1_555
C15 C8 1_555 1_555
H8 C15 1_555 1_555
C16 C1 1_555 1_555
H9 C16 1_555 1_555
C17 C9 1_555 1_555
H10 C17 1_555 1_555
C18 C14 1_555 1_555
H11 C18 1_555 1_555
C19 C16 1_555 1_555
H12 C19 1_555 1_555
C20 C7 1_555 1_555
H13 C20 1_555 1_555
O2 C10 1_555 1_555
N1A C1A 1_555 1_555
O1A C3A 1_555 1_555
C1A C5A 1_555 1_555
C2A N1A 1_555 1_555
C3A C2A 1_555 1_555
C5A O1A 1_555 1_555
C6A C7A 1_555 1_555
C7A H2A 1_555 1_555
C8A C3A 1_555 1_555
H3A C8A 1_555 1_555
C9A C5A 1_555 1_555
H4A C9A 1_555 1_555
C10A C4 1_555 1_555
C11A N1A 1_555 1_555
C12A C11A 1_555 1_555
H5A C12A 1_555 1_555
C13A C6A 1_555 1_555
H6A C13A 1_555 1_555
C14A C2A 1_555 1_555
H7A C14A 1_555 1_555
C15A C8A 1_555 1_555
H8A C15A 1_555 1_555
C16A C1A 1_555 1_555
H9A C16A 1_555 1_555
C17A C9A 1_555 1_555
H10A C17A 1_555 1_555
C18A C14A 1_555 1_555
H11A C18A 1_555 1_555
C19A C16A 1_555 1_555
H12A C19A 1_555 1_555
C20A C7A 1_555 1_555
H13A C20A 1_555 1_555
O2A C10A 1_555 1_555
C6 C10 1_555 1_555
C11 C20 1_555 1_555
C12 C13 1_555 1_555
C15 C18 1_555 1_555
C17 C19 1_555 1_555
C6A C10A 1_555 1_555
C11A C20A 1_555 1_555
C12A C13A 1_555 1_555
C15A C18A 1_555 1_555
C17A C19A 1_555 1_555

#END
