
#######################################################################
#
#                 Cambridge Crystallographic Data Centre
#                                CCDC 
#
#######################################################################
#
# If this CIF has been generated from an entry in the Cambridge 
# Structural Database, then it will include bibliographic, chemical, 
# crystal, experimental, refinement or atomic coordinate data resulting 
# from the CCDC's data processing and validation procedures.
#
#######################################################################

data_BICSEN
_chemical_formula_moiety         'C19 H20 N2 O1'
_chemical_name_systematic        4-Butyl-2-(4-methoxyphenyl)quinazoline
_symmetry_cell_setting           triclinic
_symmetry_space_group_name_H-M   'P -1'
_symmetry_Int_Tables_number      2
_space_group_name_Hall           '-P 1'
loop_
_symmetry_equiv_pos_site_id
_symmetry_equiv_pos_as_xyz
1 x,y,z
2 -x,-y,-z
_cell_length_a                   7.482(2)
_cell_length_b                   9.231(3)
_cell_length_c                   12.345(3)
_cell_angle_alpha                71.15(3)
_cell_angle_beta                 75.16(2)
_cell_angle_gamma                86.82(3)
_cell_volume                     779.635
_exptl_crystal_colour            colorless
_exptl_crystal_description       prism
_cell_formula_units_Z            2
loop_
_atom_site_label
_atom_site_type_symbol
_atom_site_fract_x
_atom_site_fract_y
_atom_site_fract_z
O1 O 0.5952(3) 0.11205(19) 0.10749(15)
N1 N 0.2667(3) 0.53945(19) 0.42005(16)
N2 N 0.3327(3) 0.3124(2) 0.56418(16)
C1 C 0.2000(3) 0.6036(2) 0.5021(2)
C2 C 0.1893(3) 0.5254(2) 0.6227(2)
C3 C 0.1119(4) 0.5848(3) 0.7151(2)
H1 H 0.0633 0.6821 0.6984
C4 C 0.1074(4) 0.5020(3) 0.8278(2)
H2 H 0.0557 0.5428 0.8882
C5 C 0.1795(4) 0.3559(3) 0.8550(2)
H3 H 0.1745 0.2995 0.9333
C6 C 0.2572(4) 0.2955(3) 0.7671(2)
H4 H 0.3075 0.1988 0.7853
C7 C 0.2614(3) 0.3787(3) 0.6496(2)
C8 C 0.3290(3) 0.3937(2) 0.4568(2)
C9 C 0.1347(4) 0.7644(2) 0.4630(2)
H5 H 0.2056 0.8285 0.4865
H6 H 0.0065 0.7653 0.5057
C10 C 0.1477(3) 0.8363(2) 0.3331(2)
H7 H 0.0910 0.7674 0.3058
H8 H 0.2769 0.8517 0.2899
C11 C 0.0532(4) 0.9883(3) 0.3072(2)
H9 H -0.0751 0.9725 0.3521
H10 H 0.1113 1.0569 0.3341
C12 C 0.0599(4) 1.0641(3) 0.1780(2)
H11 H 0.1865 1.0843 0.1332
H12 H -0.0042 1.1586 0.1680
H13 H 0.0018 0.9974 0.1506
C13 C 0.3969(3) 0.3237(2) 0.3618(2)
C14 C 0.3931(4) 0.3984(3) 0.2475(2)
H14 H 0.3462 0.4963 0.2281
C15 C 0.4570(4) 0.3323(3) 0.1596(2)
H15 H 0.4519 0.3847 0.0823
C16 C 0.5283(4) 0.1884(3) 0.1874(2)
C17 C 0.5324(4) 0.1114(3) 0.3013(2)
H16 H 0.5798 0.0137 0.3203
C18 C 0.4669(4) 0.1776(3) 0.3878(2)
H17 H 0.4694 0.1237 0.4653
C19 C 0.6247(5) 0.1962(3) -0.0138(2)
H18 H 0.5080 0.2263 -0.0316
H19 H 0.6861 0.1338 -0.0603
H20 H 0.7003 0.2859 -0.0319
loop_
_geom_bond_atom_site_label_1
_geom_bond_atom_site_label_2
_geom_bond_site_symmetry_1
_geom_bond_site_symmetry_2
O1 C16 1_555 1_555
N1 C1 1_555 1_555
N2 C7 1_555 1_555
C1 C2 1_555 1_555
C2 C3 1_555 1_555
C3 H1 1_555 1_555
C4 C3 1_555 1_555
H2 C4 1_555 1_555
C5 C4 1_555 1_555
H3 C5 1_555 1_555
C6 C5 1_555 1_555
H4 C6 1_555 1_555
C7 C2 1_555 1_555
C8 N1 1_555 1_555
C9 C1 1_555 1_555
H5 C9 1_555 1_555
H6 C9 1_555 1_555
C10 C9 1_555 1_555
H7 C10 1_555 1_555
H8 C10 1_555 1_555
C11 C10 1_555 1_555
H9 C11 1_555 1_555
H10 C11 1_555 1_555
C12 C11 1_555 1_555
H11 C12 1_555 1_555
H12 C12 1_555 1_555
H13 C12 1_555 1_555
C13 C8 1_555 1_555
C14 C13 1_555 1_555
H14 C14 1_555 1_555
C15 C14 1_555 1_555
H15 C15 1_555 1_555
C16 C15 1_555 1_555
C17 C16 1_555 1_555
H16 C17 1_555 1_555
C18 C13 1_555 1_555
H17 C18 1_555 1_555
C19 O1 1_555 1_555
H18 C19 1_555 1_555
H19 C19 1_555 1_555
H20 C19 1_555 1_555
N2 C8 1_555 1_555
C6 C7 1_555 1_555
C17 C18 1_555 1_555

#END
