
#######################################################################
#
#                 Cambridge Crystallographic Data Centre
#                                CCDC 
#
#######################################################################
#
# If this CIF has been generated from an entry in the Cambridge 
# Structural Database, then it will include bibliographic, chemical, 
# crystal, experimental, refinement or atomic coordinate data resulting 
# from the CCDC's data processing and validation procedures.
#
#######################################################################

data_BICWOB
_chemical_formula_moiety         'C21 H16 N2'
_chemical_name_systematic        6-Methyl-2,4-diphenylquinazoline
_symmetry_cell_setting           triclinic
_symmetry_space_group_name_H-M   'P -1'
_symmetry_Int_Tables_number      2
_space_group_name_Hall           '-P 1'
loop_
_symmetry_equiv_pos_site_id
_symmetry_equiv_pos_as_xyz
1 x,y,z
2 -x,-y,-z
_cell_length_a                   7.4635(11)
_cell_length_b                   10.487(3)
_cell_length_c                   11.065(2)
_cell_angle_alpha                71.601(18)
_cell_angle_beta                 88.482(15)
_cell_angle_gamma                72.077(13)
_cell_volume                     779.506
_exptl_crystal_colour            colorless
_exptl_crystal_description       prism
_cell_formula_units_Z            2
loop_
_atom_site_label
_atom_site_type_symbol
_atom_site_fract_x
_atom_site_fract_y
_atom_site_fract_z
N1 N 0.3788(3) 0.3166(2) 0.53182(19)
N2 N 0.4172(3) 0.3432(2) 0.73525(19)
C1 C 0.4439(3) 0.2679(2) 0.6523(2)
C2 C 0.3220(3) 0.4801(2) 0.6907(2)
C3 C 0.1301(3) 0.6903(3) 0.5086(2)
H1 H 0.1082 0.7493 0.5585
C4 C 0.0535(3) 0.7434(3) 0.3850(3)
C5 C 0.0877(4) 0.6529(3) 0.3115(3)
H2 H 0.0361 0.6889 0.2274
C6 C 0.1946(4) 0.5129(3) 0.3588(2)
H3 H 0.2140 0.4555 0.3074
C7 C 0.2748(3) 0.4566(2) 0.4860(2)
C8 C 0.2428(3) 0.5459(2) 0.5619(2)
C9 C 0.5615(3) 0.1155(2) 0.7056(2)
C10 C 0.6130(4) 0.0332(3) 0.6263(3)
H4 H 0.5731 0.0726 0.5398
C11 C 0.7237(4) -0.1077(3) 0.6752(3)
H5 H 0.7565 -0.1624 0.6214
C12 C 0.7847(4) -0.1665(3) 0.8018(3)
H6 H 0.8608 -0.2605 0.8335
C13 C 0.7340(5) -0.0870(3) 0.8828(3)
H7 H 0.783(3) -0.122(2) 0.9756(11)
C14 C 0.6211(4) 0.0542(3) 0.8345(3)
H8 H 0.5854 0.1077 0.8892
C15 C 0.3027(3) 0.5574(2) 0.7843(2)
C16 C 0.2474(4) 0.4997(3) 0.9045(2)
H9 H 0.2183 0.4157 0.9237
C17 C 0.2348(4) 0.5653(3) 0.9960(3)
H10 H 0.1948 0.5265 1.0756
C18 C 0.2812(4) 0.6880(3) 0.9700(3)
H11 H 0.2738 0.7315 1.0321
C19 C 0.3385(4) 0.7461(3) 0.8518(3)
H12 H 0.3709 0.8286 0.8344
C20 C 0.3481(4) 0.6824(3) 0.7590(3)
H13 H 0.3852 0.7231 0.6789
C21 C -0.0670(4) 0.8970(3) 0.3283(3)
H14 H -0.0738 0.9442 0.3906
H15 H -0.1918 0.9016 0.3038
H16 H -0.0117 0.9425 0.2545
loop_
_geom_bond_atom_site_label_1
_geom_bond_atom_site_label_2
_geom_bond_site_symmetry_1
_geom_bond_site_symmetry_2
N1 C1 1_555 1_555
N2 C1 1_555 1_555
C1 C9 1_555 1_555
C2 N2 1_555 1_555
C3 H1 1_555 1_555
C4 C3 1_555 1_555
C5 C4 1_555 1_555
H2 C5 1_555 1_555
C6 C5 1_555 1_555
H3 C6 1_555 1_555
C7 N1 1_555 1_555
C8 C2 1_555 1_555
C9 C10 1_555 1_555
C10 H4 1_555 1_555
C11 C10 1_555 1_555
H5 C11 1_555 1_555
C12 C11 1_555 1_555
H6 C12 1_555 1_555
C13 C12 1_555 1_555
H7 C13 1_555 1_555
C14 C9 1_555 1_555
H8 C14 1_555 1_555
C15 C2 1_555 1_555
C16 C15 1_555 1_555
H9 C16 1_555 1_555
C17 C16 1_555 1_555
H10 C17 1_555 1_555
C18 C17 1_555 1_555
H11 C18 1_555 1_555
C19 C18 1_555 1_555
H12 C19 1_555 1_555
C20 C15 1_555 1_555
H13 C20 1_555 1_555
C21 C4 1_555 1_555
H14 C21 1_555 1_555
H15 C21 1_555 1_555
H16 C21 1_555 1_555
C3 C8 1_555 1_555
C6 C7 1_555 1_555
C7 C8 1_555 1_555
C13 C14 1_555 1_555
C19 C20 1_555 1_555

#END
