
#######################################################################
#
#                 Cambridge Crystallographic Data Centre
#                                CCDC 
#
#######################################################################
#
# If this CIF has been generated from an entry in the Cambridge 
# Structural Database, then it will include bibliographic, chemical, 
# crystal, experimental, refinement or atomic coordinate data resulting 
# from the CCDC's data processing and validation procedures.
#
#######################################################################

data_BIDBOF
_chemical_formula_moiety         'C15 H17 N1 O2'
_chemical_name_systematic        
(1S,2S,4S,7R)-6-Aza-3,3-dimethyl-8-oxa-7-phenyltricyclo(4.3.0.0^2,4^)nonan-5-one
_symmetry_cell_setting           orthorhombic
_symmetry_space_group_name_H-M   'P 21 21 21'
_symmetry_Int_Tables_number      19
_space_group_name_Hall           'P 2ac 2ab'
loop_
_symmetry_equiv_pos_site_id
_symmetry_equiv_pos_as_xyz
1 x,y,z
2 1/2-x,-y,1/2+z
3 1/2+x,1/2-y,-z
4 -x,1/2+y,1/2-z
_cell_length_a                   9.488(2)
_cell_length_b                   15.650(2)
_cell_length_c                   8.4380(10)
_cell_angle_alpha                90
_cell_angle_beta                 90
_cell_angle_gamma                90
_cell_volume                     1252.93
_exptl_crystal_colour            colorless
_exptl_crystal_description       block
_chemical_melting_point          127-128deg.C
_cell_formula_units_Z            4
loop_
_atom_site_label
_atom_site_type_symbol
_atom_site_fract_x
_atom_site_fract_y
_atom_site_fract_z
C1 C 0.1631(17) 0.1353(9) 0.1852(18)
O1 O 0.4645(12) 0.2736(6) 0.3293(12)
O2 O 0.3582(11) 0.0461(7) 0.1265(12)
N1 N 0.3817(12) 0.1359(7) 0.3424(13)
C2 C 0.4729(17) 0.2040(11) 0.3790(18)
C3 C 0.3181(15) 0.1305(10) 0.1808(17)
C4 C -0.0676(17) 0.1219(12) 0.3168(21)
C5 C 0.0864(16) 0.1178(11) 0.3209(19)
C6 C 0.5827(16) 0.1701(9) 0.4958(18)
C7 C -0.1371(18) 0.1428(11) 0.1748(22)
C8 C -0.0576(16) 0.1597(10) 0.0398(21)
C9 C 0.4365(16) 0.0495(8) 0.3900(17)
C10 C 0.0950(18) 0.1559(9) 0.0442(19)
C11 C 0.5622(15) 0.0686(9) 0.4955(17)
C12 C 0.5303(15) 0.1196(10) 0.6457(17)
C13 C 0.4699(20) 0.0144(10) 0.2182(18)
C14 C 0.3754(17) 0.1296(12) 0.7064(18)
C15 C 0.6501(21) 0.1125(12) 0.7748(20)
H1 H 0.3558 0.1741 0.1129
H2 H -0.1206 0.1107 0.4114
H3 H 0.1348 0.1028 0.4169
H4 H 0.6759 0.1940 0.4940
H5 H -0.2381 0.1754 0.1716
H6 H -0.1045 0.1739 -0.0575
H7 H 0.3667 0.0158 0.4435
H8 H 0.1498 0.1678 -0.0488
H9 H 0.5587 0.0360 0.1812
H10 H 0.4720 -0.0470 0.2157
H11 H 0.3774 0.1794 0.7727
H12 H 0.3622 0.0820 0.7768
H13 H 0.7407 0.1068 0.7251
H14 H 0.6489 0.1631 0.8391
H15 H 0.6324 0.0634 0.8401
H16 H 0.6369 0.0269 0.4917
H17 H 0.2891 0.1333 0.6483
loop_
_geom_bond_atom_site_label_1
_geom_bond_atom_site_label_2
_geom_bond_site_symmetry_1
_geom_bond_site_symmetry_2
C1 C3 1_555 1_555
O1 C2 1_555 1_555
O2 C3 1_555 1_555
N1 C2 1_555 1_555
C2 C6 1_555 1_555
C3 N1 1_555 1_555
C4 C5 1_555 1_555
C5 C1 1_555 1_555
C6 C11 1_555 1_555
C7 C4 1_555 1_555
C8 C7 1_555 1_555
C9 N1 1_555 1_555
C10 C1 1_555 1_555
C11 C9 1_555 1_555
C12 C6 1_555 1_555
C13 O2 1_555 1_555
C14 C12 1_555 1_555
C15 C12 1_555 1_555
H1 C3 1_555 1_555
H2 C4 1_555 1_555
H3 C5 1_555 1_555
H4 C6 1_555 1_555
H5 C7 1_555 1_555
H6 C8 1_555 1_555
H7 C9 1_555 1_555
H8 C10 1_555 1_555
H9 C13 1_555 1_555
H10 C13 1_555 1_555
H11 C14 1_555 1_555
H12 C14 1_555 1_555
H13 C15 1_555 1_555
H14 C15 1_555 1_555
H15 C15 1_555 1_555
H16 C11 1_555 1_555
H17 C14 1_555 1_555
C8 C10 1_555 1_555
C9 C13 1_555 1_555
C11 C12 1_555 1_555

#END
