
#######################################################################
#
#                 Cambridge Crystallographic Data Centre
#                                CCDC 
#
#######################################################################
#
# If this CIF has been generated from an entry in the Cambridge 
# Structural Database, then it will include bibliographic, chemical, 
# crystal, experimental, refinement or atomic coordinate data resulting 
# from the CCDC's data processing and validation procedures.
#
#######################################################################

data_BIDBEV
_chemical_formula_moiety         'C23 H36 O6'
_chemical_name_systematic        
3,4:5,6-Di-O,O-isopropylidene-2-(O-benzyl)-1-(O-t-butyl)-D-sorbitol
_symmetry_cell_setting           orthorhombic
_symmetry_space_group_name_H-M   'P 21 21 21'
_symmetry_Int_Tables_number      19
_space_group_name_Hall           'P 2ac 2ab'
loop_
_symmetry_equiv_pos_site_id
_symmetry_equiv_pos_as_xyz
1 x,y,z
2 1/2-x,-y,1/2+z
3 1/2+x,1/2-y,-z
4 -x,1/2+y,1/2-z
_cell_length_a                   9.9008(23)
_cell_length_b                   11.260(3)
_cell_length_c                   22.407(5)
_cell_angle_alpha                90
_cell_angle_beta                 90
_cell_angle_gamma                90
_cell_volume                     2498
_chemical_melting_point          65-67deg.C
_cell_formula_units_Z            4
loop_
_atom_site_label
_atom_site_type_symbol
_atom_site_fract_x
_atom_site_fract_y
_atom_site_fract_z
C1 C 0.7705(12) 0.5429(11) 0.8303(7)
C2 C 0.9056(10) 0.5880(9) 0.8533(5)
C3 C 0.9431(9) 0.5432(7) 0.9107(4)
C4 C 1.0809(9) 0.5753(8) 0.9341(4)
C5 C 1.0841(9) 0.6848(8) 0.9739(5)
C6 C 1.2204(11) 0.7183(8) 0.9975(6)
C7 C 0.5462(13) 0.5820(14) 0.8023(9)
C8 C 0.5442(24) 0.611(3) 0.7448(10)
C9 C 0.518(3) 0.4608(22) 0.8085(15)
C10 C 0.4615(21) 0.6602(24) 0.8399(11)
C11 C 1.0263(17) 0.6382(10) 0.7640(6)
C12 C 1.1166(12) 0.5938(9) 0.7180(5)
C13 C 1.1564(13) 0.4789(9) 0.7152(5)
C14 C 1.2340(13) 0.4372(10) 0.6692(6)
C15 C 1.2745(15) 0.5158(13) 0.6253(6)
C16 C 1.2325(17) 0.6310(13) 0.6256(6)
C17 C 1.1634(17) 0.6678(11) 0.6722(6)
C18 C 1.0553(11) 0.3762(8) 0.9457(5)
C19 C 1.0115(17) 0.2985(10) 0.9918(7)
C20 C 1.1533(13) 0.3103(11) 0.9080(7)
C21 C 1.1404(11) 0.8724(8) 0.9433(5)
C22 C 1.0948(14) 0.9673(10) 0.9847(7)
C23 C 1.1733(16) 0.9234(14) 0.8814(7)
O1 O 0.6812(7) 0.6137(7) 0.8299(4)
O2 O 1.0079(8) 0.5570(5) 0.8100(3)
O3 O 0.9474(7) 0.4156(5) 0.9098(3)
O4 O 1.1190(7) 0.4769(5) 0.9702(3)
O5 O 1.0439(7) 0.7826(5) 0.9375(4)
O6 O 1.2590(7) 0.8160(6) 0.9629(3)
H1 H 0.783 0.516 0.790
H2 H 0.747 0.475 0.852
H3 H 0.901 0.672 0.855
H4 H 0.875 0.569 0.938
H5 H 1.143 0.589 0.903
H6 H 1.019 0.674 1.005
H7 H 1.215 0.737 1.039
H8 H 1.277 0.651 0.996
H9 H 0.473 0.627 0.719
H10 H 0.628 0.621 0.724
H11 H 0.552 0.690 0.752
H12 H 0.427 0.442 0.810
H13 H 0.498 0.488 0.848
H14 H 0.584 0.411 0.828
H15 H 0.365 0.656 0.835
H16 H 0.496 0.730 0.847
H17 H 0.474 0.619 0.873
H18 H 1.070 0.705 0.782
H19 H 0.946 0.674 0.749
H20 H 1.136 0.420 0.744
H21 H 1.264 0.358 0.670
H22 H 1.328 0.483 0.594
H23 H 1.259 0.682 0.595
H24 H 1.147 0.751 0.673
H25 H 0.950 0.333 1.019
H26 H 1.076 0.269 1.019
H27 H 0.962 0.230 0.981
H28 H 1.182 0.358 0.875
H29 H 1.118 0.246 0.886
H30 H 1.236 0.282 0.924
H31 H 1.079 0.928 1.021
H32 H 1.008 0.994 0.974
H33 H 1.155 1.031 0.993
H34 H 1.204 0.858 0.858
H35 H 1.244 0.980 0.879
H36 H 1.094 0.943 0.861
loop_
_geom_bond_atom_site_label_1
_geom_bond_atom_site_label_2
_geom_bond_site_symmetry_1
_geom_bond_site_symmetry_2
C1 C2 1_555 1_555
C2 C3 1_555 1_555
C3 C4 1_555 1_555
C4 C5 1_555 1_555
C5 C6 1_555 1_555
C6 O6 1_555 1_555
C7 C8 1_555 1_555
C8 H9 1_555 1_555
C9 C7 1_555 1_555
C10 C7 1_555 1_555
C11 C12 1_555 1_555
C12 C13 1_555 1_555
C13 C14 1_555 1_555
C14 C15 1_555 1_555
C15 C16 1_555 1_555
C16 C17 1_555 1_555
C17 C12 1_555 1_555
C18 C19 1_555 1_555
C19 H25 1_555 1_555
C20 C18 1_555 1_555
C21 C22 1_555 1_555
C22 H31 1_555 1_555
C23 C21 1_555 1_555
O1 C1 1_555 1_555
O2 C2 1_555 1_555
O3 C3 1_555 1_555
O4 C4 1_555 1_555
O5 C5 1_555 1_555
O6 C21 1_555 1_555
H1 C1 1_555 1_555
H2 C1 1_555 1_555
H3 C2 1_555 1_555
H4 C3 1_555 1_555
H5 C4 1_555 1_555
H6 C5 1_555 1_555
H7 C6 1_555 1_555
H8 C6 1_555 1_555
H10 C8 1_555 1_555
H11 C8 1_555 1_555
H12 C9 1_555 1_555
H13 C9 1_555 1_555
H14 C9 1_555 1_555
H15 C10 1_555 1_555
H16 C10 1_555 1_555
H17 C10 1_555 1_555
H18 C11 1_555 1_555
H19 C11 1_555 1_555
H20 C13 1_555 1_555
H21 C14 1_555 1_555
H22 C15 1_555 1_555
H23 C16 1_555 1_555
H24 C17 1_555 1_555
H26 C19 1_555 1_555
H27 C19 1_555 1_555
H28 C20 1_555 1_555
H29 C20 1_555 1_555
H30 C20 1_555 1_555
H32 C22 1_555 1_555
H33 C22 1_555 1_555
H34 C23 1_555 1_555
H35 C23 1_555 1_555
H36 C23 1_555 1_555
C7 O1 1_555 1_555
C11 O2 1_555 1_555
C18 O4 1_555 1_555
C18 O3 1_555 1_555
C21 O5 1_555 1_555

#END
