
#######################################################################
#
#                 Cambridge Crystallographic Data Centre
#                                CCDC 
#
#######################################################################
#
# If this CIF has been generated from an entry in the Cambridge 
# Structural Database, then it will include bibliographic, chemical, 
# crystal, experimental, refinement or atomic coordinate data resulting 
# from the CCDC's data processing and validation procedures.
#
#######################################################################

data_BIDBIZ
_chemical_formula_moiety         'C13 H19 N4 1+,Cl1 1-'
_chemical_name_systematic        'N-Benzylhexamethylenetetramine chloride'
_symmetry_cell_setting           orthorhombic
_symmetry_space_group_name_H-M   'P 21 21 21'
_symmetry_Int_Tables_number      19
_space_group_name_Hall           'P 2ac 2ab'
loop_
_symmetry_equiv_pos_site_id
_symmetry_equiv_pos_as_xyz
1 x,y,z
2 1/2+x,1/2-y,-z
3 -x,1/2+y,1/2-z
4 1/2-x,-y,1/2+z
_cell_length_a                   7.692(1)
_cell_length_b                   18.405(3)
_cell_length_c                   19.059(3)
_cell_angle_alpha                90
_cell_angle_beta                 90
_cell_angle_gamma                90
_cell_volume                     2698.21
_exptl_crystal_colour            colorless
_cell_formula_units_Z            8
loop_
_atom_site_label
_atom_site_type_symbol
_atom_site_fract_x
_atom_site_fract_y
_atom_site_fract_z
Cl1 Cl 0.02630 0.23480 0.63840
N1 N 0.34100 0.09350 0.53070
N2 N 0.65470 0.07720 0.53510
N3 N 0.49620 0.10210 0.64280
N4 N 0.53230 0.19740 0.55470
C1 C 0.37330 0.17590 0.52020
C2 C 0.49870 0.05330 0.50040
C3 C 0.67850 0.15640 0.52400
C4 C 0.64240 0.06210 0.61050
C5 C 0.52240 0.18090 0.63020
C6 C 0.33800 0.07960 0.61030
C7 C 0.17120 0.06820 0.49950
C8 C 0.17030 0.06610 0.42100
C9 C 0.13690 0.12860 0.38150
C10 C 0.13530 0.12570 0.30920
C11 C 0.16340 0.06080 0.27480
C12 C 0.19370 -0.00190 0.31290
C13 C 0.19940 0.00090 0.38560
H1 H 0.26300 0.20200 0.54000
H2 H 0.37100 0.18600 0.46400
H3 H 0.50800 0.06700 0.44800
H4 H 0.47500 -0.00100 0.51000
H5 H 0.69100 0.16500 0.46600
H6 H 0.78700 0.17200 0.54900
H7 H 0.75900 0.07200 0.62900
H8 H 0.62200 0.00600 0.61800
H9 H 0.63700 0.19600 0.65700
H10 H 0.43100 0.21200 0.65400
H11 H 0.32600 0.02400 0.62000
H12 H 0.22800 0.10500 0.62900
H13 H 0.08900 0.10200 0.52000
H14 H 0.13400 0.01700 0.52300
H15 H 0.11300 0.17700 0.40500
H16 H 0.10800 0.17200 0.28800
H17 H 0.15900 0.05400 0.22200
H18 H 0.22200 -0.05300 0.28700
H19 H 0.22300 -0.04800 0.41100
Cl2 Cl 0.17970 0.11410 0.05930
N5 N 0.50750 0.24850 0.15710
N6 N 0.82330 0.25200 0.16280
N7 N 0.68010 0.21430 0.05490
N8 N 0.67180 0.13510 0.15750
C14 C 0.52200 0.24930 0.07670
C15 C 0.68080 0.13820 0.08000
C16 C 0.83030 0.25260 0.08540
C17 C 0.82240 0.17530 0.18620
C18 C 0.66640 0.28800 0.18570
C19 C 0.51480 0.16860 0.18130
C20 C 0.33770 0.27970 0.18300
C21 C 0.31820 0.35960 0.17120
C22 C 0.36790 0.40820 0.22390
C23 C 0.34170 0.48250 0.21450
C24 C 0.27190 0.50810 0.15200
C25 C 0.22510 0.45950 0.09960
C26 C 0.24650 0.38540 0.10930
H20 H 0.53000 0.30600 0.06200
H21 H 0.42200 0.22100 0.05900
H22 H 0.78600 0.11000 0.06200
H23 H 0.57800 0.11100 0.06300
H24 H 0.83600 0.30600 0.06700
H25 H 0.93500 0.23100 0.06600
H26 H 0.81300 0.17300 0.24300
H27 H 0.93100 0.15100 0.17000
H28 H 0.65500 0.28900 0.23200
H29 H 0.65800 0.34300 0.16700
H30 H 0.40500 0.14000 0.16200
H31 H 0.49300 0.16900 0.23400
H32 H 0.32400 0.26700 0.23400
H33 H 0.23900 0.25400 0.15600
H34 H 0.43500 0.38800 0.27000
H35 H 0.38700 0.51600 0.26000
H36 H 0.25800 0.57200 0.14100
H37 H 0.17600 0.47700 0.05100
H38 H 0.20300 0.34900 0.07300
loop_
_geom_bond_atom_site_label_1
_geom_bond_atom_site_label_2
_geom_bond_site_symmetry_1
_geom_bond_site_symmetry_2
N1 C1 1_555 1_555
N2 C2 1_555 1_555
N3 C4 1_555 1_555
N4 C1 1_555 1_555
C1 H1 1_555 1_555
C2 N1 1_555 1_555
C3 N2 1_555 1_555
C4 N2 1_555 1_555
C5 N3 1_555 1_555
C6 N1 1_555 1_555
C7 N1 1_555 1_555
C8 C7 1_555 1_555
C9 C8 1_555 1_555
C10 C9 1_555 1_555
C11 C10 1_555 1_555
C12 C11 1_555 1_555
C13 C8 1_555 1_555
H2 C1 1_555 1_555
H3 C2 1_555 1_555
H4 C2 1_555 1_555
H5 C3 1_555 1_555
H6 C3 1_555 1_555
H7 C4 1_555 1_555
H8 C4 1_555 1_555
H9 C5 1_555 1_555
H10 C5 1_555 1_555
H11 C6 1_555 1_555
H12 C6 1_555 1_555
H13 C7 1_555 1_555
H14 C7 1_555 1_555
H15 C9 1_555 1_555
H16 C10 1_555 1_555
H17 C11 1_555 1_555
H18 C12 1_555 1_555
H19 C13 1_555 1_555
N5 C14 1_555 1_555
N6 C16 1_555 1_555
N7 C14 1_555 1_555
N8 C15 1_555 1_555
C14 H20 1_555 1_555
C15 N7 1_555 1_555
C16 N7 1_555 1_555
C17 N6 1_555 1_555
C18 N5 1_555 1_555
C19 N5 1_555 1_555
C20 N5 1_555 1_555
C21 C20 1_555 1_555
C22 C21 1_555 1_555
C23 C22 1_555 1_555
C24 C23 1_555 1_555
C25 C24 1_555 1_555
C26 C21 1_555 1_555
H21 C14 1_555 1_555
H22 C15 1_555 1_555
H23 C15 1_555 1_555
H24 C16 1_555 1_555
H25 C16 1_555 1_555
H26 C17 1_555 1_555
H27 C17 1_555 1_555
H28 C18 1_555 1_555
H29 C18 1_555 1_555
H30 C19 1_555 1_555
H31 C19 1_555 1_555
H32 C20 1_555 1_555
H33 C20 1_555 1_555
H34 C22 1_555 1_555
H35 C23 1_555 1_555
H36 C24 1_555 1_555
H37 C25 1_555 1_555
H38 C26 1_555 1_555
N3 C6 1_555 1_555
N4 C3 1_555 1_555
N4 C5 1_555 1_555
C12 C13 1_555 1_555
N6 C18 1_555 1_555
N8 C17 1_555 1_555
N8 C19 1_555 1_555
C25 C26 1_555 1_555

#END
