
#######################################################################
#
#                 Cambridge Crystallographic Data Centre
#                                CCDC 
#
#######################################################################
#
# If this CIF has been generated from an entry in the Cambridge 
# Structural Database, then it will include bibliographic, chemical, 
# crystal, experimental, refinement or atomic coordinate data resulting 
# from the CCDC's data processing and validation procedures.
#
#######################################################################

data_BIDJED
_chemical_formula_moiety         'C15 H12 N4 O10'
_chemical_name_systematic        
2,2',6,6'-Tetranitro-4,4'-isopropylidenediphenol
_symmetry_cell_setting           monoclinic
_symmetry_space_group_name_H-M   'C 2/c'
_symmetry_Int_Tables_number      15
_space_group_name_Hall           '-C 2yn'
loop_
_symmetry_equiv_pos_site_id
_symmetry_equiv_pos_as_xyz
1 x,y,z
2 1/2+x,1/2+y,z
3 -x,y,1/2-z
4 1/2-x,1/2+y,1/2-z
5 -x,-y,-z
6 1/2-x,1/2-y,-z
7 x,-y,1/2+z
8 1/2+x,1/2-y,1/2+z
_cell_length_a                   17.202(1)
_cell_length_b                   9.477(1)
_cell_length_c                   11.263(1)
_cell_angle_alpha                90
_cell_angle_beta                 107.0(1)
_cell_angle_gamma                90
_cell_volume                     1755.9
_cell_formula_units_Z            4
loop_
_atom_site_label
_atom_site_type_symbol
_atom_site_fract_x
_atom_site_fract_y
_atom_site_fract_z
C1 C 0.92390 0.24110 0.20300
C2 C 0.85740 0.03760 0.08940
C3 C 0.78160 0.19500 0.17210
C4 C 1.00000 0.33350 0.25000
N1 N 0.86710 -0.09120 0.02390
O1 O 0.71310 -0.00230 0.06040
O2 O 0.80700 -0.16440 -0.02190
O3 O 0.66780 0.15200 0.23550
H1 H 0.85100 0.34900 0.26800
H2 H 0.96100 0.48000 0.34100
H3 H 0.72000 -0.07000 0.01000
C5 C 0.92600 0.12020 0.13620
C6 C 0.78210 0.07080 0.10500
C7 C 0.84940 0.27780 0.21950
C8 C 0.99620 0.42630 0.36000
N2 N 0.70630 0.23960 0.19750
O4 O 0.93320 -0.12150 0.01580
O5 O 0.68810 0.36410 0.18310
H4 H 0.97500 0.09200 0.12300
H5 H 0.98800 0.36900 0.42900
H6 H 1.04100 0.47100 0.39100
C1B C 1.07610 0.24110 0.29700
C8B C 1.00380 0.42630 0.14000
C5B C 1.07400 0.12020 0.36380
C7B C 1.15060 0.27780 0.28050
H2B H 1.03900 0.48000 0.15900
H5B H 1.01200 0.36900 0.07100
H6B H 0.95900 0.47100 0.10900
C2B C 1.14260 0.03760 0.41060
H4B H 1.02500 0.09200 0.37700
C3B C 1.21840 0.19500 0.32790
H1B H 1.14900 0.34900 0.23200
N1B N 1.13290 -0.09120 0.47610
C6B C 1.21790 0.07080 0.39500
N2B N 1.29370 0.23960 0.30250
O2B O 1.19300 -0.16440 0.52190
O4B O 1.06680 -0.12150 0.48420
O1B O 1.28690 -0.00230 0.43960
O3B O 1.33220 0.15200 0.26450
O5B O 1.31190 0.36410 0.31690
H3B H 1.28000 -0.07000 0.49000
loop_
_geom_bond_atom_site_label_1
_geom_bond_atom_site_label_2
_geom_bond_site_symmetry_1
_geom_bond_site_symmetry_2
C1 C4 1_555 1_555
C2 N1 1_555 1_555
C3 C6 1_555 1_555
C4 C8 1_555 1_555
N1 O2 1_555 1_555
O1 H3 1_555 1_555
O3 N2 1_555 1_555
H1 C7 1_555 1_555
H2 C8 1_555 1_555
C5 C1 1_555 1_555
C6 C2 1_555 1_555
C7 C1 1_555 1_555
C8 H5 1_555 1_555
N2 C3 1_555 1_555
O4 N1 1_555 1_555
O5 N2 1_555 1_555
H4 C5 1_555 1_555
H6 C8 1_555 1_555
C1B C4 1_555 1_555
C8B C4 1_555 1_555
C5B C1B 1_555 1_555
C7B C1B 1_555 1_555
H2B C8B 1_555 1_555
H5B C8B 1_555 1_555
H6B C8B 1_555 1_555
C2B C5B 1_555 1_555
H4B C5B 1_555 1_555
C3B C7B 1_555 1_555
H1B C7B 1_555 1_555
N1B C2B 1_555 1_555
C6B C2B 1_555 1_555
N2B C3B 1_555 1_555
O2B N1B 1_555 1_555
O4B N1B 1_555 1_555
O1B C6B 1_555 1_555
O3B N2B 1_555 1_555
O5B N2B 1_555 1_555
H3B O1B 1_555 1_555
C2 C5 1_555 1_555
C3 C7 1_555 1_555
O1 C6 1_555 1_555
C3B C6B 1_555 1_555

#END
