
#######################################################################
#
#                 Cambridge Crystallographic Data Centre
#                                CCDC 
#
#######################################################################
#
# If this CIF has been generated from an entry in the Cambridge 
# Structural Database, then it will include bibliographic, chemical, 
# crystal, experimental, refinement or atomic coordinate data resulting 
# from the CCDC's data processing and validation procedures.
#
#######################################################################

data_BIDKUX
_chemical_formula_moiety         'C18 H16 B1 Cl2 F1 O2'
_chemical_name_systematic        
dichloro-(3-(isopropylidene)-1-oxo-1-(4-fluorophenyl)-4-phenyl-2-oxabutan-4-yl)-boron
_symmetry_cell_setting           monoclinic
_symmetry_space_group_name_H-M   'P 21/n'
_symmetry_Int_Tables_number      14
_space_group_name_Hall           '-P 2yn'
loop_
_symmetry_equiv_pos_site_id
_symmetry_equiv_pos_as_xyz
1 x,y,z
2 1/2-x,1/2+y,1/2-z
3 -x,-y,-z
4 1/2+x,1/2-y,1/2+z
_cell_length_a                   10.4734(3)
_cell_length_b                   14.0452(4)
_cell_length_c                   12.0480(4)
_cell_angle_alpha                90
_cell_angle_beta                 100.970(3)
_cell_angle_gamma                90
_cell_volume                     1739.89
_exptl_crystal_colour            colorless
_exptl_crystal_description       block
_cell_formula_units_Z            4
loop_
_atom_site_label
_atom_site_type_symbol
_atom_site_fract_x
_atom_site_fract_y
_atom_site_fract_z
Cl1 Cl 0.22872(4) -0.08229(3) 1.00072(3)
Cl2 Cl 0.26030(4) 0.13260(3) 1.01220(3)
O1 O 0.33225(10) 0.02195(8) 0.85055(9)
O2 O 0.23425(10) 0.13094(8) 0.72402(9)
C1 C 0.54995(15) 0.02239(12) 0.74972(14)
H1 H 0.5553 -0.0105 0.8193
C2 C 0.53380(18) 0.12151(15) 0.54739(15)
H2 H 0.5306 0.1554 0.4786
C3 C 0.43768(15) 0.07312(11) 0.70423(13)
C4 C 0.65348(16) 0.01990(13) 0.69372(16)
H3 H 0.7301 -0.0150 0.7232
C5 C 0.42999(17) 0.12334(13) 0.60275(14)
H4 H 0.3538 0.1584 0.5723
C6 C 0.64190(17) 0.06959(14) 0.59403(16)
F1 F 0.74233(11) 0.06697(10) 0.53848(11)
C7 C 0.32937(15) 0.07436(11) 0.76426(13)
C8 C 0.11166(14) 0.13135(11) 0.76299(13)
C9 C 0.08775(14) 0.04433(11) 0.82676(13)
H5 H 0.0183 0.0600 0.8704
C10 C -0.08989(16) 0.22118(13) 0.76416(15)
H6 H -0.1086 0.1668 0.8094
H7 H -0.1537 0.2233 0.6932
H8 H -0.0949 0.2802 0.8065
C11 C 0.04438(15) 0.21092(11) 0.73859(13)
C12 C 0.09533(18) 0.29580(12) 0.68550(17)
H9 H 0.1114 0.3478 0.7406
H10 H 0.0312 0.3162 0.6196
H11 H 0.1768 0.2789 0.6616
C13 C 0.04180(14) -0.04178(11) 0.75296(13)
C14 C -0.03042(15) -0.11188(12) 0.79456(14)
H12 H -0.0500 -0.1049 0.8679
C15 C 0.06803(17) -0.05402(13) 0.64511(14)
H13 H 0.1158 -0.0066 0.6142
C16 C 0.0254(2) -0.13475(14) 0.58164(16)
H14 H 0.0454 -0.1424 0.5085
C17 C -0.07427(17) -0.19172(13) 0.73087(16)
H15 H -0.1241 -0.2384 0.7607
C18 C -0.04602(18) -0.20377(14) 0.62443(17)
H16 H -0.0753 -0.2588 0.5811
B1 B 0.22102(18) 0.02727(13) 0.91688(15)
loop_
_geom_bond_atom_site_label_1
_geom_bond_atom_site_label_2
_geom_bond_site_symmetry_1
_geom_bond_site_symmetry_2
Cl1 B1 1_555 1_555
Cl2 B1 1_555 1_555
O1 C7 1_555 1_555
O2 C7 1_555 1_555
C1 H1 1_555 1_555
C2 H2 1_555 1_555
C3 C1 1_555 1_555
C4 C1 1_555 1_555
H3 C4 1_555 1_555
C5 C2 1_555 1_555
H4 C5 1_555 1_555
C6 C2 1_555 1_555
F1 C6 1_555 1_555
C7 C3 1_555 1_555
C8 O2 1_555 1_555
C9 C8 1_555 1_555
H5 C9 1_555 1_555
C10 H6 1_555 1_555
H7 C10 1_555 1_555
H8 C10 1_555 1_555
C11 C8 1_555 1_555
C12 C11 1_555 1_555
H9 C12 1_555 1_555
H10 C12 1_555 1_555
H11 C12 1_555 1_555
C13 C9 1_555 1_555
C14 C13 1_555 1_555
H12 C14 1_555 1_555
C15 C13 1_555 1_555
H13 C15 1_555 1_555
C16 C15 1_555 1_555
H14 C16 1_555 1_555
C17 C14 1_555 1_555
H15 C17 1_555 1_555
C18 C16 1_555 1_555
H16 C18 1_555 1_555
B1 O1 1_555 1_555
C3 C5 1_555 1_555
C4 C6 1_555 1_555
C9 B1 1_555 1_555
C10 C11 1_555 1_555
C17 C18 1_555 1_555

#END
