
#######################################################################
#
#                 Cambridge Crystallographic Data Centre
#                                CCDC 
#
#######################################################################
#
# If this CIF has been generated from an entry in the Cambridge 
# Structural Database, then it will include bibliographic, chemical, 
# crystal, experimental, refinement or atomic coordinate data resulting 
# from the CCDC's data processing and validation procedures.
#
#######################################################################

data_BIDKEH
_chemical_formula_moiety         'C16 H12 B1 Cl2 N1 O4,C7 H8'
_chemical_name_systematic        
'3-chloro-1-[chloro(phenyl)boranyl]prop-1-en-2-yl 4-nitrobenzoate toluene solvate'
_symmetry_cell_setting           triclinic
_symmetry_space_group_name_H-M   'P -1'
_symmetry_Int_Tables_number      2
_space_group_name_Hall           '-P 1'
loop_
_symmetry_equiv_pos_site_id
_symmetry_equiv_pos_as_xyz
1 x,y,z
2 -x,-y,-z
_cell_length_a                   7.1918(4)
_cell_length_b                   10.3441(6)
_cell_length_c                   13.0804(7)
_cell_angle_alpha                96.791(4)
_cell_angle_beta                 100.323(5)
_cell_angle_gamma                92.295(4)
_cell_volume                     948.749
_exptl_crystal_colour            colorless
_exptl_crystal_description       block
_cell_formula_units_Z            2
loop_
_atom_site_label
_atom_site_type_symbol
_atom_site_fract_x
_atom_site_fract_y
_atom_site_fract_z
Cl1 Cl 0.80279(8) 1.22128(4) 0.69904(4)
Cl2 Cl 0.69630(8) 1.07717(5) 0.95655(4)
O1 O 0.59746(16) 0.82455(11) 0.79974(9)
O2 O 0.84522(19) 0.69850(13) 0.81687(11)
O3 O 0.2329(2) 0.21947(13) 0.92370(12)
O4 O 0.0198(2) 0.35962(13) 0.93001(11)
N1 N 0.1764(2) 0.32851(14) 0.91574(11)
C1 C 0.7078(2) 0.92887(16) 0.77517(14)
C2 C 0.5450(2) 0.61475(16) 0.84229(13)
C3 C 0.3651(2) 0.64591(17) 0.85843(13)
H1 H 0.3263 0.7320 0.8533
C4 C 0.2430(3) 0.55229(17) 0.88186(13)
H2 H 0.1203 0.5727 0.8937
C5 C 0.6821(3) 0.71375(16) 0.81931(13)
C6 C 0.7688(2) 1.05034(16) 0.50765(13)
C7 C 0.6783(2) 0.95111(17) 0.67627(13)
H3 H 0.5981 0.8866 0.6291
C8 C 0.3045(2) 0.42757(16) 0.88759(13)
C9 C 0.4806(3) 0.39317(17) 0.87072(13)
H4 H 0.5176 0.3065 0.8745
C10 C 0.8341(3) 1.00069(17) 0.86826(13)
H5 H 0.9151 1.0677 0.8460
H6 H 0.9175 0.9395 0.9041
C11 C 0.6019(3) 0.48825(17) 0.84810(14)
H7 H 0.7244 0.4673 0.8365
C12 C 0.8210(3) 1.15593(18) 0.45844(14)
H8 H 0.8485 1.2398 0.4980
C13 C 0.7918(3) 1.0194(2) 0.29476(15)
H9 H 0.7977 1.0091 0.2223
C14 C 0.7420(3) 0.91360(19) 0.34130(15)
H10 H 0.7151 0.8301 0.3011
C15 C 0.8331(3) 1.1401(2) 0.35362(15)
H11 H 0.8700 1.2127 0.3219
C16 C 0.7312(2) 0.92899(18) 0.44627(14)
H12 H 0.6973 0.8553 0.4775
B1 B 0.7526(3) 1.06489(19) 0.62474(16)
loop_
_geom_bond_atom_site_label_1
_geom_bond_atom_site_label_2
_geom_bond_site_symmetry_1
_geom_bond_site_symmetry_2
Cl1 B1 1_555 1_555
Cl2 C10 1_555 1_555
O1 C1 1_555 1_555
O2 C5 1_555 1_555
O3 N1 1_555 1_555
O4 N1 1_555 1_555
N1 C8 1_555 1_555
C1 C7 1_555 1_555
C2 C3 1_555 1_555
C3 H1 1_555 1_555
C4 C3 1_555 1_555
H2 C4 1_555 1_555
C5 O1 1_555 1_555
C6 C12 1_555 1_555
C7 H3 1_555 1_555
C8 C4 1_555 1_555
C9 C8 1_555 1_555
H4 C9 1_555 1_555
C10 C1 1_555 1_555
H5 C10 1_555 1_555
H6 C10 1_555 1_555
C11 C2 1_555 1_555
H7 C11 1_555 1_555
C12 H8 1_555 1_555
C13 H9 1_555 1_555
C14 C13 1_555 1_555
H10 C14 1_555 1_555
C15 C12 1_555 1_555
H11 C15 1_555 1_555
C16 C6 1_555 1_555
H12 C16 1_555 1_555
B1 C6 1_555 1_555
C2 C5 1_555 1_555
C7 B1 1_555 1_555
C9 C11 1_555 1_555
C13 C15 1_555 1_555
C14 C16 1_555 1_555

#END
