
#######################################################################
#
#                 Cambridge Crystallographic Data Centre
#                                CCDC 
#
#######################################################################
#
# If this CIF has been generated from an entry in the Cambridge 
# Structural Database, then it will include bibliographic, chemical, 
# crystal, experimental, refinement or atomic coordinate data resulting 
# from the CCDC's data processing and validation procedures.
#
#######################################################################

data_BIDLAD
_chemical_formula_moiety         'C16 H13 Cl1 I1 N1 O1'
_chemical_name_systematic        
'5-(4-Chlorophenyl)-5-(iodomethyl)-3-phenyl-4,5-dihydro-1,2-oxazole unknown solvate'
_symmetry_cell_setting           hexagonal
_symmetry_space_group_name_H-M   'P 65'
_symmetry_Int_Tables_number      170
_space_group_name_Hall           'P 65'
loop_
_symmetry_equiv_pos_site_id
_symmetry_equiv_pos_as_xyz
1 x,y,z
2 x-y,x,5/6+z
3 -y,x-y,2/3+z
4 -x,-y,1/2+z
5 -x+y,-x,1/3+z
6 y,-x+y,1/6+z
_cell_length_a                   21.7864(15)
_cell_length_b                   21.7864(15)
_cell_length_c                   5.6800(5)
_cell_angle_alpha                90
_cell_angle_beta                 90
_cell_angle_gamma                120
_cell_volume                     2334.8
_exptl_crystal_colour            colorless
_exptl_crystal_description       needle
_cell_formula_units_Z            6
loop_
_atom_site_label
_atom_site_type_symbol
_atom_site_fract_x
_atom_site_fract_y
_atom_site_fract_z
I1 I 0.77249(2) 0.32534(2) 0.08426(12)
Cl1 Cl 0.50522(8) -0.08018(8) -0.6342(3)
O1 O 0.7511(2) 0.1668(2) 0.0644(9)
N1 N 0.8204(2) 0.1759(3) 0.0520(11)
C1 C 0.9571(3) 0.1982(3) -0.0618(14)
C2 C 0.6732(3) 0.1165(3) -0.2737(13)
C3 C 1.0237(3) 0.2117(4) -0.1204(15)
C4 C 0.8470(3) 0.2029(3) -0.1507(13)
C5 C 1.0537(3) 0.2441(4) -0.3345(14)
C6 C 0.6468(3) 0.1206(3) -0.4912(13)
C7 C 1.0164(3) 0.2633(3) -0.4863(13)
C8 C 0.5684(3) -0.0045(3) -0.4910(13)
C9 C 0.8003(3) 0.2180(3) -0.3026(13)
C10 C 0.6462(3) 0.0508(3) -0.1645(13)
C11 C 0.7009(3) 0.2320(3) -0.1077(15)
C12 C 0.9487(3) 0.2495(3) -0.4270(14)
C13 C 0.9185(3) 0.2167(3) -0.2126(13)
C14 C 0.5930(3) -0.0103(3) -0.2724(14)
C15 C 0.5936(3) 0.0605(3) -0.6017(14)
C16 C 0.7321(3) 0.1843(3) -0.1611(13)
H1 H 0.93730 0.17640 0.08100
H2 H 0.66490 0.16440 -0.56470
H3 H 1.04880 0.19920 -0.01740
H4 H 0.79350 0.19610 -0.45630
H5 H 1.09880 0.25290 -0.37520
H6 H 0.81930 0.26860 -0.32180
H7 H 1.03670 0.28550 -0.62820
H8 H 0.66370 0.04750 -0.01850
H9 H 0.65770 0.20540 -0.01720
H10 H 0.68860 0.24590 -0.25470
H11 H 0.92360 0.26210 -0.52970
H12 H 0.57440 -0.05410 -0.19860
H13 H 0.57530 0.06390 -0.74610
loop_
_geom_bond_atom_site_label_1
_geom_bond_atom_site_label_2
_geom_bond_site_symmetry_1
_geom_bond_site_symmetry_2
I1 C11 1_555 1_555
Cl1 C8 1_555 1_555
O1 N1 1_555 1_555
N1 C4 1_555 1_555
C1 C3 1_555 1_555
C2 C6 1_555 1_555
C3 C5 1_555 1_555
C4 C9 1_555 1_555
C5 C7 1_555 1_555
C6 C15 1_555 1_555
C7 C12 1_555 1_555
C8 C14 1_555 1_555
C9 C16 1_555 1_555
C10 C2 1_555 1_555
C11 C16 1_555 1_555
C12 C13 1_555 1_555
C13 C1 1_555 1_555
C14 C10 1_555 1_555
C15 C8 1_555 1_555
C16 O1 1_555 1_555
H1 C1 1_555 1_555
H2 C6 1_555 1_555
H3 C3 1_555 1_555
H4 C9 1_555 1_555
H5 C5 1_555 1_555
H6 C9 1_555 1_555
H7 C7 1_555 1_555
H8 C10 1_555 1_555
H9 C11 1_555 1_555
H10 C11 1_555 1_555
H11 C12 1_555 1_555
H12 C14 1_555 1_555
H13 C15 1_555 1_555
C2 C16 1_555 1_555
C4 C13 1_555 1_555

#END
