
#######################################################################
#
#                 Cambridge Crystallographic Data Centre
#                                CCDC 
#
#######################################################################
#
# If this CIF has been generated from an entry in the Cambridge 
# Structural Database, then it will include bibliographic, chemical, 
# crystal, experimental, refinement or atomic coordinate data resulting 
# from the CCDC's data processing and validation procedures.
#
#######################################################################

data_BIDMEJ
_chemical_formula_moiety         'C35 H30 N2 O4 S4'
_chemical_name_systematic        
'diethyl 6,9-dimethyl-4,12-bis(5-methylthiophen-2-yl)-2H-1,11-etheno-5,10-dithia-1,2a-diazadicyclopenta[4,5:6,7]cycloocta[1,2,3-cd]pentalene-3,13-dicarboxylate'
_symmetry_cell_setting           orthorhombic
_symmetry_space_group_name_H-M   'P 21 21 21'
_symmetry_Int_Tables_number      19
_space_group_name_Hall           'P 2ac 2ab'
loop_
_symmetry_equiv_pos_site_id
_symmetry_equiv_pos_as_xyz
1 x,y,z
2 1/2-x,-y,1/2+z
3 -x,1/2+y,1/2-z
4 1/2+x,1/2-y,-z
_cell_length_a                   7.5419(18)
_cell_length_b                   16.146(5)
_cell_length_c                   25.891(7)
_cell_angle_alpha                90
_cell_angle_beta                 90
_cell_angle_gamma                90
_cell_volume                     3152.79
_exptl_crystal_colour            yellow
_exptl_crystal_description       NEEDLE
_cell_formula_units_Z            4
loop_
_atom_site_label
_atom_site_type_symbol
_atom_site_fract_x
_atom_site_fract_y
_atom_site_fract_z
C1 C 0.7018(4) 0.67557(19) 0.59995(12)
H1 H 0.6765 0.7264 0.5799
H2 H 0.7685 0.6901 0.6316
N1 N 0.5380(3) 0.62849(16) 0.61184(9)
C2 C 0.3897(4) 0.6382(2) 0.64244(10)
C3 C 0.3007(4) 0.56164(19) 0.64317(11)
C4 C 0.4082(4) 0.5039(2) 0.61474(11)
C5 C 0.5462(4) 0.54915(19) 0.59462(11)
C6 C 0.3654(4) 0.71888(19) 0.66705(11)
O1 O 0.4781(3) 0.77285(14) 0.66644(9)
O2 O 0.2088(3) 0.72665(14) 0.69078(8)
C7 C 0.1794(4) 0.8048(2) 0.71730(14)
H3 H 0.1948 0.8518 0.6931
H4 H 0.2648 0.8113 0.7461
C8 C -0.0076(5) 0.8029(2) 0.73767(15)
H5 H -0.0328 0.8547 0.7560
H6 H -0.0210 0.7561 0.7615
H7 H -0.0906 0.7966 0.7088
C9 C 0.1248(4) 0.53784(19) 0.66227(11)
S1 S 0.01653(10) 0.57738(5) 0.71610(3)
C10 C -0.1584(4) 0.5097(2) 0.70979(12)
C11 C -0.1357(4) 0.4601(2) 0.66797(11)
H8 H -0.2186 0.4189 0.6578
C12 C 0.0234(4) 0.4759(2) 0.64114(11)
H9 H 0.0575 0.4462 0.6110
C13 C -0.3132(4) 0.5134(2) 0.74601(13)
H10 H -0.3882 0.5609 0.7371
H11 H -0.2702 0.5196 0.7815
H12 H -0.3824 0.4623 0.7431
C14 C 0.4218(4) 0.4129(2) 0.61781(11)
S2 S 0.37254(10) 0.36725(5) 0.67714(3)
C15 C 0.4604(4) 0.27287(19) 0.65900(12)
C16 C 0.5254(4) 0.27727(19) 0.61045(12)
H13 H 0.5787 0.2312 0.5937
C17 C 0.5080(4) 0.35692(18) 0.58603(11)
C18 C 0.4488(5) 0.1988(2) 0.69366(13)
H14 H 0.4823 0.1490 0.6743
H15 H 0.3270 0.1929 0.7063
H16 H 0.5294 0.2060 0.7230
N2 N 0.7951(3) 0.61273(16) 0.56873(9)
C19 C 0.9330(4) 0.6117(2) 0.53354(11)
C20 C 0.9239(4) 0.5360(2) 0.50737(11)
C21 C 0.7741(4) 0.49062(19) 0.52653(11)
C22 C 0.7024(4) 0.54036(19) 0.56449(11)
C23 C 1.0589(4) 0.6801(2) 0.52913(12)
O3 O 1.1812(3) 0.68268(15) 0.49893(9)
O4 O 1.0184(3) 0.74051(13) 0.56262(8)
C24 C 1.1190(4) 0.8167(2) 0.55746(14)
H17 H 1.1374 0.8298 0.5205
H18 H 1.2365 0.8105 0.5741
C25 C 1.0174(4) 0.8842(2) 0.58285(14)
H19 H 1.0844 0.9361 0.5805
H20 H 0.9982 0.8702 0.6193
H21 H 0.9027 0.8908 0.5656
C26 C 1.0376(11) 0.5107(4) 0.46459(15)
S3 S 1.01656(11) 0.56101(6) 0.40571(3)
C27 C 1.1693(5) 0.4978(3) 0.37623(14)
C28 C 1.2326(4) 0.4411(2) 0.41073(14)
H22 H 1.3195 0.4009 0.4019
C29 C 1.1564(8) 0.4474(4) 0.4617(2)
H23 H 1.1855 0.4118 0.4897
C30 C 1.2235(5) 0.5122(3) 0.32125(13)
H24 H 1.3517 0.5040 0.3179
H25 H 1.1931 0.5689 0.3112
H26 H 1.1611 0.4730 0.2988
C31 C 0.6892(4) 0.41463(19) 0.50786(11)
S4 S 0.72438(9) 0.38415(5) 0.44377(3)
C32 C 0.5756(4) 0.3036(2) 0.44860(12)
C33 C 0.5045(4) 0.30044(19) 0.49647(12)
H27 H 0.4202 0.2597 0.5064
C34 C 0.5662(3) 0.36304(19) 0.53079(11)
C35 C 0.5400(4) 0.2462(2) 0.40392(13)
H28 H 0.6416 0.2092 0.3991
H29 H 0.5218 0.2789 0.3725
H30 H 0.4336 0.2134 0.4111
C36? C 1.028(13) 0.521(6) 0.4577(16)
S5? S 1.181(3) 0.4408(14) 0.4523(7)
C37? C 1.211(5) 0.456(2) 0.3884(10)
C38? C 1.103(5) 0.519(3) 0.3722(13)
H31? H 1.1145 0.5449 0.3395
C39? C 0.971(6) 0.541(3) 0.4093(17)
H32? H 0.8608 0.5669 0.4014
C40? C 1.341(6) 0.408(3) 0.3564(16)
H33? H 1.3821 0.4418 0.3274
H34? H 1.2839 0.3577 0.3432
H35? H 1.4432 0.3923 0.3779
loop_
_geom_bond_atom_site_label_1
_geom_bond_atom_site_label_2
_geom_bond_site_symmetry_1
_geom_bond_site_symmetry_2
C1 H1 1_555 1_555
H2 C1 1_555 1_555
N1 C1 1_555 1_555
C2 N1 1_555 1_555
C3 C2 1_555 1_555
C4 C3 1_555 1_555
C5 N1 1_555 1_555
C6 C2 1_555 1_555
O1 C6 1_555 1_555
O2 C6 1_555 1_555
C7 O2 1_555 1_555
H3 C7 1_555 1_555
H4 C7 1_555 1_555
C8 C7 1_555 1_555
H5 C8 1_555 1_555
H6 C8 1_555 1_555
H7 C8 1_555 1_555
C9 C3 1_555 1_555
S1 C9 1_555 1_555
C10 S1 1_555 1_555
C11 C10 1_555 1_555
H8 C11 1_555 1_555
C12 C9 1_555 1_555
H9 C12 1_555 1_555
C13 C10 1_555 1_555
H10 C13 1_555 1_555
H11 C13 1_555 1_555
H12 C13 1_555 1_555
C14 C4 1_555 1_555
S2 C14 1_555 1_555
C15 S2 1_555 1_555
C16 C15 1_555 1_555
H13 C16 1_555 1_555
C17 C14 1_555 1_555
C18 C15 1_555 1_555
H14 C18 1_555 1_555
H15 C18 1_555 1_555
H16 C18 1_555 1_555
N2 C1 1_555 1_555
C19 N2 1_555 1_555
C20 C19 1_555 1_555
C21 C20 1_555 1_555
C22 C5 1_555 1_555
C23 C19 1_555 1_555
O3 C23 1_555 1_555
O4 C23 1_555 1_555
C24 O4 1_555 1_555
H17 C24 1_555 1_555
H18 C24 1_555 1_555
C25 C24 1_555 1_555
H19 C25 1_555 1_555
H20 C25 1_555 1_555
H21 C25 1_555 1_555
C26 C20 1_555 1_555
S3 C26 1_555 1_555
C27 S3 1_555 1_555
C28 C27 1_555 1_555
H22 C28 1_555 1_555
C29 C26 1_555 1_555
H23 C29 1_555 1_555
C30 C27 1_555 1_555
H24 C30 1_555 1_555
H25 C30 1_555 1_555
H26 C30 1_555 1_555
C31 C21 1_555 1_555
S4 C31 1_555 1_555
C32 S4 1_555 1_555
C33 C32 1_555 1_555
H27 C33 1_555 1_555
C34 C17 1_555 1_555
C35 C32 1_555 1_555
H28 C35 1_555 1_555
H29 C35 1_555 1_555
H30 C35 1_555 1_555
C4 C5 1_555 1_555
C11 C12 1_555 1_555
C16 C17 1_555 1_555
N2 C22 1_555 1_555
C21 C22 1_555 1_555
C28 C29 1_555 1_555
C31 C34 1_555 1_555
C33 C34 1_555 1_555

#END
