
#######################################################################
#
#                 Cambridge Crystallographic Data Centre
#                                CCDC 
#
#######################################################################
#
# If this CIF has been generated from an entry in the Cambridge 
# Structural Database, then it will include bibliographic, chemical, 
# crystal, experimental, refinement or atomic coordinate data resulting 
# from the CCDC's data processing and validation procedures.
#
#######################################################################

data_BIDVAN
_chemical_formula_moiety         'C17 H24 N2 O4,H2 O1'
_chemical_name_systematic        
'1-Methyl-3,4,6,7,9,10,12,13-octahydro-1H-[1,4,7,10,13]tetraoxazacyclopentadecino[13,12-a]benzimidazole monohydrate'
_symmetry_cell_setting           monoclinic
_symmetry_space_group_name_H-M   'P 21'
_symmetry_Int_Tables_number      4
_space_group_name_Hall           'P 2yb'
loop_
_symmetry_equiv_pos_site_id
_symmetry_equiv_pos_as_xyz
1 x,y,z
2 -x,1/2+y,-z
_cell_length_a                   11.931(2)
_cell_length_b                   4.6000(7)
_cell_length_c                   15.686(4)
_cell_angle_alpha                90
_cell_angle_beta                 93.33(2)
_cell_angle_gamma                90
_cell_volume                     859.435
_exptl_crystal_colour            colorless
_exptl_crystal_description       needle
_cell_formula_units_Z            2
loop_
_atom_site_label
_atom_site_type_symbol
_atom_site_fract_x
_atom_site_fract_y
_atom_site_fract_z
O1 O 0.41477(18) 0.6630(5) 0.85524(14)
O2 O 0.65953(19) 0.6419(5) 0.87434(17)
O3 O 0.7275(2) 0.6926(7) 0.69793(18)
N1 N 0.1505(3) 0.3592(6) 0.8193(2)
N2 N 0.2529(3) 0.5349(7) 0.7155(2)
C1 C 0.1130(3) 0.2377(9) 0.7412(3)
C2 C 0.0267(3) 0.0373(9) 0.7210(3)
H1 H -0.0167 -0.0408 0.7645
C3 C 0.0065(4) -0.0425(10) 0.6382(3)
H2 H -0.0518 -0.1771 0.6235
C4 C 0.0705(4) 0.0709(14) 0.5748(3)
H3 H 0.0545 0.0104 0.5175
C5 C 0.1561(4) 0.2677(14) 0.5916(3)
H4 H 0.1987 0.3447 0.5476
C6 C 0.1764(3) 0.3463(10) 0.6757(3)
C7 C 0.2334(3) 0.5324(8) 0.8010(3)
C8 C 0.2971(3) 0.7182(8) 0.8645(3)
H5 H 0.2820 0.9258 0.8488
C9 C 0.2634(3) 0.6740(9) 0.9540(3)
H6 H 0.2776 0.4719 0.9711
H7 H 0.1832 0.7171 0.9570
H8 H 0.3071 0.8042 0.9926
C10 C 0.4858(3) 0.8843(8) 0.8924(3)
H9 H 0.5013 0.8450 0.9540
H10 H 0.4483 1.0758 0.8863
C11 C 0.5945(3) 0.8883(8) 0.8476(3)
H11 H 0.5786 0.8826 0.7850
H12 H 0.6365 1.0690 0.8620
C12 C 0.7727(3) 0.6506(8) 0.8479(2)
H13 H 0.8222 0.5445 0.8902
H14 H 0.7983 0.8553 0.8470
C13 C 0.7836(3) 0.5205(9) 0.7623(3)
H15 H 0.8640 0.5043 0.7507
H16 H 0.7511 0.3224 0.7612
C14 C 0.3371(4) 0.7025(13) 0.6727(3)
H17 H 0.3032 0.7641 0.6165
H18 H 0.3527 0.8812 0.7065
O4 O 0.5059(4) 0.7850(16) 0.6195(3)
C15 C 0.6773(8) 0.486(2) 0.6349(6)
H19 H 0.6370 0.3300 0.6640
H20 H 0.7363 0.3965 0.6017
C16 C 0.5966(7) 0.658(2) 0.5767(4)
H21 H 0.6386 0.8140 0.5492
H22 H 0.5652 0.5275 0.5311
C17 C 0.4360(9) 0.5749(19) 0.6596(6)
H23 H 0.4242 0.4027 0.6223
H24 H 0.4725 0.5104 0.7146
O6 O -0.0048(3) 0.2618(8) 0.9489(3)
H31 H 0.038(7) 0.24(2) 0.876(5)
H32 H 0.006(4) 0.150(8) 0.971(3)
O5? O 0.5213(8) 0.587(2) 0.6093(5)
C18? C 0.7253(10) 0.613(2) 0.6079(7)
H25? H 0.7944 0.5074 0.5943
H26? H 0.7163 0.7859 0.5707
C19? C 0.6216(11) 0.414(3) 0.5984(10)
H27? H 0.6173 0.3220 0.5413
H28? H 0.6274 0.2580 0.6420
C20? C 0.4393(12) 0.423(3) 0.6505(10)
H29? H 0.4712 0.3317 0.7037
H30? H 0.4059 0.2700 0.6124
loop_
_geom_bond_atom_site_label_1
_geom_bond_atom_site_label_2
_geom_bond_site_symmetry_1
_geom_bond_site_symmetry_2
O1 C8 1_555 1_555
O2 C11 1_555 1_555
O3 C13 1_555 1_555
N1 C1 1_555 1_555
N2 C6 1_555 1_555
C1 C2 1_555 1_555
C2 H1 1_555 1_555
C3 C2 1_555 1_555
H2 C3 1_555 1_555
C4 C3 1_555 1_555
H3 C4 1_555 1_555
C5 C4 1_555 1_555
H4 C5 1_555 1_555
C6 C1 1_555 1_555
C7 N1 1_555 1_555
C8 C7 1_555 1_555
H5 C8 1_555 1_555
C9 C8 1_555 1_555
H6 C9 1_555 1_555
H7 C9 1_555 1_555
H8 C9 1_555 1_555
C10 O1 1_555 1_555
H9 C10 1_555 1_555
H10 C10 1_555 1_555
C11 C10 1_555 1_555
H11 C11 1_555 1_555
H12 C11 1_555 1_555
C12 O2 1_555 1_555
H13 C12 1_555 1_555
H14 C12 1_555 1_555
C13 C12 1_555 1_555
H15 C13 1_555 1_555
H16 C13 1_555 1_555
C14 N2 1_555 1_555
H17 C14 1_555 1_555
H18 C14 1_555 1_555
O4 C16 1_555 1_555
C15 O3 1_555 1_555
H19 C15 1_555 1_555
H20 C15 1_555 1_555
C16 C15 1_555 1_555
H21 C16 1_555 1_555
H22 C16 1_555 1_555
C17 C14 1_555 1_555
H23 C17 1_555 1_555
H24 C17 1_555 1_555
O6 H31 1_555 1_555
H32 O6 1_555 1_555
N2 C7 1_555 1_555
C5 C6 1_555 1_555
O4 C17 1_555 1_555

#END
