
#######################################################################
#
#                 Cambridge Crystallographic Data Centre
#                                CCDC 
#
#######################################################################
#
# If this CIF has been generated from an entry in the Cambridge 
# Structural Database, then it will include bibliographic, chemical, 
# crystal, experimental, refinement or atomic coordinate data resulting 
# from the CCDC's data processing and validation procedures.
#
#######################################################################

data_BIDXAN
_chemical_formula_moiety         'C19 H22 N2 O3'
_chemical_name_systematic        
N-(Acetylacetonylidene)-4,4'-diamino-3,3'-dimethoxybiphenyl
_symmetry_cell_setting           monoclinic
_symmetry_space_group_name_H-M   'P 21/c'
_symmetry_Int_Tables_number      14
_space_group_name_Hall           '-P 2ybc'
loop_
_symmetry_equiv_pos_site_id
_symmetry_equiv_pos_as_xyz
1 x,y,z
2 -x,1/2+y,1/2-z
3 -x,-y,-z
4 x,1/2-y,1/2+z
_cell_length_a                   14.871(3)
_cell_length_b                   7.290(1)
_cell_length_c                   16.787(3)
_cell_angle_alpha                90
_cell_angle_beta                 106.97(3)
_cell_angle_gamma                90
_cell_volume                     1740.63
_exptl_crystal_colour            yellow-brown
_chemical_melting_point          175-176deg.C
_cell_formula_units_Z            4
_exptl_crystal_recrystallization_method 'anhydrous ethanol'
loop_
_atom_site_label
_atom_site_type_symbol
_atom_site_fract_x
_atom_site_fract_y
_atom_site_fract_z
O1 O 0.3773(2) 0.0122(5) 0.9075(2)
O2 O -0.1902(2) 0.2904(5) 0.8414(2)
O3 O -0.4202(2) -0.0345(6) 0.7517(2)
N1 N 0.4148(3) 0.1080(7) 1.0675(3)
N2 N -0.2530(2) 0.0239(6) 0.7337(2)
C1 C -0.2384(3) 0.0266(8) 0.5908(3)
C2 C -0.2955(3) 0.0051(7) 0.6514(3)
C3 C -0.3893(3) -0.0259(7) 0.6228(3)
C4 C -0.4494(3) -0.0502(8) 0.6740(3)
C5 C -0.5491(3) -0.1008(9) 0.6346(3)
C6 C 0.1338(3) 0.0583(6) 0.9219(3)
C7 C 0.2082(3) 0.0232(6) 0.8872(3)
C8 C 0.3002(3) 0.0389(7) 0.9368(3)
C9 C 0.3226(3) 0.0866(7) 1.0198(3)
C10 C 0.2489(3) 0.1173(7) 1.0537(3)
C11 C 0.1562(3) 0.1046(7) 1.0049(3)
C12 C 0.3597(3) -0.0046(8) 0.8194(3)
C13 C 0.0347(3) 0.0487(7) 0.8691(3)
C14 C -0.0299(3) 0.1772(7) 0.8812(3)
C15 C -0.1226(3) 0.1702(7) 0.8339(3)
C16 C -0.1548(3) 0.0341(7) 0.7750(3)
C17 C -0.0909(3) -0.0935(7) 0.7630(3)
C18 C 0.0030(3) -0.0861(7) 0.8092(3)
C19 C -0.1637(4) 0.4257(10) 0.9039(4)
loop_
_geom_bond_atom_site_label_1
_geom_bond_atom_site_label_2
_geom_bond_site_symmetry_1
_geom_bond_site_symmetry_2
O1 C8 1_555 1_555
O2 C15 1_555 1_555
O3 C4 1_555 1_555
N1 C9 1_555 1_555
N2 C2 1_555 1_555
C1 C2 1_555 1_555
C2 C3 1_555 1_555
C3 C4 1_555 1_555
C4 C5 1_555 1_555
C6 C7 1_555 1_555
C7 C8 1_555 1_555
C8 C9 1_555 1_555
C9 C10 1_555 1_555
C10 C11 1_555 1_555
C11 C6 1_555 1_555
C12 O1 1_555 1_555
C13 C6 1_555 1_555
C14 C13 1_555 1_555
C15 C14 1_555 1_555
C16 N2 1_555 1_555
C17 C16 1_555 1_555
C18 C13 1_555 1_555
C19 O2 1_555 1_555
C15 C16 1_555 1_555
C17 C18 1_555 1_555

#END
