
#######################################################################
#
#                 Cambridge Crystallographic Data Centre
#                                CCDC 
#
#######################################################################
#
# If this CIF has been generated from an entry in the Cambridge 
# Structural Database, then it will include bibliographic, chemical, 
# crystal, experimental, refinement or atomic coordinate data resulting 
# from the CCDC's data processing and validation procedures.
#
#######################################################################

data_BIDZUM
_chemical_formula_moiety         'C22 H11 F6 N3'
_chemical_name_systematic        
4,4'-{[2,5-bis(trifluoromethyl)phenyl]azanediyl}dibenzonitrile
_symmetry_cell_setting           monoclinic
_symmetry_space_group_name_H-M   'P 21/c'
_symmetry_Int_Tables_number      14
_space_group_name_Hall           '-P 2ybc'
loop_
_symmetry_equiv_pos_site_id
_symmetry_equiv_pos_as_xyz
1 x,y,z
2 -x,1/2+y,1/2-z
3 -x,-y,-z
4 x,1/2-y,1/2+z
_cell_length_a                   9.9521(8)
_cell_length_b                   8.5704(7)
_cell_length_c                   23.8029(18)
_cell_angle_alpha                90
_cell_angle_beta                 90.475(2)
_cell_angle_gamma                90
_cell_volume                     2030.16
_exptl_crystal_colour            yellow
_exptl_crystal_description       block
_cell_formula_units_Z            4
loop_
_atom_site_label
_atom_site_type_symbol
_atom_site_fract_x
_atom_site_fract_y
_atom_site_fract_z
N1 N 0.7156(2) 0.4267(2) 0.38609(8)
C1 C 0.7848(2) 0.4661(3) 0.48329(9)
H1 H 0.754820 0.366546 0.492319
C2 C 0.8966(3) 0.4255(3) 0.31889(10)
H2 H 0.955202 0.400430 0.348161
C3 C 0.7722(2) 0.5202(3) 0.42828(9)
C4 C 0.7618(2) 0.4453(3) 0.32955(9)
C5 C 0.6354(2) 0.2953(3) 0.39866(9)
F1 F 0.4574(2) 0.3991(4) 0.30833(13)
C6 C 0.8883(2) 0.7061(3) 0.51139(10)
C7 C 0.8776(3) 0.7602(3) 0.45677(11)
H3 H 0.910153 0.858674 0.447678
F2 F 1.1588(3) 0.3636(4) 0.29629(14)
C8 C 0.8411(3) 0.5585(3) 0.52417(10)
H4 H 0.847539 0.521622 0.560844
C9 C 0.8190(3) 0.6690(3) 0.41592(10)
H5 H 0.810624 0.707234 0.379504
N2 N 0.9946(3) 0.8748(4) 0.58938(11)
F3 F 0.5124(3) 0.6172(4) 0.33683(16)
C10 C 0.9484(3) 0.8010(3) 0.55468(12)
C11 C 0.6594(3) 0.1544(3) 0.37331(11)
H6 H 0.732342 0.143521 0.349428
C12 C 0.9455(3) 0.4427(3) 0.26503(11)
F4 F 0.4715(3) 0.5819(5) 0.25080(14)
F5 F 1.1479(3) 0.5676(3) 0.24845(18)
C13 C 0.6749(3) 0.4846(3) 0.28570(11)
C14 C 0.5762(3) 0.0287(4) 0.38301(13)
H7 H 0.592944 -0.066337 0.365530
C15 C 0.8589(4) 0.4752(4) 0.22149(12)
H8 H 0.891155 0.483533 0.185062
C16 C 0.4688(3) 0.0435(4) 0.41844(13)
C17 C 0.4472(3) 0.1834(5) 0.44545(13)
H9 H 0.376788 0.192368 0.470712
C18 C 0.5284(3) 0.3096(4) 0.43545(12)
H10 H 0.511863 0.404268 0.453202
F6 F 1.1239(4) 0.3506(5) 0.21090(15)
C19 C 0.7255(4) 0.4952(5) 0.23167(12)
H11 H 0.667249 0.516378 0.201869
C20 C 0.5308(4) 0.5209(5) 0.29481(17)
C21 C 0.3775(4) -0.0835(5) 0.42645(16)
N3 N 0.3026(5) -0.1830(6) 0.43161(19)
C22 C 1.0923(4) 0.4327(4) 0.25517(17)
loop_
_geom_bond_atom_site_label_1
_geom_bond_atom_site_label_2
_geom_bond_site_symmetry_1
_geom_bond_site_symmetry_2
N1 C3 1_555 1_555
C1 H1 1_555 1_555
C2 H2 1_555 1_555
C3 C1 1_555 1_555
C4 N1 1_555 1_555
C5 N1 1_555 1_555
F1 C20 1_555 1_555
C6 C7 1_555 1_555
C7 H3 1_555 1_555
F2 C22 1_555 1_555
C8 C1 1_555 1_555
H4 C8 1_555 1_555
C9 C3 1_555 1_555
H5 C9 1_555 1_555
N2 C10 1_555 1_555
F3 C20 1_555 1_555
C10 C6 1_555 1_555
C11 C5 1_555 1_555
H6 C11 1_555 1_555
C12 C2 1_555 1_555
F4 C20 1_555 1_555
F5 C22 1_555 1_555
C13 C4 1_555 1_555
C14 C11 1_555 1_555
H7 C14 1_555 1_555
C15 C12 1_555 1_555
H8 C15 1_555 1_555
C16 C14 1_555 1_555
C17 C16 1_555 1_555
H9 C17 1_555 1_555
C18 C5 1_555 1_555
H10 C18 1_555 1_555
F6 C22 1_555 1_555
C19 C13 1_555 1_555
H11 C19 1_555 1_555
C20 C13 1_555 1_555
C21 C16 1_555 1_555
N3 C21 1_555 1_555
C22 C12 1_555 1_555
C2 C4 1_555 1_555
C6 C8 1_555 1_555
C7 C9 1_555 1_555
C15 C19 1_555 1_555
C17 C18 1_555 1_555

#END
