
#######################################################################
#
#                 Cambridge Crystallographic Data Centre
#                                CCDC 
#
#######################################################################
#
# If this CIF has been generated from an entry in the Cambridge 
# Structural Database, then it will include bibliographic, chemical, 
# crystal, experimental, refinement or atomic coordinate data resulting 
# from the CCDC's data processing and validation procedures.
#
#######################################################################

data_BIFKOT
_chemical_formula_moiety         'C22 H27 N1 S1'
_chemical_name_systematic        
1-[2-(3,5-dimethylphenyl)-3,4-dihydroquinolin-1(2H)-yl]-2,2-dimethylpropane-1-thione
_symmetry_cell_setting           orthorhombic
_symmetry_space_group_name_H-M   'P 21 21 21'
_symmetry_Int_Tables_number      19
_space_group_name_Hall           'P 2ac 2ab'
loop_
_symmetry_equiv_pos_site_id
_symmetry_equiv_pos_as_xyz
1 x,y,z
2 1/2-x,-y,1/2+z
3 -x,1/2+y,1/2-z
4 1/2+x,1/2-y,-z
_cell_length_a                   7.1934(2)
_cell_length_b                   7.4972(2)
_cell_length_c                   35.2212(8)
_cell_angle_alpha                90
_cell_angle_beta                 90
_cell_angle_gamma                90
_cell_volume                     1899.49
_exptl_crystal_colour            yellow
_exptl_crystal_description       prism
_cell_formula_units_Z            4
loop_
_atom_site_label
_atom_site_type_symbol
_atom_site_fract_x
_atom_site_fract_y
_atom_site_fract_z
N1 N 0.3396(3) 0.6134(3) 0.61463(5)
S1 S 0.10198(10) 0.35332(9) 0.60457(2)
C1 C 0.4863(3) 0.7372(3) 0.60644(6)
C2 C 0.6581(3) 0.6844(4) 0.59247(6)
H1 H 0.6859 0.5615 0.5892
C3 C 0.7888(4) 0.8141(4) 0.58341(7)
H2 H 0.9064 0.78 0.5735
C4 C 0.7485(4) 0.9921(4) 0.58868(7)
H3 H 0.8348 1.0804 0.5807
C5 C 0.5827(4) 1.0431(3) 0.60563(7)
H4 H 0.5588 1.1656 0.6104
C6 C 0.4513(4) 0.9154(3) 0.61559(6)
C7 C 0.2851(4) 0.9495(3) 0.64034(7)
H5 H 0.1684 0.9373 0.6257
H6 H 0.2903 1.0706 0.6515
C8 C 0.2971(4) 0.8064(3) 0.67145(6)
H7 H 0.2013 0.8297 0.691
H8 H 0.4206 0.8121 0.6838
C9 C 0.2675(3) 0.6190(3) 0.65446(6)
H9 H 0.1302 0.5988 0.6531
C10 C 0.2492(3) 0.5082(3) 0.58894(6)
C11 C 0.2772(4) 0.5337(4) 0.54517(6)
C12 C 0.3015(4) 0.7294(4) 0.53303(6)
H10 H 0.427 0.7698 0.5397
H11 H 0.2096 0.8036 0.5462
H12 H 0.2835 0.7395 0.5055
C13 C 0.4400(5) 0.4199(5) 0.53091(8)
H13 H 0.4409 0.4197 0.5031
H14 H 0.426 0.2974 0.5402
H15 H 0.5572 0.4698 0.5403
C14 C 0.1011(5) 0.4652(4) 0.52462(7)
H16 H 0.1146 0.4837 0.4972
H17 H -0.0077 0.5308 0.5338
H18 H 0.085 0.3377 0.5298
C15 C 0.3478(3) 0.4723(3) 0.67924(6)
C16 C 0.2395(4) 0.4073(3) 0.70895(6)
H19 H 0.1178 0.4533 0.7126
C17 C 0.3061(4) 0.2760(3) 0.73339(6)
C18 C 0.4829(4) 0.2075(3) 0.72734(6)
H20 H 0.5287 0.1166 0.7436
C19 C 0.5946(4) 0.2698(3) 0.69777(6)
C20 C 0.5258(3) 0.4042(3) 0.67430(6)
H21 H 0.602 0.45 0.6546
C21 C 0.1881(4) 0.2066(4) 0.76564(7)
H22 H 0.0642 0.2605 0.7643
H23 H 0.2465 0.2375 0.7899
H24 H 0.1771 0.0766 0.7636
C22 C 0.7835(4) 0.1893(4) 0.69104(7)
H25 H 0.7698 0.0765 0.6773
H26 H 0.8444 0.167 0.7155
H27 H 0.8592 0.2718 0.676
loop_
_geom_bond_atom_site_label_1
_geom_bond_atom_site_label_2
_geom_bond_site_symmetry_1
_geom_bond_site_symmetry_2
N1 C1 1_555 1_555
S1 C10 1_555 1_555
C1 C2 1_555 1_555
C2 H1 1_555 1_555
C3 C2 1_555 1_555
H2 C3 1_555 1_555
C4 C3 1_555 1_555
H3 C4 1_555 1_555
C5 C4 1_555 1_555
H4 C5 1_555 1_555
C6 C1 1_555 1_555
C7 C6 1_555 1_555
H5 C7 1_555 1_555
H6 C7 1_555 1_555
C8 C7 1_555 1_555
H7 C8 1_555 1_555
H8 C8 1_555 1_555
C9 N1 1_555 1_555
H9 C9 1_555 1_555
C10 N1 1_555 1_555
C11 C10 1_555 1_555
C12 C11 1_555 1_555
H10 C12 1_555 1_555
H11 C12 1_555 1_555
H12 C12 1_555 1_555
C13 C11 1_555 1_555
H13 C13 1_555 1_555
H14 C13 1_555 1_555
H15 C13 1_555 1_555
C14 C11 1_555 1_555
H16 C14 1_555 1_555
H17 C14 1_555 1_555
H18 C14 1_555 1_555
C15 C9 1_555 1_555
C16 C15 1_555 1_555
H19 C16 1_555 1_555
C17 C16 1_555 1_555
C18 C17 1_555 1_555
H20 C18 1_555 1_555
C19 C18 1_555 1_555
C20 C15 1_555 1_555
H21 C20 1_555 1_555
C21 C17 1_555 1_555
H22 C21 1_555 1_555
H23 C21 1_555 1_555
H24 C21 1_555 1_555
C22 C19 1_555 1_555
H25 C22 1_555 1_555
H26 C22 1_555 1_555
H27 C22 1_555 1_555
C5 C6 1_555 1_555
C8 C9 1_555 1_555
C19 C20 1_555 1_555

#END
