
#######################################################################
#
#                 Cambridge Crystallographic Data Centre
#                                CCDC 
#
#######################################################################
#
# If this CIF has been generated from an entry in the Cambridge 
# Structural Database, then it will include bibliographic, chemical, 
# crystal, experimental, refinement or atomic coordinate data resulting 
# from the CCDC's data processing and validation procedures.
#
#######################################################################

data_BIFSUH
_chemical_formula_moiety         'C34 H28 O1'
_chemical_name_systematic        
2-(4-ethylphenyl)-4,4-diphenyl-3,4-dihydrophenanthren-9-ol
_symmetry_cell_setting           monoclinic
_symmetry_space_group_name_H-M   'P 21/c'
_symmetry_Int_Tables_number      14
_space_group_name_Hall           '-P 2ybc'
loop_
_symmetry_equiv_pos_site_id
_symmetry_equiv_pos_as_xyz
1 x,y,z
2 -x,1/2+y,1/2-z
3 -x,-y,-z
4 x,1/2-y,1/2+z
_cell_length_a                   12.6959(11)
_cell_length_b                   11.6190(9)
_cell_length_c                   21.0451(18)
_cell_angle_alpha                90
_cell_angle_beta                 126.561(4)
_cell_angle_gamma                90
_cell_volume                     2493.56
_exptl_crystal_colour            white
_exptl_crystal_description       block
_cell_formula_units_Z            4
loop_
_atom_site_label
_atom_site_type_symbol
_atom_site_fract_x
_atom_site_fract_y
_atom_site_fract_z
O1 O 0.66398(16) 0.64957(13) 0.14442(9)
H1 H 0.6858 0.7163 0.1594
C1 C 0.6737(2) 0.58563(19) 0.20325(15)
C2 C 0.7132(2) 0.62922(17) 0.27402(14)
H2 H 0.7349 0.7068 0.2847
C3 C 0.7221(2) 0.55848(17) 0.33238(13)
C4 C 0.7687(2) 0.61252(18) 0.40789(13)
H3 H 0.7687 0.6924 0.4106
C5 C 0.8113(2) 0.55174(17) 0.47324(13)
C6 C 0.8110(2) 0.42199(16) 0.46482(12)
H4 H 0.8104 0.3862 0.5062
H5 H 0.8916 0.3993 0.4727
C7 C 0.6924(2) 0.37513(16) 0.38311(12)
C8 C 0.68687(19) 0.44202(17) 0.31706(12)
C9 C 0.63568(19) 0.39723(17) 0.24012(12)
C10 C 0.6341(2) 0.46847(19) 0.18358(13)
C11 C 0.5866(2) 0.4243(2) 0.10802(14)
H6 H 0.5884 0.4707 0.0727
C12 C 0.5383(2) 0.3152(2) 0.08616(14)
H7 H 0.5088 0.2872 0.0367
C13 C 0.5335(2) 0.24535(19) 0.13901(14)
H8 H 0.4981 0.1717 0.1237
C14 C 0.5807(2) 0.28510(18) 0.21306(13)
H9 H 0.5766 0.2370 0.2469
C15 C 0.8700(2) 0.60279(18) 0.55196(13)
C16 C 0.9629(2) 0.54269(18) 0.62142(13)
H10 H 0.9847 0.4680 0.6175
C17 C 1.0234(2) 0.5908(2) 0.69584(14)
H11 H 1.0843 0.5475 0.7404
C18 C 0.9949(3) 0.7026(2) 0.70543(16)
C19 C 0.9011(3) 0.7626(2) 0.63659(17)
H12 H 0.8789 0.8369 0.6410
C20 C 0.8397(2) 0.71530(19) 0.56195(15)
H13 H 0.7776 0.7583 0.5177
C21 C 1.0634(3) 0.7549(2) 0.78743(17)
H14 H 1.1546 0.7679 0.8094
H15 H 1.0242 0.8293 0.7819
C22 C 1.0584(4) 0.6853(3) 0.84476(18)
H16 H 0.9689 0.6769 0.8260
H17 H 1.1077 0.7232 0.8952
H18 H 1.0955 0.6107 0.8502
C23 C 0.5619(2) 0.39677(15) 0.37259(12)
C24 C 0.4467(2) 0.42795(16) 0.29979(13)
H19 H 0.4475 0.4349 0.2561
C25 C 0.3308(2) 0.44885(18) 0.29087(14)
H20 H 0.2560 0.4700 0.2416
C26 C 0.3253(3) 0.43862(17) 0.35402(16)
H21 H 0.2475 0.4527 0.3478
C27 C 0.4370(3) 0.40721(18) 0.42644(15)
H22 H 0.4345 0.3994 0.4695
C28 C 0.5538(2) 0.38700(17) 0.43601(13)
H23 H 0.6282 0.3665 0.4856
C29 C 0.7259(2) 0.24498(17) 0.38888(11)
C30 C 0.6644(2) 0.15969(18) 0.40243(12)
H24 H 0.5930 0.1790 0.4022
C31 C 0.7076(2) 0.04579(18) 0.41642(13)
H25 H 0.6643 -0.0101 0.4245
C32 C 0.8145(3) 0.01599(19) 0.41824(13)
H26 H 0.8444 -0.0596 0.4288
C33 C 0.8774(2) 0.0984(2) 0.40442(12)
H27 H 0.9485 0.0782 0.4046
C34 C 0.8331(2) 0.21213(18) 0.39021(11)
H28 H 0.8761 0.2674 0.3814
loop_
_geom_bond_atom_site_label_1
_geom_bond_atom_site_label_2
_geom_bond_site_symmetry_1
_geom_bond_site_symmetry_2
O1 H1 1_555 1_555
C1 O1 1_555 1_555
C2 C1 1_555 1_555
H2 C2 1_555 1_555
C3 C2 1_555 1_555
C4 C3 1_555 1_555
H3 C4 1_555 1_555
C5 C4 1_555 1_555
C6 C5 1_555 1_555
H4 C6 1_555 1_555
H5 C6 1_555 1_555
C7 C6 1_555 1_555
C8 C3 1_555 1_555
C9 C8 1_555 1_555
C10 C1 1_555 1_555
C11 C10 1_555 1_555
H6 C11 1_555 1_555
C12 C11 1_555 1_555
H7 C12 1_555 1_555
C13 C12 1_555 1_555
H8 C13 1_555 1_555
C14 C9 1_555 1_555
H9 C14 1_555 1_555
C15 C5 1_555 1_555
C16 C15 1_555 1_555
H10 C16 1_555 1_555
C17 C16 1_555 1_555
H11 C17 1_555 1_555
C18 C17 1_555 1_555
C19 C18 1_555 1_555
H12 C19 1_555 1_555
C20 C15 1_555 1_555
H13 C20 1_555 1_555
C21 C18 1_555 1_555
H14 C21 1_555 1_555
H15 C21 1_555 1_555
C22 C21 1_555 1_555
H16 C22 1_555 1_555
H17 C22 1_555 1_555
H18 C22 1_555 1_555
C23 C7 1_555 1_555
C24 C23 1_555 1_555
H19 C24 1_555 1_555
C25 C24 1_555 1_555
H20 C25 1_555 1_555
C26 C25 1_555 1_555
H21 C26 1_555 1_555
C27 C26 1_555 1_555
H22 C27 1_555 1_555
C28 C23 1_555 1_555
H23 C28 1_555 1_555
C29 C7 1_555 1_555
C30 C29 1_555 1_555
H24 C30 1_555 1_555
C31 C30 1_555 1_555
H25 C31 1_555 1_555
C32 C31 1_555 1_555
H26 C32 1_555 1_555
C33 C32 1_555 1_555
H27 C33 1_555 1_555
C34 C29 1_555 1_555
H28 C34 1_555 1_555
C7 C8 1_555 1_555
C9 C10 1_555 1_555
C13 C14 1_555 1_555
C19 C20 1_555 1_555
C27 C28 1_555 1_555
C33 C34 1_555 1_555

#END
