
#######################################################################
#
#                 Cambridge Crystallographic Data Centre
#                                CCDC 
#
#######################################################################
#
# If this CIF has been generated from an entry in the Cambridge 
# Structural Database, then it will include bibliographic, chemical, 
# crystal, experimental, refinement or atomic coordinate data resulting 
# from the CCDC's data processing and validation procedures.
#
#######################################################################

data_BIFSEQ
_chemical_formula_moiety         'C19 H26 O3'
_chemical_name_systematic        
10b-Hydroxy-3,6,9,10a-tetramethyl-3,4,5,5a,6,7,7a,8,10a,10b-decahydro-2H-1-oxabenzo[cd]cyclopenta[h]azulen-2-one
_symmetry_cell_setting           monoclinic
_symmetry_space_group_name_H-M   'P 21'
_symmetry_Int_Tables_number      4
_space_group_name_Hall           'P 2yb'
loop_
_symmetry_equiv_pos_site_id
_symmetry_equiv_pos_as_xyz
1 x,y,z
2 -x,1/2+y,-z
_cell_length_a                   9.34800(10)
_cell_length_b                   8.26780(10)
_cell_length_c                   10.8164(7)
_cell_angle_alpha                90
_cell_angle_beta                 90.855(6)
_cell_angle_gamma                90
_cell_volume                     835.878
_exptl_crystal_colour            colorless
_exptl_crystal_description       prism
_cell_formula_units_Z            2
loop_
_atom_site_label
_atom_site_type_symbol
_atom_site_fract_x
_atom_site_fract_y
_atom_site_fract_z
O1 O 0.47661(18) 0.1554(3) 0.85435(15)
O2 O 0.4160(2) 0.2500(3) 1.03925(18)
O3 O 0.5916(2) -0.0535(3) 0.75280(17)
C1 C 0.5084(3) 0.1997(4) 0.9716(2)
C2 C 0.6172(3) 0.2156(4) 0.6748(2)
C3 C 0.7369(3) 0.2039(4) 1.1172(2)
C4 C 0.4741(3) 0.2121(4) 0.6027(3)
C5 C 0.9460(3) 0.1528(4) 0.7510(2)
C6 C 0.6555(3) 0.3882(4) 0.7093(2)
C7 C 0.7881(3) 0.3342(4) 0.5345(3)
C8 C 0.7463(3) 0.4542(4) 0.6315(2)
C9 C 0.6074(3) 0.1066(4) 0.7898(2)
C10 C 0.7399(3) 0.1698(4) 0.5855(2)
C11 C 0.8904(3) 0.1411(5) 1.1075(3)
C12 C 0.6633(3) 0.1779(4) 0.9939(2)
C13 C 0.8812(3) 0.0992(4) 0.8746(2)
C14 C 0.6628(3) 0.1201(5) 1.2230(2)
C15 C 0.8664(3) 0.0766(4) 0.6403(3)
C16 C 1.1048(3) 0.1076(5) 0.7456(3)
C17 C 0.7234(3) 0.1305(4) 0.8890(2)
C18 C 0.8024(3) 0.6244(4) 0.6334(3)
C19 C 0.9597(3) 0.1793(5) 0.9860(3)
H1 H 0.739(3) 0.365(4) 0.451(3)
H2 H 0.892(3) 0.335(4) 0.517(3)
H3 H 0.7403 0.3226 1.1347
H4 H 0.4003 0.2659 0.6512
H5 H 0.4460 0.0997 0.5871
H6 H 0.4848 0.2686 0.5237
H7 H 0.9374 0.2731 0.7445
H8 H 0.6183 0.4429 0.7791
H9 H 0.6981 0.1051 0.5157
H10 H 0.9489 0.1888 1.1752
H11 H 0.8899 0.0223 1.1192
H12 H 0.8961 -0.0202 0.8818
H13 H 0.5713 0.1737 1.2386
H14 H 0.7235 0.1258 1.2976
H15 H 0.6456 0.0065 1.2014
H16 H 0.9364 0.0592 0.5738
H17 H 0.8317 -0.0313 0.6660
H18 H 1.1563 0.1571 0.8156
H19 H 1.1448 0.1471 0.6680
H20 H 1.1150 -0.0102 0.7499
H21 H 0.7680 0.6803 0.7071
H22 H 0.7687 0.6817 0.5592
H23 H 0.9073 0.6224 0.6351
H24 H 1.0602 0.1414 0.9888
H25 H 0.9608 0.2980 0.9740
H26 H 0.587(5) -0.129(6) 0.832(4)
loop_
_geom_bond_atom_site_label_1
_geom_bond_atom_site_label_2
_geom_bond_site_symmetry_1
_geom_bond_site_symmetry_2
O1 C1 1_555 1_555
O2 C1 1_555 1_555
O3 C9 1_555 1_555
C1 C12 1_555 1_555
C2 C4 1_555 1_555
C3 C11 1_555 1_555
C4 H4 1_555 1_555
C5 C13 1_555 1_555
C6 C2 1_555 1_555
C7 C8 1_555 1_555
C8 C6 1_555 1_555
C9 O1 1_555 1_555
C10 C2 1_555 1_555
C11 C19 1_555 1_555
C12 C3 1_555 1_555
C13 C17 1_555 1_555
C14 C3 1_555 1_555
C15 C5 1_555 1_555
C16 C5 1_555 1_555
C17 C9 1_555 1_555
C18 C8 1_555 1_555
C19 C13 1_555 1_555
H1 C7 1_555 1_555
H2 C7 1_555 1_555
H3 C3 1_555 1_555
H5 C4 1_555 1_555
H6 C4 1_555 1_555
H7 C5 1_555 1_555
H8 C6 1_555 1_555
H9 C10 1_555 1_555
H10 C11 1_555 1_555
H11 C11 1_555 1_555
H12 C13 1_555 1_555
H13 C14 1_555 1_555
H14 C14 1_555 1_555
H15 C14 1_555 1_555
H16 C15 1_555 1_555
H17 C15 1_555 1_555
H18 C16 1_555 1_555
H19 C16 1_555 1_555
H20 C16 1_555 1_555
H21 C18 1_555 1_555
H22 C18 1_555 1_555
H23 C18 1_555 1_555
H24 C19 1_555 1_555
H25 C19 1_555 1_555
H26 O3 1_555 1_555
C2 C9 1_555 1_555
C7 C10 1_555 1_555
C10 C15 1_555 1_555
C12 C17 1_555 1_555

#END
