
#######################################################################
#
#                 Cambridge Crystallographic Data Centre
#                                CCDC 
#
#######################################################################
#
# If this CIF has been generated from an entry in the Cambridge 
# Structural Database, then it will include bibliographic, chemical, 
# crystal, experimental, refinement or atomic coordinate data resulting 
# from the CCDC's data processing and validation procedures.
#
#######################################################################

data_BIFTAO
_chemical_formula_moiety         'C26 H16 Br2 O1'
_chemical_name_systematic        2,4-bis(4-bromophenyl)phenanthren-9-ol
_symmetry_cell_setting           monoclinic
_symmetry_space_group_name_H-M   'P 21/c'
_symmetry_Int_Tables_number      14
_space_group_name_Hall           '-P 2ybc'
loop_
_symmetry_equiv_pos_site_id
_symmetry_equiv_pos_as_xyz
1 x,y,z
2 -x,1/2+y,1/2-z
3 -x,-y,-z
4 x,1/2-y,1/2+z
_cell_length_a                   13.0780(14)
_cell_length_b                   5.4895(8)
_cell_length_c                   56.650(4)
_cell_angle_alpha                90
_cell_angle_beta                 92.7720(10)
_cell_angle_gamma                90
_cell_volume                     4062.24
_exptl_crystal_colour            white
_exptl_crystal_description       block
_cell_formula_units_Z            8
loop_
_atom_site_label
_atom_site_type_symbol
_atom_site_fract_x
_atom_site_fract_y
_atom_site_fract_z
Br1 Br 0.48363(14) 1.0241(3) 0.21930(3)
Br2 Br 1.22685(16) -0.4645(4) 0.24757(3)
O1 O 0.9668(9) 0.080(2) 0.07753(16)
H1 H 0.9265 0.1783 0.0713
C1 C 0.9550(11) 0.077(3) 0.1017(3)
C2 C 0.8865(11) 0.221(3) 0.1124(2)
H2 H 0.8453 0.3267 0.1033
C3 C 0.8769(11) 0.214(2) 0.1374(2)
C4 C 0.8077(11) 0.373(2) 0.1476(2)
H3 H 0.7668 0.4736 0.1379
C5 C 0.7998(11) 0.381(2) 0.1714(2)
C6 C 0.8658(11) 0.234(2) 0.1856(2)
H4 H 0.8616 0.2410 0.2019
C7 C 0.9349(9) 0.082(2) 0.1765(2)
C8 C 0.9432(10) 0.053(2) 0.1515(2)
C9 C 1.0049(11) -0.118(2) 0.1393(2)
C10 C 1.0177(10) -0.098(2) 0.1144(2)
C11 C 1.0799(11) -0.260(3) 0.1025(2)
H5 H 1.0858 -0.2440 0.0863
C12 C 1.1330(13) -0.446(3) 0.1145(3)
H6 H 1.1752 -0.5514 0.1066
C13 C 1.1216(11) -0.470(3) 0.1385(3)
H7 H 1.1560 -0.5946 0.1467
C14 C 1.0602(10) -0.313(2) 0.1506(2)
H8 H 1.0546 -0.3355 0.1667
C15 C 0.7227(11) 0.539(2) 0.1826(2)
C16 C 0.6860(10) 0.762(2) 0.1721(2)
H9 H 0.7103 0.8109 0.1577
C17 C 0.6165(11) 0.905(2) 0.1828(2)
H10 H 0.5941 1.0497 0.1758
C18 C 0.5797(9) 0.830(2) 0.2041(2)
C19 C 0.6154(12) 0.617(2) 0.2154(2)
H11 H 0.5932 0.5736 0.2301
C20 C 0.6817(13) 0.479(2) 0.2044(2)
H12 H 0.7025 0.3342 0.2116
C21 C 1.0064(12) -0.042(2) 0.1941(2)
C22 C 0.9695(10) -0.226(3) 0.2088(2)
H13 H 0.9004 -0.2673 0.2078
C23 C 1.0369(14) -0.348(3) 0.2249(2)
H14 H 1.0129 -0.4738 0.2341
C24 C 1.1388(13) -0.281(3) 0.2269(2)
C25 C 1.1735(12) -0.091(3) 0.2138(2)
H15 H 1.2416 -0.0426 0.2154
C26 C 1.1067(12) 0.028(2) 0.1981(2)
H16 H 1.1305 0.1611 0.1899
Br3 Br 0.33259(14) 1.5001(3) 0.18561(3)
Br4 Br 0.07972(19) 0.1664(7) 0.01884(4)
O2 O 0.8807(8) 0.571(2) 0.05792(17)
H17 H 0.9110 0.6690 0.0666
C27 C 0.7751(13) 0.573(3) 0.0624(3)
C28 C 0.7386(12) 0.719(3) 0.0792(2)
H18 H 0.7825 0.8194 0.0881
C29 C 0.6324(11) 0.716(3) 0.0830(2)
C30 C 0.5964(12) 0.864(2) 0.1005(2)
H19 H 0.6432 0.9550 0.1098
C31 C 0.4959(11) 0.882(2) 0.1047(2)
C32 C 0.4235(11) 0.737(2) 0.0911(2)
H20 H 0.3541 0.7448 0.0939
C33 C 0.4586(11) 0.585(2) 0.0736(2)
C34 C 0.5659(10) 0.553(2) 0.0695(2)
C35 C 0.6123(13) 0.384(3) 0.0533(2)
C36 C 0.7181(12) 0.392(3) 0.0493(2)
C37 C 0.7614(13) 0.237(3) 0.0339(2)
H21 H 0.8305 0.2491 0.0309
C38 C 0.7004(17) 0.062(3) 0.0229(2)
H22 H 0.7297 -0.0440 0.0123
C39 C 0.5937(13) 0.036(3) 0.0270(3)
H23 H 0.5542 -0.0860 0.0198
C40 C 0.5536(13) 0.196(2) 0.0419(2)
H24 H 0.4844 0.1840 0.0448
C41 C 0.4556(11) 1.030(2) 0.1239(2)
C42 C 0.3683(12) 0.960(2) 0.1357(2)
H25 H 0.3320 0.8220 0.1309
C43 C 0.3363(10) 1.098(2) 0.1544(2)
H26 H 0.2812 1.0464 0.1629
C44 C 0.3877(12) 1.316(3) 0.1605(2)
C45 C 0.4702(10) 1.390(2) 0.1486(2)
H27 H 0.5037 1.5346 0.1528
C46 C 0.5030(10) 1.254(2) 0.1307(2)
H28 H 0.5585 1.3079 0.1225
C47 C 0.3717(11) 0.469(3) 0.0591(2)
C48 C 0.3108(12) 0.294(3) 0.0689(2)
H29 H 0.3283 0.2362 0.0840
C49 C 0.2264(14) 0.205(4) 0.0572(3)
H30 H 0.1866 0.0887 0.0645
C50 C 0.1994(15) 0.280(4) 0.0354(3)
C51 C 0.2568(17) 0.448(4) 0.0249(3)
H31 H 0.2380 0.4998 0.0096
C52 C 0.3457(15) 0.547(3) 0.0367(3)
H32 H 0.3853 0.6631 0.0294
loop_
_geom_bond_atom_site_label_1
_geom_bond_atom_site_label_2
_geom_bond_site_symmetry_1
_geom_bond_site_symmetry_2
Br1 C18 1_555 1_555
Br2 C24 1_555 1_555
O1 H1 1_555 1_555
C1 O1 1_555 1_555
C2 C1 1_555 1_555
H2 C2 1_555 1_555
C3 C2 1_555 1_555
C4 C3 1_555 1_555
H3 C4 1_555 1_555
C5 C4 1_555 1_555
C6 C5 1_555 1_555
H4 C6 1_555 1_555
C7 C6 1_555 1_555
C8 C3 1_555 1_555
C9 C8 1_555 1_555
C10 C1 1_555 1_555
C11 C10 1_555 1_555
H5 C11 1_555 1_555
C12 C11 1_555 1_555
H6 C12 1_555 1_555
C13 C12 1_555 1_555
H7 C13 1_555 1_555
C14 C9 1_555 1_555
H8 C14 1_555 1_555
C15 C5 1_555 1_555
C16 C15 1_555 1_555
H9 C16 1_555 1_555
C17 C16 1_555 1_555
H10 C17 1_555 1_555
C18 C17 1_555 1_555
C19 C18 1_555 1_555
H11 C19 1_555 1_555
C20 C15 1_555 1_555
H12 C20 1_555 1_555
C21 C7 1_555 1_555
C22 C21 1_555 1_555
H13 C22 1_555 1_555
C23 C22 1_555 1_555
H14 C23 1_555 1_555
C24 C23 1_555 1_555
C25 C24 1_555 1_555
H15 C25 1_555 1_555
C26 C21 1_555 1_555
H16 C26 1_555 1_555
Br3 C44 1_555 1_555
Br4 C50 1_555 1_555
O2 H17 1_555 1_555
C27 O2 1_555 1_555
C28 C27 1_555 1_555
H18 C28 1_555 1_555
C29 C28 1_555 1_555
C30 C29 1_555 1_555
H19 C30 1_555 1_555
C31 C30 1_555 1_555
C32 C31 1_555 1_555
H20 C32 1_555 1_555
C33 C32 1_555 1_555
C34 C29 1_555 1_555
C35 C34 1_555 1_555
C36 C27 1_555 1_555
C37 C36 1_555 1_555
H21 C37 1_555 1_555
C38 C37 1_555 1_555
H22 C38 1_555 1_555
C39 C38 1_555 1_555
H23 C39 1_555 1_555
C40 C35 1_555 1_555
H24 C40 1_555 1_555
C41 C31 1_555 1_555
C42 C41 1_555 1_555
H25 C42 1_555 1_555
C43 C42 1_555 1_555
H26 C43 1_555 1_555
C44 C43 1_555 1_555
C45 C44 1_555 1_555
H27 C45 1_555 1_555
C46 C41 1_555 1_555
H28 C46 1_555 1_555
C47 C33 1_555 1_555
C48 C47 1_555 1_555
H29 C48 1_555 1_555
C49 C48 1_555 1_555
H30 C49 1_555 1_555
C50 C49 1_555 1_555
C51 C50 1_555 1_555
H31 C51 1_555 1_555
C52 C47 1_555 1_555
H32 C52 1_555 1_555
C7 C8 1_555 1_555
C9 C10 1_555 1_555
C13 C14 1_555 1_555
C19 C20 1_555 1_555
C25 C26 1_555 1_555
C33 C34 1_555 1_555
C35 C36 1_555 1_555
C39 C40 1_555 1_555
C45 C46 1_555 1_555
C51 C52 1_555 1_555

#END
