
#######################################################################
#
#                 Cambridge Crystallographic Data Centre
#                                CCDC 
#
#######################################################################
#
# If this CIF has been generated from an entry in the Cambridge 
# Structural Database, then it will include bibliographic, chemical, 
# crystal, experimental, refinement or atomic coordinate data resulting 
# from the CCDC's data processing and validation procedures.
#
#######################################################################

data_BIGBUR
_chemical_formula_moiety         'C20 H24 O7'
_chemical_name_systematic        
8,9,18-trihydroxy-9,17-dimethyl-6,15-dioxahexacyclo[12.2.2.1^4,7^.1^10,13^.0^1,12^.0^4,11^]icos-10-ene-5,16-dione
_symmetry_cell_setting           orthorhombic
_symmetry_space_group_name_H-M   'P 21 21 21'
_symmetry_Int_Tables_number      19
_space_group_name_Hall           'P 2ac 2ab'
loop_
_symmetry_equiv_pos_site_id
_symmetry_equiv_pos_as_xyz
1 x,y,z
2 1/2+x,1/2-y,-z
3 -x,1/2+y,1/2-z
4 1/2-x,-y,1/2+z
_cell_length_a                   6.50350(10)
_cell_length_b                   10.6572(2)
_cell_length_c                   24.6710(5)
_cell_angle_alpha                90
_cell_angle_beta                 90
_cell_angle_gamma                90
_cell_volume                     1709.92
_exptl_crystal_colour            colorless
_exptl_crystal_description       prism
_cell_formula_units_Z            4
loop_
_atom_site_label
_atom_site_type_symbol
_atom_site_fract_x
_atom_site_fract_y
_atom_site_fract_z
O1 O 1.1605(2) 0.05883(12) 0.96234(5)
H1 H 1.1941 0.0723 0.9947
O2 O 0.7594(2) 0.42403(11) 0.92509(5)
H2 H 0.7557 0.4983 0.9137
O3 O 0.8421(2) 0.50251(11) 0.81601(5)
H3 H 0.7754 0.5414 0.7922
O4 O 0.5202(2) 0.24753(11) 0.77598(5)
O5 O 0.37375(19) 0.05979(12) 0.78401(5)
O6 O 0.7527(2) -0.17561(11) 0.98116(5)
O7 O 0.6604(2) -0.31847(12) 0.92044(5)
C1 C 0.7273(3) 0.30286(15) 0.77980(7)
H4 H 0.7524 0.3547 0.7467
C2 C 0.8672(3) 0.18828(16) 0.77771(7)
H5 H 0.8956 0.1629 0.7398
H6 H 0.9990 0.2043 0.7965
C3 C 0.7412(3) 0.08967(15) 0.80713(7)
C4 C 0.8063(3) -0.04542(15) 0.79145(7)
H7 H 0.7507 -0.0636 0.7549
H8 H 0.9581 -0.0474 0.7887
C5 C 0.7398(3) -0.15153(15) 0.82939(7)
H9 H 0.5903 -0.1665 0.8254
H10 H 0.8129 -0.2297 0.8195
C6 C 0.7881(3) -0.11731(15) 0.88805(7)
C7 C 1.0210(3) -0.09133(15) 0.89880(7)
H11 H 1.0640 -0.0180 0.8762
C8 C 1.0495(3) -0.05626(16) 0.95900(7)
H12 H 1.1318 -0.1236 0.9771
C9 C 0.7318(3) 0.11032(15) 0.86811(7)
C10 C 0.7684(3) 0.21125(16) 0.89865(7)
C11 C 0.8364(3) 0.34277(16) 0.88284(7)
C12 C 1.0731(3) 0.35236(17) 0.88375(8)
H13 H 1.1141 0.4402 0.8792
H14 H 1.1305 0.3020 0.8541
H15 H 1.1249 0.3209 0.9185
C13 C 0.7359(3) 0.38937(15) 0.82975(7)
H16 H 0.5911 0.4131 0.8387
C14 C 0.5253(3) 0.12463(17) 0.78816(7)
C15 C 0.7378(3) 0.18225(15) 0.95846(7)
H17 H 0.6245 0.2333 0.9737
H18 H 0.8649 0.1998 0.9792
C16 C 0.6841(3) 0.04089(15) 0.96082(7)
H19 H 0.5489 0.0306 0.9796
C17 C 0.6598(3) 0.00106(15) 0.90141(7)
H20 H 0.5114 -0.0157 0.8936
C18 C 0.8399(3) -0.04841(16) 0.98645(7)
H21 H 0.8579 -0.0273 1.0257
C19 C 0.7268(3) -0.21437(16) 0.92934(7)
C20 C 1.1546(3) -0.20405(17) 0.88331(7)
H22 H 1.2964 -0.1893 0.8952
H23 H 1.1517 -0.2153 0.8439
H24 H 1.1011 -0.2797 0.9010
loop_
_geom_bond_atom_site_label_1
_geom_bond_atom_site_label_2
_geom_bond_site_symmetry_1
_geom_bond_site_symmetry_2
O1 H1 1_555 1_555
O2 H2 1_555 1_555
O3 H3 1_555 1_555
O4 C1 1_555 1_555
O5 C14 1_555 1_555
O6 C18 1_555 1_555
O7 C19 1_555 1_555
C1 H4 1_555 1_555
C2 C1 1_555 1_555
H5 C2 1_555 1_555
H6 C2 1_555 1_555
C3 C2 1_555 1_555
C4 C3 1_555 1_555
H7 C4 1_555 1_555
H8 C4 1_555 1_555
C5 C4 1_555 1_555
H9 C5 1_555 1_555
H10 C5 1_555 1_555
C6 C5 1_555 1_555
C7 C6 1_555 1_555
H11 C7 1_555 1_555
C8 O1 1_555 1_555
H12 C8 1_555 1_555
C9 C3 1_555 1_555
C10 C9 1_555 1_555
C11 O2 1_555 1_555
C12 C11 1_555 1_555
H13 C12 1_555 1_555
H14 C12 1_555 1_555
H15 C12 1_555 1_555
C13 O3 1_555 1_555
H16 C13 1_555 1_555
C14 O4 1_555 1_555
C15 C10 1_555 1_555
H17 C15 1_555 1_555
H18 C15 1_555 1_555
C16 C15 1_555 1_555
H19 C16 1_555 1_555
C17 C6 1_555 1_555
H20 C17 1_555 1_555
C18 C8 1_555 1_555
H21 C18 1_555 1_555
C19 O6 1_555 1_555
C20 C7 1_555 1_555
H22 C20 1_555 1_555
H23 C20 1_555 1_555
H24 C20 1_555 1_555
C1 C13 1_555 1_555
C3 C14 1_555 1_555
C6 C19 1_555 1_555
C7 C8 1_555 1_555
C9 C17 1_555 1_555
C10 C11 1_555 1_555
C11 C13 1_555 1_555
C16 C17 1_555 1_555
C16 C18 1_555 1_555

#END
