
#######################################################################
#
#                 Cambridge Crystallographic Data Centre
#                                CCDC 
#
#######################################################################
#
# If this CIF has been generated from an entry in the Cambridge 
# Structural Database, then it will include bibliographic, chemical, 
# crystal, experimental, refinement or atomic coordinate data resulting 
# from the CCDC's data processing and validation procedures.
#
#######################################################################

data_BIGDEA
_chemical_formula_moiety         'C14 H14 O3'
_chemical_name_systematic        
'1,2,3,4,5,8-Hexahydro-endo-1,4-exo-5,8-dimethanonaphthalene-4a,8a-dicarboxylic anhydride'
_symmetry_cell_setting           triclinic
_symmetry_space_group_name_H-M   'P -1'
_symmetry_Int_Tables_number      2
_space_group_name_Hall           '-P 1'
loop_
_symmetry_equiv_pos_site_id
_symmetry_equiv_pos_as_xyz
1 x,y,z
2 -x,-y,-z
_cell_length_a                   7.164(2)
_cell_length_b                   8.289(2)
_cell_length_c                   10.145(2)
_cell_angle_alpha                96.30(2)
_cell_angle_beta                 92.22(2)
_cell_angle_gamma                111.90(2)
_cell_volume                     553.508
_cell_formula_units_Z            2
loop_
_atom_site_label
_atom_site_type_symbol
_atom_site_fract_x
_atom_site_fract_y
_atom_site_fract_z
C1 C 0.54350 0.32480 0.62400
C2 C 0.73040 0.45260 0.57380
C3 C 0.84340 0.55830 0.67700
C4 C 0.73870 0.50770 0.80050
C5 C 0.74000 0.32250 0.82480
C6 C 0.93670 0.28460 0.82570
C7 C 0.88380 0.09910 0.86910
C8 C 0.74700 -0.02720 0.74840
C9 C 0.73600 0.09810 0.64840
C10 C 0.60510 0.19730 0.70440
C11 C 0.95300 0.23720 0.67670
C12 C 0.51560 0.44730 0.74150
C13 C 0.42220 0.08150 0.76270
C14 C 0.62180 0.26670 0.94250
O1 O 0.44060 0.12200 0.90060
O2 O 0.27260 -0.03210 0.70870
O3 O 0.65650 0.32400 1.05710
H1 H 0.42300 0.25800 0.56200
H2 H 0.77100 0.44700 0.48200
H3 H 0.97300 0.64600 0.67400
H4 H 0.79200 0.60100 0.87800
H5 H 1.05800 0.39400 0.88300
H6 H 0.82000 0.08000 0.95100
H7 H 1.03400 0.08900 0.88200
H8 H 0.62000 -0.10500 0.77700
H9 H 0.81800 -0.10200 0.70400
H10 H 0.68800 0.04700 0.55500
H11 H 0.99100 0.33300 0.62100
H12 H 1.05500 0.18200 0.66300
H13 H 0.39600 0.38200 0.81000
H14 H 0.48400 0.54600 0.71300
loop_
_geom_bond_atom_site_label_1
_geom_bond_atom_site_label_2
_geom_bond_site_symmetry_1
_geom_bond_site_symmetry_2
C1 C2 1_555 1_555
C2 C3 1_555 1_555
C3 C4 1_555 1_555
C4 C5 1_555 1_555
C5 C6 1_555 1_555
C6 C7 1_555 1_555
C7 C8 1_555 1_555
C8 C9 1_555 1_555
C9 C10 1_555 1_555
C10 C1 1_555 1_555
C11 C6 1_555 1_555
C12 C1 1_555 1_555
C13 C10 1_555 1_555
C14 C5 1_555 1_555
O1 C13 1_555 1_555
O2 C13 1_555 1_555
O3 C14 1_555 1_555
H1 C1 1_555 1_555
H2 C2 1_555 1_555
H3 C3 1_555 1_555
H4 C4 1_555 1_555
H5 C6 1_555 1_555
H6 C7 1_555 1_555
H7 C7 1_555 1_555
H8 C8 1_555 1_555
H9 C8 1_555 1_555
H10 C9 1_555 1_555
H11 C11 1_555 1_555
H12 C11 1_555 1_555
H13 C12 1_555 1_555
H14 C12 1_555 1_555
C4 C12 1_555 1_555
C5 C10 1_555 1_555
C9 C11 1_555 1_555
C14 O1 1_555 1_555

#END
