
#######################################################################
#
#                 Cambridge Crystallographic Data Centre
#                                CCDC 
#
#######################################################################
#
# If this CIF has been generated from an entry in the Cambridge 
# Structural Database, then it will include bibliographic, chemical, 
# crystal, experimental, refinement or atomic coordinate data resulting 
# from the CCDC's data processing and validation procedures.
#
#######################################################################

data_BIGDIE
_chemical_formula_moiety         'C14 H14 O4'
_chemical_name_systematic        
'Decahydro-2,3-exo-epoxy-1,4-endo-5,8-exo-dimethanonaphthalene-4a,8a-dicarboxylic anhydride'
_symmetry_cell_setting           monoclinic
_symmetry_space_group_name_H-M   'P 21/a'
_symmetry_Int_Tables_number      14
_space_group_name_Hall           '-P 2yab'
loop_
_symmetry_equiv_pos_site_id
_symmetry_equiv_pos_as_xyz
1 x,y,z
2 1/2-x,1/2+y,-z
3 -x,-y,-z
4 1/2+x,1/2-y,z
_cell_length_a                   14.578(7)
_cell_length_b                   12.186(4)
_cell_length_c                   14.599(10)
_cell_angle_alpha                90
_cell_angle_beta                 119.22(4)
_cell_angle_gamma                90
_cell_volume                     2263.46
_exptl_crystal_colour            white
_chemical_melting_point          260-70deg.C
_cell_formula_units_Z            8
loop_
_atom_site_label
_atom_site_type_symbol
_atom_site_fract_x
_atom_site_fract_y
_atom_site_fract_z
C1 C 0.09630 0.61920 0.04790
C2 C 0.01440 0.64350 0.08100
C3 C 0.07080 0.65860 0.19250
C4 C 0.18740 0.64100 0.22680
C5 C 0.22360 0.74310 0.18330
C6 C 0.19930 0.86290 0.19870
C7 C 0.25420 0.94010 0.15630
C8 C 0.18930 0.92380 0.03450
C9 C 0.10340 0.83990 0.02020
C10 C 0.16000 0.72700 0.06160
C11 C 0.08380 0.87950 0.10940
C12 C 0.17660 0.55290 0.14320
C13 C 0.24150 0.70530 0.03180
C14 C 0.33440 0.72400 0.21190
O1 O 0.34310 0.70640 0.12000
O2 O 0.23540 0.68900 -0.05330
O3 O 0.41320 0.72120 0.29540
O4 O 0.00520 0.56340 0.14920
H1 H 0.06900 0.61000 -0.02100
H2 H -0.05100 0.68500 0.04300
H3 H 0.04300 0.71300 0.23200
H4 H 0.24000 0.62200 0.30700
H5 H 0.22200 0.87700 0.26400
H6 H 0.32400 0.90500 0.17800
H7 H 0.25000 1.01900 0.16700
H8 H 0.23200 0.89600 -0.00500
H9 H 0.14200 0.99700 -0.00100
H10 H 0.05000 0.84400 -0.05500
H11 H 0.03700 0.84800 0.11200
H12 H 0.06000 0.96500 0.10000
H13 H 0.24400 0.55800 0.14200
H14 H 0.16500 0.47700 0.15600
C15 C 0.46840 0.14210 0.29070
C16 C 0.38550 0.16030 0.32360
C17 C 0.44000 0.16340 0.43650
C18 C 0.55680 0.14550 0.47000
C19 C 0.59620 0.25090 0.43920
C20 C 0.57100 0.36940 0.46350
C21 C 0.63360 0.45210 0.43370
C22 C 0.57610 0.44470 0.31330
C23 C 0.48560 0.36510 0.28400
C24 C 0.53590 0.24820 0.31570
C25 C 0.46240 0.39360 0.37300
C26 C 0.54640 0.06630 0.38160
C27 C 0.62060 0.22920 0.28710
C28 C 0.70850 0.23350 0.46840
O5 O 0.71740 0.22220 0.37780
O6 O 0.61350 0.21760 0.20410
O7 O 0.78560 0.22590 0.55340
O8 O 0.37160 0.07320 0.38220
H15 H 0.44200 0.12300 0.21500
H16 H 0.32900 0.21000 0.27900
H17 H 0.43100 0.20600 0.48000
H18 H 0.60200 0.12100 0.53600
H19 H 0.59100 0.38600 0.54000
H20 H 0.69300 0.43000 0.45500
H21 H 0.60500 0.52400 0.45400
H22 H 0.61700 0.42500 0.28600
H23 H 0.54400 0.50300 0.29400
H24 H 0.43200 0.36700 0.21600
H25 H 0.40700 0.35800 0.37100
H26 H 0.44900 0.46200 0.37200
H27 H 0.61800 0.06400 0.38000
H28 H 0.51300 0.00700 0.38000
loop_
_geom_bond_atom_site_label_1
_geom_bond_atom_site_label_2
_geom_bond_site_symmetry_1
_geom_bond_site_symmetry_2
C1 C2 1_555 1_555
C2 C3 1_555 1_555
C3 C4 1_555 1_555
C4 C5 1_555 1_555
C5 C6 1_555 1_555
C6 C7 1_555 1_555
C7 C8 1_555 1_555
C8 C9 1_555 1_555
C9 C10 1_555 1_555
C10 C1 1_555 1_555
C11 C6 1_555 1_555
C12 C1 1_555 1_555
C13 C10 1_555 1_555
C14 C5 1_555 1_555
O1 C13 1_555 1_555
O2 C13 1_555 1_555
O3 C14 1_555 1_555
O4 C2 1_555 1_555
H1 C1 1_555 1_555
H2 C2 1_555 1_555
H3 C3 1_555 1_555
H4 C4 1_555 1_555
H5 C6 1_555 1_555
H6 C7 1_555 1_555
H7 C7 1_555 1_555
H8 C8 1_555 1_555
H9 C8 1_555 1_555
H10 C9 1_555 1_555
H11 C11 1_555 1_555
H12 C11 1_555 1_555
H13 C12 1_555 1_555
H14 C12 1_555 1_555
C15 C16 1_555 1_555
C16 C17 1_555 1_555
C17 C18 1_555 1_555
C18 C19 1_555 1_555
C19 C20 1_555 1_555
C20 C21 1_555 1_555
C21 C22 1_555 1_555
C22 C23 1_555 1_555
C23 C24 1_555 1_555
C24 C15 1_555 1_555
C25 C20 1_555 1_555
C26 C15 1_555 1_555
C27 C24 1_555 1_555
C28 C19 1_555 1_555
O5 C27 1_555 1_555
O6 C27 1_555 1_555
O7 C28 1_555 1_555
O8 C16 1_555 1_555
H15 C15 1_555 1_555
H16 C16 1_555 1_555
H17 C17 1_555 1_555
H18 C18 1_555 1_555
H19 C20 1_555 1_555
H20 C21 1_555 1_555
H21 C21 1_555 1_555
H22 C22 1_555 1_555
H23 C22 1_555 1_555
H24 C23 1_555 1_555
H25 C25 1_555 1_555
H26 C25 1_555 1_555
H27 C26 1_555 1_555
H28 C26 1_555 1_555
C3 O4 1_555 1_555
C4 C12 1_555 1_555
C5 C10 1_555 1_555
C9 C11 1_555 1_555
C14 O1 1_555 1_555
C17 O8 1_555 1_555
C18 C26 1_555 1_555
C19 C24 1_555 1_555
C23 C25 1_555 1_555
C28 O5 1_555 1_555

#END
