
#######################################################################
#
#                 Cambridge Crystallographic Data Centre
#                                CCDC 
#
#######################################################################
#
# If this CIF has been generated from an entry in the Cambridge 
# Structural Database, then it will include bibliographic, chemical, 
# crystal, experimental, refinement or atomic coordinate data resulting 
# from the CCDC's data processing and validation procedures.
#
#######################################################################

data_BIGHUW
_chemical_formula_moiety         'C29 H23 N1 O3 S1'
_chemical_name_systematic        
5-(((4-Methylphenyl)sulfonyl)(phenyl)methyl)-2,4-diphenyl-1,3-oxazole
_symmetry_cell_setting           monoclinic
_symmetry_space_group_name_H-M   'P 21/n'
_symmetry_Int_Tables_number      14
_space_group_name_Hall           '-P 2yn'
loop_
_symmetry_equiv_pos_site_id
_symmetry_equiv_pos_as_xyz
1 x,y,z
2 1/2-x,1/2+y,1/2-z
3 -x,-y,-z
4 1/2+x,1/2-y,1/2+z
_cell_length_a                   12.3447(15)
_cell_length_b                   8.4511(11)
_cell_length_c                   23.555(3)
_cell_angle_alpha                90
_cell_angle_beta                 103.932(8)
_cell_angle_gamma                90
_cell_volume                     2385.11
_exptl_crystal_colour            colorless
_exptl_crystal_description       block
_cell_formula_units_Z            4
loop_
_atom_site_label
_atom_site_type_symbol
_atom_site_fract_x
_atom_site_fract_y
_atom_site_fract_z
S1 S 0.85915(3) 0.16094(5) 0.215912(18)
O1 O 0.94408(8) 0.30866(13) 0.09559(4)
C1 C 0.83672(12) 0.33899(19) 0.17041(7)
H1 H 0.8281 0.4268 0.1961
N1 N 1.09682(10) 0.45274(16) 0.12838(5)
C2 C 0.96404(12) 0.21861(19) 0.27734(7)
C3 C 0.93653(12) 0.37603(19) 0.14790(6)
C4 C 1.06546(13) 0.55944(19) 0.22149(7)
C5 C 0.72702(12) 0.3250(2) 0.12493(7)
C6 C 1.07560(13) 0.3180(2) 0.03358(7)
C7 C 1.02938(12) 0.46397(18) 0.16800(6)
C8 C 1.04308(12) 0.36274(19) 0.08706(7)
C9 C 0.93986(14) 0.3275(2) 0.31613(8)
H2 H 0.8682 0.3686 0.3107
C10 C 1.06956(13) 0.1551(2) 0.28550(8)
H3 H 1.0853 0.0821 0.2591
O2 O 0.75831(10) 0.13373(18) 0.23472(6)
O3 O 0.90142(12) 0.03839(15) 0.18518(6)
C11 C 1.17548(14) 0.5486(2) 0.25370(8)
H4 H 1.2245 0.4795 0.2419
C12 C 0.99359(15) 0.6617(2) 0.23992(8)
H5 H 0.9200 0.6708 0.2185
C13 C 1.16877(15) 0.3896(3) 0.02133(8)
H6 H 1.2093 0.4635 0.0472
C14 C 1.15136(15) 0.2015(3) 0.33348(8)
H7 H 1.2222 0.1570 0.3397
C15 C 0.64666(14) 0.4397(3) 0.12330(8)
H8 H 0.6611 0.5240 0.1494
C16 C 1.13039(16) 0.3124(3) 0.37229(8)
C17 C 0.70447(16) 0.1998(3) 0.08628(8)
H9 H 0.7582 0.1223 0.0867
C18 C 1.02365(16) 0.3743(3) 0.36302(8)
H10 H 1.0083 0.4490 0.3890
C19 C 1.03061(19) 0.7503(2) 0.29005(9)
H11 H 0.9814 0.8173 0.3027
C20 C 0.52238(18) 0.3053(4) 0.04535(11)
H12 H 0.4535 0.2985 0.0186
C21 C 1.20122(18) 0.3514(3) -0.02900(10)
H13 H 1.2633 0.4004 -0.0371
C22 C 1.1395(2) 0.7401(3) 0.32130(9)
H14 H 1.1643 0.8009 0.3548
C23 C 0.54480(17) 0.4297(4) 0.08300(10)
H15 H 0.4915 0.5083 0.0817
C24 C 1.1428(2) 0.2419(3) -0.06730(9)
H16 H 1.1652 0.2161 -0.1011
C25 C 1.21204(17) 0.6401(3) 0.30305(9)
H17 H 1.2861 0.6340 0.3241
C26 C 1.01737(18) 0.2090(3) -0.00523(8)
H18 H 0.9546 0.1603 0.0022
C27 C 0.60107(19) 0.1900(4) 0.04668(10)
H19 H 0.5852 0.1049 0.0210
C28 C 1.0515(2) 0.1710(3) -0.05543(10)
H20 H 1.0118 0.0964 -0.0813
C29 C 1.2227(2) 0.3677(4) 0.42277(10)
H21 H 1.2903 0.3122 0.4223
H22 H 1.2024 0.3468 0.4589
H23 H 1.2340 0.4793 0.4192
loop_
_geom_bond_atom_site_label_1
_geom_bond_atom_site_label_2
_geom_bond_site_symmetry_1
_geom_bond_site_symmetry_2
S1 C1 1_555 1_555
O1 C3 1_555 1_555
C1 H1 1_555 1_555
N1 C7 1_555 1_555
C2 S1 1_555 1_555
C3 C1 1_555 1_555
C4 C7 1_555 1_555
C5 C1 1_555 1_555
C6 C8 1_555 1_555
C7 C3 1_555 1_555
C8 O1 1_555 1_555
C9 C2 1_555 1_555
H2 C9 1_555 1_555
C10 C2 1_555 1_555
H3 C10 1_555 1_555
O2 S1 1_555 1_555
O3 S1 1_555 1_555
C11 C4 1_555 1_555
H4 C11 1_555 1_555
C12 C4 1_555 1_555
H5 C12 1_555 1_555
C13 C6 1_555 1_555
H6 C13 1_555 1_555
C14 C10 1_555 1_555
H7 C14 1_555 1_555
C15 C5 1_555 1_555
H8 C15 1_555 1_555
C16 C14 1_555 1_555
C17 C5 1_555 1_555
H9 C17 1_555 1_555
C18 C9 1_555 1_555
H10 C18 1_555 1_555
C19 C12 1_555 1_555
H11 C19 1_555 1_555
C20 H12 1_555 1_555
C21 C13 1_555 1_555
H13 C21 1_555 1_555
C22 C19 1_555 1_555
H14 C22 1_555 1_555
C23 C15 1_555 1_555
H15 C23 1_555 1_555
C24 C21 1_555 1_555
H16 C24 1_555 1_555
C25 C11 1_555 1_555
H17 C25 1_555 1_555
C26 C6 1_555 1_555
H18 C26 1_555 1_555
C27 C17 1_555 1_555
H19 C27 1_555 1_555
C28 C24 1_555 1_555
H20 C28 1_555 1_555
C29 C16 1_555 1_555
H21 C29 1_555 1_555
H22 C29 1_555 1_555
H23 C29 1_555 1_555
N1 C8 1_555 1_555
C16 C18 1_555 1_555
C20 C23 1_555 1_555
C20 C27 1_555 1_555
C22 C25 1_555 1_555
C26 C28 1_555 1_555

#END
