
#######################################################################
#
#                 Cambridge Crystallographic Data Centre
#                                CCDC 
#
#######################################################################
#
# If this CIF has been generated from an entry in the Cambridge 
# Structural Database, then it will include bibliographic, chemical, 
# crystal, experimental, refinement or atomic coordinate data resulting 
# from the CCDC's data processing and validation procedures.
#
#######################################################################

data_BIGJIN
_chemical_formula_moiety         'C36 H33 N1 O6,C3 H7 N1 O1'
_chemical_name_systematic        
'5-[4-(dibutylamino)-2-hydroxyphenyl]-7,12,14-trihydroxypentacene-6,13-dione N,N-dimethylformamide solvate'
_symmetry_cell_setting           triclinic
_symmetry_space_group_name_H-M   'P 1'
_symmetry_Int_Tables_number      1
_space_group_name_Hall           'P 1'
loop_
_symmetry_equiv_pos_site_id
_symmetry_equiv_pos_as_xyz
1 x,y,z
_cell_length_a                   7.0350(17)
_cell_length_b                   8.4308(18)
_cell_length_c                   15.210(4)
_cell_angle_alpha                98.594(19)
_cell_angle_beta                 99.03(2)
_cell_angle_gamma                105.311(20)
_cell_volume                     841.884
_exptl_crystal_colour            red
_exptl_crystal_description       block
_chemical_melting_point          '503.15 K'
_cell_formula_units_Z            1
_chemical_properties_physical    Light-sensitive
_exptl_crystal_recrystallization_method 
'Re-crystallisation from solvent: N,N-Dimethylformamide'
_exptl_crystal_preparation       Luminescent
loop_
_atom_site_label
_atom_site_type_symbol
_atom_site_fract_x
_atom_site_fract_y
_atom_site_fract_z
C1 C -1.116(3) -0.2787(19) -0.9946(11)
H1 H -1.148877 -0.198847 -0.952102
H2 H -1.188656 -0.390358 -0.990831
H3 H -1.153402 -0.260947 -1.055049
O1 O -0.6470(17) -0.3613(13) -0.9171(8)
N1 N -0.8980(14) -0.2569(11) -0.9729(6)
C2 C -0.833(2) -0.3727(15) -0.9409(8)
H4 H -0.927868 -0.468964 -0.935080
C3 C -0.764(2) -0.0964(14) -0.9742(10)
H5 H -0.816177 -0.054520 -1.025113
H6 H -0.633657 -0.108062 -0.979283
H7 H -0.751820 -0.019217 -0.918932
C4 C -1.2407(17) -0.9435(15) -0.5445(8)
H8 H -1.206228 -0.931561 -0.481797
N2 N -1.4286(19) -0.8086(13) -1.1127(7)
C5 C -1.3398(16) -1.0984(14) -0.5986(8)
H9 H -1.371860 -1.191476 -0.571802
O2 O -0.7224(14) -0.0104(9) -0.3973(5)
H10 H -0.772291 -0.099618 -0.382782
C6 C -1.3925(16) -1.1191(14) -0.6912(8)
H11 H -1.460275 -1.224998 -0.726583
O3 O -0.8820(12) -0.3251(9) -0.4223(5)
C7 C -1.3430(16) -0.9783(13) -0.7327(8)
H12 H -1.378819 -0.992282 -0.795455
O4 O -1.0492(12) -0.6327(9) -0.4395(4)
H13 H -0.982003 -0.537563 -0.412911
C8 C -1.2401(14) -0.8171(12) -0.6800(7)
O5 O -0.8876(11) -0.0592(9) -0.7706(5)
H14 H -0.971981 -0.148230 -0.796254
C9 C -1.1874(14) -0.6703(12) -0.7223(7)
O6 O -1.0464(13) -0.3667(9) -0.7886(5)
C10 C -1.0835(15) -0.5153(12) -0.6656(7)
O7 O -1.4950(12) -0.5581(10) -0.8169(5)
H15 H -1.561689 -0.514611 -0.849485
C11 C -1.0145(15) -0.3622(13) -0.7043(7)
C12 C -0.9064(15) -0.1990(13) -0.6446(7)
C13 C -0.8485(13) -0.0547(11) -0.6817(7)
C14 C -0.7492(15) 0.1070(13) -0.6231(8)
C15 C -0.6916(16) 0.2508(12) -0.6601(9)
H16 H -0.720412 0.243731 -0.722647
C16 C -0.5887(19) 0.4074(15) -0.6007(12)
H17 H -0.545454 0.502636 -0.624805
C17 C -0.5514(19) 0.4203(15) -0.5059(9)
H18 H -0.491498 0.524767 -0.467682
C18 C -0.6022(17) 0.2819(14) -0.4704(8)
H19 H -0.569077 0.291246 -0.407859
C19 C -0.7060(14) 0.1208(12) -0.5266(7)
C20 C -0.7662(16) -0.0298(13) -0.4885(7)
C21 C -0.8642(14) -0.1881(12) -0.5468(7)
C22 C -0.9267(16) -0.3348(13) -0.5080(7)
C23 C -1.0342(13) -0.4981(12) -0.5690(7)
C24 C -1.0883(15) -0.6377(13) -0.5300(6)
C25 C -1.1913(14) -0.8000(12) -0.5864(7)
C26 C -1.2434(15) -0.6998(12) -0.8243(6)
C27 C -1.3979(15) -0.6463(12) -0.8686(6)
C28 C -1.4581(17) -0.6820(12) -0.9635(6)
H20 H -1.562130 -0.645653 -0.990983
C29 C -1.3612(15) -0.7732(12) -1.0174(6)
C30 C -1.2027(17) -0.8236(14) -0.9741(7)
H21 H -1.132442 -0.879408 -1.008189
C31 C -1.1522(16) -0.7900(13) -0.8815(7)
H22 H -1.050570 -0.829265 -0.854276
C32 C -1.607(2) -0.7720(18) -1.1588(8)
H23 H -1.707525 -0.788772 -1.121325
H24 H -1.662945 -0.853041 -1.215533
C33 C -1.574(3) -0.601(2) -1.1791(13)
H25 H -1.529988 -0.520855 -1.121991
H26 H -1.465605 -0.580950 -1.211959
C34 C -1.747(4) -0.569(3) -1.2315(16)
H27 H -1.700426 -0.513616 -1.279046
H28 H -1.842054 -0.676873 -1.261338
C35 C -1.848(4) -0.478(4) -1.1897(17)
H29 H -1.955294 -0.551414 -1.169914
H30 H -1.903181 -0.418521 -1.231100
H31 H -1.758455 -0.399655 -1.138112
C36 C -1.316(3) -0.889(2) -1.1726(9)
H32 H -1.174394 -0.852525 -1.143666
H33 H -1.328368 -0.850643 -1.229564
C37 C -1.388(3) -1.080(2) -1.1928(11)
H34 H -1.524209 -1.117348 -1.229039
H35 H -1.392845 -1.118647 -1.136025
C38 C -1.247(5) -1.164(4) -1.2462(18)
H36 H -1.108108 -1.116213 -1.213711
H37 H -1.284917 -1.283569 -1.246267
C39 C -1.259(5) -1.143(4) -1.332(2)
H38 H -1.396717 -1.183091 -1.363186
H39 H -1.181523 -1.204581 -1.361176
H40 H -1.205853 -1.025841 -1.331952
loop_
_geom_bond_atom_site_label_1
_geom_bond_atom_site_label_2
_geom_bond_site_symmetry_1
_geom_bond_site_symmetry_2
C1 H1 1_555 1_555
H2 C1 1_555 1_555
H3 C1 1_555 1_555
O1 C2 1_555 1_555
N1 C1 1_555 1_555
C2 N1 1_555 1_555
H4 C2 1_555 1_555
C3 N1 1_555 1_555
H5 C3 1_555 1_555
H6 C3 1_555 1_555
H7 C3 1_555 1_555
C4 H8 1_555 1_555
N2 C29 1_555 1_555
C5 C4 1_555 1_555
H9 C5 1_555 1_555
O2 H10 1_555 1_555
C6 C5 1_555 1_555
H11 C6 1_555 1_555
O3 C22 1_555 1_555
C7 C6 1_555 1_555
H12 C7 1_555 1_555
O4 H13 1_555 1_555
C8 C7 1_555 1_555
O5 H14 1_555 1_555
C9 C8 1_555 1_555
O6 C11 1_555 1_555
C10 C9 1_555 1_555
O7 H15 1_555 1_555
C11 C10 1_555 1_555
C12 C11 1_555 1_555
C13 O5 1_555 1_555
C14 C13 1_555 1_555
C15 C14 1_555 1_555
H16 C15 1_555 1_555
C16 C15 1_555 1_555
H17 C16 1_555 1_555
C17 C16 1_555 1_555
H18 C17 1_555 1_555
C18 C17 1_555 1_555
H19 C18 1_555 1_555
C19 C14 1_555 1_555
C20 O2 1_555 1_555
C21 C12 1_555 1_555
C22 C21 1_555 1_555
C23 C10 1_555 1_555
C24 O4 1_555 1_555
C25 C4 1_555 1_555
C26 C9 1_555 1_555
C27 O7 1_555 1_555
C28 C27 1_555 1_555
H20 C28 1_555 1_555
C29 C28 1_555 1_555
C30 C29 1_555 1_555
H21 C30 1_555 1_555
C31 C26 1_555 1_555
H22 C31 1_555 1_555
C32 N2 1_555 1_555
H23 C32 1_555 1_555
H24 C32 1_555 1_555
C33 C32 1_555 1_555
H25 C33 1_555 1_555
H26 C33 1_555 1_555
C34 C33 1_555 1_555
H27 C34 1_555 1_555
H28 C34 1_555 1_555
C35 C34 1_555 1_555
H29 C35 1_555 1_555
H30 C35 1_555 1_555
H31 C35 1_555 1_555
C36 N2 1_555 1_555
H32 C36 1_555 1_555
H33 C36 1_555 1_555
C37 C36 1_555 1_555
H34 C37 1_555 1_555
H35 C37 1_555 1_555
C38 C37 1_555 1_555
H36 C38 1_555 1_555
H37 C38 1_555 1_555
C39 C38 1_555 1_555
H38 C39 1_555 1_555
H39 C39 1_555 1_555
H40 C39 1_555 1_555
C8 C25 1_555 1_555
C12 C13 1_555 1_555
C18 C19 1_555 1_555
C19 C20 1_555 1_555
C20 C21 1_555 1_555
C22 C23 1_555 1_555
C23 C24 1_555 1_555
C24 C25 1_555 1_555
C26 C27 1_555 1_555
C30 C31 1_555 1_555

#END
