
#######################################################################
#
#                 Cambridge Crystallographic Data Centre
#                                CCDC 
#
#######################################################################
#
# If this CIF has been generated from an entry in the Cambridge 
# Structural Database, then it will include bibliographic, chemical, 
# crystal, experimental, refinement or atomic coordinate data resulting 
# from the CCDC's data processing and validation procedures.
#
#######################################################################

data_BIGKIO
_chemical_formula_moiety         'C28 H38 O8 Se2 Sr1'
_chemical_name_systematic        
(18-crown-6)-bis(4-methylselenobenzoato)-strontium
_symmetry_cell_setting           monoclinic
_symmetry_space_group_name_H-M   'P 21/n'
_symmetry_Int_Tables_number      14
_space_group_name_Hall           '-P 2yn'
loop_
_symmetry_equiv_pos_site_id
_symmetry_equiv_pos_as_xyz
1 x,y,z
2 1/2-x,1/2+y,1/2-z
3 -x,-y,-z
4 1/2+x,1/2-y,1/2+z
_cell_length_a                   7.686(2)
_cell_length_b                   13.944(2)
_cell_length_c                   14.556(2)
_cell_angle_alpha                90
_cell_angle_beta                 99.17(2)
_cell_angle_gamma                90
_cell_volume                     1540.08
_exptl_crystal_colour            'pale yellow'
_exptl_crystal_description       prismatic
_cell_formula_units_Z            2
loop_
_atom_site_label
_atom_site_type_symbol
_atom_site_fract_x
_atom_site_fract_y
_atom_site_fract_z
Sr1 Sr 0.0000 0.0000 0.0000
Se1 Se 0.07222(9) 0.16325(5) -0.17194(4)
O1 O 0.1826(5) 0.1573(3) 0.0153(3)
O2 O 0.2060(5) -0.1296(2) -0.0677(2)
O3 O 0.3211(4) -0.0400(2) 0.0979(2)
O4 O 0.0949(4) 0.0702(2) 0.1826(2)
C1 C 0.1569(6) 0.2114(4) -0.0538(4)
C2 C 0.1960(6) 0.3158(3) -0.0372(3)
C3 C 0.2648(7) 0.3484(4) 0.0510(3)
H1 H 0.2883 0.3039 0.1009
C4 C 0.2995(7) 0.4441(4) 0.0677(4)
H2 H 0.3476 0.4642 0.1289
C5 C 0.2661(7) 0.5119(4) -0.0024(4)
C6 C 0.1999(7) 0.4792(4) -0.0905(4)
H3 H 0.1756 0.5240 -0.1400
C7 C 0.1680(7) 0.3829(4) -0.1088(4)
H4 H 0.1268 0.3624 -0.1707
C8 C 0.2975(8) 0.6171(4) 0.0165(4)
H5 H 0.2067 0.6422 0.0503
H6 H 0.2924 0.6515 -0.0426
H7 H 0.4139 0.6262 0.0542
C9 C 0.1836(8) -0.1429(4) -0.1665(4)
H8 H 0.2503 -0.2000 -0.1816
H9 H 0.2284 -0.0862 -0.1963
C10 C 0.3875(7) -0.1326(4) -0.0273(4)
H10 H 0.4507 -0.0772 -0.0490
H11 H 0.4425 -0.1922 -0.0459
C11 C 0.3988(7) -0.1292(4) 0.0764(4)
H12 H 0.3340 -0.1838 0.0982
H13 H 0.5233 -0.1325 0.1070
C12 C 0.3555(7) -0.0217(4) 0.1952(3)
H14 H 0.4841 -0.0221 0.2174
H15 H 0.3007 -0.0721 0.2290
C13 C 0.2800(7) 0.0745(4) 0.2132(3)
H16 H 0.3050 0.0898 0.2804
H17 H 0.3332 0.1250 0.1787
C14 C 0.0088(8) 0.1562(4) 0.2017(4)
H18 H 0.0554 0.2111 0.1699
H19 H 0.0282 0.1690 0.2695
O2B O -0.2060(5) 0.1296(2) 0.0677(2)
O3B O -0.3211(4) 0.0400(2) -0.0979(2)
O4B O -0.0949(4) -0.0702(2) -0.1826(2)
C9B C -0.1836(8) 0.1429(4) 0.1665(4)
H8B H -0.2503 0.2000 0.1816
H9B H -0.2284 0.0862 0.1963
C10B C -0.3875(7) 0.1326(4) 0.0273(4)
H10B H -0.4507 0.0772 0.0490
H11B H -0.4425 0.1922 0.0459
C11B C -0.3988(7) 0.1292(4) -0.0764(4)
H12B H -0.3340 0.1838 -0.0982
H13B H -0.5233 0.1325 -0.1070
C12B C -0.3555(7) 0.0217(4) -0.1952(3)
H14B H -0.4841 0.0221 -0.2174
H15B H -0.3007 0.0721 -0.2290
C13B C -0.2800(7) -0.0745(4) -0.2132(3)
H16B H -0.3050 -0.0898 -0.2804
H17B H -0.3332 -0.1250 -0.1787
C14B C -0.0088(8) -0.1562(4) -0.2017(4)
H18B H -0.0554 -0.2111 -0.1699
H19B H -0.0282 -0.1690 -0.2695
Se1B Se -0.07222(9) -0.16325(5) 0.17194(4)
O1B O -0.1826(5) -0.1573(3) -0.0153(3)
C1B C -0.1569(6) -0.2114(4) 0.0538(4)
C2B C -0.1960(6) -0.3158(3) 0.0372(3)
C3B C -0.2648(7) -0.3484(4) -0.0510(3)
H1B H -0.2883 -0.3039 -0.1009
C4B C -0.2995(7) -0.4441(4) -0.0677(4)
H2B H -0.3476 -0.4642 -0.1289
C5B C -0.2661(7) -0.5119(4) 0.0024(4)
C6B C -0.1999(7) -0.4792(4) 0.0905(4)
H3B H -0.1756 -0.5240 0.1400
C7B C -0.1680(7) -0.3829(4) 0.1088(4)
H4B H -0.1268 -0.3624 0.1707
C8B C -0.2975(8) -0.6171(4) -0.0165(4)
H5B H -0.2067 -0.6422 -0.0503
H6B H -0.2924 -0.6515 0.0426
H7B H -0.4139 -0.6262 -0.0542
loop_
_geom_bond_atom_site_label_1
_geom_bond_atom_site_label_2
_geom_bond_site_symmetry_1
_geom_bond_site_symmetry_2
Sr1 Se1 1_555 1_555
Se1 C1 1_555 1_555
O1 Sr1 1_555 1_555
O2 Sr1 1_555 1_555
O3 Sr1 1_555 1_555
O4 Sr1 1_555 1_555
C1 O1 1_555 1_555
C2 C1 1_555 1_555
C3 C2 1_555 1_555
H1 C3 1_555 1_555
C4 C3 1_555 1_555
H2 C4 1_555 1_555
C5 C4 1_555 1_555
C6 C5 1_555 1_555
H3 C6 1_555 1_555
C7 C2 1_555 1_555
H4 C7 1_555 1_555
C8 C5 1_555 1_555
H5 C8 1_555 1_555
H6 C8 1_555 1_555
H7 C8 1_555 1_555
C9 O2 1_555 1_555
H8 C9 1_555 1_555
H9 C9 1_555 1_555
C10 O2 1_555 1_555
H10 C10 1_555 1_555
H11 C10 1_555 1_555
C11 O3 1_555 1_555
H12 C11 1_555 1_555
H13 C11 1_555 1_555
C12 O3 1_555 1_555
H14 C12 1_555 1_555
H15 C12 1_555 1_555
C13 O4 1_555 1_555
H16 C13 1_555 1_555
H17 C13 1_555 1_555
C14 O4 1_555 1_555
H18 C14 1_555 1_555
H19 C14 1_555 1_555
O2B Sr1 1_555 1_555
O3B Sr1 1_555 1_555
O4B Sr1 1_555 1_555
C9B C14 1_555 1_555
H8B C9B 1_555 1_555
H9B C9B 1_555 1_555
C10B O2B 1_555 1_555
H10B C10B 1_555 1_555
H11B C10B 1_555 1_555
C11B O3B 1_555 1_555
H12B C11B 1_555 1_555
H13B C11B 1_555 1_555
C12B O3B 1_555 1_555
H14B C12B 1_555 1_555
H15B C12B 1_555 1_555
C13B O4B 1_555 1_555
H16B C13B 1_555 1_555
H17B C13B 1_555 1_555
C14B C9 1_555 1_555
H18B C14B 1_555 1_555
H19B C14B 1_555 1_555
Se1B Sr1 1_555 1_555
O1B Sr1 1_555 1_555
C1B Se1B 1_555 1_555
C2B C1B 1_555 1_555
C3B C2B 1_555 1_555
H1B C3B 1_555 1_555
C4B C3B 1_555 1_555
H2B C4B 1_555 1_555
C5B C4B 1_555 1_555
C6B C5B 1_555 1_555
H3B C6B 1_555 1_555
C7B C2B 1_555 1_555
H4B C7B 1_555 1_555
C8B C5B 1_555 1_555
H5B C8B 1_555 1_555
H6B C8B 1_555 1_555
H7B C8B 1_555 1_555
C6 C7 1_555 1_555
C10 C11 1_555 1_555
C12 C13 1_555 1_555
O2B C9B 1_555 1_555
O4B C14B 1_555 1_555
C10B C11B 1_555 1_555
C12B C13B 1_555 1_555
O1B C1B 1_555 1_555
C6B C7B 1_555 1_555

#END
