
#######################################################################
#
#                 Cambridge Crystallographic Data Centre
#                                CCDC 
#
#######################################################################
#
# If this CIF has been generated from an entry in the Cambridge 
# Structural Database, then it will include bibliographic, chemical, 
# crystal, experimental, refinement or atomic coordinate data resulting 
# from the CCDC's data processing and validation procedures.
#
#######################################################################

data_BIGKOU
_chemical_formula_moiety         'C26 H34 O9 S2 Sr1'
_chemical_name_systematic        
bis(4-methoxythiobenzoato)-(15-crown-5)-strontium
_symmetry_cell_setting           monoclinic
_symmetry_space_group_name_H-M   'P 21/n'
_symmetry_Int_Tables_number      14
_space_group_name_Hall           '-P 2yn'
loop_
_symmetry_equiv_pos_site_id
_symmetry_equiv_pos_as_xyz
1 x,y,z
2 1/2-x,1/2+y,1/2-z
3 -x,-y,-z
4 1/2+x,1/2-y,1/2+z
_cell_length_a                   8.606(2)
_cell_length_b                   14.452(2)
_cell_length_c                   22.606(2)
_cell_angle_alpha                90
_cell_angle_beta                 94.51(2)
_cell_angle_gamma                90
_cell_volume                     2802.89
_exptl_crystal_colour            'pale yellow'
_exptl_crystal_description       prismatic
_cell_formula_units_Z            4
loop_
_atom_site_label
_atom_site_type_symbol
_atom_site_fract_x
_atom_site_fract_y
_atom_site_fract_z
Sr1 Sr 0.70787(8) 0.91436(5) 0.20937(3)
S1 S 0.9861(2) 0.79754(14) 0.26708(9)
S2 S 0.9806(2) 0.98604(15) 0.14667(9)
O1 O 0.8638(6) 0.9474(3) 0.3088(2)
O2 O 1.3600(6) 0.8958(4) 0.5283(2)
O3 O 0.7385(5) 1.0812(3) 0.1718(2)
O4 O 0.7935(6) 1.2961(3) -0.0683(2)
O5 O 0.6961(6) 0.7568(3) 0.1467(2)
O6 O 0.5944(5) 0.9207(4) 0.0901(2)
O7 O 0.4186(5) 0.9837(3) 0.1765(2)
O8 O 0.5059(5) 0.9483(3) 0.2915(2)
O9 O 0.5584(6) 0.7711(3) 0.2522(2)
C1 C 0.9622(9) 0.8838(5) 0.3173(3)
C2 C 1.0678(8) 0.8869(5) 0.3727(3)
C3 C 1.0821(8) 0.9691(5) 0.4051(3)
H1 H 1.0232 1.0215 0.3914
C4 C 1.1808(9) 0.9763(5) 0.4571(3)
H2 H 1.1917 1.0332 0.4781
C5 C 1.2622(8) 0.8981(5) 0.4774(3)
C6 C 1.2468(9) 0.8142(5) 0.4470(3)
H3 H 1.3014 0.7609 0.4619
C7 C 1.1507(8) 0.8095(5) 0.3947(3)
H4 H 1.1412 0.7527 0.3736
C8 C 1.3735(10) 0.9790(6) 0.5647(3)
H5 H 1.4172 1.0292 0.5421
H6 H 1.4422 0.9667 0.6005
H7 H 1.2702 0.9970 0.5761
C9 C 0.8395(8) 1.0698(5) 0.1359(3)
C10 C 0.8358(8) 1.1306(5) 0.0830(3)
C11 C 0.9249(8) 1.1125(5) 0.0350(3)
H8 H 0.9946 1.0614 0.0377
C12 C 0.9164(8) 1.1646(5) -0.0156(3)
H9 H 0.9773 1.1492 -0.0474
C13 C 0.8163(8) 1.2410(5) -0.0195(3)
C14 C 0.7271(8) 1.2622(5) 0.0278(3)
H10 H 0.6595 1.3142 0.0257
C15 C 0.7382(8) 1.2070(5) 0.0775(3)
H11 H 0.6767 1.2217 0.1093
C16 C 0.8793(9) 1.2743(6) -0.1177(3)
H12 H 0.9911 1.2751 -0.1054
H13 H 0.8565 1.3201 -0.1492
H14 H 0.8495 1.2126 -0.1326
C17 C 0.6023(9) 0.7537(6) 0.0906(3)
H15 H 0.4902 0.7503 0.0974
H16 H 0.6299 0.6989 0.0674
C18 C 0.6364(9) 0.8408(6) 0.0583(3)
H17 H 0.7491 0.8433 0.0523
H18 H 0.5781 0.8403 0.0188
C19 C 0.4348(9) 0.9468(6) 0.0765(3)
H19 H 0.3656 0.8931 0.0815
H20 H 0.4189 0.9684 0.0350
C20 C 0.3975(9) 1.0232(6) 0.1183(3)
H21 H 0.4686 1.0763 0.1146
H22 H 0.2888 1.0446 0.1098
C21 C 0.3699(9) 1.0439(5) 0.2213(3)
H23 H 0.2680 1.0722 0.2085
H24 H 0.4471 1.0940 0.2294
C22 C 0.3567(9) 0.9870(5) 0.2755(3)
H25 H 0.3230 1.0259 0.3081
H26 H 0.2790 0.9372 0.2674
C23 C 0.5031(9) 0.8701(5) 0.3299(3)
H27 H 0.4306 0.8827 0.3609
H28 H 0.6084 0.8609 0.3500
C24 C 0.4530(9) 0.7826(5) 0.2974(3)
H29 H 0.4591 0.7290 0.3248
H30 H 0.3445 0.7883 0.2797
C25 C 0.5379(8) 0.6874(5) 0.2195(3)
H31 H 0.4404 0.6899 0.1932
H32 H 0.5315 0.6343 0.2468
C26 C 0.6753(9) 0.6768(5) 0.1835(3)
H33 H 0.7703 0.6675 0.2105
H34 H 0.6607 0.6213 0.1580
loop_
_geom_bond_atom_site_label_1
_geom_bond_atom_site_label_2
_geom_bond_site_symmetry_1
_geom_bond_site_symmetry_2
Sr1 S1 1_555 1_555
S1 C1 1_555 1_555
S2 Sr1 1_555 1_555
O1 Sr1 1_555 1_555
O2 C5 1_555 1_555
O3 Sr1 1_555 1_555
O4 C13 1_555 1_555
O5 Sr1 1_555 1_555
O6 Sr1 1_555 1_555
O7 Sr1 1_555 1_555
O8 Sr1 1_555 1_555
O9 Sr1 1_555 1_555
C1 O1 1_555 1_555
C2 C1 1_555 1_555
C3 C2 1_555 1_555
H1 C3 1_555 1_555
C4 C3 1_555 1_555
H2 C4 1_555 1_555
C5 C4 1_555 1_555
C6 C5 1_555 1_555
H3 C6 1_555 1_555
C7 C2 1_555 1_555
H4 C7 1_555 1_555
C8 O2 1_555 1_555
H5 C8 1_555 1_555
H6 C8 1_555 1_555
H7 C8 1_555 1_555
C9 S2 1_555 1_555
C10 C9 1_555 1_555
C11 C10 1_555 1_555
H8 C11 1_555 1_555
C12 C11 1_555 1_555
H9 C12 1_555 1_555
C13 C12 1_555 1_555
C14 C13 1_555 1_555
H10 C14 1_555 1_555
C15 C10 1_555 1_555
H11 C15 1_555 1_555
C16 O4 1_555 1_555
H12 C16 1_555 1_555
H13 C16 1_555 1_555
H14 C16 1_555 1_555
C17 O5 1_555 1_555
H15 C17 1_555 1_555
H16 C17 1_555 1_555
C18 O6 1_555 1_555
H17 C18 1_555 1_555
H18 C18 1_555 1_555
C19 O6 1_555 1_555
H19 C19 1_555 1_555
H20 C19 1_555 1_555
C20 O7 1_555 1_555
H21 C20 1_555 1_555
H22 C20 1_555 1_555
C21 O7 1_555 1_555
H23 C21 1_555 1_555
H24 C21 1_555 1_555
C22 O8 1_555 1_555
H25 C22 1_555 1_555
H26 C22 1_555 1_555
C23 O8 1_555 1_555
H27 C23 1_555 1_555
H28 C23 1_555 1_555
C24 O9 1_555 1_555
H29 C24 1_555 1_555
H30 C24 1_555 1_555
C25 O9 1_555 1_555
H31 C25 1_555 1_555
H32 C25 1_555 1_555
C26 O5 1_555 1_555
H33 C26 1_555 1_555
H34 C26 1_555 1_555
O3 C9 1_555 1_555
C6 C7 1_555 1_555
C14 C15 1_555 1_555
C17 C18 1_555 1_555
C19 C20 1_555 1_555
C21 C22 1_555 1_555
C23 C24 1_555 1_555
C25 C26 1_555 1_555

#END
