
#######################################################################
#
#                 Cambridge Crystallographic Data Centre
#                                CCDC 
#
#######################################################################
#
# If this CIF has been generated from an entry in the Cambridge 
# Structural Database, then it will include bibliographic, chemical, 
# crystal, experimental, refinement or atomic coordinate data resulting 
# from the CCDC's data processing and validation procedures.
#
#######################################################################

data_BIGLAH
_chemical_formula_moiety         'C28 H38 Ca1 O8 S2'
_chemical_name_systematic        
(18-crown-6)-bis(4-methylthiobenzoato)-calcium
_symmetry_cell_setting           monoclinic
_symmetry_space_group_name_H-M   'P 21/c'
_symmetry_Int_Tables_number      14
_space_group_name_Hall           '-P 2ybc'
loop_
_symmetry_equiv_pos_site_id
_symmetry_equiv_pos_as_xyz
1 x,y,z
2 -x,1/2+y,1/2-z
3 -x,-y,-z
4 x,1/2-y,1/2+z
_cell_length_a                   8.082(2)
_cell_length_b                   16.472(2)
_cell_length_c                   22.655(2)
_cell_angle_alpha                90
_cell_angle_beta                 99.440(10)
_cell_angle_gamma                90
_cell_volume                     2975.14
_exptl_crystal_colour            yellow
_exptl_crystal_description       prismatic
_cell_formula_units_Z            4
loop_
_atom_site_label
_atom_site_type_symbol
_atom_site_fract_x
_atom_site_fract_y
_atom_site_fract_z
Ca1 Ca 0.28058(10) 0.12716(5) 0.13898(4)
S1 S 0.23149(19) -0.07900(8) 0.27452(7)
S2 S 0.30416(15) 0.13549(7) 0.00971(5)
O1 O 0.2055(4) 0.06133(19) 0.21975(13)
O2 O 0.4594(4) 0.22110(18) 0.09754(13)
O3 O 0.1921(4) -0.01818(17) 0.09648(14)
O4 O 0.5208(4) 0.02694(17) 0.14004(14)
O5 O 0.5342(4) 0.13919(18) 0.22895(14)
O6 O 0.3166(4) 0.26074(18) 0.20496(14)
O7 O 0.0821(4) 0.24863(18) 0.10906(14)
O8 O -0.0387(4) 0.09694(18) 0.10735(13)
C1 C 0.1880(5) 0.0215(3) 0.2656(2)
C2 C 0.1275(5) 0.0687(3) 0.3151(2)
C3 C 0.1218(6) 0.0348(3) 0.3707(2)
H1 H 0.1556 -0.0200 0.3781
C4 C 0.0676(6) 0.0795(3) 0.4156(2)
H2 H 0.0649 0.0548 0.4534
C5 C 0.0175(6) 0.1591(3) 0.4066(2)
C6 C 0.0245(6) 0.1937(3) 0.3511(2)
H3 H -0.0084 0.2487 0.3441
C7 C 0.0786(5) 0.1494(3) 0.3060(2)
H4 H 0.0824 0.1743 0.2685
C8 C -0.0386(6) 0.2080(3) 0.4562(2)
H5 H 0.0470 0.2486 0.4709
H6 H -0.0547 0.1717 0.4891
H7 H -0.1446 0.2354 0.4409
C9 C 0.4196(5) 0.2151(3) 0.0416(2)
C10 C 0.4747(5) 0.2822(2) 0.00426(19)
C11 C 0.4431(5) 0.2808(3) -0.0579(2)
H8 H 0.3870 0.2356 -0.0782
C12 C 0.4929(6) 0.3449(3) -0.0903(2)
H9 H 0.4683 0.3430 -0.1328
C13 C 0.5766(5) 0.4112(3) -0.0633(2)
C14 C 0.6091(5) 0.4125(3) -0.0006(2)
H10 H 0.6668 0.4574 0.0195
C15 C 0.5580(5) 0.3493(2) 0.0323(2)
H11 H 0.5801 0.3516 0.0747
C16 C 0.6277(6) 0.4804(3) -0.0998(2)
H12 H 0.5293 0.5004 -0.1270
H13 H 0.7122 0.4614 -0.1231
H14 H 0.6749 0.5243 -0.0730
C17 C -0.0896(5) 0.0216(3) 0.0789(2)
H15 H -0.0886 0.0256 0.0354
H16 H -0.2049 0.0079 0.0850
C18 C 0.0297(5) -0.0427(3) 0.1057(2)
H17 H 0.0263 -0.0482 0.1490
H18 H -0.0002 -0.0956 0.0861
C19 C 0.3169(6) -0.0795(3) 0.1126(2)
H19 H 0.2909 -0.1282 0.0872
H20 H 0.3218 -0.0955 0.1550
C20 C 0.4789(6) -0.0432(3) 0.1032(2)
H21 H 0.5691 -0.0841 0.1125
H22 H 0.4715 -0.0277 0.0606
C21 C 0.6063(6) 0.0089(3) 0.1990(2)
H23 H 0.6995 -0.0295 0.1971
H24 H 0.5281 -0.0160 0.2231
C22 C 0.6729(5) 0.0874(3) 0.2265(2)
H25 H 0.7355 0.0779 0.2672
H26 H 0.7500 0.1126 0.2020
C23 C 0.5867(6) 0.2186(3) 0.2490(2)
H27 H 0.6433 0.2458 0.2188
H28 H 0.6669 0.2151 0.2870
C24 C 0.4358(6) 0.2655(3) 0.2582(2)
H29 H 0.3881 0.2426 0.2922
H30 H 0.4664 0.3229 0.2674
C25 C 0.2112(7) 0.3290(3) 0.1925(3)
H31 H 0.2755 0.3796 0.2029
H32 H 0.1185 0.3266 0.2162
C26 C 0.1436(7) 0.3268(3) 0.1274(2)
H33 H 0.0518 0.3670 0.1184
H34 H 0.2333 0.3422 0.1046
C27 C -0.0897(6) 0.2357(3) 0.1159(3)
H35 H -0.1596 0.2824 0.0994
H36 H -0.0985 0.2298 0.1587
C28 C -0.1468(6) 0.1612(3) 0.0831(2)
H37 H -0.2639 0.1489 0.0877
H38 H -0.1423 0.1680 0.0400
loop_
_geom_bond_atom_site_label_1
_geom_bond_atom_site_label_2
_geom_bond_site_symmetry_1
_geom_bond_site_symmetry_2
Ca1 S2 1_555 1_555
S1 C1 1_555 1_555
S2 C9 1_555 1_555
O1 Ca1 1_555 1_555
O2 Ca1 1_555 1_555
O3 Ca1 1_555 1_555
O4 Ca1 1_555 1_555
O5 Ca1 1_555 1_555
O6 Ca1 1_555 1_555
O7 Ca1 1_555 1_555
O8 Ca1 1_555 1_555
C1 O1 1_555 1_555
C2 C1 1_555 1_555
C3 C2 1_555 1_555
H1 C3 1_555 1_555
C4 C3 1_555 1_555
H2 C4 1_555 1_555
C5 C4 1_555 1_555
C6 C5 1_555 1_555
H3 C6 1_555 1_555
C7 C2 1_555 1_555
H4 C7 1_555 1_555
C8 C5 1_555 1_555
H5 C8 1_555 1_555
H6 C8 1_555 1_555
H7 C8 1_555 1_555
C9 O2 1_555 1_555
C10 C9 1_555 1_555
C11 C10 1_555 1_555
H8 C11 1_555 1_555
C12 C11 1_555 1_555
H9 C12 1_555 1_555
C13 C12 1_555 1_555
C14 C13 1_555 1_555
H10 C14 1_555 1_555
C15 C10 1_555 1_555
H11 C15 1_555 1_555
C16 C13 1_555 1_555
H12 C16 1_555 1_555
H13 C16 1_555 1_555
H14 C16 1_555 1_555
C17 O8 1_555 1_555
H15 C17 1_555 1_555
H16 C17 1_555 1_555
C18 O3 1_555 1_555
H17 C18 1_555 1_555
H18 C18 1_555 1_555
C19 O3 1_555 1_555
H19 C19 1_555 1_555
H20 C19 1_555 1_555
C20 O4 1_555 1_555
H21 C20 1_555 1_555
H22 C20 1_555 1_555
C21 O4 1_555 1_555
H23 C21 1_555 1_555
H24 C21 1_555 1_555
C22 O5 1_555 1_555
H25 C22 1_555 1_555
H26 C22 1_555 1_555
C23 O5 1_555 1_555
H27 C23 1_555 1_555
H28 C23 1_555 1_555
C24 O6 1_555 1_555
H29 C24 1_555 1_555
H30 C24 1_555 1_555
C25 O6 1_555 1_555
H31 C25 1_555 1_555
H32 C25 1_555 1_555
C26 O7 1_555 1_555
H33 C26 1_555 1_555
H34 C26 1_555 1_555
C27 O7 1_555 1_555
H35 C27 1_555 1_555
H36 C27 1_555 1_555
C28 O8 1_555 1_555
H37 C28 1_555 1_555
H38 C28 1_555 1_555
C6 C7 1_555 1_555
C14 C15 1_555 1_555
C17 C18 1_555 1_555
C19 C20 1_555 1_555
C21 C22 1_555 1_555
C23 C24 1_555 1_555
C25 C26 1_555 1_555
C27 C28 1_555 1_555

#END
