
#######################################################################
#
#                 Cambridge Crystallographic Data Centre
#                                CCDC 
#
#######################################################################
#
# If this CIF has been generated from an entry in the Cambridge 
# Structural Database, then it will include bibliographic, chemical, 
# crystal, experimental, refinement or atomic coordinate data resulting 
# from the CCDC's data processing and validation procedures.
#
#######################################################################

data_BIGSAL
_chemical_compound_source        'Boesenbergia pandurata Schl'
_chemical_name_common            '(+-)-Boesenbergin A'
_chemical_formula_moiety         'C26 H28 O4'
_chemical_name_systematic        
(+-)-(E)-1-(7'-Hydroxy-5'-methoxy-2'-methyl-2'-(4''-methylpent-3''-enyl)-2'H-chromen-8'-yl)-3-phenylprop-2-enone
_symmetry_cell_setting           monoclinic
_symmetry_space_group_name_H-M   'P 21/c'
_symmetry_Int_Tables_number      14
_space_group_name_Hall           '-P 2ybc'
loop_
_symmetry_equiv_pos_site_id
_symmetry_equiv_pos_as_xyz
1 x,y,z
2 -x,1/2+y,1/2-z
3 -x,-y,-z
4 x,1/2-y,1/2+z
_cell_length_a                   19.88(1)
_cell_length_b                   9.902(5)
_cell_length_c                   11.366(10)
_cell_angle_alpha                90
_cell_angle_beta                 91.90(6)
_cell_angle_gamma                90
_cell_volume                     2236.19
_exptl_crystal_colour            red
_chemical_melting_point          89-91deg.C
_cell_formula_units_Z            4
loop_
_atom_site_label
_atom_site_type_symbol
_atom_site_fract_x
_atom_site_fract_y
_atom_site_fract_z
O1 O 0.19390 0.46850 0.53710
C1 C 0.16780 0.60860 0.54220
C2 C 0.10250 0.60730 0.61040
H1 H 0.06600 0.54800 0.56900
H2 H 0.11400 0.57500 0.70400
H3 H 0.08100 0.70100 0.61500
C3 C 0.22200 0.68550 0.61130
H4 H 0.20200 0.78300 0.62800
H5 H 0.22400 0.64900 0.69300
C4 C 0.29050 0.69210 0.55930
H6 H 0.30500 0.60000 0.53100
H7 H 0.28400 0.74500 0.47100
C5 C 0.34010 0.76820 0.63940
H8 H 0.32800 0.85400 0.67800
C6 C 0.40090 0.73460 0.67290
C7 C 0.44220 0.81910 0.75780
H9 H 0.46400 0.76000 0.81400
H10 H 0.41500 0.91200 0.75800
H11 H 0.47500 0.85700 0.72600
C8 C 0.43630 0.61150 0.62920
H12 H 0.41100 0.56000 0.57700
H13 H 0.45900 0.60500 0.69600
H14 H 0.41400 0.53000 0.67800
C9 C 0.15530 0.65800 0.41790
H15 H 0.16000 0.75600 0.40100
C10 C 0.13120 0.57310 0.33800
H16 H 0.12000 0.59500 0.25600
C11 C 0.12430 0.43010 0.36580
C12 C 0.08770 0.33940 0.29550
O2 O 0.05170 0.39890 0.20480
C13 C 0.00970 0.31550 0.12900
H17 H 0.03600 0.25000 0.08900
H18 H -0.02100 0.25600 0.17500
H19 H -0.01400 0.38200 0.07900
C14 C 0.08910 0.20320 0.31660
H20 H 0.06500 0.14200 0.27000
C15 C 0.12950 0.15440 0.40760
O3 O 0.13120 0.01920 0.42140
H21 H 0.16200 0.00600 0.49200
C16 C 0.16710 0.23950 0.48730
C17 C 0.16010 0.38020 0.46320
C18 C 0.20770 0.17800 0.58280
O4 O 0.20800 0.05120 0.59320
C19 C 0.24780 0.25520 0.66900
H22 H 0.24400 0.35300 0.65600
C20 C 0.28390 0.19890 0.75470
H23 H 0.28400 0.10300 0.76100
C21 C 0.32710 0.26600 0.84310
C22 C 0.33340 0.40350 0.84870
H24 H 0.31200 0.45700 0.79600
C23 C 0.37530 0.46470 0.93210
H25 H 0.37000 0.55900 0.93600
C24 C 0.41130 0.38870 1.01310
H26 H 0.43500 0.43000 1.08300
C25 C 0.40530 0.25310 1.01010
H27 H 0.43100 0.19400 1.06900
C26 C 0.36340 0.19130 0.92530
H28 H 0.35500 0.09500 0.91600
loop_
_geom_bond_atom_site_label_1
_geom_bond_atom_site_label_2
_geom_bond_site_symmetry_1
_geom_bond_site_symmetry_2
O1 C1 1_555 1_555
C1 C2 1_555 1_555
C2 H1 1_555 1_555
H2 C2 1_555 1_555
H3 C2 1_555 1_555
C3 C1 1_555 1_555
H4 C3 1_555 1_555
H5 C3 1_555 1_555
C4 C3 1_555 1_555
H6 C4 1_555 1_555
H7 C4 1_555 1_555
C5 C4 1_555 1_555
H8 C5 1_555 1_555
C6 C5 1_555 1_555
C7 C6 1_555 1_555
H9 C7 1_555 1_555
H10 C7 1_555 1_555
H11 C7 1_555 1_555
C8 C6 1_555 1_555
H12 C8 1_555 1_555
H13 C8 1_555 1_555
H14 C8 1_555 1_555
C9 C1 1_555 1_555
H15 C9 1_555 1_555
C10 C9 1_555 1_555
H16 C10 1_555 1_555
C11 C10 1_555 1_555
C12 C11 1_555 1_555
O2 C12 1_555 1_555
C13 O2 1_555 1_555
H17 C13 1_555 1_555
H18 C13 1_555 1_555
H19 C13 1_555 1_555
C14 C12 1_555 1_555
H20 C14 1_555 1_555
C15 C14 1_555 1_555
O3 C15 1_555 1_555
H21 O3 1_555 1_555
C16 C15 1_555 1_555
C17 O1 1_555 1_555
C18 C16 1_555 1_555
O4 C18 1_555 1_555
C19 C18 1_555 1_555
H22 C19 1_555 1_555
C20 C19 1_555 1_555
H23 C20 1_555 1_555
C21 C20 1_555 1_555
C22 C21 1_555 1_555
H24 C22 1_555 1_555
C23 C22 1_555 1_555
H25 C23 1_555 1_555
C24 C23 1_555 1_555
H26 C24 1_555 1_555
C25 C24 1_555 1_555
H27 C25 1_555 1_555
C26 C21 1_555 1_555
H28 C26 1_555 1_555
C11 C17 1_555 1_555
C16 C17 1_555 1_555
C25 C26 1_555 1_555

#END
