
#######################################################################
#
#                 Cambridge Crystallographic Data Centre
#                                CCDC 
#
#######################################################################
#
# If this CIF has been generated from an entry in the Cambridge 
# Structural Database, then it will include bibliographic, chemical, 
# crystal, experimental, refinement or atomic coordinate data resulting 
# from the CCDC's data processing and validation procedures.
#
#######################################################################

data_BIGWUM
_chemical_formula_moiety         'C30 H24 Br1 N3 O4,C1 H4 O1'
_chemical_name_systematic        
"5-bromo-1,1',1''-trimethyl-4'-(4-oxo-4H-1-benzopyran-3-yl)dispiro[indole-3,2'-pyrrolidine-3',3''-indole]-2,2''(1H,1''H)-dione methanol solvate"
_symmetry_cell_setting           monoclinic
_symmetry_space_group_name_H-M   'P 21/c'
_symmetry_Int_Tables_number      14
_space_group_name_Hall           '-P 2ybc'
loop_
_symmetry_equiv_pos_site_id
_symmetry_equiv_pos_as_xyz
1 x,y,z
2 -x,1/2+y,1/2-z
3 -x,-y,-z
4 x,1/2-y,1/2+z
_cell_length_a                   13.3827(11)
_cell_length_b                   12.8584(10)
_cell_length_c                   15.7379(12)
_cell_angle_alpha                90
_cell_angle_beta                 95.9600(10)
_cell_angle_gamma                90
_cell_volume                     2693.54
_exptl_crystal_colour            colorless
_exptl_crystal_description       block
_cell_formula_units_Z            4
loop_
_atom_site_label
_atom_site_type_symbol
_atom_site_fract_x
_atom_site_fract_y
_atom_site_fract_z
Br1 Br 0.47977(2) 0.13507(2) -0.00204(2)
O1 O 1.05579(8) 0.30669(8) 0.36416(7)
O2 O 0.79932(7) 0.24390(8) 0.19833(6)
O3 O 0.85790(8) 0.58791(8) 0.02104(6)
O4 O 0.99168(9) 0.60357(8) 0.28414(7)
N1 N 0.86715(8) 0.34850(9) 0.03920(7)
C1 C 0.69700(12) 0.68552(12) 0.23785(9)
H1 H 0.7026 0.7591 0.2362
N2 N 0.69924(9) 0.53964(9) -0.03423(7)
C2 C 1.17527(12) 0.44202(13) 0.54834(10)
H2 H 1.2094 0.4259 0.6027
C3 C 1.13989(12) 0.36259(12) 0.49427(10)
H3 H 1.1500 0.2919 0.5104
C4 C 1.08892(10) 0.38886(11) 0.41528(9)
C5 C 1.00340(10) 0.32684(11) 0.28749(9)
H4 H 0.9818 0.2691 0.2527
C6 C 0.97950(10) 0.42269(10) 0.25681(8)
C7 C 0.92550(10) 0.43949(10) 0.16869(8)
H5 H 0.9411 0.5123 0.1520
C8 C 0.80892(9) 0.43004(10) 0.15939(8)
C9 C 0.78657(10) 0.41732(10) 0.05982(8)
C10 C 0.68385(10) 0.37781(10) 0.02456(8)
C11 C 0.63742(10) 0.45226(11) -0.03128(8)
C12 C 0.54437(11) 0.43511(12) -0.07666(9)
H6 H 0.5139 0.4862 -0.1145
C13 C 0.49712(11) 0.34055(12) -0.06490(9)
H7 H 0.4326 0.3269 -0.0939
C14 C 0.95836(10) 0.36841(11) 0.09800(9)
H8 H 1.0103 0.4031 0.0675
H9 H 0.9863 0.3024 0.1226
C15 C 0.75170(10) 0.51696(10) 0.19733(8)
C16 C 0.76160(11) 0.62417(11) 0.19407(9)
H10 H 0.8109 0.6553 0.1630
C17 C 0.62514(12) 0.64028(12) 0.28352(9)
H11 H 0.5812 0.6836 0.3114
C18 C 0.61604(11) 0.53246(13) 0.28947(9)
H12 H 0.5675 0.5013 0.3214
C19 C 0.68115(10) 0.47287(11) 0.24656(8)
N3 N 0.69167(9) 0.36401(9) 0.24752(7)
C20 C 0.63466(12) 0.29447(13) 0.29684(10)
H13 H 0.6562 0.2226 0.2887
H14 H 0.5629 0.3011 0.2776
H15 H 0.6464 0.3127 0.3575
C21 C 0.76929(10) 0.33303(11) 0.20289(8)
C22 C 0.67967(13) 0.62549(11) -0.09399(10)
H16 H 0.7355 0.6751 -0.0866
H17 H 0.6173 0.6605 -0.0829
H18 H 0.6731 0.5987 -0.1526
C23 C 0.78849(10) 0.52608(10) 0.01532(8)
C24 C 0.54422(11) 0.26613(12) -0.01068(9)
C25 C 0.63847(10) 0.28231(11) 0.03442(8)
H19 H 0.6701 0.2300 0.0704
C26 C 0.88318(12) 0.34380(12) -0.05127(9)
H20 H 0.8198 0.3264 -0.0852
H21 H 0.9334 0.2904 -0.0597
H22 H 0.9071 0.4115 -0.0695
C27 C 1.01222(10) 0.51446(10) 0.30773(9)
C28 C 1.07112(10) 0.49150(10) 0.39015(9)
C29 C 1.10969(11) 0.57094(11) 0.44558(9)
H23 H 1.1003 0.6417 0.4294
C30 C 1.16132(12) 0.54598(13) 0.52375(10)
H24 H 1.1875 0.5999 0.5609
O5 O 0.74653(11) 0.03808(10) 0.25458(8)
H25 H 0.7751(19) 0.098(2) 0.2391(16)
C31 C 0.67805(14) 0.01263(15) 0.18350(13)
H26 H 0.6305 0.0701 0.1715
H27 H 0.6412 -0.0505 0.1959
H28 H 0.7147 0.0007 0.1336
loop_
_geom_bond_atom_site_label_1
_geom_bond_atom_site_label_2
_geom_bond_site_symmetry_1
_geom_bond_site_symmetry_2
Br1 C24 1_555 1_555
O1 C4 1_555 1_555
O2 C21 1_555 1_555
O3 C23 1_555 1_555
O4 C27 1_555 1_555
N1 C9 1_555 1_555
C1 H1 1_555 1_555
N2 C11 1_555 1_555
C2 H2 1_555 1_555
C3 C2 1_555 1_555
H3 C3 1_555 1_555
C4 C3 1_555 1_555
C5 O1 1_555 1_555
H4 C5 1_555 1_555
C6 C5 1_555 1_555
C7 C6 1_555 1_555
H5 C7 1_555 1_555
C8 C7 1_555 1_555
C9 C8 1_555 1_555
C10 C9 1_555 1_555
C11 C10 1_555 1_555
C12 C11 1_555 1_555
H6 C12 1_555 1_555
C13 C12 1_555 1_555
H7 C13 1_555 1_555
C14 N1 1_555 1_555
H8 C14 1_555 1_555
H9 C14 1_555 1_555
C15 C8 1_555 1_555
C16 C1 1_555 1_555
H10 C16 1_555 1_555
C17 C1 1_555 1_555
H11 C17 1_555 1_555
C18 C17 1_555 1_555
H12 C18 1_555 1_555
C19 C15 1_555 1_555
N3 C19 1_555 1_555
C20 N3 1_555 1_555
H13 C20 1_555 1_555
H14 C20 1_555 1_555
H15 C20 1_555 1_555
C21 C8 1_555 1_555
C22 N2 1_555 1_555
H16 C22 1_555 1_555
H17 C22 1_555 1_555
H18 C22 1_555 1_555
C23 N2 1_555 1_555
C24 C13 1_555 1_555
C25 C10 1_555 1_555
H19 C25 1_555 1_555
C26 N1 1_555 1_555
H20 C26 1_555 1_555
H21 C26 1_555 1_555
H22 C26 1_555 1_555
C27 C6 1_555 1_555
C28 C4 1_555 1_555
C29 C28 1_555 1_555
H23 C29 1_555 1_555
C30 C2 1_555 1_555
H24 C30 1_555 1_555
O5 H25 1_555 1_555
C31 O5 1_555 1_555
H26 C31 1_555 1_555
H27 C31 1_555 1_555
H28 C31 1_555 1_555
C7 C14 1_555 1_555
C9 C23 1_555 1_555
C15 C16 1_555 1_555
C18 C19 1_555 1_555
N3 C21 1_555 1_555
C24 C25 1_555 1_555
C27 C28 1_555 1_555
C29 C30 1_555 1_555

#END
