
#######################################################################
#
#                 Cambridge Crystallographic Data Centre
#                                CCDC 
#
#######################################################################
#
# If this CIF has been generated from an entry in the Cambridge 
# Structural Database, then it will include bibliographic, chemical, 
# crystal, experimental, refinement or atomic coordinate data resulting 
# from the CCDC's data processing and validation procedures.
#
#######################################################################

data_BIGXUN
_chemical_formula_moiety         'C15 H17 N1 O3'
_chemical_name_systematic        
1,6',6'-trimethyl-4'H-spiro[indole-3,2'-oxane]-2,4'(1H)-dione
_symmetry_cell_setting           monoclinic
_symmetry_space_group_name_H-M   'P 21/n'
_symmetry_Int_Tables_number      14
_space_group_name_Hall           '-P 2yn'
loop_
_symmetry_equiv_pos_site_id
_symmetry_equiv_pos_as_xyz
1 x,y,z
2 1/2-x,1/2+y,1/2-z
3 -x,-y,-z
4 1/2+x,1/2-y,1/2+z
_cell_length_a                   12.5539(14)
_cell_length_b                   7.8351(9)
_cell_length_c                   13.2438(15)
_cell_angle_alpha                90
_cell_angle_beta                 99.978(2)
_cell_angle_gamma                90
_cell_volume                     1282.97
_exptl_crystal_colour            yellow
_exptl_crystal_description       block
_cell_formula_units_Z            4
loop_
_atom_site_label
_atom_site_type_symbol
_atom_site_fract_x
_atom_site_fract_y
_atom_site_fract_z
O1 O 1.00844(5) 0.16074(8) 0.75232(5)
O2 O 0.85457(6) 0.03466(11) 0.98267(6)
O3 O 0.77618(6) 0.08828(9) 0.63809(6)
N1 N 0.88580(6) -0.09801(11) 0.56906(6)
C1 C 1.05050(9) 0.36847(14) 0.88286(8)
H1 H 1.0726 0.2800 0.9345
H2 H 1.0252 0.4691 0.9157
H3 H 1.1123 0.4000 0.8506
C2 C 0.95932(8) 0.30046(12) 0.80148(7)
C3 C 0.95511(7) -0.00095(11) 0.73746(7)
C4 C 1.03247(7) -0.12153(11) 0.69810(7)
C5 C 1.13325(8) -0.17879(12) 0.74457(7)
H4 H 1.1628 -0.1461 0.8127
C6 C 1.19088(8) -0.28650(13) 0.68855(8)
H5 H 1.2603 -0.3275 0.7190
C7 C 1.14684(9) -0.33359(13) 0.58850(8)
H6 H 1.1874 -0.4049 0.5513
C8 C 0.86315(8) 0.24130(12) 0.85086(7)
H7 H 0.8517 0.3253 0.9038
H8 H 0.7972 0.2403 0.7977
C9 C 0.87771(7) 0.06773(12) 0.89927(7)
C10 C 0.92168(8) -0.06826(12) 0.83655(7)
H9 H 0.8659 -0.1577 0.8184
H10 H 0.9853 -0.1222 0.8793
C11 C 0.92195(9) 0.43686(13) 0.72084(8)
H11 H 0.9843 0.4797 0.6931
H12 H 0.8882 0.5312 0.7523
H13 H 0.8693 0.3873 0.6653
C12 C 1.04404(8) -0.27796(13) 0.54170(7)
H14 H 1.0136 -0.3113 0.4739
C13 C 0.98864(7) -0.17218(12) 0.59862(7)
C14 C 0.81827(8) -0.12211(14) 0.46931(7)
H15 H 0.7889 -0.2383 0.4645
H16 H 0.8617 -0.1047 0.4154
H17 H 0.7587 -0.0397 0.4607
C15 C 0.85967(7) 0.00560(12) 0.64440(7)
loop_
_geom_bond_atom_site_label_1
_geom_bond_atom_site_label_2
_geom_bond_site_symmetry_1
_geom_bond_site_symmetry_2
O1 C2 1_555 1_555
O2 C9 1_555 1_555
O3 C15 1_555 1_555
N1 C13 1_555 1_555
C1 H1 1_555 1_555
H2 C1 1_555 1_555
H3 C1 1_555 1_555
C2 C1 1_555 1_555
C3 O1 1_555 1_555
C4 C3 1_555 1_555
C5 C4 1_555 1_555
H4 C5 1_555 1_555
C6 C5 1_555 1_555
H5 C6 1_555 1_555
C7 C6 1_555 1_555
H6 C7 1_555 1_555
C8 C2 1_555 1_555
H7 C8 1_555 1_555
H8 C8 1_555 1_555
C9 C8 1_555 1_555
C10 C3 1_555 1_555
H9 C10 1_555 1_555
H10 C10 1_555 1_555
C11 C2 1_555 1_555
H11 C11 1_555 1_555
H12 C11 1_555 1_555
H13 C11 1_555 1_555
C12 C7 1_555 1_555
H14 C12 1_555 1_555
C13 C4 1_555 1_555
C14 N1 1_555 1_555
H15 C14 1_555 1_555
H16 C14 1_555 1_555
H17 C14 1_555 1_555
C15 N1 1_555 1_555
C3 C15 1_555 1_555
C9 C10 1_555 1_555
C12 C13 1_555 1_555

#END
