
#######################################################################
#
#                 Cambridge Crystallographic Data Centre
#                                CCDC 
#
#######################################################################
#
# If this CIF has been generated from an entry in the Cambridge 
# Structural Database, then it will include bibliographic, chemical, 
# crystal, experimental, refinement or atomic coordinate data resulting 
# from the CCDC's data processing and validation procedures.
#
#######################################################################

data_BIGZUN
_chemical_formula_moiety         'C18 H16 O6'
_chemical_name_systematic        
'2,8-Dimethoxy-6-methyl-9-oxo-9H-xanthene-1-carboxylic acid methyl ester'
_symmetry_cell_setting           tetragonal
_symmetry_space_group_name_H-M   'I 41/a'
_symmetry_Int_Tables_number      88
_space_group_name_Hall           '-I 4ad'
loop_
_symmetry_equiv_pos_site_id
_symmetry_equiv_pos_as_xyz
1 x,y,z
2 3/4-y,1/4+x,1/4+z
3 1/2+x,y,1/2-z
4 1/4-y,1/4+x,1/4-z
5 1/2+x,1/2+y,1/2+z
6 1/4-y,3/4+x,3/4+z
7 1/4+y,1/4-x,1/4+z
8 x,1/2+y,-z
9 -x,-y,-z
10 1/4+y,3/4-x,3/4-z
11 1/2-x,-y,1/2+z
12 3/4+y,3/4-x,3/4+z
13 1/2-x,1/2-y,1/2-z
14 3/4+y,1/4-x,1/4-z
15 3/4-y,3/4+x,3/4-z
16 -x,1/2-y,z
_cell_length_a                   14.6597(19)
_cell_length_b                   14.6597(19)
_cell_length_c                   29.248(8)
_cell_angle_alpha                90
_cell_angle_beta                 90
_cell_angle_gamma                90
_cell_volume                     6285.59
_exptl_crystal_colour            yellow
_exptl_crystal_description       needles
_chemical_melting_point          219-221deg.C
_cell_formula_units_Z            16
loop_
_atom_site_label
_atom_site_type_symbol
_atom_site_fract_x
_atom_site_fract_y
_atom_site_fract_z
O1 O 0.8281(2) 0.3119(2) 1.09110(9)
O2 O 0.8448(2) 0.4631(2) 1.08697(9)
O3 O 0.9655(2) 0.3744(2) 1.01101(9)
O4 O 0.62338(19) 0.3765(2) 0.93487(9)
O5 O 0.47025(19) 0.3732(2) 1.07898(9)
O6 O 0.65033(19) 0.3895(2) 1.07362(9)
C1 C 0.8082(3) 0.3795(2) 1.01930(12)
C2 C 0.8276(3) 0.3910(3) 1.06927(14)
C3 C 0.8405(4) 0.3194(4) 1.14029(14)
C4 C 0.8820(3) 0.3747(3) 0.99042(13)
C5 C 1.0456(3) 0.3760(3) 0.98441(17)
C6 C 0.8689(3) 0.3707(3) 0.94318(14)
C7 C 0.7824(3) 0.3722(3) 0.92538(12)
C8 C 0.7078(3) 0.3769(3) 0.95459(12)
C9 C 0.5461(3) 0.3754(3) 0.96185(13)
C10 C 0.4656(3) 0.3713(3) 0.93768(13)
C11 C 0.3846(3) 0.3685(3) 0.96113(15)
C12 C 0.2954(3) 0.3639(3) 0.93600(16)
C13 C 0.3855(3) 0.3689(3) 1.00862(14)
C14 C 0.4658(3) 0.3738(3) 1.03271(13)
C15 C 0.5508(3) 0.3777(2) 1.00967(12)
C16 C 0.3871(3) 0.3621(4) 1.10388(16)
C17 C 0.6390(3) 0.3835(3) 1.03256(13)
C18 C 0.7192(3) 0.3797(2) 1.00184(11)
H1 H 0.79110 0.29000 1.15540
H2 H 0.84260 0.38150 1.14880
H3 H 0.89610 0.29020 1.14870
H4 H 1.09730 0.37620 1.00390
H5 H 1.04580 0.42960 0.96600
H6 H 1.04710 0.32380 0.96530
H7 H 0.92020 0.36720 0.92330
H8 H 0.77360 0.37000 0.89330
H9 H 0.46600 0.37060 0.90530
H10 H 0.29400 0.31030 0.91770
H11 H 0.28940 0.41600 0.91690
H12 H 0.24680 0.36240 0.95740
H13 H 0.32930 0.36550 1.02470
H14 H 0.36100 0.30490 1.09660
H15 H 0.34610 0.40960 1.09580
H16 H 0.39960 0.36500 1.13570
loop_
_geom_bond_atom_site_label_1
_geom_bond_atom_site_label_2
_geom_bond_site_symmetry_1
_geom_bond_site_symmetry_2
O1 C2 1_555 1_555
O2 C2 1_555 1_555
O3 C4 1_555 1_555
O4 C8 1_555 1_555
O5 C14 1_555 1_555
O6 C17 1_555 1_555
C1 C2 1_555 1_555
C3 O1 1_555 1_555
C4 C1 1_555 1_555
C5 O3 1_555 1_555
C6 C4 1_555 1_555
C7 C6 1_555 1_555
C8 C7 1_555 1_555
C9 O4 1_555 1_555
C10 C9 1_555 1_555
C11 C10 1_555 1_555
C12 C11 1_555 1_555
C13 C11 1_555 1_555
C14 C13 1_555 1_555
C15 C9 1_555 1_555
C16 O5 1_555 1_555
C17 C15 1_555 1_555
C18 C1 1_555 1_555
H1 C3 1_555 1_555
H2 C3 1_555 1_555
H3 C3 1_555 1_555
H4 C5 1_555 1_555
H5 C5 1_555 1_555
H6 C5 1_555 1_555
H7 C6 1_555 1_555
H8 C7 1_555 1_555
H9 C10 1_555 1_555
H10 C12 1_555 1_555
H11 C12 1_555 1_555
H12 C12 1_555 1_555
H13 C13 1_555 1_555
H14 C16 1_555 1_555
H15 C16 1_555 1_555
H16 C16 1_555 1_555
C8 C18 1_555 1_555
C14 C15 1_555 1_555
C17 C18 1_555 1_555

#END
