
#######################################################################
#
#                 Cambridge Crystallographic Data Centre
#                                CCDC 
#
#######################################################################
#
# If this CIF has been generated from an entry in the Cambridge 
# Structural Database, then it will include bibliographic, chemical, 
# crystal, experimental, refinement or atomic coordinate data resulting 
# from the CCDC's data processing and validation procedures.
#
#######################################################################

data_BIHBIF
_chemical_formula_moiety         'C29 H34 Cl2 F1 N3 O3'
_chemical_name_systematic        
6-Chloro-4'-(3-chlorophenyl)-2'-(2,2-dimethylpropyl)-5-fluoro-N-(4-hydroxycyclohexyl)-2-oxo-1,2-dihydrospiro[indole-3,3'-pyrrolidine]-5'-carboxamide
_symmetry_cell_setting           orthorhombic
_symmetry_space_group_name_H-M   'P 21 21 21'
_symmetry_Int_Tables_number      19
_space_group_name_Hall           'P 2ac 2ab'
loop_
_symmetry_equiv_pos_site_id
_symmetry_equiv_pos_as_xyz
1 x,y,z
2 1/2+x,1/2-y,-z
3 -x,1/2+y,1/2-z
4 1/2-x,-y,1/2+z
_cell_length_a                   12.652(3)
_cell_length_b                   15.319(3)
_cell_length_c                   15.737(3)
_cell_angle_alpha                90
_cell_angle_beta                 90
_cell_angle_gamma                90
_cell_volume                     3050.08
_exptl_crystal_colour            colorless
_exptl_crystal_description       needle
_cell_formula_units_Z            4
loop_
_atom_site_label
_atom_site_type_symbol
_atom_site_fract_x
_atom_site_fract_y
_atom_site_fract_z
N1 N 0.7818(4) 0.5893(3) 0.5629(3)
H1 H 0.7474 0.5455 0.5863
C1 C 0.8080(6) 0.5984(4) 0.4747(5)
H2 H 0.8839 0.5813 0.4686
C2 C 0.8014(5) 0.6980(4) 0.4563(4)
C3 C 0.8483(5) 0.7377(4) 0.5380(4)
H3 H 0.9266 0.7349 0.5298
C4 C 0.8235(5) 0.6674(4) 0.6072(4)
H4 H 0.7679 0.6905 0.6463
C5 C 0.9246(6) 0.6437(4) 0.6605(4)
O1 O 0.9689(4) 0.7024(3) 0.7002(3)
N2 N 0.9509(4) 0.5623(3) 0.6577(3)
H5 H 0.9151 0.5281 0.6232
C6 C 1.0365(6) 0.5226(5) 0.7080(5)
H6 H 1.0580 0.5647 0.7533
C7 C 1.1310(6) 0.5031(4) 0.6539(5)
H7 H 1.1500 0.5564 0.6218
H8 H 1.1913 0.4888 0.6916
C8 C 1.1164(7) 0.4303(4) 0.5927(5)
H9 H 1.1850 0.4171 0.5653
H10 H 1.0664 0.4488 0.5478
O2 O 1.1543(4) 0.3144(3) 0.6901(3)
H11 H 1.1274 0.2748 0.7199
C9 C 1.0754(7) 0.3499(5) 0.6344(4)
H12 H 1.0581 0.3058 0.5897
C10 C 0.9759(7) 0.3697(5) 0.6857(5)
H13 H 0.9190 0.3897 0.6471
H14 H 0.9513 0.3160 0.7146
C11 C 0.99837(10) 0.43896(5) 0.75031(11)
H15 H 1.0531 0.4178 0.7903
H16 H 0.9334 0.4512 0.7833
C12 C 0.82474(10) 0.83463(5) 0.55612(11)
C13 C 0.88713(10) 0.89751(5) 0.51689(11)
H17 H 0.9432 0.8803 0.4804
C14 C 0.86752(10) 0.98559(5) 0.53109(11)
C15 C 0.78552(10) 1.01079(5) 0.58452(11)
H18 H 0.7721 1.0710 0.5942
C16 C 0.72314(10) 0.94790(5) 0.62375(11)
H19 H 0.6671 0.9651 0.6603
C17 C 0.74275(10) 0.85982(5) 0.60955(11)
H20 H 0.7001 0.8168 0.6364
Cl1 Cl 0.94647(10) 1.06061(5) 0.48611(11)
O3 O 0.6160(4) 0.7175(3) 0.5042(3)
C18 C 0.6826(6) 0.7253(4) 0.4470(4)
N3 N 0.6700(4) 0.7503(3) 0.3659(3)
H21 H 0.6088 0.7652 0.3437
C19 C 0.7673(6) 0.7501(4) 0.3195(4)
C20 C 0.7781(6) 0.7718(4) 0.2338(4)
H22 H 0.7203 0.7911 0.2001
C21 C 0.8816(7) 0.7628(5) 0.2008(5)
Cl2 Cl 0.89966(19) 0.78317(17) 0.09573(14)
C22 C 0.9585(7) 0.7395(5) 0.2560(5)
F1 F 1.0600(4) 0.7354(3) 0.2230(3)
C23 C 0.9514(6) 0.7215(5) 0.3395(5)
H23 H 1.0116 0.7087 0.3734
C24 C 0.8457(6) 0.7231(4) 0.3740(4)
C25 C 0.7441(7) 0.5390(4) 0.4145(5)
H24 H 0.6736 0.5295 0.4403
H25 H 0.7330 0.5710 0.3607
C26 C 0.7898(8) 0.4509(5) 0.3931(6)
C27 C 0.8983(9) 0.4636(7) 0.3415(6)
H26 H 0.9518 0.4891 0.3791
H27 H 0.8863 0.5026 0.2931
H28 H 0.9231 0.4068 0.3209
C28 C 0.8148(9) 0.3989(5) 0.4716(6)
H29 H 0.8705 0.4284 0.5039
H30 H 0.8389 0.3405 0.4552
H31 H 0.7512 0.3939 0.5068
C29 C 0.7188(8) 0.3990(5) 0.3364(6)
H32 H 0.7475 0.3401 0.3295
H33 H 0.7141 0.4275 0.2808
H34 H 0.6482 0.3956 0.3618
C30? C 0.84285(10) 0.81637(5) 0.56635(11)
C31? C 0.75879(10) 0.85200(5) 0.61216(11)
H35? H 0.7091 0.8147 0.6392
C32? C 0.74774(10) 0.94201(6) 0.61829(14)
C33? C 0.81280(11) 0.99645(8) 0.57071(15)
H36? H 0.8021 1.0578 0.5716
C34? C 0.89354(17) 0.96081(7) 0.5218(2)
H37? H 0.9355 0.9975 0.4867
C35? C 0.91280(18) 0.87151(8) 0.5244(3)
H38? H 0.9738 0.8482 0.4975
Cl3? Cl 0.64669(19) 0.98338(17) 0.6746(2)
loop_
_geom_bond_atom_site_label_1
_geom_bond_atom_site_label_2
_geom_bond_site_symmetry_1
_geom_bond_site_symmetry_2
N1 H1 1_555 1_555
C1 N1 1_555 1_555
H2 C1 1_555 1_555
C2 C1 1_555 1_555
C3 C2 1_555 1_555
H3 C3 1_555 1_555
C4 N1 1_555 1_555
H4 C4 1_555 1_555
C5 C4 1_555 1_555
O1 C5 1_555 1_555
N2 C5 1_555 1_555
H5 N2 1_555 1_555
C6 N2 1_555 1_555
H6 C6 1_555 1_555
C7 C6 1_555 1_555
H7 C7 1_555 1_555
H8 C7 1_555 1_555
C8 C7 1_555 1_555
H9 C8 1_555 1_555
H10 C8 1_555 1_555
O2 H11 1_555 1_555
C9 C8 1_555 1_555
H12 C9 1_555 1_555
C10 C9 1_555 1_555
H13 C10 1_555 1_555
H14 C10 1_555 1_555
C11 C6 1_555 1_555
H15 C11 1_555 1_555
H16 C11 1_555 1_555
C12 C3 1_555 1_555
C13 C12 1_555 1_555
H17 C13 1_555 1_555
C14 C13 1_555 1_555
C15 C14 1_555 1_555
H18 C15 1_555 1_555
C16 C15 1_555 1_555
H19 C16 1_555 1_555
C17 C12 1_555 1_555
H20 C17 1_555 1_555
Cl1 C14 1_555 1_555
O3 C18 1_555 1_555
C18 C2 1_555 1_555
N3 C18 1_555 1_555
H21 N3 1_555 1_555
C19 N3 1_555 1_555
C20 C19 1_555 1_555
H22 C20 1_555 1_555
C21 C20 1_555 1_555
Cl2 C21 1_555 1_555
C22 C21 1_555 1_555
F1 C22 1_555 1_555
C23 C22 1_555 1_555
H23 C23 1_555 1_555
C24 C2 1_555 1_555
C25 C1 1_555 1_555
H24 C25 1_555 1_555
H25 C25 1_555 1_555
C26 C25 1_555 1_555
C27 C26 1_555 1_555
H26 C27 1_555 1_555
H27 C27 1_555 1_555
H28 C27 1_555 1_555
C28 C26 1_555 1_555
H29 C28 1_555 1_555
H30 C28 1_555 1_555
H31 C28 1_555 1_555
C29 C26 1_555 1_555
H32 C29 1_555 1_555
H33 C29 1_555 1_555
H34 C29 1_555 1_555
C3 C4 1_555 1_555
O2 C9 1_555 1_555
C10 C11 1_555 1_555
C16 C17 1_555 1_555
C19 C24 1_555 1_555
C23 C24 1_555 1_555

#END
