
#######################################################################
#
#                 Cambridge Crystallographic Data Centre
#                                CCDC 
#
#######################################################################
#
# If this CIF has been generated from an entry in the Cambridge 
# Structural Database, then it will include bibliographic, chemical, 
# crystal, experimental, refinement or atomic coordinate data resulting 
# from the CCDC's data processing and validation procedures.
#
#######################################################################

data_BIHBAW
_chemical_formula_moiety         'C16 H16 O2 S1'
_chemical_name_systematic        
(3S)-Tetrahydro-3-((R)-hydroxy(2-naphthyl)methyl)-4H-thiopyran-4-one
_symmetry_cell_setting           monoclinic
_symmetry_space_group_name_H-M   'P 21'
_symmetry_Int_Tables_number      4
_space_group_name_Hall           'P 2yb'
loop_
_symmetry_equiv_pos_site_id
_symmetry_equiv_pos_as_xyz
1 x,y,z
2 -x,1/2+y,-z
_cell_length_a                   8.4680(3)
_cell_length_b                   5.8470(2)
_cell_length_c                   13.8990(5)
_cell_angle_alpha                90
_cell_angle_beta                 103.9740(16)
_cell_angle_gamma                90
_cell_volume                     667.807
_exptl_crystal_colour            colorless
_exptl_crystal_description       block
_chemical_melting_point          165-166deg.C
_cell_formula_units_Z            2
loop_
_atom_site_label
_atom_site_type_symbol
_atom_site_fract_x
_atom_site_fract_y
_atom_site_fract_z
S1 S 0.59365(8) 0.66161(13) 0.74702(4)
O1 O 0.7040(2) 0.1449(4) 0.97962(13)
O2 O 1.0250(2) 0.3513(3) 0.95918(11)
H1 H 1.0953 0.4497 0.9839
C1 C 0.6645(3) 0.3713(5) 0.74096(18)
H2 H 0.5691 0.2679 0.7247
H3 H 0.7210 0.3604 0.6865
C2 C 0.7802(3) 0.2892(4) 0.83734(17)
H4 H 0.8035 0.1238 0.8286
C3 C 0.7035(3) 0.3071(4) 0.92440(19)
C4 C 0.6279(3) 0.5317(5) 0.94201(18)
H5 H 0.7151 0.6468 0.9629
H6 H 0.5732 0.5128 0.9969
C5 C 0.5043(3) 0.6211(5) 0.85087(17)
H7 H 0.4597 0.7685 0.8674
H8 H 0.4131 0.5113 0.8323
C6 C 0.9446(3) 0.4173(4) 0.86063(16)
H9 H 0.9247 0.5861 0.8583
C7 C 1.0413(3) 0.3533(4) 0.78623(17)
C8 C 1.0476(3) 0.4963(4) 0.70845(16)
H10 H 0.9936 0.6398 0.7032
C9 C 1.1324(3) 0.4349(4) 0.63643(16)
C10 C 1.1375(3) 0.5777(4) 0.55535(17)
H11 H 1.0818 0.7200 0.5480
C11 C 1.2217(3) 0.5132(5) 0.48733(19)
H12 H 1.2239 0.6110 0.4322
C12 C 1.3051(3) 0.3040(5) 0.49681(19)
H13 H 1.3644 0.2619 0.4496
C13 C 1.3011(3) 0.1614(5) 0.57334(17)
H14 H 1.3574 0.0197 0.5790
C14 C 1.2141(3) 0.2210(4) 0.64488(16)
C15 C 1.2058(3) 0.0768(4) 0.72590(17)
H15 H 1.2595 -0.0670 0.7328
C16 C 1.1223(3) 0.1410(4) 0.79385(16)
H16 H 1.1186 0.0412 0.8472
loop_
_geom_bond_atom_site_label_1
_geom_bond_atom_site_label_2
_geom_bond_site_symmetry_1
_geom_bond_site_symmetry_2
S1 C1 1_555 1_555
O1 C3 1_555 1_555
O2 H1 1_555 1_555
C1 H2 1_555 1_555
H3 C1 1_555 1_555
C2 C1 1_555 1_555
H4 C2 1_555 1_555
C3 C2 1_555 1_555
C4 C3 1_555 1_555
H5 C4 1_555 1_555
H6 C4 1_555 1_555
C5 S1 1_555 1_555
H7 C5 1_555 1_555
H8 C5 1_555 1_555
C6 O2 1_555 1_555
H9 C6 1_555 1_555
C7 C6 1_555 1_555
C8 C7 1_555 1_555
H10 C8 1_555 1_555
C9 C8 1_555 1_555
C10 C9 1_555 1_555
H11 C10 1_555 1_555
C11 C10 1_555 1_555
H12 C11 1_555 1_555
C12 C11 1_555 1_555
H13 C12 1_555 1_555
C13 C12 1_555 1_555
H14 C13 1_555 1_555
C14 C9 1_555 1_555
C15 C14 1_555 1_555
H15 C15 1_555 1_555
C16 C7 1_555 1_555
H16 C16 1_555 1_555
C2 C6 1_555 1_555
C4 C5 1_555 1_555
C13 C14 1_555 1_555
C15 C16 1_555 1_555

#END
