
#######################################################################
#
#                 Cambridge Crystallographic Data Centre
#                                CCDC 
#
#######################################################################
#
# If this CIF has been generated from an entry in the Cambridge 
# Structural Database, then it will include bibliographic, chemical, 
# crystal, experimental, refinement or atomic coordinate data resulting 
# from the CCDC's data processing and validation procedures.
#
#######################################################################

data_BIHCUT
_chemical_formula_moiety         'C38 H38 Br1 N1 O4'
_chemical_name_systematic        
(3'R,5R)-1'-benzyl-7-bromo-5-(3,5-di-tert-butyl-4-hydroxyphenyl)-2H-spiro[benzo[b]oxepine-4,3'-indoline]-2,2'(3H,5H)-dione
_symmetry_cell_setting           orthorhombic
_symmetry_space_group_name_H-M   'P 21 21 21'
_symmetry_Int_Tables_number      19
_space_group_name_Hall           'P 2ac 2ab'
loop_
_symmetry_equiv_pos_site_id
_symmetry_equiv_pos_as_xyz
1 x,y,z
2 1/2+x,1/2-y,-z
3 -x,1/2+y,1/2-z
4 1/2-x,-y,1/2+z
_cell_length_a                   12.782(11)
_cell_length_b                   15.422(15)
_cell_length_c                   16.824(18)
_cell_angle_alpha                90
_cell_angle_beta                 90
_cell_angle_gamma                90
_cell_volume                     3316.41
_exptl_crystal_colour            colorless
_exptl_crystal_description       block
_cell_formula_units_Z            4
loop_
_atom_site_label
_atom_site_type_symbol
_atom_site_fract_x
_atom_site_fract_y
_atom_site_fract_z
Br1 Br -0.10875(2) 0.52658(2) 0.76613(2)
O1 O 0.38824(15) 0.46745(13) 0.45285(10)
H1 H 0.350(3) 0.464(2) 0.426(2)
O2 O 0.27915(14) 0.56160(11) 0.84448(11)
O3 O 0.17257(14) 0.83824(10) 0.78195(11)
O4 O 0.32381(16) 0.90292(11) 0.79757(12)
C1 C 0.3170(2) 0.66236(16) 0.56404(15)
H2 H 0.3160 0.7235 0.5574
N1 N 0.44498(16) 0.56659(13) 0.79325(13)
C2 C 0.3694(2) 0.62985(18) 0.35219(16)
H3 H 0.2941 0.6419 0.3528
H4 H 0.3809 0.5681 0.3417
H5 H 0.4029 0.6644 0.3104
C3 C 0.4169(2) 0.65372(16) 0.43325(15)
C4 C 0.35785(19) 0.61175(16) 0.50286(15)
C5 C 0.2778(2) 0.62806(16) 0.63387(15)
C6 C 0.2527(2) 0.69084(15) 0.70103(15)
H6 H 0.2589 0.7498 0.6768
C7 C 0.33991(18) 0.68778(14) 0.76691(16)
C8 C 0.3480(2) 0.59787(15) 0.80627(15)
C9 C 0.4793(2) 0.48139(16) 0.82138(15)
H7 H 0.5248 0.4546 0.7806
H8 H 0.4173 0.4436 0.8282
C10 C 0.5385(2) 0.48596(16) 0.89940(16)
C11 C 0.4845(2) 0.49492(17) 0.97068(17)
H9 H 0.4102 0.4965 0.9706
C12 C 0.5386(3) 0.50155(19) 1.04175(18)
H10 H 0.5009 0.5078 1.0901
C13 C 0.6464(3) 0.4991(2) 1.04312(19)
H11 H 0.6831 0.5045 1.0920
C14 C 0.34974(18) 0.52124(17) 0.51232(14)
C15 C 0.31177(19) 0.48299(16) 0.58263(14)
C16 C 0.27667(19) 0.53801(16) 0.64286(15)
H12 H 0.2514 0.5137 0.6911
C17 C 0.5321(2) 0.62407(19) 0.43702(17)
H13 H 0.5713 0.6508 0.3934
H14 H 0.5355 0.5608 0.4322
H15 H 0.5626 0.6418 0.4879
C18 C 0.4170(2) 0.75290(17) 0.43921(16)
H16 H 0.4546 0.7774 0.3937
H17 H 0.4517 0.7706 0.4886
H18 H 0.3447 0.7742 0.4392
C19 C 0.5059(2) 0.62419(15) 0.74720(14)
C20 C 0.6060(2) 0.61242(15) 0.71862(16)
H19 H 0.6455 0.5621 0.7312
C21 C 0.6466(2) 0.67783(17) 0.67043(18)
H20 H 0.7155 0.6721 0.6499
C22 C 0.5887(2) 0.75096(17) 0.65173(16)
H21 H 0.6179 0.7943 0.6182
C23 C 0.4880(2) 0.76134(16) 0.68181(15)
H22 H 0.4480 0.8114 0.6690
C24 C 0.44700(18) 0.69771(14) 0.73058(16)
C25 C 0.7006(2) 0.4887(2) 0.97236(19)
H23 H 0.7749 0.4858 0.9729
C26 C 0.6468(2) 0.4824(2) 0.90061(17)
H24 H 0.6845 0.4757 0.8523
C27 C 0.3166(2) 0.75279(16) 0.83504(15)
H25 H 0.2648 0.7269 0.8718
H26 H 0.3816 0.7637 0.8654
C28 C 0.2750(2) 0.83726(15) 0.80429(15)
C29 C 0.1129(2) 0.76153(15) 0.78205(15)
C30 C 0.14551(18) 0.68936(15) 0.73894(16)
C31 C 0.07651(19) 0.61981(15) 0.73558(16)
H27 H 0.0949 0.5695 0.7061
C32 C -0.0181(2) 0.62311(16) 0.77446(16)
C33 C -0.0480(2) 0.69464(17) 0.81941(17)
H28 H -0.1127 0.6951 0.8473
C34 C 0.0183(2) 0.76450(17) 0.82242(17)
H29 H -0.0005 0.8146 0.8520
C35 C 0.3132(2) 0.38420(16) 0.59538(16)
C36 C 0.4265(2) 0.35037(18) 0.58998(19)
H30 H 0.4700 0.3805 0.6292
H31 H 0.4540 0.3612 0.5365
H32 H 0.4275 0.2879 0.6008
C37 C 0.2711(2) 0.35880(17) 0.67719(16)
H33 H 0.1986 0.3787 0.6824
H34 H 0.3141 0.3858 0.7186
H35 H 0.2737 0.2956 0.6830
C38 C 0.2443(3) 0.33829(17) 0.53353(17)
H36 H 0.2472 0.2755 0.5422
H37 H 0.2698 0.3518 0.4800
H38 H 0.1718 0.3583 0.5390
loop_
_geom_bond_atom_site_label_1
_geom_bond_atom_site_label_2
_geom_bond_site_symmetry_1
_geom_bond_site_symmetry_2
Br1 C32 1_555 1_555
O1 H1 1_555 1_555
O2 C8 1_555 1_555
O3 C28 1_555 1_555
O4 C28 1_555 1_555
C1 H2 1_555 1_555
N1 C8 1_555 1_555
C2 H3 1_555 1_555
H4 C2 1_555 1_555
H5 C2 1_555 1_555
C3 C2 1_555 1_555
C4 C1 1_555 1_555
C5 C1 1_555 1_555
C6 C5 1_555 1_555
H6 C6 1_555 1_555
C7 C6 1_555 1_555
C8 C7 1_555 1_555
C9 N1 1_555 1_555
H7 C9 1_555 1_555
H8 C9 1_555 1_555
C10 C9 1_555 1_555
C11 C10 1_555 1_555
H9 C11 1_555 1_555
C12 C11 1_555 1_555
H10 C12 1_555 1_555
C13 C12 1_555 1_555
H11 C13 1_555 1_555
C14 O1 1_555 1_555
C15 C14 1_555 1_555
C16 C5 1_555 1_555
H12 C16 1_555 1_555
C17 C3 1_555 1_555
H13 C17 1_555 1_555
H14 C17 1_555 1_555
H15 C17 1_555 1_555
C18 C3 1_555 1_555
H16 C18 1_555 1_555
H17 C18 1_555 1_555
H18 C18 1_555 1_555
C19 N1 1_555 1_555
C20 C19 1_555 1_555
H19 C20 1_555 1_555
C21 C20 1_555 1_555
H20 C21 1_555 1_555
C22 C21 1_555 1_555
H21 C22 1_555 1_555
C23 C22 1_555 1_555
H22 C23 1_555 1_555
C24 C7 1_555 1_555
C25 C13 1_555 1_555
H23 C25 1_555 1_555
C26 C10 1_555 1_555
H24 C26 1_555 1_555
C27 C7 1_555 1_555
H25 C27 1_555 1_555
H26 C27 1_555 1_555
C28 C27 1_555 1_555
C29 O3 1_555 1_555
C30 C6 1_555 1_555
C31 C30 1_555 1_555
H27 C31 1_555 1_555
C32 C31 1_555 1_555
C33 C32 1_555 1_555
H28 C33 1_555 1_555
C34 C29 1_555 1_555
H29 C34 1_555 1_555
C35 C15 1_555 1_555
C36 C35 1_555 1_555
H30 C36 1_555 1_555
H31 C36 1_555 1_555
H32 C36 1_555 1_555
C37 C35 1_555 1_555
H33 C37 1_555 1_555
H34 C37 1_555 1_555
H35 C37 1_555 1_555
C38 C35 1_555 1_555
H36 C38 1_555 1_555
H37 C38 1_555 1_555
H38 C38 1_555 1_555
C3 C4 1_555 1_555
C4 C14 1_555 1_555
C15 C16 1_555 1_555
C19 C24 1_555 1_555
C23 C24 1_555 1_555
C25 C26 1_555 1_555
C29 C30 1_555 1_555
C33 C34 1_555 1_555

#END
