
#######################################################################
#
#                 Cambridge Crystallographic Data Centre
#                                CCDC 
#
#######################################################################
#
# If this CIF has been generated from an entry in the Cambridge 
# Structural Database, then it will include bibliographic, chemical, 
# crystal, experimental, refinement or atomic coordinate data resulting 
# from the CCDC's data processing and validation procedures.
#
#######################################################################

data_BIHDUT
_chemical_formula_moiety         'C18 H15 N3 O1'
_chemical_name_systematic        
14a-Methyl-1,14a-dihydrobenzimidazo[1,2-c]pyrrolo[1,2-a]quinazolin-3(2H)-one
_symmetry_cell_setting           orthorhombic
_symmetry_space_group_name_H-M   'P 21 21 21'
_symmetry_Int_Tables_number      19
_space_group_name_Hall           'P 2ac 2ab'
loop_
_symmetry_equiv_pos_site_id
_symmetry_equiv_pos_as_xyz
1 x,y,z
2 1/2+x,1/2-y,-z
3 -x,1/2+y,1/2-z
4 1/2-x,-y,1/2+z
_cell_length_a                   6.55950(10)
_cell_length_b                   13.8801(3)
_cell_length_c                   15.4276(3)
_cell_angle_alpha                90
_cell_angle_beta                 90
_cell_angle_gamma                90
_cell_volume                     1404.63
_exptl_crystal_colour            colorless
_exptl_crystal_description       block
_cell_formula_units_Z            4
loop_
_atom_site_label
_atom_site_type_symbol
_atom_site_fract_x
_atom_site_fract_y
_atom_site_fract_z
O1 O 0.66239(18) 0.77294(6) 0.77350(7)
N1 N 0.82926(18) 0.49557(7) 0.90944(7)
N2 N 0.78155(18) 0.47448(7) 1.05251(7)
N3 N 0.66645(18) 0.62049(7) 0.83212(7)
C1 C 0.1979(2) 0.69576(9) 0.95000(9)
H1 H 0.0871 0.7369 0.9434
C2 C 0.3446(2) 0.69090(9) 0.88537(9)
H2 H 0.3320 0.7285 0.8357
C3 C 0.5110(2) 0.62940(9) 0.89519(8)
C4 C 0.5309(2) 0.57438(9) 0.97122(8)
C5 C 0.7123(2) 0.51436(8) 0.98090(8)
C6 C 0.9841(2) 0.43483(9) 0.93627(8)
C7 C 1.1420(2) 0.38845(9) 0.89223(9)
H3 H 1.1582 0.3946 0.8326
C8 C 1.2731(2) 0.33298(9) 0.94160(9)
H4 H 1.3798 0.3008 0.9145
C9 C 1.2491(2) 0.32408(9) 1.03138(10)
H5 H 1.3418 0.2872 1.0627
C10 C 0.9547(2) 0.42425(9) 1.02595(9)
C11 C 1.0908(2) 0.36901(9) 1.07450(9)
H6 H 1.0754 0.3626 1.1341
C12 C 0.7342(2) 0.69251(9) 0.77774(9)
C13 C 0.9074(2) 0.65228(10) 0.72465(9)
H7 H 1.0217 0.6966 0.7240
H8 H 0.8642 0.6406 0.6654
C14 C 0.9665(2) 0.55796(10) 0.76896(9)
H9 H 1.0829 0.5673 0.8068
H10 H 0.9999 0.5090 0.7264
C15 C 0.7771(2) 0.52862(9) 0.82149(8)
C16 C 0.6457(2) 0.45323(9) 0.77625(9)
H11 H 0.5181 0.4470 0.8063
H12 H 0.7152 0.3924 0.7765
H13 H 0.6209 0.4728 0.7175
C17 C 0.2144(2) 0.64000(9) 1.02431(9)
H14 H 0.1144 0.6431 1.0669
C18 C 0.3813(2) 0.57952(9) 1.03460(9)
H15 H 0.3928 0.5422 1.0844
loop_
_geom_bond_atom_site_label_1
_geom_bond_atom_site_label_2
_geom_bond_site_symmetry_1
_geom_bond_site_symmetry_2
O1 C12 1_555 1_555
N1 C5 1_555 1_555
N2 C5 1_555 1_555
N3 C3 1_555 1_555
C1 H1 1_555 1_555
C2 C1 1_555 1_555
H2 C2 1_555 1_555
C3 C2 1_555 1_555
C4 C3 1_555 1_555
C5 C4 1_555 1_555
C6 N1 1_555 1_555
C7 C6 1_555 1_555
H3 C7 1_555 1_555
C8 C7 1_555 1_555
H4 C8 1_555 1_555
C9 C8 1_555 1_555
H5 C9 1_555 1_555
C10 N2 1_555 1_555
C11 C9 1_555 1_555
H6 C11 1_555 1_555
C12 N3 1_555 1_555
C13 C12 1_555 1_555
H7 C13 1_555 1_555
H8 C13 1_555 1_555
C14 C13 1_555 1_555
H9 C14 1_555 1_555
H10 C14 1_555 1_555
C15 N1 1_555 1_555
C16 C15 1_555 1_555
H11 C16 1_555 1_555
H12 C16 1_555 1_555
H13 C16 1_555 1_555
C17 C1 1_555 1_555
H14 C17 1_555 1_555
C18 C4 1_555 1_555
H15 C18 1_555 1_555
N3 C15 1_555 1_555
C6 C10 1_555 1_555
C10 C11 1_555 1_555
C14 C15 1_555 1_555
C17 C18 1_555 1_555

#END
