
#######################################################################
#
#                 Cambridge Crystallographic Data Centre
#                                CCDC 
#
#######################################################################
#
# If this CIF has been generated from an entry in the Cambridge 
# Structural Database, then it will include bibliographic, chemical, 
# crystal, experimental, refinement or atomic coordinate data resulting 
# from the CCDC's data processing and validation procedures.
#
#######################################################################

data_BIHFIJ
_chemical_formula_moiety         'C26 H22 N2 O5'
_chemical_name_systematic        
'Methyl 2,5-dioxo-4-(3-oxo-1,3-diphenylpropyl)-1-phenylimidazolidine-4-carboxylate'
_symmetry_cell_setting           orthorhombic
_symmetry_space_group_name_H-M   'P 21 21 21'
_symmetry_Int_Tables_number      19
_space_group_name_Hall           'P 2ac 2ab'
loop_
_symmetry_equiv_pos_site_id
_symmetry_equiv_pos_as_xyz
1 x,y,z
2 1/2-x,-y,1/2+z
3 1/2+x,1/2-y,-z
4 -x,1/2+y,1/2-z
_cell_length_a                   8.6536(8)
_cell_length_b                   11.2113(10)
_cell_length_c                   23.211(2)
_cell_angle_alpha                90
_cell_angle_beta                 90
_cell_angle_gamma                90
_cell_volume                     2251.89
_exptl_crystal_colour            colorless
_exptl_crystal_description       block
_cell_formula_units_Z            4
loop_
_atom_site_label
_atom_site_type_symbol
_atom_site_fract_x
_atom_site_fract_y
_atom_site_fract_z
O1 O 0.46545(18) 0.46618(12) 0.18918(6)
O2 O 0.5283(3) 0.08164(15) 0.12788(7)
O3 O 0.2903(2) 0.19937(16) 0.29690(11)
O4 O 0.3240(2) 0.39538(15) 0.29608(8)
O5 O 0.8359(2) 0.39424(15) 0.36877(7)
N1 N 0.5194(2) 0.16416(16) 0.21821(8)
N2 N 0.4992(2) 0.28586(14) 0.14335(7)
C1 C 0.5031(3) 0.28087(16) 0.24356(8)
C2 C 0.4854(2) 0.35925(17) 0.18998(8)
C3 C 0.5176(3) 0.16454(18) 0.16077(9)
C4 C 0.3588(3) 0.2865(2) 0.28156(10)
C5 C 0.1917(4) 0.4085(3) 0.33412(15)
H1 H 0.0995 0.3850 0.3141
H2 H 0.1828 0.4902 0.3460
H3 H 0.2053 0.3588 0.3674
C6 C 0.6487(2) 0.32135(19) 0.27821(8)
H4 H 0.6309 0.4038 0.2906
C7 C 0.6662(3) 0.2452(2) 0.33275(9)
C8 C 0.7910(2) 0.29197(18) 0.37232(8)
C9 C 0.8521(2) 0.21052(19) 0.41749(8)
C10 C 0.7910(3) 0.0986(2) 0.42794(10)
H5 H 0.7109 0.0702 0.4050
C11 C 0.8475(3) 0.0290(3) 0.47191(12)
H6 H 0.8051 -0.0459 0.4789
C12 C 0.9663(4) 0.0699(3) 0.50529(12)
H7 H 1.0045 0.0230 0.5351
C13 C 1.0289(4) 0.1796(3) 0.49497(12)
H8 H 1.1101 0.2066 0.5177
C14 C 0.9738(3) 0.2502(2) 0.45163(10)
H9 H 1.0176 0.3247 0.4449
C15 C 0.7920(2) 0.3214(2) 0.24036(8)
C16 C 0.8778(3) 0.2191(2) 0.22972(11)
H10 H 0.8492 0.1478 0.2472
C17 C 1.0042(3) 0.2210(3) 0.19378(12)
H11 H 1.0595 0.1513 0.1868
C18 C 1.0486(4) 0.3254(4) 0.16831(13)
H12 H 1.1342 0.3268 0.1441
C19 C 0.9667(3) 0.4287(3) 0.17850(13)
H13 H 0.9965 0.4997 0.1610
C20 C 0.8402(3) 0.4263(2) 0.21479(11)
H14 H 0.7865 0.4965 0.2221
C21 C 0.5074(3) 0.32335(18) 0.08432(8)
C22 C 0.6000(3) 0.4179(2) 0.06948(11)
H15 H 0.6557 0.4587 0.0975
C23 C 0.6094(4) 0.4520(3) 0.01195(13)
H16 H 0.6706 0.5167 0.0016
C24 C 0.5296(4) 0.3913(3) -0.02959(12)
H17 H 0.5378 0.4140 -0.0680
C25 C 0.4374(4) 0.2966(3) -0.01439(11)
H18 H 0.3834 0.2550 -0.0426
C26 C 0.4245(3) 0.2628(2) 0.04296(9)
H19 H 0.3603 0.1999 0.0534
H20 H 0.530(3) 0.103(3) 0.2363(11)
loop_
_geom_bond_atom_site_label_1
_geom_bond_atom_site_label_2
_geom_bond_site_symmetry_1
_geom_bond_site_symmetry_2
O1 C2 1_555 1_555
O2 C3 1_555 1_555
O3 C4 1_555 1_555
O4 C4 1_555 1_555
O5 C8 1_555 1_555
N1 C1 1_555 1_555
N2 C2 1_555 1_555
C1 C2 1_555 1_555
C3 N1 1_555 1_555
C4 C1 1_555 1_555
C5 O4 1_555 1_555
H1 C5 1_555 1_555
H2 C5 1_555 1_555
H3 C5 1_555 1_555
C6 C1 1_555 1_555
H4 C6 1_555 1_555
C7 C6 1_555 1_555
C8 C7 1_555 1_555
C9 C8 1_555 1_555
C10 C9 1_555 1_555
H5 C10 1_555 1_555
C11 C10 1_555 1_555
H6 C11 1_555 1_555
C12 C11 1_555 1_555
H7 C12 1_555 1_555
C13 C12 1_555 1_555
H8 C13 1_555 1_555
C14 C9 1_555 1_555
H9 C14 1_555 1_555
C15 C6 1_555 1_555
C16 C15 1_555 1_555
H10 C16 1_555 1_555
C17 C16 1_555 1_555
H11 C17 1_555 1_555
C18 C17 1_555 1_555
H12 C18 1_555 1_555
C19 C18 1_555 1_555
H13 C19 1_555 1_555
C20 C15 1_555 1_555
H14 C20 1_555 1_555
C21 N2 1_555 1_555
C22 C21 1_555 1_555
H15 C22 1_555 1_555
C23 C22 1_555 1_555
H16 C23 1_555 1_555
C24 C23 1_555 1_555
H17 C24 1_555 1_555
C25 C24 1_555 1_555
H18 C25 1_555 1_555
C26 C21 1_555 1_555
H19 C26 1_555 1_555
H20 N1 1_555 1_555
N2 C3 1_555 1_555
C13 C14 1_555 1_555
C19 C20 1_555 1_555
C25 C26 1_555 1_555

#END
