
#######################################################################
#
#                 Cambridge Crystallographic Data Centre
#                                CCDC 
#
#######################################################################
#
# If this CIF has been generated from an entry in the Cambridge 
# Structural Database, then it will include bibliographic, chemical, 
# crystal, experimental, refinement or atomic coordinate data resulting 
# from the CCDC's data processing and validation procedures.
#
#######################################################################

data_BIHGOR
_chemical_formula_moiety         'C14 H10 Br1 F3 N2 O2 S1'
_chemical_name_systematic        
'methyl 4-(4-bromophenyl)-6-methyl-2-[(trifluoromethyl)sulfanyl]pyrimidine-5-carboxylate'
_symmetry_cell_setting           triclinic
_symmetry_space_group_name_H-M   'P -1'
_symmetry_Int_Tables_number      2
_space_group_name_Hall           '-P 1'
loop_
_symmetry_equiv_pos_site_id
_symmetry_equiv_pos_as_xyz
1 x,y,z
2 -x,-y,-z
_cell_length_a                   8.681(7)
_cell_length_b                   9.623(6)
_cell_length_c                   11.292(6)
_cell_angle_alpha                109.39(2)
_cell_angle_beta                 100.35(2)
_cell_angle_gamma                107.32(3)
_cell_volume                     807.808
_exptl_crystal_description       block
_cell_formula_units_Z            2
loop_
_atom_site_label
_atom_site_type_symbol
_atom_site_fract_x
_atom_site_fract_y
_atom_site_fract_z
Br1 Br 0.71099(4) -0.14536(3) 0.27987(2)
C1 C 0.7505(4) 0.2379(3) 1.0764(3)
C2 C 0.7517(3) 0.4728(3) 0.9865(2)
C3 C 0.7369(5) 0.8142(3) 0.9245(3)
H1 H 0.761344 0.874231 1.017275
H2 H 0.628001 0.805097 0.877629
H3 H 0.822515 0.867805 0.893814
C4 C 0.7351(3) 0.6509(3) 0.9007(3)
C5 C 0.7338(3) 0.5457(3) 0.7800(2)
C6 C 0.7405(3) 0.3991(3) 0.7722(2)
C7 C 0.7321(3) 0.2701(3) 0.6511(2)
C8 C 0.8277(3) 0.1792(3) 0.6639(2)
H4 H 0.896443 0.201863 0.746705
C9 C 0.8205(3) 0.0554(3) 0.5537(2)
H5 H 0.884862 -0.004689 0.561938
C10 C 0.7170(3) 0.0220(3) 0.4313(2)
C11 C 0.6188(3) 0.1092(3) 0.4164(2)
H6 H 0.548925 0.084903 0.333528
C12 C 0.6266(3) 0.2322(3) 0.5263(2)
H7 H 0.560797 0.290951 0.517414
C13 C 0.7330(4) 0.5959(3) 0.6679(3)
C14 C 0.8616(7) 0.6207(6) 0.5052(5)
H8 H 0.750951 0.565913 0.440863
H9 H 0.941980 0.587547 0.467207
H10 H 0.894426 0.733762 0.532193
F1 F 0.7473(3) 0.1989(3) 1.1798(2)
F2 F 0.8814(3) 0.2168(3) 1.0399(2)
F3 F 0.6127(2) 0.1332(2) 0.9780(2)
N1 N 0.7531(3) 0.3653(2) 0.87941(19)
N2 N 0.7404(3) 0.6137(3) 1.0052(2)
O1 O 0.8578(3) 0.5827(3) 0.6193(2)
O2 O 0.6329(4) 0.6469(3) 0.6307(3)
S1 S 0.76439(13) 0.43931(9) 1.13299(7)
loop_
_geom_bond_atom_site_label_1
_geom_bond_atom_site_label_2
_geom_bond_site_symmetry_1
_geom_bond_site_symmetry_2
Br1 C10 1_555 1_555
C1 F1 1_555 1_555
C2 N1 1_555 1_555
C3 H1 1_555 1_555
H2 C3 1_555 1_555
H3 C3 1_555 1_555
C4 C3 1_555 1_555
C5 C4 1_555 1_555
C6 C5 1_555 1_555
C7 C6 1_555 1_555
C8 C7 1_555 1_555
H4 C8 1_555 1_555
C9 C8 1_555 1_555
H5 C9 1_555 1_555
C10 C9 1_555 1_555
C11 C10 1_555 1_555
H6 C11 1_555 1_555
C12 C7 1_555 1_555
H7 C12 1_555 1_555
C13 C5 1_555 1_555
C14 H8 1_555 1_555
H9 C14 1_555 1_555
H10 C14 1_555 1_555
F2 C1 1_555 1_555
F3 C1 1_555 1_555
N1 C6 1_555 1_555
N2 C2 1_555 1_555
O1 C13 1_555 1_555
O2 C13 1_555 1_555
S1 C1 1_555 1_555
C2 S1 1_555 1_555
C4 N2 1_555 1_555
C11 C12 1_555 1_555
C14 O1 1_555 1_555

#END
