
#######################################################################
#
#                 Cambridge Crystallographic Data Centre
#                                CCDC 
#
#######################################################################
#
# If this CIF has been generated from an entry in the Cambridge 
# Structural Database, then it will include bibliographic, chemical, 
# crystal, experimental, refinement or atomic coordinate data resulting 
# from the CCDC's data processing and validation procedures.
#
#######################################################################

data_BIHHUY
_chemical_formula_moiety         'C28 H23 Cl1 F1 N3 O4'
_chemical_name_systematic        
3-[1-(2-chlorophenyl)-2-(3-methyl-4-nitro-1,2-oxazol-5-yl)ethyl]-3-[(4-fluorophenyl)methyl]-1-methyl-1,3-dihydro-2H-indol-2-one
_symmetry_cell_setting           monoclinic
_symmetry_space_group_name_H-M   'P 21'
_symmetry_Int_Tables_number      4
_space_group_name_Hall           'P 2yb'
loop_
_symmetry_equiv_pos_site_id
_symmetry_equiv_pos_as_xyz
1 x,y,z
2 -x,1/2+y,-z
_cell_length_a                   9.6811(11)
_cell_length_b                   13.4255(15)
_cell_length_c                   9.7982(11)
_cell_angle_alpha                90
_cell_angle_beta                 106.121(2)
_cell_angle_gamma                90
_cell_volume                     1223.43
_exptl_crystal_colour            colorless
_exptl_crystal_description       block
_cell_formula_units_Z            2
loop_
_atom_site_label
_atom_site_type_symbol
_atom_site_fract_x
_atom_site_fract_y
_atom_site_fract_z
Cl1 Cl 0.81283(8) 0.36307(5) 0.43802(10)
O1 O 0.4229(2) 0.70623(15) 0.3955(2)
F1 F 0.1735(2) 0.5074(2) 0.9223(2)
O2 O 0.6689(2) 0.62084(16) 0.0343(2)
O3 O 0.5268(3) 0.33753(16) 0.0779(3)
N1 N 0.2318(2) 0.60292(18) 0.2938(2)
O4 O 0.6755(3) 0.29538(19) -0.0413(3)
N2 N 0.7618(3) 0.5947(2) -0.0503(3)
N3 N 0.6157(3) 0.3572(2) 0.0153(3)
C1 C 0.2071(3) 0.5003(2) 0.2777(3)
C2 C 0.4313(3) 0.51084(19) 0.6515(2)
C3 C 0.7148(3) 0.55354(19) 0.3789(3)
C4 C 0.7518(3) 0.4986(2) -0.0667(3)
C5 C 0.3339(3) 0.44889(18) 0.3378(3)
C6 C 0.6057(3) 0.5389(2) 0.0667(3)
C7 C 0.3723(3) 0.62296(19) 0.3645(3)
C8 C 0.3955(3) 0.5988(2) 0.7073(3)
H1 H 0.4309 0.6603 0.6828
C9 C 0.3365(3) 0.34564(19) 0.3332(3)
H2 H 0.4226 0.3099 0.3748
C10 C 0.5295(3) 0.5109(2) 0.5561(3)
H3 H 0.5844 0.4477 0.5706
H4 H 0.5995 0.5659 0.5857
C11 C 0.3080(3) 0.5982(3) 0.7992(3)
H5 H 0.2840 0.6585 0.8381
C12 C 0.4536(3) 0.52243(17) 0.3957(3)
C13 C 0.5046(3) 0.5524(2) 0.1555(3)
H6 H 0.4132 0.5177 0.1099
H7 H 0.4830 0.6242 0.1605
C14 C 0.6556(3) 0.4595(2) 0.0065(3)
C15 C 0.2577(3) 0.5083(3) 0.8317(3)
C16 C 0.5669(3) 0.51158(18) 0.3081(2)
H8 H 0.5805 0.4384 0.2978
C17 C 0.0826(4) 0.3474(3) 0.2071(3)
H9 H -0.0029 0.3118 0.1631
C18 C 0.0786(3) 0.4519(3) 0.2116(3)
H10 H -0.0076 0.4879 0.1714
C19 C 0.9684(3) 0.5294(2) 0.5075(3)
H11 H 1.0461 0.4856 0.5480
C20 C 0.2087(4) 0.2953(2) 0.2656(3)
H12 H 0.2086 0.2247 0.2598
C21 C 0.3800(3) 0.4209(2) 0.6902(3)
H13 H 0.4053 0.3602 0.6535
C22 C 0.2927(3) 0.4188(3) 0.7814(3)
H14 H 0.2583 0.3576 0.8081
C23 C 0.9883(3) 0.6317(2) 0.5142(3)
H15 H 1.0801 0.6584 0.5609
C24 C 0.8745(3) 0.6957(2) 0.4530(3)
H16 H 0.8887 0.7658 0.4576
C25 C 0.1268(3) 0.6791(2) 0.2308(4)
H17 H 0.1607 0.7440 0.2729
H18 H 0.0347 0.6632 0.2491
H19 H 0.1140 0.6816 0.1281
C26 C 0.8321(3) 0.4919(2) 0.4402(3)
C27 C 0.8354(3) 0.4479(3) -0.1538(3)
H20 H 0.8799 0.4981 -0.2007
H21 H 0.7707 0.4061 -0.2258
H22 H 0.9104 0.4064 -0.0922
C28 C 0.7405(3) 0.6563(2) 0.3852(3)
H23 H 0.6640 0.7003 0.3419
loop_
_geom_bond_atom_site_label_1
_geom_bond_atom_site_label_2
_geom_bond_site_symmetry_1
_geom_bond_site_symmetry_2
Cl1 C26 1_555 1_555
O1 C7 1_555 1_555
F1 C15 1_555 1_555
O2 N2 1_555 1_555
O3 N3 1_555 1_555
N1 C1 1_555 1_555
O4 N3 1_555 1_555
N2 C4 1_555 1_555
N3 C14 1_555 1_555
C1 C5 1_555 1_555
C2 C8 1_555 1_555
C3 C16 1_555 1_555
C4 C14 1_555 1_555
C5 C9 1_555 1_555
C6 O2 1_555 1_555
C7 N1 1_555 1_555
C8 H1 1_555 1_555
C9 H2 1_555 1_555
C10 C2 1_555 1_555
H3 C10 1_555 1_555
H4 C10 1_555 1_555
C11 C8 1_555 1_555
H5 C11 1_555 1_555
C12 C5 1_555 1_555
C13 C6 1_555 1_555
H6 C13 1_555 1_555
H7 C13 1_555 1_555
C14 C6 1_555 1_555
C15 C11 1_555 1_555
C16 C12 1_555 1_555
H8 C16 1_555 1_555
C17 H9 1_555 1_555
C18 C1 1_555 1_555
H10 C18 1_555 1_555
C19 H11 1_555 1_555
C20 C9 1_555 1_555
H12 C20 1_555 1_555
C21 C2 1_555 1_555
H13 C21 1_555 1_555
C22 C15 1_555 1_555
H14 C22 1_555 1_555
C23 C19 1_555 1_555
H15 C23 1_555 1_555
C24 C23 1_555 1_555
H16 C24 1_555 1_555
C25 N1 1_555 1_555
H17 C25 1_555 1_555
H18 C25 1_555 1_555
H19 C25 1_555 1_555
C26 C3 1_555 1_555
C27 C4 1_555 1_555
H20 C27 1_555 1_555
H21 C27 1_555 1_555
H22 C27 1_555 1_555
C28 C3 1_555 1_555
H23 C28 1_555 1_555
C7 C12 1_555 1_555
C10 C12 1_555 1_555
C13 C16 1_555 1_555
C17 C18 1_555 1_555
C17 C20 1_555 1_555
C19 C26 1_555 1_555
C21 C22 1_555 1_555
C24 C28 1_555 1_555

#END
