
#######################################################################
#
#                 Cambridge Crystallographic Data Centre
#                                CCDC 
#
#######################################################################
#
# If this CIF has been generated from an entry in the Cambridge 
# Structural Database, then it will include bibliographic, chemical, 
# crystal, experimental, refinement or atomic coordinate data resulting 
# from the CCDC's data processing and validation procedures.
#
#######################################################################

data_BIHJIO
_chemical_formula_moiety         'C8 H6 N2 O1'
_chemical_name_systematic        quinazolin-4(3H)-one
_symmetry_cell_setting           monoclinic
_symmetry_space_group_name_H-M   'P 21/c'
_symmetry_Int_Tables_number      14
_space_group_name_Hall           '-P 2ybc'
loop_
_symmetry_equiv_pos_site_id
_symmetry_equiv_pos_as_xyz
1 x,y,z
2 -x,1/2+y,1/2-z
3 -x,-y,-z
4 x,1/2-y,1/2+z
_cell_length_a                   11.6919(3)
_cell_length_b                   8.8414(2)
_cell_length_c                   26.4219(6)
_cell_angle_alpha                90
_cell_angle_beta                 92.686(3)
_cell_angle_gamma                90
_cell_volume                     2728.3
_exptl_crystal_description       'pale yellow'
_cell_formula_units_Z            16
loop_
_atom_site_label
_atom_site_type_symbol
_atom_site_fract_x
_atom_site_fract_y
_atom_site_fract_z
C1 C 0.41740(16) -0.12832(19) 0.67712(6)
C2 C 0.49047(16) -0.0859(2) 0.63949(6)
N1 N 0.48061(14) -0.14682(18) 0.59055(5)
N2 N 0.32188(14) -0.28545(18) 0.61581(6)
H1 H 0.26921(14) -0.34842(18) 0.60615(6)
O1 O 0.25380(14) -0.27644(18) 0.69466(5)
C3 C 0.43256(17) -0.0665(2) 0.72587(7)
H2 H 0.38358(17) -0.0942(2) 0.75101(7)
C4 C 0.57653(18) 0.0199(2) 0.65067(7)
H3 H 0.62456(18) 0.0512(2) 0.62561(7)
C5 C 0.59003(18) 0.0778(2) 0.69890(8)
H4 H 0.64797(18) 0.1475(2) 0.70633(8)
C6 C 0.32431(18) -0.2341(2) 0.66521(7)
C7 C 0.51864(18) 0.0338(2) 0.73652(7)
H5 H 0.52947(18) 0.0728(2) 0.76909(7)
C8 C 0.39824(17) -0.2415(2) 0.58194(7)
H6 H 0.39070(17) -0.2831(2) 0.54964(7)
N3 N 0.18513(14) 0.37193(18) 0.44752(5)
C9 C 0.26220(16) 0.3437(2) 0.36369(7)
C10 C 0.18376(16) 0.3048(2) 0.39953(6)
N4 N 0.34609(14) 0.51083(18) 0.42524(6)
H7 H 0.39683(14) 0.57562(18) 0.43558(6)
C11 C 0.25595(17) 0.2771(2) 0.31561(7)
H8 H 0.30818(17) 0.3040(2) 0.29170(7)
O2 O 0.42595(15) 0.4942(2) 0.34907(6)
C12 C 0.35183(18) 0.4535(2) 0.37663(7)
C13 C 0.17291(19) 0.1726(2) 0.30391(7)
H9 H 0.16824(19) 0.1286(2) 0.27191(7)
C14 C 0.10036(19) 0.1972(2) 0.38687(8)
H10 H 0.04766(19) 0.1692(2) 0.41045(8)
C15 C 0.0958(2) 0.1322(2) 0.33961(8)
H11 H 0.0400(2) 0.0600(2) 0.33152(8)
C16 C 0.26477(17) 0.4699(2) 0.45718(7)
H12 H 0.26635(17) 0.5164(2) 0.48879(7)
N5 N 0.37465(14) 0.11254(17) 0.49342(5)
H13 H 0.41411(14) 0.11440(17) 0.46677(5)
C17 C 0.24387(16) 0.0902(2) 0.57416(7)
C18 C 0.33739(16) 0.1901(2) 0.57658(6)
O3 O 0.49564(13) 0.28048(18) 0.53141(5)
C19 C 0.17800(18) 0.0739(2) 0.61616(8)
H14 H 0.11669(18) 0.0068(2) 0.61501(8)
N6 N 0.21498(15) 0.00618(19) 0.53066(6)
C20 C 0.20255(19) 0.1561(3) 0.65941(8)
H15 H 0.15774(19) 0.1445(3) 0.68732(8)
C21 C 0.36007(18) 0.2734(2) 0.62125(7)
H16 H 0.42117(18) 0.3408(2) 0.62308(7)
C22 C 0.40928(17) 0.2010(2) 0.53401(7)
C23 C 0.29400(19) 0.2567(2) 0.66170(8)
H17 H 0.30991(19) 0.3126(2) 0.69101(8)
C24 C 0.28073(17) 0.0222(2) 0.49359(7)
H18 H 0.26258(17) -0.0326(2) 0.46428(7)
N7 N 0.03996(13) 0.34538(17) 0.53285(5)
H19 H 0.07547(13) 0.35298(17) 0.50519(5)
C25 C 0.01018(15) 0.4127(2) 0.61779(6)
O4 O 0.15000(12) 0.53094(16) 0.56782(5)
C26 C 0.07289(16) 0.4378(2) 0.57254(6)
C27 C -0.02442(18) 0.4675(2) 0.70448(7)
H20 H -0.00824(18) 0.5231(2) 0.73382(7)
N8 N -0.10486(15) 0.21717(19) 0.57377(6)
C28 C -0.1092(2) 0.3562(3) 0.70412(8)
H21 H -0.1484(2) 0.3367(3) 0.73325(8)
C29 C -0.07615(16) 0.3022(2) 0.61687(7)
C30 C 0.03482(17) 0.4955(2) 0.66229(7)
H22 H 0.09152(17) 0.5693(2) 0.66298(7)
C31 C -0.13449(19) 0.2757(2) 0.66066(8)
H23 H -0.19152(19) 0.2023(2) 0.66048(8)
C32 C -0.04568(17) 0.2426(2) 0.53496(7)
H24 H -0.06296(17) 0.1860(2) 0.50595(7)
loop_
_geom_bond_atom_site_label_1
_geom_bond_atom_site_label_2
_geom_bond_site_symmetry_1
_geom_bond_site_symmetry_2
C1 C2 1_555 1_555
C2 N1 1_555 1_555
N1 C8 1_555 1_555
N2 H1 1_555 1_555
O1 C6 1_555 1_555
C3 C1 1_555 1_555
H2 C3 1_555 1_555
C4 C2 1_555 1_555
H3 C4 1_555 1_555
C5 C4 1_555 1_555
H4 C5 1_555 1_555
C6 C1 1_555 1_555
C7 C3 1_555 1_555
H5 C7 1_555 1_555
C8 N2 1_555 1_555
H6 C8 1_555 1_555
N3 C10 1_555 1_555
C9 C10 1_555 1_555
C10 C14 1_555 1_555
N4 H7 1_555 1_555
C11 C9 1_555 1_555
H8 C11 1_555 1_555
O2 C12 1_555 1_555
C12 C9 1_555 1_555
C13 C11 1_555 1_555
H9 C13 1_555 1_555
C14 H10 1_555 1_555
C15 C13 1_555 1_555
H11 C15 1_555 1_555
C16 N3 1_555 1_555
H12 C16 1_555 1_555
N5 H13 1_555 1_555
C17 C18 1_555 1_555
C18 C21 1_555 1_555
O3 C22 1_555 1_555
C19 C17 1_555 1_555
H14 C19 1_555 1_555
N6 C17 1_555 1_555
C20 C19 1_555 1_555
H15 C20 1_555 1_555
C21 H16 1_555 1_555
C22 N5 1_555 1_555
C23 C20 1_555 1_555
H17 C23 1_555 1_555
C24 N5 1_555 1_555
H18 C24 1_555 1_555
N7 H19 1_555 1_555
C25 C26 1_555 1_555
O4 C26 1_555 1_555
C26 N7 1_555 1_555
C27 H20 1_555 1_555
N8 C29 1_555 1_555
C28 C27 1_555 1_555
H21 C28 1_555 1_555
C29 C25 1_555 1_555
C30 C25 1_555 1_555
H22 C30 1_555 1_555
C31 C28 1_555 1_555
H23 C31 1_555 1_555
C32 N7 1_555 1_555
H24 C32 1_555 1_555
N2 C6 1_555 1_555
C5 C7 1_555 1_555
N4 C12 1_555 1_555
N4 C16 1_555 1_555
C14 C15 1_555 1_555
C18 C22 1_555 1_555
N6 C24 1_555 1_555
C21 C23 1_555 1_555
C27 C30 1_555 1_555
N8 C32 1_555 1_555
C29 C31 1_555 1_555

#END
