
#######################################################################
#
#                 Cambridge Crystallographic Data Centre
#                                CCDC 
#
#######################################################################
#
# If this CIF has been generated from an entry in the Cambridge 
# Structural Database, then it will include bibliographic, chemical, 
# crystal, experimental, refinement or atomic coordinate data resulting 
# from the CCDC's data processing and validation procedures.
#
#######################################################################

data_BIHJAG
_chemical_formula_moiety         'C30 H28 Cl1 N3 O4'
_chemical_name_systematic        
3-[(4-chlorophenyl)methyl]-3-[1-(2,4-dimethylphenyl)-2-(3-methyl-4-nitro-1,2-oxazol-5-yl)ethyl]-1-methyl-1,3-dihydro-2H-indol-2-one
_symmetry_cell_setting           triclinic
_symmetry_space_group_name_H-M   'P -1'
_symmetry_Int_Tables_number      2
_space_group_name_Hall           '-P 1'
loop_
_symmetry_equiv_pos_site_id
_symmetry_equiv_pos_as_xyz
1 x,y,z
2 -x,-y,-z
_cell_length_a                   9.999(3)
_cell_length_b                   10.086(3)
_cell_length_c                   14.510(5)
_cell_angle_alpha                90.729(5)
_cell_angle_beta                 108.686(5)
_cell_angle_gamma                108.722(5)
_cell_volume                     1301.91
_exptl_crystal_colour            colorless
_exptl_crystal_description       prism
_cell_formula_units_Z            2
loop_
_atom_site_label
_atom_site_type_symbol
_atom_site_fract_x
_atom_site_fract_y
_atom_site_fract_z
Cl1 Cl 1.13384(5) -0.29904(5) 0.74576(3)
O1 O 0.98568(15) 0.26398(16) 0.95138(9)
O2 O 0.64299(15) 0.57113(14) 0.83539(9)
O3 O 0.61031(15) 0.64376(15) 0.52848(9)
O4 O 0.73953(15) 0.50771(15) 0.58758(9)
N1 N 1.10245(17) 0.33396(16) 0.83862(10)
N2 N 0.54099(18) 0.64441(17) 0.79412(11)
C1 C 1.02546(19) -0.19568(19) 0.75090(12)
C2 C 0.9604(2) -0.14148(19) 0.66717(13)
H1 H 0.9746 -0.1604 0.6074
C3 C 0.8746(2) -0.0596(2) 0.67224(13)
H2 H 0.8291 -0.0235 0.6150
C4 C 0.8533(2) -0.02874(19) 0.75983(13)
C5 C 0.7592(2) 0.06040(19) 0.76510(13)
H3 H 0.7265 0.0403 0.8226
H4 H 0.6677 0.0307 0.7058
C6 C 0.83809(19) 0.22238(19) 0.77306(12)
C7 C 0.72216(19) 0.29877(19) 0.76923(12)
H5 H 0.6572 0.2851 0.6987
C8 C 0.80427(19) 0.46040(19) 0.79755(12)
H6 H 0.8574 0.4814 0.8694
H7 H 0.8802 0.4927 0.7650
C9 C 0.6970(2) 0.53850(19) 0.76811(12)
C10 C 0.63374(19) 0.58851(19) 0.68382(12)
C11 C 0.5380(2) 0.65468(19) 0.70359(13)
C12 C 0.4407(2) 0.7259(2) 0.63852(14)
H8 H 0.3593 0.6560 0.5860
H9 H 0.5011 0.7986 0.6098
H10 H 0.3979 0.7697 0.6771
C13 C 1.0035(2) -0.17127(19) 0.83813(12)
H11 H 1.0457 -0.2112 0.8943
C14 C 0.9183(2) -0.08692(19) 0.84208(13)
H12 H 0.9040 -0.0686 0.9020
C15 C 0.9051(2) 0.26319(19) 0.69359(12)
C16 C 1.0605(2) 0.32666(19) 0.73590(12)
C17 C 1.2540(2) 0.4075(2) 0.90632(13)
H13 H 1.2565 0.3965 0.9738
H14 H 1.2836 0.5080 0.8984
H15 H 1.3238 0.3676 0.8924
C18 C 0.9808(2) 0.2741(2) 0.86662(12)
C19 C 1.1534(2) 0.3735(2) 0.68081(13)
H16 H 1.2593 0.4154 0.7110
C20 C 1.0842(2) 0.3561(2) 0.57921(14)
H17 H 1.1443 0.3863 0.5391
C21 C 0.9296(2) 0.2955(2) 0.53549(13)
H18 H 0.8850 0.2862 0.4662
C22 C 0.8386(2) 0.2482(2) 0.59257(13)
H19 H 0.7327 0.2063 0.5625
C23 C 0.6152(2) 0.24129(19) 0.82565(12)
C24 C 0.6680(2) 0.2655(2) 0.92806(12)
H20 H 0.7715 0.3165 0.9619
C25 C 0.5735(2) 0.2170(2) 0.98166(12)
H21 H 0.6134 0.2338 1.0513
C26 C 0.4213(2) 0.14441(19) 0.93478(13)
C27 C 0.3671(2) 0.1208(2) 0.83232(13)
H22 H 0.2630 0.0716 0.7992
C28 C 0.4609(2) 0.16728(19) 0.77681(13)
C29 C 0.3901(2) 0.1376(2) 0.66574(13)
H23 H 0.2823 0.0846 0.6475
H24 H 0.4377 0.0819 0.6401
H25 H 0.4044 0.2271 0.6380
C30 C 0.3174(2) 0.0961(2) 0.99287(14)
H26 H 0.2974 -0.0046 0.9984
H27 H 0.2226 0.1116 0.9594
H28 H 0.3647 0.1500 1.0586
N3 N 0.66320(17) 0.57966(17) 0.59409(10)
loop_
_geom_bond_atom_site_label_1
_geom_bond_atom_site_label_2
_geom_bond_site_symmetry_1
_geom_bond_site_symmetry_2
Cl1 C1 1_555 1_555
O1 C18 1_555 1_555
O2 N2 1_555 1_555
O3 N3 1_555 1_555
O4 N3 1_555 1_555
N1 C16 1_555 1_555
N2 C11 1_555 1_555
C1 C2 1_555 1_555
C2 H1 1_555 1_555
C3 C2 1_555 1_555
H2 C3 1_555 1_555
C4 C3 1_555 1_555
C5 C4 1_555 1_555
H3 C5 1_555 1_555
H4 C5 1_555 1_555
C6 C5 1_555 1_555
C7 C6 1_555 1_555
H5 C7 1_555 1_555
C8 C7 1_555 1_555
H6 C8 1_555 1_555
H7 C8 1_555 1_555
C9 O2 1_555 1_555
C10 C9 1_555 1_555
C11 C10 1_555 1_555
C12 C11 1_555 1_555
H8 C12 1_555 1_555
H9 C12 1_555 1_555
H10 C12 1_555 1_555
C13 C1 1_555 1_555
H11 C13 1_555 1_555
C14 C4 1_555 1_555
H12 C14 1_555 1_555
C15 C6 1_555 1_555
C16 C15 1_555 1_555
C17 N1 1_555 1_555
H13 C17 1_555 1_555
H14 C17 1_555 1_555
H15 C17 1_555 1_555
C18 N1 1_555 1_555
C19 C16 1_555 1_555
H16 C19 1_555 1_555
C20 C19 1_555 1_555
H17 C20 1_555 1_555
C21 C20 1_555 1_555
H18 C21 1_555 1_555
C22 C15 1_555 1_555
H19 C22 1_555 1_555
C23 C7 1_555 1_555
C24 C23 1_555 1_555
H20 C24 1_555 1_555
C25 C24 1_555 1_555
H21 C25 1_555 1_555
C26 C25 1_555 1_555
C27 C26 1_555 1_555
H22 C27 1_555 1_555
C28 C23 1_555 1_555
C29 C28 1_555 1_555
H23 C29 1_555 1_555
H24 C29 1_555 1_555
H25 C29 1_555 1_555
C30 C26 1_555 1_555
H26 C30 1_555 1_555
H27 C30 1_555 1_555
H28 C30 1_555 1_555
N3 C10 1_555 1_555
C6 C18 1_555 1_555
C8 C9 1_555 1_555
C13 C14 1_555 1_555
C21 C22 1_555 1_555
C27 C28 1_555 1_555

#END
