
#######################################################################
#
#                 Cambridge Crystallographic Data Centre
#                                CCDC 
#
#######################################################################
#
# If this CIF has been generated from an entry in the Cambridge 
# Structural Database, then it will include bibliographic, chemical, 
# crystal, experimental, refinement or atomic coordinate data resulting 
# from the CCDC's data processing and validation procedures.
#
#######################################################################

data_BIHKAH
_chemical_formula_moiety         'C10 H8 N2 O3'
_chemical_name_systematic        
'methyl 4-oxo-3,4-dihydroquinazoline-2-carboxylate'
_symmetry_cell_setting           monoclinic
_symmetry_space_group_name_H-M   'P 21/c'
_symmetry_Int_Tables_number      14
_space_group_name_Hall           '-P 2ybc'
loop_
_symmetry_equiv_pos_site_id
_symmetry_equiv_pos_as_xyz
1 x,y,z
2 -x,1/2+y,1/2-z
3 -x,-y,-z
4 x,1/2-y,1/2+z
_cell_length_a                   10.4921(6)
_cell_length_b                   13.1804(8)
_cell_length_c                   16.5654(8)
_cell_angle_alpha                90
_cell_angle_beta                 126.129(3)
_cell_angle_gamma                90
_cell_volume                     1850.28
_exptl_crystal_description       'pale yellow'
_cell_formula_units_Z            8
loop_
_atom_site_label
_atom_site_type_symbol
_atom_site_fract_x
_atom_site_fract_y
_atom_site_fract_z
O1 O 0.0759(2) 0.39834(17) 0.16186(12)
O2 O 0.6404(2) 0.38343(17) 0.40170(13)
O3 O 0.68207(19) 0.36409(14) 0.55001(12)
N1 N 0.3228(2) 0.39239(16) 0.30671(14)
H1 H 0.3636 0.3944 0.2744
N2 N 0.3769(2) 0.38468(16) 0.46601(14)
C1 C 0.1610(3) 0.3957(2) 0.25397(17)
C2 C 0.1051(3) 0.3956(2) 0.31502(17)
C3 C -0.0563(3) 0.4006(2) 0.27220(19)
H2 H -0.1289 0.4058 0.2032
C4 C -0.1080(3) 0.3979(2) 0.3309(2)
H3 H -0.2155 0.4019 0.3018
C5 C 0.0000(3) 0.3892(2) 0.4346(2)
H4 H -0.0358 0.3860 0.4742
C6 C 0.1594(3) 0.3853(2) 0.4783(2)
H5 H 0.2308 0.3805 0.5474
C7 C 0.2141(3) 0.38869(19) 0.41954(18)
C8 C 0.4213(3) 0.38595(19) 0.40932(17)
C9 C 0.5940(3) 0.37862(19) 0.45172(18)
C10 C 0.8488(3) 0.3450(2) 0.59797(18)
H6 H 0.8604 0.2846 0.5704
H7 H 0.9018 0.3361 0.6685
H8 H 0.8941 0.4015 0.5867
O4 O 0.3944(2) 0.11542(17) 0.66309(12)
O5 O -0.1704(2) 0.12858(16) 0.42559(13)
O6 O -0.2155(2) 0.13753(15) 0.27564(12)
N3 N 0.1462(2) 0.12086(15) 0.51900(14)
H9 H 0.1059 0.1174 0.5515
N4 N 0.0902(2) 0.13153(16) 0.35875(14)
C11 C 0.3082(3) 0.1199(2) 0.57136(18)
C12 C 0.3627(3) 0.12533(19) 0.50925(18)
C13 C 0.5249(3) 0.1247(2) 0.5517(2)
H10 H 0.5988 0.1229 0.6208
C14 C 0.5734(3) 0.1269(2) 0.4917(2)
H11 H 0.6808 0.1264 0.5202
C15 C 0.4650(3) 0.1297(2) 0.3885(2)
H12 H 0.5001 0.1301 0.3484
C16 C 0.3068(3) 0.1319(2) 0.34546(19)
H13 H 0.2350 0.1349 0.2763
C17 C 0.2519(3) 0.12969(19) 0.40471(18)
C18 C 0.0477(3) 0.12720(19) 0.41684(17)
C19 C -0.1248(3) 0.1311(2) 0.37451(18)
C20 C -0.3836(3) 0.1464(3) 0.22789(19)
H14 H -0.4390 0.1490 0.1567
H15 H -0.4040 0.2073 0.2502
H16 H -0.4190 0.0888 0.2451
loop_
_geom_bond_atom_site_label_1
_geom_bond_atom_site_label_2
_geom_bond_site_symmetry_1
_geom_bond_site_symmetry_2
O1 C1 1_555 1_555
O2 C9 1_555 1_555
O3 C9 1_555 1_555
N1 H1 1_555 1_555
N2 C7 1_555 1_555
C1 N1 1_555 1_555
C2 C1 1_555 1_555
C3 C2 1_555 1_555
H2 C3 1_555 1_555
C4 C3 1_555 1_555
H3 C4 1_555 1_555
C5 C4 1_555 1_555
H4 C5 1_555 1_555
C6 C5 1_555 1_555
H5 C6 1_555 1_555
C7 C2 1_555 1_555
C8 N1 1_555 1_555
C9 C8 1_555 1_555
C10 O3 1_555 1_555
H6 C10 1_555 1_555
H7 C10 1_555 1_555
H8 C10 1_555 1_555
O4 C11 1_555 1_555
O5 C19 1_555 1_555
O6 C19 1_555 1_555
N3 H9 1_555 1_555
N4 C17 1_555 1_555
C11 N3 1_555 1_555
C12 C11 1_555 1_555
C13 C12 1_555 1_555
H10 C13 1_555 1_555
C14 C13 1_555 1_555
H11 C14 1_555 1_555
C15 C14 1_555 1_555
H12 C15 1_555 1_555
C16 C15 1_555 1_555
H13 C16 1_555 1_555
C17 C12 1_555 1_555
C18 N3 1_555 1_555
C19 C18 1_555 1_555
C20 O6 1_555 1_555
H14 C20 1_555 1_555
H15 C20 1_555 1_555
H16 C20 1_555 1_555
N2 C8 1_555 1_555
C6 C7 1_555 1_555
N4 C18 1_555 1_555
C16 C17 1_555 1_555

#END
