
#######################################################################
#
#                 Cambridge Crystallographic Data Centre
#                                CCDC 
#
#######################################################################
#
# If this CIF has been generated from an entry in the Cambridge 
# Structural Database, then it will include bibliographic, chemical, 
# crystal, experimental, refinement or atomic coordinate data resulting 
# from the CCDC's data processing and validation procedures.
#
#######################################################################

data_BIHLUC
_chemical_compound_source        'twigs and leaves of Cllistemon rigidus'
_chemical_name_common            'callistrilone K'
_chemical_formula_moiety         'C35 H46 O7'
_chemical_name_systematic        
4-hydroxy-7,7,9,9,12a-pentamethyl-5-(2-methylbutanoyl)-2,11-bis(propan-2-yl)-1a,2,3,3a,7,11,12a,12b-octahydro-8H-oxireno[6,7][1]benzofuro[2,3-a]xanthene-8,10(9H)-dione
_chemical_properties_biological  
'tested for antiviral activity against HSV-1 and HEp-2 cells'
_symmetry_cell_setting           orthorhombic
_symmetry_space_group_name_H-M   'P 21 21 21'
_symmetry_Int_Tables_number      19
_space_group_name_Hall           'P 2ac 2ab'
loop_
_symmetry_equiv_pos_site_id
_symmetry_equiv_pos_as_xyz
1 x,y,z
2 1/2-x,-y,1/2+z
3 -x,1/2+y,1/2-z
4 1/2+x,1/2-y,-z
_cell_length_a                   6.41550(10)
_cell_length_b                   14.3982(4)
_cell_length_c                   34.4786(9)
_cell_angle_alpha                90
_cell_angle_beta                 90
_cell_angle_gamma                90
_cell_volume                     3184.85
_exptl_crystal_colour            colorless
_exptl_crystal_description       prism
_cell_formula_units_Z            4
loop_
_atom_site_label
_atom_site_type_symbol
_atom_site_fract_x
_atom_site_fract_y
_atom_site_fract_z
O1 O 0.5719(3) 0.45418(12) 0.54160(4)
O2 O 0.1201(2) 0.62852(10) 0.46907(4)
O3 O 0.5480(2) 0.41363(9) 0.40596(3)
O4 O 0.6091(3) 0.21269(11) 0.31888(4)
O5 O 0.3995(2) 0.30986(10) 0.27533(4)
H1 H 0.4688 0.2648 0.2821
O6 O 0.0802(2) 0.57457(9) 0.32087(3)
O7 O -0.3291(2) 0.54013(13) 0.28289(4)
C1 C 0.2811(3) 0.58381(14) 0.46965(5)
C2 C 0.4073(4) 0.57488(15) 0.50711(5)
C3 C 0.5178(3) 0.48236(15) 0.51028(6)
C4 C 0.5728(3) 0.42451(13) 0.47421(5)
C5 C 0.4860(3) 0.46572(13) 0.43749(5)
C6 C 0.4435(3) 0.42406(13) 0.37076(5)
C7 C 0.4804(3) 0.35442(13) 0.34178(5)
C8 C 0.3765(3) 0.36825(13) 0.30552(5)
C9 C 0.2457(3) 0.44338(13) 0.30013(5)
C10 C 0.2135(3) 0.50464(13) 0.33004(5)
C11 C 0.3126(3) 0.49877(13) 0.36595(5)
C12 C 0.2956(3) 0.57616(13) 0.39518(5)
H2 H 0.1486 0.5942 0.3970
C13 C 0.3627(3) 0.54051(13) 0.43426(5)
C14 C 0.5846(5) 0.64829(17) 0.50498(8)
H3 H 0.6684 0.6446 0.5280
H4 H 0.5250 0.7092 0.5030
H5 H 0.6700 0.6363 0.4827
C15 C 0.2722(6) 0.5913(2) 0.54251(7)
H6 H 0.1638 0.5454 0.5434
H7 H 0.2111 0.6521 0.5410
H8 H 0.3562 0.5869 0.5655
C16 C 0.8125(3) 0.42014(18) 0.47190(6)
H9 H 0.8530 0.3844 0.4496
H10 H 0.8663 0.3914 0.4949
H11 H 0.8676 0.4819 0.4697
C17 C 0.4826(4) 0.32712(15) 0.48104(6)
H12 H 0.3334 0.3309 0.4826
H13 H 0.5368 0.3024 0.5048
H14 H 0.5210 0.2872 0.4599
C18 C 0.6045(3) 0.26965(14) 0.34605(5)
C19 C 0.7370(3) 0.24360(14) 0.38073(6)
H15 H 0.6981 0.2827 0.4029
C20 C 0.7021(5) 0.14186(19) 0.39121(9)
H16 H 0.5585 0.1325 0.3979
H17 H 0.7887 0.1256 0.4129
H18 H 0.7372 0.1035 0.3694
C21 C 0.9644(4) 0.2617(2) 0.37026(8)
H19 H 1.0006 0.2239 0.3480
H20 H 0.9792 0.3263 0.3627
C22 C 1.1163(4) 0.2413(2) 0.40256(8)
H21 H 1.2557 0.2529 0.3937
H22 H 1.1034 0.1775 0.4102
H23 H 1.0863 0.2807 0.4243
C23 C 0.4217(4) 0.66229(14) 0.38122(6)
H24 H 0.3765 0.6753 0.3546
C24 C 0.6553(4) 0.64371(17) 0.37946(7)
H25 H 0.7261 0.6985 0.3707
H26 H 0.6820 0.5936 0.3618
H27 H 0.7050 0.6273 0.4048
C25 C 0.3722(5) 0.74852(14) 0.40502(7)
H28 H 0.4530 0.7999 0.3956
H29 H 0.4060 0.7373 0.4317
H30 H 0.2266 0.7627 0.4027
C26 C 0.0566(3) 0.57305(13) 0.27788(5)
C27 C -0.1656(3) 0.59805(16) 0.26845(5)
H31 H -0.1965 0.6647 0.2678
C28 C -0.2885(3) 0.54008(17) 0.24172(6)
H32 H -0.3902 0.5730 0.2256
C29 C -0.2014(3) 0.45141(16) 0.22504(6)
H33 H -0.3179 0.4083 0.2212
C30 C -0.0543(3) 0.40834(15) 0.25496(6)
H34 H -0.1321 0.3936 0.2783
H35 H 0.0022 0.3509 0.2447
C31 C 0.1245(3) 0.47379(13) 0.26521(5)
H36 H 0.2191 0.4786 0.2430
C32 C 0.2006(3) 0.64700(14) 0.26260(6)
H37 H 0.1532 0.7069 0.2711
H38 H 0.2015 0.6451 0.2348
H39 H 0.3390 0.6362 0.2722
C33 C -0.1012(4) 0.46986(17) 0.18480(6)
H40 H 0.0012 0.5198 0.1879
C34 C -0.2642(5) 0.5021(2) 0.15537(7)
H41 H -0.1980 0.5134 0.1308
H42 H -0.3283 0.5583 0.1644
H43 H -0.3686 0.4549 0.1524
C35 C 0.0126(5) 0.3849(2) 0.16925(7)
H44 H 0.0728 0.3993 0.1445
H45 H -0.0842 0.3345 0.1664
H46 H 0.1208 0.3674 0.1870
loop_
_geom_bond_atom_site_label_1
_geom_bond_atom_site_label_2
_geom_bond_site_symmetry_1
_geom_bond_site_symmetry_2
O1 C3 1_555 1_555
O2 C1 1_555 1_555
O3 C5 1_555 1_555
O4 C18 1_555 1_555
O5 H1 1_555 1_555
O6 C10 1_555 1_555
O7 C27 1_555 1_555
C1 C2 1_555 1_555
C2 C3 1_555 1_555
C3 C4 1_555 1_555
C4 C5 1_555 1_555
C5 C13 1_555 1_555
C6 O3 1_555 1_555
C7 C6 1_555 1_555
C8 O5 1_555 1_555
C9 C8 1_555 1_555
C10 C9 1_555 1_555
C11 C6 1_555 1_555
C12 C11 1_555 1_555
H2 C12 1_555 1_555
C13 C1 1_555 1_555
C14 C2 1_555 1_555
H3 C14 1_555 1_555
H4 C14 1_555 1_555
H5 C14 1_555 1_555
C15 C2 1_555 1_555
H6 C15 1_555 1_555
H7 C15 1_555 1_555
H8 C15 1_555 1_555
C16 C4 1_555 1_555
H9 C16 1_555 1_555
H10 C16 1_555 1_555
H11 C16 1_555 1_555
C17 C4 1_555 1_555
H12 C17 1_555 1_555
H13 C17 1_555 1_555
H14 C17 1_555 1_555
C18 C7 1_555 1_555
C19 C18 1_555 1_555
H15 C19 1_555 1_555
C20 C19 1_555 1_555
H16 C20 1_555 1_555
H17 C20 1_555 1_555
H18 C20 1_555 1_555
C21 C19 1_555 1_555
H19 C21 1_555 1_555
H20 C21 1_555 1_555
C22 C21 1_555 1_555
H21 C22 1_555 1_555
H22 C22 1_555 1_555
H23 C22 1_555 1_555
C23 C12 1_555 1_555
H24 C23 1_555 1_555
C24 C23 1_555 1_555
H25 C24 1_555 1_555
H26 C24 1_555 1_555
H27 C24 1_555 1_555
C25 C23 1_555 1_555
H28 C25 1_555 1_555
H29 C25 1_555 1_555
H30 C25 1_555 1_555
C26 O6 1_555 1_555
C27 C26 1_555 1_555
H31 C27 1_555 1_555
C28 O7 1_555 1_555
H32 C28 1_555 1_555
C29 C28 1_555 1_555
H33 C29 1_555 1_555
C30 C29 1_555 1_555
H34 C30 1_555 1_555
H35 C30 1_555 1_555
C31 C9 1_555 1_555
H36 C31 1_555 1_555
C32 C26 1_555 1_555
H37 C32 1_555 1_555
H38 C32 1_555 1_555
H39 C32 1_555 1_555
C33 C29 1_555 1_555
H40 C33 1_555 1_555
C34 C33 1_555 1_555
H41 C34 1_555 1_555
H42 C34 1_555 1_555
H43 C34 1_555 1_555
C35 C33 1_555 1_555
H44 C35 1_555 1_555
H45 C35 1_555 1_555
H46 C35 1_555 1_555
C7 C8 1_555 1_555
C10 C11 1_555 1_555
C12 C13 1_555 1_555
C26 C31 1_555 1_555
C27 C28 1_555 1_555
C30 C31 1_555 1_555

#END
