
#######################################################################
#
#                 Cambridge Crystallographic Data Centre
#                                CCDC 
#
#######################################################################
#
# If this CIF has been generated from an entry in the Cambridge 
# Structural Database, then it will include bibliographic, chemical, 
# crystal, experimental, refinement or atomic coordinate data resulting 
# from the CCDC's data processing and validation procedures.
#
#######################################################################

data_BIHLIQ
_chemical_compound_source        'twigs and leaves of Cllistemon rigidus'
_chemical_name_common            'callistrilone F'
_chemical_formula_moiety         'C35 H48 O8'
_chemical_name_systematic        
5-hydroxy-4-{1-[6-hydroxy-4-methoxy-8a-methyl-7-(2-methylpropanoyl)-2-(propan-2-yl)-1a,2,3,3a,8a,8b-hexahydro-1,8-dioxacyclopropa[a]fluoren-5-yl]-2-methylpropyl}-2,2,6,6-tetramethylcyclohex-4-ene-1,3-dione
_chemical_properties_biological  
'tested for antiviral activity against HSV-1 and HEp-2 cells'
_symmetry_cell_setting           orthorhombic
_symmetry_space_group_name_H-M   'P 21 21 21'
_symmetry_Int_Tables_number      19
_space_group_name_Hall           'P 2ac 2ab'
loop_
_symmetry_equiv_pos_site_id
_symmetry_equiv_pos_as_xyz
1 x,y,z
2 1/2-x,-y,1/2+z
3 -x,1/2+y,1/2-z
4 1/2+x,1/2-y,-z
_cell_length_a                   11.78180(10)
_cell_length_b                   13.19640(10)
_cell_length_c                   21.2711(2)
_cell_angle_alpha                90
_cell_angle_beta                 90
_cell_angle_gamma                90
_cell_volume                     3307.17
_exptl_crystal_colour            yellow
_exptl_crystal_description       blocks
_cell_formula_units_Z            4
loop_
_atom_site_label
_atom_site_type_symbol
_atom_site_fract_x
_atom_site_fract_y
_atom_site_fract_z
O1 O 0.0351(3) 0.52037(16) 1.03857(11)
O2 O -0.12353(15) 0.77976(13) 0.92974(9)
O3 O 0.22557(14) 0.64664(12) 0.86170(8)
H1 H 0.229710 0.695180 0.837733
O4 O 0.27342(13) 0.79634(11) 0.78476(8)
H2 H 0.338316 0.798548 0.770901
O5 O 0.46593(14) 0.85912(12) 0.76367(9)
O6 O 0.35846(16) 1.25972(16) 1.00619(9)
O7 O 0.01874(12) 0.99338(11) 0.90672(7)
O8 O 0.36887(13) 1.13468(11) 0.85124(7)
C1 C 0.0478(3) 0.58753(19) 0.99984(12)
C2 C -0.0186(3) 0.68480(19) 1.00492(12)
C3 C -0.0346(2) 0.73564(16) 0.94108(11)
C4 C 0.05986(18) 0.73462(15) 0.89577(10)
C5 C 0.13808(18) 0.65983(16) 0.90113(10)
C6 C 0.1326(2) 0.57149(15) 0.94659(11)
C7 C 0.05145(17) 0.81045(15) 0.84179(10)
H3 H -0.018735 0.847561 0.850821
C8 C 0.0280(2) 0.76084(17) 0.77697(11)
H4 H 0.092888 0.718264 0.765382
C9 C -0.0784(2) 0.6949(2) 0.78078(13)
H5 H -0.141868 0.735849 0.793304
H6 H -0.066875 0.641999 0.811086
H7 H -0.093372 0.665483 0.740347
C10 C 0.0118(3) 0.8422(2) 0.72703(12)
H8 H -0.001789 0.810685 0.687053
H9 H 0.078825 0.883334 0.724557
H10 H -0.052004 0.883910 0.737988
C11 C 0.0532(5) 0.7577(2) 1.04511(16)
H11 H 0.128250 0.762445 1.027731
H12 H 0.057669 0.732448 1.087371
H13 H 0.018594 0.823503 1.045275
C12 C -0.1344(4) 0.6647(3) 1.0351(2)
H14 H -0.173120 0.727860 1.041551
H15 H -0.123932 0.631308 1.074738
H16 H -0.178780 0.622357 1.007821
C13 C 0.2490(2) 0.54767(19) 0.97516(15)
H17 H 0.304098 0.541152 0.942143
H18 H 0.244865 0.485353 0.998330
H19 H 0.271041 0.601595 1.002891
C14 C 0.0902(2) 0.47996(17) 0.90782(13)
H20 H 0.015785 0.494170 0.891670
H21 H 0.087133 0.421017 0.934217
H22 H 0.141321 0.467847 0.873499
C15 C 0.21506(19) 1.11999(18) 1.01713(11)
H23 H 0.211431 1.048798 1.004173
C16 C 0.14596(17) 1.18006(16) 0.97005(11)
H24 H 0.146203 1.250914 0.982183
H25 H 0.068004 1.156483 0.971022
C17 C 0.12027(17) 0.98506(15) 0.87480(9)
C18 C 0.14303(17) 0.89275(15) 0.84369(9)
C19 C 0.24918(18) 0.88483(16) 0.81463(10)
C20 C 0.33336(18) 0.96222(15) 0.81544(10)
C21 C 0.44664(19) 0.94181(17) 0.78997(11)
C22 C 0.5422(2) 1.0174(2) 0.79293(15)
H26 H 0.533836 1.057752 0.831344
C23 C 0.6571(3) 0.9650(4) 0.7944(3)
H27 H 0.665783 0.924324 0.757252
H28 H 0.661776 0.922527 0.830910
H29 H 0.716158 1.015020 0.795815
C24 C 0.5302(4) 1.0869(3) 0.7368(2)
H30 H 0.536432 1.048022 0.698797
H31 H 0.589083 1.137173 0.737811
H32 H 0.457478 1.119663 0.738087
C25 C 0.3324(2) 1.30992(18) 0.86897(15)
H33 H 0.411266 1.321296 0.859973
H34 H 0.306479 1.359430 0.898745
H35 H 0.289159 1.315674 0.830901
C26 C 0.1670(2) 1.1257(2) 1.08456(12)
H36 H 0.084890 1.115033 1.081570
C27 C 0.1852(2) 1.2289(2) 1.11566(13)
H37 H 0.264539 1.238267 1.124256
H38 H 0.143247 1.231815 1.154292
H39 H 0.159359 1.281484 1.087940
C28 C 0.2148(4) 1.0406(3) 1.12548(14)
H40 H 0.295421 1.048627 1.129471
H41 H 0.198461 0.976354 1.106296
H42 H 0.180385 1.043275 1.166360
C29 C -0.06347(19) 1.0581(2) 0.87747(14)
H43 H -0.033895 1.125741 0.874906
H44 H -0.131900 1.058265 0.901971
H45 H -0.079694 1.033576 0.835934
C30 C 0.3373(2) 1.1513(2) 1.01362(12)
H46 H 0.389684 1.114772 1.041284
C31 C 0.19169(17) 1.17046(15) 0.90303(10)
H47 H 0.144625 1.212085 0.875165
C32 C 0.30150(17) 1.05120(15) 0.84677(10)
C33 C 0.31737(18) 1.20496(15) 0.89620(11)
C34 C 0.19764(16) 1.06372(15) 0.87618(10)
C35 C 0.38590(19) 1.1916(2) 0.95554(12)
H48 H 0.466976 1.178292 0.949370
loop_
_geom_bond_atom_site_label_1
_geom_bond_atom_site_label_2
_geom_bond_site_symmetry_1
_geom_bond_site_symmetry_2
O1 C1 1_555 1_555
O2 C3 1_555 1_555
O3 H1 1_555 1_555
O4 H2 1_555 1_555
O5 C21 1_555 1_555
O6 C30 1_555 1_555
O7 C17 1_555 1_555
O8 C32 1_555 1_555
C1 C2 1_555 1_555
C2 C3 1_555 1_555
C3 C4 1_555 1_555
C4 C5 1_555 1_555
C5 O3 1_555 1_555
C6 C1 1_555 1_555
C7 C4 1_555 1_555
H3 C7 1_555 1_555
C8 C7 1_555 1_555
H4 C8 1_555 1_555
C9 C8 1_555 1_555
H5 C9 1_555 1_555
H6 C9 1_555 1_555
H7 C9 1_555 1_555
C10 C8 1_555 1_555
H8 C10 1_555 1_555
H9 C10 1_555 1_555
H10 C10 1_555 1_555
C11 C2 1_555 1_555
H11 C11 1_555 1_555
H12 C11 1_555 1_555
H13 C11 1_555 1_555
C12 C2 1_555 1_555
H14 C12 1_555 1_555
H15 C12 1_555 1_555
H16 C12 1_555 1_555
C13 C6 1_555 1_555
H17 C13 1_555 1_555
H18 C13 1_555 1_555
H19 C13 1_555 1_555
C14 C6 1_555 1_555
H20 C14 1_555 1_555
H21 C14 1_555 1_555
H22 C14 1_555 1_555
C15 H23 1_555 1_555
C16 C15 1_555 1_555
H24 C16 1_555 1_555
H25 C16 1_555 1_555
C17 C18 1_555 1_555
C18 C7 1_555 1_555
C19 O4 1_555 1_555
C20 C19 1_555 1_555
C21 C20 1_555 1_555
C22 C21 1_555 1_555
H26 C22 1_555 1_555
C23 C22 1_555 1_555
H27 C23 1_555 1_555
H28 C23 1_555 1_555
H29 C23 1_555 1_555
C24 C22 1_555 1_555
H30 C24 1_555 1_555
H31 C24 1_555 1_555
H32 C24 1_555 1_555
C25 H33 1_555 1_555
H34 C25 1_555 1_555
H35 C25 1_555 1_555
C26 C15 1_555 1_555
H36 C26 1_555 1_555
C27 C26 1_555 1_555
H37 C27 1_555 1_555
H38 C27 1_555 1_555
H39 C27 1_555 1_555
C28 C26 1_555 1_555
H40 C28 1_555 1_555
H41 C28 1_555 1_555
H42 C28 1_555 1_555
C29 O7 1_555 1_555
H43 C29 1_555 1_555
H44 C29 1_555 1_555
H45 C29 1_555 1_555
C30 C15 1_555 1_555
H46 C30 1_555 1_555
C31 C16 1_555 1_555
H47 C31 1_555 1_555
C32 C20 1_555 1_555
C33 O8 1_555 1_555
C34 C17 1_555 1_555
C35 O6 1_555 1_555
H48 C35 1_555 1_555
C5 C6 1_555 1_555
C18 C19 1_555 1_555
C25 C33 1_555 1_555
C30 C35 1_555 1_555
C31 C33 1_555 1_555
C31 C34 1_555 1_555
C32 C34 1_555 1_555
C33 C35 1_555 1_555

#END
