
#######################################################################
#
#                 Cambridge Crystallographic Data Centre
#                                CCDC 
#
#######################################################################
#
# If this CIF has been generated from an entry in the Cambridge 
# Structural Database, then it will include bibliographic, chemical, 
# crystal, experimental, refinement or atomic coordinate data resulting 
# from the CCDC's data processing and validation procedures.
#
#######################################################################

data_BIHPAM
_chemical_formula_moiety         'C22 H13 N1 O2'
_chemical_name_systematic        
12-phenylisoindolo[2,1-b]isoquinoline-5,7-dione
_symmetry_cell_setting           monoclinic
_symmetry_space_group_name_H-M   'C 2/c'
_symmetry_Int_Tables_number      15
_space_group_name_Hall           '-C 2yn'
loop_
_symmetry_equiv_pos_site_id
_symmetry_equiv_pos_as_xyz
1 x,y,z
2 -x,y,1/2-z
3 1/2+x,1/2+y,z
4 1/2-x,1/2+y,1/2-z
5 -x,-y,-z
6 x,-y,1/2+z
7 1/2-x,1/2-y,-z
8 1/2+x,1/2-y,1/2+z
_cell_length_a                   16.6636(11)
_cell_length_b                   11.5002(7)
_cell_length_c                   9.7676(7)
_cell_angle_alpha                90
_cell_angle_beta                 124.362(7)
_cell_angle_gamma                90
_cell_volume                     1545.16
_exptl_crystal_colour            'light colorless'
_exptl_crystal_description       block
_cell_formula_units_Z            4
loop_
_atom_site_label
_atom_site_type_symbol
_atom_site_fract_x
_atom_site_fract_y
_atom_site_fract_z
C1 C 0.6747(5) 0.4557(3) 0.1593(11)
H1 H 0.6802 0.3758 0.1529
C2 C 0.7319(4) 0.5307(4) 0.1371(9)
H2 H 0.7757 0.5008 0.1158
C3 C 0.7237(4) 0.6502(4) 0.1467(8)
H3 H 0.7620 0.7004 0.1318
C4 C 0.6582(4) 0.6948(3) 0.1785(10)
H4 H 0.6527 0.7748 0.1850
C5 C 0.6010(5) 0.6199(5) 0.2008(12)
C6 C 0.6093(6) 0.5004(5) 0.1912(13)
C7 C 0.5550(9) 0.4120(9) 0.2221(19)
C8 C 0.4816(2) 0.5859(3) 0.2615(4)
C9 C 0.5329(2) 0.6629(3) 0.2380(4)
C10 C 0.5222(2) 0.79113(14) 0.2483(5)
C11 C 0.5741(3) 0.8443(3) 0.4031(4)
H5 H 0.6147 0.8003 0.4979
C12 C 0.5655(5) 0.9634(3) 0.4161(7)
H6 H 0.6003 0.9990 0.5196
C13 C 0.5049(7) 1.02924(15) 0.2743(9)
H7 H 0.4991 1.1089 0.2830
C14 C 0.4529(5) 0.9760(3) 0.1195(7)
H8 H 0.4124 1.0201 0.0247
C15 C 0.4616(2) 0.8570(3) 0.1065(4)
H9 H 0.4268 0.8214 0.0030
C16 C 0.4068(6) 0.5970(5) 0.2975(13)
C17 C 0.3697(4) 0.6962(4) 0.3240(10)
H10 H 0.3908 0.7693 0.3165
C18 C 0.3011(4) 0.6861(4) 0.3616(9)
H11 H 0.2762 0.7525 0.3794
C19 C 0.2695(4) 0.5768(4) 0.3728(8)
H12 H 0.2236 0.5701 0.3980
C20 C 0.3067(5) 0.4776(4) 0.3463(11)
H13 H 0.2856 0.4045 0.3537
C21 C 0.3753(6) 0.4877(4) 0.3086(13)
C22 C 0.4278(10) 0.4027(11) 0.283(2)
N1 N 0.4908(10) 0.46369(19) 0.254(2)
O1 O 0.4233(14) 0.2990(13) 0.284(2)
O2 O 0.5668(14) 0.3070(12) 0.221(2)
C1A C 0.3253(5) 0.4557(3) 0.3407(11)
H1A H 0.3198 0.3758 0.3471
C2A C 0.2681(4) 0.5307(4) 0.3629(9)
H2A H 0.2243 0.5008 0.3842
C3A C 0.2763(4) 0.6502(4) 0.3533(8)
H3A H 0.2380 0.7004 0.3682
C4A C 0.3418(4) 0.6948(3) 0.3215(10)
H4A H 0.3473 0.7748 0.3150
C5A C 0.3990(5) 0.6199(5) 0.2992(12)
C6A C 0.3907(6) 0.5004(5) 0.3088(13)
C7A C 0.4450(9) 0.4120(9) 0.2779(19)
C8A C 0.5184(2) 0.5859(3) 0.2385(4)
C9A C 0.4671(2) 0.6629(3) 0.2620(4)
C10A C 0.4778(2) 0.79113(14) 0.2517(5)
C11A C 0.4259(3) 0.8443(3) 0.0969(4)
H5A H 0.3853 0.8003 0.0021
C12A C 0.4345(5) 0.9634(3) 0.0839(7)
H6A H 0.3997 0.9990 -0.0196
C13A C 0.4951(7) 1.02924(15) 0.2257(9)
H7A H 0.5009 1.1089 0.2170
C14A C 0.5471(5) 0.9760(3) 0.3805(7)
H8A H 0.5876 1.0201 0.4753
C15A C 0.5384(2) 0.8570(3) 0.3935(4)
H9A H 0.5732 0.8214 0.4970
C16A C 0.5932(6) 0.5970(5) 0.2025(13)
C17A C 0.6303(4) 0.6962(4) 0.1760(10)
H10A H 0.6092 0.7693 0.1835
C18A C 0.6989(4) 0.6861(4) 0.1384(9)
H11A H 0.7238 0.7525 0.1206
C19A C 0.7305(4) 0.5768(4) 0.1272(8)
H12A H 0.7764 0.5701 0.1020
C20A C 0.6933(5) 0.4776(4) 0.1537(11)
H13A H 0.7144 0.4045 0.1463
C21A C 0.6247(6) 0.4877(4) 0.1914(13)
C22A C 0.5722(10) 0.4027(11) 0.217(2)
N1A N 0.5092(10) 0.46369(19) 0.246(2)
O1A O 0.5767(14) 0.2990(13) 0.216(2)
O2A O 0.4332(14) 0.3070(12) 0.279(2)
loop_
_geom_bond_atom_site_label_1
_geom_bond_atom_site_label_2
_geom_bond_site_symmetry_1
_geom_bond_site_symmetry_2
C1 H1 1_555 1_555
C2 C1 1_555 1_555
H2 C2 1_555 1_555
C3 C2 1_555 1_555
H3 C3 1_555 1_555
C4 C3 1_555 1_555
H4 C4 1_555 1_555
C5 C4 1_555 1_555
C6 C1 1_555 1_555
C7 C6 1_555 1_555
C8 C9 1_555 1_555
C9 C5 1_555 1_555
C10 C9 1_555 1_555
C11 C10 1_555 1_555
H5 C11 1_555 1_555
C12 C11 1_555 1_555
H6 C12 1_555 1_555
C13 C12 1_555 1_555
H7 C13 1_555 1_555
C14 C13 1_555 1_555
H8 C14 1_555 1_555
C15 C10 1_555 1_555
H9 C15 1_555 1_555
C16 C8 1_555 1_555
C17 C16 1_555 1_555
H10 C17 1_555 1_555
C18 C17 1_555 1_555
H11 C18 1_555 1_555
C19 C18 1_555 1_555
H12 C19 1_555 1_555
C20 C19 1_555 1_555
H13 C20 1_555 1_555
C21 C16 1_555 1_555
C22 C21 1_555 1_555
N1 C7 1_555 1_555
O1 C22 1_555 1_555
O2 C7 1_555 1_555
C1A C19 1_555 1_555
H1A C1A 1_555 1_555
C2A C19 1_555 1_555
H2A C2A 1_555 1_555
C3A C18 1_555 1_555
H3A C3A 1_555 1_555
C4A C16 1_555 1_555
H4A C4A 1_555 1_555
C5A C16 1_555 1_555
C6A C16 1_555 1_555
C7A C22 1_555 1_555
C8A C9A 1_555 1_555
C9A C5A 1_555 1_555
C10A C9A 1_555 1_555
C11A C10A 1_555 1_555
H5A C11A 1_555 1_555
C12A C13 1_555 1_555
H6A C12A 1_555 1_555
C13A C12 1_555 1_555
H7A C13A 1_555 1_555
C14A C12 1_555 1_555
H8A C14A 1_555 1_555
C15A C10A 1_555 1_555
H9A C15A 1_555 1_555
C16A C4 1_555 1_555
C17A C4 1_555 1_555
H10A C17A 1_555 1_555
C18A C3 1_555 1_555
H11A C18A 1_555 1_555
C19A C1 1_555 1_555
H12A C19A 1_555 1_555
C20A C1 1_555 1_555
H13A C20A 1_555 1_555
C21A C1 1_555 1_555
C22A C6 1_555 1_555
N1A C7 1_555 1_555
O1A O2 1_555 1_555
O2A C22 1_555 1_555
C2 C19A 1_555 1_555
C2 C20A 1_555 1_555
C3 C19A 1_555 1_555
C4 C18A 1_555 1_555
C5 C6 1_555 1_555
C5 C16A 1_555 1_555
C5 C17A 1_555 1_555
C5 C21A 1_555 1_555
C6 C16A 1_555 1_555
C6 C20A 1_555 1_555
C6 C21A 1_555 1_555
C7 C22A 1_555 1_555
C8 N1 1_555 1_555
C13 C13A 1_555 1_555
C13 C14A 1_555 1_555
C14 C15 1_555 1_555
C14 C12A 1_555 1_555
C14 C13A 1_555 1_555
C17 C4A 1_555 1_555
C17 C5A 1_555 1_555
C18 C4A 1_555 1_555
C19 C3A 1_555 1_555
C20 C21 1_555 1_555
C20 C1A 1_555 1_555
C20 C2A 1_555 1_555
C20 C6A 1_555 1_555
C21 C1A 1_555 1_555
C21 C5A 1_555 1_555
C21 C6A 1_555 1_555
C22 N1 1_555 1_555
C22 C6A 1_555 1_555
C22 N1A 1_555 1_555
N1 C7A 1_555 1_555
N1 C22A 1_555 1_555
N1 N1A 1_555 1_555
O1 O2A 1_555 1_555
O2 C22A 1_555 1_555
C1A C2A 1_555 1_555
C1A C6A 1_555 1_555
C2A C3A 1_555 1_555
C3A C4A 1_555 1_555
C4A C5A 1_555 1_555
C5A C6A 1_555 1_555
C6A C7A 1_555 1_555
C7A N1A 1_555 1_555
C7A O2A 1_555 1_555
C8A C16A 1_555 1_555
C8A N1A 1_555 1_555
C11A C12A 1_555 1_555
C12A C13A 1_555 1_555
C13A C14A 1_555 1_555
C14A C15A 1_555 1_555
C16A C17A 1_555 1_555
C16A C21A 1_555 1_555
C17A C18A 1_555 1_555
C18A C19A 1_555 1_555
C19A C20A 1_555 1_555
C20A C21A 1_555 1_555
C21A C22A 1_555 1_555
C22A N1A 1_555 1_555
C22A O1A 1_555 1_555

#END
