
#######################################################################
#
#                 Cambridge Crystallographic Data Centre
#                                CCDC 
#
#######################################################################
#
# If this CIF has been generated from an entry in the Cambridge 
# Structural Database, then it will include bibliographic, chemical, 
# crystal, experimental, refinement or atomic coordinate data resulting 
# from the CCDC's data processing and validation procedures.
#
#######################################################################

data_BIHPAK
_chemical_formula_moiety         'C16 H16 N2 O4'
_chemical_name_systematic        N,N'-bis(2-Methoxybenzoyl)hydrazine
_symmetry_cell_setting           orthorhombic
_symmetry_space_group_name_H-M   'P b c a'
_symmetry_Int_Tables_number      61
_space_group_name_Hall           '-P 2ac 2ab'
loop_
_symmetry_equiv_pos_site_id
_symmetry_equiv_pos_as_xyz
1 x,y,z
2 1/2+x,y,1/2-z
3 x,1/2-y,1/2+z
4 1/2-x,1/2+y,z
5 -x,-y,-z
6 1/2-x,-y,1/2+z
7 -x,1/2+y,1/2-z
8 1/2+x,1/2-y,-z
_cell_length_a                   13.811(2)
_cell_length_b                   7.1564(11)
_cell_length_c                   15.092(2)
_cell_angle_alpha                90
_cell_angle_beta                 90
_cell_angle_gamma                90
_cell_volume                     1491.65
_exptl_crystal_colour            colorless
_exptl_crystal_description       needle
_chemical_melting_point          204-205deg.C
_cell_formula_units_Z            4
_exptl_crystal_recrystallization_method dichloromethane/methanol
loop_
_atom_site_label
_atom_site_type_symbol
_atom_site_fract_x
_atom_site_fract_y
_atom_site_fract_z
N1 N 0.52776(10) 0.4194(2) 0.50219(11)
O1 O 0.47945(11) 0.37803(19) 0.64057(8)
O2 O 0.62960(9) 0.15255(18) 0.42906(8)
C1 C 0.62888(12) 0.0568(3) 0.50798(11)
C2 C 0.67416(14) -0.1123(3) 0.51933(14)
C3 C 0.67163(15) -0.2025(4) 0.59996(15)
C4 C 0.62441(15) -0.1226(3) 0.67085(15)
C5 C 0.57883(14) 0.0456(3) 0.65978(13)
C6 C 0.57981(12) 0.1412(3) 0.57938(11)
C7 C 0.52525(14) 0.3195(3) 0.57665(13)
C8 C 0.6737(2) 0.0666(4) 0.35340(16)
H1 H 0.7056(12) -0.171(2) 0.4705(11)
H2 H 0.7040(12) -0.322(3) 0.6072(10)
H3 H 0.6243(13) -0.189(3) 0.7275(12)
H4 H 0.5453(12) 0.105(2) 0.7092(10)
H5 H 0.6435(15) -0.056(2) 0.3409(13)
H6 H 0.7449(15) 0.055(3) 0.3630(11)
H7 H 0.6624(14) 0.161(3) 0.3061(12)
H8 H 0.5526(14) 0.372(3) 0.4499(13)
N1D N 0.47224(10) 0.5806(2) 0.49781(11)
C7D C 0.47475(14) 0.6805(3) 0.42335(13)
O1D O 0.52055(11) 0.62197(19) 0.35943(8)
C6D C 0.42019(12) 0.8588(3) 0.42062(11)
C1D C 0.37112(12) 0.9432(3) 0.49202(11)
O2D O 0.37040(9) 0.84745(18) 0.57094(8)
C8D C 0.3263(2) 0.9334(4) 0.64660(16)
H5D H 0.3565(15) 1.056(2) 0.6591(13)
H6D H 0.2551(15) 0.945(3) 0.6370(11)
H7D H 0.3376(14) 0.839(3) 0.6939(12)
C2D C 0.32584(14) 1.1123(3) 0.48067(14)
C3D C 0.32837(15) 1.2025(4) 0.40004(15)
C4D C 0.37559(15) 1.1226(3) 0.32915(15)
C5D C 0.42117(14) 0.9544(3) 0.34022(13)
H4D H 0.4547(12) 0.895(2) 0.2908(10)
H3D H 0.3757(13) 1.189(3) 0.2725(12)
H2D H 0.2960(12) 1.322(3) 0.3928(10)
H1D H 0.2944(12) 1.171(2) 0.5295(11)
H8D H 0.4474(14) 0.628(3) 0.5501(13)
loop_
_geom_bond_atom_site_label_1
_geom_bond_atom_site_label_2
_geom_bond_site_symmetry_1
_geom_bond_site_symmetry_2
N1 C7 1_555 1_555
O1 C7 1_555 1_555
O2 C1 1_555 1_555
C1 C2 1_555 1_555
C2 C3 1_555 1_555
C3 C4 1_555 1_555
C4 C5 1_555 1_555
C5 C6 1_555 1_555
C6 C1 1_555 1_555
C7 C6 1_555 1_555
C8 O2 1_555 1_555
H1 C2 1_555 1_555
H2 C3 1_555 1_555
H3 C4 1_555 1_555
H4 C5 1_555 1_555
H5 C8 1_555 1_555
H6 C8 1_555 1_555
H7 C8 1_555 1_555
H8 N1 1_555 1_555
N1D N1 1_555 1_555
C7D N1D 1_555 1_555
O1D C7D 1_555 1_555
C6D C7D 1_555 1_555
C1D C6D 1_555 1_555
O2D C1D 1_555 1_555
C8D O2D 1_555 1_555
H5D C8D 1_555 1_555
H6D C8D 1_555 1_555
H7D C8D 1_555 1_555
C2D C1D 1_555 1_555
C3D C2D 1_555 1_555
C4D C3D 1_555 1_555
C5D C6D 1_555 1_555
H4D C5D 1_555 1_555
H3D C4D 1_555 1_555
H2D C3D 1_555 1_555
H1D C2D 1_555 1_555
H8D N1D 1_555 1_555
C4D C5D 1_555 1_555

#END
