
#######################################################################
#
#                 Cambridge Crystallographic Data Centre
#                                CCDC 
#
#######################################################################
#
# If this CIF has been generated from an entry in the Cambridge 
# Structural Database, then it will include bibliographic, chemical, 
# crystal, experimental, refinement or atomic coordinate data resulting 
# from the CCDC's data processing and validation procedures.
#
#######################################################################

data_BIHRIU
_chemical_name_common            tris(4-Succinidophenyl)amine
_chemical_formula_moiety         'C30 H24 N4 O6'
_chemical_name_systematic        tris(4-(2,5-Dioxopyrrolidinyl)phenyl)amine
_symmetry_cell_setting           orthorhombic
_symmetry_space_group_name_H-M   'P b c n'
_symmetry_Int_Tables_number      60
_space_group_name_Hall           '-P 2n 2ab'
loop_
_symmetry_equiv_pos_site_id
_symmetry_equiv_pos_as_xyz
1 x,y,z
2 1/2+x,1/2+y,1/2-z
3 x,-y,1/2+z
4 1/2-x,1/2+y,z
5 -x,-y,-z
6 1/2-x,1/2-y,1/2+z
7 -x,y,1/2-z
8 1/2+x,1/2-y,-z
_cell_length_a                   14.892(3)
_cell_length_b                   12.445(3)
_cell_length_c                   13.425(3)
_cell_angle_alpha                90
_cell_angle_beta                 90
_cell_angle_gamma                90
_cell_volume                     2488.07
_exptl_crystal_colour            colorless
_exptl_crystal_description       block
_chemical_melting_point          390.7deg.C
_cell_formula_units_Z            4
_exptl_crystal_recrystallization_method chloroform/dichloromethane/methanol
loop_
_atom_site_label
_atom_site_type_symbol
_atom_site_fract_x
_atom_site_fract_y
_atom_site_fract_z
O1 O 0.38398(9) 0.58401(9) 0.05192(10)
O2 O 0.17376(8) 0.33762(10) -0.03397(10)
O3 O 0.64431(9) -0.31890(10) 0.19496(10)
N1 N 0.5000 0.15781(15) 0.2500
N2 N 0.29031(8) 0.44235(11) 0.02007(10)
N3 N 0.5000 -0.29343(14) 0.2500
C1 C 0.44252(11) 0.22092(12) 0.18629(12)
C2 C 0.47943(10) 0.27379(13) 0.10590(12)
H1 H 0.5392 0.2619 0.0890
C3 C 0.42852(11) 0.34406(13) 0.05058(13)
H2 H 0.4539 0.3796 -0.0035
C4 C 0.33965(10) 0.36177(12) 0.07540(12)
C5 C 0.30127(11) 0.30520(13) 0.15287(12)
H3 H 0.2408 0.3146 0.1678
C6 C 0.35255(11) 0.23483(13) 0.20810(12)
H4 H 0.3265 0.1966 0.2602
C7 C 0.31906(12) 0.54853(14) 0.01154(13)
C8 C 0.25546(13) 0.60449(14) -0.05776(14)
H5 H 0.2876 0.6343 -0.1142
H6 H 0.2245 0.6623 -0.0235
C9 C 0.18982(12) 0.52044(14) -0.09170(14)
H7 H 0.1287 0.5428 -0.0778
H8 H 0.1958 0.5076 -0.1627
C10 C 0.21246(12) 0.42352(14) -0.03506(14)
C11 C 0.5000 0.04597(17) 0.2500
C12 C 0.45553(10) -0.01128(13) 0.17505(12)
H9 H 0.4253 0.0254 0.1248
C13 C 0.45658(10) -0.12276(13) 0.17572(13)
H10 H 0.4275 -0.1604 0.1253
C14 C 0.5000 -0.17839(17) 0.2500
C15 C 0.57369(12) -0.35592(14) 0.22100(13)
C16 C 0.54614(11) -0.47155(12) 0.22610(13)
H11 H 0.5883 -0.5125 0.2660
H12 H 0.5436 -0.5027 0.1599
C1F C 0.55748(11) 0.22092(12) 0.31371(12)
C2F C 0.52057(10) 0.27379(13) 0.39410(12)
H1F H 0.4608 0.2619 0.4110
C3F C 0.57148(11) 0.34406(13) 0.44942(13)
H2F H 0.5461 0.3796 0.5035
C4F C 0.66035(10) 0.36177(12) 0.42460(12)
N2F N 0.70969(8) 0.44235(11) 0.47993(10)
C7F C 0.68094(12) 0.54853(14) 0.48846(13)
O1F O 0.61602(9) 0.58401(9) 0.44808(10)
C8F C 0.74454(13) 0.60449(14) 0.55776(14)
H5F H 0.7124 0.6343 0.6142
H6F H 0.7755 0.6623 0.5235
C9F C 0.81018(12) 0.52044(14) 0.59170(14)
H7F H 0.8713 0.5428 0.5778
H8F H 0.8042 0.5076 0.6627
C10F C 0.78754(12) 0.42352(14) 0.53506(14)
O2F O 0.82624(8) 0.33762(10) 0.53397(10)
C5F C 0.69873(11) 0.30520(13) 0.34713(12)
H3F H 0.7592 0.3146 0.3322
C6F C 0.64745(11) 0.23483(13) 0.29190(12)
H4F H 0.6735 0.1966 0.2398
C16F C 0.45386(11) -0.47155(12) 0.27390(13)
C15F C 0.42631(12) -0.35592(14) 0.27900(13)
O3F O 0.35569(9) -0.31890(10) 0.30504(10)
H11F H 0.4117 -0.5125 0.2340
H12F H 0.4564 -0.5027 0.3401
C13F C 0.54342(10) -0.12276(13) 0.32428(13)
C12F C 0.54447(10) -0.01128(13) 0.32495(12)
H9F H 0.5747 0.0254 0.3752
H10F H 0.5725 -0.1604 0.3747
loop_
_geom_bond_atom_site_label_1
_geom_bond_atom_site_label_2
_geom_bond_site_symmetry_1
_geom_bond_site_symmetry_2
O1 C7 1_555 1_555
O2 C10 1_555 1_555
O3 C15 1_555 1_555
N1 C1 1_555 1_555
N2 C4 1_555 1_555
N3 C14 1_555 1_555
C1 C2 1_555 1_555
C2 H1 1_555 1_555
C3 C2 1_555 1_555
H2 C3 1_555 1_555
C4 C3 1_555 1_555
C5 C4 1_555 1_555
H3 C5 1_555 1_555
C6 C1 1_555 1_555
H4 C6 1_555 1_555
C7 N2 1_555 1_555
C8 C7 1_555 1_555
H5 C8 1_555 1_555
H6 C8 1_555 1_555
C9 C8 1_555 1_555
H7 C9 1_555 1_555
H8 C9 1_555 1_555
C10 N2 1_555 1_555
C11 N1 1_555 1_555
C12 C11 1_555 1_555
H9 C12 1_555 1_555
C13 C12 1_555 1_555
H10 C13 1_555 1_555
C14 C13 1_555 1_555
C15 N3 1_555 1_555
C16 C15 1_555 1_555
H11 C16 1_555 1_555
H12 C16 1_555 1_555
C1F N1 1_555 1_555
C2F C1F 1_555 1_555
H1F C2F 1_555 1_555
C3F C2F 1_555 1_555
H2F C3F 1_555 1_555
C4F C3F 1_555 1_555
N2F C4F 1_555 1_555
C7F N2F 1_555 1_555
O1F C7F 1_555 1_555
C8F C7F 1_555 1_555
H5F C8F 1_555 1_555
H6F C8F 1_555 1_555
C9F C8F 1_555 1_555
H7F C9F 1_555 1_555
H8F C9F 1_555 1_555
C10F N2F 1_555 1_555
O2F C10F 1_555 1_555
C5F C4F 1_555 1_555
H3F C5F 1_555 1_555
C6F C1F 1_555 1_555
H4F C6F 1_555 1_555
C16F C16 1_555 1_555
C15F N3 1_555 1_555
O3F C15F 1_555 1_555
H11F C16F 1_555 1_555
H12F C16F 1_555 1_555
C13F C14 1_555 1_555
C12F C11 1_555 1_555
H9F C12F 1_555 1_555
H10F C13F 1_555 1_555
C5 C6 1_555 1_555
C9 C10 1_555 1_555
C9F C10F 1_555 1_555
C5F C6F 1_555 1_555
C16F C15F 1_555 1_555
C13F C12F 1_555 1_555

#END
