
#######################################################################
#
#                 Cambridge Crystallographic Data Centre
#                                CCDC 
#
#######################################################################
#
# If this CIF has been generated from an entry in the Cambridge 
# Structural Database, then it will include bibliographic, chemical, 
# crystal, experimental, refinement or atomic coordinate data resulting 
# from the CCDC's data processing and validation procedures.
#
#######################################################################

data_BIHROA
_chemical_name_common            tris(4-Maleimidophenyl)amine
_chemical_formula_moiety         'C30 H18 N4 O6'
_chemical_name_systematic        
tris(4-(2,5-Dioxo-2,5-dihydropyrrolyl)phenyl)amine
_symmetry_cell_setting           orthorhombic
_symmetry_space_group_name_H-M   'P b c n'
_symmetry_Int_Tables_number      60
_space_group_name_Hall           '-P 2n 2ab'
loop_
_symmetry_equiv_pos_site_id
_symmetry_equiv_pos_as_xyz
1 x,y,z
2 1/2+x,1/2+y,1/2-z
3 x,-y,1/2+z
4 1/2-x,1/2+y,z
5 -x,-y,-z
6 1/2-x,1/2-y,1/2+z
7 -x,y,1/2-z
8 1/2+x,1/2-y,-z
_cell_length_a                   15.195(3)
_cell_length_b                   12.410(3)
_cell_length_c                   12.884(3)
_cell_angle_alpha                90
_cell_angle_beta                 90
_cell_angle_gamma                90
_cell_volume                     2429.54
_exptl_crystal_colour            orange
_exptl_crystal_description       block
_chemical_melting_point          338.2deg.C
_cell_formula_units_Z            4
_exptl_crystal_recrystallization_method chloroform/dichloromethane/methanol
loop_
_atom_site_label
_atom_site_type_symbol
_atom_site_fract_x
_atom_site_fract_y
_atom_site_fract_z
O1 O 0.32574(10) 0.15093(12) 0.45520(12)
O2 O 0.12369(11) -0.09875(12) 0.54628(12)
O3 O -0.14610(10) 0.81861(13) 0.70855(13)
N1 N 0.0000 0.33401(19) 0.7500
N2 N 0.21040(12) 0.04935(16) 0.51531(13)
N3 N 0.0000 0.7867(2) 0.7500
C1 C 0.05677(14) 0.27144(16) 0.68389(18)
C2 C 0.14632(14) 0.26468(17) 0.70264(16)
H1 H 0.1723 0.3079 0.7530
C3 C 0.19729(14) 0.19276(17) 0.64558(17)
H2 H 0.2573 0.1872 0.6590
C4 C 0.15993(15) 0.12997(18) 0.56965(17)
C5 C 0.07139(14) 0.14125(17) 0.54755(16)
H3 H 0.0461 0.1010 0.4945
C6 C 0.02044(14) 0.21217(16) 0.60409(17)
H4 H -0.0389 0.2201 0.5882
C7 C 0.28721(17) 0.0656(2) 0.46099(18)
C8 C 0.31186(16) -0.03681(19) 0.41332(18)
H5 H 0.3604 -0.0483 0.3707
C9 C 0.25471(17) -0.10880(19) 0.44044(17)
H6 H 0.2558 -0.1810 0.4212
C10 C 0.18728(16) -0.0575(2) 0.50722(19)
C11 C 0.0000 0.4460(2) 0.7500
C12 C 0.04239(12) 0.50297(16) 0.67139(16)
H7 H 0.0712 0.4661 0.6186
C13 C 0.04151(13) 0.61534(16) 0.67203(16)
H8 H 0.0694 0.6530 0.6190
C14 C 0.0000 0.6712(2) 0.7500
C15 C -0.07366(17) 0.85063(18) 0.72940(19)
C16 C -0.04246(12) 0.96385(13) 0.7391(2)
H9 H -0.0773 1.0249 0.7310
C1F C -0.05677(14) 0.27144(16) 0.81611(18)
C2F C -0.14632(14) 0.26468(17) 0.79736(16)
H1F H -0.1723 0.3079 0.7470
C3F C -0.19729(14) 0.19276(17) 0.85442(17)
H2F H -0.2573 0.1872 0.8410
C4F C -0.15993(15) 0.12997(18) 0.93035(17)
N2F N -0.21040(12) 0.04935(16) 0.98469(13)
C7F C -0.28721(17) 0.0656(2) 1.03901(18)
O1F O -0.32574(10) 0.15093(12) 1.04480(12)
C8F C -0.31186(16) -0.03681(19) 1.08668(18)
H5F H -0.3604 -0.0483 1.1293
C9F C -0.25471(17) -0.10880(19) 1.05956(17)
H6F H -0.2558 -0.1810 1.0788
C10F C -0.18728(16) -0.0575(2) 0.99278(19)
O2F O -0.12369(11) -0.09875(12) 0.95372(12)
C5F C -0.07139(14) 0.14125(17) 0.95245(16)
H3F H -0.0461 0.1010 1.0055
C6F C -0.02044(14) 0.21217(16) 0.89591(17)
H4F H 0.0389 0.2201 0.9118
C16F C 0.04246(12) 0.96385(13) 0.7609(2)
C15F C 0.07366(17) 0.85063(18) 0.77060(19)
O3F O 0.14610(10) 0.81861(13) 0.79145(13)
H9F H 0.0773 1.0249 0.7690
C13F C -0.04151(13) 0.61534(16) 0.82797(16)
C12F C -0.04239(12) 0.50297(16) 0.82861(16)
H7F H -0.0712 0.4661 0.8814
H8F H -0.0694 0.6530 0.8810
loop_
_geom_bond_atom_site_label_1
_geom_bond_atom_site_label_2
_geom_bond_site_symmetry_1
_geom_bond_site_symmetry_2
O1 C7 1_555 1_555
O2 C10 1_555 1_555
O3 C15 1_555 1_555
N1 C1 1_555 1_555
N2 C4 1_555 1_555
N3 C14 1_555 1_555
C1 C2 1_555 1_555
C2 H1 1_555 1_555
C3 C2 1_555 1_555
H2 C3 1_555 1_555
C4 C3 1_555 1_555
C5 C4 1_555 1_555
H3 C5 1_555 1_555
C6 C1 1_555 1_555
H4 C6 1_555 1_555
C7 N2 1_555 1_555
C8 C7 1_555 1_555
H5 C8 1_555 1_555
C9 C8 1_555 1_555
H6 C9 1_555 1_555
C10 N2 1_555 1_555
C11 N1 1_555 1_555
C12 C11 1_555 1_555
H7 C12 1_555 1_555
C13 C12 1_555 1_555
H8 C13 1_555 1_555
C14 C13 1_555 1_555
C15 N3 1_555 1_555
C16 C15 1_555 1_555
H9 C16 1_555 1_555
C1F N1 1_555 1_555
C2F C1F 1_555 1_555
H1F C2F 1_555 1_555
C3F C2F 1_555 1_555
H2F C3F 1_555 1_555
C4F C3F 1_555 1_555
N2F C4F 1_555 1_555
C7F N2F 1_555 1_555
O1F C7F 1_555 1_555
C8F C7F 1_555 1_555
H5F C8F 1_555 1_555
C9F C8F 1_555 1_555
H6F C9F 1_555 1_555
C10F N2F 1_555 1_555
O2F C10F 1_555 1_555
C5F C4F 1_555 1_555
H3F C5F 1_555 1_555
C6F C1F 1_555 1_555
H4F C6F 1_555 1_555
C16F C16 1_555 1_555
C15F N3 1_555 1_555
O3F C15F 1_555 1_555
H9F C16F 1_555 1_555
C13F C14 1_555 1_555
C12F C11 1_555 1_555
H7F C12F 1_555 1_555
H8F C13F 1_555 1_555
C5 C6 1_555 1_555
C9 C10 1_555 1_555
C9F C10F 1_555 1_555
C5F C6F 1_555 1_555
C16F C15F 1_555 1_555
C13F C12F 1_555 1_555

#END
