
#######################################################################
#
#                 Cambridge Crystallographic Data Centre
#                                CCDC 
#
#######################################################################
#
# If this CIF has been generated from an entry in the Cambridge 
# Structural Database, then it will include bibliographic, chemical, 
# crystal, experimental, refinement or atomic coordinate data resulting 
# from the CCDC's data processing and validation procedures.
#
#######################################################################

data_BIHVEU
_chemical_formula_moiety         'C23 H29 N3 O10 S1'
_chemical_name_systematic        
'4-Methoxybenzaldehyde 4-(2,3,4,6-tetra-O-acetyl-\b-D-glucopyranosyl)thiosemicarbazone'
_symmetry_cell_setting           orthorhombic
_symmetry_space_group_name_H-M   'P 21 21 21'
_symmetry_Int_Tables_number      19
_space_group_name_Hall           'P 2ac 2ab'
loop_
_symmetry_equiv_pos_site_id
_symmetry_equiv_pos_as_xyz
1 x,y,z
2 1/2-x,-y,1/2+z
3 -x,1/2+y,1/2-z
4 1/2+x,1/2-y,-z
_cell_length_a                   8.7678(5)
_cell_length_b                   17.6042(9)
_cell_length_c                   17.9730(9)
_cell_angle_alpha                90
_cell_angle_beta                 90
_cell_angle_gamma                90
_cell_volume                     2774.13
_exptl_crystal_colour            yellow
_exptl_crystal_description       block
_cell_formula_units_Z            4
loop_
_atom_site_label
_atom_site_type_symbol
_atom_site_fract_x
_atom_site_fract_y
_atom_site_fract_z
S1 S 0.96370(16) 0.38143(9) 0.06817(9)
O1 O 1.4731(7) 0.3133(3) -0.4414(3)
O2 O 0.9360(4) 0.12949(17) -0.04639(18)
O3 O 1.0695(5) 0.1727(2) -0.14322(19)
O4 O 1.0681(4) 0.00243(19) 0.01965(19)
O5 O 0.8284(5) -0.0297(2) 0.0493(3)
O6 O 1.1528(4) 0.0244(2) 0.1703(2)
O7 O 1.3856(6) -0.0244(3) 0.1546(3)
O8 O 1.1897(4) 0.21454(18) 0.09354(17)
O9 O 1.2553(5) 0.2345(2) 0.2510(2)
O11 O 1.310(4) 0.1650(16) 0.3437(8)
N1 N 1.1675(5) 0.3605(2) -0.1238(3)
N2 N 1.0978(5) 0.3907(2) -0.0632(3)
H1 H 1.0799 0.4388 -0.0618
N3 N 1.0968(4) 0.2719(2) -0.0134(2)
H2 H 1.1435 0.2597 -0.0537
C1 C 1.2775(6) 0.3829(3) -0.2417(3)
C2 C 1.3510(6) 0.4362(4) -0.2872(4)
H3 H 1.3530 0.4869 -0.2725
C3 C 1.4205(8) 0.4156(4) -0.3530(4)
H4 H 1.4709 0.4517 -0.3817
C4 C 1.4143(8) 0.3408(4) -0.3759(4)
C5 C 1.3387(9) 0.2871(4) -0.3332(4)
H5 H 1.3314 0.2371 -0.3495
C6 C 1.2736(7) 0.3086(4) -0.2656(4)
H6 H 1.2266 0.2721 -0.2361
C7 C 1.5499(10) 0.3682(6) -0.4889(4)
H7 H 1.5881 0.3431 -0.5325
H8 H 1.6332 0.3908 -0.4622
H9 H 1.4790 0.4071 -0.5034
C8 C 1.2051(6) 0.4082(3) -0.1744(3)
H10 H 1.1854 0.4596 -0.1675
C9 C 1.0550(6) 0.3456(3) -0.0038(3)
C10 C 1.0674(6) 0.2135(3) 0.0402(3)
H11 H 0.9695 0.2225 0.0650
C11 C 1.0664(6) 0.1368(3) 0.0011(3)
H12 H 1.1600 0.1306 -0.0281
C12 C 1.0547(6) 0.0746(3) 0.0579(3)
H13 H 0.9554 0.0774 0.0828
C13 C 1.1799(6) 0.0812(3) 0.1148(3)
H14 H 1.2797 0.0735 0.0914
C14 C 1.1718(6) 0.1588(3) 0.1505(3)
H15 H 1.0724 0.1652 0.1746
C15 C 0.9591(7) 0.1400(3) -0.1208(3)
C16 C 0.8346(7) 0.1080(4) -0.1637(3)
H16 H 0.8530 0.1162 -0.2157
H17 H 0.7408 0.1322 -0.1497
H18 H 0.8276 0.0545 -0.1540
C17 C 0.9455(8) -0.0438(3) 0.0185(4)
C18 C 0.9758(8) -0.1110(4) -0.0278(5)
H19 H 0.8862 -0.1423 -0.0295
H20 H 1.0588 -0.1393 -0.0069
H21 H 1.0020 -0.0951 -0.0773
C19 C 1.2627(10) -0.0268(4) 0.1840(4)
C20 C 1.2114(10) -0.0806(4) 0.2431(5)
H22 H 1.2906 -0.1169 0.2528
H23 H 1.1212 -0.1066 0.2268
H24 H 1.1893 -0.0528 0.2878
C21 C 1.2962(7) 0.1706(4) 0.2063(3)
H25 H 1.3075 0.1258 0.2372
H26 H 1.3922 0.1801 0.1812
C22 C 1.3030(16) 0.2386(7) 0.3205(5)
C23 C 1.2555(13) 0.3067(7) 0.3606(5)
H27 H 1.2602 0.3497 0.3278
H28 H 1.3222 0.3149 0.4022
H29 H 1.1529 0.3003 0.3781
O10? O 1.422(3) 0.2141(16) 0.3329(8)
loop_
_geom_bond_atom_site_label_1
_geom_bond_atom_site_label_2
_geom_bond_site_symmetry_1
_geom_bond_site_symmetry_2
S1 C9 1_555 1_555
O1 C4 1_555 1_555
O2 C11 1_555 1_555
O3 C15 1_555 1_555
O4 C12 1_555 1_555
O5 C17 1_555 1_555
O6 C13 1_555 1_555
O7 C19 1_555 1_555
O8 C10 1_555 1_555
O9 C21 1_555 1_555
O11 C22 1_555 1_555
N1 N2 1_555 1_555
N2 H1 1_555 1_555
N3 H2 1_555 1_555
C1 C2 1_555 1_555
C2 H3 1_555 1_555
C3 C2 1_555 1_555
H4 C3 1_555 1_555
C4 C3 1_555 1_555
C5 C4 1_555 1_555
H5 C5 1_555 1_555
C6 C1 1_555 1_555
H6 C6 1_555 1_555
C7 O1 1_555 1_555
H7 C7 1_555 1_555
H8 C7 1_555 1_555
H9 C7 1_555 1_555
C8 N1 1_555 1_555
H10 C8 1_555 1_555
C9 N2 1_555 1_555
C10 N3 1_555 1_555
H11 C10 1_555 1_555
C11 C10 1_555 1_555
H12 C11 1_555 1_555
C12 C11 1_555 1_555
H13 C12 1_555 1_555
C13 C12 1_555 1_555
H14 C13 1_555 1_555
C14 O8 1_555 1_555
H15 C14 1_555 1_555
C15 O2 1_555 1_555
C16 C15 1_555 1_555
H16 C16 1_555 1_555
H17 C16 1_555 1_555
H18 C16 1_555 1_555
C17 O4 1_555 1_555
C18 C17 1_555 1_555
H19 C18 1_555 1_555
H20 C18 1_555 1_555
H21 C18 1_555 1_555
C19 O6 1_555 1_555
C20 C19 1_555 1_555
H22 C20 1_555 1_555
H23 C20 1_555 1_555
H24 C20 1_555 1_555
C21 C14 1_555 1_555
H25 C21 1_555 1_555
H26 C21 1_555 1_555
C22 O9 1_555 1_555
C23 C22 1_555 1_555
H27 C23 1_555 1_555
H28 C23 1_555 1_555
H29 C23 1_555 1_555
N3 C9 1_555 1_555
C1 C8 1_555 1_555
C5 C6 1_555 1_555
C13 C14 1_555 1_555

#END
