
#######################################################################
#
#                 Cambridge Crystallographic Data Centre
#                                CCDC 
#
#######################################################################
#
# If this CIF has been generated from an entry in the Cambridge 
# Structural Database, then it will include bibliographic, chemical, 
# crystal, experimental, refinement or atomic coordinate data resulting 
# from the CCDC's data processing and validation procedures.
#
#######################################################################

data_BIHWOF
_chemical_formula_moiety         'C26 H30 N4 O6'
_chemical_name_systematic        
'Methyl 2-(2-(1-(3-(3,5-dimethoxyphenyl)-1,2,4-oxadiazol-5-yl)-2-(dimethylamino)vinyloxy)phenyl)-3-(dimethylamino)acrylate'
_symmetry_cell_setting           triclinic
_symmetry_space_group_name_H-M   'P -1'
_symmetry_Int_Tables_number      2
_space_group_name_Hall           '-P 1'
loop_
_symmetry_equiv_pos_site_id
_symmetry_equiv_pos_as_xyz
1 x,y,z
2 -x,-y,-z
_cell_length_a                   8.6500(17)
_cell_length_b                   10.700(2)
_cell_length_c                   14.817(3)
_cell_angle_alpha                107.66(3)
_cell_angle_beta                 97.50(3)
_cell_angle_gamma                95.15(3)
_cell_volume                     1283.38
_exptl_crystal_colour            colorless
_exptl_crystal_description       block
_cell_formula_units_Z            2
_exptl_crystal_recrystallization_method ethanol
loop_
_atom_site_label
_atom_site_type_symbol
_atom_site_fract_x
_atom_site_fract_y
_atom_site_fract_z
O1 O 0.2008(3) 0.6477(3) 0.6165(2)
O2 O 0.0547(4) 0.6917(3) 0.7668(2)
N1 N -0.0138(4) 0.4823(3) 0.7549(2)
C1 C -0.2751(5) 0.5761(4) 1.0384(3)
C2 C -0.1481(5) 0.5243(4) 0.8995(3)
O3 O -0.3198(4) 0.6760(3) 1.1086(2)
C3 C -0.1947(5) 0.6176(4) 0.9754(3)
H1 H -0.1719 0.7074 0.9838
C4 C 0.0561(5) 0.5641(4) 0.7178(3)
C5 C -0.0624(5) 0.5673(4) 0.8331(3)
N2 N -0.0253(5) 0.6929(4) 0.8451(3)
O4 O -0.2890(5) 0.2174(3) 0.9339(2)
C6 C 0.3841(5) 0.8415(4) 0.6754(3)
C7 C 0.3422(5) 0.7114(4) 0.6734(3)
C8 C 0.1336(5) 0.5367(4) 0.6359(3)
C9 C 0.1288(5) 0.4107(5) 0.5782(3)
H2 H 0.0687 0.3481 0.5958
N3 N 0.1942(5) 0.3598(4) 0.5009(3)
C10 C -0.3073(5) 0.4429(4) 1.0282(3)
H3 H -0.3594 0.4157 1.0715
C11 C -0.1817(5) 0.3911(4) 0.8879(3)
H4 H -0.1516 0.3280 0.8371
O5 O 0.3857(5) 0.7909(4) 0.4875(2)
C12 C 0.4389(5) 0.6536(5) 0.7256(3)
H5 H 0.4096 0.5672 0.7244
N4 N 0.1334(5) 1.0292(4) 0.7408(3)
C13 C -0.2608(5) 0.3519(4) 0.9529(3)
C14 C 0.2789(6) 0.9039(4) 0.6189(3)
C15 C 0.5788(6) 0.7238(6) 0.7794(3)
H6 H 0.6438 0.6846 0.8147
O6 O 0.1883(6) 0.9031(4) 0.4601(3)
C16 C 0.1727(6) 0.9867(4) 0.6552(3)
H7 H 0.1185 1.0187 0.6103
C17 C -0.3762(6) 0.6448(5) 1.1859(3)
H8 H -0.4031 0.7232 1.2295
H9 H -0.2959 0.6107 1.2190
H10 H -0.4678 0.5793 1.1614
C18 C 0.2756(7) 0.8715(5) 0.5172(4)
C19 C 0.5273(6) 0.9081(5) 0.7291(4)
H11 H 0.5593 0.9938 0.7297
C20 C -0.3652(7) 0.1707(5) 0.9979(4)
H12 H -0.3779 0.0757 0.9767
H13 H -0.4667 0.2002 0.9996
H14 H -0.3032 0.2044 1.0609
C21 C 0.2012(7) 1.0022(5) 0.8251(4)
H15 H 0.2821 0.9471 0.8100
H16 H 0.1211 0.9575 0.8479
H17 H 0.2460 1.0840 0.8740
C22 C 0.0081(7) 1.1133(6) 0.7554(4)
H18 H -0.0321 1.1263 0.6958
H19 H 0.0496 1.1974 0.8025
H20 H -0.0753 1.0713 0.7774
C23 C 0.6233(6) 0.8502(6) 0.7816(4)
H21 H 0.7181 0.8972 0.8184
C24 C 0.3929(10) 0.7522(8) 0.3874(4)
H22 H 0.4736 0.6965 0.3741
H23 H 0.4165 0.8296 0.3691
H24 H 0.2933 0.7044 0.3517
C25 C 0.2816(6) 0.4390(6) 0.4553(4)
H25 H 0.2928 0.5307 0.4930
H26 H 0.2258 0.4267 0.3922
H27 H 0.3838 0.4118 0.4506
C26 C 0.1713(7) 0.2199(5) 0.4517(4)
H28 H 0.1133 0.1751 0.4865
H29 H 0.2718 0.1890 0.4475
H30 H 0.1136 0.2020 0.3882
loop_
_geom_bond_atom_site_label_1
_geom_bond_atom_site_label_2
_geom_bond_site_symmetry_1
_geom_bond_site_symmetry_2
O1 C7 1_555 1_555
O2 C4 1_555 1_555
N1 C4 1_555 1_555
C1 O3 1_555 1_555
C2 C3 1_555 1_555
O3 C17 1_555 1_555
C3 C1 1_555 1_555
H1 C3 1_555 1_555
C4 C8 1_555 1_555
C5 N1 1_555 1_555
N2 O2 1_555 1_555
O4 C13 1_555 1_555
C6 C7 1_555 1_555
C7 C12 1_555 1_555
C8 O1 1_555 1_555
C9 C8 1_555 1_555
H2 C9 1_555 1_555
N3 C9 1_555 1_555
C10 C1 1_555 1_555
H3 C10 1_555 1_555
C11 C2 1_555 1_555
H4 C11 1_555 1_555
O5 C18 1_555 1_555
C12 H5 1_555 1_555
N4 C16 1_555 1_555
C13 C10 1_555 1_555
C14 C6 1_555 1_555
C15 C12 1_555 1_555
H6 C15 1_555 1_555
O6 C18 1_555 1_555
C16 C14 1_555 1_555
H7 C16 1_555 1_555
C17 H8 1_555 1_555
H9 C17 1_555 1_555
H10 C17 1_555 1_555
C18 C14 1_555 1_555
C19 C6 1_555 1_555
H11 C19 1_555 1_555
C20 O4 1_555 1_555
H12 C20 1_555 1_555
H13 C20 1_555 1_555
H14 C20 1_555 1_555
C21 N4 1_555 1_555
H15 C21 1_555 1_555
H16 C21 1_555 1_555
H17 C21 1_555 1_555
C22 N4 1_555 1_555
H18 C22 1_555 1_555
H19 C22 1_555 1_555
H20 C22 1_555 1_555
C23 C15 1_555 1_555
H21 C23 1_555 1_555
C24 O5 1_555 1_555
H22 C24 1_555 1_555
H23 C24 1_555 1_555
H24 C24 1_555 1_555
C25 N3 1_555 1_555
H25 C25 1_555 1_555
H26 C25 1_555 1_555
H27 C25 1_555 1_555
C26 N3 1_555 1_555
H28 C26 1_555 1_555
H29 C26 1_555 1_555
H30 C26 1_555 1_555
C2 C5 1_555 1_555
C5 N2 1_555 1_555
C11 C13 1_555 1_555
C19 C23 1_555 1_555

#END
