
#######################################################################
#
#                 Cambridge Crystallographic Data Centre
#                                CCDC 
#
#######################################################################
#
# If this CIF has been generated from an entry in the Cambridge 
# Structural Database, then it will include bibliographic, chemical, 
# crystal, experimental, refinement or atomic coordinate data resulting 
# from the CCDC's data processing and validation procedures.
#
#######################################################################

data_BIHWUN
_chemical_formula_moiety         'C33 H29 N1 O6'
_chemical_name_systematic        
'methyl 2-((2-methoxy-1-(4-(4-methoxyphenyl)-2H-chromen-2-yl)-2-oxo-1-phenylethyl)amino)benzoate'
_symmetry_cell_setting           triclinic
_symmetry_space_group_name_H-M   'P -1'
_symmetry_Int_Tables_number      2
_space_group_name_Hall           '-P 1'
loop_
_symmetry_equiv_pos_site_id
_symmetry_equiv_pos_as_xyz
1 x,y,z
2 -x,-y,-z
_cell_length_a                   10.0311(7)
_cell_length_b                   11.3578(8)
_cell_length_c                   13.7202(9)
_cell_angle_alpha                66.579(2)
_cell_angle_beta                 75.502(2)
_cell_angle_gamma                88.902(2)
_cell_volume                     1383
_exptl_crystal_colour            colorless
_exptl_crystal_description       block
_cell_formula_units_Z            2
loop_
_atom_site_label
_atom_site_type_symbol
_atom_site_fract_x
_atom_site_fract_y
_atom_site_fract_z
O1 O 0.03914(17) -0.45354(15) 0.64001(13)
O2 O 0.04233(15) -0.34092(15) 0.46423(13)
O3 O -0.29633(19) 0.11005(17) 0.35213(15)
O4 O -0.17975(16) -0.00520(14) 0.47139(12)
O5 O 0.30120(15) -0.42481(14) -0.09317(13)
O6 O 0.00078(14) 0.01620(13) 0.26467(11)
N1 N -0.17464(16) -0.20656(15) 0.42538(13)
H1 H -0.1007 -0.2344 0.3977
C1 C -0.1646(2) -0.36297(19) 0.60465(16)
C2 C -0.2318(3) -0.4318(2) 0.71662(19)
H2 H -0.1861 -0.4934 0.7615
C3 C -0.3636(3) -0.4102(2) 0.76123(19)
H3 H -0.4077 -0.4579 0.8351
C4 C -0.4294(2) -0.3167(2) 0.69505(19)
H4 H -0.5171 -0.2988 0.7254
C5 C -0.3679(2) -0.2499(2) 0.58563(17)
H5 H -0.4154 -0.1884 0.5425
C6 C -0.2352(2) -0.27169(18) 0.53659(16)
C7 C -0.3565(2) -0.1301(2) 0.32611(15)
C8 C -0.4034(2) -0.2568(2) 0.36048(19)
H6 H -0.3552 -0.3215 0.3997
C9 C -0.5214(3) -0.2904(3) 0.3379(2)
H7 H -0.5517 -0.3767 0.3624
C10 C -0.5928(3) -0.1960(4) 0.2795(2)
H8 H -0.6730 -0.2177 0.2656
C11 C -0.5455(3) -0.0708(4) 0.2422(2)
H9 H -0.5926 -0.0070 0.2007
C12 C -0.4284(2) -0.0355(3) 0.26444(18)
H10 H -0.3980 0.0511 0.2382
C13 C 0.1121(2) 0.07088(19) 0.17352(16)
C14 C 0.1822(2) 0.1812(2) 0.16091(19)
H11 H 0.1569 0.2150 0.2138
C15 C 0.2902(2) 0.2407(2) 0.0687(2)
H12 H 0.3376 0.3160 0.0585
C16 C 0.3284(2) 0.1890(2) -0.00840(19)
H13 H 0.4002 0.2307 -0.0713
C17 C 0.2610(2) 0.0761(2) 0.00706(17)
H14 H 0.2891 0.0413 -0.0449
C18 C 0.15084(19) 0.01306(19) 0.09969(16)
C19 C 0.12794(19) -0.19195(18) 0.06692(15)
C20 C 0.2671(2) -0.2161(2) 0.05044(17)
H15 H 0.3252 -0.1786 0.0755
C21 C 0.3196(2) -0.2941(2) -0.00209(18)
H16 H 0.4123 -0.3096 -0.0111
C22 C 0.2373(2) -0.34975(19) -0.04152(16)
C23 C 0.0993(2) -0.3277(2) -0.02634(17)
H17 H 0.0420 -0.3647 -0.0524
C24 C 0.0467(2) -0.25016(19) 0.02812(16)
H18 H -0.0467 -0.2369 0.0389
C25 C 0.2309(3) -0.4595(3) -0.1571(2)
H19 H 0.2865 -0.5115 -0.1889
H20 H 0.2144 -0.3830 -0.2147
H21 H 0.1442 -0.5074 -0.1108
C26 C -0.0208(2) -0.3835(2) 0.5605(2)
C27 C 0.1785(3) -0.4797(3) 0.6021(2)
H22 H 0.2128 -0.5294 0.6643
H23 H 0.2354 -0.4000 0.5592
H24 H 0.1804 -0.5273 0.5576
C28 C -0.2419(2) 0.0152(2) 0.39235(18)
C29 C -0.1756(3) 0.0991(3) 0.5063(2)
H25 H -0.1283 0.0752 0.5633
H26 H -0.2682 0.1164 0.5340
H27 H -0.1275 0.1750 0.4447
C30 C 0.06985(19) -0.10658(18) 0.12261(15)
C31 C -0.05572(19) -0.13160(19) 0.19237(15)
H28 H -0.1094 -0.2069 0.2104
C32 C -0.11003(19) -0.03857(19) 0.24144(15)
H29 H -0.1461 0.0312 0.1877
C33 C -0.22485(19) -0.09548(18) 0.35142(15)
loop_
_geom_bond_atom_site_label_1
_geom_bond_atom_site_label_2
_geom_bond_site_symmetry_1
_geom_bond_site_symmetry_2
O1 C26 1_555 1_555
O2 C26 1_555 1_555
O3 C28 1_555 1_555
O4 C28 1_555 1_555
O5 C22 1_555 1_555
O6 C13 1_555 1_555
N1 H1 1_555 1_555
C1 C2 1_555 1_555
C2 H2 1_555 1_555
C3 C2 1_555 1_555
H3 C3 1_555 1_555
C4 C3 1_555 1_555
H4 C4 1_555 1_555
C5 C4 1_555 1_555
H5 C5 1_555 1_555
C6 N1 1_555 1_555
C7 C8 1_555 1_555
C8 H6 1_555 1_555
C9 C8 1_555 1_555
H7 C9 1_555 1_555
C10 C9 1_555 1_555
H8 C10 1_555 1_555
C11 C10 1_555 1_555
H9 C11 1_555 1_555
C12 C7 1_555 1_555
H10 C12 1_555 1_555
C13 C14 1_555 1_555
C14 H11 1_555 1_555
C15 C14 1_555 1_555
H12 C15 1_555 1_555
C16 C15 1_555 1_555
H13 C16 1_555 1_555
C17 C16 1_555 1_555
H14 C17 1_555 1_555
C18 C13 1_555 1_555
C19 C20 1_555 1_555
C20 H15 1_555 1_555
C21 C20 1_555 1_555
H16 C21 1_555 1_555
C22 C21 1_555 1_555
C23 C22 1_555 1_555
H17 C23 1_555 1_555
C24 C19 1_555 1_555
H18 C24 1_555 1_555
C25 O5 1_555 1_555
H19 C25 1_555 1_555
H20 C25 1_555 1_555
H21 C25 1_555 1_555
C26 C1 1_555 1_555
C27 O1 1_555 1_555
H22 C27 1_555 1_555
H23 C27 1_555 1_555
H24 C27 1_555 1_555
C28 C33 1_555 1_555
C29 O4 1_555 1_555
H25 C29 1_555 1_555
H26 C29 1_555 1_555
H27 C29 1_555 1_555
C30 C18 1_555 1_555
C31 C30 1_555 1_555
H28 C31 1_555 1_555
C32 O6 1_555 1_555
H29 C32 1_555 1_555
C33 N1 1_555 1_555
C1 C6 1_555 1_555
C5 C6 1_555 1_555
C7 C33 1_555 1_555
C11 C12 1_555 1_555
C17 C18 1_555 1_555
C19 C30 1_555 1_555
C23 C24 1_555 1_555
C31 C32 1_555 1_555
C32 C33 1_555 1_555

#END
