
#######################################################################
#
#                 Cambridge Crystallographic Data Centre
#                                CCDC 
#
#######################################################################
#
# If this CIF has been generated from an entry in the Cambridge 
# Structural Database, then it will include bibliographic, chemical, 
# crystal, experimental, refinement or atomic coordinate data resulting 
# from the CCDC's data processing and validation procedures.
#
#######################################################################

data_BIJDAA
_chemical_formula_moiety         'C12 H15 Cl1 O7'
_chemical_name_systematic        
'1,4:3,6-Dianhydro-\b-D-fructofuranosyl 3,6-anhydro-4-chloro-4-deoxy-\a-D-galactopyranoside'
_symmetry_cell_setting           orthorhombic
_symmetry_space_group_name_H-M   'P 21 21 21'
_symmetry_Int_Tables_number      19
_space_group_name_Hall           'P 2ac 2ab'
loop_
_symmetry_equiv_pos_site_id
_symmetry_equiv_pos_as_xyz
1 x,y,z
2 1/2-x,-y,1/2+z
3 -x,1/2+y,1/2-z
4 1/2+x,1/2-y,-z
_cell_length_a                   6.4197(13)
_cell_length_b                   10.637(2)
_cell_length_c                   18.706(4)
_cell_angle_alpha                90
_cell_angle_beta                 90
_cell_angle_gamma                90
_cell_volume                     1277.36
_exptl_crystal_colour            colorless
_exptl_crystal_description       prismatic
_chemical_melting_point          '220-221 deg.C'
_cell_formula_units_Z            4
_exptl_crystal_recrystallization_method 'ethyl acetate'
loop_
_atom_site_label
_atom_site_type_symbol
_atom_site_fract_x
_atom_site_fract_y
_atom_site_fract_z
Cl1 Cl 0.87211(18) 0.24934(8) 0.16864(4)
C1 C 0.9003(4) 0.4317(3) 0.39192(12)
H1 H 0.9985 0.5020 0.3885
C2 C 0.8733(5) 0.4174(3) 0.58937(14)
H2 H 0.7484 0.4649 0.6005
H3 H 0.8417 0.3283 0.5910
C3 C 0.9614(4) 0.4549(2) 0.51719(13)
C4 C 0.7136(4) 0.4546(3) 0.34386(14)
H4 H 0.6696 0.5424 0.3486
C5 C 0.7705(4) 0.4288(3) 0.26581(14)
H5 H 0.6540 0.4470 0.2336
C6 C 1.1881(4) 0.4102(3) 0.52317(14)
H6 H 1.2059 0.3189 0.5269
C7 C 0.8373(5) 0.2918(3) 0.26137(14)
H7 H 0.7412 0.2353 0.2864
C8 C 1.2146(5) 0.4821(3) 0.59314(14)
H8 H 1.3510 0.4710 0.6158
C9 C 1.1871(5) 0.6080(3) 0.55467(16)
H9 H 1.1969 0.6824 0.5854
C10 C 1.0460(5) 0.3038(3) 0.29926(14)
H10 H 1.1357 0.2313 0.2895
C11 C 1.3485(5) 0.5997(4) 0.49760(16)
H11 H 1.3223 0.6596 0.4595
H12 H 1.4872 0.6134 0.5166
C12 C 1.1337(5) 0.4231(3) 0.26651(15)
H13 H 1.2193 0.4678 0.3009
H14 H 1.2178 0.4036 0.2249
O1 O 1.0022(3) 0.31582(18) 0.37464(9)
O2 O 0.5428(3) 0.3750(2) 0.36037(12)
O3 O 0.9539(3) 0.49801(19) 0.24648(11)
O4 O 0.8268(3) 0.41932(19) 0.46279(9)
O5 O 0.9864(3) 0.59099(19) 0.51926(11)
O6 O 1.0422(3) 0.4491(2) 0.63764(10)
O7 O 1.3215(3) 0.4704(2) 0.47296(11)
H15 H 0.480(8) 0.399(5) 0.397(3)
loop_
_geom_bond_atom_site_label_1
_geom_bond_atom_site_label_2
_geom_bond_site_symmetry_1
_geom_bond_site_symmetry_2
Cl1 C7 1_555 1_555
C1 H1 1_555 1_555
C2 H2 1_555 1_555
H3 C2 1_555 1_555
C3 C2 1_555 1_555
C4 C1 1_555 1_555
H4 C4 1_555 1_555
C5 C4 1_555 1_555
H5 C5 1_555 1_555
C6 C3 1_555 1_555
H6 C6 1_555 1_555
C7 C5 1_555 1_555
H7 C7 1_555 1_555
C8 C6 1_555 1_555
H8 C8 1_555 1_555
C9 C8 1_555 1_555
H9 C9 1_555 1_555
C10 C7 1_555 1_555
H10 C10 1_555 1_555
C11 C9 1_555 1_555
H11 C11 1_555 1_555
H12 C11 1_555 1_555
C12 C10 1_555 1_555
H13 C12 1_555 1_555
H14 C12 1_555 1_555
O1 C1 1_555 1_555
O2 C4 1_555 1_555
O3 C5 1_555 1_555
O4 C1 1_555 1_555
O5 C3 1_555 1_555
O6 C2 1_555 1_555
O7 C6 1_555 1_555
H15 O2 1_555 1_555
C3 O4 1_555 1_555
C8 O6 1_555 1_555
C9 O5 1_555 1_555
C10 O1 1_555 1_555
C11 O7 1_555 1_555
C12 O3 1_555 1_555

#END
