
#######################################################################
#
#                 Cambridge Crystallographic Data Centre
#                                CCDC 
#
#######################################################################
#
# If this CIF has been generated from an entry in the Cambridge 
# Structural Database, then it will include bibliographic, chemical, 
# crystal, experimental, refinement or atomic coordinate data resulting 
# from the CCDC's data processing and validation procedures.
#
#######################################################################

data_BIJDIJ
_chemical_formula_moiety         'C26 H25 Cl1 O2 S1'
_chemical_name_systematic        
'3-Butyl-1-(4-chlorophenyl)-1H-inden-2-yl 4-methylphenyl sulfone'
_symmetry_cell_setting           monoclinic
_symmetry_space_group_name_H-M   'P 21/n'
_symmetry_Int_Tables_number      14
_space_group_name_Hall           '-P 2yn'
loop_
_symmetry_equiv_pos_site_id
_symmetry_equiv_pos_as_xyz
1 x,y,z
2 1/2-x,1/2+y,1/2-z
3 -x,-y,-z
4 1/2+x,1/2-y,1/2+z
_cell_length_a                   9.3059(13)
_cell_length_b                   12.5675(17)
_cell_length_c                   19.044(3)
_cell_angle_alpha                90
_cell_angle_beta                 90.916(2)
_cell_angle_gamma                90
_cell_volume                     2226.95
_cell_formula_units_Z            4
loop_
_atom_site_label
_atom_site_type_symbol
_atom_site_fract_x
_atom_site_fract_y
_atom_site_fract_z
C1 C -0.1695(3) 0.5737(3) 0.44290(14)
H1 H -0.1478 0.5937 0.4905
H2 H -0.1619 0.4978 0.4382
H3 H -0.2656 0.5956 0.4308
Cl1 Cl -0.40038(6) 1.01317(5) 0.31872(3)
O1 O 0.37769(13) 0.72329(11) 0.24813(7)
S1 S 0.24626(5) 0.78363(4) 0.24498(2)
C2 C -0.0647(2) 0.6269(2) 0.39436(10)
O2 O 0.25130(16) 0.89555(10) 0.26048(7)
C3 C -0.0672(3) 0.7359(2) 0.38378(11)
H4 H -0.1338 0.7770 0.4076
C4 C 0.0267(2) 0.78471(17) 0.33880(10)
H5 H 0.0239 0.8581 0.3325
C5 C 0.12549(19) 0.72343(14) 0.30297(8)
C6 C 0.1293(2) 0.61442(15) 0.31255(10)
H6 H 0.1950 0.5731 0.2883
C7 C 0.0351(2) 0.56749(18) 0.35832(11)
H7 H 0.0388 0.4943 0.3651
C8 C 0.16631(18) 0.77132(13) 0.16113(8)
C9 C 0.07426(19) 0.86152(14) 0.13143(9)
H8 H 0.1377 0.9224 0.1233
C10 C 0.03166(19) 0.81617(15) 0.06065(9)
C11 C 0.09446(19) 0.71666(15) 0.05192(9)
C12 C 0.18050(19) 0.69033(13) 0.11523(9)
C13 C 0.2695(2) 0.59105(15) 0.12033(10)
H9 H 0.2097 0.5305 0.1079
H10 H 0.3016 0.5817 0.1686
C14 C 0.4004(3) 0.59217(19) 0.07310(12)
H11 H 0.4538 0.5267 0.0807
H12 H 0.3672 0.5925 0.0246
C15 C 0.5002(3) 0.6834(2) 0.08380(14)
H13 H 0.5232 0.6901 0.1335
H14 H 0.4527 0.7484 0.0687
C16 C 0.6398(3) 0.6702(3) 0.04310(15)
H15 H 0.6914 0.6094 0.0607
H16 H 0.6979 0.7327 0.0489
H17 H 0.6174 0.6601 -0.0058
C17 C 0.0707(2) 0.65942(17) -0.00991(10)
H18 H 0.1120 0.5927 -0.0161
C18 C -0.0157(2) 0.7040(2) -0.06197(11)
H19 H -0.0322 0.6669 -0.1036
C19 C -0.0775(2) 0.8025(2) -0.05309(10)
H20 H -0.1350 0.8310 -0.0888
C20 C -0.0552(2) 0.85975(17) 0.00837(10)
H21 H -0.0977 0.9260 0.0144
C21 C -0.04894(19) 0.89987(14) 0.17588(8)
C22 C -0.0486(2) 1.00214(15) 0.20273(10)
H22 H 0.0261 1.0481 0.1916
C23 C -0.1572(2) 1.03752(16) 0.24583(11)
H23 H -0.1554 1.1065 0.2635
C24 C -0.2676(2) 0.96976(15) 0.26216(10)
C25 C -0.2731(2) 0.86805(16) 0.23473(10)
H24 H -0.3493 0.8231 0.2450
C26 C -0.1640(2) 0.83398(15) 0.19184(10)
H25 H -0.1676 0.7656 0.1733
loop_
_geom_bond_atom_site_label_1
_geom_bond_atom_site_label_2
_geom_bond_site_symmetry_1
_geom_bond_site_symmetry_2
C1 H1 1_555 1_555
H2 C1 1_555 1_555
H3 C1 1_555 1_555
Cl1 C24 1_555 1_555
O1 S1 1_555 1_555
S1 O2 1_555 1_555
C2 C1 1_555 1_555
C3 C2 1_555 1_555
H4 C3 1_555 1_555
C4 C3 1_555 1_555
H5 C4 1_555 1_555
C5 S1 1_555 1_555
C6 C5 1_555 1_555
H6 C6 1_555 1_555
C7 C2 1_555 1_555
H7 C7 1_555 1_555
C8 S1 1_555 1_555
C9 C8 1_555 1_555
H8 C9 1_555 1_555
C10 C9 1_555 1_555
C11 C10 1_555 1_555
C12 C8 1_555 1_555
C13 C12 1_555 1_555
H9 C13 1_555 1_555
H10 C13 1_555 1_555
C14 C13 1_555 1_555
H11 C14 1_555 1_555
H12 C14 1_555 1_555
C15 C14 1_555 1_555
H13 C15 1_555 1_555
H14 C15 1_555 1_555
C16 C15 1_555 1_555
H15 C16 1_555 1_555
H16 C16 1_555 1_555
H17 C16 1_555 1_555
C17 C11 1_555 1_555
H18 C17 1_555 1_555
C18 C17 1_555 1_555
H19 C18 1_555 1_555
C19 C18 1_555 1_555
H20 C19 1_555 1_555
C20 C10 1_555 1_555
H21 C20 1_555 1_555
C21 C9 1_555 1_555
C22 C21 1_555 1_555
H22 C22 1_555 1_555
C23 C22 1_555 1_555
H23 C23 1_555 1_555
C24 C23 1_555 1_555
C25 C24 1_555 1_555
H24 C25 1_555 1_555
C26 C21 1_555 1_555
H25 C26 1_555 1_555
C4 C5 1_555 1_555
C6 C7 1_555 1_555
C11 C12 1_555 1_555
C19 C20 1_555 1_555
C25 C26 1_555 1_555

#END
