
#######################################################################
#
#                 Cambridge Crystallographic Data Centre
#                                CCDC 
#
#######################################################################
#
# If this CIF has been generated from an entry in the Cambridge 
# Structural Database, then it will include bibliographic, chemical, 
# crystal, experimental, refinement or atomic coordinate data resulting 
# from the CCDC's data processing and validation procedures.
#
#######################################################################

data_BIJFEH
_chemical_formula_moiety         'C18 H15 Br1 N2 O1,0.6(H2 O1)'
_chemical_name_systematic        
'4-(1-(4-Bromobenzoyl)pyrrolidin-2-yl)benzonitrile hydrate'
_symmetry_cell_setting           monoclinic
_symmetry_space_group_name_H-M   'P 21'
_symmetry_Int_Tables_number      4
_space_group_name_Hall           'P 2yb'
loop_
_symmetry_equiv_pos_site_id
_symmetry_equiv_pos_as_xyz
1 x,y,z
2 -x,1/2+y,-z
_cell_length_a                   7.4574(4)
_cell_length_b                   5.6600(3)
_cell_length_c                   19.1444(11)
_cell_angle_alpha                90
_cell_angle_beta                 97.2820(10)
_cell_angle_gamma                90
_cell_volume                     801.546
_exptl_crystal_colour            colorless
_exptl_crystal_description       slab-like
_cell_formula_units_Z            2
loop_
_atom_site_label
_atom_site_type_symbol
_atom_site_fract_x
_atom_site_fract_y
_atom_site_fract_z
Br1 Br 0.62550(2) 0.74919(4) -0.105958(8)
O1 O 0.87278(19) 1.2199(3) 0.22152(7)
N1 N 1.0532(2) 0.8988(3) 0.23355(8)
N2 N 0.5556(2) 0.8006(3) 0.55744(9)
C1 C 1.1244(3) 0.9634(4) 0.30634(9)
H1 H 1.1689 1.1302 0.3076
C2 C 1.2855(3) 0.7941(5) 0.32345(10)
H2 H 1.3843 0.8706 0.3548
H3 H 1.2483 0.6483 0.3463
C3 C 1.3449(3) 0.7390(7) 0.25131(9)
H4 H 1.4190 0.8686 0.2353
H5 H 1.4142 0.5896 0.2524
C4 C 1.1646(3) 0.7175(5) 0.20465(10)
H6 H 1.1779 0.7505 0.1548
H7 H 1.1118 0.5581 0.2082
C5 C 0.9297(3) 1.0377(3) 0.19651(10)
C6 C 0.8596(2) 0.9604(3) 0.12321(10)
C7 C 0.7764(2) 0.7423(5) 0.11001(8)
H8 H 0.7689 0.6344 0.1475
C8 C 0.7041(3) 0.6824(3) 0.04169(11)
H9 H 0.6442 0.5354 0.0326
C9 C 0.7199(2) 0.8373(3) -0.01259(10)
C10 C 0.8030(3) 1.0554(3) -0.00054(10)
H10 H 0.8128 1.1610 -0.0384
C11 C 0.8718(2) 1.1166(3) 0.06789(9)
H11 H 0.9276 1.2663 0.0770
C12 C 0.9848(2) 0.9363(3) 0.35634(9)
C13 C 0.8763(2) 0.7345(5) 0.35412(8)
H12 H 0.8831 0.6197 0.3184
C14 C 0.7583(2) 0.7008(3) 0.40395(10)
H13 H 0.6839 0.5642 0.4022
C15 C 0.7501(2) 0.8699(3) 0.45662(10)
C16 C 0.8545(3) 1.0752(3) 0.45834(10)
H14 H 0.8465 1.1914 0.4936
C17 C 0.9704(3) 1.1065(3) 0.40755(9)
H15 H 1.0407 1.2466 0.4079
C18 C 0.6373(3) 0.8308(3) 0.51162(10)
O2 O 0.5498(3) 0.2443(8) 0.28600(12)
H16 H 0.559(5) 0.195(9) 0.3271(11)
H17 H 0.654(2) 0.254(14) 0.276(2)
loop_
_geom_bond_atom_site_label_1
_geom_bond_atom_site_label_2
_geom_bond_site_symmetry_1
_geom_bond_site_symmetry_2
Br1 C9 1_555 1_555
O1 C5 1_555 1_555
N1 C1 1_555 1_555
N2 C18 1_555 1_555
C1 H1 1_555 1_555
C2 C1 1_555 1_555
H2 C2 1_555 1_555
H3 C2 1_555 1_555
C3 C2 1_555 1_555
H4 C3 1_555 1_555
H5 C3 1_555 1_555
C4 N1 1_555 1_555
H6 C4 1_555 1_555
H7 C4 1_555 1_555
C5 N1 1_555 1_555
C6 C5 1_555 1_555
C7 C6 1_555 1_555
H8 C7 1_555 1_555
C8 C7 1_555 1_555
H9 C8 1_555 1_555
C9 C8 1_555 1_555
C10 C9 1_555 1_555
H10 C10 1_555 1_555
C11 C6 1_555 1_555
H11 C11 1_555 1_555
C12 C1 1_555 1_555
C13 C12 1_555 1_555
H12 C13 1_555 1_555
C14 C13 1_555 1_555
H13 C14 1_555 1_555
C15 C14 1_555 1_555
C16 C15 1_555 1_555
H14 C16 1_555 1_555
C17 C12 1_555 1_555
H15 C17 1_555 1_555
C18 C15 1_555 1_555
O2 H16 1_555 1_555
H17 O2 1_555 1_555
C3 C4 1_555 1_555
C10 C11 1_555 1_555
C16 C17 1_555 1_555

#END
