
#######################################################################
#
#                 Cambridge Crystallographic Data Centre
#                                CCDC 
#
#######################################################################
#
# If this CIF has been generated from an entry in the Cambridge 
# Structural Database, then it will include bibliographic, chemical, 
# crystal, experimental, refinement or atomic coordinate data resulting 
# from the CCDC's data processing and validation procedures.
#
#######################################################################

data_BIJHOU
_chemical_formula_moiety         'C32 H28 B1 F10 N1'
_chemical_name_systematic        
bis(pentafluorophenyl)(phenylethynyl)[1-(2,2,6,6-tetramethylpiperidin-1-ium-1-yl)prop-1-en-2-yl]borate
_symmetry_cell_setting           triclinic
_symmetry_space_group_name_H-M   'P -1'
_symmetry_Int_Tables_number      2
_space_group_name_Hall           '-P 1'
loop_
_symmetry_equiv_pos_site_id
_symmetry_equiv_pos_as_xyz
1 x,y,z
2 -x,-y,-z
_cell_length_a                   8.6741(3)
_cell_length_b                   11.6278(4)
_cell_length_c                   14.9181(5)
_cell_angle_alpha                83.1550(10)
_cell_angle_beta                 85.9390(10)
_cell_angle_gamma                77.6090(10)
_cell_volume                     1457.54
_exptl_crystal_colour            colorless
_exptl_crystal_description       prism
_cell_formula_units_Z            2
loop_
_atom_site_label
_atom_site_type_symbol
_atom_site_fract_x
_atom_site_fract_y
_atom_site_fract_z
N1 N 0.2997(4) 0.0799(2) 0.2457(2)
H1 H 0.402(4) 0.066(3) 0.243(2)
C1 C 0.2515(4) 0.0046(3) 0.3325(3)
C2 C 0.3128(5) -0.1254(3) 0.3189(3)
H2 H 0.4284 -0.1427 0.3194
H3 H 0.2740 -0.1742 0.3701
C3 C 0.2650(6) -0.1610(4) 0.2323(3)
H4 H 0.3077 -0.2455 0.2285
H5 H 0.1496 -0.1471 0.2316
C4 C 0.3283(6) -0.0888(3) 0.1530(3)
H6 H 0.2997 -0.1137 0.0971
H7 H 0.4439 -0.1059 0.1537
C5 C 0.2676(5) 0.0443(3) 0.1521(3)
C6 C 0.0736(5) 0.0324(4) 0.3534(3)
H8 H 0.0496 -0.0113 0.4104
H9 H 0.0202 0.0094 0.3056
H10 H 0.0379 0.1166 0.3576
C7 C 0.3348(5) 0.0346(4) 0.4100(3)
H11 H 0.2932 0.1165 0.4205
H12 H 0.4472 0.0235 0.3948
H13 H 0.3172 -0.0168 0.4642
C8 C 0.0924(5) 0.0816(4) 0.1314(3)
H14 H 0.0782 0.0644 0.0709
H15 H 0.0568 0.1659 0.1355
H16 H 0.0314 0.0382 0.1747
C9 C 0.3633(5) 0.1091(4) 0.0825(3)
H17 H 0.4735 0.0891 0.0976
H18 H 0.3243 0.1938 0.0822
H19 H 0.3534 0.0859 0.0232
C10 C 0.2465(4) 0.2075(3) 0.2513(2)
H20 H 0.1368 0.2369 0.2516
C11 C 0.3355(4) 0.2863(3) 0.2562(2)
C12 C 0.2377(5) 0.4112(3) 0.2573(3)
H21 H 0.1263 0.4089 0.2610
H22 H 0.2615 0.4589 0.2023
H23 H 0.2629 0.4455 0.3091
C13 C 0.6182(4) 0.1336(3) 0.2556(2)
B1 B 0.5268(5) 0.2682(3) 0.2578(3)
C14 C 0.5861(4) 0.3072(3) 0.3518(2)
F1 F 0.3478(3) 0.3088(2) 0.44076(14)
C15 C 0.4994(4) 0.3224(3) 0.4315(2)
F2 F 0.4623(3) 0.3687(2) 0.58317(15)
C16 C 0.5552(5) 0.3537(3) 0.5076(2)
F3 F 0.7637(3) 0.4000(2) 0.57955(16)
C17 C 0.7061(5) 0.3700(3) 0.5062(3)
F4 F 0.9516(3) 0.3664(3) 0.42685(18)
C18 C 0.8012(5) 0.3530(4) 0.4296(3)
F5 F 0.8408(3) 0.3066(2) 0.28216(15)
C19 C 0.7395(5) 0.3221(3) 0.3554(2)
C20 C 0.5880(4) 0.3542(3) 0.1705(2)
F6 F 0.5080(3) 0.52742(18) 0.24682(15)
C21 C 0.5723(4) 0.4754(3) 0.1729(3)
F7 F 0.6001(3) 0.66750(19) 0.11098(18)
C22 C 0.6245(5) 0.5502(3) 0.1043(3)
F8 F 0.7537(4) 0.5772(2) -0.03778(18)
C23 C 0.6991(5) 0.5066(4) 0.0287(3)
F9 F 0.7878(3) 0.3423(2) -0.05301(17)
C24 C 0.7168(5) 0.3873(4) 0.0219(3)
F10 F 0.6857(3) 0.20059(19) 0.07665(15)
C25 C 0.6610(4) 0.3157(3) 0.0911(3)
C26 C 0.6847(4) 0.0315(3) 0.2591(3)
C27 C 0.766(6) -0.0917(14) 0.2674(10)
C28 C 0.785(3) -0.1585(12) 0.3503(9)
H24 H 0.7522 -0.1228 0.4036
C29 C 0.853(2) -0.2783(11) 0.3550(11)
H25 H 0.8618 -0.3248 0.4112
C30 C 0.9063(16) -0.3283(10) 0.2772(12)
H26 H 0.9584 -0.4083 0.2812
C31 C 0.887(2) -0.2656(12) 0.1938(11)
H27 H 0.9214 -0.3022 0.1410
C32 C 0.815(3) -0.1473(12) 0.1892(10)
H28 H 0.7986 -0.1032 0.1323
C33? C 0.758(7) -0.0901(17) 0.2484(14)
C34? C 0.793(4) -0.1741(15) 0.3212(13)
H29? H 0.7631 -0.1528 0.3798
C35? C 0.871(2) -0.2890(13) 0.3109(16)
H30? H 0.8923 -0.3456 0.3613
C36? C 0.916(3) -0.3184(14) 0.2250(16)
H31? H 0.9671 -0.3964 0.2165
C37? C 0.886(3) -0.2349(15) 0.1512(14)
H32? H 0.9195 -0.2562 0.0929
C38? C 0.810(5) -0.1213(17) 0.1621(13)
H33? H 0.7917 -0.0644 0.1116
loop_
_geom_bond_atom_site_label_1
_geom_bond_atom_site_label_2
_geom_bond_site_symmetry_1
_geom_bond_site_symmetry_2
N1 H1 1_555 1_555
C1 N1 1_555 1_555
C2 C1 1_555 1_555
H2 C2 1_555 1_555
H3 C2 1_555 1_555
C3 C2 1_555 1_555
H4 C3 1_555 1_555
H5 C3 1_555 1_555
C4 C3 1_555 1_555
H6 C4 1_555 1_555
H7 C4 1_555 1_555
C5 N1 1_555 1_555
C6 C1 1_555 1_555
H8 C6 1_555 1_555
H9 C6 1_555 1_555
H10 C6 1_555 1_555
C7 C1 1_555 1_555
H11 C7 1_555 1_555
H12 C7 1_555 1_555
H13 C7 1_555 1_555
C8 C5 1_555 1_555
H14 C8 1_555 1_555
H15 C8 1_555 1_555
H16 C8 1_555 1_555
C9 C5 1_555 1_555
H17 C9 1_555 1_555
H18 C9 1_555 1_555
H19 C9 1_555 1_555
C10 N1 1_555 1_555
H20 C10 1_555 1_555
C11 C10 1_555 1_555
C12 C11 1_555 1_555
H21 C12 1_555 1_555
H22 C12 1_555 1_555
H23 C12 1_555 1_555
C13 B1 1_555 1_555
B1 C11 1_555 1_555
C14 B1 1_555 1_555
F1 C15 1_555 1_555
C15 C14 1_555 1_555
F2 C16 1_555 1_555
C16 C15 1_555 1_555
F3 C17 1_555 1_555
C17 C16 1_555 1_555
F4 C18 1_555 1_555
C18 C17 1_555 1_555
F5 C19 1_555 1_555
C19 C14 1_555 1_555
C20 B1 1_555 1_555
F6 C21 1_555 1_555
C21 C20 1_555 1_555
F7 C22 1_555 1_555
C22 C21 1_555 1_555
F8 C23 1_555 1_555
C23 C22 1_555 1_555
F9 C24 1_555 1_555
C24 C23 1_555 1_555
F10 C25 1_555 1_555
C25 C20 1_555 1_555
C26 C13 1_555 1_555
C27 C26 1_555 1_555
C28 C27 1_555 1_555
H24 C28 1_555 1_555
C29 C28 1_555 1_555
H25 C29 1_555 1_555
C30 C29 1_555 1_555
H26 C30 1_555 1_555
C31 C30 1_555 1_555
H27 C31 1_555 1_555
C32 C27 1_555 1_555
H28 C32 1_555 1_555
C4 C5 1_555 1_555
C18 C19 1_555 1_555
C24 C25 1_555 1_555
C31 C32 1_555 1_555

#END
