
#######################################################################
#
#                 Cambridge Crystallographic Data Centre
#                                CCDC 
#
#######################################################################
#
# If this CIF has been generated from an entry in the Cambridge 
# Structural Database, then it will include bibliographic, chemical, 
# crystal, experimental, refinement or atomic coordinate data resulting 
# from the CCDC's data processing and validation procedures.
#
#######################################################################

data_BIJJUC
_chemical_formula_moiety         'C23 H24 B1 F10 N1 Si1'
_chemical_name_systematic        
(2-[bis(propan-2-yl)iminio]-1-(trimethylsilyl)ethylidene)(bis(pentafluorophenyl))borate
_symmetry_cell_setting           monoclinic
_symmetry_space_group_name_H-M   'P 21/c'
_symmetry_Int_Tables_number      14
_space_group_name_Hall           '-P 2ybc'
loop_
_symmetry_equiv_pos_site_id
_symmetry_equiv_pos_as_xyz
1 x,y,z
2 -x,1/2+y,1/2-z
3 -x,-y,-z
4 x,1/2-y,1/2+z
_cell_length_a                   13.3272(5)
_cell_length_b                   12.2348(5)
_cell_length_c                   15.6178(6)
_cell_angle_alpha                90
_cell_angle_beta                 98.650(2)
_cell_angle_gamma                90
_cell_volume                     2517.6
_exptl_crystal_colour            'pale yellow'
_exptl_crystal_description       plate
_cell_formula_units_Z            4
loop_
_atom_site_label
_atom_site_type_symbol
_atom_site_fract_x
_atom_site_fract_y
_atom_site_fract_z
B1 B 0.7233(2) 0.6100(2) 0.4419(2)
C1 C 0.7657(2) 0.5532(2) 0.37389(18)
N1 N 0.78502(17) 0.35790(17) 0.41578(14)
Si1 Si 0.78403(6) 0.61916(6) 0.26833(5)
C2 C 0.8175(2) 0.4510(2) 0.38750(17)
H1 H 0.8848 0.45 0.3743
C3 C 0.8531(2) 0.2599(2) 0.4273(2)
H2 H 0.8087 0.1942 0.4286
C4 C 0.9128(2) 0.2445(2) 0.3526(2)
H3 H 0.8674 0.2533 0.2976
H4 H 0.9425 0.171 0.3555
H5 H 0.9671 0.2991 0.3566
C5 C 0.9221(2) 0.2655(2) 0.5143(2)
H6 H 0.9673 0.3288 0.515
H7 H 0.9626 0.1985 0.5232
H8 H 0.8806 0.273 0.5608
C6 C 0.6768(2) 0.3401(2) 0.42548(18)
H9 H 0.6433 0.4134 0.4235
C7 C 0.6255(2) 0.2747(2) 0.3480(2)
H10 H 0.6333 0.3132 0.2944
H11 H 0.5531 0.2665 0.3519
H12 H 0.657 0.2023 0.348
C8 C 0.6648(2) 0.2877(2) 0.51141(19)
H13 H 0.6937 0.2139 0.514
H14 H 0.5926 0.2835 0.5168
H15 H 0.7003 0.3318 0.5589
C9 C 0.8755(2) 0.7358(2) 0.2835(2)
H16 H 0.8793 0.77 0.2274
H17 H 0.9428 0.7087 0.3085
H18 H 0.8524 0.7897 0.3227
C10 C 0.6608(2) 0.6699(3) 0.2089(2)
H19 H 0.641 0.7368 0.2367
H20 H 0.6084 0.614 0.2102
H21 H 0.6683 0.6857 0.1487
C11 C 0.8332(2) 0.5149(2) 0.19705(19)
H22 H 0.8474 0.5501 0.1438
H23 H 0.7822 0.4575 0.1825
H24 H 0.8958 0.4825 0.2276
C12 C 0.6748(2) 0.7303(2) 0.43076(17)
C13 C 0.7306(2) 0.8210(2) 0.46284(18)
F1 F 0.82842(12) 0.80771(13) 0.49988(10)
C14 C 0.6915(2) 0.9259(2) 0.45971(18)
F2 F 0.75007(14) 1.01144(12) 0.48926(11)
C15 C 0.5916(2) 0.9421(2) 0.42540(19)
F3 F 0.55149(14) 1.04300(12) 0.42323(11)
C16 C 0.5327(2) 0.8551(2) 0.39253(18)
F4 F 0.43492(12) 0.87212(13) 0.35892(11)
C17 C 0.5754(2) 0.7518(2) 0.39527(18)
F5 F 0.51440(12) 0.66870(12) 0.36171(11)
C18 C 0.7328(2) 0.5671(2) 0.53985(18)
C19 C 0.6506(2) 0.5644(2) 0.58522(19)
F6 F 0.55768(12) 0.59442(13) 0.54389(10)
C20 C 0.6558(2) 0.5317(2) 0.67025(19)
F7 F 0.57353(13) 0.53289(14) 0.71060(11)
C21 C 0.7480(2) 0.4997(2) 0.71442(18)
F8 F 0.75687(14) 0.47008(14) 0.79840(10)
C22 C 0.8327(2) 0.5010(2) 0.67333(18)
F9 F 0.92343(13) 0.47170(14) 0.71742(11)
C23 C 0.8237(2) 0.5341(2) 0.58845(18)
F10 F 0.91061(12) 0.53577(13) 0.55338(10)
loop_
_geom_bond_atom_site_label_1
_geom_bond_atom_site_label_2
_geom_bond_site_symmetry_1
_geom_bond_site_symmetry_2
B1 C1 1_555 1_555
C1 Si1 1_555 1_555
N1 C2 1_555 1_555
Si1 C9 1_555 1_555
C2 C1 1_555 1_555
H1 C2 1_555 1_555
C3 N1 1_555 1_555
H2 C3 1_555 1_555
C4 C3 1_555 1_555
H3 C4 1_555 1_555
H4 C4 1_555 1_555
H5 C4 1_555 1_555
C5 C3 1_555 1_555
H6 C5 1_555 1_555
H7 C5 1_555 1_555
H8 C5 1_555 1_555
C6 N1 1_555 1_555
H9 C6 1_555 1_555
C7 C6 1_555 1_555
H10 C7 1_555 1_555
H11 C7 1_555 1_555
H12 C7 1_555 1_555
C8 C6 1_555 1_555
H13 C8 1_555 1_555
H14 C8 1_555 1_555
H15 C8 1_555 1_555
C9 H16 1_555 1_555
H17 C9 1_555 1_555
H18 C9 1_555 1_555
C10 Si1 1_555 1_555
H19 C10 1_555 1_555
H20 C10 1_555 1_555
H21 C10 1_555 1_555
C11 Si1 1_555 1_555
H22 C11 1_555 1_555
H23 C11 1_555 1_555
H24 C11 1_555 1_555
C12 B1 1_555 1_555
C13 C12 1_555 1_555
F1 C13 1_555 1_555
C14 C13 1_555 1_555
F2 C14 1_555 1_555
C15 C14 1_555 1_555
F3 C15 1_555 1_555
C16 C15 1_555 1_555
F4 C16 1_555 1_555
C17 C12 1_555 1_555
F5 C17 1_555 1_555
C18 B1 1_555 1_555
C19 C18 1_555 1_555
F6 C19 1_555 1_555
C20 C19 1_555 1_555
F7 C20 1_555 1_555
C21 C20 1_555 1_555
F8 C21 1_555 1_555
C22 C21 1_555 1_555
F9 C22 1_555 1_555
C23 C18 1_555 1_555
F10 C23 1_555 1_555
C16 C17 1_555 1_555
C22 C23 1_555 1_555

#END
