
#######################################################################
#
#                 Cambridge Crystallographic Data Centre
#                                CCDC 
#
#######################################################################
#
# If this CIF has been generated from an entry in the Cambridge 
# Structural Database, then it will include bibliographic, chemical, 
# crystal, experimental, refinement or atomic coordinate data resulting 
# from the CCDC's data processing and validation procedures.
#
#######################################################################

data_BIJJAI
_chemical_formula_moiety         'C32 H30 B1 F10 N1'
_chemical_name_systematic        
bis(pentafluorophenyl)(2-phenylethyl)[1-(2,2,6,6-tetramethylpiperidin-1-ium-1-ylidene)prop-1-en-2-yl]borate
_symmetry_cell_setting           monoclinic
_symmetry_space_group_name_H-M   'P 21/n'
_symmetry_Int_Tables_number      14
_space_group_name_Hall           '-P 2yn'
loop_
_symmetry_equiv_pos_site_id
_symmetry_equiv_pos_as_xyz
1 x,y,z
2 1/2-x,1/2+y,1/2-z
3 -x,-y,-z
4 1/2+x,1/2-y,1/2+z
_cell_length_a                   10.5438(16)
_cell_length_b                   14.550(2)
_cell_length_c                   19.382(3)
_cell_angle_alpha                90
_cell_angle_beta                 101.141(11)
_cell_angle_gamma                90
_cell_volume                     2917.4
_exptl_crystal_colour            colorless
_exptl_crystal_description       plate
_cell_formula_units_Z            4
loop_
_atom_site_label
_atom_site_type_symbol
_atom_site_fract_x
_atom_site_fract_y
_atom_site_fract_z
N1 N 0.4090(2) 0.91863(15) 0.72564(12)
C1 C 0.5258(3) 0.89983(17) 0.72342(14)
C2 C 0.6437(3) 0.88044(18) 0.72245(14)
C3 C 0.7465(3) 0.95140(19) 0.74885(17)
H1 H 0.7059 1.0119 0.7499
H2 H 0.8089 0.9534 0.7174
H3 H 0.7911 0.9349 0.7964
C4 C 0.3229(3) 0.9628(2) 0.66092(16)
C5 C 0.2456(3) 1.0404(2) 0.68621(17)
H4 H 0.3045 1.0927 0.7013
H5 H 0.179 1.0615 0.6461
C6 C 0.1800(4) 1.0146(3) 0.74606(19)
H6 H 0.1171 0.9645 0.7312
H7 H 0.1326 1.0682 0.7597
C7 C 0.2815(4) 0.9831(3) 0.80830(18)
H8 H 0.2383 0.9689 0.8481
H9 H 0.3425 1.0344 0.8231
C8 C 0.3580(3) 0.8992(2) 0.79335(17)
C9 C 0.4120(3) 1.0010(2) 0.61506(17)
H10 H 0.3608 1.0342 0.5752
H11 H 0.4584 0.9504 0.5976
H12 H 0.4743 1.0432 0.6428
C10 C 0.2356(3) 0.8894(2) 0.62029(18)
H13 H 0.1964 0.9131 0.5737
H14 H 0.1674 0.8733 0.6461
H15 H 0.2869 0.8346 0.615
C11 C 0.4740(3) 0.8876(2) 0.85318(17)
H16 H 0.532 0.9404 0.8541
H17 H 0.5204 0.8311 0.8459
H18 H 0.4443 0.8837 0.898
C12 C 0.2795(3) 0.8108(3) 0.7843(2)
H19 H 0.2566 0.7938 0.8292
H20 H 0.331 0.7616 0.7688
H21 H 0.2005 0.8201 0.749
B1 B 0.6810(3) 0.7747(2) 0.69937(18)
C13 C 0.4511(3) 0.58072(19) 0.58626(15)
C14 C 0.3520(3) 0.6318(2) 0.54706(17)
H22 H 0.3521 0.6968 0.5523
C15 C 0.2526(3) 0.5903(2) 0.50048(18)
H23 H 0.1859 0.6269 0.474
C16 C 0.2497(3) 0.4962(2) 0.49209(17)
H24 H 0.1812 0.4678 0.4602
C17 C 0.3474(3) 0.4440(2) 0.53050(17)
H25 H 0.3467 0.3791 0.5249
C18 C 0.4464(3) 0.4857(2) 0.57714(16)
H26 H 0.5127 0.4487 0.6036
C19 C 0.5512(3) 0.72454(18) 0.65562(15)
H27 H 0.4827 0.7287 0.684
H28 H 0.5211 0.7597 0.6118
C20 C 0.5648(3) 0.62386(19) 0.63588(15)
H29 H 0.642 0.6183 0.6141
H30 H 0.5815 0.5873 0.6798
C21 C 0.7836(3) 0.77910(18) 0.64481(15)
F1 F 0.69235(17) 0.91589(11) 0.58971(9)
C22 C 0.7784(3) 0.84601(19) 0.59370(15)
F2 F 0.84734(19) 0.91600(12) 0.49617(10)
C23 C 0.8559(3) 0.84742(19) 0.54324(15)
F3 F 1.01763(18) 0.77662(12) 0.49257(10)
C24 C 0.9427(3) 0.7776(2) 0.54116(16)
F4 F 1.03538(18) 0.63908(12) 0.58883(11)
C25 C 0.9509(3) 0.70869(19) 0.59045(17)
F5 F 0.88963(16) 0.63951(10) 0.68602(9)
C26 C 0.8743(3) 0.71071(18) 0.64017(16)
C27 C 0.7467(3) 0.73004(18) 0.77699(15)
F6 F 0.55262(16) 0.65904(11) 0.79537(9)
C28 C 0.6787(3) 0.67940(19) 0.81877(15)
F7 F 0.65714(19) 0.59610(12) 0.92070(10)
C29 C 0.7298(3) 0.64675(19) 0.88502(16)
F8 F 0.9090(2) 0.63511(13) 0.97893(10)
C30 C 0.8559(3) 0.6661(2) 0.91498(16)
F9 F 1.05342(18) 0.73577(13) 0.90450(10)
C31 C 0.9290(3) 0.7173(2) 0.87672(17)
F10 F 0.95342(16) 0.79720(11) 0.77718(9)
C32 C 0.8735(3) 0.74731(19) 0.81036(16)
loop_
_geom_bond_atom_site_label_1
_geom_bond_atom_site_label_2
_geom_bond_site_symmetry_1
_geom_bond_site_symmetry_2
N1 C1 1_555 1_555
C1 C2 1_555 1_555
C2 C3 1_555 1_555
C3 H1 1_555 1_555
H2 C3 1_555 1_555
H3 C3 1_555 1_555
C4 N1 1_555 1_555
C5 C4 1_555 1_555
H4 C5 1_555 1_555
H5 C5 1_555 1_555
C6 C5 1_555 1_555
H6 C6 1_555 1_555
H7 C6 1_555 1_555
C7 C6 1_555 1_555
H8 C7 1_555 1_555
H9 C7 1_555 1_555
C8 N1 1_555 1_555
C9 C4 1_555 1_555
H10 C9 1_555 1_555
H11 C9 1_555 1_555
H12 C9 1_555 1_555
C10 C4 1_555 1_555
H13 C10 1_555 1_555
H14 C10 1_555 1_555
H15 C10 1_555 1_555
C11 C8 1_555 1_555
H16 C11 1_555 1_555
H17 C11 1_555 1_555
H18 C11 1_555 1_555
C12 C8 1_555 1_555
H19 C12 1_555 1_555
H20 C12 1_555 1_555
H21 C12 1_555 1_555
B1 C2 1_555 1_555
C13 C14 1_555 1_555
C14 H22 1_555 1_555
C15 C14 1_555 1_555
H23 C15 1_555 1_555
C16 C15 1_555 1_555
H24 C16 1_555 1_555
C17 C16 1_555 1_555
H25 C17 1_555 1_555
C18 C13 1_555 1_555
H26 C18 1_555 1_555
C19 B1 1_555 1_555
H27 C19 1_555 1_555
H28 C19 1_555 1_555
C20 C13 1_555 1_555
H29 C20 1_555 1_555
H30 C20 1_555 1_555
C21 B1 1_555 1_555
F1 C22 1_555 1_555
C22 C21 1_555 1_555
F2 C23 1_555 1_555
C23 C22 1_555 1_555
F3 C24 1_555 1_555
C24 C23 1_555 1_555
F4 C25 1_555 1_555
C25 C24 1_555 1_555
F5 C26 1_555 1_555
C26 C21 1_555 1_555
C27 B1 1_555 1_555
F6 C28 1_555 1_555
C28 C27 1_555 1_555
F7 C29 1_555 1_555
C29 C28 1_555 1_555
F8 C30 1_555 1_555
C30 C29 1_555 1_555
F9 C31 1_555 1_555
C31 C30 1_555 1_555
F10 C32 1_555 1_555
C32 C27 1_555 1_555
C7 C8 1_555 1_555
C17 C18 1_555 1_555
C19 C20 1_555 1_555
C25 C26 1_555 1_555
C31 C32 1_555 1_555

#END
