
#######################################################################
#
#                 Cambridge Crystallographic Data Centre
#                                CCDC 
#
#######################################################################
#
# If this CIF has been generated from an entry in the Cambridge 
# Structural Database, then it will include bibliographic, chemical, 
# crystal, experimental, refinement or atomic coordinate data resulting 
# from the CCDC's data processing and validation procedures.
#
#######################################################################

data_BIJLAJ
_chemical_formula_moiety         'C15 H20 N2 O4'
_chemical_name_systematic        
'Ethyl 4-methylene-N-(4-nitrophenyl)isoleucinate'
_symmetry_cell_setting           monoclinic
_symmetry_space_group_name_H-M   'P 21/c'
_symmetry_Int_Tables_number      14
_space_group_name_Hall           '-P 2ybc'
loop_
_symmetry_equiv_pos_site_id
_symmetry_equiv_pos_as_xyz
1 x,y,z
2 -x,1/2+y,1/2-z
3 -x,-y,-z
4 x,1/2-y,1/2+z
_cell_length_a                   11.861(2)
_cell_length_b                   11.981(2)
_cell_length_c                   12.370(6)
_cell_angle_alpha                90
_cell_angle_beta                 118.89(2)
_cell_angle_gamma                90
_cell_volume                     1539.09
_exptl_crystal_colour            yellow
_exptl_crystal_description       block
_cell_formula_units_Z            4
loop_
_atom_site_label
_atom_site_type_symbol
_atom_site_fract_x
_atom_site_fract_y
_atom_site_fract_z
O1 O 0.27602(10) 0.49913(10) 0.84499(9)
O2 O 0.09740(11) 0.42847(11) 0.68850(10)
N1 N 0.16520(12) 0.56728(12) 0.53593(11)
H1 H 0.0965 0.5909 0.4728
C1 C 0.18569(14) 0.59929(14) 0.65650(13)
H2 H 0.2695 0.6361 0.7023
C2 C 0.21568(16) 0.47526(15) 0.39300(14)
H3 H 0.1390 0.5017 0.3282
C3 C 0.07824(15) 0.68048(14) 0.64159(14)
H4 H -0.0039 0.6415 0.5937
C4 C 0.18055(14) 0.49852(14) 0.72909(13)
C5 C 0.07392(16) 0.78400(14) 0.57032(14)
C6 C 0.36243(15) 0.45936(16) 0.61065(14)
H5 H 0.3854 0.4754 0.6923
C7 C 0.24735(14) 0.50204(13) 0.51493(13)
N2 N 0.49377(15) 0.30221(14) 0.43751(17)
C8 C 0.40861(15) 0.37034(14) 0.46448(15)
C9 C 0.44134(15) 0.39422(16) 0.58478(16)
H6 H 0.5174 0.3660 0.6489
O3 O 0.59543(14) 0.27073(16) 0.52371(16)
C10 C 0.29538(16) 0.41115(16) 0.36779(15)
H7 H 0.2739 0.3950 0.2865
O4 O 0.45965(17) 0.27831(16) 0.33004(16)
C11 C 0.08824(19) 0.71148(17) 0.76584(16)
H8 H 0.0196 0.7616 0.7526
H9 H 0.1695 0.7472 0.8167
H10 H 0.0819 0.6452 0.8062
C12 C 0.27057(17) 0.41393(17) 0.92629(16)
H11 H 0.2722 0.3402 0.8947
H12 H 0.1917 0.4214 0.9311
C13 C -0.0375(2) 0.8166(2) 0.47551(17)
H13 H -0.0226 0.8832 0.4411
H14 H -0.0696 0.7590 0.4140
C14 C 0.3843(2) 0.4291(2) 1.05084(16)
H15 H 0.3827 0.3738 1.1062
H16 H 0.3817 0.5022 1.0814
H17 H 0.4618 0.4212 1.0452
C15 C 0.1951(2) 0.84880(18) 0.6137(2)
H18 H 0.1797 0.9120 0.5606
H19 H 0.2600 0.8021 0.6118
H20 H 0.2240 0.8741 0.6966
loop_
_geom_bond_atom_site_label_1
_geom_bond_atom_site_label_2
_geom_bond_site_symmetry_1
_geom_bond_site_symmetry_2
O1 C4 1_555 1_555
O2 C4 1_555 1_555
N1 H1 1_555 1_555
C1 N1 1_555 1_555
H2 C1 1_555 1_555
C2 H3 1_555 1_555
C3 C1 1_555 1_555
H4 C3 1_555 1_555
C4 C1 1_555 1_555
C5 C3 1_555 1_555
C6 H5 1_555 1_555
C7 N1 1_555 1_555
N2 C8 1_555 1_555
C8 C9 1_555 1_555
C9 C6 1_555 1_555
H6 C9 1_555 1_555
O3 N2 1_555 1_555
C10 C2 1_555 1_555
H7 C10 1_555 1_555
O4 N2 1_555 1_555
C11 C3 1_555 1_555
H8 C11 1_555 1_555
H9 C11 1_555 1_555
H10 C11 1_555 1_555
C12 O1 1_555 1_555
H11 C12 1_555 1_555
H12 C12 1_555 1_555
C13 C5 1_555 1_555
H13 C13 1_555 1_555
H14 C13 1_555 1_555
C14 C12 1_555 1_555
H15 C14 1_555 1_555
H16 C14 1_555 1_555
H17 C14 1_555 1_555
C15 C5 1_555 1_555
H18 C15 1_555 1_555
H19 C15 1_555 1_555
H20 C15 1_555 1_555
C2 C7 1_555 1_555
C6 C7 1_555 1_555
C8 C10 1_555 1_555

#END
