
#######################################################################
#
#                 Cambridge Crystallographic Data Centre
#                                CCDC 
#
#######################################################################
#
# If this CIF has been generated from an entry in the Cambridge 
# Structural Database, then it will include bibliographic, chemical, 
# crystal, experimental, refinement or atomic coordinate data resulting 
# from the CCDC's data processing and validation procedures.
#
#######################################################################

data_BIKCED
_chemical_compound_source        'Abrus cantoniensis Hance'
_chemical_formula_moiety         'C34 H54 O4'
_chemical_name_systematic        'Sophoradiol diacetate'
_symmetry_cell_setting           orthorhombic
_symmetry_space_group_name_H-M   'P 21 21 21'
_symmetry_Int_Tables_number      19
_space_group_name_Hall           'P 2ac 2ab'
loop_
_symmetry_equiv_pos_site_id
_symmetry_equiv_pos_as_xyz
1 x,y,z
2 1/2+x,1/2-y,-z
3 -x,1/2+y,1/2-z
4 1/2-x,-y,1/2+z
_cell_length_a                   7.407(3)
_cell_length_b                   13.180(5)
_cell_length_c                   30.919(12)
_cell_angle_alpha                90
_cell_angle_beta                 90
_cell_angle_gamma                90
_cell_volume                     3018.44
_chemical_melting_point          220-1deg.C
_cell_formula_units_Z            4
loop_
_atom_site_label
_atom_site_type_symbol
_atom_site_fract_x
_atom_site_fract_y
_atom_site_fract_z
C1 C 0.33780 0.03810 0.48020
C2 C 0.31800 0.10540 0.51990
C3 C 0.42670 0.06590 0.55700
C4 C 0.63020 0.05260 0.54810
C5 C 0.64370 -0.01150 0.50580
C6 C 0.84200 -0.03480 0.49430
C7 C 0.84730 -0.12390 0.46170
C8 C 0.73670 -0.10510 0.41950
C9 C 0.54190 -0.06430 0.43270
C10 C 0.53930 0.02680 0.46480
C11 C 0.43570 -0.04360 0.39110
C12 C 0.47100 -0.11370 0.35440
C13 C 0.59080 -0.18930 0.35350
C14 C 0.70380 -0.20970 0.39370
C15 C 0.88700 -0.25930 0.38250
C16 C 0.88160 -0.33530 0.34600
C17 C 0.80020 -0.28960 0.30500
C18 C 0.60500 -0.25590 0.31450
C19 C 0.47420 -0.34830 0.31920
C20 C 0.47650 -0.42220 0.27960
C21 C 0.67520 -0.45590 0.27410
C22 C 0.80880 -0.36680 0.26780
C23 C 0.72520 0.15720 0.54520
C24 C 0.71060 -0.00450 0.58600
C25 C 0.60280 0.12830 0.44700
C26 C 0.84130 -0.02870 0.39090
C27 C 0.60150 -0.28850 0.42190
C28 C 0.91630 -0.19700 0.29000
C29 C 0.38910 -0.37620 0.24040
C30 C 0.37050 -0.51570 0.29400
C31 C 0.25930 0.12850 0.61860
C32 C 0.26450 0.20680 0.65510
C33 C 0.83490 -0.35310 0.19010
C34 C 0.77410 -0.29480 0.15150
O1 O 0.40740 0.13570 0.59350
O2 O 0.14550 0.06630 0.61260
O3 O 0.77110 -0.31750 0.22750
O4 O 0.93430 -0.42910 0.19110
H1 H 0.29130 -0.02820 0.48670
H2 H 0.26860 0.06760 0.45720
H3 H 0.19310 0.10750 0.52810
H4 H 0.35840 0.17270 0.51300
H5 H 0.37980 -0.00040 0.56320
H6 H 0.57920 -0.07200 0.51350
H7 H 0.89680 0.02420 0.48170
H8 H 0.90660 -0.05350 0.52000
H9 H 0.97090 -0.13580 0.45390
H10 H 0.79920 -0.18310 0.47560
H11 H 0.48420 -0.11660 0.44930
H12 H 0.46510 0.02370 0.38160
H13 H 0.30940 -0.04700 0.39790
H14 H 0.39930 -0.10440 0.32880
H15 H 0.93110 -0.29280 0.40800
H16 H 0.96920 -0.20630 0.37440
H17 H 1.00240 -0.35750 0.33990
H18 H 0.80990 -0.39230 0.35490
H19 H 0.56870 -0.21680 0.28980
H20 H 0.50850 -0.38600 0.34440
H21 H 0.35370 -0.32280 0.32270
H22 H 0.68270 -0.49980 0.24940
H23 H 0.71060 -0.49250 0.29960
H24 H 0.92890 -0.39420 0.26730
H25 H 0.66250 0.20610 0.52770
H26 H 0.84570 0.14860 0.53440
H27 H 0.72990 0.18050 0.57450
H28 H 0.65440 -0.06910 0.58090
H29 H 0.66130 0.02520 0.61170
H30 H 0.83840 -0.01380 0.58950
H31 H 0.73200 0.13090 0.44910
H32 H 0.55130 0.18220 0.46390
H33 H 0.56750 0.13610 0.41730
H34 H 0.78670 -0.02000 0.36300
H35 H 0.95730 -0.06030 0.38760
H36 H 0.85580 0.03630 0.40450
H37 H 0.63680 -0.29690 0.45160
H38 H 0.62150 -0.35070 0.40650
H39 H 0.47590 -0.27100 0.42050
H40 H 0.90540 -0.14500 0.31160
H41 H 0.86250 -0.17410 0.26350
H42 H 1.04160 -0.21170 0.28520
H43 H 0.44960 -0.31550 0.23120
H44 H 0.26160 -0.36380 0.24210
H45 H 0.41180 -0.42940 0.21990
H46 H 0.24670 -0.49840 0.29940
H47 H 0.41730 -0.55340 0.31800
H48 H 0.37810 -0.55630 0.26820
loop_
_geom_bond_atom_site_label_1
_geom_bond_atom_site_label_2
_geom_bond_site_symmetry_1
_geom_bond_site_symmetry_2
C1 C2 1_555 1_555
C2 C3 1_555 1_555
C3 C4 1_555 1_555
C4 C5 1_555 1_555
C5 C6 1_555 1_555
C6 C7 1_555 1_555
C7 C8 1_555 1_555
C8 C9 1_555 1_555
C9 C10 1_555 1_555
C10 C1 1_555 1_555
C11 C9 1_555 1_555
C12 C11 1_555 1_555
C13 C12 1_555 1_555
C14 C8 1_555 1_555
C15 C14 1_555 1_555
C16 C15 1_555 1_555
C17 C16 1_555 1_555
C18 C13 1_555 1_555
C19 C18 1_555 1_555
C20 C19 1_555 1_555
C21 C20 1_555 1_555
C22 C17 1_555 1_555
C23 C4 1_555 1_555
C24 C4 1_555 1_555
C25 C10 1_555 1_555
C26 C8 1_555 1_555
C27 C14 1_555 1_555
C28 C17 1_555 1_555
C29 C20 1_555 1_555
C30 C20 1_555 1_555
C31 C32 1_555 1_555
C33 C34 1_555 1_555
O1 C3 1_555 1_555
O2 C31 1_555 1_555
O3 C22 1_555 1_555
O4 C33 1_555 1_555
H1 C1 1_555 1_555
H2 C1 1_555 1_555
H3 C2 1_555 1_555
H4 C2 1_555 1_555
H5 C3 1_555 1_555
H6 C5 1_555 1_555
H7 C6 1_555 1_555
H8 C6 1_555 1_555
H9 C7 1_555 1_555
H10 C7 1_555 1_555
H11 C9 1_555 1_555
H12 C11 1_555 1_555
H13 C11 1_555 1_555
H14 C12 1_555 1_555
H15 C15 1_555 1_555
H16 C15 1_555 1_555
H17 C16 1_555 1_555
H18 C16 1_555 1_555
H19 C18 1_555 1_555
H20 C19 1_555 1_555
H21 C19 1_555 1_555
H22 C21 1_555 1_555
H23 C21 1_555 1_555
H24 C22 1_555 1_555
H25 C23 1_555 1_555
H26 C23 1_555 1_555
H27 C23 1_555 1_555
H28 C24 1_555 1_555
H29 C24 1_555 1_555
H30 C24 1_555 1_555
H31 C25 1_555 1_555
H32 C25 1_555 1_555
H33 C25 1_555 1_555
H34 C26 1_555 1_555
H35 C26 1_555 1_555
H36 C26 1_555 1_555
H37 C27 1_555 1_555
H38 C27 1_555 1_555
H39 C27 1_555 1_555
H40 C28 1_555 1_555
H41 C28 1_555 1_555
H42 C28 1_555 1_555
H43 C29 1_555 1_555
H44 C29 1_555 1_555
H45 C29 1_555 1_555
H46 C30 1_555 1_555
H47 C30 1_555 1_555
H48 C30 1_555 1_555
C5 C10 1_555 1_555
C13 C14 1_555 1_555
C17 C18 1_555 1_555
C21 C22 1_555 1_555
C31 O1 1_555 1_555
C33 O3 1_555 1_555

#END
