
#######################################################################
#
#                 Cambridge Crystallographic Data Centre
#                                CCDC 
#
#######################################################################
#
# If this CIF has been generated from an entry in the Cambridge 
# Structural Database, then it will include bibliographic, chemical, 
# crystal, experimental, refinement or atomic coordinate data resulting 
# from the CCDC's data processing and validation procedures.
#
#######################################################################

data_BIKCOQ
_chemical_formula_moiety         'C19 H20 N2 O4'
_chemical_name_systematic        
N-(5,5,6-trimethoxy-5,6-dihydroquinolin-8-yl)benzamide
_symmetry_cell_setting           monoclinic
_symmetry_space_group_name_H-M   'P 21/n'
_symmetry_Int_Tables_number      14
_space_group_name_Hall           '-P 2yn'
loop_
_symmetry_equiv_pos_site_id
_symmetry_equiv_pos_as_xyz
1 x,y,z
2 1/2-x,1/2+y,1/2-z
3 -x,-y,-z
4 1/2+x,1/2-y,1/2+z
_cell_length_a                   12.595(6)
_cell_length_b                   13.766(7)
_cell_length_c                   20.526(10)
_cell_angle_alpha                90
_cell_angle_beta                 104.476(6)
_cell_angle_gamma                90
_cell_volume                     3445.87
_exptl_crystal_colour            yellow
_exptl_crystal_description       block
_cell_formula_units_Z            8
loop_
_atom_site_label
_atom_site_type_symbol
_atom_site_fract_x
_atom_site_fract_y
_atom_site_fract_z
N1 N 1.0478(2) 0.34270(14) 0.22165(10)
H1 H 1.0918 0.2956 0.2199
O1 O 0.9851(2) 0.48521(14) 0.17331(10)
C1 C 1.1979(3) 0.3337(3) 0.13649(15)
H2 H 1.2116 0.2914 0.1730
O2 O 0.82001(19) 0.25831(14) 0.41359(9)
N2 N 1.0943(2) 0.18903(16) 0.30003(11)
C2 C 1.2587(3) 0.3260(3) 0.08969(17)
H3 H 1.3120 0.2780 0.0946
O3 O 0.75564(18) 0.25281(13) 0.29687(10)
C3 C 1.2423(3) 0.3869(3) 0.03690(17)
H4 H 1.2838 0.3812 0.0055
O4 O 0.93293(18) 0.42067(13) 0.40288(9)
C4 C 1.1638(4) 0.4570(3) 0.03002(18)
H5 H 1.1516 0.4995 -0.0063
C5 C 1.1028(3) 0.4650(2) 0.07649(17)
H6 H 1.0502 0.5138 0.0715
C6 C 1.1176(2) 0.40259(18) 0.13036(12)
C7 C 1.0450(2) 0.41502(18) 0.17697(12)
C8 C 0.9884(2) 0.33446(17) 0.27048(11)
C9 C 1.0099(2) 0.24205(17) 0.30839(12)
C10 C 1.1149(3) 0.1055(2) 0.33431(15)
H7 H 1.1728 0.0673 0.3286
C11 C 1.0551(3) 0.07357(19) 0.37724(14)
H8 H 1.0728 0.0154 0.4005
C12 C 0.9689(3) 0.12860(18) 0.38546(12)
H9 H 0.9272 0.1081 0.4144
C13 C 0.9443(2) 0.21457(17) 0.35061(12)
C14 C 0.8460(2) 0.27637(18) 0.35207(12)
C15 C 0.8662(3) 0.38391(18) 0.34079(12)
H10 H 0.7958 0.4182 0.3303
C16 C 0.9201(2) 0.39937(17) 0.28469(12)
H11 H 0.9054 0.4558 0.2592
C17 C 0.7296(3) 0.3143(3) 0.42484(19)
H12 H 0.7174 0.2976 0.4678
H13 H 0.6648 0.3005 0.3900
H14 H 0.7465 0.3823 0.4242
C18 C 0.7172(3) 0.1551(2) 0.29414(18)
H15 H 0.6566 0.1471 0.2555
H16 H 0.6937 0.1409 0.3342
H17 H 0.7752 0.1116 0.2910
C19 C 0.9385(3) 0.5227(2) 0.40405(16)
H18 H 0.9845 0.5438 0.4463
H19 H 0.8662 0.5490 0.3985
H20 H 0.9685 0.5450 0.3681
N3 N 0.52882(19) 0.38260(14) 0.23396(10)
H21 H 0.5688 0.4308 0.2279
N4 N 0.5867(2) 0.53718(15) 0.31090(10)
O5 O 0.47026(19) 0.23426(13) 0.19380(10)
O6 O 0.43699(18) 0.31595(13) 0.42589(9)
O7 O 0.31931(18) 0.47873(14) 0.43217(9)
O8 O 0.25473(17) 0.47338(13) 0.31570(9)
C20 C 0.6080(3) 0.2705(2) 0.03094(14)
H22 H 0.5839 0.2350 -0.0085
C21 C 0.6990(3) 0.3289(2) 0.03988(14)
H23 H 0.7366 0.3328 0.0063
C22 C 0.7349(3) 0.3816(2) 0.09799(14)
H24 H 0.7965 0.4211 0.1039
C23 C 0.6791(3) 0.3757(2) 0.14737(13)
H25 H 0.7035 0.4113 0.1868
C24 C 0.5878(2) 0.31768(17) 0.13950(11)
C25 C 0.5238(2) 0.30639(17) 0.19119(12)
C26 C 0.4773(2) 0.39251(16) 0.28646(11)
C27 C 0.5032(2) 0.48566(16) 0.32286(11)
C28 C 0.6135(3) 0.6195(2) 0.34620(14)
H26 H 0.6693 0.6576 0.3375
C29 C 0.5631(3) 0.6501(2) 0.39407(14)
H27 H 0.5864 0.7063 0.4187
C30 C 0.4771(3) 0.59653(19) 0.40537(13)
H28 H 0.4421 0.6160 0.4381
C31 C 0.4434(2) 0.51421(17) 0.36820(11)
C32 C 0.3445(2) 0.45434(18) 0.37172(12)
C33 C 0.3653(3) 0.34657(18) 0.36399(13)
H29 H 0.2957 0.3114 0.3572
C34 C 0.4129(2) 0.32785(17) 0.30546(12)
H30 H 0.3970 0.2698 0.2819
C35 C 0.4460(4) 0.2150(2) 0.43105(19)
H31 H 0.4956 0.1980 0.4732
H32 H 0.4735 0.1902 0.3947
H33 H 0.3752 0.1873 0.4288
C36 C 0.2296(3) 0.4270(3) 0.44649(18)
H34 H 0.2182 0.4489 0.4886
H35 H 0.2457 0.3587 0.4491
H36 H 0.1645 0.4385 0.4113
C37 C 0.2164(3) 0.5708(2) 0.30769(17)
H37 H 0.1559 0.5753 0.2686
H38 H 0.2745 0.6127 0.3023
H39 H 0.1927 0.5902 0.3467
C38 C 0.5530(3) 0.26488(18) 0.08078(13)
H40 H 0.4916 0.2251 0.0749
loop_
_geom_bond_atom_site_label_1
_geom_bond_atom_site_label_2
_geom_bond_site_symmetry_1
_geom_bond_site_symmetry_2
N1 H1 1_555 1_555
O1 C7 1_555 1_555
C1 H2 1_555 1_555
O2 C14 1_555 1_555
N2 C9 1_555 1_555
C2 C1 1_555 1_555
H3 C2 1_555 1_555
O3 C14 1_555 1_555
C3 C2 1_555 1_555
H4 C3 1_555 1_555
O4 C15 1_555 1_555
C4 C3 1_555 1_555
H5 C4 1_555 1_555
C5 C4 1_555 1_555
H6 C5 1_555 1_555
C6 C1 1_555 1_555
C7 N1 1_555 1_555
C8 N1 1_555 1_555
C9 C8 1_555 1_555
C10 N2 1_555 1_555
H7 C10 1_555 1_555
C11 C10 1_555 1_555
H8 C11 1_555 1_555
C12 C11 1_555 1_555
H9 C12 1_555 1_555
C13 C9 1_555 1_555
C14 C13 1_555 1_555
C15 C14 1_555 1_555
H10 C15 1_555 1_555
C16 C8 1_555 1_555
H11 C16 1_555 1_555
C17 O2 1_555 1_555
H12 C17 1_555 1_555
H13 C17 1_555 1_555
H14 C17 1_555 1_555
C18 O3 1_555 1_555
H15 C18 1_555 1_555
H16 C18 1_555 1_555
H17 C18 1_555 1_555
C19 O4 1_555 1_555
H18 C19 1_555 1_555
H19 C19 1_555 1_555
H20 C19 1_555 1_555
N3 H21 1_555 1_555
N4 C27 1_555 1_555
O5 C25 1_555 1_555
O6 C33 1_555 1_555
O7 C32 1_555 1_555
O8 C32 1_555 1_555
C20 H22 1_555 1_555
C21 C20 1_555 1_555
H23 C21 1_555 1_555
C22 C21 1_555 1_555
H24 C22 1_555 1_555
C23 C22 1_555 1_555
H25 C23 1_555 1_555
C24 C23 1_555 1_555
C25 N3 1_555 1_555
C26 N3 1_555 1_555
C27 C26 1_555 1_555
C28 N4 1_555 1_555
H26 C28 1_555 1_555
C29 C28 1_555 1_555
H27 C29 1_555 1_555
C30 C29 1_555 1_555
H28 C30 1_555 1_555
C31 C27 1_555 1_555
C32 C31 1_555 1_555
C33 C32 1_555 1_555
H29 C33 1_555 1_555
C34 C26 1_555 1_555
H30 C34 1_555 1_555
C35 O6 1_555 1_555
H31 C35 1_555 1_555
H32 C35 1_555 1_555
H33 C35 1_555 1_555
C36 O7 1_555 1_555
H34 C36 1_555 1_555
H35 C36 1_555 1_555
H36 C36 1_555 1_555
C37 O8 1_555 1_555
H37 C37 1_555 1_555
H38 C37 1_555 1_555
H39 C37 1_555 1_555
C38 C20 1_555 1_555
H40 C38 1_555 1_555
C5 C6 1_555 1_555
C6 C7 1_555 1_555
C12 C13 1_555 1_555
C15 C16 1_555 1_555
C24 C25 1_555 1_555
C24 C38 1_555 1_555
C30 C31 1_555 1_555
C33 C34 1_555 1_555

#END
