
#######################################################################
#
#                 Cambridge Crystallographic Data Centre
#                                CCDC 
#
#######################################################################
#
# If this CIF has been generated from an entry in the Cambridge 
# Structural Database, then it will include bibliographic, chemical, 
# crystal, experimental, refinement or atomic coordinate data resulting 
# from the CCDC's data processing and validation procedures.
#
#######################################################################

data_BIKCAZ
_chemical_compound_source        'Abrus cantoniensis Hance'
_chemical_formula_moiety         'C36 H56 O6'
_chemical_name_systematic        'Cantoniensistriol triacetate'
_symmetry_cell_setting           monoclinic
_symmetry_space_group_name_H-M   'P 21'
_symmetry_Int_Tables_number      4
_space_group_name_Hall           'P 2yb'
loop_
_symmetry_equiv_pos_site_id
_symmetry_equiv_pos_as_xyz
1 x,y,z
2 -x,1/2+y,-z
_cell_length_a                   12.238(3)
_cell_length_b                   7.356(2)
_cell_length_c                   18.804(5)
_cell_angle_alpha                90
_cell_angle_beta                 91.78(2)
_cell_angle_gamma                90
_cell_volume                     1691.97
_chemical_melting_point          289-90deg.C
_cell_formula_units_Z            2
loop_
_atom_site_label
_atom_site_type_symbol
_atom_site_fract_x
_atom_site_fract_y
_atom_site_fract_z
C1 C 0.73400 0.59250 0.38540
C2 C 0.74050 0.61010 0.30440
C3 C 0.82790 0.49290 0.27720
C4 C 0.82330 0.29410 0.29590
C5 C 0.81100 0.28030 0.37890
C6 C 0.81300 0.08680 0.40750
C7 C 0.83580 0.08830 0.48900
C8 C 0.75320 0.20470 0.53060
C9 C 0.74090 0.39610 0.49540
C10 C 0.71850 0.39730 0.41110
C11 C 0.66260 0.51640 0.53410
C12 C 0.65930 0.47790 0.61290
C13 C 0.71480 0.35750 0.64880
C14 C 0.79910 0.23700 0.61120
C15 C 0.81610 0.05350 0.65020
C16 C 0.81630 0.05740 0.73000
C17 C 0.71040 0.14820 0.75770
C18 C 0.70330 0.34720 0.72920
C19 C 0.78850 0.46550 0.76920
C20 C 0.78080 0.47270 0.85140
C21 C 0.78880 0.27900 0.87460
C22 C 0.70860 0.14430 0.83770
C23 C 0.73130 0.19390 0.25400
C24 C 0.92840 0.20430 0.27530
C25 C 0.60380 0.32670 0.38980
C26 C 0.64270 0.10480 0.53020
C27 C 0.90850 0.33810 0.61530
C28 C 0.60710 0.04230 0.72890
C29 C 0.67590 0.57140 0.87200
C30 C 0.88260 0.57010 0.88150
C31 C 0.88090 0.64620 0.16890
C32 C 0.87780 0.62990 0.08890
C33 C 0.54850 0.09930 0.90860
C34 C 0.43330 0.16610 0.92310
C35 C 0.81750 0.12730 0.98760
C36 C 0.78030 0.13160 1.06390
O1 O 0.82810 0.50860 0.19990
O2 O 0.93260 0.75690 0.20520
O3 O 0.59660 0.19450 0.85930
O4 O 0.59100 -0.02570 0.94020
O5 O 0.77050 0.27030 0.94990
O6 O 0.87070 0.01400 0.96150
H1 H 0.67340 0.66400 0.40070
H2 H 0.80060 0.63910 0.40670
H3 H 0.75560 0.73430 0.29260
H4 H 0.67170 0.57450 0.28270
H5 H 0.89350 0.53730 0.30050
H6 H 0.87720 0.33740 0.39610
H7 H 0.74350 0.03040 0.39740
H8 H 0.86930 0.01920 0.38490
H9 H 0.83250 -0.03460 0.50610
H10 H 0.90970 0.13610 0.49810
H11 H 0.81260 0.44830 0.50090
H12 H 0.68420 0.64070 0.52770
H13 H 0.59060 0.49860 0.51360
H14 H 0.61020 0.55140 0.63950
H15 H 0.88510 0.00500 0.63640
H16 H 0.75830 -0.02650 0.63440
H17 H 0.82090 -0.06490 0.74770
H18 H 0.87870 0.12530 0.74720
H19 H 0.63180 0.39370 0.73820
H20 H 0.85950 0.41950 0.75850
H21 H 0.78100 0.58750 0.75150
H22 H 0.86070 0.24160 0.86170
H23 H 0.73020 0.02390 0.85200
H24 H 0.67450 0.27780 0.23990
H25 H 0.70000 0.09300 0.27850
H26 H 0.76710 0.15080 0.21260
H27 H 0.91620 0.07570 0.27860
H28 H 0.97670 0.24260 0.31360
H29 H 0.96080 0.23170 0.23070
H30 H 0.60680 0.20440 0.37210
H31 H 0.59100 0.40890 0.35080
H32 H 0.54550 0.33700 0.42250
H33 H 0.59560 0.17250 0.56030
H34 H 0.65650 -0.01290 0.55060
H35 H 0.60800 0.09080 0.48400
H36 H 0.95260 0.26560 0.58490
H37 H 0.94050 0.33880 0.66260
H38 H 0.90470 0.46020 0.59740
H39 H 0.60530 0.01000 0.67940
H40 H 0.54300 0.11140 0.73920
H41 H 0.60900 -0.06620 0.75730
H42 H 0.61350 0.50420 0.85440
H43 H 0.66890 0.69620 0.85770
H44 H 0.68010 0.56420 0.92300
H45 H 0.89020 0.69500 0.86780
H46 H 0.94820 0.50500 0.87110
H47 H 0.87020 0.56340 0.93160
loop_
_geom_bond_atom_site_label_1
_geom_bond_atom_site_label_2
_geom_bond_site_symmetry_1
_geom_bond_site_symmetry_2
C1 C2 1_555 1_555
C2 C3 1_555 1_555
C3 C4 1_555 1_555
C4 C5 1_555 1_555
C5 C6 1_555 1_555
C6 C7 1_555 1_555
C7 C8 1_555 1_555
C8 C9 1_555 1_555
C9 C10 1_555 1_555
C10 C1 1_555 1_555
C11 C9 1_555 1_555
C12 C11 1_555 1_555
C13 C12 1_555 1_555
C14 C8 1_555 1_555
C15 C14 1_555 1_555
C16 C15 1_555 1_555
C17 C16 1_555 1_555
C18 C13 1_555 1_555
C19 C18 1_555 1_555
C20 C19 1_555 1_555
C21 C20 1_555 1_555
C22 C17 1_555 1_555
C23 C4 1_555 1_555
C24 C4 1_555 1_555
C25 C10 1_555 1_555
C26 C8 1_555 1_555
C27 C14 1_555 1_555
C28 C17 1_555 1_555
C29 C20 1_555 1_555
C30 C20 1_555 1_555
C31 C32 1_555 1_555
C33 C34 1_555 1_555
C35 C36 1_555 1_555
O1 C3 1_555 1_555
O2 C31 1_555 1_555
O3 C22 1_555 1_555
O4 C33 1_555 1_555
O5 C21 1_555 1_555
O6 C35 1_555 1_555
H1 C1 1_555 1_555
H2 C1 1_555 1_555
H3 C2 1_555 1_555
H4 C2 1_555 1_555
H5 C3 1_555 1_555
H6 C5 1_555 1_555
H7 C6 1_555 1_555
H8 C6 1_555 1_555
H9 C7 1_555 1_555
H10 C7 1_555 1_555
H11 C9 1_555 1_555
H12 C11 1_555 1_555
H13 C11 1_555 1_555
H14 C12 1_555 1_555
H15 C15 1_555 1_555
H16 C15 1_555 1_555
H17 C16 1_555 1_555
H18 C16 1_555 1_555
H19 C18 1_555 1_555
H20 C19 1_555 1_555
H21 C19 1_555 1_555
H22 C21 1_555 1_555
H23 C22 1_555 1_555
H24 C23 1_555 1_555
H25 C23 1_555 1_555
H26 C23 1_555 1_555
H27 C24 1_555 1_555
H28 C24 1_555 1_555
H29 C24 1_555 1_555
H30 C25 1_555 1_555
H31 C25 1_555 1_555
H32 C25 1_555 1_555
H33 C26 1_555 1_555
H34 C26 1_555 1_555
H35 C26 1_555 1_555
H36 C27 1_555 1_555
H37 C27 1_555 1_555
H38 C27 1_555 1_555
H39 C28 1_555 1_555
H40 C28 1_555 1_555
H41 C28 1_555 1_555
H42 C29 1_555 1_555
H43 C29 1_555 1_555
H44 C29 1_555 1_555
H45 C30 1_555 1_555
H46 C30 1_555 1_555
H47 C30 1_555 1_555
C5 C10 1_555 1_555
C13 C14 1_555 1_555
C17 C18 1_555 1_555
C21 C22 1_555 1_555
C31 O1 1_555 1_555
C33 O3 1_555 1_555
C35 O5 1_555 1_555

#END
