
#######################################################################
#
#                 Cambridge Crystallographic Data Centre
#                                CCDC 
#
#######################################################################
#
# If this CIF has been generated from an entry in the Cambridge 
# Structural Database, then it will include bibliographic, chemical, 
# crystal, experimental, refinement or atomic coordinate data resulting 
# from the CCDC's data processing and validation procedures.
#
#######################################################################

data_BIKJOW
_chemical_formula_moiety         'C19 H27 N3 O7'
_chemical_name_systematic        
'Di-t-butyl 3-hydroxy-5-(4-nitrophenyl)pyrazolidine-1,2-dicarboxylate'
_symmetry_cell_setting           monoclinic
_symmetry_space_group_name_H-M   'C 2/c'
_symmetry_Int_Tables_number      15
_space_group_name_Hall           '-C 2yn'
loop_
_symmetry_equiv_pos_site_id
_symmetry_equiv_pos_as_xyz
1 x,y,z
2 -x,y,1/2-z
3 1/2+x,1/2+y,z
4 1/2-x,1/2+y,1/2-z
5 -x,-y,-z
6 x,-y,1/2+z
7 1/2-x,1/2-y,-z
8 1/2+x,1/2-y,1/2+z
_cell_length_a                   27.633(9)
_cell_length_b                   11.435(3)
_cell_length_c                   16.853(6)
_cell_angle_alpha                90
_cell_angle_beta                 124.665(7)
_cell_angle_gamma                90
_cell_volume                     4379.99
_exptl_crystal_colour            yellow
_exptl_crystal_description       block
_cell_formula_units_Z            8
loop_
_atom_site_label
_atom_site_type_symbol
_atom_site_fract_x
_atom_site_fract_y
_atom_site_fract_z
O1 O 1.02320(8) 0.06236(19) 0.39570(12)
H1 H 1.0489 0.0605 0.4546
O2 O 0.62858(11) 0.1217(3) -0.1069(2)
O3 O 0.66526(12) 0.1018(2) -0.19081(17)
O4 O 0.89565(8) -0.12099(17) 0.41347(13)
O5 O 0.85746(8) -0.15081(16) 0.25441(12)
O6 O 0.86330(8) 0.14358(18) 0.41091(14)
O7 O 0.95221(8) 0.23488(17) 0.49706(12)
N1 N 0.89937(9) 0.01790(19) 0.31995(14)
N2 N 0.93953(9) 0.08858(19) 0.40021(14)
N3 N 0.66979(14) 0.1055(2) -0.1137(2)
C1 C 0.97908(11) 0.1415(2) 0.37640(19)
H2 H 0.9958 0.2167 0.4103
C2 C 0.93707(12) 0.1585(3) 0.26830(18)
H3 H 0.9586 0.1658 0.2382
H4 H 0.9128 0.2284 0.2533
C3 C 0.89959(11) 0.0485(2) 0.23420(17)
H5 H 0.9201 -0.0139 0.2235
C4 C 0.83879(11) 0.0643(2) 0.14374(18)
C5 C 0.82961(13) 0.0435(3) 0.05506(19)
H6 H 0.8613 0.0198 0.0526
C6 C 0.77439(14) 0.0573(3) -0.03001(19)
H7 H 0.7682 0.0427 -0.0900
C7 C 0.72869(13) 0.0927(2) -0.0245(2)
C8 C 0.73658(13) 0.1163(3) 0.0628(2)
H8 H 0.7049 0.1414 0.0648
C9 C 0.79186(12) 0.1024(3) 0.1466(2)
H9 H 0.7980 0.1187 0.2064
C10 C 0.88581(11) -0.0888(2) 0.33678(18)
C11 C 0.81119(12) -0.2367(3) 0.23420(19)
C12 C 0.76996(13) -0.1801(3) 0.2551(2)
H10 H 0.7904 -0.1685 0.3241
H11 H 0.7362 -0.2303 0.2320
H12 H 0.7569 -0.1051 0.2225
C13 C 0.83941(16) -0.3458(3) 0.2932(2)
H13 H 0.8657 -0.3788 0.2782
H14 H 0.8091 -0.4024 0.2781
H15 H 0.8616 -0.3264 0.3613
C14 C 0.78039(15) -0.2584(3) 0.1273(2)
H16 H 0.7676 -0.1845 0.0931
H17 H 0.7465 -0.3084 0.1043
H18 H 0.8073 -0.2964 0.1160
C15 C 0.91281(11) 0.1580(2) 0.43361(18)
C16 C 0.93692(13) 0.3181(3) 0.5466(2)
C17 C 0.88989(18) 0.3999(4) 0.4729(3)
H19 H 0.9015 0.4313 0.4326
H20 H 0.8848 0.4635 0.5056
H21 H 0.8531 0.3575 0.4331
C18 C 0.9213(2) 0.2531(4) 0.6066(3)
H22 H 0.8822 0.2202 0.5649
H23 H 0.9222 0.3066 0.6521
H24 H 0.9495 0.1907 0.6415
C19 C 0.99484(16) 0.3837(3) 0.6112(3)
H25 H 1.0262 0.3282 0.6507
H26 H 0.9915 0.4372 0.6525
H27 H 1.0036 0.4274 0.5715
loop_
_geom_bond_atom_site_label_1
_geom_bond_atom_site_label_2
_geom_bond_site_symmetry_1
_geom_bond_site_symmetry_2
O1 H1 1_555 1_555
O2 N3 1_555 1_555
O3 N3 1_555 1_555
O4 C10 1_555 1_555
O5 C10 1_555 1_555
O6 C15 1_555 1_555
O7 C15 1_555 1_555
N1 N2 1_555 1_555
N2 C1 1_555 1_555
N3 C7 1_555 1_555
C1 O1 1_555 1_555
H2 C1 1_555 1_555
C2 C1 1_555 1_555
H3 C2 1_555 1_555
H4 C2 1_555 1_555
C3 N1 1_555 1_555
H5 C3 1_555 1_555
C4 C3 1_555 1_555
C5 C4 1_555 1_555
H6 C5 1_555 1_555
C6 C5 1_555 1_555
H7 C6 1_555 1_555
C7 C6 1_555 1_555
C8 C7 1_555 1_555
H8 C8 1_555 1_555
C9 C4 1_555 1_555
H9 C9 1_555 1_555
C10 N1 1_555 1_555
C11 O5 1_555 1_555
C12 C11 1_555 1_555
H10 C12 1_555 1_555
H11 C12 1_555 1_555
H12 C12 1_555 1_555
C13 C11 1_555 1_555
H13 C13 1_555 1_555
H14 C13 1_555 1_555
H15 C13 1_555 1_555
C14 C11 1_555 1_555
H16 C14 1_555 1_555
H17 C14 1_555 1_555
H18 C14 1_555 1_555
C15 N2 1_555 1_555
C16 O7 1_555 1_555
C17 C16 1_555 1_555
H19 C17 1_555 1_555
H20 C17 1_555 1_555
H21 C17 1_555 1_555
C18 C16 1_555 1_555
H22 C18 1_555 1_555
H23 C18 1_555 1_555
H24 C18 1_555 1_555
C19 C16 1_555 1_555
H25 C19 1_555 1_555
H26 C19 1_555 1_555
H27 C19 1_555 1_555
C2 C3 1_555 1_555
C8 C9 1_555 1_555

#END
