
#######################################################################
#
#                 Cambridge Crystallographic Data Centre
#                                CCDC 
#
#######################################################################
#
# If this CIF has been generated from an entry in the Cambridge 
# Structural Database, then it will include bibliographic, chemical, 
# crystal, experimental, refinement or atomic coordinate data resulting 
# from the CCDC's data processing and validation procedures.
#
#######################################################################

data_BIKJEM
_chemical_formula_moiety         'C20 H22 Br1 N3 O5'
_chemical_name_systematic        
't-Butyl 2-(4-bromophenyl)-3-hydroxy-5-(4-nitrophenyl)pyrazolidine-1-carboxylate'
_symmetry_cell_setting           orthorhombic
_symmetry_space_group_name_H-M   'P 21 21 2'
_symmetry_Int_Tables_number      18
_space_group_name_Hall           'P 2 2ab'
loop_
_symmetry_equiv_pos_site_id
_symmetry_equiv_pos_as_xyz
1 x,y,z
2 -x,-y,z
3 1/2+x,1/2-y,-z
4 1/2-x,1/2+y,-z
_cell_length_a                   8.140(3)
_cell_length_b                   27.227(10)
_cell_length_c                   9.566(5)
_cell_angle_alpha                90
_cell_angle_beta                 90
_cell_angle_gamma                90
_cell_volume                     2120.09
_exptl_crystal_colour            yellow
_exptl_crystal_description       block
_cell_formula_units_Z            4
loop_
_atom_site_label
_atom_site_type_symbol
_atom_site_fract_x
_atom_site_fract_y
_atom_site_fract_z
Br1 Br 0.78534(19) 0.14963(6) -0.07631(16)
O1 O 0.1734(10) 0.2731(3) 0.4765(9)
H1 H 0.0969 0.2926 0.4713
O2 O 0.1918(9) 0.1189(3) 0.6298(7)
O3 O 0.4315(9) 0.1596(3) 0.5984(8)
O4 O -0.2800(14) -0.0152(3) 0.1379(12)
O5 O -0.3475(14) -0.0283(4) 0.3500(14)
N1 N 0.3041(10) 0.2068(3) 0.3825(9)
N2 N 0.2180(11) 0.1675(3) 0.4478(9)
N3 N -0.2833(16) -0.0035(4) 0.2587(15)
C1 C 0.6339(14) 0.1693(5) 0.0647(11)
C2 C 0.6052(15) 0.2164(5) 0.0975(15)
H2 H 0.6631 0.2408 0.0508
C3 C 0.4947(16) 0.2295(5) 0.1964(13)
H3 H 0.4738 0.2624 0.2159
C4 C 0.4125(13) 0.1918(4) 0.2687(11)
C5 C 0.4442(11) 0.1436(4) 0.2405(11)
H4 H 0.3905 0.1188 0.2894
C6 C 0.5560(14) 0.1324(4) 0.1392(11)
H5 H 0.5801 0.0997 0.1200
C7 C 0.1810(13) 0.2450(4) 0.3526(13)
H6 H 0.2092 0.2648 0.2705
C8 C 0.0228(13) 0.2155(4) 0.3324(12)
H7 H -0.0728 0.2355 0.3532
H8 H 0.0143 0.2036 0.2371
C9 C 0.0363(12) 0.1728(3) 0.4345(13)
H9 H -0.0094 0.1828 0.5250
C10 C 0.2917(14) 0.1495(4) 0.5652(12)
C11 C 0.2469(16) 0.0927(4) 0.7556(11)
C12 C 0.2558(18) 0.1288(5) 0.8731(12)
H10 H 0.3422 0.1519 0.8552
H11 H 0.2778 0.1117 0.9589
H12 H 0.1531 0.1459 0.8806
C13 C 0.1089(18) 0.0568(6) 0.7767(16)
H13 H 0.0071 0.0744 0.7851
H14 H 0.1280 0.0382 0.8603
H15 H 0.1032 0.0350 0.6980
C14 C 0.3983(17) 0.0645(5) 0.7334(15)
H16 H 0.3898 0.0462 0.6479
H17 H 0.4143 0.0422 0.8100
H18 H 0.4900 0.0866 0.7278
C15 C -0.0444(13) 0.1266(3) 0.3886(11)
C16 C -0.1663(14) 0.1051(4) 0.4629(14)
H19 H -0.1995 0.1208 0.5446
C17 C -0.2424(13) 0.0638(4) 0.4297(13)
H20 H -0.3221 0.0504 0.4880
C18 C -0.2006(14) 0.0417(4) 0.3085(14)
C19 C -0.0863(13) 0.0611(4) 0.2226(13)
H21 H -0.0614 0.0466 0.1371
C20 C -0.0074(15) 0.1035(4) 0.2667(12)
H22 H 0.0746 0.1166 0.2104
loop_
_geom_bond_atom_site_label_1
_geom_bond_atom_site_label_2
_geom_bond_site_symmetry_1
_geom_bond_site_symmetry_2
Br1 C1 1_555 1_555
O1 H1 1_555 1_555
O2 C10 1_555 1_555
O3 C10 1_555 1_555
O4 N3 1_555 1_555
O5 N3 1_555 1_555
N1 N2 1_555 1_555
N2 C9 1_555 1_555
N3 C18 1_555 1_555
C1 C2 1_555 1_555
C2 H2 1_555 1_555
C3 C2 1_555 1_555
H3 C3 1_555 1_555
C4 N1 1_555 1_555
C5 C4 1_555 1_555
H4 C5 1_555 1_555
C6 C1 1_555 1_555
H5 C6 1_555 1_555
C7 O1 1_555 1_555
H6 C7 1_555 1_555
C8 C7 1_555 1_555
H7 C8 1_555 1_555
H8 C8 1_555 1_555
C9 C8 1_555 1_555
H9 C9 1_555 1_555
C10 N2 1_555 1_555
C11 O2 1_555 1_555
C12 C11 1_555 1_555
H10 C12 1_555 1_555
H11 C12 1_555 1_555
H12 C12 1_555 1_555
C13 C11 1_555 1_555
H13 C13 1_555 1_555
H14 C13 1_555 1_555
H15 C13 1_555 1_555
C14 C11 1_555 1_555
H16 C14 1_555 1_555
H17 C14 1_555 1_555
H18 C14 1_555 1_555
C15 C9 1_555 1_555
C16 C15 1_555 1_555
H19 C16 1_555 1_555
C17 C16 1_555 1_555
H20 C17 1_555 1_555
C18 C17 1_555 1_555
C19 C18 1_555 1_555
H21 C19 1_555 1_555
C20 C15 1_555 1_555
H22 C20 1_555 1_555
N1 C7 1_555 1_555
C3 C4 1_555 1_555
C5 C6 1_555 1_555
C19 C20 1_555 1_555

#END
