
#######################################################################
#
#                 Cambridge Crystallographic Data Centre
#                                CCDC 
#
#######################################################################
#
# If this CIF has been generated from an entry in the Cambridge 
# Structural Database, then it will include bibliographic, chemical, 
# crystal, experimental, refinement or atomic coordinate data resulting 
# from the CCDC's data processing and validation procedures.
#
#######################################################################

data_BIKJIQ
_chemical_formula_moiety         'C20 H23 N3 O5'
_chemical_name_systematic        
't-Butyl 3-hydroxy-5-(4-nitrophenyl)-2-phenylpyrazolidine-1-carboxylate'
_symmetry_cell_setting           triclinic
_symmetry_space_group_name_H-M   'P -1'
_symmetry_Int_Tables_number      2
_space_group_name_Hall           '-P 1'
loop_
_symmetry_equiv_pos_site_id
_symmetry_equiv_pos_as_xyz
1 x,y,z
2 -x,-y,-z
_cell_length_a                   7.7399(14)
_cell_length_b                   9.2877(17)
_cell_length_c                   14.911(3)
_cell_angle_alpha                98.408(4)
_cell_angle_beta                 103.948(4)
_cell_angle_gamma                97.043(4)
_cell_volume                     1015.1
_exptl_crystal_colour            yellow
_exptl_crystal_description       block
_cell_formula_units_Z            2
loop_
_atom_site_label
_atom_site_type_symbol
_atom_site_fract_x
_atom_site_fract_y
_atom_site_fract_z
O1 O 0.7909(3) 0.4761(2) 1.03429(15)
H1 H 0.7329 0.5019 1.0714
O2 O 0.6094(3) 0.5597(2) 0.75087(14)
O3 O 0.3772(3) 0.5394(2) 0.81893(13)
N1 N 0.5373(3) 0.3439(2) 0.91599(14)
N2 N 0.5878(3) 0.3874(2) 0.83644(14)
C1 C 0.7795(4) 0.3740(3) 0.84066(18)
H2 H 0.8534 0.4723 0.8606
C2 C 0.8252(4) 0.2859(3) 0.91849(19)
H3 H 0.9526 0.3088 0.9510
H4 H 0.7930 0.1807 0.8943
C3 C 0.7105(4) 0.3364(3) 0.98242(19)
H5 H 0.6941 0.2657 1.0237
C4 C 0.3980(3) 0.2192(3) 0.89562(18)
C5 C 0.2980(4) 0.1546(3) 0.8053(2)
H6 H 0.3235 0.1905 0.7540
C6 C 0.1608(4) 0.0369(4) 0.7911(2)
H7 H 0.0951 -0.0062 0.7302
C7 C 0.1200(5) -0.0173(4) 0.8657(3)
H8 H 0.0300 -0.0985 0.8557
C8 C 0.2144(4) 0.0503(4) 0.9557(2)
H9 H 0.1855 0.0159 1.0067
C9 C 0.3506(4) 0.1678(3) 0.9711(2)
H10 H 0.4116 0.2135 1.0323
C10 C 0.8020(4) 0.3045(3) 0.74678(19)
C11 C 0.6879(5) 0.1821(3) 0.6930(2)
H11 H 0.5946 0.1399 0.7150
C12 C 0.7067(5) 0.1190(4) 0.6069(2)
H12 H 0.6271 0.0358 0.5712
C13 C 0.8436(4) 0.1806(4) 0.5752(2)
C14 C 0.9627(5) 0.3005(5) 0.6279(3)
H13 H 1.0577 0.3402 0.6061
C15 C 0.9421(4) 0.3634(4) 0.7142(2)
H14 H 1.0231 0.4456 0.7501
C16 C 0.5128(4) 0.5023(3) 0.80433(17)
C17 C 0.5426(5) 0.6628(3) 0.6902(2)
C18 C 0.5254(7) 0.8042(4) 0.7487(3)
H15 H 0.4306 0.7856 0.7789
H16 H 0.4976 0.8754 0.7090
H17 H 0.6372 0.8419 0.7956
C19 C 0.3667(6) 0.5876(6) 0.6213(3)
H18 H 0.3796 0.4905 0.5942
H19 H 0.3354 0.6440 0.5725
H20 H 0.2733 0.5803 0.6534
C20 C 0.6902(7) 0.6876(5) 0.6410(3)
H21 H 0.8024 0.7283 0.6867
H22 H 0.6605 0.7550 0.5987
H23 H 0.7013 0.5953 0.6062
O4 O 0.9758(9) 0.1434(7) 0.4539(4)
O5 O 0.7314(11) -0.0082(9) 0.4375(6)
N3 N 0.8446(11) 0.0889(10) 0.4753(6)
O6? O 0.9963(10) 0.2047(9) 0.4594(5)
O7? O 0.7621(13) 0.0340(10) 0.4335(7)
N4? N 0.8730(9) 0.1378(8) 0.4866(5)
loop_
_geom_bond_atom_site_label_1
_geom_bond_atom_site_label_2
_geom_bond_site_symmetry_1
_geom_bond_site_symmetry_2
O1 H1 1_555 1_555
O2 C16 1_555 1_555
O3 C16 1_555 1_555
N1 N2 1_555 1_555
N2 C1 1_555 1_555
C1 H2 1_555 1_555
C2 C1 1_555 1_555
H3 C2 1_555 1_555
H4 C2 1_555 1_555
C3 O1 1_555 1_555
H5 C3 1_555 1_555
C4 N1 1_555 1_555
C5 C4 1_555 1_555
H6 C5 1_555 1_555
C6 C5 1_555 1_555
H7 C6 1_555 1_555
C7 C6 1_555 1_555
H8 C7 1_555 1_555
C8 C7 1_555 1_555
H9 C8 1_555 1_555
C9 C4 1_555 1_555
H10 C9 1_555 1_555
C10 C1 1_555 1_555
C11 C10 1_555 1_555
H11 C11 1_555 1_555
C12 C11 1_555 1_555
H12 C12 1_555 1_555
C13 C12 1_555 1_555
C14 C13 1_555 1_555
H13 C14 1_555 1_555
C15 C10 1_555 1_555
H14 C15 1_555 1_555
C16 N2 1_555 1_555
C17 O2 1_555 1_555
C18 C17 1_555 1_555
H15 C18 1_555 1_555
H16 C18 1_555 1_555
H17 C18 1_555 1_555
C19 C17 1_555 1_555
H18 C19 1_555 1_555
H19 C19 1_555 1_555
H20 C19 1_555 1_555
C20 C17 1_555 1_555
H21 C20 1_555 1_555
H22 C20 1_555 1_555
H23 C20 1_555 1_555
O4 N3 1_555 1_555
O5 N3 1_555 1_555
N3 C13 1_555 1_555
N1 C3 1_555 1_555
C2 C3 1_555 1_555
C8 C9 1_555 1_555
C14 C15 1_555 1_555

#END
