
#######################################################################
#
#                 Cambridge Crystallographic Data Centre
#                                CCDC 
#
#######################################################################
#
# If this CIF has been generated from an entry in the Cambridge 
# Structural Database, then it will include bibliographic, chemical, 
# crystal, experimental, refinement or atomic coordinate data resulting 
# from the CCDC's data processing and validation procedures.
#
#######################################################################

data_BIKTEU
_chemical_formula_moiety         'C30 H29 N5 P2,C4 H10 O1'
_chemical_name_systematic        
'N,N-bis(Dianilino-phosphino)-aniline diethyl ether solvate'
_symmetry_cell_setting           monoclinic
_symmetry_space_group_name_H-M   'P 21/n'
_symmetry_Int_Tables_number      14
_space_group_name_Hall           '-P 2yn'
loop_
_symmetry_equiv_pos_site_id
_symmetry_equiv_pos_as_xyz
1 x,y,z
2 1/2-x,1/2+y,1/2-z
3 -x,-y,-z
4 1/2+x,1/2-y,1/2+z
_cell_length_a                   9.193(4)
_cell_length_b                   21.154(8)
_cell_length_c                   16.624(5)
_cell_angle_alpha                90
_cell_angle_beta                 96.64(3)
_cell_angle_gamma                90
_cell_volume                     3211.16
_chemical_melting_point          115-6deg.C
_cell_formula_units_Z            4
loop_
_atom_site_label
_atom_site_type_symbol
_atom_site_fract_x
_atom_site_fract_y
_atom_site_fract_z
P1 P -0.19770 0.28109 -0.00338
P2 P 0.04730 0.21503 -0.05965
N1 N -0.17710 0.35750 0.02810
N2 N -0.29210 0.25950 0.07420
N3 N -0.03300 0.24740 0.01850
N4 N 0.21800 0.24230 -0.05010
N5 N 0.09250 0.13980 -0.02950
C5 C -0.16650 0.40900 -0.02270
C6 C -0.19050 0.46950 0.00640
C7 C -0.18120 0.52200 -0.04220
C8 C -0.14760 0.51620 -0.12080
C9 C -0.12340 0.45600 -0.15140
C10 C -0.13360 0.40150 -0.10170
C11 C -0.37680 0.20630 0.07810
C12 C -0.35700 0.15260 0.02990
C13 C -0.44780 0.10020 0.03480
C14 C -0.55110 0.09820 0.08580
C15 C -0.57230 0.15060 0.13480
C16 C -0.48480 0.20290 0.12910
C17 C 0.04770 0.25030 0.10080
C18 C 0.02060 0.20340 0.15600
C19 C 0.09670 0.20590 0.23490
C20 C 0.19210 0.25460 0.25550
C21 C 0.21790 0.30190 0.20160
C22 C 0.14310 0.29930 0.12190
C23 C 0.26720 0.29800 -0.08550
C24 C 0.38870 0.33000 -0.05500
C25 C 0.43590 0.38350 -0.09070
C26 C 0.36290 0.40580 -0.16260
C27 C 0.24050 0.37440 -0.19570
C28 C 0.18750 0.32050 -0.15960
C29 C 0.03110 0.08720 -0.07110
C30 C 0.11860 0.03170 -0.06910
C31 C 0.06120 -0.02230 -0.11170
C32 C -0.07150 -0.02070 -0.15460
C33 C -0.16020 0.03420 -0.15900
C34 C -0.10360 0.08700 -0.11450
H1 H 0.29200 0.21800 -0.01600
H2 H 0.16200 0.13300 0.01800
H7 H -0.21400 0.37300 0.06200
H8 H -0.20200 0.56400 -0.02100
H9 H -0.13600 0.55500 -0.15400
H10 H -0.10100 0.45100 -0.20700
H11 H -0.11900 0.35900 -0.12400
H12 H -0.28000 0.15100 -0.00700
H13 H -0.43700 0.06400 0.00000
H14 H -0.60800 0.05900 0.09100
H15 H -0.65100 0.15100 0.17100
H16 H -0.50400 0.24100 0.16100
H17 H -0.05100 0.17000 0.14100
H18 H 0.08400 0.17200 0.27300
H19 H 0.24200 0.25600 0.31100
H20 H 0.28600 0.33700 0.21800
H21 H 0.16100 0.33200 0.08200
H22 H 0.44500 0.31500 -0.00600
H23 H 0.52400 0.40500 -0.06700
H24 H 0.39800 0.44300 -0.18900
H25 H 0.18900 0.39000 -0.24700
H26 H 0.09700 0.30100 -0.18200
H27 H 0.21900 0.03100 -0.03900
H28 H 0.11800 -0.06100 -0.11000
H29 H -0.11000 -0.05900 -0.18400
H30 H -0.25800 0.03500 -0.19100
H31 H -0.16600 0.12500 -0.11400
O1 O -0.25830 0.36370 0.20000
C1 C -0.37380 0.40210 0.21790
C2 C -0.15990 0.34650 0.27010
C3 C -0.48320 0.41520 0.14460
C4 C -0.06420 0.39730 0.30540
H3 H -0.42400 0.38100 0.26000
H4 H -0.33600 0.44100 0.24300
H5 H -0.22100 0.32800 0.31000
H6 H -0.10300 0.31000 0.25500
loop_
_geom_bond_atom_site_label_1
_geom_bond_atom_site_label_2
_geom_bond_site_symmetry_1
_geom_bond_site_symmetry_2
P1 N1 1_555 1_555
P2 N3 1_555 1_555
O1 C1 1_555 1_555
N1 C5 1_555 1_555
N2 P1 1_555 1_555
N3 P1 1_555 1_555
N4 P2 1_555 1_555
N5 P2 1_555 1_555
C1 C3 1_555 1_555
C2 O1 1_555 1_555
C4 C2 1_555 1_555
C5 C6 1_555 1_555
C6 C7 1_555 1_555
C7 C8 1_555 1_555
C8 C9 1_555 1_555
C9 C10 1_555 1_555
C10 C5 1_555 1_555
C11 N2 1_555 1_555
C12 C11 1_555 1_555
C13 C12 1_555 1_555
C14 C13 1_555 1_555
C15 C14 1_555 1_555
C16 C11 1_555 1_555
C17 N3 1_555 1_555
C18 C17 1_555 1_555
C19 C18 1_555 1_555
C20 C19 1_555 1_555
C21 C20 1_555 1_555
C22 C17 1_555 1_555
C23 N4 1_555 1_555
C24 C23 1_555 1_555
C25 C24 1_555 1_555
C26 C25 1_555 1_555
C27 C26 1_555 1_555
C28 C23 1_555 1_555
C29 N5 1_555 1_555
C30 C29 1_555 1_555
C31 C30 1_555 1_555
C32 C31 1_555 1_555
C33 C32 1_555 1_555
C34 C29 1_555 1_555
H1 N4 1_555 1_555
H2 N5 1_555 1_555
H3 C1 1_555 1_555
H4 C1 1_555 1_555
H5 C2 1_555 1_555
H6 C2 1_555 1_555
H7 N1 1_555 1_555
H8 C7 1_555 1_555
H9 C8 1_555 1_555
H10 C9 1_555 1_555
H11 C10 1_555 1_555
H12 C12 1_555 1_555
H13 C13 1_555 1_555
H14 C14 1_555 1_555
H15 C15 1_555 1_555
H16 C16 1_555 1_555
H17 C18 1_555 1_555
H18 C19 1_555 1_555
H19 C20 1_555 1_555
H20 C21 1_555 1_555
H21 C22 1_555 1_555
H22 C24 1_555 1_555
H23 C25 1_555 1_555
H24 C26 1_555 1_555
H25 C27 1_555 1_555
H26 C28 1_555 1_555
H27 C30 1_555 1_555
H28 C31 1_555 1_555
H29 C32 1_555 1_555
H30 C33 1_555 1_555
H31 C34 1_555 1_555
C15 C16 1_555 1_555
C21 C22 1_555 1_555
C27 C28 1_555 1_555
C33 C34 1_555 1_555

#END
