
#######################################################################
#
#                 Cambridge Crystallographic Data Centre
#                                CCDC 
#
#######################################################################
#
# If this CIF has been generated from an entry in the Cambridge 
# Structural Database, then it will include bibliographic, chemical, 
# crystal, experimental, refinement or atomic coordinate data resulting 
# from the CCDC's data processing and validation procedures.
#
#######################################################################

data_BIKWAW
_chemical_formula_moiety         'C23 H24 O6 S2'
_chemical_name_systematic        
'diethyl 2-[2-(1,3-dithiolan-2-ylidene)-3-oxo-3-phenylpropyl]-5-methylfuran-3,4-dicarboxylate'
_symmetry_cell_setting           orthorhombic
_symmetry_space_group_name_H-M   'P b c a'
_symmetry_Int_Tables_number      61
_space_group_name_Hall           '-P 2ac 2ab'
loop_
_symmetry_equiv_pos_site_id
_symmetry_equiv_pos_as_xyz
1 x,y,z
2 1/2-x,-y,1/2+z
3 -x,1/2+y,1/2-z
4 1/2+x,1/2-y,-z
5 -x,-y,-z
6 1/2+x,y,1/2-z
7 x,1/2-y,1/2+z
8 1/2-x,1/2+y,z
_cell_length_a                   11.5334(5)
_cell_length_b                   16.3670(7)
_cell_length_c                   23.5960(9)
_cell_angle_alpha                90
_cell_angle_beta                 90
_cell_angle_gamma                90
_cell_volume                     4454.15
_exptl_crystal_colour            brown
_exptl_crystal_description       block
_cell_formula_units_Z            8
loop_
_atom_site_label
_atom_site_type_symbol
_atom_site_fract_x
_atom_site_fract_y
_atom_site_fract_z
C1 C 0.4378(2) 0.94398(16) 0.30223(10)
C2 C 0.5208(2) 0.96992(18) 0.26369(10)
H1 H 0.5304 1.0254 0.2567
C3 C 0.5890(3) 0.9139(2) 0.23571(12)
H2 H 0.6456 0.9318 0.2105
C4 C 0.4234(2) 0.86081(17) 0.31081(11)
H3 H 0.3680 0.8422 0.3364
C5 C 0.4909(3) 0.80576(19) 0.28163(11)
H4 H 0.4797 0.7501 0.2871
C6 C 0.5739(3) 0.8318(2) 0.24476(11)
H5 H 0.6201 0.7941 0.2258
C7 C 0.3615(2) 1.00731(16) 0.32871(11)
O1 O 0.3383(2) 1.06753(15) 0.30011(10)
C8 C 0.31418(19) 0.99862(13) 0.38576(9)
C9 C 0.0219(3) 1.12322(19) 0.40032(13)
H6 H -0.0173 1.1744 0.3922
H7 H -0.0317 1.0788 0.3930
C10 C 0.0598(2) 1.12140(18) 0.46067(12)
H8 H -0.0065 1.1134 0.4854
H9 H 0.0971 1.1725 0.4707
S1 S 0.16038(6) 1.03754(4) 0.46789(3)
S2 S 0.14851(7) 1.11295(4) 0.35582(3)
C11 C 0.2204(2) 1.04406(13) 0.40023(10)
C12 C 0.17421(19) 0.77748(13) 0.44504(10)
C13 C 0.30118(18) 0.87846(13) 0.45328(9)
C14 C 0.28916(18) 0.84511(12) 0.50527(9)
C15 C 0.20759(18) 0.77861(12) 0.49964(9)
O2 O 0.23158(13) 0.83800(9) 0.41587(6)
C16 C 0.0928(2) 0.72729(16) 0.41203(11)
H10 H 0.0706 0.6803 0.4339
H11 H 0.1294 0.7098 0.3776
H12 H 0.0251 0.7590 0.4031
C17 C 0.3355(2) 0.88118(13) 0.55763(10)
C18 C 0.1703(2) 0.71702(13) 0.54138(9)
O3 O 0.25961(14) 0.68460(10) 0.56885(7)
O4 O 0.41210(16) 0.93052(11) 0.56045(8)
O5 O 0.27801(18) 0.85316(12) 0.60231(7)
O6 O 0.07156(15) 0.69620(12) 0.54830(9)
C19 C 0.2319(3) 0.62163(16) 0.61002(11)
H13 H 0.1944 0.5757 0.5916
H14 H 0.1800 0.6430 0.6388
C20 C 0.3430(3) 0.5954(2) 0.63606(16)
H15 H 0.3931 0.5738 0.6073
H16 H 0.3281 0.5540 0.6640
H17 H 0.3796 0.6415 0.6538
C21 C 0.3202(4) 0.8792(2) 0.65741(13)
H18 H 0.3897 0.9113 0.6512
H19 H 0.2626 0.9157 0.6734
C22 C 0.266(2) 0.8279(7) 0.6996(2)
C23 C 0.37284(19) 0.94644(14) 0.43032(10)
H20 H 0.4429 0.9235 0.4141
H21 H 0.3959 0.9814 0.4615
C24? C 0.343(4) 0.8269(10) 0.6942(7)
loop_
_geom_bond_atom_site_label_1
_geom_bond_atom_site_label_2
_geom_bond_site_symmetry_1
_geom_bond_site_symmetry_2
C1 C2 1_555 1_555
C2 H1 1_555 1_555
C3 C2 1_555 1_555
H2 C3 1_555 1_555
C4 C1 1_555 1_555
H3 C4 1_555 1_555
C5 C4 1_555 1_555
H4 C5 1_555 1_555
C6 C3 1_555 1_555
H5 C6 1_555 1_555
C7 C1 1_555 1_555
O1 C7 1_555 1_555
C8 C7 1_555 1_555
C9 H6 1_555 1_555
H7 C9 1_555 1_555
C10 C9 1_555 1_555
H8 C10 1_555 1_555
H9 C10 1_555 1_555
S1 C10 1_555 1_555
S2 C9 1_555 1_555
C11 C8 1_555 1_555
C12 C15 1_555 1_555
C13 C14 1_555 1_555
C14 C15 1_555 1_555
C15 C18 1_555 1_555
O2 C12 1_555 1_555
C16 C12 1_555 1_555
H10 C16 1_555 1_555
H11 C16 1_555 1_555
H12 C16 1_555 1_555
C17 C14 1_555 1_555
C18 O3 1_555 1_555
O3 C19 1_555 1_555
O4 C17 1_555 1_555
O5 C17 1_555 1_555
O6 C18 1_555 1_555
C19 H13 1_555 1_555
H14 C19 1_555 1_555
C20 C19 1_555 1_555
H15 C20 1_555 1_555
H16 C20 1_555 1_555
H17 C20 1_555 1_555
C21 O5 1_555 1_555
H18 C21 1_555 1_555
H19 C21 1_555 1_555
C22 C21 1_555 1_555
C23 C8 1_555 1_555
H20 C23 1_555 1_555
H21 C23 1_555 1_555
C5 C6 1_555 1_555
S1 C11 1_555 1_555
S2 C11 1_555 1_555
C13 O2 1_555 1_555
C13 C23 1_555 1_555

#END
