
#######################################################################
#
#                 Cambridge Crystallographic Data Centre
#                                CCDC 
#
#######################################################################
#
# If this CIF has been generated from an entry in the Cambridge 
# Structural Database, then it will include bibliographic, chemical, 
# crystal, experimental, refinement or atomic coordinate data resulting 
# from the CCDC's data processing and validation procedures.
#
#######################################################################

data_BIKXUR
_chemical_formula_moiety         'C24 H28 O6,0.5(C3 H6 O1)'
_chemical_name_systematic        
"6,7-bis(2,2-dimethylpropanoyl)-4'-ethenylidene-4-methylidene-6,7-dihydro-2'H,3H-spiro[2-benzofuran-5,3'-oxolane]-1,2'(4H)-dione acetone solvate"
_symmetry_cell_setting           triclinic
_symmetry_space_group_name_H-M   'P -1'
_symmetry_Int_Tables_number      2
_space_group_name_Hall           '-P 1'
loop_
_symmetry_equiv_pos_site_id
_symmetry_equiv_pos_as_xyz
1 x,y,z
2 -x,-y,-z
_cell_length_a                   10.6726(12)
_cell_length_b                   10.8572(14)
_cell_length_c                   11.8413(16)
_cell_angle_alpha                94.337(6)
_cell_angle_beta                 110.125(5)
_cell_angle_gamma                113.263(5)
_cell_volume                     1147.46
_exptl_crystal_colour            yellow
_exptl_crystal_description       Block
_cell_formula_units_Z            2
loop_
_atom_site_label
_atom_site_type_symbol
_atom_site_fract_x
_atom_site_fract_y
_atom_site_fract_z
O1 O 0.72393(9) 0.65446(9) 0.46997(8)
C1 C 0.48962(11) 0.61748(11) 0.30039(9)
O2 O 0.54534(10) 0.66885(9) 0.51749(7)
C2 C 0.60212(12) 0.65051(11) 0.43585(10)
O3 O 0.88304(9) 0.69825(9) 0.10391(8)
C3 C 0.39663(13) 0.65656(13) 0.45647(11)
H1 H 0.3970 0.7476 0.4723
H2 H 0.3272 0.5912 0.4863
C4 C 0.35104(12) 0.60266(11) 0.31943(10)
O4 O 0.73539(9) 0.47565(8) 0.08594(8)
C5 C 0.21408(13) 0.54909(13) 0.23609(11)
O5 O 0.67715(9) 0.88165(8) 0.07742(7)
C6 C 0.07534(14) 0.49501(16) 0.15637(13)
H3 H 0.0155 0.3982 0.1396
H4 H 0.0328 0.5501 0.1159
O6 O 0.62476(9) 0.92292(9) 0.40327(7)
C7 C 0.47520(11) 0.48638(11) 0.22789(9)
C8 C 0.36596(13) 0.35976(12) 0.20592(11)
H5 H 0.3626 0.2825 0.1593
H6 H 0.2918 0.3471 0.2369
C9 C 0.59090(11) 0.51023(11) 0.18215(9)
C10 C 0.69244(11) 0.63524(11) 0.18674(9)
C11 C 0.78342(12) 0.61481(11) 0.12401(10)
C12 C 0.61607(12) 0.40067(11) 0.12281(10)
H7 H 0.6458 0.3478 0.1824
H8 H 0.5246 0.3359 0.0498
C13 C 0.70280(11) 0.76961(10) 0.24364(9)
H9 H 0.7736 0.8003 0.3330
C14 C 0.76165(11) 0.88237(11) 0.17787(9)
C15 C 0.92334(12) 0.99726(11) 0.24219(10)
C16 C 1.02816(12) 0.95850(13) 0.34144(11)
H10 H 1.1296 1.0347 0.3758
H11 H 1.0284 0.8750 0.3040
H12 H 0.9935 0.9411 0.4079
C17 C 0.91404(14) 1.12170(13) 0.30410(13)
H13 H 1.0149 1.1975 0.3496
H14 H 0.8667 1.0943 0.3618
H15 H 0.8546 1.1524 0.2403
C18 C 0.98446(13) 1.03564(14) 0.14333(12)
H16 H 1.0852 1.1128 0.1826
H17 H 0.9190 1.0629 0.0811
H18 H 0.9882 0.9557 0.1030
C19 C 0.54423(11) 0.73777(10) 0.23553(9)
H19 H 0.4738 0.7065 0.1460
C20 C 0.54028(12) 0.86605(11) 0.29492(10)
C21 C 0.43371(12) 0.92263(11) 0.22128(10)
C22 C 0.33165(14) 0.83759(14) 0.08772(11)
H20 H 0.2668 0.8790 0.0474
H21 H 0.2702 0.7427 0.0880
H22 H 0.3926 0.8366 0.0422
C23 C 0.53082(14) 1.07020(13) 0.21884(13)
H23 H 0.4666 1.1126 0.1795
H24 H 0.5894 1.0671 0.1715
H25 H 0.5985 1.1252 0.3039
C24 C 0.33859(15) 0.92900(14) 0.29217(13)
H26 H 0.2780 0.9744 0.2523
H27 H 0.4044 0.9817 0.3782
H28 H 0.2729 0.8350 0.2911
O7 O 0.8298(3) 0.3832(2) 0.3871(2)
C25 C 1.0189(5) 0.6143(5) 0.4397(5)
H29 H 1.0204 0.6045 0.3573
H30 H 1.1214 0.6669 0.5029
H31 H 0.9603 0.6634 0.4443
C26 C 0.9483(3) 0.4711(3) 0.4625(2)
C27 C 1.0285(5) 0.4450(5) 0.5814(4)
H32 H 1.0598 0.5215 0.6505
H33 H 1.1166 0.4380 0.5797
H34 H 0.9618 0.3584 0.5923
O7A O 1.1702(3) 0.6168(2) 0.6129(2)
C25A C 0.9811(5) 0.3857(5) 0.5603(5)
H29A H 0.9796 0.3955 0.6427
H30A H 0.8786 0.3331 0.4971
H31A H 1.0397 0.3366 0.5557
C26A C 1.0517(3) 0.5289(3) 0.5375(2)
C27A C 0.9715(5) 0.5550(5) 0.4186(4)
H32A H 0.9402 0.4785 0.3495
H33A H 0.8834 0.5620 0.4203
H34A H 1.0382 0.6416 0.4077
loop_
_geom_bond_atom_site_label_1
_geom_bond_atom_site_label_2
_geom_bond_site_symmetry_1
_geom_bond_site_symmetry_2
O1 C2 1_555 1_555
C1 C2 1_555 1_555
O2 C2 1_555 1_555
O3 C11 1_555 1_555
C3 O2 1_555 1_555
H1 C3 1_555 1_555
H2 C3 1_555 1_555
C4 C1 1_555 1_555
O4 C11 1_555 1_555
C5 C4 1_555 1_555
O5 C14 1_555 1_555
C6 C5 1_555 1_555
H3 C6 1_555 1_555
H4 C6 1_555 1_555
O6 C20 1_555 1_555
C7 C1 1_555 1_555
C8 C7 1_555 1_555
H5 C8 1_555 1_555
H6 C8 1_555 1_555
C9 C7 1_555 1_555
C10 C9 1_555 1_555
C11 C10 1_555 1_555
C12 O4 1_555 1_555
H7 C12 1_555 1_555
H8 C12 1_555 1_555
C13 C10 1_555 1_555
H9 C13 1_555 1_555
C14 C13 1_555 1_555
C15 C14 1_555 1_555
C16 C15 1_555 1_555
H10 C16 1_555 1_555
H11 C16 1_555 1_555
H12 C16 1_555 1_555
C17 C15 1_555 1_555
H13 C17 1_555 1_555
H14 C17 1_555 1_555
H15 C17 1_555 1_555
C18 C15 1_555 1_555
H16 C18 1_555 1_555
H17 C18 1_555 1_555
H18 C18 1_555 1_555
C19 C1 1_555 1_555
H19 C19 1_555 1_555
C20 C19 1_555 1_555
C21 C20 1_555 1_555
C22 C21 1_555 1_555
H20 C22 1_555 1_555
H21 C22 1_555 1_555
H22 C22 1_555 1_555
C23 C21 1_555 1_555
H23 C23 1_555 1_555
H24 C23 1_555 1_555
H25 C23 1_555 1_555
C24 C21 1_555 1_555
H26 C24 1_555 1_555
H27 C24 1_555 1_555
H28 C24 1_555 1_555
O7 C26 1_555 1_555
C25 H29 1_555 1_555
H30 C25 1_555 1_555
H31 C25 1_555 1_555
C26 C25 1_555 1_555
C27 C26 1_555 1_555
H32 C27 1_555 1_555
H33 C27 1_555 1_555
H34 C27 1_555 1_555
O7A C26A 1_555 1_555
C25A H29A 1_555 1_555
H30A C25A 1_555 1_555
H31A C25A 1_555 1_555
C26A C25A 1_555 1_555
C27A C26A 1_555 1_555
H32A C27A 1_555 1_555
H33A C27A 1_555 1_555
H34A C27A 1_555 1_555
C3 C4 1_555 1_555
C9 C12 1_555 1_555
C13 C19 1_555 1_555

#END
