
#######################################################################
#
#                 Cambridge Crystallographic Data Centre
#                                CCDC 
#
#######################################################################
#
# If this CIF has been generated from an entry in the Cambridge 
# Structural Database, then it will include bibliographic, chemical, 
# crystal, experimental, refinement or atomic coordinate data resulting 
# from the CCDC's data processing and validation procedures.
#
#######################################################################

data_BIKXOL
_chemical_formula_moiety         'C19 H16 O3'
_chemical_name_systematic        
3-(3,3-dimethylbut-1-yn-1-yl)-4-(3-phenylprop-2-ynoyl)furan-2(5H)-one
_symmetry_cell_setting           orthorhombic
_symmetry_space_group_name_H-M   'P n m a'
_symmetry_Int_Tables_number      62
_space_group_name_Hall           '-P 2ac 2n'
loop_
_symmetry_equiv_pos_site_id
_symmetry_equiv_pos_as_xyz
1 x,y,z
2 1/2+x,1/2-y,1/2-z
3 -x,1/2+y,-z
4 1/2-x,-y,1/2+z
5 -x,-y,-z
6 1/2-x,1/2+y,1/2+z
7 x,1/2-y,z
8 1/2+x,y,1/2-z
_cell_length_a                   21.2056(7)
_cell_length_b                   6.6404(3)
_cell_length_c                   10.6845(4)
_cell_angle_alpha                90
_cell_angle_beta                 90
_cell_angle_gamma                90
_cell_volume                     1504.52
_exptl_crystal_colour            colorless
_exptl_crystal_description       plate
_cell_formula_units_Z            4
loop_
_atom_site_label
_atom_site_type_symbol
_atom_site_fract_x
_atom_site_fract_y
_atom_site_fract_z
O1 O 0.25696(6) 0.2500 0.57720(13)
O2 O 0.24450(5) 0.2500 0.36907(12)
O3 O 0.07192(6) 0.2500 0.18482(11)
C1 C 0.01860(9) 0.2500 0.87564(17)
H1 H 0.0137 0.2500 0.9669
H2 H -0.0011 0.3724 0.8426
C2 C 0.11978(7) 0.4401(2) 0.89899(12)
H3 H 0.1647 0.4422 0.8773
H4 H 0.1151 0.4392 0.9902
H5 H 0.0991 0.5599 0.8646
C3 C 0.08900(8) 0.2500 0.84391(15)
C4 C 0.10165(8) 0.2500 0.70757(16)
C5 C 0.11819(8) 0.2500 0.59983(15)
C6 C 0.15163(8) 0.2500 0.48463(16)
C7 C 0.22242(8) 0.2500 0.48835(17)
C8 C 0.19244(8) 0.2500 0.28276(16)
H6 H 0.1936 0.1324 0.2306
C9 C 0.13463(8) 0.2500 0.36309(16)
C10 C 0.07303(8) 0.2500 0.29980(16)
C11 C 0.01581(8) 0.2500 0.37139(16)
C12 C -0.03486(8) 0.2500 0.42173(16)
C13 C -0.09209(8) 0.2500 0.49270(16)
C14 C -0.08741(8) 0.2500 0.62319(16)
H7 H -0.0470 0.2500 0.6617
C15 C -0.14109(8) 0.2500 0.69656(17)
H8 H -0.1377 0.2500 0.7852
C16 C -0.20020(8) 0.2500 0.63990(17)
H9 H -0.2372 0.2500 0.6899
C17 C -0.20502(8) 0.2500 0.51022(17)
H10 H -0.2455 0.2500 0.4721
C18 C -0.15140(8) 0.2500 0.43554(16)
H11 H -0.1550 0.2500 0.3469
H2F H -0.0011 0.1276 0.8426
C2F C 0.11978(7) 0.0599(2) 0.89899(12)
H3F H 0.1647 0.0578 0.8773
H4F H 0.1151 0.0608 0.9902
H5F H 0.0991 -0.0599 0.8646
H6F H 0.1936 0.3676 0.2306
loop_
_geom_bond_atom_site_label_1
_geom_bond_atom_site_label_2
_geom_bond_site_symmetry_1
_geom_bond_site_symmetry_2
O1 C7 1_555 1_555
O2 C7 1_555 1_555
O3 C10 1_555 1_555
C1 H1 1_555 1_555
H2 C1 1_555 1_555
C2 H3 1_555 1_555
H4 C2 1_555 1_555
H5 C2 1_555 1_555
C3 C1 1_555 1_555
C4 C3 1_555 1_555
C5 C4 1_555 1_555
C6 C5 1_555 1_555
C7 C6 1_555 1_555
C8 O2 1_555 1_555
H6 C8 1_555 1_555
C9 C6 1_555 1_555
C10 C9 1_555 1_555
C11 C10 1_555 1_555
C12 C11 1_555 1_555
C13 C12 1_555 1_555
C14 C13 1_555 1_555
H7 C14 1_555 1_555
C15 C14 1_555 1_555
H8 C15 1_555 1_555
C16 C15 1_555 1_555
H9 C16 1_555 1_555
C17 C16 1_555 1_555
H10 C17 1_555 1_555
C18 C13 1_555 1_555
H11 C18 1_555 1_555
H2F C1 1_555 1_555
C2F C3 1_555 1_555
H3F C2F 1_555 1_555
H4F C2F 1_555 1_555
H5F C2F 1_555 1_555
H6F C8 1_555 1_555
C2 C3 1_555 1_555
C8 C9 1_555 1_555
C17 C18 1_555 1_555

#END
