
#######################################################################
#
#                 Cambridge Crystallographic Data Centre
#                                CCDC 
#
#######################################################################
#
# If this CIF has been generated from an entry in the Cambridge 
# Structural Database, then it will include bibliographic, chemical, 
# crystal, experimental, refinement or atomic coordinate data resulting 
# from the CCDC's data processing and validation procedures.
#
#######################################################################

data_BIKYAY
_chemical_formula_moiety         'C24 H19 Br1 O4'
_chemical_name_systematic        
'2-t-butyl-3-formylnaphtho[2,3-b]furan-4-yl 4-bromobenzoate'
_symmetry_cell_setting           triclinic
_symmetry_space_group_name_H-M   'P -1'
_symmetry_Int_Tables_number      2
_space_group_name_Hall           '-P 1'
loop_
_symmetry_equiv_pos_site_id
_symmetry_equiv_pos_as_xyz
1 x,y,z
2 -x,-y,-z
_cell_length_a                   8.9376(5)
_cell_length_b                   8.9651(6)
_cell_length_c                   12.9500(8)
_cell_angle_alpha                100.101(3)
_cell_angle_beta                 100.226(2)
_cell_angle_gamma                102.191(3)
_cell_volume                     973.379
_exptl_crystal_colour            colorless
_exptl_crystal_description       plate
_cell_formula_units_Z            2
loop_
_atom_site_label
_atom_site_type_symbol
_atom_site_fract_x
_atom_site_fract_y
_atom_site_fract_z
O1 O 0.21831(13) 0.37141(13) 0.70872(9)
C1 C 0.32554(19) 0.28974(18) 0.68208(13)
C2 C 0.27578(19) 0.20319(18) 0.57786(12)
C3 C 0.12395(18) 0.23180(17) 0.53483(12)
C4 C 0.09521(18) 0.33627(18) 0.62012(12)
C5 C -0.03446(19) 0.39407(18) 0.61747(12)
H1 H -0.0455 0.4655 0.6774
C6 C -0.15131(18) 0.34261(18) 0.52145(13)
C7 C -0.29269(19) 0.39335(19) 0.51101(13)
H2 H -0.3076 0.4653 0.5692
C8 C -0.4072(2) 0.3403(2) 0.41877(14)
H3 H -0.5013 0.3744 0.4136
C9 C -0.3863(2) 0.2349(2) 0.33105(14)
H4 H -0.4671 0.1977 0.2674
C10 C -0.25077(19) 0.18576(19) 0.33703(13)
H5 H -0.2374 0.1165 0.2769
C11 C -0.12972(19) 0.23732(18) 0.43230(13)
C12 C 0.01011(19) 0.18551(18) 0.44048(12)
C13 C 0.4624(2) 0.31577(19) 0.77643(13)
C14 C 0.3975(2) 0.2582(2) 0.86868(14)
H6 H 0.4845 0.2714 0.9301
H7 H 0.3418 0.1473 0.8444
H8 H 0.3248 0.3192 0.8903
C15 C 0.5410(2) 0.4923(2) 0.81415(15)
H9 H 0.6236 0.5107 0.8792
H10 H 0.4622 0.5489 0.8300
H11 H 0.5872 0.5295 0.7573
C16 C 0.5866(2) 0.2302(2) 0.75085(14)
H12 H 0.6729 0.2544 0.8143
H13 H 0.6269 0.2642 0.6909
H14 H 0.5395 0.1172 0.7308
C17 C 0.3571(2) 0.09921(19) 0.52225(13)
H15 H 0.4545 0.0899 0.5606
O2 O 0.30742(15) 0.02428(15) 0.43011(10)
O3 O 0.02113(13) 0.08153(13) 0.34943(9)
O4 O 0.19434(15) 0.27559(14) 0.31125(10)
C18 C 0.11926(19) 0.14145(18) 0.29001(12)
C19 C 0.11849(18) 0.02349(18) 0.19342(12)
C20 C 0.03544(19) -0.13207(19) 0.17413(13)
H16 H -0.0243 -0.1659 0.2233
C21 C 0.0396(2) -0.23810(19) 0.08320(13)
H17 H -0.0184 -0.3441 0.0690
C22 C 0.1295(2) -0.18697(19) 0.01380(13)
Br1 Br 0.14724(3) -0.33198(2) -0.10629(2)
C23 C 0.2123(2) -0.0321(2) 0.03081(13)
H18 H 0.2725 0.0012 -0.0182
C24 C 0.2050(2) 0.07292(19) 0.12091(13)
H19 H 0.2597 0.1798 0.1333
loop_
_geom_bond_atom_site_label_1
_geom_bond_atom_site_label_2
_geom_bond_site_symmetry_1
_geom_bond_site_symmetry_2
O1 C1 1_555 1_555
C1 C2 1_555 1_555
C2 C3 1_555 1_555
C3 C4 1_555 1_555
C4 O1 1_555 1_555
C5 C4 1_555 1_555
H1 C5 1_555 1_555
C6 C5 1_555 1_555
C7 C6 1_555 1_555
H2 C7 1_555 1_555
C8 C7 1_555 1_555
H3 C8 1_555 1_555
C9 C8 1_555 1_555
H4 C9 1_555 1_555
C10 C9 1_555 1_555
H5 C10 1_555 1_555
C11 C6 1_555 1_555
C12 C3 1_555 1_555
C13 C1 1_555 1_555
C14 C13 1_555 1_555
H6 C14 1_555 1_555
H7 C14 1_555 1_555
H8 C14 1_555 1_555
C15 C13 1_555 1_555
H9 C15 1_555 1_555
H10 C15 1_555 1_555
H11 C15 1_555 1_555
C16 C13 1_555 1_555
H12 C16 1_555 1_555
H13 C16 1_555 1_555
H14 C16 1_555 1_555
C17 C2 1_555 1_555
H15 C17 1_555 1_555
O2 C17 1_555 1_555
O3 C12 1_555 1_555
O4 C18 1_555 1_555
C18 O3 1_555 1_555
C19 C18 1_555 1_555
C20 C19 1_555 1_555
H16 C20 1_555 1_555
C21 C20 1_555 1_555
H17 C21 1_555 1_555
C22 C21 1_555 1_555
Br1 C22 1_555 1_555
C23 C22 1_555 1_555
H18 C23 1_555 1_555
C24 C19 1_555 1_555
H19 C24 1_555 1_555
C10 C11 1_555 1_555
C11 C12 1_555 1_555
C23 C24 1_555 1_555

#END
