
#######################################################################
#
#                 Cambridge Crystallographic Data Centre
#                                CCDC 
#
#######################################################################
#
# If this CIF has been generated from an entry in the Cambridge 
# Structural Database, then it will include bibliographic, chemical, 
# crystal, experimental, refinement or atomic coordinate data resulting 
# from the CCDC's data processing and validation procedures.
#
#######################################################################

data_BILBOP
_chemical_formula_moiety         'C32 H40 N4 O3 P2'
_chemical_name_systematic        
"N,N',N'',N'''-Tetrabenzyl-N,N',N'',N'''-tetramethyldiphosphoric tetra-amide"
_symmetry_cell_setting           monoclinic
_symmetry_space_group_name_H-M   'C 2/c'
_symmetry_Int_Tables_number      15
_space_group_name_Hall           '-C 2yn'
loop_
_symmetry_equiv_pos_site_id
_symmetry_equiv_pos_as_xyz
1 x,y,z
2 -x,y,1/2-z
3 1/2+x,1/2+y,z
4 1/2-x,1/2+y,1/2-z
5 -x,-y,-z
6 x,-y,1/2+z
7 1/2-x,1/2-y,-z
8 1/2+x,1/2-y,1/2+z
_cell_length_a                   19.050(3)
_cell_length_b                   8.5308(12)
_cell_length_c                   18.821(3)
_cell_angle_alpha                90
_cell_angle_beta                 97.341(6)
_cell_angle_gamma                90
_cell_volume                     3033.56
_exptl_crystal_colour            colorless
_exptl_crystal_description       block
_cell_formula_units_Z            4
loop_
_atom_site_label
_atom_site_type_symbol
_atom_site_fract_x
_atom_site_fract_y
_atom_site_fract_z
P1 P 0.011654(17) 0.71027(4) 0.176053(16)
O1 O -0.04695(5) 0.60378(11) 0.15054(5)
O2 O 0.0000 0.79683(14) 0.2500
N1 N 0.08733(6) 0.61642(13) 0.18719(6)
N2 N 0.02439(6) 0.86483(13) 0.12811(6)
C1 C 0.08950(7) 0.44947(15) 0.20642(7)
H1 H 0.0404 0.4097 0.2043
H2 H 0.1125 0.4379 0.2563
C2 C 0.12904(7) 0.35087(15) 0.15763(7)
C3 C 0.11774(7) 0.37084(16) 0.08350(7)
H3 H 0.0877 0.4527 0.0634
C4 C 0.15001(8) 0.27189(17) 0.03880(8)
H4 H 0.1421 0.2866 -0.0116
C5 C 0.19373(8) 0.15171(17) 0.06763(8)
H5 H 0.2154 0.0835 0.0370
C6 C 0.20569(8) 0.13143(17) 0.14134(8)
H6 H 0.2358 0.0495 0.1612
C7 C 0.17354(7) 0.23109(16) 0.18622(8)
H7 H 0.1821 0.2171 0.2367
C8 C 0.15271(7) 0.70078(17) 0.21266(8)
H8 H 0.1931 0.6459 0.1968
H9 H 0.1586 0.7055 0.2651
H10 H 0.1501 0.8074 0.1931
C9 C 0.00910(7) 1.02782(15) 0.14534(7)
H11 H 0.0402 1.0968 0.1209
H12 H 0.0218 1.0430 0.1975
C10 C -0.06688(7) 1.08148(16) 0.12518(6)
C11 C -0.07994(8) 1.23960(16) 0.10948(7)
H13 H -0.0413 1.3102 0.1102
C12 C -0.14850(8) 1.29522(17) 0.09286(8)
H14 H -0.1565 1.4032 0.0823
C13 C -0.20529(8) 1.19326(18) 0.09159(8)
H15 H -0.2523 1.2307 0.0798
C14 C -0.19302(8) 1.03562(17) 0.10775(7)
H16 H -0.2318 0.9656 0.1075
C15 C -0.12434(7) 0.98018(16) 0.12429(7)
H17 H -0.1165 0.8723 0.1351
C16 C 0.03594(8) 0.83547(17) 0.05376(7)
H18 H 0.0740 0.9034 0.0413
H19 H -0.0077 0.8580 0.0218
H20 H 0.0492 0.7255 0.0484
P1A P -0.011654(17) 0.71027(4) 0.323947(16)
O1A O 0.04695(5) 0.60378(11) 0.34946(5)
N1A N -0.08733(6) 0.61642(13) 0.31281(6)
N2A N -0.02439(6) 0.86483(13) 0.37189(6)
C1A C -0.08950(7) 0.44947(15) 0.29358(7)
H1A H -0.0404 0.4097 0.2957
H2A H -0.1125 0.4379 0.2437
C2A C -0.12904(7) 0.35087(15) 0.34237(7)
C3A C -0.11774(7) 0.37084(16) 0.41650(7)
H3A H -0.0877 0.4527 0.4366
C4A C -0.15001(8) 0.27189(17) 0.46120(8)
H4A H -0.1421 0.2866 0.5116
C5A C -0.19373(8) 0.15171(17) 0.43237(8)
H5A H -0.2154 0.0835 0.4630
C6A C -0.20569(8) 0.13143(17) 0.35866(8)
H6A H -0.2358 0.0495 0.3388
C7A C -0.17354(7) 0.23109(16) 0.31378(8)
H7A H -0.1821 0.2171 0.2633
C8A C -0.15271(7) 0.70078(17) 0.28734(8)
H8A H -0.1931 0.6459 0.3032
H9A H -0.1586 0.7055 0.2349
H10A H -0.1501 0.8074 0.3069
C9A C -0.00910(7) 1.02782(15) 0.35466(7)
H11A H -0.0402 1.0968 0.3791
H12A H -0.0218 1.0430 0.3025
C10A C 0.06688(7) 1.08148(16) 0.37482(6)
C11A C 0.07994(8) 1.23960(16) 0.39052(7)
H13A H 0.0413 1.3102 0.3898
C12A C 0.14850(8) 1.29522(17) 0.40714(8)
H14A H 0.1565 1.4032 0.4177
C13A C 0.20529(8) 1.19326(18) 0.40841(8)
H15A H 0.2523 1.2307 0.4202
C14A C 0.19302(8) 1.03562(17) 0.39225(7)
H16A H 0.2318 0.9656 0.3925
C15A C 0.12434(7) 0.98018(16) 0.37571(7)
H17A H 0.1165 0.8723 0.3649
C16A C -0.03594(8) 0.83547(17) 0.44624(7)
H18A H -0.0740 0.9034 0.4587
H19A H 0.0077 0.8580 0.4782
H20A H -0.0492 0.7255 0.4516
loop_
_geom_bond_atom_site_label_1
_geom_bond_atom_site_label_2
_geom_bond_site_symmetry_1
_geom_bond_site_symmetry_2
P1 O1 1_555 1_555
O2 P1 1_555 1_555
N1 P1 1_555 1_555
N2 P1 1_555 1_555
C1 N1 1_555 1_555
H1 C1 1_555 1_555
H2 C1 1_555 1_555
C2 C1 1_555 1_555
C3 C2 1_555 1_555
H3 C3 1_555 1_555
C4 C3 1_555 1_555
H4 C4 1_555 1_555
C5 C4 1_555 1_555
H5 C5 1_555 1_555
C6 C5 1_555 1_555
H6 C6 1_555 1_555
C7 C2 1_555 1_555
H7 C7 1_555 1_555
C8 N1 1_555 1_555
H8 C8 1_555 1_555
H9 C8 1_555 1_555
H10 C8 1_555 1_555
C9 N2 1_555 1_555
H11 C9 1_555 1_555
H12 C9 1_555 1_555
C10 C9 1_555 1_555
C11 C10 1_555 1_555
H13 C11 1_555 1_555
C12 C11 1_555 1_555
H14 C12 1_555 1_555
C13 C12 1_555 1_555
H15 C13 1_555 1_555
C14 C13 1_555 1_555
H16 C14 1_555 1_555
C15 C10 1_555 1_555
H17 C15 1_555 1_555
C16 N2 1_555 1_555
H18 C16 1_555 1_555
H19 C16 1_555 1_555
H20 C16 1_555 1_555
P1A O2 1_555 1_555
O1A P1A 1_555 1_555
N1A P1A 1_555 1_555
N2A P1A 1_555 1_555
C1A N1A 1_555 1_555
H1A C1A 1_555 1_555
H2A C1A 1_555 1_555
C2A C1A 1_555 1_555
C3A C2A 1_555 1_555
H3A C3A 1_555 1_555
C4A C3A 1_555 1_555
H4A C4A 1_555 1_555
C5A C4A 1_555 1_555
H5A C5A 1_555 1_555
C6A C5A 1_555 1_555
H6A C6A 1_555 1_555
C7A C2A 1_555 1_555
H7A C7A 1_555 1_555
C8A N1A 1_555 1_555
H8A C8A 1_555 1_555
H9A C8A 1_555 1_555
H10A C8A 1_555 1_555
C9A N2A 1_555 1_555
H11A C9A 1_555 1_555
H12A C9A 1_555 1_555
C10A C9A 1_555 1_555
C11A C10A 1_555 1_555
H13A C11A 1_555 1_555
C12A C11A 1_555 1_555
H14A C12A 1_555 1_555
C13A C12A 1_555 1_555
H15A C13A 1_555 1_555
C14A C13A 1_555 1_555
H16A C14A 1_555 1_555
C15A C10A 1_555 1_555
H17A C15A 1_555 1_555
C16A N2A 1_555 1_555
H18A C16A 1_555 1_555
H19A C16A 1_555 1_555
H20A C16A 1_555 1_555
C6 C7 1_555 1_555
C14 C15 1_555 1_555
C6A C7A 1_555 1_555
C14A C15A 1_555 1_555

#END
