
#######################################################################
#
#                 Cambridge Crystallographic Data Centre
#                                CCDC 
#
#######################################################################
#
# If this CIF has been generated from an entry in the Cambridge 
# Structural Database, then it will include bibliographic, chemical, 
# crystal, experimental, refinement or atomic coordinate data resulting 
# from the CCDC's data processing and validation procedures.
#
#######################################################################

data_BILCEG
_chemical_formula_moiety         'C12 H16 F2 N3 O2 P1,C1 H4 O1'
_chemical_name_systematic        
'N-(5,5-Dimethyl-2-oxido-1,3,2-diazaphosphinan-2-yl)-2,6-difluorobenzamide methanol solvate'
_symmetry_cell_setting           orthorhombic
_symmetry_space_group_name_H-M   'P 21 21 21'
_symmetry_Int_Tables_number      19
_space_group_name_Hall           'P 2ac 2ab'
loop_
_symmetry_equiv_pos_site_id
_symmetry_equiv_pos_as_xyz
1 x,y,z
2 1/2+x,1/2-y,-z
3 -x,1/2+y,1/2-z
4 1/2-x,-y,1/2+z
_cell_length_a                   8.7127(4)
_cell_length_b                   10.9675(8)
_cell_length_c                   16.8649(9)
_cell_angle_alpha                90
_cell_angle_beta                 90
_cell_angle_gamma                90
_cell_volume                     1611.55
_exptl_crystal_colour            colorless
_exptl_crystal_description       block
_cell_formula_units_Z            4
loop_
_atom_site_label
_atom_site_type_symbol
_atom_site_fract_x
_atom_site_fract_y
_atom_site_fract_z
P1 P 0.31120(8) 0.24796(10) 0.43973(5)
F1 F 0.4534(3) 0.6434(2) 0.44471(12)
F2 F 0.4502(2) 0.4419(2) 0.68872(11)
O1 O 0.2008(2) 0.4597(2) 0.53800(13)
O2 O 0.2260(2) 0.1668(2) 0.49445(13)
N1 N 0.4083(3) 0.3550(3) 0.49294(16)
H1 H 0.5075(12) 0.355(3) 0.493(2)
N2 N 0.2082(3) 0.3171(3) 0.37509(16)
H2 H 0.1130(16) 0.331(3) 0.386(2)
N3 N 0.4444(3) 0.1823(3) 0.38705(16)
H3 H 0.506(3) 0.135(3) 0.4133(19)
C1 C 0.4990(4) 0.6377(4) 0.5217(2)
C2 C 0.5931(4) 0.7279(4) 0.5509(2)
H4 H 0.6268 0.7931 0.5181
C3 C 0.6371(4) 0.7204(4) 0.6295(3)
H5 H 0.7010 0.7821 0.6512
C4 C 0.5900(4) 0.6248(4) 0.6773(2)
H6 H 0.6203 0.6199 0.7313
C5 C 0.4979(4) 0.5375(4) 0.6437(2)
C6 C 0.4477(3) 0.5408(3) 0.56596(19)
C7 C 0.3397(3) 0.4482(4) 0.53180(18)
C8 C 0.2847(4) 0.3867(3) 0.31132(19)
H7 H 0.3424 0.4556 0.3348
H8 H 0.2062 0.4208 0.2751
C9 C 0.3944(4) 0.3058(3) 0.2645(2)
C10 C 0.5147(3) 0.2520(4) 0.32041(18)
H9 H 0.5832 0.1972 0.2900
H10 H 0.5782 0.3189 0.3423
C11 C 0.3066(4) 0.2048(3) 0.22205(19)
H11 H 0.2340 0.2410 0.1845
H12 H 0.2504 0.1559 0.2611
H13 H 0.3791 0.1526 0.1934
C12 C 0.4755(4) 0.3854(4) 0.2035(2)
H14 H 0.3992 0.4231 0.1686
H15 H 0.5456 0.3351 0.1720
H16 H 0.5339 0.4492 0.2308
O3 O -0.1085(3) 0.3996(4) 0.37612(16)
H17 H -0.148(5) 0.380(4) 0.4213(14)
C13 C -0.0844(5) 0.5129(5) 0.3951(3)
H18 H -0.0446 0.5570 0.3489
H19 H -0.0094 0.5169 0.4383
H20 H -0.1810 0.5502 0.4123
loop_
_geom_bond_atom_site_label_1
_geom_bond_atom_site_label_2
_geom_bond_site_symmetry_1
_geom_bond_site_symmetry_2
P1 O2 1_555 1_555
F1 C1 1_555 1_555
F2 C5 1_555 1_555
O1 C7 1_555 1_555
N1 P1 1_555 1_555
H1 N1 1_555 1_555
N2 P1 1_555 1_555
H2 N2 1_555 1_555
N3 P1 1_555 1_555
H3 N3 1_555 1_555
C1 C2 1_555 1_555
C2 H4 1_555 1_555
C3 C2 1_555 1_555
H5 C3 1_555 1_555
C4 C3 1_555 1_555
H6 C4 1_555 1_555
C5 C4 1_555 1_555
C6 C1 1_555 1_555
C7 N1 1_555 1_555
C8 N2 1_555 1_555
H7 C8 1_555 1_555
H8 C8 1_555 1_555
C9 C8 1_555 1_555
C10 N3 1_555 1_555
H9 C10 1_555 1_555
H10 C10 1_555 1_555
C11 C9 1_555 1_555
H11 C11 1_555 1_555
H12 C11 1_555 1_555
H13 C11 1_555 1_555
C12 C9 1_555 1_555
H14 C12 1_555 1_555
H15 C12 1_555 1_555
H16 C12 1_555 1_555
O3 H17 1_555 1_555
C13 O3 1_555 1_555
H18 C13 1_555 1_555
H19 C13 1_555 1_555
H20 C13 1_555 1_555
C5 C6 1_555 1_555
C6 C7 1_555 1_555
C9 C10 1_555 1_555

#END
