
#######################################################################
#
#                 Cambridge Crystallographic Data Centre
#                                CCDC 
#
#######################################################################
#
# If this CIF has been generated from an entry in the Cambridge 
# Structural Database, then it will include bibliographic, chemical, 
# crystal, experimental, refinement or atomic coordinate data resulting 
# from the CCDC's data processing and validation procedures.
#
#######################################################################

data_BILCIK
_chemical_formula_moiety         'C15 H24 F2 N3 O2 P1'
_chemical_name_systematic        
N-(bis(Diethylamino)phosphoryl)-2,6-difluorobenzamide
_symmetry_cell_setting           triclinic
_symmetry_space_group_name_H-M   'P -1'
_symmetry_Int_Tables_number      2
_space_group_name_Hall           '-P 1'
loop_
_symmetry_equiv_pos_site_id
_symmetry_equiv_pos_as_xyz
1 x,y,z
2 -x,-y,-z
_cell_length_a                   9.8932(17)
_cell_length_b                   10.5022(19)
_cell_length_c                   19.228(4)
_cell_angle_alpha                79.853(3)
_cell_angle_beta                 81.589(2)
_cell_angle_gamma                62.860(2)
_cell_volume                     1745.06
_exptl_crystal_colour            colorless
_exptl_crystal_description       block
_cell_formula_units_Z            4
loop_
_atom_site_label
_atom_site_type_symbol
_atom_site_fract_x
_atom_site_fract_y
_atom_site_fract_z
C1 C 0.36725(18) 0.50983(18) 0.37040(9)
C2 C 0.27153(19) 0.50361(19) 0.42932(9)
H1 H 0.1641 0.5553 0.4279
C3 C 0.3364(2) 0.42014(19) 0.49035(9)
H2 H 0.2723 0.4140 0.5314
C4 C 0.49335(19) 0.34488(18) 0.49317(8)
H3 H 0.5375 0.2878 0.5354
C5 C 0.58277(17) 0.35580(17) 0.43266(8)
C6 C 0.52536(17) 0.43714(17) 0.36951(8)
C7 C 0.62929(16) 0.43744(17) 0.30371(8)
C8 C 0.92667(17) 0.52223(18) 0.27516(9)
H4 H 1.0393 0.4733 0.2687
H5 H 0.8927 0.4514 0.3025
C9 C 0.8793(2) 0.6464(2) 0.31835(9)
H6 H 0.9155 0.7156 0.2927
H7 H 0.9238 0.6090 0.3642
H8 H 0.7680 0.6946 0.3259
C10 C 0.96724(18) 0.58297(19) 0.14447(9)
H9 H 0.9149 0.6071 0.1005
H10 H 1.0593 0.4900 0.1413
C11 C 1.01599(19) 0.6988(2) 0.14853(9)
H11 H 0.9255 0.7902 0.1543
H12 H 1.0763 0.7102 0.1048
H13 H 1.0776 0.6707 0.1891
C12 C 0.81481(17) 0.36645(17) 0.12556(8)
H14 H 0.7740 0.2955 0.1434
H15 H 0.8989 0.3456 0.1547
C13 C 0.8768(2) 0.3491(2) 0.04897(9)
H16 H 0.7959 0.3616 0.0207
H17 H 0.9614 0.2527 0.0464
H18 H 0.9133 0.4220 0.0304
C14 C 0.55368(18) 0.55841(18) 0.09716(9)
H19 H 0.5819 0.5512 0.0459
H20 H 0.4857 0.6609 0.1025
C15 C 0.4669(2) 0.4705(2) 0.12475(12)
H21 H 0.5312 0.3697 0.1172
H22 H 0.3746 0.5084 0.0994
H23 H 0.4388 0.4766 0.1755
N1 N 0.61078(14) 0.57026(14) 0.27235(7)
H24 H 0.5531(17) 0.6437(14) 0.2944(9)
N2 N 0.86543(14) 0.56526(15) 0.20521(7)
N3 N 0.69355(14) 0.51275(14) 0.13357(7)
O1 O 0.72094(12) 0.32468(12) 0.28206(6)
O2 O 0.59113(12) 0.76509(12) 0.17011(6)
F1 F 0.30436(11) 0.58847(12) 0.30978(5)
F2 F 0.73617(10) 0.28522(11) 0.43493(5)
P1 P 0.68900(4) 0.61027(4) 0.19235(2)
C16 C 0.2397(2) 0.9663(2) 0.09606(9)
C17 C 0.2472(2) 0.9474(2) 0.02632(10)
H25 H 0.2260 0.8748 0.0141
C18 C 0.2864(2) 1.0363(2) -0.02542(10)
H26 H 0.2928 1.0245 -0.0738
C19 C 0.3162(2) 1.1420(2) -0.00787(9)
H27 H 0.3440 1.2027 -0.0435
C20 C 0.30468(18) 1.15756(19) 0.06270(9)
C21 C 0.26684(17) 1.07181(17) 0.11688(8)
C22 C 0.25296(16) 1.09563(17) 0.19325(8)
C23 C 0.12535(18) 0.94247(19) 0.38934(9)
H28 H 0.0494 0.9807 0.4293
H29 H 0.1985 0.8429 0.4061
C24 C 0.0443(2) 0.9380(2) 0.32910(11)
H30 H -0.0255 1.0365 0.3109
H31 H -0.0134 0.8823 0.3466
H32 H 0.1197 0.8924 0.2910
C25 C 0.11302(17) 1.18718(17) 0.37192(8)
H33 H 0.0157 1.2162 0.3513
H34 H 0.1654 1.2411 0.3424
C26 C 0.07895(18) 1.22901(19) 0.44651(9)
H35 H 0.0305 1.1734 0.4766
H36 H 0.0102 1.3322 0.4452
H37 H 0.1742 1.2084 0.4659
C27 C 0.50288(18) 1.14751(18) 0.26613(8)
H38 H 0.5166 1.2241 0.2833
H39 H 0.4208 1.1951 0.2331
C28 C 0.65006(19) 1.0544(2) 0.22560(9)
H40 H 0.7335 1.0114 0.2570
H41 H 0.6732 1.1142 0.1851
H42 H 0.6381 0.9777 0.2086
C29 C 0.48855(18) 1.07665(19) 0.39727(8)
H43 H 0.4463 1.0224 0.4337
H44 H 0.4368 1.1789 0.4060
C30 C 0.65814(18) 1.01798(19) 0.40554(9)
H45 H 0.7100 0.9160 0.3982
H46 H 0.6729 1.0276 0.4533
H47 H 0.7005 1.0725 0.3704
N4 N 0.35276(14) 0.98215(14) 0.23445(7)
H48 H 0.4223(16) 0.9119(15) 0.2137(9)
N5 N 0.20814(14) 1.03206(14) 0.36923(7)
N6 N 0.45443(14) 1.06710(14) 0.32700(7)
O3 O 0.16060(13) 1.20949(12) 0.21337(6)
O4 O 0.45592(12) 0.80999(12) 0.34521(5)
F3 F 0.20325(15) 0.87869(13) 0.14729(6)
F4 F 0.33580(13) 1.26003(13) 0.08068(6)
P2 P 0.37136(4) 0.96644(4) 0.32203(2)
loop_
_geom_bond_atom_site_label_1
_geom_bond_atom_site_label_2
_geom_bond_site_symmetry_1
_geom_bond_site_symmetry_2
C1 C2 1_555 1_555
C2 H1 1_555 1_555
C3 C2 1_555 1_555
H2 C3 1_555 1_555
C4 C3 1_555 1_555
H3 C4 1_555 1_555
C5 C4 1_555 1_555
C6 C1 1_555 1_555
C7 C6 1_555 1_555
C8 H4 1_555 1_555
H5 C8 1_555 1_555
C9 C8 1_555 1_555
H6 C9 1_555 1_555
H7 C9 1_555 1_555
H8 C9 1_555 1_555
C10 H9 1_555 1_555
H10 C10 1_555 1_555
C11 C10 1_555 1_555
H11 C11 1_555 1_555
H12 C11 1_555 1_555
H13 C11 1_555 1_555
C12 H14 1_555 1_555
H15 C12 1_555 1_555
C13 C12 1_555 1_555
H16 C13 1_555 1_555
H17 C13 1_555 1_555
H18 C13 1_555 1_555
C14 H19 1_555 1_555
H20 C14 1_555 1_555
C15 C14 1_555 1_555
H21 C15 1_555 1_555
H22 C15 1_555 1_555
H23 C15 1_555 1_555
N1 C7 1_555 1_555
H24 N1 1_555 1_555
N2 C8 1_555 1_555
N3 C12 1_555 1_555
O1 C7 1_555 1_555
O2 P1 1_555 1_555
F1 C1 1_555 1_555
F2 C5 1_555 1_555
P1 N1 1_555 1_555
C16 C17 1_555 1_555
C17 H25 1_555 1_555
C18 C17 1_555 1_555
H26 C18 1_555 1_555
C19 C18 1_555 1_555
H27 C19 1_555 1_555
C20 C19 1_555 1_555
C21 C16 1_555 1_555
C22 C21 1_555 1_555
C23 H28 1_555 1_555
H29 C23 1_555 1_555
C24 C23 1_555 1_555
H30 C24 1_555 1_555
H31 C24 1_555 1_555
H32 C24 1_555 1_555
C25 H33 1_555 1_555
H34 C25 1_555 1_555
C26 C25 1_555 1_555
H35 C26 1_555 1_555
H36 C26 1_555 1_555
H37 C26 1_555 1_555
C27 H38 1_555 1_555
H39 C27 1_555 1_555
C28 C27 1_555 1_555
H40 C28 1_555 1_555
H41 C28 1_555 1_555
H42 C28 1_555 1_555
C29 H43 1_555 1_555
H44 C29 1_555 1_555
C30 C29 1_555 1_555
H45 C30 1_555 1_555
H46 C30 1_555 1_555
H47 C30 1_555 1_555
N4 C22 1_555 1_555
H48 N4 1_555 1_555
N5 C23 1_555 1_555
N6 C27 1_555 1_555
O3 C22 1_555 1_555
O4 P2 1_555 1_555
F3 C16 1_555 1_555
F4 C20 1_555 1_555
P2 N4 1_555 1_555
C5 C6 1_555 1_555
C10 N2 1_555 1_555
C14 N3 1_555 1_555
N2 P1 1_555 1_555
N3 P1 1_555 1_555
C20 C21 1_555 1_555
C25 N5 1_555 1_555
C29 N6 1_555 1_555
N5 P2 1_555 1_555
N6 P2 1_555 1_555

#END
