
#######################################################################
#
#                 Cambridge Crystallographic Data Centre
#                                CCDC 
#
#######################################################################
#
# If this CIF has been generated from an entry in the Cambridge 
# Structural Database, then it will include bibliographic, chemical, 
# crystal, experimental, refinement or atomic coordinate data resulting 
# from the CCDC's data processing and validation procedures.
#
#######################################################################

data_BILGAH
_chemical_formula_moiety         'H4 N1 1+,C4 H12 N2 2+,3(Cl1 1-)'
_chemical_name_systematic        
'ammonium (R)-3-ammoniopyrrolidin-1-ium trichloride'
_symmetry_cell_setting           monoclinic
_symmetry_space_group_name_H-M   'P 21'
_symmetry_Int_Tables_number      4
_space_group_name_Hall           'P 2yb'
loop_
_symmetry_equiv_pos_site_id
_symmetry_equiv_pos_as_xyz
1 x,y,z
2 -x,1/2+y,-z
_cell_length_a                   9.133(5)
_cell_length_b                   9.122(5)
_cell_length_c                   12.447(7)
_cell_angle_alpha                90
_cell_angle_beta                 91.981(11)
_cell_angle_gamma                90
_cell_volume                     1036.36
_exptl_crystal_colour            colorless
_exptl_crystal_description       block
_cell_formula_units_Z            4
loop_
_atom_site_label
_atom_site_type_symbol
_atom_site_fract_x
_atom_site_fract_y
_atom_site_fract_z
N1 N -0.7732(5) 1.3034(6) 1.2498(4)
H1 H -0.8479 1.3562 1.2284
H2 H -0.7811 1.2697 1.3148
H3 H -0.6901 1.3496 1.2463
H4 H -0.7560 1.2297 1.2075
N2 N -0.2763(6) 0.7926(7) 1.2511(4)
H5 H -0.1900 0.7520 1.2507
H6 H -0.2939 0.8317 1.1883
H7 H -0.2723 0.8666 1.2953
H8 H -0.3412 0.7231 1.2561
Cl1 Cl -0.50945(17) 1.0699(2) 1.26387(13)
Cl2 Cl -0.81199(17) 1.32103(19) 1.50177(12)
Cl3 Cl -0.68650(17) 1.34829(18) 1.00113(12)
Cl4 Cl -0.55463(15) 1.59179(17) 1.33133(11)
Cl5 Cl -1.04696(15) 1.09544(18) 1.17226(11)
Cl6 Cl -0.99622(15) 1.58383(19) 1.22051(12)
N3 N 0.4430(5) 0.8926(5) 0.4715(4)
H9 H 0.4686 0.9393 0.4123
H10 H 0.4994 0.9225 0.5270
H11 H 0.4540 0.7965 0.4626
N4 N 0.1285(6) 0.7188(7) 0.4480(4)
H12 H 0.0311 0.7201 0.4489
H13 H 0.1556 0.6447 0.4067
C1 C 0.1908(8) 0.7005(8) 0.5578(5)
H14 H 0.2750 0.6356 0.5581
H15 H 0.1185 0.6601 0.6048
C2 C 0.2346(7) 0.8495(8) 0.5928(4)
H16 H 0.3132 0.8450 0.6472
H17 H 0.1523 0.9011 0.6224
C3 C 0.2853(7) 0.9256(7) 0.4931(4)
H18 H 0.2707 1.0317 0.4991
C4 C 0.1849(7) 0.8631(8) 0.4038(5)
H19 H 0.1043 0.9296 0.3872
H20 H 0.2387 0.8466 0.3391
N5 N -0.0574(5) 0.3138(6) 0.9623(4)
H21 H -0.0251 0.2515 0.9135
H22 H -0.0024 0.3944 0.9630
H23 H -0.0520 0.2719 1.0269
N6 N -0.3704(6) 0.2265(6) 1.0536(4)
H24 H -0.4679 0.2228 1.0504
H25 H -0.3375 0.1496 1.0911
C5 C -0.3132(7) 0.2216(7) 0.9428(5)
H26 H -0.3930 0.2267 0.8894
H27 H -0.2587 0.1319 0.9319
C6 C -0.2142(6) 0.3539(7) 0.9346(4)
H28 H -0.2223 0.3957 0.8621
C7 C -0.2739(8) 0.4590(7) 1.0148(6)
H29 H -0.3565 0.5129 0.9837
H30 H -0.1991 0.5282 1.0389
C8 C -0.3215(7) 0.3640(8) 1.1076(5)
H31 H -0.2405 0.3458 1.1583
H32 H -0.4010 0.4095 1.1451
loop_
_geom_bond_atom_site_label_1
_geom_bond_atom_site_label_2
_geom_bond_site_symmetry_1
_geom_bond_site_symmetry_2
N1 H1 1_555 1_555
H2 N1 1_555 1_555
H3 N1 1_555 1_555
H4 N1 1_555 1_555
N2 H5 1_555 1_555
H6 N2 1_555 1_555
H7 N2 1_555 1_555
H8 N2 1_555 1_555
N3 H9 1_555 1_555
H10 N3 1_555 1_555
H11 N3 1_555 1_555
N4 H12 1_555 1_555
H13 N4 1_555 1_555
C1 N4 1_555 1_555
H14 C1 1_555 1_555
H15 C1 1_555 1_555
C2 C1 1_555 1_555
H16 C2 1_555 1_555
H17 C2 1_555 1_555
C3 N3 1_555 1_555
H18 C3 1_555 1_555
C4 N4 1_555 1_555
H19 C4 1_555 1_555
H20 C4 1_555 1_555
N5 H21 1_555 1_555
H22 N5 1_555 1_555
H23 N5 1_555 1_555
N6 H24 1_555 1_555
H25 N6 1_555 1_555
C5 N6 1_555 1_555
H26 C5 1_555 1_555
H27 C5 1_555 1_555
C6 N5 1_555 1_555
H28 C6 1_555 1_555
C7 C6 1_555 1_555
H29 C7 1_555 1_555
H30 C7 1_555 1_555
C8 N6 1_555 1_555
H31 C8 1_555 1_555
H32 C8 1_555 1_555
C2 C3 1_555 1_555
C3 C4 1_555 1_555
C5 C6 1_555 1_555
C7 C8 1_555 1_555

#END
