
#######################################################################
#
#                 Cambridge Crystallographic Data Centre
#                                CCDC 
#
#######################################################################
#
# If this CIF has been generated from an entry in the Cambridge 
# Structural Database, then it will include bibliographic, chemical, 
# crystal, experimental, refinement or atomic coordinate data resulting 
# from the CCDC's data processing and validation procedures.
#
#######################################################################

data_BILGIP
_chemical_formula_moiety         'H4 N1 1+,C6 H14 N2 2+,3(Br1 1-)'
_chemical_name_systematic        
'ammonium 1,4-diazoniabicyclo[2.2.2]octane tribromide'
_symmetry_cell_setting           trigonal
_symmetry_space_group_name_H-M   'P 31 2 1'
_symmetry_Int_Tables_number      152
_space_group_name_Hall           'P 31 2"'
loop_
_symmetry_equiv_pos_site_id
_symmetry_equiv_pos_as_xyz
1 x,y,z
2 -y,x-y,1/3+z
3 -x+y,-x,2/3+z
4 y,x,-z
5 -x,-x+y,1/3-z
6 x-y,-y,2/3-z
_cell_length_a                   9.587(3)
_cell_length_b                   9.587(3)
_cell_length_c                   23.235(3)
_cell_angle_alpha                90
_cell_angle_beta                 90
_cell_angle_gamma                120
_cell_volume                     1849.43
_exptl_crystal_colour            colorless
_exptl_crystal_description       block
_cell_formula_units_Z            6
loop_
_atom_site_label
_atom_site_type_symbol
_atom_site_fract_x
_atom_site_fract_y
_atom_site_fract_z
N1 N 0.754(2) 0.6923(15) 0.2894(6)
H1 H 0.8258 0.7314 0.3228
N2 N 0.5824(18) 0.6054(13) 0.2055(6)
H2 H 0.5121 0.5721 0.1716
C1 C 0.7140(15) 0.5247(14) 0.2754(5)
H3 H 0.6581 0.4537 0.3075
H4 H 0.8117 0.5211 0.2680
C2 C 0.603(3) 0.694(3) 0.3022(8)
H5 H 0.5455 0.6216 0.3337
H6 H 0.6273 0.8019 0.3131
C3 C 0.6075(14) 0.4717(14) 0.2226(5)
H7 H 0.6586 0.4459 0.1917
H8 H 0.5050 0.3766 0.2313
C4 C 0.831(2) 0.797(2) 0.2408(10)
H9 H 0.8616 0.9069 0.2515
H10 H 0.9279 0.7952 0.2310
C5 C 0.5060(18) 0.6442(18) 0.2511(10)
H11 H 0.4870 0.7297 0.2385
H12 H 0.4025 0.5504 0.2598
C6 C 0.729(3) 0.7524(18) 0.1919(7)
H13 H 0.7818 0.7357 0.1592
H14 H 0.7053 0.8368 0.1823
Br1 Br 0.35485(15) 0.46704(14) 0.09376(5)
N3 N 0.6686(13) 0.6686(13) 0.0000
H15 H 0.6848 0.7507 0.0219
H16 H 0.5696 0.6127 -0.0156
H15C H 0.7507 0.6848 -0.0219
H16C H 0.6127 0.5696 0.0156
N4 N 0.0000 0.3379(12) 0.1667
H17 H -0.0728 0.2506 0.1837
H18 H 0.0470 0.4127 0.1932
H17D H 0.0728 0.3234 0.1496
H18D H -0.0470 0.3657 0.1401
Br2 Br 1.03005(16) 0.82893(15) -0.07103(5)
Br3 Br 0.85361(14) 0.52373(15) 0.08321(4)
loop_
_geom_bond_atom_site_label_1
_geom_bond_atom_site_label_2
_geom_bond_site_symmetry_1
_geom_bond_site_symmetry_2
N1 H1 1_555 1_555
N2 H2 1_555 1_555
C1 N1 1_555 1_555
H3 C1 1_555 1_555
H4 C1 1_555 1_555
C2 N1 1_555 1_555
H5 C2 1_555 1_555
H6 C2 1_555 1_555
C3 N2 1_555 1_555
H7 C3 1_555 1_555
H8 C3 1_555 1_555
C4 N1 1_555 1_555
H9 C4 1_555 1_555
H10 C4 1_555 1_555
C5 N2 1_555 1_555
H11 C5 1_555 1_555
H12 C5 1_555 1_555
C6 N2 1_555 1_555
H13 C6 1_555 1_555
H14 C6 1_555 1_555
N3 H15 1_555 1_555
H16 N3 1_555 1_555
N4 H17 1_555 1_555
H18 N4 1_555 1_555
H15C N3 1_555 1_555
H16C N3 1_555 1_555
H17D N4 1_555 1_555
H18D N4 1_555 1_555
C1 C3 1_555 1_555
C2 C5 1_555 1_555
C4 C6 1_555 1_555

#END
