
#######################################################################
#
#                 Cambridge Crystallographic Data Centre
#                                CCDC 
#
#######################################################################
#
# If this CIF has been generated from an entry in the Cambridge 
# Structural Database, then it will include bibliographic, chemical, 
# crystal, experimental, refinement or atomic coordinate data resulting 
# from the CCDC's data processing and validation procedures.
#
#######################################################################

data_BILGEI
_chemical_formula_moiety         'C18 H16 O8'
_chemical_name_systematic        
'1,6-Anhydro-3,4-dideoxy-\b-D-glycero-hex-3-eno-pyranos-2-ulose olefinic trimer'
_symmetry_cell_setting           orthorhombic
_symmetry_space_group_name_H-M   'P 21 21 21'
_symmetry_Int_Tables_number      19
_space_group_name_Hall           'P 2ac 2ab'
loop_
_symmetry_equiv_pos_site_id
_symmetry_equiv_pos_as_xyz
1 x,y,z
2 1/2+x,1/2-y,-z
3 -x,1/2+y,1/2-z
4 1/2-x,-y,1/2+z
_cell_length_a                   18.8695(24)
_cell_length_b                   14.1992(12)
_cell_length_c                   5.6224(6)
_cell_angle_alpha                90
_cell_angle_beta                 90
_cell_angle_gamma                90
_cell_volume                     1506.42
_exptl_crystal_colour            yellow
_cell_formula_units_Z            4
loop_
_atom_site_label
_atom_site_type_symbol
_atom_site_fract_x
_atom_site_fract_y
_atom_site_fract_z
C1 C 0.33280 0.47680 0.66330
C2 C 0.32520 0.37800 0.56190
C3 C 0.35750 0.36630 0.31570
C4 C 0.43100 0.41700 0.31380
C5 C 0.42490 0.51230 0.43840
C6 C 0.36300 0.57220 0.35370
O1 O 0.30460 0.54360 0.50300
O2 O 0.29720 0.31640 0.67470
O3 O 0.40540 0.49610 0.68560
C7 C 0.32460 0.07960 0.34320
C8 C 0.39900 0.10900 0.41360
C9 C 0.41680 0.20960 0.37600
C10 C 0.36530 0.26620 0.22120
C11 C 0.29620 0.21460 0.17380
C12 C 0.30240 0.14100 -0.02450
O4 O 0.32470 0.05770 0.09570
O5 O 0.43830 0.04990 0.49720
O6 O 0.27740 0.15390 0.37240
C13 C 0.53080 0.20650 0.61700
C14 C 0.47420 0.25370 0.46670
C15 C 0.48760 0.35480 0.42900
C16 C 0.54900 0.39030 0.50420
C17 C 0.60250 0.32840 0.62550
C18 C 0.57970 0.31270 0.88180
O7 O 0.52630 0.24050 0.85640
O8 O 0.59800 0.23490 0.53490
H1 H 0.30500 0.48400 0.82000
H2 H 0.32300 0.39700 0.21000
H3 H 0.44500 0.43200 0.13800
H4 H 0.47300 0.54800 0.43600
H5 H 0.34900 0.56000 0.19300
H6 H 0.37200 0.64000 0.38700
H7 H 0.30900 0.01900 0.44800
H8 H 0.38600 0.27300 0.07100
H9 H 0.26100 0.26100 0.15600
H10 H 0.34100 0.15800 -0.13800
H11 H 0.25400 0.13900 -0.07500
H12 H 0.52800 0.13500 0.61800
H13 H 0.56100 0.45700 0.50600
H14 H 0.65200 0.34900 0.61400
H15 H 0.55700 0.37700 0.94300
H16 H 0.62500 0.29000 0.97900
loop_
_geom_bond_atom_site_label_1
_geom_bond_atom_site_label_2
_geom_bond_site_symmetry_1
_geom_bond_site_symmetry_2
C1 C2 1_555 1_555
C2 C3 1_555 1_555
C3 C4 1_555 1_555
C4 C5 1_555 1_555
C5 C6 1_555 1_555
C6 O1 1_555 1_555
O1 C1 1_555 1_555
O2 C2 1_555 1_555
O3 C1 1_555 1_555
C7 C8 1_555 1_555
C8 C9 1_555 1_555
C9 C10 1_555 1_555
C10 C3 1_555 1_555
C11 C10 1_555 1_555
C12 C11 1_555 1_555
O4 C7 1_555 1_555
O5 C8 1_555 1_555
O6 C7 1_555 1_555
C13 C14 1_555 1_555
C14 C9 1_555 1_555
C15 C4 1_555 1_555
C16 C15 1_555 1_555
C17 C16 1_555 1_555
C18 C17 1_555 1_555
O7 C13 1_555 1_555
O8 C13 1_555 1_555
H1 C1 1_555 1_555
H2 C3 1_555 1_555
H3 C4 1_555 1_555
H4 C5 1_555 1_555
H5 C6 1_555 1_555
H6 C6 1_555 1_555
H7 C7 1_555 1_555
H8 C10 1_555 1_555
H9 C11 1_555 1_555
H10 C12 1_555 1_555
H11 C12 1_555 1_555
H12 C13 1_555 1_555
H13 C16 1_555 1_555
H14 C17 1_555 1_555
H15 C18 1_555 1_555
H16 C18 1_555 1_555
C5 O3 1_555 1_555
C11 O6 1_555 1_555
C12 O4 1_555 1_555
C14 C15 1_555 1_555
C17 O8 1_555 1_555
C18 O7 1_555 1_555

#END
