
#######################################################################
#
#                 Cambridge Crystallographic Data Centre
#                                CCDC 
#
#######################################################################
#
# If this CIF has been generated from an entry in the Cambridge 
# Structural Database, then it will include bibliographic, chemical, 
# crystal, experimental, refinement or atomic coordinate data resulting 
# from the CCDC's data processing and validation procedures.
#
#######################################################################

data_BILHIQ
_chemical_formula_moiety         'H4 N1 1+,C7 H16 N2 2+,3(Cl1 1-)'
_chemical_name_systematic        
'ammonium (R)-3-ammonio-1-azoniabicyclo[2.2.2]octane trichloride'
_symmetry_cell_setting           monoclinic
_symmetry_space_group_name_H-M   'P 21'
_symmetry_Int_Tables_number      4
_space_group_name_Hall           'P 2yb'
loop_
_symmetry_equiv_pos_site_id
_symmetry_equiv_pos_as_xyz
1 x,y,z
2 -x,1/2+y,-z
_cell_length_a                   6.364(7)
_cell_length_b                   10.096(11)
_cell_length_c                   9.490(10)
_cell_angle_alpha                90
_cell_angle_beta                 90.77(2)
_cell_angle_gamma                90
_cell_volume                     609.686
_exptl_crystal_colour            colorless
_exptl_crystal_description       block
_cell_formula_units_Z            2
loop_
_atom_site_label
_atom_site_type_symbol
_atom_site_fract_x
_atom_site_fract_y
_atom_site_fract_z
Cl1 Cl -0.98570(14) 0.71869(10) 0.82792(10)
Cl2 Cl -0.55053(15) 0.95067(13) 0.98870(12)
Cl3 Cl -0.45770(15) 0.95272(11) 0.47022(11)
N1 N 0.5160(4) 0.6894(6) 0.7721(4)
H1 H 0.4050 0.6976 0.8254
H2 H 0.6273 0.6976 0.8254
H3 H 0.5158 0.7483 0.7033
H4 H 0.5159 0.6131 0.7270
N2 N -1.1867(5) 1.2904(3) 0.6723(3)
H5 H -1.3003 1.3542 0.6554
N3 N -1.0847(5) 1.0176(3) 0.9122(3)
H6 H -1.2084 0.9851 0.9379
H7 H -0.9878 0.9542 0.9177
H8 H -1.0485 1.0840 0.9694
C1 C -0.8915(6) 1.1245(4) 0.7143(4)
H9 H -0.7776 1.0608 0.7307
C2 C -1.0181(6) 1.3557(5) 0.7583(5)
H10 H -1.0766 1.3898 0.8449
H11 H -0.9596 1.4295 0.7064
C3 C -1.1003(6) 1.0674(4) 0.7641(4)
H12 H -1.1386 0.9929 0.7026
C4 C -1.1016(6) 1.2469(5) 0.5329(4)
H13 H -1.0568 1.3237 0.4796
H14 H -1.2107 1.2019 0.4790
C5 C -0.9157(6) 1.1538(4) 0.5568(4)
H15 H -0.7883 1.1944 0.5222
H16 H -0.9389 1.0718 0.5055
C6 C -1.2729(6) 1.1742(4) 0.7503(5)
H17 H -1.3937 1.1385 0.6998
H18 H -1.3177 1.2017 0.8432
C7 C -0.8448(6) 1.2548(4) 0.7927(4)
H19 H -0.8390 1.2387 0.8935
H20 H -0.7097 1.2894 0.7642
loop_
_geom_bond_atom_site_label_1
_geom_bond_atom_site_label_2
_geom_bond_site_symmetry_1
_geom_bond_site_symmetry_2
N1 H1 1_555 1_555
H2 N1 1_555 1_555
H3 N1 1_555 1_555
H4 N1 1_555 1_555
N2 H5 1_555 1_555
N3 H6 1_555 1_555
H7 N3 1_555 1_555
H8 N3 1_555 1_555
C1 H9 1_555 1_555
C2 N2 1_555 1_555
H10 C2 1_555 1_555
H11 C2 1_555 1_555
C3 N3 1_555 1_555
H12 C3 1_555 1_555
C4 N2 1_555 1_555
H13 C4 1_555 1_555
H14 C4 1_555 1_555
C5 C1 1_555 1_555
H15 C5 1_555 1_555
H16 C5 1_555 1_555
C6 N2 1_555 1_555
H17 C6 1_555 1_555
H18 C6 1_555 1_555
C7 C1 1_555 1_555
H19 C7 1_555 1_555
H20 C7 1_555 1_555
C1 C3 1_555 1_555
C2 C7 1_555 1_555
C3 C6 1_555 1_555
C4 C5 1_555 1_555

#END
