
#######################################################################
#
#                 Cambridge Crystallographic Data Centre
#                                CCDC 
#
#######################################################################
#
# If this CIF has been generated from an entry in the Cambridge 
# Structural Database, then it will include bibliographic, chemical, 
# crystal, experimental, refinement or atomic coordinate data resulting 
# from the CCDC's data processing and validation procedures.
#
#######################################################################

data_BILJIS
_chemical_formula_moiety         'H4 N1 1+,C7 H16 N2 2+,3(I1 1-)'
_chemical_name_systematic        
'ammonium rac-3-ammonio-1-azoniabicyclo[2.2.2]octane tris(iodide)'
_symmetry_cell_setting           monoclinic
_symmetry_space_group_name_H-M   'I 2'
_symmetry_Int_Tables_number      5
_space_group_name_Hall           'I 2y'
loop_
_symmetry_equiv_pos_site_id
_symmetry_equiv_pos_as_xyz
1 x,y,z
2 -x,y,-z
3 1/2+x,1/2+y,1/2+z
4 1/2-x,1/2+y,1/2-z
_cell_length_a                   10.231(13)
_cell_length_b                   10.234(11)
_cell_length_c                   14.473(16)
_cell_angle_alpha                90
_cell_angle_beta                 90.21(7)
_cell_angle_gamma                90
_cell_volume                     1515.37
_exptl_crystal_colour            colorless
_exptl_crystal_description       block
_cell_formula_units_Z            4
loop_
_atom_site_label
_atom_site_type_symbol
_atom_site_fract_x
_atom_site_fract_y
_atom_site_fract_z
I2 I 0.4865(4) 0.4614(6) 0.2538(2)
I3 I 0.2527(4) 0.1934(3) 0.5031(3)
N1 N 0.0000 0.959(8) 0.0000
N2 N 0.5000 0.437(8) 0.0000
C1 C 0.078(5) 0.443(6) 0.264(3)
C2 C -0.113(7) 0.506(8) 0.267(5)
C3 C -0.042(3) 0.402(4) 0.2701(18)
C4 C 0.014(4) 0.488(5) 0.208(3)
C5 C -0.122(9) 0.556(11) 0.318(6)
C6 C 0.021(8) 0.448(11) 0.107(5)
C7 C 0.025(7) 0.553(11) 0.248(4)
C8 C 0.090(6) 0.322(7) 0.264(4)
C9 C -0.029(4) 0.338(5) 0.277(3)
I1 I 0.2648(4) 0.1873(6) 0.0164(3)
loop_
_geom_bond_atom_site_label_1
_geom_bond_atom_site_label_2
_geom_bond_site_symmetry_1
_geom_bond_site_symmetry_2
C1 C3 1_555 1_555
C2 C3 1_555 1_555
C3 C4 1_555 1_555
C4 C1 1_555 1_555
C5 C2 1_555 1_555
C6 C4 1_555 1_555
C7 C1 1_555 1_555
C8 C1 1_555 1_555
C9 C3 1_555 1_555
C2 C4 1_555 1_555
C2 C7 1_555 1_555
C3 C7 1_555 1_555
C4 C7 1_555 1_555
C8 C9 1_555 1_555

#END
