
#######################################################################
#
#                 Cambridge Crystallographic Data Centre
#                                CCDC 
#
#######################################################################
#
# If this CIF has been generated from an entry in the Cambridge 
# Structural Database, then it will include bibliographic, chemical, 
# crystal, experimental, refinement or atomic coordinate data resulting 
# from the CCDC's data processing and validation procedures.
#
#######################################################################

data_BILKIT
_chemical_formula_moiety         'H4 N1 1+,C7 H16 N2 2+,3(Cl1 1-)'
_chemical_name_systematic        
'ammonium rac-3-ammonio-1-azoniabicyclo[2.2.2]octane trichloride'
_symmetry_cell_setting           monoclinic
_symmetry_space_group_name_H-M   'P 21'
_symmetry_Int_Tables_number      4
_space_group_name_Hall           'P 2yb'
loop_
_symmetry_equiv_pos_site_id
_symmetry_equiv_pos_as_xyz
1 x,y,z
2 -x,1/2+y,-z
_cell_length_a                   6.356(3)
_cell_length_b                   10.087(5)
_cell_length_c                   9.469(5)
_cell_angle_alpha                90
_cell_angle_beta                 90.754(11)
_cell_angle_gamma                90
_cell_volume                     607.033
_exptl_crystal_colour            colorless
_exptl_crystal_description       block
_cell_formula_units_Z            2
loop_
_atom_site_label
_atom_site_type_symbol
_atom_site_fract_x
_atom_site_fract_y
_atom_site_fract_z
Cl1 Cl -0.98576(18) 0.71867(12) 0.82792(12)
Cl2 Cl -0.55065(19) 0.95039(16) 0.98858(15)
Cl3 Cl -0.45764(19) 0.95280(14) 0.47016(14)
N1 N 0.5161(6) 0.6882(8) 0.7728(6)
H1 H 0.4051 0.6964 0.8261
H2 H 0.6274 0.6964 0.8261
H3 H 0.5159 0.7470 0.7040
H4 H 0.5160 0.6119 0.7277
N2 N -1.1863(6) 1.2901(4) 0.6720(4)
H5 H -1.2999 1.3540 0.6551
N3 N -1.0852(7) 1.0183(4) 0.9129(4)
H6 H -1.2088 0.9854 0.9387
H7 H -0.9876 0.9552 0.9188
H8 H -1.0497 1.0851 0.9698
C1 C -0.8905(8) 1.1253(5) 0.7144(5)
H9 H -0.7760 1.0619 0.7309
C2 C -1.0180(9) 1.3558(6) 0.7587(7)
H10 H -1.0772 1.3902 0.8452
H11 H -0.9587 1.4293 0.7066
C3 C -1.1009(8) 1.0673(4) 0.7641(5)
H12 H -1.1392 0.9928 0.7026
C4 C -1.1021(9) 1.2471(6) 0.5327(5)
H13 H -1.0578 1.3239 0.4792
H14 H -1.2113 1.2018 0.4789
C5 C -0.9160(8) 1.1544(5) 0.5568(5)
H15 H -0.7887 1.1952 0.5218
H16 H -0.9390 1.0722 0.5056
C6 C -1.2732(7) 1.1746(5) 0.7510(5)
H17 H -1.3950 1.1391 0.7011
H18 H -1.3169 1.2025 0.8442
C7 C -0.8467(8) 1.2552(5) 0.7937(5)
H19 H -0.8431 1.2386 0.8946
H20 H -0.7109 1.2901 0.7667
loop_
_geom_bond_atom_site_label_1
_geom_bond_atom_site_label_2
_geom_bond_site_symmetry_1
_geom_bond_site_symmetry_2
N1 H1 1_555 1_555
H2 N1 1_555 1_555
H3 N1 1_555 1_555
H4 N1 1_555 1_555
N2 H5 1_555 1_555
N3 H6 1_555 1_555
H7 N3 1_555 1_555
H8 N3 1_555 1_555
C1 H9 1_555 1_555
C2 N2 1_555 1_555
H10 C2 1_555 1_555
H11 C2 1_555 1_555
C3 N3 1_555 1_555
H12 C3 1_555 1_555
C4 N2 1_555 1_555
H13 C4 1_555 1_555
H14 C4 1_555 1_555
C5 C1 1_555 1_555
H15 C5 1_555 1_555
H16 C5 1_555 1_555
C6 N2 1_555 1_555
H17 C6 1_555 1_555
H18 C6 1_555 1_555
C7 C1 1_555 1_555
H19 C7 1_555 1_555
H20 C7 1_555 1_555
C1 C3 1_555 1_555
C2 C7 1_555 1_555
C3 C6 1_555 1_555
C4 C5 1_555 1_555

#END
