
#######################################################################
#
#                 Cambridge Crystallographic Data Centre
#                                CCDC 
#
#######################################################################
#
# If this CIF has been generated from an entry in the Cambridge 
# Structural Database, then it will include bibliographic, chemical, 
# crystal, experimental, refinement or atomic coordinate data resulting 
# from the CCDC's data processing and validation procedures.
#
#######################################################################

data_BILLAM01
_chemical_formula_moiety         'H4 N1 1+,C7 H16 N2 2+,3(I1 1-)'
_chemical_name_systematic        
'ammonium (S)-3-ammonio-1-azoniabicyclo[2.2.2]octane tris(iodide)'
_symmetry_cell_setting           trigonal
_symmetry_space_group_name_H-M   'P 32 2 1'
_symmetry_Int_Tables_number      154
_space_group_name_Hall           'P 32 2"'
loop_
_symmetry_equiv_pos_site_id
_symmetry_equiv_pos_as_xyz
1 x,y,z
2 -y,x-y,2/3+z
3 -x+y,-x,1/3+z
4 y,x,-z
5 x-y,-y,1/3-z
6 -x,-x+y,2/3-z
_cell_length_a                   10.112(3)
_cell_length_b                   10.112(3)
_cell_length_c                   25.205(3)
_cell_angle_alpha                90
_cell_angle_beta                 90
_cell_angle_gamma                120
_cell_volume                     2231.99
_exptl_crystal_colour            colorless
_exptl_crystal_description       block
_cell_formula_units_Z            6
loop_
_atom_site_label
_atom_site_type_symbol
_atom_site_fract_x
_atom_site_fract_y
_atom_site_fract_z
N1 N 0.4767(8) 0.8860(7) 0.8593(2)
H1 H 0.5669 0.8998 0.8696
H2 H 0.4047 0.7899 0.8656
H3 H 0.4796 0.9053 0.8247
N2 N 0.2895(8) 0.9329(8) 0.9714(3)
H4 H 0.2894 0.9153 1.0097
C1 C 0.1661(10) 0.7904(9) 0.9462(3)
H5 H 0.0691 0.7611 0.9631
H6 H 0.1878 0.7079 0.9510
C2 C 0.2878(9) 0.9746(10) 0.8736(3)
H7 H 0.2877 0.9924 0.8354
C3 C 0.2733(11) 1.0982(11) 0.9042(4)
H8 H 0.3625 1.1973 0.8977
H9 H 0.1838 1.1013 0.8921
C4 C 0.2595(11) 1.0624(10) 0.9629(4)
H10 H 0.3329 1.1515 0.9826
H11 H 0.1579 1.0340 0.9753
C5 C 0.4407(9) 0.9931(9) 0.8897(3)
H12 H 0.5200 1.0980 0.8815
C6 C 0.1565(10) 0.8174(10) 0.8873(3)
H13 H 0.1635 0.7403 0.8666
H14 H 0.0599 0.8116 0.8793
C7 C 0.4416(10) 0.9699(11) 0.9495(3)
H15 H 0.4611 0.8870 0.9568
H16 H 0.5216 1.0620 0.9659
I1 I 0.33696(7) 0.51258(7) 0.91213(2)
I2 I 0.76836(7) 0.42196(7) 0.92156(2)
I3 I 0.83327(7) -0.00661(7) 0.91673(2)
N3 N 0.6588(10) 0.6588(10) 1.0000
N4 N 1.0000 0.3327(10) 0.8333
H17? H 0.9532 0.2618 0.8584
H18? H 0.9203 0.3248 0.8142
H19? H 1.0499 0.4305 0.8453
H20? H 0.6180 0.5661 1.0083
H21? H 0.6003 0.7052 1.0118
H22? H 0.7559 0.7195 1.0125
H23? H 0.6605 0.6626 0.9640
loop_
_geom_bond_atom_site_label_1
_geom_bond_atom_site_label_2
_geom_bond_site_symmetry_1
_geom_bond_site_symmetry_2
N1 H1 1_555 1_555
H2 N1 1_555 1_555
H3 N1 1_555 1_555
N2 H4 1_555 1_555
C1 N2 1_555 1_555
H5 C1 1_555 1_555
H6 C1 1_555 1_555
C2 H7 1_555 1_555
C3 C2 1_555 1_555
H8 C3 1_555 1_555
H9 C3 1_555 1_555
C4 N2 1_555 1_555
H10 C4 1_555 1_555
H11 C4 1_555 1_555
C5 N1 1_555 1_555
H12 C5 1_555 1_555
C6 C1 1_555 1_555
H13 C6 1_555 1_555
H14 C6 1_555 1_555
C7 N2 1_555 1_555
H15 C7 1_555 1_555
H16 C7 1_555 1_555
C2 C5 1_555 1_555
C2 C6 1_555 1_555
C3 C4 1_555 1_555
C5 C7 1_555 1_555

#END
