
#######################################################################
#
#                 Cambridge Crystallographic Data Centre
#                                CCDC 
#
#######################################################################
#
# If this CIF has been generated from an entry in the Cambridge 
# Structural Database, then it will include bibliographic, chemical, 
# crystal, experimental, refinement or atomic coordinate data resulting 
# from the CCDC's data processing and validation procedures.
#
#######################################################################

data_BILLOA
_chemical_formula_moiety         'H4 N1 1+,C4 H12 N2 2+,3(Br1 1-)'
_chemical_name_systematic        
'ammonium (S)-3-ammoniopyrrolidin-1-ium tribromide'
_symmetry_cell_setting           monoclinic
_symmetry_space_group_name_H-M   'P 21'
_symmetry_Int_Tables_number      4
_space_group_name_Hall           'P 2yb'
loop_
_symmetry_equiv_pos_site_id
_symmetry_equiv_pos_as_xyz
1 x,y,z
2 -x,1/2+y,-z
_cell_length_a                   9.4501(11)
_cell_length_b                   9.4359(9)
_cell_length_c                   12.8821(16)
_cell_angle_alpha                90
_cell_angle_beta                 91.617(10)
_cell_angle_gamma                90
_cell_volume                     1148.24
_exptl_crystal_colour            colorless
_exptl_crystal_description       block
_cell_formula_units_Z            4
loop_
_atom_site_label
_atom_site_type_symbol
_atom_site_fract_x
_atom_site_fract_y
_atom_site_fract_z
N1 N 1.7738(9) -0.3154(15) -0.2486(7)
H1 H 1.8485 -0.3683 -0.2272
H2 H 1.7816 -0.2818 -0.3136
H3 H 1.6906 -0.3617 -0.2451
H4 H 1.7566 -0.2418 -0.2063
N2 N 1.2768(10) 0.1967(14) -0.2482(7)
H5 H 1.1906 0.2372 -0.2478
H6 H 1.2944 0.1575 -0.1854
H7 H 1.2728 0.1227 -0.2924
H8 H 1.3417 0.2662 -0.2533
Br1 Br 1.50743(13) -0.0760(2) -0.27268(11)
Br2 Br 1.81466(15) -0.31640(16) -0.50251(10)
Br3 Br 1.68307(14) -0.34589(15) -0.00280(10)
Br4 Br 1.55423(12) -0.59176(16) -0.32517(9)
Br5 Br 2.04786(12) -0.09470(16) -0.17689(9)
Br6 Br 1.99793(12) -0.58564(19) -0.21492(10)
N3 N 0.5616(9) 0.1138(11) 0.5215(8)
H9 H 0.5092 0.0806 0.4684
H10 H 0.5352 0.0724 0.5800
H11 H 0.5494 0.2070 0.5265
N4 N 0.8609(11) 0.2776(12) 0.5557(8)
H12 H 0.8282 0.3461 0.5960
H13 H 0.9551 0.2790 0.5603
C1 C 0.8135(15) 0.3017(14) 0.4476(10)
H14 H 0.8896 0.3394 0.4069
H15 H 0.7341 0.3669 0.4440
C2 C 0.7692(13) 0.1538(15) 0.4092(9)
H16 H 0.6970 0.1602 0.3544
H17 H 0.8498 0.1022 0.3835
C3 C 0.7119(12) 0.0828(13) 0.5045(9)
H18 H 0.7240 -0.0199 0.4981
C4 C 0.8072(13) 0.1361(15) 0.5917(9)
H19 H 0.8851 0.0711 0.6047
H20 H 0.7549 0.1466 0.6550
N5 N 1.0612(10) 0.6780(12) 0.0321(8)
H21 H 1.0266 0.7400 0.0769
H22 H 1.0562 0.7145 -0.0316
H23 H 1.0109 0.5984 0.0337
N6 N 1.3604(12) 0.7722(12) -0.0569(8)
H24 H 1.4543 0.7800 -0.0549
H25 H 1.3248 0.8437 -0.0943
C5 C 1.3065(14) 0.7773(15) 0.0489(10)
H26 H 1.2514 0.8628 0.0586
H27 H 1.3844 0.7765 0.0996
C6 C 1.2138(13) 0.6462(13) 0.0615(9)
H28 H 1.2214 0.6113 0.1330
C7 C 1.2795(14) 0.5416(14) -0.0114(12)
H29 H 1.2129 0.4675 -0.0311
H30 H 1.3636 0.4987 0.0201
C8 C 1.3171(15) 0.6326(16) -0.1057(10)
H31 H 1.3944 0.5910 -0.1432
H32 H 1.2360 0.6443 -0.1527
loop_
_geom_bond_atom_site_label_1
_geom_bond_atom_site_label_2
_geom_bond_site_symmetry_1
_geom_bond_site_symmetry_2
N1 H1 1_555 1_555
H2 N1 1_555 1_555
H3 N1 1_555 1_555
H4 N1 1_555 1_555
N2 H5 1_555 1_555
H6 N2 1_555 1_555
H7 N2 1_555 1_555
H8 N2 1_555 1_555
N3 H9 1_555 1_555
H10 N3 1_555 1_555
H11 N3 1_555 1_555
N4 H12 1_555 1_555
H13 N4 1_555 1_555
C1 N4 1_555 1_555
H14 C1 1_555 1_555
H15 C1 1_555 1_555
C2 C1 1_555 1_555
H16 C2 1_555 1_555
H17 C2 1_555 1_555
C3 N3 1_555 1_555
H18 C3 1_555 1_555
C4 N4 1_555 1_555
H19 C4 1_555 1_555
H20 C4 1_555 1_555
N5 H21 1_555 1_555
H22 N5 1_555 1_555
H23 N5 1_555 1_555
N6 H24 1_555 1_555
H25 N6 1_555 1_555
C5 N6 1_555 1_555
H26 C5 1_555 1_555
H27 C5 1_555 1_555
C6 N5 1_555 1_555
H28 C6 1_555 1_555
C7 C6 1_555 1_555
H29 C7 1_555 1_555
H30 C7 1_555 1_555
C8 N6 1_555 1_555
H31 C8 1_555 1_555
H32 C8 1_555 1_555
C2 C3 1_555 1_555
C3 C4 1_555 1_555
C5 C6 1_555 1_555
C7 C8 1_555 1_555

#END
