
#######################################################################
#
#                 Cambridge Crystallographic Data Centre
#                                CCDC 
#
#######################################################################
#
# If this CIF has been generated from an entry in the Cambridge 
# Structural Database, then it will include bibliographic, chemical, 
# crystal, experimental, refinement or atomic coordinate data resulting 
# from the CCDC's data processing and validation procedures.
#
#######################################################################

data_BILLIT
_chemical_name_common            meso-tetrakis[4-(heptyloxy)phenyl]porphyrin
_chemical_formula_moiety         'C72 H86 N4 O4'
_chemical_name_systematic        
5,10,15,20-tetrakis(4-(heptyloxy)phenyl)porphyrin
_symmetry_cell_setting           monoclinic
_symmetry_space_group_name_H-M   'P 21/c'
_symmetry_Int_Tables_number      14
_space_group_name_Hall           '-P 2ybc'
loop_
_symmetry_equiv_pos_site_id
_symmetry_equiv_pos_as_xyz
1 x,y,z
2 -x,1/2+y,1/2-z
3 -x,-y,-z
4 x,1/2-y,1/2+z
_cell_length_a                   15.9611(10)
_cell_length_b                   19.1464(12)
_cell_length_c                   10.1620(6)
_cell_angle_alpha                90
_cell_angle_beta                 91.3350(10)
_cell_angle_gamma                90
_cell_volume                     3104.64
_exptl_crystal_colour            purple
_exptl_crystal_description       block
_cell_formula_units_Z            2
loop_
_atom_site_label
_atom_site_type_symbol
_atom_site_fract_x
_atom_site_fract_y
_atom_site_fract_z
O1 O 0.51741(7) 0.09266(7) 0.42585(12)
O2 O 1.09423(8) 0.46877(6) -0.07553(11)
N1 N 0.93494(8) 0.08790(7) 0.04215(13)
N2 N 1.09930(9) 0.06192(7) -0.06170(13)
H1 H 1.0594(11) 0.0346(11) -0.039(2)
C1 C 0.85825(10) 0.09096(9) 0.10027(15)
C2 C 0.83418(10) 0.16273(9) 0.11867(16)
H2 H 0.7842 0.1789 0.1576
C3 C 0.89564(10) 0.20264(9) 0.07042(16)
H3 H 0.8968 0.2522 0.0670
C4 C 0.95948(10) 0.15567(8) 0.02476(15)
C5 C 1.03729(10) 0.17813(8) -0.02219(15)
C6 C 1.10158(10) 0.13348(9) -0.06101(15)
C7 C 1.18019(10) 0.15404(9) -0.11416(16)
H4 H 1.1997 0.2006 -0.1239
C8 C 1.22180(11) 0.09537(9) -0.14801(17)
H5 H 1.2755 0.0936 -0.1863
C9 C 1.17105(10) 0.03643(9) -0.11615(16)
C10 C 0.80933(10) 0.03361(9) 0.13792(16)
C11 C 0.73178(10) 0.04817(8) 0.21401(17)
C12 C 0.73573(11) 0.04892(10) 0.34984(18)
H6 H 0.7877 0.0396 0.3937
C13 C 0.66586(12) 0.06295(10) 0.42414(18)
H7 H 0.6704 0.0628 0.5175
C14 C 0.58989(11) 0.07708(9) 0.36240(18)
C15 C 0.58460(12) 0.07570(10) 0.22576(19)
H8 H 0.5326 0.0849 0.1818
C16 C 0.65470(11) 0.06105(10) 0.15357(18)
H9 H 0.6499 0.0598 0.0602
C17 C 0.51999(12) 0.09014(10) 0.56676(18)
H10 H 0.5666 0.1195 0.6015
H11 H 0.5295 0.0415 0.5968
C18 C 0.43755(12) 0.11673(10) 0.6172(2)
H12 H 0.4340 0.1052 0.7119
H13 H 0.3911 0.0923 0.5701
C19 C 0.42644(12) 0.19497(10) 0.5995(2)
H14 H 0.4172 0.2051 0.5048
H15 H 0.4789 0.2187 0.6283
C20 C 0.35393(12) 0.22543(10) 0.6756(2)
H16 H 0.3006 0.2068 0.6384
H17 H 0.3589 0.2101 0.7685
C21 C 0.35147(13) 0.30456(10) 0.6711(2)
H18 H 0.3428 0.3195 0.5785
H19 H 0.4065 0.3228 0.7020
C22 C 0.28363(13) 0.33698(11) 0.7534(2)
H20 H 0.2282 0.3211 0.7194
H21 H 0.2903 0.3202 0.8453
C23 C 0.28581(18) 0.41588(13) 0.7529(3)
H22 H 0.3408 0.4320 0.7854
H23 H 0.2421 0.4339 0.8100
H24 H 0.2759 0.4329 0.6629
C24 C 1.05164(10) 0.25488(8) -0.03540(15)
C25 C 1.00965(12) 0.29237(9) -0.13296(17)
H25 H 0.9715 0.2685 -0.1903
C26 C 1.02143(11) 0.36351(9) -0.14985(17)
H26 H 0.9914 0.3878 -0.2174
C27 C 1.07736(10) 0.39885(9) -0.06746(16)
C28 C 1.11947(11) 0.36240(9) 0.03157(17)
H27 H 1.1575 0.3863 0.0890
C29 C 1.10656(11) 0.29164(9) 0.04748(17)
H28 H 1.1357 0.2676 0.1163
C30 C 1.04834(11) 0.50883(9) -0.17326(18)
H29 H 0.9882 0.5107 -0.1515
H30 H 1.0535 0.4870 -0.2610
C31 C 1.08495(11) 0.58145(9) -0.17379(18)
H31 H 1.0868 0.5998 -0.0827
H32 H 1.0480 0.6124 -0.2274
C32 C 1.17261(11) 0.58327(9) -0.22846(18)
H33 H 1.1706 0.5634 -0.3184
H34 H 1.2093 0.5528 -0.1734
C33 C 1.21197(11) 0.65554(9) -0.23443(18)
H35 H 1.1715 0.6883 -0.2766
H36 H 1.2238 0.6723 -0.1437
C34 C 1.29262(11) 0.65618(10) -0.31055(18)
H37 H 1.3314 0.6212 -0.2712
H38 H 1.2798 0.6415 -0.4022
C35 C 1.33689(13) 0.72612(11) -0.3134(2)
H39 H 1.3525 0.7399 -0.2222
H40 H 1.2977 0.7618 -0.3495
C36 C 1.41502(15) 0.72523(13) -0.3954(2)
H41 H 1.4533 0.6890 -0.3622
H42 H 1.4427 0.7708 -0.3897
H43 H 1.3995 0.7153 -0.4874
O1B O 1.48259(7) -0.09266(7) -0.42585(12)
O2B O 0.90577(8) -0.46877(6) 0.07553(11)
N1B N 1.06506(8) -0.08790(7) -0.04215(13)
N2B N 0.90070(9) -0.06192(7) 0.06170(13)
H1B H 0.9406(11) -0.0346(11) 0.039(2)
C1B C 1.14175(10) -0.09096(9) -0.10027(15)
C2B C 1.16582(10) -0.16273(9) -0.11867(16)
H2B H 1.2158 -0.1789 -0.1576
C3B C 1.10436(10) -0.20264(9) -0.07042(16)
H3B H 1.1032 -0.2522 -0.0670
C4B C 1.04052(10) -0.15567(8) -0.02476(15)
C5B C 0.96271(10) -0.17813(8) 0.02219(15)
C6B C 0.89842(10) -0.13348(9) 0.06101(15)
C7B C 0.81981(10) -0.15404(9) 0.11416(16)
H4B H 0.8003 -0.2006 0.1239
C8B C 0.77820(11) -0.09537(9) 0.14801(17)
H5B H 0.7245 -0.0936 0.1863
C9B C 0.82895(10) -0.03643(9) 0.11615(16)
C10B C 1.19067(10) -0.03361(9) -0.13792(16)
C11B C 1.26822(10) -0.04817(8) -0.21401(17)
C12B C 1.26427(11) -0.04892(10) -0.34984(18)
H6B H 1.2123 -0.0396 -0.3937
C13B C 1.33414(12) -0.06295(10) -0.42414(18)
H7B H 1.3296 -0.0628 -0.5175
C14B C 1.41011(11) -0.07708(9) -0.36240(18)
C15B C 1.41540(12) -0.07570(10) -0.22576(19)
H8B H 1.4674 -0.0849 -0.1818
C16B C 1.34530(11) -0.06105(10) -0.15357(18)
H9B H 1.3501 -0.0598 -0.0602
C17B C 1.48001(12) -0.09014(10) -0.56676(18)
H10B H 1.4334 -0.1195 -0.6015
H11B H 1.4705 -0.0415 -0.5968
C18B C 1.56245(12) -0.11673(10) -0.6172(2)
H12B H 1.5660 -0.1052 -0.7119
H13B H 1.6089 -0.0923 -0.5701
C19B C 1.57356(12) -0.19497(10) -0.5995(2)
H14B H 1.5828 -0.2051 -0.5048
H15B H 1.5211 -0.2187 -0.6283
C20B C 1.64607(12) -0.22543(10) -0.6756(2)
H16B H 1.6994 -0.2068 -0.6384
H17B H 1.6411 -0.2101 -0.7685
C21B C 1.64853(13) -0.30456(10) -0.6711(2)
H18B H 1.6572 -0.3195 -0.5785
H19B H 1.5935 -0.3228 -0.7020
C22B C 1.71637(13) -0.33698(11) -0.7534(2)
H20B H 1.7718 -0.3211 -0.7194
H21B H 1.7097 -0.3202 -0.8453
C23B C 1.71419(18) -0.41588(13) -0.7529(3)
H22B H 1.6592 -0.4320 -0.7854
H23B H 1.7579 -0.4339 -0.8100
H24B H 1.7241 -0.4329 -0.6629
C24B C 0.94836(10) -0.25488(8) 0.03540(15)
C25B C 0.99035(12) -0.29237(9) 0.13296(17)
H25B H 1.0285 -0.2685 0.1903
C26B C 0.97857(11) -0.36351(9) 0.14985(17)
H26B H 1.0086 -0.3878 0.2174
C27B C 0.92264(10) -0.39885(9) 0.06746(16)
C28B C 0.88053(11) -0.36240(9) -0.03157(17)
H27B H 0.8425 -0.3863 -0.0890
C29B C 0.89344(11) -0.29164(9) -0.04748(17)
H28B H 0.8643 -0.2676 -0.1163
C30B C 0.95166(11) -0.50883(9) 0.17326(18)
H29B H 1.0118 -0.5107 0.1515
H30B H 0.9465 -0.4870 0.2610
C31B C 0.91505(11) -0.58145(9) 0.17379(18)
H31B H 0.9132 -0.5998 0.0827
H32B H 0.9520 -0.6124 0.2274
C32B C 0.82739(11) -0.58327(9) 0.22846(18)
H33B H 0.8294 -0.5634 0.3184
H34B H 0.7907 -0.5528 0.1734
C33B C 0.78803(11) -0.65554(9) 0.23443(18)
H35B H 0.8285 -0.6883 0.2766
H36B H 0.7762 -0.6723 0.1437
C34B C 0.70738(11) -0.65618(10) 0.31055(18)
H37B H 0.6686 -0.6212 0.2712
H38B H 0.7202 -0.6415 0.4022
C35B C 0.66311(13) -0.72612(11) 0.3134(2)
H39B H 0.6475 -0.7399 0.2222
H40B H 0.7023 -0.7618 0.3495
C36B C 0.58498(15) -0.72523(13) 0.3954(2)
H41B H 0.5467 -0.6890 0.3622
H42B H 0.5573 -0.7708 0.3897
H43B H 0.6005 -0.7153 0.4874
H44? H 0.960(4) 0.0484(17) 0.031(6)
loop_
_geom_bond_atom_site_label_1
_geom_bond_atom_site_label_2
_geom_bond_site_symmetry_1
_geom_bond_site_symmetry_2
O1 C14 1_555 1_555
O2 C27 1_555 1_555
N1 C1 1_555 1_555
N2 H1 1_555 1_555
C1 C2 1_555 1_555
C2 H2 1_555 1_555
C3 C2 1_555 1_555
H3 C3 1_555 1_555
C4 N1 1_555 1_555
C5 C4 1_555 1_555
C6 N2 1_555 1_555
C7 C6 1_555 1_555
H4 C7 1_555 1_555
C8 C7 1_555 1_555
H5 C8 1_555 1_555
C9 N2 1_555 1_555
C10 C1 1_555 1_555
C11 C10 1_555 1_555
C12 C11 1_555 1_555
H6 C12 1_555 1_555
C13 C12 1_555 1_555
H7 C13 1_555 1_555
C14 C13 1_555 1_555
C15 C14 1_555 1_555
H8 C15 1_555 1_555
C16 C11 1_555 1_555
H9 C16 1_555 1_555
C17 O1 1_555 1_555
H10 C17 1_555 1_555
H11 C17 1_555 1_555
C18 C17 1_555 1_555
H12 C18 1_555 1_555
H13 C18 1_555 1_555
C19 C18 1_555 1_555
H14 C19 1_555 1_555
H15 C19 1_555 1_555
C20 C19 1_555 1_555
H16 C20 1_555 1_555
H17 C20 1_555 1_555
C21 C20 1_555 1_555
H18 C21 1_555 1_555
H19 C21 1_555 1_555
C22 C21 1_555 1_555
H20 C22 1_555 1_555
H21 C22 1_555 1_555
C23 C22 1_555 1_555
H22 C23 1_555 1_555
H23 C23 1_555 1_555
H24 C23 1_555 1_555
C24 C5 1_555 1_555
C25 C24 1_555 1_555
H25 C25 1_555 1_555
C26 C25 1_555 1_555
H26 C26 1_555 1_555
C27 C26 1_555 1_555
C28 C27 1_555 1_555
H27 C28 1_555 1_555
C29 C24 1_555 1_555
H28 C29 1_555 1_555
C30 O2 1_555 1_555
H29 C30 1_555 1_555
H30 C30 1_555 1_555
C31 C30 1_555 1_555
H31 C31 1_555 1_555
H32 C31 1_555 1_555
C32 C31 1_555 1_555
H33 C32 1_555 1_555
H34 C32 1_555 1_555
C33 C32 1_555 1_555
H35 C33 1_555 1_555
H36 C33 1_555 1_555
C34 C33 1_555 1_555
H37 C34 1_555 1_555
H38 C34 1_555 1_555
C35 C34 1_555 1_555
H39 C35 1_555 1_555
H40 C35 1_555 1_555
C36 C35 1_555 1_555
H41 C36 1_555 1_555
H42 C36 1_555 1_555
H43 C36 1_555 1_555
O1B C14B 1_555 1_555
O2B C27B 1_555 1_555
N1B C1B 1_555 1_555
N2B H1B 1_555 1_555
C1B C2B 1_555 1_555
C2B H2B 1_555 1_555
C3B C2B 1_555 1_555
H3B C3B 1_555 1_555
C4B N1B 1_555 1_555
C5B C4B 1_555 1_555
C6B N2B 1_555 1_555
C7B C6B 1_555 1_555
H4B C7B 1_555 1_555
C8B C7B 1_555 1_555
H5B C8B 1_555 1_555
C9B C10 1_555 1_555
C10B C9 1_555 1_555
C11B C10B 1_555 1_555
C12B C11B 1_555 1_555
H6B C12B 1_555 1_555
C13B C12B 1_555 1_555
H7B C13B 1_555 1_555
C14B C13B 1_555 1_555
C15B C14B 1_555 1_555
H8B C15B 1_555 1_555
C16B C11B 1_555 1_555
H9B C16B 1_555 1_555
C17B O1B 1_555 1_555
H10B C17B 1_555 1_555
H11B C17B 1_555 1_555
C18B C17B 1_555 1_555
H12B C18B 1_555 1_555
H13B C18B 1_555 1_555
C19B C18B 1_555 1_555
H14B C19B 1_555 1_555
H15B C19B 1_555 1_555
C20B C19B 1_555 1_555
H16B C20B 1_555 1_555
H17B C20B 1_555 1_555
C21B C20B 1_555 1_555
H18B C21B 1_555 1_555
H19B C21B 1_555 1_555
C22B C21B 1_555 1_555
H20B C22B 1_555 1_555
H21B C22B 1_555 1_555
C23B C22B 1_555 1_555
H22B C23B 1_555 1_555
H23B C23B 1_555 1_555
H24B C23B 1_555 1_555
C24B C5B 1_555 1_555
C25B C24B 1_555 1_555
H25B C25B 1_555 1_555
C26B C25B 1_555 1_555
H26B C26B 1_555 1_555
C27B C26B 1_555 1_555
C28B C27B 1_555 1_555
H27B C28B 1_555 1_555
C29B C24B 1_555 1_555
H28B C29B 1_555 1_555
C30B O2B 1_555 1_555
H29B C30B 1_555 1_555
H30B C30B 1_555 1_555
C31B C30B 1_555 1_555
H31B C31B 1_555 1_555
H32B C31B 1_555 1_555
C32B C31B 1_555 1_555
H33B C32B 1_555 1_555
H34B C32B 1_555 1_555
C33B C32B 1_555 1_555
H35B C33B 1_555 1_555
H36B C33B 1_555 1_555
C34B C33B 1_555 1_555
H37B C34B 1_555 1_555
H38B C34B 1_555 1_555
C35B C34B 1_555 1_555
H39B C35B 1_555 1_555
H40B C35B 1_555 1_555
C36B C35B 1_555 1_555
H41B C36B 1_555 1_555
H42B C36B 1_555 1_555
H43B C36B 1_555 1_555
C3 C4 1_555 1_555
C5 C6 1_555 1_555
C8 C9 1_555 1_555
C15 C16 1_555 1_555
C28 C29 1_555 1_555
N2B C9B 1_555 1_555
C1B C10B 1_555 1_555
C3B C4B 1_555 1_555
C5B C6B 1_555 1_555
C8B C9B 1_555 1_555
C15B C16B 1_555 1_555
C28B C29B 1_555 1_555

#END
