
#######################################################################
#
#                 Cambridge Crystallographic Data Centre
#                                CCDC 
#
#######################################################################
#
# If this CIF has been generated from an entry in the Cambridge 
# Structural Database, then it will include bibliographic, chemical, 
# crystal, experimental, refinement or atomic coordinate data resulting 
# from the CCDC's data processing and validation procedures.
#
#######################################################################

data_BILLEQ
_chemical_formula_moiety         'C7 H16 N2 2+,H4 N1 1+,3(Br1 1-)'
_chemical_name_systematic        
'ammonium (S)-3-ammonio-1-azoniabicyclo[2.2.2]octane tribromide'
_symmetry_cell_setting           monoclinic
_symmetry_space_group_name_H-M   'P 21'
_symmetry_Int_Tables_number      4
_space_group_name_Hall           'P 2yb'
loop_
_symmetry_equiv_pos_site_id
_symmetry_equiv_pos_as_xyz
1 x,y,z
2 -x,1/2+y,-z
_cell_length_a                   6.588(4)
_cell_length_b                   10.311(5)
_cell_length_c                   9.659(5)
_cell_angle_alpha                90
_cell_angle_beta                 90.207(8)
_cell_angle_gamma                90
_cell_volume                     656.121
_exptl_crystal_colour            colorless
_exptl_crystal_description       block
_cell_formula_units_Z            2
loop_
_atom_site_label
_atom_site_type_symbol
_atom_site_fract_x
_atom_site_fract_y
_atom_site_fract_z
Br1 Br 1.98998(11) 0.28086(8) 0.18173(7)
Br2 Br 1.55139(12) 0.04422(9) -0.00331(9)
Br3 Br 1.46130(12) 0.05175(7) 0.52077(8)
N1 N 0.4896(8) 0.2901(8) 0.2470(5)
H1 H 0.6006 0.2819 0.1937
H2 H 0.3783 0.2819 0.1937
H3 H 0.4898 0.2312 0.3157
H4 H 0.4897 0.3664 0.2921
N2 N 2.1696(10) -0.2906(5) 0.3153(6)
H5 H 2.2738 -0.3574 0.3281
N3 N 2.0827(9) -0.0215(5) 0.0865(6)
H6 H 2.2028 0.0073 0.0578
H7 H 2.0418 -0.0862 0.0322
H8 H 1.9925 0.0427 0.0827
C1 C 1.8971(11) -0.1195(7) 0.2864(8)
H9 H 1.7921 -0.0530 0.2750
C2 C 1.9989(13) -0.3473(8) 0.2317(10)
H10 H 1.9410 -0.4210 0.2798
H11 H 2.0488 -0.3766 0.1427
C3 C 2.1011(11) -0.0690(7) 0.2329(7)
H12 H 2.1446 0.0034 0.2917
C4 C 2.0923(12) -0.2507(7) 0.4556(7)
H13 H 2.0401 -0.3260 0.5040
H14 H 2.2029 -0.2147 0.5099
C5 C 1.9266(12) -0.1511(7) 0.4402(7)
H15 H 1.9630 -0.0730 0.4905
H16 H 1.8011 -0.1845 0.4785
C6 C 2.2622(11) -0.1786(6) 0.2432(8)
H17 H 2.3057 -0.2040 0.1513
H18 H 2.3800 -0.1482 0.2944
C7 C 1.8365(11) -0.2416(8) 0.2109(8)
H19 H 1.8209 -0.2234 0.1130
H20 H 1.7071 -0.2723 0.2457
loop_
_geom_bond_atom_site_label_1
_geom_bond_atom_site_label_2
_geom_bond_site_symmetry_1
_geom_bond_site_symmetry_2
N1 H1 1_555 1_555
H2 N1 1_555 1_555
H3 N1 1_555 1_555
H4 N1 1_555 1_555
N2 H5 1_555 1_555
N3 H6 1_555 1_555
H7 N3 1_555 1_555
H8 N3 1_555 1_555
C1 H9 1_555 1_555
C2 N2 1_555 1_555
H10 C2 1_555 1_555
H11 C2 1_555 1_555
C3 N3 1_555 1_555
H12 C3 1_555 1_555
C4 N2 1_555 1_555
H13 C4 1_555 1_555
H14 C4 1_555 1_555
C5 C1 1_555 1_555
H15 C5 1_555 1_555
H16 C5 1_555 1_555
C6 N2 1_555 1_555
H17 C6 1_555 1_555
H18 C6 1_555 1_555
C7 C1 1_555 1_555
H19 C7 1_555 1_555
H20 C7 1_555 1_555
C1 C3 1_555 1_555
C2 C7 1_555 1_555
C3 C6 1_555 1_555
C4 C5 1_555 1_555

#END
