
#######################################################################
#
#                 Cambridge Crystallographic Data Centre
#                                CCDC 
#
#######################################################################
#
# If this CIF has been generated from an entry in the Cambridge 
# Structural Database, then it will include bibliographic, chemical, 
# crystal, experimental, refinement or atomic coordinate data resulting 
# from the CCDC's data processing and validation procedures.
#
#######################################################################

data_BILNUH
_chemical_formula_moiety         'C26 H19 Br1 N2 S1'
_chemical_name_systematic        
4-(7-Bromo-2-methyl-1,3-benzothiazol-4-yl)-N,N-diphenylaniline
_symmetry_cell_setting           monoclinic
_symmetry_space_group_name_H-M   'C 2/c'
_symmetry_Int_Tables_number      15
_space_group_name_Hall           '-C 2yn'
loop_
_symmetry_equiv_pos_site_id
_symmetry_equiv_pos_as_xyz
1 x,y,z
2 -x,y,1/2-z
3 1/2+x,1/2+y,z
4 1/2-x,1/2+y,1/2-z
5 -x,-y,-z
6 x,-y,1/2+z
7 1/2-x,1/2-y,-z
8 1/2+x,1/2-y,1/2+z
_cell_length_a                   48.189(12)
_cell_length_b                   10.605(3)
_cell_length_c                   33.976(9)
_cell_angle_alpha                90
_cell_angle_beta                 92.520(4)
_cell_angle_gamma                90
_cell_volume                     17346.5
_exptl_crystal_colour            yellow
_exptl_crystal_description       block
_cell_formula_units_Z            32
loop_
_atom_site_label
_atom_site_type_symbol
_atom_site_fract_x
_atom_site_fract_y
_atom_site_fract_z
Br1 Br 0.213363(12) 0.91473(7) 0.301136(16)
S1 S 0.21494(3) 1.12677(15) 0.22471(4)
N1 N 0.17742(7) 1.1067(4) 0.16851(10)
C1 C -0.00943(9) 0.7494(5) 0.08945(14)
H1 H -0.0264 0.7125 0.0945
C2 C 0.00002(9) 0.7460(5) 0.05257(14)
H2 H -0.0108 0.7083 0.0325
C3 C 0.02527(8) 0.7970(4) 0.04425(12)
H3 H 0.0319 0.7901 0.0190
C4 C 0.04100(9) 0.8590(4) 0.07368(12)
C5 C 0.03089(9) 0.8633(4) 0.11113(12)
H4 H 0.0411 0.9047 0.1311
C6 C 0.00580(9) 0.8068(5) 0.11948(13)
H5 H -0.0006 0.8080 0.1449
N2 N 0.06690(7) 0.9152(4) 0.06506(9)
C7 C 0.07306(9) 0.9601(4) 0.02719(12)
C8 C 0.05251(9) 1.0073(4) 0.00131(12)
H6 H 0.0344 1.0130 0.0094
C9 C 0.05852(9) 1.0459(4) -0.03608(12)
H7 H 0.0443 1.0738 -0.0534
C10 C 0.08549(10) 1.0433(4) -0.04785(14)
H8 H 0.0896 1.0682 -0.0732
C11 C 0.10615(9) 1.0035(4) -0.02171(13)
H9 H 0.1245 1.0060 -0.0289
C12 C 0.09993(9) 0.9597(4) 0.01505(13)
H10 H 0.1141 0.9294 0.0319
C13 C 0.08801(8) 0.9182(5) 0.09637(12)
C14 C 0.10008(8) 1.0328(4) 0.10778(11)
H11 H 0.0946 1.1067 0.0949
C15 C 0.12021(8) 1.0368(4) 0.13839(12)
H12 H 0.1280 1.1136 0.1461
C16 C 0.12875(8) 0.9253(5) 0.15773(12)
C17 C 0.11698(9) 0.8133(4) 0.14499(12)
H13 H 0.1229 0.7386 0.1569
C18 C 0.09656(9) 0.8083(4) 0.11490(12)
H14 H 0.0887 0.7315 0.1073
C19 C 0.14930(8) 0.9287(4) 0.19204(12)
C20 C 0.14681(9) 0.8433(5) 0.22216(12)
H15 H 0.1321 0.7863 0.2206
C21 C 0.16570(9) 0.8380(5) 0.25560(13)
H16 H 0.1636 0.7786 0.2754
C22 C 0.18719(10) 0.9238(5) 0.25775(13)
C23 C 0.18998(9) 1.0108(5) 0.22861(13)
C24 C 0.17128(9) 1.0157(5) 0.19529(13)
C25 C 0.19879(10) 1.1732(5) 0.17977(14)
C26 C 0.21028(10) 1.2803(5) 0.15704(14)
H17 H 0.1990 1.2932 0.1333
H18 H 0.2290 1.2612 0.1504
H19 H 0.2102 1.3555 0.1728
Br2 Br 0.203213(12) 0.43439(7) 0.302318(16)
S2 S 0.21244(3) 0.61278(13) 0.22021(4)
N3 N 0.17480(7) 0.6020(3) 0.16320(10)
C27 C -0.01377(9) 0.2630(5) 0.06534(12)
H20 H -0.0315 0.2294 0.0674
C28 C -0.01044(9) 0.3819(5) 0.05155(14)
H21 H -0.0259 0.4303 0.0442
C29 C 0.01601(8) 0.4314(5) 0.04843(13)
H22 H 0.0182 0.5126 0.0387
C30 C 0.03895(9) 0.3619(4) 0.05946(12)
C31 C 0.03495(9) 0.2417(5) 0.07321(13)
H23 H 0.0502 0.1923 0.0807
C32 C 0.00879(10) 0.1942(4) 0.07591(14)
H24 H 0.0065 0.1126 0.0853
N4 N 0.06607(7) 0.4156(4) 0.05549(9)
C33 C 0.07313(8) 0.4606(5) 0.01783(12)
C34 C 0.07372(8) 0.3767(4) -0.01327(12)
H25 H 0.0693 0.2923 -0.0096
C35 C 0.08092(8) 0.4192(5) -0.05008(13)
H26 H 0.0813 0.3633 -0.0712
C36 C 0.08748(9) 0.5437(5) -0.05529(13)
H27 H 0.0925 0.5718 -0.0799
C37 C 0.08677(9) 0.6271(5) -0.02458(13)
H28 H 0.0911 0.7114 -0.0286
C38 C 0.07966(8) 0.5870(4) 0.01195(13)
H29 H 0.0792 0.6439 0.0327
C39 C 0.08408(8) 0.4273(4) 0.08910(11)
C40 C 0.11235(8) 0.4515(4) 0.08421(12)
H30 H 0.1187 0.4627 0.0590
C41 C 0.13096(8) 0.4588(4) 0.11631(11)
H31 H 0.1495 0.4758 0.1121
C42 C 0.12272(8) 0.4415(4) 0.15449(12)
C43 C 0.09457(9) 0.4173(4) 0.15886(12)
H32 H 0.0882 0.4051 0.1840
C44 C 0.07582(9) 0.4110(4) 0.12691(12)
H33 H 0.0572 0.3954 0.1311
C45 C 0.14245(9) 0.4441(4) 0.18948(12)
C46 C 0.13765(9) 0.3692(5) 0.22162(13)
H34 H 0.1220 0.3181 0.2207
C47 C 0.15529(9) 0.3661(5) 0.25582(13)
H35 H 0.1511 0.3160 0.2772
C48 C 0.17875(9) 0.4388(5) 0.25675(12)
C49 C 0.18450(9) 0.5150(4) 0.22568(12)
C50 C 0.16629(8) 0.5197(4) 0.19204(12)
C51 C 0.19801(9) 0.6563(5) 0.17410(13)
C52 C 0.21230(9) 0.7529(5) 0.14967(14)
H36 H 0.2016 0.7669 0.1256
H37 H 0.2304 0.7229 0.1437
H38 H 0.2140 0.8306 0.1641
Br3 Br 0.038294(14) 0.29551(7) -0.295453(17)
S3 S 0.03487(3) 0.09632(14) -0.21590(4)
N5 N 0.07244(7) 0.1192(3) -0.15938(10)
C53 C 0.25766(9) 0.5031(5) -0.08810(16)
H39 H 0.2743 0.5410 -0.0945
C54 C 0.24943(9) 0.5087(5) -0.05055(16)
H40 H 0.2605 0.5494 -0.0314
C55 C 0.22468(8) 0.4542(4) -0.04052(13)
H41 H 0.2189 0.4611 -0.0148
C56 C 0.20827(9) 0.3891(4) -0.06848(13)
C57 C 0.21711(8) 0.3848(4) -0.10699(13)
H42 H 0.2063 0.3430 -0.1263
C58 C 0.24179(10) 0.4420(5) -0.11693(14)
H43 H 0.2475 0.4391 -0.1427
N6 N 0.18320(7) 0.3314(4) -0.05932(10)
C59 C 0.17800(9) 0.2853(4) -0.02127(13)
C60 C 0.19933(9) 0.2423(4) 0.00438(12)
H44 H 0.2175 0.2393 -0.0037
C61 C 0.19319(10) 0.2041(4) 0.04210(13)
H45 H 0.2075 0.1789 0.0595
C62 C 0.16626(12) 0.2028(5) 0.05426(15)
H46 H 0.1623 0.1770 0.0796
C63 C 0.14567(10) 0.2401(5) 0.02826(14)
H47 H 0.1274 0.2367 0.0357
C64 C 0.15113(9) 0.2827(4) -0.00873(13)
H48 H 0.1366 0.3100 -0.0255
C65 C 0.16147(9) 0.3191(5) -0.08995(12)
C66 C 0.15008(8) 0.2043(4) -0.09980(12)
H49 H 0.1558 0.1323 -0.0860
C67 C 0.13013(8) 0.1955(4) -0.13021(12)
H50 H 0.1226 0.1171 -0.1368
C68 C 0.12113(9) 0.3013(4) -0.15097(12)
C69 C 0.13244(8) 0.4175(4) -0.14011(11)
H51 H 0.1266 0.4897 -0.1536
C70 C 0.15231(8) 0.4272(5) -0.10962(12)
H52 H 0.1595 0.5057 -0.1023
C71 C 0.10097(9) 0.2944(4) -0.18516(11)
C72 C 0.10372(9) 0.3752(5) -0.21684(13)
H53 H 0.1184 0.4320 -0.2162
C73 C 0.08509(10) 0.3744(5) -0.24999(12)
H54 H 0.0876 0.4297 -0.2708
C74 C 0.06337(10) 0.2916(5) -0.25123(13)
C75 C 0.06020(9) 0.2104(4) -0.22090(12)
C76 C 0.07847(9) 0.2076(5) -0.18748(13)
C77 C 0.05073(9) 0.0543(5) -0.17044(13)
C78 C 0.03905(9) -0.0496(5) -0.14668(13)
H55 H 0.0502 -0.0602 -0.1228
H56 H 0.0390 -0.1265 -0.1616
H57 H 0.0204 -0.0289 -0.1403
C79 C 0.26526(10) 0.0134(5) 0.43172(13)
H58 H 0.2833 -0.0165 0.4305
C80 C 0.26054(9) 0.1293(5) 0.44643(13)
H59 H 0.2754 0.1790 0.4553
C81 C 0.23360(9) 0.1750(4) 0.44839(13)
H60 H 0.2305 0.2546 0.4588
C82 C 0.21158(9) 0.1031(4) 0.43500(12)
C83 C 0.21640(9) -0.0132(5) 0.42056(13)
H61 H 0.2015 -0.0631 0.4118
C84 C 0.24356(10) -0.0597(5) 0.41863(13)
H62 H 0.2467 -0.1396 0.4085
C85 C 0.17666(8) 0.1953(4) 0.47625(12)
C86 C 0.17710(8) 0.1152(4) 0.50806(12)
H63 H 0.1821 0.0313 0.5048
C87 C 0.17019(8) 0.1577(5) 0.54485(13)
H64 H 0.1704 0.1022 0.5660
C88 C 0.16296(9) 0.2813(5) 0.55024(14)
H65 H 0.1579 0.3095 0.5748
C89 C 0.16323(8) 0.3632(5) 0.51894(14)
H66 H 0.1588 0.4476 0.5226
C90 C 0.17000(8) 0.3211(5) 0.48180(13)
H67 H 0.1701 0.3772 0.4607
C91 C 0.16510(9) 0.1585(4) 0.40564(12)
C92 C 0.13707(8) 0.1861(4) 0.41025(12)
H68 H 0.1308 0.2012 0.4353
C93 C 0.11869(9) 0.1912(4) 0.37818(12)
H69 H 0.1002 0.2111 0.3822
C94 C 0.12653(9) 0.1678(4) 0.33998(12)
C95 C 0.15445(8) 0.1425(4) 0.33601(12)
H70 H 0.1608 0.1286 0.3109
C96 C 0.17337(9) 0.1368(4) 0.36769(12)
H71 H 0.1919 0.1183 0.3635
C97 C 0.10642(9) 0.1683(4) 0.30586(12)
C98 C 0.10939(9) 0.0844(5) 0.27491(13)
H72 H 0.1242 0.0282 0.2763
C99 C 0.09108(10) 0.0805(5) 0.24169(13)
H73 H 0.0940 0.0234 0.2215
C100 C 0.06875(10) 0.1611(5) 0.23899(13)
C101 C 0.06473(9) 0.2440(5) 0.26880(13)
C102 C 0.08355(9) 0.2517(5) 0.30195(12)
C103 C 0.05371(9) 0.3980(4) 0.31873(13)
C104 C 0.04049(10) 0.5008(5) 0.34238(14)
H74 H 0.0514 0.5147 0.3663
H75 H 0.0220 0.4758 0.3486
H76 H 0.0396 0.5773 0.3273
Br4 Br 0.043212(12) 0.15171(6) 0.194946(16)
S4 S 0.03830(3) 0.35241(14) 0.27326(4)
N7 N 0.07648(7) 0.3429(4) 0.32954(10)
N8 N 0.18385(7) 0.1503(4) 0.43850(10)
loop_
_geom_bond_atom_site_label_1
_geom_bond_atom_site_label_2
_geom_bond_site_symmetry_1
_geom_bond_site_symmetry_2
Br1 C22 1_555 1_555
S1 C23 1_555 1_555
N1 C24 1_555 1_555
C1 H1 1_555 1_555
C2 C1 1_555 1_555
H2 C2 1_555 1_555
C3 C2 1_555 1_555
H3 C3 1_555 1_555
C4 C3 1_555 1_555
C5 C4 1_555 1_555
H4 C5 1_555 1_555
C6 C1 1_555 1_555
H5 C6 1_555 1_555
N2 C4 1_555 1_555
C7 N2 1_555 1_555
C8 C7 1_555 1_555
H6 C8 1_555 1_555
C9 C8 1_555 1_555
H7 C9 1_555 1_555
C10 C9 1_555 1_555
H8 C10 1_555 1_555
C11 C10 1_555 1_555
H9 C11 1_555 1_555
C12 C7 1_555 1_555
H10 C12 1_555 1_555
C13 N2 1_555 1_555
C14 C13 1_555 1_555
H11 C14 1_555 1_555
C15 C14 1_555 1_555
H12 C15 1_555 1_555
C16 C15 1_555 1_555
C17 C16 1_555 1_555
H13 C17 1_555 1_555
C18 C13 1_555 1_555
H14 C18 1_555 1_555
C19 C16 1_555 1_555
C20 C19 1_555 1_555
H15 C20 1_555 1_555
C21 C20 1_555 1_555
H16 C21 1_555 1_555
C22 C21 1_555 1_555
C23 C22 1_555 1_555
C24 C19 1_555 1_555
C25 S1 1_555 1_555
C26 C25 1_555 1_555
H17 C26 1_555 1_555
H18 C26 1_555 1_555
H19 C26 1_555 1_555
Br2 C48 1_555 1_555
S2 C49 1_555 1_555
N3 C50 1_555 1_555
C27 H20 1_555 1_555
C28 C27 1_555 1_555
H21 C28 1_555 1_555
C29 C28 1_555 1_555
H22 C29 1_555 1_555
C30 C29 1_555 1_555
C31 C30 1_555 1_555
H23 C31 1_555 1_555
C32 C27 1_555 1_555
H24 C32 1_555 1_555
N4 C30 1_555 1_555
C33 N4 1_555 1_555
C34 C33 1_555 1_555
H25 C34 1_555 1_555
C35 C34 1_555 1_555
H26 C35 1_555 1_555
C36 C35 1_555 1_555
H27 C36 1_555 1_555
C37 C36 1_555 1_555
H28 C37 1_555 1_555
C38 C33 1_555 1_555
H29 C38 1_555 1_555
C39 N4 1_555 1_555
C40 C39 1_555 1_555
H30 C40 1_555 1_555
C41 C40 1_555 1_555
H31 C41 1_555 1_555
C42 C41 1_555 1_555
C43 C42 1_555 1_555
H32 C43 1_555 1_555
C44 C39 1_555 1_555
H33 C44 1_555 1_555
C45 C42 1_555 1_555
C46 C45 1_555 1_555
H34 C46 1_555 1_555
C47 C46 1_555 1_555
H35 C47 1_555 1_555
C48 C47 1_555 1_555
C49 C48 1_555 1_555
C50 C45 1_555 1_555
C51 S2 1_555 1_555
C52 C51 1_555 1_555
H36 C52 1_555 1_555
H37 C52 1_555 1_555
H38 C52 1_555 1_555
Br3 C74 1_555 1_555
S3 C75 1_555 1_555
N5 C76 1_555 1_555
C53 H39 1_555 1_555
C54 C53 1_555 1_555
H40 C54 1_555 1_555
C55 C54 1_555 1_555
H41 C55 1_555 1_555
C56 C55 1_555 1_555
C57 C56 1_555 1_555
H42 C57 1_555 1_555
C58 C53 1_555 1_555
H43 C58 1_555 1_555
N6 C56 1_555 1_555
C59 N6 1_555 1_555
C60 C59 1_555 1_555
H44 C60 1_555 1_555
C61 C60 1_555 1_555
H45 C61 1_555 1_555
C62 C61 1_555 1_555
H46 C62 1_555 1_555
C63 C62 1_555 1_555
H47 C63 1_555 1_555
C64 C59 1_555 1_555
H48 C64 1_555 1_555
C65 N6 1_555 1_555
C66 C65 1_555 1_555
H49 C66 1_555 1_555
C67 C66 1_555 1_555
H50 C67 1_555 1_555
C68 C67 1_555 1_555
C69 C68 1_555 1_555
H51 C69 1_555 1_555
C70 C65 1_555 1_555
H52 C70 1_555 1_555
C71 C68 1_555 1_555
C72 C71 1_555 1_555
H53 C72 1_555 1_555
C73 C72 1_555 1_555
H54 C73 1_555 1_555
C74 C73 1_555 1_555
C75 C74 1_555 1_555
C76 C71 1_555 1_555
C77 S3 1_555 1_555
C78 C77 1_555 1_555
H55 C78 1_555 1_555
H56 C78 1_555 1_555
H57 C78 1_555 1_555
C79 H58 1_555 1_555
C80 C79 1_555 1_555
H59 C80 1_555 1_555
C81 C80 1_555 1_555
H60 C81 1_555 1_555
C82 C81 1_555 1_555
C83 C82 1_555 1_555
H61 C83 1_555 1_555
C84 C79 1_555 1_555
H62 C84 1_555 1_555
C85 C86 1_555 1_555
C86 H63 1_555 1_555
C87 C86 1_555 1_555
H64 C87 1_555 1_555
C88 C87 1_555 1_555
H65 C88 1_555 1_555
C89 C88 1_555 1_555
H66 C89 1_555 1_555
C90 C85 1_555 1_555
H67 C90 1_555 1_555
C91 C92 1_555 1_555
C92 H68 1_555 1_555
C93 C92 1_555 1_555
H69 C93 1_555 1_555
C94 C93 1_555 1_555
C95 C94 1_555 1_555
H70 C95 1_555 1_555
C96 C91 1_555 1_555
H71 C96 1_555 1_555
C97 C94 1_555 1_555
C98 C97 1_555 1_555
H72 C98 1_555 1_555
C99 C98 1_555 1_555
H73 C99 1_555 1_555
C100 C99 1_555 1_555
C101 C100 1_555 1_555
C102 C97 1_555 1_555
C103 C104 1_555 1_555
C104 H74 1_555 1_555
H75 C104 1_555 1_555
H76 C104 1_555 1_555
Br4 C100 1_555 1_555
S4 C101 1_555 1_555
N7 C102 1_555 1_555
N8 C82 1_555 1_555
N1 C25 1_555 1_555
C5 C6 1_555 1_555
C11 C12 1_555 1_555
C17 C18 1_555 1_555
C23 C24 1_555 1_555
N3 C51 1_555 1_555
C31 C32 1_555 1_555
C37 C38 1_555 1_555
C43 C44 1_555 1_555
C49 C50 1_555 1_555
N5 C77 1_555 1_555
C57 C58 1_555 1_555
C63 C64 1_555 1_555
C69 C70 1_555 1_555
C75 C76 1_555 1_555
C83 C84 1_555 1_555
C85 N8 1_555 1_555
C89 C90 1_555 1_555
C91 N8 1_555 1_555
C95 C96 1_555 1_555
C101 C102 1_555 1_555
C103 S4 1_555 1_555
C103 N7 1_555 1_555

#END
