
#######################################################################
#
#                 Cambridge Crystallographic Data Centre
#                                CCDC 
#
#######################################################################
#
# If this CIF has been generated from an entry in the Cambridge 
# Structural Database, then it will include bibliographic, chemical, 
# crystal, experimental, refinement or atomic coordinate data resulting 
# from the CCDC's data processing and validation procedures.
#
#######################################################################

data_BILPOE01
_chemical_formula_moiety         'C6 H14 N2 O1 2+,H4 N1 1+,3(Cl1 1-)'
_chemical_name_systematic        
'ammonium 1-hydroxy-1,4-diazoniabicyclo[2.2.2]octane trichloride'
_symmetry_cell_setting           orthorhombic
_symmetry_space_group_name_H-M   'P c a 21'
_symmetry_Int_Tables_number      29
_space_group_name_Hall           'P 2c -2ac'
loop_
_symmetry_equiv_pos_site_id
_symmetry_equiv_pos_as_xyz
1 x,y,z
2 -x,-y,1/2+z
3 1/2-x,y,1/2+z
4 1/2+x,-y,z
_cell_length_a                   13.186(6)
_cell_length_b                   6.627(3)
_cell_length_c                   13.218(6)
_cell_angle_alpha                90
_cell_angle_beta                 90
_cell_angle_gamma                90
_cell_volume                     1155.04
_exptl_crystal_colour            colorless
_exptl_crystal_description       block
_cell_formula_units_Z            4
loop_
_atom_site_label
_atom_site_type_symbol
_atom_site_fract_x
_atom_site_fract_y
_atom_site_fract_z
O1 O 0.1308(8) 0.7244(18) 0.0984(9)
H1 H 0.1595 0.8303 0.0838
C1 C 0.2163(6) 0.2729(11) 0.2274(8)
H2 H 0.2395 0.1774 0.1767
H3 H 0.1856 0.1983 0.2825
C2 C 0.2155(6) 0.7170(13) 0.2538(8)
H4 H 0.1531 0.7706 0.2818
H5 H 0.2612 0.8286 0.2404
C3 C 0.2908(9) 0.5599(15) 0.1049(8)
H6 H 0.2777 0.4631 0.0514
H7 H 0.3184 0.6816 0.0748
N1 N 0.3031(6) 0.3960(12) 0.2652(6)
H8 H 0.3464 0.3122 0.3084
C4 C 0.2629(8) 0.5724(17) 0.3261(8)
H9 H 0.2130 0.5261 0.3748
H10 H 0.3177 0.6375 0.3625
C5 C 0.3635(7) 0.4746(15) 0.1794(9)
H11 H 0.4026 0.3667 0.1487
H12 H 0.4100 0.5783 0.2025
C6 C 0.1421(7) 0.4151(16) 0.1827(8)
H13 H 0.1143 0.3591 0.1208
H14 H 0.0867 0.4383 0.2296
N2 N 0.1948(6) 0.6067(12) 0.1609(7)
Cl1 Cl 0.24778(18) 0.0678(3) 0.4688(2)
N3 N 0.0022(8) 0.0355(12) 0.4694(8)
H15 H -0.0050 -0.0995 0.4716
H16 H 0.0662 0.0749 0.4823
H17 H -0.0158 0.0872 0.4090
H18 H -0.0388 0.0989 0.5135
Cl2 Cl 0.00489(16) -0.4568(3) 0.4293(2)
Cl3 Cl -0.03545(14) 0.0166(3) 0.2241(2)
loop_
_geom_bond_atom_site_label_1
_geom_bond_atom_site_label_2
_geom_bond_site_symmetry_1
_geom_bond_site_symmetry_2
O1 H1 1_555 1_555
C1 H2 1_555 1_555
H3 C1 1_555 1_555
C2 H4 1_555 1_555
H5 C2 1_555 1_555
C3 H6 1_555 1_555
H7 C3 1_555 1_555
N1 C1 1_555 1_555
H8 N1 1_555 1_555
C4 C2 1_555 1_555
H9 C4 1_555 1_555
H10 C4 1_555 1_555
C5 C3 1_555 1_555
H11 C5 1_555 1_555
H12 C5 1_555 1_555
C6 C1 1_555 1_555
H13 C6 1_555 1_555
H14 C6 1_555 1_555
N2 O1 1_555 1_555
N3 H15 1_555 1_555
H16 N3 1_555 1_555
H17 N3 1_555 1_555
H18 N3 1_555 1_555
C2 N2 1_555 1_555
C3 N2 1_555 1_555
N1 C4 1_555 1_555
N1 C5 1_555 1_555
C6 N2 1_555 1_555

#END
