
#######################################################################
#
#                 Cambridge Crystallographic Data Centre
#                                CCDC 
#
#######################################################################
#
# If this CIF has been generated from an entry in the Cambridge 
# Structural Database, then it will include bibliographic, chemical, 
# crystal, experimental, refinement or atomic coordinate data resulting 
# from the CCDC's data processing and validation procedures.
#
#######################################################################

data_BILPET
_chemical_formula_moiety         'C38 H20 F12 S5'
_chemical_name_systematic        
"2,6-bis(3,3,4,4,5,5-Hexafluoro-2-(2-methyl-1-benzothiophen-3-yl)cyclopent-1-en-1-yl)-3,5-dimethylbisthieno[3,2-b:2',3'-d]thiophene unknown solvate"
_symmetry_cell_setting           monoclinic
_symmetry_space_group_name_H-M   'P 21/c'
_symmetry_Int_Tables_number      14
_space_group_name_Hall           '-P 2ybc'
loop_
_symmetry_equiv_pos_site_id
_symmetry_equiv_pos_as_xyz
1 x,y,z
2 -x,1/2+y,1/2-z
3 -x,-y,-z
4 x,1/2-y,1/2+z
_cell_length_a                   17.793(4)
_cell_length_b                   20.776(7)
_cell_length_c                   11.436(6)
_cell_angle_alpha                90
_cell_angle_beta                 99.849(5)
_cell_angle_gamma                90
_cell_volume                     4165.21
_exptl_crystal_colour            yellow
_exptl_crystal_description       block
_cell_formula_units_Z            4
_chemical_properties_physical    light-sensitive
_exptl_crystal_preparation       photochromic
loop_
_atom_site_label
_atom_site_type_symbol
_atom_site_fract_x
_atom_site_fract_y
_atom_site_fract_z
S1 S 0.28100(13) 0.76541(9) 0.3299(2)
S2 S 0.11380(8) 0.50513(8) 0.22595(15)
S3 S 0.00192(8) 0.59448(8) 0.47576(13)
S4 S -0.11210(8) 0.50447(8) 0.16818(14)
S5 S -0.26457(11) 0.76531(9) 0.1914(2)
F1 F 0.4071(3) 0.5673(2) 0.2152(4)
F2 F 0.4556(2) 0.5660(2) 0.3991(5)
F3 F 0.4209(3) 0.4426(2) 0.2547(5)
F4 F 0.4029(3) 0.4523(2) 0.4331(4)
F5 F 0.2733(2) 0.4591(2) 0.1710(3)
F6 F 0.2702(3) 0.41753(19) 0.3426(4)
F7 F -0.2708(2) 0.4559(2) 0.0367(4)
F8 F -0.2761(3) 0.4188(2) 0.2091(4)
F9 F -0.4212(3) 0.4464(3) 0.0358(7)
F10 F -0.4024(4) 0.4577(3) 0.2239(5)
F11 F -0.4015(3) 0.5693(3) 0.0008(4)
F12 F -0.4517(4) 0.5728(5) 0.1594(8)
C1 C 0.3444(4) 0.7479(4) 0.4563(7)
C2 C 0.3810(6) 0.7905(4) 0.5424(10)
H1 H 0.3736 0.8356 0.5324
C3 C 0.4276(5) 0.7670(5) 0.6416(9)
H2 H 0.4529 0.7959 0.6998
C4 C 0.4378(5) 0.7004(5) 0.6567(8)
H3 H 0.4696 0.6845 0.7260
C5 C 0.4027(4) 0.6578(4) 0.5730(6)
H4 H 0.4096 0.6128 0.5849
C6 C 0.3568(3) 0.6809(3) 0.4706(6)
C7 C 0.3137(4) 0.6459(3) 0.3698(6)
C8 C 0.2718(4) 0.6847(3) 0.2911(7)
C9 C 0.2198(4) 0.6674(4) 0.1759(7)
H5 H 0.2384 0.6280 0.1432
H6 H 0.2195 0.7026 0.1189
H7 H 0.1679 0.6603 0.1912
C10 C 0.3198(3) 0.5764(3) 0.3505(6)
C11 C 0.3937(3) 0.5471(4) 0.3275(8)
C12 C 0.3810(3) 0.4764(3) 0.3204(6)
C13 C 0.2947(3) 0.4695(3) 0.2898(5)
C14 C 0.2650(3) 0.5315(3) 0.3286(5)
C15 C 0.1832(3) 0.5389(3) 0.3366(5)
C16 C 0.1519(3) 0.5691(3) 0.4245(5)
C17 C 0.1947(3) 0.6007(4) 0.5347(6)
H8 H 0.2477 0.5854 0.5490
H9 H 0.1705 0.5896 0.6028
H10 H 0.1940 0.6475 0.5240
C18 C 0.0714(3) 0.5652(3) 0.3998(5)
C19 C 0.0426(3) 0.5336(3) 0.2965(5)
C20 C -0.0392(3) 0.5328(3) 0.2756(5)
C21 C -0.0689(3) 0.5645(3) 0.3647(5)
C22 C -0.1496(3) 0.5678(3) 0.3479(5)
C23 C -0.1916(3) 0.5995(4) 0.4361(5)
H11 H -0.1981 0.6454 0.4175
H12 H -0.1622 0.5943 0.5163
H13 H -0.2417 0.5793 0.4320
C24 C -0.1805(3) 0.5385(3) 0.2452(5)
C25 C -0.2622(3) 0.5323(3) 0.1941(5)
C26 C -0.2946(4) 0.4702(3) 0.1412(6)
C27 C -0.3797(4) 0.4816(3) 0.1203(6)
C28 C -0.3901(3) 0.5506(4) 0.1229(7)
C29 C -0.3146(3) 0.5778(3) 0.1852(6)
C30 C -0.2081(4) 0.6661(4) 0.0689(7)
H14 H -0.1578 0.6541 0.1128
H15 H -0.2027 0.7025 0.0163
H16 H -0.2304 0.6294 0.0214
C31 C -0.2591(3) 0.6850(3) 0.1546(7)
C32 C -0.3073(3) 0.6477(3) 0.2098(6)
C33 C -0.3480(3) 0.6845(3) 0.2862(6)
C34 C -0.3309(4) 0.7503(3) 0.2840(6)
C35 C -0.3626(4) 0.7946(4) 0.3518(7)
H17 H -0.3512 0.8391 0.3487
C36 C -0.4124(5) 0.7714(4) 0.4256(8)
H18 H -0.4353 0.8007 0.4728
C37 C -0.4281(4) 0.7070(4) 0.4299(7)
H19 H -0.4615 0.6925 0.4810
C38 C -0.3969(4) 0.6624(4) 0.3622(6)
H20 H -0.4082 0.6179 0.3669
F13? F -0.3917(11) 0.4983(10) -0.0023(10)
F14? F -0.4341(8) 0.4350(7) 0.1145(18)
F15? F -0.4522(10) 0.5899(11) 0.110(2)
F16? F -0.4169(12) 0.5346(11) 0.2302(13)
loop_
_geom_bond_atom_site_label_1
_geom_bond_atom_site_label_2
_geom_bond_site_symmetry_1
_geom_bond_site_symmetry_2
S1 C1 1_555 1_555
S2 C15 1_555 1_555
S3 C18 1_555 1_555
S4 C20 1_555 1_555
S5 C31 1_555 1_555
F1 C11 1_555 1_555
F2 C11 1_555 1_555
F3 C12 1_555 1_555
F4 C12 1_555 1_555
F5 C13 1_555 1_555
F6 C13 1_555 1_555
F7 C26 1_555 1_555
F8 C26 1_555 1_555
F9 C27 1_555 1_555
F10 C27 1_555 1_555
F11 C28 1_555 1_555
F12 C28 1_555 1_555
C1 C2 1_555 1_555
C2 H1 1_555 1_555
C3 C2 1_555 1_555
H2 C3 1_555 1_555
C4 C3 1_555 1_555
H3 C4 1_555 1_555
C5 C4 1_555 1_555
H4 C5 1_555 1_555
C6 C1 1_555 1_555
C7 C6 1_555 1_555
C8 S1 1_555 1_555
C9 C8 1_555 1_555
H5 C9 1_555 1_555
H6 C9 1_555 1_555
H7 C9 1_555 1_555
C10 C7 1_555 1_555
C11 C10 1_555 1_555
C12 C11 1_555 1_555
C13 C12 1_555 1_555
C14 C10 1_555 1_555
C15 C14 1_555 1_555
C16 C15 1_555 1_555
C17 C16 1_555 1_555
H8 C17 1_555 1_555
H9 C17 1_555 1_555
H10 C17 1_555 1_555
C18 C16 1_555 1_555
C19 S2 1_555 1_555
C20 C19 1_555 1_555
C21 S3 1_555 1_555
C22 C21 1_555 1_555
C23 C22 1_555 1_555
H11 C23 1_555 1_555
H12 C23 1_555 1_555
H13 C23 1_555 1_555
C24 S4 1_555 1_555
C25 C24 1_555 1_555
C26 C25 1_555 1_555
C27 C26 1_555 1_555
C28 C27 1_555 1_555
C29 C25 1_555 1_555
C30 H14 1_555 1_555
H15 C30 1_555 1_555
H16 C30 1_555 1_555
C31 C30 1_555 1_555
C32 C29 1_555 1_555
C33 C32 1_555 1_555
C34 S5 1_555 1_555
C35 C34 1_555 1_555
H17 C35 1_555 1_555
C36 C35 1_555 1_555
H18 C36 1_555 1_555
C37 C36 1_555 1_555
H19 C37 1_555 1_555
C38 C33 1_555 1_555
H20 C38 1_555 1_555
C5 C6 1_555 1_555
C7 C8 1_555 1_555
C13 C14 1_555 1_555
C18 C19 1_555 1_555
C20 C21 1_555 1_555
C22 C24 1_555 1_555
C28 C29 1_555 1_555
C31 C32 1_555 1_555
C33 C34 1_555 1_555
C37 C38 1_555 1_555

#END
