
#######################################################################
#
#                 Cambridge Crystallographic Data Centre
#                                CCDC 
#
#######################################################################
#
# If this CIF has been generated from an entry in the Cambridge 
# Structural Database, then it will include bibliographic, chemical, 
# crystal, experimental, refinement or atomic coordinate data resulting 
# from the CCDC's data processing and validation procedures.
#
#######################################################################

data_BILQEU01
_chemical_name_common            
2,5-Dimethyl-3,4-trimethylene-6a-thiathiophthene
_chemical_formula_moiety         'C10 H12 S3'
_chemical_name_systematic        
2,6-Dimethyl-4,5-dihydro-3H-8\l^4^-[1,2]dithiolo[4,5,1-hi][1,2]benzodithiole
_symmetry_cell_setting           monoclinic
_symmetry_space_group_name_H-M   'C 2/m'
_symmetry_Int_Tables_number      12
_space_group_name_Hall           '-C 2y'
loop_
_symmetry_equiv_pos_site_id
_symmetry_equiv_pos_as_xyz
1 x,y,z
2 -x,y,-z
3 1/2+x,1/2+y,z
4 1/2-x,1/2+y,-z
5 -x,-y,-z
6 x,-y,z
7 1/2-x,1/2-y,-z
8 1/2+x,1/2-y,z
_cell_length_a                   14.033(3)
_cell_length_b                   11.195(2)
_cell_length_c                   8.2097(16)
_cell_angle_alpha                90
_cell_angle_beta                 124.26(3)
_cell_angle_gamma                90
_cell_volume                     1065.96
_exptl_crystal_colour            red
_exptl_crystal_description       block
_cell_formula_units_Z            4
loop_
_atom_site_label
_atom_site_type_symbol
_atom_site_fract_x
_atom_site_fract_y
_atom_site_fract_z
S1 S 0.53708(6) 0.0000 0.32962(10)
S2 S 0.53548(5) 0.20844(6) 0.32135(8)
C1 C 0.6349(2) 0.0000 0.2620(3)
C2 C 0.67231(16) 0.11083(16) 0.2339(3)
C3 C 0.7584(2) 0.1107(2) 0.1785(4)
C4 C 0.8320(3) 0.0000 0.2504(5)
C5 C 0.62861(17) 0.21556(19) 0.2526(3)
C6 C 0.6587(3) 0.3364(2) 0.2135(5)
H1 H 0.713(2) 0.1129(17) 0.028(4)
H2 H 0.879(3) 0.0000 0.393(5)
H3 H 0.8043(18) 0.187(2) 0.233(3)
H4 H 0.632(3) 0.348(3) 0.073(5)
H5 H 0.877(3) 0.0000 0.198(5)
H6 H 0.742(3) 0.357(3) 0.300(5)
H7 H 0.621(3) 0.389(3) 0.239(5)
S2E S 0.53548(5) -0.20844(6) 0.32135(8)
C2E C 0.67231(16) -0.11083(16) 0.2339(3)
C3E C 0.7584(2) -0.1107(2) 0.1785(4)
C5E C 0.62861(17) -0.21556(19) 0.2526(3)
C6E C 0.6587(3) -0.3364(2) 0.2135(5)
H1E H 0.713(2) -0.1129(17) 0.028(4)
H3E H 0.8043(18) -0.187(2) 0.233(3)
H4E H 0.632(3) -0.348(3) 0.073(5)
H6E H 0.742(3) -0.357(3) 0.300(5)
H7E H 0.621(3) -0.389(3) 0.239(5)
loop_
_geom_bond_atom_site_label_1
_geom_bond_atom_site_label_2
_geom_bond_site_symmetry_1
_geom_bond_site_symmetry_2
S1 S2 1_555 1_555
S2 C5 1_555 1_555
C1 S1 1_555 1_555
C2 C1 1_555 1_555
C3 C2 1_555 1_555
C4 C3 1_555 1_555
C5 C2 1_555 1_555
C6 C5 1_555 1_555
H1 C3 1_555 1_555
H2 C4 1_555 1_555
H3 C3 1_555 1_555
H4 C6 1_555 1_555
H5 C4 1_555 1_555
H6 C6 1_555 1_555
H7 C6 1_555 1_555
S2E S1 1_555 1_555
C2E C1 1_555 1_555
C3E C4 1_555 1_555
C5E S2E 1_555 1_555
C6E C5E 1_555 1_555
H1E C3E 1_555 1_555
H3E C3E 1_555 1_555
H4E C6E 1_555 1_555
H6E C6E 1_555 1_555
H7E C6E 1_555 1_555
C2E C3E 1_555 1_555
C2E C5E 1_555 1_555

#END
