
#######################################################################
#
#                 Cambridge Crystallographic Data Centre
#                                CCDC 
#
#######################################################################
#
# If this CIF has been generated from an entry in the Cambridge 
# Structural Database, then it will include bibliographic, chemical, 
# crystal, experimental, refinement or atomic coordinate data resulting 
# from the CCDC's data processing and validation procedures.
#
#######################################################################

data_BILRAR
_chemical_formula_moiety         'C34 H20'
_chemical_name_systematic        
12-Phenyl-7-(phenylethynyl)indeno[2,1-a]phenalene
_symmetry_cell_setting           monoclinic
_symmetry_space_group_name_H-M   'P 21/c'
_symmetry_Int_Tables_number      14
_space_group_name_Hall           '-P 2ybc'
loop_
_symmetry_equiv_pos_site_id
_symmetry_equiv_pos_as_xyz
1 x,y,z
2 -x,1/2+y,1/2-z
3 -x,-y,-z
4 x,1/2-y,1/2+z
_cell_length_a                   12.559(4)
_cell_length_b                   22.070(7)
_cell_length_c                   8.161(3)
_cell_angle_alpha                90
_cell_angle_beta                 93.656(6)
_cell_angle_gamma                90
_cell_volume                     2257.44
_exptl_crystal_colour            brown
_exptl_crystal_description       Prism
_cell_formula_units_Z            4
loop_
_atom_site_label
_atom_site_type_symbol
_atom_site_fract_x
_atom_site_fract_y
_atom_site_fract_z
C1 C 1.2855(3) 0.7900(2) 0.6676(5)
H1 H 1.2148 0.7783 0.6749
C2 C 1.3654(5) 0.7550(3) 0.7405(6)
H2 H 1.3489 0.7189 0.7923
C3 C 1.4688(5) 0.7730(3) 0.7367(5)
H3 H 1.5228 0.7501 0.7895
C4 C 1.4932(3) 0.8249(2) 0.6548(5)
H4 H 1.5639 0.8371 0.6521
C5 C 1.4128(2) 0.85945(14) 0.5760(4)
H5 H 1.4298 0.8940 0.5181
C6 C 1.3077(2) 0.84224(13) 0.5838(3)
C7 C 1.2226(2) 0.87664(12) 0.5029(3)
C8 C 1.14958(19) 0.90462(12) 0.4399(3)
C9 C 1.06247(17) 0.93909(11) 0.3633(3)
C10 C 1.08498(17) 0.99693(11) 0.2859(3)
C11 C 1.18689(18) 1.02065(12) 0.2883(3)
H6 H 1.2423 0.9993 0.3429
C12 C 1.2100(2) 1.07460(13) 0.2134(3)
H7 H 1.2800 1.0885 0.2160
C13 C 1.1298(2) 1.10776(13) 0.1349(3)
H8 H 1.1453 1.1444 0.0856
C14 C 1.02272(19) 1.08615(11) 0.1288(3)
C15 C 0.9390(2) 1.11998(12) 0.0479(3)
H9 H 0.9537 1.1568 -0.0011
C16 C 0.8366(2) 1.09848(13) 0.0419(3)
H10 H 0.7821 1.1208 -0.0116
C17 C 0.81336(19) 1.04335(11) 0.1152(3)
H11 H 0.7433 1.0295 0.1086
C18 C 0.89143(17) 1.00873(10) 0.1975(3)
C19 C 0.99919(17) 1.03059(10) 0.2047(3)
C20 C 0.87036(17) 0.95110(10) 0.2776(3)
C21 C 0.95986(17) 0.91755(11) 0.3597(3)
C22 C 0.91627(18) 0.86203(10) 0.4270(3)
C23 C 0.9601(2) 0.81585(12) 0.5253(3)
H12 H 1.0330 0.8151 0.5538
C24 C 0.8939(2) 0.77058(12) 0.5809(3)
H13 H 0.9226 0.7402 0.6494
C25 C 0.7863(2) 0.77034(13) 0.5355(3)
H14 H 0.7436 0.7393 0.5718
C26 C 0.7412(2) 0.81546(12) 0.4370(3)
H15 H 0.6686 0.8148 0.4063
C27 C 0.80575(18) 0.86224(10) 0.3838(3)
C28 C 0.77840(17) 0.91759(11) 0.2912(3)
C29 C 0.66492(17) 0.93139(11) 0.2385(3)
C30 C 0.6074(2) 0.89276(12) 0.1285(3)
H16 H 0.6417 0.8603 0.0817
C31 C 0.4998(2) 0.90260(14) 0.0892(4)
H17 H 0.4625 0.8770 0.0155
C32 C 0.4477(2) 0.95034(14) 0.1590(3)
H18 H 0.3755 0.9569 0.1326
C33 C 0.5030(2) 0.98772(14) 0.2671(3)
H19 H 0.4683 1.0199 0.3143
C34 C 0.61075(19) 0.97789(12) 0.3068(3)
H20 H 0.6470 1.0035 0.3816
loop_
_geom_bond_atom_site_label_1
_geom_bond_atom_site_label_2
_geom_bond_site_symmetry_1
_geom_bond_site_symmetry_2
C1 H1 1_555 1_555
C2 C1 1_555 1_555
H2 C2 1_555 1_555
C3 C2 1_555 1_555
H3 C3 1_555 1_555
C4 C3 1_555 1_555
H4 C4 1_555 1_555
C5 C4 1_555 1_555
H5 C5 1_555 1_555
C6 C1 1_555 1_555
C7 C6 1_555 1_555
C8 C7 1_555 1_555
C9 C8 1_555 1_555
C10 C9 1_555 1_555
C11 C10 1_555 1_555
H6 C11 1_555 1_555
C12 C11 1_555 1_555
H7 C12 1_555 1_555
C13 C12 1_555 1_555
H8 C13 1_555 1_555
C14 C13 1_555 1_555
C15 C14 1_555 1_555
H9 C15 1_555 1_555
C16 C15 1_555 1_555
H10 C16 1_555 1_555
C17 C16 1_555 1_555
H11 C17 1_555 1_555
C18 C17 1_555 1_555
C19 C10 1_555 1_555
C20 C18 1_555 1_555
C21 C9 1_555 1_555
C22 C21 1_555 1_555
C23 C22 1_555 1_555
H12 C23 1_555 1_555
C24 C23 1_555 1_555
H13 C24 1_555 1_555
C25 C24 1_555 1_555
H14 C25 1_555 1_555
C26 C25 1_555 1_555
H15 C26 1_555 1_555
C27 C22 1_555 1_555
C28 C20 1_555 1_555
C29 C28 1_555 1_555
C30 C29 1_555 1_555
H16 C30 1_555 1_555
C31 C30 1_555 1_555
H17 C31 1_555 1_555
C32 C31 1_555 1_555
H18 C32 1_555 1_555
C33 C32 1_555 1_555
H19 C33 1_555 1_555
C34 C29 1_555 1_555
H20 C34 1_555 1_555
C5 C6 1_555 1_555
C14 C19 1_555 1_555
C18 C19 1_555 1_555
C20 C21 1_555 1_555
C26 C27 1_555 1_555
C27 C28 1_555 1_555
C33 C34 1_555 1_555

#END
