
#######################################################################
#
#                 Cambridge Crystallographic Data Centre
#                                CCDC 
#
#######################################################################
#
# If this CIF has been generated from an entry in the Cambridge 
# Structural Database, then it will include bibliographic, chemical, 
# crystal, experimental, refinement or atomic coordinate data resulting 
# from the CCDC's data processing and validation procedures.
#
#######################################################################

data_BILVUP
_chemical_formula_moiety         'C21 H27 N5 O4,0.5(C1 H2 Cl2)'
_chemical_name_systematic        
'2-Amino-3-((4-(1,4,7,10-tetraoxa-13-azacyclopentadecan-13-yl)benzylidene)amino)but-2-enedinitrile dichloromethane solvate'
_symmetry_cell_setting           monoclinic
_symmetry_space_group_name_H-M   'P 21/c'
_symmetry_Int_Tables_number      14
_space_group_name_Hall           '-P 2ybc'
loop_
_symmetry_equiv_pos_site_id
_symmetry_equiv_pos_as_xyz
1 x,y,z
2 -x,1/2+y,1/2-z
3 -x,-y,-z
4 x,1/2-y,1/2+z
_cell_length_a                   11.2247(2)
_cell_length_b                   9.9154(2)
_cell_length_c                   21.3063(5)
_cell_angle_alpha                90
_cell_angle_beta                 98.9120(10)
_cell_angle_gamma                90
_cell_volume                     2342.71
_cell_formula_units_Z            4
loop_
_atom_site_label
_atom_site_type_symbol
_atom_site_fract_x
_atom_site_fract_y
_atom_site_fract_z
N1 N 0.2822(4) 0.9411(4) 1.19318(17)
N2 N 0.3318(2) 0.6132(2) 1.03454(12)
C1 C 0.3543(3) 0.6173(3) 0.97759(15)
H1 H 0.3661 0.7014 0.9602
C2 C 0.3852(3) 0.4049(3) 0.83682(15)
H2 H 0.3938 0.4183 0.7945
O1 O 0.2217(4) -0.0961(4) 0.79648(15)
C3 C 0.3560(3) 0.3687(3) 0.96177(15)
H3 H 0.3453 0.3557 1.0038
O2 O 0.3045(2) 0.2018(3) 0.65055(11)
N3 N 0.3410(4) 0.9607(3) 1.01473(16)
C4 C 0.3243(3) 0.7316(3) 1.06885(14)
C5 C 0.3916(4) 0.0258(3) 0.84767(18)
H4 H 0.4376 0.0253 0.8901
H5 H 0.4324 -0.0334 0.8217
C6 C 0.2679(5) -0.0321(5) 0.8510(2)
H6 H 0.2735 -0.0951 0.8861
H7 H 0.2139 0.0402 0.8589
C7 C 0.0969(7) -0.1429(9) 0.7984(3)
H8 H 0.0973 -0.2000 0.8354
H9 H 0.0470 -0.0650 0.8035
O3 O 0.0552(3) -0.1565(5) 0.6921(2)
N4 N 0.3097(3) 0.6075(3) 1.16430(13)
H10 H 0.3219 0.5319 1.1466
H11 H 0.2987 0.6094 1.2033
C8 C 0.3651(3) 0.2581(3) 0.92379(15)
H12 H 0.3609 0.1722 0.9407
O4 O 0.0603(3) 0.0952(4) 0.62610(17)
C9 C 0.1207(4) 0.1514(5) 0.5779(2)
H13 H 0.0623 0.1913 0.5448
H14 H 0.1636 0.0810 0.5590
C10 C 0.2079(4) 0.2571(4) 0.60698(18)
H15 H 0.2406 0.3039 0.5735
H16 H 0.1651 0.3227 0.6289
C11 C 0.2943(3) 0.8451(4) 1.16515(16)
C12 C 0.3079(3) 0.7234(3) 1.13076(15)
C13 C 0.3625(3) 0.5004(3) 0.93873(14)
C14 C 0.3774(3) 0.5146(3) 0.87499(15)
H17 H 0.3822 0.6007 0.8582
C15 C 0.3805(3) 0.2724(3) 0.85994(14)
N5 N 0.3937(3) 0.1622(3) 0.82231(13)
C16 C 0.0449(7) -0.2141(10) 0.7446(3)
H18 H 0.0821 -0.3025 0.7453
H19 H -0.0401 -0.2271 0.7466
C17 C -0.0464(5) -0.0882(8) 0.6601(4)
H20 H -0.0742 -0.0219 0.6880
H21 H -0.1113 -0.1517 0.6472
C18 C -0.0129(5) -0.0235(7) 0.6058(3)
H22 H -0.0845 0.0033 0.5771
H23 H 0.0328 -0.0854 0.5836
C19 C 0.2833(3) 0.2019(3) 0.71419(15)
H24 H 0.2265 0.1314 0.7206
H25 H 0.2504 0.2880 0.7247
C20 C 0.4040(3) 0.1769(4) 0.75561(15)
H26 H 0.4396 0.0956 0.7412
H27 H 0.4576 0.2515 0.7507
C21 C 0.3338(3) 0.8610(3) 1.04052(16)
Cl1? Cl -0.0203(12) 0.4228(16) 0.4406(7)
Cl2? Cl 0.031(3) 0.473(4) 0.4608(19)
C22? C 0.001(3) 0.3688(17) 0.4476(11)
loop_
_geom_bond_atom_site_label_1
_geom_bond_atom_site_label_2
_geom_bond_site_symmetry_1
_geom_bond_site_symmetry_2
N1 C11 1_555 1_555
N2 C1 1_555 1_555
C1 H1 1_555 1_555
C2 H2 1_555 1_555
O1 C6 1_555 1_555
C3 H3 1_555 1_555
O2 C10 1_555 1_555
N3 C21 1_555 1_555
C4 N2 1_555 1_555
C5 H4 1_555 1_555
H5 C5 1_555 1_555
C6 C5 1_555 1_555
H6 C6 1_555 1_555
H7 C6 1_555 1_555
C7 O1 1_555 1_555
H8 C7 1_555 1_555
H9 C7 1_555 1_555
O3 C16 1_555 1_555
N4 H10 1_555 1_555
H11 N4 1_555 1_555
C8 C3 1_555 1_555
H12 C8 1_555 1_555
O4 C9 1_555 1_555
C9 H13 1_555 1_555
H14 C9 1_555 1_555
C10 C9 1_555 1_555
H15 C10 1_555 1_555
H16 C10 1_555 1_555
C11 C12 1_555 1_555
C12 C4 1_555 1_555
C13 C1 1_555 1_555
C14 C2 1_555 1_555
H17 C14 1_555 1_555
C15 C2 1_555 1_555
N5 C5 1_555 1_555
C16 C7 1_555 1_555
H18 C16 1_555 1_555
H19 C16 1_555 1_555
C17 O3 1_555 1_555
H20 C17 1_555 1_555
H21 C17 1_555 1_555
C18 O4 1_555 1_555
H22 C18 1_555 1_555
H23 C18 1_555 1_555
C19 O2 1_555 1_555
H24 C19 1_555 1_555
H25 C19 1_555 1_555
C20 N5 1_555 1_555
H26 C20 1_555 1_555
H27 C20 1_555 1_555
C21 C4 1_555 1_555
C3 C13 1_555 1_555
N4 C12 1_555 1_555
C8 C15 1_555 1_555
C13 C14 1_555 1_555
C15 N5 1_555 1_555
C17 C18 1_555 1_555
C19 C20 1_555 1_555

#END
