
#######################################################################
#
#                 Cambridge Crystallographic Data Centre
#                                CCDC 
#
#######################################################################
#
# If this CIF has been generated from an entry in the Cambridge 
# Structural Database, then it will include bibliographic, chemical, 
# crystal, experimental, refinement or atomic coordinate data resulting 
# from the CCDC's data processing and validation procedures.
#
#######################################################################

data_BIMGIP
_chemical_formula_moiety         'C60,H2 O1'
_chemical_name_systematic        'C60fullerene monohydrate'
_symmetry_cell_setting           cubic
_symmetry_space_group_name_H-M   'P a -3'
_symmetry_Int_Tables_number      205
_space_group_name_Hall           '-P 2ac 2ab 3'
loop_
_symmetry_equiv_pos_site_id
_symmetry_equiv_pos_as_xyz
1 x,y,z
2 1/2-x,-y,1/2+z
3 1/2+x,1/2-y,-z
4 -x,1/2+y,1/2-z
5 y,z,x
6 1/2-y,-z,1/2+x
7 1/2+y,1/2-z,-x
8 -y,1/2+z,1/2-x
9 z,x,y
10 -z,1/2+x,1/2-y
11 1/2-z,-x,1/2+y
12 1/2+z,1/2-x,-y
13 -x,-y,-z
14 1/2+x,y,1/2-z
15 1/2-x,1/2+y,z
16 x,1/2-y,1/2+z
17 -y,-z,-x
18 1/2+y,z,1/2-x
19 1/2-y,1/2+z,x
20 y,1/2-z,1/2+x
21 -z,-x,-y
22 z,1/2-x,1/2+y
23 1/2+z,x,1/2-y
24 1/2-z,1/2+x,y
_cell_length_a                   14.06690(10)
_cell_length_b                   14.06690(10)
_cell_length_c                   14.06690(10)
_cell_angle_alpha                90
_cell_angle_beta                 90
_cell_angle_gamma                90
_cell_volume                     2783.53
_exptl_crystal_colour            black
_cell_formula_units_Z            4
loop_
_atom_site_label
_atom_site_type_symbol
_atom_site_fract_x
_atom_site_fract_y
_atom_site_fract_z
O1 O 0.0000 0.0000 0.0000
C1 C 0.228875(11) -0.033247(12) 0.101859(12)
C2 C 0.246372(11) -0.055032(11) 0.006736(12)
C3 C 0.20744(6) 0.06409(5) 0.12963(7)
C4 C 0.206331(11) -0.140764(11) -0.034964(11)
C5 C 0.170582(11) -0.096536(11) 0.159467(12)
C6 C 0.222704(16) 0.113059(13) -0.038288(16)
C7 C 0.243260(11) 0.019579(12) -0.064761(11)
C8 C 0.20430(4) 0.13626(7) 0.06066(4)
C9 C 0.150436(11) -0.201250(11) 0.020108(12)
C10 C 0.132234(11) -0.178707(11) 0.119402(12)
C1D C -0.033247(12) 0.101859(12) 0.228875(11)
C2D C -0.055032(11) 0.006736(12) 0.246372(11)
C3D C 0.06409(5) 0.12963(7) 0.20744(6)
C4D C -0.140764(11) -0.034964(11) 0.206331(11)
C5D C -0.096536(11) 0.159467(12) 0.170582(11)
C6D C 0.113059(13) -0.038288(16) 0.222704(16)
C7D C 0.019579(12) -0.064761(11) 0.243260(11)
C8D C 0.13626(7) 0.06066(4) 0.20430(4)
C9D C -0.201250(11) 0.020108(12) 0.150436(11)
C10D C -0.178707(11) 0.119402(12) 0.132234(11)
C1H C 0.101859(12) 0.228875(11) -0.033247(12)
C2H C 0.006736(12) 0.246372(11) -0.055032(11)
C3H C 0.12963(7) 0.20744(6) 0.06409(5)
C4H C -0.034964(11) 0.206331(11) -0.140764(11)
C5H C 0.159467(12) 0.170582(11) -0.096536(11)
C6H C -0.038288(16) 0.222704(16) 0.113059(13)
C7H C -0.064761(11) 0.243260(11) 0.019579(12)
C8H C 0.06066(4) 0.20430(4) 0.13626(7)
C9H C 0.020108(12) 0.150436(11) -0.201250(11)
C10H C 0.119402(12) 0.132234(11) -0.178707(11)
C1P C 0.033247(12) -0.101859(12) -0.228875(11)
C2P C 0.055032(11) -0.006736(12) -0.246372(11)
C3P C -0.06409(5) -0.12963(7) -0.20744(6)
C4P C 0.140764(11) 0.034964(11) -0.206331(11)
C5P C 0.096536(11) -0.159467(12) -0.170582(11)
C6P C -0.113059(13) 0.038288(16) -0.222704(16)
C7P C -0.019579(12) 0.064761(11) -0.243260(11)
C8P C -0.13626(7) -0.06066(4) -0.20430(4)
C9P C 0.201250(11) -0.020108(12) -0.150436(11)
C10P C 0.178707(11) -0.119402(12) -0.132234(11)
C1T C -0.101859(12) -0.228875(11) 0.033247(12)
C2T C -0.006736(12) -0.246372(11) 0.055032(11)
C3T C -0.12963(7) -0.20744(6) -0.06409(5)
C4T C 0.034964(11) -0.206331(11) 0.140764(11)
C5T C -0.159467(12) -0.170582(11) 0.096536(11)
C6T C 0.038288(16) -0.222704(16) -0.113059(13)
C7T C 0.064761(11) -0.243260(11) -0.019579(12)
C8T C -0.06066(4) -0.20430(4) -0.13626(7)
C9T C -0.020108(12) -0.150436(11) 0.201250(11)
C10T C -0.119402(12) -0.132234(11) 0.178707(11)
C1L C -0.228875(11) 0.033247(12) -0.101859(12)
C2L C -0.246372(11) 0.055032(11) -0.006736(12)
C3L C -0.20744(6) -0.06409(5) -0.12963(7)
C4L C -0.206331(11) 0.140764(11) 0.034964(11)
C5L C -0.170582(11) 0.096536(11) -0.159467(12)
C6L C -0.222704(16) -0.113059(13) 0.038288(16)
C7L C -0.243260(11) -0.019579(12) 0.064761(11)
C8L C -0.20430(4) -0.13626(7) -0.06066(4)
C9L C -0.150436(11) 0.201250(11) -0.020108(12)
C10L C -0.132234(11) 0.178707(11) -0.119402(12)
C11? C 0.10142(6) -0.03329(7) 0.22859(8)
C12? C 0.13162(4) -0.11540(4) 0.18201(4)
C13? C 0.1369(3) 0.05958(17) 0.1999(2)
C14? C 0.06273(4) -0.18797(5) 0.15620(5)
C15? C 0.00136(4) -0.02019(4) 0.25203(4)
C16? C 0.23875(5) -0.02113(4) 0.07921(5)
C17? C 0.20150(4) -0.10914(4) 0.10610(4)
C18? C 0.2058(3) 0.0639(2) 0.1276(3)
C19? C -0.03316(4) -0.17546(4) 0.17795(5)
C20? C -0.06461(4) -0.08979(4) 0.22678(4)
H1? H 0.0606 0.0305 0.0063
H2? H -0.0402 0.0472 -0.0281
loop_
_geom_bond_atom_site_label_1
_geom_bond_atom_site_label_2
_geom_bond_site_symmetry_1
_geom_bond_site_symmetry_2
C1 C2 1_555 1_555
C2 C4 1_555 1_555
C3 C1 1_555 1_555
C4 C9 1_555 1_555
C5 C1 1_555 1_555
C6 C7 1_555 1_555
C7 C2 1_555 1_555
C8 C3 1_555 1_555
C9 C10 1_555 1_555
C10 C5 1_555 1_555
C1D C2D 1_555 1_555
C2D C4D 1_555 1_555
C3D C1D 1_555 1_555
C4D C9D 1_555 1_555
C5D C1D 1_555 1_555
C6D C5 1_555 1_555
C7D C2D 1_555 1_555
C8D C3 1_555 1_555
C9D C10D 1_555 1_555
C10D C5D 1_555 1_555
C1H C2H 1_555 1_555
C2H C4H 1_555 1_555
C3H C8 1_555 1_555
C4H C9H 1_555 1_555
C5H C6 1_555 1_555
C6H C5D 1_555 1_555
C7H C2H 1_555 1_555
C8H C3D 1_555 1_555
C9H C10H 1_555 1_555
C10H C5H 1_555 1_555
C1P C2P 1_555 1_555
C2P C4P 1_555 1_555
C3P C1P 1_555 1_555
C4P C10H 1_555 1_555
C5P C1P 1_555 1_555
C6P C7P 1_555 1_555
C7P C9H 1_555 1_555
C8P C3P 1_555 1_555
C9P C7 1_555 1_555
C10P C4 1_555 1_555
C1T C2T 1_555 1_555
C2T C4T 1_555 1_555
C3T C1T 1_555 1_555
C4T C10 1_555 1_555
C5T C1T 1_555 1_555
C6T C5P 1_555 1_555
C7T C9 1_555 1_555
C8T C3P 1_555 1_555
C9T C7D 1_555 1_555
C10T C4D 1_555 1_555
C1L C2L 1_555 1_555
C2L C4L 1_555 1_555
C3L C8P 1_555 1_555
C4L C10D 1_555 1_555
C5L C6P 1_555 1_555
C6L C5T 1_555 1_555
C7L C9D 1_555 1_555
C8L C3T 1_555 1_555
C9L C7H 1_555 1_555
C10L C4H 1_555 1_555
C6 C8 1_555 1_555
C3D C8D 1_555 1_555
C6D C7D 1_555 1_555
C6D C8D 1_555 1_555
C1H C3H 1_555 1_555
C1H C5H 1_555 1_555
C3H C8H 1_555 1_555
C6H C7H 1_555 1_555
C6H C8H 1_555 1_555
C2P C7P 1_555 1_555
C4P C9P 1_555 1_555
C5P C10P 1_555 1_555
C6P C8P 1_555 1_555
C9P C10P 1_555 1_555
C2T C7T 1_555 1_555
C3T C8T 1_555 1_555
C4T C9T 1_555 1_555
C5T C10T 1_555 1_555
C6T C7T 1_555 1_555
C6T C8T 1_555 1_555
C9T C10T 1_555 1_555
C1L C3L 1_555 1_555
C1L C5L 1_555 1_555
C2L C7L 1_555 1_555
C3L C8L 1_555 1_555
C4L C9L 1_555 1_555
C5L C10L 1_555 1_555
C6L C7L 1_555 1_555
C6L C8L 1_555 1_555
C9L C10L 1_555 1_555

#END
