
#######################################################################
#
#                 Cambridge Crystallographic Data Centre
#                                CCDC 
#
#######################################################################
#
# If this CIF has been generated from an entry in the Cambridge 
# Structural Database, then it will include bibliographic, chemical, 
# crystal, experimental, refinement or atomic coordinate data resulting 
# from the CCDC's data processing and validation procedures.
#
#######################################################################

data_BIMLOZ
_chemical_name_common            
"beta-bis((4,5-Ethylenedithio)-4',5'-(butylene-2,3-dithio)tetrathiofulvalene) hexafluorophosphate"
_chemical_formula_moiety         'C12 H12 S8 1+,C12 H12 S8,F6 P1 1-'
_chemical_name_systematic        
'\b-bis(meso-2-(5,6-dihydro-1,3-dithiolo(4,5-b)(1,4)dithiin-2-ylidene)-5,6-dihydro-5,6-dimethyl-1,3-dithiolo(4,5-b)(1,4)dithiin) hexafluorophosphate'
_symmetry_cell_setting           triclinic
_symmetry_space_group_name_H-M   'P -1'
_symmetry_Int_Tables_number      2
_space_group_name_Hall           '-P 1'
loop_
_symmetry_equiv_pos_site_id
_symmetry_equiv_pos_as_xyz
1 x,y,z
2 -x,-y,-z
_cell_length_a                   9.115(8)
_cell_length_b                   15.649(8)
_cell_length_c                   6.737(3)
_cell_angle_alpha                90.84(5)
_cell_angle_beta                 109.37(5)
_cell_angle_gamma                88.87(6)
_cell_volume                     906.366
_exptl_crystal_colour            black
_exptl_crystal_description       plate
_cell_formula_units_Z            1
loop_
_atom_site_label
_atom_site_type_symbol
_atom_site_fract_x
_atom_site_fract_y
_atom_site_fract_z
P1 P 1.0000 1.0000 0.0000
F1 F 1.081(2) 0.913(1) 0.068(3)
F2 F 0.928(2) 0.997(1) 0.180(2)
F3 F 0.855(2) 0.954(1) -0.151(3)
F1A F 0.919(2) 1.087(1) -0.068(3)
F2A F 1.072(2) 1.003(1) -0.180(2)
F3A F 1.145(2) 1.046(1) 0.151(3)
S1 S 1.0724(6) 0.2825(3) 0.2834(7)
S2 S 0.9206(6) 0.3008(3) 0.6990(6)
S3 S 0.8760(5) 0.4343(2) 0.1204(6)
S4 S 0.7557(5) 0.4507(2) 0.4720(6)
S5 S 0.6702(5) 0.5951(2) -0.1055(6)
S6 S 0.5423(5) 0.6136(2) 0.2397(6)
S7 S 0.5219(5) 0.7506(2) -0.3268(6)
S8 S 0.3613(5) 0.7703(3) 0.0769(7)
C1 C 1.075(2) 0.204(1) 0.478(3)
C2 C 1.084(2) 0.239(1) 0.686(3)
C3 C 0.943(2) 0.3588(9) 0.319(2)
C4 C 0.885(2) 0.3676(9) 0.483(2)
C5 C 0.751(2) 0.4884(9) 0.226(2)
C6 C 0.665(2) 0.5564(9) 0.134(2)
C7 C 0.549(2) 0.6840(7) -0.114(2)
C8 C 0.488(2) 0.6899(9) 0.044(2)
C9 C 0.380(2) 0.8300(9) -0.296(2)
C10 C 0.412(2) 0.8574(9) -0.066(2)
C11 C 0.385(3) 0.904(1) -0.432(3)
C12 C 0.574(2) 0.891(1) 0.054(3)
H1 H 0.9877 0.1706 0.4271
H2 H 1.1678 0.1673 0.4940
H3 H 1.1780 0.2754 0.7351
H4 H 1.1055 0.1929 0.7843
H5 H 0.2786 0.8069 -0.3527
H6 H 0.3380 0.9035 -0.0696
H7 H 0.3957 0.9560 -0.3564
H8 H 0.4766 0.8971 -0.4772
H9 H 0.2967 0.9060 -0.5545
H10 H 0.5913 0.8950 0.2002
H11 H 0.6518 0.8560 0.0284
H12 H 0.5848 0.9486 0.0054
loop_
_geom_bond_atom_site_label_1
_geom_bond_atom_site_label_2
_geom_bond_site_symmetry_1
_geom_bond_site_symmetry_2
S1 C1 1_555 1_555
S2 C2 1_555 1_555
S3 C3 1_555 1_555
S4 C4 1_555 1_555
S5 C6 1_555 1_555
S6 C6 1_555 1_555
S7 C7 1_555 1_555
S8 C8 1_555 1_555
P1 F1 1_555 1_555
F2 P1 1_555 1_555
F3 P1 1_555 1_555
C1 C2 1_555 1_555
C2 H3 1_555 1_555
C3 S1 1_555 1_555
C4 S2 1_555 1_555
C5 S3 1_555 1_555
C6 C5 1_555 1_555
C7 S5 1_555 1_555
C8 S6 1_555 1_555
C9 S7 1_555 1_555
C10 S8 1_555 1_555
C11 C9 1_555 1_555
C12 C10 1_555 1_555
H1 C1 1_555 1_555
H2 C1 1_555 1_555
H4 C2 1_555 1_555
H5 C9 1_555 1_555
H6 C10 1_555 1_555
H7 C11 1_555 1_555
H8 C11 1_555 1_555
H9 C11 1_555 1_555
H10 C12 1_555 1_555
H11 C12 1_555 1_555
H12 C12 1_555 1_555
F1A P1 1_555 1_555
F2A P1 1_555 1_555
F3A P1 1_555 1_555
S4 C5 1_555 1_555
C3 C4 1_555 1_555
C7 C8 1_555 1_555
C9 C10 1_555 1_555

#END
