
#######################################################################
#
#                 Cambridge Crystallographic Data Centre
#                                CCDC 
#
#######################################################################
#
# If this CIF has been generated from an entry in the Cambridge 
# Structural Database, then it will include bibliographic, chemical, 
# crystal, experimental, refinement or atomic coordinate data resulting 
# from the CCDC's data processing and validation procedures.
#
#######################################################################

data_BIMPIZ
_chemical_formula_moiety         'C27 H25 N1 O1'
_chemical_name_systematic        
3,4-dimethyl-5-phenyl-7-(2-phenylethenyl)-4,5-dihydro-1,2-benzoxazonine
_symmetry_cell_setting           monoclinic
_symmetry_space_group_name_H-M   'P 21/c'
_symmetry_Int_Tables_number      14
_space_group_name_Hall           '-P 2ybc'
loop_
_symmetry_equiv_pos_site_id
_symmetry_equiv_pos_as_xyz
1 x,y,z
2 -x,1/2+y,1/2-z
3 -x,-y,-z
4 x,1/2-y,1/2+z
_cell_length_a                   12.926(2)
_cell_length_b                   14.446(2)
_cell_length_c                   11.4732(19)
_cell_angle_alpha                90
_cell_angle_beta                 94.918(3)
_cell_angle_gamma                90
_cell_volume                     2134.49
_exptl_crystal_colour            colorless
_exptl_crystal_description       irregular
_cell_formula_units_Z            4
loop_
_atom_site_label
_atom_site_type_symbol
_atom_site_fract_x
_atom_site_fract_y
_atom_site_fract_z
O1 O 0.08716(7) 0.13341(6) 0.25021(8)
N1 N 0.03627(9) 0.18741(8) 0.33578(10)
C1 C 0.30522(10) 0.14292(9) 0.23523(11)
H1 H 0.3513 0.1765 0.1938
C2 C 0.19427(10) 0.00406(9) 0.24418(11)
C3 C 0.38074(10) 0.20411(9) 0.42405(11)
C4 C 0.27874(10) -0.04735(9) -0.11967(11)
C5 C 0.30054(10) 0.03667(9) 0.07160(11)
H2 H 0.3602 0.0642 0.0477
C6 C 0.27949(10) 0.18334(9) 0.35072(11)
H3 H 0.2430 0.1354 0.3917
C7 C 0.26882(9) 0.06382(9) 0.18589(11)
C8 C 0.10444(10) 0.04231(9) 0.28320(11)
C9 C 0.20655(10) 0.27163(9) 0.33967(12)
H4 H 0.2365 0.3155 0.3984
C10 C 0.21405(11) -0.08947(10) 0.26810(13)
H5 H 0.2720 -0.1174 0.2405
C11 C 0.25180(10) -0.02412(9) -0.00175(11)
H6 H 0.1951 -0.0548 0.0247
C12 C 0.09669(11) 0.25441(9) 0.37053(12)
C13 C 0.14894(13) -0.14105(11) 0.33214(14)
H7 H 0.1632 -0.2032 0.3476
C14 C 0.44349(11) 0.27833(10) 0.39945(14)
H8 H 0.4242 0.3163 0.3358
C15 C 0.20566(12) -0.09176(10) -0.19692(13)
H9 H 0.1410 -0.1065 -0.1723
C16 C 0.41333(11) 0.14763(10) 0.51702(13)
H10 H 0.3738 0.0963 0.5336
C17 C 0.37582(12) -0.02833(10) -0.15877(13)
H11 H 0.4264 0.0005 -0.1088
C18 C 0.03901(11) -0.00841(10) 0.34795(13)
H12 H -0.0200 0.0187 0.3742
C19 C 0.20494(12) 0.32236(11) 0.22264(14)
H13 H 0.2743 0.3405 0.2088
H14 H 0.1619 0.3764 0.2246
H15 H 0.1776 0.2821 0.1610
C20 C 0.56417(12) 0.24155(11) 0.56275(15)
H16 H 0.6242 0.2551 0.6102
C21 C 0.53452(12) 0.29652(11) 0.46847(15)
H17 H 0.5758 0.3464 0.4506
C22 C 0.39787(14) -0.05175(11) -0.27070(15)
H18 H 0.4629 -0.0388 -0.2956
C23 C 0.50502(12) 0.16666(12) 0.58655(15)
H19 H 0.5258 0.1282 0.6492
C24 C 0.06250(13) -0.09997(11) 0.37311(14)
H20 H 0.0198 -0.1343 0.4180
C25 C 0.04856(13) 0.32445(11) 0.44619(15)
H21 H 0.0463 0.3836 0.4079
H22 H 0.0893 0.3291 0.5199
H23 H -0.0207 0.3054 0.4591
C26 C 0.32268(17) -0.09469(13) -0.34601(15)
H24 H 0.3372 -0.1101 -0.4216
C27 C 0.22731(16) -0.11421(12) -0.30891(15)
H25 H 0.1770 -0.1427 -0.3594
loop_
_geom_bond_atom_site_label_1
_geom_bond_atom_site_label_2
_geom_bond_site_symmetry_1
_geom_bond_site_symmetry_2
O1 N1 1_555 1_555
N1 C12 1_555 1_555
C1 H1 1_555 1_555
C2 C7 1_555 1_555
C3 C6 1_555 1_555
C4 C11 1_555 1_555
C5 H2 1_555 1_555
C6 C1 1_555 1_555
H3 C6 1_555 1_555
C7 C1 1_555 1_555
C8 O1 1_555 1_555
C9 C6 1_555 1_555
H4 C9 1_555 1_555
C10 C2 1_555 1_555
H5 C10 1_555 1_555
C11 C5 1_555 1_555
H6 C11 1_555 1_555
C12 C9 1_555 1_555
C13 C10 1_555 1_555
H7 C13 1_555 1_555
C14 C3 1_555 1_555
H8 C14 1_555 1_555
C15 C4 1_555 1_555
H9 C15 1_555 1_555
C16 C3 1_555 1_555
H10 C16 1_555 1_555
C17 C4 1_555 1_555
H11 C17 1_555 1_555
C18 C8 1_555 1_555
H12 C18 1_555 1_555
C19 C9 1_555 1_555
H13 C19 1_555 1_555
H14 C19 1_555 1_555
H15 C19 1_555 1_555
C20 H16 1_555 1_555
C21 C14 1_555 1_555
H17 C21 1_555 1_555
C22 C17 1_555 1_555
H18 C22 1_555 1_555
C23 C16 1_555 1_555
H19 C23 1_555 1_555
C24 C13 1_555 1_555
H20 C24 1_555 1_555
C25 C12 1_555 1_555
H21 C25 1_555 1_555
H22 C25 1_555 1_555
H23 C25 1_555 1_555
C26 C22 1_555 1_555
H24 C26 1_555 1_555
C27 C15 1_555 1_555
H25 C27 1_555 1_555
C2 C8 1_555 1_555
C5 C7 1_555 1_555
C18 C24 1_555 1_555
C20 C21 1_555 1_555
C20 C23 1_555 1_555
C26 C27 1_555 1_555

#END
