
#######################################################################
#
#                 Cambridge Crystallographic Data Centre
#                                CCDC 
#
#######################################################################
#
# If this CIF has been generated from an entry in the Cambridge 
# Structural Database, then it will include bibliographic, chemical, 
# crystal, experimental, refinement or atomic coordinate data resulting 
# from the CCDC's data processing and validation procedures.
#
#######################################################################

data_BIMYOM
_chemical_formula_moiety         'C23 H22 N2 O6'
_chemical_name_systematic        
'erthyro-Methyl 3-hydroxy-2-(2-methoxyphenylamino)-3-(2-nitrophenyl)-2-phenylpropanoate'
_symmetry_cell_setting           orthorhombic
_symmetry_space_group_name_H-M   'P b c a'
_symmetry_Int_Tables_number      61
_space_group_name_Hall           '-P 2ac 2ab'
loop_
_symmetry_equiv_pos_site_id
_symmetry_equiv_pos_as_xyz
1 x,y,z
2 1/2+x,y,1/2-z
3 x,1/2-y,1/2+z
4 1/2-x,1/2+y,z
5 -x,-y,-z
6 1/2-x,-y,1/2+z
7 -x,1/2+y,1/2-z
8 1/2+x,1/2-y,-z
_cell_length_a                   9.919(2)
_cell_length_b                   16.766(4)
_cell_length_c                   25.021(5)
_cell_angle_alpha                90
_cell_angle_beta                 90
_cell_angle_gamma                90
_cell_volume                     4161.04
_chemical_melting_point          138.8-139.2deg.C
_cell_formula_units_Z            8
loop_
_atom_site_label
_atom_site_type_symbol
_atom_site_fract_x
_atom_site_fract_y
_atom_site_fract_z
O1 O 0.3241(2) 0.84198(11) 0.44856(8)
O2 O 0.48680(18) 0.81338(10) 0.29449(7)
O3 O 0.66633(19) 0.73399(11) 0.28927(8)
O4 O 0.38303(18) 0.64378(11) 0.25676(7)
H1 H 0.3335 0.6593 0.2327
O5 O 0.1431(2) 0.77378(12) 0.36164(9)
O6 O -0.0588(2) 0.73285(14) 0.35050(10)
N1 N 0.4261(2) 0.73221(13) 0.38858(9)
N2 N 0.0616(3) 0.72023(16) 0.35469(10)
C1 C 0.4591(3) 0.83105(16) 0.45614(11)
C2 C 0.5382(4) 0.87102(18) 0.49283(12)
H2 H 0.5000 0.9090 0.5153
C3 C 0.6740(4) 0.8544(2) 0.49600(13)
H3 H 0.7267 0.8795 0.5217
C4 C 0.7316(3) 0.80099(18) 0.46139(12)
H4 H 0.8240 0.7918 0.4627
C5 C 0.6523(3) 0.76037(15) 0.42424(11)
H5 H 0.6924 0.7241 0.4011
C6 C 0.5150(3) 0.77347(15) 0.42149(10)
C7 C 0.4669(2) 0.69050(14) 0.34046(10)
C8 C 0.5398(2) 0.61221(15) 0.35297(11)
C9 C 0.6087(3) 0.57019(16) 0.31384(12)
H6 H 0.6160 0.5914 0.2796
C10 C 0.6667(3) 0.49712(17) 0.32506(14)
H7 H 0.7143 0.4703 0.2986
C11 C 0.6546(3) 0.46378(18) 0.37491(16)
H8 H 0.6921 0.4141 0.3820
C12 C 0.5871(3) 0.50425(17) 0.41408(13)
H9 H 0.5800 0.4824 0.4481
C13 C 0.5286(3) 0.57830(16) 0.40324(11)
H10 H 0.4818 0.6050 0.4300
C14 C 0.3376(2) 0.67517(15) 0.30624(10)
H11 H 0.2922 0.7262 0.2997
C15 C 0.2364(3) 0.61677(15) 0.33102(10)
C16 C 0.2648(3) 0.53526(16) 0.32884(11)
H12 H 0.3466 0.5185 0.3145
C17 C 0.1746(3) 0.47866(18) 0.34735(13)
H13 H 0.1982 0.4250 0.3465
C18 C 0.0514(4) 0.5004(2) 0.36689(13)
H14 H -0.0079 0.4618 0.3796
C19 C 0.0153(3) 0.5799(2) 0.36776(11)
H15 H -0.0700 0.5954 0.3793
C20 C 0.1090(3) 0.63640(17) 0.35106(10)
C21 C 0.2568(3) 0.89896(18) 0.48105(13)
H16 H 0.2728 0.8870 0.5180
H17 H 0.1617 0.8970 0.4740
H18 H 0.2904 0.9513 0.4731
C22 C 0.5537(3) 0.74592(15) 0.30504(11)
C23 C 0.5521(3) 0.86863(15) 0.25846(12)
H19 H 0.6474 0.8686 0.2650
H20 H 0.5169 0.9213 0.2642
H21 H 0.5352 0.8528 0.2222
H22 H 0.349(2) 0.7584(12) 0.3872(9)
loop_
_geom_bond_atom_site_label_1
_geom_bond_atom_site_label_2
_geom_bond_site_symmetry_1
_geom_bond_site_symmetry_2
O1 C1 1_555 1_555
O2 C22 1_555 1_555
O3 C22 1_555 1_555
O4 H1 1_555 1_555
O5 N2 1_555 1_555
O6 N2 1_555 1_555
N1 C6 1_555 1_555
N2 C20 1_555 1_555
C1 C2 1_555 1_555
C2 H2 1_555 1_555
C3 C2 1_555 1_555
H3 C3 1_555 1_555
C4 C3 1_555 1_555
H4 C4 1_555 1_555
C5 C4 1_555 1_555
H5 C5 1_555 1_555
C6 C1 1_555 1_555
C7 N1 1_555 1_555
C8 C7 1_555 1_555
C9 C8 1_555 1_555
H6 C9 1_555 1_555
C10 C9 1_555 1_555
H7 C10 1_555 1_555
C11 C10 1_555 1_555
H8 C11 1_555 1_555
C12 C11 1_555 1_555
H9 C12 1_555 1_555
C13 C8 1_555 1_555
H10 C13 1_555 1_555
C14 O4 1_555 1_555
H11 C14 1_555 1_555
C15 C14 1_555 1_555
C16 C15 1_555 1_555
H12 C16 1_555 1_555
C17 C16 1_555 1_555
H13 C17 1_555 1_555
C18 C17 1_555 1_555
H14 C18 1_555 1_555
C19 C18 1_555 1_555
H15 C19 1_555 1_555
C20 C15 1_555 1_555
C21 O1 1_555 1_555
H16 C21 1_555 1_555
H17 C21 1_555 1_555
H18 C21 1_555 1_555
C22 C7 1_555 1_555
C23 O2 1_555 1_555
H19 C23 1_555 1_555
H20 C23 1_555 1_555
H21 C23 1_555 1_555
H22 N1 1_555 1_555
C5 C6 1_555 1_555
C7 C14 1_555 1_555
C12 C13 1_555 1_555
C19 C20 1_555 1_555

#END
