
#######################################################################
#
#                 Cambridge Crystallographic Data Centre
#                                CCDC 
#
#######################################################################
#
# If this CIF has been generated from an entry in the Cambridge 
# Structural Database, then it will include bibliographic, chemical, 
# crystal, experimental, refinement or atomic coordinate data resulting 
# from the CCDC's data processing and validation procedures.
#
#######################################################################

data_BINFEM
_chemical_formula_moiety         'C23 H14 F2 N1 O1 1+,B1 F4 1-'
_chemical_name_systematic        
'2,4-bis(4-fluorophenyl)pyrano[2,3,4-ij]quinolizin-7-ium tetrafluoroborate'
_symmetry_cell_setting           monoclinic
_symmetry_space_group_name_H-M   'P 21/c'
_symmetry_Int_Tables_number      14
_space_group_name_Hall           '-P 2ybc'
loop_
_symmetry_equiv_pos_site_id
_symmetry_equiv_pos_as_xyz
1 x,y,z
2 -x,1/2+y,1/2-z
3 -x,-y,-z
4 x,1/2-y,1/2+z
_cell_length_a                   7.8432(5)
_cell_length_b                   11.2736(7)
_cell_length_c                   22.3312(15)
_cell_angle_alpha                90
_cell_angle_beta                 91.254(6)
_cell_angle_gamma                90
_cell_volume                     1974.08
_exptl_crystal_colour            red
_exptl_crystal_description       plate
_cell_formula_units_Z            4
loop_
_atom_site_label
_atom_site_type_symbol
_atom_site_fract_x
_atom_site_fract_y
_atom_site_fract_z
O1 O 0.2124(2) 1.03709(14) 0.63936(7)
F1 F 0.9297(2) 1.12099(16) 0.53523(9)
N1 N -0.1509(3) 0.8681(2) 0.68930(9)
F2 F 0.3169(4) 0.3209(2) 0.49982(12)
C1 C 0.3112(3) 0.9495(2) 0.61529(9)
C2 C 0.0650(3) 1.0081(2) 0.66686(10)
C3 C 0.0017(3) 0.8920(2) 0.66295(10)
C4 C 0.0912(3) 0.8022(2) 0.63226(10)
C5 C 0.4738(3) 0.9953(2) 0.59450(9)
C6 C 0.0192(3) 0.6903(2) 0.62582(11)
C7 C 0.2555(3) 0.8380(2) 0.61162(10)
H1 H 0.3260 0.7810 0.5950
C8 C 0.7784(3) 1.0790(2) 0.55414(11)
C9 C 0.7362(3) 0.9639(2) 0.54281(11)
H2 H 0.8092 0.9148 0.5218
C10 C 0.6741(3) 1.1552(2) 0.58424(12)
H3 H 0.7053 1.2338 0.5906
C11 C 0.5215(3) 1.1119(2) 0.60473(11)
H4 H 0.4496 1.1618 0.6257
C12 C 0.5836(3) 0.9219(2) 0.56305(11)
H5 H 0.5530 0.8434 0.5557
C13 C 0.1014(3) 0.5929(2) 0.59259(11)
C14 C 0.1707(4) 0.6114(2) 0.53655(12)
H6 H 0.1672 0.6870 0.5199
C15 C -0.1375(3) 0.6710(3) 0.65398(12)
H7 H -0.1870 0.5962 0.6512
C16 C -0.0213(3) 1.0953(2) 0.69582(11)
H8 H 0.0213 1.1722 0.6978
C17 C -0.2182(3) 0.7557(3) 0.68456(12)
H9 H -0.3208 0.7383 0.7028
C18 C -0.1741(4) 1.0662(3) 0.72217(12)
H10 H -0.2340 1.1244 0.7424
C19 C -0.2372(3) 0.9556(3) 0.71903(11)
H11 H -0.3400 0.9381 0.7371
C20 C 0.2440(4) 0.5210(3) 0.50526(14)
H12 H 0.2906 0.5343 0.4679
C21 C 0.1040(4) 0.4791(3) 0.61578(13)
H13 H 0.0556 0.4643 0.6527
C22 C 0.2467(5) 0.4104(3) 0.53068(17)
C23 C 0.1777(5) 0.3875(3) 0.58473(17)
H14 H 0.1802 0.3112 0.6005
F3 F 0.3714(3) 0.99255(16) 0.76268(9)
F4 F 0.1734(3) 0.85618(19) 0.78378(10)
F5 F 0.4482(3) 0.80253(17) 0.77603(12)
F6 F 0.3601(4) 0.9108(2) 0.85335(9)
B1 B 0.3403(4) 0.8904(3) 0.79312(14)
loop_
_geom_bond_atom_site_label_1
_geom_bond_atom_site_label_2
_geom_bond_site_symmetry_1
_geom_bond_site_symmetry_2
O1 C1 1_555 1_555
F1 C8 1_555 1_555
N1 C3 1_555 1_555
F2 C22 1_555 1_555
C1 C5 1_555 1_555
C2 O1 1_555 1_555
C3 C2 1_555 1_555
C4 C3 1_555 1_555
C5 C11 1_555 1_555
C6 C4 1_555 1_555
C7 C1 1_555 1_555
H1 C7 1_555 1_555
C8 C9 1_555 1_555
C9 H2 1_555 1_555
C10 C8 1_555 1_555
H3 C10 1_555 1_555
C11 C10 1_555 1_555
H4 C11 1_555 1_555
C12 C5 1_555 1_555
H5 C12 1_555 1_555
C13 C6 1_555 1_555
C14 C13 1_555 1_555
H6 C14 1_555 1_555
C15 C6 1_555 1_555
H7 C15 1_555 1_555
C16 C2 1_555 1_555
H8 C16 1_555 1_555
C17 N1 1_555 1_555
H9 C17 1_555 1_555
C18 C16 1_555 1_555
H10 C18 1_555 1_555
C19 N1 1_555 1_555
H11 C19 1_555 1_555
C20 C14 1_555 1_555
H12 C20 1_555 1_555
C21 C13 1_555 1_555
H13 C21 1_555 1_555
C22 C20 1_555 1_555
C23 C21 1_555 1_555
H14 C23 1_555 1_555
F3 B1 1_555 1_555
F4 B1 1_555 1_555
F5 B1 1_555 1_555
F6 B1 1_555 1_555
C4 C7 1_555 1_555
C9 C12 1_555 1_555
C15 C17 1_555 1_555
C18 C19 1_555 1_555
C22 C23 1_555 1_555

#END
