
#######################################################################
#
#                 Cambridge Crystallographic Data Centre
#                                CCDC 
#
#######################################################################
#
# If this CIF has been generated from an entry in the Cambridge 
# Structural Database, then it will include bibliographic, chemical, 
# crystal, experimental, refinement or atomic coordinate data resulting 
# from the CCDC's data processing and validation procedures.
#
#######################################################################

data_BINFOV
_chemical_formula_moiety         'C8 H6 N3 O2 1-,K1 1+'
_chemical_name_systematic        
'potassium 5-amino-1,4-dioxo-3,4-dihydro-1H-phthalazin-2-ide'
_symmetry_cell_setting           orthorhombic
_symmetry_space_group_name_H-M   'P c a 21'
_symmetry_Int_Tables_number      29
_space_group_name_Hall           'P 2c -2ac'
loop_
_symmetry_equiv_pos_site_id
_symmetry_equiv_pos_as_xyz
1 x,y,z
2 -x,-y,1/2+z
3 1/2+x,-y,z
4 1/2-x,y,1/2+z
_cell_length_a                   7.263(3)
_cell_length_b                   8.652(4)
_cell_length_c                   27.156(14)
_cell_angle_alpha                90
_cell_angle_beta                 90
_cell_angle_gamma                90
_cell_volume                     1706.47
_exptl_crystal_colour            colorless
_exptl_crystal_description       needle
_cell_formula_units_Z            8
loop_
_atom_site_label
_atom_site_type_symbol
_atom_site_fract_x
_atom_site_fract_y
_atom_site_fract_z
K1 K 0.66224(7) 0.50420(6) -0.03180(3)
K2 K 1.12340(7) 1.00502(6) 0.07251(3)
O1 O 0.8594(3) 0.1746(2) 0.12103(8)
O2 O 0.8836(3) 0.7744(2) 0.07100(9)
N1 N 0.9070(3) 0.5223(3) 0.05138(10)
N2 N 0.8974(3) 0.3713(3) 0.06814(12)
H1 H 0.892(4) 0.300(3) 0.0450(10)
N3 N 0.7860(4) 0.2498(3) 0.21677(10)
H2 H 0.698(3) 0.233(4) 0.2384(9)
H3 H 0.788(5) 0.189(3) 0.1909(7)
C1 C 0.8636(3) 0.3189(3) 0.11326(11)
C2 C 0.8324(4) 0.4374(3) 0.15055(10)
C3 C 0.7867(4) 0.3992(3) 0.20014(10)
C4 C 0.7492(4) 0.5195(3) 0.23244(11)
H4 H 0.7173 0.4960 0.2655
C5 C 0.7572(5) 0.6739(3) 0.21770(12)
H5 H 0.7302 0.7536 0.2407
C6 C 0.8041(4) 0.7114(3) 0.16985(11)
H6 H 0.8116 0.8165 0.1599
C7 C 0.8402(4) 0.5926(3) 0.13625(10)
C8 C 0.8798(4) 0.6322(3) 0.08427(10)
O3 O 0.9243(3) -0.3243(2) -0.08027(8)
O4 O 0.9051(3) 0.2745(2) -0.02856(9)
N4 N 0.8820(3) 0.0229(3) -0.00938(11)
N5 N 0.8903(3) -0.1292(3) -0.02631(10)
H7 H 0.889(4) -0.200(3) -0.0030(10)
N6 N 0.9846(4) -0.2473(3) -0.17616(9)
H8 H 1.038(4) -0.258(4) -0.2050(6)
H9 H 0.985(5) -0.319(3) -0.1533(9)
C9 C 0.9197(4) -0.1804(3) -0.07232(11)
C10 C 0.9445(4) -0.0617(3) -0.10944(10)
C11 C 0.9812(4) -0.0978(3) -0.15983(10)
C12 C 1.0100(4) 0.0228(3) -0.19279(11)
H10 H 1.0358 0.0005 -0.2263
C13 C 1.0014(4) 0.1767(3) -0.17702(11)
H11 H 1.0208 0.2574 -0.2002
C14 C 0.9653(4) 0.2133(3) -0.12857(11)
H12 H 0.9593 0.3183 -0.1184
C15 C 0.9376(4) 0.0946(3) -0.09473(10)
C16 C 0.9057(4) 0.1326(3) -0.04227(11)
O5? O 0.866(5) 0.226(3) 0.0718(11)
O6? O 0.851(5) 0.823(3) 0.1251(16)
N7? N 0.893(5) 0.638(3) 0.0680(13)
H13? H 0.9170 0.7065 0.0450
N8? N 0.893(5) 0.481(3) 0.0581(11)
N9? N 0.781(5) 0.136(3) 0.1656(13)
H14? H 0.6901 0.0843 0.1807
H15? H 0.7888 0.1240 0.1343
C17? C 0.860(4) 0.363(3) 0.0883(10)
C18? C 0.818(3) 0.405(3) 0.1391(10)
C19? C 0.772(4) 0.292(3) 0.1752(11)
C20? C 0.724(6) 0.343(3) 0.2219(11)
H16? H 0.6919 0.2690 0.2463
C21? C 0.723(6) 0.500(4) 0.2341(12)
H17? H 0.6890 0.5309 0.2664
C22? C 0.770(5) 0.609(3) 0.1994(12)
H18? H 0.7707 0.7160 0.2077
C23? C 0.816(3) 0.562(3) 0.1517(12)
C24? C 0.857(4) 0.680(3) 0.1137(13)
O7? O 0.890(5) -0.280(3) -0.0254(11)
O8? O 0.921(5) 0.313(3) -0.0831(16)
N10? N 0.871(5) 0.134(3) -0.0249(13)
N11? N 0.867(4) -0.023(3) -0.0134(11)
H19? H 0.8563 -0.0438 0.0177
N12? N 0.971(5) -0.378(3) -0.1182(12)
H20? H 1.0284 -0.4382 -0.1399
H21? H 0.9628 -0.3996 -0.0878
C25? C 0.898(3) -0.145(3) -0.0430(10)
C26? C 0.939(3) -0.108(3) -0.0939(10)
C27? C 0.980(4) -0.224(3) -0.1297(10)
C28? C 1.024(5) -0.179(3) -0.1773(10)
H22? H 1.0527 -0.2546 -0.2013
C29? C 1.028(6) -0.022(4) -0.1901(11)
H23? H 1.0586 0.0069 -0.2229
C30? C 0.989(5) 0.092(3) -0.1561(12)
H24? H 0.9914 0.1977 -0.1653
C31? C 0.945(3) 0.049(3) -0.1080(11)
C32? C 0.910(4) 0.171(3) -0.0707(13)
loop_
_geom_bond_atom_site_label_1
_geom_bond_atom_site_label_2
_geom_bond_site_symmetry_1
_geom_bond_site_symmetry_2
O1 C1 1_555 1_555
O2 C8 1_555 1_555
N1 N2 1_555 1_555
N2 H1 1_555 1_555
N3 H2 1_555 1_555
H3 N3 1_555 1_555
C1 N2 1_555 1_555
C2 C1 1_555 1_555
C3 N3 1_555 1_555
C4 C3 1_555 1_555
H4 C4 1_555 1_555
C5 C4 1_555 1_555
H5 C5 1_555 1_555
C6 C5 1_555 1_555
H6 C6 1_555 1_555
C7 C2 1_555 1_555
C8 N1 1_555 1_555
O3 C9 1_555 1_555
O4 C16 1_555 1_555
N4 N5 1_555 1_555
N5 H7 1_555 1_555
N6 H8 1_555 1_555
H9 N6 1_555 1_555
C9 N5 1_555 1_555
C10 C9 1_555 1_555
C11 N6 1_555 1_555
C12 C11 1_555 1_555
H10 C12 1_555 1_555
C13 C12 1_555 1_555
H11 C13 1_555 1_555
C14 C13 1_555 1_555
H12 C14 1_555 1_555
C15 C10 1_555 1_555
C16 N4 1_555 1_555
C2 C3 1_555 1_555
C6 C7 1_555 1_555
C7 C8 1_555 1_555
C10 C11 1_555 1_555
C14 C15 1_555 1_555
C15 C16 1_555 1_555

#END
