
#######################################################################
#
#                 Cambridge Crystallographic Data Centre
#                                CCDC 
#
#######################################################################
#
# If this CIF has been generated from an entry in the Cambridge 
# Structural Database, then it will include bibliographic, chemical, 
# crystal, experimental, refinement or atomic coordinate data resulting 
# from the CCDC's data processing and validation procedures.
#
#######################################################################

data_BINFOW
_chemical_formula_moiety         'C23 H15 F1 N1 1+,B1 F4 1-'
_chemical_name_systematic        
'9-fluoro-2-phenyl-1-(phenylethynyl)quinolizin-5-ium tetrafluoroborate'
_symmetry_cell_setting           triclinic
_symmetry_space_group_name_H-M   'P -1'
_symmetry_Int_Tables_number      2
_space_group_name_Hall           '-P 1'
loop_
_symmetry_equiv_pos_site_id
_symmetry_equiv_pos_as_xyz
1 x,y,z
2 -x,-y,-z
_cell_length_a                   7.7078(3)
_cell_length_b                   12.0373(6)
_cell_length_c                   22.0546(11)
_cell_angle_alpha                92.335(4)
_cell_angle_beta                 99.398(4)
_cell_angle_gamma                102.832(4)
_cell_volume                     1962.05
_exptl_crystal_colour            colorless
_exptl_crystal_description       plate
_cell_formula_units_Z            4
loop_
_atom_site_label
_atom_site_type_symbol
_atom_site_fract_x
_atom_site_fract_y
_atom_site_fract_z
F1 F 0.6705(2) 0.46030(12) 0.41036(7)
N1 N 0.5925(2) 0.73242(15) 0.45234(9)
C1 C 0.7296(2) 0.60948(16) 0.51971(9)
C2 C 0.7800(3) 0.50401(17) 0.52972(10)
C3 C 0.6491(3) 0.63169(16) 0.46001(10)
C4 C 0.8853(3) 0.31795(18) 0.56049(11)
C5 C 0.7526(3) 0.68984(17) 0.56949(10)
C6 C 0.8257(3) 0.41829(18) 0.54329(10)
C7 C 0.6184(3) 0.55893(19) 0.40564(11)
C8 C 0.8343(3) 0.67046(18) 0.63238(10)
C9 C 0.6913(3) 0.78995(19) 0.55877(12)
H1 H 0.7040 0.8438 0.5916
C10 C 0.6149(3) 0.80992(19) 0.50238(12)
H2 H 0.5763 0.8773 0.4969
C11 C 0.5129(3) 0.7579(2) 0.39579(12)
H3 H 0.4761 0.8263 0.3925
C12 C 0.8605(3) 0.2259(2) 0.51777(13)
H4 H 0.8053 0.2290 0.4773
C13 C 0.5411(3) 0.5832(2) 0.35005(11)
H5 H 0.5237 0.5324 0.3155
C14 C 0.9983(4) 0.6394(2) 0.64401(13)
H6 H 1.0616 0.6338 0.6120
C15 C 0.9699(3) 0.3122(2) 0.62095(13)
H7 H 0.9869 0.3734 0.6501
C16 C 0.4874(4) 0.6864(2) 0.34555(12)
H8 H 0.4341 0.7053 0.3076
C17 C 0.7450(4) 0.6828(2) 0.68106(12)
H9 H 0.6378 0.7074 0.6746
C18 C 0.9180(4) 0.1293(2) 0.53555(17)
H10 H 0.8999 0.0673 0.5068
C19 C 1.0279(4) 0.2151(3) 0.63711(16)
H11 H 1.0860 0.2116 0.6772
C20 C 1.0003(4) 0.1233(3) 0.5942(2)
H12 H 1.0379 0.0577 0.6055
C21 C 1.0689(5) 0.6167(3) 0.70222(15)
H13 H 1.1794 0.5962 0.7093
C22 C 0.8170(5) 0.6580(3) 0.73980(14)
H14 H 0.7563 0.6643 0.7724
C23 C 0.9781(6) 0.6241(3) 0.74947(16)
H15 H 1.0248 0.6063 0.7885
F2 F 0.3686(3) 1.17322(15) 0.04197(11)
N2 N 0.4981(3) 0.9675(3) 0.14242(11)
C24 C 0.2289(3) 0.9700(2) -0.01352(11)
C25 C 0.1550(3) 0.9973(2) -0.06121(12)
C26 C 0.0611(3) 1.0277(2) -0.11685(11)
C27 C 0.2944(3) 0.8140(2) 0.04628(12)
C28 C 0.3110(3) 0.9303(2) 0.04106(11)
C29 C 0.1832(4) 0.7246(2) -0.00176(14)
C30 C 0.4152(3) 1.0098(2) 0.09046(12)
C31 C 0.0727(4) 1.1412(3) -0.12816(13)
H16 H 0.1436 1.1988 -0.0994
C32 C 0.0080(4) 0.7266(3) -0.02676(14)
H17 H -0.0397 0.7872 -0.0153
C33 C -0.0442(4) 0.9434(3) -0.16065(14)
H18 H -0.0519 0.8668 -0.1539
C34 C 0.4430(4) 1.1290(3) 0.09197(15)
C35 C 0.3863(4) 0.7778(3) 0.09894(16)
H19 H 0.3800 0.7002 0.1017
C36 C 0.4817(5) 0.8510(4) 0.14481(17)
H20 H 0.5392 0.8238 0.1795
C37 C -0.1373(5) 0.9723(4) -0.21405(15)
H21 H -0.2085 0.9152 -0.2431
C38 C -0.1256(5) 1.0844(4) -0.22451(16)
H22 H -0.1890 1.1036 -0.2606
C39 C -0.0203(5) 1.1691(3) -0.18182(17)
H23 H -0.0120 1.2454 -0.1893
C40 C -0.0980(6) 0.6394(3) -0.06875(16)
H24 H -0.2165 0.6416 -0.0847
C41 C 0.2521(6) 0.6334(3) -0.01977(19)
H25 H 0.3689 0.6288 -0.0030
C42 C 0.1411(9) 0.5478(3) -0.0641(2)
H26 H 0.1871 0.4880 -0.0779
C43 C 0.5390(5) 1.2014(4) 0.1405(2)
H27 H 0.5540 1.2801 0.1399
C44 C -0.0323(9) 0.5520(4) -0.0867(2)
H28 H -0.1053 0.4939 -0.1148
C45 C 0.5949(5) 1.0404(5) 0.19163(16)
H29 H 0.6482 1.0100 0.2260
C46 C 0.6156(6) 1.1516(5) 0.1923(2)
H30 H 0.6809 1.1980 0.2269
B1 B 0.5967(5) 1.0526(3) 0.35805(16)
F3 F 0.7815(6) 1.0863(4) 0.3691(3)
F4 F 0.600(2) 1.1623(8) 0.3501(9)
F5 F 0.5633(8) 0.9582(3) 0.31635(13)
F6 F 0.5483(13) 1.0264(3) 0.4145(2)
B2 B 0.5797(6) 0.5556(3) 0.18380(17)
F7 F 0.5826(10) 0.4582(5) 0.2138(3)
F8 F 0.6230(11) 0.5999(6) 0.1303(3)
F9 F 0.5097(11) 0.5192(8) 0.1231(3)
F10 F 0.4446(7) 0.5996(4) 0.20222(15)
F11? F 0.4156(13) 1.0074(7) 0.3421(4)
F12? F 0.710(2) 1.0160(13) 0.3340(5)
F13? F 0.654(3) 1.0339(11) 0.4132(6)
F14? F 0.519(2) 1.1307(11) 0.3309(3)
F15? F 0.609(2) 0.6546(8) 0.2160(4)
F16? F 0.7374(12) 0.6000(8) 0.2271(4)
F17? F 0.5388(16) 0.4479(7) 0.1815(6)
F18? F 0.7550(16) 0.5951(10) 0.1870(6)
loop_
_geom_bond_atom_site_label_1
_geom_bond_atom_site_label_2
_geom_bond_site_symmetry_1
_geom_bond_site_symmetry_2
F1 C7 1_555 1_555
N1 C3 1_555 1_555
C1 C2 1_555 1_555
C2 C6 1_555 1_555
C3 C1 1_555 1_555
C4 C6 1_555 1_555
C5 C1 1_555 1_555
C7 C3 1_555 1_555
C8 C5 1_555 1_555
C9 C5 1_555 1_555
H1 C9 1_555 1_555
C10 N1 1_555 1_555
H2 C10 1_555 1_555
C11 N1 1_555 1_555
H3 C11 1_555 1_555
C12 C4 1_555 1_555
H4 C12 1_555 1_555
C13 C7 1_555 1_555
H5 C13 1_555 1_555
C14 C8 1_555 1_555
H6 C14 1_555 1_555
C15 C4 1_555 1_555
H7 C15 1_555 1_555
C16 C11 1_555 1_555
H8 C16 1_555 1_555
C17 C8 1_555 1_555
H9 C17 1_555 1_555
C18 C12 1_555 1_555
H10 C18 1_555 1_555
C19 C15 1_555 1_555
H11 C19 1_555 1_555
C20 C18 1_555 1_555
H12 C20 1_555 1_555
C21 C14 1_555 1_555
H13 C21 1_555 1_555
C22 C17 1_555 1_555
H14 C22 1_555 1_555
C23 C21 1_555 1_555
H15 C23 1_555 1_555
F2 C34 1_555 1_555
N2 C30 1_555 1_555
C24 C25 1_555 1_555
C25 C26 1_555 1_555
C26 C31 1_555 1_555
C27 C28 1_555 1_555
C28 C24 1_555 1_555
C29 C27 1_555 1_555
C30 C28 1_555 1_555
C31 H16 1_555 1_555
C32 C29 1_555 1_555
H17 C32 1_555 1_555
C33 C26 1_555 1_555
H18 C33 1_555 1_555
C34 C30 1_555 1_555
C35 C27 1_555 1_555
H19 C35 1_555 1_555
C36 N2 1_555 1_555
H20 C36 1_555 1_555
C37 C33 1_555 1_555
H21 C37 1_555 1_555
C38 C37 1_555 1_555
H22 C38 1_555 1_555
C39 C31 1_555 1_555
H23 C39 1_555 1_555
C40 C32 1_555 1_555
H24 C40 1_555 1_555
C41 C29 1_555 1_555
H25 C41 1_555 1_555
C42 C41 1_555 1_555
H26 C42 1_555 1_555
C43 C34 1_555 1_555
H27 C43 1_555 1_555
C44 C40 1_555 1_555
H28 C44 1_555 1_555
C45 N2 1_555 1_555
H29 C45 1_555 1_555
C46 C43 1_555 1_555
H30 C46 1_555 1_555
B1 F3 1_555 1_555
F4 B1 1_555 1_555
F5 B1 1_555 1_555
F6 B1 1_555 1_555
B2 F7 1_555 1_555
F8 B2 1_555 1_555
F9 B2 1_555 1_555
F10 B2 1_555 1_555
C9 C10 1_555 1_555
C13 C16 1_555 1_555
C19 C20 1_555 1_555
C22 C23 1_555 1_555
C35 C36 1_555 1_555
C38 C39 1_555 1_555
C42 C44 1_555 1_555
C45 C46 1_555 1_555

#END
