
#######################################################################
#
#                 Cambridge Crystallographic Data Centre
#                                CCDC 
#
#######################################################################
#
# If this CIF has been generated from an entry in the Cambridge 
# Structural Database, then it will include bibliographic, chemical, 
# crystal, experimental, refinement or atomic coordinate data resulting 
# from the CCDC's data processing and validation procedures.
#
#######################################################################

data_BINFIP
_chemical_formula_moiety         'H32 Na4 O16 4+,4(C8 H6 N3 O2 1-),8(H2 O1)'
_chemical_name_systematic        
'tetrakis(\m~2~-aqua)-dodeca-aqua-tetra-sodium tetrakis(5-amino-1,4-dioxo-3,4-dihydro-1H-phthalazin-2-ide) octahydrate'
_symmetry_cell_setting           triclinic
_symmetry_space_group_name_H-M   'P -1'
_symmetry_Int_Tables_number      2
_space_group_name_Hall           '-P 1'
loop_
_symmetry_equiv_pos_site_id
_symmetry_equiv_pos_as_xyz
1 x,y,z
2 -x,-y,-z
_cell_length_a                   7.952(2)
_cell_length_b                   13.168(3)
_cell_length_c                   13.734(3)
_cell_angle_alpha                74.180(14)
_cell_angle_beta                 88.629(11)
_cell_angle_gamma                82.050(17)
_cell_volume                     1370.2
_exptl_crystal_colour            colorless
_exptl_crystal_description       block
_cell_formula_units_Z            1
loop_
_atom_site_label
_atom_site_type_symbol
_atom_site_fract_x
_atom_site_fract_y
_atom_site_fract_z
Na1 Na 0.88663(5) 0.48055(3) 0.64765(3)
Na2 Na 0.59347(5) 0.51869(3) 0.87459(3)
O1 O 0.81848(9) 0.65695(5) 0.55488(5)
H1 H 0.738(2) 0.6653(14) 0.5161(14)
H2 H 0.788(2) 0.7017(13) 0.5882(12)
O2 O 1.18320(9) 0.45917(6) 0.65537(6)
H3 H 1.230(2) 0.4019(14) 0.6928(12)
H4 H 1.215(3) 0.5058(16) 0.6734(15)
O3 O 0.88889(9) 0.29571(5) 0.72528(5)
H5 H 0.972(2) 0.2574(13) 0.7563(13)
H6 H 0.876(2) 0.2727(13) 0.6775(13)
O4 O 0.69565(11) 0.44653(6) 0.54402(6)
H7 H 0.630(2) 0.4049(13) 0.5446(13)
H8 H 0.708(2) 0.4719(15) 0.4831(15)
O5 O 0.86551(9) 0.53472(5) 0.80247(5)
H9 H 0.945(2) 0.4966(14) 0.8356(13)
H10 H 0.892(2) 0.5983(14) 0.7826(13)
O6 O 0.51842(9) 0.69924(5) 0.78975(5)
H11 H 0.586(2) 0.7391(13) 0.7513(13)
H12 H 0.498(2) 0.7307(14) 0.8327(13)
O7 O 0.68094(9) 0.47667(6) 1.04728(5)
H13 H 0.738(2) 0.5208(13) 1.0588(12)
H14 H 0.747(2) 0.4172(14) 1.0577(12)
O8 O 0.60810(10) 0.36208(6) 0.83368(6)
H15 H 0.695(2) 0.3437(13) 0.8043(13)
H16 H 0.526(2) 0.3337(13) 0.8153(13)
Na1A Na 0.11337(5) 0.51945(3) 1.35235(3)
Na2A Na 0.40653(5) 0.48131(3) 1.12541(3)
O1A O 0.18152(9) 0.34305(5) 1.44512(5)
H1A H 0.262(2) 0.3347(14) 1.4839(14)
H2A H 0.212(2) 0.2983(13) 1.4118(12)
O2A O -0.18320(9) 0.54083(6) 1.34463(6)
H3A H -0.230(2) 0.5981(14) 1.3072(12)
H4A H -0.215(3) 0.4942(16) 1.3266(15)
O3A O 0.11111(9) 0.70429(5) 1.27472(5)
H5A H 0.028(2) 0.7426(13) 1.2437(13)
H6A H 0.124(2) 0.7273(13) 1.3225(13)
O4A O 0.30435(11) 0.55347(6) 1.45598(6)
H7A H 0.370(2) 0.5951(13) 1.4554(13)
H8A H 0.292(2) 0.5281(15) 1.5169(15)
O5A O 0.13449(9) 0.46528(5) 1.19753(5)
H9A H 0.055(2) 0.5034(14) 1.1644(13)
H10A H 0.108(2) 0.4017(14) 1.2174(13)
O6A O 0.48158(9) 0.30076(5) 1.21025(5)
H11A H 0.414(2) 0.2609(13) 1.2487(13)
H12A H 0.502(2) 0.2693(14) 1.1673(13)
O7A O 0.31906(9) 0.52333(6) 0.95272(5)
H13A H 0.262(2) 0.4792(13) 0.9412(12)
H14A H 0.253(2) 0.5828(14) 0.9423(12)
O8A O 0.39190(10) 0.63792(6) 1.16632(6)
H15A H 0.305(2) 0.6563(13) 1.1957(13)
H16A H 0.474(2) 0.6663(13) 1.1847(13)
O9 O 0.62205(8) 1.10098(5) 0.52149(5)
O10 O 0.96611(8) 0.73478(5) 0.74423(5)
N1 N 0.73453(9) 0.82754(5) 0.65529(5)
N2 N 0.65496(9) 0.92506(6) 0.59783(5)
H17 H 0.555(2) 0.9193(12) 0.5701(11)
N3 N 0.88916(10) 1.21101(6) 0.53855(6)
H18 H 0.799(2) 1.2124(12) 0.5030(12)
H19 H 0.959(2) 1.2559(12) 0.5098(12)
C1 C 0.71515(10) 1.01927(6) 0.57319(6)
C2 C 0.88767(10) 1.01779(6) 0.60756(6)
C3 C 0.97025(11) 1.11032(6) 0.58534(6)
C4 C 1.14002(11) 1.09943(7) 0.61700(6)
H20 H 1.1970 1.1606 0.6028
C5 C 1.22600(11) 1.00130(7) 0.66850(6)
H21 H 1.3417 0.9959 0.6873
C6 C 1.14559(11) 0.91072(7) 0.69301(6)
H22 H 1.2045 0.8440 0.7299
C7 C 0.97687(10) 0.91909(6) 0.66258(6)
C8 C 0.88965(11) 0.82427(6) 0.68832(6)
O11 O 0.16516(8) -0.10300(5) 0.97648(5)
O12 O 0.36351(9) 0.26799(5) 0.76875(5)
N4 N 0.16594(10) 0.17286(6) 0.85226(6)
N5 N 0.12514(9) 0.07419(6) 0.90510(5)
H23 H 0.0273(18) 0.0784(11) 0.9334(10)
N6 N 0.48409(10) -0.21130(6) 0.96457(6)
H24 H 0.393(2) -0.2128(12) 1.0027(12)
H25 H 0.571(2) -0.2527(12) 1.0003(11)
C9 C 0.22561(10) -0.02014(6) 0.92745(6)
C10 C 0.40102(10) -0.01780(6) 0.89483(6)
C11 C 0.52450(11) -0.10992(6) 0.91769(6)
C12 C 0.69201(11) -0.09879(7) 0.88829(6)
H26 H 0.7760 -0.1598 0.9033
C13 C 0.73798(11) -0.00043(7) 0.83772(6)
H27 H 0.8530 0.0051 0.8195
C14 C 0.61790(11) 0.09016(7) 0.81342(6)
H28 H 0.6496 0.1571 0.7775
C15 C 0.45012(10) 0.08145(6) 0.84244(6)
C16 C 0.32254(11) 0.17718(6) 0.81989(6)
O13 O 0.46929(9) 0.28631(5) 0.57315(5)
H29 H 0.445(2) 0.2754(12) 0.6344(13)
H30 H 0.519(2) 0.2294(14) 0.5642(13)
O14 O 1.26530(10) 0.64421(6) 0.67770(6)
H31 H 1.175(2) 0.6751(14) 0.6967(14)
H32 H 1.344(2) 0.6580(13) 0.7099(13)
O15 O 0.87777(10) 0.62590(6) 1.07810(6)
H33 H 0.940(2) 0.6533(14) 1.0301(14)
H34 H 0.858(2) 0.6682(14) 1.1123(14)
O16 O 1.09099(9) 0.71315(5) 0.92787(5)
H35 H 1.048(2) 0.7274(14) 0.8689(14)
H36 H 1.114(2) 0.7683(15) 0.9367(13)
loop_
_geom_bond_atom_site_label_1
_geom_bond_atom_site_label_2
_geom_bond_site_symmetry_1
_geom_bond_site_symmetry_2
Na1 O1 1_555 1_555
Na2 O5 1_555 1_555
O1 H1 1_555 1_555
H2 O1 1_555 1_555
O2 Na1 1_555 1_555
H3 O2 1_555 1_555
H4 O2 1_555 1_555
O3 Na1 1_555 1_555
H5 O3 1_555 1_555
H6 O3 1_555 1_555
O4 Na1 1_555 1_555
H7 O4 1_555 1_555
H8 O4 1_555 1_555
O5 Na1 1_555 1_555
H9 O5 1_555 1_555
H10 O5 1_555 1_555
O6 Na2 1_555 1_555
H11 O6 1_555 1_555
H12 O6 1_555 1_555
O7 Na2 1_555 1_555
H13 O7 1_555 1_555
H14 O7 1_555 1_555
O8 Na2 1_555 1_555
H15 O8 1_555 1_555
H16 O8 1_555 1_555
O9 C1 1_555 1_555
O10 C8 1_555 1_555
N1 N2 1_555 1_555
N2 H17 1_555 1_555
N3 H18 1_555 1_555
H19 N3 1_555 1_555
C1 N2 1_555 1_555
C2 C1 1_555 1_555
C3 N3 1_555 1_555
C4 C3 1_555 1_555
H20 C4 1_555 1_555
C5 C4 1_555 1_555
H21 C5 1_555 1_555
C6 C5 1_555 1_555
H22 C6 1_555 1_555
C7 C2 1_555 1_555
C8 N1 1_555 1_555
O11 C9 1_555 1_555
O12 C16 1_555 1_555
N4 N5 1_555 1_555
N5 H23 1_555 1_555
N6 H24 1_555 1_555
H25 N6 1_555 1_555
C9 N5 1_555 1_555
C10 C9 1_555 1_555
C11 N6 1_555 1_555
C12 C11 1_555 1_555
H26 C12 1_555 1_555
C13 C12 1_555 1_555
H27 C13 1_555 1_555
C14 C13 1_555 1_555
H28 C14 1_555 1_555
C15 C10 1_555 1_555
C16 N4 1_555 1_555
O13 H29 1_555 1_555
H30 O13 1_555 1_555
O14 H31 1_555 1_555
H32 O14 1_555 1_555
O15 H33 1_555 1_555
H34 O15 1_555 1_555
O16 H35 1_555 1_555
H36 O16 1_555 1_555
Na1A O1A 1_555 1_555
Na2A O7 1_555 1_555
O1A H1A 1_555 1_555
H2A O1A 1_555 1_555
O2A Na1A 1_555 1_555
H3A O2A 1_555 1_555
H4A O2A 1_555 1_555
O3A Na1A 1_555 1_555
H5A O3A 1_555 1_555
H6A O3A 1_555 1_555
O4A Na1A 1_555 1_555
H7A O4A 1_555 1_555
H8A O4A 1_555 1_555
O5A Na1A 1_555 1_555
H9A O5A 1_555 1_555
H10A O5A 1_555 1_555
O6A Na2A 1_555 1_555
H11A O6A 1_555 1_555
H12A O6A 1_555 1_555
O7A Na2 1_555 1_555
H13A O7A 1_555 1_555
H14A O7A 1_555 1_555
O8A Na2A 1_555 1_555
H15A O8A 1_555 1_555
H16A O8A 1_555 1_555
C2 C3 1_555 1_555
C6 C7 1_555 1_555
C7 C8 1_555 1_555
C10 C11 1_555 1_555
C14 C15 1_555 1_555
C15 C16 1_555 1_555
Na2A O5A 1_555 1_555
Na2A O7A 1_555 1_555

#END
