
#######################################################################
#
#                 Cambridge Crystallographic Data Centre
#                                CCDC 
#
#######################################################################
#
# If this CIF has been generated from an entry in the Cambridge 
# Structural Database, then it will include bibliographic, chemical, 
# crystal, experimental, refinement or atomic coordinate data resulting 
# from the CCDC's data processing and validation procedures.
#
#######################################################################

data_BINGEM
_chemical_formula_moiety         'C8 H6 N3 O2 1-,2(H2 O1),Rb1 1+'
_chemical_name_systematic        
'rubidium 5-amino-1,4-dioxo-3,4-dihydro-1H-phthalazin-2-ide dihydrate'
_symmetry_cell_setting           monoclinic
_symmetry_space_group_name_H-M   'P 21/c'
_symmetry_Int_Tables_number      14
_space_group_name_Hall           '-P 2ybc'
loop_
_symmetry_equiv_pos_site_id
_symmetry_equiv_pos_as_xyz
1 x,y,z
2 -x,1/2+y,1/2-z
3 -x,-y,-z
4 x,1/2-y,1/2+z
_cell_length_a                   18.413(9)
_cell_length_b                   4.1238(15)
_cell_length_c                   29.036(7)
_cell_angle_alpha                90
_cell_angle_beta                 96.88(3)
_cell_angle_gamma                90
_cell_volume                     2188.87
_exptl_crystal_colour            colorless
_exptl_crystal_description       block
_cell_formula_units_Z            8
loop_
_atom_site_label
_atom_site_type_symbol
_atom_site_fract_x
_atom_site_fract_y
_atom_site_fract_z
Rb1 Rb 0.189118(17) 0.07540(8) 0.265742(9)
O1 O 0.25418(15) 0.5670(7) 0.32749(8)
H1 H 0.2894(16) 0.622(10) 0.3070(12)
H2 H 0.2770(19) 0.395(8) 0.3462(12)
O2 O 0.19773(11) -0.3515(5) 0.14250(7)
O3 O -0.06279(11) -0.1412(5) 0.20326(7)
N1 N 0.11966(13) -0.4164(6) 0.19592(8)
N2 N 0.05039(13) -0.3523(6) 0.20831(8)
H3 H 0.0414 -0.4326 0.2351
N3 N -0.11092(14) 0.1924(7) 0.12428(9)
H4 H -0.1268(15) 0.097(8) 0.1535(7)
H5 H -0.1503(13) 0.324(9) 0.1057(10)
C1 C 0.13312(16) -0.3083(7) 0.15507(9)
C2 C 0.07739(16) -0.1325(7) 0.12440(9)
C3 C 0.09326(16) -0.0255(7) 0.08107(9)
H6 H 0.1393 -0.0716 0.0709
C4 C 0.04095(17) 0.1485(8) 0.05327(10)
H7 H 0.0515 0.2221 0.0238
C5 C -0.02663(17) 0.2182(8) 0.06741(10)
H8 H -0.0614 0.3381 0.0474
C6 C -0.04461(16) 0.1148(7) 0.11068(9)
C7 C 0.00879(15) -0.0649(7) 0.13955(9)
C8 C -0.00453(15) -0.1848(7) 0.18489(9)
O4 O 0.27453(12) 0.1615(6) 0.18392(9)
H9 H 0.2468(19) 0.339(5) 0.1696(12)
H10 H 0.2541(19) -0.027(5) 0.1682(12)
Rb2 Rb 0.493103(19) 0.30852(9) 0.364446(13)
O5 O 0.33184(12) 0.0699(6) 0.36823(7)
O6 O 0.42848(11) -0.3887(6) 0.53758(7)
N4 N 0.41722(14) -0.1735(7) 0.41780(9)
N5 N 0.43864(14) -0.2806(7) 0.46280(9)
H11 H 0.4825 -0.3678 0.4678
N6 N 0.30406(14) -0.2002(7) 0.57165(9)
H12 H 0.2679(18) -0.228(9) 0.5949(12)
H13 H 0.3406(14) -0.383(6) 0.5725(11)
C9 C 0.35371(16) -0.0282(7) 0.41024(10)
C10 C 0.30756(15) 0.0178(7) 0.44756(10)
C11 C 0.24100(16) 0.1852(8) 0.43858(11)
H14 H 0.2261 0.2741 0.4088
C12 C 0.19734(16) 0.2184(8) 0.47418(11)
H15 H 0.1525 0.3337 0.4686
C13 C 0.21827(16) 0.0855(8) 0.51782(11)
H16 H 0.1870 0.1080 0.5414
C14 C 0.28437(15) -0.0801(7) 0.52764(10)
C15 C 0.33023(15) -0.1094(7) 0.49190(10)
C16 C 0.40124(15) -0.2684(8) 0.49952(10)
O7 O 0.60500(14) 0.7854(7) 0.36651(10)
H17 H 0.6396(15) 0.735(11) 0.3454(11)
H18 H 0.6326(18) 0.905(11) 0.3909(10)
O8 O 0.4119(4) 0.8056(17) 0.3012(2)
O9? O 0.3629(8) 0.171(4) 0.2623(5)
O10? O 0.3988(5) 0.297(2) 0.2464(3)
O11? O 0.4601(8) 0.683(4) 0.2808(5)
loop_
_geom_bond_atom_site_label_1
_geom_bond_atom_site_label_2
_geom_bond_site_symmetry_1
_geom_bond_site_symmetry_2
O1 H1 1_555 1_555
H2 O1 1_555 1_555
O2 C1 1_555 1_555
O3 C8 1_555 1_555
N1 N2 1_555 1_555
N2 H3 1_555 1_555
N3 H4 1_555 1_555
H5 N3 1_555 1_555
C1 N1 1_555 1_555
C2 C1 1_555 1_555
C3 C2 1_555 1_555
H6 C3 1_555 1_555
C4 C3 1_555 1_555
H7 C4 1_555 1_555
C5 C4 1_555 1_555
H8 C5 1_555 1_555
C6 N3 1_555 1_555
C7 C2 1_555 1_555
C8 N2 1_555 1_555
O4 H9 1_555 1_555
H10 O4 1_555 1_555
O5 C9 1_555 1_555
O6 C16 1_555 1_555
N4 N5 1_555 1_555
N5 H11 1_555 1_555
N6 H12 1_555 1_555
H13 N6 1_555 1_555
C9 N4 1_555 1_555
C10 C9 1_555 1_555
C11 C10 1_555 1_555
H14 C11 1_555 1_555
C12 C11 1_555 1_555
H15 C12 1_555 1_555
C13 C12 1_555 1_555
H16 C13 1_555 1_555
C14 N6 1_555 1_555
C15 C10 1_555 1_555
C16 N5 1_555 1_555
O7 H17 1_555 1_555
H18 O7 1_555 1_555
C5 C6 1_555 1_555
C6 C7 1_555 1_555
C7 C8 1_555 1_555
C13 C14 1_555 1_555
C14 C15 1_555 1_555
C15 C16 1_555 1_555

#END
