
#######################################################################
#
#                 Cambridge Crystallographic Data Centre
#                                CCDC 
#
#######################################################################
#
# If this CIF has been generated from an entry in the Cambridge 
# Structural Database, then it will include bibliographic, chemical, 
# crystal, experimental, refinement or atomic coordinate data resulting 
# from the CCDC's data processing and validation procedures.
#
#######################################################################

data_BINJAM
_chemical_formula_moiety         'C29 H35 N1 O3'
_chemical_name_systematic        
8-methoxy-3,3,5-trimethyl-10-[2-methyl-5-(propan-2-yl)bicyclo[3.1.0]hexan-2-yl]-3,11-dihydropyrano[3,2-a]carbazol-9-ol
_symmetry_cell_setting           monoclinic
_symmetry_space_group_name_H-M   'P 21'
_symmetry_Int_Tables_number      4
_space_group_name_Hall           'P 2yb'
loop_
_symmetry_equiv_pos_site_id
_symmetry_equiv_pos_as_xyz
1 x,y,z
2 -x,1/2+y,-z
_cell_length_a                   7.72842(7)
_cell_length_b                   10.28179(10)
_cell_length_c                   15.30230(15)
_cell_angle_alpha                90
_cell_angle_beta                 91.9454(9)
_cell_angle_gamma                90
_cell_volume                     1215.25
_exptl_crystal_colour            'light yellow'
_exptl_crystal_description       block
_cell_formula_units_Z            2
loop_
_atom_site_label
_atom_site_type_symbol
_atom_site_fract_x
_atom_site_fract_y
_atom_site_fract_z
O1 O 0.8866(3) 0.5989(2) 0.07353(14)
O2 O -0.1157(3) 0.1939(3) 0.22924(15)
O3 O -0.0438(3) 0.2509(3) 0.38981(16)
H1 H -0.1294 0.2177 0.3629
N1 N 0.5019(3) 0.4452(3) 0.29977(18)
H2 H 0.5560 0.4687 0.3488
C1 C 0.7159(4) 0.5241(3) 0.1925(2)
C2 C 0.8575(4) 0.5605(3) 0.2528(2)
H3 H 0.8574 0.5324 0.3120
C3 C 0.7371(4) 0.5415(3) 0.1032(2)
C4 C 0.9865(4) 0.6327(3) 0.2251(2)
H4 H 1.0840 0.6501 0.2628
C5 C 0.6183(4) 0.4959(3) 0.0388(2)
C6 C 0.9783(4) 0.6875(3) 0.1335(2)
C7 C 0.4721(4) 0.4301(3) 0.0656(2)
H5 H 0.3925 0.3952 0.0232
C8 C 0.8833(5) 0.8173(4) 0.1315(2)
H6 H 0.8793 0.8516 0.0718
H7 H 0.9444 0.8790 0.1704
H8 H 0.7651 0.8048 0.1512
C9 C 0.4411(4) 0.4148(3) 0.1547(2)
C10 C 0.3014(4) 0.3602(3) 0.2037(2)
C11 C 0.1483(4) 0.2979(3) 0.1776(2)
H9 H 0.1197 0.2828 0.1176
C12 C 1.1584(5) 0.6994(4) 0.0965(2)
H10 H 1.2126 0.6133 0.0948
H11 H 1.2295 0.7574 0.1338
H12 H 1.1489 0.7352 0.0372
C13 C 0.0402(4) 0.2590(3) 0.2420(2)
C14 C 0.6482(5) 0.5209(4) -0.0564(2)
H13 H 0.6286 0.6131 -0.0694
H14 H 0.5679 0.4679 -0.0923
H15 H 0.7675 0.4978 -0.0695
C15 C 0.0783(4) 0.2864(3) 0.3309(2)
C16 C -0.1809(5) 0.1823(4) 0.1411(2)
H16 H -0.0996 0.1316 0.1071
H17 H -0.1946 0.2691 0.1154
H18 H -0.2934 0.1382 0.1405
C17 C 0.2291(4) 0.3486(3) 0.3603(2)
C18 C 0.2559(4) 0.3841(3) 0.4573(2)
C19 C 0.3410(4) 0.3827(3) 0.2937(2)
C20 C 0.2377(5) 0.2646(4) 0.5190(2)
H19 H 0.1150 0.2510 0.5333
H20 H 0.2813 0.1848 0.4910
C21 C 0.5626(4) 0.4642(3) 0.2166(2)
C22 C 0.3472(5) 0.2972(4) 0.6021(2)
H21 H 0.2754 0.3405 0.6459
H22 H 0.3976 0.2172 0.6283
C23 C 0.5832(5) 0.3440(4) 0.4931(2)
H23 H 0.5642 0.2537 0.4725
H24 H 0.7014 0.3781 0.4852
C24 C 0.4335(4) 0.4384(3) 0.4833(2)
H25 H 0.4592 0.5311 0.4689
C25 C 0.4888(4) 0.3877(3) 0.5727(2)
C26 C 0.5875(5) 0.4714(4) 0.6387(2)
H26 H 0.6626 0.5311 0.6050
C27 C 0.4707(5) 0.5559(4) 0.6925(2)
H27 H 0.5416 0.6157 0.7285
H28 H 0.4021 0.5007 0.7304
H29 H 0.3930 0.6060 0.6534
C28 C 0.7066(6) 0.3896(5) 0.6973(3)
H30 H 0.6378 0.3268 0.7295
H31 H 0.7701 0.4462 0.7387
H32 H 0.7890 0.3429 0.6614
C29 C 0.1225(5) 0.4899(4) 0.4808(2)
H33 H 0.1447 0.5692 0.4475
H34 H 0.1331 0.5089 0.5436
H35 H 0.0053 0.4584 0.4664
loop_
_geom_bond_atom_site_label_1
_geom_bond_atom_site_label_2
_geom_bond_site_symmetry_1
_geom_bond_site_symmetry_2
O1 C3 1_555 1_555
O2 C13 1_555 1_555
O3 H1 1_555 1_555
N1 H2 1_555 1_555
C1 C2 1_555 1_555
C2 H3 1_555 1_555
C3 C1 1_555 1_555
C4 C2 1_555 1_555
H4 C4 1_555 1_555
C5 C3 1_555 1_555
C6 O1 1_555 1_555
C7 C5 1_555 1_555
H5 C7 1_555 1_555
C8 C6 1_555 1_555
H6 C8 1_555 1_555
H7 C8 1_555 1_555
H8 C8 1_555 1_555
C9 C7 1_555 1_555
C10 C9 1_555 1_555
C11 C10 1_555 1_555
H9 C11 1_555 1_555
C12 C6 1_555 1_555
H10 C12 1_555 1_555
H11 C12 1_555 1_555
H12 C12 1_555 1_555
C13 C11 1_555 1_555
C14 C5 1_555 1_555
H13 C14 1_555 1_555
H14 C14 1_555 1_555
H15 C14 1_555 1_555
C15 O3 1_555 1_555
C16 O2 1_555 1_555
H16 C16 1_555 1_555
H17 C16 1_555 1_555
H18 C16 1_555 1_555
C17 C15 1_555 1_555
C18 C17 1_555 1_555
C19 N1 1_555 1_555
C20 C18 1_555 1_555
H19 C20 1_555 1_555
H20 C20 1_555 1_555
C21 N1 1_555 1_555
C22 C20 1_555 1_555
H21 C22 1_555 1_555
H22 C22 1_555 1_555
C23 H23 1_555 1_555
H24 C23 1_555 1_555
C24 C18 1_555 1_555
H25 C24 1_555 1_555
C25 C22 1_555 1_555
C26 C25 1_555 1_555
H26 C26 1_555 1_555
C27 C26 1_555 1_555
H27 C27 1_555 1_555
H28 C27 1_555 1_555
H29 C27 1_555 1_555
C28 C26 1_555 1_555
H30 C28 1_555 1_555
H31 C28 1_555 1_555
H32 C28 1_555 1_555
C29 C18 1_555 1_555
H33 C29 1_555 1_555
H34 C29 1_555 1_555
H35 C29 1_555 1_555
C1 C21 1_555 1_555
C4 C6 1_555 1_555
C9 C21 1_555 1_555
C10 C19 1_555 1_555
C13 C15 1_555 1_555
C17 C19 1_555 1_555
C23 C24 1_555 1_555
C23 C25 1_555 1_555
C24 C25 1_555 1_555

#END
