
#######################################################################
#
#                 Cambridge Crystallographic Data Centre
#                                CCDC 
#
#######################################################################
#
# If this CIF has been generated from an entry in the Cambridge 
# Structural Database, then it will include bibliographic, chemical, 
# crystal, experimental, refinement or atomic coordinate data resulting 
# from the CCDC's data processing and validation procedures.
#
#######################################################################

data_BINMEQ03
_chemical_compound_source        
'turmeric of Shuangliu County of Sichuan Province, China'
_chemical_formula_moiety         'C21 H20 O6'
_chemical_name_systematic        Curcumin
_symmetry_cell_setting           monoclinic
_symmetry_space_group_name_H-M   'P 2/n'
_symmetry_Int_Tables_number      13
_space_group_name_Hall           '-P 2yac'
loop_
_symmetry_equiv_pos_site_id
_symmetry_equiv_pos_as_xyz
1 x,y,z
2 1/2-x,y,1/2-z
3 -x,-y,-z
4 1/2+x,-y,1/2+z
_cell_length_a                   12.695(3)
_cell_length_b                   7.2075(16)
_cell_length_c                   19.960(4)
_cell_angle_alpha                90
_cell_angle_beta                 95.098(4)
_cell_angle_gamma                90
_cell_volume                     1819.1
_cell_formula_units_Z            4
loop_
_atom_site_label
_atom_site_type_symbol
_atom_site_fract_x
_atom_site_fract_y
_atom_site_fract_z
O1 O 0.12362(13) 0.1242(3) 0.97654(9)
O2 O 0.05378(12) 0.1657(3) 1.09730(9)
H1 H 0.0208 0.1621 1.0601
O3 O 0.70092(12) 0.3452(3) 1.08416(8)
H2 H 0.7644 0.3598 1.0812
O4 O 0.86836(12) 0.3819(3) 1.03237(9)
O5 O 1.11743(14) 0.6086(3) 0.72998(8)
O6 O 1.10577(16) 0.3367(3) 0.63869(9)
H3 H 1.1367 0.4366 0.6391
C1 C 0.30455(18) 0.1901(3) 1.02155(12)
H4 H 0.3304 0.1787 0.9796
C2 C 0.19881(18) 0.1665(3) 1.02765(12)
C3 C 0.15925(18) 0.1848(3) 1.09003(13)
C4 C 0.22635(19) 0.2250(3) 1.14599(13)
H5 H 0.1999 0.2370 1.1878
C5 C 0.33303(19) 0.2475(4) 1.14001(13)
H6 H 0.3782 0.2739 1.1781
C6 C 0.37405(17) 0.2314(3) 1.07812(12)
C7 C 0.48687(18) 0.2607(3) 1.07449(12)
H7 H 0.5262 0.2785 1.1156
C8 C 0.54170(18) 0.2657(3) 1.02075(13)
H8 H 0.5065 0.2436 0.9786
C9 C 0.65442(18) 0.3044(3) 1.02523(12)
C10 C 0.71185(18) 0.3032(3) 0.96922(12)
H9 H 0.6778 0.2746 0.9273
C11 C 0.81952(19) 0.3439(3) 0.97448(13)
C12 C 0.88327(19) 0.3545(3) 0.91746(13)
H10 H 0.9475 0.4168 0.9241
C13 C 0.85812(19) 0.2840(4) 0.85754(13)
H11 H 0.7953 0.2173 0.8512
C14 C 0.92149(19) 0.3023(4) 0.79965(12)
C15 C 0.99163(18) 0.4504(4) 0.79516(11)
H12 H 0.9981 0.5398 0.8288
C16 C 1.05091(19) 0.4640(4) 0.74127(12)
C17 C 1.04549(19) 0.3284(4) 0.69169(12)
C18 C 0.9767(2) 0.1838(4) 0.69576(13)
H13 H 0.9720 0.0925 0.6627
C19 C 0.9139(2) 0.1724(4) 0.74888(13)
H14 H 0.8659 0.0754 0.7503
C20 C 0.1551(2) 0.1265(4) 0.90981(12)
H15 H 0.1819 0.2472 0.9001
H16 H 0.0952 0.0986 0.8786
H17 H 0.2093 0.0354 0.9058
C21 C 1.1183(2) 0.7647(4) 0.77372(15)
H18 H 1.0470 0.8042 0.7780
H19 H 1.1572 0.8641 0.7554
H20 H 1.1514 0.7311 0.8171
H21? H 0.8252 0.3933 1.0603
loop_
_geom_bond_atom_site_label_1
_geom_bond_atom_site_label_2
_geom_bond_site_symmetry_1
_geom_bond_site_symmetry_2
O1 C2 1_555 1_555
O2 H1 1_555 1_555
O3 H2 1_555 1_555
O4 C11 1_555 1_555
O5 C16 1_555 1_555
O6 H3 1_555 1_555
C1 H4 1_555 1_555
C2 C1 1_555 1_555
C3 O2 1_555 1_555
C4 C3 1_555 1_555
H5 C4 1_555 1_555
C5 C4 1_555 1_555
H6 C5 1_555 1_555
C6 C1 1_555 1_555
C7 C6 1_555 1_555
H7 C7 1_555 1_555
C8 C7 1_555 1_555
H8 C8 1_555 1_555
C9 O3 1_555 1_555
C10 C9 1_555 1_555
H9 C10 1_555 1_555
C11 C10 1_555 1_555
C12 C11 1_555 1_555
H10 C12 1_555 1_555
C13 C12 1_555 1_555
H11 C13 1_555 1_555
C14 C13 1_555 1_555
C15 C14 1_555 1_555
H12 C15 1_555 1_555
C16 C15 1_555 1_555
C17 O6 1_555 1_555
C18 C17 1_555 1_555
H13 C18 1_555 1_555
C19 C14 1_555 1_555
H14 C19 1_555 1_555
C20 O1 1_555 1_555
H15 C20 1_555 1_555
H16 C20 1_555 1_555
H17 C20 1_555 1_555
C21 O5 1_555 1_555
H18 C21 1_555 1_555
H19 C21 1_555 1_555
H20 C21 1_555 1_555
C2 C3 1_555 1_555
C5 C6 1_555 1_555
C8 C9 1_555 1_555
C16 C17 1_555 1_555
C18 C19 1_555 1_555

#END
