
#######################################################################
#
#                 Cambridge Crystallographic Data Centre
#                                CCDC 
#
#######################################################################
#
# If this CIF has been generated from an entry in the Cambridge 
# Structural Database, then it will include bibliographic, chemical, 
# crystal, experimental, refinement or atomic coordinate data resulting 
# from the CCDC's data processing and validation procedures.
#
#######################################################################

data_BIPCIN
_chemical_formula_moiety         'C10 H14 Ca1 N4 O12,H2 O1'
_chemical_name_systematic        
'Tetra-aqua-bis(4-carboxy-1H-imidazole-5-carboxylato-N,O)-calcium(ii) monohydrate'
_symmetry_cell_setting           monoclinic
_symmetry_space_group_name_H-M   'C 2/c'
_symmetry_Int_Tables_number      15
_space_group_name_Hall           '-C 2yn'
loop_
_symmetry_equiv_pos_site_id
_symmetry_equiv_pos_as_xyz
1 x,y,z
2 1/2+x,1/2+y,z
3 x,-y,1/2+z
4 1/2+x,1/2-y,1/2+z
5 -x,-y,-z
6 1/2-x,1/2-y,-z
7 -x,y,1/2-z
8 1/2-x,1/2+y,1/2-z
_cell_length_a                   8.2685(17)
_cell_length_b                   11.949(2)
_cell_length_c                   17.525(4)
_cell_angle_alpha                90
_cell_angle_beta                 103.64(3)
_cell_angle_gamma                90
_cell_volume                     1682.64
_exptl_crystal_colour            colorless
_exptl_crystal_description       prism
_cell_formula_units_Z            4
loop_
_atom_site_label
_atom_site_type_symbol
_atom_site_fract_x
_atom_site_fract_y
_atom_site_fract_z
Ca1 Ca 0.5000 0.72390(4) 0.7500
O1 O 0.70875(18) 0.59434(11) 0.81017(8)
H1 H 0.794(2) 0.5838(19) 0.7924(14)
H2 H 0.695(3) 0.5391(15) 0.8383(12)
O2 O 0.74671(16) 0.83225(12) 0.75453(7)
H3 H 0.780(3) 0.844(2) 0.7133(8)
H4 H 0.827(2) 0.815(2) 0.7922(9)
O4 O 0.41826(17) 0.82972(11) 0.62113(7)
O5 O 0.39812(18) 0.85077(11) 0.49440(7)
H6 H 0.421(3) 0.819(2) 0.4548(10)
O6 O 0.50706(17) 0.75023(11) 0.39001(7)
O7 O 0.67157(19) 0.60530(11) 0.38222(7)
N1 N 0.60049(17) 0.63655(11) 0.63049(8)
N2 N 0.69860(17) 0.55195(11) 0.53903(8)
H7 H 0.7508 0.5040 0.5172
C1 C 0.6890(2) 0.55164(14) 0.61455(9)
H8 H 0.7388 0.4981 0.6511
C2 C 0.4507(2) 0.79659(14) 0.56062(9)
C3 C 0.55025(19) 0.69369(13) 0.56097(9)
C4 C 0.61048(19) 0.64226(13) 0.50308(9)
C5 C 0.5957(2) 0.66696(14) 0.41883(9)
O1F O 0.29125(18) 0.59434(11) 0.68983(8)
H1F H 0.206(2) 0.5838(19) 0.7076(14)
H2F H 0.305(3) 0.5391(15) 0.6617(12)
O2F O 0.25329(16) 0.83225(12) 0.74547(7)
H3F H 0.220(3) 0.844(2) 0.7867(8)
H4F H 0.173(2) 0.815(2) 0.7078(9)
O4F O 0.58174(17) 0.82972(11) 0.87887(7)
C2F C 0.5493(2) 0.79659(14) 0.93938(9)
O5F O 0.60188(18) 0.85077(11) 1.00560(7)
H6F H 0.579(3) 0.819(2) 1.0452(10)
C3F C 0.44975(19) 0.69369(13) 0.93903(9)
N1F N 0.39951(17) 0.63655(11) 0.86951(8)
C1F C 0.3110(2) 0.55164(14) 0.88545(9)
N2F N 0.30140(17) 0.55195(11) 0.96097(8)
H7F H 0.2492 0.5040 0.9828
C4F C 0.38952(19) 0.64226(13) 0.99692(9)
C5F C 0.4043(2) 0.66696(14) 1.08117(9)
O6F O 0.49294(17) 0.75023(11) 1.10999(7)
O7F O 0.32843(19) 0.60530(11) 1.11778(7)
H8F H 0.2612 0.4981 0.8489
O3 O 1.0000 0.6155(2) 0.7500
H5 H 0.976(4) 0.6579(11) 0.7090(3)
H5F H 1.024(4) 0.6579(11) 0.7910(3)
loop_
_geom_bond_atom_site_label_1
_geom_bond_atom_site_label_2
_geom_bond_site_symmetry_1
_geom_bond_site_symmetry_2
Ca1 O1 1_555 1_555
O1 H1 1_555 1_555
H2 O1 1_555 1_555
O2 Ca1 1_555 1_555
H3 O2 1_555 1_555
H4 O2 1_555 1_555
O3 H5 1_555 1_555
O4 Ca1 1_555 1_555
O5 H6 1_555 1_555
O6 C5 1_555 1_555
O7 C5 1_555 1_555
N1 Ca1 1_555 1_555
N2 H7 1_555 1_555
C1 N1 1_555 1_555
H8 C1 1_555 1_555
C2 O4 1_555 1_555
C3 N1 1_555 1_555
C4 N2 1_555 1_555
C5 C4 1_555 1_555
O1F Ca1 1_555 1_555
H1F O1F 1_555 1_555
H2F O1F 1_555 1_555
O2F Ca1 1_555 1_555
H3F O2F 1_555 1_555
H4F O2F 1_555 1_555
O4F Ca1 1_555 1_555
C2F O4F 1_555 1_555
O5F C2F 1_555 1_555
H6F O5F 1_555 1_555
C3F C2F 1_555 1_555
N1F Ca1 1_555 1_555
C1F N1F 1_555 1_555
N2F C1F 1_555 1_555
H7F N2F 1_555 1_555
C4F C3F 1_555 1_555
C5F C4F 1_555 1_555
O6F C5F 1_555 1_555
O7F C5F 1_555 1_555
H8F C1F 1_555 1_555
H5F O3 1_555 1_555
O5 C2 1_555 1_555
N2 C1 1_555 1_555
C2 C3 1_555 1_555
C3 C4 1_555 1_555
C3F N1F 1_555 1_555
N2F C4F 1_555 1_555

#END
