
#######################################################################
#
#                 Cambridge Crystallographic Data Centre
#                                CCDC 
#
#######################################################################
#
# If this CIF has been generated from an entry in the Cambridge 
# Structural Database, then it will include bibliographic, chemical, 
# crystal, experimental, refinement or atomic coordinate data resulting 
# from the CCDC's data processing and validation procedures.
#
#######################################################################

data_BIPDOV
_chemical_formula_moiety         'C26 H27 N3 O4'
_chemical_name_systematic        
"t-Butyl 3-methyl-6-oxo-1,4-diphenyl-1,4,4a,6,7,7a-hexahydro-5H-pyrrolo[2',3':5,6]pyrano[2,3-c]pyrazole-5-carboxylate"
_symmetry_cell_setting           monoclinic
_symmetry_space_group_name_H-M   'C 2/c'
_symmetry_Int_Tables_number      15
_space_group_name_Hall           '-C 2yn'
loop_
_symmetry_equiv_pos_site_id
_symmetry_equiv_pos_as_xyz
1 x,y,z
2 -x,y,1/2-z
3 1/2+x,1/2+y,z
4 1/2-x,1/2+y,1/2-z
5 -x,-y,-z
6 x,-y,1/2+z
7 1/2-x,1/2-y,-z
8 1/2+x,1/2-y,1/2+z
_cell_length_a                   35.92(4)
_cell_length_b                   14.355(14)
_cell_length_c                   9.979(10)
_cell_angle_alpha                90
_cell_angle_beta                 102.841(13)
_cell_angle_gamma                90
_cell_volume                     5016.8
_exptl_crystal_colour            colorless
_exptl_crystal_description       block
_cell_formula_units_Z            8
loop_
_atom_site_label
_atom_site_type_symbol
_atom_site_fract_x
_atom_site_fract_y
_atom_site_fract_z
C1 C 0.29482(15) 0.1826(4) 0.1672(5)
C2 C 0.28968(13) 0.2847(3) 0.1888(5)
H1 H 0.2708 0.3113 0.1137
H2 H 0.2820 0.2961 0.2746
C3 C 0.32834(12) 0.3236(3) 0.1928(4)
H3 H 0.3325 0.3835 0.2412
C4 C 0.35472(12) 0.2477(3) 0.2654(4)
H4 H 0.3553 0.2518 0.3639
C5 C 0.39612(12) 0.2524(3) 0.2479(4)
H5 H 0.4068 0.1893 0.2570
C6 C 0.39534(12) 0.2867(3) 0.1059(4)
C7 C 0.36395(12) 0.3209(3) 0.0253(4)
C8 C 0.42275(13) 0.2884(4) 0.0267(5)
C9 C 0.46303(14) 0.2577(5) 0.0672(6)
H6 H 0.4721 0.2418 -0.0135
H7 H 0.4648 0.2042 0.1261
H8 H 0.4784 0.3072 0.1154
C10 C 0.41952(12) 0.3124(4) 0.3604(4)
C11 C 0.43332(14) 0.2734(4) 0.4880(5)
H9 H 0.4292 0.2106 0.5024
C12 C 0.45328(16) 0.3279(6) 0.5947(5)
H10 H 0.4619 0.3017 0.6813
C13 C 0.46034(16) 0.4184(6) 0.5743(7)
H11 H 0.4742 0.4542 0.6460
C14 C 0.44711(16) 0.4571(5) 0.4479(7)
H12 H 0.4516 0.5198 0.4340
C15 C 0.42704(14) 0.4041(4) 0.3406(6)
H13 H 0.4186 0.4309 0.2543
C16 C 0.34749(13) 0.3786(3) -0.2197(4)
C17 C 0.36380(14) 0.4031(3) -0.3281(5)
H14 H 0.3900 0.3973 -0.3204
C18 C 0.34083(18) 0.4361(4) -0.4463(5)
H15 H 0.3517 0.4515 -0.5196
C19 C 0.30242(18) 0.4471(3) -0.4604(5)
H16 H 0.2874 0.4706 -0.5413
C20 C 0.28663(15) 0.4229(4) -0.3530(5)
H17 H 0.2605 0.4297 -0.3609
C21 C 0.30910(13) 0.3883(3) -0.2326(4)
H18 H 0.2980 0.3716 -0.1603
C22 C 0.34835(15) 0.0763(4) 0.2550(5)
C23 C 0.33663(17) -0.0895(3) 0.2138(5)
C24 C 0.37690(17) -0.1143(4) 0.2079(6)
H19 H 0.3839 -0.0811 0.1338
H20 H 0.3786 -0.1801 0.1930
H21 H 0.3939 -0.0976 0.2931
C25 C 0.32741(19) -0.1070(4) 0.3510(5)
H22 H 0.3045 -0.0741 0.3563
H23 H 0.3481 -0.0856 0.4225
H24 H 0.3237 -0.1726 0.3620
C26 C 0.30852(19) -0.1364(4) 0.0990(6)
H25 H 0.2832 -0.1156 0.0996
H26 H 0.3100 -0.2027 0.1118
H27 H 0.3145 -0.1208 0.0126
N1 N 0.33325(10) 0.1635(3) 0.2117(3)
N2 N 0.37125(10) 0.3432(2) -0.0994(3)
N3 N 0.40859(11) 0.3228(3) -0.0983(4)
O1 O 0.32917(8) 0.3318(2) 0.0490(3)
O2 O 0.26983(10) 0.1280(3) 0.1232(4)
O3 O 0.37482(10) 0.0676(2) 0.3501(3)
O4 O 0.32922(9) 0.0101(2) 0.1773(3)
loop_
_geom_bond_atom_site_label_1
_geom_bond_atom_site_label_2
_geom_bond_site_symmetry_1
_geom_bond_site_symmetry_2
C1 C2 1_555 1_555
C2 H1 1_555 1_555
H2 C2 1_555 1_555
C3 C2 1_555 1_555
H3 C3 1_555 1_555
C4 C3 1_555 1_555
H4 C4 1_555 1_555
C5 C4 1_555 1_555
H5 C5 1_555 1_555
C6 C5 1_555 1_555
C7 C6 1_555 1_555
C8 C6 1_555 1_555
C9 C8 1_555 1_555
H6 C9 1_555 1_555
H7 C9 1_555 1_555
H8 C9 1_555 1_555
C10 C5 1_555 1_555
C11 C10 1_555 1_555
H9 C11 1_555 1_555
C12 C11 1_555 1_555
H10 C12 1_555 1_555
C13 C12 1_555 1_555
H11 C13 1_555 1_555
C14 C13 1_555 1_555
H12 C14 1_555 1_555
C15 C10 1_555 1_555
H13 C15 1_555 1_555
C16 C17 1_555 1_555
C17 H14 1_555 1_555
C18 C17 1_555 1_555
H15 C18 1_555 1_555
C19 C18 1_555 1_555
H16 C19 1_555 1_555
C20 C19 1_555 1_555
H17 C20 1_555 1_555
C21 C16 1_555 1_555
H18 C21 1_555 1_555
C22 N1 1_555 1_555
C23 C24 1_555 1_555
C24 H19 1_555 1_555
H20 C24 1_555 1_555
H21 C24 1_555 1_555
C25 C23 1_555 1_555
H22 C25 1_555 1_555
H23 C25 1_555 1_555
H24 C25 1_555 1_555
C26 C23 1_555 1_555
H25 C26 1_555 1_555
H26 C26 1_555 1_555
H27 C26 1_555 1_555
N1 C1 1_555 1_555
N2 C7 1_555 1_555
N3 C8 1_555 1_555
O1 C3 1_555 1_555
O2 C1 1_555 1_555
O3 C22 1_555 1_555
O4 C22 1_555 1_555
C4 N1 1_555 1_555
C7 O1 1_555 1_555
C14 C15 1_555 1_555
C16 N2 1_555 1_555
C20 C21 1_555 1_555
C23 O4 1_555 1_555
N2 N3 1_555 1_555

#END
