
#######################################################################
#
#                 Cambridge Crystallographic Data Centre
#                                CCDC 
#
#######################################################################
#
# If this CIF has been generated from an entry in the Cambridge 
# Structural Database, then it will include bibliographic, chemical, 
# crystal, experimental, refinement or atomic coordinate data resulting 
# from the CCDC's data processing and validation procedures.
#
#######################################################################

data_BIPDEJ01
_chemical_name_common            Tegafur
_chemical_formula_moiety         'C8 H9 F1 N2 O3'
_chemical_name_systematic        N'-(2-Tetrahydrofuranyl)-5-fluorouracil
_chemical_properties_biological  'anticancer drug'
_symmetry_cell_setting           triclinic
_symmetry_space_group_name_H-M   'P -1'
_symmetry_Int_Tables_number      2
_space_group_name_Hall           '-P 1'
loop_
_symmetry_equiv_pos_site_id
_symmetry_equiv_pos_as_xyz
1 x,y,z
2 -x,-y,-z
_cell_length_a                   6.004(2)
_cell_length_b                   9.022(8)
_cell_length_c                   16.702(11)
_cell_angle_alpha                99.78(6)
_cell_angle_beta                 93.43(3)
_cell_angle_gamma                94.18(6)
_cell_volume                     886.793
_exptl_crystal_colour            white
_cell_formula_units_Z            4
loop_
_atom_site_label
_atom_site_type_symbol
_atom_site_fract_x
_atom_site_fract_y
_atom_site_fract_z
C1 C 0.21390 0.54410 0.41170
C2 C 0.42800 0.73740 0.51520
C3 C 0.58250 0.74830 0.45320
C4 C 0.55360 0.66480 0.37830
C5 C 0.33650 0.47700 0.27270
C6 C 0.51860 0.36680 0.25080
C7 C 0.66220 0.43920 0.19420
C8 C 0.49240 0.52610 0.15580
N1 N 0.36800 0.56460 0.35680
N2 N 0.25500 0.62980 0.48820
O1 O 0.05090 0.45230 0.39580
O2 O 0.44520 0.81150 0.58380
O3 O 0.35150 0.58290 0.21900
F1 F 0.76710 0.84780 0.47470
H1 H 0.14780 0.61080 0.53190
H2 H 0.66510 0.66450 0.33620
H3 H 0.17380 0.42920 0.27610
H4 H 0.43220 0.28530 0.21950
H5 H 0.61480 0.37160 0.30070
H6 H 0.71920 0.36480 0.15430
H7 H 0.78450 0.50410 0.22370
H8 H 0.38960 0.46690 0.10600
H9 H 0.54650 0.61580 0.13770
C9 C -0.30190 0.91740 0.08480
C10 C -0.08250 0.80120 -0.02660
C11 C 0.04910 0.74830 0.03580
C12 C 0.01570 0.78000 0.11370
C13 C -0.20680 0.91370 0.22770
C14 C -0.11440 1.07210 0.26140
C15 C 0.12370 1.05090 0.28860
C16 C 0.10460 0.90800 0.31980
N3 N -0.16110 0.86530 0.14000
N4 N -0.26000 0.88340 0.00380
O4 O -0.46150 0.99120 0.10480
O5 O -0.05310 0.77860 -0.09970
O6 O -0.08910 0.81900 0.27280
F2 F 0.22250 0.66580 0.01110
H10 H -0.26550 0.87430 -0.05490
H11 H 0.02460 0.78860 0.17190
H12 H -0.38660 0.87820 0.22810
H13 H -0.12050 1.13580 0.22070
H14 H -0.19520 1.11390 0.30660
H15 H 0.23040 1.04560 0.23500
H16 H 0.19240 1.13100 0.32990
H17 H 0.24520 0.85900 0.31570
H18 H 0.02840 0.91830 0.38290
loop_
_geom_bond_atom_site_label_1
_geom_bond_atom_site_label_2
_geom_bond_site_symmetry_1
_geom_bond_site_symmetry_2
C1 N1 1_555 1_555
C2 C3 1_555 1_555
C3 C4 1_555 1_555
C4 N1 1_555 1_555
C5 C6 1_555 1_555
C6 C7 1_555 1_555
C7 C8 1_555 1_555
C8 O3 1_555 1_555
N1 C5 1_555 1_555
N2 C1 1_555 1_555
O1 C1 1_555 1_555
O2 C2 1_555 1_555
O3 C5 1_555 1_555
F1 C3 1_555 1_555
H1 N2 1_555 1_555
H2 C4 1_555 1_555
H3 C5 1_555 1_555
H4 C6 1_555 1_555
H5 C6 1_555 1_555
H6 C7 1_555 1_555
H7 C7 1_555 1_555
H8 C8 1_555 1_555
H9 C8 1_555 1_555
C9 N3 1_555 1_555
C10 C11 1_555 1_555
C11 C12 1_555 1_555
C12 N3 1_555 1_555
C13 C14 1_555 1_555
C14 C15 1_555 1_555
C15 C16 1_555 1_555
C16 O6 1_555 1_555
N3 C13 1_555 1_555
N4 C9 1_555 1_555
O4 C9 1_555 1_555
O5 C10 1_555 1_555
O6 C13 1_555 1_555
F2 C11 1_555 1_555
H10 N4 1_555 1_555
H11 C12 1_555 1_555
H12 C13 1_555 1_555
H13 C14 1_555 1_555
H14 C14 1_555 1_555
H15 C15 1_555 1_555
H16 C15 1_555 1_555
H17 C16 1_555 1_555
H18 C16 1_555 1_555
C2 N2 1_555 1_555
C10 N4 1_555 1_555

#END
