
#######################################################################
#
#                 Cambridge Crystallographic Data Centre
#                                CCDC 
#
#######################################################################
#
# If this CIF has been generated from an entry in the Cambridge 
# Structural Database, then it will include bibliographic, chemical, 
# crystal, experimental, refinement or atomic coordinate data resulting 
# from the CCDC's data processing and validation procedures.
#
#######################################################################

data_BIPLIY
_chemical_formula_moiety         'C10 H7 F3 O3'
_chemical_name_systematic        
4-(trifluoromethyl)-7,8-dihydro-2H-1-benzopyran-2,5(6H)-dione
_symmetry_cell_setting           orthorhombic
_symmetry_space_group_name_H-M   'P 21 21 21'
_symmetry_Int_Tables_number      19
_space_group_name_Hall           'P 2ac 2ab'
loop_
_symmetry_equiv_pos_site_id
_symmetry_equiv_pos_as_xyz
1 x,y,z
2 1/2-x,-y,1/2+z
3 -x,1/2+y,1/2-z
4 1/2+x,1/2-y,-z
_cell_length_a                   9.877(6)
_cell_length_b                   11.908(7)
_cell_length_c                   16.045(10)
_cell_angle_alpha                90
_cell_angle_beta                 90
_cell_angle_gamma                90
_cell_volume                     1887.14
_exptl_crystal_colour            colorless
_exptl_crystal_description       block
_cell_formula_units_Z            8
loop_
_atom_site_label
_atom_site_type_symbol
_atom_site_fract_x
_atom_site_fract_y
_atom_site_fract_z
F1 F -0.0338(4) -0.9581(3) -0.8139(2)
O1 O -0.3400(4) -0.7255(3) -0.9797(2)
F2 F 0.0351(3) -0.9919(3) -0.9372(2)
F3 F -0.1316(4) -1.0854(3) -0.8848(2)
O2 O -0.1394(4) -1.0716(3) -1.0530(3)
C1 C -0.1881(6) -0.9823(5) -1.0722(4)
C2 C -0.2140(5) -0.8909(4) -1.0115(3)
C3 C -0.1739(5) -0.8970(4) -0.9234(3)
C4 C -0.2911(5) -0.8037(4) -1.0341(3)
C5 C -0.2235(6) -0.8198(4) -0.8695(4)
H1 H -0.1950 -0.8220 -0.8143
C6 C -0.3347(6) -0.7765(5) -1.1218(3)
H2 H -0.3271 -0.6964 -1.1314
H3 H -0.4286 -0.7980 -1.1296
O3 O -0.3753(4) -0.6701(3) -0.8501(3)
C7 C -0.2379(7) -0.9623(5) -1.1603(4)
H4 H -0.1776 -1.0001 -1.1989
H5 H -0.3270 -0.9955 -1.1664
C8 C -0.0784(6) -0.9849(5) -0.8913(4)
C9 C -0.3168(6) -0.7358(5) -0.8938(4)
C10 C -0.2456(7) -0.8398(5) -1.1834(4)
H6 H -0.2826 -0.8323 -1.2391
H7 H -0.1554 -0.8077 -1.1833
F4 F 0.0014(4) -0.9621(3) -0.3176(2)
F5 F -0.0675(3) -0.9647(2) -0.4437(2)
O4 O 0.3652(4) -0.7631(3) -0.4605(2)
F6 F 0.0694(4) -1.0920(3) -0.3989(2)
C11 C 0.3052(5) -0.8252(4) -0.5212(4)
C12 C 0.2055(5) -0.8998(4) -0.5060(3)
O5 O 0.0859(4) -1.0515(4) -0.5671(3)
C13 C 0.1586(5) -0.9101(5) -0.4203(4)
C14 C 0.3679(6) -0.7987(4) -0.6038(3)
H8 H 0.4649 -0.7900 -0.5972
H9 H 0.3316 -0.7284 -0.6246
O6 O 0.3906(4) -0.7176(3) -0.3275(3)
C15 C 0.2173(5) -0.8469(5) -0.3603(4)
H10 H 0.1844 -0.8523 -0.3061
C16 C 0.1931(6) -0.9283(5) -0.6631(3)
H11 H 0.1774 -0.9877 -0.7034
H12 H 0.1363 -0.8650 -0.6783
C17 C 0.0405(6) -0.9835(5) -0.3969(4)
C18 C 0.1532(6) -0.9692(5) -0.5778(4)
C19 C 0.3387(6) -0.8933(5) -0.6671(4)
H13 H 0.3597 -0.8672 -0.7229
H14 H 0.3961 -0.9573 -0.6551
C20 C 0.3262(6) -0.7733(5) -0.3762(4)
loop_
_geom_bond_atom_site_label_1
_geom_bond_atom_site_label_2
_geom_bond_site_symmetry_1
_geom_bond_site_symmetry_2
F1 C8 1_555 1_555
O1 C4 1_555 1_555
F2 C8 1_555 1_555
F3 C8 1_555 1_555
O2 C1 1_555 1_555
C1 C2 1_555 1_555
C2 C3 1_555 1_555
C3 C5 1_555 1_555
C4 C2 1_555 1_555
C5 H1 1_555 1_555
C6 C4 1_555 1_555
H2 C6 1_555 1_555
H3 C6 1_555 1_555
O3 C9 1_555 1_555
C7 C1 1_555 1_555
H4 C7 1_555 1_555
H5 C7 1_555 1_555
C8 C3 1_555 1_555
C9 O1 1_555 1_555
C10 C6 1_555 1_555
H6 C10 1_555 1_555
H7 C10 1_555 1_555
F4 C17 1_555 1_555
F5 C17 1_555 1_555
O4 C11 1_555 1_555
F6 C17 1_555 1_555
C11 C12 1_555 1_555
C12 C13 1_555 1_555
O5 C18 1_555 1_555
C13 C15 1_555 1_555
C14 C11 1_555 1_555
H8 C14 1_555 1_555
H9 C14 1_555 1_555
O6 C20 1_555 1_555
C15 H10 1_555 1_555
C16 H11 1_555 1_555
H12 C16 1_555 1_555
C17 C13 1_555 1_555
C18 C12 1_555 1_555
C19 C14 1_555 1_555
H13 C19 1_555 1_555
H14 C19 1_555 1_555
C20 O4 1_555 1_555
C5 C9 1_555 1_555
C7 C10 1_555 1_555
C15 C20 1_555 1_555
C16 C18 1_555 1_555
C16 C19 1_555 1_555

#END
