
#######################################################################
#
#                 Cambridge Crystallographic Data Centre
#                                CCDC 
#
#######################################################################
#
# If this CIF has been generated from an entry in the Cambridge 
# Structural Database, then it will include bibliographic, chemical, 
# crystal, experimental, refinement or atomic coordinate data resulting 
# from the CCDC's data processing and validation procedures.
#
#######################################################################

data_BIPQID
_chemical_formula_moiety         'C12 H13 N1 O3'
_chemical_name_systematic        2-nitro-2-phenylcyclohexan-1-one
_symmetry_cell_setting           orthorhombic
_symmetry_space_group_name_H-M   'P b c a'
_symmetry_Int_Tables_number      61
_space_group_name_Hall           '-P 2ac 2ab'
loop_
_symmetry_equiv_pos_site_id
_symmetry_equiv_pos_as_xyz
1 x,y,z
2 1/2-x,-y,1/2+z
3 1/2+x,1/2-y,-z
4 -x,1/2+y,1/2-z
5 -x,-y,-z
6 1/2+x,y,1/2-z
7 1/2-x,1/2+y,z
8 x,1/2-y,1/2+z
_cell_length_a                   11.0589(9)
_cell_length_b                   12.7626(13)
_cell_length_c                   15.3400(12)
_cell_angle_alpha                90
_cell_angle_beta                 90
_cell_angle_gamma                90
_cell_volume                     2165.09
_exptl_crystal_colour            colorless
_exptl_crystal_description       plate
_cell_formula_units_Z            8
loop_
_atom_site_label
_atom_site_type_symbol
_atom_site_fract_x
_atom_site_fract_y
_atom_site_fract_z
O1 O 1.11886(14) -0.00310(16) 0.09338(11)
O2 O 0.85150(15) 0.14768(19) 0.27900(11)
O3 O 1.02712(16) 0.0775(2) 0.29107(11)
N1 N 0.93852(17) 0.10186(18) 0.24880(12)
C1 C 1.02892(19) -0.0150(2) 0.13737(14)
C2 C 0.9936(2) -0.1181(2) 0.17534(18)
H1 H 0.9973 -0.1142 0.2384
H2 H 1.0502 -0.1715 0.1563
C3 C 0.8659(2) -0.1487(2) 0.14736(18)
H3 H 0.8646 -0.1615 0.0850
H4 H 0.8424 -0.2129 0.1766
C4 C 0.7771(2) -0.0626(2) 0.16961(16)
H5 H 0.7754 -0.0524 0.2323
H6 H 0.6966 -0.0831 0.1510
C5 C 0.81194(18) 0.0392(2) 0.12543(14)
H7 H 0.7537 0.0928 0.1411
H8 H 0.8081 0.0297 0.0628
C6 C 0.93898(17) 0.0771(2) 0.15015(13)
C7 C 0.97945(18) 0.1783(2) 0.10691(14)
C8 C 0.9081(2) 0.2288(2) 0.04587(15)
H9 H 0.8336 0.2004 0.0305
C9 C 0.9464(3) 0.3210(3) 0.00752(18)
H10 H 0.8976 0.3543 -0.0334
C10 C 1.0566(3) 0.3639(3) 0.0296(2)
H11 H 1.0826 0.4256 0.0034
C11 C 1.1281(2) 0.3146(3) 0.09086(19)
H12 H 1.2017 0.3440 0.1069
C12 C 1.0911(2) 0.2220(2) 0.12846(15)
H13 H 1.1409 0.1884 0.1685
loop_
_geom_bond_atom_site_label_1
_geom_bond_atom_site_label_2
_geom_bond_site_symmetry_1
_geom_bond_site_symmetry_2
O1 C1 1_555 1_555
O2 N1 1_555 1_555
O3 N1 1_555 1_555
N1 C6 1_555 1_555
C1 C2 1_555 1_555
C2 H1 1_555 1_555
H2 C2 1_555 1_555
C3 C2 1_555 1_555
H3 C3 1_555 1_555
H4 C3 1_555 1_555
C4 C3 1_555 1_555
H5 C4 1_555 1_555
H6 C4 1_555 1_555
C5 C4 1_555 1_555
H7 C5 1_555 1_555
H8 C5 1_555 1_555
C6 C1 1_555 1_555
C7 C6 1_555 1_555
C8 C7 1_555 1_555
H9 C8 1_555 1_555
C9 C8 1_555 1_555
H10 C9 1_555 1_555
C10 C9 1_555 1_555
H11 C10 1_555 1_555
C11 C10 1_555 1_555
H12 C11 1_555 1_555
C12 C7 1_555 1_555
H13 C12 1_555 1_555
C5 C6 1_555 1_555
C11 C12 1_555 1_555

#END
