
#######################################################################
#
#                 Cambridge Crystallographic Data Centre
#                                CCDC 
#
#######################################################################
#
# If this CIF has been generated from an entry in the Cambridge 
# Structural Database, then it will include bibliographic, chemical, 
# crystal, experimental, refinement or atomic coordinate data resulting 
# from the CCDC's data processing and validation procedures.
#
#######################################################################

data_BIPQEZ
_chemical_formula_moiety         'C12 H17 N1 O1 S1'
_chemical_name_systematic        
2-(ethylamino)-2-(thiophen-2-yl)cyclohexan-1-one
_symmetry_cell_setting           monoclinic
_symmetry_space_group_name_H-M   'P 21/n'
_symmetry_Int_Tables_number      14
_space_group_name_Hall           '-P 2yn'
loop_
_symmetry_equiv_pos_site_id
_symmetry_equiv_pos_as_xyz
1 x,y,z
2 1/2-x,1/2+y,1/2-z
3 -x,-y,-z
4 1/2+x,1/2-y,1/2+z
_cell_length_a                   8.7338(6)
_cell_length_b                   10.3698(8)
_cell_length_c                   13.3729(9)
_cell_angle_alpha                90
_cell_angle_beta                 90.226(7)
_cell_angle_gamma                90
_cell_volume                     1211.14
_exptl_crystal_colour            colorless
_exptl_crystal_description       plate
_cell_formula_units_Z            4
loop_
_atom_site_label
_atom_site_type_symbol
_atom_site_fract_x
_atom_site_fract_y
_atom_site_fract_z
O1 O 0.3619(3) 0.0054(2) -0.10675(18)
N1 N 0.5052(3) 0.2151(3) -0.04653(18)
H1 H 0.533(3) 0.143(3) -0.012(2)
C1 C 0.3375(3) 0.2238(3) -0.05183(19)
C2 C 0.2795(4) 0.0985(4) -0.0989(2)
C3 C 0.1172(4) 0.0965(4) -0.1337(3)
H2 H 0.0495 0.1023 -0.0765
H3 H 0.0964 0.0157 -0.1677
C4 C 0.0864(5) 0.2073(6) -0.2036(3)
H4 H -0.0209 0.2073 -0.2225
H5 H 0.1465 0.1963 -0.2639
C5 C 0.1263(4) 0.3345(5) -0.1556(3)
H6 H 0.0593 0.3493 -0.0990
H7 H 0.1097 0.4035 -0.2034
C6 C 0.2916(3) 0.3373(3) -0.1202(2)
H8 H 0.3093 0.4173 -0.0844
H9 H 0.3578 0.3372 -0.1783
C7 C 0.2635(3) 0.2316(3) 0.0513(2)
C8 C 0.1839(4) 0.1736(5) 0.2119(3)
H10 H 0.1661 0.1225 0.2678
C9 C 0.1440(4) 0.2953(5) 0.2088(3)
H11 H 0.0957 0.3377 0.2613
C10 C 0.5841(3) 0.3187(3) 0.0046(2)
H12 H 0.5419 0.3297 0.0711
H13 H 0.5699 0.3987 -0.0318
C11 C 0.7532(3) 0.2878(4) 0.0122(3)
H14 H 0.7940 0.2748 -0.0536
H15 H 0.7671 0.2108 0.0511
H16 H 0.8058 0.3582 0.0439
S1 S 0.18847(12) 0.36566(10) 0.10198(8)
C12 C 0.2561(3) 0.1237(2) 0.12456(16)
H17 H 0.2917 0.0401 0.1152
S2? S 0.2561(3) 0.1237(2) 0.12456(16)
C13? C 0.18847(12) 0.36566(10) 0.10198(8)
H18? H 0.1764 0.4494 0.0783
loop_
_geom_bond_atom_site_label_1
_geom_bond_atom_site_label_2
_geom_bond_site_symmetry_1
_geom_bond_site_symmetry_2
O1 C2 1_555 1_555
N1 H1 1_555 1_555
C1 N1 1_555 1_555
C2 C1 1_555 1_555
C3 C2 1_555 1_555
H2 C3 1_555 1_555
H3 C3 1_555 1_555
C4 C3 1_555 1_555
H4 C4 1_555 1_555
H5 C4 1_555 1_555
C5 C4 1_555 1_555
H6 C5 1_555 1_555
H7 C5 1_555 1_555
C6 C1 1_555 1_555
H8 C6 1_555 1_555
H9 C6 1_555 1_555
C7 C1 1_555 1_555
C8 H10 1_555 1_555
C9 C8 1_555 1_555
H11 C9 1_555 1_555
C10 N1 1_555 1_555
H12 C10 1_555 1_555
H13 C10 1_555 1_555
C11 C10 1_555 1_555
H14 C11 1_555 1_555
H15 C11 1_555 1_555
H16 C11 1_555 1_555
S1 C7 1_555 1_555
C12 C7 1_555 1_555
H17 C12 1_555 1_555
C5 C6 1_555 1_555
C8 C12 1_555 1_555
C9 S1 1_555 1_555

#END
