
#######################################################################
#
#                 Cambridge Crystallographic Data Centre
#                                CCDC 
#
#######################################################################
#
# If this CIF has been generated from an entry in the Cambridge 
# Structural Database, then it will include bibliographic, chemical, 
# crystal, experimental, refinement or atomic coordinate data resulting 
# from the CCDC's data processing and validation procedures.
#
#######################################################################

data_BIPVOO
_chemical_formula_moiety         '2(C16 H36 N1 1+),B10 Cl10 2-,C1 H2 Cl2'
_chemical_name_systematic        
'bis(tetra-n-butylammonium) decachloro-closo-decaborate dichloromethane solvate'
_symmetry_cell_setting           triclinic
_symmetry_space_group_name_H-M   'P -1'
_symmetry_Int_Tables_number      2
_space_group_name_Hall           '-P 1'
loop_
_symmetry_equiv_pos_site_id
_symmetry_equiv_pos_as_xyz
1 x,y,z
2 -x,-y,-z
_cell_length_a                   12.4333(4)
_cell_length_b                   12.6007(4)
_cell_length_c                   19.7636(7)
_cell_angle_alpha                71.5730(10)
_cell_angle_beta                 75.3840(10)
_cell_angle_gamma                73.4290(10)
_cell_volume                     2770.42
_exptl_crystal_colour            colorless
_exptl_crystal_description       block
_cell_formula_units_Z            2
loop_
_atom_site_label
_atom_site_type_symbol
_atom_site_fract_x
_atom_site_fract_y
_atom_site_fract_z
B1 B 0.7115(4) 0.8491(4) 0.2058(2)
B2 B 0.6360(3) 0.7477(3) 0.2390(2)
B3 B 0.5784(4) 0.8945(3) 0.1881(2)
B4 B 0.6306(4) 0.9511(3) 0.2459(2)
B5 B 0.6860(4) 0.8050(3) 0.2969(2)
B6 B 0.4830(3) 0.8090(3) 0.2547(2)
B7 B 0.4785(4) 0.9535(3) 0.2594(2)
B8 B 0.5542(4) 0.8909(3) 0.3358(2)
B9 B 0.5586(4) 0.7470(3) 0.3313(2)
B10 B 0.4392(4) 0.8502(4) 0.3316(2)
Cl1 Cl 0.84566(9) 0.84686(10) 0.14420(6)
Cl2 Cl 0.68714(9) 0.61299(10) 0.21461(6)
Cl3 Cl 0.54992(10) 0.95356(10) 0.09701(5)
Cl4 Cl 0.67459(10) 1.08308(9) 0.22872(6)
Cl5 Cl 0.80116(9) 0.74482(9) 0.34737(6)
Cl6 Cl 0.39164(9) 0.75282(9) 0.22334(6)
Cl7 Cl 0.37979(10) 1.08981(8) 0.23478(6)
Cl8 Cl 0.55452(9) 0.94510(8) 0.40987(5)
Cl9 Cl 0.56298(10) 0.61265(8) 0.40023(6)
Cl10 Cl 0.30709(9) 0.84899(11) 0.39340(7)
N1 N 0.3963(3) 0.3452(2) 0.37300(16)
C1 C 0.3065(4) 0.4544(3) 0.3772(3)
H1 H 0.3399 0.5189 0.3482
H2 H 0.2448 0.4558 0.3549
C2 C 0.2565(5) 0.4727(4) 0.4501(3)
H3 H 0.2260 0.4069 0.4803
H4 H 0.3168 0.4766 0.4716
C3 C 0.1660(6) 0.5767(5) 0.4505(4)
H5 H 0.1994 0.6421 0.4238
H6 H 0.1108 0.5760 0.4237
C4 C 0.1050(7) 0.5961(7) 0.5189(5)
H7 H 0.0508 0.6684 0.5111
H8 H 0.1577 0.5973 0.5467
H9 H 0.0657 0.5357 0.5449
C5 C 0.3547(4) 0.2400(3) 0.4235(2)
H10 H 0.4145 0.1725 0.4186
H11 H 0.3431 0.2446 0.4730
C6 C 0.2471(4) 0.2235(4) 0.4114(3)
H12 H 0.1862 0.2898 0.4171
H13 H 0.2577 0.2184 0.3621
C7 C 0.2130(4) 0.1186(4) 0.4624(3)
H14 H 0.1975 0.1261 0.5115
H15 H 0.2760 0.0530 0.4590
C8 C 0.1100(4) 0.0970(5) 0.4476(4)
H16 H 0.1210 0.0993 0.3974
H17 H 0.0443 0.1550 0.4590
H18 H 0.0985 0.0229 0.4771
C9 C 0.5018(4) 0.3513(4) 0.3951(2)
H19 H 0.5250 0.4209 0.3645
H20 H 0.4812 0.3582 0.4444
C10 C 0.6017(4) 0.2536(5) 0.3913(3)
H21 H 0.6128 0.2346 0.3458
H22 H 0.5862 0.1871 0.4302
C11 C 0.7084(5) 0.2790(6) 0.3970(4)
H23 H 0.7188 0.3497 0.3607
H24 H 0.6978 0.2927 0.4441
C12 C 0.8079(6) 0.1959(7) 0.3887(5)
H25 H 0.8058 0.1282 0.3800
H26 H 0.8767 0.2078 0.3918
C13 C 0.4217(4) 0.3329(4) 0.2962(2)
H27 H 0.4681 0.2566 0.2963
H28 H 0.3502 0.3381 0.2828
C14 C 0.4807(5) 0.4173(5) 0.2392(3)
H29 H 0.5589 0.4020 0.2459
H30 H 0.4432 0.4940 0.2443
C15 C 0.4803(7) 0.4123(6) 0.1644(3)
H31 H 0.4496 0.3584 0.1572
C16 C 0.5267(8) 0.4899(7) 0.1076(4)
H32 H 0.5570 0.5431 0.1160
H33 H 0.5281 0.4896 0.0604
N2 N 0.1176(3) 0.0694(3) 0.11733(17)
C17 C 0.2155(3) 0.1296(4) 0.0936(2)
H34 H 0.2120 0.1675 0.1301
H35 H 0.2862 0.0717 0.0927
C18 C 0.2205(4) 0.2173(4) 0.0208(2)
H36 H 0.1500 0.2756 0.0202
H37 H 0.2285 0.1802 -0.0170
C19 C 0.3205(5) 0.2730(5) 0.0058(3)
H38 H 0.3895 0.2132 0.0113
H39 H 0.3294 0.3190 -0.0441
C20 C 0.3083(8) 0.3467(6) 0.0538(4)
H40 H 0.3712 0.3838 0.0389
H41 H 0.3075 0.3004 0.1029
H42 H 0.2381 0.4037 0.0509
C21 C 0.1214(4) 0.0022(4) 0.0650(2)
H43 H 0.0556 -0.0321 0.0813
H44 H 0.1140 0.0557 0.0179
C22 C 0.2265(4) -0.0913(4) 0.0557(3)
H45 H 0.2363 -0.1456 0.1023
H46 H 0.2932 -0.0584 0.0365
C23 C 0.2143(6) -0.1529(5) 0.0036(3)
H47 H 0.1467 -0.1843 0.0230
H48 H 0.2037 -0.0976 -0.0425
C24 C 0.3134(7) -0.2461(6) -0.0085(4)
H49 H 0.3015 -0.2811 -0.0419
H50 H 0.3229 -0.3026 0.0367
H51 H 0.3806 -0.2155 -0.0283
C25 C 0.1296(3) -0.0095(4) 0.1925(2)
H52 H 0.2070 -0.0555 0.1905
H53 H 0.1191 0.0378 0.2251
C26 C 0.0482(4) -0.0899(4) 0.2250(3)
H54 H 0.0634 -0.1439 0.1962
H55 H -0.0297 -0.0460 0.2245
C27 C 0.0630(4) -0.1550(5) 0.3028(3)
H56 H 0.0303 -0.2219 0.3174
H57 H 0.1437 -0.1815 0.3048
C28 C 0.0085(6) -0.0840(7) 0.3535(4)
H58 H 0.0496 -0.0257 0.3447
H59 H 0.0088 -0.1312 0.4023
H60 H -0.0688 -0.0486 0.3467
C29 C 0.0024(4) 0.1546(4) 0.1190(3)
H61 H -0.0023 0.2031 0.0703
H62 H -0.0571 0.1119 0.1332
C30 C -0.0214(5) 0.2305(5) 0.1694(3)
H63 H 0.0424 0.2660 0.1601
H64 H -0.0296 0.1843 0.2192
C31 C -0.1309(5) 0.3243(6) 0.1583(4)
H65 H -0.1910 0.2894 0.1582
H66 H -0.1549 0.3591 0.1986
C32 C -0.1147(7) 0.4149(6) 0.0895(5)
H67 H -0.1029 0.3833 0.0492
H68 H -0.0495 0.4434 0.0868
H69 H -0.1813 0.4766 0.0879
C35 C 0.0059(7) 0.5628(7) 0.2273(5)
H74 H -0.0189 0.5643 0.1842
H75 H -0.0532 0.6095 0.2551
Cl15 Cl 0.1364(7) 0.5986(7) 0.2086(6)
Cl16 Cl 0.0524(14) 0.4252(15) 0.2785(10)
C33? C 0.0059(7) 0.5628(7) 0.2273(5)
H70? H -0.0689 0.5912 0.2137
H71? H 0.0075 0.6018 0.2621
Cl11? Cl 0.1075(8) 0.5998(9) 0.1504(7)
Cl12? Cl 0.0233(17) 0.4145(17) 0.2704(12)
C34? C 0.108(6) 0.507(6) 0.187(4)
H72? H 0.1728 0.5424 0.1743
H73? H 0.1394 0.4286 0.1828
Cl13? Cl 0.046(2) 0.561(3) 0.1324(18)
Cl14? Cl 0.055(4) 0.494(3) 0.285(2)
loop_
_geom_bond_atom_site_label_1
_geom_bond_atom_site_label_2
_geom_bond_site_symmetry_1
_geom_bond_site_symmetry_2
B1 B2 1_555 1_555
B2 B3 1_555 1_555
B3 B1 1_555 1_555
B4 B1 1_555 1_555
B5 B1 1_555 1_555
B6 B2 1_555 1_555
B7 B3 1_555 1_555
B8 B4 1_555 1_555
B9 B2 1_555 1_555
B10 B6 1_555 1_555
Cl1 B1 1_555 1_555
Cl2 B2 1_555 1_555
Cl3 B3 1_555 1_555
Cl4 B4 1_555 1_555
Cl5 B5 1_555 1_555
Cl6 B6 1_555 1_555
Cl7 B7 1_555 1_555
Cl8 B8 1_555 1_555
Cl9 B9 1_555 1_555
Cl10 B10 1_555 1_555
N1 C1 1_555 1_555
C1 H1 1_555 1_555
H2 C1 1_555 1_555
C2 C1 1_555 1_555
H3 C2 1_555 1_555
H4 C2 1_555 1_555
C3 C2 1_555 1_555
H5 C3 1_555 1_555
H6 C3 1_555 1_555
C4 C3 1_555 1_555
H7 C4 1_555 1_555
H8 C4 1_555 1_555
H9 C4 1_555 1_555
C5 N1 1_555 1_555
H10 C5 1_555 1_555
H11 C5 1_555 1_555
C6 C5 1_555 1_555
H12 C6 1_555 1_555
H13 C6 1_555 1_555
C7 C6 1_555 1_555
H14 C7 1_555 1_555
H15 C7 1_555 1_555
C8 C7 1_555 1_555
H16 C8 1_555 1_555
H17 C8 1_555 1_555
H18 C8 1_555 1_555
C9 N1 1_555 1_555
H19 C9 1_555 1_555
H20 C9 1_555 1_555
C10 C9 1_555 1_555
H21 C10 1_555 1_555
H22 C10 1_555 1_555
C11 C10 1_555 1_555
H23 C11 1_555 1_555
H24 C11 1_555 1_555
C12 C11 1_555 1_555
H25 C12 1_555 1_555
H26 C12 1_555 1_555
C13 N1 1_555 1_555
H27 C13 1_555 1_555
H28 C13 1_555 1_555
C14 C13 1_555 1_555
H29 C14 1_555 1_555
H30 C14 1_555 1_555
C15 C14 1_555 1_555
H31 C15 1_555 1_555
C16 C15 1_555 1_555
H32 C16 1_555 1_555
H33 C16 1_555 1_555
N2 C17 1_555 1_555
C17 H34 1_555 1_555
H35 C17 1_555 1_555
C18 C17 1_555 1_555
H36 C18 1_555 1_555
H37 C18 1_555 1_555
C19 C18 1_555 1_555
H38 C19 1_555 1_555
H39 C19 1_555 1_555
C20 C19 1_555 1_555
H40 C20 1_555 1_555
H41 C20 1_555 1_555
H42 C20 1_555 1_555
C21 N2 1_555 1_555
H43 C21 1_555 1_555
H44 C21 1_555 1_555
C22 C21 1_555 1_555
H45 C22 1_555 1_555
H46 C22 1_555 1_555
C23 C22 1_555 1_555
H47 C23 1_555 1_555
H48 C23 1_555 1_555
C24 C23 1_555 1_555
H49 C24 1_555 1_555
H50 C24 1_555 1_555
H51 C24 1_555 1_555
C25 N2 1_555 1_555
H52 C25 1_555 1_555
H53 C25 1_555 1_555
C26 C25 1_555 1_555
H54 C26 1_555 1_555
H55 C26 1_555 1_555
C27 C26 1_555 1_555
H56 C27 1_555 1_555
H57 C27 1_555 1_555
C28 C27 1_555 1_555
H58 C28 1_555 1_555
H59 C28 1_555 1_555
H60 C28 1_555 1_555
C29 N2 1_555 1_555
H61 C29 1_555 1_555
H62 C29 1_555 1_555
C30 C29 1_555 1_555
H63 C30 1_555 1_555
H64 C30 1_555 1_555
C31 C30 1_555 1_555
H65 C31 1_555 1_555
H66 C31 1_555 1_555
C32 C31 1_555 1_555
H67 C32 1_555 1_555
H68 C32 1_555 1_555
H69 C32 1_555 1_555
C35 H74 1_555 1_555
H75 C35 1_555 1_555
Cl15 C35 1_555 1_555
Cl16 C35 1_555 1_555
B2 B5 1_555 1_555
B3 B4 1_555 1_555
B3 B6 1_555 1_555
B4 B5 1_555 1_555
B4 B7 1_555 1_555
B5 B8 1_555 1_555
B5 B9 1_555 1_555
B6 B7 1_555 1_555
B6 B9 1_555 1_555
B7 B8 1_555 1_555
B7 B10 1_555 1_555
B8 B9 1_555 1_555
B8 B10 1_555 1_555
B9 B10 1_555 1_555

#END
