
#######################################################################
#
#                 Cambridge Crystallographic Data Centre
#                                CCDC 
#
#######################################################################
#
# If this CIF has been generated from an entry in the Cambridge 
# Structural Database, then it will include bibliographic, chemical, 
# crystal, experimental, refinement or atomic coordinate data resulting 
# from the CCDC's data processing and validation procedures.
#
#######################################################################

data_BIPXEG
_chemical_formula_moiety         'C13 H10 N2 O1 S1'
_chemical_name_systematic        
2-[(pyridin-2-yl)methyl]-1,2-benzothiazol-3(2H)-one
_symmetry_cell_setting           monoclinic
_symmetry_space_group_name_H-M   'P 21/c'
_symmetry_Int_Tables_number      14
_space_group_name_Hall           '-P 2ybc'
loop_
_symmetry_equiv_pos_site_id
_symmetry_equiv_pos_as_xyz
1 x,y,z
2 -x,1/2+y,1/2-z
3 -x,-y,-z
4 x,1/2-y,1/2+z
_cell_length_a                   9.9938(16)
_cell_length_b                   13.994(2)
_cell_length_c                   8.1879(13)
_cell_angle_alpha                90
_cell_angle_beta                 97.361(11)
_cell_angle_gamma                90
_cell_volume                     1135.67
_exptl_crystal_colour            orange
_exptl_crystal_description       block
_cell_formula_units_Z            4
loop_
_atom_site_label
_atom_site_type_symbol
_atom_site_fract_x
_atom_site_fract_y
_atom_site_fract_z
S1 S -0.00005(4) 0.08142(3) 0.14935(5)
C1 C 0.19445(18) 0.14160(11) 0.3715(2)
C2 C 0.07272(18) 0.13780(11) 0.45017(19)
C3 C 0.33465(15) 0.00918(12) 0.1074(2)
C4 C -0.03923(18) 0.10647(10) 0.34564(19)
C5 C 0.0607(2) 0.16055(11) 0.6135(2)
H1 H 0.1354 0.1815 0.6836
C6 C 0.26437(18) 0.10441(13) 0.0974(2)
H2 H 0.3307 0.1547 0.1216
H3 H 0.2201 0.1141 -0.0138
C7 C -0.0609(3) 0.15190(13) 0.6694(2)
H4 H -0.0697 0.1676 0.7779
C8 C -0.1720(3) 0.11968(14) 0.5652(3)
H5 H -0.2543 0.1135 0.6060
C9 C -0.1644(2) 0.09643(13) 0.4024(3)
H6 H -0.2396 0.0750 0.3335
C10 C 0.5034(2) -0.0980(2) 0.2293(3)
H7 H 0.5781 -0.1114 0.3057
C11 C 0.44505(18) -0.00922(17) 0.2229(2)
H8 H 0.4796 0.0383 0.2957
C12 C 0.4492(2) -0.16703(16) 0.1207(4)
H9 H 0.4856 -0.2282 0.1225
C13 C 0.3400(2) -0.14285(15) 0.0101(3)
H10 H 0.3038 -0.1894 -0.0638
O1 O 0.30878(14) 0.16809(10) 0.43059(18)
N1 N 0.16428(13) 0.11084(10) 0.21271(16)
N2 N 0.28248(15) -0.05700(11) 0.0015(2)
loop_
_geom_bond_atom_site_label_1
_geom_bond_atom_site_label_2
_geom_bond_site_symmetry_1
_geom_bond_site_symmetry_2
S1 C4 1_555 1_555
C1 C2 1_555 1_555
C2 C4 1_555 1_555
C3 C6 1_555 1_555
C4 C9 1_555 1_555
C5 C2 1_555 1_555
H1 C5 1_555 1_555
C6 H2 1_555 1_555
H3 C6 1_555 1_555
C7 C5 1_555 1_555
H4 C7 1_555 1_555
C8 C7 1_555 1_555
H5 C8 1_555 1_555
C9 C8 1_555 1_555
H6 C9 1_555 1_555
C10 H7 1_555 1_555
C11 C3 1_555 1_555
H8 C11 1_555 1_555
C12 C10 1_555 1_555
H9 C12 1_555 1_555
C13 C12 1_555 1_555
H10 C13 1_555 1_555
O1 C1 1_555 1_555
N1 S1 1_555 1_555
N2 C3 1_555 1_555
C1 N1 1_555 1_555
C6 N1 1_555 1_555
C10 C11 1_555 1_555
C13 N2 1_555 1_555

#END
