
#######################################################################
#
#                 Cambridge Crystallographic Data Centre
#                                CCDC 
#
#######################################################################
#
# If this CIF has been generated from an entry in the Cambridge 
# Structural Database, then it will include bibliographic, chemical, 
# crystal, experimental, refinement or atomic coordinate data resulting 
# from the CCDC's data processing and validation procedures.
#
#######################################################################

data_BIQKOE
_chemical_formula_moiety         'C37 H30 N2 O3'
_chemical_name_systematic        
6-benzylidene-4-methyl-8-(3-oxo-1-phenylbut-1-en-2-yl)-2,9-diphenyl-2,3-diazaspiro[4.4]non-3-ene-1,7-dione
_symmetry_cell_setting           monoclinic
_symmetry_space_group_name_H-M   'P 21/n'
_symmetry_Int_Tables_number      14
_space_group_name_Hall           '-P 2yn'
loop_
_symmetry_equiv_pos_site_id
_symmetry_equiv_pos_as_xyz
1 x,y,z
2 1/2-x,1/2+y,1/2-z
3 -x,-y,-z
4 1/2+x,1/2-y,1/2+z
_cell_length_a                   9.4914(7)
_cell_length_b                   13.1578(9)
_cell_length_c                   24.0997(19)
_cell_angle_alpha                90
_cell_angle_beta                 90.676(2)
_cell_angle_gamma                90
_cell_volume                     3009.5
_exptl_crystal_colour            colorless
_exptl_crystal_description       Prism
_cell_formula_units_Z            4
loop_
_atom_site_label
_atom_site_type_symbol
_atom_site_fract_x
_atom_site_fract_y
_atom_site_fract_z
O1 O 0.70502(10) 0.74783(7) 0.18210(4)
O2 O 0.59559(11) 1.00226(9) 0.34243(4)
O3 O 0.64577(12) 0.76775(9) 0.36112(4)
N1 N 0.86257(11) 0.85598(8) 0.13918(4)
N2 N 0.92436(11) 0.95163(8) 0.14984(5)
C1 C 0.77558(13) 0.82483(9) 0.18097(5)
C2 C 0.79291(12) 0.90439(9) 0.22671(5)
C3 C 0.86283(13) 0.85148(9) 0.27922(5)
H1 H 0.8112 0.7862 0.2851
C4 C 0.82345(13) 0.92250(10) 0.32774(5)
H2 H 0.8903 0.9812 0.3271
C5 C 0.67935(14) 0.96283(10) 0.31124(5)
C6 C 0.65939(13) 0.95060(9) 0.25016(5)
C7 C 0.53541(14) 0.97742(10) 0.22717(6)
H3 H 0.4712 1.0056 0.2529
C8 C 0.47947(13) 0.97196(10) 0.17067(5)
C9 C 0.33366(15) 0.96600(13) 0.16320(6)
H4 H 0.2743 0.9697 0.1946
C10 C 0.27431(16) 0.95485(15) 0.11122(7)
H5 H 0.1749 0.9501 0.1071
C11 C 0.35764(18) 0.95052(14) 0.06553(7)
H6 H 0.3167 0.9417 0.0297
C12 C 0.50146(17) 0.95899(14) 0.07178(6)
H7 H 0.5597 0.9568 0.0400
C13 C 0.56152(15) 0.97058(12) 0.12355(6)
H8 H 0.6608 0.9778 0.1271
C14 C 0.87834(12) 0.81295(10) 0.08566(5)
C15 C 0.88235(14) 0.70872(11) 0.07937(6)
H9 H 0.8760 0.6654 0.1108
C16 C 0.89573(16) 0.66813(13) 0.02666(7)
H10 H 0.8979 0.5965 0.0220
C17 C 0.90592(19) 0.73024(17) -0.01894(7)
H11 H 0.9145 0.7016 -0.0549
C18 C 0.9036(2) 0.83410(17) -0.01225(7)
H12 H 0.9117 0.8771 -0.0437
C19 C 0.88960(17) 0.87626(13) 0.03978(6)
H13 H 0.8877 0.9480 0.0442
C20 C 0.88791(12) 0.97965(9) 0.19847(5)
C21 C 0.93927(16) 1.07783(10) 0.22200(6)
H14 H 0.9825 1.1183 0.1926
H15 H 1.0092 1.0644 0.2513
H16 H 0.8598 1.1154 0.2376
C22 C 1.01713(14) 0.82475(10) 0.27358(5)
C23 C 1.05538(17) 0.74222(12) 0.24089(7)
H17 H 0.9846 0.7032 0.2225
C24 C 1.1968(2) 0.71650(14) 0.23492(9)
H18 H 1.2221 0.6614 0.2116
C25 C 1.3000(2) 0.77028(15) 0.26254(10)
H19 H 1.3963 0.7526 0.2581
C26 C 1.26377(17) 0.84916(15) 0.29633(8)
H20 H 1.3348 0.8846 0.3166
C27 C 1.12391(14) 0.87775(13) 0.30117(6)
H21 H 1.1005 0.9344 0.3237
C28 C 0.83396(14) 0.87565(10) 0.38450(5)
C29 C 0.74157(17) 0.78522(11) 0.39351(6)
C30 C 0.7691(2) 0.71569(14) 0.44185(8)
H22 H 0.7514 0.7522 0.4765
H23 H 0.8673 0.6929 0.4413
H24 H 0.7064 0.6566 0.4392
C31 C 0.91879(15) 0.91016(11) 0.42519(5)
H25 H 0.9168 0.8738 0.4592
C32 C 1.01464(14) 0.99800(10) 0.42308(5)
C33 C 0.97467(15) 1.09327(11) 0.40397(6)
H26 H 0.8792 1.1053 0.3937
C34 C 1.07165(18) 1.17051(12) 0.39962(7)
H27 H 1.0427 1.2355 0.3866
C35 C 1.21009(19) 1.15403(14) 0.41408(7)
H28 H 1.2773 1.2070 0.4103
C36 C 1.25109(18) 1.06102(15) 0.43403(8)
H29 H 1.3468 1.0496 0.4441
C37 C 1.15378(16) 0.98401(13) 0.43947(7)
H30 H 1.1824 0.9205 0.4546
loop_
_geom_bond_atom_site_label_1
_geom_bond_atom_site_label_2
_geom_bond_site_symmetry_1
_geom_bond_site_symmetry_2
O1 C1 1_555 1_555
O2 C5 1_555 1_555
O3 C29 1_555 1_555
N1 N2 1_555 1_555
N2 C20 1_555 1_555
C1 N1 1_555 1_555
C2 C1 1_555 1_555
C3 C2 1_555 1_555
H1 C3 1_555 1_555
C4 C3 1_555 1_555
H2 C4 1_555 1_555
C5 C4 1_555 1_555
C6 C2 1_555 1_555
C7 C6 1_555 1_555
H3 C7 1_555 1_555
C8 C7 1_555 1_555
C9 C8 1_555 1_555
H4 C9 1_555 1_555
C10 C9 1_555 1_555
H5 C10 1_555 1_555
C11 C10 1_555 1_555
H6 C11 1_555 1_555
C12 C11 1_555 1_555
H7 C12 1_555 1_555
C13 C8 1_555 1_555
H8 C13 1_555 1_555
C14 N1 1_555 1_555
C15 C14 1_555 1_555
H9 C15 1_555 1_555
C16 C15 1_555 1_555
H10 C16 1_555 1_555
C17 C16 1_555 1_555
H11 C17 1_555 1_555
C18 C17 1_555 1_555
H12 C18 1_555 1_555
C19 C14 1_555 1_555
H13 C19 1_555 1_555
C20 C2 1_555 1_555
C21 C20 1_555 1_555
H14 C21 1_555 1_555
H15 C21 1_555 1_555
H16 C21 1_555 1_555
C22 C3 1_555 1_555
C23 C22 1_555 1_555
H17 C23 1_555 1_555
C24 C23 1_555 1_555
H18 C24 1_555 1_555
C25 C24 1_555 1_555
H19 C25 1_555 1_555
C26 C25 1_555 1_555
H20 C26 1_555 1_555
C27 C22 1_555 1_555
H21 C27 1_555 1_555
C28 C4 1_555 1_555
C29 C28 1_555 1_555
C30 C29 1_555 1_555
H22 C30 1_555 1_555
H23 C30 1_555 1_555
H24 C30 1_555 1_555
C31 C28 1_555 1_555
H25 C31 1_555 1_555
C32 C31 1_555 1_555
C33 C32 1_555 1_555
H26 C33 1_555 1_555
C34 C33 1_555 1_555
H27 C34 1_555 1_555
C35 C34 1_555 1_555
H28 C35 1_555 1_555
C36 C35 1_555 1_555
H29 C36 1_555 1_555
C37 C32 1_555 1_555
H30 C37 1_555 1_555
C5 C6 1_555 1_555
C12 C13 1_555 1_555
C18 C19 1_555 1_555
C26 C27 1_555 1_555
C36 C37 1_555 1_555

#END
