
#######################################################################
#
#                 Cambridge Crystallographic Data Centre
#                                CCDC 
#
#######################################################################
#
# If this CIF has been generated from an entry in the Cambridge 
# Structural Database, then it will include bibliographic, chemical, 
# crystal, experimental, refinement or atomic coordinate data resulting 
# from the CCDC's data processing and validation procedures.
#
#######################################################################

data_BIQLAR
_chemical_formula_moiety         'C25 H30 O4,C1 H4 O1'
_chemical_name_systematic        
'15-hydroxy-2,2,4a-trimethyl-1,2,2a,3,4,4a,12,12a,13,14,15,15a-dodecahydrocyclobuta[6,7]cyclonona[1,2-b]naphtho[2,3-e]pyran-6,11-dione methanol solvate'
_symmetry_cell_setting           orthorhombic
_symmetry_space_group_name_H-M   'P 21 21 21'
_symmetry_Int_Tables_number      19
_space_group_name_Hall           'P 2ac 2ab'
loop_
_symmetry_equiv_pos_site_id
_symmetry_equiv_pos_as_xyz
1 x,y,z
2 1/2+x,1/2-y,-z
3 -x,1/2+y,1/2-z
4 1/2-x,-y,1/2+z
_cell_length_a                   7.7671(1)
_cell_length_b                   16.3554(3)
_cell_length_c                   17.5789(3)
_cell_angle_alpha                90
_cell_angle_beta                 90
_cell_angle_gamma                90
_cell_volume                     2233.12
_exptl_crystal_colour            yellow
_exptl_crystal_description       block
_cell_formula_units_Z            4
_exptl_crystal_recrystallization_method methanol
_exptl_crystal_preparation       'in MeOH'
loop_
_atom_site_label
_atom_site_type_symbol
_atom_site_fract_x
_atom_site_fract_y
_atom_site_fract_z
O1 O 0.9685(2) 0.42674(10) 0.30142(10)
O2 O 0.3454(3) 0.53968(11) 0.35040(11)
H1 H 0.292(4) 0.4987(12) 0.33742(16)
O3 O 0.6783(3) 0.18979(12) 0.38538(13)
O4 O 1.2448(3) 0.37272(12) 0.37298(13)
C1 C 0.9566(3) 0.35318(15) 0.33501(14)
C2 C 1.1263(4) 0.24435(15) 0.40563(14)
C3 C 0.8127(3) 0.30793(15) 0.33871(14)
C4 C 0.6996(3) 0.61595(14) 0.34943(13)
H2 H 0.6703(3) 0.56827(14) 0.38062(13)
C5 C 0.9767(4) 0.19734(15) 0.41131(14)
C6 C 1.1206(3) 0.32735(15) 0.37187(15)
C7 C 0.5355(4) 0.64449(15) 0.30607(14)
H3 H 0.5697(4) 0.67640(15) 0.26136(14)
C8 C 0.8298(3) 0.45123(15) 0.24827(13)
C9 C 0.6538(3) 0.42840(15) 0.28248(14)
H4 H 0.6387(3) 0.46034(15) 0.32918(14)
C10 C 0.3933(3) 0.58568(16) 0.28410(15)
H5 H 0.2933(3) 0.61919(16) 0.27054(15)
C11 C 0.6862(4) 0.69486(15) 0.39992(14)
C12 C 1.2806(4) 0.21317(17) 0.43324(15)
H6 H 1.3811(4) 0.24380(17) 0.42909(15)
C13 C 0.8116(3) 0.22897(15) 0.37898(15)
C14 C 0.8626(4) 0.54291(16) 0.23767(14)
H7 H 0.9718(4) 0.54879(16) 0.21151(14)
H8 H 0.7744(4) 0.56369(16) 0.20374(14)
C15 C 0.9804(4) 0.12165(17) 0.44679(15)
H9 H 0.8801(4) 0.09110(17) 0.45181(15)
C16 C 0.4981(4) 0.70318(15) 0.37310(15)
H10 H 0.4677(4) 0.75810(15) 0.35722(15)
H11 H 0.4148(4) 0.68196(15) 0.40916(15)
C17 C 0.8672(4) 0.59852(16) 0.30706(16)
H12 H 0.9149(4) 0.65059(16) 0.29113(16)
H13 H 0.9474(4) 0.57493(16) 0.34320(16)
C18 C 1.2853(4) 0.13680(18) 0.46684(16)
H14 H 1.3894(4) 0.11564(18) 0.48409(16)
C19 C 0.4962(4) 0.44428(16) 0.23132(15)
H15 H 0.5206(4) 0.41921(16) 0.18249(15)
H16 H 0.4007(4) 0.41422(16) 0.25325(15)
C20 C 0.4310(4) 0.53084(17) 0.21503(15)
H17 H 0.3262(4) 0.52643(17) 0.18527(15)
H18 H 0.5158(4) 0.55826(17) 0.18357(15)
C21 C 1.1359(4) 0.09182(18) 0.47485(15)
H19 H 1.1392(4) 0.04133(18) 0.49913(15)
C22 C 0.6485(4) 0.33740(15) 0.30427(16)
H20 H 0.6239(4) 0.30532(15) 0.25915(16)
H21 H 0.5554(4) 0.32863(15) 0.34016(16)
C23 C 0.8666(4) 0.40751(19) 0.17359(15)
H22 H 0.9841(9) 0.4168(12) 0.1591(7)
H23 H 0.847(3) 0.3499(3) 0.1798(4)
H24 H 0.791(2) 0.4283(10) 0.1347(3)
C24 C 0.7960(4) 0.76544(17) 0.37268(19)
H25 H 0.9153(5) 0.7527(7) 0.3804(13)
H26 H 0.775(2) 0.7746(10) 0.3195(4)
H27 H 0.767(2) 0.8138(4) 0.4008(10)
C25 C 0.7093(5) 0.68141(19) 0.48498(16)
H28 H 0.636(2) 0.6375(10) 0.5014(3)
H29 H 0.8272(8) 0.6678(15) 0.4954(2)
H30 H 0.679(3) 0.7305(5) 0.51183(19)
O5 O 0.2915(6) 0.5513(3) 0.50437(19)
H31 H 0.3248(16) 0.556(5) 0.4603(3)
C26 C 0.1183(9) 0.5393(5) 0.5050(3)
H32 H 0.0630(11) 0.582(2) 0.476(3)
H33 H 0.0923(10) 0.4872(16) 0.483(3)
H34 H 0.0772(14) 0.540(4) 0.5565(4)
loop_
_geom_bond_atom_site_label_1
_geom_bond_atom_site_label_2
_geom_bond_site_symmetry_1
_geom_bond_site_symmetry_2
O1 C1 1_555 1_555
O2 H1 1_555 1_555
O3 C13 1_555 1_555
O4 C6 1_555 1_555
C1 C3 1_555 1_555
C2 C5 1_555 1_555
C3 C13 1_555 1_555
C4 H2 1_555 1_555
C5 C13 1_555 1_555
C6 C1 1_555 1_555
C7 C4 1_555 1_555
H3 C7 1_555 1_555
C8 O1 1_555 1_555
C9 C8 1_555 1_555
H4 C9 1_555 1_555
C10 O2 1_555 1_555
H5 C10 1_555 1_555
C11 C4 1_555 1_555
C12 C2 1_555 1_555
H6 C12 1_555 1_555
C14 C8 1_555 1_555
H7 C14 1_555 1_555
H8 C14 1_555 1_555
C15 C5 1_555 1_555
H9 C15 1_555 1_555
C16 C7 1_555 1_555
H10 C16 1_555 1_555
H11 C16 1_555 1_555
C17 C4 1_555 1_555
H12 C17 1_555 1_555
H13 C17 1_555 1_555
C18 C12 1_555 1_555
H14 C18 1_555 1_555
C19 C9 1_555 1_555
H15 C19 1_555 1_555
H16 C19 1_555 1_555
C20 C10 1_555 1_555
H17 C20 1_555 1_555
H18 C20 1_555 1_555
C21 C15 1_555 1_555
H19 C21 1_555 1_555
C22 C3 1_555 1_555
H20 C22 1_555 1_555
H21 C22 1_555 1_555
C23 C8 1_555 1_555
H22 C23 1_555 1_555
H23 C23 1_555 1_555
H24 C23 1_555 1_555
C24 C11 1_555 1_555
H25 C24 1_555 1_555
H26 C24 1_555 1_555
H27 C24 1_555 1_555
C25 C11 1_555 1_555
H28 C25 1_555 1_555
H29 C25 1_555 1_555
H30 C25 1_555 1_555
O5 H31 1_555 1_555
C26 O5 1_555 1_555
H32 C26 1_555 1_555
H33 C26 1_555 1_555
H34 C26 1_555 1_555
C2 C6 1_555 1_555
C7 C10 1_555 1_555
C9 C22 1_555 1_555
C11 C16 1_555 1_555
C14 C17 1_555 1_555
C18 C21 1_555 1_555
C19 C20 1_555 1_555

#END
