
#######################################################################
#
#                 Cambridge Crystallographic Data Centre
#                                CCDC 
#
#######################################################################
#
# If this CIF has been generated from an entry in the Cambridge 
# Structural Database, then it will include bibliographic, chemical, 
# crystal, experimental, refinement or atomic coordinate data resulting 
# from the CCDC's data processing and validation procedures.
#
#######################################################################

data_BIQLIZ
_chemical_formula_moiety         'C25 H36 O4'
_chemical_name_systematic        
2,2,4a,6,6,8,8-heptamethyl-1,2,2a,3,4,4a,6,10,10a,11,12,13a-dodecahydrobenzo[b]cyclobuta[5,6]cyclonona[1,2-e]pyran-7,9,13(8H)-trione
_symmetry_cell_setting           monoclinic
_symmetry_space_group_name_H-M   'P 21'
_symmetry_Int_Tables_number      4
_space_group_name_Hall           'P 2yb'
loop_
_symmetry_equiv_pos_site_id
_symmetry_equiv_pos_as_xyz
1 x,y,z
2 -x,1/2+y,-z
_cell_length_a                   13.2880(5)
_cell_length_b                   6.3903(2)
_cell_length_c                   14.4021(5)
_cell_angle_alpha                90
_cell_angle_beta                 111.827(4)
_cell_angle_gamma                90
_cell_volume                     1135.27
_exptl_crystal_colour            colorless
_exptl_crystal_description       block
_cell_formula_units_Z            2
loop_
_atom_site_label
_atom_site_type_symbol
_atom_site_fract_x
_atom_site_fract_y
_atom_site_fract_z
C1 C 0.7405(5) 0.7455(11) 0.7471(3)
H1 H 0.7738 0.8672 0.7318
H2 H 0.7826 0.6988 0.8136
H3 H 0.6685 0.7796 0.7426
C2 C 0.6838(5) 0.3747(10) 0.6983(4)
H4 H 0.6152 0.4105 0.7020
H5 H 0.7310 0.3201 0.7617
H6 H 0.6731 0.2708 0.6474
C3 C 0.7352(3) 0.5716(8) 0.6725(3)
C4 C 0.8489(3) 0.5163(9) 0.6793(3)
C5 C 0.6627(3) 0.6311(8) 0.5660(3)
C6 C 0.8665(3) 0.4001(8) 0.5936(3)
C7 C 0.8836(5) 0.1643(10) 0.6204(4)
H7 H 0.8164 0.1036 0.6173
H8 H 0.9369 0.1489 0.6869
H9 H 0.9083 0.0945 0.5738
C8 C 0.9672(4) 0.4865(14) 0.5816(4)
H10 H 0.9797 0.4132 0.5287
H11 H 1.0285 0.4682 0.6429
H12 H 0.9573 0.6327 0.5656
C9 C 0.7699(3) 0.4241(6) 0.4963(2)
C10 C 0.6785(3) 0.5292(6) 0.4826(2)
C11 C 0.5896(3) 0.5430(6) 0.3807(2)
H13 H 0.5624 0.6853 0.3692
H14 H 0.5303 0.4524 0.3786
C12 C 0.6288(3) 0.4795(6) 0.2970(2)
H15 H 0.6729 0.5948 0.2879
C13 C 0.7010(3) 0.2863(6) 0.3265(2)
C14 C 0.6406(4) 0.0916(7) 0.3405(3)
H16 H 0.6904 -0.0233 0.3624
H17 H 0.5839 0.0565 0.2780
H18 H 0.6096 0.1199 0.3897
C15 C 0.7608(3) 0.2404(6) 0.2562(2)
H19 H 0.7077 0.2046 0.1909
H20 H 0.8065 0.1187 0.2812
C16 C 0.8315(3) 0.4194(7) 0.2432(2)
H21 H 0.8495 0.5096 0.3014
H22 H 0.8989 0.3589 0.2443
C17 C 0.5322(3) 0.4502(7) 0.1974(3)
H23 H 0.5486 0.3371 0.1604
H24 H 0.4691 0.4093 0.2116
C18 C 0.5049(3) 0.6454(7) 0.1325(3)
H25 H 0.4396 0.6182 0.0745
H26 H 0.4886 0.7576 0.1701
C19 C 0.5916(3) 0.7205(7) 0.0964(2)
C20 C 0.6655(3) 0.5641(7) 0.0763(2)
H27 H 0.6336 0.4238 0.0683
C21 C 0.7860(3) 0.5580(7) 0.1499(2)
H28 H 0.8071 0.7022 0.1714
C22 C 0.8185(3) 0.5165(8) 0.0577(3)
C23 C 0.7080(3) 0.6088(8) -0.0076(3)
H29 H 0.6710 0.5302 -0.0684
H30 H 0.7107 0.7565 -0.0220
C24 C 0.9192(4) 0.6308(12) 0.0581(4)
H31 H 0.9135 0.7767 0.0714
H32 H 0.9252 0.6151 -0.0059
H33 H 0.9822 0.5728 0.1091
C25 C 0.8254(4) 0.2854(10) 0.0376(3)
H34 H 0.7628 0.2151 0.0405
H35 H 0.8897 0.2277 0.0872
H36 H 0.8282 0.2671 -0.0275
O1 O 0.9260(3) 0.5588(10) 0.7531(3)
O2 O 0.5884(4) 0.7542(8) 0.5524(3)
O3 O 0.79058(18) 0.3225(4) 0.42264(16)
O4 O 0.5997(3) 0.9065(6) 0.0829(2)
loop_
_geom_bond_atom_site_label_1
_geom_bond_atom_site_label_2
_geom_bond_site_symmetry_1
_geom_bond_site_symmetry_2
C1 H1 1_555 1_555
H2 C1 1_555 1_555
H3 C1 1_555 1_555
C2 H4 1_555 1_555
H5 C2 1_555 1_555
H6 C2 1_555 1_555
C3 C1 1_555 1_555
C4 C3 1_555 1_555
C5 C3 1_555 1_555
C6 C4 1_555 1_555
C7 C6 1_555 1_555
H7 C7 1_555 1_555
H8 C7 1_555 1_555
H9 C7 1_555 1_555
C8 C6 1_555 1_555
H10 C8 1_555 1_555
H11 C8 1_555 1_555
H12 C8 1_555 1_555
C9 C6 1_555 1_555
C10 C5 1_555 1_555
C11 C10 1_555 1_555
H13 C11 1_555 1_555
H14 C11 1_555 1_555
C12 C11 1_555 1_555
H15 C12 1_555 1_555
C13 C12 1_555 1_555
C14 C13 1_555 1_555
H16 C14 1_555 1_555
H17 C14 1_555 1_555
H18 C14 1_555 1_555
C15 C13 1_555 1_555
H19 C15 1_555 1_555
H20 C15 1_555 1_555
C16 C15 1_555 1_555
H21 C16 1_555 1_555
H22 C16 1_555 1_555
C17 C12 1_555 1_555
H23 C17 1_555 1_555
H24 C17 1_555 1_555
C18 C17 1_555 1_555
H25 C18 1_555 1_555
H26 C18 1_555 1_555
C19 C18 1_555 1_555
C20 C19 1_555 1_555
H27 C20 1_555 1_555
C21 C16 1_555 1_555
H28 C21 1_555 1_555
C22 C21 1_555 1_555
C23 C20 1_555 1_555
H29 C23 1_555 1_555
H30 C23 1_555 1_555
C24 C22 1_555 1_555
H31 C24 1_555 1_555
H32 C24 1_555 1_555
H33 C24 1_555 1_555
C25 C22 1_555 1_555
H34 C25 1_555 1_555
H35 C25 1_555 1_555
H36 C25 1_555 1_555
O1 C4 1_555 1_555
O2 C5 1_555 1_555
O3 C9 1_555 1_555
O4 C19 1_555 1_555
C2 C3 1_555 1_555
C9 C10 1_555 1_555
C13 O3 1_555 1_555
C20 C21 1_555 1_555
C22 C23 1_555 1_555

#END
