
#######################################################################
#
#                 Cambridge Crystallographic Data Centre
#                                CCDC 
#
#######################################################################
#
# If this CIF has been generated from an entry in the Cambridge 
# Structural Database, then it will include bibliographic, chemical, 
# crystal, experimental, refinement or atomic coordinate data resulting 
# from the CCDC's data processing and validation procedures.
#
#######################################################################

data_BIQLUL
_chemical_formula_moiety         'C22 H17 N3 O3 S1'
_chemical_name_systematic        
3-(2,2-dioxo-2H-1,2\l^6^,3-benzoxathiazin-4-yl)-4-ethenyl-2-phenylcyclopentane-1,1-dicarbonitrile
_symmetry_cell_setting           triclinic
_symmetry_space_group_name_H-M   'P -1'
_symmetry_Int_Tables_number      2
_space_group_name_Hall           '-P 1'
loop_
_symmetry_equiv_pos_site_id
_symmetry_equiv_pos_as_xyz
1 x,y,z
2 -x,-y,-z
_cell_length_a                   8.2461(16)
_cell_length_b                   10.300(2)
_cell_length_c                   12.879(3)
_cell_angle_alpha                104.17(3)
_cell_angle_beta                 99.94(3)
_cell_angle_gamma                105.52(3)
_cell_volume                     988.168
_exptl_crystal_colour            colorless
_exptl_crystal_description       Plate
_cell_formula_units_Z            2
loop_
_atom_site_label
_atom_site_type_symbol
_atom_site_fract_x
_atom_site_fract_y
_atom_site_fract_z
S1 S 0.17657(7) 0.39176(5) 0.42793(4)
O1 O 0.35259(19) 0.36138(15) 0.41119(11)
O2 O 0.1651(2) 0.49436(16) 0.37359(12)
O3 O 0.0398(2) 0.26053(16) 0.39396(13)
N1 N 0.3973(3) 0.6073(2) 1.05842(16)
N2 N -0.0335(3) 0.7221(2) 0.92808(18)
N3 N 0.2119(2) 0.46107(17) 0.56110(13)
C1 C 0.4257(3) 0.2981(2) 0.48312(16)
C2 C 0.5259(3) 0.2191(2) 0.44453(18)
H1 H 0.536270 0.203394 0.372084
C3 C 0.6106(3) 0.1639(2) 0.51591(19)
H2 H 0.680076 0.111214 0.491636
C4 C 0.5932(3) 0.1862(2) 0.62370(18)
H3 H 0.649293 0.147134 0.670747
C5 C 0.4932(3) 0.2661(2) 0.66095(16)
H4 H 0.483045 0.281047 0.733412
C6 C 0.4062(2) 0.3252(2) 0.59139(15)
C7 C 0.3060(2) 0.41704(19) 0.62752(15)
C8 C 0.3024(3) 0.4590(2) 0.74798(16)
H5 H 0.418935 0.477230 0.793832
C9 C 0.1696(3) 0.3360(2) 0.77308(19)
H6 H 0.235050 0.304554 0.827489
C10 C 0.0513(3) 0.4076(2) 0.82906(18)
H7 H -0.054353 0.394696 0.775279
H8 H 0.019969 0.368359 0.886836
C11 C 0.1604(3) 0.5652(2) 0.87818(16)
C12 C 0.2483(2) 0.5920(2) 0.78362(15)
H9 H 0.156709 0.587233 0.721808
C13 C 0.0635(3) 0.2091(3) 0.6774(2)
H10 H 0.011020 0.224488 0.613641
C14 C 0.0383(4) 0.0782(3) 0.6761(4)
H11 H 0.088591 0.058399 0.738256
H12 H -0.029915 0.004503 0.612928
C15 C 0.3860(2) 0.7358(2) 0.81543(15)
C16 C 0.3314(3) 0.8514(2) 0.80887(17)
H13 H 0.213462 0.837683 0.783877
C17 C 0.4508(3) 0.9862(2) 0.83919(18)
H14 H 0.412566 1.062442 0.835208
C18 C 0.6259(3) 1.0076(2) 0.87520(19)
H15 H 0.706027 1.097971 0.894828
C19 C 0.6822(3) 0.8945(3) 0.8821(2)
H16 H 0.800396 0.908802 0.906251
C20 C 0.5627(3) 0.7595(2) 0.85300(18)
H17 H 0.601644 0.684156 0.858770
C21 C 0.2944(3) 0.5903(2) 0.98090(16)
C22 C 0.0527(3) 0.6555(2) 0.90551(17)
loop_
_geom_bond_atom_site_label_1
_geom_bond_atom_site_label_2
_geom_bond_site_symmetry_1
_geom_bond_site_symmetry_2
S1 O1 1_555 1_555
O1 C1 1_555 1_555
O2 S1 1_555 1_555
O3 S1 1_555 1_555
N1 C21 1_555 1_555
N2 C22 1_555 1_555
N3 S1 1_555 1_555
C1 C2 1_555 1_555
C2 H1 1_555 1_555
C3 C2 1_555 1_555
H2 C3 1_555 1_555
C4 C3 1_555 1_555
H3 C4 1_555 1_555
C5 C4 1_555 1_555
H4 C5 1_555 1_555
C6 C1 1_555 1_555
C7 N3 1_555 1_555
C8 C7 1_555 1_555
H5 C8 1_555 1_555
C9 C8 1_555 1_555
H6 C9 1_555 1_555
C10 C9 1_555 1_555
H7 C10 1_555 1_555
H8 C10 1_555 1_555
C11 C10 1_555 1_555
C12 C8 1_555 1_555
H9 C12 1_555 1_555
C13 C9 1_555 1_555
H10 C13 1_555 1_555
C14 C13 1_555 1_555
H11 C14 1_555 1_555
H12 C14 1_555 1_555
C15 C12 1_555 1_555
C16 C15 1_555 1_555
H13 C16 1_555 1_555
C17 C16 1_555 1_555
H14 C17 1_555 1_555
C18 C17 1_555 1_555
H15 C18 1_555 1_555
C19 C18 1_555 1_555
H16 C19 1_555 1_555
C20 C15 1_555 1_555
H17 C20 1_555 1_555
C21 C11 1_555 1_555
C22 C11 1_555 1_555
C5 C6 1_555 1_555
C6 C7 1_555 1_555
C11 C12 1_555 1_555
C19 C20 1_555 1_555

#END
