
#######################################################################
#
#                 Cambridge Crystallographic Data Centre
#                                CCDC 
#
#######################################################################
#
# If this CIF has been generated from an entry in the Cambridge 
# Structural Database, then it will include bibliographic, chemical, 
# crystal, experimental, refinement or atomic coordinate data resulting 
# from the CCDC's data processing and validation procedures.
#
#######################################################################

data_BIQLOF
_chemical_formula_moiety         'C22 H17 N3 O3 S1'
_chemical_name_systematic        
3-(2,2-dioxo-2H-1,2\l^6^,3-benzoxathiazin-4-yl)-4-ethenyl-2-phenylcyclopentane-1,1-dicarbonitrile
_symmetry_cell_setting           monoclinic
_symmetry_space_group_name_H-M   'P 21/n'
_symmetry_Int_Tables_number      14
_space_group_name_Hall           '-P 2yn'
loop_
_symmetry_equiv_pos_site_id
_symmetry_equiv_pos_as_xyz
1 x,y,z
2 1/2-x,1/2+y,1/2-z
3 -x,-y,-z
4 1/2+x,1/2-y,1/2+z
_cell_length_a                   7.6209(15)
_cell_length_b                   12.073(2)
_cell_length_c                   21.125(4)
_cell_angle_alpha                90
_cell_angle_beta                 96.86(3)
_cell_angle_gamma                90
_cell_volume                     1929.74
_exptl_crystal_colour            colorless
_exptl_crystal_description       Plate
_cell_formula_units_Z            4
loop_
_atom_site_label
_atom_site_type_symbol
_atom_site_fract_x
_atom_site_fract_y
_atom_site_fract_z
S1 S 0.73514(9) 0.50783(6) 0.44724(3)
O1 O 0.7202(2) 0.44503(16) 0.51272(8)
O2 O 0.6892(3) 0.61888(16) 0.45955(10)
O3 O 0.9006(2) 0.48416(17) 0.42638(9)
N1 N 0.5803(3) 0.45294(18) 0.39714(10)
N2 N 0.1001(3) 0.51038(18) 0.17607(11)
N3 N 0.1511(3) 0.15949(19) 0.21168(11)
C1 C 0.5367(3) 0.3503(2) 0.40290(11)
C2 C 0.6124(3) 0.2798(2) 0.45603(11)
C3 C 0.7070(3) 0.3297(2) 0.50936(12)
C4 C 0.7829(4) 0.2703(3) 0.56114(13)
H1 H 0.844247 0.305842 0.596086
C5 C 0.7656(4) 0.1565(3) 0.55977(14)
H2 H 0.816561 0.114913 0.594203
C6 C 0.6733(4) 0.1031(3) 0.50793(14)
H3 H 0.663095 0.026327 0.507672
C7 C 0.5966(4) 0.1645(2) 0.45660(13)
H4 H 0.533737 0.128611 0.422096
C8 C 0.3958(3) 0.3066(2) 0.35293(11)
H5 H 0.422226 0.229257 0.343746
C9 C 0.3865(3) 0.3739(2) 0.29101(11)
H6 H 0.399991 0.452019 0.303322
C10 C 0.1902(3) 0.3579(2) 0.26148(11)
C11 C 0.0896(4) 0.3705(2) 0.32046(12)
H7 H -0.025286 0.335093 0.313084
H8 H 0.072911 0.448140 0.329971
C12 C 0.2067(3) 0.3132(2) 0.37606(12)
H9 H 0.213034 0.360813 0.413857
C13 C 0.1375(4) 0.2021(2) 0.39225(13)
H10 H 0.125549 0.148751 0.360295
C14 C 0.0925(4) 0.1744(3) 0.44797(15)
H11 H 0.102640 0.225629 0.481103
H12 H 0.050431 0.103531 0.454459
C15 C 0.1376(3) 0.4423(2) 0.21241(11)
C16 C 0.1647(3) 0.2467(2) 0.23251(11)
C17 C 0.5211(3) 0.3505(2) 0.24583(11)
C18 C 0.5835(4) 0.2442(2) 0.23507(13)
H13 H 0.548852 0.184832 0.258748
C19 C 0.6962(4) 0.2266(3) 0.18951(14)
H14 H 0.737376 0.155554 0.182882
C20 C 0.7483(4) 0.3134(3) 0.15382(14)
H15 H 0.822241 0.300729 0.122592
C21 C 0.6903(4) 0.4197(3) 0.16455(14)
H16 H 0.726372 0.478733 0.140933
C22 C 0.5784(3) 0.4379(2) 0.21048(12)
H17 H 0.540942 0.509595 0.217857
loop_
_geom_bond_atom_site_label_1
_geom_bond_atom_site_label_2
_geom_bond_site_symmetry_1
_geom_bond_site_symmetry_2
S1 O1 1_555 1_555
O1 C3 1_555 1_555
O2 S1 1_555 1_555
O3 S1 1_555 1_555
N1 S1 1_555 1_555
N2 C15 1_555 1_555
N3 C16 1_555 1_555
C1 N1 1_555 1_555
C2 C1 1_555 1_555
C3 C2 1_555 1_555
C4 C3 1_555 1_555
H1 C4 1_555 1_555
C5 C4 1_555 1_555
H2 C5 1_555 1_555
C6 C5 1_555 1_555
H3 C6 1_555 1_555
C7 C2 1_555 1_555
H4 C7 1_555 1_555
C8 C1 1_555 1_555
H5 C8 1_555 1_555
C9 C8 1_555 1_555
H6 C9 1_555 1_555
C10 C9 1_555 1_555
C11 C10 1_555 1_555
H7 C11 1_555 1_555
H8 C11 1_555 1_555
C12 C8 1_555 1_555
H9 C12 1_555 1_555
C13 C12 1_555 1_555
H10 C13 1_555 1_555
C14 C13 1_555 1_555
H11 C14 1_555 1_555
H12 C14 1_555 1_555
C15 C10 1_555 1_555
C16 C10 1_555 1_555
C17 C9 1_555 1_555
C18 C17 1_555 1_555
H13 C18 1_555 1_555
C19 C18 1_555 1_555
H14 C19 1_555 1_555
C20 C19 1_555 1_555
H15 C20 1_555 1_555
C21 C20 1_555 1_555
H16 C21 1_555 1_555
C22 C17 1_555 1_555
H17 C22 1_555 1_555
C6 C7 1_555 1_555
C11 C12 1_555 1_555
C21 C22 1_555 1_555

#END
