
#######################################################################
#
#                 Cambridge Crystallographic Data Centre
#                                CCDC 
#
#######################################################################
#
# If this CIF has been generated from an entry in the Cambridge 
# Structural Database, then it will include bibliographic, chemical, 
# crystal, experimental, refinement or atomic coordinate data resulting 
# from the CCDC's data processing and validation procedures.
#
#######################################################################

data_BIRKAR
_chemical_formula_moiety         'C45 H37 B1 N2 S1'
_chemical_name_systematic        
2-(1,3-benzothiazol-2-yl)-1-{2-[bis(2,4,6-trimethylphenyl)boranyl]phenyl}indolizino[3,4,5-ab]isoindole
_symmetry_cell_setting           triclinic
_symmetry_space_group_name_H-M   'P -1'
_symmetry_Int_Tables_number      2
_space_group_name_Hall           '-P 1'
loop_
_symmetry_equiv_pos_site_id
_symmetry_equiv_pos_as_xyz
1 x,y,z
2 -x,-y,-z
_cell_length_a                   9.741(4)
_cell_length_b                   13.927(5)
_cell_length_c                   15.334(6)
_cell_angle_alpha                63.989(11)
_cell_angle_beta                 89.736(13)
_cell_angle_gamma                69.795(12)
_cell_volume                     1727.7
_exptl_crystal_colour            yellow
_exptl_crystal_description       Block
_cell_formula_units_Z            2
loop_
_atom_site_label
_atom_site_type_symbol
_atom_site_fract_x
_atom_site_fract_y
_atom_site_fract_z
B1 B 0.3226(3) 0.3556(3) 0.3917(2)
S1 S 0.54405(7) 0.14247(6) 0.24762(5)
N1 N 0.3729(2) 0.56233(18) 0.06727(15)
N2 N 0.2760(2) 0.25938(19) 0.14590(16)
C1 C 0.4932(3) 0.2994(2) 0.39249(19)
C2 C 0.5822(3) 0.2214(3) 0.4858(2)
H1 H 0.5351 0.1942 0.5408
C3 C 0.7349(3) 0.1828(3) 0.5006(2)
H2 H 0.7911 0.1318 0.5651
C4 C 0.8055(3) 0.2186(3) 0.4215(2)
H3 H 0.9107 0.1933 0.4313
C5 C 0.7237(3) 0.2913(3) 0.3280(2)
H4 H 0.7736 0.3147 0.2737
C6 C 0.5693(3) 0.3311(2) 0.31138(19)
C7 C 0.4876(3) 0.4070(2) 0.20878(19)
C8 C 0.3940(3) 0.3824(2) 0.15742(19)
C9 C 0.3172(3) 0.4846(2) 0.06846(18)
C10 C 0.2053(3) 0.5282(2) -0.01142(19)
H5 H 0.1616 0.4800 -0.0183
C11 C 0.1602(3) 0.6436(3) -0.0803(2)
H6 H 0.0816 0.6740 -0.1331
C12 C 0.2243(3) 0.7184(3) -0.0763(2)
H7 H 0.1913 0.7965 -0.1262
C13 C 0.3356(3) 0.6761(2) 0.00094(19)
C14 C 0.4311(3) 0.7125(2) 0.0414(2)
C15 C 0.4501(3) 0.8175(3) 0.0065(2)
H8 H 0.3918 0.8820 -0.0535
C16 C 0.5537(3) 0.8265(3) 0.0596(2)
H9 H 0.5682 0.8972 0.0357
C17 C 0.6380(3) 0.7326(3) 0.1485(2)
H10 H 0.7078 0.7413 0.1847
C18 C 0.6229(3) 0.6277(3) 0.1853(2)
H11 H 0.6819 0.5646 0.2457
C19 C 0.5189(3) 0.6157(2) 0.1321(2)
C20 C 0.4770(3) 0.5205(2) 0.14780(19)
C21 C 0.3886(3) 0.2717(2) 0.17985(18)
C22 C 0.3070(3) 0.1443(2) 0.17311(19)
C23 C 0.4474(3) 0.0666(2) 0.22988(18)
C24 C 0.4923(3) -0.0515(2) 0.26211(19)
H12 H 0.5872 -0.1038 0.3013
C25 C 0.3953(3) -0.0909(2) 0.2357(2)
H13 H 0.4242 -0.1712 0.2565
C26 C 0.2555(3) -0.0140(3) 0.1788(2)
H14 H 0.1905 -0.0428 0.1615
C27 C 0.2105(3) 0.1025(2) 0.1474(2)
H15 H 0.1150 0.1542 0.1087
C28 C 0.2316(3) 0.4866(2) 0.31397(18)
C29 C 0.2779(3) 0.5758(2) 0.30415(19)
C30 C 0.4060(3) 0.5553(3) 0.3751(2)
H16 H 0.4713 0.5921 0.3376
H17 H 0.4625 0.4720 0.4144
H18 H 0.3668 0.5886 0.4188
C31 C 0.2036(3) 0.6882(2) 0.23008(19)
H19 H 0.2363 0.7468 0.2256
C32 C 0.0834(3) 0.7176(2) 0.1625(2)
C33 C 0.0081(4) 0.8395(3) 0.0807(2)
H20 H 0.0553 0.8479 0.0226
H21 H 0.0175 0.8939 0.1023
H22 H -0.0972 0.8559 0.0640
C34 C 0.0363(3) 0.6307(2) 0.1731(2)
H23 H -0.0461 0.6491 0.1276
C35 C 0.1048(3) 0.5171(2) 0.24771(19)
C36 C 0.0436(3) 0.4288(3) 0.2529(2)
H24 H -0.0503 0.4682 0.2066
H25 H 0.0264 0.3879 0.3199
H26 H 0.1152 0.3733 0.2355
C37 C 0.2489(3) 0.2840(2) 0.47568(19)
C38 C 0.2465(3) 0.1778(2) 0.4870(2)
C39 C 0.3075(3) 0.1304(3) 0.4178(2)
H27 H 0.2434 0.1792 0.3529
H28 H 0.3108 0.0515 0.4436
H29 H 0.4080 0.1297 0.4117
C40 C 0.1825(3) 0.1162(2) 0.56170(19)
H30 H 0.1820 0.0456 0.5675
C41 C 0.1201(3) 0.1533(3) 0.6272(2)
C42 C 0.0560(3) 0.0821(3) 0.7092(2)
H31 H -0.0404 0.1325 0.7133
H32 H 0.1240 0.0447 0.7718
H33 H 0.0429 0.0229 0.6957
C43 C 0.1229(3) 0.2564(3) 0.6175(2)
H34 H 0.0804 0.2836 0.6622
C44 C 0.1861(3) 0.3219(2) 0.5442(2)
C45 C 0.1923(3) 0.4285(3) 0.5444(2)
H35 H 0.2952 0.4145 0.5655
H36 H 0.1305 0.4467 0.5899
H37 H 0.1553 0.4937 0.4778
loop_
_geom_bond_atom_site_label_1
_geom_bond_atom_site_label_2
_geom_bond_site_symmetry_1
_geom_bond_site_symmetry_2
B1 C1 1_555 1_555
S1 C21 1_555 1_555
N1 C9 1_555 1_555
N2 C21 1_555 1_555
C1 C2 1_555 1_555
C2 H1 1_555 1_555
C3 C2 1_555 1_555
H2 C3 1_555 1_555
C4 C3 1_555 1_555
H3 C4 1_555 1_555
C5 C4 1_555 1_555
H4 C5 1_555 1_555
C6 C1 1_555 1_555
C7 C6 1_555 1_555
C8 C7 1_555 1_555
C9 C8 1_555 1_555
C10 C9 1_555 1_555
H5 C10 1_555 1_555
C11 C10 1_555 1_555
H6 C11 1_555 1_555
C12 C11 1_555 1_555
H7 C12 1_555 1_555
C13 N1 1_555 1_555
C14 C13 1_555 1_555
C15 C14 1_555 1_555
H8 C15 1_555 1_555
C16 C15 1_555 1_555
H9 C16 1_555 1_555
C17 C16 1_555 1_555
H10 C17 1_555 1_555
C18 C17 1_555 1_555
H11 C18 1_555 1_555
C19 C14 1_555 1_555
C20 N1 1_555 1_555
C21 C8 1_555 1_555
C22 N2 1_555 1_555
C23 S1 1_555 1_555
C24 C23 1_555 1_555
H12 C24 1_555 1_555
C25 C24 1_555 1_555
H13 C25 1_555 1_555
C26 C25 1_555 1_555
H14 C26 1_555 1_555
C27 C22 1_555 1_555
H15 C27 1_555 1_555
C28 B1 1_555 1_555
C29 C28 1_555 1_555
C30 C29 1_555 1_555
H16 C30 1_555 1_555
H17 C30 1_555 1_555
H18 C30 1_555 1_555
C31 C29 1_555 1_555
H19 C31 1_555 1_555
C32 C31 1_555 1_555
C33 C32 1_555 1_555
H20 C33 1_555 1_555
H21 C33 1_555 1_555
H22 C33 1_555 1_555
C34 C32 1_555 1_555
H23 C34 1_555 1_555
C35 C28 1_555 1_555
C36 C35 1_555 1_555
H24 C36 1_555 1_555
H25 C36 1_555 1_555
H26 C36 1_555 1_555
C37 B1 1_555 1_555
C38 C37 1_555 1_555
C39 C38 1_555 1_555
H27 C39 1_555 1_555
H28 C39 1_555 1_555
H29 C39 1_555 1_555
C40 C38 1_555 1_555
H30 C40 1_555 1_555
C41 C40 1_555 1_555
C42 C41 1_555 1_555
H31 C42 1_555 1_555
H32 C42 1_555 1_555
H33 C42 1_555 1_555
C43 C41 1_555 1_555
H34 C43 1_555 1_555
C44 C37 1_555 1_555
C45 C44 1_555 1_555
H35 C45 1_555 1_555
H36 C45 1_555 1_555
H37 C45 1_555 1_555
C5 C6 1_555 1_555
C7 C20 1_555 1_555
C12 C13 1_555 1_555
C18 C19 1_555 1_555
C19 C20 1_555 1_555
C22 C23 1_555 1_555
C26 C27 1_555 1_555
C34 C35 1_555 1_555
C43 C44 1_555 1_555

#END
