
#######################################################################
#
#                 Cambridge Crystallographic Data Centre
#                                CCDC 
#
#######################################################################
#
# If this CIF has been generated from an entry in the Cambridge 
# Structural Database, then it will include bibliographic, chemical, 
# crystal, experimental, refinement or atomic coordinate data resulting 
# from the CCDC's data processing and validation procedures.
#
#######################################################################

data_BIRQUR
_chemical_formula_moiety         'C24 H22 O2'
_chemical_name_systematic        
4,5-dimethoxy-1,8-dimethylpentacyclo[6.6.6.0^2,7^.0^9,14^.0^15,20^]icosa-2,4,6,9,11,13,15,17,19-nonaene
_symmetry_cell_setting           monoclinic
_symmetry_space_group_name_H-M   'P 21/c'
_symmetry_Int_Tables_number      14
_space_group_name_Hall           '-P 2ybc'
loop_
_symmetry_equiv_pos_site_id
_symmetry_equiv_pos_as_xyz
1 x,y,z
2 -x,1/2+y,1/2-z
3 -x,-y,-z
4 x,1/2-y,1/2+z
_cell_length_a                   15.3874(3)
_cell_length_b                   12.9063(3)
_cell_length_c                   8.8000(2)
_cell_angle_alpha                90
_cell_angle_beta                 92.3150(10)
_cell_angle_gamma                90
_cell_volume                     1746.2
_exptl_crystal_colour            colorless
_exptl_crystal_description       block
_cell_formula_units_Z            4
loop_
_atom_site_label
_atom_site_type_symbol
_atom_site_fract_x
_atom_site_fract_y
_atom_site_fract_z
O1 O 0.83321(5) 0.86319(6) 0.54014(9)
O2 O 0.70336(5) 0.87528(6) 0.34839(9)
C1 C 0.77278(7) 0.43037(8) 0.26412(12)
C2 C 0.83779(7) 0.42170(8) 0.37964(12)
C3 C 0.91599(7) 0.37398(8) 0.35067(13)
H1 H 0.9596 0.3665 0.4295
C4 C 0.93039(8) 0.33679(9) 0.20428(14)
H2 H 0.9842 0.3048 0.1833
C5 C 0.86630(8) 0.34649(9) 0.08994(13)
H3 H 0.8765 0.3214 -0.0093
C6 C 0.78686(7) 0.39291(8) 0.11986(13)
H4 H 0.7427 0.3987 0.0417
C7 C 0.69006(7) 0.48633(8) 0.31243(12)
C8 C 0.81358(7) 0.47134(8) 0.53087(12)
C9 C 0.61983(7) 0.49445(9) 0.18593(13)
H5 H 0.5694 0.5313 0.2238
H6 H 0.6022 0.4248 0.1528
H7 H 0.6427 0.5325 0.0998
C10 C 0.88335(7) 0.46312(9) 0.65782(13)
H8 H 0.8952 0.3899 0.6799
H9 H 0.8631 0.4973 0.7493
H10 H 0.9367 0.4969 0.6260
C11 C 0.72318(7) 0.59087(8) 0.37393(12)
C12 C 0.78879(7) 0.58362(8) 0.48713(12)
C13 C 0.82730(7) 0.67327(8) 0.54697(12)
H11 H 0.8727 0.6684 0.6231
C14 C 0.79907(7) 0.77008(8) 0.49482(12)
C15 C 0.72943(7) 0.77694(8) 0.38613(12)
C16 C 0.69295(7) 0.68723(9) 0.32478(12)
H12 H 0.6473 0.6916 0.2491
C17 C 0.90649(7) 0.86153(9) 0.64405(13)
H13 H 0.9264 0.9326 0.6638
H14 H 0.9535 0.8215 0.6003
H15 H 0.8901 0.8294 0.7396
C18 C 0.62601(7) 0.88363(9) 0.25430(13)
H16 H 0.6108 0.9569 0.2408
H17 H 0.5784 0.8474 0.3025
H18 H 0.6357 0.8524 0.1549
C19 C 0.66182(7) 0.42843(8) 0.45472(12)
C20 C 0.72758(7) 0.41856(8) 0.56847(12)
C21 C 0.71201(8) 0.36487(9) 0.70092(13)
H19 H 0.7573 0.3560 0.7765
C22 C 0.62941(8) 0.32387(9) 0.72286(14)
H20 H 0.6184 0.2870 0.8136
C23 C 0.56353(8) 0.33686(9) 0.61252(15)
H21 H 0.5071 0.3102 0.6288
C24 C 0.57960(7) 0.38898(9) 0.47741(14)
H22 H 0.5344 0.3973 0.4015
loop_
_geom_bond_atom_site_label_1
_geom_bond_atom_site_label_2
_geom_bond_site_symmetry_1
_geom_bond_site_symmetry_2
O1 C14 1_555 1_555
O2 C15 1_555 1_555
C1 C2 1_555 1_555
C2 C3 1_555 1_555
C3 H1 1_555 1_555
C4 C3 1_555 1_555
H2 C4 1_555 1_555
C5 C4 1_555 1_555
H3 C5 1_555 1_555
C6 C1 1_555 1_555
H4 C6 1_555 1_555
C7 C1 1_555 1_555
C8 C2 1_555 1_555
C9 C7 1_555 1_555
H5 C9 1_555 1_555
H6 C9 1_555 1_555
H7 C9 1_555 1_555
C10 C8 1_555 1_555
H8 C10 1_555 1_555
H9 C10 1_555 1_555
H10 C10 1_555 1_555
C11 C7 1_555 1_555
C12 C8 1_555 1_555
C13 C12 1_555 1_555
H11 C13 1_555 1_555
C14 C13 1_555 1_555
C15 C14 1_555 1_555
C16 C11 1_555 1_555
H12 C16 1_555 1_555
C17 O1 1_555 1_555
H13 C17 1_555 1_555
H14 C17 1_555 1_555
H15 C17 1_555 1_555
C18 O2 1_555 1_555
H16 C18 1_555 1_555
H17 C18 1_555 1_555
H18 C18 1_555 1_555
C19 C7 1_555 1_555
C20 C8 1_555 1_555
C21 C20 1_555 1_555
H19 C21 1_555 1_555
C22 C21 1_555 1_555
H20 C22 1_555 1_555
C23 C22 1_555 1_555
H21 C23 1_555 1_555
C24 C19 1_555 1_555
H22 C24 1_555 1_555
C5 C6 1_555 1_555
C11 C12 1_555 1_555
C15 C16 1_555 1_555
C19 C20 1_555 1_555
C23 C24 1_555 1_555

#END
