
#######################################################################
#
#                 Cambridge Crystallographic Data Centre
#                                CCDC 
#
#######################################################################
#
# If this CIF has been generated from an entry in the Cambridge 
# Structural Database, then it will include bibliographic, chemical, 
# crystal, experimental, refinement or atomic coordinate data resulting 
# from the CCDC's data processing and validation procedures.
#
#######################################################################

data_BISKIZ
_chemical_formula_moiety         'C16 H11 N1 O2'
_chemical_name_systematic        1-(1H-Indol-3-yl)-2-phenylethane-1,2-dione
_symmetry_cell_setting           triclinic
_symmetry_space_group_name_H-M   'P -1'
_symmetry_Int_Tables_number      2
_space_group_name_Hall           '-P 1'
loop_
_symmetry_equiv_pos_site_id
_symmetry_equiv_pos_as_xyz
1 x,y,z
2 -x,-y,-z
_cell_length_a                   7.440(3)
_cell_length_b                   8.520(3)
_cell_length_c                   10.916(4)
_cell_angle_alpha                82.128(7)
_cell_angle_beta                 89.698(8)
_cell_angle_gamma                64.857(7)
_cell_volume                     619.406
_exptl_crystal_colour            yellow
_exptl_crystal_description       Block
_cell_formula_units_Z            2
loop_
_atom_site_label
_atom_site_type_symbol
_atom_site_fract_x
_atom_site_fract_y
_atom_site_fract_z
O1 O 0.4255(3) 0.5749(3) 0.7204(2)
O2 O 0.2936(3) 0.4796(3) 0.99358(19)
N1 N -0.1890(3) 0.5730(3) 0.7219(2)
H1 H -0.2914 0.5556 0.7428
C1 C 0.0158(4) 0.6632(3) 0.6125(2)
C2 C 0.0664(5) 0.7525(4) 0.5098(3)
H2 H 0.1916 0.7518 0.5069
C3 C -0.0744(6) 0.8403(5) 0.4146(3)
H3 H -0.0436 0.9013 0.3468
C4 C -0.2607(6) 0.8414(5) 0.4156(3)
H4 H -0.3506 0.9013 0.3479
C5 C -0.3165(5) 0.7561(4) 0.5141(3)
H5 H -0.4424 0.7579 0.5155
C6 C -0.1754(4) 0.6677(3) 0.6108(3)
C7 C -0.0197(4) 0.5131(4) 0.7911(3)
H6 H 0.0050 0.4470 0.8695
C8 C 0.1147(4) 0.5642(3) 0.7286(2)
C9 C 0.3106(4) 0.5238(4) 0.7759(3)
C10 C 0.3798(4) 0.4154(4) 0.9033(3)
C11 C 0.5501(4) 0.2394(4) 0.9155(3)
C12 C 0.6314(5) 0.1654(4) 0.8112(3)
H7 H 0.5873 0.2293 0.7326
C13 C 0.7792(5) -0.0049(4) 0.8255(3)
H8 H 0.8324 -0.0563 0.7560
C14 C 0.8468(5) -0.0970(4) 0.9406(4)
H9 H 0.9469 -0.2108 0.9492
C15 C 0.7688(5) -0.0240(4) 1.0441(3)
H10 H 0.8174 -0.0874 1.1224
C16 C 0.6190(5) 0.1429(4) 1.0320(3)
H11 H 0.5636 0.1912 1.1022
loop_
_geom_bond_atom_site_label_1
_geom_bond_atom_site_label_2
_geom_bond_site_symmetry_1
_geom_bond_site_symmetry_2
O1 C9 1_555 1_555
O2 C10 1_555 1_555
N1 H1 1_555 1_555
C1 C2 1_555 1_555
C2 H2 1_555 1_555
C3 C2 1_555 1_555
H3 C3 1_555 1_555
C4 C3 1_555 1_555
H4 C4 1_555 1_555
C5 C4 1_555 1_555
H5 C5 1_555 1_555
C6 N1 1_555 1_555
C7 N1 1_555 1_555
H6 C7 1_555 1_555
C8 C1 1_555 1_555
C9 C8 1_555 1_555
C10 C9 1_555 1_555
C11 C10 1_555 1_555
C12 C11 1_555 1_555
H7 C12 1_555 1_555
C13 C12 1_555 1_555
H8 C13 1_555 1_555
C14 C13 1_555 1_555
H9 C14 1_555 1_555
C15 C14 1_555 1_555
H10 C15 1_555 1_555
C16 C11 1_555 1_555
H11 C16 1_555 1_555
C1 C6 1_555 1_555
C5 C6 1_555 1_555
C7 C8 1_555 1_555
C15 C16 1_555 1_555

#END
