
#######################################################################
#
#                 Cambridge Crystallographic Data Centre
#                                CCDC 
#
#######################################################################
#
# If this CIF has been generated from an entry in the Cambridge 
# Structural Database, then it will include bibliographic, chemical, 
# crystal, experimental, refinement or atomic coordinate data resulting 
# from the CCDC's data processing and validation procedures.
#
#######################################################################

data_BISMEX
_chemical_formula_moiety         'C15 H14 O3'
_chemical_name_systematic        
'Ethyl 12-oxatetracyclo[6.3.1.0^2,7^.0^9,11^]dodeca-2,4,6-trien-10-ylideneacetate'
_symmetry_cell_setting           triclinic
_symmetry_space_group_name_H-M   'P -1'
_symmetry_Int_Tables_number      2
_space_group_name_Hall           '-P 1'
loop_
_symmetry_equiv_pos_site_id
_symmetry_equiv_pos_as_xyz
1 x,y,z
2 -x,-y,-z
_cell_length_a                   7.471(6)
_cell_length_b                   9.498(7)
_cell_length_c                   9.667(7)
_cell_angle_alpha                77.390(14)
_cell_angle_beta                 70.626(13)
_cell_angle_gamma                86.718(14)
_cell_volume                     631.427
_exptl_crystal_colour            colorless
_exptl_crystal_description       prismatic
_cell_formula_units_Z            2
loop_
_atom_site_label
_atom_site_type_symbol
_atom_site_fract_x
_atom_site_fract_y
_atom_site_fract_z
O1 O 0.44861(18) 0.78676(13) 0.23059(14)
O2 O -0.0593(2) 1.04740(17) 0.22938(18)
O3 O 0.03927(19) 1.23312(14) 0.03476(15)
C1 C 0.3183(3) 1.0406(2) 0.2449(2)
C2 C 0.2702(3) 0.93395(18) 0.3865(2)
H1 H 0.1897 0.9595 0.4803
C3 C 0.3036(3) 0.7750(2) 0.3749(2)
H2 H 0.1898 0.7197 0.3890
C4 C 0.4151(3) 0.71228(18) 0.4788(2)
C5 C 0.3713(3) 0.6209(2) 0.6181(2)
H3 H 0.2493 0.5829 0.6690
C6 C 0.5169(4) 0.5876(2) 0.6796(3)
H4 H 0.4920 0.5248 0.7725
C7 C 0.6944(4) 0.6450(2) 0.6068(3)
H5 H 0.7886 0.6206 0.6506
C8 C 0.7379(3) 0.7396(2) 0.4678(2)
H6 H 0.8585 0.7807 0.4191
C9 C 0.5964(3) 0.77031(18) 0.4050(2)
C10 C 0.5845(3) 0.8663(2) 0.2613(2)
H7 H 0.7059 0.8878 0.1800
C11 C 0.4718(3) 0.99860(18) 0.30656(19)
H8 H 0.5228 1.0660 0.3484
C12 C 0.2608(3) 1.1303(2) 0.1430(2)
H9 H 0.3475 1.1956 0.0686
C13 C 0.0660(3) 1.12941(19) 0.1444(2)
C14 C -0.1445(3) 1.2398(2) 0.0156(3)
H10 H -0.2436 1.2345 0.1116
H11 H -0.1619 1.1593 -0.0258
C15 C -0.1553(4) 1.3777(3) -0.0878(3)
H12 H -0.1491 1.4567 -0.0422
H13 H -0.2728 1.3806 -0.1085
H14 H -0.0511 1.3853 -0.1798
loop_
_geom_bond_atom_site_label_1
_geom_bond_atom_site_label_2
_geom_bond_site_symmetry_1
_geom_bond_site_symmetry_2
O1 C3 1_555 1_555
O2 C13 1_555 1_555
O3 C13 1_555 1_555
C1 C2 1_555 1_555
C2 H1 1_555 1_555
C3 C2 1_555 1_555
H2 C3 1_555 1_555
C4 C3 1_555 1_555
C5 C4 1_555 1_555
H3 C5 1_555 1_555
C6 C5 1_555 1_555
H4 C6 1_555 1_555
C7 C6 1_555 1_555
H5 C7 1_555 1_555
C8 C7 1_555 1_555
H6 C8 1_555 1_555
C9 C4 1_555 1_555
C10 O1 1_555 1_555
H7 C10 1_555 1_555
C11 C1 1_555 1_555
H8 C11 1_555 1_555
C12 C1 1_555 1_555
H9 C12 1_555 1_555
C13 C12 1_555 1_555
C14 O3 1_555 1_555
H10 C14 1_555 1_555
H11 C14 1_555 1_555
C15 C14 1_555 1_555
H12 C15 1_555 1_555
H13 C15 1_555 1_555
H14 C15 1_555 1_555
C2 C11 1_555 1_555
C8 C9 1_555 1_555
C9 C10 1_555 1_555
C10 C11 1_555 1_555

#END
