
#######################################################################
#
#                 Cambridge Crystallographic Data Centre
#                                CCDC 
#
#######################################################################
#
# If this CIF has been generated from an entry in the Cambridge 
# Structural Database, then it will include bibliographic, chemical, 
# crystal, experimental, refinement or atomic coordinate data resulting 
# from the CCDC's data processing and validation procedures.
#
#######################################################################

data_BISMEV14
_chemical_name_common            Piracetam
_chemical_formula_moiety         'C6 H10 N2 O2'
_chemical_name_systematic        2-(2-oxopyrrolidin-1-yl)acetamide
_chemical_properties_biological  'nootropic drug'
_symmetry_cell_setting           monoclinic
_symmetry_space_group_name_H-M   'P 21'
_symmetry_Int_Tables_number      4
_space_group_name_Hall           'P 2yn'
loop_
_symmetry_equiv_pos_site_id
_symmetry_equiv_pos_as_xyz
1 x,y,z
2 1/2-x,1/2+y,1/2-z
_cell_length_a                   6.505(10)
_cell_length_b                   6.418(10)
_cell_length_c                   16.423(10)
_cell_angle_alpha                90
_cell_angle_beta                 92.17(5)
_cell_angle_gamma                90
_cell_volume                     685.154
_cell_formula_units_Z            4
loop_
_atom_site_label
_atom_site_type_symbol
_atom_site_fract_x
_atom_site_fract_y
_atom_site_fract_z
N1 N 0.7094(7) 0.4595(8) -0.1541(4)
C1 C 0.9297(8) 0.7335(12) -0.0951(6)
O1 O 0.4372(5) 0.6603(7) -0.2003(3)
N2 N 1.1129(5) 0.8285(9) -0.0967(4)
H1 H 1.1530 0.9082 -0.0572
H2 H 1.1904 0.8097 -0.1374
C2 C 0.8669(9) 0.6130(12) -0.1710(5)
O2 O 0.8129(5) 0.7536(9) -0.0394(3)
C3 C 0.5096(10) 0.5050(13) -0.1653(5)
C4 C 0.5469(9) 0.1705(13) -0.0990(6)
C5 C 0.7539(9) 0.2748(11) -0.1077(6)
H3 H 0.8155 0.3096 -0.0547
H4 H 0.8472 0.1847 -0.1360
C6 C 0.3907(9) 0.3214(11) -0.1336(6)
H5 H 0.521(5) 0.076(8) -0.056(3)
H6 H 0.529(5) 0.061(8) -0.158(4)
H7 H 0.311(6) 0.405(8) -0.090(3)
H8 H 0.281(5) 0.281(6) -0.165(3)
H9 H 0.995(4) 0.511(7) -0.194(3)
H10 H 0.790(6) 0.728(9) -0.204(3)
O3 O 1.1883(6) 1.1158(9) 0.0402(3)
N3 N 0.8892(6) 1.0445(9) 0.0987(4)
N4 N 1.2880(7) 1.4078(8) 0.1551(4)
O4 O 1.5617(5) 1.2183(8) 0.2022(3)
C7 C 1.4940(9) 1.3751(14) 0.1669(5)
C8 C 1.6104(9) 1.5427(13) 0.1279(6)
C9 C 1.4521(9) 1.7032(14) 0.1026(7)
C10 C 1.2463(10) 1.5965(11) 0.1079(6)
C11 C 1.1332(9) 1.2630(11) 0.1725(5)
C12 C 1.0682(7) 1.1338(11) 0.0968(5)
H11 H 0.771(6) 1.083(7) 0.134(3)
H12 H 1.179(5) 1.553(6) 0.049(3)
H13 H 1.161(6) 1.663(7) 0.127(3)
H14 H 1.465(5) 1.721(9) 0.049(4)
H15 H 1.709(5) 1.555(8) 0.092(3)
H16 H 1.712(5) 1.625(9) 0.189(4)
H17 H 0.850(5) 0.943(7) 0.057(3)
H18 H 1.000(4) 1.297(7) 0.202(3)
H19 H 1.185(6) 1.186(11) 0.209(5)
H20 H 1.460(6) 1.882(9) 0.119(4)
loop_
_geom_bond_atom_site_label_1
_geom_bond_atom_site_label_2
_geom_bond_site_symmetry_1
_geom_bond_site_symmetry_2
N1 C2 1_555 1_555
C1 N2 1_555 1_555
O1 C3 1_555 1_555
N2 H1 1_555 1_555
H2 N2 1_555 1_555
C2 C1 1_555 1_555
O2 C1 1_555 1_555
C3 N1 1_555 1_555
C4 C5 1_555 1_555
C5 N1 1_555 1_555
H3 C5 1_555 1_555
H4 C5 1_555 1_555
C6 C3 1_555 1_555
H5 C4 1_555 1_555
H6 C4 1_555 1_555
H7 C6 1_555 1_555
H8 C6 1_555 1_555
H9 C2 1_555 1_555
H10 C2 1_555 1_555
O3 C12 1_555 1_555
N3 C12 1_555 1_555
N4 C7 1_555 1_555
O4 C7 1_555 1_555
C7 C8 1_555 1_555
C8 C9 1_555 1_555
C9 C10 1_555 1_555
C10 N4 1_555 1_555
C11 N4 1_555 1_555
C12 C11 1_555 1_555
H11 N3 1_555 1_555
H12 C10 1_555 1_555
H13 C10 1_555 1_555
H14 C9 1_555 1_555
H15 C8 1_555 1_555
H16 C8 1_555 1_555
H17 N3 1_555 1_555
H18 C11 1_555 1_555
H19 C11 1_555 1_555
H20 C9 1_555 1_555
C4 C6 1_555 1_555

#END
