
#######################################################################
#
#                 Cambridge Crystallographic Data Centre
#                                CCDC 
#
#######################################################################
#
# If this CIF has been generated from an entry in the Cambridge 
# Structural Database, then it will include bibliographic, chemical, 
# crystal, experimental, refinement or atomic coordinate data resulting 
# from the CCDC's data processing and validation procedures.
#
#######################################################################

data_BISMIB
_chemical_formula_moiety         'C15 H14 Br2 O3'
_chemical_name_systematic        
'Ethyl (9,11-dibromo-12-oxatricyclo[6.3.1.0^2,7^]dodeca-2,4,6-trien-10-ylidene)acetate'
_symmetry_cell_setting           monoclinic
_symmetry_space_group_name_H-M   'P 21/n'
_symmetry_Int_Tables_number      14
_space_group_name_Hall           '-P 2yn'
loop_
_symmetry_equiv_pos_site_id
_symmetry_equiv_pos_as_xyz
1 x,y,z
2 1/2-x,1/2+y,1/2-z
3 -x,-y,-z
4 1/2+x,1/2-y,1/2+z
_cell_length_a                   11.033(2)
_cell_length_b                   10.0044(18)
_cell_length_c                   14.451(3)
_cell_angle_alpha                90
_cell_angle_beta                 95.223(4)
_cell_angle_gamma                90
_cell_volume                     1588.46
_exptl_crystal_colour            colorless
_exptl_crystal_description       prismatic
_cell_formula_units_Z            4
loop_
_atom_site_label
_atom_site_type_symbol
_atom_site_fract_x
_atom_site_fract_y
_atom_site_fract_z
Br1 Br 0.48484(5) -0.15760(5) 0.67695(4)
Br2 Br 0.29359(5) 0.00313(5) 0.85477(3)
O1 O 0.1894(3) -0.1054(3) 0.65634(19)
O2 O 0.5885(3) 0.1551(4) 0.5865(3)
O3 O 0.5795(4) 0.3522(4) 0.6529(3)
C1 C 0.3649(4) 0.0959(4) 0.6802(3)
C2 C 0.3813(4) -0.0189(4) 0.6157(3)
H1 H 0.4211 0.0147 0.5624
C3 C 0.2591(4) -0.0789(5) 0.5796(3)
H2 H 0.2681 -0.1581 0.5410
C4 C 0.1868(5) 0.0302(5) 0.5281(4)
C5 C 0.1870(5) 0.0735(6) 0.4381(4)
H3 H 0.2342 0.0324 0.3962
C6 C 0.1131(7) 0.1814(8) 0.4129(5)
H4 H 0.1098 0.2128 0.3522
C7 C 0.0447(6) 0.2437(7) 0.4743(5)
H5 H -0.0042 0.3158 0.4546
C8 C 0.0474(5) 0.2003(5) 0.5656(4)
H6 H 0.0026 0.2431 0.6084
C9 C 0.1190(4) 0.0916(5) 0.5901(3)
C10 C 0.1476(4) 0.0235(4) 0.6816(3)
H7 H 0.0764 0.0180 0.7173
C11 C 0.2547(4) 0.0944(4) 0.7354(3)
H8 H 0.2312 0.1868 0.7474
C12 C 0.4352(4) 0.2032(4) 0.6870(3)
H9 H 0.4153 0.2687 0.7286
C13 C 0.5417(5) 0.2296(5) 0.6355(3)
C14 C 0.6885(8) 0.3876(7) 0.6052(6)
H10 H 0.7534 0.3240 0.6209
H11 H 0.6692 0.3868 0.5384
C15 C 0.7244(10) 0.5162(10) 0.6354(7)
H12 H 0.6688 0.5810 0.6067
H13 H 0.8049 0.5341 0.6184
H14 H 0.7239 0.5214 0.7017
loop_
_geom_bond_atom_site_label_1
_geom_bond_atom_site_label_2
_geom_bond_site_symmetry_1
_geom_bond_site_symmetry_2
Br1 C2 1_555 1_555
Br2 C11 1_555 1_555
O1 C3 1_555 1_555
O2 C13 1_555 1_555
O3 C13 1_555 1_555
C1 C2 1_555 1_555
C2 H1 1_555 1_555
C3 C2 1_555 1_555
H2 C3 1_555 1_555
C4 C3 1_555 1_555
C5 C4 1_555 1_555
H3 C5 1_555 1_555
C6 C5 1_555 1_555
H4 C6 1_555 1_555
C7 C6 1_555 1_555
H5 C7 1_555 1_555
C8 C7 1_555 1_555
H6 C8 1_555 1_555
C9 C4 1_555 1_555
C10 O1 1_555 1_555
H7 C10 1_555 1_555
C11 C1 1_555 1_555
H8 C11 1_555 1_555
C12 C1 1_555 1_555
H9 C12 1_555 1_555
C13 C12 1_555 1_555
C14 O3 1_555 1_555
H10 C14 1_555 1_555
H11 C14 1_555 1_555
C15 C14 1_555 1_555
H12 C15 1_555 1_555
H13 C15 1_555 1_555
H14 C15 1_555 1_555
C8 C9 1_555 1_555
C9 C10 1_555 1_555
C10 C11 1_555 1_555

#END
