
#######################################################################
#
#                 Cambridge Crystallographic Data Centre
#                                CCDC 
#
#######################################################################
#
# If this CIF has been generated from an entry in the Cambridge 
# Structural Database, then it will include bibliographic, chemical, 
# crystal, experimental, refinement or atomic coordinate data resulting 
# from the CCDC's data processing and validation procedures.
#
#######################################################################

data_BISNOI
_chemical_formula_moiety         'C41 H35 N3 O3'
_chemical_name_systematic        
4'-Acetyl-1,1''-dibenzyl-5-methyl-5'-phenyldispiro[indole-3,2'-pyrrolidine-3',3''-indole]-2,2''(1H,1''H)-dione
_symmetry_cell_setting           monoclinic
_symmetry_space_group_name_H-M   'P 21/c'
_symmetry_Int_Tables_number      14
_space_group_name_Hall           '-P 2ybc'
loop_
_symmetry_equiv_pos_site_id
_symmetry_equiv_pos_as_xyz
1 x,y,z
2 -x,1/2+y,1/2-z
3 -x,-y,-z
4 x,1/2-y,1/2+z
_cell_length_a                   12.7517(5)
_cell_length_b                   9.5503(3)
_cell_length_c                   28.7063(11)
_cell_angle_alpha                90
_cell_angle_beta                 113.504(2)
_cell_angle_gamma                90
_cell_volume                     3205.88
_exptl_crystal_colour            colorless
_exptl_crystal_description       bar
_cell_formula_units_Z            4
loop_
_atom_site_label
_atom_site_type_symbol
_atom_site_fract_x
_atom_site_fract_y
_atom_site_fract_z
O1 O 0.65397(16) -1.0604(2) -0.16160(8)
O2 O 0.59316(15) -0.7713(2) -0.20508(7)
O3 O 1.00873(17) -0.6897(2) -0.09895(8)
N1 N 0.60162(18) -0.5786(2) -0.15649(8)
N2 N 0.80094(17) -0.9510(2) -0.05819(8)
H1 H 0.8087 -1.0042 -0.0329
N3 N 0.51463(18) -0.9998(2) -0.13374(9)
C1 C 0.2301(4) -0.8002(4) -0.25498(15)
H2 H 0.2351 -0.7276 -0.2756
C2 C 0.3250(3) -0.8834(3) -0.22879(13)
H3 H 0.3939 -0.8655 -0.2316
C3 C 0.3175(2) -0.9924(3) -0.19857(12)
C4 C 0.2137(3) -1.0165(4) -0.19530(13)
H4 H 0.2068 -1.0906 -0.1757
C5 C 0.1208(3) -0.9329(7) -0.22058(18)
H5 H 0.0521 -0.9496 -0.2173
C6 C 0.1282(4) -0.8262(6) -0.2502(2)
H6 H 0.0647 -0.7703 -0.2674
C7 C 0.3867(3) -0.5762(4) -0.14514(12)
H7 H 0.4479 -0.6280 -0.1229
C8 C 0.2845(3) -0.5753(4) -0.13942(14)
H8 H 0.2775 -0.6266 -0.1133
C9 C 0.1938(3) -0.5004(4) -0.17153(16)
H9 H 0.1246 -0.5013 -0.1678
C10 C 0.2056(3) -0.4239(4) -0.20920(18)
H10 H 0.1444 -0.3712 -0.2310
C11 C 0.3074(2) -0.4240(4) -0.21537(14)
H11 H 0.3144 -0.3716 -0.2413
C12 C 0.3991(2) -0.5015(3) -0.18328(11)
C13 C 0.6743(2) -0.5281(3) -0.10858(11)
C14 C 0.6723(3) -0.3981(3) -0.08794(14)
H12 H 0.6176 -0.3313 -0.1054
C15 C 0.7554(3) -0.3714(4) -0.03992(15)
H13 H 0.7559 -0.2851 -0.0248
C16 C 0.8373(3) -0.4691(4) -0.01397(13)
H14 H 0.8917 -0.4483 0.0183
C17 C 0.8391(2) -0.5981(3) -0.03562(11)
H15 H 0.8956 -0.6633 -0.0185
C18 C 0.9138(3) -1.1674(4) -0.09254(14)
H16 H 0.8389 -1.1820 -0.0961
C19 C 0.9765(4) -1.2785(4) -0.09893(15)
H17 H 0.9437 -1.3671 -0.1061
C20 C 1.0858(4) -1.2598(5) -0.09489(14)
H18 H 1.1274 -1.3345 -0.0996
C21 C 1.1333(4) -1.1283(5) -0.08377(16)
H19 H 1.2077 -1.1139 -0.0810
C22 C 1.0723(3) -1.0183(4) -0.07669(13)
H20 H 1.1061 -0.9303 -0.0688
C23 C 0.9605(2) -1.0363(3) -0.08108(10)
C24 C 0.4203(3) -0.9154(4) -0.07733(12)
H21 H 0.3515 -0.9615 -0.0950
C25 C 0.4363(3) -0.8358(4) -0.03436(12)
H22 H 0.3772 -0.8295 -0.0233
C26 C 0.5376(3) -0.7660(3) -0.00767(11)
C27 C 0.6264(2) -0.7766(3) -0.02422(10)
H23 H 0.6951 -0.7303 -0.0067
C28 C 0.5094(2) -0.9238(3) -0.09278(10)
C29 C 0.5064(2) -0.5023(3) -0.19370(11)
H24 H 0.4885 -0.5432 -0.2269
H25 H 0.5300 -0.4062 -0.1949
C30 C 0.8702(3) -0.6405(4) -0.17982(13)
H26 H 0.9319 -0.6221 -0.1900
H27 H 0.8362 -0.5535 -0.1763
H28 H 0.8136 -0.6973 -0.2050
C31 C 0.9146(2) -0.7154(3) -0.13044(10)
C32 C 0.83691(19) -0.8242(3) -0.12206(9)
H29 H 0.8094 -0.8874 -0.1514
C33 C 0.8947(2) -0.9129(3) -0.07337(10)
H30 H 0.9483 -0.8527 -0.0469
C34 C 0.6930(2) -0.8877(3) -0.09168(10)
C35 C 0.4206(2) -1.0817(3) -0.16974(12)
H31 H 0.3993 -1.1542 -0.1515
H32 H 0.4460 -1.1271 -0.1936
C36 C 0.6215(2) -0.9930(3) -0.13377(10)
C37 C 0.7320(2) -0.7585(3) -0.11586(9)
C38 C 0.7558(2) -0.6290(3) -0.08311(10)
C39 C 0.6345(2) -0.7080(3) -0.16536(10)
C40 C 0.5540(3) -0.6804(4) 0.03920(14)
H33 H 0.4873 -0.6240 0.0327
H34 H 0.6195 -0.6208 0.0473
H35 H 0.5655 -0.7421 0.0672
C41 C 0.6125(2) -0.8555(3) -0.06648(10)
loop_
_geom_bond_atom_site_label_1
_geom_bond_atom_site_label_2
_geom_bond_site_symmetry_1
_geom_bond_site_symmetry_2
O1 C36 1_555 1_555
O2 C39 1_555 1_555
O3 C31 1_555 1_555
N1 C13 1_555 1_555
N2 H1 1_555 1_555
N3 C28 1_555 1_555
C1 H2 1_555 1_555
C2 C1 1_555 1_555
H3 C2 1_555 1_555
C3 C2 1_555 1_555
C4 C3 1_555 1_555
H4 C4 1_555 1_555
C5 C4 1_555 1_555
H5 C5 1_555 1_555
C6 C1 1_555 1_555
H6 C6 1_555 1_555
C7 H7 1_555 1_555
C8 C7 1_555 1_555
H8 C8 1_555 1_555
C9 C8 1_555 1_555
H9 C9 1_555 1_555
C10 C9 1_555 1_555
H10 C10 1_555 1_555
C11 C10 1_555 1_555
H11 C11 1_555 1_555
C12 C7 1_555 1_555
C13 C14 1_555 1_555
C14 H12 1_555 1_555
C15 C14 1_555 1_555
H13 C15 1_555 1_555
C16 C15 1_555 1_555
H14 C16 1_555 1_555
C17 C16 1_555 1_555
H15 C17 1_555 1_555
C18 H16 1_555 1_555
C19 C18 1_555 1_555
H17 C19 1_555 1_555
C20 C19 1_555 1_555
H18 C20 1_555 1_555
C21 C20 1_555 1_555
H19 C21 1_555 1_555
C22 C21 1_555 1_555
H20 C22 1_555 1_555
C23 C18 1_555 1_555
C24 H21 1_555 1_555
C25 C24 1_555 1_555
H22 C25 1_555 1_555
C26 C25 1_555 1_555
C27 C26 1_555 1_555
H23 C27 1_555 1_555
C28 C24 1_555 1_555
C29 N1 1_555 1_555
H24 C29 1_555 1_555
H25 C29 1_555 1_555
C30 H26 1_555 1_555
H27 C30 1_555 1_555
H28 C30 1_555 1_555
C31 C30 1_555 1_555
C32 C31 1_555 1_555
H29 C32 1_555 1_555
C33 N2 1_555 1_555
H30 C33 1_555 1_555
C34 N2 1_555 1_555
C35 N3 1_555 1_555
H31 C35 1_555 1_555
H32 C35 1_555 1_555
C36 N3 1_555 1_555
C37 C32 1_555 1_555
C38 C13 1_555 1_555
C39 N1 1_555 1_555
C40 C26 1_555 1_555
H33 C40 1_555 1_555
H34 C40 1_555 1_555
H35 C40 1_555 1_555
C41 C27 1_555 1_555
C3 C35 1_555 1_555
C5 C6 1_555 1_555
C11 C12 1_555 1_555
C12 C29 1_555 1_555
C17 C38 1_555 1_555
C22 C23 1_555 1_555
C23 C33 1_555 1_555
C28 C41 1_555 1_555
C32 C33 1_555 1_555
C34 C36 1_555 1_555
C34 C37 1_555 1_555
C34 C41 1_555 1_555
C37 C38 1_555 1_555
C37 C39 1_555 1_555

#END
