
#######################################################################
#
#                 Cambridge Crystallographic Data Centre
#                                CCDC 
#
#######################################################################
#
# If this CIF has been generated from an entry in the Cambridge 
# Structural Database, then it will include bibliographic, chemical, 
# crystal, experimental, refinement or atomic coordinate data resulting 
# from the CCDC's data processing and validation procedures.
#
#######################################################################

data_BISREC
_chemical_name_common            
'Methyl 3a-bromo-8-((4-methylphenyl)sulfonyl)-3,3a,8,8a-tetrahydropyrrolo[2,3-b]indole-1(2H)-carboxylate'
_chemical_formula_moiety         'C19 H19 Br1 N2 O4 S1'
_chemical_name_systematic        
'(3aR,8aR)-Methyl 3a-bromo-8-p-tosyl-3,3a,8,8a-tetrahydropyrrolo[2,3-b]indole-1(2H)-carboxylate'
_symmetry_cell_setting           triclinic
_symmetry_space_group_name_H-M   'P 1'
_symmetry_Int_Tables_number      1
_space_group_name_Hall           'P 1'
loop_
_symmetry_equiv_pos_site_id
_symmetry_equiv_pos_as_xyz
1 x,y,z
_cell_length_a                   8.4913(7)
_cell_length_b                   15.3678(12)
_cell_length_c                   17.3672(14)
_cell_angle_alpha                64.581(2)
_cell_angle_beta                 79.690(2)
_cell_angle_gamma                74.576(2)
_cell_volume                     1967.7
_exptl_crystal_colour            colorless
_exptl_crystal_description       prismatic
_cell_formula_units_Z            4
loop_
_atom_site_label
_atom_site_type_symbol
_atom_site_fract_x
_atom_site_fract_y
_atom_site_fract_z
Br1 Br 0.62880(12) 0.04436(7) -0.01750(6)
S1 S 0.1503(2) 0.00138(15) 0.14186(15)
N1 N 0.3498(8) 0.2112(4) 0.0978(4)
N2 N 0.2957(7) 0.0465(4) 0.1550(4)
O1 O 0.2021(9) 0.3505(5) 0.1089(6)
O2 O 0.0941(8) 0.2657(4) 0.0615(5)
O3 O 0.0329(7) 0.0839(4) 0.0939(5)
O4 O 0.1080(7) -0.0659(5) 0.2230(4)
C1 C 0.5492(8) 0.0847(5) 0.0787(5)
C2 C 0.6294(12) 0.1680(6) 0.0682(6)
H1 H 0.7343 0.1426 0.0932
H2 H 0.6435 0.2122 0.0087
C3 C 0.5036(11) 0.2171(6) 0.1174(6)
H3 H 0.5173 0.1829 0.1782
H4 H 0.5107 0.2852 0.0990
C4 C 0.3669(9) 0.1240(5) 0.0808(5)
H5 H 0.3220 0.1398 0.0271
C5 C 0.4298(8) -0.0200(5) 0.2039(4)
C6 C 0.5737(9) -0.0027(5) 0.1609(5)
C7 C 0.7191(10) -0.0568(6) 0.1975(6)
H6 H 0.8191 -0.0457 0.1674
C8 C 0.7128(13) -0.1274(6) 0.2791(6)
H7 H 0.8096 -0.1629 0.3055
C9 C 0.5693(14) -0.1460(6) 0.3216(6)
H8 H 0.5687 -0.1959 0.3763
C10 C 0.4205(11) -0.0922(6) 0.2858(5)
H9 H 0.3206 -0.1043 0.3154
C11 C 0.2141(11) 0.2824(6) 0.0904(6)
C12 C -0.0627(14) 0.3290(9) 0.0563(12)
H10 H -0.1208 0.3099 0.1117
H11 H -0.1228 0.3243 0.0169
H12 H -0.0506 0.3957 0.0367
C13 C 0.2345(9) -0.0633(5) 0.0776(5)
C14 C 0.3438(12) -0.1511(6) 0.1086(6)
H13 H 0.3790 -0.1743 0.1630
C15 C 0.4021(14) -0.2057(7) 0.0605(7)
H14 H 0.4771 -0.2652 0.0824
C16 C 0.3523(16) -0.1741(9) -0.0178(7)
C17 C 0.242(2) -0.0862(8) -0.0490(7)
H15 H 0.2055 -0.0638 -0.1030
C18 C 0.1851(14) -0.0307(7) -0.0013(7)
H16 H 0.1122 0.0296 -0.0237
C19 C 0.417(3) -0.2346(12) -0.0731(10)
H17 H 0.3338 -0.2664 -0.0732
H18 H 0.5127 -0.2835 -0.0498
H19 H 0.4444 -0.1914 -0.1306
Br2 Br 0.66273(11) 0.84250(7) 0.69494(6)
S2 S 1.0892(3) 0.83065(16) 0.50921(15)
N3 N 0.6871(12) 1.0056(5) 0.4399(6)
N4 N 0.8916(9) 0.8553(4) 0.4949(5)
O5 O 0.6789(13) 1.1352(6) 0.3103(5)
O6 O 0.9068(15) 1.0651(5) 0.3802(5)
O7 O 1.1718(8) 0.7830(5) 0.4547(4)
O8 O 1.1253(9) 0.9197(5) 0.5024(5)
C20 C 0.6333(11) 0.8833(6) 0.5738(6)
C21 C 0.4758(12) 0.9554(7) 0.5496(9)
H20 H 0.4555 1.0028 0.5752
H21 H 0.3844 0.9228 0.5659
C22 C 0.5065(17) 1.0037(8) 0.4533(10)
H22 H 0.4827 0.9654 0.4263
H23 H 0.4399 1.0699 0.4304
C23 C 0.7708(11) 0.9333(5) 0.5157(5)
H24 H 0.8197 0.9637 0.5423
C24 C 0.8107(10) 0.7796(5) 0.5117(5)
C25 C 0.6587(10) 0.7906(5) 0.5587(6)
C26 C 0.5598(11) 0.7287(6) 0.5783(6)
H25 H 0.4596 0.7375 0.6090
C27 C 0.6071(13) 0.6511(6) 0.5527(7)
H26 H 0.5374 0.6084 0.5652
C28 C 0.7564(11) 0.6369(5) 0.5089(5)
H27 H 0.7874 0.5835 0.4934
C29 C 0.8618(11) 0.7000(5) 0.4872(5)
H28 H 0.9628 0.6901 0.4574
C30 C 0.751(2) 1.0756(7) 0.3691(7)
C31 C 0.995(2) 1.1309(10) 0.3070(10)
H29 H 1.0014 1.1147 0.2587
H30 H 1.1031 1.1231 0.3213
H31 H 0.9369 1.1980 0.2930
C32 C 1.1211(10) 0.7420(6) 0.6158(5)
C33 C 1.1578(11) 0.6420(6) 0.6346(6)
H32 H 1.1632 0.6194 0.5922
C34 C 1.1854(13) 0.5786(7) 0.7154(7)
H33 H 1.2056 0.5115 0.7282
C35 C 1.1857(14) 0.6061(8) 0.7789(6)
C36 C 1.1509(13) 0.7064(8) 0.7591(6)
H34 H 1.1506 0.7277 0.8018
C37 C 1.1171(10) 0.7747(7) 0.6787(6)
H35 H 1.0919 0.8417 0.6666
C38 C 1.212(2) 0.5291(11) 0.8703(8)
H36 H 1.2212 0.4646 0.8723
H37 H 1.1215 0.5427 0.9081
H38 H 1.3115 0.5316 0.8879
Br3 Br 0.56002(11) 0.46303(7) 0.14151(6)
S3 S 0.8353(3) 0.48064(15) 0.32420(14)
N5 N 0.5517(13) 0.3023(5) 0.3963(6)
N6 N 0.6539(9) 0.4531(4) 0.3415(4)
O9 O 0.5797(16) 0.1741(6) 0.5252(5)
O10 O 0.7990(14) 0.2459(5) 0.4520(5)
O11 O 0.9549(9) 0.3947(5) 0.3316(5)
O12 O 0.8341(10) 0.5289(5) 0.3766(4)
C39 C 0.4798(11) 0.4233(6) 0.2620(6)
C40 C 0.3791(13) 0.3505(7) 0.2876(7)
H39 H 0.4221 0.3043 0.2608
H40 H 0.2665 0.3818 0.2738
C41 C 0.3931(17) 0.3001(8) 0.3842(10)
H41 H 0.3105 0.3352 0.4131
H42 H 0.3796 0.2327 0.4062
C42 C 0.6239(13) 0.3748(5) 0.3206(5)
H43 H 0.7220 0.3440 0.2946
C43 C 0.5085(10) 0.5297(5) 0.3230(5)
C44 C 0.4076(10) 0.5139(6) 0.2772(5)
C45 C 0.2603(12) 0.5788(7) 0.2559(7)
H44 H 0.1935 0.5702 0.2239
C46 C 0.2096(12) 0.6552(6) 0.2803(7)
H45 H 0.1071 0.6966 0.2677
C47 C 0.3120(13) 0.6706(5) 0.3238(6)
H46 H 0.2791 0.7253 0.3374
C48 C 0.4633(11) 0.6078(6) 0.3485(5)
H47 H 0.5296 0.6176 0.3800
C49 C 0.642(2) 0.2354(7) 0.4643(7)
C50 C 0.893(2) 0.1839(9) 0.5228(9)
H48 H 0.8623 0.2090 0.5666
H49 H 1.0070 0.1819 0.5052
H50 H 0.8726 0.1186 0.5448
C51 C 0.8541(10) 0.5664(5) 0.2186(5)
C52 C 0.7994(12) 0.6675(6) 0.1976(6)
H51 H 0.7513 0.6902 0.2399
C53 C 0.8169(13) 0.7327(7) 0.1149(7)
H52 H 0.7818 0.8000 0.1013
C54 C 0.8850(15) 0.7009(8) 0.0516(7)
C55 C 0.9430(14) 0.6038(8) 0.0717(7)
H53 H 0.9939 0.5822 0.0291
C56 C 0.9279(11) 0.5372(6) 0.1536(6)
H54 H 0.9682 0.4704 0.1661
C57 C 0.901(2) 0.7779(11) -0.0391(8)
H55 H 0.8017 0.8273 -0.0513
H56 H 0.9224 0.7469 -0.0786
H57 H 0.9906 0.8083 -0.0448
Br4 Br 1.17544(10) 0.27033(5) 0.85315(5)
S4 S 0.7859(2) 0.31308(14) 0.69406(14)
N7 N 1.1550(8) 0.1013(4) 0.7371(4)
N8 N 0.9825(7) 0.2654(4) 0.6807(4)
O13 O 1.1480(9) -0.0356(5) 0.7205(5)
O14 O 0.9218(8) 0.0527(4) 0.7605(5)
O15 O 0.7097(7) 0.2339(4) 0.7443(4)
O16 O 0.7371(7) 0.3789(4) 0.6109(4)
C58 C 1.2171(9) 0.2254(5) 0.7605(5)
C59 C 1.3621(10) 0.1415(5) 0.7746(6)
H58 H 1.3677 0.0980 0.8347
H59 H 1.4633 0.1649 0.7534
C60 C 1.3296(10) 0.0899(6) 0.7233(6)
H60 H 1.3635 0.1217 0.6632
H61 H 1.3847 0.0209 0.7449
C61 C 1.0711(8) 0.1869(4) 0.7545(4)
H62 H 1.0001 0.1698 0.8076
C62 C 1.0896(8) 0.3293(5) 0.6310(5)
C63 C 1.2233(9) 0.3106(5) 0.6752(5)
C64 C 1.3443(10) 0.3630(6) 0.6389(6)
H63 H 1.4339 0.3509 0.6687
C65 C 1.3290(12) 0.4348(6) 0.5563(6)
H64 H 1.4098 0.4713 0.5305
C66 C 1.2004(11) 0.4527(6) 0.5128(5)
H65 H 1.1939 0.5018 0.4577
C67 C 1.0747(10) 0.3993(5) 0.5481(5)
H66 H 0.9870 0.4105 0.5173
C68 C 1.0768(12) 0.0333(5) 0.7378(6)
C69 C 0.8184(16) -0.0069(7) 0.7582(9)
H67 H 0.7798 0.0200 0.7021
H68 H 0.7266 -0.0073 0.7995
H69 H 0.8800 -0.0732 0.7713
C70 C 0.7659(10) 0.3839(5) 0.7533(5)
C71 C 0.8223(10) 0.4698(6) 0.7189(5)
H70 H 0.8773 0.4896 0.6649
C72 C 0.7966(13) 0.5261(6) 0.7653(7)
H71 H 0.8309 0.5856 0.7408
C73 C 0.7245(15) 0.4989(7) 0.8437(6)
C74 C 0.6695(18) 0.4117(8) 0.8784(7)
H72 H 0.6177 0.3925 0.9333
C75 C 0.6885(13) 0.3527(7) 0.8351(6)
H73 H 0.6511 0.2942 0.8595
C76 C 0.700(2) 0.5651(8) 0.8928(8)
H74 H 0.7980 0.5521 0.9195
H75 H 0.6106 0.5514 0.9358
H76 H 0.6751 0.6331 0.8537
loop_
_geom_bond_atom_site_label_1
_geom_bond_atom_site_label_2
_geom_bond_site_symmetry_1
_geom_bond_site_symmetry_2
Br1 C1 1_555 1_555
S1 N2 1_555 1_555
N1 C3 1_555 1_555
N2 C4 1_555 1_555
O1 C11 1_555 1_555
O2 C11 1_555 1_555
O3 S1 1_555 1_555
O4 S1 1_555 1_555
C1 C2 1_555 1_555
C2 H1 1_555 1_555
H2 C2 1_555 1_555
C3 C2 1_555 1_555
H3 C3 1_555 1_555
H4 C3 1_555 1_555
C4 N1 1_555 1_555
H5 C4 1_555 1_555
C5 N2 1_555 1_555
C6 C1 1_555 1_555
C7 C6 1_555 1_555
H6 C7 1_555 1_555
C8 C7 1_555 1_555
H7 C8 1_555 1_555
C9 C8 1_555 1_555
H8 C9 1_555 1_555
C10 C5 1_555 1_555
H9 C10 1_555 1_555
C11 N1 1_555 1_555
C12 O2 1_555 1_555
H10 C12 1_555 1_555
H11 C12 1_555 1_555
H12 C12 1_555 1_555
C13 S1 1_555 1_555
C14 C13 1_555 1_555
H13 C14 1_555 1_555
C15 C14 1_555 1_555
H14 C15 1_555 1_555
C16 C15 1_555 1_555
C17 C16 1_555 1_555
H15 C17 1_555 1_555
C18 C13 1_555 1_555
H16 C18 1_555 1_555
C19 C16 1_555 1_555
H17 C19 1_555 1_555
H18 C19 1_555 1_555
H19 C19 1_555 1_555
Br2 C20 1_555 1_555
S2 N4 1_555 1_555
N3 C22 1_555 1_555
N4 C23 1_555 1_555
O5 C30 1_555 1_555
O6 C30 1_555 1_555
O7 S2 1_555 1_555
O8 S2 1_555 1_555
C20 C21 1_555 1_555
C21 H20 1_555 1_555
H21 C21 1_555 1_555
C22 C21 1_555 1_555
H22 C22 1_555 1_555
H23 C22 1_555 1_555
C23 N3 1_555 1_555
H24 C23 1_555 1_555
C24 N4 1_555 1_555
C25 C20 1_555 1_555
C26 C25 1_555 1_555
H25 C26 1_555 1_555
C27 C26 1_555 1_555
H26 C27 1_555 1_555
C28 C27 1_555 1_555
H27 C28 1_555 1_555
C29 C24 1_555 1_555
H28 C29 1_555 1_555
C30 N3 1_555 1_555
C31 O6 1_555 1_555
H29 C31 1_555 1_555
H30 C31 1_555 1_555
H31 C31 1_555 1_555
C32 S2 1_555 1_555
C33 C32 1_555 1_555
H32 C33 1_555 1_555
C34 C33 1_555 1_555
H33 C34 1_555 1_555
C35 C34 1_555 1_555
C36 C35 1_555 1_555
H34 C36 1_555 1_555
C37 C32 1_555 1_555
H35 C37 1_555 1_555
C38 C35 1_555 1_555
H36 C38 1_555 1_555
H37 C38 1_555 1_555
H38 C38 1_555 1_555
Br3 C39 1_555 1_555
S3 N6 1_555 1_555
N5 C41 1_555 1_555
N6 C42 1_555 1_555
O9 C49 1_555 1_555
O10 C49 1_555 1_555
O11 S3 1_555 1_555
O12 S3 1_555 1_555
C39 C40 1_555 1_555
C40 H39 1_555 1_555
H40 C40 1_555 1_555
C41 C40 1_555 1_555
H41 C41 1_555 1_555
H42 C41 1_555 1_555
C42 N5 1_555 1_555
H43 C42 1_555 1_555
C43 N6 1_555 1_555
C44 C39 1_555 1_555
C45 C44 1_555 1_555
H44 C45 1_555 1_555
C46 C45 1_555 1_555
H45 C46 1_555 1_555
C47 C46 1_555 1_555
H46 C47 1_555 1_555
C48 C43 1_555 1_555
H47 C48 1_555 1_555
C49 N5 1_555 1_555
C50 O10 1_555 1_555
H48 C50 1_555 1_555
H49 C50 1_555 1_555
H50 C50 1_555 1_555
C51 S3 1_555 1_555
C52 C51 1_555 1_555
H51 C52 1_555 1_555
C53 C52 1_555 1_555
H52 C53 1_555 1_555
C54 C53 1_555 1_555
C55 C54 1_555 1_555
H53 C55 1_555 1_555
C56 C51 1_555 1_555
H54 C56 1_555 1_555
C57 C54 1_555 1_555
H55 C57 1_555 1_555
H56 C57 1_555 1_555
H57 C57 1_555 1_555
Br4 C58 1_555 1_555
S4 N8 1_555 1_555
N7 C60 1_555 1_555
N8 C61 1_555 1_555
O13 C68 1_555 1_555
O14 C68 1_555 1_555
O15 S4 1_555 1_555
O16 S4 1_555 1_555
C58 C59 1_555 1_555
C59 H58 1_555 1_555
H59 C59 1_555 1_555
C60 C59 1_555 1_555
H60 C60 1_555 1_555
H61 C60 1_555 1_555
C61 N7 1_555 1_555
H62 C61 1_555 1_555
C62 N8 1_555 1_555
C63 C58 1_555 1_555
C64 C63 1_555 1_555
H63 C64 1_555 1_555
C65 C64 1_555 1_555
H64 C65 1_555 1_555
C66 C65 1_555 1_555
H65 C66 1_555 1_555
C67 C62 1_555 1_555
H66 C67 1_555 1_555
C68 N7 1_555 1_555
C69 O14 1_555 1_555
H67 C69 1_555 1_555
H68 C69 1_555 1_555
H69 C69 1_555 1_555
C70 S4 1_555 1_555
C71 C70 1_555 1_555
H70 C71 1_555 1_555
C72 C71 1_555 1_555
H71 C72 1_555 1_555
C73 C72 1_555 1_555
C74 C73 1_555 1_555
H72 C74 1_555 1_555
C75 C70 1_555 1_555
H73 C75 1_555 1_555
C76 C73 1_555 1_555
H74 C76 1_555 1_555
H75 C76 1_555 1_555
H76 C76 1_555 1_555
C1 C4 1_555 1_555
C5 C6 1_555 1_555
C9 C10 1_555 1_555
C17 C18 1_555 1_555
C20 C23 1_555 1_555
C24 C25 1_555 1_555
C28 C29 1_555 1_555
C36 C37 1_555 1_555
C39 C42 1_555 1_555
C43 C44 1_555 1_555
C47 C48 1_555 1_555
C55 C56 1_555 1_555
C58 C61 1_555 1_555
C62 C63 1_555 1_555
C66 C67 1_555 1_555
C74 C75 1_555 1_555

#END
