
#######################################################################
#
#                 Cambridge Crystallographic Data Centre
#                                CCDC 
#
#######################################################################
#
# If this CIF has been generated from an entry in the Cambridge 
# Structural Database, then it will include bibliographic, chemical, 
# crystal, experimental, refinement or atomic coordinate data resulting 
# from the CCDC's data processing and validation procedures.
#
#######################################################################

data_BISWUY
_chemical_formula_moiety         'C16 H22 N2 O5 S1'
_chemical_name_systematic        
5,6-dihydroxy-N,N-dimethyl-4-{[(4-methylphenyl)sulfonyl]amino}cyclohex-2-ene-1-carboxamide
_symmetry_cell_setting           monoclinic
_symmetry_space_group_name_H-M   'P 21'
_symmetry_Int_Tables_number      4
_space_group_name_Hall           'P 2yb'
loop_
_symmetry_equiv_pos_site_id
_symmetry_equiv_pos_as_xyz
1 x,y,z
2 -x,1/2+y,-z
_cell_length_a                   7.3573(2)
_cell_length_b                   7.5270(2)
_cell_length_c                   15.5741(5)
_cell_angle_alpha                90
_cell_angle_beta                 93.163(3)
_cell_angle_gamma                90
_cell_volume                     861.155
_exptl_crystal_colour            colorless
_exptl_crystal_description       needle
_cell_formula_units_Z            2
loop_
_atom_site_label
_atom_site_type_symbol
_atom_site_fract_x
_atom_site_fract_y
_atom_site_fract_z
C1 C 0.7557(5) 0.6943(6) 0.2769(3)
C2 C 0.6436(6) 0.5780(6) 0.2378(3)
C3 C 0.4778(5) 0.5042(5) 0.2781(2)
C4 C 0.4917(4) 0.5298(5) 0.3751(2)
C5 C 0.5562(4) 0.7140(5) 0.4017(2)
C6 C 0.7406(5) 0.7584(5) 0.3681(2)
C7 C 0.7755(5) 0.9595(5) 0.3740(2)
C8 C 0.9782(6) 1.2095(7) 0.3707(3)
C9 C 1.1083(5) 0.9085(7) 0.3719(3)
C10 C 0.5494(5) 0.2095(5) 0.1059(2)
C11 C 0.7095(6) 0.1241(6) 0.1354(2)
C12 C 0.8528(6) 0.1113(6) 0.0829(3)
C13 C 0.8379(6) 0.1780(6) -0.0012(3)
C14 C 0.6775(6) 0.2610(6) -0.0298(3)
C15 C 0.5321(6) 0.2790(6) 0.0238(2)
C16 C 0.9969(7) 0.1581(8) -0.0578(4)
H1 H 0.3378 0.4148 0.4484
H2 H 0.4911 0.6619 0.5124
H3 H 0.5001 0.2341 0.3063
H4 H 0.8513 0.7410 0.2451
H5 H 0.6691 0.5393 0.1817
H6 H 0.3736 0.5665 0.2554
H7 H 0.5754 0.4452 0.3994
H8 H 0.4691 0.8001 0.3820
H9 H 0.8314 0.6995 0.4033
H10 H 0.9157 1.2609 0.3218
H11 H 0.9347 1.2604 0.4215
H12 H 1.1050 1.2317 0.3686
H13 H 1.2130 0.9820 0.3696
H14 H 1.1007 0.8325 0.3231
H15 H 1.1171 0.8390 0.4228
H16 H 0.7190 0.0757 0.1918
H17 H 0.9633 0.0573 0.1037
H18 H 0.6660 0.3062 -0.0868
H19 H 0.4234 0.3378 0.0041
H20 H 1.0243 0.0358 -0.0648
H21 H 1.1003 0.2176 -0.0325
H22 H 0.9651 0.2092 -0.1124
N1 N 0.4468(5) 0.3112(5) 0.2639(2)
N2 N 0.9461(4) 1.0184(5) 0.3712(2)
O1 O 0.3203(3) 0.5026(4) 0.41113(17)
O2 O 0.5784(4) 0.7192(5) 0.49352(16)
O3 O 0.6450(3) 1.0649(4) 0.37877(17)
O4 O 0.2362(4) 0.3445(5) 0.13744(19)
O5 O 0.3149(5) 0.0488(5) 0.1960(2)
S1 S 0.36781(12) 0.2254(2) 0.17544(5)
loop_
_geom_bond_atom_site_label_1
_geom_bond_atom_site_label_2
_geom_bond_site_symmetry_1
_geom_bond_site_symmetry_2
C1 C2 1_555 1_555
C2 C3 1_555 1_555
C3 C4 1_555 1_555
C4 C5 1_555 1_555
C5 C6 1_555 1_555
C6 C1 1_555 1_555
C7 C6 1_555 1_555
C8 H10 1_555 1_555
C9 H13 1_555 1_555
C10 C11 1_555 1_555
C11 C12 1_555 1_555
C12 C13 1_555 1_555
C13 C14 1_555 1_555
C14 C15 1_555 1_555
C15 C10 1_555 1_555
C16 C13 1_555 1_555
H1 O1 1_555 1_555
H2 O2 1_555 1_555
H3 N1 1_555 1_555
H4 C1 1_555 1_555
H5 C2 1_555 1_555
H6 C3 1_555 1_555
H7 C4 1_555 1_555
H8 C5 1_555 1_555
H9 C6 1_555 1_555
H11 C8 1_555 1_555
H12 C8 1_555 1_555
H14 C9 1_555 1_555
H15 C9 1_555 1_555
H16 C11 1_555 1_555
H17 C12 1_555 1_555
H18 C14 1_555 1_555
H19 C15 1_555 1_555
H20 C16 1_555 1_555
H21 C16 1_555 1_555
H22 C16 1_555 1_555
N1 C3 1_555 1_555
N2 C7 1_555 1_555
O1 C4 1_555 1_555
O2 C5 1_555 1_555
O3 C7 1_555 1_555
O4 S1 1_555 1_555
O5 S1 1_555 1_555
S1 C10 1_555 1_555
C8 N2 1_555 1_555
C9 N2 1_555 1_555
N1 S1 1_555 1_555

#END
