
#######################################################################
#
#                 Cambridge Crystallographic Data Centre
#                                CCDC 
#
#######################################################################
#
# If this CIF has been generated from an entry in the Cambridge 
# Structural Database, then it will include bibliographic, chemical, 
# crystal, experimental, refinement or atomic coordinate data resulting 
# from the CCDC's data processing and validation procedures.
#
#######################################################################

data_BISYIO
_chemical_formula_moiety         'C40 H42 Br2 S2,C1 H1 Cl3'
_chemical_name_systematic        
"7,14-dibromo-2,5,9,12-tetra-t-butylperylo[11,10-b:5,4-b']bis(thiophene) chloroform solvate"
_symmetry_cell_setting           triclinic
_symmetry_space_group_name_H-M   'P -1'
_symmetry_Int_Tables_number      2
_space_group_name_Hall           '-P 1'
loop_
_symmetry_equiv_pos_site_id
_symmetry_equiv_pos_as_xyz
1 x,y,z
2 -x,-y,-z
_cell_length_a                   10.5243(7)
_cell_length_b                   13.6699(9)
_cell_length_c                   14.4294(9)
_cell_angle_alpha                88.955(2)
_cell_angle_beta                 78.101(2)
_cell_angle_gamma                78.000(2)
_cell_volume                     1986.25
_exptl_crystal_colour            orange
_exptl_crystal_description       brick
_cell_formula_units_Z            2
loop_
_atom_site_label
_atom_site_type_symbol
_atom_site_fract_x
_atom_site_fract_y
_atom_site_fract_z
Br1 Br 0.03335(4) 0.29008(4) 0.33783(3)
Br2 Br 0.51472(5) 0.68416(3) 0.23075(3)
C1 C 0.3963(3) 0.3744(3) 0.2224(3)
C2 C 0.2869(4) 0.3562(3) 0.2938(3)
C3 C 0.2043(4) 0.3007(3) 0.2657(3)
C4 C 0.2380(4) 0.2516(3) 0.1766(3)
S1 S 0.14869(11) 0.17642(8) 0.13328(8)
C5 C 0.2693(4) 0.1494(3) 0.0296(3)
C6 C 0.3704(4) 0.1973(3) 0.0286(3)
H1 H 0.444436 0.192093 -0.022766
C7 C 0.3544(4) 0.2564(3) 0.1125(3)
C8 C 0.4369(4) 0.3204(3) 0.1342(3)
C9 C 0.5519(4) 0.3327(3) 0.0706(3)
H2 H 0.576832 0.297025 0.011591
C10 C 0.6298(4) 0.3948(3) 0.0911(3)
C11 C 0.5855(4) 0.4523(3) 0.1758(3)
H3 H 0.638029 0.496334 0.190298
C12 C 0.4689(4) 0.4474(3) 0.2387(2)
C13 C 0.4180(4) 0.5140(3) 0.3237(2)
C14 C 0.4454(4) 0.6076(3) 0.3335(3)
C15 C 0.4110(4) 0.6577(3) 0.4225(3)
S2 S 0.44014(11) 0.77358(8) 0.44759(8)
C16 C 0.3678(4) 0.7663(3) 0.5671(3)
C17 C 0.3259(4) 0.6801(3) 0.5856(3)
H4 H 0.284717 0.663288 0.647067
C18 C 0.3497(4) 0.6156(3) 0.5032(3)
C19 C 0.3085(4) 0.5240(3) 0.4944(3)
C20 C 0.2361(4) 0.4809(3) 0.5723(3)
H5 H 0.218852 0.511739 0.633342
C21 C 0.1904(4) 0.3961(3) 0.5620(3)
C22 C 0.2098(4) 0.3553(3) 0.4712(3)
H6 H 0.176090 0.297323 0.463727
C23 C 0.2761(3) 0.3954(3) 0.3911(3)
C24 C 0.3359(3) 0.4771(3) 0.4034(3)
C25 C 0.2528(5) 0.0799(3) -0.0457(3)
C26 C 0.1329(13) 0.1245(9) -0.0864(10)
H7 H 0.123459 0.078347 -0.134539
H8 H 0.144268 0.188318 -0.115401
H9 H 0.053167 0.135712 -0.035690
C27 C 0.2531(15) -0.0233(6) -0.0082(7)
H10 H 0.246370 -0.067879 -0.058644
H11 H 0.177354 -0.020920 0.044787
H12 H 0.335813 -0.048572 0.013618
C28 C 0.3767(13) 0.0676(10) -0.1284(7)
H13 H 0.365718 0.024994 -0.178831
H14 H 0.456347 0.036687 -0.104940
H15 H 0.385987 0.133451 -0.153468
C29 C 0.7611(4) 0.4043(4) 0.0244(3)
C30 C 0.7660(7) 0.5120(5) 0.0066(6)
H16 H 0.845765 0.516085 -0.041049
H17 H 0.768444 0.545119 0.065641
H18 H 0.686971 0.545111 -0.016549
C31 C 0.7774(9) 0.3507(9) -0.0674(5)
H19 H 0.872140 0.326100 -0.093808
H20 H 0.738142 0.396624 -0.111732
H21 H 0.732765 0.294077 -0.057235
C32 C 0.8745(5) 0.3614(6) 0.0700(5)
H22 H 0.958227 0.360175 0.024727
H23 H 0.868989 0.293128 0.089536
H24 H 0.870815 0.402728 0.125644
C33 C 0.3550(4) 0.8537(3) 0.6342(3)
C34 C 0.4927(5) 0.8710(4) 0.6373(4)
H25 H 0.484312 0.926422 0.681710
H26 H 0.536481 0.887441 0.573916
H27 H 0.545736 0.810167 0.658128
C35 C 0.2718(7) 0.9471(4) 0.6028(4)
H28 H 0.257371 1.001071 0.650066
H29 H 0.186065 0.933829 0.596366
H30 H 0.318154 0.967170 0.541666
C36 C 0.2871(6) 0.8298(4) 0.7337(3)
H31 H 0.281896 0.885083 0.777562
H32 H 0.338612 0.768193 0.754508
H33 H 0.197394 0.820764 0.732915
C37 C 0.1093(4) 0.3488(3) 0.6456(3)
C38 C 0.1034(5) 0.3983(4) 0.7409(3)
H34 H 0.060051 0.360883 0.792159
H35 H 0.052661 0.467293 0.743104
H36 H 0.193713 0.398453 0.748661
C39 C 0.1711(4) 0.2382(3) 0.6489(3)
H37 H 0.116586 0.207145 0.699530
H38 H 0.260805 0.230533 0.661189
H39 H 0.175869 0.205502 0.588000
C40 C -0.0325(4) 0.3621(4) 0.6289(4)
H40 H -0.088054 0.336400 0.682946
H41 H -0.031123 0.325125 0.571058
H42 H -0.068952 0.433288 0.622095
C44 C 0.8071(11) 1.0993(9) 0.6742(8)
H52 H 0.726077 1.152081 0.672565
Cl1 Cl 0.8533(15) 1.1208(12) 0.7744(7)
Cl2 Cl 0.9186(4) 1.1122(4) 0.5730(3)
Cl3 Cl 0.7599(16) 0.9880(8) 0.6694(8)
C41? C 0.339(3) -0.0220(10) -0.0370(16)
H43? H 0.321472 -0.070312 -0.079478
H44? H 0.319447 -0.043879 0.028475
H45? H 0.433030 -0.017715 -0.054455
C42? C 0.283(3) 0.1228(18) -0.1412(9)
H46? H 0.264963 0.079429 -0.188317
H47? H 0.376161 0.127683 -0.156889
H48? H 0.226272 0.189600 -0.141382
C43? C 0.1071(14) 0.065(2) -0.0250(15)
H49? H 0.106049 -0.003713 -0.042869
H50? H 0.054901 0.112112 -0.061735
H51? H 0.068631 0.076793 0.042745
C45? C 0.8031(19) 1.093(2) 0.6950(12)
H53? H 0.755853 1.160622 0.678223
Cl4? Cl 0.9192(12) 1.048(2) 0.6004(11)
Cl5? Cl 0.6902(10) 1.0230(8) 0.7238(13)
Cl6? Cl 0.8829(15) 1.1120(13) 0.7788(7)
loop_
_geom_bond_atom_site_label_1
_geom_bond_atom_site_label_2
_geom_bond_site_symmetry_1
_geom_bond_site_symmetry_2
Br1 C3 1_555 1_555
Br2 C14 1_555 1_555
C1 C2 1_555 1_555
C2 C3 1_555 1_555
C3 C4 1_555 1_555
C4 S1 1_555 1_555
S1 C5 1_555 1_555
C5 C6 1_555 1_555
C6 H1 1_555 1_555
C7 C4 1_555 1_555
C8 C1 1_555 1_555
C9 C8 1_555 1_555
H2 C9 1_555 1_555
C10 C9 1_555 1_555
C11 C10 1_555 1_555
H3 C11 1_555 1_555
C12 C1 1_555 1_555
C13 C12 1_555 1_555
C14 C13 1_555 1_555
C15 C14 1_555 1_555
S2 C15 1_555 1_555
C16 S2 1_555 1_555
C17 C16 1_555 1_555
H4 C17 1_555 1_555
C18 C15 1_555 1_555
C19 C18 1_555 1_555
C20 C19 1_555 1_555
H5 C20 1_555 1_555
C21 C20 1_555 1_555
C22 C21 1_555 1_555
H6 C22 1_555 1_555
C23 C2 1_555 1_555
C24 C13 1_555 1_555
C25 C5 1_555 1_555
C26 C25 1_555 1_555
H7 C26 1_555 1_555
H8 C26 1_555 1_555
H9 C26 1_555 1_555
C27 C25 1_555 1_555
H10 C27 1_555 1_555
H11 C27 1_555 1_555
H12 C27 1_555 1_555
C28 C25 1_555 1_555
H13 C28 1_555 1_555
H14 C28 1_555 1_555
H15 C28 1_555 1_555
C29 C10 1_555 1_555
C30 C29 1_555 1_555
H16 C30 1_555 1_555
H17 C30 1_555 1_555
H18 C30 1_555 1_555
C31 C29 1_555 1_555
H19 C31 1_555 1_555
H20 C31 1_555 1_555
H21 C31 1_555 1_555
C32 C29 1_555 1_555
H22 C32 1_555 1_555
H23 C32 1_555 1_555
H24 C32 1_555 1_555
C33 C16 1_555 1_555
C34 C33 1_555 1_555
H25 C34 1_555 1_555
H26 C34 1_555 1_555
H27 C34 1_555 1_555
C35 C33 1_555 1_555
H28 C35 1_555 1_555
H29 C35 1_555 1_555
H30 C35 1_555 1_555
C36 C33 1_555 1_555
H31 C36 1_555 1_555
H32 C36 1_555 1_555
H33 C36 1_555 1_555
C37 C21 1_555 1_555
C38 C37 1_555 1_555
H34 C38 1_555 1_555
H35 C38 1_555 1_555
H36 C38 1_555 1_555
C39 C37 1_555 1_555
H37 C39 1_555 1_555
H38 C39 1_555 1_555
H39 C39 1_555 1_555
C40 C37 1_555 1_555
H40 C40 1_555 1_555
H41 C40 1_555 1_555
H42 C40 1_555 1_555
C44 H52 1_555 1_555
Cl1 C44 1_555 1_555
Cl2 C44 1_555 1_555
Cl3 C44 1_555 1_555
C6 C7 1_555 1_555
C7 C8 1_555 1_555
C11 C12 1_555 1_555
C17 C18 1_555 1_555
C19 C24 1_555 1_555
C22 C23 1_555 1_555
C23 C24 1_555 1_555

#END
