
#######################################################################
#
#                 Cambridge Crystallographic Data Centre
#                                CCDC 
#
#######################################################################
#
# If this CIF has been generated from an entry in the Cambridge 
# Structural Database, then it will include bibliographic, chemical, 
# crystal, experimental, refinement or atomic coordinate data resulting 
# from the CCDC's data processing and validation procedures.
#
#######################################################################

data_BISZEL
_chemical_formula_moiety         'C22 H22 O8'
_chemical_name_systematic        
'methyl 3-(3,4-dimethoxyphenyl)-8b-hydroxy-7-methoxy-1-oxo-1,2,3,8b-tetrahydro-3aH-benzo[b]cyclopenta[d]furan-3a-carboxylate'
_symmetry_cell_setting           orthorhombic
_symmetry_space_group_name_H-M   'P b c a'
_symmetry_Int_Tables_number      61
_space_group_name_Hall           '-P 2ac 2ab'
loop_
_symmetry_equiv_pos_site_id
_symmetry_equiv_pos_as_xyz
1 x,y,z
2 1/2-x,-y,1/2+z
3 -x,1/2+y,1/2-z
4 1/2+x,1/2-y,-z
5 -x,-y,-z
6 1/2+x,y,1/2-z
7 x,1/2-y,1/2+z
8 1/2-x,1/2+y,z
_cell_length_a                   10.70455(4)
_cell_length_b                   17.64394(8)
_cell_length_c                   20.57722(9)
_cell_angle_alpha                90
_cell_angle_beta                 90
_cell_angle_gamma                90
_cell_volume                     3886.43
_exptl_crystal_colour            colorless
_exptl_crystal_description       plate
_cell_formula_units_Z            8
loop_
_atom_site_label
_atom_site_type_symbol
_atom_site_fract_x
_atom_site_fract_y
_atom_site_fract_z
C1 C 0.43821(11) 0.25718(7) 0.54073(6)
C2 C 0.49366(12) 0.32969(7) 0.51480(6)
H1 H 0.5609 0.3471 0.5426
H2 H 0.4306 0.3690 0.5122
C3 C 0.54321(11) 0.31011(6) 0.44693(6)
H3 H 0.6259 0.2875 0.4535
C4 C 0.56212(11) 0.37585(7) 0.40087(6)
C5 C 0.66413(11) 0.37377(7) 0.35802(6)
H4 H 0.7184 0.3326 0.3590
C6 C 0.68517(11) 0.43231(7) 0.31425(6)
C7 C 0.60341(12) 0.49472(7) 0.31254(5)
C8 C 0.50440(12) 0.49745(7) 0.35578(6)
H5 H 0.4510 0.5390 0.3556
C9 C 0.48404(12) 0.43845(7) 0.39954(6)
H6 H 0.4171 0.4411 0.4283
O1 O 0.78306(9) 0.43486(6) 0.27134(5)
O2 O 0.63035(9) 0.54948(5) 0.26774(4)
C10 C 0.88434(13) 0.38405(9) 0.28271(7)
H7 H 0.9488 0.3929 0.2512
H8 H 0.8553 0.3328 0.2790
H9 H 0.9171 0.3923 0.3256
C11 C 0.54493(17) 0.61171(9) 0.26455(8)
H10 H 0.5692 0.6452 0.2300
H11 H 0.5461 0.6388 0.3050
H12 H 0.4622 0.5930 0.2565
C12 C 0.45732(10) 0.24495(6) 0.42186(6)
C13 C 0.33768(11) 0.27154(7) 0.39017(6)
O3 O 0.27337(9) 0.31911(6) 0.41497(5)
O4 O 0.30952(9) 0.23567(6) 0.33539(5)
C14 C 0.18954(14) 0.25701(11) 0.30753(8)
H13 H 0.1775 0.2307 0.2672
H14 H 0.1882 0.3107 0.2999
H15 H 0.1238 0.2437 0.3372
O5 O 0.52831(8) 0.19514(5) 0.38034(4)
C15 C 0.57926(11) 0.14122(6) 0.42120(6)
C16 C 0.67135(11) 0.08985(7) 0.40360(6)
H16 H 0.7062 0.0901 0.3622
C17 C 0.70934(11) 0.03800(7) 0.45052(6)
H17 H 0.7707 0.0027 0.4402
C18 C 0.65718(11) 0.03785(6) 0.51284(6)
C19 C 0.56497(11) 0.08952(7) 0.52979(6)
H18 H 0.5295 0.0895 0.5710
C20 C 0.52782(11) 0.14125(6) 0.48286(6)
O6 O 0.70312(8) -0.01681(5) 0.55463(4)
C21 C 0.66594(13) -0.01212(8) 0.62155(6)
H19 H 0.5769 -0.0177 0.6247
H20 H 0.6900 0.0362 0.6389
H21 H 0.7060 -0.0517 0.6458
C22 C 0.42483(11) 0.19938(7) 0.48508(6)
O7 O 0.40699(10) 0.24476(5) 0.59588(5)
O8 O 0.30426(8) 0.16708(5) 0.48698(5)
H22 H 0.3099(17) 0.1183(12) 0.4764(9)
loop_
_geom_bond_atom_site_label_1
_geom_bond_atom_site_label_2
_geom_bond_site_symmetry_1
_geom_bond_site_symmetry_2
C1 C2 1_555 1_555
C2 H1 1_555 1_555
H2 C2 1_555 1_555
C3 C2 1_555 1_555
H3 C3 1_555 1_555
C4 C3 1_555 1_555
C5 C4 1_555 1_555
H4 C5 1_555 1_555
C6 C5 1_555 1_555
C7 C6 1_555 1_555
C8 C7 1_555 1_555
H5 C8 1_555 1_555
C9 C4 1_555 1_555
H6 C9 1_555 1_555
O1 C6 1_555 1_555
O2 C7 1_555 1_555
C10 O1 1_555 1_555
H7 C10 1_555 1_555
H8 C10 1_555 1_555
H9 C10 1_555 1_555
C11 O2 1_555 1_555
H10 C11 1_555 1_555
H11 C11 1_555 1_555
H12 C11 1_555 1_555
C12 C3 1_555 1_555
C13 C12 1_555 1_555
O3 C13 1_555 1_555
O4 C13 1_555 1_555
C14 O4 1_555 1_555
H13 C14 1_555 1_555
H14 C14 1_555 1_555
H15 C14 1_555 1_555
O5 C12 1_555 1_555
C15 O5 1_555 1_555
C16 C15 1_555 1_555
H16 C16 1_555 1_555
C17 C16 1_555 1_555
H17 C17 1_555 1_555
C18 C17 1_555 1_555
C19 C18 1_555 1_555
H18 C19 1_555 1_555
C20 C15 1_555 1_555
O6 C18 1_555 1_555
C21 O6 1_555 1_555
H19 C21 1_555 1_555
H20 C21 1_555 1_555
H21 C21 1_555 1_555
C22 C1 1_555 1_555
O7 C1 1_555 1_555
O8 C22 1_555 1_555
H22 O8 1_555 1_555
C8 C9 1_555 1_555
C12 C22 1_555 1_555
C19 C20 1_555 1_555
C20 C22 1_555 1_555

#END
