
#######################################################################
#
#                 Cambridge Crystallographic Data Centre
#                                CCDC 
#
#######################################################################
#
# If this CIF has been generated from an entry in the Cambridge 
# Structural Database, then it will include bibliographic, chemical, 
# crystal, experimental, refinement or atomic coordinate data resulting 
# from the CCDC's data processing and validation procedures.
#
#######################################################################

data_BISZIP
_chemical_formula_moiety         'C22 H22 O8'
_chemical_name_systematic        
'methyl 3-(3,4-dimethoxyphenyl)-8b-hydroxy-7-methoxy-1-oxo-1,2,3,8b-tetrahydro-3aH-benzo[b]cyclopenta[d]furan-3a-carboxylate'
_symmetry_cell_setting           triclinic
_symmetry_space_group_name_H-M   'P -1'
_symmetry_Int_Tables_number      2
_space_group_name_Hall           '-P 1'
loop_
_symmetry_equiv_pos_site_id
_symmetry_equiv_pos_as_xyz
1 x,y,z
2 -x,-y,-z
_cell_length_a                   8.1180(2)
_cell_length_b                   11.7561(2)
_cell_length_c                   20.6987(5)
_cell_angle_alpha                92.172(2)
_cell_angle_beta                 95.586(2)
_cell_angle_gamma                97.782(2)
_cell_volume                     1945.3
_exptl_crystal_colour            colorless
_exptl_crystal_description       block
_cell_formula_units_Z            4
loop_
_atom_site_label
_atom_site_type_symbol
_atom_site_fract_x
_atom_site_fract_y
_atom_site_fract_z
C1 C 0.8159(2) 0.39620(14) 0.67808(8)
C2 C 0.8179(2) 0.41656(14) 0.75063(8)
H1 H 0.7270 0.4576 0.7609
H2 H 0.9230 0.4603 0.7691
C3 C 0.7960(2) 0.29516(13) 0.77637(7)
H3 H 0.9029 0.2656 0.7751
C4 C 0.7471(2) 0.28339(14) 0.84464(7)
C5 C 0.7773(2) 0.18380(14) 0.87651(7)
H4 H 0.8302 0.1293 0.8559
C6 C 0.7297(2) 0.16556(14) 0.93792(8)
C7 C 0.65004(19) 0.24797(14) 0.96915(7)
C8 C 0.6214(2) 0.34674(15) 0.93820(8)
H5 H 0.5689 0.4014 0.9588
C9 C 0.6707(2) 0.36486(14) 0.87630(8)
H6 H 0.6523 0.4320 0.8561
O1 O 0.75492(17) 0.07179(11) 0.97254(6)
O2 O 0.61072(15) 0.22244(11) 1.03024(5)
C10 C 0.8194(3) -0.01866(17) 0.93991(10)
H7 H 0.7465 -0.0449 0.9014
H8 H 0.8265 -0.0811 0.9681
H9 H 0.9287 0.0091 0.9282
C11 C 0.4977(2) 0.28815(17) 1.05839(9)
H10 H 0.3973 0.2847 1.0293
H11 H 0.5490 0.3667 1.0658
H12 H 0.4707 0.2572 1.0989
C12 C 0.67069(18) 0.22615(13) 0.72324(7)
C13 C 0.6772(2) 0.09710(13) 0.72221(7)
O3 O 0.79798(16) 0.05521(11) 0.74259(6)
O4 O 0.53663(15) 0.03799(10) 0.69340(6)
C14 C 0.5354(3) -0.08569(15) 0.68799(10)
H13 H 0.6278 -0.1027 0.6655
H14 H 0.4326 -0.1211 0.6643
H15 H 0.5450 -0.1150 0.7307
O5 O 0.50361(13) 0.25062(9) 0.73082(5)
C15 C 0.4330(2) 0.27584(13) 0.67046(7)
C16 C 0.2664(2) 0.28739(14) 0.65571(8)
H16 H 0.1914 0.2795 0.6870
C17 C 0.2154(2) 0.31134(14) 0.59210(8)
H17 H 0.1043 0.3200 0.5807
C18 C 0.3282(2) 0.32259(13) 0.54523(8)
C19 C 0.4967(2) 0.31297(13) 0.56113(8)
H18 H 0.5729 0.3223 0.5303
C20 C 0.54601(19) 0.28889(12) 0.62467(7)
O6 O 0.26041(16) 0.34220(12) 0.48400(6)
C21 C 0.3689(3) 0.35335(18) 0.43450(9)
H19 H 0.3065 0.3651 0.3941
H20 H 0.4197 0.2847 0.4303
H21 H 0.4543 0.4179 0.4455
C22 C 0.71563(19) 0.27606(13) 0.65703(7)
O7 O 0.88069(17) 0.46021(11) 0.64108(6)
O8 O 0.81623(15) 0.20929(11) 0.62493(6)
H22 H 0.789(3) 0.203(2) 0.5860(14)
C23 C 1.1238(2) 0.28870(14) 0.18484(8)
C24 C 1.1308(2) 0.26825(15) 0.25691(8)
H23 H 1.1090 0.3356 0.2815
H24 H 1.2389 0.2488 0.2733
C25 C 0.9920(2) 0.16677(14) 0.26078(7)
H25 H 1.0323 0.0974 0.2444
C26 C 0.9373(2) 0.14340(14) 0.32760(8)
C27 C 0.9118(2) 0.23331(14) 0.37038(8)
H26 H 0.9357 0.3090 0.3588
C28 C 0.8517(2) 0.21074(14) 0.42937(8)
C29 C 0.8165(2) 0.09639(15) 0.44698(8)
C30 C 0.8446(3) 0.00750(15) 0.40555(9)
H27 H 0.8235 -0.0682 0.4175
C31 C 0.9047(2) 0.03132(15) 0.34600(8)
H28 H 0.9230 -0.0288 0.3183
O9 O 0.81937(17) 0.29205(10) 0.47345(6)
O10 O 0.7545(2) 0.08329(11) 0.50590(6)
C32 C 0.8419(3) 0.40736(16) 0.45422(10)
H29 H 0.8141 0.4573 0.4880
H30 H 0.7705 0.4136 0.4151
H31 H 0.9563 0.4291 0.4465
C33 C 0.7105(3) -0.03169(18) 0.52496(10)
H32 H 0.6288 -0.0728 0.4927
H33 H 0.6650 -0.0298 0.5660
H34 H 0.8084 -0.0696 0.5289
C34 C 0.8498(2) 0.19379(13) 0.21042(7)
C35 C 0.7270(2) 0.08962(14) 0.18186(8)
O11 O 0.58132(16) 0.09231(12) 0.16720(6)
O12 O 0.80454(17) -0.00127(11) 0.17259(7)
C36 C 0.7010(3) -0.09927(18) 0.13735(13)
H35 H 0.6576 -0.0765 0.0957
H36 H 0.6101 -0.1261 0.1618
H37 H 0.7672 -0.1599 0.1313
O13 O 0.75541(14) 0.27418(10) 0.23921(5)
C37 C 0.76561(19) 0.37088(13) 0.20405(7)
C38 C 0.6896(2) 0.46704(15) 0.21741(8)
H38 H 0.6252 0.4702 0.2521
C39 C 0.7135(2) 0.55822(14) 0.17705(9)
H39 H 0.6653 0.6240 0.1853
C40 C 0.8079(2) 0.55364(14) 0.12439(8)
C41 C 0.8869(2) 0.45760(13) 0.11242(8)
H40 H 0.9530 0.4543 0.0783
C42 C 0.86293(19) 0.36732(13) 0.15337(7)
O14 O 0.81763(16) 0.64815(10) 0.08729(6)
C43 C 0.9005(2) 0.64092(15) 0.03007(8)
H41 H 0.8434 0.5782 0.0018
H42 H 1.0137 0.6282 0.0416
H43 H 0.9002 0.7114 0.0081
C44 C 0.9399(2) 0.25763(13) 0.15481(7)
O15 O 1.23630(16) 0.32591(12) 0.15505(6)
O16 O 0.93704(16) 0.19671(10) 0.09552(5)
H44 H 0.835(3) 0.192(2) 0.0756(13)
loop_
_geom_bond_atom_site_label_1
_geom_bond_atom_site_label_2
_geom_bond_site_symmetry_1
_geom_bond_site_symmetry_2
C1 C2 1_555 1_555
C2 H1 1_555 1_555
H2 C2 1_555 1_555
C3 C2 1_555 1_555
H3 C3 1_555 1_555
C4 C3 1_555 1_555
C5 C4 1_555 1_555
H4 C5 1_555 1_555
C6 C5 1_555 1_555
C7 C6 1_555 1_555
C8 C7 1_555 1_555
H5 C8 1_555 1_555
C9 C4 1_555 1_555
H6 C9 1_555 1_555
O1 C6 1_555 1_555
O2 C7 1_555 1_555
C10 O1 1_555 1_555
H7 C10 1_555 1_555
H8 C10 1_555 1_555
H9 C10 1_555 1_555
C11 O2 1_555 1_555
H10 C11 1_555 1_555
H11 C11 1_555 1_555
H12 C11 1_555 1_555
C12 C3 1_555 1_555
C13 C12 1_555 1_555
O3 C13 1_555 1_555
O4 C13 1_555 1_555
C14 O4 1_555 1_555
H13 C14 1_555 1_555
H14 C14 1_555 1_555
H15 C14 1_555 1_555
O5 C12 1_555 1_555
C15 O5 1_555 1_555
C16 C15 1_555 1_555
H16 C16 1_555 1_555
C17 C16 1_555 1_555
H17 C17 1_555 1_555
C18 C17 1_555 1_555
C19 C18 1_555 1_555
H18 C19 1_555 1_555
C20 C15 1_555 1_555
O6 C18 1_555 1_555
C21 O6 1_555 1_555
H19 C21 1_555 1_555
H20 C21 1_555 1_555
H21 C21 1_555 1_555
C22 C1 1_555 1_555
O7 C1 1_555 1_555
O8 C22 1_555 1_555
H22 O8 1_555 1_555
C23 C24 1_555 1_555
C24 H23 1_555 1_555
H24 C24 1_555 1_555
C25 C24 1_555 1_555
H25 C25 1_555 1_555
C26 C25 1_555 1_555
C27 C26 1_555 1_555
H26 C27 1_555 1_555
C28 C27 1_555 1_555
C29 C28 1_555 1_555
C30 C29 1_555 1_555
H27 C30 1_555 1_555
C31 C26 1_555 1_555
H28 C31 1_555 1_555
O9 C28 1_555 1_555
O10 C29 1_555 1_555
C32 O9 1_555 1_555
H29 C32 1_555 1_555
H30 C32 1_555 1_555
H31 C32 1_555 1_555
C33 O10 1_555 1_555
H32 C33 1_555 1_555
H33 C33 1_555 1_555
H34 C33 1_555 1_555
C34 C25 1_555 1_555
C35 C34 1_555 1_555
O11 C35 1_555 1_555
O12 C35 1_555 1_555
C36 O12 1_555 1_555
H35 C36 1_555 1_555
H36 C36 1_555 1_555
H37 C36 1_555 1_555
O13 C34 1_555 1_555
C37 O13 1_555 1_555
C38 C37 1_555 1_555
H38 C38 1_555 1_555
C39 C38 1_555 1_555
H39 C39 1_555 1_555
C40 C39 1_555 1_555
C41 C40 1_555 1_555
H40 C41 1_555 1_555
C42 C37 1_555 1_555
O14 C40 1_555 1_555
C43 O14 1_555 1_555
H41 C43 1_555 1_555
H42 C43 1_555 1_555
H43 C43 1_555 1_555
C44 C23 1_555 1_555
O15 C23 1_555 1_555
O16 C44 1_555 1_555
H44 O16 1_555 1_555
C8 C9 1_555 1_555
C12 C22 1_555 1_555
C19 C20 1_555 1_555
C20 C22 1_555 1_555
C30 C31 1_555 1_555
C34 C44 1_555 1_555
C41 C42 1_555 1_555
C42 C44 1_555 1_555

#END
