
#######################################################################
#
#                 Cambridge Crystallographic Data Centre
#                                CCDC 
#
#######################################################################
#
# If this CIF has been generated from an entry in the Cambridge 
# Structural Database, then it will include bibliographic, chemical, 
# crystal, experimental, refinement or atomic coordinate data resulting 
# from the CCDC's data processing and validation procedures.
#
#######################################################################

data_BITGET
_chemical_formula_moiety         'C36 H42 B1 N1'
_chemical_name_systematic        
pseudo-meta-12-[bis(2,4,6-trimethylphenyl)boranyl]-N,N-dimethyltricyclo[8.2.2.2^4,7^]hexadeca-1(12),4,6,10,13,15-hexaen-5-amine
_symmetry_cell_setting           monoclinic
_symmetry_space_group_name_H-M   'P 21/n'
_symmetry_Int_Tables_number      14
_space_group_name_Hall           '-P 2yn'
loop_
_symmetry_equiv_pos_site_id
_symmetry_equiv_pos_as_xyz
1 x,y,z
2 1/2-x,1/2+y,1/2-z
3 -x,-y,-z
4 1/2+x,1/2-y,1/2+z
_cell_length_a                   16.399(5)
_cell_length_b                   9.333(3)
_cell_length_c                   19.193(6)
_cell_angle_alpha                90
_cell_angle_beta                 90.344(3)
_cell_angle_gamma                90
_cell_volume                     2937.47
_exptl_crystal_colour            'yellowish yellow'
_exptl_crystal_description       block
_cell_formula_units_Z            4
loop_
_atom_site_label
_atom_site_type_symbol
_atom_site_fract_x
_atom_site_fract_y
_atom_site_fract_z
N1 N 0.17558(15) 0.1522(3) 0.49170(12)
C1 C 0.64799(19) 0.8216(3) 0.34040(16)
H1 H 0.6514 0.8724 0.2970
H2 H 0.7018 0.8073 0.3590
H3 H 0.6163 0.8763 0.3728
C2 C 0.60799(15) 0.6786(3) 0.32844(14)
C3 C 0.61060(16) 0.5732(3) 0.37876(13)
H4 H 0.6364 0.5933 0.4209
C4 C 0.57649(15) 0.4390(3) 0.36935(12)
C5 C 0.58737(19) 0.3347(3) 0.42916(13)
H5 H 0.5463 0.3520 0.4636
H6 H 0.6404 0.3476 0.4497
H7 H 0.5824 0.2384 0.4121
C6 C 0.53749(14) 0.4035(3) 0.30546(11)
C7 C 0.53283(14) 0.5130(3) 0.25474(12)
C8 C 0.48668(18) 0.4899(3) 0.18733(13)
H8 H 0.5074 0.4064 0.1643
H9 H 0.4935 0.5720 0.1578
H10 H 0.4298 0.4768 0.1971
C9 C 0.56760(15) 0.6459(3) 0.26686(13)
H11 H 0.5637 0.7158 0.2324
C10 C 0.69014(17) 0.1914(3) 0.27967(16)
H12 H 0.6914 0.2941 0.2776
H13 H 0.7440 0.1544 0.2721
H14 H 0.6713 0.1617 0.3247
C11 C 0.63327(16) 0.1349(3) 0.22418(13)
C12 C 0.66586(18) 0.0489(3) 0.17239(15)
H15 H 0.7217 0.0320 0.1727
C13 C 0.6193(2) -0.0123(3) 0.12072(15)
C14 C 0.6567(2) -0.1075(4) 0.06563(19)
H16 H 0.6797 -0.1910 0.0873
H17 H 0.6988 -0.0558 0.0418
H18 H 0.6154 -0.1360 0.0328
C15 C 0.53659(19) 0.0157(3) 0.12101(14)
H19 H 0.5039 -0.0235 0.0861
C16 C 0.50064(16) 0.1006(3) 0.17187(12)
C17 C 0.41037(16) 0.1267(4) 0.16718(14)
H20 H 0.3919 0.1696 0.2097
H21 H 0.3826 0.0374 0.1599
H22 H 0.3990 0.1900 0.1289
C18 C 0.54830(15) 0.1609(3) 0.22587(12)
C19 C 0.45363(14) 0.1598(3) 0.34090(11)
C20 C 0.40734(14) 0.2220(2) 0.39536(12)
C21 C 0.36038(17) 0.3597(3) 0.38702(14)
H23 H 0.3715 0.4000 0.3415
H24 H 0.3790 0.4279 0.4218
C22 C 0.26615(17) 0.3375(3) 0.39482(15)
H25 H 0.2507 0.3609 0.4422
H26 H 0.2380 0.4034 0.3639
C23 C 0.23853(15) 0.1859(3) 0.37849(13)
C24 C 0.20867(15) 0.0924(3) 0.43017(13)
C25 C 0.22135(15) -0.0539(3) 0.42309(13)
H27 H 0.2035 -0.1154 0.4580
C26 C 0.26007(16) -0.1106(3) 0.36511(13)
C27 C 0.27041(15) -0.0213(3) 0.30841(13)
H28 H 0.2839 -0.0595 0.2652
C28 C 0.26072(15) 0.1242(3) 0.31598(13)
H29 H 0.2694 0.1831 0.2777
C29 C 0.30537(18) -0.2514(3) 0.36989(16)
H30 H 0.2952 -0.3064 0.3279
H31 H 0.2846 -0.3058 0.4090
C30 C 0.39960(17) -0.2300(3) 0.37924(14)
H32 H 0.4182 -0.2885 0.4180
H33 H 0.4268 -0.2640 0.3376
C31 C 0.42469(14) -0.0768(3) 0.39237(12)
C32 C 0.45760(14) 0.0093(3) 0.34027(12)
H34 H 0.4836 -0.0351 0.3031
C33 C 0.40196(15) -0.0073(3) 0.45292(12)
H35 H 0.3932 -0.0601 0.4933
C34 C 0.39221(15) 0.1387(3) 0.45407(12)
H36 H 0.3751 0.1829 0.4949
C35 C 0.1026(2) 0.2380(4) 0.4794(2)
H37 H 0.1112 0.2998 0.4401
H38 H 0.0915 0.2950 0.5199
H39 H 0.0572 0.1759 0.4701
C36 C 0.1653(2) 0.0566(4) 0.55120(16)
H40 H 0.1237 -0.0127 0.5407
H41 H 0.1497 0.1114 0.5913
H42 H 0.2158 0.0081 0.5607
B1 B 0.50857(17) 0.2457(3) 0.28921(13)
loop_
_geom_bond_atom_site_label_1
_geom_bond_atom_site_label_2
_geom_bond_site_symmetry_1
_geom_bond_site_symmetry_2
N1 C24 1_555 1_555
C1 H1 1_555 1_555
H2 C1 1_555 1_555
H3 C1 1_555 1_555
C2 C1 1_555 1_555
C3 C2 1_555 1_555
H4 C3 1_555 1_555
C4 C3 1_555 1_555
C5 C4 1_555 1_555
H5 C5 1_555 1_555
H6 C5 1_555 1_555
H7 C5 1_555 1_555
C6 C4 1_555 1_555
C7 C6 1_555 1_555
C8 C7 1_555 1_555
H8 C8 1_555 1_555
H9 C8 1_555 1_555
H10 C8 1_555 1_555
C9 C2 1_555 1_555
H11 C9 1_555 1_555
C10 H12 1_555 1_555
H13 C10 1_555 1_555
H14 C10 1_555 1_555
C11 C10 1_555 1_555
C12 C11 1_555 1_555
H15 C12 1_555 1_555
C13 C12 1_555 1_555
C14 C13 1_555 1_555
H16 C14 1_555 1_555
H17 C14 1_555 1_555
H18 C14 1_555 1_555
C15 C13 1_555 1_555
H19 C15 1_555 1_555
C16 C15 1_555 1_555
C17 C16 1_555 1_555
H20 C17 1_555 1_555
H21 C17 1_555 1_555
H22 C17 1_555 1_555
C18 C11 1_555 1_555
C19 C20 1_555 1_555
C20 C21 1_555 1_555
C21 H23 1_555 1_555
H24 C21 1_555 1_555
C22 C21 1_555 1_555
H25 C22 1_555 1_555
H26 C22 1_555 1_555
C23 C22 1_555 1_555
C24 C23 1_555 1_555
C25 C24 1_555 1_555
H27 C25 1_555 1_555
C26 C25 1_555 1_555
C27 C26 1_555 1_555
H28 C27 1_555 1_555
C28 C23 1_555 1_555
H29 C28 1_555 1_555
C29 C26 1_555 1_555
H30 C29 1_555 1_555
H31 C29 1_555 1_555
C30 C29 1_555 1_555
H32 C30 1_555 1_555
H33 C30 1_555 1_555
C31 C30 1_555 1_555
C32 C19 1_555 1_555
H34 C32 1_555 1_555
C33 C31 1_555 1_555
H35 C33 1_555 1_555
C34 C20 1_555 1_555
H36 C34 1_555 1_555
C35 N1 1_555 1_555
H37 C35 1_555 1_555
H38 C35 1_555 1_555
H39 C35 1_555 1_555
C36 N1 1_555 1_555
H40 C36 1_555 1_555
H41 C36 1_555 1_555
H42 C36 1_555 1_555
B1 C6 1_555 1_555
C7 C9 1_555 1_555
C16 C18 1_555 1_555
C18 B1 1_555 1_555
C19 B1 1_555 1_555
C27 C28 1_555 1_555
C31 C32 1_555 1_555
C33 C34 1_555 1_555

#END
