
#######################################################################
#
#                 Cambridge Crystallographic Data Centre
#                                CCDC 
#
#######################################################################
#
# If this CIF has been generated from an entry in the Cambridge 
# Structural Database, then it will include bibliographic, chemical, 
# crystal, experimental, refinement or atomic coordinate data resulting 
# from the CCDC's data processing and validation procedures.
#
#######################################################################

data_BITGUJ
_chemical_formula_moiety         'C27 H23 O5 P1'
_chemical_name_systematic        
6-[(diphenylphosphoryl)(4-methoxyphenyl)methyl]-2H-1,3-benzodioxol-5-ol
_symmetry_cell_setting           monoclinic
_symmetry_space_group_name_H-M   'P 2/c'
_symmetry_Int_Tables_number      13
_space_group_name_Hall           '-P 2yc'
loop_
_symmetry_equiv_pos_site_id
_symmetry_equiv_pos_as_xyz
1 x,y,z
2 -x,y,1/2-z
3 -x,-y,-z
4 x,-y,1/2+z
_cell_length_a                   16.8603(5)
_cell_length_b                   7.9560(2)
_cell_length_c                   17.5294(4)
_cell_angle_alpha                90
_cell_angle_beta                 108.6230(10)
_cell_angle_gamma                90
_cell_volume                     2228.28
_cell_formula_units_Z            4
loop_
_atom_site_label
_atom_site_type_symbol
_atom_site_fract_x
_atom_site_fract_y
_atom_site_fract_z
P1 P 0.74575(3) 0.87342(6) 0.44345(3)
O1 O 0.79423(8) 1.00264(15) 0.50283(8)
O2 O 0.58528(8) 0.56797(18) 0.72017(8)
O3 O 0.78383(8) 0.32781(16) 0.46864(9)
H1 H 0.7918 0.2281 0.4805
O4 O 1.0509(4) 0.6868(10) 0.6420(9)
O5 O 1.06485(8) 0.39696(19) 0.63534(10)
C1 C 0.70865(11) 0.6416(2) 0.54848(11)
C2 C 0.77422(11) 0.8649(2) 0.34928(11)
C3 C 0.73454(11) 0.7235(2) 0.62516(12)
H2 H 0.7808 0.7942 0.6369
C4 C 0.64094(11) 0.5391(2) 0.53126(11)
H3 H 0.6217 0.4838 0.4820
C5 C 0.84981(11) 0.4186(2) 0.51334(11)
C6 C 0.75403(11) 0.6600(2) 0.48552(11)
H4 H 0.7251 0.5856 0.4407
C7 C 0.60065(11) 0.5183(2) 0.58910(12)
H5 H 0.5541 0.4484 0.5772
C8 C 0.63945(11) 0.9203(2) 0.41573(11)
C9 C 0.62806(11) 0.6001(2) 0.66591(11)
C10 C 0.83939(11) 0.5921(2) 0.52053(11)
C11 C 0.92443(11) 0.3405(2) 0.55062(12)
H6 H 0.9321 0.2257 0.5457
C12 C 0.83527(12) 0.9719(2) 0.34387(12)
H7 H 0.8608 1.0452 0.3859
C13 C 0.98628(11) 0.4420(3) 0.59506(12)
C14 C 0.69475(11) 0.7043(2) 0.68392(12)
H8 H 0.7135 0.7608 0.7329
C15 C 0.97672(11) 0.6125(2) 0.60211(13)
C16 C 0.73845(12) 0.7559(3) 0.28276(12)
H9 H 0.6971 0.6811 0.2856
C17 C 0.61696(12) 1.0659(3) 0.44864(12)
H10 H 0.6580 1.1345 0.4824
C18 C 0.90472(11) 0.6915(2) 0.56591(12)
H11 H 0.8988 0.8068 0.5709
C19 C 0.57957(12) 0.8137(3) 0.36672(12)
H12 H 0.5952 0.7164 0.3458
C20 C 0.82343(13) 0.8633(3) 0.20772(13)
H13 H 0.8408 0.8661 0.1624
C21 C 0.85945(13) 0.9704(2) 0.27338(13)
H14 H 0.9013 1.0440 0.2705
C22 C 0.60365(13) 0.6703(3) 0.79345(12)
H15 H 0.5977 0.7872 0.7791
H16 H 0.6599 0.6489 0.8273
H17 H 0.5653 0.6417 0.8218
C23 C 0.49897(12) 0.8538(3) 0.35020(13)
H18 H 0.4575 0.7845 0.3175
C24 C 0.76275(13) 0.7559(3) 0.21222(12)
H19 H 0.7374 0.6833 0.1699
C25 C 0.53614(13) 1.1054(3) 0.43114(14)
H20 H 0.5199 1.2025 0.4517
C26 C 0.47769(13) 0.9998(3) 0.38221(13)
H21 H 0.4214 1.0271 0.3699
C27 C 1.10193(13) 0.5442(3) 0.67922(16)
H22 H 1.1199 0.5198 0.7364
H23 H 1.1509 0.5753 0.6648
O6? O 1.0467(11) 0.676(3) 0.6633(14)
loop_
_geom_bond_atom_site_label_1
_geom_bond_atom_site_label_2
_geom_bond_site_symmetry_1
_geom_bond_site_symmetry_2
P1 O1 1_555 1_555
O2 C9 1_555 1_555
O3 H1 1_555 1_555
O4 C15 1_555 1_555
O5 C13 1_555 1_555
C1 C3 1_555 1_555
C2 P1 1_555 1_555
C3 H2 1_555 1_555
C4 C1 1_555 1_555
H3 C4 1_555 1_555
C5 O3 1_555 1_555
C6 P1 1_555 1_555
H4 C6 1_555 1_555
C7 C4 1_555 1_555
H5 C7 1_555 1_555
C8 P1 1_555 1_555
C9 C7 1_555 1_555
C10 C5 1_555 1_555
C11 C5 1_555 1_555
H6 C11 1_555 1_555
C12 C2 1_555 1_555
H7 C12 1_555 1_555
C13 C11 1_555 1_555
C14 C3 1_555 1_555
H8 C14 1_555 1_555
C15 C13 1_555 1_555
C16 C2 1_555 1_555
H9 C16 1_555 1_555
C17 C8 1_555 1_555
H10 C17 1_555 1_555
C18 C10 1_555 1_555
H11 C18 1_555 1_555
C19 C8 1_555 1_555
H12 C19 1_555 1_555
C20 H13 1_555 1_555
C21 C12 1_555 1_555
H14 C21 1_555 1_555
C22 O2 1_555 1_555
H15 C22 1_555 1_555
H16 C22 1_555 1_555
H17 C22 1_555 1_555
C23 C19 1_555 1_555
H18 C23 1_555 1_555
C24 C16 1_555 1_555
H19 C24 1_555 1_555
C25 C17 1_555 1_555
H20 C25 1_555 1_555
C26 C23 1_555 1_555
H21 C26 1_555 1_555
C27 O4 1_555 1_555
H22 C27 1_555 1_555
H23 C27 1_555 1_555
O5 C27 1_555 1_555
C1 C6 1_555 1_555
C6 C10 1_555 1_555
C9 C14 1_555 1_555
C15 C18 1_555 1_555
C20 C21 1_555 1_555
C20 C24 1_555 1_555
C25 C26 1_555 1_555

#END
