
#######################################################################
#
#                 Cambridge Crystallographic Data Centre
#                                CCDC 
#
#######################################################################
#
# If this CIF has been generated from an entry in the Cambridge 
# Structural Database, then it will include bibliographic, chemical, 
# crystal, experimental, refinement or atomic coordinate data resulting 
# from the CCDC's data processing and validation procedures.
#
#######################################################################

data_BITGOD
_chemical_formula_moiety         'C22 H20 O8'
_chemical_name_systematic        
'methyl 3-(3,4-dimethoxyphenyl)-2-hydroxy-7-methoxy-1-oxo-1,8b-dihydro-3aH-benzo[b]cyclopenta[d]furan-3a-carboxylate'
_symmetry_cell_setting           monoclinic
_symmetry_space_group_name_H-M   'P 21/c'
_symmetry_Int_Tables_number      14
_space_group_name_Hall           '-P 2ybc'
loop_
_symmetry_equiv_pos_site_id
_symmetry_equiv_pos_as_xyz
1 x,y,z
2 -x,1/2+y,1/2-z
3 -x,-y,-z
4 x,1/2-y,1/2+z
_cell_length_a                   7.8422(2)
_cell_length_b                   13.4840(3)
_cell_length_c                   19.1741(4)
_cell_angle_alpha                90
_cell_angle_beta                 97.458(2)
_cell_angle_gamma                90
_cell_volume                     2010.4
_exptl_crystal_colour            yellow
_exptl_crystal_description       block
_cell_formula_units_Z            4
loop_
_atom_site_label
_atom_site_type_symbol
_atom_site_fract_x
_atom_site_fract_y
_atom_site_fract_z
C1 C 0.40963(16) 0.14704(9) 0.20919(6)
C2 C 0.44190(15) 0.15478(9) 0.28599(6)
C3 C 0.52649(15) 0.23944(9) 0.30740(6)
C4 C 0.58589(15) 0.27458(9) 0.37875(6)
C5 C 0.60698(15) 0.20835(9) 0.43607(6)
H1 H 0.5752 0.1422 0.4293
C6 C 0.67466(16) 0.24094(10) 0.50248(6)
C7 C 0.71745(18) 0.34208(10) 0.51388(7)
C8 C 0.69374(19) 0.40733(10) 0.45776(7)
H2 H 0.7201 0.4741 0.4649
C9 C 0.63057(18) 0.37376(10) 0.39051(7)
H3 H 0.6181 0.4181 0.3531
O1 O 0.70765(12) 0.18211(7) 0.56035(4)
O2 O 0.78257(16) 0.36579(8) 0.58125(5)
C10 C 0.66835(19) 0.07930(10) 0.55080(7)
H4 H 0.7252 0.0536 0.5132
H5 H 0.5463 0.0711 0.5394
H6 H 0.7071 0.0440 0.5934
C11 C 0.8289(3) 0.46675(15) 0.59577(10)
H7 H 0.9158 0.4863 0.5676
H8 H 0.8726 0.4737 0.6447
H9 H 0.7295 0.5082 0.5848
C12 C 0.55728(15) 0.30002(9) 0.24331(6)
C13 C 0.74477(15) 0.32955(10) 0.24089(6)
O3 O 0.79287(12) 0.41032(7) 0.22520(5)
O4 O 0.84523(12) 0.25046(8) 0.25402(5)
C14 C 1.02104(19) 0.26252(14) 0.23964(10)
H10 H 1.0214 0.2781 0.1908
H11 H 1.0834 0.2021 0.2506
H12 H 1.0747 0.3154 0.2680
O5 O 0.45479(11) 0.38986(6) 0.23802(4)
C15 C 0.34692(15) 0.38588(9) 0.17485(6)
C16 C 0.22949(16) 0.45920(10) 0.15130(7)
H13 H 0.2173 0.5162 0.1775
C17 C 0.13086(17) 0.44359(10) 0.08666(7)
H14 H 0.0501 0.4910 0.0694
C18 C 0.14976(16) 0.35859(10) 0.04693(7)
C19 C 0.26722(16) 0.28520(10) 0.07165(7)
H15 H 0.2801 0.2280 0.0458
C20 C 0.36434(15) 0.30103(9) 0.13662(6)
O6 O 0.04785(13) 0.35433(8) -0.01675(5)
C21 C 0.0731(2) 0.27389(14) -0.06197(8)
H16 H -0.0047 0.2799 -0.1047
H17 H 0.0518 0.2126 -0.0391
H18 H 0.1894 0.2747 -0.0726
C22 C 0.49335(15) 0.23492(9) 0.17822(6)
H19 H 0.5867 0.2153 0.1518
O7 O 0.32513(14) 0.08242(7) 0.17658(5)
O8 O 0.38347(13) 0.08451(7) 0.32647(5)
H20 H 0.341(2) 0.0342(16) 0.2989(10)
loop_
_geom_bond_atom_site_label_1
_geom_bond_atom_site_label_2
_geom_bond_site_symmetry_1
_geom_bond_site_symmetry_2
C1 C2 1_555 1_555
C2 C3 1_555 1_555
C3 C4 1_555 1_555
C4 C5 1_555 1_555
C5 H1 1_555 1_555
C6 C5 1_555 1_555
C7 C6 1_555 1_555
C8 C7 1_555 1_555
H2 C8 1_555 1_555
C9 C4 1_555 1_555
H3 C9 1_555 1_555
O1 C6 1_555 1_555
O2 C7 1_555 1_555
C10 O1 1_555 1_555
H4 C10 1_555 1_555
H5 C10 1_555 1_555
H6 C10 1_555 1_555
C11 O2 1_555 1_555
H7 C11 1_555 1_555
H8 C11 1_555 1_555
H9 C11 1_555 1_555
C12 C3 1_555 1_555
C13 C12 1_555 1_555
O3 C13 1_555 1_555
O4 C13 1_555 1_555
C14 O4 1_555 1_555
H10 C14 1_555 1_555
H11 C14 1_555 1_555
H12 C14 1_555 1_555
O5 C12 1_555 1_555
C15 O5 1_555 1_555
C16 C15 1_555 1_555
H13 C16 1_555 1_555
C17 C16 1_555 1_555
H14 C17 1_555 1_555
C18 C17 1_555 1_555
C19 C18 1_555 1_555
H15 C19 1_555 1_555
C20 C15 1_555 1_555
O6 C18 1_555 1_555
C21 O6 1_555 1_555
H16 C21 1_555 1_555
H17 C21 1_555 1_555
H18 C21 1_555 1_555
C22 C1 1_555 1_555
H19 C22 1_555 1_555
O7 C1 1_555 1_555
O8 C2 1_555 1_555
H20 O8 1_555 1_555
C8 C9 1_555 1_555
C12 C22 1_555 1_555
C19 C20 1_555 1_555
C20 C22 1_555 1_555

#END
