
#######################################################################
#
#                 Cambridge Crystallographic Data Centre
#                                CCDC 
#
#######################################################################
#
# If this CIF has been generated from an entry in the Cambridge 
# Structural Database, then it will include bibliographic, chemical, 
# crystal, experimental, refinement or atomic coordinate data resulting 
# from the CCDC's data processing and validation procedures.
#
#######################################################################

data_BITGIX
_chemical_formula_moiety         'C34 H52 O10 Si2'
_chemical_name_systematic        
'methyl 1,8b-bis{[t-butyl(dimethyl)silyl]oxy}-3-(3,4-dimethoxyphenyl)-1,2-dihydroxy-7-methoxy-1,2,3,8b-tetrahydro-3aH-benzo[b]cyclopenta[d]furan-3a-carboxylate'
_symmetry_cell_setting           monoclinic
_symmetry_space_group_name_H-M   'I 2/a'
_symmetry_Int_Tables_number      15
_space_group_name_Hall           '-I 2ya'
loop_
_symmetry_equiv_pos_site_id
_symmetry_equiv_pos_as_xyz
1 x,y,z
2 1/2-x,y,-z
3 1/2+x,1/2+y,1/2+z
4 -x,1/2+y,1/2-z
5 -x,-y,-z
6 1/2+x,-y,z
7 1/2-x,1/2-y,1/2-z
8 x,1/2-y,1/2+z
_cell_length_a                   21.6944(2)
_cell_length_b                   10.94520(10)
_cell_length_c                   32.2956(2)
_cell_angle_alpha                90
_cell_angle_beta                 103.9430(10)
_cell_angle_gamma                90
_cell_volume                     7442.63
_exptl_crystal_colour            colorless
_exptl_crystal_description       plate
_cell_formula_units_Z            8
loop_
_atom_site_label
_atom_site_type_symbol
_atom_site_fract_x
_atom_site_fract_y
_atom_site_fract_z
C1 C 0.31976(7) 0.29497(13) 0.35185(4)
C2 C 0.36922(6) 0.28036(13) 0.32519(4)
H1 H 0.4075 0.3258 0.3391
C3 C 0.33690(6) 0.34692(12) 0.28368(4)
H2 H 0.3011 0.2954 0.2694
C4 C 0.37610(7) 0.36921(13) 0.25149(4)
C5 C 0.43641(7) 0.31758(13) 0.25666(5)
H3 H 0.4539 0.2731 0.2812
C6 C 0.47049(7) 0.33143(13) 0.22591(5)
C7 C 0.44577(7) 0.40147(14) 0.18924(5)
C8 C 0.38602(8) 0.45217(14) 0.18384(5)
H4 H 0.3689 0.4982 0.1596
C9 C 0.35115(7) 0.43501(14) 0.21446(5)
H5 H 0.3106 0.4681 0.2100
O1 O 0.52864(5) 0.27976(11) 0.22803(4)
O2 O 0.48408(6) 0.41195(12) 0.16139(4)
C10 C 0.54886(8) 0.18674(16) 0.25925(5)
H6 H 0.5859 0.1471 0.2543
H7 H 0.5155 0.1278 0.2572
H8 H 0.5588 0.2227 0.2872
C11 C 0.46426(13) 0.4928(3) 0.12685(8)
H9 H 0.4255 0.4635 0.1085
H10 H 0.4964 0.4977 0.1111
H11 H 0.4574 0.5724 0.1374
C12 C 0.30759(6) 0.46244(12) 0.29916(4)
C13 C 0.24318(6) 0.49152(13) 0.26928(4)
O3 O 0.20400(5) 0.41371(10) 0.25675(4)
O4 O 0.23600(5) 0.60818(10) 0.25884(4)
C14 C 0.17664(8) 0.63961(15) 0.22874(6)
H12 H 0.1755 0.6024 0.2016
H13 H 0.1737 0.7267 0.2254
H14 H 0.1416 0.6104 0.2393
O5 O 0.34897(5) 0.56594(9) 0.30140(3)
C15 C 0.37534(6) 0.59047(13) 0.34366(5)
C16 C 0.42057(7) 0.68140(14) 0.35692(5)
H15 H 0.4350 0.7297 0.3375
C17 C 0.44307(8) 0.69641(16) 0.40046(5)
H16 H 0.4730 0.7569 0.4106
C18 C 0.42184(8) 0.62268(18) 0.42949(5)
C19 C 0.37705(7) 0.53131(16) 0.41559(5)
H17 H 0.3637 0.4809 0.4349
C20 C 0.35288(7) 0.51790(14) 0.37165(5)
O6 O 0.44925(7) 0.64843(16) 0.47162(4)
C21 C 0.42847(14) 0.5810(4) 0.50307(7)
H18 H 0.4351 0.4954 0.4993
H19 H 0.3841 0.5959 0.5004
H20 H 0.4521 0.6058 0.5309
C22 C 0.30260(6) 0.43259(13) 0.34668(4)
O7 O 0.34272(5) 0.26197(10) 0.39468(3)
O8 O 0.26644(5) 0.22337(10) 0.33281(3)
H21 H 0.2358(11) 0.265(2) 0.3349(7)
O9 O 0.38630(5) 0.15805(10) 0.31990(4)
H22 H 0.3599(11) 0.130(2) 0.3018(7)
O10 O 0.24073(5) 0.44828(10) 0.35317(3)
Si1 Si 0.32493(2) 0.13312(4) 0.41721(2)
C23 C 0.24316(10) 0.1409(2) 0.42594(7)
H23 H 0.2374 0.2179 0.4388
H24 H 0.2373 0.0756 0.4445
H25 H 0.2126 0.1333 0.3991
C24 C 0.33237(10) -0.00779(16) 0.38658(6)
H26 H 0.2989 -0.0100 0.3610
H27 H 0.3294 -0.0782 0.4037
H28 H 0.3727 -0.0079 0.3792
C25 C 0.38509(9) 0.13125(18) 0.47036(6)
C26 C 0.37408(14) 0.2398(2) 0.49765(7)
H29 H 0.3812 0.3146 0.4840
H30 H 0.4029 0.2348 0.5253
H31 H 0.3312 0.2379 0.5007
C27 C 0.37835(13) 0.0127(2) 0.49442(7)
H32 H 0.3356 0.0056 0.4976
H33 H 0.4072 0.0144 0.5221
H34 H 0.3880 -0.0561 0.4786
C28 C 0.45232(10) 0.1392(3) 0.46289(7)
H35 H 0.4609 0.0671 0.4483
H36 H 0.4828 0.1456 0.4898
H37 H 0.4553 0.2099 0.4459
Si2 Si 0.20362(2) 0.55201(4) 0.37597(2)
C29 C 0.21337(11) 0.70726(18) 0.35473(9)
H38 H 0.2578 0.7260 0.3595
H39 H 0.1932 0.7665 0.3690
H40 H 0.1941 0.7093 0.3247
C30 C 0.23344(11) 0.5519(3) 0.43522(7)
H41 H 0.2009 0.5820 0.4481
H42 H 0.2702 0.6034 0.4432
H43 H 0.2446 0.4701 0.4449
C31 C 0.11795(8) 0.50036(17) 0.36177(6)
C32 C 0.09280(9) 0.4855(2) 0.31372(7)
H44 H 0.0980 0.5609 0.2997
H45 H 0.0486 0.4643 0.3075
H46 H 0.1160 0.4219 0.3037
C33 C 0.07684(10) 0.5968(3) 0.37714(7)
H47 H 0.0918 0.6077 0.4074
H48 H 0.0335 0.5698 0.3707
H49 H 0.0796 0.6729 0.3629
C34 C 0.11180(11) 0.3770(3) 0.38307(11)
H50 H 0.1365 0.3166 0.3727
H51 H 0.0680 0.3524 0.3764
H52 H 0.1271 0.3848 0.4134
loop_
_geom_bond_atom_site_label_1
_geom_bond_atom_site_label_2
_geom_bond_site_symmetry_1
_geom_bond_site_symmetry_2
C1 C2 1_555 1_555
C2 H1 1_555 1_555
C3 C2 1_555 1_555
H2 C3 1_555 1_555
C4 C3 1_555 1_555
C5 C4 1_555 1_555
H3 C5 1_555 1_555
C6 C5 1_555 1_555
C7 C6 1_555 1_555
C8 C7 1_555 1_555
H4 C8 1_555 1_555
C9 C4 1_555 1_555
H5 C9 1_555 1_555
O1 C6 1_555 1_555
O2 C7 1_555 1_555
C10 O1 1_555 1_555
H6 C10 1_555 1_555
H7 C10 1_555 1_555
H8 C10 1_555 1_555
C11 O2 1_555 1_555
H9 C11 1_555 1_555
H10 C11 1_555 1_555
H11 C11 1_555 1_555
C12 C3 1_555 1_555
C13 C12 1_555 1_555
O3 C13 1_555 1_555
O4 C13 1_555 1_555
C14 O4 1_555 1_555
H12 C14 1_555 1_555
H13 C14 1_555 1_555
H14 C14 1_555 1_555
O5 C12 1_555 1_555
C15 O5 1_555 1_555
C16 C15 1_555 1_555
H15 C16 1_555 1_555
C17 C16 1_555 1_555
H16 C17 1_555 1_555
C18 C17 1_555 1_555
C19 C18 1_555 1_555
H17 C19 1_555 1_555
C20 C15 1_555 1_555
O6 C18 1_555 1_555
C21 O6 1_555 1_555
H18 C21 1_555 1_555
H19 C21 1_555 1_555
H20 C21 1_555 1_555
C22 C1 1_555 1_555
O7 C1 1_555 1_555
O8 C1 1_555 1_555
H21 O8 1_555 1_555
O9 C2 1_555 1_555
H22 O9 1_555 1_555
O10 C22 1_555 1_555
Si1 O7 1_555 1_555
C23 Si1 1_555 1_555
H23 C23 1_555 1_555
H24 C23 1_555 1_555
H25 C23 1_555 1_555
C24 Si1 1_555 1_555
H26 C24 1_555 1_555
H27 C24 1_555 1_555
H28 C24 1_555 1_555
C25 Si1 1_555 1_555
C26 C25 1_555 1_555
H29 C26 1_555 1_555
H30 C26 1_555 1_555
H31 C26 1_555 1_555
C27 C25 1_555 1_555
H32 C27 1_555 1_555
H33 C27 1_555 1_555
H34 C27 1_555 1_555
C28 C25 1_555 1_555
H35 C28 1_555 1_555
H36 C28 1_555 1_555
H37 C28 1_555 1_555
Si2 O10 1_555 1_555
C29 Si2 1_555 1_555
H38 C29 1_555 1_555
H39 C29 1_555 1_555
H40 C29 1_555 1_555
C30 Si2 1_555 1_555
H41 C30 1_555 1_555
H42 C30 1_555 1_555
H43 C30 1_555 1_555
C31 Si2 1_555 1_555
C32 C31 1_555 1_555
H44 C32 1_555 1_555
H45 C32 1_555 1_555
H46 C32 1_555 1_555
C33 C31 1_555 1_555
H47 C33 1_555 1_555
H48 C33 1_555 1_555
H49 C33 1_555 1_555
C34 C31 1_555 1_555
H50 C34 1_555 1_555
H51 C34 1_555 1_555
H52 C34 1_555 1_555
C8 C9 1_555 1_555
C12 C22 1_555 1_555
C19 C20 1_555 1_555
C20 C22 1_555 1_555

#END
