
#######################################################################
#
#                 Cambridge Crystallographic Data Centre
#                                CCDC 
#
#######################################################################
#
# If this CIF has been generated from an entry in the Cambridge 
# Structural Database, then it will include bibliographic, chemical, 
# crystal, experimental, refinement or atomic coordinate data resulting 
# from the CCDC's data processing and validation procedures.
#
#######################################################################

data_BITHOE
_chemical_formula_moiety         'C29 H28 N1 O1 P1'
_chemical_name_systematic        
'N-(1,2-diphenylpent-3-en-1-yl)-P,P-diphenylphosphinic amide'
_symmetry_cell_setting           monoclinic
_symmetry_space_group_name_H-M   'C 2'
_symmetry_Int_Tables_number      5
_space_group_name_Hall           'C 2y'
loop_
_symmetry_equiv_pos_site_id
_symmetry_equiv_pos_as_xyz
1 x,y,z
2 -x,y,-z
3 1/2+x,1/2+y,z
4 1/2-x,1/2+y,-z
_cell_length_a                   25.0983(6)
_cell_length_b                   5.42130(10)
_cell_length_c                   20.0322(6)
_cell_angle_alpha                90
_cell_angle_beta                 120.693(3)
_cell_angle_gamma                90
_cell_volume                     2343.86
_exptl_crystal_colour            colorless
_exptl_crystal_description       block
_cell_formula_units_Z            4
loop_
_atom_site_label
_atom_site_type_symbol
_atom_site_fract_x
_atom_site_fract_y
_atom_site_fract_z
P1 P 0.68821(3) 0.65063(12) 0.66077(3)
O1 O 0.71841(9) 0.8973(4) 0.68319(11)
N1 N 0.72945(11) 0.4346(5) 0.72319(13)
C1 C 0.79719(13) 0.3003(6) 0.85888(15)
H1 H 0.801005 0.133165 0.840580
C2 C 0.78762(12) 0.4908(5) 0.79557(15)
H2 H 0.782999 0.657153 0.813582
C3 C 0.74224(13) 0.2947(6) 0.87126(15)
H3 H 0.7253(18) 0.292(9) 0.708(2)
C4 C 0.73313(16) 0.4816(6) 0.91271(17)
H4 H 0.761708 0.614458 0.933806
C5 C 0.68261(17) 0.4737(7) 0.92310(19)
H5 H 0.676991 0.600909 0.951560
C6 C 0.64067(18) 0.2841(8) 0.8927(2)
H6 H 0.606079 0.280903 0.899897
C7 C 0.64877(16) 0.0975(7) 0.8515(2)
H7 H 0.619919 -0.034518 0.830536
C8 C 0.69961(15) 0.1048(6) 0.84110(18)
H8 H 0.705031 -0.023267 0.812721
C9 C 0.84292(13) 0.5018(5) 0.78406(15)
H9 H 0.4544(19) 0.704(8) 0.621(2)
C10 C 0.85388(15) 0.3177(7) 0.74472(18)
H10 H 0.826065 0.182466 0.723697
C11 C 0.90507(17) 0.3286(8) 0.7356(2)
H11 H 0.912426 0.198723 0.709508
C12 C 0.94523(15) 0.5249(7) 0.76400(19)
H12 H 0.979898 0.532154 0.757005
C13 C 0.93481(16) 0.7100(7) 0.8024(2)
H13 H 0.962304 0.846546 0.822243
C14 C 0.88392(15) 0.6981(6) 0.8125(2)
H14 H 0.877185 0.827361 0.839369
C15 C 0.85685(14) 0.3538(7) 0.93378(17)
H15 H 0.864463 0.520951 0.950325
C16 C 0.89912(15) 0.1926(9) 0.97816(18)
H16 H 0.893403 0.026424 0.960770
C17 C 0.95535(17) 0.2517(10) 1.0538(2)
H17 H 0.991683 0.176341 1.055896
H18 H 0.950628 0.186694 1.096106
H19 H 0.960839 0.430987 1.059160
C18 C 0.67396(12) 0.5479(5) 0.56709(15)
C19 C 0.64184(14) 0.3319(6) 0.53151(17)
H20 H 0.624823 0.234130 0.555438
C20 C 0.63480(15) 0.2599(6) 0.46040(18)
H21 H 0.612924 0.112691 0.436095
C21 C 0.65913(13) 0.3995(6) 0.42566(17)
H22 H 0.654504 0.347838 0.377654
C22 C 0.69057(13) 0.6163(7) 0.46008(17)
H23 H 0.707124 0.713692 0.435501
C23 C 0.69777(12) 0.6905(6) 0.53054(16)
H24 H 0.719082 0.839465 0.553960
C24 C 0.61255(12) 0.6556(7) 0.65138(16)
C25 C 0.49493(16) 0.6856(8) 0.6315(2)
C26 C 0.5602(3) 0.7455(13) 0.5754(3)
H25 H 0.566993 0.787683 0.534356
C27 C 0.5018(3) 0.7663(15) 0.5657(4)
H26 H 0.467732 0.829293 0.519162
C28 C 0.5991(3) 0.5757(12) 0.7031(4)
H27 H 0.630852 0.503003 0.749732
C29 C 0.5394(3) 0.5949(14) 0.6912(4)
H28 H 0.532294 0.535930 0.730668
C30? C 0.5861(3) 0.8861(13) 0.6485(3)
H29? H 0.608017 1.033252 0.652217
C31? C 0.5275(3) 0.8982(15) 0.6403(4)
H30? H 0.510233 1.053604 0.640777
C32? C 0.5866(3) 0.4434(15) 0.6615(4)
H31? H 0.608662 0.291791 0.675244
C33? C 0.5276(3) 0.4577(18) 0.6513(5)
H32? H 0.508902 0.313944 0.657438
loop_
_geom_bond_atom_site_label_1
_geom_bond_atom_site_label_2
_geom_bond_site_symmetry_1
_geom_bond_site_symmetry_2
P1 O1 1_555 1_555
N1 P1 1_555 1_555
C1 H1 1_555 1_555
C2 N1 1_555 1_555
H2 C2 1_555 1_555
C3 C1 1_555 1_555
H3 N1 1_555 1_555
C4 C3 1_555 1_555
H4 C4 1_555 1_555
C5 C4 1_555 1_555
H5 C5 1_555 1_555
C6 C5 1_555 1_555
H6 C6 1_555 1_555
C7 C6 1_555 1_555
H7 C7 1_555 1_555
C8 C3 1_555 1_555
H8 C8 1_555 1_555
C9 C2 1_555 1_555
H9 C25 1_555 1_555
C10 C9 1_555 1_555
H10 C10 1_555 1_555
C11 C10 1_555 1_555
H11 C11 1_555 1_555
C12 C11 1_555 1_555
H12 C12 1_555 1_555
C13 C12 1_555 1_555
H13 C13 1_555 1_555
C14 C9 1_555 1_555
H14 C14 1_555 1_555
C15 C1 1_555 1_555
H15 C15 1_555 1_555
C16 C15 1_555 1_555
H16 C16 1_555 1_555
C17 C16 1_555 1_555
H17 C17 1_555 1_555
H18 C17 1_555 1_555
H19 C17 1_555 1_555
C18 P1 1_555 1_555
C19 C18 1_555 1_555
H20 C19 1_555 1_555
C20 C19 1_555 1_555
H21 C20 1_555 1_555
C21 C20 1_555 1_555
H22 C21 1_555 1_555
C22 C21 1_555 1_555
H23 C22 1_555 1_555
C23 C18 1_555 1_555
H24 C23 1_555 1_555
C24 P1 1_555 1_555
C25 C27 1_555 1_555
C26 C24 1_555 1_555
H25 C26 1_555 1_555
C27 C26 1_555 1_555
H26 C27 1_555 1_555
C28 C24 1_555 1_555
H27 C28 1_555 1_555
C29 C25 1_555 1_555
H28 C29 1_555 1_555
C1 C2 1_555 1_555
C7 C8 1_555 1_555
C13 C14 1_555 1_555
C22 C23 1_555 1_555
C28 C29 1_555 1_555

#END
