
#######################################################################
#
#                 Cambridge Crystallographic Data Centre
#                                CCDC 
#
#######################################################################
#
# If this CIF has been generated from an entry in the Cambridge 
# Structural Database, then it will include bibliographic, chemical, 
# crystal, experimental, refinement or atomic coordinate data resulting 
# from the CCDC's data processing and validation procedures.
#
#######################################################################

data_BITJUJ
_chemical_formula_moiety         'C14 H13 N1 S1'
_chemical_name_systematic        1-Ethylphenothiazine
_symmetry_cell_setting           monoclinic
_symmetry_space_group_name_H-M   'P 21/c'
_symmetry_Int_Tables_number      14
_space_group_name_Hall           '-P 2ybc'
loop_
_symmetry_equiv_pos_site_id
_symmetry_equiv_pos_as_xyz
1 x,y,z
2 -x,1/2+y,1/2-z
3 -x,-y,-z
4 x,1/2-y,1/2+z
_cell_length_a                   9.509(1)
_cell_length_b                   8.962(1)
_cell_length_c                   14.036(2)
_cell_angle_alpha                90
_cell_angle_beta                 105.34(1)
_cell_angle_gamma                90
_cell_volume                     1153.53
_chemical_melting_point          394-6K
_cell_formula_units_Z            4
loop_
_atom_site_label
_atom_site_type_symbol
_atom_site_fract_x
_atom_site_fract_y
_atom_site_fract_z
S1 S 0.69090 0.15598 0.14670
N1 N 0.51310 0.39740 0.20290
C1 C 0.33900 0.41790 0.04010
C2 C 0.29510 0.36950 -0.05740
C3 C 0.37320 0.26340 -0.09330
C4 C 0.49660 0.20290 -0.03220
C5 C 0.90780 0.31570 0.27330
C6 C 0.95930 0.42210 0.34480
C7 C 0.86270 0.52140 0.36930
C8 C 0.71590 0.51570 0.32140
C9 C 0.46390 0.35550 0.10270
C10 C 0.54110 0.24640 0.06630
C11 C 0.75970 0.30530 0.22810
C12 C 0.66180 0.40700 0.25010
C13 C 0.24640 0.53070 0.07590
C14 C 0.13750 0.45370 0.12250
H1 H 0.46000 0.46700 0.22000
H2 H 0.20800 0.41800 -0.10000
H3 H 0.34800 0.23600 -0.16500
H4 H 0.55800 0.12900 -0.05500
H5 H 0.97900 0.24300 0.25800
H6 H 1.06200 0.42700 0.38300
H7 H 0.89700 0.60100 0.42400
H8 H 0.64700 0.58700 0.33500
H9 H 0.18300 0.60000 0.01600
H10 H 0.31100 0.60000 0.12500
H11 H 0.06700 0.38000 0.07000
H12 H 0.19000 0.38400 0.18300
H13 H 0.07100 0.53300 0.14000
loop_
_geom_bond_atom_site_label_1
_geom_bond_atom_site_label_2
_geom_bond_site_symmetry_1
_geom_bond_site_symmetry_2
S1 C10 1_555 1_555
N1 C9 1_555 1_555
C1 C2 1_555 1_555
C2 C3 1_555 1_555
C3 C4 1_555 1_555
C4 C10 1_555 1_555
C5 C6 1_555 1_555
C6 C7 1_555 1_555
C7 C8 1_555 1_555
C8 C12 1_555 1_555
C9 C1 1_555 1_555
C10 C9 1_555 1_555
C11 S1 1_555 1_555
C12 N1 1_555 1_555
C13 C1 1_555 1_555
C14 C13 1_555 1_555
H1 N1 1_555 1_555
H2 C2 1_555 1_555
H3 C3 1_555 1_555
H4 C4 1_555 1_555
H5 C5 1_555 1_555
H6 C6 1_555 1_555
H7 C7 1_555 1_555
H8 C8 1_555 1_555
H9 C13 1_555 1_555
H10 C13 1_555 1_555
H11 C14 1_555 1_555
H12 C14 1_555 1_555
H13 C14 1_555 1_555
C5 C11 1_555 1_555
C11 C12 1_555 1_555

#END
