
#######################################################################
#
#                 Cambridge Crystallographic Data Centre
#                                CCDC 
#
#######################################################################
#
# If this CIF has been generated from an entry in the Cambridge 
# Structural Database, then it will include bibliographic, chemical, 
# crystal, experimental, refinement or atomic coordinate data resulting 
# from the CCDC's data processing and validation procedures.
#
#######################################################################

data_BITLEX01
_chemical_name_common            '(-)-Scholarisine G methanol solvate'
_chemical_formula_moiety         'C19 H22 N2 O3,C1 H4 O1'
_chemical_name_systematic        
'12a-Ethyl-5a-hydroxy-1,2,3,5,5a,11,12,12a-octahydro-4H,10H-3a,9b-diazaindeno[7,1-jk]fluorene-4,10-dione methanol solvate'
_symmetry_cell_setting           orthorhombic
_symmetry_space_group_name_H-M   'P 21 21 21'
_symmetry_Int_Tables_number      19
_space_group_name_Hall           'P 2ac 2ab'
loop_
_symmetry_equiv_pos_site_id
_symmetry_equiv_pos_as_xyz
1 x,y,z
2 1/2-x,-y,1/2+z
3 -x,1/2+y,1/2-z
4 1/2+x,1/2-y,-z
_cell_length_a                   8.05042(13)
_cell_length_b                   14.5426(2)
_cell_length_c                   15.2311(3)
_cell_angle_alpha                90
_cell_angle_beta                 90
_cell_angle_gamma                90
_cell_volume                     1783.17
_exptl_crystal_colour            colorless
_exptl_crystal_description       prism
_cell_formula_units_Z            4
loop_
_atom_site_label
_atom_site_type_symbol
_atom_site_fract_x
_atom_site_fract_y
_atom_site_fract_z
O1 O 0.50236(13) 0.12579(7) 0.12729(7)
O2 O 0.04084(11) 0.24128(7) 0.28469(7)
H1 H 0.008(3) 0.2422(14) 0.3388(14)
O3 O 0.40633(16) 0.23332(8) 0.55167(7)
N1 N 0.47822(13) 0.19987(7) 0.25917(7)
N2 N 0.37310(14) 0.21390(8) 0.40618(7)
C1 C 0.35242(16) 0.24576(9) 0.31415(8)
C2 C 0.37227(17) 0.35186(9) 0.30638(9)
C3 C 0.55895(17) 0.37672(9) 0.31621(10)
H2 H 0.5722 0.4437 0.3071
H3 H 0.5943 0.3627 0.3770
C4 C 0.67324(18) 0.32630(9) 0.25280(10)
H4 H 0.7899 0.3450 0.2629
H5 H 0.6433 0.3416 0.1915
C5 C 0.65391(16) 0.22340(9) 0.26833(9)
H6 H 0.7207 0.1886 0.2250
H7 H 0.6934 0.2072 0.3279
C6 C 0.41745(18) 0.15975(9) 0.18578(9)
C7 C 0.23047(17) 0.16447(9) 0.18770(9)
H8 H 0.1808 0.1039 0.1738
H9 H 0.1886 0.2106 0.1453
C8 C 0.19143(16) 0.19286(9) 0.28145(9)
C9 C 0.19419(16) 0.11043(9) 0.34272(8)
C10 C 0.10148(18) 0.03034(10) 0.33665(9)
H10 H 0.0271 0.0212 0.2890
C11 C 0.11912(19) -0.03627(10) 0.40122(10)
H11 H 0.0553 -0.0911 0.3984
C12 C 0.2298(2) -0.02291(10) 0.46982(10)
H12 H 0.2415 -0.0694 0.5132
C13 C 0.32428(19) 0.05719(10) 0.47663(9)
H13 H 0.4006 0.0659 0.5235
C14 C 0.30229(16) 0.12367(9) 0.41225(8)
C15 C 0.37998(18) 0.26812(10) 0.47989(9)
C16 C 0.3434(2) 0.36923(11) 0.47088(10)
H14 H 0.4468 0.4041 0.4823
H15 H 0.2617 0.3869 0.5165
C17 C 0.27546(19) 0.39766(10) 0.38110(10)
H16 H 0.2829 0.4653 0.3750
H17 H 0.1569 0.3801 0.3770
C18 C 0.30492(17) 0.38273(9) 0.21605(9)
H18 H 0.3513 0.3416 0.1704
H19 H 0.1828 0.3747 0.2158
C19 C 0.3442(2) 0.48215(10) 0.19075(11)
H20 H 0.3086 0.5234 0.2380
H21 H 0.2852 0.4979 0.1365
H22 H 0.4641 0.4888 0.1815
O4 O 0.7157(2) 0.17979(19) -0.00680(11)
H23 H 0.645(4) 0.165(2) 0.034(2)
C20 C 0.8706(3) 0.17336(19) 0.02894(15)
H24 H 0.9533 0.1935 -0.0142
H25 H 0.8926 0.1094 0.0455
H26 H 0.8772 0.2126 0.0812
loop_
_geom_bond_atom_site_label_1
_geom_bond_atom_site_label_2
_geom_bond_site_symmetry_1
_geom_bond_site_symmetry_2
O1 C6 1_555 1_555
O2 H1 1_555 1_555
O3 C15 1_555 1_555
N1 C1 1_555 1_555
N2 C1 1_555 1_555
C1 C2 1_555 1_555
C2 C3 1_555 1_555
C3 H2 1_555 1_555
H3 C3 1_555 1_555
C4 C3 1_555 1_555
H4 C4 1_555 1_555
H5 C4 1_555 1_555
C5 N1 1_555 1_555
H6 C5 1_555 1_555
H7 C5 1_555 1_555
C6 N1 1_555 1_555
C7 C6 1_555 1_555
H8 C7 1_555 1_555
H9 C7 1_555 1_555
C8 O2 1_555 1_555
C9 C8 1_555 1_555
C10 C9 1_555 1_555
H10 C10 1_555 1_555
C11 C10 1_555 1_555
H11 C11 1_555 1_555
C12 C11 1_555 1_555
H12 C12 1_555 1_555
C13 C12 1_555 1_555
H13 C13 1_555 1_555
C14 N2 1_555 1_555
C15 N2 1_555 1_555
C16 C15 1_555 1_555
H14 C16 1_555 1_555
H15 C16 1_555 1_555
C17 C2 1_555 1_555
H16 C17 1_555 1_555
H17 C17 1_555 1_555
C18 C2 1_555 1_555
H18 C18 1_555 1_555
H19 C18 1_555 1_555
C19 C18 1_555 1_555
H20 C19 1_555 1_555
H21 C19 1_555 1_555
H22 C19 1_555 1_555
O4 H23 1_555 1_555
C20 O4 1_555 1_555
H24 C20 1_555 1_555
H25 C20 1_555 1_555
H26 C20 1_555 1_555
C1 C8 1_555 1_555
C4 C5 1_555 1_555
C7 C8 1_555 1_555
C9 C14 1_555 1_555
C13 C14 1_555 1_555
C16 C17 1_555 1_555

#END
