
#######################################################################
#
#                 Cambridge Crystallographic Data Centre
#                                CCDC 
#
#######################################################################
#
# If this CIF has been generated from an entry in the Cambridge 
# Structural Database, then it will include bibliographic, chemical, 
# crystal, experimental, refinement or atomic coordinate data resulting 
# from the CCDC's data processing and validation procedures.
#
#######################################################################

data_BITLUN
_chemical_formula_moiety         'C17 H11 N3 O2'
_chemical_name_systematic        
3-((2-Oxo-1,2-dihydro-3H-indol-3-ylidene)methyl)cinnolin-4(1H)-one
_symmetry_cell_setting           orthorhombic
_symmetry_space_group_name_H-M   'P n a 21'
_symmetry_Int_Tables_number      33
_space_group_name_Hall           'P 2c -2n'
loop_
_symmetry_equiv_pos_site_id
_symmetry_equiv_pos_as_xyz
1 x,y,z
2 1/2-x,1/2+y,1/2+z
3 1/2+x,1/2-y,z
4 -x,-y,1/2+z
_cell_length_a                   7.5723(5)
_cell_length_b                   29.0175(17)
_cell_length_c                   5.7673(3)
_cell_angle_alpha                90
_cell_angle_beta                 90
_cell_angle_gamma                90
_cell_volume                     1267.24
_exptl_crystal_colour            red
_exptl_crystal_description       plate
_cell_formula_units_Z            4
loop_
_atom_site_label
_atom_site_type_symbol
_atom_site_fract_x
_atom_site_fract_y
_atom_site_fract_z
O1 O 0.0712(2) 0.35295(6) 1.0013(3)
O2 O 0.3910(3) 0.27432(6) 0.2206(3)
N1 N 0.2961(3) 0.34698(7) 0.4562(4)
N2 N 0.3287(3) 0.39012(8) 0.4012(4)
N3 N 0.3670(3) 0.19718(7) 0.3025(4)
C1 C 0.1505(4) 0.36483(10) 0.8183(5)
C2 C 0.2144(4) 0.33161(9) 0.6514(5)
C3 C 0.2737(4) 0.42295(9) 0.5565(5)
C4 C 0.3140(4) 0.46930(9) 0.4998(5)
C5 C 0.2617(3) 0.50397(10) 0.6478(5)
C6 C 0.1696(4) 0.49313(9) 0.8518(5)
C7 C 0.1339(4) 0.44797(8) 0.9075(5)
C8 C 0.1845(4) 0.41232(9) 0.7615(5)
C9 C 0.1939(4) 0.28305(9) 0.6934(5)
C10 C 0.3402(4) 0.24237(9) 0.3478(5)
C11 C 0.2439(4) 0.24503(10) 0.5734(5)
C12 C 0.2152(3) 0.19742(9) 0.6444(5)
C13 C 0.1349(4) 0.17721(8) 0.8341(5)
C14 C 0.1304(3) 0.12921(9) 0.8502(6)
C15 C 0.2073(4) 0.10227(9) 0.6804(5)
C16 C 0.2900(4) 0.12185(9) 0.4878(5)
C17 C 0.2923(4) 0.16932(9) 0.4740(5)
H1 H 0.38295 0.39756 0.27153
H2 H 0.42414 0.18666 0.18059
H3 H 0.3763 0.47637 0.36132
H4 H 0.288 0.53517 0.61177
H5 H 0.13172 0.51714 0.9521
H6 H 0.07364 0.4411 1.04783
H7 H 0.13304 0.27623 0.83326
H8 H 0.08344 0.19573 0.95198
H9 H 0.07405 0.11497 0.97875
H10 H 0.20385 0.06968 0.69514
H11 H 0.34246 0.10326 0.37097
loop_
_geom_bond_atom_site_label_1
_geom_bond_atom_site_label_2
_geom_bond_site_symmetry_1
_geom_bond_site_symmetry_2
O1 C1 1_555 1_555
O2 C10 1_555 1_555
N1 N2 1_555 1_555
N2 C3 1_555 1_555
N3 C10 1_555 1_555
C1 C2 1_555 1_555
C2 N1 1_555 1_555
C3 C4 1_555 1_555
C4 C5 1_555 1_555
C5 C6 1_555 1_555
C6 C7 1_555 1_555
C7 C8 1_555 1_555
C8 C1 1_555 1_555
C9 C2 1_555 1_555
C10 C11 1_555 1_555
C11 C9 1_555 1_555
C12 C11 1_555 1_555
C13 C12 1_555 1_555
C14 C13 1_555 1_555
C15 C14 1_555 1_555
C16 C15 1_555 1_555
C17 N3 1_555 1_555
H1 N2 1_555 1_555
H2 N3 1_555 1_555
H3 C4 1_555 1_555
H4 C5 1_555 1_555
H5 C6 1_555 1_555
H6 C7 1_555 1_555
H7 C9 1_555 1_555
H8 C13 1_555 1_555
H9 C14 1_555 1_555
H10 C15 1_555 1_555
H11 C16 1_555 1_555
C3 C8 1_555 1_555
C12 C17 1_555 1_555
C16 C17 1_555 1_555

#END
