
#######################################################################
#
#                 Cambridge Crystallographic Data Centre
#                                CCDC 
#
#######################################################################
#
# If this CIF has been generated from an entry in the Cambridge 
# Structural Database, then it will include bibliographic, chemical, 
# crystal, experimental, refinement or atomic coordinate data resulting 
# from the CCDC's data processing and validation procedures.
#
#######################################################################

data_BITSEE
_chemical_formula_moiety         'C23 H26 B1 F2 I1 N2'
_chemical_name_systematic        
2,8-Diethyl-5,5-difluoro-10-(4-iodophenyl)-1,3,7,9-tetramethyl-5H-4,5-dipyrrolo[1,2-c:2',1'-f][1,3,2]diazaborinine
_symmetry_cell_setting           monoclinic
_symmetry_space_group_name_H-M   'P 21/c'
_symmetry_Int_Tables_number      14
_space_group_name_Hall           '-P 2ybc'
loop_
_symmetry_equiv_pos_site_id
_symmetry_equiv_pos_as_xyz
1 x,y,z
2 -x,1/2+y,1/2-z
3 -x,-y,-z
4 x,1/2-y,1/2+z
_cell_length_a                   7.506(2)
_cell_length_b                   13.175(1)
_cell_length_c                   22.073(4)
_cell_angle_alpha                90
_cell_angle_beta                 92.06(2)
_cell_angle_gamma                90
_cell_volume                     2181.42
_exptl_crystal_colour            'orange red'
_exptl_crystal_description       prism
_cell_formula_units_Z            4
loop_
_atom_site_label
_atom_site_type_symbol
_atom_site_fract_x
_atom_site_fract_y
_atom_site_fract_z
C1 C 0.3219(6) 0.3184(3) 0.3329(2)
C2 C 0.4088(6) 0.2339(4) 0.3089(2)
C3 C 0.3042(6) 0.1497(4) 0.31853(19)
C4 C 0.1526(6) 0.1841(3) 0.34934(19)
C5 C 0.0087(6) 0.1326(3) 0.37289(18)
C6 C -0.1221(6) 0.1839(3) 0.40434(19)
C7 C -0.2826(6) 0.1509(4) 0.43024(19)
C8 C -0.3606(7) 0.2355(4) 0.4543(2)
C9 C -0.2505(7) 0.3184(3) 0.4439(2)
C10 C 0.3829(7) 0.4261(4) 0.3331(2)
H1 H 0.3618 0.456 0.3719
H2 H 0.318 0.4631 0.302
H3 H 0.508 0.4286 0.3256
C11 C 0.5811(7) 0.2392(4) 0.2769(2)
H4 H 0.6468 0.1766 0.2838
H5 H 0.6525 0.2945 0.2937
C12 C 0.5524(8) 0.2554(5) 0.2096(3)
H6 H 0.6657 0.2585 0.1908
H7 H 0.4893 0.318 0.2025
H8 H 0.4839 0.2002 0.1926
C13 C 0.3475(7) 0.0444(4) 0.2983(2)
H9 H 0.4739 0.0382 0.294
H10 H 0.2875 0.031 0.26
H11 H 0.3089 -0.0036 0.3278
C14 C -0.3596(6) 0.0459(4) 0.4308(2)
H12 H -0.4869 0.0499 0.4331
H13 H -0.3115 0.0095 0.4654
H14 H -0.3298 0.0109 0.3944
C15 C -0.5353(7) 0.2410(5) 0.4860(2)
H15 H -0.593 0.3051 0.4763
H16 H -0.6129 0.1869 0.4711
C16 C -0.5104(8) 0.2317(6) 0.5532(3)
H17 H -0.6241 0.2361 0.5715
H18 H -0.4347 0.2855 0.5682
H19 H -0.4564 0.1674 0.563
C17 C -0.2752(8) 0.4260(4) 0.4632(3)
H20 H -0.2484 0.4705 0.4303
H21 H -0.1966 0.4404 0.4974
H22 H -0.3964 0.4361 0.4743
C18 C -0.0027(6) 0.0189(3) 0.3674(2)
C19 C -0.0578(6) -0.0256(3) 0.3140(2)
H23 H -0.0889 0.0143 0.2805
C20 C -0.0669(6) -0.1309(3) 0.3101(2)
H24 H -0.1046 -0.162 0.274
C21 C -0.0199(6) -0.1883(3) 0.3598(2)
C22 C 0.0373(6) -0.1442(4) 0.4128(2)
H25 H 0.0699 -0.1841 0.4461
C23 C 0.0466(6) -0.0396(4) 0.4167(2)
H26 H 0.0862 -0.0089 0.4526
B1 B 0.0335(7) 0.3578(4) 0.3872(3)
N1 N 0.1690(5) 0.2889(3) 0.35706(16)
N2 N -0.1083(5) 0.2884(3) 0.41344(16)
F1 F 0.1159(4) 0.4159(2) 0.43200(13)
F2 F -0.0459(4) 0.42126(19) 0.34390(13)
I1 I -0.03055(5) -0.34749(3) 0.355239(19)
loop_
_geom_bond_atom_site_label_1
_geom_bond_atom_site_label_2
_geom_bond_site_symmetry_1
_geom_bond_site_symmetry_2
C1 C2 1_555 1_555
C2 C3 1_555 1_555
C3 C4 1_555 1_555
C4 C5 1_555 1_555
C5 C6 1_555 1_555
C6 C7 1_555 1_555
C7 C8 1_555 1_555
C8 C9 1_555 1_555
C9 C17 1_555 1_555
C10 C1 1_555 1_555
H1 C10 1_555 1_555
H2 C10 1_555 1_555
H3 C10 1_555 1_555
C11 C2 1_555 1_555
H4 C11 1_555 1_555
H5 C11 1_555 1_555
C12 C11 1_555 1_555
H6 C12 1_555 1_555
H7 C12 1_555 1_555
H8 C12 1_555 1_555
C13 C3 1_555 1_555
H9 C13 1_555 1_555
H10 C13 1_555 1_555
H11 C13 1_555 1_555
C14 C7 1_555 1_555
H12 C14 1_555 1_555
H13 C14 1_555 1_555
H14 C14 1_555 1_555
C15 C8 1_555 1_555
H15 C15 1_555 1_555
H16 C15 1_555 1_555
C16 C15 1_555 1_555
H17 C16 1_555 1_555
H18 C16 1_555 1_555
H19 C16 1_555 1_555
C17 H20 1_555 1_555
H21 C17 1_555 1_555
H22 C17 1_555 1_555
C18 C5 1_555 1_555
C19 C18 1_555 1_555
H23 C19 1_555 1_555
C20 C19 1_555 1_555
H24 C20 1_555 1_555
C21 C20 1_555 1_555
C22 C21 1_555 1_555
H25 C22 1_555 1_555
C23 C18 1_555 1_555
H26 C23 1_555 1_555
B1 N1 1_555 1_555
N1 C1 1_555 1_555
N2 C6 1_555 1_555
F1 B1 1_555 1_555
F2 B1 1_555 1_555
I1 C21 1_555 1_555
C4 N1 1_555 1_555
C9 N2 1_555 1_555
C22 C23 1_555 1_555
B1 N2 1_555 1_555

#END
