
#######################################################################
#
#                 Cambridge Crystallographic Data Centre
#                                CCDC 
#
#######################################################################
#
# If this CIF has been generated from an entry in the Cambridge 
# Structural Database, then it will include bibliographic, chemical, 
# crystal, experimental, refinement or atomic coordinate data resulting 
# from the CCDC's data processing and validation procedures.
#
#######################################################################

data_BITVAD
_chemical_formula_moiety         '2(C39 H34 Cl2 N3 S2 1+),2(Cl1 O4 1-),C6 H14'
_chemical_name_systematic        
'5-Chloro-2-(2-(3-(2-(5-chloro-3-ethyl-1,3-benzothiazol-2(3H)-ylidene)ethylidene)-2-(diphenylamino)cyclopent-1-en-1-yl)vinyl)-3-ethyl-1,3-benzothiazol-3-ium perchlorate n-hexane solvate'
_symmetry_cell_setting           orthorhombic
_symmetry_space_group_name_H-M   'P b c a'
_symmetry_Int_Tables_number      61
_space_group_name_Hall           '-P 2ac 2ab'
loop_
_symmetry_equiv_pos_site_id
_symmetry_equiv_pos_as_xyz
1 x,y,z
2 1/2-x,-y,1/2+z
3 -x,1/2+y,1/2-z
4 1/2+x,1/2-y,-z
5 -x,-y,-z
6 1/2+x,y,1/2-z
7 x,1/2-y,1/2+z
8 1/2-x,1/2+y,z
_cell_length_a                   20.5479(13)
_cell_length_b                   14.5633(8)
_cell_length_c                   26.8560(14)
_cell_angle_alpha                90
_cell_angle_beta                 90
_cell_angle_gamma                90
_cell_volume                     8036.53
_exptl_crystal_colour            purple
_exptl_crystal_description       prism
_cell_formula_units_Z            4
loop_
_atom_site_label
_atom_site_type_symbol
_atom_site_fract_x
_atom_site_fract_y
_atom_site_fract_z
C1 C 0.6790(6) 0.1538(5) 0.0676(3)
C2 C 0.7445(5) 0.1717(5) 0.0740(3)
H1 H 0.7706 0.1824 0.0463
C3 C 0.7717(4) 0.1740(5) 0.1210(3)
H2 H 0.8156 0.1868 0.1260
C4 C 0.7296(4) 0.1558(4) 0.1605(3)
C5 C 0.6639(4) 0.1375(4) 0.1541(3)
C6 C 0.6365(4) 0.1346(4) 0.1065(3)
H3 H 0.5929 0.1206 0.1013
C7 C 0.5600(4) 0.1045(5) 0.2006(3)
H4 H 0.5498 0.0720 0.2311
H5 H 0.5472 0.0658 0.1728
C8 C 0.5223(4) 0.1922(6) 0.1988(3)
H6 H 0.5337 0.2296 0.2269
H7 H 0.4766 0.1789 0.1997
H8 H 0.5325 0.2246 0.1686
C9 C 0.6686(3) 0.1289(4) 0.2393(3)
C10 C 0.6499(4) 0.1136(5) 0.2875(3)
H9 H 0.6062 0.1030 0.2946
C11 C 0.6960(4) 0.1138(4) 0.3265(3)
H10 H 0.7388 0.1262 0.3173
C12 C 0.6858(4) 0.0980(5) 0.3763(3)
C13 C 0.6207(4) 0.0828(5) 0.4018(3)
H11 H 0.6028 0.0232 0.3932
H12 H 0.5897 0.1301 0.3925
C14 C 0.6373(4) 0.0880(5) 0.4588(3)
H13 H 0.6200 0.1439 0.4734
H14 H 0.6194 0.0357 0.4764
C15 C 0.7092(4) 0.0874(4) 0.4610(3)
C16 C 0.7337(4) 0.0972(4) 0.4117(3)
C17 C 0.8285(4) 0.0321(5) 0.3704(3)
C18 C 0.8659(4) 0.0526(6) 0.3294(3)
H15 H 0.8731 0.1132 0.3200
C19 C 0.8931(4) -0.0197(8) 0.3021(3)
H16 H 0.9192 -0.0069 0.2747
C20 C 0.8817(5) -0.1082(7) 0.3151(4)
H17 H 0.9002 -0.1559 0.2969
C21 C 0.8431(5) -0.1266(6) 0.3548(4)
H18 H 0.8346 -0.1873 0.3634
C22 C 0.8166(4) -0.0573(6) 0.3826(3)
H19 H 0.7904 -0.0712 0.4098
C23 C 0.8382(5) 0.1758(6) 0.4209(3)
C24 C 0.9028(6) 0.1648(8) 0.4259(4)
H20 H 0.9227 0.1105 0.4158
C25 C 0.9408(6) 0.2384(10) 0.4472(6)
H21 H 0.9855 0.2323 0.4512
C26 C 0.9096(8) 0.3177(10) 0.4614(5)
H22 H 0.9332 0.3642 0.4768
C27 C 0.8441(7) 0.3294(7) 0.4533(4)
H23 H 0.8237 0.3845 0.4615
C28 C 0.8092(5) 0.2585(6) 0.4330(3)
H24 H 0.7649 0.2662 0.4272
C29 C 0.7455(4) 0.0833(4) 0.5034(3)
H25 H 0.7905 0.0868 0.4999
C30 C 0.7211(4) 0.0743(4) 0.5523(3)
H26 H 0.6771 0.0623 0.5573
C31 C 0.7623(4) 0.0832(4) 0.5930(3)
C32 C 0.6763(3) 0.0495(5) 0.6560(3)
H27 H 0.6775 0.0147 0.6868
H28 H 0.6584 0.0099 0.6303
C33 C 0.6330(4) 0.1292(5) 0.6625(3)
H29 H 0.6500 0.1681 0.6883
H30 H 0.5903 0.1084 0.6717
H31 H 0.6306 0.1631 0.6319
C34 C 0.7924(5) 0.0946(4) 0.6762(3)
C35 C 0.8520(5) 0.1111(4) 0.6537(3)
C36 C 0.9062(5) 0.1311(5) 0.6813(3)
H32 H 0.9461 0.1416 0.6659
C37 C 0.9003(5) 0.1353(5) 0.7321(4)
H33 H 0.9368 0.1470 0.7516
C38 C 0.8419(6) 0.1226(5) 0.7539(3)
C39 C 0.7863(5) 0.0996(4) 0.7282(3)
H34 H 0.7471 0.0879 0.7443
Cl1 Cl 0.64870(15) 0.14873(19) 0.00723(8)
Cl2 Cl 0.83473(15) 0.13645(17) 0.81854(8)
N1 N 0.6300(3) 0.1211(4) 0.1982(2)
N2 N 0.8005(3) 0.1047(4) 0.4005(2)
N3 N 0.7430(3) 0.0749(3) 0.6421(2)
S1 S 0.74917(10) 0.15406(13) 0.22348(7)
S2 S 0.84468(10) 0.10741(13) 0.58891(7)
C40 C 0.5097(10) 0.1839(12) 0.9331(8)
H35 H 0.4766 0.1971 0.9089
H36 H 0.5496 0.2131 0.9234
H37 H 0.4963 0.2066 0.9650
C41 C 0.5205(11) 0.0768(14) 0.9362(7)
H38 H 0.4962 0.0450 0.9105
H39 H 0.5662 0.0612 0.9331
C42 C 0.4944(10) 0.0532(14) 0.9884(8)
H40 H 0.4479 0.0649 0.9882
H41 H 0.5137 0.0962 1.0117
C40D C 0.4903(10) -0.1839(12) 1.0669(8)
H35D H 0.5234 -0.1971 1.0911
H36D H 0.4504 -0.2131 1.0766
H37D H 0.5037 -0.2066 1.0350
C41D C 0.4795(11) -0.0768(14) 1.0638(7)
H38D H 0.5038 -0.0450 1.0895
H39D H 0.4338 -0.0612 1.0669
C42D C 0.5056(10) -0.0532(14) 1.0116(8)
H40D H 0.5521 -0.0649 1.0118
H41D H 0.4863 -0.0962 0.9883
Cl3 Cl 0.54409(13) 0.87825(17) 0.67065(11)
O1 O 0.6004(3) 0.8613(4) 0.7001(3)
O2 O 0.5140(3) 0.9622(4) 0.6865(2)
O3 O 0.4975(3) 0.8062(4) 0.6771(3)
O4 O 0.5635(4) 0.8858(5) 0.6207(3)
loop_
_geom_bond_atom_site_label_1
_geom_bond_atom_site_label_2
_geom_bond_site_symmetry_1
_geom_bond_site_symmetry_2
C1 C2 1_555 1_555
C2 H1 1_555 1_555
C3 C2 1_555 1_555
H2 C3 1_555 1_555
C4 C3 1_555 1_555
C5 C4 1_555 1_555
C6 C1 1_555 1_555
H3 C6 1_555 1_555
C7 H4 1_555 1_555
H5 C7 1_555 1_555
C8 C7 1_555 1_555
H6 C8 1_555 1_555
H7 C8 1_555 1_555
H8 C8 1_555 1_555
C9 C10 1_555 1_555
C10 H9 1_555 1_555
C11 C10 1_555 1_555
H10 C11 1_555 1_555
C12 C11 1_555 1_555
C13 C12 1_555 1_555
H11 C13 1_555 1_555
H12 C13 1_555 1_555
C14 C13 1_555 1_555
H13 C14 1_555 1_555
H14 C14 1_555 1_555
C15 C14 1_555 1_555
C16 C12 1_555 1_555
C17 C18 1_555 1_555
C18 H15 1_555 1_555
C19 C18 1_555 1_555
H16 C19 1_555 1_555
C20 C19 1_555 1_555
H17 C20 1_555 1_555
C21 C20 1_555 1_555
H18 C21 1_555 1_555
C22 C17 1_555 1_555
H19 C22 1_555 1_555
C23 C24 1_555 1_555
C24 H20 1_555 1_555
C25 C24 1_555 1_555
H21 C25 1_555 1_555
C26 C25 1_555 1_555
H22 C26 1_555 1_555
C27 C26 1_555 1_555
H23 C27 1_555 1_555
C28 C23 1_555 1_555
H24 C28 1_555 1_555
C29 C15 1_555 1_555
H25 C29 1_555 1_555
C30 C29 1_555 1_555
H26 C30 1_555 1_555
C31 C30 1_555 1_555
C32 H27 1_555 1_555
H28 C32 1_555 1_555
C33 C32 1_555 1_555
H29 C33 1_555 1_555
H30 C33 1_555 1_555
H31 C33 1_555 1_555
C34 C35 1_555 1_555
C35 C36 1_555 1_555
C36 H32 1_555 1_555
C37 C36 1_555 1_555
H33 C37 1_555 1_555
C38 C37 1_555 1_555
C39 C34 1_555 1_555
H34 C39 1_555 1_555
Cl1 C1 1_555 1_555
Cl2 C38 1_555 1_555
N1 C5 1_555 1_555
N2 C16 1_555 1_555
N3 C31 1_555 1_555
S1 C4 1_555 1_555
S2 C31 1_555 1_555
C40 H35 1_555 1_555
H36 C40 1_555 1_555
H37 C40 1_555 1_555
C41 C40 1_555 1_555
H38 C41 1_555 1_555
H39 C41 1_555 1_555
C42 C41 1_555 1_555
H40 C42 1_555 1_555
H41 C42 1_555 1_555
Cl3 O1 1_555 1_555
O2 Cl3 1_555 1_555
O3 Cl3 1_555 1_555
O4 Cl3 1_555 1_555
C40D H35D 1_555 1_555
H36D C40D 1_555 1_555
H37D C40D 1_555 1_555
C41D C40D 1_555 1_555
H38D C41D 1_555 1_555
H39D C41D 1_555 1_555
C42D C42 1_555 1_555
H40D C42D 1_555 1_555
H41D C42D 1_555 1_555
C5 C6 1_555 1_555
C7 N1 1_555 1_555
C9 N1 1_555 1_555
C9 S1 1_555 1_555
C15 C16 1_555 1_555
C17 N2 1_555 1_555
C21 C22 1_555 1_555
C23 N2 1_555 1_555
C27 C28 1_555 1_555
C32 N3 1_555 1_555
C34 N3 1_555 1_555
C35 S2 1_555 1_555
C38 C39 1_555 1_555
C41D C42D 1_555 1_555

#END
