
#######################################################################
#
#                 Cambridge Crystallographic Data Centre
#                                CCDC 
#
#######################################################################
#
# If this CIF has been generated from an entry in the Cambridge 
# Structural Database, then it will include bibliographic, chemical, 
# crystal, experimental, refinement or atomic coordinate data resulting 
# from the CCDC's data processing and validation procedures.
#
#######################################################################

data_BITYAH
_chemical_formula_moiety         'C12 H11 N3 O2'
_chemical_name_systematic        
4-(pyrimidin-2-yl)-3,4-dihydro-2H-1,4-benzoxazin-5-ol
_symmetry_cell_setting           monoclinic
_symmetry_space_group_name_H-M   'P 21/n'
_symmetry_Int_Tables_number      14
_space_group_name_Hall           '-P 2yn'
loop_
_symmetry_equiv_pos_site_id
_symmetry_equiv_pos_as_xyz
1 x,y,z
2 1/2-x,1/2+y,1/2-z
3 -x,-y,-z
4 1/2+x,1/2-y,1/2+z
_cell_length_a                   8.4933(12)
_cell_length_b                   9.6050(14)
_cell_length_c                   13.062(2)
_cell_angle_alpha                90
_cell_angle_beta                 98.316(6)
_cell_angle_gamma                90
_cell_volume                     1054.37
_exptl_crystal_colour            colorless
_exptl_crystal_description       block
_cell_formula_units_Z            4
loop_
_atom_site_label
_atom_site_type_symbol
_atom_site_fract_x
_atom_site_fract_y
_atom_site_fract_z
O1 O 0.19407(13) 0.47620(12) 0.71332(9)
H1 H 0.1429 0.4302 0.6648
O2 O 0.68184(13) 0.34574(12) 0.58627(10)
N1 N 0.11734(14) 0.33604(12) 0.54083(10)
N2 N 0.36992(14) 0.26723(12) 0.61379(10)
N3 N 0.23090(16) 0.12748(13) 0.48628(11)
C1 C 0.23554(17) 0.24294(14) 0.54375(11)
C2 C 0.42804(17) 0.40432(15) 0.64163(11)
C3 C 0.34281(18) 0.50311(15) 0.69100(11)
C4 C 0.58522(18) 0.43600(16) 0.62887(12)
C5 C -0.01368(17) 0.31230(16) 0.47354(12)
H2 H -0.0992 0.3767 0.4695
C6 C 0.49980(18) 0.16510(15) 0.62167(13)
H3 H 0.4572 0.0723 0.5994
H4 H 0.5522 0.1581 0.6943
C7 C 0.4113(2) 0.62994(16) 0.72199(13)
H5 H 0.3516 0.6975 0.7531
C8 C 0.5666(2) 0.65867(17) 0.70779(13)
H6 H 0.6131 0.7455 0.7298
C9 C -0.02887(19) 0.19829(17) 0.41021(13)
H7 H -0.1219 0.1825 0.3618
C10 C 0.6535(2) 0.56238(18) 0.66210(13)
H8 H 0.7602 0.5822 0.6532
C11 C 0.0980(2) 0.10766(17) 0.42044(14)
H9 H 0.0902 0.0267 0.3782
C12 C 0.61759(19) 0.21194(18) 0.55357(14)
H10 H 0.7049 0.1431 0.5567
H11 H 0.5647 0.2177 0.4810
loop_
_geom_bond_atom_site_label_1
_geom_bond_atom_site_label_2
_geom_bond_site_symmetry_1
_geom_bond_site_symmetry_2
O1 H1 1_555 1_555
O2 C4 1_555 1_555
N1 C1 1_555 1_555
N2 C1 1_555 1_555
N3 C1 1_555 1_555
C2 N2 1_555 1_555
C3 O1 1_555 1_555
C4 C2 1_555 1_555
C5 N1 1_555 1_555
H2 C5 1_555 1_555
C6 N2 1_555 1_555
H3 C6 1_555 1_555
H4 C6 1_555 1_555
C7 C3 1_555 1_555
H5 C7 1_555 1_555
C8 C7 1_555 1_555
H6 C8 1_555 1_555
C9 C5 1_555 1_555
H7 C9 1_555 1_555
C10 C4 1_555 1_555
H8 C10 1_555 1_555
C11 N3 1_555 1_555
H9 C11 1_555 1_555
C12 O2 1_555 1_555
H10 C12 1_555 1_555
H11 C12 1_555 1_555
C2 C3 1_555 1_555
C6 C12 1_555 1_555
C8 C10 1_555 1_555
C9 C11 1_555 1_555

#END
