
#######################################################################
#
#                 Cambridge Crystallographic Data Centre
#                                CCDC 
#
#######################################################################
#
# If this CIF has been generated from an entry in the Cambridge 
# Structural Database, then it will include bibliographic, chemical, 
# crystal, experimental, refinement or atomic coordinate data resulting 
# from the CCDC's data processing and validation procedures.
#
#######################################################################

data_BITYEL
_chemical_formula_moiety         'C13 H12 Cl1 N3 O1'
_chemical_name_systematic        
6-chloro-1-(pyrimidin-2-yl)-1,2,3,4-tetrahydroquinolin-8-ol
_symmetry_cell_setting           triclinic
_symmetry_space_group_name_H-M   'P -1'
_symmetry_Int_Tables_number      2
_space_group_name_Hall           '-P 1'
loop_
_symmetry_equiv_pos_site_id
_symmetry_equiv_pos_as_xyz
1 x,y,z
2 -x,-y,-z
_cell_length_a                   8.2128(11)
_cell_length_b                   10.6234(14)
_cell_length_c                   15.059(2)
_cell_angle_alpha                76.788(5)
_cell_angle_beta                 82.799(5)
_cell_angle_gamma                69.466(5)
_cell_volume                     1196.35
_exptl_crystal_colour            colorless
_exptl_crystal_description       block
_cell_formula_units_Z            4
loop_
_atom_site_label
_atom_site_type_symbol
_atom_site_fract_x
_atom_site_fract_y
_atom_site_fract_z
Cl1 Cl 0.08329(8) 0.85787(6) 0.78922(5)
O1 O 0.4148(2) 0.35246(17) 0.81616(11)
H1 H 0.3827 0.2839 0.8363
N1 N 0.3657(2) 0.29774(19) 1.01252(12)
N2 N 0.2720(2) 0.1849(2) 0.92488(13)
N3 N 0.3383(2) 0.0863(2) 1.08119(13)
C1 C 0.1972(3) 0.5396(2) 0.99963(15)
C2 C 0.1314(3) 0.6699(2) 0.94715(16)
H2 H 0.0634 0.7441 0.9756
C3 C 0.2913(3) 0.4299(2) 0.95660(15)
C4 C 0.1640(3) 0.6928(2) 0.85375(16)
C5 C 0.3226(3) 0.1862(2) 1.00671(15)
C6 C 0.3221(3) 0.4549(2) 0.86132(15)
C7 C 0.2604(3) 0.5862(2) 0.81030(16)
H3 H 0.2838 0.6033 0.7461
C8 C 0.4155(3) 0.3046(3) 1.10167(15)
H4 H 0.4979 0.3563 1.0925
H5 H 0.4733 0.2110 1.1363
C9 C 0.2950(3) -0.0201(3) 1.07268(19)
H6 H 0.3048 -0.0933 1.1238
C10 C 0.2304(3) 0.0761(3) 0.92005(19)
H7 H 0.1949 0.0713 0.8636
C11 C 0.1708(3) 0.5217(3) 1.10280(16)
H8 H 0.2203 0.5821 1.1234
H9 H 0.0442 0.5523 1.1188
C12 C 0.2522(3) 0.3761(3) 1.15447(16)
H10 H 0.1686 0.3258 1.1620
H11 H 0.2819 0.3773 1.2159
C13 C 0.2369(3) -0.0288(3) 0.9934(2)
H12 H 0.2029 -0.1040 0.9895
Cl2 Cl 0.91893(9) 0.21253(7) 0.73903(5)
O2 O 0.48591(18) 0.66515(17) 0.60275(11)
H13 H 0.4737 0.7124 0.5495
N4 N 0.7543(2) 0.78898(19) 0.53992(13)
N5 N 0.5681(2) 0.78437(19) 0.43795(13)
N6 N 0.6710(2) 0.9739(2) 0.41888(14)
C14 C 0.6626(3) 0.8506(2) 0.46254(15)
C15 C 0.7897(3) 0.6481(2) 0.58186(14)
C16 C 0.6579(3) 0.5909(2) 0.61448(15)
C17 C 0.6973(3) 0.4585(2) 0.66234(15)
H14 H 0.6077 0.4201 0.6837
C18 C 0.9630(3) 0.5682(2) 0.59961(15)
C19 C 1.0019(3) 0.4347(2) 0.64901(15)
H15 H 1.1189 0.3802 0.6620
C20 C 0.8687(3) 0.3818(2) 0.67912(15)
C21 C 1.1101(3) 0.6244(3) 0.56671(17)
H16 H 1.1785 0.5784 0.5172
H17 H 1.1880 0.6000 0.6176
C22 C 0.4846(3) 0.8450(3) 0.36068(17)
H18 H 0.4167 0.8013 0.3408
C23 C 0.8733(3) 0.8501(3) 0.56497(19)
H19 H 0.8685 0.8403 0.6321
H20 H 0.8374 0.9491 0.5372
C24 C 0.5835(3) 1.0292(3) 0.34309(17)
H21 H 0.5845 1.1171 0.3110
C25 C 0.4921(3) 0.9668(3) 0.30872(17)
H22 H 0.4372 1.0058 0.2522
C26 C 1.0554(3) 0.7790(3) 0.5316(2)
H23 H 1.1367 0.8152 0.5524
H24 H 1.0625 0.7985 0.4640
loop_
_geom_bond_atom_site_label_1
_geom_bond_atom_site_label_2
_geom_bond_site_symmetry_1
_geom_bond_site_symmetry_2
Cl1 C4 1_555 1_555
O1 H1 1_555 1_555
N1 C3 1_555 1_555
N2 C5 1_555 1_555
N3 C5 1_555 1_555
C1 C2 1_555 1_555
C2 H2 1_555 1_555
C3 C1 1_555 1_555
C4 C2 1_555 1_555
C5 N1 1_555 1_555
C6 O1 1_555 1_555
C7 C4 1_555 1_555
H3 C7 1_555 1_555
C8 N1 1_555 1_555
H4 C8 1_555 1_555
H5 C8 1_555 1_555
C9 N3 1_555 1_555
H6 C9 1_555 1_555
C10 N2 1_555 1_555
H7 C10 1_555 1_555
C11 C1 1_555 1_555
H8 C11 1_555 1_555
H9 C11 1_555 1_555
C12 C8 1_555 1_555
H10 C12 1_555 1_555
H11 C12 1_555 1_555
C13 C9 1_555 1_555
H12 C13 1_555 1_555
Cl2 C20 1_555 1_555
O2 H13 1_555 1_555
N4 C14 1_555 1_555
N5 C14 1_555 1_555
N6 C14 1_555 1_555
C15 N4 1_555 1_555
C16 O2 1_555 1_555
C17 C16 1_555 1_555
H14 C17 1_555 1_555
C18 C15 1_555 1_555
C19 C18 1_555 1_555
H15 C19 1_555 1_555
C20 C17 1_555 1_555
C21 C18 1_555 1_555
H16 C21 1_555 1_555
H17 C21 1_555 1_555
C22 N5 1_555 1_555
H18 C22 1_555 1_555
C23 N4 1_555 1_555
H19 C23 1_555 1_555
H20 C23 1_555 1_555
C24 N6 1_555 1_555
H21 C24 1_555 1_555
C25 C22 1_555 1_555
H22 C25 1_555 1_555
C26 C21 1_555 1_555
H23 C26 1_555 1_555
H24 C26 1_555 1_555
C3 C6 1_555 1_555
C6 C7 1_555 1_555
C10 C13 1_555 1_555
C11 C12 1_555 1_555
C15 C16 1_555 1_555
C19 C20 1_555 1_555
C23 C26 1_555 1_555
C24 C25 1_555 1_555

#END
