
#######################################################################
#
#                 Cambridge Crystallographic Data Centre
#                                CCDC 
#
#######################################################################
#
# If this CIF has been generated from an entry in the Cambridge 
# Structural Database, then it will include bibliographic, chemical, 
# crystal, experimental, refinement or atomic coordinate data resulting 
# from the CCDC's data processing and validation procedures.
#
#######################################################################

data_BIVGAR
_chemical_formula_moiety         'C20 H20 O4'
_chemical_name_systematic        
3a,7a-dihydroxy-2,2-diphenylhexahydro-1-benzofuran-3(2H)-one
_symmetry_cell_setting           rhombohedral
_symmetry_space_group_name_H-M   'R 3'
_symmetry_Int_Tables_number      146
_space_group_name_Hall           'R 3'
loop_
_symmetry_equiv_pos_site_id
_symmetry_equiv_pos_as_xyz
1 x,y,z
2 -y,x-y,z
3 -x+y,-x,z
4 2/3+x,1/3+y,1/3+z
5 2/3-y,1/3+x-y,1/3+z
6 2/3-x+y,1/3-x,1/3+z
7 1/3+x,2/3+y,2/3+z
8 1/3-y,2/3+x-y,2/3+z
9 1/3-x+y,2/3-x,2/3+z
_cell_length_a                   25.2353(8)
_cell_length_b                   25.2353(8)
_cell_length_c                   6.5519(2)
_cell_angle_alpha                90
_cell_angle_beta                 90
_cell_angle_gamma                120
_cell_volume                     3613.39
_exptl_crystal_colour            colorless
_exptl_crystal_description       needle
_cell_formula_units_Z            9
loop_
_atom_site_label
_atom_site_type_symbol
_atom_site_fract_x
_atom_site_fract_y
_atom_site_fract_z
O1 O 0.48055(7) 0.59301(7) 1.0370(2)
O2 O 0.57739(7) 0.60482(7) 1.1027(3)
O3 O 0.62504(7) 0.67440(7) 0.7720(2)
O4 O 0.52786(7) 0.57753(7) 0.5484(2)
C1 C 0.54569(9) 0.63505(10) 1.0461(3)
C2 C 0.56300(9) 0.65393(9) 0.8215(3)
C3 C 0.52009(9) 0.59378(9) 0.7131(3)
C4 C 0.46361(9) 0.55814(9) 0.8511(3)
C5 C 0.55610(11) 0.68550(11) 1.1941(3)
C6 C 0.53482(11) 0.72843(11) 1.1136(4)
C7 C 0.56334(11) 0.75367(10) 0.9054(4)
C8 C 0.54488(10) 0.70137(10) 0.7523(3)
C9 C 0.40882(9) 0.56048(10) 0.7579(3)
C10 C 0.37350(10) 0.57553(11) 0.8832(4)
C11 C 0.32486(11) 0.57971(12) 0.8027(4)
C12 C 0.31003(11) 0.56809(12) 0.5974(4)
C13 C 0.34425(12) 0.55227(13) 0.4733(4)
C14 C 0.39420(11) 0.54945(12) 0.5507(4)
C15 C 0.44973(10) 0.49228(10) 0.8887(3)
C16 C 0.42969(11) 0.44960(10) 0.7312(4)
C17 C 0.41870(12) 0.39044(11) 0.7659(4)
C18 C 0.42781(12) 0.37334(11) 0.9570(5)
C19 C 0.44749(12) 0.41523(12) 1.1152(4)
C20 C 0.45868(11) 0.47467(11) 1.0826(4)
H1 H 0.5779(15) 0.6036(15) 1.211(5)
H2 H 0.6437(15) 0.6774(15) 0.871(5)
H3 H 0.5329(14) 0.6650(14) 1.319(5)
H4 H 0.5988(14) 0.7090(14) 1.228(5)
H5 H 0.5467(14) 0.7611(14) 1.214(5)
H6 H 0.4904(16) 0.7064(15) 1.096(5)
H7 H 0.5512(13) 0.7817(13) 0.854(4)
H8 H 0.6099(13) 0.7767(13) 0.914(4)
H9 H 0.4998(13) 0.6785(13) 0.728(4)
H10 H 0.5648(13) 0.7148(13) 0.623(4)
H11 H 0.3848(14) 0.5850(14) 1.027(5)
H12 H 0.3029(16) 0.5875(15) 0.887(5)
H13 H 0.2775(15) 0.5709(14) 0.544(5)
H14 H 0.3350(16) 0.5448(15) 0.324(5)
H15 H 0.4193(14) 0.5391(14) 0.460(5)
H16 H 0.4229(15) 0.4602(14) 0.585(5)
H17 H 0.4068(15) 0.3631(16) 0.665(5)
H18 H 0.4208(16) 0.3336(17) 0.987(5)
H19 H 0.4526(14) 0.4034(14) 1.249(5)
H20 H 0.4726(13) 0.5027(13) 1.192(4)
loop_
_geom_bond_atom_site_label_1
_geom_bond_atom_site_label_2
_geom_bond_site_symmetry_1
_geom_bond_site_symmetry_2
O1 C1 1_555 1_555
O2 C1 1_555 1_555
O3 C2 1_555 1_555
O4 C3 1_555 1_555
C1 C2 1_555 1_555
C2 C3 1_555 1_555
C3 C4 1_555 1_555
C4 O1 1_555 1_555
C5 C1 1_555 1_555
C6 C5 1_555 1_555
C7 C6 1_555 1_555
C8 C2 1_555 1_555
C9 C4 1_555 1_555
C10 C9 1_555 1_555
C11 C10 1_555 1_555
C12 C11 1_555 1_555
C13 C12 1_555 1_555
C14 C9 1_555 1_555
C15 C4 1_555 1_555
C16 C15 1_555 1_555
C17 C16 1_555 1_555
C18 C17 1_555 1_555
C19 C18 1_555 1_555
C20 C15 1_555 1_555
H1 O2 1_555 1_555
H2 O3 1_555 1_555
H3 C5 1_555 1_555
H4 C5 1_555 1_555
H5 C6 1_555 1_555
H6 C6 1_555 1_555
H7 C7 1_555 1_555
H8 C7 1_555 1_555
H9 C8 1_555 1_555
H10 C8 1_555 1_555
H11 C10 1_555 1_555
H12 C11 1_555 1_555
H13 C12 1_555 1_555
H14 C13 1_555 1_555
H15 C14 1_555 1_555
H16 C16 1_555 1_555
H17 C17 1_555 1_555
H18 C18 1_555 1_555
H19 C19 1_555 1_555
H20 C20 1_555 1_555
C7 C8 1_555 1_555
C13 C14 1_555 1_555
C19 C20 1_555 1_555

#END
