
#######################################################################
#
#                 Cambridge Crystallographic Data Centre
#                                CCDC 
#
#######################################################################
#
# If this CIF has been generated from an entry in the Cambridge 
# Structural Database, then it will include bibliographic, chemical, 
# crystal, experimental, refinement or atomic coordinate data resulting 
# from the CCDC's data processing and validation procedures.
#
#######################################################################

data_BIVKOJ
_chemical_formula_moiety         'C18 H14 Br2 N2 O2'
_chemical_name_systematic        
4-bromo-N-(6-bromo-2-ethenyl-1-oxo-1,2,3,4-tetrahydroisoquinolin-3-yl)benzamide
_symmetry_cell_setting           monoclinic
_symmetry_space_group_name_H-M   'P 21/n'
_symmetry_Int_Tables_number      14
_space_group_name_Hall           '-P 2yn'
loop_
_symmetry_equiv_pos_site_id
_symmetry_equiv_pos_as_xyz
1 x,y,z
2 1/2-x,1/2+y,1/2-z
3 -x,-y,-z
4 1/2+x,1/2-y,1/2+z
_cell_length_a                   13.1157(4)
_cell_length_b                   7.2870(3)
_cell_length_c                   17.6580(9)
_cell_angle_alpha                90
_cell_angle_beta                 92.088(3)
_cell_angle_gamma                90
_cell_volume                     1686.53
_exptl_crystal_colour            colorless
_exptl_crystal_description       block
_cell_formula_units_Z            4
loop_
_atom_site_label
_atom_site_type_symbol
_atom_site_fract_x
_atom_site_fract_y
_atom_site_fract_z
Br1 Br 1.11620(3) 0.17200(6) 0.43651(3)
Br2 Br 0.31786(4) -0.16103(8) 0.72546(4)
O1 O 0.4035(2) 0.6304(4) 0.53186(15)
N1 N 0.6837(2) 0.4590(4) 0.61992(15)
H1 H 0.6646 0.4197 0.5757
O2 O 0.8064(2) 0.4691(5) 0.71119(15)
N2 N 0.5378(2) 0.6517(4) 0.61528(16)
C1 C 0.8550(2) 0.3539(4) 0.5926(2)
C2 C 0.4552(2) 0.5611(5) 0.58439(18)
C3 C 0.4755(3) 0.3187(5) 0.68446(19)
C4 C 0.6115(2) 0.5564(5) 0.66656(19)
H2 H 0.6495 0.6496 0.6960
C5 C 0.9531(3) 0.3193(5) 0.6224(2)
H3 H 0.9668 0.3338 0.6741
C6 C 1.0092(3) 0.2433(4) 0.5001(2)
C7 C 0.4278(2) 0.3815(5) 0.61722(18)
C8 C 0.7797(2) 0.4311(5) 0.64621(19)
C9 C 0.5583(3) 0.4331(6) 0.72156(19)
H4 H 0.6083 0.3525 0.7460
H5 H 0.5290 0.5082 0.7606
C10 C 1.0303(3) 0.2635(5) 0.5762(2)
H6 H 1.0955 0.2402 0.5965
C11 C 0.4433(3) 0.1562(6) 0.7166(2)
H7 H 0.4739 0.1132 0.7615
C12 C 0.9123(3) 0.2718(5) 0.4689(2)
H8 H 0.8990 0.2536 0.4174
C13 C 0.8356(3) 0.3274(5) 0.5151(2)
H9 H 0.7703 0.3474 0.4944
C14 C 0.3494(3) 0.2805(6) 0.5822(2)
H10 H 0.3177 0.3232 0.5377
C15 C 0.3187(3) 0.1167(6) 0.6134(2)
H11 H 0.2677 0.0465 0.5896
C16 C 0.5621(3) 0.8271(5) 0.5868(2)
H12 H 0.5199 0.8711 0.5474
C17 C 0.3653(3) 0.0595(6) 0.6808(2)
C18 C 0.6372(4) 0.9351(7) 0.6096(3)
H13 H 0.675(4) 0.908(7) 0.644(3)
H14 H 0.645(5) 1.047(9) 0.581(3)
loop_
_geom_bond_atom_site_label_1
_geom_bond_atom_site_label_2
_geom_bond_site_symmetry_1
_geom_bond_site_symmetry_2
Br1 C6 1_555 1_555
Br2 C17 1_555 1_555
O1 C2 1_555 1_555
N1 H1 1_555 1_555
O2 C8 1_555 1_555
N2 C2 1_555 1_555
C1 C5 1_555 1_555
C2 C7 1_555 1_555
C3 C7 1_555 1_555
C4 N1 1_555 1_555
H2 C4 1_555 1_555
C5 H3 1_555 1_555
C6 C10 1_555 1_555
C7 C14 1_555 1_555
C8 N1 1_555 1_555
C9 C3 1_555 1_555
H4 C9 1_555 1_555
H5 C9 1_555 1_555
C10 C5 1_555 1_555
H6 C10 1_555 1_555
C11 C3 1_555 1_555
H7 C11 1_555 1_555
C12 C6 1_555 1_555
H8 C12 1_555 1_555
C13 C1 1_555 1_555
H9 C13 1_555 1_555
C14 H10 1_555 1_555
C15 C14 1_555 1_555
H11 C15 1_555 1_555
C16 N2 1_555 1_555
H12 C16 1_555 1_555
C17 C11 1_555 1_555
C18 C16 1_555 1_555
H13 C18 1_555 1_555
H14 C18 1_555 1_555
N2 C4 1_555 1_555
C1 C8 1_555 1_555
C4 C9 1_555 1_555
C12 C13 1_555 1_555
C15 C17 1_555 1_555

#END
