
#######################################################################
#
#                 Cambridge Crystallographic Data Centre
#                                CCDC 
#
#######################################################################
#
# If this CIF has been generated from an entry in the Cambridge 
# Structural Database, then it will include bibliographic, chemical, 
# crystal, experimental, refinement or atomic coordinate data resulting 
# from the CCDC's data processing and validation procedures.
#
#######################################################################

data_BIVKAV
_chemical_formula_moiety         'C9 H12 N1 O4 1+,Cl1 1-'
_chemical_name_systematic        
'{4-[(hydroxyimino)methyl]-2,6-dimethoxyphenyl}oxidanium chloride'
_symmetry_cell_setting           monoclinic
_symmetry_space_group_name_H-M   'P 21/c'
_symmetry_Int_Tables_number      14
_space_group_name_Hall           '-P 2ybc'
loop_
_symmetry_equiv_pos_site_id
_symmetry_equiv_pos_as_xyz
1 x,y,z
2 -x,1/2+y,1/2-z
3 -x,-y,-z
4 x,1/2-y,1/2+z
_cell_length_a                   10.423(2)
_cell_length_b                   4.7320(9)
_cell_length_c                   21.569(4)
_cell_angle_alpha                90
_cell_angle_beta                 91.48(3)
_cell_angle_gamma                90
_cell_volume                     1063.46
_exptl_crystal_colour            colorless
_exptl_crystal_description       block
_cell_formula_units_Z            4
loop_
_atom_site_label
_atom_site_type_symbol
_atom_site_fract_x
_atom_site_fract_y
_atom_site_fract_z
N1 N 0.2717(3) 0.5426(8) -0.07131(13)
C1 C 0.3468(3) 0.2559(8) 0.08128(16)
H1 H 0.4155 0.1426 0.0704
O1 O 0.3329(3) 0.5006(7) -0.12707(11)
H2 H 0.2924 0.5800 -0.1551
O2 O 0.3526(3) 0.0859(6) 0.18920(11)
C2 C 0.3036(3) 0.2474(8) 0.14118(15)
O3 O 0.1490(2) 0.4043(5) 0.21514(10)
H3 H 0.1857 0.2874 0.2454
H4 H 0.0787 0.5161 0.2244
C3 C 0.1987(3) 0.4116(7) 0.15667(14)
O4 O 0.0400(2) 0.7433(6) 0.13429(11)
C4 C 0.1399(3) 0.5907(7) 0.11292(16)
C5 C 0.1852(3) 0.5957(8) 0.05335(15)
H5 H 0.1454 0.7108 0.0237
C6 C 0.2894(3) 0.4308(8) 0.03719(14)
C7 C 0.3345(4) 0.4206(9) -0.02710(17)
H6 H 0.4097 0.3240 -0.0356
C8 C 0.4614(4) -0.0880(9) 0.1756(2)
H7 H 0.4875 -0.1916 0.2120
H8 H 0.5309 0.0294 0.1626
H9 H 0.4384 -0.2179 0.1429
C9 C -0.0294(4) 0.9166(9) 0.09063(19)
H10 H -0.0977 1.0116 0.1111
H11 H -0.0646 0.8005 0.0579
H12 H 0.0276 1.0539 0.0735
Cl1 Cl 0.1422(2) -0.0794(5) 0.28393(9)
loop_
_geom_bond_atom_site_label_1
_geom_bond_atom_site_label_2
_geom_bond_site_symmetry_1
_geom_bond_site_symmetry_2
N1 O1 1_555 1_555
C1 H1 1_555 1_555
O1 H2 1_555 1_555
O2 C2 1_555 1_555
C2 C1 1_555 1_555
O3 H3 1_555 1_555
H4 O3 1_555 1_555
C3 C2 1_555 1_555
O4 C4 1_555 1_555
C4 C3 1_555 1_555
C5 C4 1_555 1_555
H5 C5 1_555 1_555
C6 C1 1_555 1_555
C7 N1 1_555 1_555
H6 C7 1_555 1_555
C8 O2 1_555 1_555
H7 C8 1_555 1_555
H8 C8 1_555 1_555
H9 C8 1_555 1_555
C9 O4 1_555 1_555
H10 C9 1_555 1_555
H11 C9 1_555 1_555
H12 C9 1_555 1_555
O3 C3 1_555 1_555
C5 C6 1_555 1_555
C6 C7 1_555 1_555

#END
