
#######################################################################
#
#                 Cambridge Crystallographic Data Centre
#                                CCDC 
#
#######################################################################
#
# If this CIF has been generated from an entry in the Cambridge 
# Structural Database, then it will include bibliographic, chemical, 
# crystal, experimental, refinement or atomic coordinate data resulting 
# from the CCDC's data processing and validation procedures.
#
#######################################################################

data_BIVKID
_chemical_formula_moiety         'C27 H29 N1 O3 S1 Si1'
_chemical_name_systematic        
1-methyl-11-[(4-methylphenyl)sulfonyl]-5-(trimethylsilyl)-1,2,3,4-tetrahydro-6H-indeno[2,1-g]quinolin-6-one
_symmetry_cell_setting           monoclinic
_symmetry_space_group_name_H-M   'C c'
_symmetry_Int_Tables_number      9
_space_group_name_Hall           'C -2yc'
loop_
_symmetry_equiv_pos_site_id
_symmetry_equiv_pos_as_xyz
1 x,y,z
2 x,-y,1/2+z
3 1/2+x,1/2+y,z
4 1/2+x,1/2-y,1/2+z
_cell_length_a                   11.8345(7)
_cell_length_b                   16.5366(9)
_cell_length_c                   12.4979(7)
_cell_angle_alpha                90
_cell_angle_beta                 96.766(2)
_cell_angle_gamma                90
_cell_volume                     2428.83
_exptl_crystal_colour            orange
_exptl_crystal_description       Needle
_cell_formula_units_Z            4
_exptl_crystal_recrystallization_method 
'evaporative concentration from acetone/ethanol'
loop_
_atom_site_label
_atom_site_type_symbol
_atom_site_fract_x
_atom_site_fract_y
_atom_site_fract_z
C1 C 0.4914(3) 0.67789(19) 0.6090(3)
N1 N 0.4541(2) 0.72269(17) 0.6898(2)
C2 C 0.4922(3) 0.7054(2) 0.8031(3)
H1 H 0.4257 0.7040 0.8442
H2 H 0.5437 0.7490 0.8333
C3 C 0.5538(3) 0.6253(2) 0.8145(3)
H3 H 0.4998 0.5806 0.7942
H4 H 0.5869 0.6172 0.8902
C4 C 0.6480(3) 0.6252(2) 0.7410(3)
H5 H 0.7024 0.6695 0.7622
H6 H 0.6900 0.5734 0.7487
C5 C 0.5977(3) 0.63651(19) 0.6248(3)
C6 C 0.6491(3) 0.60855(19) 0.5366(3)
C7 C 0.5855(3) 0.6171(2) 0.4338(3)
C8 C 0.6175(3) 0.5941(2) 0.3258(3)
O1 O 0.7084(2) 0.56928(16) 0.3029(2)
C9 C 0.5153(3) 0.6096(2) 0.2472(3)
C10 C 0.5036(3) 0.5999(2) 0.1361(3)
H7 H 0.5623 0.5760 0.1012
C11 C 0.4033(3) 0.6262(3) 0.0778(3)
H8 H 0.3921 0.6193 0.0018
C12 C 0.3191(3) 0.6625(2) 0.1298(3)
H9 H 0.2523 0.6820 0.0882
C13 C 0.3302(3) 0.6713(2) 0.2424(3)
H10 H 0.2720 0.6960 0.2771
C14 C 0.4290(3) 0.6427(2) 0.3013(3)
C15 C 0.4724(3) 0.64476(19) 0.4188(3)
C16 C 0.4220(3) 0.67115(19) 0.5083(3)
C17 C 0.4147(3) 0.8055(2) 0.6702(3)
H11 H 0.3467 0.8148 0.7063
H12 H 0.3963 0.8142 0.5925
H13 H 0.4748 0.8432 0.6987
Si1 Si 0.80406(7) 0.57037(5) 0.54660(7)
C18 C 0.8846(3) 0.5674(3) 0.6846(3)
H14 H 0.9647 0.5550 0.6792
H15 H 0.8523 0.5255 0.7275
H16 H 0.8790 0.6201 0.7195
C19 C 0.8863(3) 0.6427(2) 0.4708(3)
H17 H 0.9536 0.6155 0.4492
H18 H 0.9102 0.6890 0.5169
H19 H 0.8382 0.6616 0.4064
C20 C 0.8044(3) 0.4640(2) 0.4979(3)
H20 H 0.8831 0.4448 0.5006
H21 H 0.7676 0.4614 0.4236
H22 H 0.7629 0.4297 0.5440
S1 S 0.27104(6) 0.67767(5) 0.50119(6)
O2 O 0.2310(2) 0.75868(16) 0.4765(2)
O3 O 0.2276(2) 0.61378(17) 0.4291(2)
C21 C 0.2361(3) 0.6509(2) 0.6301(3)
C22 C 0.1733(3) 0.7049(2) 0.6852(3)
H23 H 0.1565 0.7577 0.6577
C23 C 0.1358(3) 0.6798(2) 0.7815(3)
H24 H 0.0928 0.7161 0.8196
C24 C 0.1598(3) 0.6030(2) 0.8228(3)
C25 C 0.2238(3) 0.5504(2) 0.7664(3)
H25 H 0.2420 0.4980 0.7946
C26 C 0.2612(3) 0.5735(2) 0.6699(3)
H26 H 0.3034 0.5369 0.6313
C27 C 0.1119(3) 0.5745(3) 0.9228(3)
H27 H 0.1714 0.5465 0.9700
H28 H 0.0485 0.5373 0.9025
H29 H 0.0847 0.6211 0.9609
loop_
_geom_bond_atom_site_label_1
_geom_bond_atom_site_label_2
_geom_bond_site_symmetry_1
_geom_bond_site_symmetry_2
C1 N1 1_555 1_555
N1 C2 1_555 1_555
C2 H1 1_555 1_555
H2 C2 1_555 1_555
C3 C2 1_555 1_555
H3 C3 1_555 1_555
H4 C3 1_555 1_555
C4 C3 1_555 1_555
H5 C4 1_555 1_555
H6 C4 1_555 1_555
C5 C1 1_555 1_555
C6 C5 1_555 1_555
C7 C6 1_555 1_555
C8 C7 1_555 1_555
O1 C8 1_555 1_555
C9 C8 1_555 1_555
C10 C9 1_555 1_555
H7 C10 1_555 1_555
C11 C10 1_555 1_555
H8 C11 1_555 1_555
C12 C11 1_555 1_555
H9 C12 1_555 1_555
C13 C12 1_555 1_555
H10 C13 1_555 1_555
C14 C9 1_555 1_555
C15 C7 1_555 1_555
C16 C1 1_555 1_555
C17 N1 1_555 1_555
H11 C17 1_555 1_555
H12 C17 1_555 1_555
H13 C17 1_555 1_555
Si1 C6 1_555 1_555
C18 Si1 1_555 1_555
H14 C18 1_555 1_555
H15 C18 1_555 1_555
H16 C18 1_555 1_555
C19 Si1 1_555 1_555
H17 C19 1_555 1_555
H18 C19 1_555 1_555
H19 C19 1_555 1_555
C20 Si1 1_555 1_555
H20 C20 1_555 1_555
H21 C20 1_555 1_555
H22 C20 1_555 1_555
S1 C16 1_555 1_555
O2 S1 1_555 1_555
O3 S1 1_555 1_555
C21 S1 1_555 1_555
C22 C21 1_555 1_555
H23 C22 1_555 1_555
C23 C22 1_555 1_555
H24 C23 1_555 1_555
C24 C23 1_555 1_555
C25 C24 1_555 1_555
H25 C25 1_555 1_555
C26 C21 1_555 1_555
H26 C26 1_555 1_555
C27 C24 1_555 1_555
H27 C27 1_555 1_555
H28 C27 1_555 1_555
H29 C27 1_555 1_555
C4 C5 1_555 1_555
C13 C14 1_555 1_555
C14 C15 1_555 1_555
C15 C16 1_555 1_555
C25 C26 1_555 1_555

#END
