
#######################################################################
#
#                 Cambridge Crystallographic Data Centre
#                                CCDC 
#
#######################################################################
#
# If this CIF has been generated from an entry in the Cambridge 
# Structural Database, then it will include bibliographic, chemical, 
# crystal, experimental, refinement or atomic coordinate data resulting 
# from the CCDC's data processing and validation procedures.
#
#######################################################################

data_BIVQAB
_chemical_formula_moiety         'C13 H12 N2 O3'
_chemical_name_systematic        
4-(dimethylamino)-6-nitronaphthalene-1-carbaldehyde
_symmetry_cell_setting           triclinic
_symmetry_space_group_name_H-M   'P -1'
_symmetry_Int_Tables_number      2
_space_group_name_Hall           '-P 1'
loop_
_symmetry_equiv_pos_site_id
_symmetry_equiv_pos_as_xyz
1 x,y,z
2 -x,-y,-z
_cell_length_a                   7.4808(4)
_cell_length_b                   9.5101(4)
_cell_length_c                   10.0780(5)
_cell_angle_alpha                115.813(2)
_cell_angle_beta                 92.821(3)
_cell_angle_gamma                112.034(3)
_cell_volume                     578.56
_cell_formula_units_Z            2
loop_
_atom_site_label
_atom_site_type_symbol
_atom_site_fract_x
_atom_site_fract_y
_atom_site_fract_z
O1 O 0.3371(4) 0.0259(3) -0.0769(2)
N1 N 0.2523(3) -0.0290(3) 0.0030(3)
O2 O 0.1918(4) -0.1803(3) -0.0266(3)
O3 O 0.0399(4) 0.2693(3) 0.6721(3)
N2 N 0.4002(3) 0.6129(3) 0.2461(3)
C1 C 0.1858(3) 0.3224(3) 0.4133(3)
C2 C 0.2663(3) 0.3801(3) 0.3107(3)
C3 C 0.2224(4) 0.0916(3) 0.1417(3)
C4 C 0.3357(4) 0.5611(3) 0.3511(3)
C5 C 0.2898(4) 0.2615(3) 0.1770(3)
C6 C 0.1905(4) 0.4471(3) 0.5600(3)
C7 C 0.1115(4) 0.1427(3) 0.3660(3)
C8 C 0.3438(4) 0.6765(4) 0.4966(3)
C9 C 0.2726(4) 0.6194(4) 0.5972(3)
C10 C 0.1277(4) 0.0286(4) 0.2330(3)
C11 C 0.1181(5) 0.4078(5) 0.6779(4)
C12 C 0.2653(6) 0.5297(5) 0.0966(4)
C13 C 0.5190(7) 0.7986(5) 0.3035(5)
H1 H 0.148(4) 0.513(4) 0.773(4)
H2 H 0.084(4) -0.085(4) 0.208(3)
H3 H 0.052(4) 0.102(3) 0.430(3)
H4 H 0.356(4) 0.298(3) 0.114(3)
H5 H 0.280(3) 0.701(3) 0.694(3)
H6 H 0.391(4) 0.794(4) 0.527(3)
H7 H 0.576(5) 0.812(5) 0.234(5)
H8 H 0.429(5) 0.855(4) 0.317(4)
H9 H 0.630(5) 0.845(5) 0.396(4)
H10 H 0.207(5) 0.605(4) 0.092(4)
H11 H 0.333(6) 0.518(5) 0.014(5)
H12 H 0.151(5) 0.417(5) 0.072(4)
loop_
_geom_bond_atom_site_label_1
_geom_bond_atom_site_label_2
_geom_bond_site_symmetry_1
_geom_bond_site_symmetry_2
O1 N1 1_555 1_555
N1 O2 1_555 1_555
O3 C11 1_555 1_555
N2 C4 1_555 1_555
C1 C2 1_555 1_555
C2 C4 1_555 1_555
C3 N1 1_555 1_555
C4 C8 1_555 1_555
C5 C2 1_555 1_555
C6 C1 1_555 1_555
C7 C1 1_555 1_555
C8 C9 1_555 1_555
C9 C6 1_555 1_555
C10 C3 1_555 1_555
C11 C6 1_555 1_555
C12 N2 1_555 1_555
C13 N2 1_555 1_555
H1 C11 1_555 1_555
H2 C10 1_555 1_555
H3 C7 1_555 1_555
H4 C5 1_555 1_555
H5 C9 1_555 1_555
H6 C8 1_555 1_555
H7 C13 1_555 1_555
H8 C13 1_555 1_555
H9 C13 1_555 1_555
H10 C12 1_555 1_555
H11 C12 1_555 1_555
H12 C12 1_555 1_555
C3 C5 1_555 1_555
C7 C10 1_555 1_555

#END
