
#######################################################################
#
#                 Cambridge Crystallographic Data Centre
#                                CCDC 
#
#######################################################################
#
# If this CIF has been generated from an entry in the Cambridge 
# Structural Database, then it will include bibliographic, chemical, 
# crystal, experimental, refinement or atomic coordinate data resulting 
# from the CCDC's data processing and validation procedures.
#
#######################################################################

data_BIVSIJ01
_chemical_formula_moiety         'C12 H10 N2,C13 H10 O3'
_chemical_name_systematic        
"4,4'-Dihydroxybenzophenone 1,2-bis(4-pyridyl)ethene"
_symmetry_cell_setting           orthorhombic
_symmetry_space_group_name_H-M   'P c a 21'
_symmetry_Int_Tables_number      29
_space_group_name_Hall           'P 2c -2ac'
loop_
_symmetry_equiv_pos_site_id
_symmetry_equiv_pos_as_xyz
1 x,y,z
2 -x,-y,1/2+z
3 1/2+x,-y,z
4 1/2-x,y,1/2+z
_cell_length_a                   43.6174(15)
_cell_length_b                   5.9652(2)
_cell_length_c                   7.4612(3)
_cell_angle_alpha                90
_cell_angle_beta                 90
_cell_angle_gamma                90
_cell_volume                     1941.3
_exptl_crystal_colour            'light yellow'
_exptl_crystal_description       platelike
_cell_formula_units_Z            4
loop_
_atom_site_label
_atom_site_type_symbol
_atom_site_fract_x
_atom_site_fract_y
_atom_site_fract_z
O1 O -0.21868(4) 0.2626(3) 0.9495(3)
O2 O -0.09976(4) 0.8153(3) 0.8190(3)
O3 O 0.01579(4) 0.1920(3) 0.9023(3)
C1 C -0.13739(6) 0.2898(4) 0.8458(4)
C2 C -0.16701(6) 0.2106(5) 0.8651(4)
C3 C -0.18968(6) 0.3468(4) 0.9383(4)
C4 C -0.18209(6) 0.5605(5) 0.9960(4)
C5 C -0.15247(6) 0.6416(5) 0.9720(4)
C6 C -0.12954(6) 0.5074(4) 0.8965(4)
C7 C -0.09943(6) 0.6156(4) 0.8603(4)
C8 C -0.06999(6) 0.4935(4) 0.8685(4)
C9 C -0.06633(6) 0.2814(4) 0.9479(4)
C10 C -0.03740(6) 0.1813(4) 0.9576(4)
C11 C -0.01203(6) 0.2917(4) 0.8893(4)
C12 C -0.01551(6) 0.5028(5) 0.8089(4)
C13 C -0.04383(6) 0.6007(5) 0.8015(4)
H2 H -0.0364(6) 0.030(4) 1.022(4)
H4 H -0.1486(6) 0.795(5) 1.003(4)
H6 H -0.1229(5) 0.180(4) 0.788(3)
H7 H 0.0307(8) 0.292(6) 0.867(6)
H8 H -0.1739(7) 0.072(5) 0.830(5)
H9 H -0.0848(6) 0.205(5) 1.017(4)
H10 H 0.0019(6) 0.574(4) 0.753(3)
H13 H -0.0466(7) 0.752(5) 0.751(4)
H19 H -0.2336(8) 0.405(6) 0.941(6)
H20 H -0.1976(6) 0.655(5) 1.055(4)
N1 N 0.23857(5) 1.4111(4) 0.9540(3)
N2 N 0.06158(5) 0.5075(3) 0.8714(3)
C14 C 0.21060(6) 1.4584(5) 1.0194(4)
C15 C 0.18567(7) 1.3151(5) 1.0046(4)
C16 C 0.18879(6) 1.1133(4) 0.9119(4)
C17 C 0.21798(6) 1.0662(5) 0.8448(4)
C18 C 0.24181(7) 1.2135(5) 0.8682(4)
C19 C 0.16375(7) 0.9542(5) 0.8783(4)
C20 C 0.13550(6) 0.9721(5) 0.9445(4)
C21 C 0.11048(6) 0.8098(5) 0.9142(4)
C22 C 0.08102(6) 0.8657(5) 0.9658(4)
C23 C 0.05759(6) 0.7112(5) 0.9434(4)
C24 C 0.09043(6) 0.4550(5) 0.8194(4)
C25 C 0.11505(6) 0.5990(5) 0.8383(4)
H1 H 0.0357(6) 0.743(4) 0.975(4)
H3 H 0.1693(5) 0.815(4) 0.800(4)
H5 H 0.1306(6) 1.112(4) 1.024(4)
H11 H 0.2231(6) 0.924(5) 0.777(4)
H12 H 0.0757(6) 1.014(5) 1.020(4)
H14 H 0.2106(6) 1.605(5) 1.082(4)
H15 H 0.2613(7) 1.180(5) 0.832(5)
H16 H 0.1366(6) 0.548(5) 0.796(4)
H17 H 0.0930(6) 0.307(5) 0.763(4)
H18 H 0.1689(7) 1.370(5) 1.052(4)
loop_
_geom_bond_atom_site_label_1
_geom_bond_atom_site_label_2
_geom_bond_site_symmetry_1
_geom_bond_site_symmetry_2
O1 C3 1_555 1_555
O2 C7 1_555 1_555
O3 C11 1_555 1_555
N1 C14 1_555 1_555
N2 C23 1_555 1_555
C1 C2 1_555 1_555
C2 C3 1_555 1_555
C3 C4 1_555 1_555
C4 C5 1_555 1_555
C5 C6 1_555 1_555
C6 C1 1_555 1_555
C7 C6 1_555 1_555
C8 C7 1_555 1_555
C9 C8 1_555 1_555
C10 C9 1_555 1_555
C11 C10 1_555 1_555
C12 C11 1_555 1_555
C13 C8 1_555 1_555
C14 C15 1_555 1_555
C15 C16 1_555 1_555
C16 C17 1_555 1_555
C17 C18 1_555 1_555
C18 N1 1_555 1_555
C19 C16 1_555 1_555
C20 C19 1_555 1_555
C21 C20 1_555 1_555
C22 C21 1_555 1_555
C23 C22 1_555 1_555
C24 N2 1_555 1_555
C25 C21 1_555 1_555
H1 C23 1_555 1_555
H2 C10 1_555 1_555
H3 C19 1_555 1_555
H4 C5 1_555 1_555
H5 C20 1_555 1_555
H6 C1 1_555 1_555
H7 O3 1_555 1_555
H8 C2 1_555 1_555
H9 C9 1_555 1_555
H10 C12 1_555 1_555
H11 C17 1_555 1_555
H12 C22 1_555 1_555
H13 C13 1_555 1_555
H14 C14 1_555 1_555
H15 C18 1_555 1_555
H16 C25 1_555 1_555
H17 C24 1_555 1_555
H18 C15 1_555 1_555
H19 O1 1_555 1_555
H20 C4 1_555 1_555
C12 C13 1_555 1_555
C24 C25 1_555 1_555

#END
