
#######################################################################
#
#                 Cambridge Crystallographic Data Centre
#                                CCDC 
#
#######################################################################
#
# If this CIF has been generated from an entry in the Cambridge 
# Structural Database, then it will include bibliographic, chemical, 
# crystal, experimental, refinement or atomic coordinate data resulting 
# from the CCDC's data processing and validation procedures.
#
#######################################################################

data_BIVVIO
_chemical_formula_moiety         'C28 H24 Br2 N2 O6'
_chemical_name_systematic        
'methyl 3-[4-benzyl-2-(3,5-dibromophenyl)-5-oxo-4,5-dihydro-1,3-oxazol-4-yl]-2-(1,3-dioxo-1,3,3a,4,7,7a-hexahydro-2H-isoindol-2-yl)propanoate'
_symmetry_cell_setting           monoclinic
_symmetry_space_group_name_H-M   'P 21/n'
_symmetry_Int_Tables_number      14
_space_group_name_Hall           '-P 2yn'
loop_
_symmetry_equiv_pos_site_id
_symmetry_equiv_pos_as_xyz
1 x,y,z
2 1/2-x,1/2+y,1/2-z
3 -x,-y,-z
4 1/2+x,1/2-y,1/2+z
_cell_length_a                   19.5453(13)
_cell_length_b                   7.0892(3)
_cell_length_c                   21.3997(18)
_cell_angle_alpha                90
_cell_angle_beta                 110.428(9)
_cell_angle_gamma                90
_cell_volume                     2778.68
_exptl_crystal_colour            'light colorless'
_exptl_crystal_description       block
_cell_formula_units_Z            4
loop_
_atom_site_label
_atom_site_type_symbol
_atom_site_fract_x
_atom_site_fract_y
_atom_site_fract_z
Br1 Br 0.04604(4) 1.33308(8) 0.16478(4)
Br2 Br 0.10477(3) 0.70058(8) 0.03375(3)
O1 O -0.2031(2) 0.8520(6) -0.0585(2)
O2 O -0.42836(19) 0.6696(5) -0.06923(19)
O3 O -0.3906(2) 1.1052(5) -0.0786(2)
O4 O -0.3941(2) 1.1114(5) 0.0240(2)
O5 O -0.25369(18) 0.4007(5) 0.04067(16)
O6 O -0.15406(16) 0.5844(4) 0.06311(15)
N1 N -0.3121(2) 0.7734(5) -0.04865(19)
N2 N -0.17799(19) 0.8226(5) 0.12295(18)
C1 C -0.4155(4) 0.5770(11) -0.2003(3)
H1 H -0.4147 0.4721 -0.2291
H2 H -0.4629 0.5793 -0.1952
C2 C -0.4043(4) 0.7493(12) -0.2299(4)
H3 H -0.4436 0.8302 -0.2488
C3 C -0.3420(5) 0.7945(12) -0.2310(4)
H4 H -0.3372 0.9025 -0.2538
C4 C -0.2761(4) 0.6770(12) -0.1962(4)
H5 H -0.2323 0.7516 -0.1881
H6 H -0.2742 0.5704 -0.2240
C5 C -0.2800(3) 0.6047(8) -0.1282(3)
H7 H -0.2475 0.4959 -0.1128
C6 C -0.3571(3) 0.5504(8) -0.1334(3)
H8 H -0.3567 0.4171 -0.1212
C7 C -0.3734(3) 0.6649(7) -0.0816(3)
C8 C -0.2578(3) 0.7589(8) -0.0761(3)
C9 C -0.3098(2) 0.9030(7) 0.0048(2)
H9 H -0.2634 0.9712 0.0170
C10 C -0.3105(2) 0.8008(7) 0.0672(2)
H10 H -0.3507 0.7117 0.0544
H11 H -0.3202 0.8927 0.0967
C11 C -0.2406(2) 0.6944(6) 0.1064(2)
C12 C -0.2219(2) 0.5391(7) 0.0662(2)
C13 C -0.1345(2) 0.7553(6) 0.0972(2)
C14 C -0.0655(2) 0.8374(6) 0.0974(2)
C15 C -0.0451(3) 1.0137(6) 0.1263(2)
H12 H -0.0742 1.0769 0.1459
C16 C 0.0186(3) 1.0926(6) 0.1256(2)
C17 C 0.0639(2) 1.0012(6) 0.0984(2)
H13 H 0.1074 1.0561 0.0990
C18 C 0.0429(2) 0.8267(6) 0.0705(2)
C19 C -0.0213(2) 0.7443(7) 0.0689(2)
H14 H -0.0351 0.6272 0.0488
C20 C -0.2497(3) 0.6083(7) 0.1696(2)
H15 H -0.2618 0.7091 0.1946
H16 H -0.2907 0.5218 0.1557
C21 C -0.1841(3) 0.5049(7) 0.2154(2)
C22 C -0.1319(3) 0.5972(8) 0.2668(3)
H17 H -0.1373 0.7254 0.2732
C23 C -0.0707(4) 0.5021(11) 0.3098(3)
H18 H -0.0355 0.5670 0.3437
C24 C -0.0634(4) 0.3138(11) 0.3014(3)
H19 H -0.0233 0.2491 0.3300
C25 C -0.1146(4) 0.2208(9) 0.2517(3)
H20 H -0.1097 0.0919 0.2464
C26 C -0.1740(3) 0.3151(8) 0.2088(3)
H21 H -0.2081 0.2488 0.1744
C27 C -0.3703(3) 1.0480(7) -0.0225(3)
C28 C -0.4493(3) 1.2573(8) 0.0045(4)
H22 H -0.4908 1.2130 -0.0318
H23 H -0.4297 1.3676 -0.0091
H24 H -0.4640 1.2882 0.0417
loop_
_geom_bond_atom_site_label_1
_geom_bond_atom_site_label_2
_geom_bond_site_symmetry_1
_geom_bond_site_symmetry_2
Br1 C16 1_555 1_555
Br2 C18 1_555 1_555
O1 C8 1_555 1_555
O2 C7 1_555 1_555
O3 C27 1_555 1_555
O4 C27 1_555 1_555
O5 C12 1_555 1_555
O6 C12 1_555 1_555
N1 C7 1_555 1_555
N2 C11 1_555 1_555
C1 H1 1_555 1_555
H2 C1 1_555 1_555
C2 C1 1_555 1_555
H3 C2 1_555 1_555
C3 C2 1_555 1_555
H4 C3 1_555 1_555
C4 C3 1_555 1_555
H5 C4 1_555 1_555
H6 C4 1_555 1_555
C5 C4 1_555 1_555
H7 C5 1_555 1_555
C6 C1 1_555 1_555
H8 C6 1_555 1_555
C7 C6 1_555 1_555
C8 N1 1_555 1_555
C9 N1 1_555 1_555
H9 C9 1_555 1_555
C10 C9 1_555 1_555
H10 C10 1_555 1_555
H11 C10 1_555 1_555
C11 C10 1_555 1_555
C12 C11 1_555 1_555
C13 O6 1_555 1_555
C14 C13 1_555 1_555
C15 C14 1_555 1_555
H12 C15 1_555 1_555
C16 C15 1_555 1_555
C17 C16 1_555 1_555
H13 C17 1_555 1_555
C18 C17 1_555 1_555
C19 C14 1_555 1_555
H14 C19 1_555 1_555
C20 C11 1_555 1_555
H15 C20 1_555 1_555
H16 C20 1_555 1_555
C21 C20 1_555 1_555
C22 C21 1_555 1_555
H17 C22 1_555 1_555
C23 C22 1_555 1_555
H18 C23 1_555 1_555
C24 C23 1_555 1_555
H19 C24 1_555 1_555
C25 C24 1_555 1_555
H20 C25 1_555 1_555
C26 C21 1_555 1_555
H21 C26 1_555 1_555
C27 C9 1_555 1_555
C28 O4 1_555 1_555
H22 C28 1_555 1_555
H23 C28 1_555 1_555
H24 C28 1_555 1_555
N2 C13 1_555 1_555
C5 C6 1_555 1_555
C5 C8 1_555 1_555
C18 C19 1_555 1_555
C25 C26 1_555 1_555

#END
