
#######################################################################
#
#                 Cambridge Crystallographic Data Centre
#                                CCDC 
#
#######################################################################
#
# If this CIF has been generated from an entry in the Cambridge 
# Structural Database, then it will include bibliographic, chemical, 
# crystal, experimental, refinement or atomic coordinate data resulting 
# from the CCDC's data processing and validation procedures.
#
#######################################################################

data_BIVWEJ
_chemical_formula_moiety         'C28 H33 N3 O3'
_chemical_name_systematic        
(S)-1-(2-((4-Methoxyphenyl)amino)pent-4-enoyl)-8,8-dimethyl-2-phenylhexahydro-3a,6-methanoindazol-3(2H)-one
_symmetry_cell_setting           orthorhombic
_symmetry_space_group_name_H-M   'P 21 21 21'
_symmetry_Int_Tables_number      19
_space_group_name_Hall           'P 2ac 2ab'
loop_
_symmetry_equiv_pos_site_id
_symmetry_equiv_pos_as_xyz
1 x,y,z
2 1/2-x,-y,1/2+z
3 1/2+x,1/2-y,-z
4 -x,1/2+y,1/2-z
_cell_length_a                   10.4419(4)
_cell_length_b                   15.1318(6)
_cell_length_c                   15.7265(8)
_cell_angle_alpha                90
_cell_angle_beta                 90
_cell_angle_gamma                90
_cell_volume                     2484.86
_exptl_crystal_colour            colorless
_exptl_crystal_description       prism
_cell_formula_units_Z            4
loop_
_atom_site_label
_atom_site_type_symbol
_atom_site_fract_x
_atom_site_fract_y
_atom_site_fract_z
O1 O 0.6559(3) 0.1049(2) 0.66029(19)
O2 O 0.3904(2) 0.27452(19) 0.46150(17)
O3 O 0.3237(4) 0.1720(3) -0.0606(3)
N1 N 0.5699(3) 0.1933(2) 0.55567(19)
N2 N 0.5797(3) 0.2014(2) 0.46570(18)
N3 N 0.3924(3) 0.2152(2) 0.2896(2)
H1 H 0.3258 0.1908 0.3245
C1 C 0.6361(4) 0.1196(3) 0.5850(3)
C2 C 0.6712(3) 0.0662(2) 0.5093(2)
C3 C 0.7979(3) 0.0158(3) 0.5016(3)
H2 H 0.8670 0.0571 0.4954
H3 H 0.8104 -0.0184 0.5524
C4 C 0.7718(4) -0.0419(3) 0.4221(3)
H4 H 0.8304 -0.0242 0.3782
H5 H 0.7859 -0.1029 0.4358
C5 C 0.6335(4) -0.0216(3) 0.3994(3)
H6 H 0.5946 -0.0632 0.3612
C6 C 0.6269(4) 0.0710(3) 0.3588(2)
H7 H 0.6842 0.0741 0.3112
H8 H 0.5411 0.0831 0.3402
C7 C 0.6664(3) 0.1308(2) 0.4346(2)
H9 H 0.7513 0.1531 0.4251
C8 C 0.5694(4) -0.0070(3) 0.4848(3)
C9 C 0.4300(4) 0.0238(3) 0.4812(3)
H10 H 0.3760 -0.0252 0.4664
H11 H 0.4216 0.0693 0.4390
H12 H 0.4048 0.0466 0.5357
C10 C 0.5752(4) -0.0876(3) 0.5432(3)
H13 H 0.5118 -0.1295 0.5251
H14 H 0.5586 -0.0704 0.6009
H15 H 0.6586 -0.1141 0.5396
C11 C 0.5535(3) 0.2712(3) 0.6062(2)
C12 C 0.6237(4) 0.3461(3) 0.5896(3)
H16 H 0.6826 0.3448 0.5428
C13 C 0.6059(5) 0.4193(3) 0.6407(3)
H17 H 0.6568 0.4712 0.6315
C14 C 0.5197(4) 0.4179(4) 0.7059(3)
H18 H 0.5035 0.4693 0.7400
C15 C 0.4516(4) 0.3430(3) 0.7232(3)
H19 H 0.3928 0.3420 0.7701
C16 C 0.4660(4) 0.2685(3) 0.6729(2)
H20 H 0.4181 0.2154 0.6832
C17 C 0.4837(4) 0.2444(2) 0.4247(2)
C18 C 0.4996(4) 0.2583(3) 0.3300(2)
H21 H 0.5797 0.2331 0.3123
C19 C 0.5051(5) 0.3573(3) 0.3098(3)
H22 H 0.5094 0.3647 0.2492
H23 H 0.4282 0.3843 0.3309
C20 C 0.6172(5) 0.4054(4) 0.3449(4)
H24 H 0.6395 0.3964 0.4035
C21 C 0.6892(7) 0.4598(5) 0.3097(5)
H25 H 0.7581 0.4874 0.3401
H26 H 0.6754 0.4736 0.2508
C22 C 0.3855(3) 0.2072(3) 0.2009(2)
C23 C 0.2648(4) 0.2116(3) 0.1618(3)
H27 H 0.1906 0.2236 0.1960
C24 C 0.2510(4) 0.2004(3) 0.0766(3)
H28 H 0.1677 0.2064 0.0513
C25 C 0.3544(5) 0.1831(3) 0.0265(3)
C26 C 0.4731(5) 0.1788(3) 0.0613(3)
H29 H 0.5450 0.1695 0.0244
C27 C 0.4887(4) 0.1914(4) 0.1484(3)
H30 H 0.5724 0.1893 0.1736
C28 C 0.4193(6) 0.1628(4) -0.1109(5)
H31 H 0.3906 0.1569 -0.1686
H32 H 0.4672 0.1112 -0.0950
H33 H 0.4729 0.2141 -0.1059
loop_
_geom_bond_atom_site_label_1
_geom_bond_atom_site_label_2
_geom_bond_site_symmetry_1
_geom_bond_site_symmetry_2
O1 C1 1_555 1_555
O2 C17 1_555 1_555
O3 C25 1_555 1_555
N1 N2 1_555 1_555
N2 C7 1_555 1_555
N3 H1 1_555 1_555
C1 N1 1_555 1_555
C2 C1 1_555 1_555
C3 C2 1_555 1_555
H2 C3 1_555 1_555
H3 C3 1_555 1_555
C4 C3 1_555 1_555
H4 C4 1_555 1_555
H5 C4 1_555 1_555
C5 C4 1_555 1_555
H6 C5 1_555 1_555
C6 C5 1_555 1_555
H7 C6 1_555 1_555
H8 C6 1_555 1_555
C7 C2 1_555 1_555
H9 C7 1_555 1_555
C8 C2 1_555 1_555
C9 C8 1_555 1_555
H10 C9 1_555 1_555
H11 C9 1_555 1_555
H12 C9 1_555 1_555
C10 C8 1_555 1_555
H13 C10 1_555 1_555
H14 C10 1_555 1_555
H15 C10 1_555 1_555
C11 N1 1_555 1_555
C12 C11 1_555 1_555
H16 C12 1_555 1_555
C13 C12 1_555 1_555
H17 C13 1_555 1_555
C14 C13 1_555 1_555
H18 C14 1_555 1_555
C15 C14 1_555 1_555
H19 C15 1_555 1_555
C16 C11 1_555 1_555
H20 C16 1_555 1_555
C17 N2 1_555 1_555
C18 N3 1_555 1_555
H21 C18 1_555 1_555
C19 C18 1_555 1_555
H22 C19 1_555 1_555
H23 C19 1_555 1_555
C20 C19 1_555 1_555
H24 C20 1_555 1_555
C21 C20 1_555 1_555
H25 C21 1_555 1_555
H26 C21 1_555 1_555
C22 N3 1_555 1_555
C23 C22 1_555 1_555
H27 C23 1_555 1_555
C24 C23 1_555 1_555
H28 C24 1_555 1_555
C25 C24 1_555 1_555
C26 C25 1_555 1_555
H29 C26 1_555 1_555
C27 C22 1_555 1_555
H30 C27 1_555 1_555
C28 O3 1_555 1_555
H31 C28 1_555 1_555
H32 C28 1_555 1_555
H33 C28 1_555 1_555
C5 C8 1_555 1_555
C6 C7 1_555 1_555
C15 C16 1_555 1_555
C17 C18 1_555 1_555
C26 C27 1_555 1_555

#END
