
#######################################################################
#
#                 Cambridge Crystallographic Data Centre
#                                CCDC 
#
#######################################################################
#
# If this CIF has been generated from an entry in the Cambridge 
# Structural Database, then it will include bibliographic, chemical, 
# crystal, experimental, refinement or atomic coordinate data resulting 
# from the CCDC's data processing and validation procedures.
#
#######################################################################

data_BIVWAH
_chemical_formula_moiety         'C38 H44 S2'
_chemical_name_systematic        
7,14-dioctylchryseno[1,2-b:7,8-b']bisthiophene
_symmetry_cell_setting           monoclinic
_symmetry_space_group_name_H-M   'P 21/c'
_symmetry_Int_Tables_number      14
_space_group_name_Hall           '-P 2ybc'
loop_
_symmetry_equiv_pos_site_id
_symmetry_equiv_pos_as_xyz
1 x,y,z
2 -x,1/2+y,1/2-z
3 -x,-y,-z
4 x,1/2-y,1/2+z
_cell_length_a                   8.3893(3)
_cell_length_b                   5.1076(2)
_cell_length_c                   36.6727(11)
_cell_angle_alpha                90
_cell_angle_beta                 94.2930(10)
_cell_angle_gamma                90
_cell_volume                     1566.99
_exptl_crystal_colour            white
_exptl_crystal_description       block
_cell_formula_units_Z            2
loop_
_atom_site_label
_atom_site_type_symbol
_atom_site_fract_x
_atom_site_fract_y
_atom_site_fract_z
C1 C 0.04924(17) 0.1763(3) 0.40896(4)
H1 H -0.0342 0.0673 0.3987
S1 S 0.01930(4) 0.42886(7) 0.43898(2)
C2 C 0.20373(16) 0.1500(3) 0.40165(4)
H2 H 0.2405 0.0214 0.3855
C3 C 0.30646(15) 0.3373(2) 0.42081(3)
C4 C 0.22233(14) 0.5021(3) 0.44284(3)
C5 C 0.29685(14) 0.6958(2) 0.46576(3)
C6 C 0.54856(16) 0.5560(3) 0.44241(3)
H3 H 0.6611 0.5760 0.4422
C7 C 0.46481(14) 0.7235(2) 0.46557(3)
C8 C 0.21088(14) 0.8587(3) 0.48880(3)
H4 H 0.0984 0.8384 0.4890
C9 C 0.47527(15) 0.3680(3) 0.42049(3)
C10 C 0.28610(14) 1.0422(3) 0.51041(3)
H5 H 0.2250 1.1486 0.5254
C11 C 0.45544(14) 1.0802(2) 0.51128(3)
C12 C 0.56900(16) 0.1999(3) 0.39582(4)
H6 H 0.5291 0.0177 0.3965
H7 H 0.6828 0.1990 0.4052
C13 C 0.55676(19) 0.2952(3) 0.35620(4)
H8 H 0.4430 0.2955 0.3468
H9 H 0.5961 0.4778 0.3555
C14 C 0.65155(18) 0.1275(3) 0.33110(4)
H10 H 0.7641 0.1188 0.3413
H11 H 0.6080 -0.0527 0.3307
C15 C 0.64790(19) 0.2289(3) 0.29216(4)
H12 H 0.6849 0.4131 0.2927
H13 H 0.5361 0.2268 0.2814
C16 C 0.75096(18) 0.0712(3) 0.26772(4)
H14 H 0.7082 -0.1093 0.2656
H15 H 0.8607 0.0605 0.2796
C17 C 0.75929(18) 0.1840(3) 0.22944(4)
H16 H 0.6514 0.1774 0.2165
H17 H 0.7917 0.3701 0.2315
C18 C 0.8754(2) 0.0399(3) 0.20682(4)
H18 H 0.9818 0.0372 0.2204
H19 H 0.8393 -0.1437 0.2035
C19 C 0.8913(3) 0.1606(4) 0.16956(4)
H20 H 0.9717 0.0641 0.1569
H21 H 0.9244 0.3439 0.1725
H22 H 0.7882 0.1520 0.1552
C1B C 0.95076(17) 1.8237(3) 0.59104(4)
H1B H 1.0342 1.9327 0.6013
S1B S 0.98070(4) 1.57114(7) 0.56102(2)
C2B C 0.79627(16) 1.8500(3) 0.59835(4)
H2B H 0.7595 1.9786 0.6145
C3B C 0.69354(15) 1.6627(2) 0.57919(3)
C4B C 0.77767(14) 1.4979(3) 0.55716(3)
C5B C 0.70315(14) 1.3042(2) 0.53424(3)
C6B C 0.45144(16) 1.4440(3) 0.55759(3)
H3B H 0.3389 1.4240 0.5578
C7B C 0.53519(14) 1.2765(2) 0.53443(3)
C8B C 0.78912(14) 1.1413(3) 0.51120(3)
H4B H 0.9016 1.1616 0.5110
C9B C 0.52473(15) 1.6320(3) 0.57951(3)
C10B C 0.71390(14) 0.9578(3) 0.48959(3)
H5B H 0.7750 0.8514 0.4746
C11B C 0.54456(14) 0.9198(2) 0.48872(3)
C12B C 0.43100(16) 1.8001(3) 0.60418(4)
H6B H 0.4709 1.9823 0.6035
H7B H 0.3172 1.8010 0.5948
C13B C 0.44324(19) 1.7048(3) 0.64380(4)
H8B H 0.5570 1.7045 0.6532
H9B H 0.4039 1.5222 0.6445
C14B C 0.34845(18) 1.8725(3) 0.66890(4)
H10B H 0.2359 1.8812 0.6587
H11B H 0.3920 2.0527 0.6693
C15B C 0.35210(19) 1.7711(3) 0.70784(4)
H12B H 0.3151 1.5869 0.7073
H13B H 0.4639 1.7732 0.7186
C16B C 0.24904(18) 1.9288(3) 0.73228(4)
H14B H 0.2918 2.1093 0.7344
H15B H 0.1393 1.9395 0.7204
C17B C 0.24071(18) 1.8160(3) 0.77056(4)
H16B H 0.3486 1.8226 0.7835
H17B H 0.2083 1.6299 0.7685
C18B C 0.1246(2) 1.9601(3) 0.79318(4)
H18B H 0.0182 1.9628 0.7796
H19B H 0.1607 2.1437 0.7965
C19B C 0.1087(3) 1.8394(4) 0.83044(4)
H20B H 0.0283 1.9359 0.8431
H21B H 0.0756 1.6561 0.8275
H22B H 0.2118 1.8480 0.8448
loop_
_geom_bond_atom_site_label_1
_geom_bond_atom_site_label_2
_geom_bond_site_symmetry_1
_geom_bond_site_symmetry_2
C1 H1 1_555 1_555
S1 C1 1_555 1_555
C2 C1 1_555 1_555
H2 C2 1_555 1_555
C3 C2 1_555 1_555
C4 S1 1_555 1_555
C5 C4 1_555 1_555
C6 H3 1_555 1_555
C7 C5 1_555 1_555
C8 C5 1_555 1_555
H4 C8 1_555 1_555
C9 C3 1_555 1_555
C10 C8 1_555 1_555
H5 C10 1_555 1_555
C11 C10 1_555 1_555
C12 C9 1_555 1_555
H6 C12 1_555 1_555
H7 C12 1_555 1_555
C13 C12 1_555 1_555
H8 C13 1_555 1_555
H9 C13 1_555 1_555
C14 C13 1_555 1_555
H10 C14 1_555 1_555
H11 C14 1_555 1_555
C15 C14 1_555 1_555
H12 C15 1_555 1_555
H13 C15 1_555 1_555
C16 C15 1_555 1_555
H14 C16 1_555 1_555
H15 C16 1_555 1_555
C17 C16 1_555 1_555
H16 C17 1_555 1_555
H17 C17 1_555 1_555
C18 C17 1_555 1_555
H18 C18 1_555 1_555
H19 C18 1_555 1_555
C19 C18 1_555 1_555
H20 C19 1_555 1_555
H21 C19 1_555 1_555
H22 C19 1_555 1_555
C1B H1B 1_555 1_555
S1B C1B 1_555 1_555
C2B C1B 1_555 1_555
H2B C2B 1_555 1_555
C3B C2B 1_555 1_555
C4B S1B 1_555 1_555
C5B C4B 1_555 1_555
C6B H3B 1_555 1_555
C7B C11 1_555 1_555
C8B C5B 1_555 1_555
H4B C8B 1_555 1_555
C9B C3B 1_555 1_555
C10B C8B 1_555 1_555
H5B C10B 1_555 1_555
C11B C7 1_555 1_555
C12B C9B 1_555 1_555
H6B C12B 1_555 1_555
H7B C12B 1_555 1_555
C13B C12B 1_555 1_555
H8B C13B 1_555 1_555
H9B C13B 1_555 1_555
C14B C13B 1_555 1_555
H10B C14B 1_555 1_555
H11B C14B 1_555 1_555
C15B C14B 1_555 1_555
H12B C15B 1_555 1_555
H13B C15B 1_555 1_555
C16B C15B 1_555 1_555
H14B C16B 1_555 1_555
H15B C16B 1_555 1_555
C17B C16B 1_555 1_555
H16B C17B 1_555 1_555
H17B C17B 1_555 1_555
C18B C17B 1_555 1_555
H18B C18B 1_555 1_555
H19B C18B 1_555 1_555
C19B C18B 1_555 1_555
H20B C19B 1_555 1_555
H21B C19B 1_555 1_555
H22B C19B 1_555 1_555
C3 C4 1_555 1_555
C6 C7 1_555 1_555
C6 C9 1_555 1_555
C11 C11B 1_555 1_555
C3B C4B 1_555 1_555
C5B C7B 1_555 1_555
C6B C7B 1_555 1_555
C6B C9B 1_555 1_555
C10B C11B 1_555 1_555

#END
