
#######################################################################
#
#                 Cambridge Crystallographic Data Centre
#                                CCDC 
#
#######################################################################
#
# If this CIF has been generated from an entry in the Cambridge 
# Structural Database, then it will include bibliographic, chemical, 
# crystal, experimental, refinement or atomic coordinate data resulting 
# from the CCDC's data processing and validation procedures.
#
#######################################################################

data_BIVWAF
_chemical_formula_moiety         'C32 H46 N6 O3'
_chemical_name_systematic        
1-Hexanoyl-4-(4-((4-(4-hexanoylpiperazin-1-yl)phenyl)-NNO-azoxy)phenyl)piperazine
_symmetry_cell_setting           orthorhombic
_symmetry_space_group_name_H-M   'P b c a'
_symmetry_Int_Tables_number      61
_space_group_name_Hall           '-P 2ac 2ab'
loop_
_symmetry_equiv_pos_site_id
_symmetry_equiv_pos_as_xyz
1 x,y,z
2 1/2-x,-y,1/2+z
3 -x,1/2+y,1/2-z
4 1/2+x,1/2-y,-z
5 -x,-y,-z
6 1/2+x,y,1/2-z
7 x,1/2-y,1/2+z
8 1/2-x,1/2+y,z
_cell_length_a                   8.3046(14)
_cell_length_b                   11.0597(17)
_cell_length_c                   66.794(11)
_cell_angle_alpha                90
_cell_angle_beta                 90
_cell_angle_gamma                90
_cell_volume                     6134.79
_exptl_crystal_colour            yellow
_chemical_melting_point          251-253deg.C
_cell_formula_units_Z            8
_exptl_crystal_recrystallization_method dichloromethane/hexane
loop_
_atom_site_label
_atom_site_type_symbol
_atom_site_fract_x
_atom_site_fract_y
_atom_site_fract_z
O1 O 0.3650(4) 0.3533(2) 0.14288(4)
O2 O 0.4207(4) 0.3372(2) 0.30737(4)
O3 O 0.3069(4) 0.8504(3) 0.44999(4)
N1 N 0.3809(5) 0.4643(3) 0.17100(6)
N2 N 0.3859(4) 0.4766(2) 0.21370(5)
N3 N 0.3650(4) 0.5284(3) 0.29722(5)
N4 N 0.3918(4) 0.4492(3) 0.31037(5)
N5 N 0.4183(4) 0.6135(2) 0.39015(5)
N6 N 0.3786(4) 0.6957(3) 0.43043(5)
C1 C 0.4042(6) 0.7521(4) 0.06931(7)
H1 H 0.4088 0.7313 0.0554
H2 H 0.4993 0.7963 0.0729
H3 H 0.3109 0.8011 0.0718
C2 C 0.3941(5) 0.6385(4) 0.08163(6)
H4 H 0.4875 0.5888 0.0787
H5 H 0.2993 0.5935 0.0775
C3 C 0.3858(5) 0.6588(3) 0.10396(6)
H6 H 0.2913 0.7072 0.1069
H7 H 0.4796 0.7051 0.1080
C4 C 0.3787(5) 0.5449(3) 0.11636(6)
H8 H 0.2846 0.4987 0.1124
H9 H 0.4730 0.4961 0.1135
C5 C 0.3715(5) 0.5678(3) 0.13851(6)
H10 H 0.2742 0.6129 0.1415
H11 H 0.4626 0.6176 0.1423
C6 C 0.3730(5) 0.4535(3) 0.15103(7)
C7 C 0.3511(16) 0.3550(12) 0.1835(3)
H12 H 0.402(7) 0.287(5) 0.1750(8)
H13 H 0.232(8) 0.348(5) 0.1892(8)
C8 C 0.409(3) 0.3710(14) 0.2037(3)
H14 H 0.379(13) 0.300(11) 0.2123(14)
H15 H 0.524(13) 0.365(8) 0.1967(18)
C9 C 0.4102(16) 0.5818(9) 0.2013(2)
H16 H 0.522(7) 0.592(5) 0.1995(9)
H17 H 0.355(9) 0.657(7) 0.2094(10)
C10 C 0.392(3) 0.5817(14) 0.1808(3)
H18 H 0.256(13) 0.564(10) 0.190(2)
H19 H 0.365(16) 0.630(10) 0.1727(17)
C11 C 0.3822(4) 0.4833(3) 0.23429(6)
C12 C 0.4356(5) 0.3886(3) 0.24640(7)
H20 H 0.4755 0.3188 0.2404
C13 C 0.4307(5) 0.3960(3) 0.26709(7)
H21 H 0.4668 0.3311 0.2747
C14 C 0.3722(5) 0.4995(3) 0.27670(6)
C15 C 0.3188(5) 0.5936(3) 0.26444(7)
H22 H 0.2801 0.6639 0.2704
C16 C 0.3215(5) 0.5857(3) 0.24415(6)
H23 H 0.2821 0.6498 0.2366
C17 C 0.3899(4) 0.4927(3) 0.33088(6)
C18 C 0.4422(5) 0.4170(3) 0.34570(7)
H24 H 0.4724 0.3382 0.3426
C19 C 0.4502(5) 0.4573(3) 0.36522(7)
H25 H 0.4895 0.4057 0.3751
C20 C 0.4008(4) 0.5739(3) 0.37058(6)
C21 C 0.3457(5) 0.6467(3) 0.35520(6)
H26 H 0.3114 0.7247 0.3582
C22 C 0.3398(4) 0.6079(3) 0.33563(6)
H27 H 0.3020 0.6592 0.3257
C23 C 0.3596(5) 0.5338(3) 0.40608(6)
H28 H 0.3959 0.4521 0.4034
H29 H 0.2428 0.5334 0.4058
C24 C 0.4146(6) 0.5699(3) 0.42663(6)
H30 H 0.3612 0.5199 0.4365
H31 H 0.5297 0.5567 0.4278
C25 C 0.4381(5) 0.7758(3) 0.41495(6)
H32 H 0.5549 0.7745 0.4150
H33 H 0.4036 0.8577 0.4178
C26 C 0.3787(5) 0.7400(3) 0.39454(6)
H34 H 0.2630 0.7510 0.3939
H35 H 0.4276 0.7918 0.3845
C27 C 0.3237(6) 0.7414(5) 0.44775(7)
C28 C 0.287(3) 0.6526(14) 0.4638(3)
H36 H 0.361(14) 0.637(9) 0.476(2)
H37 H 0.17(7) 0.58(5) 0.461(7)
C29 C 0.232(3) 0.7043(13) 0.4840(2)
H38 H 0.151(13) 0.717(10) 0.475(2)
H39 H 0.348(11) 0.789(8) 0.4865(12)
C30 C 0.233(4) 0.5885(17) 0.4989(3)
H40 H 0.156(15) 0.525(12) 0.4980(16)
C31 C 0.203(4) 0.632(2) 0.5187(3)
H41 H 0.117(16) 0.694(11) 0.5171(19)
H42 H 0.32(3) 0.58(2) 0.506(4)
C32 C 0.201(3) 0.524(2) 0.5331(4)
H43 H 0.1874 0.5550 0.5465
H44 H 0.1117 0.4726 0.5298
H45 H 0.2992 0.4790 0.5323
C33? C 0.437(4) 0.360(3) 0.1827(7)
H46? H 0.54(2) 0.359(15) 0.181(3)
H47? H 0.33(2) 0.43(2) 0.181(3)
C34? C 0.438(4) 0.355(3) 0.2025(8)
H48? H 0.44(2) 0.280(16) 0.208(2)
H49? H 0.607(16) 0.320(11) 0.2093(19)
C35? C 0.327(3) 0.578(2) 0.2017(4)
H50? H 0.422(15) 0.656(16) 0.208(2)
H51? H 0.212(15) 0.581(10) 0.2056(17)
C36? C 0.322(3) 0.569(2) 0.1827(6)
H52? H 0.182(15) 0.573(11) 0.1851(19)
H53? H 0.381(17) 0.653(12) 0.172(2)
H54? H 0.25(3) 0.66(2) 0.464(3)
C37? C 0.284(10) 0.609(6) 0.4626(6)
H55? H 0.46(10) 0.74(8) 0.474(12)
C38? C 0.282(11) 0.696(12) 0.4787(14)
H56? H 0.62(17) 0.51(10) 0.518(14)
H57? H 0.07(6) 0.82(4) 0.467(7)
H58? H 0.324(16) 0.513(13) 0.502(2)
C39? C 0.160(6) 0.645(3) 0.4985(6)
H59? H 0.05(3) 0.59(2) 0.510(4)
H60? H 0.26(3) 0.72(2) 0.508(4)
C40? C 0.301(4) 0.574(5) 0.5118(8)
H61? H 0.42(3) 0.61(2) 0.510(4)
H62? H 0.26(3) 0.48(2) 0.491(3)
C41? C 0.216(8) 0.506(6) 0.5292(11)
H63? H 0.2936 0.4610 0.5368
H64? H 0.1623 0.5626 0.5378
H65? H 0.1377 0.4509 0.5236
loop_
_geom_bond_atom_site_label_1
_geom_bond_atom_site_label_2
_geom_bond_site_symmetry_1
_geom_bond_site_symmetry_2
O1 C6 1_555 1_555
O2 N4 1_555 1_555
O3 C27 1_555 1_555
N1 C6 1_555 1_555
N2 C8 1_555 1_555
N3 N4 1_555 1_555
N4 C17 1_555 1_555
N5 C20 1_555 1_555
N6 C24 1_555 1_555
C1 H1 1_555 1_555
H2 C1 1_555 1_555
H3 C1 1_555 1_555
C2 C1 1_555 1_555
H4 C2 1_555 1_555
H5 C2 1_555 1_555
C3 C2 1_555 1_555
H6 C3 1_555 1_555
H7 C3 1_555 1_555
C4 C3 1_555 1_555
H8 C4 1_555 1_555
H9 C4 1_555 1_555
C5 C4 1_555 1_555
H10 C5 1_555 1_555
H11 C5 1_555 1_555
C6 C5 1_555 1_555
C7 N1 1_555 1_555
H12 C7 1_555 1_555
H13 C7 1_555 1_555
C8 C7 1_555 1_555
H14 C8 1_555 1_555
H15 C8 1_555 1_555
C9 N2 1_555 1_555
H16 C9 1_555 1_555
H17 C9 1_555 1_555
C10 N1 1_555 1_555
H18 C10 1_555 1_555
H19 C10 1_555 1_555
C11 N2 1_555 1_555
C12 C11 1_555 1_555
H20 C12 1_555 1_555
C13 C12 1_555 1_555
H21 C13 1_555 1_555
C14 N3 1_555 1_555
C15 C14 1_555 1_555
H22 C15 1_555 1_555
C16 C11 1_555 1_555
H23 C16 1_555 1_555
C17 C18 1_555 1_555
C18 H24 1_555 1_555
C19 C18 1_555 1_555
H25 C19 1_555 1_555
C20 C19 1_555 1_555
C21 C20 1_555 1_555
H26 C21 1_555 1_555
C22 C17 1_555 1_555
H27 C22 1_555 1_555
C23 N5 1_555 1_555
H28 C23 1_555 1_555
H29 C23 1_555 1_555
C24 C23 1_555 1_555
H30 C24 1_555 1_555
H31 C24 1_555 1_555
C25 N6 1_555 1_555
H32 C25 1_555 1_555
H33 C25 1_555 1_555
C26 N5 1_555 1_555
H34 C26 1_555 1_555
H35 C26 1_555 1_555
C27 N6 1_555 1_555
C28 C27 1_555 1_555
H36 C28 1_555 1_555
H37 C28 1_555 1_555
C29 C28 1_555 1_555
H38 C29 1_555 1_555
H39 C29 1_555 1_555
C30 C29 1_555 1_555
H40 C30 1_555 1_555
C31 C30 1_555 1_555
H41 C31 1_555 1_555
H42 C30 1_555 1_555
C32 C31 1_555 1_555
H43 C32 1_555 1_555
H44 C32 1_555 1_555
H45 C32 1_555 1_555
C9 C10 1_555 1_555
C13 C14 1_555 1_555
C15 C16 1_555 1_555
C21 C22 1_555 1_555
C25 C26 1_555 1_555

#END
