
#######################################################################
#
#                 Cambridge Crystallographic Data Centre
#                                CCDC 
#
#######################################################################
#
# If this CIF has been generated from an entry in the Cambridge 
# Structural Database, then it will include bibliographic, chemical, 
# crystal, experimental, refinement or atomic coordinate data resulting 
# from the CCDC's data processing and validation procedures.
#
#######################################################################

data_BIWJOJ
_chemical_formula_moiety         'C14 H17 N1 O2'
_chemical_name_systematic        2-cyclohexyl-2-oxo-N-phenylacetamide
_symmetry_cell_setting           triclinic
_symmetry_space_group_name_H-M   'P -1'
_symmetry_Int_Tables_number      2
_space_group_name_Hall           '-P 1'
loop_
_symmetry_equiv_pos_site_id
_symmetry_equiv_pos_as_xyz
1 x,y,z
2 -x,-y,-z
_cell_length_a                   5.4353(6)
_cell_length_b                   10.001(2)
_cell_length_c                   11.812(3)
_cell_angle_alpha                70.538(15)
_cell_angle_beta                 87.329(10)
_cell_angle_gamma                88.047(11)
_cell_volume                     604.62
_exptl_crystal_colour            colorless
_exptl_crystal_description       stick
_cell_formula_units_Z            2
loop_
_atom_site_label
_atom_site_type_symbol
_atom_site_fract_x
_atom_site_fract_y
_atom_site_fract_z
O1 O 0.2166(3) 0.1939(2) 0.51046(17)
H1 H 0.771(7) 0.160(4) 0.505(3)
N1 N 0.6283(4) 0.1497(3) 0.5414(2)
H2 H 0.959(6) -0.034(4) 0.641(3)
C1 C 0.8272(5) -0.0362(3) 0.6964(3)
H3 H 0.982(8) -0.195(5) 0.836(4)
O2 O 0.7104(3) 0.3042(3) 0.30928(19)
C2 C 0.8356(5) -0.1293(4) 0.8129(3)
H4 H 0.644(7) -0.189(5) 0.973(4)
C3 C 0.6438(6) -0.1307(4) 0.8947(3)
C4 C 0.4438(5) -0.0397(4) 0.8593(3)
H5 H 0.311(6) -0.032(4) 0.920(3)
C5 C 0.4324(5) 0.0517(4) 0.7436(3)
H6 H 0.300(6) 0.121(3) 0.724(3)
C6 C 0.6240(5) 0.0542(3) 0.6607(2)
C7 C 0.4316(4) 0.2119(3) 0.4768(3)
C8 C 0.3125(4) 0.4200(3) 0.2885(2)
H7 H 0.157(7) 0.372(4) 0.299(3)
C9 C 0.5063(4) 0.3128(3) 0.3509(2)
C10 C 0.2695(5) 0.5286(4) 0.3543(3)
H8 H 0.432(7) 0.585(4) 0.349(3)
H9 H 0.214(6) 0.478(4) 0.437(3)
C11 C 0.0665(6) 0.6354(4) 0.2945(3)
H10 H 0.058(6) 0.705(4) 0.331(3)
H11 H -0.097(8) 0.592(4) 0.305(4)
C12 C 0.1231(6) 0.7068(4) 0.1617(3)
H12 H -0.018(9) 0.776(5) 0.120(5)
H13 H 0.291(7) 0.769(4) 0.152(3)
C13 C 0.1725(5) 0.6003(4) 0.0977(3)
H14 H 0.010(6) 0.546(3) 0.103(3)
H15 H 0.217(6) 0.644(4) 0.014(4)
C14 C 0.3749(5) 0.4945(3) 0.1561(3)
H16 H 0.400(6) 0.424(4) 0.121(3)
H17 H 0.547(7) 0.545(4) 0.141(3)
loop_
_geom_bond_atom_site_label_1
_geom_bond_atom_site_label_2
_geom_bond_site_symmetry_1
_geom_bond_site_symmetry_2
O1 C7 1_555 1_555
H1 N1 1_555 1_555
N1 C6 1_555 1_555
H2 C1 1_555 1_555
C1 C2 1_555 1_555
H3 C2 1_555 1_555
O2 C9 1_555 1_555
C2 C3 1_555 1_555
H4 C3 1_555 1_555
C3 C4 1_555 1_555
C4 H5 1_555 1_555
C5 C4 1_555 1_555
H6 C5 1_555 1_555
C6 C1 1_555 1_555
C7 N1 1_555 1_555
C8 H7 1_555 1_555
C9 C7 1_555 1_555
C10 C8 1_555 1_555
H8 C10 1_555 1_555
H9 C10 1_555 1_555
C11 C10 1_555 1_555
H10 C11 1_555 1_555
H11 C11 1_555 1_555
C12 C11 1_555 1_555
H12 C12 1_555 1_555
H13 C12 1_555 1_555
C13 C12 1_555 1_555
H14 C13 1_555 1_555
H15 C13 1_555 1_555
C14 C8 1_555 1_555
H16 C14 1_555 1_555
H17 C14 1_555 1_555
C5 C6 1_555 1_555
C8 C9 1_555 1_555
C13 C14 1_555 1_555

#END
