
#######################################################################
#
#                 Cambridge Crystallographic Data Centre
#                                CCDC 
#
#######################################################################
#
# If this CIF has been generated from an entry in the Cambridge 
# Structural Database, then it will include bibliographic, chemical, 
# crystal, experimental, refinement or atomic coordinate data resulting 
# from the CCDC's data processing and validation procedures.
#
#######################################################################

data_BIWNUO
_chemical_formula_moiety         'C17 H14 O5,C1 H4 O1'
_chemical_name_systematic        
'5,7-Dihydroxy-4-methoxycarbonyl-3-phenyl-indan-1-one methanol solvate'
_symmetry_cell_setting           triclinic
_symmetry_space_group_name_H-M   'P -1'
_symmetry_Int_Tables_number      2
_space_group_name_Hall           '-P 1'
loop_
_symmetry_equiv_pos_site_id
_symmetry_equiv_pos_as_xyz
1 x,y,z
2 -x,-y,-z
_cell_length_a                   8.150(1)
_cell_length_b                   10.694(2)
_cell_length_c                   11.432(2)
_cell_angle_alpha                121.32(1)
_cell_angle_beta                 78.35(1)
_cell_angle_gamma                107.74(1)
_cell_volume                     809.539
_chemical_melting_point          133-6deg.C
_cell_formula_units_Z            2
loop_
_atom_site_label
_atom_site_type_symbol
_atom_site_fract_x
_atom_site_fract_y
_atom_site_fract_z
C1 C 0.15790 0.48740 0.33360
C2 C 0.22590 0.50640 0.44660
C3 C 0.25540 0.65230 0.56190
C4 C 0.21900 0.77320 0.56590
C5 C 0.15050 0.75190 0.45360
C6 C 0.11870 0.60770 0.33840
C7 C 0.03750 0.55760 0.21300
C8 C 0.02600 0.39100 0.12200
C9 C 0.11910 0.34540 0.19470
C10 C 0.26480 0.38610 0.45460
O1 O 0.32960 0.40740 0.55340
O2 O 0.22270 0.25160 0.34760
C11 C 0.26120 0.12730 0.34710
O3 O 0.31810 0.68280 0.67690
O4 O 0.11280 0.86390 0.45080
O5 O -0.01640 0.63330 0.18570
C12 C 0.28010 0.29540 0.11200
C13 C 0.43230 0.39930 0.11580
C14 C 0.57830 0.35410 0.03680
C15 C 0.57350 0.20330 -0.04750
C16 C 0.42230 0.09820 -0.05250
C17 C 0.27610 0.14330 0.02720
H1 H 0.23900 0.87400 0.65300
H2 H 0.07800 0.36900 0.02900
H3 H -0.09700 0.33600 0.11700
H4 H 0.03400 0.25900 0.20700
H5 H 0.20800 0.03900 0.26600
H6 H 0.38100 0.13900 0.33600
H7 H 0.20900 0.13200 0.43500
H8 H 0.33600 0.59200 0.65500
H9 H 0.12800 0.95500 0.53800
H10 H 0.43500 0.50400 0.17600
H11 H 0.69500 0.43400 0.04000
H12 H 0.68200 0.16900 -0.11200
H13 H 0.41300 -0.01000 -0.11100
H14 H 0.15700 0.07100 0.03000
O6 O 0.16040 1.11630 0.67950
C18 C 0.33100 1.20250 0.71230
H15 H 0.09600 1.19000 0.71300
H16 H 0.41400 1.14600 0.65000
H17 H 0.33100 1.26800 0.81600
H18 H 0.37700 1.27100 0.66800
loop_
_geom_bond_atom_site_label_1
_geom_bond_atom_site_label_2
_geom_bond_site_symmetry_1
_geom_bond_site_symmetry_2
C1 C2 1_555 1_555
C2 C3 1_555 1_555
C3 C4 1_555 1_555
C4 C5 1_555 1_555
C5 C6 1_555 1_555
C6 C1 1_555 1_555
C7 C6 1_555 1_555
C8 C7 1_555 1_555
C9 C1 1_555 1_555
C10 C2 1_555 1_555
O1 C10 1_555 1_555
O2 C10 1_555 1_555
C11 O2 1_555 1_555
O3 C3 1_555 1_555
O4 C5 1_555 1_555
O5 C7 1_555 1_555
C12 C9 1_555 1_555
C13 C12 1_555 1_555
C14 C13 1_555 1_555
C15 C14 1_555 1_555
C16 C15 1_555 1_555
C17 C12 1_555 1_555
O6 C18 1_555 1_555
C18 H16 1_555 1_555
H1 C4 1_555 1_555
H2 C8 1_555 1_555
H3 C8 1_555 1_555
H4 C9 1_555 1_555
H5 C11 1_555 1_555
H6 C11 1_555 1_555
H7 C11 1_555 1_555
H8 O3 1_555 1_555
H9 O4 1_555 1_555
H10 C13 1_555 1_555
H11 C14 1_555 1_555
H12 C15 1_555 1_555
H13 C16 1_555 1_555
H14 C17 1_555 1_555
H15 O6 1_555 1_555
H17 C18 1_555 1_555
H18 C18 1_555 1_555
C8 C9 1_555 1_555
C16 C17 1_555 1_555

#END
