
#######################################################################
#
#                 Cambridge Crystallographic Data Centre
#                                CCDC 
#
#######################################################################
#
# If this CIF has been generated from an entry in the Cambridge 
# Structural Database, then it will include bibliographic, chemical, 
# crystal, experimental, refinement or atomic coordinate data resulting 
# from the CCDC's data processing and validation procedures.
#
#######################################################################

data_BIXBIT12
_chemical_formula_moiety         'C10 H12 Se4 1+,C10 H12 Se4,B1 F4 1-'
_chemical_name_systematic        
'bis(Tetramethyl-tetraselenafulvalenium) tetrafluoroborate'
_symmetry_cell_setting           triclinic
_symmetry_space_group_name_H-M   'P -1'
_symmetry_Int_Tables_number      2
_space_group_name_Hall           '-P 1'
loop_
_symmetry_equiv_pos_site_id
_symmetry_equiv_pos_as_xyz
1 x,y,z
2 -x,-y,-z
_cell_length_a                   7.253(1)
_cell_length_b                   7.649(2)
_cell_length_c                   13.230(2)
_cell_angle_alpha                85.29(1)
_cell_angle_beta                 87.13(1)
_cell_angle_gamma                70.37(1)
_cell_volume                     688.787
_cell_formula_units_Z            1
loop_
_atom_site_label
_atom_site_type_symbol
_atom_site_fract_x
_atom_site_fract_y
_atom_site_fract_z
B1 B 0.5000 0.0000 0.0000
F1 F 0.6925(28) -0.1145(22) -0.0305(12)
F2 F 0.4480(37) 0.1094(20) -0.0983(11)
F1A F 0.3075(28) 0.1145(22) 0.0305(12)
F2A F 0.5520(37) -0.1094(20) 0.0983(11)
Se1 Se 0.79799(11) 0.34360(9) 0.61530(5)
Se2 Se 0.66334(11) 0.75150(9) 0.51249(5)
Se3 Se 0.72843(11) 0.57864(9) 0.27922(5)
Se4 Se 0.87361(11) 0.16978(9) 0.38212(5)
C1 C 0.7515(10) 0.4974(9) 0.4944(5)
C2 C 0.7223(10) 0.5450(9) 0.7001(5)
C3 C 0.6639(10) 0.7214(9) 0.6555(5)
C4 C 0.7332(14) 0.4907(13) 0.8100(6)
C5 C 0.5965(13) 0.9011(12) 0.7041(7)
C6 C 0.7815(10) 0.4234(8) 0.4009(5)
C7 C 0.8076(11) 0.3787(9) 0.1947(5)
C8 C 0.8716(11) 0.2030(9) 0.2381(5)
C9 C 0.7970(13) 0.4250(11) 0.0830(5)
C10 C 0.9430(13) 0.0270(11) 0.1844(6)
loop_
_geom_bond_atom_site_label_1
_geom_bond_atom_site_label_2
_geom_bond_site_symmetry_1
_geom_bond_site_symmetry_2
Se1 C1 1_555 1_555
Se2 C1 1_555 1_555
Se3 C6 1_555 1_555
Se4 C6 1_555 1_555
C1 C6 1_555 1_555
C2 Se1 1_555 1_555
C3 Se2 1_555 1_555
C4 C2 1_555 1_555
C5 C3 1_555 1_555
C7 Se3 1_555 1_555
C8 Se4 1_555 1_555
C9 C7 1_555 1_555
C10 C8 1_555 1_555
B1 F1 1_555 1_555
F2 B1 1_555 1_555
F1A B1 1_555 1_555
F2A B1 1_555 1_555
C2 C3 1_555 1_555
C7 C8 1_555 1_555

#END
