
#######################################################################
#
#                 Cambridge Crystallographic Data Centre
#                                CCDC 
#
#######################################################################
#
# If this CIF has been generated from an entry in the Cambridge 
# Structural Database, then it will include bibliographic, chemical, 
# crystal, experimental, refinement or atomic coordinate data resulting 
# from the CCDC's data processing and validation procedures.
#
#######################################################################

data_BIXBIT03
_chemical_formula_moiety         'C10 H12 Se4 1+,C10 H12 Se4,B1 F4 1-'
_chemical_name_systematic        
'bis(Tetramethyl-tetraselenafulvalenium) tetrafluoroborate'
_symmetry_cell_setting           triclinic
_symmetry_space_group_name_H-M   'F -1'
_symmetry_Int_Tables_number      2
_space_group_name_Hall           '-F 1'
loop_
_symmetry_equiv_pos_site_id
_symmetry_equiv_pos_as_xyz
1 x,y,z
2 x,1/2+y,1/2+z
3 1/2+x,y,1/2+z
4 1/2+x,1/2+y,z
5 -x,-y,-z
6 -x,1/2-y,1/2-z
7 1/2-x,-y,1/2-z
8 1/2-x,1/2-y,-z
_cell_length_a                   14.127(4)
_cell_length_b                   15.208(4)
_cell_length_c                   26.198(6)
_cell_angle_alpha                85.00(2)
_cell_angle_beta                 88.21(2)
_cell_angle_gamma                69.37(2)
_cell_volume                     5247.5
_cell_formula_units_Z            8
_exptl_crystal_recrystallization_method 'slow cooling'
loop_
_atom_site_label
_atom_site_type_symbol
_atom_site_fract_x
_atom_site_fract_y
_atom_site_fract_z
Se1 Se 0.4042(2) 0.1702(1) 0.3098(1)
Se2 Se 0.3302(1) 0.3770(2) 0.2565(1)
Se3 Se 0.3617(1) 0.2906(1) 0.1396(1)
Se4 Se 0.4387(2) 0.0829(2) 0.1927(1)
C1 C 0.3768(2) 0.2473(2) 0.2482(1)
C2 C 0.3656(1) 0.2725(1) 0.3519(1)
C3 C 0.3337(2) 0.3606(2) 0.3290(1)
C4 C 0.3737(1) 0.2444(1) 0.4085(1)
C5 C 0.2979(2) 0.4511(2) 0.3548(1)
C6 C 0.3903(1) 0.2124(2) 0.2009(1)
C7 C 0.4038(1) 0.1889(1) 0.0977(1)
C8 C 0.4369(2) 0.0995(1) 0.1204(1)
C9 C 0.3976(2) 0.2130(2) 0.0405(1)
C10 C 0.4732(2) 0.0118(2) 0.0921(1)
H1 H 0.3298(5) 0.1999(5) 0.4194(2)
H2 H 0.4520(4) 0.2037(4) 0.4190(2)
H3 H 0.3488(6) 0.3063(4) 0.4304(2)
H4 H 0.3150(4) 0.4397(4) 0.3955(2)
H5 H 0.3342(4) 0.4994(4) 0.3378(3)
H6 H 0.2168(4) 0.4855(4) 0.3501(2)
H7 H 0.3454(4) 0.1861(5) 0.0240(2)
H8 H 0.3724(5) 0.2883(4) 0.0308(2)
H9 H 0.4710(4) 0.1801(4) 0.0227(3)
H10 H 0.4488(5) -0.0429(3) 0.1105(3)
H11 H 0.5545(4) -0.0157(4) 0.0898(3)
H12 H 0.4437(5) 0.0262(4) 0.0534(2)
Se5 Se 0.4017(1) 0.6701(1) 0.3081(1)
Se6 Se 0.3274(1) 0.8781(1) 0.2556(1)
Se7 Se 0.3577(1) 0.7922(1) 0.1379(1)
Se8 Se 0.4380(1) 0.5838(1) 0.1903(1)
C11 C 0.3750(2) 0.7481(2) 0.2465(1)
C12 C 0.3633(2) 0.7723(2) 0.3509(1)
C13 C 0.3317(2) 0.8608(1) 0.3285(1)
C14 C 0.3716(1) 0.7434(1) 0.4073(1)
C15 C 0.2968(2) 0.9506(1) 0.3544(1)
C16 C 0.3885(1) 0.7141(2) 0.1995(1)
C17 C 0.3984(2) 0.6908(1) 0.0956(1)
C18 C 0.4341(2) 0.6020(1) 0.1178(1)
C19 C 0.3898(2) 0.7164(1) 0.0386(1)
C20 C 0.4724(2) 0.5145(2) 0.0892(1)
H13 H 0.3299(5) 0.6958(4) 0.4175(2)
H14 H 0.4501(4) 0.7054(5) 0.4181(2)
H15 H 0.3408(4) 0.8043(4) 0.4296(2)
H16 H 0.3076(4) 0.9384(4) 0.3959(2)
H17 H 0.3370(5) 0.9960(4) 0.3391(2)
H18 H 0.2166(4) 0.9882(4) 0.3468(2)
H19 H 0.3496(5) 0.6787(5) 0.0205(3)
H20 H 0.3518(6) 0.7910(4) 0.0299(2)
H21 H 0.4646(4) 0.6968(5) 0.0215(2)
H22 H 0.4467(4) 0.4595(4) 0.1076(2)
H23 H 0.5548(4) 0.4878(5) 0.0878(2)
H24 H 0.4445(5) 0.5286(4) 0.0502(2)
B1 B 0.2534(2) 0.0037(2) -0.0033(1)
F1 F 0.3485(1) -0.0579(1) -0.0177(1)
F2 F 0.2656(1) 0.0714(2) 0.0265(1)
F3 F 0.2020(2) -0.0478(1) 0.0247(1)
F4 F 0.1975(2) 0.0501(2) -0.0470(1)
loop_
_geom_bond_atom_site_label_1
_geom_bond_atom_site_label_2
_geom_bond_site_symmetry_1
_geom_bond_site_symmetry_2
Se1 C1 1_555 1_555
Se2 C1 1_555 1_555
Se3 C6 1_555 1_555
Se4 C6 1_555 1_555
C1 C6 1_555 1_555
C2 Se1 1_555 1_555
C3 Se2 1_555 1_555
C4 C2 1_555 1_555
C5 C3 1_555 1_555
C7 Se3 1_555 1_555
C8 Se4 1_555 1_555
C9 C7 1_555 1_555
C10 C8 1_555 1_555
H1 C4 1_555 1_555
H2 C4 1_555 1_555
H3 C4 1_555 1_555
H4 C5 1_555 1_555
H5 C5 1_555 1_555
H6 C5 1_555 1_555
H7 C9 1_555 1_555
H8 C9 1_555 1_555
H9 C9 1_555 1_555
H10 C10 1_555 1_555
H11 C10 1_555 1_555
H12 C10 1_555 1_555
Se5 C11 1_555 1_555
Se6 C11 1_555 1_555
Se7 C16 1_555 1_555
Se8 C16 1_555 1_555
C11 C16 1_555 1_555
C12 Se5 1_555 1_555
C13 Se6 1_555 1_555
C14 C12 1_555 1_555
C15 C13 1_555 1_555
C17 Se7 1_555 1_555
C18 Se8 1_555 1_555
C19 C17 1_555 1_555
C20 C18 1_555 1_555
H13 C14 1_555 1_555
H14 C14 1_555 1_555
H15 C14 1_555 1_555
H16 C15 1_555 1_555
H17 C15 1_555 1_555
H18 C15 1_555 1_555
H19 C19 1_555 1_555
H20 C19 1_555 1_555
H21 C19 1_555 1_555
H22 C20 1_555 1_555
H23 C20 1_555 1_555
H24 C20 1_555 1_555
B1 F1 1_555 1_555
F2 B1 1_555 1_555
F3 B1 1_555 1_555
F4 B1 1_555 1_555
C2 C3 1_555 1_555
C7 C8 1_555 1_555
C12 C13 1_555 1_555
C17 C18 1_555 1_555

#END
