
#######################################################################
#
#                 Cambridge Crystallographic Data Centre
#                                CCDC 
#
#######################################################################
#
# If this CIF has been generated from an entry in the Cambridge 
# Structural Database, then it will include bibliographic, chemical, 
# crystal, experimental, refinement or atomic coordinate data resulting 
# from the CCDC's data processing and validation procedures.
#
#######################################################################

data_BIXGIY06
_chemical_name_common            'DrugBank: DB09218'
_chemical_formula_moiety         'C13 H11 Cl1 N2 O2'
_chemical_name_systematic        '2-(2-Methyl-3-chloroanilino)nicotinic acid'
_chemical_properties_biological  'analgesic and antiinflammatory agent'
_symmetry_cell_setting           triclinic
_symmetry_space_group_name_H-M   'P -1'
_symmetry_Int_Tables_number      2
_space_group_name_Hall           '-P 1'
loop_
_symmetry_equiv_pos_site_id
_symmetry_equiv_pos_as_xyz
1 x,y,z
2 -x,-y,-z
_cell_length_a                   3.7849(1)
_cell_length_b                   10.8927(2)
_cell_length_c                   13.7953(2)
_cell_angle_alpha                94.4324(6)
_cell_angle_beta                 95.2653(7)
_cell_angle_gamma                96.1085(6)
_cell_volume                     560.954
_exptl_crystal_colour            colorless
_exptl_crystal_description       slab
_cell_formula_units_Z            2
loop_
_atom_site_label
_atom_site_type_symbol
_atom_site_fract_x
_atom_site_fract_y
_atom_site_fract_z
N1 N 0.2983(3) 0.52325(11) 0.62331(9)
N2 N 0.4519(4) 0.66108(11) 0.76236(9)
H1 H 0.537(5) 0.6670(16) 0.8224(14)
O1 O 0.7637(3) 0.57004(10) 0.92001(7)
O2 O 0.9151(3) 0.3776(1) 0.90086(8)
H2 H 1.006(5) 0.3968(18) 0.9596(16)
Cl1 Cl 0.09284(10) 1.09295(3) 0.85109(3)
C1 C 0.4504(4) 0.54543(13) 0.71606(10)
C2 C 0.6015(4) 0.45082(13) 0.76675(10)
C3 C 0.5923(4) 0.33403(13) 0.71660(11)
H3 H 0.690684 0.269114 0.748192
C4 C 0.4402(4) 0.31280(14) 0.62108(11)
H4 H 0.433922 0.234130 0.585664
C5 C 0.2969(4) 0.41016(14) 0.57858(11)
H5 H 0.190398 0.395279 0.513053
C6 C 0.7640(4) 0.47193(13) 0.86808(11)
C7 C 0.3329(4) 0.76928(13) 0.7279(1)
C8 C 0.2825(4) 0.86385(13) 0.80017(10)
C9 C 0.1677(4) 0.97197(13) 0.76734(11)
C10 C 0.1065(4) 0.99076(14) 0.66915(11)
H6 H 0.025973 1.065600 0.649526
C11 C 0.1659(4) 0.89745(14) 0.60049(11)
H7 H 0.129175 0.909164 0.532932
C12 C 0.2782(4) 0.78713(13) 0.62875(11)
H8 H 0.317626 0.724009 0.580786
C13 C 0.3589(4) 0.84639(14) 0.90713(11)
H9 H 0.277846 0.914728 0.946522
H10 H 0.616360 0.845450 0.922953
H11 H 0.232315 0.767642 0.921425
loop_
_geom_bond_atom_site_label_1
_geom_bond_atom_site_label_2
_geom_bond_site_symmetry_1
_geom_bond_site_symmetry_2
N1 C1 1_555 1_555
N2 H1 1_555 1_555
O1 C6 1_555 1_555
O2 H2 1_555 1_555
Cl1 C9 1_555 1_555
C1 N2 1_555 1_555
C2 C1 1_555 1_555
C3 C2 1_555 1_555
H3 C3 1_555 1_555
C4 C3 1_555 1_555
H4 C4 1_555 1_555
C5 N1 1_555 1_555
H5 C5 1_555 1_555
C6 O2 1_555 1_555
C7 N2 1_555 1_555
C8 C7 1_555 1_555
C9 C8 1_555 1_555
C10 C9 1_555 1_555
H6 C10 1_555 1_555
C11 C10 1_555 1_555
H7 C11 1_555 1_555
C12 C7 1_555 1_555
H8 C12 1_555 1_555
C13 C8 1_555 1_555
H9 C13 1_555 1_555
H10 C13 1_555 1_555
H11 C13 1_555 1_555
C2 C6 1_555 1_555
C4 C5 1_555 1_555
C11 C12 1_555 1_555

#END
