
#######################################################################
#
#                 Cambridge Crystallographic Data Centre
#                                CCDC 
#
#######################################################################
#
# If this CIF has been generated from an entry in the Cambridge 
# Structural Database, then it will include bibliographic, chemical, 
# crystal, experimental, refinement or atomic coordinate data resulting 
# from the CCDC's data processing and validation procedures.
#
#######################################################################

data_BIXLIG
_chemical_formula_moiety         'C21 H14 Cl1 N1 O2'
_chemical_name_systematic        
7-chloro-2,3a-diphenyl-3a,8b-dihydro[1]benzofuro[2,3-d][1,3]oxazole
_symmetry_cell_setting           orthorhombic
_symmetry_space_group_name_H-M   'P 21 21 21'
_symmetry_Int_Tables_number      19
_space_group_name_Hall           'P 2ac 2ab'
loop_
_symmetry_equiv_pos_site_id
_symmetry_equiv_pos_as_xyz
1 x,y,z
2 1/2-x,-y,1/2+z
3 -x,1/2+y,1/2-z
4 1/2+x,1/2-y,-z
_cell_length_a                   5.5132(3)
_cell_length_b                   9.3465(6)
_cell_length_c                   31.7687(18)
_cell_angle_alpha                90
_cell_angle_beta                 90
_cell_angle_gamma                90
_cell_volume                     1637.01
_exptl_crystal_colour            colorless
_exptl_crystal_description       rod
_cell_formula_units_Z            4
loop_
_atom_site_label
_atom_site_type_symbol
_atom_site_fract_x
_atom_site_fract_y
_atom_site_fract_z
Cl1 Cl -0.06392(16) 1.13776(10) 0.74315(3)
O1 O 0.2845(4) 0.8566(2) 0.59271(6)
O2 O 0.6058(4) 0.7203(2) 0.67252(6)
N1 N 0.6453(5) 0.7413(3) 0.59845(8)
C1 C 0.1343(6) 1.0093(3) 0.72339(10)
C2 C 0.3385(6) 0.9748(3) 0.74620(10)
H1 H 0.366294 1.019129 0.772680
C3 C 0.5034(6) 0.8762(3) 0.73087(9)
H2 H 0.643000 0.850142 0.746623
C4 C 0.4578(6) 0.8172(3) 0.69193(9)
C5 C 0.2508(6) 0.8497(3) 0.66928(9)
C6 C 0.0841(6) 0.9471(3) 0.68467(10)
H3 H -0.058667 0.970502 0.669401
C7 C 0.2536(6) 0.7656(3) 0.62925(9)
H4 H 0.110384 0.700580 0.626620
C8 C 0.4969(6) 0.6824(3) 0.63191(9)
C9 C 0.5158(6) 0.8342(3) 0.57932(9)
C10 C 0.5865(6) 0.9168(3) 0.54195(9)
C11 C 0.4426(7) 1.0271(3) 0.52717(9)
H5 H 0.298491 1.051928 0.541829
C12 C 0.5067(7) 1.1015(4) 0.49126(10)
H6 H 0.406175 1.176600 0.481165
C13 C 0.7167(7) 1.0665(4) 0.47014(10)
H7 H 0.760713 1.117151 0.445368
C14 C 0.8631(6) 0.9580(4) 0.48491(10)
H8 H 1.008130 0.934570 0.470320
C15 C 0.8002(6) 0.8831(4) 0.52088(9)
H9 H 0.902379 0.808985 0.531116
C16 C 0.4868(6) 0.5206(3) 0.63133(9)
C17 C 0.2987(7) 0.4500(4) 0.65155(10)
H10 H 0.172606 0.503203 0.664576
C18 C 0.2946(8) 0.3013(4) 0.65277(11)
H11 H 0.165841 0.253201 0.666722
C19 C 0.4761(8) 0.2236(4) 0.63387(11)
H12 H 0.472094 0.122003 0.634724
C20 C 0.6636(8) 0.2925(4) 0.61372(12)
H13 H 0.788914 0.238682 0.600671
C21 C 0.6691(6) 0.4417(4) 0.61249(10)
H14 H 0.798763 0.489255 0.598633
loop_
_geom_bond_atom_site_label_1
_geom_bond_atom_site_label_2
_geom_bond_site_symmetry_1
_geom_bond_site_symmetry_2
Cl1 C1 1_555 1_555
O1 C7 1_555 1_555
O2 C4 1_555 1_555
N1 C8 1_555 1_555
C1 C2 1_555 1_555
C2 H1 1_555 1_555
C3 C2 1_555 1_555
H2 C3 1_555 1_555
C4 C3 1_555 1_555
C5 C4 1_555 1_555
C6 C1 1_555 1_555
H3 C6 1_555 1_555
C7 C5 1_555 1_555
H4 C7 1_555 1_555
C8 O2 1_555 1_555
C9 O1 1_555 1_555
C10 C9 1_555 1_555
C11 C10 1_555 1_555
H5 C11 1_555 1_555
C12 C11 1_555 1_555
H6 C12 1_555 1_555
C13 C12 1_555 1_555
H7 C13 1_555 1_555
C14 C13 1_555 1_555
H8 C14 1_555 1_555
C15 C10 1_555 1_555
H9 C15 1_555 1_555
C16 C8 1_555 1_555
C17 C16 1_555 1_555
H10 C17 1_555 1_555
C18 C17 1_555 1_555
H11 C18 1_555 1_555
C19 C18 1_555 1_555
H12 C19 1_555 1_555
C20 C19 1_555 1_555
H13 C20 1_555 1_555
C21 C16 1_555 1_555
H14 C21 1_555 1_555
N1 C9 1_555 1_555
C5 C6 1_555 1_555
C7 C8 1_555 1_555
C14 C15 1_555 1_555
C20 C21 1_555 1_555

#END
