
#######################################################################
#
#                 Cambridge Crystallographic Data Centre
#                                CCDC 
#
#######################################################################
#
# If this CIF has been generated from an entry in the Cambridge 
# Structural Database, then it will include bibliographic, chemical, 
# crystal, experimental, refinement or atomic coordinate data resulting 
# from the CCDC's data processing and validation procedures.
#
#######################################################################

data_BIXLEA
_chemical_formula_moiety         'C11 H10 O1 S2'
_chemical_name_systematic        Spiro(1,3-dithiolane-2,1'-inden)-2'(3'H)-one
_symmetry_cell_setting           orthorhombic
_symmetry_space_group_name_H-M   'P 21 21 21'
_symmetry_Int_Tables_number      19
_space_group_name_Hall           'P 2ac 2ab'
loop_
_symmetry_equiv_pos_site_id
_symmetry_equiv_pos_as_xyz
1 x,y,z
2 1/2-x,-y,1/2+z
3 -x,1/2+y,1/2-z
4 1/2+x,1/2-y,-z
_cell_length_a                   6.8857(14)
_cell_length_b                   9.1851(19)
_cell_length_c                   16.333(3)
_cell_angle_alpha                90
_cell_angle_beta                 90
_cell_angle_gamma                90
_cell_volume                     1032.99
_exptl_crystal_colour            colorless
_exptl_crystal_description       prism
_chemical_melting_point          '118 deg.C'
_cell_formula_units_Z            4
loop_
_atom_site_label
_atom_site_type_symbol
_atom_site_fract_x
_atom_site_fract_y
_atom_site_fract_z
C1 C 0.2218(3) 0.2441(2) 0.87520(13)
C2 C 0.4260(3) 0.2914(3) 0.84765(14)
C3 C 0.5386(4) 0.1576(3) 0.82383(15)
H1 H 0.5486 0.1491 0.7648
H2 H 0.6682 0.1594 0.8471
C4 C 0.4692(4) -0.1114(3) 0.86485(16)
H3 H 0.5888 -0.1446 0.8462
C5 C 0.3374(5) -0.2066(3) 0.89862(17)
H4 H 0.3678 -0.3050 0.9027
C6 C 0.1609(5) -0.1571(3) 0.92639(19)
H5 H 0.0733 -0.2228 0.9490
C7 C 0.1114(4) -0.0122(3) 0.92142(17)
H6 H -0.0082 0.0207 0.9403
C8 C -0.0135(4) 0.4566(3) 0.82391(18)
H7 H 0.0906 0.5260 0.8153
H8 H -0.1269 0.4894 0.7939
C9 C -0.0591(4) 0.4447(3) 0.91257(17)
H9 H -0.1817 0.3943 0.9199
H10 H -0.0709 0.5412 0.9362
C10 C 0.4209(4) 0.0352(3) 0.85905(14)
C11 C 0.2440(3) 0.0828(2) 0.88760(13)
O1 O 0.4822(3) 0.4154(2) 0.84457(14)
S1 S 0.05916(9) 0.27865(7) 0.78906(4)
S2 S 0.13231(10) 0.34586(7) 0.96309(4)
loop_
_geom_bond_atom_site_label_1
_geom_bond_atom_site_label_2
_geom_bond_site_symmetry_1
_geom_bond_site_symmetry_2
C1 C2 1_555 1_555
C2 C3 1_555 1_555
C3 H1 1_555 1_555
H2 C3 1_555 1_555
C4 H3 1_555 1_555
C5 C4 1_555 1_555
H4 C5 1_555 1_555
C6 C5 1_555 1_555
H5 C6 1_555 1_555
C7 C6 1_555 1_555
H6 C7 1_555 1_555
C8 H7 1_555 1_555
H8 C8 1_555 1_555
C9 C8 1_555 1_555
H9 C9 1_555 1_555
H10 C9 1_555 1_555
C10 C3 1_555 1_555
C11 C1 1_555 1_555
O1 C2 1_555 1_555
S1 C1 1_555 1_555
S2 C1 1_555 1_555
C4 C10 1_555 1_555
C7 C11 1_555 1_555
C8 S1 1_555 1_555
C9 S2 1_555 1_555
C10 C11 1_555 1_555

#END
