
#######################################################################
#
#                 Cambridge Crystallographic Data Centre
#                                CCDC 
#
#######################################################################
#
# If this CIF has been generated from an entry in the Cambridge 
# Structural Database, then it will include bibliographic, chemical, 
# crystal, experimental, refinement or atomic coordinate data resulting 
# from the CCDC's data processing and validation procedures.
#
#######################################################################

data_BIXLIE
_chemical_formula_moiety         'C15 H12 O1 S2'
_chemical_name_systematic        
2H-Spiro(acenaphthylene-1,2'-(1,3)dithian)-2-one
_symmetry_cell_setting           monoclinic
_symmetry_space_group_name_H-M   'P 21/c'
_symmetry_Int_Tables_number      14
_space_group_name_Hall           '-P 2ybc'
loop_
_symmetry_equiv_pos_site_id
_symmetry_equiv_pos_as_xyz
1 x,y,z
2 -x,1/2+y,1/2-z
3 -x,-y,-z
4 x,1/2-y,1/2+z
_cell_length_a                   6.9999(15)
_cell_length_b                   9.455(2)
_cell_length_c                   19.025(4)
_cell_angle_alpha                90
_cell_angle_beta                 95.184(4)
_cell_angle_gamma                90
_cell_volume                     1254
_exptl_crystal_colour            colorless
_exptl_crystal_description       prism
_chemical_melting_point          '163-170 deg.C'
_cell_formula_units_Z            4
loop_
_atom_site_label
_atom_site_type_symbol
_atom_site_fract_x
_atom_site_fract_y
_atom_site_fract_z
C1 C 0.7757(3) 0.2549(2) 0.03274(11)
C2 C 0.7991(3) 0.3215(3) -0.02881(12)
H1 H 0.8131 0.4193 -0.0306
C3 C 0.8017(4) 0.2385(3) -0.09011(13)
H2 H 0.8167 0.2832 -0.1328
C4 C 0.7832(4) 0.0960(3) -0.08934(14)
H3 H 0.7865 0.0453 -0.1311
C5 C 0.7592(3) 0.0238(3) -0.02617(13)
C6 C 0.7335(4) -0.1220(3) -0.01524(18)
H4 H 0.7346 -0.1837 -0.0533
C7 C 0.7072(4) -0.1743(3) 0.04945(18)
H5 H 0.6915 -0.2713 0.0546
C8 C 0.7029(4) -0.0877(3) 0.10864(15)
H6 H 0.6841 -0.1255 0.1526
C9 C 0.7271(3) 0.0545(2) 0.09995(12)
C10 C 0.7556(3) 0.1081(2) 0.03367(12)
C11 C 0.7256(3) 0.1742(2) 0.14881(12)
C12 C 0.7655(3) 0.3087(2) 0.10618(11)
C13 C 0.9580(5) 0.4494(3) 0.22112(14)
H7 H 0.9224 0.3740 0.2520
H8 H 1.0762 0.4911 0.2422
C14 C 0.8037(6) 0.5599(3) 0.21672(16)
H9 H 0.8030 0.6056 0.2623
H10 H 0.8340 0.6313 0.1828
C15 C 0.6078(6) 0.5027(4) 0.19558(17)
H11 H 0.5144 0.5769 0.2009
H12 H 0.5815 0.4267 0.2276
O1 O 0.6976(3) 0.17240(19) 0.21021(9)
S1 S 1.00056(9) 0.37511(7) 0.13710(3)
S2 S 0.57604(10) 0.43659(7) 0.10589(4)
loop_
_geom_bond_atom_site_label_1
_geom_bond_atom_site_label_2
_geom_bond_site_symmetry_1
_geom_bond_site_symmetry_2
C1 C2 1_555 1_555
C2 H1 1_555 1_555
C3 C2 1_555 1_555
H2 C3 1_555 1_555
C4 C3 1_555 1_555
H3 C4 1_555 1_555
C5 C4 1_555 1_555
C6 C5 1_555 1_555
H4 C6 1_555 1_555
C7 C6 1_555 1_555
H5 C7 1_555 1_555
C8 C7 1_555 1_555
H6 C8 1_555 1_555
C9 C8 1_555 1_555
C10 C1 1_555 1_555
C11 C9 1_555 1_555
C12 C1 1_555 1_555
C13 H7 1_555 1_555
H8 C13 1_555 1_555
C14 C13 1_555 1_555
H9 C14 1_555 1_555
H10 C14 1_555 1_555
C15 C14 1_555 1_555
H11 C15 1_555 1_555
H12 C15 1_555 1_555
O1 C11 1_555 1_555
S1 C12 1_555 1_555
S2 C12 1_555 1_555
C5 C10 1_555 1_555
C9 C10 1_555 1_555
C11 C12 1_555 1_555
C13 S1 1_555 1_555
C15 S2 1_555 1_555

#END
