
#######################################################################
#
#                 Cambridge Crystallographic Data Centre
#                                CCDC 
#
#######################################################################
#
# If this CIF has been generated from an entry in the Cambridge 
# Structural Database, then it will include bibliographic, chemical, 
# crystal, experimental, refinement or atomic coordinate data resulting 
# from the CCDC's data processing and validation procedures.
#
#######################################################################

data_BIXMON
_chemical_formula_moiety         'C22 H27 B1 N4 O2 S1'
_chemical_name_systematic        
(1,3-dimethyl-1H-imidazol-3-ium-2-yl)(dihydrido){5-imino-1-[(4-methylphenyl)sulfonyl]-4-phenylpyrrolidin-3-yl}borate
_symmetry_cell_setting           monoclinic
_symmetry_space_group_name_H-M   'P 21/c'
_symmetry_Int_Tables_number      14
_space_group_name_Hall           '-P 2ybc'
loop_
_symmetry_equiv_pos_site_id
_symmetry_equiv_pos_as_xyz
1 x,y,z
2 -x,1/2+y,1/2-z
3 -x,-y,-z
4 x,1/2-y,1/2+z
_cell_length_a                   11.1760(2)
_cell_length_b                   21.8089(4)
_cell_length_c                   9.7196(2)
_cell_angle_alpha                90
_cell_angle_beta                 107.043(2)
_cell_angle_gamma                90
_cell_volume                     2264.98
_exptl_crystal_description       block
_cell_formula_units_Z            4
loop_
_atom_site_label
_atom_site_type_symbol
_atom_site_fract_x
_atom_site_fract_y
_atom_site_fract_z
S1 S 0.64405(4) 0.31629(3) 0.75689(5)
O1 O 0.63491(16) 0.25471(7) 0.80413(17)
N1 N 0.51444(14) 0.33227(8) 0.63107(16)
O2 O 0.74282(14) 0.33244(10) 0.69879(18)
N2 N 0.36485(17) 0.29397(11) 0.74494(19)
C1 C 0.39504(16) 0.32464(9) 0.64992(19)
C2 C 0.30706(16) 0.36417(9) 0.53446(19)
H1 H 0.3088 0.4052 0.5760
C3 C 0.64852(15) 0.36531(9) 0.90177(18)
N3 N 0.1781(2) 0.37918(10) 0.0744(2)
C4 C 0.17270(16) 0.34307(9) 0.4945(2)
N4 N 0.08856(19) 0.44017(11) 0.1838(2)
C5 C 0.37257(17) 0.36938(9) 0.41746(19)
H2 H 0.3593 0.3312 0.3619
C6 C 0.20081(19) 0.41625(10) 0.1892(2)
C7 C 0.50926(17) 0.37276(11) 0.5064(2)
H3 H 0.5637 0.3578 0.4523
H4 H 0.5330 0.4144 0.5375
C8 C 0.66352(19) 0.44232(10) 1.1334(2)
C9 C 0.6507(2) 0.42813(10) 0.8842(2)
H5 H 0.6475 0.4448 0.7951
C10 C 0.6520(2) 0.34096(10) 1.0337(2)
H6 H 0.6489 0.2987 1.0453
C11 C 0.6603(2) 0.37956(11) 1.1483(2)
H7 H 0.6638 0.3629 1.2375
C12 C 0.6577(2) 0.46578(10) 0.9995(3)
H8 H 0.6586 0.5081 0.9872
C13 C 0.0996(2) 0.36344(13) 0.5781(3)
H9 H 0.1345 0.3896 0.6549
C14 C 0.1188(2) 0.30462(11) 0.3800(3)
H10 H 0.1658 0.2900 0.3224
C15 C -0.0070(3) 0.28785(14) 0.3515(3)
H11 H -0.0441 0.2626 0.2735
B1 B 0.3329(2) 0.42692(12) 0.3059(3)
H12 H 0.3293 0.4640 0.3597
H13 H 0.3964 0.4327 0.2572
C16 C 0.6742(3) 0.48386(14) 1.2593(3)
H14 H 0.5991 0.4813 1.2879
H15 H 0.6860 0.5253 1.2327
H16 H 0.7445 0.4716 1.3381
C17 C -0.0760(2) 0.30850(16) 0.4380(4)
H17 H -0.1592 0.2967 0.4193
C18 C -0.0235(2) 0.34595(16) 0.5503(4)
H18 H -0.0705 0.3599 0.6087
C19 C 0.0521(4) 0.37974(19) 0.0011(4)
H19 H 0.0130 0.3573 -0.0812
C20 C 0.2735(4) 0.34343(15) 0.0354(3)
H20 H 0.3533 0.3632 0.0721
H21 H 0.2526 0.3405 -0.0675
H22 H 0.2774 0.3031 0.0759
C21 C -0.0025(3) 0.4176(2) 0.0683(4)
H23 H -0.0872 0.4273 0.0424
C22 C 0.0647(4) 0.4828(2) 0.2876(4)
H24 H 0.0279 0.4612 0.3512
H25 H 0.0084 0.5142 0.2378
H26 H 0.1421 0.5012 0.3424
H27 H 0.431(3) 0.2734(17) 0.801(4)
loop_
_geom_bond_atom_site_label_1
_geom_bond_atom_site_label_2
_geom_bond_site_symmetry_1
_geom_bond_site_symmetry_2
S1 O1 1_555 1_555
N1 S1 1_555 1_555
O2 S1 1_555 1_555
N2 C1 1_555 1_555
C1 N1 1_555 1_555
C2 C1 1_555 1_555
H1 C2 1_555 1_555
C3 S1 1_555 1_555
N3 C6 1_555 1_555
C4 C2 1_555 1_555
N4 C6 1_555 1_555
C5 C2 1_555 1_555
H2 C5 1_555 1_555
C6 B1 1_555 1_555
C7 N1 1_555 1_555
H3 C7 1_555 1_555
H4 C7 1_555 1_555
C8 C11 1_555 1_555
C9 C3 1_555 1_555
H5 C9 1_555 1_555
C10 C3 1_555 1_555
H6 C10 1_555 1_555
C11 C10 1_555 1_555
H7 C11 1_555 1_555
C12 C8 1_555 1_555
H8 C12 1_555 1_555
C13 C4 1_555 1_555
H9 C13 1_555 1_555
C14 C4 1_555 1_555
H10 C14 1_555 1_555
C15 C14 1_555 1_555
H11 C15 1_555 1_555
B1 C5 1_555 1_555
H12 B1 1_555 1_555
H13 B1 1_555 1_555
C16 C8 1_555 1_555
H14 C16 1_555 1_555
H15 C16 1_555 1_555
H16 C16 1_555 1_555
C17 C15 1_555 1_555
H17 C17 1_555 1_555
C18 C13 1_555 1_555
H18 C18 1_555 1_555
C19 N3 1_555 1_555
H19 C19 1_555 1_555
C20 N3 1_555 1_555
H20 C20 1_555 1_555
H21 C20 1_555 1_555
H22 C20 1_555 1_555
C21 N4 1_555 1_555
H23 C21 1_555 1_555
C22 N4 1_555 1_555
H24 C22 1_555 1_555
H25 C22 1_555 1_555
H26 C22 1_555 1_555
H27 N2 1_555 1_555
C5 C7 1_555 1_555
C9 C12 1_555 1_555
C17 C18 1_555 1_555
C19 C21 1_555 1_555

#END
