
#######################################################################
#
#                 Cambridge Crystallographic Data Centre
#                                CCDC 
#
#######################################################################
#
# If this CIF has been generated from an entry in the Cambridge 
# Structural Database, then it will include bibliographic, chemical, 
# crystal, experimental, refinement or atomic coordinate data resulting 
# from the CCDC's data processing and validation procedures.
#
#######################################################################

data_BIXZIS
_chemical_name_common            
8-methyl-1,2,3,4,4a,5,7,8-octahydro-6H-benzo[7]annulen-6-one
_chemical_formula_moiety         'C12 H18 O1'
_chemical_name_systematic        3-methyl-5-oxobicyclo[5.4]undecene
_symmetry_cell_setting           monoclinic
_symmetry_space_group_name_H-M   'P 21/c'
_symmetry_Int_Tables_number      14
_space_group_name_Hall           '-P 2ybc'
loop_
_symmetry_equiv_pos_site_id
_symmetry_equiv_pos_as_xyz
1 x,y,z
2 -x,1/2+y,1/2-z
3 -x,-y,-z
4 x,1/2-y,1/2+z
_cell_length_a                   5.2640(19)
_cell_length_b                   22.873(8)
_cell_length_c                   8.654(3)
_cell_angle_alpha                90
_cell_angle_beta                 97.418(7)
_cell_angle_gamma                90
_cell_volume                     1033.25
_exptl_crystal_colour            colorless
_exptl_crystal_description       needle
_chemical_melting_point          '30-31 deg.C'
_cell_formula_units_Z            4
_exptl_crystal_recrystallization_method ether/pentane
loop_
_atom_site_label
_atom_site_type_symbol
_atom_site_fract_x
_atom_site_fract_y
_atom_site_fract_z
O1 O 0.4428(4) 0.49206(9) 0.2462(2)
C1 C 0.6379(5) 0.46336(11) 0.2655(3)
C2 C 0.7174(5) 0.43386(12) 0.4193(3)
H1 H 0.5910 0.4035 0.4332
H2 H 0.7101 0.4628 0.5021
C3 C 0.9827(5) 0.40586(12) 0.4420(3)
H3 H 1.1085 0.4349 0.4139
C4 C 0.9938(5) 0.35287(11) 0.3396(3)
H4 H 1.0702 0.3196 0.3896
C5 C 0.9111(4) 0.34633(11) 0.1889(3)
C6 C 0.9113(6) 0.28657(12) 0.1141(4)
H5 H 0.9748 0.2576 0.1932
H6 H 1.0273 0.2868 0.0342
C7 C 0.6433(6) 0.26929(12) 0.0401(3)
H7 H 0.6506 0.2317 -0.0133
H8 H 0.5312 0.2648 0.1213
C8 C 0.5348(6) 0.31531(13) -0.0753(3)
H9 H 0.3595 0.3046 -0.1179
H10 H 0.6378 0.3169 -0.1618
C9 C 0.5331(5) 0.37504(12) -0.0001(3)
H11 H 0.4150 0.3746 0.0787
H12 H 0.4707 0.4040 -0.0794
C10 C 0.8011(5) 0.39294(11) 0.0770(3)
H13 H 0.9105 0.3932 -0.0078
C11 C 0.8037(5) 0.45579(11) 0.1382(3)
H14 H 0.9800 0.4668 0.1779
H15 H 0.7438 0.4822 0.0520
C12 C 1.0548(7) 0.38886(15) 0.6132(3)
H16 H 0.9346 0.3599 0.6420
H17 H 1.0491 0.4232 0.6782
H18 H 1.2264 0.3726 0.6277
loop_
_geom_bond_atom_site_label_1
_geom_bond_atom_site_label_2
_geom_bond_site_symmetry_1
_geom_bond_site_symmetry_2
O1 C1 1_555 1_555
C1 C2 1_555 1_555
C2 H1 1_555 1_555
H2 C2 1_555 1_555
C3 C2 1_555 1_555
H3 C3 1_555 1_555
C4 C3 1_555 1_555
H4 C4 1_555 1_555
C5 C4 1_555 1_555
C6 C5 1_555 1_555
H5 C6 1_555 1_555
H6 C6 1_555 1_555
C7 C6 1_555 1_555
H7 C7 1_555 1_555
H8 C7 1_555 1_555
C8 C7 1_555 1_555
H9 C8 1_555 1_555
H10 C8 1_555 1_555
C9 C8 1_555 1_555
H11 C9 1_555 1_555
H12 C9 1_555 1_555
C10 C5 1_555 1_555
H13 C10 1_555 1_555
C11 C1 1_555 1_555
H14 C11 1_555 1_555
H15 C11 1_555 1_555
C12 C3 1_555 1_555
H16 C12 1_555 1_555
H17 C12 1_555 1_555
H18 C12 1_555 1_555
C9 C10 1_555 1_555
C10 C11 1_555 1_555

#END
