
#######################################################################
#
#                 Cambridge Crystallographic Data Centre
#                                CCDC 
#
#######################################################################
#
# If this CIF has been generated from an entry in the Cambridge 
# Structural Database, then it will include bibliographic, chemical, 
# crystal, experimental, refinement or atomic coordinate data resulting 
# from the CCDC's data processing and validation procedures.
#
#######################################################################

data_BIYBIX
_chemical_formula_moiety         'C21 H28 N2 O4'
_chemical_name_systematic        
'3-t-butyl-7,8-dimethoxy-2-methyl-10a-(prop-2-en-1-yl)-2,3,10,10a-tetrahydroimidazo[1,5-b]isoquinoline-1,5-dione unknown solvate'
_symmetry_cell_setting           monoclinic
_symmetry_space_group_name_H-M   'C 2'
_symmetry_Int_Tables_number      5
_space_group_name_Hall           'C 2y'
loop_
_symmetry_equiv_pos_site_id
_symmetry_equiv_pos_as_xyz
1 x,y,z
2 -x,y,-z
3 1/2+x,1/2+y,z
4 1/2-x,1/2+y,-z
_cell_length_a                   13.7798(4)
_cell_length_b                   12.7550(4)
_cell_length_c                   23.7654(6)
_cell_angle_alpha                90
_cell_angle_beta                 105.798(2)
_cell_angle_gamma                90
_cell_volume                     4019.26
_exptl_crystal_colour            colorless
_exptl_crystal_description       block
_cell_formula_units_Z            8
loop_
_atom_site_label
_atom_site_type_symbol
_atom_site_fract_x
_atom_site_fract_y
_atom_site_fract_z
O1 O 0.76496(13) 0.31587(14) 0.83435(8)
O2 O 0.72223(12) 0.63738(13) 0.99404(7)
O3 O 0.94010(13) 0.30915(14) 1.18636(7)
O4 O 0.84465(13) 0.47741(14) 1.19851(7)
N1 N 0.74107(14) 0.49323(16) 0.83890(8)
N2 N 0.76871(14) 0.51600(14) 0.93588(8)
C1 C 0.75504(17) 0.57774(18) 0.88248(9)
H1 H 0.692340 0.620984 0.875406
C2 C 0.76187(17) 0.3962(2) 0.86176(10)
C3 C 0.76639(16) 0.40221(18) 0.92604(10)
C4 C 0.84736(16) 0.64912(18) 0.88266(10)
C5 C 0.82078(18) 0.7198(2) 0.82826(11)
H2 H 0.814776 0.676986 0.793238
H3 H 0.874037 0.772169 0.831430
H4 H 0.756562 0.755330 0.825420
C6 C 0.87131(19) 0.72063(19) 0.93643(11)
H5 H 0.811026 0.760878 0.937034
H6 H 0.925779 0.768897 0.934727
H7 H 0.892470 0.677894 0.971938
C7 C 0.94009(18) 0.5833(2) 0.88329(12)
H8 H 0.957302 0.539069 0.918338
H9 H 0.996918 0.629646 0.883570
H10 H 0.925596 0.538799 0.848359
C8 C 0.7023(2) 0.5098(2) 0.77620(10)
H11 H 0.651139 0.565259 0.768845
H12 H 0.671900 0.444693 0.757523
H13 H 0.757623 0.530578 0.759993
C9 C 0.66531(17) 0.35249(19) 0.93069(11)
H14 H 0.667134 0.276130 0.923575
H15 H 0.659671 0.362452 0.970993
C10 C 0.57356(18) 0.3980(2) 0.88852(12)
H16 H 0.559563 0.377522 0.848686
C11 C 0.5115(2) 0.4639(3) 0.90272(16)
H17 H 0.523152 0.486103 0.942155
H18 H 0.454782 0.489540 0.873610
C12 C 0.85554(17) 0.35396(18) 0.97047(10)
H19 H 0.851661 0.276542 0.967852
H20 H 0.919263 0.376637 0.962557
C13 C 0.85333(16) 0.38924(18) 1.03091(10)
C14 C 0.80251(16) 0.48036(18) 1.03832(10)
C15 C 0.75883(17) 0.55225(18) 0.98811(10)
C16 C 0.90059(17) 0.33055(18) 1.08063(10)
H21 H 0.935743 0.268252 1.076407
C17 C 0.89698(17) 0.36159(19) 1.13553(10)
C18 C 0.84411(17) 0.45315(19) 1.14237(10)
C19 C 0.79719(17) 0.51125(19) 1.09370(10)
H22 H 0.760958 0.572799 1.097883
C20 C 1.00988(19) 0.2275(2) 1.18379(12)
H23 H 1.038398 0.198619 1.223032
H24 H 1.064235 0.256044 1.169000
H25 H 0.974828 0.171909 1.157579
C21 C 0.8078(2) 0.5788(2) 1.20735(12)
H26 H 0.818919 0.591167 1.249330
H27 H 0.735431 0.582666 1.187736
H28 H 0.843598 0.632102 1.191079
O5 O 0.42448(14) 0.66014(14) 0.67171(7)
O6 O 0.22992(12) 0.35142(13) 0.50320(8)
O7 O 0.26796(12) 0.69641(13) 0.31983(7)
O8 O 0.14532(12) 0.53928(14) 0.30540(7)
N3 N 0.39374(15) 0.48351(16) 0.66208(8)
N4 N 0.33089(13) 0.46907(15) 0.56458(8)
C22 C 0.36743(17) 0.40281(19) 0.61649(10)
H29 H 0.311506 0.357825 0.622295
C23 C 0.39541(17) 0.5820(2) 0.64171(10)
C24 C 0.34036(17) 0.58142(18) 0.57700(10)
C25 C 0.45948(16) 0.33394(18) 0.61457(10)
C26 C 0.54825(18) 0.4011(2) 0.60935(12)
H30 H 0.529105 0.440532 0.572594
H31 H 0.605892 0.355770 0.609807
H32 H 0.566784 0.450091 0.642309
C27 C 0.43017(19) 0.2590(2) 0.56247(11)
H33 H 0.370463 0.218783 0.564195
H34 H 0.486186 0.210891 0.563808
H35 H 0.415076 0.299372 0.526024
C28 C 0.49186(19) 0.2678(2) 0.67095(11)
H36 H 0.522103 0.313677 0.704196
H37 H 0.541337 0.215224 0.666892
H38 H 0.432717 0.232657 0.677574
C29 C 0.4077(2) 0.4632(2) 0.72413(10)
H39 H 0.372714 0.398305 0.728895
H40 H 0.379823 0.521702 0.741535
H41 H 0.479770 0.456108 0.743687
C30 C 0.23696(18) 0.6341(2) 0.57325(11)
H42 H 0.248926 0.703324 0.592727
H43 H 0.200985 0.645941 0.531626
C31 C 0.38951(17) 0.63283(18) 0.53403(10)
H44 H 0.460127 0.608635 0.541342
H45 H 0.389783 0.709981 0.538601
C32 C 0.32913(16) 0.60238(17) 0.47268(10)
C33 C 0.26800(16) 0.51333(18) 0.46369(10)
C34 C 0.27166(16) 0.43716(18) 0.51168(10)
C35 C 0.33084(16) 0.66458(17) 0.42465(10)
H46 H 0.373321 0.724509 0.430055
C36 C 0.27128(17) 0.63997(18) 0.36913(10)
C37 C 0.20517(17) 0.55298(18) 0.36104(10)
C38 C 0.20605(16) 0.48990(18) 0.40803(10)
H47 H 0.164034 0.429620 0.402620
C39 C 0.34632(19) 0.7724(2) 0.32328(11)
H48 H 0.340641 0.801131 0.284278
H49 H 0.412249 0.738653 0.338172
H50 H 0.339535 0.829118 0.349743
C40 C 0.0824(2) 0.4486(3) 0.29539(12)
H51 H 0.043838 0.446064 0.254155
H52 H 0.035890 0.451811 0.320022
H53 H 0.124376 0.385595 0.305107
C41 C 0.1705(7) 0.5692(9) 0.6013(5)
H54 H 0.188922 0.567723 0.642852
C42 C 0.0906(6) 0.5148(7) 0.5745(6)
H55 H 0.068775 0.513484 0.533012
H56 H 0.054367 0.476770 0.596623
H57? H 0.246859 0.710826 0.577631
H58? H 0.190821 0.620717 0.534007
C43? C 0.1883(11) 0.5957(11) 0.6186(6)
H59? H 0.212874 0.618370 0.658012
C44? C 0.1125(10) 0.5316(8) 0.6040(8)
H60? H 0.087969 0.508926 0.564615
H61? H 0.081624 0.507196 0.632754
loop_
_geom_bond_atom_site_label_1
_geom_bond_atom_site_label_2
_geom_bond_site_symmetry_1
_geom_bond_site_symmetry_2
O1 C2 1_555 1_555
O2 C15 1_555 1_555
O3 C17 1_555 1_555
O4 C18 1_555 1_555
N1 C1 1_555 1_555
N2 C1 1_555 1_555
C1 H1 1_555 1_555
C2 N1 1_555 1_555
C3 N2 1_555 1_555
C4 C1 1_555 1_555
C5 C4 1_555 1_555
H2 C5 1_555 1_555
H3 C5 1_555 1_555
H4 C5 1_555 1_555
C6 C4 1_555 1_555
H5 C6 1_555 1_555
H6 C6 1_555 1_555
H7 C6 1_555 1_555
C7 C4 1_555 1_555
H8 C7 1_555 1_555
H9 C7 1_555 1_555
H10 C7 1_555 1_555
C8 N1 1_555 1_555
H11 C8 1_555 1_555
H12 C8 1_555 1_555
H13 C8 1_555 1_555
C9 C3 1_555 1_555
H14 C9 1_555 1_555
H15 C9 1_555 1_555
C10 C9 1_555 1_555
H16 C10 1_555 1_555
C11 C10 1_555 1_555
H17 C11 1_555 1_555
H18 C11 1_555 1_555
C12 C3 1_555 1_555
H19 C12 1_555 1_555
H20 C12 1_555 1_555
C13 C12 1_555 1_555
C14 C13 1_555 1_555
C15 N2 1_555 1_555
C16 C13 1_555 1_555
H21 C16 1_555 1_555
C17 C16 1_555 1_555
C18 C17 1_555 1_555
C19 C14 1_555 1_555
H22 C19 1_555 1_555
C20 O3 1_555 1_555
H23 C20 1_555 1_555
H24 C20 1_555 1_555
H25 C20 1_555 1_555
C21 O4 1_555 1_555
H26 C21 1_555 1_555
H27 C21 1_555 1_555
H28 C21 1_555 1_555
O5 C23 1_555 1_555
O6 C34 1_555 1_555
O7 C36 1_555 1_555
O8 C37 1_555 1_555
N3 C22 1_555 1_555
N4 C22 1_555 1_555
C22 H29 1_555 1_555
C23 N3 1_555 1_555
C24 N4 1_555 1_555
C25 C22 1_555 1_555
C26 C25 1_555 1_555
H30 C26 1_555 1_555
H31 C26 1_555 1_555
H32 C26 1_555 1_555
C27 C25 1_555 1_555
H33 C27 1_555 1_555
H34 C27 1_555 1_555
H35 C27 1_555 1_555
C28 C25 1_555 1_555
H36 C28 1_555 1_555
H37 C28 1_555 1_555
H38 C28 1_555 1_555
C29 N3 1_555 1_555
H39 C29 1_555 1_555
H40 C29 1_555 1_555
H41 C29 1_555 1_555
C30 C24 1_555 1_555
H42 C30 1_555 1_555
H43 C30 1_555 1_555
C31 C24 1_555 1_555
H44 C31 1_555 1_555
H45 C31 1_555 1_555
C32 C31 1_555 1_555
C33 C32 1_555 1_555
C34 N4 1_555 1_555
C35 C32 1_555 1_555
H46 C35 1_555 1_555
C36 C35 1_555 1_555
C37 C36 1_555 1_555
C38 C33 1_555 1_555
H47 C38 1_555 1_555
C39 O7 1_555 1_555
H48 C39 1_555 1_555
H49 C39 1_555 1_555
H50 C39 1_555 1_555
C40 O8 1_555 1_555
H51 C40 1_555 1_555
H52 C40 1_555 1_555
H53 C40 1_555 1_555
C41 C30 1_555 1_555
H54 C41 1_555 1_555
C42 C41 1_555 1_555
H55 C42 1_555 1_555
H56 C42 1_555 1_555
C2 C3 1_555 1_555
C14 C15 1_555 1_555
C18 C19 1_555 1_555
C23 C24 1_555 1_555
C33 C34 1_555 1_555
C37 C38 1_555 1_555

#END
