
#######################################################################
#
#                 Cambridge Crystallographic Data Centre
#                                CCDC 
#
#######################################################################
#
# If this CIF has been generated from an entry in the Cambridge 
# Structural Database, then it will include bibliographic, chemical, 
# crystal, experimental, refinement or atomic coordinate data resulting 
# from the CCDC's data processing and validation procedures.
#
#######################################################################

data_BIYBES
_chemical_formula_moiety         'C23 H30 N3 1+,C1 F3 O3 S1 1-'
_chemical_name_systematic        
'5-(dimethylamino)-1,3-dimesityl-1H-imidazol-3-ium trifluoromethanesulfonate'
_symmetry_cell_setting           orthorhombic
_symmetry_space_group_name_H-M   'P 21 21 21'
_symmetry_Int_Tables_number      19
_space_group_name_Hall           'P 2ac 2ab'
loop_
_symmetry_equiv_pos_site_id
_symmetry_equiv_pos_as_xyz
1 x,y,z
2 1/2-x,-y,1/2+z
3 1/2+x,1/2-y,-z
4 -x,1/2+y,1/2-z
_cell_length_a                   8.4439(3)
_cell_length_b                   15.4854(4)
_cell_length_c                   19.7230(7)
_cell_angle_alpha                90
_cell_angle_beta                 90
_cell_angle_gamma                90
_cell_volume                     2578.92
_exptl_crystal_colour            colorless
_exptl_crystal_description       block
_cell_formula_units_Z            4
loop_
_atom_site_label
_atom_site_type_symbol
_atom_site_fract_x
_atom_site_fract_y
_atom_site_fract_z
C1 C 0.4321(3) 0.66508(13) 0.67617(12)
H1 H 0.3264 0.6645 0.6629
C2 C 0.6497(3) 0.67418(16) 0.73871(14)
C3 C 0.6924(3) 0.65906(16) 0.67340(14)
H2 H 0.7952 0.6535 0.6571
C4 C 0.7383(4) 0.7655(2) 0.82987(19)
H3 H 0.632 0.7864 0.8352
H4 H 0.797 0.8044 0.8016
H5 H 0.7882 0.7617 0.8735
C5 C 0.8941(4) 0.6430(3) 0.7938(2)
H6 H 0.9587 0.6784 0.765
H7 H 0.8873 0.5859 0.7751
H8 H 0.9406 0.6402 0.8381
C6 C 0.3839(3) 0.68914(15) 0.79792(14)
C7 C 0.3621(3) 0.61950(15) 0.84128(13)
C8 C 0.2684(3) 0.63330(17) 0.89809(14)
H9 H 0.2514 0.5877 0.9279
C9 C 0.1992(3) 0.71229(18) 0.91206(14)
C10 C 0.2223(3) 0.78019(16) 0.86653(14)
H10 H 0.1745 0.8332 0.8749
C11 C 0.3155(3) 0.77009(15) 0.80866(14)
C12 C 0.4360(4) 0.53242(16) 0.82770(15)
H11 H 0.4041 0.4925 0.8623
H12 H 0.5492 0.5378 0.8278
H13 H 0.4015 0.5116 0.7843
C13 C 0.0994(4) 0.7253(2) 0.97485(15)
H14 H 0.126 0.6821 1.0079
H15 H -0.0106 0.7203 0.9632
H16 H 0.1195 0.7816 0.9933
C14 C 0.3440(4) 0.84499(18) 0.76162(17)
H17 H 0.312 0.8295 0.7165
H18 H 0.4546 0.8594 0.7617
H19 H 0.2836 0.8939 0.7766
C15 C 0.5449(3) 0.64202(16) 0.56264(13)
C16 C 0.5620(3) 0.55926(17) 0.53641(14)
C17 C 0.5470(4) 0.5508(2) 0.46673(16)
H20 H 0.5597 0.4965 0.4474
C18 C 0.5137(4) 0.6206(3) 0.42472(17)
C19 C 0.5009(5) 0.7002(3) 0.45357(19)
H21 H 0.4813 0.7474 0.4256
C20 C 0.5158(4) 0.7140(2) 0.52291(17)
C21 C 0.5893(4) 0.48254(16) 0.58165(15)
H22 H 0.6059 0.432 0.5543
H23 H 0.4984 0.474 0.6101
H24 H 0.6809 0.4926 0.6093
C22 C 0.4895(6) 0.6070(4) 0.34869(19)
H25 H 0.5079 0.6604 0.3252
H26 H 0.3829 0.588 0.3405
H27 H 0.5624 0.5641 0.3326
C23 C 0.4987(6) 0.8032(2) 0.5528(2)
H28 H 0.4014 0.8067 0.5778
H29 H 0.4978 0.8453 0.5171
H30 H 0.5861 0.8146 0.5827
N1 N 0.4844(2) 0.67769(13) 0.73892(11)
N2 N 0.5553(2) 0.65343(12) 0.63554(10)
N3 N 0.7347(3) 0.68041(16) 0.79863(12)
C24 C 0.0916(3) 0.48364(17) 0.56330(15)
S1 S 0.08871(8) 0.52178(4) 0.65053(3)
O1 O 0.2394(2) 0.49531(13) 0.67626(11)
O2 O 0.0719(2) 0.61436(11) 0.64238(11)
O3 O -0.0469(2) 0.47892(13) 0.67858(11)
F1 F -0.0448(2) 0.49853(13) 0.53171(9)
F2 F 0.1179(3) 0.39921(11) 0.56022(10)
F3 F 0.2040(2) 0.52246(12) 0.52743(9)
loop_
_geom_bond_atom_site_label_1
_geom_bond_atom_site_label_2
_geom_bond_site_symmetry_1
_geom_bond_site_symmetry_2
C1 H1 1_555 1_555
C2 C3 1_555 1_555
C3 H2 1_555 1_555
C4 H3 1_555 1_555
H4 C4 1_555 1_555
H5 C4 1_555 1_555
C5 H6 1_555 1_555
H7 C5 1_555 1_555
H8 C5 1_555 1_555
C6 C7 1_555 1_555
C7 C8 1_555 1_555
C8 H9 1_555 1_555
C9 C8 1_555 1_555
C10 C9 1_555 1_555
H10 C10 1_555 1_555
C11 C6 1_555 1_555
C12 C7 1_555 1_555
H11 C12 1_555 1_555
H12 C12 1_555 1_555
H13 C12 1_555 1_555
C13 C9 1_555 1_555
H14 C13 1_555 1_555
H15 C13 1_555 1_555
H16 C13 1_555 1_555
C14 C11 1_555 1_555
H17 C14 1_555 1_555
H18 C14 1_555 1_555
H19 C14 1_555 1_555
C15 C16 1_555 1_555
C16 C17 1_555 1_555
C17 H20 1_555 1_555
C18 C17 1_555 1_555
C19 C18 1_555 1_555
H21 C19 1_555 1_555
C20 C15 1_555 1_555
C21 C16 1_555 1_555
H22 C21 1_555 1_555
H23 C21 1_555 1_555
H24 C21 1_555 1_555
C22 C18 1_555 1_555
H25 C22 1_555 1_555
H26 C22 1_555 1_555
H27 C22 1_555 1_555
C23 C20 1_555 1_555
H28 C23 1_555 1_555
H29 C23 1_555 1_555
H30 C23 1_555 1_555
N1 C1 1_555 1_555
N2 C1 1_555 1_555
N3 C2 1_555 1_555
C24 S1 1_555 1_555
S1 O1 1_555 1_555
O2 S1 1_555 1_555
O3 S1 1_555 1_555
F1 C24 1_555 1_555
F2 C24 1_555 1_555
F3 C24 1_555 1_555
C2 N1 1_555 1_555
C3 N2 1_555 1_555
C4 N3 1_555 1_555
C5 N3 1_555 1_555
C6 N1 1_555 1_555
C10 C11 1_555 1_555
C15 N2 1_555 1_555
C19 C20 1_555 1_555

#END
