
#######################################################################
#
#                 Cambridge Crystallographic Data Centre
#                                CCDC 
#
#######################################################################
#
# If this CIF has been generated from an entry in the Cambridge 
# Structural Database, then it will include bibliographic, chemical, 
# crystal, experimental, refinement or atomic coordinate data resulting 
# from the CCDC's data processing and validation procedures.
#
#######################################################################

data_BIYBOD
_chemical_formula_moiety         'C16 H20 N2 O2'
_chemical_name_systematic        
3-t-butyl-2-methyl-2,3,10,10a-tetrahydroimidazo[1,5-b]isoquinoline-1,5-dione
_symmetry_cell_setting           orthorhombic
_symmetry_space_group_name_H-M   'P 21 21 21'
_symmetry_Int_Tables_number      19
_space_group_name_Hall           'P 2ac 2ab'
loop_
_symmetry_equiv_pos_site_id
_symmetry_equiv_pos_as_xyz
1 x,y,z
2 1/2+x,1/2-y,-z
3 -x,1/2+y,1/2-z
4 1/2-x,-y,1/2+z
_cell_length_a                   6.5837(2)
_cell_length_b                   13.2718(4)
_cell_length_c                   16.6689(5)
_cell_angle_alpha                90
_cell_angle_beta                 90
_cell_angle_gamma                90
_cell_volume                     1456.49
_exptl_crystal_colour            white
_exptl_crystal_description       block
_cell_formula_units_Z            4
loop_
_atom_site_label
_atom_site_type_symbol
_atom_site_fract_x
_atom_site_fract_y
_atom_site_fract_z
C1 C 1.08606(19) 0.49025(9) 0.53343(7)
H1 H 1.2181 0.5115 0.5578
C2 C 0.7592(2) 0.55425(9) 0.56058(7)
C3 C 0.76325(18) 0.44845(9) 0.59553(8)
H2 H 0.6789 0.4020 0.5621
C4 C 0.69182(19) 0.44613(9) 0.68264(7)
H3 H 0.7532 0.5027 0.7128
H4 H 0.5422 0.4532 0.6850
C5 C 0.75522(19) 0.34726(9) 0.71932(7)
C6 C 0.6301(2) 0.29174(10) 0.77004(8)
H5 H 0.4980 0.3158 0.7825
C7 C 0.6971(2) 0.20139(10) 0.80251(8)
H6 H 0.6100 0.1634 0.8364
C8 C 0.8919(2) 0.16629(10) 0.78557(8)
H7 H 0.9378 0.1048 0.8084
C9 C 1.0187(2) 0.22100(10) 0.73551(8)
H8 H 1.1521 0.1976 0.7243
C10 C 0.94906(19) 0.31091(9) 0.70161(7)
C11 C 1.0814(2) 0.36529(9) 0.64337(7)
C12 C 1.1248(2) 0.44435(10) 0.44888(8)
C13 C 0.9257(2) 0.42456(13) 0.40438(9)
H9 H 0.9552 0.3960 0.3514
H10 H 0.8513 0.4880 0.3980
H11 H 0.8429 0.3769 0.4352
C14 C 1.2588(3) 0.51609(11) 0.40006(9)
H12 H 1.3799 0.5335 0.4313
H13 H 1.1824 0.5775 0.3877
H14 H 1.2998 0.4831 0.3500
C15 C 1.2390(3) 0.34454(11) 0.45871(9)
H15 H 1.2682 0.3161 0.4057
H16 H 1.1550 0.2972 0.4893
H17 H 1.3667 0.3565 0.4874
C16 C 1.0003(2) 0.67685(9) 0.50615(9)
H18 H 0.9539 0.6872 0.4509
H19 H 1.1482 0.6848 0.5086
H20 H 0.9358 0.7266 0.5414
N1 N 0.94543(17) 0.57579(8) 0.53233(6)
N2 N 0.97920(15) 0.42224(7) 0.58842(6)
O1 O 0.61191(15) 0.61056(7) 0.56095(6)
O2 O 1.26698(15) 0.35671(8) 0.64276(6)
loop_
_geom_bond_atom_site_label_1
_geom_bond_atom_site_label_2
_geom_bond_site_symmetry_1
_geom_bond_site_symmetry_2
C1 H1 1_555 1_555
C2 C3 1_555 1_555
C3 H2 1_555 1_555
C4 C3 1_555 1_555
H3 C4 1_555 1_555
H4 C4 1_555 1_555
C5 C4 1_555 1_555
C6 C5 1_555 1_555
H5 C6 1_555 1_555
C7 C6 1_555 1_555
H6 C7 1_555 1_555
C8 C7 1_555 1_555
H7 C8 1_555 1_555
C9 C8 1_555 1_555
H8 C9 1_555 1_555
C10 C5 1_555 1_555
C11 C10 1_555 1_555
C12 C1 1_555 1_555
C13 C12 1_555 1_555
H9 C13 1_555 1_555
H10 C13 1_555 1_555
H11 C13 1_555 1_555
C14 C12 1_555 1_555
H12 C14 1_555 1_555
H13 C14 1_555 1_555
H14 C14 1_555 1_555
C15 C12 1_555 1_555
H15 C15 1_555 1_555
H16 C15 1_555 1_555
H17 C15 1_555 1_555
C16 H18 1_555 1_555
H19 C16 1_555 1_555
H20 C16 1_555 1_555
N1 C1 1_555 1_555
N2 C1 1_555 1_555
O1 C2 1_555 1_555
O2 C11 1_555 1_555
C2 N1 1_555 1_555
C3 N2 1_555 1_555
C9 C10 1_555 1_555
C11 N2 1_555 1_555
C16 N1 1_555 1_555

#END
