
#######################################################################
#
#                 Cambridge Crystallographic Data Centre
#                                CCDC 
#
#######################################################################
#
# If this CIF has been generated from an entry in the Cambridge 
# Structural Database, then it will include bibliographic, chemical, 
# crystal, experimental, refinement or atomic coordinate data resulting 
# from the CCDC's data processing and validation procedures.
#
#######################################################################

data_BIYCAQ
_chemical_formula_moiety         'C18 H24 N2 O2'
_chemical_name_systematic        
3-t-butyl-10-ethyl-2-methyl-2,3,10,10a-tetrahydroimidazo[1,5-b]isoquinoline-1,5-dione
_symmetry_cell_setting           orthorhombic
_symmetry_space_group_name_H-M   'P 21 21 21'
_symmetry_Int_Tables_number      19
_space_group_name_Hall           'P 2ac 2ab'
loop_
_symmetry_equiv_pos_site_id
_symmetry_equiv_pos_as_xyz
1 x,y,z
2 1/2+x,1/2-y,-z
3 -x,1/2+y,1/2-z
4 1/2-x,-y,1/2+z
_cell_length_a                   6.0779(3)
_cell_length_b                   9.1801(5)
_cell_length_c                   28.2779(15)
_cell_angle_alpha                90
_cell_angle_beta                 90
_cell_angle_gamma                90
_cell_volume                     1577.79
_exptl_crystal_colour            white
_exptl_crystal_description       block
_cell_formula_units_Z            4
loop_
_atom_site_label
_atom_site_type_symbol
_atom_site_fract_x
_atom_site_fract_y
_atom_site_fract_z
C1 C 1.03568(19) 0.45392(13) 0.11515(4)
H1 H 1.1420 0.5118 0.1345
C2 C 0.6841(2) 0.57633(12) 0.10439(4)
H2 H 0.5342 0.5352 0.0986
C3 C 1.0183(2) 0.52089(13) 0.06580(4)
C4 C 1.1089(2) 0.29389(13) 0.11412(4)
H3 H 1.2731 0.2934 0.1119
C5 C 1.0488(2) 0.22428(13) 0.16090(4)
C6 C 1.1790(2) 0.11596(14) 0.18101(4)
H4 H 1.3167 0.0922 0.1671
C7 C 1.1091(2) 0.04216(14) 0.22128(4)
H5 H 1.2006 -0.0301 0.2351
C8 C 0.9059(3) 0.07371(14) 0.24140(4)
H6 H 0.8556 0.0203 0.2681
C9 C 0.7773(2) 0.18356(14) 0.22236(4)
H7 H 0.6392 0.2065 0.2362
C10 C 0.8503(2) 0.26091(13) 0.18267(4)
C11 C 0.7093(2) 0.38009(13) 0.16352(4)
C12 C 1.0205(2) 0.20212(14) 0.07220(4)
H8 H 1.0798 0.2441 0.0426
H9 H 1.0809 0.1024 0.0752
C13 C 0.7717(3) 0.19004(15) 0.06707(5)
H10 H 0.7088 0.1510 0.0964
H11 H 0.7366 0.1246 0.0407
H12 H 0.7096 0.2867 0.0608
C14 C 0.6632(2) 0.73220(13) 0.12545(4)
C15 C 0.8879(2) 0.80563(15) 0.12974(5)
H13 H 0.9578 0.8098 0.0985
H14 H 0.9809 0.7495 0.1514
H15 H 0.8691 0.9047 0.1420
C16 C 0.5140(2) 0.82287(14) 0.09316(4)
H16 H 0.4757 0.9144 0.1090
H17 H 0.3794 0.7680 0.0863
H18 H 0.5913 0.8442 0.0635
C17 C 0.5574(2) 0.72424(15) 0.17458(4)
H19 H 0.5436 0.8227 0.1876
H20 H 0.6496 0.6650 0.1955
H21 H 0.4111 0.6800 0.1720
C18 C 0.7234(2) 0.61375(14) 0.01434(4)
H22 H 0.7490 0.7178 0.0088
H23 H 0.5650 0.5940 0.0136
H24 H 0.7967 0.5569 -0.0104
N1 N 0.81174(16) 0.47502(11) 0.13378(3)
N2 N 0.81212(17) 0.57299(11) 0.06044(3)
O1 O 1.16459(15) 0.52136(9) 0.03614(3)
O2 O 0.51430(15) 0.39303(10) 0.17418(3)
loop_
_geom_bond_atom_site_label_1
_geom_bond_atom_site_label_2
_geom_bond_site_symmetry_1
_geom_bond_site_symmetry_2
C1 H1 1_555 1_555
C2 H2 1_555 1_555
C3 C1 1_555 1_555
C4 C1 1_555 1_555
H3 C4 1_555 1_555
C5 C4 1_555 1_555
C6 C5 1_555 1_555
H4 C6 1_555 1_555
C7 C6 1_555 1_555
H5 C7 1_555 1_555
C8 C7 1_555 1_555
H6 C8 1_555 1_555
C9 C8 1_555 1_555
H7 C9 1_555 1_555
C10 C5 1_555 1_555
C11 C10 1_555 1_555
C12 C4 1_555 1_555
H8 C12 1_555 1_555
H9 C12 1_555 1_555
C13 C12 1_555 1_555
H10 C13 1_555 1_555
H11 C13 1_555 1_555
H12 C13 1_555 1_555
C14 C2 1_555 1_555
C15 C14 1_555 1_555
H13 C15 1_555 1_555
H14 C15 1_555 1_555
H15 C15 1_555 1_555
C16 C14 1_555 1_555
H16 C16 1_555 1_555
H17 C16 1_555 1_555
H18 C16 1_555 1_555
C17 C14 1_555 1_555
H19 C17 1_555 1_555
H20 C17 1_555 1_555
H21 C17 1_555 1_555
C18 H22 1_555 1_555
H23 C18 1_555 1_555
H24 C18 1_555 1_555
N1 C1 1_555 1_555
N2 C2 1_555 1_555
O1 C3 1_555 1_555
O2 C11 1_555 1_555
C2 N1 1_555 1_555
C3 N2 1_555 1_555
C9 C10 1_555 1_555
C11 N1 1_555 1_555
C18 N2 1_555 1_555

#END
