
#######################################################################
#
#                 Cambridge Crystallographic Data Centre
#                                CCDC 
#
#######################################################################
#
# If this CIF has been generated from an entry in the Cambridge 
# Structural Database, then it will include bibliographic, chemical, 
# crystal, experimental, refinement or atomic coordinate data resulting 
# from the CCDC's data processing and validation procedures.
#
#######################################################################

data_BIYHOI
_chemical_formula_moiety         'C24 H23 N1 O3'
_chemical_name_systematic        
2-hexyl-6-phenoxy-1H-benzo[de]isoquinoline-1,3(2H)-dione
_symmetry_cell_setting           triclinic
_symmetry_space_group_name_H-M   'P -1'
_symmetry_Int_Tables_number      2
_space_group_name_Hall           '-P 1'
loop_
_symmetry_equiv_pos_site_id
_symmetry_equiv_pos_as_xyz
1 x,y,z
2 -x,-y,-z
_cell_length_a                   7.7752(3)
_cell_length_b                   8.7771(3)
_cell_length_c                   14.9802(5)
_cell_angle_alpha                102.869(3)
_cell_angle_beta                 96.841(3)
_cell_angle_gamma                92.197(3)
_cell_volume                     987.306
_exptl_crystal_colour            colorless
_exptl_crystal_description       block
_cell_formula_units_Z            2
loop_
_atom_site_label
_atom_site_type_symbol
_atom_site_fract_x
_atom_site_fract_y
_atom_site_fract_z
O1 O 0.1283(2) 0.3051(2) 0.16539(12)
O2 O 0.1175(2) -0.1852(2) 0.21553(12)
O3 O 0.3683(2) -0.31697(19) -0.18204(12)
N1 N 0.1264(2) 0.0600(2) 0.19146(13)
C1 C 0.1548(3) 0.1671(3) 0.13762(18)
C2 C 0.2177(2) 0.1074(2) 0.04868(15)
C3 C 0.2392(2) -0.0535(2) 0.01830(15)
C4 C 0.2027(2) -0.1590(3) 0.07344(15)
C5 C 0.1466(3) -0.1003(3) 0.16393(17)
C6 C 0.2533(3) 0.2083(3) -0.00542(18)
H1 H 0.2390 0.3146 0.0150
C7 C 0.3104(3) 0.1543(3) -0.09035(18)
H2 H 0.3343 0.2246 -0.1262
C8 C 0.3320(3) -0.0015(3) -0.12186(16)
H3 H 0.3707 -0.0367 -0.1788
C9 C 0.2956(2) -0.1086(2) -0.06823(15)
C10 C 0.3120(3) -0.2719(3) -0.09802(17)
C11 C 0.2757(3) -0.3723(3) -0.04354(17)
H4 H 0.2877 -0.4790 -0.0637
C12 C 0.2207(3) -0.3147(3) 0.04204(17)
H5 H 0.1959 -0.3839 0.0784
C13 C 0.3546(3) -0.4751(3) -0.22706(16)
C14 C 0.5042(3) -0.5484(3) -0.24058(18)
H6 H 0.6117 -0.4962 -0.2162
C15 C 0.4931(4) -0.7010(4) -0.2911(2)
H7 H 0.5937 -0.7529 -0.3009
C16 C 0.3343(5) -0.7762(3) -0.32679(19)
H8 H 0.3269 -0.8788 -0.3615
C17 C 0.1874(4) -0.7012(3) -0.31152(18)
H9 H 0.0797 -0.7534 -0.3354
C18 C 0.1958(3) -0.5502(3) -0.26168(18)
H10 H 0.0949 -0.4993 -0.2514
C19 C 0.0671(3) 0.1175(3) 0.28164(18)
H11 H -0.0323 0.0512 0.2868
H12 H 0.0296 0.2227 0.2854
C20 C 0.2093(6) 0.1199(6) 0.3629(3)
H13 H 0.1648 0.1674 0.4197
H14 H 0.2304 0.0124 0.3649
C21 C 0.3718(4) 0.2005(4) 0.3615(2)
H15 H 0.3452 0.2991 0.3457
H16 H 0.4233 0.1398 0.3102
C22 C 0.5075(5) 0.2372(5) 0.4400(2)
H17 H 0.4655 0.3181 0.4861
H18 H 0.5131 0.1446 0.4653
C23 C 0.6775(6) 0.2850(6) 0.4356(3)
H19 H 0.6716 0.3764 0.4093
H20 H 0.7199 0.2031 0.3902
C24 C 0.8113(5) 0.3235(6) 0.5128(3)
H21 H 0.9139 0.3649 0.4943
H22 H 0.8369 0.2309 0.5347
H23 H 0.7729 0.4004 0.5614
H24? H 0.0442 0.0297 0.3090
H25? H -0.0405 0.1681 0.2732
C25? C 0.2074(13) 0.2380(13) 0.3492(6)
H26? H 0.2075 0.3343 0.3276
H27? H 0.1674 0.2615 0.4094
H28? H 0.4239 0.2350 0.3131
H29? H 0.3639 0.0870 0.3435
loop_
_geom_bond_atom_site_label_1
_geom_bond_atom_site_label_2
_geom_bond_site_symmetry_1
_geom_bond_site_symmetry_2
O1 C1 1_555 1_555
O2 C5 1_555 1_555
O3 C10 1_555 1_555
N1 C1 1_555 1_555
C1 C2 1_555 1_555
C2 C3 1_555 1_555
C3 C4 1_555 1_555
C4 C5 1_555 1_555
C5 N1 1_555 1_555
C6 C2 1_555 1_555
H1 C6 1_555 1_555
C7 C6 1_555 1_555
H2 C7 1_555 1_555
C8 C7 1_555 1_555
H3 C8 1_555 1_555
C9 C3 1_555 1_555
C10 C9 1_555 1_555
C11 C10 1_555 1_555
H4 C11 1_555 1_555
C12 C4 1_555 1_555
H5 C12 1_555 1_555
C13 O3 1_555 1_555
C14 C13 1_555 1_555
H6 C14 1_555 1_555
C15 C14 1_555 1_555
H7 C15 1_555 1_555
C16 C15 1_555 1_555
H8 C16 1_555 1_555
C17 C16 1_555 1_555
H9 C17 1_555 1_555
C18 C13 1_555 1_555
H10 C18 1_555 1_555
C19 N1 1_555 1_555
H11 C19 1_555 1_555
H12 C19 1_555 1_555
C20 C19 1_555 1_555
H13 C20 1_555 1_555
H14 C20 1_555 1_555
C21 C20 1_555 1_555
H15 C21 1_555 1_555
H16 C21 1_555 1_555
C22 C21 1_555 1_555
H17 C22 1_555 1_555
H18 C22 1_555 1_555
C23 C22 1_555 1_555
H19 C23 1_555 1_555
H20 C23 1_555 1_555
C24 C23 1_555 1_555
H21 C24 1_555 1_555
H22 C24 1_555 1_555
H23 C24 1_555 1_555
C8 C9 1_555 1_555
C11 C12 1_555 1_555
C17 C18 1_555 1_555

#END
