
#######################################################################
#
#                 Cambridge Crystallographic Data Centre
#                                CCDC 
#
#######################################################################
#
# If this CIF has been generated from an entry in the Cambridge 
# Structural Database, then it will include bibliographic, chemical, 
# crystal, experimental, refinement or atomic coordinate data resulting 
# from the CCDC's data processing and validation procedures.
#
#######################################################################

data_BIYPUU
_chemical_formula_moiety         'C13 H15 N1 O3'
_chemical_name_systematic        
6,7-Dimethoxy-2,3-dimethyl-1(2H)-isoquinolinone
_symmetry_cell_setting           monoclinic
_symmetry_space_group_name_H-M   'P 21/c'
_symmetry_Int_Tables_number      14
_space_group_name_Hall           '-P 2ybc'
loop_
_symmetry_equiv_pos_site_id
_symmetry_equiv_pos_as_xyz
1 x,y,z
2 -x,1/2+y,1/2-z
3 -x,-y,-z
4 x,1/2-y,1/2+z
_cell_length_a                   10.663(11)
_cell_length_b                   13.809(5)
_cell_length_c                   8.206(9)
_cell_angle_alpha                90
_cell_angle_beta                 110.95(7)
_cell_angle_gamma                90
_cell_volume                     1128.42
_cell_formula_units_Z            4
loop_
_atom_site_label
_atom_site_type_symbol
_atom_site_fract_x
_atom_site_fract_y
_atom_site_fract_z
O1 O 0.22848 0.07240 0.08835
O2 O 0.73797 0.09832 0.42675
O3 O 0.83846 0.15213 0.19954
C1 C 0.28325 0.09690 -0.01427
C2 C 0.26178 0.14184 -0.31259
C3 C 0.39311 0.15922 -0.26310
C4 C 0.61984 0.15879 -0.03199
C5 C 0.70277 0.14207 0.13750
C6 C 0.64477 0.11209 0.26086
C7 C 0.51053 0.09896 0.21162
C8 C 0.42591 0.11405 0.03633
C9 C 0.48134 0.14456 -0.08590
C10 C 0.16798 0.15474 -0.49816
C11 C 0.06290 0.08946 -0.24262
C12 C 0.89994 0.16417 0.07151
C13 C 0.68411 0.07068 0.55581
N1 N 0.20621 0.10973 -0.19062
H1 H 0.42800 0.18200 -0.34500
H2 H 0.66000 0.18300 -0.10600
H3 H 0.46300 0.07600 0.28600
H4 H 0.12200 0.09200 -0.55800
H5 H 0.21900 0.17500 -0.56400
H6 H 0.09800 0.20100 -0.51100
H7 H 0.03900 0.04400 -0.34000
H8 H 0.00600 0.14300 -0.28000
H9 H 0.03800 0.04900 -0.16800
H10 H 0.87100 0.22900 0.01400
H11 H 0.87100 0.10200 -0.00600
H12 H 1.00200 0.16400 0.13700
H13 H 0.62200 0.00600 0.52500
H14 H 0.61100 0.12300 0.57000
H15 H 0.75300 0.06100 0.65300
loop_
_geom_bond_atom_site_label_1
_geom_bond_atom_site_label_2
_geom_bond_site_symmetry_1
_geom_bond_site_symmetry_2
O1 C1 1_555 1_555
O2 C6 1_555 1_555
O3 C5 1_555 1_555
C1 C8 1_555 1_555
C2 C3 1_555 1_555
C3 C9 1_555 1_555
C4 C5 1_555 1_555
C5 C6 1_555 1_555
C6 C7 1_555 1_555
C7 C8 1_555 1_555
C8 C9 1_555 1_555
C9 C4 1_555 1_555
C10 C2 1_555 1_555
C11 N1 1_555 1_555
C12 O3 1_555 1_555
C13 O2 1_555 1_555
N1 C1 1_555 1_555
H1 C3 1_555 1_555
H2 C4 1_555 1_555
H3 C7 1_555 1_555
H4 C10 1_555 1_555
H5 C10 1_555 1_555
H6 C10 1_555 1_555
H7 C11 1_555 1_555
H8 C11 1_555 1_555
H9 C11 1_555 1_555
H10 C12 1_555 1_555
H11 C12 1_555 1_555
H12 C12 1_555 1_555
H13 C13 1_555 1_555
H14 C13 1_555 1_555
H15 C13 1_555 1_555
C2 N1 1_555 1_555

#END
