
#######################################################################
#
#                 Cambridge Crystallographic Data Centre
#                                CCDC 
#
#######################################################################
#
# If this CIF has been generated from an entry in the Cambridge 
# Structural Database, then it will include bibliographic, chemical, 
# crystal, experimental, refinement or atomic coordinate data resulting 
# from the CCDC's data processing and validation procedures.
#
#######################################################################

data_BIYPUW
_chemical_formula_moiety         'C32 H34 Br1 N3 O4'
_chemical_name_systematic        
N-((6-bromo-2-methoxyquinolin-3-yl)(phenyl)methyl)-N-(1-(4-methoxyphenyl)ethyl)-2-(morpholin-4-yl)acetamide
_symmetry_cell_setting           orthorhombic
_symmetry_space_group_name_H-M   'P 21 21 21'
_symmetry_Int_Tables_number      19
_space_group_name_Hall           'P 2ac 2ab'
loop_
_symmetry_equiv_pos_site_id
_symmetry_equiv_pos_as_xyz
1 x,y,z
2 1/2-x,-y,1/2+z
3 1/2+x,1/2-y,-z
4 -x,1/2+y,1/2-z
_cell_length_a                   9.9808(12)
_cell_length_b                   10.9712(14)
_cell_length_c                   27.042(3)
_cell_angle_alpha                90
_cell_angle_beta                 90
_cell_angle_gamma                90
_cell_volume                     2961.14
_exptl_crystal_colour            colorless
_exptl_crystal_description       Block
_cell_formula_units_Z            4
loop_
_atom_site_label
_atom_site_type_symbol
_atom_site_fract_x
_atom_site_fract_y
_atom_site_fract_z
Br1 Br 1.15995(8) -0.51670(6) 0.67885(3)
O1 O 0.6110(3) -0.1004(3) 0.64872(13)
O2 O 1.0166(4) 0.1540(3) 0.56719(16)
O3 O 0.5128(4) 0.5869(4) 0.55413(16)
N1 N 1.1385(4) -0.0134(4) 0.58859(15)
N2 N 0.7008(3) 0.0892(3) 0.65092(13)
N3 N 0.4486(3) 0.0859(3) 0.72308(13)
O4 O 0.1799(4) 0.1200(4) 0.75647(17)
C1 C 0.9026(4) -0.0012(4) 0.60802(15)
C2 C 0.9062(5) -0.1133(4) 0.62859(18)
H1 H 0.8264 -0.1476 0.6418
C3 C 0.7721(4) 0.0748(4) 0.60355(16)
H2 H 0.8029 0.1588 0.5948
C4 C 0.6738(5) 0.3129(4) 0.64349(17)
C5 C 1.0273(5) -0.1806(4) 0.63084(18)
C6 C 0.6280(4) -0.0045(4) 0.67030(17)
C7 C 1.1417(4) -0.1286(4) 0.61039(17)
C8 C 1.2639(5) -0.1920(5) 0.61234(19)
H3 H 1.3425 -0.1564 0.5988
C9 C 1.2701(5) -0.3043(4) 0.63364(19)
H4 H 1.3531 -0.3465 0.6354
C10 C 0.6858(4) 0.0348(4) 0.56003(16)
C11 C 1.0244(4) 0.0428(4) 0.58776(17)
C12 C 1.0336(5) -0.2989(5) 0.65229(19)
H5 H 0.9559 -0.3362 0.6658
C13 C 0.5677(5) 0.0119(5) 0.72237(17)
H6 H 0.5460 -0.0694 0.7361
H7 H 0.6358 0.0497 0.7441
C14 C 0.7462(5) -0.0114(5) 0.51861(17)
H8 H 0.8406 -0.0227 0.5181
C15 C 0.5360(5) -0.0238(5) 0.4758(2)
H9 H 0.4858 -0.0412 0.4468
C16 C 0.7210(5) 0.2086(4) 0.67633(19)
H10 H 0.6603 0.2081 0.7057
C17 C 0.7555(5) 0.4014(5) 0.62492(19)
H11 H 0.8487 0.3985 0.6320
C18 C 0.5366(5) 0.3215(4) 0.6320(2)
H12 H 0.4765 0.2623 0.6448
C19 C 0.5472(5) 0.0522(5) 0.55862(19)
H13 H 0.5030 0.0863 0.5865
C20 C 0.5722(5) 0.4994(5) 0.5832(2)
C21 C 0.7065(5) 0.4947(5) 0.5963(2)
H14 H 0.7655 0.5570 0.5852
C22 C 1.1543(5) -0.3573(4) 0.65287(17)
C23 C 0.4741(5) 0.0209(5) 0.5177(2)
H15 H 0.3795 0.0300 0.5182
C24 C 0.3355(5) 0.0184(5) 0.7029(2)
H16 H 0.3252 -0.0595 0.7210
H17 H 0.3525 -0.0006 0.6677
C25 C 0.8622(6) 0.2207(5) 0.6963(2)
H18 H 0.8830 0.1501 0.7172
H19 H 0.8691 0.2953 0.7161
H20 H 0.9257 0.2245 0.6688
C26 C 0.6704(6) -0.0421(5) 0.47718(18)
H21 H 0.7138 -0.0767 0.4492
C27 C 0.4889(5) 0.4108(5) 0.6035(2)
H22 H 0.3955 0.4139 0.5968
C28 C 0.4164(5) 0.1160(6) 0.77496(19)
H23 H 0.4894 0.1653 0.7896
H24 H 0.4067 0.0403 0.7946
C29 C 0.2865(6) 0.1872(7) 0.7757(3)
H25 H 0.2656 0.2111 0.8101
H26 H 0.2977 0.2627 0.7560
C30 C 0.2071(5) 0.0927(7) 0.7075(2)
H27 H 0.2164 0.1693 0.6884
H28 H 0.1315 0.0460 0.6933
C31 C 1.1378(7) 0.2012(6) 0.5443(3)
H29 H 1.1199 0.2822 0.5306
H30 H 1.1661 0.1462 0.5177
H31 H 1.2089 0.2069 0.5692
C32 C 0.5938(8) 0.6823(6) 0.5364(3)
H32 H 0.5396 0.7375 0.5161
H33 H 0.6666 0.6484 0.5163
H34 H 0.6317 0.7273 0.5644
loop_
_geom_bond_atom_site_label_1
_geom_bond_atom_site_label_2
_geom_bond_site_symmetry_1
_geom_bond_site_symmetry_2
Br1 C22 1_555 1_555
O1 C6 1_555 1_555
O2 C11 1_555 1_555
O3 C20 1_555 1_555
N1 C7 1_555 1_555
N2 C3 1_555 1_555
N3 C13 1_555 1_555
O4 C29 1_555 1_555
C1 C2 1_555 1_555
C2 H1 1_555 1_555
C3 C1 1_555 1_555
H2 C3 1_555 1_555
C4 C16 1_555 1_555
C5 C2 1_555 1_555
C6 N2 1_555 1_555
C7 C5 1_555 1_555
C8 C7 1_555 1_555
H3 C8 1_555 1_555
C9 C8 1_555 1_555
H4 C9 1_555 1_555
C10 C3 1_555 1_555
C11 N1 1_555 1_555
C12 C5 1_555 1_555
H5 C12 1_555 1_555
C13 C6 1_555 1_555
H6 C13 1_555 1_555
H7 C13 1_555 1_555
C14 C10 1_555 1_555
H8 C14 1_555 1_555
C15 H9 1_555 1_555
C16 N2 1_555 1_555
H10 C16 1_555 1_555
C17 C4 1_555 1_555
H11 C17 1_555 1_555
C18 C4 1_555 1_555
H12 C18 1_555 1_555
C19 C10 1_555 1_555
H13 C19 1_555 1_555
C20 C21 1_555 1_555
C21 C17 1_555 1_555
H14 C21 1_555 1_555
C22 C9 1_555 1_555
C23 C15 1_555 1_555
H15 C23 1_555 1_555
C24 N3 1_555 1_555
H16 C24 1_555 1_555
H17 C24 1_555 1_555
C25 C16 1_555 1_555
H18 C25 1_555 1_555
H19 C25 1_555 1_555
H20 C25 1_555 1_555
C26 C14 1_555 1_555
H21 C26 1_555 1_555
C27 C18 1_555 1_555
H22 C27 1_555 1_555
C28 N3 1_555 1_555
H23 C28 1_555 1_555
H24 C28 1_555 1_555
C29 C28 1_555 1_555
H25 C29 1_555 1_555
H26 C29 1_555 1_555
C30 O4 1_555 1_555
H27 C30 1_555 1_555
H28 C30 1_555 1_555
C31 O2 1_555 1_555
H29 C31 1_555 1_555
H30 C31 1_555 1_555
H31 C31 1_555 1_555
C32 O3 1_555 1_555
H32 C32 1_555 1_555
H33 C32 1_555 1_555
H34 C32 1_555 1_555
C1 C11 1_555 1_555
C12 C22 1_555 1_555
C15 C26 1_555 1_555
C19 C23 1_555 1_555
C20 C27 1_555 1_555
C24 C30 1_555 1_555

#END
