
#######################################################################
#
#                 Cambridge Crystallographic Data Centre
#                                CCDC 
#
#######################################################################
#
# If this CIF has been generated from an entry in the Cambridge 
# Structural Database, then it will include bibliographic, chemical, 
# crystal, experimental, refinement or atomic coordinate data resulting 
# from the CCDC's data processing and validation procedures.
#
#######################################################################

data_BIYQAD
_chemical_formula_moiety         'C32 H34 Br1 N3 O4'
_chemical_name_systematic        
N-((6-bromo-2-methoxyquinolin-3-yl)(phenyl)methyl)-N-(1-(4-methoxyphenyl)ethyl)-2-(morpholin-4-yl)acetamide
_symmetry_cell_setting           orthorhombic
_symmetry_space_group_name_H-M   'P 21 21 21'
_symmetry_Int_Tables_number      19
_space_group_name_Hall           'P 2ac 2ab'
loop_
_symmetry_equiv_pos_site_id
_symmetry_equiv_pos_as_xyz
1 x,y,z
2 1/2-x,-y,1/2+z
3 1/2+x,1/2-y,-z
4 -x,1/2+y,1/2-z
_cell_length_a                   13.6246(18)
_cell_length_b                   13.7652(18)
_cell_length_c                   15.763(2)
_cell_angle_alpha                90
_cell_angle_beta                 90
_cell_angle_gamma                90
_cell_volume                     2956.28
_exptl_crystal_colour            colorless
_exptl_crystal_description       block
_cell_formula_units_Z            4
loop_
_atom_site_label
_atom_site_type_symbol
_atom_site_fract_x
_atom_site_fract_y
_atom_site_fract_z
Br1 Br -0.34638(7) 0.06181(7) 0.85228(7)
O1 O 0.1947(3) 0.0823(4) 0.8805(2)
O2 O 0.1299(3) 0.0787(3) 0.5470(2)
N1 N 0.2217(3) 0.1834(3) 0.7702(3)
N2 N 0.3437(4) 0.2490(4) 0.9358(3)
N3 N -0.0318(3) 0.0668(4) 0.5837(3)
O3 O 0.5021(4) 0.2770(4) 1.0522(4)
C1 C 0.2009(4) 0.1058(4) 0.7075(3)
H1 H 0.2271 0.1309 0.6539
C2 C 0.0939(4) 0.0904(4) 0.6905(4)
C3 C -0.0769(4) 0.0764(4) 0.7315(4)
C4 C 0.2586(4) 0.0112(4) 0.7233(4)
C5 C 0.0234(4) 0.0888(4) 0.7533(4)
H2 H 0.0415 0.0957 0.8099
C6 C 0.0591(4) 0.0790(4) 0.6052(4)
C7 C -0.1016(4) 0.0656(4) 0.6458(4)
O4 O -0.0354(4) 0.3800(5) 0.4851(4)
C8 C 0.0287(5) 0.3574(5) 0.5503(6)
C9 C 0.1733(5) 0.3098(4) 0.6677(4)
C10 C -0.2017(5) 0.0524(5) 0.6248(5)
H3 H -0.2199 0.0443 0.5683
C11 C 0.2165(4) 0.1633(5) 0.8554(4)
C12 C 0.2486(4) 0.2792(5) 0.7326(5)
H4 H 0.2439 0.3265 0.7789
C13 C -0.1510(4) 0.0737(4) 0.7940(4)
H5 H -0.1356 0.0792 0.8513
C14 C 0.3541(5) 0.2791(5) 0.7055(5)
H6 H 0.3946 0.2592 0.7522
H7 H 0.3726 0.3432 0.6879
H8 H 0.3626 0.2346 0.6591
C15 C -0.2708(4) 0.0513(5) 0.6857(5)
H9 H -0.3362 0.0427 0.6707
C16 C 0.3606(5) 0.0164(5) 0.7345(4)
H10 H 0.3928 0.0759 0.7371
C17 C 0.0058(5) 0.3521(5) 0.6332(5)
H11 H -0.0578 0.3654 0.6511
C18 C 0.0997(6) 0.0852(7) 0.4586(4)
H12 H 0.1568 0.0847 0.4229
H13 H 0.0639 0.1445 0.4499
H14 H 0.0586 0.0309 0.4448
C19 C -0.2468(4) 0.0626(5) 0.7677(5)
C20 C 0.0767(5) 0.3269(5) 0.6915(5)
H15 H 0.0595 0.3213 0.7484
C21 C 0.2366(5) 0.2408(6) 0.9195(4)
H16 H 0.2117 0.3025 0.8989
H17 H 0.2028 0.2255 0.9720
C22 C 0.2142(5) -0.0777(5) 0.7204(4)
H18 H 0.1468 -0.0831 0.7128
C23 C 0.4119(5) -0.0707(6) 0.7416(5)
H19 H 0.4798 -0.0685 0.7473
C24 C 0.1956(5) 0.3183(5) 0.5843(5)
H20 H 0.2599 0.3086 0.5665
C25 C 0.3672(6) -0.1587(6) 0.7406(5)
H21 H 0.4031 -0.2156 0.7479
C26 C 0.1245(6) 0.3409(5) 0.5252(5)
H22 H 0.1412 0.3451 0.4681
C27 C 0.2739(6) -0.1613(5) 0.7292(5)
H23 H 0.2437 -0.2218 0.7265
C28 C -0.1342(6) 0.4004(8) 0.5076(6)
H24 H -0.1712 0.4150 0.4574
H25 H -0.1360 0.4551 0.5453
H26 H -0.1622 0.3448 0.5353
C29 C 0.3714(7) 0.3401(6) 0.9651(6)
H27 H 0.3313 0.3573 1.0137
H28 H 0.3597 0.3879 0.9211
C30 C 0.4810(8) 0.3431(8) 0.9910(7)
H29 H 0.5213 0.3302 0.9416
H30 H 0.4971 0.4076 1.0115
C31 C 0.4665(18) 0.187(2) 1.0438(14)
H31 H 0.4587 0.1599 1.0998
C32 C 0.3635 0.1857 1.0089
H32 H 0.3149 0.1466 1.0325
C33? C 0.4877(18) 0.178(2) 0.9972(14)
H33? H 0.5144 0.1849 0.9408
C34? C 0.3784 0.1768 0.9868
H34? H 0.3381 0.1310 1.0127
loop_
_geom_bond_atom_site_label_1
_geom_bond_atom_site_label_2
_geom_bond_site_symmetry_1
_geom_bond_site_symmetry_2
Br1 C19 1_555 1_555
O1 C11 1_555 1_555
O2 C6 1_555 1_555
N1 C1 1_555 1_555
N2 C21 1_555 1_555
N3 C6 1_555 1_555
O3 C30 1_555 1_555
C1 H1 1_555 1_555
C2 C1 1_555 1_555
C3 C5 1_555 1_555
C4 C1 1_555 1_555
C5 C2 1_555 1_555
H2 C5 1_555 1_555
C6 C2 1_555 1_555
C7 N3 1_555 1_555
O4 C8 1_555 1_555
C8 C17 1_555 1_555
C9 C12 1_555 1_555
C10 C7 1_555 1_555
H3 C10 1_555 1_555
C11 N1 1_555 1_555
C12 N1 1_555 1_555
H4 C12 1_555 1_555
C13 C3 1_555 1_555
H5 C13 1_555 1_555
C14 C12 1_555 1_555
H6 C14 1_555 1_555
H7 C14 1_555 1_555
H8 C14 1_555 1_555
C15 C10 1_555 1_555
H9 C15 1_555 1_555
C16 C4 1_555 1_555
H10 C16 1_555 1_555
C17 H11 1_555 1_555
C18 O2 1_555 1_555
H12 C18 1_555 1_555
H13 C18 1_555 1_555
H14 C18 1_555 1_555
C19 C13 1_555 1_555
C20 C9 1_555 1_555
H15 C20 1_555 1_555
C21 C11 1_555 1_555
H16 C21 1_555 1_555
H17 C21 1_555 1_555
C22 C4 1_555 1_555
H18 C22 1_555 1_555
C23 C16 1_555 1_555
H19 C23 1_555 1_555
C24 C9 1_555 1_555
H20 C24 1_555 1_555
C25 C23 1_555 1_555
H21 C25 1_555 1_555
C26 C8 1_555 1_555
H22 C26 1_555 1_555
C27 C22 1_555 1_555
H23 C27 1_555 1_555
C28 O4 1_555 1_555
H24 C28 1_555 1_555
H25 C28 1_555 1_555
H26 C28 1_555 1_555
C29 N2 1_555 1_555
H27 C29 1_555 1_555
H28 C29 1_555 1_555
C30 C29 1_555 1_555
H29 C30 1_555 1_555
H30 C30 1_555 1_555
C31 O3 1_555 1_555
H31 C31 1_555 1_555
C32 N2 1_555 1_555
H32 C32 1_555 1_555
C3 C7 1_555 1_555
C15 C19 1_555 1_555
C17 C20 1_555 1_555
C24 C26 1_555 1_555
C25 C27 1_555 1_555
C31 C32 1_555 1_555

#END
