
#######################################################################
#
#                 Cambridge Crystallographic Data Centre
#                                CCDC 
#
#######################################################################
#
# If this CIF has been generated from an entry in the Cambridge 
# Structural Database, then it will include bibliographic, chemical, 
# crystal, experimental, refinement or atomic coordinate data resulting 
# from the CCDC's data processing and validation procedures.
#
#######################################################################

data_BIYRUY
_chemical_formula_moiety         'C32 H22 N2 O8,2(C2 H6 O1 S1)'
_chemical_name_systematic        
"2,2'-(1,3,6,8-tetraoxo-1,3,6,8-tetrahydrobenzo[lmn][3,8]phenanthroline-2,7-diyl)bis(3-phenylpropanoic acid) dimethyl sulfoxide solvate"
_symmetry_cell_setting           orthorhombic
_symmetry_space_group_name_H-M   'C 2 2 21'
_symmetry_Int_Tables_number      20
_space_group_name_Hall           'C 2n 2'
loop_
_symmetry_equiv_pos_site_id
_symmetry_equiv_pos_as_xyz
1 x,y,z
2 -x,-y,1/2+z
3 x,-y,-z
4 -x,y,1/2-z
5 1/2+x,1/2+y,z
6 1/2-x,1/2-y,1/2+z
7 1/2+x,1/2-y,-z
8 1/2-x,1/2+y,1/2-z
_cell_length_a                   9.104(7)
_cell_length_b                   13.550(10)
_cell_length_c                   28.20(2)
_cell_angle_alpha                90
_cell_angle_beta                 90
_cell_angle_gamma                90
_cell_volume                     3478.73
_exptl_crystal_colour            colorless
_exptl_crystal_description       plate
_cell_formula_units_Z            4
loop_
_atom_site_label
_atom_site_type_symbol
_atom_site_fract_x
_atom_site_fract_y
_atom_site_fract_z
S1 S 0.3618(8) -0.2442(5) 0.4964(3)
C1 C 0.292(3) -0.3644(14) 0.5030(10)
H1 H 0.2915 -0.3976 0.4721
H2 H 0.1919 -0.3613 0.5155
H3 H 0.3545 -0.4015 0.5250
O1 O 0.2400(14) -0.1864(10) 0.4742(5)
C2 C 0.349(4) -0.2063(16) 0.5535(10)
H4 H 0.3833 -0.1378 0.5560
H5 H 0.4109 -0.2486 0.5736
H6 H 0.2471 -0.2105 0.5641
C3 C 0.0633(11) 0.1821(9) 0.2637(5)
H7 H 0.1055 0.2432 0.2731
N1 N 0.3222(9) 0.0052(8) 0.3184(4)
C4 C 0.0652(10) 0.0068(9) 0.2632(4)
O2 O 0.3228(10) 0.1710(7) 0.3197(4)
C5 C 0.1280(12) 0.0958(9) 0.2774(5)
C6 C 0.1295(12) -0.0848(8) 0.2764(5)
O3 O 0.3282(10) -0.1619(7) 0.3153(4)
C7 C 0.2656(14) -0.0855(11) 0.3044(5)
C8 C 0.4558(11) 0.0017(12) 0.3491(5)
H8 H 0.4686 0.0692 0.3628
C9 C 0.2621(14) 0.0980(10) 0.3058(5)
C10 C 0.5946(12) -0.0197(11) 0.3184(5)
H9 H 0.5971 -0.0907 0.3102
H10 H 0.5884 0.0183 0.2885
C11 C 0.0646(13) -0.1719(9) 0.2640(5)
H11 H 0.1062 -0.2327 0.2741
C12 C 0.7339(7) 0.0073(6) 0.3438(3)
C13 C 0.8289(9) -0.0670(5) 0.3584(3)
H12 H 0.8057 -0.1341 0.3522
C14 C 0.9579(8) -0.0432(7) 0.3822(3)
H13 H 1.0228 -0.0940 0.3922
C15 C 0.9918(7) 0.0550(8) 0.3914(3)
H14 H 1.0799 0.0713 0.4076
C16 C 0.8967(10) 0.1293(5) 0.3768(4)
H15 H 0.9199 0.1964 0.3831
C17 C 0.7678(8) 0.1055(5) 0.3530(3)
H16 H 0.7029 0.1563 0.3431
O4 O 0.3084(9) -0.0562(7) 0.4110(4)
H17 H 0.3017 -0.0974 0.4331
O5 O 0.5293(10) -0.1215(8) 0.4045(4)
C18 C 0.4387(12) -0.0667(10) 0.3892(5)
C3C C -0.0633(11) 0.1821(9) 0.2363(5)
H7C H -0.1055 0.2432 0.2269
N1C N -0.3222(9) 0.0052(8) 0.1816(4)
C4C C -0.0652(10) 0.0068(9) 0.2368(4)
O2C O -0.3228(10) 0.1710(7) 0.1803(4)
C5C C -0.1280(12) 0.0958(9) 0.2226(5)
C6C C -0.1295(12) -0.0848(8) 0.2236(5)
O3C O -0.3282(10) -0.1619(7) 0.1847(4)
C7C C -0.2656(14) -0.0855(11) 0.1956(5)
C8C C -0.4558(11) 0.0017(12) 0.1509(5)
H8C H -0.4686 0.0692 0.1372
C9C C -0.2621(14) 0.0980(10) 0.1942(5)
C10C C -0.5946(12) -0.0197(11) 0.1816(5)
H9C H -0.5971 -0.0907 0.1898
H10C H -0.5884 0.0183 0.2115
C11C C -0.0646(13) -0.1719(9) 0.2360(5)
H11C H -0.1062 -0.2327 0.2259
C12C C -0.7339(7) 0.0073(6) 0.1562(3)
C13C C -0.8289(9) -0.0670(5) 0.1416(3)
H12C H -0.8057 -0.1341 0.1478
C14C C -0.9579(8) -0.0432(7) 0.1178(3)
H13C H -1.0228 -0.0940 0.1078
C15C C -0.9918(7) 0.0550(8) 0.1086(3)
H14C H -1.0799 0.0713 0.0924
C16C C -0.8967(10) 0.1293(5) 0.1232(4)
H15C H -0.9199 0.1964 0.1169
C17C C -0.7678(8) 0.1055(5) 0.1470(3)
H16C H -0.7029 0.1563 0.1569
O4C O -0.3084(9) -0.0562(7) 0.0890(4)
H17C H -0.3017 -0.0974 0.0669
O5C O -0.5293(10) -0.1215(8) 0.0955(4)
C18C C -0.4387(12) -0.0667(10) 0.1108(5)
loop_
_geom_bond_atom_site_label_1
_geom_bond_atom_site_label_2
_geom_bond_site_symmetry_1
_geom_bond_site_symmetry_2
S1 C1 1_555 1_555
C1 H1 1_555 1_555
H2 C1 1_555 1_555
H3 C1 1_555 1_555
O1 S1 1_555 1_555
C2 S1 1_555 1_555
H4 C2 1_555 1_555
H5 C2 1_555 1_555
H6 C2 1_555 1_555
C3 H7 1_555 1_555
N1 C7 1_555 1_555
C4 C5 1_555 1_555
O2 C9 1_555 1_555
C5 C3 1_555 1_555
C6 C4 1_555 1_555
O3 C7 1_555 1_555
C7 C6 1_555 1_555
C8 N1 1_555 1_555
H8 C8 1_555 1_555
C9 N1 1_555 1_555
C10 C8 1_555 1_555
H9 C10 1_555 1_555
H10 C10 1_555 1_555
C11 C6 1_555 1_555
H11 C11 1_555 1_555
C12 C10 1_555 1_555
C13 C12 1_555 1_555
H12 C13 1_555 1_555
C14 C13 1_555 1_555
H13 C14 1_555 1_555
C15 C14 1_555 1_555
H14 C15 1_555 1_555
C16 C15 1_555 1_555
H15 C16 1_555 1_555
C17 C12 1_555 1_555
H16 C17 1_555 1_555
O4 H17 1_555 1_555
O5 C18 1_555 1_555
C18 C8 1_555 1_555
C3C C3 1_555 1_555
H7C C3C 1_555 1_555
N1C C7C 1_555 1_555
C4C C4 1_555 1_555
O2C C9C 1_555 1_555
C5C C3C 1_555 1_555
C6C C4C 1_555 1_555
O3C C7C 1_555 1_555
C7C C6C 1_555 1_555
C8C N1C 1_555 1_555
H8C C8C 1_555 1_555
C9C N1C 1_555 1_555
C10C C8C 1_555 1_555
H9C C10C 1_555 1_555
H10C C10C 1_555 1_555
C11C C11 1_555 1_555
H11C C11C 1_555 1_555
C12C C10C 1_555 1_555
C13C C12C 1_555 1_555
H12C C13C 1_555 1_555
C14C C13C 1_555 1_555
H13C C14C 1_555 1_555
C15C C14C 1_555 1_555
H14C C15C 1_555 1_555
C16C C15C 1_555 1_555
H15C C16C 1_555 1_555
C17C C12C 1_555 1_555
H16C C17C 1_555 1_555
O4C H17C 1_555 1_555
O5C C18C 1_555 1_555
C18C C8C 1_555 1_555
C5 C9 1_555 1_555
C16 C17 1_555 1_555
O4 C18 1_555 1_555
C4C C5C 1_555 1_555
C5C C9C 1_555 1_555
C6C C11C 1_555 1_555
C16C C17C 1_555 1_555
O4C C18C 1_555 1_555

#END
