
#######################################################################
#
#                 Cambridge Crystallographic Data Centre
#                                CCDC 
#
#######################################################################
#
# If this CIF has been generated from an entry in the Cambridge 
# Structural Database, then it will include bibliographic, chemical, 
# crystal, experimental, refinement or atomic coordinate data resulting 
# from the CCDC's data processing and validation procedures.
#
#######################################################################

data_BIYSIN
_chemical_formula_moiety         'C36 H24 N4 O8,2(H2 O1),3(C2 H6 O1 S1)'
_chemical_name_systematic        
"2,2'-(1,3,6,8-tetraoxo-1,3,6,8-tetrahydrobenzo[lmn][3,8]phenanthroline-2,7-diyl)bis(3-(1H-indol-3-yl)propanoic acid) dimethyl sulfoxide solvate dihydrate"
_symmetry_cell_setting           orthorhombic
_symmetry_space_group_name_H-M   'P 21 21 21'
_symmetry_Int_Tables_number      19
_space_group_name_Hall           'P 2ac 2ab'
loop_
_symmetry_equiv_pos_site_id
_symmetry_equiv_pos_as_xyz
1 x,y,z
2 1/2-x,-y,1/2+z
3 1/2+x,1/2-y,-z
4 -x,1/2+y,1/2-z
_cell_length_a                   8.670(2)
_cell_length_b                   19.624(5)
_cell_length_c                   25.099(7)
_cell_angle_alpha                90
_cell_angle_beta                 90
_cell_angle_gamma                90
_cell_volume                     4270.35
_exptl_crystal_colour            brown
_exptl_crystal_description       needle
_cell_formula_units_Z            4
loop_
_atom_site_label
_atom_site_type_symbol
_atom_site_fract_x
_atom_site_fract_y
_atom_site_fract_z
S1 S 0.3071(6) 0.7097(3) 0.1493(2)
O1 O 0.3805(15) 0.7144(7) 0.0949(5)
C1 C 0.302(2) 0.7945(9) 0.1725(7)
H1 H 0.4073 0.8097 0.1806
H2 H 0.2391 0.7970 0.2049
H3 H 0.2575 0.8240 0.1451
C2 C 0.105(2) 0.6990(10) 0.1387(7)
H4 H 0.0848 0.6529 0.1253
H5 H 0.0687 0.7325 0.1126
H6 H 0.0498 0.7056 0.1725
C3 C 0.769(3) 0.8630(11) 0.0715(8)
H7 H 0.7156 0.8695 0.1055
H8 H 0.8563 0.8319 0.0766
H9 H 0.6974 0.8435 0.0454
S2 S 0.8373(6) 0.9425(3) 0.04796(19)
O2 O 0.6966(13) 0.9832(6) 0.0321(4)
C4 C 0.914(2) 0.9131(10) -0.0119(7)
H10 H 0.9585 0.9514 -0.0316
H11 H 0.8316 0.8922 -0.0332
H12 H 0.9939 0.8792 -0.0046
O3 O -0.1199(11) 0.2495(5) 0.0430(4)
O4 O 0.5677(12) 0.4090(5) 0.2428(4)
C5 C -0.0589(18) 0.2616(8) 0.0849(6)
N1 N -0.1187(13) 0.2340(6) 0.1320(4)
N2 N 0.5623(14) 0.4277(6) 0.1532(5)
O5 O -0.1355(12) 0.2291(5) 0.2225(4)
O6 O -0.0918(11) 0.1084(5) 0.0844(4)
O7 O -0.3467(11) 0.0979(5) 0.0750(4)
H13 H -0.3218 0.0635 0.0569
C6 C 0.3577(18) 0.3609(7) 0.1960(5)
C7 C 0.0774(17) 0.2881(8) 0.1882(5)
C8 C 0.1485(17) 0.2994(7) 0.2366(6)
H14 H 0.1010 0.2831 0.2683
C9 C 0.0847(16) 0.3024(7) 0.0899(5)
O8 O 0.5253(13) 0.5638(5) 0.1313(4)
O9 O 0.7731(12) 0.5724(5) 0.1095(4)
H15 H 0.7444 0.6098 0.0965
O10 O 0.5656(12) 0.4396(5) 0.0630(4)
N3 N 1.2160(14) 0.5239(6) 0.1606(5)
H16 H 1.3006 0.5449 0.1504
C10 C 0.5016(19) 0.4002(8) 0.2005(6)
C11 C 0.2895(18) 0.3346(7) 0.2402(6)
H17 H 0.3376 0.3400 0.2740
C12 C 0.3570(17) 0.3774(7) 0.0984(5)
C13 C -0.0625(18) 0.2481(8) 0.1843(6)
C14 C 0.2924(17) 0.3653(7) 0.0490(6)
H18 H 0.3417 0.3815 0.0176
N4 N -0.7817(16) 0.1489(6) 0.1101(5)
H19 H -0.8642 0.1332 0.0938
C15 C 0.1472(17) 0.3136(7) 0.1408(5)
C16 C -0.4023(17) 0.2322(8) 0.1122(6)
H20 H -0.4002 0.2752 0.1328
H21 H -0.3967 0.2443 0.0739
C17 C 0.1538(18) 0.3290(7) 0.0454(6)
H22 H 0.1068 0.3227 0.0116
C18 C -0.5515(18) 0.1977(8) 0.1221(6)
C19 C -0.6599(18) 0.1811(8) 0.0858(6)
H23 H -0.6529 0.1903 0.0487
C20 C -0.6076(19) 0.1754(8) 0.1725(6)
C21 C -0.552(2) 0.1802(8) 0.2260(6)
H24 H -0.4554 0.2003 0.2341
C22 C -0.647(2) 0.1539(8) 0.2656(7)
H25 H -0.6129 0.1565 0.3015
C23 C -0.788(2) 0.1240(8) 0.2548(7)
H26 H -0.8475 0.1058 0.2832
C24 C -0.844(2) 0.1203(8) 0.2035(7)
H27 H -0.9419 0.1009 0.1963
C25 C -0.7546(19) 0.1452(8) 0.1636(6)
C26 C 0.8419(18) 0.4379(8) 0.1374(6)
H28 H 0.8437 0.4379 0.0979
H29 H 0.8403 0.3898 0.1493
C27 C 0.2906(17) 0.3509(7) 0.1455(5)
C28 C 0.5012(19) 0.4157(8) 0.1018(6)
C29 C 0.6941(17) 0.4722(8) 0.1559(6)
H30 H 0.7096 0.4820 0.1946
C30 C 0.9905(18) 0.4711(8) 0.1575(6)
C31 C 1.1019(19) 0.5013(8) 0.1275(7)
H31 H 1.1005 0.5060 0.0898
C32 C 1.0403(18) 0.4751(8) 0.2118(6)
C33 C 0.980(2) 0.4505(8) 0.2598(6)
H32 H 0.8831 0.4275 0.2606
C34 C 1.062(2) 0.4603(9) 0.3049(7)
H33 H 1.0232 0.4429 0.3376
C35 C 1.200(2) 0.4948(9) 0.3048(8)
H34 H 1.2527 0.5014 0.3376
C36 C 1.2661(19) 0.5206(8) 0.2581(7)
H35 H 1.3619 0.5440 0.2578
C37 C 1.179(2) 0.5090(8) 0.2112(7)
C38 C -0.2567(16) 0.1898(7) 0.1268(6)
H36 H -0.2766 0.1712 0.1632
C39 C -0.220(2) 0.1290(8) 0.0925(6)
C40 C 0.658(2) 0.5418(8) 0.1298(6)
S3 S 1.2296(6) 0.9831(3) 0.0887(2)
O11 O 1.1860(14) 0.9089(6) 0.0829(5)
C41 C 1.324(2) 1.0039(8) 0.0282(6)
H37 H 1.2481 1.0078 -0.0005
H38 H 1.3987 0.9680 0.0193
H39 H 1.3787 1.0474 0.0323
C42 C 1.3922(18) 0.9846(8) 0.1306(6)
H40 H 1.3604 0.9752 0.1674
H41 H 1.4409 1.0296 0.1288
H42 H 1.4659 0.9498 0.1190
O12 O 0.7016(13) 0.6916(6) 0.0800(4)
O13 O 0.773(4) 0.6958(19) -0.0201(15)
O14? O 0.699(15) 0.706(4) -0.025(3)
O15? O 0.839(13) 0.688(3) -0.019(3)
loop_
_geom_bond_atom_site_label_1
_geom_bond_atom_site_label_2
_geom_bond_site_symmetry_1
_geom_bond_site_symmetry_2
S1 O1 1_555 1_555
C1 S1 1_555 1_555
H1 C1 1_555 1_555
H2 C1 1_555 1_555
H3 C1 1_555 1_555
C2 S1 1_555 1_555
H4 C2 1_555 1_555
H5 C2 1_555 1_555
H6 C2 1_555 1_555
C3 H7 1_555 1_555
H8 C3 1_555 1_555
H9 C3 1_555 1_555
S2 C3 1_555 1_555
O2 S2 1_555 1_555
C4 S2 1_555 1_555
H10 C4 1_555 1_555
H11 C4 1_555 1_555
H12 C4 1_555 1_555
O3 C5 1_555 1_555
O4 C10 1_555 1_555
C5 N1 1_555 1_555
N1 C13 1_555 1_555
N2 C10 1_555 1_555
O5 C13 1_555 1_555
O6 C39 1_555 1_555
O7 H13 1_555 1_555
C6 C10 1_555 1_555
C7 C8 1_555 1_555
C8 H14 1_555 1_555
C9 C5 1_555 1_555
O8 C40 1_555 1_555
O9 H15 1_555 1_555
O10 C28 1_555 1_555
N3 H16 1_555 1_555
C11 C6 1_555 1_555
H17 C11 1_555 1_555
C12 C14 1_555 1_555
C13 C7 1_555 1_555
C14 H18 1_555 1_555
N4 H19 1_555 1_555
C15 C7 1_555 1_555
C16 H20 1_555 1_555
H21 C16 1_555 1_555
C17 C9 1_555 1_555
H22 C17 1_555 1_555
C18 C16 1_555 1_555
C19 N4 1_555 1_555
H23 C19 1_555 1_555
C20 C18 1_555 1_555
C21 C20 1_555 1_555
H24 C21 1_555 1_555
C22 C21 1_555 1_555
H25 C22 1_555 1_555
C23 C22 1_555 1_555
H26 C23 1_555 1_555
C24 C23 1_555 1_555
H27 C24 1_555 1_555
C25 N4 1_555 1_555
C26 H28 1_555 1_555
H29 C26 1_555 1_555
C27 C6 1_555 1_555
C28 N2 1_555 1_555
C29 N2 1_555 1_555
H30 C29 1_555 1_555
C30 C26 1_555 1_555
C31 N3 1_555 1_555
H31 C31 1_555 1_555
C32 C30 1_555 1_555
C33 C32 1_555 1_555
H32 C33 1_555 1_555
C34 C33 1_555 1_555
H33 C34 1_555 1_555
C35 C34 1_555 1_555
H34 C35 1_555 1_555
C36 C35 1_555 1_555
H35 C36 1_555 1_555
C37 N3 1_555 1_555
C38 N1 1_555 1_555
H36 C38 1_555 1_555
C39 O7 1_555 1_555
C40 O9 1_555 1_555
S3 O11 1_555 1_555
C41 S3 1_555 1_555
H37 C41 1_555 1_555
H38 C41 1_555 1_555
H39 C41 1_555 1_555
C42 S3 1_555 1_555
H40 C42 1_555 1_555
H41 C42 1_555 1_555
H42 C42 1_555 1_555
C8 C11 1_555 1_555
C9 C15 1_555 1_555
C12 C27 1_555 1_555
C12 C28 1_555 1_555
C14 C17 1_555 1_555
C15 C27 1_555 1_555
C16 C38 1_555 1_555
C18 C19 1_555 1_555
C20 C25 1_555 1_555
C24 C25 1_555 1_555
C26 C29 1_555 1_555
C29 C40 1_555 1_555
C30 C31 1_555 1_555
C32 C37 1_555 1_555
C36 C37 1_555 1_555
C38 C39 1_555 1_555

#END
