
#######################################################################
#
#                 Cambridge Crystallographic Data Centre
#                                CCDC 
#
#######################################################################
#
# If this CIF has been generated from an entry in the Cambridge 
# Structural Database, then it will include bibliographic, chemical, 
# crystal, experimental, refinement or atomic coordinate data resulting 
# from the CCDC's data processing and validation procedures.
#
#######################################################################

data_BIYSEH01
_chemical_name_common            beta-Piroxicam
_chemical_formula_moiety         'C15 H13 N3 O4 S1'
_chemical_name_systematic        
4-Hydroxy-2-methyl-N-(2-pyridyl)-2H-1,2-benzothiazine-3-carboxamide-1,1-dioxide
_chemical_properties_biological  'non-steroidal antiinflammatory agent'
_symmetry_cell_setting           monoclinic
_symmetry_space_group_name_H-M   'P 21/c'
_symmetry_Int_Tables_number      14
_space_group_name_Hall           '-P 2ybc'
loop_
_symmetry_equiv_pos_site_id
_symmetry_equiv_pos_as_xyz
1 x,y,z
2 -x,1/2+y,1/2-z
3 -x,-y,-z
4 x,1/2-y,1/2+z
_cell_length_a                   7.1234(4)
_cell_length_b                   15.137(1)
_cell_length_c                   13.947(2)
_cell_angle_alpha                90
_cell_angle_beta                 97.308(8)
_cell_angle_gamma                90
_cell_volume                     1491.65
_exptl_crystal_colour            'light yellow'
_cell_formula_units_Z            4
loop_
_atom_site_label
_atom_site_type_symbol
_atom_site_fract_x
_atom_site_fract_y
_atom_site_fract_z
S1 S 0.5537(2) 0.4035(1) 0.0984(1)
N1 N 0.3418(8) 0.3846(4) 0.0401(5)
C1 C 0.3147(10) 0.2975(1) 0.0026(6)
C2 C 0.3958(10) 0.2275(4) 0.0547(6)
C3 C 0.5224(10) 0.1649(5) 0.2157(7)
C4 C 0.6114(12) 0.1764(6) 0.3063(6)
C5 C 0.6782(12) 0.2574(6) 0.3381(6)
C6 C 0.6617(11) 0.3304(5) 0.2752(6)
C7 C 0.5711(9) 0.3170(5) 0.1830(5)
C8 C 0.4954(10) 0.2354(5) 0.1500(5)
O1 O 0.5524(8) 0.4863(4) 0.1468(4)
O2 O 0.6902(8) 0.3870(3) 0.0339(4)
C9 C 0.1772(12) 0.4233(6) 0.0865(7)
C10 C 0.2162(10) 0.2878(5) -0.0944(5)
O3 O 0.1790(9) 0.2118(4) -0.1288(4)
N2 N 0.1627(9) 0.3633(4) -0.1425(5)
O4 O 0.3761(8) 0.1444(4) 0.0198(4)
N3 N 0.0304(10) 0.4576(5) -0.2580(6)
C11 C 0.0699(10) 0.3746(5) -0.2374(5)
C12 C 0.0278(12) 0.3034(6) -0.3023(6)
C13 C -0.0657(13) 0.3265(7) -0.3930(7)
C14 C -0.1098(15) 0.4140(8) -0.4158(7)
C15 C -0.0574(13) 0.4777(7) -0.3457(7)
loop_
_geom_bond_atom_site_label_1
_geom_bond_atom_site_label_2
_geom_bond_site_symmetry_1
_geom_bond_site_symmetry_2
S1 N1 1_555 1_555
N1 C1 1_555 1_555
C1 C2 1_555 1_555
C2 C8 1_555 1_555
C3 C4 1_555 1_555
C4 C5 1_555 1_555
C5 C6 1_555 1_555
C6 C7 1_555 1_555
C7 S1 1_555 1_555
C8 C3 1_555 1_555
O1 S1 1_555 1_555
O2 S1 1_555 1_555
C9 N1 1_555 1_555
C10 C1 1_555 1_555
O3 C10 1_555 1_555
N2 C10 1_555 1_555
O4 C2 1_555 1_555
N3 C11 1_555 1_555
C11 N2 1_555 1_555
C12 C11 1_555 1_555
C13 C12 1_555 1_555
C14 C13 1_555 1_555
C15 N3 1_555 1_555
C7 C8 1_555 1_555
C14 C15 1_555 1_555

#END
