
#######################################################################
#
#                 Cambridge Crystallographic Data Centre
#                                CCDC 
#
#######################################################################
#
# If this CIF has been generated from an entry in the Cambridge 
# Structural Database, then it will include bibliographic, chemical, 
# crystal, experimental, refinement or atomic coordinate data resulting 
# from the CCDC's data processing and validation procedures.
#
#######################################################################

data_BIYSIN01
_chemical_formula_moiety         'C36 H24 N4 O8,3(C2 H6 O1 S1),2(H2 O1)'
_chemical_name_systematic        
"2,2'-(1,3,6,8-tetraoxo-1,3,6,8-tetrahydrobenzo[lmn][3,8]phenanthroline-2,7-diyl)bis(3-(1H-indol-3-yl)propanoic acid) dimethyl sulfoxide solvate dihydrate"
_symmetry_cell_setting           orthorhombic
_symmetry_space_group_name_H-M   'P 21 21 21'
_symmetry_Int_Tables_number      19
_space_group_name_Hall           'P 2ac 2ab'
loop_
_symmetry_equiv_pos_site_id
_symmetry_equiv_pos_as_xyz
1 x,y,z
2 1/2+x,1/2-y,-z
3 -x,1/2+y,1/2-z
4 1/2-x,-y,1/2+z
_cell_length_a                   8.6884(8)
_cell_length_b                   19.6749(18)
_cell_length_c                   25.149(2)
_cell_angle_alpha                90
_cell_angle_beta                 90
_cell_angle_gamma                90
_cell_volume                     4299.06
_exptl_crystal_colour            pink
_exptl_crystal_description       needle
_cell_formula_units_Z            4
loop_
_atom_site_label
_atom_site_type_symbol
_atom_site_fract_x
_atom_site_fract_y
_atom_site_fract_z
C1 C 0.4375(5) 0.2522(2) 0.81634(19)
C2 C 0.4442(5) 0.2395(2) 0.91443(19)
C3 C 0.5860(5) 0.1973(2) 0.90969(18)
C4 C 0.6543(5) 0.1715(2) 0.95479(18)
C5 C 0.7925(5) 0.1352(2) 0.94980(18)
C6 C 0.8593(5) 0.1239(2) 0.90156(19)
C7 C 0.8587(5) 0.1390(2) 0.80452(18)
C8 C 0.7877(5) 0.1647(2) 0.75959(17)
C9 C 0.6482(5) 0.2011(2) 0.76352(18)
C10 C 0.5812(4) 0.2125(2) 0.81167(16)
C11 C 0.6520(5) 0.1868(2) 0.85885(18)
C12 C 0.7893(5) 0.1498(2) 0.85406(17)
C13 C 1.0025(5) 0.1002(2) 0.79950(19)
C14 C 1.0018(5) 0.0839(2) 0.89751(18)
C15 C 1.1550(5) -0.0403(2) 0.86946(17)
C16 C 1.1982(5) 0.0272(2) 0.84342(18)
C17 C 1.3439(5) 0.0624(2) 0.8631(2)
C18 C 1.4898(5) 0.0296(2) 0.8435(2)
C19 C 1.6030(5) -0.0001(3) 0.8736(2)
C20 C 1.6827(5) -0.0071(2) 0.7890(2)
C21 C 1.7655(6) -0.0193(3) 0.7423(3)
C22 C 1.7037(6) 0.0059(3) 0.6953(2)
C23 C 1.5616(6) 0.0398(3) 0.6944(2)
C24 C 1.4779(5) 0.0504(3) 0.7412(2)
C25 C 1.5389(5) 0.0266(2) 0.7889(2)
C26 C 0.2827(5) 0.37094(19) 0.90728(18)
C27 C 0.2464(4) 0.3105(2) 0.87206(18)
C28 C 0.1017(5) 0.2681(2) 0.8874(2)
C29 C -0.0475(5) 0.3020(2) 0.87790(19)
C30 C -0.1564(5) 0.3189(2) 0.9150(2)
C31 C -0.2538(5) 0.3544(2) 0.8370(2)
C32 C -0.3431(5) 0.3812(2) 0.7967(2)
C33 C -0.2871(6) 0.3764(2) 0.7457(2)
C34 C -0.1439(6) 0.3469(3) 0.7343(2)
C35 C -0.0520(6) 0.3204(2) 0.7747(2)
C36 C -0.1064(5) 0.3245(2) 0.8273(2)
N1 N -0.2804(4) 0.35111(19) 0.89070(18)
N2 N 0.3832(4) 0.26636(17) 0.86729(14)
N3 N 1.0615(4) 0.07219(18) 0.84704(16)
N4 N 1.7184(4) -0.0237(2) 0.84120(19)
O1 O 1.2735(3) -0.07195(14) 0.89016(13)
O2 O 1.0264(3) -0.06325(16) 0.86817(13)
O3 O 1.0682(4) 0.09167(16) 0.75747(13)
O4 O 1.0672(4) 0.06085(17) 0.93632(13)
O5 O 0.3661(4) 0.27133(16) 0.77735(13)
O6 O 0.3827(4) 0.25078(16) 0.95695(13)
O7 O 0.4116(3) 0.39179(16) 0.91552(14)
O8 O 0.1574(4) 0.40119(15) 0.92498(14)
H1 H 0.1879 0.4335 0.9435
H2 H 1.2513 -0.1130 0.8958
H3 H -0.3825 0.3723 0.9052
H4 H 1.8254 -0.0316 0.8475
H5 H 0.6083 0.1794 0.9882
H6 H 0.8436 0.1181 0.9809
H7 H 0.8354 0.1595 0.7262
H8 H 0.6034 0.2177 0.7325
H9 H 1.2131 0.0158 0.8051
H10 H 1.3429 0.0626 0.9017
H11 H 1.3388 0.1116 0.8521
H12 H 1.5985 -0.0032 0.9113
H13 H 1.8604 -0.0440 0.7425
H14 H 1.7568 -0.0001 0.6629
H15 H 1.5231 0.0565 0.6618
H16 H 1.3819 0.0726 0.7404
H17 H 0.2242 0.3295 0.8363
H18 H 0.1099 0.2544 0.9250
H19 H 0.1041 0.2265 0.8656
H20 H -0.1486 0.3098 0.9526
H21 H -0.4411 0.4023 0.8037
H22 H -0.3461 0.3935 0.7171
H23 H -0.1077 0.3444 0.6981
H24 H 0.0452 0.3011 0.7671
C37 C 0.2753(13) 0.6365(4) 0.9282(4)
C38 C 0.4175(9) 0.5836(4) 1.0121(3)
S1 S 0.33829(18) 0.55761(7) 0.95234(6)
O9 O 0.1967(4) 0.51747(18) 0.96741(17)
H25 H 0.2127 0.6334 0.8947
H26 H 0.1874 0.6566 0.9564
H27 H 0.3507 0.6722 0.9267
H28 H 0.4652 0.5434 1.0314
H29 H 0.3353 0.6030 1.0362
H30 H 0.4986 0.6186 1.0065
C39 C 0.8259(7) 0.4949(3) 0.9717(2)
C40 C 0.8958(6) 0.5162(3) 0.8691(2)
S2 S 0.73062(15) 0.51768(7) 0.91122(6)
O10 O 0.6866(5) 0.59166(18) 0.91710(18)
H31 H 0.7513 0.4924 1.0021
H32 H 0.9074 0.5299 0.9809
H33 H 0.8788 0.4495 0.9681
H34 H 0.8647 0.5293 0.8307
H35 H 0.9738 0.5515 0.8806
H36 H 0.9452 0.4712 0.8678
C41 C 0.7989(9) 0.7072(3) 0.8265(2)
C42 C 0.6057(8) 0.8006(4) 0.8618(3)
S3 S 0.80692(19) 0.79116(8) 0.85092(6)
O11 O 0.8818(6) 0.7861(2) 0.90542(18)
H37 H 0.9037 0.6888 0.8171
H38 H 0.7530 0.6746 0.8544
H39 H 0.7313 0.7034 0.7939
H40 H 0.5803 0.8460 0.8768
H41 H 0.5680 0.7645 0.8885
H42 H 0.5463 0.7933 0.8280
O12 O 0.1992(5) 0.80764(17) 0.91821(15)
H43 H 0.2421 0.8134 0.9481
H44 H 0.1072 0.8029 0.9092
O13 O 0.2368(13) 0.7983(5) 1.0237(4)
O14? O 0.3104(13) 0.8083(5) 1.0180(4)
loop_
_geom_bond_atom_site_label_1
_geom_bond_atom_site_label_2
_geom_bond_site_symmetry_1
_geom_bond_site_symmetry_2
C1 C10 1_555 1_555
C2 C3 1_555 1_555
C3 C4 1_555 1_555
C4 C5 1_555 1_555
C5 C6 1_555 1_555
C6 C12 1_555 1_555
C7 C8 1_555 1_555
C8 C9 1_555 1_555
C9 C10 1_555 1_555
C10 C11 1_555 1_555
C11 C3 1_555 1_555
C12 C7 1_555 1_555
C13 C7 1_555 1_555
C14 C6 1_555 1_555
C15 C16 1_555 1_555
C16 C17 1_555 1_555
C17 C18 1_555 1_555
C18 C19 1_555 1_555
C19 N4 1_555 1_555
C20 C21 1_555 1_555
C21 C22 1_555 1_555
C22 C23 1_555 1_555
C23 C24 1_555 1_555
C24 C25 1_555 1_555
C25 C18 1_555 1_555
C26 C27 1_555 1_555
C27 C28 1_555 1_555
C28 C29 1_555 1_555
C29 C30 1_555 1_555
C30 N1 1_555 1_555
C31 C32 1_555 1_555
C32 C33 1_555 1_555
C33 C34 1_555 1_555
C34 C35 1_555 1_555
C35 C36 1_555 1_555
C36 C29 1_555 1_555
N1 C31 1_555 1_555
N2 C1 1_555 1_555
N3 C13 1_555 1_555
N4 C20 1_555 1_555
O1 C15 1_555 1_555
O2 C15 1_555 1_555
O3 C13 1_555 1_555
O4 C14 1_555 1_555
O5 C1 1_555 1_555
O6 C2 1_555 1_555
O7 C26 1_555 1_555
O8 C26 1_555 1_555
H1 O8 1_555 1_555
H2 O1 1_555 1_555
H3 N1 1_555 1_555
H4 N4 1_555 1_555
H5 C4 1_555 1_555
H6 C5 1_555 1_555
H7 C8 1_555 1_555
H8 C9 1_555 1_555
H9 C16 1_555 1_555
H10 C17 1_555 1_555
H11 C17 1_555 1_555
H12 C19 1_555 1_555
H13 C21 1_555 1_555
H14 C22 1_555 1_555
H15 C23 1_555 1_555
H16 C24 1_555 1_555
H17 C27 1_555 1_555
H18 C28 1_555 1_555
H19 C28 1_555 1_555
H20 C30 1_555 1_555
H21 C32 1_555 1_555
H22 C33 1_555 1_555
H23 C34 1_555 1_555
H24 C35 1_555 1_555
C37 S1 1_555 1_555
C38 S1 1_555 1_555
S1 O9 1_555 1_555
H25 C37 1_555 1_555
H26 C37 1_555 1_555
H27 C37 1_555 1_555
H28 C38 1_555 1_555
H29 C38 1_555 1_555
H30 C38 1_555 1_555
C39 S2 1_555 1_555
C40 S2 1_555 1_555
S2 O10 1_555 1_555
H31 C39 1_555 1_555
H32 C39 1_555 1_555
H33 C39 1_555 1_555
H34 C40 1_555 1_555
H35 C40 1_555 1_555
H36 C40 1_555 1_555
C41 S3 1_555 1_555
C42 S3 1_555 1_555
S3 O11 1_555 1_555
H37 C41 1_555 1_555
H38 C41 1_555 1_555
H39 C41 1_555 1_555
H40 C42 1_555 1_555
H41 C42 1_555 1_555
H42 C42 1_555 1_555
O12 H43 1_555 1_555
H44 O12 1_555 1_555
C2 N2 1_555 1_555
C11 C12 1_555 1_555
C14 N3 1_555 1_555
C16 N3 1_555 1_555
C20 C25 1_555 1_555
C27 N2 1_555 1_555
C31 C36 1_555 1_555

#END
