
#######################################################################
#
#                 Cambridge Crystallographic Data Centre
#                                CCDC 
#
#######################################################################
#
# If this CIF has been generated from an entry in the Cambridge 
# Structural Database, then it will include bibliographic, chemical, 
# crystal, experimental, refinement or atomic coordinate data resulting 
# from the CCDC's data processing and validation procedures.
#
#######################################################################

data_BIYSAF
_chemical_formula_moiety         'C20 H14 N2 O8,2(C2 H6 O1 S1)'
_chemical_name_systematic        
"2,2'-(1,3,6,8-tetraoxo-1,3,6,8-tetrahydrobenzo[lmn][3,8]phenanthroline-2,7-diyl)dipropanoic acid dimethyl sulfoxide solvate"
_symmetry_cell_setting           monoclinic
_symmetry_space_group_name_H-M   'C 2'
_symmetry_Int_Tables_number      5
_space_group_name_Hall           'C 2y'
loop_
_symmetry_equiv_pos_site_id
_symmetry_equiv_pos_as_xyz
1 x,y,z
2 -x,y,-z
3 1/2+x,1/2+y,z
4 1/2-x,1/2+y,-z
_cell_length_a                   24.2349(5)
_cell_length_b                   7.02890(10)
_cell_length_c                   14.7664(3)
_cell_angle_alpha                90
_cell_angle_beta                 90.8260(10)
_cell_angle_gamma                90
_cell_volume                     2515.12
_exptl_crystal_colour            yellow
_exptl_crystal_description       needle
_cell_formula_units_Z            4
loop_
_atom_site_label
_atom_site_type_symbol
_atom_site_fract_x
_atom_site_fract_y
_atom_site_fract_z
S1 S 0.40653(4) 0.07226(17) 0.52526(7)
O1 O 0.43854(11) 0.0587(5) 0.43756(17)
C1 C 0.4350(2) 0.2742(7) 0.5804(3)
H1 H 0.4233 0.3897 0.5483
H2 H 0.4754 0.2657 0.5804
H3 H 0.4222 0.2790 0.6429
C2 C 0.4336(2) -0.1111(7) 0.5967(3)
H4 H 0.4213 -0.2353 0.5739
H5 H 0.4204 -0.0929 0.6585
H6 H 0.4740 -0.1060 0.5968
N1 N 0.40982(11) -0.4417(5) 0.18522(19)
C3 C 0.50420(14) -0.4417(6) 0.1261(2)
C4 C 0.48201(14) -0.4406(6) 0.0373(2)
C5 C 0.42463(14) -0.4398(6) 0.0209(2)
C6 C 0.38590(14) -0.4434(6) 0.0983(2)
C7 C 0.56043(14) -0.4388(6) 0.1404(2)
H7 H 0.5751 -0.4388 0.2005
O2 O 0.33631(10) -0.4499(5) 0.08739(17)
C8 C 0.40366(14) -0.4359(6) -0.0663(2)
H8 H 0.3649 -0.4312 -0.0764
O3 O 0.48305(10) -0.4692(4) 0.28198(17)
C9 C 0.46645(14) -0.4521(6) 0.2045(2)
O4 O 0.40597(12) -0.1560(4) 0.31062(19)
H9 H 0.419(2) -0.085(8) 0.361(4)
C10 C 0.37130(14) -0.4545(6) 0.2624(2)
H10 H 0.3345 -0.4096 0.2395
C11 C 0.38799(16) -0.3226(6) 0.3394(3)
O5 O 0.38020(12) -0.3631(4) 0.41781(18)
C12 C 0.36370(18) -0.6592(6) 0.2929(3)
H11 H 0.3529 -0.7377 0.2407
H12 H 0.3349 -0.6649 0.3386
H13 H 0.3985 -0.7069 0.3189
N1A N 0.59018(11) -0.4417(5) -0.18522(19)
C3A C 0.49580(14) -0.4417(6) -0.1261(2)
C4A C 0.51799(14) -0.4406(6) -0.0373(2)
C5A C 0.57537(14) -0.4398(6) -0.0209(2)
C6A C 0.61410(14) -0.4434(6) -0.0983(2)
C7A C 0.43957(14) -0.4388(6) -0.1404(2)
H7A H 0.4249 -0.4388 -0.2005
O2A O 0.66369(10) -0.4499(5) -0.08739(17)
C8A C 0.59634(14) -0.4359(6) 0.0663(2)
H8A H 0.6351 -0.4312 0.0764
O3A O 0.51695(10) -0.4692(4) -0.28198(17)
C9A C 0.53355(14) -0.4521(6) -0.2045(2)
O4A O 0.59403(12) -0.1560(4) -0.31062(19)
H9A H 0.581(2) -0.085(8) -0.361(4)
C10A C 0.62870(14) -0.4545(6) -0.2624(2)
H10A H 0.6655 -0.4096 -0.2395
C11A C 0.61201(16) -0.3226(6) -0.3394(3)
O5A O 0.61980(12) -0.3631(4) -0.41781(18)
C12A C 0.63630(18) -0.6592(6) -0.2929(3)
H11A H 0.6471 -0.7377 -0.2407
H12A H 0.6651 -0.6649 -0.3386
H13A H 0.6015 -0.7069 -0.3189
C13 C 0.02781(13) -0.4355(6) 0.0152(2)
N2 N 0.13896(11) -0.4374(6) 0.07506(19)
C14 C 0.03981(14) -0.4289(6) 0.1088(2)
C15 C 0.07040(14) -0.4405(6) -0.0490(2)
C16 C 0.12876(14) -0.4464(6) -0.0185(2)
O6 O 0.16666(10) -0.4566(5) -0.07142(18)
C17 C 0.05735(14) -0.4418(6) -0.1401(2)
H14 H 0.0861 -0.4486 -0.1830
C18 C 0.19740(14) -0.4309(7) 0.1068(2)
H15 H 0.2200 -0.4890 0.0579
C19 C 0.09784(14) -0.4150(6) 0.1400(2)
O7 O 0.11084(11) -0.3876(4) 0.21852(18)
C20 C -0.00236(14) -0.4334(6) 0.1705(2)
H16 H 0.0059 -0.4307 0.2336
O8 O 0.23443(11) -0.5039(4) 0.25487(19)
O9 O 0.18090(13) -0.7186(5) 0.1839(2)
H17 H 0.180(2) -0.777(8) 0.236(4)
C21 C 0.21705(16) -0.2266(6) 0.1181(3)
H18 H 0.2108 -0.1570 0.0613
H19 H 0.2565 -0.2259 0.1335
H20 H 0.1965 -0.1653 0.1667
C22 C 0.20523(16) -0.5544(6) 0.1904(3)
C13A C -0.02781(13) -0.4355(6) -0.0152(2)
N2A N -0.13896(11) -0.4374(6) -0.07506(19)
C14A C -0.03981(14) -0.4289(6) -0.1088(2)
C15A C -0.07040(14) -0.4405(6) 0.0490(2)
C16A C -0.12876(14) -0.4464(6) 0.0185(2)
O6A O -0.16666(10) -0.4566(5) 0.07142(18)
C17A C -0.05735(14) -0.4418(6) 0.1401(2)
H14A H -0.0861 -0.4486 0.1830
C18A C -0.19740(14) -0.4309(7) -0.1068(2)
H15A H -0.2200 -0.4890 -0.0579
C19A C -0.09784(14) -0.4150(6) -0.1400(2)
O7A O -0.11084(11) -0.3876(4) -0.21852(18)
C20A C 0.00236(14) -0.4334(6) -0.1705(2)
H16A H -0.0059 -0.4307 -0.2336
O8A O -0.23443(11) -0.5039(4) -0.25487(19)
O9A O -0.18090(13) -0.7186(5) -0.1839(2)
H17A H -0.180(2) -0.777(8) -0.236(4)
C21A C -0.21705(16) -0.2266(6) -0.1181(3)
H18A H -0.2108 -0.1570 -0.0613
H19A H -0.2565 -0.2259 -0.1335
H20A H -0.1965 -0.1653 -0.1667
C22A C -0.20523(16) -0.5544(6) -0.1904(3)
S2 S 0.20307(6) -1.0095(2) 0.39038(10)
O10 O 0.16514(13) -0.9414(6) 0.3150(2)
C23 C 0.2260(3) -0.7994(12) 0.4482(5)
H21 H 0.1964 -0.7518 0.4866
H22 H 0.2357 -0.7019 0.4037
H23 H 0.2585 -0.8296 0.4858
C24 C 0.2697(3) -1.0461(12) 0.3309(5)
H24 H 0.2671 -1.1595 0.2926
H25 H 0.2995 -1.0631 0.3758
H26 H 0.2776 -0.9348 0.2933
S3? S 0.2381(2) -0.9102(8) 0.4211(3)
O11? O 0.2391(6) -0.699(2) 0.4066(10)
C25? C 0.1709(11) -0.995(3) 0.3837(15)
H27? H 0.1420 -0.9175 0.4113
H28? H 0.1664 -1.1281 0.4020
H29? H 0.1679 -0.9855 0.3176
C26? C 0.2642(12) -1.107(4) 0.3584(18)
H30? H 0.3046 -1.1061 0.3618
H31? H 0.2521 -1.0961 0.2950
H32? H 0.2503 -1.2256 0.3841
loop_
_geom_bond_atom_site_label_1
_geom_bond_atom_site_label_2
_geom_bond_site_symmetry_1
_geom_bond_site_symmetry_2
S1 O1 1_555 1_555
C1 S1 1_555 1_555
H1 C1 1_555 1_555
H2 C1 1_555 1_555
H3 C1 1_555 1_555
C2 S1 1_555 1_555
H4 C2 1_555 1_555
H5 C2 1_555 1_555
H6 C2 1_555 1_555
N1 C6 1_555 1_555
C3 C4 1_555 1_555
C4 C5 1_555 1_555
C5 C6 1_555 1_555
C6 O2 1_555 1_555
C7 C3 1_555 1_555
H7 C7 1_555 1_555
C8 C5 1_555 1_555
H8 C8 1_555 1_555
O3 C9 1_555 1_555
C9 N1 1_555 1_555
O4 H9 1_555 1_555
C10 N1 1_555 1_555
H10 C10 1_555 1_555
C11 O4 1_555 1_555
O5 C11 1_555 1_555
C12 C10 1_555 1_555
H11 C12 1_555 1_555
H12 C12 1_555 1_555
H13 C12 1_555 1_555
C13 C14 1_555 1_555
N2 C16 1_555 1_555
C14 C19 1_555 1_555
C15 C13 1_555 1_555
C16 C15 1_555 1_555
O6 C16 1_555 1_555
C17 C15 1_555 1_555
H14 C17 1_555 1_555
C18 N2 1_555 1_555
H15 C18 1_555 1_555
C19 N2 1_555 1_555
O7 C19 1_555 1_555
C20 C14 1_555 1_555
H16 C20 1_555 1_555
O8 C22 1_555 1_555
O9 H17 1_555 1_555
C21 C18 1_555 1_555
H18 C21 1_555 1_555
H19 C21 1_555 1_555
H20 C21 1_555 1_555
C22 C18 1_555 1_555
S2 O10 1_555 1_555
C23 S2 1_555 1_555
H21 C23 1_555 1_555
H22 C23 1_555 1_555
H23 C23 1_555 1_555
C24 S2 1_555 1_555
H24 C24 1_555 1_555
H25 C24 1_555 1_555
H26 C24 1_555 1_555
N1A C6A 1_555 1_555
C3A C4A 1_555 1_555
C4A C4 1_555 1_555
C5A C4A 1_555 1_555
C6A C5A 1_555 1_555
C7A C8 1_555 1_555
H7A C7A 1_555 1_555
O2A C6A 1_555 1_555
C8A C7 1_555 1_555
H8A C8A 1_555 1_555
O3A C9A 1_555 1_555
C9A N1A 1_555 1_555
O4A H9A 1_555 1_555
C10A N1A 1_555 1_555
H10A C10A 1_555 1_555
C11A O4A 1_555 1_555
O5A C11A 1_555 1_555
C12A C10A 1_555 1_555
H11A C12A 1_555 1_555
H12A C12A 1_555 1_555
H13A C12A 1_555 1_555
C13A C13 1_555 1_555
N2A C16A 1_555 1_555
C14A C13A 1_555 1_555
C15A C13A 1_555 1_555
C16A C15A 1_555 1_555
O6A C16A 1_555 1_555
C17A C20 1_555 1_555
H14A C17A 1_555 1_555
C18A N2A 1_555 1_555
H15A C18A 1_555 1_555
C19A N2A 1_555 1_555
O7A C19A 1_555 1_555
C20A C17 1_555 1_555
H16A C20A 1_555 1_555
O8A C22A 1_555 1_555
O9A H17A 1_555 1_555
C21A C18A 1_555 1_555
H18A C21A 1_555 1_555
H19A C21A 1_555 1_555
H20A C21A 1_555 1_555
C22A C18A 1_555 1_555
C3 C9 1_555 1_555
C10 C11 1_555 1_555
O9 C22 1_555 1_555
C3A C7A 1_555 1_555
C3A C9A 1_555 1_555
C5A C8A 1_555 1_555
C10A C11A 1_555 1_555
C14A C19A 1_555 1_555
C14A C20A 1_555 1_555
C15A C17A 1_555 1_555
O9A C22A 1_555 1_555

#END
