
#######################################################################
#
#                 Cambridge Crystallographic Data Centre
#                                CCDC 
#
#######################################################################
#
# If this CIF has been generated from an entry in the Cambridge 
# Structural Database, then it will include bibliographic, chemical, 
# crystal, experimental, refinement or atomic coordinate data resulting 
# from the CCDC's data processing and validation procedures.
#
#######################################################################

data_BIYVEL
_chemical_formula_moiety         'C24 H23 N5'
_chemical_name_systematic        
N-(5'-Methyl-2,2'-bipyridin-5-yl)bis(2-pyridylmethyl)amine
_symmetry_cell_setting           triclinic
_symmetry_space_group_name_H-M   'P -1'
_symmetry_Int_Tables_number      2
_space_group_name_Hall           '-P 1'
loop_
_symmetry_equiv_pos_site_id
_symmetry_equiv_pos_as_xyz
1 x,y,z
2 -x,-y,-z
_cell_length_a                   6.2393(4)
_cell_length_b                   12.4910(8)
_cell_length_c                   13.5777(9)
_cell_angle_alpha                103.9950(10)
_cell_angle_beta                 100.2550(10)
_cell_angle_gamma                95.5080(10)
_cell_volume                     999.597
_exptl_crystal_colour            colorless
_exptl_crystal_description       needlelike
_cell_formula_units_Z            2
_exptl_crystal_recrystallization_method 'acetonitrile/diethyl ether'
loop_
_atom_site_label
_atom_site_type_symbol
_atom_site_fract_x
_atom_site_fract_y
_atom_site_fract_z
C1 C 0.2282(4) 1.2561(2) 0.4862(2)
H1 H 0.1052 1.2026 0.4471
C2 C 0.1983(5) 1.3611(3) 0.5391(2)
H2 H 0.0536 1.3796 0.5367
C3 C 0.3764(4) 1.4393(2) 0.59523(18)
C4 C 0.5809(4) 1.4050(2) 0.59833(18)
H3 H 0.7056 1.4566 0.6387
C5 C 0.4379(4) 1.23011(19) 0.49086(16)
C6 C 0.4762(4) 1.11985(19) 0.43073(16)
C7 C 0.6822(4) 1.08821(18) 0.44351(17)
H4 H 0.8013 1.1351 0.4937
C8 C 0.7140(4) 0.98851(19) 0.38335(18)
H5 H 0.8564 0.9666 0.3918
C9 C 0.5412(4) 0.91881(19) 0.31016(16)
C10 C 0.3372(4) 0.9564(2) 0.30382(18)
H6 H 0.2148 0.9097 0.2559
C11 C 0.5706(4) 0.80822(19) 0.24365(17)
H7 H 0.7289 0.8074 0.2432
H8 H 0.5217 0.7483 0.2744
C12 C 0.5434(4) 0.85830(18) 0.08128(17)
H9 H 0.6836 0.8345 0.0661
H10 H 0.5766 0.9357 0.1262
C13 C 0.3899(3) 0.85557(16) -0.01897(16)
C14 C 0.1743(4) 0.87481(18) -0.02013(18)
H11 H 0.1207 0.8888 0.0423
C15 C 0.0384(4) 0.87352(19) -0.1124(2)
H12 H -0.1099 0.8863 -0.1147
C16 C 0.1229(4) 0.8532(2) -0.20162(19)
H13 H 0.0344 0.8521 -0.2666
C17 C 0.3387(4) 0.83451(19) -0.19387(18)
H14 H 0.3957 0.8204 -0.2554
C18 C 0.4435(3) 0.66850(17) 0.08154(17)
H15 H 0.5951 0.6500 0.0939
H16 H 0.3957 0.6597 0.0061
C19 C 0.2941(3) 0.58681(17) 0.11345(15)
C20 C 0.0920(4) 0.61057(18) 0.13533(18)
H17 H 0.0492 0.6817 0.1361
C21 C -0.0459(4) 0.5291(2) 0.15591(19)
H18 H -0.1846 0.5434 0.1715
C22 C 0.0212(4) 0.42642(18) 0.15351(18)
H19 H -0.0708 0.3685 0.1665
C23 C 0.2245(4) 0.41019(17) 0.13189(17)
H20 H 0.2697 0.3393 0.1298
C24 C 0.3521(5) 1.5565(2) 0.6503(2)
H21 H 0.2063 1.5728 0.6226
H22 H 0.4658 1.6095 0.6391
H23 H 0.3683 1.5634 0.7248
N1 N 0.6154(3) 1.30354(17) 0.54822(15)
N2 N 0.3025(3) 1.05512(19) 0.36146(16)
N3 N 0.4468(3) 0.78499(14) 0.13660(13)
N4 N 0.4731(3) 0.83498(15) -0.10490(14)
N5 N 0.3623(3) 0.48846(15) 0.11365(14)
loop_
_geom_bond_atom_site_label_1
_geom_bond_atom_site_label_2
_geom_bond_site_symmetry_1
_geom_bond_site_symmetry_2
C1 H1 1_555 1_555
C2 C1 1_555 1_555
H2 C2 1_555 1_555
C3 C2 1_555 1_555
C4 C3 1_555 1_555
H3 C4 1_555 1_555
C5 C1 1_555 1_555
C6 C5 1_555 1_555
C7 C6 1_555 1_555
H4 C7 1_555 1_555
C8 C7 1_555 1_555
H5 C8 1_555 1_555
C9 C8 1_555 1_555
C10 C9 1_555 1_555
H6 C10 1_555 1_555
C11 C9 1_555 1_555
H7 C11 1_555 1_555
H8 C11 1_555 1_555
C12 H9 1_555 1_555
H10 C12 1_555 1_555
C13 C12 1_555 1_555
C14 C13 1_555 1_555
H11 C14 1_555 1_555
C15 C14 1_555 1_555
H12 C15 1_555 1_555
C16 C15 1_555 1_555
H13 C16 1_555 1_555
C17 C16 1_555 1_555
H14 C17 1_555 1_555
C18 H15 1_555 1_555
H16 C18 1_555 1_555
C19 C18 1_555 1_555
C20 C19 1_555 1_555
H17 C20 1_555 1_555
C21 C20 1_555 1_555
H18 C21 1_555 1_555
C22 C21 1_555 1_555
H19 C22 1_555 1_555
C23 C22 1_555 1_555
H20 C23 1_555 1_555
C24 C3 1_555 1_555
H21 C24 1_555 1_555
H22 C24 1_555 1_555
H23 C24 1_555 1_555
N1 C4 1_555 1_555
N2 C6 1_555 1_555
N3 C11 1_555 1_555
N4 C13 1_555 1_555
N5 C19 1_555 1_555
C5 N1 1_555 1_555
C10 N2 1_555 1_555
C12 N3 1_555 1_555
C17 N4 1_555 1_555
C18 N3 1_555 1_555
C23 N5 1_555 1_555

#END
