
#######################################################################
#
#                 Cambridge Crystallographic Data Centre
#                                CCDC 
#
#######################################################################
#
# If this CIF has been generated from an entry in the Cambridge 
# Structural Database, then it will include bibliographic, chemical, 
# crystal, experimental, refinement or atomic coordinate data resulting 
# from the CCDC's data processing and validation procedures.
#
#######################################################################

data_BIYYIT
_chemical_formula_moiety         'C82 H54 F20 N6 O2'
_chemical_name_systematic        
2,6-di-t-butyl-4-(22-(3,5-di-t-butyl-4-oxocyclohexa-2,5-dien-1-ylidene)-2,12,17,27-tetrakis(pentafluorophenyl)-32,33,34,35,36-pentaaza-31-azoniaheptacyclo[26.2.1.1^3,6^.1^8,11^.1^13,16^.1^18,21^.1^23,26^]hexatriaconta-1,3(36),4,6,8(35),9,11,13,15,17,19,21(33),23(32),24,26,28(31),29-heptadecaen-7-yl)phenolate
_symmetry_cell_setting           monoclinic
_symmetry_space_group_name_H-M   'P 21/n'
_symmetry_Int_Tables_number      14
_space_group_name_Hall           '-P 2yn'
loop_
_symmetry_equiv_pos_site_id
_symmetry_equiv_pos_as_xyz
1 x,y,z
2 1/2-x,1/2+y,1/2-z
3 -x,-y,-z
4 1/2+x,1/2-y,1/2+z
_cell_length_a                   9.0726(2)
_cell_length_b                   21.7060(4)
_cell_length_c                   18.0976(4)
_cell_angle_alpha                90
_cell_angle_beta                 103.7954(8)
_cell_angle_gamma                90
_cell_volume                     3461.15
_exptl_crystal_colour            brown
_exptl_crystal_description       prism
_cell_formula_units_Z            2
loop_
_atom_site_label
_atom_site_type_symbol
_atom_site_fract_x
_atom_site_fract_y
_atom_site_fract_z
F1 F -0.01380(18) -0.16737(7) -0.21247(8)
F2 F 0.21878(17) -0.24450(8) -0.21324(9)
F3 F 0.26600(17) -0.34416(7) -0.12019(10)
F4 F 0.08428(18) -0.36409(6) -0.02357(9)
F5 F -0.14874(16) -0.28779(6) -0.02236(8)
F6 F -0.00515(16) 0.09289(6) 0.32649(7)
F7 F 0.13478(16) 0.07645(6) 0.47226(8)
F8 F -0.02945(18) 0.06204(7) 0.57878(7)
F9 F -0.33446(18) 0.06007(8) 0.53631(8)
F10 F -0.48023(16) 0.07617(7) 0.39023(7)
C1 C -0.5568(3) -0.13675(10) -0.24785(12)
C2 C -0.5110(3) -0.18554(10) -0.28879(13)
H1 H -0.5619 -0.1988 -0.3383
C3 C -0.3794(3) -0.21064(10) -0.24452(13)
H2 H -0.3242 -0.2444 -0.2579
C4 C -0.3417(3) -0.17694(10) -0.17567(12)
C5 C -0.2097(3) -0.17968(10) -0.11388(12)
C6 C -0.1810(3) -0.13941(10) -0.05329(12)
C7 C -0.0409(3) -0.13085(10) 0.00424(12)
H3 H 0.0475 -0.1558 0.0121
C8 C -0.0609(3) -0.08047(10) 0.04431(12)
H4 H 0.0108 -0.0630 0.0860
C9 C -0.2142(2) -0.05802(10) 0.01120(11)
C10 C -0.2812(2) 0.00069(10) 0.02953(11)
C11 C -0.2757(3) 0.00964(10) 0.11021(12)
C12 C -0.2061(3) -0.03439(10) 0.17011(12)
H5 H -0.1676 -0.0741 0.1630
C13 C -0.2073(3) -0.00757(10) 0.23685(12)
H6 H -0.1649 -0.0236 0.2862
C14 C -0.2861(3) 0.05075(10) 0.21872(12)
C15 C -0.3260(3) 0.09166(10) 0.26944(12)
C16 C -0.0894(3) -0.22570(10) -0.11839(12)
C17 C 0.0071(3) -0.21660(11) -0.16672(12)
C18 C 0.1247(3) -0.25574(12) -0.16773(14)
C19 C 0.1497(3) -0.30593(11) -0.11965(15)
C20 C 0.0575(3) -0.31626(11) -0.07119(14)
C21 C -0.0603(3) -0.27651(10) -0.07102(13)
C22 C -0.3291(3) 0.04339(10) -0.02886(12)
C23 C -0.3082(3) 0.03147(10) -0.10486(12)
H7 H -0.2646 -0.0068 -0.1137
C24 C -0.3469(3) 0.07136(10) -0.16361(12)
C25 C -0.4191(3) 0.13023(10) -0.15130(13)
C26 C -0.4281(3) 0.14620(10) -0.07225(12)
C27 C -0.3884(2) 0.10352(10) -0.01656(12)
H8 H -0.3999 0.1134 0.0329
C28 C -0.4797(3) 0.21143(10) -0.05726(13)
C29 C -0.3773(3) 0.25890(11) -0.08398(15)
H9 H -0.4102 0.3006 -0.0747
H10 H -0.3847 0.2534 -0.1385
H11 H -0.2719 0.2529 -0.0557
C30 C -0.6468(3) 0.22135(12) -0.09850(14)
H12 H -0.6777 0.2632 -0.0885
H13 H -0.7103 0.1914 -0.0799
H14 H -0.6588 0.2158 -0.1534
C31 C -0.4673(3) 0.22138(11) 0.02791(13)
H15 H -0.5008 0.2632 0.0362
H16 H -0.3615 0.2159 0.0560
H17 H -0.5316 0.1914 0.0459
C32 C -0.3150(3) 0.05837(10) -0.24193(12)
C33 C -0.4660(3) 0.05443(12) -0.30211(13)
H18 H -0.4459 0.0461 -0.3520
H19 H -0.5205 0.0936 -0.3039
H20 H -0.5279 0.0211 -0.2888
C34 C -0.2317(3) -0.00271(11) -0.24329(13)
H21 H -0.1346 -0.0017 -0.2052
H22 H -0.2130 -0.0091 -0.2939
H23 H -0.2940 -0.0365 -0.2316
C35 C -0.2168(3) 0.11073(11) -0.26250(13)
H24 H -0.1205 0.1130 -0.2240
H25 H -0.2709 0.1500 -0.2641
H26 H -0.1966 0.1025 -0.3124
C36 C -0.2489(3) 0.08585(10) 0.35197(12)
C37 C -0.0921(3) 0.08536(10) 0.37621(12)
C38 C -0.0176(3) 0.07775(10) 0.45188(13)
C39 C -0.0993(3) 0.07031(11) 0.50530(13)
C40 C -0.2552(3) 0.06978(11) 0.48386(13)
C41 C -0.3282(3) 0.07812(11) 0.40812(12)
N1 N -0.4528(2) -0.13366(8) -0.17958(10)
H27 H -0.4568 -0.1074 -0.1431
N2 N -0.2857(2) -0.09369(8) -0.04530(10)
N3 N -0.3279(2) 0.05881(8) 0.14028(9)
O1 O -0.4690(2) 0.16607(8) -0.20430(9)
F1B F -0.98620(18) 0.16737(7) 0.21247(8)
F2B F -1.21878(17) 0.24450(8) 0.21324(9)
F3B F -1.26600(17) 0.34416(7) 0.12019(10)
F4B F -1.08428(18) 0.36409(6) 0.02357(9)
F5B F -0.85126(16) 0.28779(6) 0.02236(8)
F6B F -0.99485(16) -0.09289(6) -0.32649(7)
F7B F -1.13478(16) -0.07645(6) -0.47226(8)
F8B F -0.97055(18) -0.06204(7) -0.57878(7)
F9B F -0.66554(18) -0.06007(8) -0.53631(8)
F10B F -0.51977(16) -0.07617(7) -0.39023(7)
C1B C -0.4432(3) 0.13675(10) 0.24785(12)
C2B C -0.4890(3) 0.18554(10) 0.28879(13)
H1B H -0.4381 0.1988 0.3383
C3B C -0.6206(3) 0.21064(10) 0.24452(13)
H2B H -0.6758 0.2444 0.2579
C4B C -0.6583(3) 0.17694(10) 0.17567(12)
C5B C -0.7903(3) 0.17968(10) 0.11388(12)
C6B C -0.8190(3) 0.13941(10) 0.05329(12)
C7B C -0.9591(3) 0.13085(10) -0.00424(12)
H3B H -1.0475 0.1558 -0.0121
C8B C -0.9391(3) 0.08047(10) -0.04431(12)
H4B H -1.0108 0.0630 -0.0860
C9B C -0.7858(2) 0.05802(10) -0.01120(11)
C10B C -0.7188(2) -0.00069(10) -0.02953(11)
C11B C -0.7243(3) -0.00964(10) -0.11021(12)
C12B C -0.7939(3) 0.03439(10) -0.17011(12)
H5B H -0.8324 0.0741 -0.1630
C13B C -0.7927(3) 0.00757(10) -0.23685(12)
H6B H -0.8351 0.0236 -0.2862
C14B C -0.7139(3) -0.05075(10) -0.21872(12)
C15B C -0.6740(3) -0.09166(10) -0.26944(12)
C16B C -0.9106(3) 0.22570(10) 0.11839(12)
C17B C -1.0071(3) 0.21660(11) 0.16672(12)
C18B C -1.1247(3) 0.25574(12) 0.16773(14)
C19B C -1.1497(3) 0.30593(11) 0.11965(15)
C20B C -1.0575(3) 0.31626(11) 0.07119(14)
C21B C -0.9397(3) 0.27651(10) 0.07102(13)
C22B C -0.6709(3) -0.04339(10) 0.02886(12)
C23B C -0.6918(3) -0.03147(10) 0.10486(12)
H7B H -0.7354 0.0068 0.1137
C24B C -0.6531(3) -0.07136(10) 0.16361(12)
C25B C -0.5809(3) -0.13023(10) 0.15130(13)
C26B C -0.5719(3) -0.14620(10) 0.07225(12)
C27B C -0.6116(2) -0.10352(10) 0.01656(12)
H8B H -0.6001 -0.1134 -0.0329
C28B C -0.5203(3) -0.21143(10) 0.05726(13)
C29B C -0.6227(3) -0.25890(11) 0.08398(15)
H9B H -0.5898 -0.3006 0.0747
H10B H -0.6153 -0.2534 0.1385
H11B H -0.7281 -0.2529 0.0557
C30B C -0.3532(3) -0.22135(12) 0.09850(14)
H12B H -0.3223 -0.2632 0.0885
H13B H -0.2897 -0.1914 0.0799
H14B H -0.3412 -0.2158 0.1534
C31B C -0.5327(3) -0.22138(11) -0.02791(13)
H15B H -0.4992 -0.2632 -0.0362
H16B H -0.6385 -0.2159 -0.0560
H17B H -0.4684 -0.1914 -0.0459
C32B C -0.6850(3) -0.05837(10) 0.24193(12)
C33B C -0.5340(3) -0.05443(12) 0.30211(13)
H18B H -0.5541 -0.0461 0.3520
H19B H -0.4795 -0.0936 0.3039
H20B H -0.4721 -0.0211 0.2888
C34B C -0.7683(3) 0.00271(11) 0.24329(13)
H21B H -0.8654 0.0017 0.2052
H22B H -0.7870 0.0091 0.2939
H23B H -0.7060 0.0365 0.2316
C35B C -0.7832(3) -0.11073(11) 0.26250(13)
H24B H -0.8795 -0.1130 0.2240
H25B H -0.7291 -0.1500 0.2641
H26B H -0.8034 -0.1025 0.3124
C36B C -0.7511(3) -0.08585(10) -0.35197(12)
C37B C -0.9079(3) -0.08536(10) -0.37621(12)
C38B C -0.9824(3) -0.07775(10) -0.45188(13)
C39B C -0.9007(3) -0.07031(11) -0.50530(13)
C40B C -0.7448(3) -0.06978(11) -0.48386(13)
C41B C -0.6718(3) -0.07812(11) -0.40812(12)
N1B N -0.5472(2) 0.13366(8) 0.17958(10)
H27B H -0.5432 0.1074 0.1431
N2B N -0.7143(2) 0.09369(8) 0.04530(10)
N3B N -0.6721(2) -0.05881(8) -0.14028(9)
O1B O -0.5310(2) -0.16607(8) 0.20430(9)
loop_
_geom_bond_atom_site_label_1
_geom_bond_atom_site_label_2
_geom_bond_site_symmetry_1
_geom_bond_site_symmetry_2
F1 C17 1_555 1_555
F2 C18 1_555 1_555
F3 C19 1_555 1_555
F4 C20 1_555 1_555
F5 C21 1_555 1_555
F6 C37 1_555 1_555
F7 C38 1_555 1_555
F8 C39 1_555 1_555
F9 C40 1_555 1_555
F10 C41 1_555 1_555
C1 C2 1_555 1_555
C2 H1 1_555 1_555
C3 C2 1_555 1_555
H2 C3 1_555 1_555
C4 C3 1_555 1_555
C5 C4 1_555 1_555
C6 C5 1_555 1_555
C7 C6 1_555 1_555
H3 C7 1_555 1_555
C8 C7 1_555 1_555
H4 C8 1_555 1_555
C9 C8 1_555 1_555
C10 C9 1_555 1_555
C11 C10 1_555 1_555
C12 C11 1_555 1_555
H5 C12 1_555 1_555
C13 C12 1_555 1_555
H6 C13 1_555 1_555
C14 C13 1_555 1_555
C15 C14 1_555 1_555
C16 C5 1_555 1_555
C17 C16 1_555 1_555
C18 C17 1_555 1_555
C19 C18 1_555 1_555
C20 C19 1_555 1_555
C21 C16 1_555 1_555
C22 C10 1_555 1_555
C23 C22 1_555 1_555
H7 C23 1_555 1_555
C24 C23 1_555 1_555
C25 C24 1_555 1_555
C26 C25 1_555 1_555
C27 C22 1_555 1_555
H8 C27 1_555 1_555
C28 C26 1_555 1_555
C29 C28 1_555 1_555
H9 C29 1_555 1_555
H10 C29 1_555 1_555
H11 C29 1_555 1_555
C30 C28 1_555 1_555
H12 C30 1_555 1_555
H13 C30 1_555 1_555
H14 C30 1_555 1_555
C31 C28 1_555 1_555
H15 C31 1_555 1_555
H16 C31 1_555 1_555
H17 C31 1_555 1_555
C32 C24 1_555 1_555
C33 C32 1_555 1_555
H18 C33 1_555 1_555
H19 C33 1_555 1_555
H20 C33 1_555 1_555
C34 C32 1_555 1_555
H21 C34 1_555 1_555
H22 C34 1_555 1_555
H23 C34 1_555 1_555
C35 C32 1_555 1_555
H24 C35 1_555 1_555
H25 C35 1_555 1_555
H26 C35 1_555 1_555
C36 C15 1_555 1_555
C37 C36 1_555 1_555
C38 C37 1_555 1_555
C39 C38 1_555 1_555
C40 C39 1_555 1_555
C41 C36 1_555 1_555
N1 C1 1_555 1_555
H27 N1 1_555 1_555
N2 C6 1_555 1_555
N3 C11 1_555 1_555
O1 C25 1_555 1_555
F1B C17B 1_555 1_555
F2B C18B 1_555 1_555
F3B C19B 1_555 1_555
F4B C20B 1_555 1_555
F5B C21B 1_555 1_555
F6B C37B 1_555 1_555
F7B C38B 1_555 1_555
F8B C39B 1_555 1_555
F9B C40B 1_555 1_555
F10B C41B 1_555 1_555
C1B C15 1_555 1_555
C2B C1B 1_555 1_555
H1B C2B 1_555 1_555
C3B C2B 1_555 1_555
H2B C3B 1_555 1_555
C4B C3B 1_555 1_555
C5B C4B 1_555 1_555
C6B C5B 1_555 1_555
C7B C6B 1_555 1_555
H3B C7B 1_555 1_555
C8B C7B 1_555 1_555
H4B C8B 1_555 1_555
C9B C8B 1_555 1_555
C10B C9B 1_555 1_555
C11B C10B 1_555 1_555
C12B C11B 1_555 1_555
H5B C12B 1_555 1_555
C13B C12B 1_555 1_555
H6B C13B 1_555 1_555
C14B C13B 1_555 1_555
C15B C1 1_555 1_555
C16B C5B 1_555 1_555
C17B C16B 1_555 1_555
C18B C17B 1_555 1_555
C19B C18B 1_555 1_555
C20B C19B 1_555 1_555
C21B C16B 1_555 1_555
C22B C10B 1_555 1_555
C23B C22B 1_555 1_555
H7B C23B 1_555 1_555
C24B C23B 1_555 1_555
C25B C24B 1_555 1_555
C26B C25B 1_555 1_555
C27B C22B 1_555 1_555
H8B C27B 1_555 1_555
C28B C26B 1_555 1_555
C29B C28B 1_555 1_555
H9B C29B 1_555 1_555
H10B C29B 1_555 1_555
H11B C29B 1_555 1_555
C30B C28B 1_555 1_555
H12B C30B 1_555 1_555
H13B C30B 1_555 1_555
H14B C30B 1_555 1_555
C31B C28B 1_555 1_555
H15B C31B 1_555 1_555
H16B C31B 1_555 1_555
H17B C31B 1_555 1_555
C32B C24B 1_555 1_555
C33B C32B 1_555 1_555
H18B C33B 1_555 1_555
H19B C33B 1_555 1_555
H20B C33B 1_555 1_555
C34B C32B 1_555 1_555
H21B C34B 1_555 1_555
H22B C34B 1_555 1_555
H23B C34B 1_555 1_555
C35B C32B 1_555 1_555
H24B C35B 1_555 1_555
H25B C35B 1_555 1_555
H26B C35B 1_555 1_555
C36B C15B 1_555 1_555
C37B C36B 1_555 1_555
C38B C37B 1_555 1_555
C39B C38B 1_555 1_555
C40B C39B 1_555 1_555
C41B C36B 1_555 1_555
N1B C1B 1_555 1_555
H27B N1B 1_555 1_555
N2B C6B 1_555 1_555
N3B C11B 1_555 1_555
O1B C25B 1_555 1_555
C4 N1 1_555 1_555
C9 N2 1_555 1_555
C14 N3 1_555 1_555
C20 C21 1_555 1_555
C26 C27 1_555 1_555
C40 C41 1_555 1_555
C4B N1B 1_555 1_555
C9B N2B 1_555 1_555
C14B C15B 1_555 1_555
C14B N3B 1_555 1_555
C20B C21B 1_555 1_555
C26B C27B 1_555 1_555
C40B C41B 1_555 1_555

#END
