
#######################################################################
#
#                 Cambridge Crystallographic Data Centre
#                                CCDC 
#
#######################################################################
#
# If this CIF has been generated from an entry in the Cambridge 
# Structural Database, then it will include bibliographic, chemical, 
# crystal, experimental, refinement or atomic coordinate data resulting 
# from the CCDC's data processing and validation procedures.
#
#######################################################################

data_BIZDOE
_chemical_name_common            
6,6,6',6'-Tetramethyl-2,2'-bi(5,7-dioxadibenzo(a,c)cycloheptenyl)
_chemical_formula_moiety         'C30 H26 O4'
_chemical_name_systematic        
2,2'-Bi[6,6'-dimethyldibenzo[d,f][1,3]dioxepine]
_symmetry_cell_setting           monoclinic
_symmetry_space_group_name_H-M   'P 21/c'
_symmetry_Int_Tables_number      14
_space_group_name_Hall           '-P 2ybc'
loop_
_symmetry_equiv_pos_site_id
_symmetry_equiv_pos_as_xyz
1 x,y,z
2 -x,1/2+y,1/2-z
3 -x,-y,-z
4 x,1/2-y,1/2+z
_cell_length_a                   13.2938(16)
_cell_length_b                   7.3200(17)
_cell_length_c                   12.7067(11)
_cell_angle_alpha                90
_cell_angle_beta                 103.61(3)
_cell_angle_gamma                90
_cell_volume                     1201.78
_exptl_crystal_colour            colorless
_exptl_crystal_description       block
_chemical_melting_point          184deg.C
_cell_formula_units_Z            2
_exptl_crystal_recrystallization_method ethanol
loop_
_atom_site_label
_atom_site_type_symbol
_atom_site_fract_x
_atom_site_fract_y
_atom_site_fract_z
O1 O 0.21588(11) 0.2535(2) 0.34347(11)
O2 O 0.36521(11) 0.2225(2) 0.27166(12)
C1 C 0.09442(16) 0.3070(3) 0.05350(19)
C2 C 0.03176(15) 0.4620(3) 0.05225(17)
C3 C 0.09650(19) 0.4785(4) 0.24823(19)
C4 C 0.22260(16) 0.0711(3) 0.15024(18)
C5 C 0.15797(15) 0.2372(3) 0.14907(17)
C6 C 0.15933(16) 0.3274(3) 0.24576(17)
C7 C 0.32433(16) 0.0657(3) 0.21549(17)
C8 C 0.1865(2) -0.0821(3) 0.0873(2)
C9 C 0.38801(19) -0.0848(4) 0.2164(2)
C10 C 0.32811(17) 0.2702(3) 0.36589(18)
C11 C 0.03321(19) 0.5430(4) 0.1517(2)
C12 C 0.3626(3) 0.4644(5) 0.3914(3)
C13 C 0.2499(2) -0.2331(4) 0.0886(2)
C14 C 0.3510(2) -0.2345(4) 0.1524(2)
C15 C 0.3685(3) 0.1387(6) 0.4579(3)
H1 H 0.4638(18) -0.080(3) 0.2637(19)
H2 H 0.1234(18) -0.084(3) 0.0448(18)
H3 H -0.0059(19) 0.648(4) 0.1583(19)
H4 H 0.1025(16) 0.253(3) -0.0123(16)
H5 H 0.401(2) -0.339(4) 0.150(2)
H6 H 0.1027(17) 0.546(3) 0.316(2)
H7 H 0.2340(18) -0.334(4) 0.043(2)
H8 H 0.3503(19) 0.504(4) 0.454(2)
H9 H 0.3398(19) 0.536(4) 0.333(2)
H10 H 0.359(2) 0.015(4) 0.434(2)
H11 H 0.453(2) 0.467(4) 0.403(2)
H12 H 0.456(3) 0.142(5) 0.479(3)
H13 H 0.350(2) 0.177(4) 0.517(2)
O1B O -0.21588(11) 0.7465(2) -0.34347(11)
O2B O -0.36521(11) 0.7775(2) -0.27166(12)
C1B C -0.09442(16) 0.6930(3) -0.05350(19)
C2B C -0.03176(15) 0.5380(3) -0.05225(17)
C3B C -0.09650(19) 0.5215(4) -0.24823(19)
C4B C -0.22260(16) 0.9289(3) -0.15024(18)
C5B C -0.15797(15) 0.7628(3) -0.14907(17)
C6B C -0.15933(16) 0.6726(3) -0.24576(17)
C7B C -0.32433(16) 0.9343(3) -0.21549(17)
C8B C -0.1865(2) 1.0821(3) -0.0873(2)
C9B C -0.38801(19) 1.0848(4) -0.2164(2)
C10B C -0.32811(17) 0.7298(3) -0.36589(18)
C11B C -0.03321(19) 0.4570(4) -0.1517(2)
C12B C -0.3626(3) 0.5356(5) -0.3914(3)
C13B C -0.2499(2) 1.2331(4) -0.0886(2)
C14B C -0.3510(2) 1.2345(4) -0.1524(2)
C15B C -0.3685(3) 0.8613(6) -0.4579(3)
H1B H -0.4638(18) 1.080(3) -0.2637(19)
H2B H -0.1234(18) 1.084(3) -0.0448(18)
H3B H 0.0059(19) 0.352(4) -0.1583(19)
H4B H -0.1025(16) 0.747(3) 0.0123(16)
H5B H -0.401(2) 1.339(4) -0.150(2)
H6B H -0.1027(17) 0.454(3) -0.316(2)
H7B H -0.2340(18) 1.334(4) -0.043(2)
H8B H -0.3503(19) 0.496(4) -0.454(2)
H9B H -0.3398(19) 0.464(4) -0.333(2)
H10B H -0.359(2) 0.985(4) -0.434(2)
H11B H -0.453(2) 0.533(4) -0.403(2)
H12B H -0.456(3) 0.858(5) -0.479(3)
H13B H -0.350(2) 0.823(4) -0.517(2)
loop_
_geom_bond_atom_site_label_1
_geom_bond_atom_site_label_2
_geom_bond_site_symmetry_1
_geom_bond_site_symmetry_2
O1 C6 1_555 1_555
O2 C7 1_555 1_555
C1 C2 1_555 1_555
C2 C11 1_555 1_555
C3 C6 1_555 1_555
C4 C5 1_555 1_555
C5 C1 1_555 1_555
C6 C5 1_555 1_555
C7 C4 1_555 1_555
C8 C4 1_555 1_555
C9 C7 1_555 1_555
C10 O1 1_555 1_555
C11 C3 1_555 1_555
C12 C10 1_555 1_555
C13 C8 1_555 1_555
C14 C9 1_555 1_555
C15 C10 1_555 1_555
H1 C9 1_555 1_555
H2 C8 1_555 1_555
H3 C11 1_555 1_555
H4 C1 1_555 1_555
H5 C14 1_555 1_555
H6 C3 1_555 1_555
H7 C13 1_555 1_555
H8 C12 1_555 1_555
H9 C12 1_555 1_555
H10 C15 1_555 1_555
H11 C12 1_555 1_555
H12 C15 1_555 1_555
H13 C15 1_555 1_555
O1B C6B 1_555 1_555
O2B C7B 1_555 1_555
C1B C2B 1_555 1_555
C2B C2 1_555 1_555
C3B C6B 1_555 1_555
C4B C5B 1_555 1_555
C5B C1B 1_555 1_555
C6B C5B 1_555 1_555
C7B C4B 1_555 1_555
C8B C4B 1_555 1_555
C9B C7B 1_555 1_555
C10B O1B 1_555 1_555
C11B C2B 1_555 1_555
C12B C10B 1_555 1_555
C13B C8B 1_555 1_555
C14B C9B 1_555 1_555
C15B C10B 1_555 1_555
H1B C9B 1_555 1_555
H2B C8B 1_555 1_555
H3B C11B 1_555 1_555
H4B C1B 1_555 1_555
H5B C14B 1_555 1_555
H6B C3B 1_555 1_555
H7B C13B 1_555 1_555
H8B C12B 1_555 1_555
H9B C12B 1_555 1_555
H10B C15B 1_555 1_555
H11B C12B 1_555 1_555
H12B C15B 1_555 1_555
H13B C15B 1_555 1_555
O2 C10 1_555 1_555
C13 C14 1_555 1_555
O2B C10B 1_555 1_555
C3B C11B 1_555 1_555
C13B C14B 1_555 1_555

#END
