
#######################################################################
#
#                 Cambridge Crystallographic Data Centre
#                                CCDC 
#
#######################################################################
#
# If this CIF has been generated from an entry in the Cambridge 
# Structural Database, then it will include bibliographic, chemical, 
# crystal, experimental, refinement or atomic coordinate data resulting 
# from the CCDC's data processing and validation procedures.
#
#######################################################################

data_BIZFEW
_chemical_formula_moiety         'C10 H4 Cl4 N4 O1'
_chemical_name_systematic        
3,6-dichloro-N-(4,6-dichloropyrimidin-2-yl)picolinamide
_symmetry_cell_setting           monoclinic
_symmetry_space_group_name_H-M   'P 21/c'
_symmetry_Int_Tables_number      14
_space_group_name_Hall           '-P 2ybc'
loop_
_symmetry_equiv_pos_site_id
_symmetry_equiv_pos_as_xyz
1 x,y,z
2 -x,1/2+y,1/2-z
3 -x,-y,-z
4 x,1/2-y,1/2+z
_cell_length_a                   10.9313(3)
_cell_length_b                   13.3682(4)
_cell_length_c                   9.3846(2)
_cell_angle_alpha                90
_cell_angle_beta                 112.576(1)
_cell_angle_gamma                90
_cell_volume                     1266.3
_exptl_crystal_colour            colorless
_exptl_crystal_description       block
_cell_formula_units_Z            4
_exptl_crystal_recrystallization_method methanol
loop_
_atom_site_label
_atom_site_type_symbol
_atom_site_fract_x
_atom_site_fract_y
_atom_site_fract_z
C1 C 0.0455(2) 0.46707(18) 0.7731(3)
C2 C -0.0901(3) 0.47239(19) 0.6987(3)
H1 H -0.1402 0.5146 0.7337
C3 C -0.1490(2) 0.4130(2) 0.5708(3)
H3 H -0.2405 0.4136 0.5180
C4 C -0.0701(2) 0.35232(18) 0.5216(3)
C5 C 0.0656(2) 0.35254(17) 0.6046(2)
C6 C 0.1598(2) 0.29254(17) 0.5548(3)
C7 C 0.3461(2) 0.17699(16) 0.6583(2)
C8 C 0.4828(2) 0.04599(17) 0.7443(3)
C9 C 0.5573(2) 0.07620(18) 0.6622(3)
H5 H 0.6314 0.0413 0.6637
C10 C 0.5127(2) 0.16222(18) 0.5780(3)
Cl1 Cl 0.12481(8) 0.54093(6) 0.93377(9)
Cl2 Cl -0.14206(7) 0.27686(6) 0.36188(8)
Cl3 Cl 0.52917(8) -0.06101(5) 0.85470(8)
Cl4 Cl 0.59986(6) 0.21159(6) 0.47456(8)
N1 N 0.12366(19) 0.40889(16) 0.7308(2)
N2 N 0.24081(18) 0.23151(15) 0.6667(2)
H7 H 0.2250 0.2260 0.7537
N3 N 0.37740(19) 0.09419(14) 0.7453(2)
N4 N 0.40798(18) 0.21385(14) 0.5725(2)
O1 O 0.15795(18) 0.30105(15) 0.4258(2)
H2? H -0.1416 0.5160 0.7352
H4? H -0.2435 0.4135 0.5163
H6? H 0.6341 0.0405 0.6643
loop_
_geom_bond_atom_site_label_1
_geom_bond_atom_site_label_2
_geom_bond_site_symmetry_1
_geom_bond_site_symmetry_2
C1 C2 1_555 1_555
C2 H1 1_555 1_555
C3 C2 1_555 1_555
H3 C3 1_555 1_555
C4 C3 1_555 1_555
C5 C4 1_555 1_555
C6 C5 1_555 1_555
C7 N2 1_555 1_555
C8 C9 1_555 1_555
C9 H5 1_555 1_555
C10 C9 1_555 1_555
Cl1 C1 1_555 1_555
Cl2 C4 1_555 1_555
Cl3 C8 1_555 1_555
Cl4 C10 1_555 1_555
N1 C1 1_555 1_555
N2 C6 1_555 1_555
H7 N2 1_555 1_555
N3 C7 1_555 1_555
N4 C7 1_555 1_555
O1 C6 1_555 1_555
C5 N1 1_555 1_555
C8 N3 1_555 1_555
C10 N4 1_555 1_555

#END
