
#######################################################################
#
#                 Cambridge Crystallographic Data Centre
#                                CCDC 
#
#######################################################################
#
# If this CIF has been generated from an entry in the Cambridge 
# Structural Database, then it will include bibliographic, chemical, 
# crystal, experimental, refinement or atomic coordinate data resulting 
# from the CCDC's data processing and validation procedures.
#
#######################################################################

data_BIZFIB
_chemical_formula_moiety         'C21 H33 N3 O6'
_chemical_name_systematic        'Benzene-1,3,5-triyl tris(n-butylcarbamate)'
_symmetry_cell_setting           monoclinic
_symmetry_space_group_name_H-M   'P 21/c'
_symmetry_Int_Tables_number      14
_space_group_name_Hall           '-P 2ybc'
loop_
_symmetry_equiv_pos_site_id
_symmetry_equiv_pos_as_xyz
1 x,y,z
2 -x,1/2+y,1/2-z
3 -x,-y,-z
4 x,1/2-y,1/2+z
_cell_length_a                   17.4350(4)
_cell_length_b                   13.8312(3)
_cell_length_c                   9.7128(2)
_cell_angle_alpha                90
_cell_angle_beta                 96.5590(10)
_cell_angle_gamma                90
_cell_volume                     2326.88
_exptl_crystal_colour            colorless
_exptl_crystal_description       plate
_cell_formula_units_Z            4
loop_
_atom_site_label
_atom_site_type_symbol
_atom_site_fract_x
_atom_site_fract_y
_atom_site_fract_z
O1 O 0.12762(4) 0.19504(6) 0.24026(8)
O2 O 0.08997(4) 0.49314(6) 0.46906(7)
O3 O -0.05625(4) 0.41826(6) 0.02740(7)
O4 O 0.13588(5) 0.60710(6) 0.33027(8)
O5 O 0.22437(5) 0.26803(6) 0.14068(9)
O6 O -0.14855(4) 0.45924(5) 0.16497(7)
N1 N 0.23267(6) 0.11082(7) 0.21065(10)
H1 H 0.2094 0.0648 0.2526
N2 N 0.13629(6) 0.63071(7) 0.56176(9)
H2 H 0.1229 0.6063 0.6392
N3 N -0.16945(5) 0.47248(7) -0.06897(9)
H3 H -0.1489 0.4669 -0.1472
C1 C 0.45826(9) 0.20118(15) 0.4470(2)
H4 H 0.4574 0.1511 0.5181
H5 H 0.4611 0.2650 0.4911
H6 H 0.5034 0.1917 0.3971
C2 C 0.38497(9) 0.19455(12) 0.34551(18)
H7 H 0.3398 0.2077 0.3958
H8 H 0.3865 0.2450 0.2736
C3 C 0.37471(8) 0.09685(11) 0.27567(16)
H9 H 0.3675 0.0475 0.3469
H10 H 0.4226 0.0806 0.2350
C4 C 0.30694(8) 0.09119(10) 0.16219(14)
H11 H 0.3154 0.1382 0.0885
H12 H 0.3056 0.0258 0.1206
C5 C 0.19916(7) 0.19723(8) 0.19287(11)
C6 C 0.09055(7) 0.28476(8) 0.24177(12)
C7 C 0.11048(6) 0.34656(8) 0.35180(11)
H13 H 0.1498 0.3299 0.4238
C8 C 0.07141(6) 0.43333(8) 0.35371(11)
C9 C 0.12243(6) 0.58097(8) 0.44455(11)
C10 C 0.17343(7) 0.72520(8) 0.56347(12)
H14 H 0.1534 0.7658 0.6354
H15 H 0.1594 0.7570 0.4728
C11 C 0.26084(7) 0.72006(8) 0.59210(12)
H16 H 0.2827 0.7843 0.5741
H17 H 0.2803 0.6735 0.5270
C12 C 0.28936(7) 0.68971(10) 0.73976(12)
H18 H 0.2679 0.7345 0.8050
H19 H 0.2695 0.6242 0.7564
C13 C 0.37662(8) 0.68903(13) 0.76997(17)
H20 H 0.3984 0.6454 0.7051
H21 H 0.3913 0.6668 0.8651
H22 H 0.3965 0.7545 0.7592
C14 C -0.42207(8) 0.51237(14) -0.36022(15)
H23 H -0.4004 0.5568 -0.4242
H24 H -0.4763 0.5288 -0.3546
H25 H -0.4186 0.4459 -0.3940
C15 C -0.37690(7) 0.52093(11) -0.21730(13)
H26 H -0.3814 0.5879 -0.1832
H27 H -0.4001 0.4773 -0.1527
C16 C -0.29193(7) 0.49598(9) -0.21628(12)
H28 H -0.2870 0.4292 -0.2508
H29 H -0.2682 0.5403 -0.2793
C17 C -0.24950(6) 0.50420(8) -0.07172(11)
H30 H -0.2506 0.5722 -0.0402
H31 H -0.2759 0.4641 -0.0071
C18 C -0.12754(6) 0.45204(7) 0.04934(11)
C19 C -0.00363(6) 0.39537(8) 0.14206(11)
C20 C 0.01422(6) 0.45996(8) 0.24997(11)
H32 H -0.0118 0.5202 0.2527
C21 C 0.03362(6) 0.30717(8) 0.13593(12)
H33 H 0.0204 0.2636 0.0614
loop_
_geom_bond_atom_site_label_1
_geom_bond_atom_site_label_2
_geom_bond_site_symmetry_1
_geom_bond_site_symmetry_2
O1 C5 1_555 1_555
O2 C8 1_555 1_555
O3 C18 1_555 1_555
O4 C9 1_555 1_555
O5 C5 1_555 1_555
O6 C18 1_555 1_555
N1 H1 1_555 1_555
N2 H2 1_555 1_555
N3 H3 1_555 1_555
C1 H4 1_555 1_555
H5 C1 1_555 1_555
H6 C1 1_555 1_555
C2 C1 1_555 1_555
H7 C2 1_555 1_555
H8 C2 1_555 1_555
C3 C2 1_555 1_555
H9 C3 1_555 1_555
H10 C3 1_555 1_555
C4 N1 1_555 1_555
H11 C4 1_555 1_555
H12 C4 1_555 1_555
C5 N1 1_555 1_555
C6 O1 1_555 1_555
C7 C6 1_555 1_555
H13 C7 1_555 1_555
C8 C7 1_555 1_555
C9 O2 1_555 1_555
C10 N2 1_555 1_555
H14 C10 1_555 1_555
H15 C10 1_555 1_555
C11 C10 1_555 1_555
H16 C11 1_555 1_555
H17 C11 1_555 1_555
C12 C11 1_555 1_555
H18 C12 1_555 1_555
H19 C12 1_555 1_555
C13 C12 1_555 1_555
H20 C13 1_555 1_555
H21 C13 1_555 1_555
H22 C13 1_555 1_555
C14 H23 1_555 1_555
H24 C14 1_555 1_555
H25 C14 1_555 1_555
C15 C14 1_555 1_555
H26 C15 1_555 1_555
H27 C15 1_555 1_555
C16 C15 1_555 1_555
H28 C16 1_555 1_555
H29 C16 1_555 1_555
C17 N3 1_555 1_555
H30 C17 1_555 1_555
H31 C17 1_555 1_555
C18 N3 1_555 1_555
C19 O3 1_555 1_555
C20 C8 1_555 1_555
H32 C20 1_555 1_555
C21 C6 1_555 1_555
H33 C21 1_555 1_555
N2 C9 1_555 1_555
C3 C4 1_555 1_555
C16 C17 1_555 1_555
C19 C20 1_555 1_555
C19 C21 1_555 1_555

#END
