
#######################################################################
#
#                 Cambridge Crystallographic Data Centre
#                                CCDC 
#
#######################################################################
#
# If this CIF has been generated from an entry in the Cambridge 
# Structural Database, then it will include bibliographic, chemical, 
# crystal, experimental, refinement or atomic coordinate data resulting 
# from the CCDC's data processing and validation procedures.
#
#######################################################################

data_BIZFIA
_chemical_formula_moiety         'C9 H11 N1 O2'
_chemical_name_systematic        'Methyl 4-amino-3-methylbenzoate'
_symmetry_cell_setting           monoclinic
_symmetry_space_group_name_H-M   'P 21/c'
_symmetry_Int_Tables_number      14
_space_group_name_Hall           '-P 2ybc'
loop_
_symmetry_equiv_pos_site_id
_symmetry_equiv_pos_as_xyz
1 x,y,z
2 -x,1/2+y,1/2-z
3 -x,-y,-z
4 x,1/2-y,1/2+z
_cell_length_a                   7.5670(15)
_cell_length_b                   6.1080(12)
_cell_length_c                   18.127(4)
_cell_angle_alpha                90
_cell_angle_beta                 98.14(3)
_cell_angle_gamma                90
_cell_volume                     829.375
_exptl_crystal_colour            colorless
_exptl_crystal_description       block
_chemical_melting_point          '391 K'
_cell_formula_units_Z            4
_exptl_crystal_recrystallization_method ethanol
loop_
_atom_site_label
_atom_site_type_symbol
_atom_site_fract_x
_atom_site_fract_y
_atom_site_fract_z
N1 N 0.8206(4) 0.4908(5) 0.17914(15)
H1 H 0.8716 0.6166 0.1792
H2 H 0.7811 0.4279 0.1376
O1 O 0.6922(3) -0.1169(4) 0.44629(12)
O2 O 0.8163(4) 0.1644(4) 0.51362(13)
C1 C 0.6852(5) -0.2393(6) 0.51341(18)
H3 H 0.6303 -0.3788 0.5012
H4 H 0.6164 -0.1599 0.5451
H5 H 0.8041 -0.2610 0.5388
C2 C 0.7641(4) 0.0832(5) 0.45389(18)
C3 C 0.7726(4) 0.1877(5) 0.38130(17)
C4 C 0.7052(4) 0.0892(5) 0.31364(17)
H6 H 0.6496 -0.0464 0.3145
C5 C 0.7176(4) 0.1847(5) 0.24532(17)
C6 C 0.8021(4) 0.3903(5) 0.24530(17)
C7 C 0.8662(4) 0.4927(5) 0.31251(18)
H7 H 0.9196 0.6297 0.3120
C8 C 0.8517(4) 0.3940(5) 0.37935(18)
H8 H 0.8947 0.4649 0.4237
C9 C 0.6433(5) 0.0725(6) 0.17397(18)
H9 H 0.5906 -0.0644 0.1851
H10 H 0.7377 0.0463 0.1448
H11 H 0.5541 0.1639 0.1464
loop_
_geom_bond_atom_site_label_1
_geom_bond_atom_site_label_2
_geom_bond_site_symmetry_1
_geom_bond_site_symmetry_2
N1 H1 1_555 1_555
H2 N1 1_555 1_555
O1 C1 1_555 1_555
O2 C2 1_555 1_555
C1 H3 1_555 1_555
H4 C1 1_555 1_555
H5 C1 1_555 1_555
C2 O1 1_555 1_555
C3 C2 1_555 1_555
C4 C3 1_555 1_555
H6 C4 1_555 1_555
C5 C4 1_555 1_555
C6 N1 1_555 1_555
C7 C6 1_555 1_555
H7 C7 1_555 1_555
C8 C3 1_555 1_555
H8 C8 1_555 1_555
C9 C5 1_555 1_555
H9 C9 1_555 1_555
H10 C9 1_555 1_555
H11 C9 1_555 1_555
C5 C6 1_555 1_555
C7 C8 1_555 1_555

#END
