
#######################################################################
#
#                 Cambridge Crystallographic Data Centre
#                                CCDC 
#
#######################################################################
#
# If this CIF has been generated from an entry in the Cambridge 
# Structural Database, then it will include bibliographic, chemical, 
# crystal, experimental, refinement or atomic coordinate data resulting 
# from the CCDC's data processing and validation procedures.
#
#######################################################################

data_BIZGEX
_chemical_formula_moiety         'C29 H16 F6 N2 S2'
_chemical_name_systematic        
1,2-bis(5-(4-cyanophenyl)-2-methyl-3-thienyl)-3,3,4,4,5,5-hexafluorocyclopent-1-ene
_symmetry_cell_setting           monoclinic
_symmetry_space_group_name_H-M   'C 2/c'
_symmetry_Int_Tables_number      15
_space_group_name_Hall           '-C 2yn'
loop_
_symmetry_equiv_pos_site_id
_symmetry_equiv_pos_as_xyz
1 x,y,z
2 1/2+x,1/2+y,z
3 -x,y,1/2-z
4 1/2-x,1/2+y,1/2-z
5 -x,-y,-z
6 1/2-x,1/2-y,-z
7 x,-y,1/2+z
8 1/2+x,1/2-y,1/2+z
_cell_length_a                   24.987(10)
_cell_length_b                   9.276(4)
_cell_length_c                   10.774(4)
_cell_angle_alpha                90
_cell_angle_beta                 95.911(7)
_cell_angle_gamma                90
_cell_volume                     2483.91
_exptl_crystal_colour            colorless
_exptl_crystal_description       block
_chemical_melting_point          '485.7 K'
_cell_formula_units_Z            4
_exptl_crystal_recrystallization_method hexane
loop_
_atom_site_label
_atom_site_type_symbol
_atom_site_fract_x
_atom_site_fract_y
_atom_site_fract_z
S1 S 0.12440(3) 0.06080(7) 0.81522(6)
F1 F 0.04313(8) 0.57014(18) 0.94258(16)
F2 F 0.09200(7) 0.57943(19) 0.7907(2)
F3 F -0.02249(10) 0.7331(3) 0.8302(2)
N1 N 0.34207(11) 0.1164(3) 1.4057(3)
C1 C 0.13504(10) 0.1761(3) 0.9418(2)
C2 C 0.09893(10) 0.2871(3) 0.9294(2)
H1 H 0.0981 0.3621 0.9893
C3 C 0.06264(10) 0.2802(3) 0.8183(2)
C4 C 0.07183(10) 0.1622(3) 0.7454(2)
C5 C 0.17915(10) 0.1560(3) 1.0408(2)
C6 C 0.17718(11) 0.2247(3) 1.1548(2)
H2 H 0.1462 0.2791 1.1693
C7 C 0.21958(11) 0.2150(3) 1.2473(3)
H3 H 0.2177 0.2624 1.3248
C8 C 0.26506(10) 0.1355(3) 1.2265(3)
C9 C 0.26789(11) 0.0656(3) 1.1132(3)
H4 H 0.2990 0.0118 1.0988
C10 C 0.22495(11) 0.0750(3) 1.0215(3)
H5 H 0.2265 0.0260 0.9445
C11 C 0.30895(11) 0.1252(3) 1.3245(3)
C12 C 0.02472(10) 0.3973(3) 0.7823(2)
C13 C 0.04203(10) 0.5483(3) 0.8172(3)
C14 C 0.0000 0.6490(4) 0.7500
C15 C 0.04599(12) 0.1178(3) 0.6201(3)
H6 H 0.0714 0.0602 0.5775
H7 H 0.0358 0.2039 0.5704
H8 H 0.0138 0.0603 0.6302
S1B S -0.12440(3) 0.06080(7) 0.68478(6)
F1B F -0.04313(8) 0.57014(18) 0.55742(16)
F2B F -0.09200(7) 0.57943(19) 0.7093(2)
F3B F 0.02249(10) 0.7331(3) 0.6698(2)
N1B N -0.34207(11) 0.1164(3) 0.0943(3)
C1B C -0.13504(10) 0.1761(3) 0.5582(2)
C2B C -0.09893(10) 0.2871(3) 0.5706(2)
H1B H -0.0981 0.3621 0.5107
C3B C -0.06264(10) 0.2802(3) 0.6817(2)
C4B C -0.07183(10) 0.1622(3) 0.7546(2)
C5B C -0.17915(10) 0.1560(3) 0.4592(2)
C6B C -0.17718(11) 0.2247(3) 0.3452(2)
H2B H -0.1462 0.2791 0.3307
C7B C -0.21958(11) 0.2150(3) 0.2527(3)
H3B H -0.2177 0.2624 0.1752
C8B C -0.26506(10) 0.1355(3) 0.2735(3)
C9B C -0.26789(11) 0.0656(3) 0.3868(3)
H4B H -0.2990 0.0118 0.4012
C10B C -0.22495(11) 0.0750(3) 0.4785(3)
H5B H -0.2265 0.0260 0.5555
C11B C -0.30895(11) 0.1252(3) 0.1755(3)
C12B C -0.02472(10) 0.3973(3) 0.7177(2)
C13B C -0.04203(10) 0.5483(3) 0.6828(3)
C15B C -0.04599(12) 0.1178(3) 0.8799(3)
H6B H -0.0714 0.0602 0.9225
H7B H -0.0358 0.2039 0.9296
H8B H -0.0138 0.0603 0.8698
loop_
_geom_bond_atom_site_label_1
_geom_bond_atom_site_label_2
_geom_bond_site_symmetry_1
_geom_bond_site_symmetry_2
S1 C1 1_555 1_555
F1 C13 1_555 1_555
F2 C13 1_555 1_555
F3 C14 1_555 1_555
N1 C11 1_555 1_555
C1 C2 1_555 1_555
C2 H1 1_555 1_555
C3 C2 1_555 1_555
C4 S1 1_555 1_555
C5 C1 1_555 1_555
C6 C5 1_555 1_555
H2 C6 1_555 1_555
C7 C6 1_555 1_555
H3 C7 1_555 1_555
C8 C7 1_555 1_555
C9 C8 1_555 1_555
H4 C9 1_555 1_555
C10 C5 1_555 1_555
H5 C10 1_555 1_555
C11 C8 1_555 1_555
C12 C3 1_555 1_555
C13 C12 1_555 1_555
C14 C13 1_555 1_555
C15 C4 1_555 1_555
H6 C15 1_555 1_555
H7 C15 1_555 1_555
H8 C15 1_555 1_555
S1B C1B 1_555 1_555
F1B C13B 1_555 1_555
F2B C13B 1_555 1_555
F3B C14 1_555 1_555
N1B C11B 1_555 1_555
C1B C2B 1_555 1_555
C2B H1B 1_555 1_555
C3B C2B 1_555 1_555
C4B S1B 1_555 1_555
C5B C1B 1_555 1_555
C6B C5B 1_555 1_555
H2B C6B 1_555 1_555
C7B C6B 1_555 1_555
H3B C7B 1_555 1_555
C8B C7B 1_555 1_555
C9B C8B 1_555 1_555
H4B C9B 1_555 1_555
C10B C5B 1_555 1_555
H5B C10B 1_555 1_555
C11B C8B 1_555 1_555
C12B C12 1_555 1_555
C13B C14 1_555 1_555
C15B C4B 1_555 1_555
H6B C15B 1_555 1_555
H7B C15B 1_555 1_555
H8B C15B 1_555 1_555
C3 C4 1_555 1_555
C9 C10 1_555 1_555
C3B C4B 1_555 1_555
C3B C12B 1_555 1_555
C9B C10B 1_555 1_555
C12B C13B 1_555 1_555

#END
