
#######################################################################
#
#                 Cambridge Crystallographic Data Centre
#                                CCDC 
#
#######################################################################
#
# If this CIF has been generated from an entry in the Cambridge 
# Structural Database, then it will include bibliographic, chemical, 
# crystal, experimental, refinement or atomic coordinate data resulting 
# from the CCDC's data processing and validation procedures.
#
#######################################################################

data_BIZMAZ
_chemical_formula_moiety         '2(C6 H7 N3 O1),C14 H10 O4 S2'
_chemical_name_systematic        
"bis(isonicotinohydrazide) 2,2'-dithiodibenzoic acid"
_symmetry_cell_setting           triclinic
_symmetry_space_group_name_H-M   'P -1'
_symmetry_Int_Tables_number      2
_space_group_name_Hall           '-P 1'
loop_
_symmetry_equiv_pos_site_id
_symmetry_equiv_pos_as_xyz
1 x,y,z
2 -x,-y,-z
_cell_length_a                   9.8821(8)
_cell_length_b                   11.0170(9)
_cell_length_c                   12.2592(10)
_cell_angle_alpha                83.4440(10)
_cell_angle_beta                 88.0540(10)
_cell_angle_gamma                84.3450(10)
_cell_volume                     1319.14
_exptl_crystal_colour            red
_exptl_crystal_description       plate
_cell_formula_units_Z            2
loop_
_atom_site_label
_atom_site_type_symbol
_atom_site_fract_x
_atom_site_fract_y
_atom_site_fract_z
C1 C -0.1097(3) 0.1583(2) 0.5380(2)
C2 C -0.0377(3) 0.1620(3) 0.4392(2)
H1 H -0.0531 0.1083 0.3886
C3 C 0.0569(3) 0.2458(3) 0.4161(2)
H2 H 0.1051 0.2467 0.3496
C4 C 0.0106(3) 0.3232(3) 0.5793(3)
H3 H 0.0256 0.3798 0.6273
C5 C -0.0837(3) 0.2418(3) 0.6090(2)
H4 H -0.1298 0.2426 0.6763
C6 C -0.2102(3) 0.0675(3) 0.5739(2)
N1 N 0.0821(2) 0.3255(2) 0.4850(2)
N2 N -0.2642(3) 0.0154(3) 0.4958(2)
H5 H -0.244(3) 0.037(3) 0.431(3)
N3 N -0.3597(3) -0.0714(3) 0.5175(3)
H6 H -0.326(4) -0.135(2) 0.555(3)
H7 H -0.421(3) -0.046(3) 0.555(2)
O1 O -0.2380(2) 0.0435(2) 0.67213(17)
C7 C 1.6566(3) 0.0793(2) 0.1208(2)
C8 C 1.5404(3) 0.0694(3) 0.1846(3)
H8 H 1.5454 0.0298 0.2558
C9 C 1.4171(3) 0.1179(3) 0.1434(3)
H9 H 1.3402 0.1112 0.1887
C10 C 1.5144(3) 0.1830(3) -0.0202(3)
H10 H 1.5063 0.2220 -0.0914
C11 C 1.6411(3) 0.1381(3) 0.0153(2)
H11 H 1.7167 0.1469 -0.0312
N4 N 1.4015(2) 0.1739(2) 0.0422(2)
C12 C 1.7903(3) 0.0284(3) 0.1687(2)
N5 N 1.8966(3) 0.0221(2) 0.0996(2)
H12 H 1.886(3) 0.038(3) 0.029(3)
N6 N 2.0265(3) -0.0290(3) 0.1353(2)
H13 H 2.055(3) -0.073(2) 0.1978(16)
H14 H 2.063(3) 0.0379(13) 0.139(2)
O2 O 1.8005(2) -0.0061(2) 0.26723(16)
C13 C 0.4765(3) 0.5258(2) 0.3540(2)
C14 C 0.5966(3) 0.4930(2) 0.2951(2)
C15 C 0.6845(3) 0.5827(3) 0.2644(2)
H15 H 0.7643 0.5626 0.2253
C16 C 0.6554(3) 0.7004(3) 0.2908(3)
H16 H 0.7150 0.7593 0.2688
C17 C 0.5384(3) 0.7318(3) 0.3498(3)
H17 H 0.5193 0.8112 0.3686
C18 C 0.4507(3) 0.6443(3) 0.3803(2)
H18 H 0.3716 0.6655 0.4199
C19 C 0.3751(3) 0.4353(3) 0.3851(2)
C20 C 0.9415(3) 0.3499(3) -0.0036(2)
C21 C 0.8277(3) 0.3781(2) 0.0644(2)
C22 C 0.7142(3) 0.4466(3) 0.0174(2)
H19 H 0.6381 0.4651 0.0614
C23 C 0.7128(3) 0.4875(3) -0.0929(3)
H20 H 0.6369 0.5351 -0.1224
C24 C 0.8230(4) 0.4582(3) -0.1597(3)
H21 H 0.8211 0.4842 -0.2346
C25 C 0.9349(3) 0.3908(3) -0.1152(2)
H22 H 1.0092 0.3716 -0.1608
C26 C 1.0681(3) 0.2813(3) 0.0411(2)
O3 O 0.3859(2) 0.3334(2) 0.35568(18)
O4 O 0.2723(2) 0.4780(2) 0.44413(17)
H23 H 0.206(4) 0.418(3) 0.464(3)
O5 O 1.0847(2) 0.2491(2) 0.13772(17)
O6 O 1.1615(2) 0.2591(2) -0.03501(18)
H24 H 1.243(4) 0.233(4) -0.001(3)
S1 S 0.63294(8) 0.33963(7) 0.26177(6)
S2 S 0.83205(8) 0.32746(7) 0.20758(6)
loop_
_geom_bond_atom_site_label_1
_geom_bond_atom_site_label_2
_geom_bond_site_symmetry_1
_geom_bond_site_symmetry_2
C1 C2 1_555 1_555
C2 H1 1_555 1_555
C3 C2 1_555 1_555
H2 C3 1_555 1_555
C4 H3 1_555 1_555
C5 C1 1_555 1_555
H4 C5 1_555 1_555
C6 C1 1_555 1_555
N1 C3 1_555 1_555
N2 C6 1_555 1_555
H5 N2 1_555 1_555
N3 N2 1_555 1_555
H6 N3 1_555 1_555
H7 N3 1_555 1_555
O1 C6 1_555 1_555
C7 C8 1_555 1_555
C8 H8 1_555 1_555
C9 C8 1_555 1_555
H9 C9 1_555 1_555
C10 H10 1_555 1_555
C11 C7 1_555 1_555
H11 C11 1_555 1_555
N4 C9 1_555 1_555
C12 C7 1_555 1_555
N5 C12 1_555 1_555
H12 N5 1_555 1_555
N6 N5 1_555 1_555
H13 N6 1_555 1_555
H14 N6 1_555 1_555
O2 C12 1_555 1_555
C13 C14 1_555 1_555
C14 C15 1_555 1_555
C15 H15 1_555 1_555
C16 C15 1_555 1_555
H16 C16 1_555 1_555
C17 C16 1_555 1_555
H17 C17 1_555 1_555
C18 C13 1_555 1_555
H18 C18 1_555 1_555
C19 C13 1_555 1_555
C20 C21 1_555 1_555
C21 C22 1_555 1_555
C22 H19 1_555 1_555
C23 C22 1_555 1_555
H20 C23 1_555 1_555
C24 C23 1_555 1_555
H21 C24 1_555 1_555
C25 C20 1_555 1_555
H22 C25 1_555 1_555
C26 C20 1_555 1_555
O3 C19 1_555 1_555
O4 C19 1_555 1_555
H23 O4 1_555 1_555
O5 C26 1_555 1_555
O6 C26 1_555 1_555
H24 O6 1_555 1_555
S1 C14 1_555 1_555
S2 C21 1_555 1_555
C4 C5 1_555 1_555
C4 N1 1_555 1_555
C10 C11 1_555 1_555
C10 N4 1_555 1_555
C17 C18 1_555 1_555
C24 C25 1_555 1_555
S1 S2 1_555 1_555

#END
