
#######################################################################
#
#                 Cambridge Crystallographic Data Centre
#                                CCDC 
#
#######################################################################
#
# If this CIF has been generated from an entry in the Cambridge 
# Structural Database, then it will include bibliographic, chemical, 
# crystal, experimental, refinement or atomic coordinate data resulting 
# from the CCDC's data processing and validation procedures.
#
#######################################################################

data_BIZMUU
_chemical_formula_moiety         
'2(C6 H9 N3 O1 2+),4(B1 F4 1-),3(C12 H24 O6),4(H2 O1)'
_chemical_name_systematic        
'bis(Isonicotinohydrazinium) tetrakis(tetrafluoroborate) tris(18-crown-6) tetrahydrate'
_symmetry_cell_setting           monoclinic
_symmetry_space_group_name_H-M   'P 21/c'
_symmetry_Int_Tables_number      14
_space_group_name_Hall           '-P 2ybc'
loop_
_symmetry_equiv_pos_site_id
_symmetry_equiv_pos_as_xyz
1 x,y,z
2 -x,1/2+y,1/2-z
3 -x,-y,-z
4 x,1/2-y,1/2+z
_cell_length_a                   17.415(4)
_cell_length_b                   8.8817(18)
_cell_length_c                   23.870(5)
_cell_angle_alpha                90
_cell_angle_beta                 97.56(3)
_cell_angle_gamma                90
_cell_volume                     3659.99
_cell_formula_units_Z            4
loop_
_atom_site_label
_atom_site_type_symbol
_atom_site_fract_x
_atom_site_fract_y
_atom_site_fract_z
O7 O 0.3742(6) 0.3366(11) 0.4039(4)
N1 N 0.3195(6) 0.5503(11) 0.3678(4)
N2 N 0.3864(6) 0.5738(13) 0.3382(5)
C13 C 0.3237(7) 0.4227(13) 0.4014(5)
C14 C 0.2586(7) 0.4063(14) 0.4355(5)
N3 N 0.1433(7) 0.3614(14) 0.5010(5)
C15 C 0.2335(9) 0.5137(17) 0.4691(6)
C16 C 0.1699(11) 0.235(2) 0.4704(8)
C17 C 0.2248(9) 0.2632(17) 0.4366(6)
C18 C 0.1709(11) 0.486(2) 0.4953(8)
F1 F 0.2642(7) 0.7104(14) 0.0646(5)
F2 F 0.2508(8) 0.5894(15) -0.0158(5)
B1 B 0.2796(11) 0.584(2) 0.0404(8)
F3 F 0.2364(11) 0.465(2) 0.0569(8)
F4 F 0.3568(11) 0.573(2) 0.0460(8)
F5 F 0.1180(9) -0.0569(19) 0.2797(7)
F6 F 0.1623(11) 0.1815(19) 0.2980(8)
B2 B 0.1081(13) 0.073(2) 0.3077(9)
F7 F 0.1327(11) 0.010(2) 0.3659(8)
F8 F 0.0394(14) 0.130(3) 0.2943(10)
O1 O 0.3094(8) 0.8033(16) 0.2703(6)
O2 O 0.4247(7) 0.3197(13) 0.2682(5)
O3 O 0.5391(8) 0.4182(15) 0.3558(5)
O4 O 0.3263(7) 0.5395(14) 0.2202(5)
O5 O 0.4129(8) 0.8898(16) 0.3600(6)
C1 C 0.5020(11) 0.248(2) 0.2860(8)
C2 C 0.3210(14) 0.380(3) 0.2035(10)
C3 C 0.5296(14) 0.260(3) 0.3424(11)
C4 C 0.2649(12) 0.772(3) 0.2136(9)
C5 C 0.4012(13) 0.311(2) 0.2158(9)
C6 C 0.5627(13) 0.436(3) 0.4175(10)
C7 C 0.3488(17) 0.971(3) 0.3404(12)
C8 C 0.2453(16) 0.641(3) 0.2077(11)
C9 C 0.3226(15) 0.957(3) 0.2818(11)
C10 C 0.4998(18) 0.854(3) 0.4308(11)
C11 C 0.4294(15) 0.898(3) 0.4226(10)
C12 C 0.559(3) 0.569(7) 0.422(2)
O6 O 0.5413(16) 0.715(3) 0.4439(11)
loop_
_geom_bond_atom_site_label_1
_geom_bond_atom_site_label_2
_geom_bond_site_symmetry_1
_geom_bond_site_symmetry_2
O1 C4 1_555 1_555
O2 C1 1_555 1_555
O3 C3 1_555 1_555
O4 C2 1_555 1_555
O5 C7 1_555 1_555
C1 C3 1_555 1_555
C2 C5 1_555 1_555
C4 C8 1_555 1_555
C5 O2 1_555 1_555
C6 O3 1_555 1_555
C7 C9 1_555 1_555
C8 O4 1_555 1_555
C9 O1 1_555 1_555
C10 C11 1_555 1_555
C11 O5 1_555 1_555
C12 C6 1_555 1_555
O6 C10 1_555 1_555
O7 C13 1_555 1_555
N1 N2 1_555 1_555
C13 N1 1_555 1_555
C14 C13 1_555 1_555
N3 C16 1_555 1_555
C15 C14 1_555 1_555
C16 C17 1_555 1_555
C17 C14 1_555 1_555
C18 N3 1_555 1_555
F1 B1 1_555 1_555
F2 B1 1_555 1_555
B1 F3 1_555 1_555
F4 B1 1_555 1_555
F5 B2 1_555 1_555
F6 B2 1_555 1_555
B2 F7 1_555 1_555
F8 B2 1_555 1_555
C12 O6 1_555 1_555
C15 C18 1_555 1_555

#END
