
#######################################################################
#
#                 Cambridge Crystallographic Data Centre
#                                CCDC 
#
#######################################################################
#
# If this CIF has been generated from an entry in the Cambridge 
# Structural Database, then it will include bibliographic, chemical, 
# crystal, experimental, refinement or atomic coordinate data resulting 
# from the CCDC's data processing and validation procedures.
#
#######################################################################

data_BIZNAB
_chemical_formula_moiety         '2(C10 H20 O5),C12 H14 N2 2+,2(B1 F4 1-)'
_chemical_name_systematic        
"Biphenyl-4,4'-diaminium bis(tetrafluoroborate) bis(15-crown-5)"
_symmetry_cell_setting           monoclinic
_symmetry_space_group_name_H-M   'P 21/n'
_symmetry_Int_Tables_number      14
_space_group_name_Hall           '-P 2yn'
loop_
_symmetry_equiv_pos_site_id
_symmetry_equiv_pos_as_xyz
1 x,y,z
2 1/2-x,1/2+y,1/2-z
3 -x,-y,-z
4 1/2+x,1/2-y,1/2+z
_cell_length_a                   8.7630(18)
_cell_length_b                   14.503(3)
_cell_length_c                   15.775(3)
_cell_angle_alpha                90
_cell_angle_beta                 98.41(3)
_cell_angle_gamma                90
_cell_volume                     1983.28
_cell_formula_units_Z            2
loop_
_atom_site_label
_atom_site_type_symbol
_atom_site_fract_x
_atom_site_fract_y
_atom_site_fract_z
B1 B 0.5670(7) 0.9540(5) 0.2457(4)
F1 F 0.4995(7) 0.9167(4) 0.3073(4)
F2 F 0.5039(5) 0.9334(4) 0.1663(3)
F3 F 0.5462(5) 1.0480(3) 0.2577(3)
F4 F 0.7244(4) 0.9360(3) 0.2584(2)
O1 O 0.2153(5) 0.1267(3) 0.1075(3)
C1 C 0.0208(9) 0.0861(4) 0.1922(5)
H1 H -0.0405 0.0564 0.1436
H2 H 0.0037 0.0541 0.2440
O2 O 0.0638(5) 0.1422(3) -0.0645(3)
C2 C 0.1869(9) 0.0827(5) 0.1828(5)
H3 H 0.2470 0.1123 0.2318
H4 H 0.2196 0.0188 0.1817
O3 O -0.1577(5) 0.2829(3) -0.0952(3)
C3 C 0.2367(7) 0.0684(5) 0.0407(5)
H5 H 0.1638 0.0179 0.0388
H6 H 0.3398 0.0425 0.0520
O4 O -0.2631(4) 0.2420(3) 0.0628(3)
C4 C 0.2172(7) 0.1140(6) -0.0436(5)
H7 H 0.2852 0.1670 -0.0418
H8 H 0.2437 0.0716 -0.0867
O5 O -0.0216(5) 0.1781(3) 0.1965(3)
C5 C 0.0301(9) 0.1871(5) -0.1451(4)
H9 H 0.0496 0.1462 -0.1910
H10 H 0.0933 0.2419 -0.1465
C6 C -0.1394(10) 0.2128(5) -0.1550(4)
H11 H -0.1740 0.2345 -0.2128
H12 H -0.2005 0.1593 -0.1445
C7 C -0.3163(8) 0.2945(5) -0.0812(5)
H13 H -0.3844 0.2832 -0.1344
H14 H -0.3319 0.3575 -0.0638
C8 C -0.3560(7) 0.2305(5) -0.0144(5)
H15 H -0.4625 0.2405 -0.0066
H16 H -0.3467 0.1676 -0.0337
C9 C -0.2917(7) 0.1796(5) 0.1259(5)
H17 H -0.2848 0.1172 0.1046
H18 H -0.3954 0.1888 0.1389
C10 C -0.1794(8) 0.1913(5) 0.2052(4)
H19 H -0.1911 0.2531 0.2270
H20 H -0.2059 0.1483 0.2478
N1 N 0.0590(4) 0.3031(3) 0.0618(3)
H21 H 0.0675 0.2712 0.1082
H22 H -0.0256 0.3018 0.0265
C11 C 0.3233(6) 0.3625(4) 0.0986(3)
H23 H 0.3335 0.3275 0.1485
C12 C 0.4452(5) 0.4167(4) 0.0817(3)
H24 H 0.5365 0.4166 0.1201
C13 C 0.4347(4) 0.4709(3) 0.0094(3)
C14 C 0.2957(6) 0.4674(4) -0.0456(4)
H25 H 0.2848 0.5022 -0.0956
C15 C 0.1730(6) 0.4138(4) -0.0287(4)
H26 H 0.0804 0.4147 -0.0660
C16 C 0.1880(5) 0.3596(3) 0.0431(3)
N1B N 0.9410(4) 0.6969(3) -0.0618(3)
H21B H 0.9325 0.7288 -0.1082
H22B H 1.0256 0.6982 -0.0265
C11B C 0.6767(6) 0.6375(4) -0.0986(3)
H23B H 0.6665 0.6725 -0.1485
C12B C 0.5548(5) 0.5833(4) -0.0817(3)
H24B H 0.4635 0.5834 -0.1201
C13B C 0.5653(4) 0.5291(3) -0.0094(3)
C14B C 0.7043(6) 0.5326(4) 0.0456(4)
H25B H 0.7152 0.4978 0.0956
C15B C 0.8270(6) 0.5862(4) 0.0287(4)
H26B H 0.9196 0.5853 0.0660
C16B C 0.8120(5) 0.6404(3) -0.0431(3)
loop_
_geom_bond_atom_site_label_1
_geom_bond_atom_site_label_2
_geom_bond_site_symmetry_1
_geom_bond_site_symmetry_2
B1 F1 1_555 1_555
F2 B1 1_555 1_555
F3 B1 1_555 1_555
F4 B1 1_555 1_555
O1 C2 1_555 1_555
C1 H1 1_555 1_555
H2 C1 1_555 1_555
O2 C4 1_555 1_555
C2 C1 1_555 1_555
H3 C2 1_555 1_555
H4 C2 1_555 1_555
O3 C6 1_555 1_555
C3 O1 1_555 1_555
H5 C3 1_555 1_555
H6 C3 1_555 1_555
O4 C8 1_555 1_555
C4 C3 1_555 1_555
H7 C4 1_555 1_555
H8 C4 1_555 1_555
O5 C1 1_555 1_555
C5 O2 1_555 1_555
H9 C5 1_555 1_555
H10 C5 1_555 1_555
C6 C5 1_555 1_555
H11 C6 1_555 1_555
H12 C6 1_555 1_555
C7 O3 1_555 1_555
H13 C7 1_555 1_555
H14 C7 1_555 1_555
C8 C7 1_555 1_555
H15 C8 1_555 1_555
H16 C8 1_555 1_555
C9 O4 1_555 1_555
H17 C9 1_555 1_555
H18 C9 1_555 1_555
C10 O5 1_555 1_555
H19 C10 1_555 1_555
H20 C10 1_555 1_555
N1 H21 1_555 1_555
H22 N1 1_555 1_555
C11 H23 1_555 1_555
C12 C11 1_555 1_555
H24 C12 1_555 1_555
C13 C12 1_555 1_555
C14 C13 1_555 1_555
H25 C14 1_555 1_555
C15 C14 1_555 1_555
H26 C15 1_555 1_555
C16 N1 1_555 1_555
N1B H21B 1_555 1_555
H22B N1B 1_555 1_555
C11B H23B 1_555 1_555
C12B C11B 1_555 1_555
H24B C12B 1_555 1_555
C13B C13 1_555 1_555
C14B C13B 1_555 1_555
H25B C14B 1_555 1_555
C15B C14B 1_555 1_555
H26B C15B 1_555 1_555
C16B N1B 1_555 1_555
C9 C10 1_555 1_555
C11 C16 1_555 1_555
C15 C16 1_555 1_555
C11B C16B 1_555 1_555
C12B C13B 1_555 1_555
C15B C16B 1_555 1_555

#END
