
#######################################################################
#
#                 Cambridge Crystallographic Data Centre
#                                CCDC 
#
#######################################################################
#
# If this CIF has been generated from an entry in the Cambridge 
# Structural Database, then it will include bibliographic, chemical, 
# crystal, experimental, refinement or atomic coordinate data resulting 
# from the CCDC's data processing and validation procedures.
#
#######################################################################

data_BIZNEE
_chemical_formula_moiety         'C18 H24 N2 O2'
_chemical_name_systematic        
N,N'-bis(2-(hydroxymethyl)benzyl)ethylenediamine
_symmetry_cell_setting           monoclinic
_symmetry_space_group_name_H-M   'P 21/c'
_symmetry_Int_Tables_number      14
_space_group_name_Hall           '-P 2ybc'
loop_
_symmetry_equiv_pos_site_id
_symmetry_equiv_pos_as_xyz
1 x,y,z
2 -x,1/2+y,1/2-z
3 -x,-y,-z
4 x,1/2-y,1/2+z
_cell_length_a                   14.0939(2)
_cell_length_b                   6.9520(6)
_cell_length_c                   8.6661(7)
_cell_angle_alpha                90
_cell_angle_beta                 99.226(3)
_cell_angle_gamma                90
_cell_volume                     838.127
_exptl_crystal_colour            colorless
_exptl_crystal_description       plate
_cell_formula_units_Z            2
_exptl_crystal_recrystallization_method methanol
loop_
_atom_site_label
_atom_site_type_symbol
_atom_site_fract_x
_atom_site_fract_y
_atom_site_fract_z
C1 C 0.03897(10) 0.5581(2) 0.04839(17)
H1 H 0.0961 0.5573 -0.0009
H2 H 0.0178 0.6904 0.0539
C2 C 0.14354(11) 0.5793(2) 0.30179(18)
H3 H 0.1460 0.5439 0.4106
H4 H 0.1333 0.7171 0.2932
C3 C 0.23822(10) 0.5299(2) 0.25108(16)
C4 C 0.28947(12) 0.6709(2) 0.18559(19)
H5 H 0.2643 0.7944 0.1720
C5 C 0.37728(13) 0.6309(3) 0.1402(2)
H6 H 0.4105 0.7269 0.0965
C6 C 0.41484(12) 0.4495(4) 0.1601(2)
H7 H 0.4742 0.4222 0.1313
C7 C 0.36465(11) 0.3079(3) 0.2225(2)
H8 H 0.3906 0.1847 0.2342
C8 C 0.27637(10) 0.3429(2) 0.26864(16)
C9 C 0.22174(11) 0.1824(2) 0.33094(18)
H9 H 0.2649 0.0751 0.3604
H10 H 0.1981 0.2262 0.4240
N1 N 0.06208(8) 0.47920(18) 0.20610(14)
H11 H 0.0101(12) 0.497(2) 0.2493(19)
O1 O 0.14228(8) 0.11842(16) 0.21829(13)
H12 H 0.1056(14) 0.227(3) 0.197(2)
C1B C -0.03897(10) 0.4419(2) -0.04839(17)
H1B H -0.0961 0.4427 0.0009
H2B H -0.0178 0.3096 -0.0539
C2B C -0.14354(11) 0.4207(2) -0.30179(18)
H3B H -0.1460 0.4561 -0.4106
H4B H -0.1333 0.2829 -0.2932
C3B C -0.23822(10) 0.4701(2) -0.25108(16)
C4B C -0.28947(12) 0.3291(2) -0.18559(19)
H5B H -0.2643 0.2056 -0.1720
C5B C -0.37728(13) 0.3691(3) -0.1402(2)
H6B H -0.4105 0.2731 -0.0965
C6B C -0.41484(12) 0.5505(4) -0.1601(2)
H7B H -0.4742 0.5778 -0.1313
C7B C -0.36465(11) 0.6921(3) -0.2225(2)
H8B H -0.3906 0.8153 -0.2342
C8B C -0.27637(10) 0.6571(2) -0.26864(16)
C9B C -0.22174(11) 0.8176(2) -0.33094(18)
H9B H -0.2649 0.9249 -0.3604
H10B H -0.1981 0.7738 -0.4240
N1B N -0.06208(8) 0.52080(18) -0.20610(14)
H11B H -0.0101(12) 0.503(2) -0.2493(19)
O1B O -0.14228(8) 0.88158(16) -0.21829(13)
H12B H -0.1056(14) 0.773(3) -0.197(2)
loop_
_geom_bond_atom_site_label_1
_geom_bond_atom_site_label_2
_geom_bond_site_symmetry_1
_geom_bond_site_symmetry_2
C1 H1 1_555 1_555
H2 C1 1_555 1_555
C2 H3 1_555 1_555
H4 C2 1_555 1_555
C3 C2 1_555 1_555
C4 C3 1_555 1_555
H5 C4 1_555 1_555
C5 C4 1_555 1_555
H6 C5 1_555 1_555
C6 C5 1_555 1_555
H7 C6 1_555 1_555
C7 C6 1_555 1_555
H8 C7 1_555 1_555
C8 C3 1_555 1_555
C9 C8 1_555 1_555
H9 C9 1_555 1_555
H10 C9 1_555 1_555
N1 C1 1_555 1_555
H11 N1 1_555 1_555
O1 C9 1_555 1_555
H12 O1 1_555 1_555
C1B C1 1_555 1_555
H1B C1B 1_555 1_555
H2B C1B 1_555 1_555
C2B H3B 1_555 1_555
H4B C2B 1_555 1_555
C3B C2B 1_555 1_555
C4B C3B 1_555 1_555
H5B C4B 1_555 1_555
C5B C4B 1_555 1_555
H6B C5B 1_555 1_555
C6B C5B 1_555 1_555
H7B C6B 1_555 1_555
C7B C6B 1_555 1_555
H8B C7B 1_555 1_555
C8B C3B 1_555 1_555
C9B C8B 1_555 1_555
H9B C9B 1_555 1_555
H10B C9B 1_555 1_555
N1B C1B 1_555 1_555
H11B N1B 1_555 1_555
O1B C9B 1_555 1_555
H12B O1B 1_555 1_555
C2 N1 1_555 1_555
C7 C8 1_555 1_555
C2B N1B 1_555 1_555
C7B C8B 1_555 1_555

#END
