
#######################################################################
#
#                 Cambridge Crystallographic Data Centre
#                                CCDC 
#
#######################################################################
#
# If this CIF has been generated from an entry in the Cambridge 
# Structural Database, then it will include bibliographic, chemical, 
# crystal, experimental, refinement or atomic coordinate data resulting 
# from the CCDC's data processing and validation procedures.
#
#######################################################################

data_BIZNII
_chemical_formula_moiety         'C18 H26 N2 O2 2+,2(Cl1 O4 1-)'
_chemical_name_systematic        
"N,N'-bis(2-(hydroxymethyl)benzyl)ethylenediammonium bis(perchlorate)"
_symmetry_cell_setting           monoclinic
_symmetry_space_group_name_H-M   'P 21/c'
_symmetry_Int_Tables_number      14
_space_group_name_Hall           '-P 2ybc'
loop_
_symmetry_equiv_pos_site_id
_symmetry_equiv_pos_as_xyz
1 x,y,z
2 -x,1/2+y,1/2-z
3 -x,-y,-z
4 x,1/2-y,1/2+z
_cell_length_a                   12.8926(12)
_cell_length_b                   5.8332(6)
_cell_length_c                   15.1397(15)
_cell_angle_alpha                90
_cell_angle_beta                 106.779(2)
_cell_angle_gamma                90
_cell_volume                     1090.11
_exptl_crystal_colour            colorless
_exptl_crystal_description       plate
_cell_formula_units_Z            2
loop_
_atom_site_label
_atom_site_type_symbol
_atom_site_fract_x
_atom_site_fract_y
_atom_site_fract_z
C1 C 0.5448(2) 0.4711(5) 0.5433(2)
H1 H 0.5195 0.4936 0.5971
H2 H 0.5656 0.3117 0.5416
C2 C 0.7397(2) 0.5438(5) 0.6218(2)
H3 H 0.7585 0.3901 0.6074
H4 H 0.7253 0.5392 0.6812
C3 C 0.8330(2) 0.7026(5) 0.62696(18)
C4 C 0.9080(3) 0.6466(6) 0.5808(2)
H5 H 0.8995 0.5117 0.5468
C5 C 0.9955(3) 0.7885(7) 0.5845(2)
H6 H 1.0460 0.7470 0.5542
C6 C 1.0074(2) 0.9878(6) 0.6326(2)
H7 H 1.0653 1.0844 0.6343
C7 C 0.9335(2) 1.0474(5) 0.67897(19)
H8 H 0.9425 1.1843 0.7118
C8 C 0.8462(2) 0.9071(5) 0.67762(17)
C9 C 0.7701(2) 0.9747(5) 0.7316(2)
H9 H 0.7705 0.8593 0.7778
H10 H 0.7925 1.1196 0.7626
N1 N 0.6399(2) 0.6218(4) 0.5493(2)
H11 H 0.626(3) 0.755(4) 0.562(2)
H12 H 0.647(3) 0.620(7) 0.4949(16)
O1 O 0.66378(17) 0.9952(4) 0.6685(2)
H13 H 0.622(3) 1.013(8) 0.699(3)
C1B C 0.4552(2) 0.5289(5) 0.4567(2)
H1B H 0.4805 0.5064 0.4029
H2B H 0.4344 0.6883 0.4584
C2B C 0.2603(2) 0.4562(5) 0.3782(2)
H3B H 0.2415 0.6099 0.3926
H4B H 0.2747 0.4608 0.3188
C3B C 0.1670(2) 0.2974(5) 0.37304(18)
C4B C 0.0920(3) 0.3534(6) 0.4192(2)
H5B H 0.1005 0.4883 0.4532
C5B C 0.0045(3) 0.2115(7) 0.4155(2)
H6B H -0.0460 0.2530 0.4458
C6B C -0.0074(2) 0.0122(6) 0.3674(2)
H7B H -0.0653 -0.0844 0.3657
C7B C 0.0665(2) -0.0474(5) 0.32103(19)
H8B H 0.0575 -0.1843 0.2882
C8B C 0.1538(2) 0.0929(5) 0.32238(17)
C9B C 0.2299(2) 0.0253(5) 0.2684(2)
H9B H 0.2295 0.1407 0.2222
H10B H 0.2075 -0.1196 0.2374
N1B N 0.3601(2) 0.3782(4) 0.4507(2)
H11B H 0.374(3) 0.245(4) 0.438(2)
H12B H 0.353(3) 0.380(7) 0.5051(16)
O1B O 0.33622(17) 0.0048(4) 0.3315(2)
H13B H 0.378(3) -0.013(8) 0.301(3)
Cl1 Cl 0.64645(6) 0.09372(14) 0.37511(5)
O2 O 0.6913(4) 0.3043(7) 0.4111(3)
O3 O 0.7272(3) -0.0674(9) 0.3860(4)
O4 O 0.5951(5) 0.1165(10) 0.2816(3)
O5 O 0.5710(2) 0.0198(5) 0.4198(2)
loop_
_geom_bond_atom_site_label_1
_geom_bond_atom_site_label_2
_geom_bond_site_symmetry_1
_geom_bond_site_symmetry_2
C1 H1 1_555 1_555
H2 C1 1_555 1_555
C2 H3 1_555 1_555
H4 C2 1_555 1_555
C3 C2 1_555 1_555
C4 C3 1_555 1_555
H5 C4 1_555 1_555
C5 C4 1_555 1_555
H6 C5 1_555 1_555
C6 C5 1_555 1_555
H7 C6 1_555 1_555
C7 C6 1_555 1_555
H8 C7 1_555 1_555
C8 C3 1_555 1_555
C9 C8 1_555 1_555
H9 C9 1_555 1_555
H10 C9 1_555 1_555
Cl1 O2 1_555 1_555
N1 C1 1_555 1_555
H11 N1 1_555 1_555
H12 N1 1_555 1_555
O1 C9 1_555 1_555
H13 O1 1_555 1_555
O3 Cl1 1_555 1_555
O4 Cl1 1_555 1_555
O5 Cl1 1_555 1_555
C1B C1 1_555 1_555
H1B C1B 1_555 1_555
H2B C1B 1_555 1_555
C2B H3B 1_555 1_555
H4B C2B 1_555 1_555
C3B C2B 1_555 1_555
C4B C3B 1_555 1_555
H5B C4B 1_555 1_555
C5B C4B 1_555 1_555
H6B C5B 1_555 1_555
C6B C5B 1_555 1_555
H7B C6B 1_555 1_555
C7B C6B 1_555 1_555
H8B C7B 1_555 1_555
C8B C3B 1_555 1_555
C9B C8B 1_555 1_555
H9B C9B 1_555 1_555
H10B C9B 1_555 1_555
N1B C1B 1_555 1_555
H11B N1B 1_555 1_555
H12B N1B 1_555 1_555
O1B C9B 1_555 1_555
H13B O1B 1_555 1_555
C2 N1 1_555 1_555
C7 C8 1_555 1_555
C2B N1B 1_555 1_555
C7B C8B 1_555 1_555

#END
