
#######################################################################
#
#                 Cambridge Crystallographic Data Centre
#                                CCDC 
#
#######################################################################
#
# If this CIF has been generated from an entry in the Cambridge 
# Structural Database, then it will include bibliographic, chemical, 
# crystal, experimental, refinement or atomic coordinate data resulting 
# from the CCDC's data processing and validation procedures.
#
#######################################################################

data_BIZPIL
_chemical_formula_moiety         'C12 H24 O6,C7 H7 B1 F2 N1 O2'
_chemical_name_systematic        '18-Crown-6 difluoro(2-oxybenzamidinium)borate'
_symmetry_cell_setting           monoclinic
_symmetry_space_group_name_H-M   'P 21'
_symmetry_Int_Tables_number      4
_space_group_name_Hall           'P 2yb'
loop_
_symmetry_equiv_pos_site_id
_symmetry_equiv_pos_as_xyz
1 x,y,z
2 -x,1/2+y,-z
_cell_length_a                   8.6838(17)
_cell_length_b                   14.330(3)
_cell_length_c                   9.2084(18)
_cell_angle_alpha                90
_cell_angle_beta                 103.72(3)
_cell_angle_gamma                90
_cell_volume                     1113.19
_exptl_crystal_colour            colorless
_exptl_crystal_description       Block
_cell_formula_units_Z            2
loop_
_atom_site_label
_atom_site_type_symbol
_atom_site_fract_x
_atom_site_fract_y
_atom_site_fract_z
O1 O 0.8265(2) 0.15940(14) 0.3171(2)
O2 O 1.0772(2) 0.25042(15) 0.2198(2)
O3 O 1.1374(2) 0.17056(17) -0.0383(2)
O4 O 0.8989(3) 0.08296(15) -0.2669(2)
O5 O 0.6581(3) -0.01551(16) -0.1574(2)
O6 O 0.5814(2) 0.06396(15) 0.1000(2)
C1 C 1.0648(4) 0.2455(2) 0.3716(3)
H1 H 1.1170 0.2990 0.4266
H2 H 1.1167 0.1894 0.4181
C2 C 0.6622(4) -0.0053(2) -0.3115(3)
H3 H 0.6086 0.0518 -0.3515
H4 H 0.6079 -0.0573 -0.3691
C3 C 1.2327(3) 0.2295(3) 0.2062(3)
H5 H 1.2608 0.1665 0.2412
H6 H 1.3077 0.2721 0.2675
C4 C 0.8949(4) 0.2444(2) 0.3763(3)
H7 H 0.8856 0.2512 0.4786
H8 H 0.8397 0.2960 0.3183
C5 C 1.2410(4) 0.2382(3) 0.0469(4)
H9 H 1.2090 0.3004 0.0102
H10 H 1.3487 0.2276 0.0379
C6 C 0.5029(4) -0.0138(3) -0.1346(4)
H11 H 0.4423 -0.0660 -0.1858
H12 H 0.4500 0.0435 -0.1747
C7 C 1.1350(4) 0.1731(3) -0.1926(4)
H13 H 1.2421 0.1787 -0.2058
H14 H 1.0744 0.2266 -0.2391
C8 C 0.6656(4) 0.1509(3) 0.3246(4)
H15 H 0.6044 0.2022 0.2711
H16 H 0.6585 0.1538 0.4281
C9 C 1.0616(4) 0.0860(3) -0.2632(4)
H17 H 1.0760 0.0819 -0.3643
H18 H 1.1141 0.0328 -0.2075
C10 C 0.8288(5) -0.0024(2) -0.3231(4)
H19 H 0.8871 -0.0537 -0.2668
H20 H 0.8331 -0.0093 -0.4269
C11 C 0.5991(4) 0.0607(3) 0.2577(4)
H21 H 0.6695 0.0100 0.3000
H22 H 0.4969 0.0496 0.2800
C12 C 0.5127(5) -0.0197(3) 0.0274(4)
H23 H 0.4074 -0.0282 0.0441
H24 H 0.5769 -0.0730 0.0694
F1 F 0.42431(19) 0.19707(12) 0.55122(17)
F2 F 0.3739(2) 0.32365(13) 0.6794(2)
O7 O 0.5737(2) 0.22055(14) 0.78993(19)
O8 O 0.5989(2) 0.32064(15) 0.58229(19)
N1 N 0.7713(3) 0.20349(17) 0.9891(2)
H25 H 0.6956 0.1762 1.0242
H26 H 0.8257 0.2426 1.0574
H27 H 0.8364 0.1602 0.9684
C13 C 0.7803(3) 0.33260(18) 0.8214(3)
C14 C 0.7214(3) 0.3630(2) 0.6749(3)
C15 C 0.9061(3) 0.3800(2) 0.9142(3)
H28 H 0.9436 0.3605 1.0126
C16 C 0.9202(4) 0.4819(2) 0.7154(4)
H29 H 0.9701 0.5309 0.6787
C17 C 0.7077(3) 0.24942(18) 0.8683(3)
C18 C 0.7956(4) 0.4389(2) 0.6228(4)
H30 H 0.7593 0.4597 0.5250
C19 C 0.9753(4) 0.4549(2) 0.8628(4)
H31 H 1.0578 0.4870 0.9258
B1 B 0.4897(4) 0.2678(3) 0.6471(3)
loop_
_geom_bond_atom_site_label_1
_geom_bond_atom_site_label_2
_geom_bond_site_symmetry_1
_geom_bond_site_symmetry_2
O1 C4 1_555 1_555
O2 C1 1_555 1_555
O3 C5 1_555 1_555
O4 C9 1_555 1_555
O5 C2 1_555 1_555
O6 C11 1_555 1_555
C1 H1 1_555 1_555
H2 C1 1_555 1_555
C2 H3 1_555 1_555
H4 C2 1_555 1_555
C3 O2 1_555 1_555
H5 C3 1_555 1_555
H6 C3 1_555 1_555
C4 C1 1_555 1_555
H7 C4 1_555 1_555
H8 C4 1_555 1_555
C5 C3 1_555 1_555
H9 C5 1_555 1_555
H10 C5 1_555 1_555
C6 O5 1_555 1_555
H11 C6 1_555 1_555
H12 C6 1_555 1_555
C7 O3 1_555 1_555
H13 C7 1_555 1_555
H14 C7 1_555 1_555
C8 O1 1_555 1_555
H15 C8 1_555 1_555
H16 C8 1_555 1_555
C9 C7 1_555 1_555
H17 C9 1_555 1_555
H18 C9 1_555 1_555
C10 O4 1_555 1_555
H19 C10 1_555 1_555
H20 C10 1_555 1_555
C11 C8 1_555 1_555
H21 C11 1_555 1_555
H22 C11 1_555 1_555
C12 O6 1_555 1_555
H23 C12 1_555 1_555
H24 C12 1_555 1_555
F1 B1 1_555 1_555
F2 B1 1_555 1_555
O7 C17 1_555 1_555
O8 C14 1_555 1_555
N1 H25 1_555 1_555
H26 N1 1_555 1_555
H27 N1 1_555 1_555
C13 C14 1_555 1_555
C14 C18 1_555 1_555
C15 C13 1_555 1_555
H28 C15 1_555 1_555
C16 H29 1_555 1_555
C17 N1 1_555 1_555
C18 C16 1_555 1_555
H30 C18 1_555 1_555
C19 C15 1_555 1_555
H31 C19 1_555 1_555
B1 O7 1_555 1_555
C2 C10 1_555 1_555
C6 C12 1_555 1_555
O8 B1 1_555 1_555
C13 C17 1_555 1_555
C16 C19 1_555 1_555

#END
