
#######################################################################
#
#                 Cambridge Crystallographic Data Centre
#                                CCDC 
#
#######################################################################
#
# If this CIF has been generated from an entry in the Cambridge 
# Structural Database, then it will include bibliographic, chemical, 
# crystal, experimental, refinement or atomic coordinate data resulting 
# from the CCDC's data processing and validation procedures.
#
#######################################################################

data_BIZQEI
_chemical_formula_moiety         'C26 H16 S2'
_chemical_name_systematic        2,2'-Tetracene-5,12-diyldithiophene
_symmetry_cell_setting           monoclinic
_symmetry_space_group_name_H-M   'P 21/c'
_symmetry_Int_Tables_number      14
_space_group_name_Hall           '-P 2ybc'
loop_
_symmetry_equiv_pos_site_id
_symmetry_equiv_pos_as_xyz
1 x,y,z
2 -x,1/2+y,1/2-z
3 -x,-y,-z
4 x,1/2-y,1/2+z
_cell_length_a                   14.962(3)
_cell_length_b                   17.463(3)
_cell_length_c                   7.2238(13)
_cell_angle_alpha                90
_cell_angle_beta                 90.750(3)
_cell_angle_gamma                90
_cell_volume                     1887.28
_exptl_crystal_colour            yellow
_exptl_crystal_description       block
_cell_formula_units_Z            4
loop_
_atom_site_label
_atom_site_type_symbol
_atom_site_fract_x
_atom_site_fract_y
_atom_site_fract_z
S1 S 0.84901(14) -0.19954(11) 0.4693(4)
C1 C 0.9574(10) -0.1060(8) 0.610(2)
H1 H 0.9828 -0.0607 0.6611
S2 S 0.56638(6) 0.18656(5) 0.74557(12)
C2 C 0.79474(18) -0.05459(15) 0.5754(4)
C3 C 0.73952(18) -0.05445(16) 0.7290(4)
C4 C 0.7491(2) -0.11056(17) 0.8735(4)
H2 H 0.7947 -0.1482 0.8647
C5 C 0.6948(2) -0.11121(19) 1.0216(4)
H3 H 0.7023 -0.1492 1.1147
C6 C 0.6262(2) -0.05491(18) 1.0384(4)
H4 H 0.5886 -0.0555 1.1433
C7 C 0.61427(19) -0.00090(17) 0.9067(4)
H5 H 0.5682 0.0360 0.9207
C8 C 0.66982(18) 0.00215(15) 0.7454(4)
C9 C 0.65703(17) 0.05663(15) 0.6050(4)
C10 C 0.71552(18) 0.05878(15) 0.4509(4)
C11 C 0.70934(18) 0.11590(16) 0.3130(4)
H6 H 0.6654 0.1549 0.3244
C12 C 0.76520(18) 0.11696(16) 0.1616(4)
C13 C 0.7601(2) 0.17532(17) 0.0213(4)
H7 H 0.7177 0.2155 0.0329
C14 C 0.8146(2) 0.17397(19) -0.1269(4)
H8 H 0.8107 0.2135 -0.2169
C15 C 0.8780(2) 0.11315(19) -0.1488(4)
H9 H 0.9155 0.1124 -0.2540
C16 C 0.8849(2) 0.05693(18) -0.0211(4)
H10 H 0.9268 0.0167 -0.0380
C17 C 0.82956(18) 0.05709(16) 0.1405(4)
C18 C 0.83817(18) 0.00130(16) 0.2761(4)
H11 H 0.8817 -0.0378 0.2620
C19 C 0.78409(17) 0.00105(15) 0.4339(4)
C20 C 0.86766(19) -0.11220(16) 0.5599(4)
C21 C 1.0081(2) -0.1745(2) 0.5784(5)
H12 H 1.0697 -0.1813 0.6073
C22 C 0.9547(3) -0.2265(2) 0.5020(5)
H13 H 0.9755 -0.2760 0.4681
C23 C 0.57818(18) 0.10845(16) 0.6040(4)
C24 C 0.50102(17) 0.10033(14) 0.4829(4)
H14 H 0.4930 0.0615 0.3921
C25 C 0.4387(2) 0.1602(2) 0.5217(4)
H15 H 0.3827 0.1646 0.4592
C26 C 0.4655(2) 0.20935(19) 0.6525(5)
H16 H 0.4316 0.2526 0.6894
S3? S 0.9683(4) -0.0926(4) 0.6340(11)
C27? C 0.8692(8) -0.1889(7) 0.494(3)
H17? H 0.8170 -0.2138 0.4484
loop_
_geom_bond_atom_site_label_1
_geom_bond_atom_site_label_2
_geom_bond_site_symmetry_1
_geom_bond_site_symmetry_2
S1 C20 1_555 1_555
C1 H1 1_555 1_555
S2 C23 1_555 1_555
C2 C3 1_555 1_555
C3 C4 1_555 1_555
C4 H2 1_555 1_555
C5 C4 1_555 1_555
H3 C5 1_555 1_555
C6 C5 1_555 1_555
H4 C6 1_555 1_555
C7 C6 1_555 1_555
H5 C7 1_555 1_555
C8 C3 1_555 1_555
C9 C8 1_555 1_555
C10 C9 1_555 1_555
C11 C10 1_555 1_555
H6 C11 1_555 1_555
C12 C11 1_555 1_555
C13 C12 1_555 1_555
H7 C13 1_555 1_555
C14 C13 1_555 1_555
H8 C14 1_555 1_555
C15 C14 1_555 1_555
H9 C15 1_555 1_555
C16 C15 1_555 1_555
H10 C16 1_555 1_555
C17 C12 1_555 1_555
C18 C17 1_555 1_555
H11 C18 1_555 1_555
C19 C2 1_555 1_555
C20 C1 1_555 1_555
C21 C1 1_555 1_555
H12 C21 1_555 1_555
C22 S1 1_555 1_555
H13 C22 1_555 1_555
C23 C9 1_555 1_555
C24 C23 1_555 1_555
H14 C24 1_555 1_555
C25 C24 1_555 1_555
H15 C25 1_555 1_555
C26 S2 1_555 1_555
H16 C26 1_555 1_555
C2 C20 1_555 1_555
C7 C8 1_555 1_555
C10 C19 1_555 1_555
C16 C17 1_555 1_555
C18 C19 1_555 1_555
C21 C22 1_555 1_555
C25 C26 1_555 1_555

#END
