
#######################################################################
#
#                 Cambridge Crystallographic Data Centre
#                                CCDC 
#
#######################################################################
#
# If this CIF has been generated from an entry in the Cambridge 
# Structural Database, then it will include bibliographic, chemical, 
# crystal, experimental, refinement or atomic coordinate data resulting 
# from the CCDC's data processing and validation procedures.
#
#######################################################################

data_BIZVAJ
_chemical_formula_moiety         'C12 H24 O6,2(C5 H7 N2 1+),2(Cl1 O4 1-)'
_chemical_name_systematic        
'Pyridin-4-aminium perchlorate 1,4,7,10,13,16-hexaoxacyclo-octadecane'
_symmetry_cell_setting           triclinic
_symmetry_space_group_name_H-M   'P -1'
_symmetry_Int_Tables_number      2
_space_group_name_Hall           '-P 1'
loop_
_symmetry_equiv_pos_site_id
_symmetry_equiv_pos_as_xyz
1 x,y,z
2 -x,-y,-z
_cell_length_a                   8.1270(16)
_cell_length_b                   10.346(2)
_cell_length_c                   10.659(2)
_cell_angle_alpha                62.22(3)
_cell_angle_beta                 83.15(3)
_cell_angle_gamma                79.28(3)
_cell_volume                     778.548
_cell_formula_units_Z            1
loop_
_atom_site_label
_atom_site_type_symbol
_atom_site_fract_x
_atom_site_fract_y
_atom_site_fract_z
O1 O 0.0387(7) 0.7038(6) 0.7018(6)
O2 O 0.3043(7) 0.5073(6) 0.8669(6)
O3 O 0.2568(7) 0.2584(6) 1.1409(6)
C1 C 0.0776(11) 0.1641(10) 1.3437(10)
H1 H 0.0466 0.1007 1.3090
H2 H 0.0745 0.1120 1.4466
C2 C 0.2090(11) 0.7257(10) 0.6654(10)
H3 H 0.2399 0.7816 0.7086
H4 H 0.2236 0.7814 0.5632
C3 C 0.2491(11) 0.1966(10) 1.2908(9)
H5 H 0.2778 0.2655 1.3197
H6 H 0.3287 0.1065 1.3305
C4 C 0.4112(12) 0.3061(11) 1.0796(11)
H7 H 0.5005 0.2229 1.1159
H8 H 0.4317 0.3792 1.1065
C5 C 0.3200(12) 0.5771(10) 0.7172(10)
H9 H 0.2847 0.5178 0.6797
H10 H 0.4356 0.5901 0.6864
C6 C 0.4138(12) 0.3694(11) 0.9270(10)
H11 H 0.5271 0.3846 0.8895
H12 H 0.3794 0.3011 0.9001
O1A O -0.0387(7) 0.2962(6) 1.2982(6)
O2A O -0.3043(7) 0.4927(6) 1.1331(6)
O3A O -0.2568(7) 0.7416(6) 0.8591(6)
C1A C -0.0776(11) 0.8359(10) 0.6563(10)
H1A H -0.0466 0.8993 0.6910
H2A H -0.0745 0.8880 0.5534
C2A C -0.2090(11) 0.2743(10) 1.3346(10)
H3A H -0.2399 0.2184 1.2914
H4A H -0.2236 0.2186 1.4368
C3A C -0.2491(11) 0.8034(10) 0.7092(9)
H5A H -0.2778 0.7345 0.6803
H6A H -0.3287 0.8935 0.6695
C4A C -0.4112(12) 0.6939(11) 0.9204(11)
H7A H -0.5005 0.7771 0.8841
H8A H -0.4317 0.6208 0.8935
C5A C -0.3200(12) 0.4229(10) 1.2828(10)
H9A H -0.2847 0.4822 1.3203
H10A H -0.4356 0.4099 1.3136
C6A C -0.4138(12) 0.6306(11) 1.0730(10)
H11A H -0.5271 0.6154 1.1105
H12A H -0.3794 0.6989 1.0999
N1 N 0.9403(9) 0.4248(8) 0.8163(8)
C7 C 0.8050(9) 0.1808(9) 0.8700(9)
C8 C 0.8780(9) 0.1874(9) 0.9749(9)
H13 H 0.8816 0.1076 1.0652
C9 C 0.9453(11) 0.3072(10) 0.9511(10)
H14 H 0.9941 0.3105 1.0240
N2 N 0.7308(10) 0.0643(9) 0.8962(9)
H15 H 0.8049 -0.0024 0.8809
H16 H 0.6457 0.0941 0.8390
H17 H 0.6929 0.0241 0.9861
C10 C 0.8056(10) 0.3027(9) 0.7341(9)
H18 H 0.7581 0.3031 0.6587
C11 C 0.8758(10) 0.4176(10) 0.7155(9)
H19 H 0.8782 0.4966 0.6250
O4 O 0.310(3) 0.044(2) 0.644(2)
O5 O 0.2700(16) 0.3057(15) 0.5738(15)
O6 O 0.349(2) 0.116(2) 0.8139(19)
O7 O 0.4993(17) 0.1527(15) 0.6392(15)
Cl1 Cl 0.3300(2) 0.1655(2) 0.6679(2)
O8? O 0.231(2) 0.070(2) 0.662(2)
O9? O 0.268(2) 0.1727(17) 0.8009(15)
loop_
_geom_bond_atom_site_label_1
_geom_bond_atom_site_label_2
_geom_bond_site_symmetry_1
_geom_bond_site_symmetry_2
O1 C2 1_555 1_555
O2 C5 1_555 1_555
O3 C3 1_555 1_555
C1 H1 1_555 1_555
H2 C1 1_555 1_555
C2 H3 1_555 1_555
H4 C2 1_555 1_555
C3 C1 1_555 1_555
H5 C3 1_555 1_555
H6 C3 1_555 1_555
C4 O3 1_555 1_555
H7 C4 1_555 1_555
H8 C4 1_555 1_555
C5 C2 1_555 1_555
H9 C5 1_555 1_555
H10 C5 1_555 1_555
C6 O2 1_555 1_555
H11 C6 1_555 1_555
H12 C6 1_555 1_555
N1 C9 1_555 1_555
C7 C8 1_555 1_555
C8 H13 1_555 1_555
C9 C8 1_555 1_555
H14 C9 1_555 1_555
N2 C7 1_555 1_555
H15 N2 1_555 1_555
H16 N2 1_555 1_555
H17 N2 1_555 1_555
C10 C7 1_555 1_555
H18 C10 1_555 1_555
C11 N1 1_555 1_555
H19 C11 1_555 1_555
O4 Cl1 1_555 1_555
O5 Cl1 1_555 1_555
O6 Cl1 1_555 1_555
O7 Cl1 1_555 1_555
O1A C1 1_555 1_555
O2A C5A 1_555 1_555
O3A C3A 1_555 1_555
C1A O1 1_555 1_555
H1A C1A 1_555 1_555
H2A C1A 1_555 1_555
C2A O1A 1_555 1_555
H3A C2A 1_555 1_555
H4A C2A 1_555 1_555
C3A C1A 1_555 1_555
H5A C3A 1_555 1_555
H6A C3A 1_555 1_555
C4A O3A 1_555 1_555
H7A C4A 1_555 1_555
H8A C4A 1_555 1_555
C5A C2A 1_555 1_555
H9A C5A 1_555 1_555
H10A C5A 1_555 1_555
C6A O2A 1_555 1_555
H11A C6A 1_555 1_555
H12A C6A 1_555 1_555
C4 C6 1_555 1_555
C10 C11 1_555 1_555
C4A C6A 1_555 1_555

#END
