
#######################################################################
#
#                 Cambridge Crystallographic Data Centre
#                                CCDC 
#
#######################################################################
#
# If this CIF has been generated from an entry in the Cambridge 
# Structural Database, then it will include bibliographic, chemical, 
# crystal, experimental, refinement or atomic coordinate data resulting 
# from the CCDC's data processing and validation procedures.
#
#######################################################################

data_BIZVEN
_chemical_formula_moiety         'C12 H24 O6,C10 H10 N1 1+,B1 F4 1-'
_chemical_name_systematic        
'Naphthylammonium tetrafluoroborate 1,4,7,10,13,16-hexaoxacyclo-octadecane'
_symmetry_cell_setting           monoclinic
_symmetry_space_group_name_H-M   'P 21/c'
_symmetry_Int_Tables_number      14
_space_group_name_Hall           '-P 2ybc'
loop_
_symmetry_equiv_pos_site_id
_symmetry_equiv_pos_as_xyz
1 x,y,z
2 -x,1/2+y,1/2-z
3 -x,-y,-z
4 x,1/2-y,1/2+z
_cell_length_a                   11.802(2)
_cell_length_b                   15.408(3)
_cell_length_c                   13.991(3)
_cell_angle_alpha                90
_cell_angle_beta                 90.28(3)
_cell_angle_gamma                90
_cell_volume                     2544.17
_cell_formula_units_Z            4
loop_
_atom_site_label
_atom_site_type_symbol
_atom_site_fract_x
_atom_site_fract_y
_atom_site_fract_z
N1 N 0.2614(2) 0.11195(18) 0.61683(19)
H1 H 0.3105 0.0684 0.6227
H2 H 0.2977 0.1623 0.6230
H3 H 0.2283 0.1095 0.5596
C1 C 0.1751(3) 0.1048(2) 0.6912(2)
C2 C 0.0804(3) 0.1617(2) 0.6893(2)
C3 C -0.0019(3) 0.1515(2) 0.7624(3)
C4 C 0.0637(3) 0.2270(2) 0.6195(3)
H4 H 0.1173 0.2348 0.5718
C5 C 0.1886(3) 0.0442(2) 0.7619(3)
H5 H 0.2522 0.0086 0.7624
C6 C -0.0302(4) 0.2786(3) 0.6215(3)
H6 H -0.0403 0.3208 0.5747
C7 C 0.0136(4) 0.0874(3) 0.8339(3)
H7 H -0.0407 0.0807 0.8813
C8 C -0.0979(3) 0.2076(3) 0.7614(3)
H8 H -0.1524 0.2019 0.8088
C9 C 0.1065(4) 0.0358(3) 0.8341(3)
H9 H 0.1162 -0.0053 0.8821
C10 C -0.1117(4) 0.2687(3) 0.6934(4)
H10 H -0.1752 0.3044 0.6942
O1 O 0.3988(3) 0.26677(19) 0.6545(2)
O2 O 0.2800(3) 0.26190(18) 0.47748(19)
O3 O 0.5082(3) 0.0999(2) 0.6629(2)
O4 O 0.2034(3) 0.10195(19) 0.4099(2)
O5 O 0.3846(3) -0.05315(18) 0.6340(2)
O6 O 0.1751(3) -0.0439(2) 0.5261(3)
C11 C 0.2679(5) 0.2430(3) 0.3791(3)
H11 H 0.3384 0.2194 0.3550
H12 H 0.2515 0.2960 0.3444
C12 C 0.5173(4) 0.2547(3) 0.6547(4)
H13 H 0.5543 0.3054 0.6814
H14 H 0.5438 0.2470 0.5897
C13 C 0.1766(5) 0.1805(3) 0.3631(3)
H15 H 0.1060 0.2034 0.3877
H16 H 0.1672 0.1702 0.2951
C14 C 0.5043(4) -0.0519(3) 0.6516(4)
H17 H 0.5445 -0.0477 0.5915
H18 H 0.5271 -0.1053 0.6829
C15 C 0.3470(6) -0.1239(3) 0.5779(4)
H19 H 0.3704 -0.1780 0.6073
H20 H 0.3803 -0.1207 0.5148
C16 C 0.5333(4) 0.0230(4) 0.7128(4)
H21 H 0.4900 0.0207 0.7715
H22 H 0.6132 0.0214 0.7293
C17 C 0.5460(4) 0.1768(4) 0.7126(4)
H23 H 0.6273 0.1741 0.7229
H24 H 0.5095 0.1804 0.7744
C18 C 0.1696(6) -0.0498(3) 0.4291(4)
H25 H 0.1892 -0.0992 0.3948
C19 C 0.1293(5) 0.0308(4) 0.3855(4)
H26 H 0.1264 0.0241 0.3166
H27 H 0.0532 0.0433 0.4076
C20 C 0.3655(5) 0.3432(3) 0.6017(3)
H28 H 0.4192 0.3894 0.6149
H29 H 0.2917 0.3622 0.6238
C21 C 0.3599(5) 0.3284(3) 0.4961(4)
H30 H 0.3372 0.3814 0.4638
H31 H 0.4338 0.3114 0.4725
C22 C 0.2214(6) -0.1209(3) 0.5701(4)
H32 H 0.1963 -0.1709 0.5337
H33 H 0.1900 -0.1261 0.6338
F1 F 0.6675(5) 0.0766(3) 1.0720(4)
B1 B 0.6965(4) 0.0966(3) 0.9803(4)
F2 F 0.7233(10) 0.0367(6) 0.9058(8)
F3 F 0.6249(10) 0.1500(8) 0.9303(6)
F4 F 0.7919(8) 0.1324(9) 0.9946(6)
F5? F 0.6894(12) 0.1775(7) 0.9599(9)
F6? F 0.6016(9) 0.0637(7) 0.9490(7)
F7? F 0.7771(8) 0.0425(6) 0.9559(7)
loop_
_geom_bond_atom_site_label_1
_geom_bond_atom_site_label_2
_geom_bond_site_symmetry_1
_geom_bond_site_symmetry_2
N1 H1 1_555 1_555
H2 N1 1_555 1_555
H3 N1 1_555 1_555
C1 N1 1_555 1_555
C2 C1 1_555 1_555
C3 C2 1_555 1_555
C4 C2 1_555 1_555
H4 C4 1_555 1_555
C5 C1 1_555 1_555
H5 C5 1_555 1_555
C6 C4 1_555 1_555
H6 C6 1_555 1_555
C7 C3 1_555 1_555
H7 C7 1_555 1_555
C8 C3 1_555 1_555
H8 C8 1_555 1_555
C9 C5 1_555 1_555
H9 C9 1_555 1_555
C10 C6 1_555 1_555
H10 C10 1_555 1_555
O1 C12 1_555 1_555
O2 C11 1_555 1_555
O3 C16 1_555 1_555
O4 C13 1_555 1_555
O5 C14 1_555 1_555
O6 C18 1_555 1_555
C11 H11 1_555 1_555
H12 C11 1_555 1_555
C12 H13 1_555 1_555
H14 C12 1_555 1_555
C13 C11 1_555 1_555
H15 C13 1_555 1_555
H16 C13 1_555 1_555
C14 H17 1_555 1_555
H18 C14 1_555 1_555
C15 O5 1_555 1_555
H19 C15 1_555 1_555
H20 C15 1_555 1_555
C16 C14 1_555 1_555
H21 C16 1_555 1_555
H22 C16 1_555 1_555
C17 O3 1_555 1_555
H23 C17 1_555 1_555
H24 C17 1_555 1_555
C18 H25 1_555 1_555
C19 O4 1_555 1_555
H26 C19 1_555 1_555
H27 C19 1_555 1_555
C20 O1 1_555 1_555
H28 C20 1_555 1_555
H29 C20 1_555 1_555
C21 O2 1_555 1_555
H30 C21 1_555 1_555
H31 C21 1_555 1_555
C22 O6 1_555 1_555
H32 C22 1_555 1_555
H33 C22 1_555 1_555
F1 B1 1_555 1_555
B1 F2 1_555 1_555
F3 B1 1_555 1_555
F4 B1 1_555 1_555
C7 C9 1_555 1_555
C8 C10 1_555 1_555
C12 C17 1_555 1_555
C15 C22 1_555 1_555
C18 C19 1_555 1_555
C20 C21 1_555 1_555

#END
