
#######################################################################
#
#                 Cambridge Crystallographic Data Centre
#                                CCDC 
#
#######################################################################
#
# If this CIF has been generated from an entry in the Cambridge 
# Structural Database, then it will include bibliographic, chemical, 
# crystal, experimental, refinement or atomic coordinate data resulting 
# from the CCDC's data processing and validation procedures.
#
#######################################################################

data_BIZWOX
_chemical_formula_moiety         'C18 H20 N2 O4'
_chemical_name_systematic        'bis(4-Pyridylmethyl) hexanedioate'
_symmetry_cell_setting           monoclinic
_symmetry_space_group_name_H-M   'P 21/c'
_symmetry_Int_Tables_number      14
_space_group_name_Hall           '-P 2ybc'
loop_
_symmetry_equiv_pos_site_id
_symmetry_equiv_pos_as_xyz
1 x,y,z
2 -x,1/2+y,1/2-z
3 -x,-y,-z
4 x,1/2-y,1/2+z
_cell_length_a                   9.1489(18)
_cell_length_b                   10.164(2)
_cell_length_c                   8.9206(18)
_cell_angle_alpha                90
_cell_angle_beta                 102.11(3)
_cell_angle_gamma                90
_cell_volume                     811.062
_exptl_crystal_colour            colorless
_exptl_crystal_description       block
_chemical_melting_point          '359 K'
_cell_formula_units_Z            2
_exptl_crystal_recrystallization_method 'ethyl acetate'
loop_
_atom_site_label
_atom_site_type_symbol
_atom_site_fract_x
_atom_site_fract_y
_atom_site_fract_z
O1 O 0.70599(9) 0.51214(8) 0.11415(9)
O2 O 0.64123(11) 0.69241(9) 0.22847(10)
N1 N 0.90646(13) 0.38939(10) -0.35175(12)
C1 C 0.89598(14) 0.58417(13) -0.20251(14)
H1 H 0.9218 0.6722 -0.1854
C2 C 0.93751(15) 0.51700(13) -0.32073(15)
H2 H 0.9901 0.5625 -0.3828
C3 C 0.83041(15) 0.32799(13) -0.25920(15)
H3 H 0.8082 0.2394 -0.2773
C4 C 0.78264(14) 0.38780(13) -0.13832(14)
H4 H 0.7297 0.3404 -0.0781
C5 C 0.81535(14) 0.51996(12) -0.10895(13)
C6 C 0.76640(15) 0.59800(12) 0.01395(14)
H5 H 0.8509 0.6460 0.0727
H6 H 0.6910 0.6614 -0.0323
C7 C 0.64740(13) 0.57452(13) 0.22139(13)
C8 C 0.59372(14) 0.47965(12) 0.32611(14)
H7 H 0.6751 0.4212 0.3707
H8 H 0.5141 0.4264 0.2669
C9 C 0.53658(14) 0.54786(11) 0.45402(14)
H9 H 0.6193 0.5912 0.5219
H10 H 0.4647 0.6148 0.4102
O1B O 0.29401(9) 0.48786(8) 0.88585(9)
O2B O 0.35877(11) 0.30759(9) 0.77153(10)
N1B N 0.09354(13) 0.61061(10) 1.35175(12)
C1B C 0.10402(14) 0.41583(13) 1.20251(14)
H1B H 0.0782 0.3278 1.1854
C2B C 0.06249(15) 0.48300(13) 1.32073(15)
H2B H 0.0099 0.4375 1.3828
C3B C 0.16959(15) 0.67201(13) 1.25920(15)
H3B H 0.1918 0.7606 1.2773
C4B C 0.21736(14) 0.61220(13) 1.13832(14)
H4B H 0.2703 0.6596 1.0781
C5B C 0.18465(14) 0.48004(12) 1.10895(13)
C6B C 0.23360(15) 0.40200(12) 0.98605(14)
H5B H 0.1491 0.3540 0.9273
H6B H 0.3090 0.3386 1.0323
C7B C 0.35260(13) 0.42548(13) 0.77861(13)
C8B C 0.40628(14) 0.52035(12) 0.67389(14)
H7B H 0.3249 0.5788 0.6293
H8B H 0.4859 0.5736 0.7331
C9B C 0.46342(14) 0.45214(11) 0.54598(14)
H9B H 0.3807 0.4088 0.4781
H10B H 0.5353 0.3852 0.5898
loop_
_geom_bond_atom_site_label_1
_geom_bond_atom_site_label_2
_geom_bond_site_symmetry_1
_geom_bond_site_symmetry_2
O1 C6 1_555 1_555
O2 C7 1_555 1_555
N1 C2 1_555 1_555
C1 H1 1_555 1_555
C2 C1 1_555 1_555
H2 C2 1_555 1_555
C3 N1 1_555 1_555
H3 C3 1_555 1_555
C4 C3 1_555 1_555
H4 C4 1_555 1_555
C5 C1 1_555 1_555
C6 C5 1_555 1_555
H5 C6 1_555 1_555
H6 C6 1_555 1_555
C7 O1 1_555 1_555
C8 C7 1_555 1_555
H7 C8 1_555 1_555
H8 C8 1_555 1_555
C9 C8 1_555 1_555
H9 C9 1_555 1_555
H10 C9 1_555 1_555
O1B C6B 1_555 1_555
O2B C7B 1_555 1_555
N1B C2B 1_555 1_555
C1B H1B 1_555 1_555
C2B C1B 1_555 1_555
H2B C2B 1_555 1_555
C3B N1B 1_555 1_555
H3B C3B 1_555 1_555
C4B C3B 1_555 1_555
H4B C4B 1_555 1_555
C5B C1B 1_555 1_555
C6B C5B 1_555 1_555
H5B C6B 1_555 1_555
H6B C6B 1_555 1_555
C7B O1B 1_555 1_555
C8B C7B 1_555 1_555
H7B C8B 1_555 1_555
H8B C8B 1_555 1_555
C9B C9 1_555 1_555
H9B C9B 1_555 1_555
H10B C9B 1_555 1_555
C4 C5 1_555 1_555
C4B C5B 1_555 1_555
C8B C9B 1_555 1_555

#END
