
#######################################################################
#
#                 Cambridge Crystallographic Data Centre
#                                CCDC 
#
#######################################################################
#
# If this CIF has been generated from an entry in the Cambridge 
# Structural Database, then it will include bibliographic, chemical, 
# crystal, experimental, refinement or atomic coordinate data resulting 
# from the CCDC's data processing and validation procedures.
#
#######################################################################

data_BIZYEP
_chemical_formula_moiety         'C28 H26 O1'
_chemical_name_systematic        2-Methyl-1,1,3,3-tetraphenylpropan-2-ol
_symmetry_cell_setting           monoclinic
_symmetry_space_group_name_H-M   'P 21/n'
_symmetry_Int_Tables_number      14
_space_group_name_Hall           '-P 2yn'
loop_
_symmetry_equiv_pos_site_id
_symmetry_equiv_pos_as_xyz
1 x,y,z
2 1/2-x,1/2+y,1/2-z
3 -x,-y,-z
4 1/2+x,1/2-y,1/2+z
_cell_length_a                   8.4313(4)
_cell_length_b                   23.8539(11)
_cell_length_c                   10.3420(5)
_cell_angle_alpha                90
_cell_angle_beta                 96.624(3)
_cell_angle_gamma                90
_cell_volume                     2066.09
_exptl_crystal_colour            colorless
_exptl_crystal_description       prism
_chemical_melting_point          '406-408 K'
_cell_formula_units_Z            4
_exptl_crystal_recrystallization_method 'ethyl acetate/petroleum ether'
loop_
_atom_site_label
_atom_site_type_symbol
_atom_site_fract_x
_atom_site_fract_y
_atom_site_fract_z
O1 O 0.31548(15) 0.05491(5) 0.07175(11)
H1 H 0.261(3) 0.0232(9) 0.082(2)
C1 C 0.47972(19) 0.12873(7) 0.18234(16)
H2 H 0.5215 0.1406 0.2726
C2 C 0.3887(2) 0.07256(7) 0.19928(16)
C3 C 0.2473(2) 0.08319(7) 0.28398(16)
H3 H 0.1715 0.1080 0.2289
C4 C 0.5084(2) 0.02774(7) 0.25298(18)
H4 H 0.4507 -0.0057 0.2766
H5 H 0.5737 0.0423 0.3302
H6 H 0.5775 0.0179 0.1865
C5 C 0.3781(2) 0.17823(7) 0.12541(16)
C6 C 0.3655(2) 0.22646(7) 0.20063(17)
H7 H 0.4124 0.2268 0.2887
C7 C 0.2853(2) 0.27396(8) 0.14873(19)
H8 H 0.2785 0.3064 0.2011
C8 C 0.2156(2) 0.27379(8) 0.02062(19)
H9 H 0.1609 0.3060 -0.0151
C9 C 0.2263(2) 0.22615(8) -0.05520(18)
H10 H 0.1781 0.2259 -0.1429
C10 C 0.3073(2) 0.17876(7) -0.00380(16)
H11 H 0.3145 0.1466 -0.0569
C11 C 0.6273(2) 0.12517(7) 0.10844(16)
C12 C 0.6302(2) 0.09609(7) -0.00935(16)
H12 H 0.5411 0.0739 -0.0425
C13 C 0.7628(2) 0.09956(7) -0.07790(17)
H13 H 0.7640 0.0792 -0.1567
C14 C 0.8932(2) 0.13250(7) -0.03209(17)
H14 H 0.9823 0.1352 -0.0802
C15 C 0.8925(2) 0.16146(7) 0.08431(18)
H15 H 0.9812 0.1841 0.1161
C16 C 0.7610(2) 0.15716(7) 0.15446(17)
H16 H 0.7624 0.1764 0.2351
C17 C 0.2875(2) 0.11566(7) 0.41090(16)
C18 C 0.1949(2) 0.16277(7) 0.43236(18)
H17 H 0.1090 0.1729 0.3690
C19 C 0.2261(3) 0.19528(8) 0.54486(19)
H18 H 0.1623 0.2273 0.5569
C20 C 0.3501(3) 0.18077(8) 0.63886(19)
H19 H 0.3735 0.2033 0.7143
C21 C 0.4394(2) 0.13327(8) 0.62203(18)
H20 H 0.5215 0.1223 0.6879
C22 C 0.4095(2) 0.10121(8) 0.50852(16)
H21 H 0.4731 0.0691 0.4976
C23 C 0.1510(2) 0.02965(7) 0.30277(16)
C24 C 0.1924(2) -0.00805(7) 0.40487(17)
H22 H 0.2827 -0.0004 0.4661
C25 C 0.1038(2) -0.05649(8) 0.41854(18)
H23 H 0.1350 -0.0818 0.4878
C26 C -0.0301(2) -0.06799(8) 0.33105(18)
H24 H -0.0910 -0.1009 0.3406
C27 C -0.0739(2) -0.03107(8) 0.22989(19)
H25 H -0.1651 -0.0388 0.1697
C28 C 0.0153(2) 0.01748(7) 0.21599(17)
H26 H -0.0165 0.0426 0.1466
loop_
_geom_bond_atom_site_label_1
_geom_bond_atom_site_label_2
_geom_bond_site_symmetry_1
_geom_bond_site_symmetry_2
O1 H1 1_555 1_555
C1 H2 1_555 1_555
C2 O1 1_555 1_555
C3 C2 1_555 1_555
H3 C3 1_555 1_555
C4 C2 1_555 1_555
H4 C4 1_555 1_555
H5 C4 1_555 1_555
H6 C4 1_555 1_555
C5 C1 1_555 1_555
C6 C5 1_555 1_555
H7 C6 1_555 1_555
C7 C6 1_555 1_555
H8 C7 1_555 1_555
C8 C7 1_555 1_555
H9 C8 1_555 1_555
C9 C8 1_555 1_555
H10 C9 1_555 1_555
C10 C5 1_555 1_555
H11 C10 1_555 1_555
C11 C1 1_555 1_555
C12 C11 1_555 1_555
H12 C12 1_555 1_555
C13 C12 1_555 1_555
H13 C13 1_555 1_555
C14 C13 1_555 1_555
H14 C14 1_555 1_555
C15 C14 1_555 1_555
H15 C15 1_555 1_555
C16 C11 1_555 1_555
H16 C16 1_555 1_555
C17 C3 1_555 1_555
C18 C17 1_555 1_555
H17 C18 1_555 1_555
C19 C18 1_555 1_555
H18 C19 1_555 1_555
C20 C19 1_555 1_555
H19 C20 1_555 1_555
C21 C20 1_555 1_555
H20 C21 1_555 1_555
C22 C17 1_555 1_555
H21 C22 1_555 1_555
C23 C3 1_555 1_555
C24 C23 1_555 1_555
H22 C24 1_555 1_555
C25 C24 1_555 1_555
H23 C25 1_555 1_555
C26 C25 1_555 1_555
H24 C26 1_555 1_555
C27 C26 1_555 1_555
H25 C27 1_555 1_555
C28 C23 1_555 1_555
H26 C28 1_555 1_555
C1 C2 1_555 1_555
C9 C10 1_555 1_555
C15 C16 1_555 1_555
C21 C22 1_555 1_555
C27 C28 1_555 1_555

#END
