
#######################################################################
#
#                 Cambridge Crystallographic Data Centre
#                                CCDC 
#
#######################################################################
#
# If this CIF has been generated from an entry in the Cambridge 
# Structural Database, then it will include bibliographic, chemical, 
# crystal, experimental, refinement or atomic coordinate data resulting 
# from the CCDC's data processing and validation procedures.
#
#######################################################################

data_BIZYAL
_chemical_formula_moiety         'C9 H11 N3 O2 S1'
_chemical_name_systematic        
'(E)-2-Hydroxy-3-methoxybenzaldehyde thiosemicarbazone'
_symmetry_cell_setting           monoclinic
_symmetry_space_group_name_H-M   'P 21/c'
_symmetry_Int_Tables_number      14
_space_group_name_Hall           '-P 2ybc'
loop_
_symmetry_equiv_pos_site_id
_symmetry_equiv_pos_as_xyz
1 x,y,z
2 -x,1/2+y,1/2-z
3 -x,-y,-z
4 x,1/2-y,1/2+z
_cell_length_a                   7.057(3)
_cell_length_b                   14.673(5)
_cell_length_c                   10.738(4)
_cell_angle_alpha                90
_cell_angle_beta                 108.412(7)
_cell_angle_gamma                90
_cell_volume                     1054.97
_exptl_crystal_colour            orange
_exptl_crystal_description       block
_chemical_melting_point          '358-360 K'
_cell_formula_units_Z            4
loop_
_atom_site_label
_atom_site_type_symbol
_atom_site_fract_x
_atom_site_fract_y
_atom_site_fract_z
S1 S 1.0171(2) 0.35387(8) 0.55909(10)
O1 O 0.8111(5) 0.65121(18) -0.0190(3)
H1 H 0.7915 0.6940 -0.0706
O2 O 0.6495(5) 0.6610(2) -0.2733(3)
N1 N 0.8421(5) 0.4185(2) 0.1879(3)
N2 N 0.9111(5) 0.4247(2) 0.3218(3)
H2 H 0.9351 0.4771 0.3595
N3 N 0.9079(6) 0.2710(2) 0.3278(3)
H3 H 0.8692 0.2716 0.2434
H4 H 0.9248 0.2199 0.3692
C1 C 0.9411(7) 0.3481(3) 0.3936(4)
C2 C 0.8215(7) 0.4935(3) 0.1257(4)
H5 H 0.8580 0.5480 0.1712
C3 C 0.7403(6) 0.4938(3) -0.0173(4)
C4 C 0.7340(7) 0.5738(3) -0.0851(4)
C5 C 0.6465(7) 0.5770(3) -0.2212(4)
C6 C 0.5703(8) 0.4995(3) -0.2877(4)
H6 H 0.5123 0.5011 -0.3784
C7 C 0.5789(8) 0.4183(3) -0.2207(4)
H7 H 0.5275 0.3655 -0.2669
C8 C 0.6621(7) 0.4148(3) -0.0874(4)
H8 H 0.6667 0.3599 -0.0434
C9 C 0.5673(8) 0.6720(3) -0.4120(4)
H9 H 0.6335 0.6316 -0.4551
H10 H 0.5859 0.7339 -0.4351
H11 H 0.4272 0.6582 -0.4392
loop_
_geom_bond_atom_site_label_1
_geom_bond_atom_site_label_2
_geom_bond_site_symmetry_1
_geom_bond_site_symmetry_2
S1 C1 1_555 1_555
O1 H1 1_555 1_555
O2 C5 1_555 1_555
N1 N2 1_555 1_555
N2 H2 1_555 1_555
N3 H3 1_555 1_555
H4 N3 1_555 1_555
C1 N2 1_555 1_555
C2 N1 1_555 1_555
H5 C2 1_555 1_555
C3 C2 1_555 1_555
C4 O1 1_555 1_555
C5 C4 1_555 1_555
C6 C5 1_555 1_555
H6 C6 1_555 1_555
C7 C6 1_555 1_555
H7 C7 1_555 1_555
C8 C3 1_555 1_555
H8 C8 1_555 1_555
C9 O2 1_555 1_555
H9 C9 1_555 1_555
H10 C9 1_555 1_555
H11 C9 1_555 1_555
N3 C1 1_555 1_555
C3 C4 1_555 1_555
C7 C8 1_555 1_555

#END
