
#######################################################################
#
#                 Cambridge Crystallographic Data Centre
#                                CCDC 
#
#######################################################################
#
# If this CIF has been generated from an entry in the Cambridge 
# Structural Database, then it will include bibliographic, chemical, 
# crystal, experimental, refinement or atomic coordinate data resulting 
# from the CCDC's data processing and validation procedures.
#
#######################################################################

data_BMOMOR
_chemical_formula_moiety         'C14 H24 N2 O4'
_chemical_name_systematic        
DL-3,3'-Bi(3,5,5-trimethyl-2-oxo-morpholin-3-yl)
_symmetry_cell_setting           monoclinic
_symmetry_space_group_name_H-M   'P 21/c'
_symmetry_Int_Tables_number      14
_space_group_name_Hall           '-P 2ybc'
loop_
_symmetry_equiv_pos_site_id
_symmetry_equiv_pos_as_xyz
1 x,y,z
2 -x,1/2+y,1/2-z
3 -x,-y,-z
4 x,1/2-y,1/2+z
_cell_length_a                   11.866(8)
_cell_length_b                   28.133(18)
_cell_length_c                   12.281(7)
_cell_angle_alpha                90
_cell_angle_beta                 130.44(4)
_cell_angle_gamma                90
_cell_volume                     3120.24
_chemical_melting_point          155-6deg.C
_cell_formula_units_Z            8
loop_
_atom_site_label
_atom_site_type_symbol
_atom_site_fract_x
_atom_site_fract_y
_atom_site_fract_z
C1 C -0.08050 0.40080 0.26270
C2 C -0.15900 0.42920 0.30320
O1 O -0.17540 0.47590 0.28650
C3 C -0.12790 0.50020 0.21880
C4 C 0.01790 0.48090 0.26970
N1 N -0.01190 0.43100 0.22230
C5 C -0.20970 0.37160 0.12310
C6 C -0.14450 0.35760 0.05370
O2 O -0.19470 0.37700 -0.06950
C7 C -0.29930 0.41620 -0.12970
C8 C -0.41600 0.40700 -0.11820
N2 N -0.33620 0.40440 0.03540
C9 C 0.03430 0.36890 0.39020
O3 O -0.20510 0.40940 0.35470
C10 C 0.14040 0.48730 0.43050
C11 C 0.06040 0.50660 0.19190
C12 C -0.25320 0.32580 0.15560
O4 O -0.04730 0.32830 0.10870
C13 C -0.50550 0.36180 -0.19950
C14 C -0.51950 0.44970 -0.17530
H1 H 0.08200 0.41680 0.26390
H2 H -0.40680 0.39400 0.04470
H3 H -0.20020 0.49640 0.11840
H4 H -0.11620 0.53320 0.24190
H5 H -0.24780 0.44440 -0.07960
H6 H -0.34590 0.41960 -0.22780
H7 H -0.01400 0.34750 0.40840
H8 H 0.08760 0.35130 0.37070
H9 H 0.10180 0.38810 0.47320
H10 H 0.11100 0.47360 0.47890
H11 H 0.22800 0.47200 0.45990
H12 H 0.15950 0.52020 0.45190
H13 H 0.14730 0.49250 0.21660
H14 H -0.01810 0.50420 0.09200
H15 H 0.07970 0.53910 0.21970
H16 H -0.29300 0.33350 0.19990
H17 H -0.32530 0.30930 0.06870
H18 H -0.16810 0.30640 0.21770
H19 H -0.56810 0.35490 -0.17850
H20 H -0.56440 0.36730 -0.29920
H21 H -0.44030 0.33620 -0.17110
H22 H -0.46550 0.47620 -0.11490
H23 H -0.55770 0.45650 -0.26920
H24 H -0.59790 0.44240 -0.17600
C15 C 0.44550 0.37820 0.30030
C16 C 0.40550 0.37210 0.39580
O5 O 0.47240 0.33990 0.49970
C17 C 0.57360 0.30640 0.51550
C18 C 0.67340 0.33070 0.49620
N3 N 0.57480 0.34900 0.34900
C19 C 0.30890 0.35840 0.14780
C20 C 0.36930 0.34670 0.07260
O6 O 0.38440 0.30180 0.04870
C21 C 0.35620 0.26350 0.10570
C22 C 0.22210 0.27280 0.09100
N4 N 0.25630 0.31610 0.17490
C23 C 0.47680 0.43120 0.30010
O7 O 0.31260 0.39750 0.37850
C24 C 0.76760 0.36930 0.60990
C25 C 0.77290 0.29380 0.50660
C26 C 0.18430 0.39520 0.05610
O8 O 0.40280 0.37850 0.03240
C27 C 0.08360 0.27730 -0.06730
C28 C 0.20230 0.23260 0.16030
H25 H 0.63510 0.36890 0.34180
H26 H 0.16660 0.32530 0.15430
H27 H 0.51970 0.28190 0.44690
H28 H 0.63330 0.29290 0.60940
H29 H 0.44000 0.25950 0.20430
H30 H 0.34070 0.23500 0.05570
H31 H 0.38950 0.44920 0.26130
H32 H 0.50330 0.43610 0.24290
H33 H 0.55450 0.44150 0.39490
H34 H 0.70450 0.39170 0.60500
H35 H 0.82550 0.38500 0.59240
H36 H 0.83110 0.35520 0.70210
H37 H 0.82640 0.30790 0.48200
H38 H 0.71510 0.26820 0.44390
H39 H 0.84110 0.28220 0.60250
H40 H 0.14490 0.40280 0.10100
H41 H -0.00010 0.28410 -0.07560
H42 H 0.06740 0.24850 -0.11600
H43 H 0.09710 0.30250 -0.10990
H44 H 0.28930 0.22960 0.25760
H45 H 0.18430 0.20370 0.11120
H46 H 0.12040 0.23950 0.15500
loop_
_geom_bond_atom_site_label_1
_geom_bond_atom_site_label_2
_geom_bond_site_symmetry_1
_geom_bond_site_symmetry_2
C1 C2 1_555 1_555
C2 O1 1_555 1_555
O1 C3 1_555 1_555
C3 C4 1_555 1_555
C4 N1 1_555 1_555
N1 C1 1_555 1_555
C5 C1 1_555 1_555
C6 C5 1_555 1_555
O2 C6 1_555 1_555
C7 O2 1_555 1_555
C8 C7 1_555 1_555
N2 C5 1_555 1_555
C9 C1 1_555 1_555
O3 C2 1_555 1_555
C10 C4 1_555 1_555
C11 C4 1_555 1_555
C12 C5 1_555 1_555
O4 C6 1_555 1_555
C13 C8 1_555 1_555
C14 C8 1_555 1_555
C15 C16 1_555 1_555
C16 O5 1_555 1_555
O5 C17 1_555 1_555
C17 C18 1_555 1_555
C18 N3 1_555 1_555
N3 C15 1_555 1_555
C19 C15 1_555 1_555
C20 C19 1_555 1_555
O6 C20 1_555 1_555
C21 O6 1_555 1_555
C22 C21 1_555 1_555
N4 C19 1_555 1_555
C23 C15 1_555 1_555
O7 C16 1_555 1_555
C24 C18 1_555 1_555
C25 C18 1_555 1_555
C26 C19 1_555 1_555
O8 C20 1_555 1_555
C27 C22 1_555 1_555
C28 C22 1_555 1_555
H1 N1 1_555 1_555
H2 N2 1_555 1_555
H3 C3 1_555 1_555
H4 C3 1_555 1_555
H5 C7 1_555 1_555
H6 C7 1_555 1_555
H7 C9 1_555 1_555
H8 C9 1_555 1_555
H9 C9 1_555 1_555
H10 C10 1_555 1_555
H11 C10 1_555 1_555
H12 C10 1_555 1_555
H13 C11 1_555 1_555
H14 C11 1_555 1_555
H15 C11 1_555 1_555
H16 C12 1_555 1_555
H17 C12 1_555 1_555
H18 C12 1_555 1_555
H19 C13 1_555 1_555
H20 C13 1_555 1_555
H21 C13 1_555 1_555
H22 C14 1_555 1_555
H23 C14 1_555 1_555
H24 C14 1_555 1_555
H25 N3 1_555 1_555
H26 N4 1_555 1_555
H27 C17 1_555 1_555
H28 C17 1_555 1_555
H29 C21 1_555 1_555
H30 C21 1_555 1_555
H31 C23 1_555 1_555
H32 C23 1_555 1_555
H33 C23 1_555 1_555
H34 C24 1_555 1_555
H35 C24 1_555 1_555
H36 C24 1_555 1_555
H37 C25 1_555 1_555
H38 C25 1_555 1_555
H39 C25 1_555 1_555
H40 C26 1_555 1_555
H41 C27 1_555 1_555
H42 C27 1_555 1_555
H43 C27 1_555 1_555
H44 C28 1_555 1_555
H45 C28 1_555 1_555
H46 C28 1_555 1_555
C8 N2 1_555 1_555
C22 N4 1_555 1_555

#END
