
#######################################################################
#
#                 Cambridge Crystallographic Data Centre
#                                CCDC 
#
#######################################################################
#
# If this CIF has been generated from an entry in the Cambridge 
# Structural Database, then it will include bibliographic, chemical, 
# crystal, experimental, refinement or atomic coordinate data resulting 
# from the CCDC's data processing and validation procedures.
#
#######################################################################

data_BOBFOO
_chemical_formula_moiety         'C77 H37 N1 O10 S1,0.5(C6 F6)'
_chemical_name_systematic        
'26,28,48,58-tetrakis(t-Butylperoxo)-45-hydroxy-44-isothiocyanato-44,45-homo-oxa-C60fullerene hexafluorobenzene solvate'
_symmetry_cell_setting           orthorhombic
_symmetry_space_group_name_H-M   'P c a 21'
_symmetry_Int_Tables_number      29
_space_group_name_Hall           'P 2c -2ac'
loop_
_symmetry_equiv_pos_site_id
_symmetry_equiv_pos_as_xyz
1 x,y,z
2 -x,-y,1/2+z
3 1/2+x,-y,z
4 1/2-x,y,1/2+z
_cell_length_a                   19.9448(2)
_cell_length_b                   14.8201(2)
_cell_length_c                   37.3546(6)
_cell_angle_alpha                90
_cell_angle_beta                 90
_cell_angle_gamma                90
_cell_volume                     11041.4
_exptl_crystal_colour            red
_exptl_crystal_description       plate
_cell_formula_units_Z            8
loop_
_atom_site_label
_atom_site_type_symbol
_atom_site_fract_x
_atom_site_fract_y
_atom_site_fract_z
S1 S 0.68127(17) 0.3449(2) 0.20725(11)
N1 N 0.5938(4) 0.2408(5) 0.1690(2)
O1 O 0.5050(3) 0.2281(4) 0.20511(17)
O2 O 0.4349(3) 0.2454(4) 0.25016(19)
H1 H 0.4683 0.2376 0.2626
O3 O 0.5206(4) 0.0158(5) 0.2626(2)
O4 O 0.5352(3) 0.1137(5) 0.2718(2)
O5 O 0.3587(3) 0.3549(3) 0.16013(18)
O6 O 0.4241(3) 0.3922(4) 0.17199(19)
O7 O 0.3088(5) -0.0059(4) 0.2764(3)
O8 O 0.3675(5) 0.0103(5) 0.2993(3)
O9 O 0.2140(3) 0.1796(4) 0.22077(19)
O10 O 0.2259(3) 0.2773(4) 0.2214(2)
C1 C 0.5297(5) 0.1939(6) 0.1734(3)
C2 C 0.5454(5) 0.0913(7) 0.1725(3)
C3 C 0.5332(5) 0.0196(7) 0.1953(3)
C4 C 0.4867(6) 0.0220(7) 0.2300(3)
C5 C 0.4339(5) 0.0967(6) 0.2275(3)
C6 C 0.4417(4) 0.1964(6) 0.2176(3)
C7 C 0.3763(5) 0.2129(7) 0.1961(3)
C8 C 0.3688(5) 0.2603(5) 0.1593(3)
C9 C 0.4252(6) 0.2338(6) 0.1324(3)
C10 C 0.4890(5) 0.2026(6) 0.1395(3)
C11 C 0.5188(5) 0.1455(7) 0.1158(3)
C12 C 0.5563(5) 0.0711(7) 0.1342(3)
C13 C 0.5575(5) -0.0121(7) 0.1217(4)
C14 C 0.5502(5) -0.0846(7) 0.1444(3)
C15 C 0.5347(5) -0.0693(7) 0.1800(3)
C16 C 0.4846(4) -0.1252(6) 0.1987(2)
C17 C 0.4507(6) -0.0699(7) 0.2245(3)
C18 C 0.3836(6) -0.0826(6) 0.2308(3)
C19 C 0.3361(7) -0.0035(5) 0.2375(3)
C20 C 0.3683(6) 0.0838(6) 0.2297(3)
C21 C 0.3334(5) 0.1537(7) 0.2093(3)
C22 C 0.2642(5) 0.1405(6) 0.1970(3)
C23 C 0.2591(5) 0.1689(6) 0.1576(3)
C24 C 0.3058(6) 0.2172(6) 0.1417(3)
C25 C 0.3253(5) 0.1990(5) 0.1032(3)
C26 C 0.3944(6) 0.2083(6) 0.1000(3)
C27 C 0.4260(6) 0.1594(7) 0.0738(3)
C28 C 0.4894(5) 0.1209(6) 0.0809(3)
C29 C 0.4972(6) 0.0281(7) 0.0676(3)
C30 C 0.5304(5) -0.0315(8) 0.0869(3)
C31 C 0.4977(7) -0.1240(7) 0.0874(3)
C32 C 0.5129(5) -0.1588(6) 0.1249(3)
C33 C 0.4677(6) -0.2071(6) 0.1428(3)
C34 C 0.4520(5) -0.1924(6) 0.1796(3)
C35 C 0.3778(6) -0.2043(7) 0.1869(4)
C36 C 0.3493(6) -0.1484(7) 0.2094(4)
C37 C 0.2819(5) -0.1136(6) 0.2000(3)
C38 C 0.2775(5) -0.0229(7) 0.2145(3)
C39 C 0.2451(5) 0.0420(6) 0.1953(3)
C40 C 0.2152(5) 0.0187(7) 0.1606(4)
C41 C 0.2239(5) 0.0986(6) 0.1382(3)
C42 C 0.2369(5) 0.0824(7) 0.1021(3)
C43 C 0.2870(6) 0.1346(6) 0.0841(3)
C44 C 0.3221(5) 0.0799(5) 0.0584(3)
C45 C 0.3913(7) 0.0876(8) 0.0536(3)
C46 C 0.4307(6) 0.0130(8) 0.0501(3)
C47 C 0.4067(6) -0.0717(8) 0.0517(3)
C48 C 0.4403(8) -0.1448(8) 0.0734(3)
C49 C 0.3902(7) -0.1953(7) 0.0915(4)
C50 C 0.4044(6) -0.2300(6) 0.1242(4)
C51 C 0.3518(7) -0.2292(6) 0.1507(3)
C52 C 0.2873(5) -0.1933(7) 0.1434(3)
C53 C 0.2523(6) -0.1373(7) 0.1664(4)
C54 C 0.2195(5) -0.0679(8) 0.1465(3)
C55 C 0.2312(5) -0.0798(7) 0.1083(3)
C56 C 0.2384(6) -0.0066(6) 0.0888(4)
C57 C 0.2897(7) -0.0075(5) 0.0612(4)
C58 C 0.3331(6) -0.0825(6) 0.0574(3)
C59 C 0.3260(5) -0.1616(7) 0.0818(3)
C60 C 0.2755(5) -0.1573(6) 0.1062(3)
C61 C 0.6267(6) 0.2844(8) 0.1868(4)
C62 C 0.6003(5) 0.1179(9) 0.2897(3)
C63 C 0.6036(7) 0.2162(10) 0.2991(4)
H2 H 0.5676 0.2309 0.3151
H3 H 0.5995 0.2517 0.2777
H4 H 0.6457 0.2290 0.3104
C64 C 0.5993(6) 0.0590(8) 0.3221(3)
H5 H 0.5987 -0.0032 0.3149
H6 H 0.5601 0.0719 0.3361
H7 H 0.6387 0.0703 0.3362
C65 C 0.6553(5) 0.0932(9) 0.2648(3)
H8 H 0.6530 0.0299 0.2596
H9 H 0.6977 0.1068 0.2757
H10 H 0.6508 0.1270 0.2430
C66 C 0.4126(8) 0.4751(7) 0.1920(3)
C67 C 0.3684(6) 0.4583(8) 0.2238(3)
H11 H 0.3890 0.4143 0.2391
H12 H 0.3256 0.4363 0.2159
H13 H 0.3623 0.5136 0.2368
C68 C 0.3823(7) 0.5453(6) 0.1658(4)
H14 H 0.4124 0.5541 0.1460
H15 H 0.3760 0.6016 0.1781
H16 H 0.3400 0.5238 0.1571
C69 C 0.4758(7) 0.5005(6) 0.2049(4)
H17 H 0.4923 0.4548 0.2208
H18 H 0.4721 0.5567 0.2176
H19 H 0.5063 0.5075 0.1852
C70 C 0.3403(6) 0.0742(8) 0.3266(3)
C71 C 0.4079(6) 0.0912(9) 0.3466(3)
H20 H 0.4371 0.1266 0.3317
H21 H 0.4289 0.0344 0.3519
H22 H 0.3994 0.1230 0.3685
C72 C 0.3135(7) 0.1593(8) 0.3109(4)
H23 H 0.3474 0.1870 0.2963
H24 H 0.3008 0.1998 0.3297
H25 H 0.2750 0.1458 0.2964
C73 C 0.2922(7) 0.0212(9) 0.3515(4)
H26 H 0.3146 -0.0315 0.3605
H27 H 0.2531 0.0034 0.3383
H28 H 0.2791 0.0589 0.3712
C74 C 0.1619(5) 0.3216(7) 0.2229(3)
C75 C 0.1180(7) 0.2940(9) 0.1932(5)
H29 H 0.1105 0.2301 0.1943
H30 H 0.1389 0.3090 0.1708
H31 H 0.0758 0.3249 0.1951
C76 C 0.1757(5) 0.4143(7) 0.2258(4)
H32 H 0.1988 0.4343 0.2047
H33 H 0.2033 0.4250 0.2464
H34 H 0.1344 0.4470 0.2282
C77 C 0.1250(7) 0.2871(10) 0.2569(4)
H35 H 0.1162 0.2237 0.2546
H36 H 0.0834 0.3190 0.2596
H37 H 0.1526 0.2974 0.2776
S2 S 0.07161(19) 0.1530(2) 0.45833(12)
N2 N 0.1586(4) 0.2625(5) 0.4947(2)
O11 O 0.2489(3) 0.2760(4) 0.45894(19)
O12 O 0.3164(3) 0.2595(4) 0.41304(19)
H38 H 0.2862 0.2746 0.3994
O13 O 0.2271(5) 0.4889(4) 0.4021(3)
O14 O 0.2165(3) 0.3929(5) 0.39276(19)
O15 O 0.3933(3) 0.1486(3) 0.50315(19)
O16 O 0.3268(3) 0.1123(4) 0.4920(2)
O17 O 0.4428(5) 0.5115(4) 0.3908(3)
O18 O 0.3891(5) 0.4973(4) 0.3675(3)
O19 O 0.5366(3) 0.3252(4) 0.44298(18)
O20 O 0.5251(3) 0.2266(4) 0.4422(2)
C78 C 0.2227(4) 0.3112(6) 0.4902(3)
C79 C 0.2058(5) 0.4120(7) 0.4934(3)
C80 C 0.2213(6) 0.4801(9) 0.4701(4)
C81 C 0.2645(6) 0.4854(7) 0.4361(4)
C82 C 0.3137(6) 0.4106(6) 0.4371(3)
C83 C 0.3095(5) 0.3082(6) 0.4466(3)
C84 C 0.3715(6) 0.2913(6) 0.4689(3)
C85 C 0.3826(5) 0.2465(6) 0.5031(3)
C86 C 0.3260(6) 0.2699(6) 0.5301(3)
C87 C 0.2630(6) 0.2964(8) 0.5252(3)
C88 C 0.2282(5) 0.3599(6) 0.5497(3)
C89 C 0.1962(5) 0.4259(8) 0.5300(4)
C90 C 0.1903(6) 0.5149(7) 0.5443(4)
C91 C 0.2035(5) 0.5901(6) 0.5193(3)
C92 C 0.2170(5) 0.5718(7) 0.4843(3)
C93 C 0.2660(5) 0.6262(6) 0.4663(3)
C94 C 0.3008(5) 0.5741(6) 0.4399(3)
C95 C 0.3671(6) 0.5855(7) 0.4352(3)
C96 C 0.4158(6) 0.5101(6) 0.4234(4)
C97 C 0.3817(6) 0.4254(7) 0.4353(3)
C98 C 0.4179(5) 0.3506(6) 0.4555(3)
C99 C 0.4872(5) 0.3634(6) 0.4682(3)
C100 C 0.4936(5) 0.3359(7) 0.5060(3)
C101 C 0.4431(6) 0.2863(6) 0.5229(3)
C102 C 0.4306(6) 0.3014(6) 0.5575(3)
C103 C 0.3571(6) 0.2907(7) 0.5661(3)
C104 C 0.3223(6) 0.3451(6) 0.5910(3)
C105 C 0.2539(6) 0.3792(7) 0.5793(4)
C106 C 0.2541(5) 0.4668(7) 0.5971(3)
C107 C 0.2229(5) 0.5390(7) 0.5784(3)
C108 C 0.2490(5) 0.6261(6) 0.5749(3)
C109 C 0.2355(6) 0.6572(7) 0.5405(4)
C110 C 0.2876(6) 0.7133(6) 0.5235(3)
C111 C 0.3002(5) 0.6975(5) 0.4850(3)
C112 C 0.3687(6) 0.7090(6) 0.4801(3)
C113 C 0.4046(5) 0.6526(6) 0.4560(3)
C114 C 0.4678(5) 0.6179(6) 0.4657(3)
C115 C 0.4748(5) 0.5272(7) 0.4512(3)
C116 C 0.5061(5) 0.4640(7) 0.4700(3)
C117 C 0.5337(5) 0.4802(8) 0.5032(4)
C118 C 0.5249(5) 0.4064(7) 0.5262(4)
C119 C 0.5138(5) 0.4168(6) 0.5610(4)
C120 C 0.4619(5) 0.3627(6) 0.5795(3)
C121 C 0.4274(6) 0.4220(9) 0.6049(3)
C122 C 0.3603(6) 0.4095(6) 0.6110(3)
C123 C 0.3145(7) 0.4915(6) 0.6154(3)
C124 C 0.3464(6) 0.5793(8) 0.6121(3)
C125 C 0.3111(5) 0.6443(6) 0.5929(3)
C126 C 0.3601(6) 0.7010(7) 0.5749(3)
C127 C 0.3491(7) 0.7305(7) 0.5402(4)
C128 C 0.4009(6) 0.7296(6) 0.5139(3)
C129 C 0.4620(7) 0.6950(7) 0.5228(3)
C130 C 0.4966(5) 0.6387(6) 0.4970(3)
C131 C 0.5321(5) 0.5687(7) 0.5166(3)
C132 C 0.5181(5) 0.5847(7) 0.5544(4)
C133 C 0.5065(7) 0.5076(5) 0.5780(4)
C134 C 0.4536(7) 0.5102(6) 0.6037(4)
C135 C 0.4137(6) 0.5874(8) 0.6063(3)
C136 C 0.4283(5) 0.6614(6) 0.5837(3)
C137 C 0.4754(5) 0.6616(6) 0.5583(3)
C138 C 0.1214(5) 0.2119(7) 0.4778(3)
C139 C 0.1529(5) 0.3879(8) 0.3748(3)
C140 C 0.1487(7) 0.2875(8) 0.3652(4)
H39 H 0.1824 0.2733 0.3477
H40 H 0.1051 0.2744 0.3556
H41 H 0.1559 0.2519 0.3863
C141 C 0.0988(5) 0.4155(13) 0.4015(4)
H42 H 0.1030 0.4786 0.4068
H43 H 0.1039 0.3811 0.4231
H44 H 0.0553 0.4040 0.3914
C142 C 0.1550(6) 0.4559(13) 0.3414(3)
H45 H 0.1896 0.4375 0.3251
H46 H 0.1641 0.5159 0.3498
H47 H 0.1125 0.4550 0.3293
C143 C 0.3414(5) 0.0278(7) 0.4735(3)
C144 C 0.3792(6) 0.0537(7) 0.4394(3)
H48 H 0.3530 0.0961 0.4259
H49 H 0.3869 0.0007 0.4252
H50 H 0.4214 0.0805 0.4456
C145 C 0.3698(7) -0.0340(7) 0.4962(4)
H51 H 0.4158 -0.0184 0.5004
H52 H 0.3675 -0.0929 0.4855
H53 H 0.3459 -0.0342 0.5185
C146 C 0.2598(7) 0.0077(7) 0.4638(4)
H54 H 0.2437 0.0530 0.4476
H55 H 0.2339 0.0095 0.4855
H56 H 0.2556 -0.0507 0.4530
C147 C 0.4101(6) 0.4340(7) 0.3381(3)
C148 C 0.3458(7) 0.4147(9) 0.3196(3)
H57 H 0.3281 0.4696 0.3097
H58 H 0.3143 0.3901 0.3363
H59 H 0.3535 0.3720 0.3007
C149 C 0.4621(9) 0.4861(9) 0.3171(4)
H60 H 0.4422 0.5400 0.3076
H61 H 0.4783 0.4494 0.2977
H62 H 0.4987 0.5018 0.3325
C150 C 0.4384(7) 0.3508(9) 0.3538(4)
H63 H 0.4803 0.3644 0.3652
H64 H 0.4454 0.3070 0.3352
H65 H 0.4077 0.3269 0.3712
C151 C 0.5898(5) 0.1868(6) 0.4402(3)
C152 C 0.5715(5) 0.0877(6) 0.4375(4)
H66 H 0.5489 0.0768 0.4152
H67 H 0.5425 0.0717 0.4570
H68 H 0.6115 0.0518 0.4385
C153 C 0.6294(6) 0.2212(9) 0.4075(3)
H69 H 0.6058 0.2058 0.3860
H70 H 0.6730 0.1937 0.4072
H71 H 0.6342 0.2856 0.4090
C154 C 0.6255(6) 0.2034(7) 0.4752(4)
H72 H 0.6369 0.2662 0.4771
H73 H 0.6656 0.1678 0.4761
H74 H 0.5966 0.1869 0.4947
C155 C 0.4167(6) 0.7952(9) 0.3576(3)
C156 C 0.3512(6) 0.7713(9) 0.3660(3)
C157 C 0.3110(6) 0.7296(10) 0.3405(4)
C158 C 0.3363(6) 0.7119(9) 0.3066(3)
C159 C 0.4018(6) 0.7358(8) 0.2981(3)
C160 C 0.4420(6) 0.7774(9) 0.3236(4)
F1 F 0.4540(9) 0.8425(12) 0.3807(5)
F2 F 0.3232(6) 0.7919(9) 0.3976(3)
F3 F 0.2507(6) 0.7029(11) 0.3502(4)
F4 F 0.2993(8) 0.6673(13) 0.2837(4)
F5 F 0.4296(7) 0.7167(10) 0.2659(4)
F6 F 0.5026(6) 0.8041(12) 0.3131(5)
loop_
_geom_bond_atom_site_label_1
_geom_bond_atom_site_label_2
_geom_bond_site_symmetry_1
_geom_bond_site_symmetry_2
S1 C61 1_555 1_555
N1 C1 1_555 1_555
O1 C1 1_555 1_555
O2 H1 1_555 1_555
O3 O4 1_555 1_555
O4 C62 1_555 1_555
O5 O6 1_555 1_555
O6 C66 1_555 1_555
O7 O8 1_555 1_555
O8 C70 1_555 1_555
O9 O10 1_555 1_555
O10 C74 1_555 1_555
C1 C2 1_555 1_555
C2 C3 1_555 1_555
C3 C4 1_555 1_555
C4 O3 1_555 1_555
C5 C4 1_555 1_555
C6 O1 1_555 1_555
C7 C6 1_555 1_555
C8 O5 1_555 1_555
C9 C8 1_555 1_555
C10 C1 1_555 1_555
C11 C10 1_555 1_555
C12 C2 1_555 1_555
C13 C12 1_555 1_555
C14 C13 1_555 1_555
C15 C3 1_555 1_555
C16 C15 1_555 1_555
C17 C4 1_555 1_555
C18 C17 1_555 1_555
C19 O7 1_555 1_555
C20 C5 1_555 1_555
C21 C7 1_555 1_555
C22 O9 1_555 1_555
C23 C22 1_555 1_555
C24 C8 1_555 1_555
C25 C24 1_555 1_555
C26 C9 1_555 1_555
C27 C26 1_555 1_555
C28 C11 1_555 1_555
C29 C28 1_555 1_555
C30 C13 1_555 1_555
C31 C30 1_555 1_555
C32 C14 1_555 1_555
C33 C32 1_555 1_555
C34 C16 1_555 1_555
C35 C34 1_555 1_555
C36 C18 1_555 1_555
C37 C36 1_555 1_555
C38 C19 1_555 1_555
C39 C22 1_555 1_555
C40 C39 1_555 1_555
C41 C23 1_555 1_555
C42 C41 1_555 1_555
C43 C25 1_555 1_555
C44 C43 1_555 1_555
C45 C27 1_555 1_555
C46 C29 1_555 1_555
C47 C46 1_555 1_555
C48 C31 1_555 1_555
C49 C48 1_555 1_555
C50 C33 1_555 1_555
C51 C35 1_555 1_555
C52 C51 1_555 1_555
C53 C37 1_555 1_555
C54 C40 1_555 1_555
C55 C54 1_555 1_555
C56 C42 1_555 1_555
C57 C44 1_555 1_555
C58 C47 1_555 1_555
C59 C49 1_555 1_555
C60 C52 1_555 1_555
C61 N1 1_555 1_555
C62 C63 1_555 1_555
C63 H2 1_555 1_555
H3 C63 1_555 1_555
H4 C63 1_555 1_555
C64 C62 1_555 1_555
H5 C64 1_555 1_555
H6 C64 1_555 1_555
H7 C64 1_555 1_555
C65 C62 1_555 1_555
H8 C65 1_555 1_555
H9 C65 1_555 1_555
H10 C65 1_555 1_555
C66 C67 1_555 1_555
C67 H11 1_555 1_555
H12 C67 1_555 1_555
H13 C67 1_555 1_555
C68 C66 1_555 1_555
H14 C68 1_555 1_555
H15 C68 1_555 1_555
H16 C68 1_555 1_555
C69 C66 1_555 1_555
H17 C69 1_555 1_555
H18 C69 1_555 1_555
H19 C69 1_555 1_555
C70 C71 1_555 1_555
C71 H20 1_555 1_555
H21 C71 1_555 1_555
H22 C71 1_555 1_555
C72 C70 1_555 1_555
H23 C72 1_555 1_555
H24 C72 1_555 1_555
H25 C72 1_555 1_555
C73 C70 1_555 1_555
H26 C73 1_555 1_555
H27 C73 1_555 1_555
H28 C73 1_555 1_555
C74 C75 1_555 1_555
C75 H29 1_555 1_555
H30 C75 1_555 1_555
H31 C75 1_555 1_555
C76 C74 1_555 1_555
H32 C76 1_555 1_555
H33 C76 1_555 1_555
H34 C76 1_555 1_555
C77 C74 1_555 1_555
H35 C77 1_555 1_555
H36 C77 1_555 1_555
H37 C77 1_555 1_555
S2 C138 1_555 1_555
N2 C78 1_555 1_555
O11 C78 1_555 1_555
O12 H38 1_555 1_555
O13 O14 1_555 1_555
O14 C139 1_555 1_555
O15 O16 1_555 1_555
O16 C143 1_555 1_555
O17 O18 1_555 1_555
O18 C147 1_555 1_555
O19 O20 1_555 1_555
O20 C151 1_555 1_555
C78 C79 1_555 1_555
C79 C80 1_555 1_555
C80 C81 1_555 1_555
C81 O13 1_555 1_555
C82 C81 1_555 1_555
C83 O11 1_555 1_555
C84 C83 1_555 1_555
C85 O15 1_555 1_555
C86 C85 1_555 1_555
C87 C78 1_555 1_555
C88 C87 1_555 1_555
C89 C79 1_555 1_555
C90 C89 1_555 1_555
C91 C90 1_555 1_555
C92 C80 1_555 1_555
C93 C92 1_555 1_555
C94 C81 1_555 1_555
C95 C94 1_555 1_555
C96 O17 1_555 1_555
C97 C82 1_555 1_555
C98 C84 1_555 1_555
C99 O19 1_555 1_555
C100 C99 1_555 1_555
C101 C85 1_555 1_555
C102 C101 1_555 1_555
C103 C86 1_555 1_555
C104 C103 1_555 1_555
C105 C88 1_555 1_555
C106 C105 1_555 1_555
C107 C90 1_555 1_555
C108 C107 1_555 1_555
C109 C91 1_555 1_555
C110 C109 1_555 1_555
C111 C93 1_555 1_555
C112 C111 1_555 1_555
C113 C95 1_555 1_555
C114 C113 1_555 1_555
C115 C96 1_555 1_555
C116 C99 1_555 1_555
C117 C116 1_555 1_555
C118 C100 1_555 1_555
C119 C118 1_555 1_555
C120 C102 1_555 1_555
C121 C120 1_555 1_555
C122 C104 1_555 1_555
C123 C106 1_555 1_555
C124 C123 1_555 1_555
C125 C108 1_555 1_555
C126 C125 1_555 1_555
C127 C110 1_555 1_555
C128 C112 1_555 1_555
C129 C128 1_555 1_555
C130 C114 1_555 1_555
C131 C117 1_555 1_555
C132 C131 1_555 1_555
C133 C119 1_555 1_555
C134 C121 1_555 1_555
C135 C124 1_555 1_555
C136 C126 1_555 1_555
C137 C129 1_555 1_555
C138 N2 1_555 1_555
C139 C140 1_555 1_555
C140 H39 1_555 1_555
H40 C140 1_555 1_555
H41 C140 1_555 1_555
C141 C139 1_555 1_555
H42 C141 1_555 1_555
H43 C141 1_555 1_555
H44 C141 1_555 1_555
C142 C139 1_555 1_555
H45 C142 1_555 1_555
H46 C142 1_555 1_555
H47 C142 1_555 1_555
C143 C144 1_555 1_555
C144 H48 1_555 1_555
H49 C144 1_555 1_555
H50 C144 1_555 1_555
C145 C143 1_555 1_555
H51 C145 1_555 1_555
H52 C145 1_555 1_555
H53 C145 1_555 1_555
C146 C143 1_555 1_555
H54 C146 1_555 1_555
H55 C146 1_555 1_555
H56 C146 1_555 1_555
C147 C148 1_555 1_555
C148 H57 1_555 1_555
H58 C148 1_555 1_555
H59 C148 1_555 1_555
C149 C147 1_555 1_555
H60 C149 1_555 1_555
H61 C149 1_555 1_555
H62 C149 1_555 1_555
C150 C147 1_555 1_555
H63 C150 1_555 1_555
H64 C150 1_555 1_555
H65 C150 1_555 1_555
C151 C152 1_555 1_555
C152 H66 1_555 1_555
H67 C152 1_555 1_555
H68 C152 1_555 1_555
C153 C151 1_555 1_555
H69 C153 1_555 1_555
H70 C153 1_555 1_555
H71 C153 1_555 1_555
C154 C151 1_555 1_555
H72 C154 1_555 1_555
H73 C154 1_555 1_555
H74 C154 1_555 1_555
C155 C156 1_555 1_555
C156 C157 1_555 1_555
C157 C158 1_555 1_555
C158 C159 1_555 1_555
C159 C160 1_555 1_555
C160 C155 1_555 1_555
F1 C155 1_555 1_555
F2 C156 1_555 1_555
F3 C157 1_555 1_555
F4 C158 1_555 1_555
F5 C159 1_555 1_555
F6 C160 1_555 1_555
O2 C6 1_555 1_555
C5 C6 1_555 1_555
C7 C8 1_555 1_555
C9 C10 1_555 1_555
C11 C12 1_555 1_555
C14 C15 1_555 1_555
C16 C17 1_555 1_555
C18 C19 1_555 1_555
C19 C20 1_555 1_555
C20 C21 1_555 1_555
C21 C22 1_555 1_555
C23 C24 1_555 1_555
C25 C26 1_555 1_555
C27 C28 1_555 1_555
C29 C30 1_555 1_555
C31 C32 1_555 1_555
C33 C34 1_555 1_555
C35 C36 1_555 1_555
C37 C38 1_555 1_555
C38 C39 1_555 1_555
C40 C41 1_555 1_555
C42 C43 1_555 1_555
C44 C45 1_555 1_555
C45 C46 1_555 1_555
C47 C48 1_555 1_555
C49 C50 1_555 1_555
C50 C51 1_555 1_555
C52 C53 1_555 1_555
C53 C54 1_555 1_555
C55 C56 1_555 1_555
C55 C60 1_555 1_555
C56 C57 1_555 1_555
C57 C58 1_555 1_555
C58 C59 1_555 1_555
C59 C60 1_555 1_555
O12 C83 1_555 1_555
C82 C83 1_555 1_555
C84 C85 1_555 1_555
C86 C87 1_555 1_555
C88 C89 1_555 1_555
C91 C92 1_555 1_555
C93 C94 1_555 1_555
C95 C96 1_555 1_555
C96 C97 1_555 1_555
C97 C98 1_555 1_555
C98 C99 1_555 1_555
C100 C101 1_555 1_555
C102 C103 1_555 1_555
C104 C105 1_555 1_555
C106 C107 1_555 1_555
C108 C109 1_555 1_555
C110 C111 1_555 1_555
C112 C113 1_555 1_555
C114 C115 1_555 1_555
C115 C116 1_555 1_555
C117 C118 1_555 1_555
C119 C120 1_555 1_555
C121 C122 1_555 1_555
C122 C123 1_555 1_555
C124 C125 1_555 1_555
C126 C127 1_555 1_555
C127 C128 1_555 1_555
C129 C130 1_555 1_555
C130 C131 1_555 1_555
C132 C133 1_555 1_555
C132 C137 1_555 1_555
C133 C134 1_555 1_555
C134 C135 1_555 1_555
C135 C136 1_555 1_555
C136 C137 1_555 1_555

#END
