
#######################################################################
#
#                 Cambridge Crystallographic Data Centre
#                                CCDC 
#
#######################################################################
#
# If this CIF has been generated from an entry in the Cambridge 
# Structural Database, then it will include bibliographic, chemical, 
# crystal, experimental, refinement or atomic coordinate data resulting 
# from the CCDC's data processing and validation procedures.
#
#######################################################################

data_BOBFII
_chemical_formula_moiety         'C77 H37 N1 O10 S1,C1 H1 Cl3'
_chemical_name_systematic        
'26,28,48,58-tetrakis(t-Butylperoxo)-44-hydroxy-46-thiocyanato-44,45-homo-oxa-C60fullerene chloroform solvate'
_symmetry_cell_setting           monoclinic
_symmetry_space_group_name_H-M   'P 21/n'
_symmetry_Int_Tables_number      14
_space_group_name_Hall           '-P 2yn'
loop_
_symmetry_equiv_pos_site_id
_symmetry_equiv_pos_as_xyz
1 x,y,z
2 1/2-x,1/2+y,1/2-z
3 -x,-y,-z
4 1/2+x,1/2-y,1/2+z
_cell_length_a                   15.331(3)
_cell_length_b                   14.898(3)
_cell_length_c                   25.152(5)
_cell_angle_alpha                90
_cell_angle_beta                 104.84(3)
_cell_angle_gamma                90
_cell_volume                     5553.13
_exptl_crystal_colour            red
_exptl_crystal_description       block
_cell_formula_units_Z            4
loop_
_atom_site_label
_atom_site_type_symbol
_atom_site_fract_x
_atom_site_fract_y
_atom_site_fract_z
Cl1 Cl 0.15962(11) 0.04298(12) 0.08589(6)
Cl2 Cl 0.27154(11) 0.18304(17) 0.14454(10)
Cl3 Cl 0.16664(16) 0.21268(16) 0.03064(11)
C81 C 0.1737(4) 0.1590(5) 0.0961(3)
H47 H 0.1234 0.1811 0.1099
S1 S 0.08985(8) 0.02976(7) 0.21349(4)
O1 O 0.13086(17) 0.24979(17) 0.21302(11)
O2 O 0.0979(2) 0.3700(2) 0.15767(12)
H1 H 0.152(3) 0.397(3) 0.170(2)
O3 O -0.07274(18) 0.09091(18) 0.16693(10)
O4 O -0.03985(18) 0.1330(2) 0.12228(11)
O5 O 0.0102(2) -0.04502(17) 0.32128(12)
O6 O -0.05643(19) -0.09504(17) 0.34257(11)
O7 O 0.2212(2) 0.0900(2) 0.42091(11)
O8 O 0.2174(5) 0.0674(6) 0.4797(2)
O10 O 0.29426(18) 0.3180(2) 0.33622(12)
O11 O 0.34021(19) 0.2406(2) 0.36763(13)
N1 N 0.2394(3) -0.0331(3) 0.29666(18)
C1 C -0.2792(3) 0.2914(3) 0.27367(19)
C2 C -0.2545(3) 0.3612(3) 0.24486(18)
C3 C -0.2292(3) 0.4474(3) 0.2725(2)
C4 C -0.2269(3) 0.4577(3) 0.3276(2)
C5 C -0.2528(3) 0.3832(3) 0.3571(2)
C6 C -0.2785(3) 0.3009(3) 0.33109(19)
C7 C -0.2477(3) 0.2181(3) 0.35898(19)
C8 C -0.2289(3) 0.1557(3) 0.31918(18)
C9 C -0.2474(3) 0.2015(3) 0.26674(18)
C10 C -0.1894(3) 0.1875(3) 0.23279(16)
C11 C -0.1629(3) 0.2612(3) 0.20393(16)
C12 C -0.1981(3) 0.3461(3) 0.20821(17)
C13 C -0.1388(3) 0.4232(3) 0.21102(17)
C14 C -0.1577(3) 0.4848(3) 0.25079(19)
C15 C -0.0861(3) 0.5301(3) 0.2857(2)
C16 C -0.0840(3) 0.5390(3) 0.34342(19)
C17 C -0.1531(3) 0.5046(3) 0.36320(19)
C18 C -0.1331(3) 0.4595(3) 0.41657(19)
C19 C -0.1939(3) 0.3845(3) 0.41271(19)
C20 C -0.1656(3) 0.3044(3) 0.43902(17)
C21 C -0.1927(3) 0.2198(3) 0.41231(18)
C22 C -0.1166(3) 0.1583(3) 0.42732(17)
C23 C -0.0982(3) 0.0970(3) 0.38905(17)
C24 C -0.1562(3) 0.0979(3) 0.33320(17)
C25 C -0.1018(3) 0.0799(2) 0.29576(16)
C26 C -0.1166(3) 0.1244(2) 0.24746(16)
C27 C -0.0473(3) 0.1477(2) 0.21439(15)
C28 C -0.0719(3) 0.2467(3) 0.19846(15)
C29 C -0.0199(3) 0.3201(3) 0.19574(15)
C30 C -0.0528(3) 0.4086(3) 0.20633(16)
C31 C 0.0231(3) 0.4568(3) 0.24248(18)
C32 C 0.0047(3) 0.5145(3) 0.28079(19)
C33 C 0.0636(3) 0.5119(3) 0.33608(19)
C34 C 0.0101(3) 0.5296(3) 0.37492(19)
C35 C 0.0290(3) 0.4853(3) 0.42497(18)
C36 C -0.0423(3) 0.4491(3) 0.44636(18)
C37 C -0.0129(3) 0.3664(3) 0.47378(16)
C38 C -0.0716(3) 0.2957(3) 0.47052(16)
C39 C -0.0425(3) 0.2044(3) 0.46320(16)
C40 C 0.0439(3) 0.1885(3) 0.45867(15)
C41 C 0.0624(3) 0.1231(3) 0.42114(16)
C42 C -0.0085(3) 0.0770(3) 0.38712(16)
C43 C -0.0081(3) 0.0475(2) 0.32826(17)
C44 C 0.0597(3) 0.1014(2) 0.30916(15)
C45 C 0.0524(3) 0.1260(2) 0.24977(15)
C46 C 0.1185(2) 0.2030(3) 0.25738(16)
C47 C 0.0813(3) 0.3318(3) 0.20473(16)
C48 C 0.1004(3) 0.3975(3) 0.25402(16)
C49 C 0.1517(3) 0.3903(3) 0.30731(18)
C50 C 0.1322(3) 0.4491(3) 0.34816(18)
C51 C 0.1540(3) 0.4039(3) 0.40141(18)
C52 C 0.1042(3) 0.4226(3) 0.43905(17)
C53 C 0.0791(3) 0.3498(3) 0.46937(16)
C54 C 0.1059(3) 0.2629(3) 0.46123(16)
C55 C 0.1613(3) 0.2459(3) 0.42400(16)
C56 C 0.1460(3) 0.1488(3) 0.40379(16)
C57 C 0.1237(3) 0.1511(3) 0.34238(16)
C58 C 0.1581(2) 0.2204(3) 0.31075(16)
C59 C 0.2014(3) 0.3071(3) 0.33613(17)
C60 C 0.1846(3) 0.3145(3) 0.39458(17)
C61 C 0.1794(3) -0.0039(3) 0.26444(19)
C62 C -0.1068(3) 0.1093(4) 0.07132(17)
C63 C -0.1086(4) 0.0093(4) 0.0642(2)
H2 H -0.1340 -0.0180 0.0914
H3 H -0.0482 -0.0124 0.0685
H4 H -0.1447 -0.0058 0.0281
C64 C -0.0663(4) 0.1561(5) 0.0281(2)
H5 H -0.0665 0.2199 0.0334
H6 H -0.1018 0.1415 -0.0081
H7 H -0.0054 0.1358 0.0324
C65 C -0.1983(3) 0.1515(4) 0.0726(2)
H8 H -0.1916 0.2154 0.0768
H9 H -0.2179 0.1272 0.1029
H10 H -0.2423 0.1382 0.0388
C66 C -0.0117(3) -0.1769(3) 0.36597(17)
C67 C 0.0109(3) -0.2320(3) 0.3207(2)
H11 H -0.0434 -0.2449 0.2929
H12 H 0.0389 -0.2872 0.3358
H13 H 0.0515 -0.1989 0.3048
C68 C -0.0840(3) -0.2212(3) 0.38839(18)
H14 H -0.1356 -0.2342 0.3586
H15 H -0.1012 -0.1814 0.4140
H16 H -0.0608 -0.2759 0.4068
C69 C 0.0718(3) -0.1544(4) 0.4111(2)
H17 H 0.1159 -0.1269 0.3952
H18 H 0.0964 -0.2084 0.4299
H19 H 0.0561 -0.1136 0.4367
C70 C 0.3057(3) 0.0380(3) 0.50721(17)
C71 C 0.2990(9) 0.0244(10) 0.5651(6)
H20 H 0.2574 -0.0210 0.5670
H21 H 0.2788 0.0812 0.5782
H22 H 0.3576 0.0111 0.5888
C72 C 0.3275(18) -0.0474(15) 0.4811(9)
H23 H 0.2835 -0.0945 0.4838
H24 H 0.3866 -0.0711 0.5023
H25 H 0.3285 -0.0402 0.4444
C73 C 0.3694(9) 0.1113(13) 0.5064(6)
H26 H 0.3755 0.1185 0.4701
H27 H 0.4279 0.0940 0.5305
H28 H 0.3490 0.1642 0.5199
C77 C 0.4148(3) 0.2170(4) 0.3440(2)
C78 C 0.4539(4) 0.1338(5) 0.3777(3)
H38 H 0.4090 0.0874 0.3718
H39 H 0.4717 0.1491 0.4160
H40 H 0.5055 0.1128 0.3662
C79 C 0.3765(5) 0.1898(4) 0.2854(3)
H41 H 0.3353 0.1407 0.2839
H42 H 0.4245 0.1715 0.2697
H43 H 0.3450 0.2397 0.2650
C80 C 0.4793(4) 0.2927(4) 0.3499(4)
H44 H 0.5023 0.3069 0.3881
H45 H 0.4490 0.3442 0.3307
H46 H 0.5283 0.2760 0.3346
O9? O 0.2690(7) 0.1207(5) 0.4795(3)
C74? C 0.346(3) 0.0686(16) 0.5650(9)
H29? H 0.2992 0.0975 0.5802
H30? H 0.3945 0.1083 0.5689
H31? H 0.3663 0.0162 0.5896
C75? C 0.2344(13) -0.0276(15) 0.5000(9)
H32? H 0.1893 -0.0158 0.5135
H33? H 0.2650 -0.0876 0.5162
H34? H 0.2156 -0.0443 0.4597
C76? C 0.3685(17) -0.005(2) 0.4839(9)
H35? H 0.4181 0.0292 0.4828
H36? H 0.3359 -0.0201 0.4437
H37? H 0.3853 -0.0633 0.5003
loop_
_geom_bond_atom_site_label_1
_geom_bond_atom_site_label_2
_geom_bond_site_symmetry_1
_geom_bond_site_symmetry_2
Cl1 C81 1_555 1_555
Cl2 C81 1_555 1_555
Cl3 C81 1_555 1_555
S1 C45 1_555 1_555
O1 C46 1_555 1_555
O2 H1 1_555 1_555
O3 O4 1_555 1_555
O4 C62 1_555 1_555
O5 O6 1_555 1_555
O6 C66 1_555 1_555
O7 O8 1_555 1_555
O8 C70 1_555 1_555
O10 O11 1_555 1_555
O11 C77 1_555 1_555
N1 C61 1_555 1_555
C1 C2 1_555 1_555
C2 C3 1_555 1_555
C3 C4 1_555 1_555
C4 C5 1_555 1_555
C5 C6 1_555 1_555
C6 C1 1_555 1_555
C7 C6 1_555 1_555
C8 C7 1_555 1_555
C9 C1 1_555 1_555
C10 C9 1_555 1_555
C11 C10 1_555 1_555
C12 C2 1_555 1_555
C13 C12 1_555 1_555
C14 C3 1_555 1_555
C15 C14 1_555 1_555
C16 C15 1_555 1_555
C17 C4 1_555 1_555
C18 C17 1_555 1_555
C19 C5 1_555 1_555
C20 C19 1_555 1_555
C21 C7 1_555 1_555
C22 C21 1_555 1_555
C23 C22 1_555 1_555
C24 C8 1_555 1_555
C25 C24 1_555 1_555
C26 C10 1_555 1_555
C27 O3 1_555 1_555
C28 C11 1_555 1_555
C29 C28 1_555 1_555
C30 C13 1_555 1_555
C31 C30 1_555 1_555
C32 C15 1_555 1_555
C33 C32 1_555 1_555
C34 C16 1_555 1_555
C35 C34 1_555 1_555
C36 C18 1_555 1_555
C37 C36 1_555 1_555
C38 C20 1_555 1_555
C39 C22 1_555 1_555
C40 C39 1_555 1_555
C41 C40 1_555 1_555
C42 C23 1_555 1_555
C43 O5 1_555 1_555
C44 C43 1_555 1_555
C45 C27 1_555 1_555
C46 C45 1_555 1_555
C47 O1 1_555 1_555
C48 C31 1_555 1_555
C49 C48 1_555 1_555
C50 C33 1_555 1_555
C51 C50 1_555 1_555
C52 C35 1_555 1_555
C53 C37 1_555 1_555
C54 C40 1_555 1_555
C55 C54 1_555 1_555
C56 O7 1_555 1_555
C57 C44 1_555 1_555
C58 C46 1_555 1_555
C59 O10 1_555 1_555
C60 C51 1_555 1_555
C61 S1 1_555 1_555
C62 C63 1_555 1_555
C63 H2 1_555 1_555
H3 C63 1_555 1_555
H4 C63 1_555 1_555
C64 C62 1_555 1_555
H5 C64 1_555 1_555
H6 C64 1_555 1_555
H7 C64 1_555 1_555
C65 C62 1_555 1_555
H8 C65 1_555 1_555
H9 C65 1_555 1_555
H10 C65 1_555 1_555
C66 C67 1_555 1_555
C67 H11 1_555 1_555
H12 C67 1_555 1_555
H13 C67 1_555 1_555
C68 C66 1_555 1_555
H14 C68 1_555 1_555
H15 C68 1_555 1_555
H16 C68 1_555 1_555
C69 C66 1_555 1_555
H17 C69 1_555 1_555
H18 C69 1_555 1_555
H19 C69 1_555 1_555
C70 C71 1_555 1_555
C71 H20 1_555 1_555
H21 C71 1_555 1_555
H22 C71 1_555 1_555
C72 C70 1_555 1_555
H23 C72 1_555 1_555
H24 C72 1_555 1_555
H25 C72 1_555 1_555
C73 C70 1_555 1_555
H26 C73 1_555 1_555
H27 C73 1_555 1_555
H28 C73 1_555 1_555
C77 C78 1_555 1_555
C78 H38 1_555 1_555
H39 C78 1_555 1_555
H40 C78 1_555 1_555
C79 C77 1_555 1_555
H41 C79 1_555 1_555
H42 C79 1_555 1_555
H43 C79 1_555 1_555
C80 C77 1_555 1_555
H44 C80 1_555 1_555
H45 C80 1_555 1_555
H46 C80 1_555 1_555
C81 H47 1_555 1_555
O2 C47 1_555 1_555
C8 C9 1_555 1_555
C11 C12 1_555 1_555
C13 C14 1_555 1_555
C16 C17 1_555 1_555
C18 C19 1_555 1_555
C20 C21 1_555 1_555
C23 C24 1_555 1_555
C25 C26 1_555 1_555
C25 C43 1_555 1_555
C26 C27 1_555 1_555
C27 C28 1_555 1_555
C29 C30 1_555 1_555
C29 C47 1_555 1_555
C31 C32 1_555 1_555
C33 C34 1_555 1_555
C35 C36 1_555 1_555
C37 C38 1_555 1_555
C38 C39 1_555 1_555
C41 C42 1_555 1_555
C41 C56 1_555 1_555
C42 C43 1_555 1_555
C44 C45 1_555 1_555
C47 C48 1_555 1_555
C49 C50 1_555 1_555
C49 C59 1_555 1_555
C51 C52 1_555 1_555
C52 C53 1_555 1_555
C53 C54 1_555 1_555
C55 C56 1_555 1_555
C55 C60 1_555 1_555
C56 C57 1_555 1_555
C57 C58 1_555 1_555
C58 C59 1_555 1_555
C59 C60 1_555 1_555

#END
