
#######################################################################
#
#                 Cambridge Crystallographic Data Centre
#                                CCDC 
#
#######################################################################
#
# If this CIF has been generated from an entry in the Cambridge 
# Structural Database, then it will include bibliographic, chemical, 
# crystal, experimental, refinement or atomic coordinate data resulting 
# from the CCDC's data processing and validation procedures.
#
#######################################################################

data_BOBHEH
_chemical_formula_moiety         'C77 H56 N4,C1 H2 Cl2'
_chemical_name_systematic        
"N,N',N'',N'''-(methanetetrayltetra-4,1-phenylene)tetrakis(1-(biphenyl-4-yl)methanimine) dichloromethane solvate"
_symmetry_cell_setting           tetragonal
_symmetry_space_group_name_H-M   'I 41/a'
_symmetry_Int_Tables_number      88
_space_group_name_Hall           '-I 4ad'
loop_
_symmetry_equiv_pos_site_id
_symmetry_equiv_pos_as_xyz
1 x,y,z
2 1/2-x,-y,1/2+z
3 3/4-y,1/4+x,1/4+z
4 3/4+y,3/4-x,3/4+z
5 1/2+x,1/2+y,1/2+z
6 -x,1/2-y,z
7 1/4-y,3/4+x,3/4+z
8 1/4+y,1/4-x,1/4+z
9 -x,-y,-z
10 1/2+x,y,1/2-z
11 1/4+y,3/4-x,3/4-z
12 1/4-y,1/4+x,1/4-z
13 1/2-x,1/2-y,1/2-z
14 x,1/2+y,-z
15 3/4+y,1/4-x,1/4-z
16 3/4-y,3/4+x,3/4-z
_cell_length_a                   28.7128(12)
_cell_length_b                   28.7128(12)
_cell_length_c                   7.4609(4)
_cell_angle_alpha                90
_cell_angle_beta                 90
_cell_angle_gamma                90
_cell_volume                     6150.95
_exptl_crystal_colour            yellow
_exptl_crystal_description       block
_cell_formula_units_Z            4
loop_
_atom_site_label
_atom_site_type_symbol
_atom_site_fract_x
_atom_site_fract_y
_atom_site_fract_z
C1 C 0.0000 0.2500 0.1250
C2 C -0.02221(7) 0.28653(7) -0.0006(3)
C3 C -0.01445(7) 0.33423(7) 0.0114(3)
H1 H 0.0027 0.3463 0.1099
C4 C -0.03137(7) 0.36456(8) -0.1179(3)
H2 H -0.0258 0.3970 -0.1065
C5 C -0.05644(7) 0.34793(7) -0.2639(3)
C6 C -0.06676(7) 0.30076(7) -0.2708(3)
H3 H -0.0858 0.2890 -0.3646
C7 C -0.04969(7) 0.27084(7) -0.1431(3)
H4 H -0.0567 0.2386 -0.1518
C8 C -0.04469(8) 0.40538(8) -0.4743(3)
H5 H -0.0147 0.4088 -0.4226
C9 C -0.05705(8) 0.43455(8) -0.6275(3)
C10 C -0.02655(8) 0.46876(8) -0.6845(3)
H6 H 0.0025 0.4726 -0.6254
C11 C -0.03804(8) 0.49745(8) -0.8268(3)
H7 H -0.0175 0.5219 -0.8602
C12 C -0.07929(8) 0.49096(8) -0.9217(3)
C13 C -0.10922(9) 0.45575(8) -0.8658(3)
H8 H -0.1374 0.4505 -0.9295
C14 C -0.09870(8) 0.42831(8) -0.7190(3)
H9 H -0.1201 0.4051 -0.6806
C15 C -0.09003(8) 0.51993(8) -1.0814(3)
C16 C -0.08139(8) 0.56743(8) -1.0807(3)
H10 H -0.0692 0.5817 -0.9759
C17 C -0.09032(9) 0.59428(9) -1.2308(3)
H11 H -0.0848 0.6269 -1.2277
C18 C -0.10718(9) 0.57390(9) -1.3848(4)
H12 H -0.1129 0.5923 -1.4883
C19 C -0.11575(9) 0.52686(9) -1.3882(4)
H13 H -0.1275 0.5127 -1.4941
C20 C -0.10725(9) 0.49989(9) -1.2370(3)
H14 H -0.1133 0.4674 -1.2403
N1 N -0.07236(6) 0.37572(6) -0.4077(2)
C2E C 0.02221(7) 0.21347(7) -0.0006(3)
C3E C 0.01445(7) 0.16577(7) 0.0114(3)
H1E H -0.0027 0.1537 0.1099
C4E C 0.03137(7) 0.13544(8) -0.1179(3)
H2E H 0.0258 0.1030 -0.1065
C5E C 0.05644(7) 0.15207(7) -0.2639(3)
C6E C 0.06676(7) 0.19924(7) -0.2708(3)
H3E H 0.0858 0.2110 -0.3646
C7E C 0.04969(7) 0.22916(7) -0.1431(3)
H4E H 0.0567 0.2614 -0.1518
C8E C 0.04469(8) 0.09462(8) -0.4743(3)
H5E H 0.0147 0.0912 -0.4226
C9E C 0.05705(8) 0.06545(8) -0.6275(3)
C10E C 0.02655(8) 0.03124(8) -0.6845(3)
H6E H -0.0025 0.0274 -0.6254
C11E C 0.03804(8) 0.00255(8) -0.8268(3)
H7E H 0.0175 -0.0219 -0.8602
C12E C 0.07929(8) 0.00904(8) -0.9217(3)
C13E C 0.10922(9) 0.04425(8) -0.8658(3)
H8E H 0.1374 0.0495 -0.9295
C14E C 0.09870(8) 0.07169(8) -0.7190(3)
H9E H 0.1201 0.0949 -0.6806
C15E C 0.09003(8) -0.01993(8) -1.0814(3)
C16E C 0.08139(8) -0.06743(8) -1.0807(3)
H10E H 0.0692 -0.0817 -0.9759
C17E C 0.09032(9) -0.09428(9) -1.2308(3)
H11E H 0.0848 -0.1269 -1.2277
C18E C 0.10718(9) -0.07390(9) -1.3848(4)
H12E H 0.1129 -0.0923 -1.4883
C19E C 0.11575(9) -0.02686(9) -1.3882(4)
H13E H 0.1275 -0.0127 -1.4941
C20E C 0.10725(9) 0.00011(9) -1.2370(3)
H14E H 0.1133 0.0326 -1.2403
N1E N 0.07236(6) 0.12428(6) -0.4077(2)
C2K C -0.03653(7) 0.22779(7) 0.2506(3)
C3K C -0.08423(7) 0.23555(7) 0.2386(3)
H1K H -0.0963 0.2527 0.1401
C4K C -0.11456(8) 0.21863(7) 0.3679(3)
H2K H -0.1470 0.2242 0.3565
C5K C -0.09793(7) 0.19356(7) 0.5139(3)
C6K C -0.05076(7) 0.18324(7) 0.5208(3)
H3K H -0.0390 0.1642 0.6146
C7K C -0.02084(7) 0.20031(7) 0.3931(3)
H4K H 0.0114 0.1933 0.4018
C8K C -0.15538(8) 0.20531(8) 0.7243(3)
H5K H -0.1588 0.2353 0.6726
C9K C -0.18455(8) 0.19295(8) 0.8775(3)
C10K C -0.21876(8) 0.22345(8) 0.9345(3)
H6K H -0.2226 0.2525 0.8754
C11K C -0.24745(8) 0.21196(8) 1.0768(3)
H7K H -0.2719 0.2325 1.1102
C12K C -0.24096(8) 0.17071(8) 1.1717(3)
C13K C -0.20575(8) 0.14078(9) 1.1158(3)
H8K H -0.2005 0.1126 1.1795
C14K C -0.17831(8) 0.15130(8) 0.9690(3)
H9K H -0.1551 0.1299 0.9306
C15K C -0.26993(8) 0.15997(8) 1.3314(3)
C16K C -0.31743(8) 0.16861(8) 1.3307(3)
H10K H -0.3317 0.1808 1.2259
C17K C -0.34428(9) 0.15968(9) 1.4808(3)
H11K H -0.3769 0.1652 1.4777
C18K C -0.32390(9) 0.14282(9) 1.6348(4)
H12K H -0.3423 0.1371 1.7383
C19K C -0.27686(9) 0.13425(9) 1.6382(4)
H13K H -0.2627 0.1225 1.7441
C20K C -0.24989(9) 0.14275(9) 1.4870(3)
H14K H -0.2174 0.1367 1.4903
N1K N -0.12572(6) 0.17764(6) 0.6577(2)
C2N C 0.03653(7) 0.27221(7) 0.2506(3)
C3N C 0.08423(7) 0.26445(7) 0.2386(3)
H1N H 0.0963 0.2473 0.1401
C4N C 0.11456(8) 0.28137(7) 0.3679(3)
H2N H 0.1470 0.2758 0.3565
C5N C 0.09793(7) 0.30644(7) 0.5139(3)
C6N C 0.05076(7) 0.31676(7) 0.5208(3)
H3N H 0.0390 0.3358 0.6146
C7N C 0.02084(7) 0.29969(7) 0.3931(3)
H4N H -0.0114 0.3067 0.4018
C8N C 0.15538(8) 0.29469(8) 0.7243(3)
H5N H 0.1588 0.2647 0.6726
C9N C 0.18455(8) 0.30705(8) 0.8775(3)
C10N C 0.21876(8) 0.27655(8) 0.9345(3)
H6N H 0.2226 0.2475 0.8754
C11N C 0.24745(8) 0.28804(8) 1.0768(3)
H7N H 0.2719 0.2675 1.1102
C12N C 0.24096(8) 0.32929(8) 1.1717(3)
C13N C 0.20575(8) 0.35922(9) 1.1158(3)
H8N H 0.2005 0.3874 1.1795
C14N C 0.17831(8) 0.34870(8) 0.9690(3)
H9N H 0.1551 0.3701 0.9306
C15N C 0.26993(8) 0.34003(8) 1.3314(3)
C16N C 0.31743(8) 0.33139(8) 1.3307(3)
H10N H 0.3317 0.3192 1.2259
C17N C 0.34428(9) 0.34032(9) 1.4808(3)
H11N H 0.3769 0.3348 1.4777
C18N C 0.32390(9) 0.35718(9) 1.6348(4)
H12N H 0.3423 0.3629 1.7383
C19N C 0.27686(9) 0.36575(9) 1.6382(4)
H13N H 0.2627 0.3775 1.7441
C20N C 0.24989(9) 0.35725(9) 1.4870(3)
H14N H 0.2174 0.3633 1.4903
N1N N 0.12572(6) 0.32236(6) 0.6577(2)
C21? C -0.255(2) 0.496(3) -1.733(4)
H15? H -0.2843 0.5099 -1.7760
H16? H -0.2524 0.4644 -1.7843
Cl1? Cl -0.2570(7) 0.4917(6) -1.498(3)
Cl2? Cl -0.2079(3) 0.5299(3) -1.8105(19)
loop_
_geom_bond_atom_site_label_1
_geom_bond_atom_site_label_2
_geom_bond_site_symmetry_1
_geom_bond_site_symmetry_2
C1 C2 1_555 1_555
C2 C3 1_555 1_555
C3 H1 1_555 1_555
C4 C3 1_555 1_555
H2 C4 1_555 1_555
C5 C4 1_555 1_555
C6 C5 1_555 1_555
H3 C6 1_555 1_555
C7 C2 1_555 1_555
H4 C7 1_555 1_555
C8 H5 1_555 1_555
C9 C8 1_555 1_555
C10 C9 1_555 1_555
H6 C10 1_555 1_555
C11 C10 1_555 1_555
H7 C11 1_555 1_555
C12 C11 1_555 1_555
C13 C12 1_555 1_555
H8 C13 1_555 1_555
C14 C9 1_555 1_555
H9 C14 1_555 1_555
C15 C12 1_555 1_555
C16 C15 1_555 1_555
H10 C16 1_555 1_555
C17 C16 1_555 1_555
H11 C17 1_555 1_555
C18 C17 1_555 1_555
H12 C18 1_555 1_555
C19 C18 1_555 1_555
H13 C19 1_555 1_555
C20 C15 1_555 1_555
H14 C20 1_555 1_555
N1 C5 1_555 1_555
C2E C1 1_555 1_555
C3E C2E 1_555 1_555
H1E C3E 1_555 1_555
C4E C3E 1_555 1_555
H2E C4E 1_555 1_555
C5E C4E 1_555 1_555
C6E C5E 1_555 1_555
H3E C6E 1_555 1_555
C7E C2E 1_555 1_555
H4E C7E 1_555 1_555
C8E H5E 1_555 1_555
C9E C8E 1_555 1_555
C10E C9E 1_555 1_555
H6E C10E 1_555 1_555
C11E C10E 1_555 1_555
H7E C11E 1_555 1_555
C12E C11E 1_555 1_555
C13E C12E 1_555 1_555
H8E C13E 1_555 1_555
C14E C9E 1_555 1_555
H9E C14E 1_555 1_555
C15E C12E 1_555 1_555
C16E C15E 1_555 1_555
H10E C16E 1_555 1_555
C17E C16E 1_555 1_555
H11E C17E 1_555 1_555
C18E C17E 1_555 1_555
H12E C18E 1_555 1_555
C19E C18E 1_555 1_555
H13E C19E 1_555 1_555
C20E C15E 1_555 1_555
H14E C20E 1_555 1_555
N1E C5E 1_555 1_555
C2K C1 1_555 1_555
C3K C2K 1_555 1_555
H1K C3K 1_555 1_555
C4K C3K 1_555 1_555
H2K C4K 1_555 1_555
C5K C4K 1_555 1_555
C6K C5K 1_555 1_555
H3K C6K 1_555 1_555
C7K C2K 1_555 1_555
H4K C7K 1_555 1_555
C8K H5K 1_555 1_555
C9K C8K 1_555 1_555
C10K C9K 1_555 1_555
H6K C10K 1_555 1_555
C11K C10K 1_555 1_555
H7K C11K 1_555 1_555
C12K C11K 1_555 1_555
C13K C12K 1_555 1_555
H8K C13K 1_555 1_555
C14K C9K 1_555 1_555
H9K C14K 1_555 1_555
C15K C12K 1_555 1_555
C16K C15K 1_555 1_555
H10K C16K 1_555 1_555
C17K C16K 1_555 1_555
H11K C17K 1_555 1_555
C18K C17K 1_555 1_555
H12K C18K 1_555 1_555
C19K C18K 1_555 1_555
H13K C19K 1_555 1_555
C20K C15K 1_555 1_555
H14K C20K 1_555 1_555
N1K C5K 1_555 1_555
C2N C1 1_555 1_555
C3N C2N 1_555 1_555
H1N C3N 1_555 1_555
C4N C3N 1_555 1_555
H2N C4N 1_555 1_555
C5N C4N 1_555 1_555
C6N C5N 1_555 1_555
H3N C6N 1_555 1_555
C7N C2N 1_555 1_555
H4N C7N 1_555 1_555
C8N H5N 1_555 1_555
C9N C8N 1_555 1_555
C10N C9N 1_555 1_555
H6N C10N 1_555 1_555
C11N C10N 1_555 1_555
H7N C11N 1_555 1_555
C12N C11N 1_555 1_555
C13N C12N 1_555 1_555
H8N C13N 1_555 1_555
C14N C9N 1_555 1_555
H9N C14N 1_555 1_555
C15N C12N 1_555 1_555
C16N C15N 1_555 1_555
H10N C16N 1_555 1_555
C17N C16N 1_555 1_555
H11N C17N 1_555 1_555
C18N C17N 1_555 1_555
H12N C18N 1_555 1_555
C19N C18N 1_555 1_555
H13N C19N 1_555 1_555
C20N C15N 1_555 1_555
H14N C20N 1_555 1_555
N1N C5N 1_555 1_555
C6 C7 1_555 1_555
C8 N1 1_555 1_555
C13 C14 1_555 1_555
C19 C20 1_555 1_555
C6E C7E 1_555 1_555
C8E N1E 1_555 1_555
C13E C14E 1_555 1_555
C19E C20E 1_555 1_555
C6K C7K 1_555 1_555
C8K N1K 1_555 1_555
C13K C14K 1_555 1_555
C19K C20K 1_555 1_555
C6N C7N 1_555 1_555
C8N N1N 1_555 1_555
C13N C14N 1_555 1_555
C19N C20N 1_555 1_555

#END
