
#######################################################################
#
#                 Cambridge Crystallographic Data Centre
#                                CCDC 
#
#######################################################################
#
# If this CIF has been generated from an entry in the Cambridge 
# Structural Database, then it will include bibliographic, chemical, 
# crystal, experimental, refinement or atomic coordinate data resulting 
# from the CCDC's data processing and validation procedures.
#
#######################################################################

data_BOBLUA
_chemical_formula_moiety         'C12 H13 Cl1 N2 O1'
_chemical_name_systematic        
4-(2-Chloroethyl)-3-methyl-N-phenylisoxazol-5-amine
_symmetry_cell_setting           monoclinic
_symmetry_space_group_name_H-M   'P 21/c'
_symmetry_Int_Tables_number      14
_space_group_name_Hall           '-P 2ybc'
loop_
_symmetry_equiv_pos_site_id
_symmetry_equiv_pos_as_xyz
1 x,y,z
2 -x,1/2+y,1/2-z
3 -x,-y,-z
4 x,1/2-y,1/2+z
_cell_length_a                   16.149(3)
_cell_length_b                   6.4340(13)
_cell_length_c                   11.544(2)
_cell_angle_alpha                90
_cell_angle_beta                 96.118(3)
_cell_angle_gamma                90
_cell_volume                     1192.62
_exptl_crystal_colour            yellow
_exptl_crystal_description       block
_chemical_melting_point          123-124deg.C
_cell_formula_units_Z            4
loop_
_atom_site_label
_atom_site_type_symbol
_atom_site_fract_x
_atom_site_fract_y
_atom_site_fract_z
C1 C 0.84888(17) -0.2435(4) 0.7735(2)
H1 H 0.8192 -0.2245 0.8374
C2 C 0.8976(2) -0.4175(5) 0.7674(3)
H2 H 0.9003 -0.5151 0.8272
C3 C 0.9424(2) -0.4491(6) 0.6739(3)
H3 H 0.9748 -0.5676 0.6692
C4 C 0.9378(2) -0.3010(6) 0.5877(3)
H4 H 0.9680 -0.3205 0.5243
C5 C 0.8900(2) -0.1248(6) 0.5921(3)
H5 H 0.8889 -0.0259 0.5333
C6 C 0.84352(17) -0.0962(4) 0.6856(2)
C7 C 0.76223(16) 0.2219(4) 0.6189(2)
C8 C 0.70225(18) 0.4785(4) 0.5181(2)
C9 C 0.70808(16) 0.3822(4) 0.6283(2)
C10 C 0.6523(2) 0.6647(5) 0.4790(3)
H6 H 0.6602 0.6955 0.3995
H7 H 0.6700 0.7812 0.5274
H8 H 0.5944 0.6376 0.4847
C11 C 0.66255(17) 0.4369(4) 0.7310(2)
H9 H 0.6437 0.5799 0.7242
H10 H 0.7000 0.4241 0.8021
C12 C 0.5890(2) 0.2954(6) 0.7368(3)
H11 H 0.6078 0.1521 0.7385
H12 H 0.5503 0.3142 0.6673
N1 N 0.79182(15) 0.0778(3) 0.69904(18)
N2 N 0.74798(16) 0.3870(4) 0.44592(19)
O1 O 0.78783(12) 0.2173(3) 0.51115(14)
Cl1 Cl 0.53608(6) 0.34563(17) 0.86318(9)
loop_
_geom_bond_atom_site_label_1
_geom_bond_atom_site_label_2
_geom_bond_site_symmetry_1
_geom_bond_site_symmetry_2
C1 H1 1_555 1_555
C2 C1 1_555 1_555
H2 C2 1_555 1_555
C3 C2 1_555 1_555
H3 C3 1_555 1_555
C4 C3 1_555 1_555
H4 C4 1_555 1_555
C5 C4 1_555 1_555
H5 C5 1_555 1_555
C6 C1 1_555 1_555
C7 C9 1_555 1_555
C8 C9 1_555 1_555
C9 C11 1_555 1_555
C10 C8 1_555 1_555
H6 C10 1_555 1_555
H7 C10 1_555 1_555
H8 C10 1_555 1_555
C11 H9 1_555 1_555
H10 C11 1_555 1_555
C12 C11 1_555 1_555
H11 C12 1_555 1_555
H12 C12 1_555 1_555
N1 C6 1_555 1_555
N2 C8 1_555 1_555
O1 C7 1_555 1_555
Cl1 C12 1_555 1_555
C5 C6 1_555 1_555
C7 N1 1_555 1_555
N2 O1 1_555 1_555

#END
