
#######################################################################
#
#                 Cambridge Crystallographic Data Centre
#                                CCDC 
#
#######################################################################
#
# If this CIF has been generated from an entry in the Cambridge 
# Structural Database, then it will include bibliographic, chemical, 
# crystal, experimental, refinement or atomic coordinate data resulting 
# from the CCDC's data processing and validation procedures.
#
#######################################################################

data_BOBNOW
_chemical_formula_moiety         'C28 H36 N2 O2'
_chemical_name_systematic        N,N'-Dihexyl-9,10-anthracenedicarboxamide
_symmetry_cell_setting           monoclinic
_symmetry_space_group_name_H-M   'P 21/c'
_symmetry_Int_Tables_number      14
_space_group_name_Hall           '-P 2ybc'
loop_
_symmetry_equiv_pos_site_id
_symmetry_equiv_pos_as_xyz
1 x,y,z
2 -x,1/2+y,1/2-z
3 -x,-y,-z
4 x,1/2-y,1/2+z
_cell_length_a                   15.411(2)
_cell_length_b                   9.2623(12)
_cell_length_c                   9.2302(13)
_cell_angle_alpha                90
_cell_angle_beta                 99.927(3)
_cell_angle_gamma                90
_cell_volume                     1297.8
_exptl_crystal_colour            colorless
_exptl_crystal_description       Block
_chemical_melting_point          '562-563 K'
_cell_formula_units_Z            2
_exptl_crystal_recrystallization_method 'ethyl acetate'
loop_
_atom_site_label
_atom_site_type_symbol
_atom_site_fract_x
_atom_site_fract_y
_atom_site_fract_z
O1 O 0.3765(2) 0.1578(3) 0.7689(2)
N1 N 0.35956(18) 0.3042(3) 0.5711(3)
H1 H 0.3716 0.3165 0.4843
C1 C 0.5359(2) 0.1281(3) 0.5698(3)
C2 C 0.4107(2) -0.0341(3) 0.5008(3)
C3 C 0.3212(2) -0.0723(4) 0.4977(3)
H2 H 0.2856 -0.0127 0.5436
C4 C 0.2865(3) -0.1937(4) 0.4291(4)
H3 H 0.2275 -0.2160 0.4273
C5 C 0.3397(3) -0.2863(4) 0.3606(4)
H4 H 0.3155 -0.3701 0.3149
C6 C 0.5757(3) 0.2551(4) 0.6395(3)
H5 H 0.5420 0.3175 0.6860
C7 C 0.4478(2) 0.0926(3) 0.5694(3)
C8 C 0.3914(2) 0.1880(3) 0.6459(3)
C9 C 0.3054(3) 0.4120(4) 0.6275(4)
H6 H 0.3334 0.5057 0.6268
H7 H 0.3013 0.3888 0.7285
C10 C 0.2141(4) 0.4196(6) 0.5378(8)
H8 H 0.1815 0.4905 0.5842
H9 H 0.2197 0.4578 0.4421
C11 C 0.1620(4) 0.2971(6) 0.5141(8)
H10 H 0.1601 0.2546 0.6095
H11 H 0.1925 0.2289 0.4607
C12 C 0.0688(4) 0.3074(7) 0.4340(8)
H12 H 0.0373 0.3709 0.4904
H13 H 0.0703 0.3549 0.3408
C13 C 0.0181(5) 0.1813(9) 0.4038(9)
H14 H 0.0196 0.1309 0.4963
H15 H 0.0479 0.1202 0.3424
C14 C -0.0747(4) 0.1918(8) 0.3326(8)
H16 H -0.0992 0.0966 0.3170
H17 H -0.0784 0.2402 0.2397
H18 H -0.1071 0.2454 0.3945
O1B O 0.6235(2) -0.1578(3) 0.2311(2)
N1B N 0.64044(18) -0.3042(3) 0.4289(3)
H1B H 0.6284 -0.3165 0.5157
C1B C 0.4641(2) -0.1281(3) 0.4302(3)
C2B C 0.5893(2) 0.0341(3) 0.4992(3)
C3B C 0.6788(2) 0.0723(4) 0.5023(3)
H2B H 0.7144 0.0127 0.4564
C4B C 0.7135(3) 0.1937(4) 0.5709(4)
H3B H 0.7725 0.2160 0.5727
C5B C 0.6603(3) 0.2863(4) 0.6394(4)
H4B H 0.6845 0.3701 0.6851
C6B C 0.4243(3) -0.2551(4) 0.3605(3)
H5B H 0.4580 -0.3175 0.3140
C7B C 0.5522(2) -0.0926(3) 0.4306(3)
C8B C 0.6086(2) -0.1880(3) 0.3541(3)
C9B C 0.6946(3) -0.4120(4) 0.3725(4)
H6B H 0.6666 -0.5057 0.3732
H7B H 0.6987 -0.3888 0.2715
C10B C 0.7859(4) -0.4196(6) 0.4622(8)
H8B H 0.8185 -0.4905 0.4158
H9B H 0.7803 -0.4578 0.5579
C11B C 0.8380(4) -0.2971(6) 0.4859(8)
H10B H 0.8399 -0.2546 0.3905
H11B H 0.8075 -0.2289 0.5393
C12B C 0.9312(4) -0.3074(7) 0.5660(8)
H12B H 0.9627 -0.3709 0.5096
H13B H 0.9297 -0.3549 0.6592
C13B C 0.9819(5) -0.1813(9) 0.5962(9)
H14B H 0.9804 -0.1309 0.5037
H15B H 0.9521 -0.1202 0.6576
C14B C 1.0747(4) -0.1918(8) 0.6674(8)
H16B H 1.0992 -0.0966 0.6830
H17B H 1.0784 -0.2402 0.7603
H18B H 1.1071 -0.2454 0.6055
loop_
_geom_bond_atom_site_label_1
_geom_bond_atom_site_label_2
_geom_bond_site_symmetry_1
_geom_bond_site_symmetry_2
O1 C8 1_555 1_555
N1 H1 1_555 1_555
C1 C6 1_555 1_555
C2 C3 1_555 1_555
C3 H2 1_555 1_555
C4 C3 1_555 1_555
H3 C4 1_555 1_555
C5 C4 1_555 1_555
H4 C5 1_555 1_555
C6 H5 1_555 1_555
C7 C1 1_555 1_555
C8 N1 1_555 1_555
C9 N1 1_555 1_555
H6 C9 1_555 1_555
H7 C9 1_555 1_555
C10 C9 1_555 1_555
H8 C10 1_555 1_555
H9 C10 1_555 1_555
C11 C10 1_555 1_555
H10 C11 1_555 1_555
H11 C11 1_555 1_555
C12 C11 1_555 1_555
H12 C12 1_555 1_555
H13 C12 1_555 1_555
C13 C12 1_555 1_555
H14 C13 1_555 1_555
H15 C13 1_555 1_555
C14 C13 1_555 1_555
H16 C14 1_555 1_555
H17 C14 1_555 1_555
H18 C14 1_555 1_555
O1B C8B 1_555 1_555
N1B H1B 1_555 1_555
C1B C2 1_555 1_555
C2B C1 1_555 1_555
C3B C2B 1_555 1_555
H2B C3B 1_555 1_555
C4B C3B 1_555 1_555
H3B C4B 1_555 1_555
C5B C6 1_555 1_555
H4B C5B 1_555 1_555
C6B C5 1_555 1_555
H5B C6B 1_555 1_555
C7B C1B 1_555 1_555
C8B N1B 1_555 1_555
C9B N1B 1_555 1_555
H6B C9B 1_555 1_555
H7B C9B 1_555 1_555
C10B C9B 1_555 1_555
H8B C10B 1_555 1_555
H9B C10B 1_555 1_555
C11B C10B 1_555 1_555
H10B C11B 1_555 1_555
H11B C11B 1_555 1_555
C12B C11B 1_555 1_555
H12B C12B 1_555 1_555
H13B C12B 1_555 1_555
C13B C12B 1_555 1_555
H14B C13B 1_555 1_555
H15B C13B 1_555 1_555
C14B C13B 1_555 1_555
H16B C14B 1_555 1_555
H17B C14B 1_555 1_555
H18B C14B 1_555 1_555
C2 C7 1_555 1_555
C7 C8 1_555 1_555
C1B C6B 1_555 1_555
C2B C7B 1_555 1_555
C4B C5B 1_555 1_555
C7B C8B 1_555 1_555

#END
