
#######################################################################
#
#                 Cambridge Crystallographic Data Centre
#                                CCDC 
#
#######################################################################
#
# If this CIF has been generated from an entry in the Cambridge 
# Structural Database, then it will include bibliographic, chemical, 
# crystal, experimental, refinement or atomic coordinate data resulting 
# from the CCDC's data processing and validation procedures.
#
#######################################################################

data_BOBPOY
_chemical_formula_moiety         'C76 H38 Cl1 N1 O11,C2 H6 O1,2(C1 S2)'
_chemical_name_systematic        
'tris(t-Butylperoxo)-chloro-hydroxy-(N-(t-butoxy)carboxamide)-(open cage)-C59fulleren-one ethanol carbon disulfide solvate'
_symmetry_cell_setting           orthorhombic
_symmetry_space_group_name_H-M   'P 21 21 21'
_symmetry_Int_Tables_number      19
_space_group_name_Hall           'P 2ac 2ab'
loop_
_symmetry_equiv_pos_site_id
_symmetry_equiv_pos_as_xyz
1 x,y,z
2 1/2-x,-y,1/2+z
3 -x,1/2+y,1/2-z
4 1/2+x,1/2-y,-z
_cell_length_a                   9.995(2)
_cell_length_b                   22.542(5)
_cell_length_c                   26.464(5)
_cell_angle_alpha                90
_cell_angle_beta                 90
_cell_angle_gamma                90
_cell_volume                     5962.53
_exptl_crystal_colour            red
_exptl_crystal_description       block
_cell_formula_units_Z            4
_exptl_crystal_recrystallization_method 'carbon disulfide/ethanol/acetonitrile'
loop_
_atom_site_label
_atom_site_type_symbol
_atom_site_fract_x
_atom_site_fract_y
_atom_site_fract_z
Cl1 Cl 0.0228(3) -0.00664(10) 0.25205(10)
O1 O -0.2733(8) -0.0715(3) 0.2995(2)
O2 O -0.4808(8) -0.2351(3) 0.2967(3)
H1 H -0.4683 -0.2515 0.3240
O3 O -0.2633(8) -0.1954(3) 0.2915(3)
O4 O -0.4276(8) -0.0598(3) 0.2153(3)
O5 O -0.3704(8) 0.0012(3) 0.2205(2)
O6 O 0.1828(7) -0.1675(3) 0.3253(3)
O7 O 0.1692(7) -0.1024(3) 0.3325(3)
O8 O -0.0911(10) -0.2999(4) 0.3585(3)
O9 O -0.001(2) -0.3484(6) 0.3629(5)
O10 O -0.0740(8) -0.1292(3) 0.4352(2)
O11 O -0.2414(9) -0.2121(3) 0.3935(3)
N1 N -0.0725(10) -0.1440(4) 0.3833(3)
H2 H 0.0144 -0.1530 0.3752
C1 C -0.3344(13) -0.3078(5) 0.1032(4)
C2 C -0.2727(12) -0.3553(4) 0.1284(4)
C3 C -0.1394(13) -0.3730(4) 0.1131(4)
C4 C -0.0660(14) -0.3447(5) 0.0750(4)
C5 C -0.1339(13) -0.2969(5) 0.0482(4)
C6 C -0.2634(12) -0.2790(5) 0.0627(4)
C7 C -0.2926(12) -0.2143(4) 0.0633(4)
C8 C -0.3802(12) -0.2063(5) 0.1069(4)
C9 C -0.4019(12) -0.2623(5) 0.1313(4)
C10 C -0.3518(13) -0.3146(5) 0.2095(4)
C11 C -0.4110(12) -0.2632(4) 0.1837(3)
C12 C -0.2823(12) -0.3584(4) 0.1821(4)
C13 C -0.1538(12) -0.3797(5) 0.2015(4)
C14 C -0.0666(11) -0.3871(4) 0.1589(4)
C15 C 0.0700(13) -0.3743(4) 0.1638(4)
C16 C 0.1426(12) -0.3458(5) 0.1236(4)
C17 C 0.0725(14) -0.3319(5) 0.0790(4)
C18 C 0.0949(12) -0.2738(5) 0.0547(4)
C19 C -0.0307(12) -0.2522(4) 0.0356(4)
C20 C -0.0635(14) -0.1924(5) 0.0373(4)
C21 C -0.1905(12) -0.1729(5) 0.0510(4)
C22 C -0.1824(12) -0.1182(4) 0.0822(4)
C23 C -0.2678(11) -0.1105(4) 0.1245(4)
C24 C -0.3652(12) -0.1558(5) 0.1380(4)
C25 C -0.3737(11) -0.1570(4) 0.1935(3)
C26 C -0.3920(11) -0.2122(4) 0.2155(4)
C27 C -0.3580(13) -0.2330(5) 0.2691(4)
C28 C -0.3039(11) -0.2938(5) 0.2571(4)
C29 C -0.1899(12) -0.3143(4) 0.2749(4)
C30 C -0.1066(12) -0.3566(4) 0.2469(4)
C31 C 0.0344(11) -0.3421(4) 0.2513(4)
C32 C 0.1189(12) -0.3503(4) 0.2111(4)
C33 C 0.2230(11) -0.3085(5) 0.1986(4)
C34 C 0.2334(13) -0.3043(4) 0.1450(4)
C35 C 0.2573(11) -0.2517(5) 0.1224(4)
C36 C 0.1870(12) -0.2339(5) 0.0755(4)
C37 C 0.1581(12) -0.1703(5) 0.0779(4)
C38 C 0.0353(14) -0.1512(4) 0.0590(4)
C39 C -0.0441(13) -0.1056(4) 0.0862(4)
C40 C 0.0076(13) -0.0846(5) 0.1323(4)
C41 C -0.0840(12) -0.0735(4) 0.1739(4)
C42 C -0.2213(13) -0.0839(4) 0.1692(4)
C43 C -0.3149(11) -0.0995(4) 0.2127(4)
C44 C -0.2308(14) -0.0977(4) 0.2628(4)
C45 C -0.0854(13) -0.1183(4) 0.2583(4)
C46 C -0.0392(11) -0.1674(4) 0.2812(4)
C47 C -0.1306(12) -0.2069(4) 0.3117(3)
C48 C -0.0936(12) -0.2778(4) 0.3073(3)
C49 C 0.0466(12) -0.2880(4) 0.2814(4)
C50 C 0.1351(12) -0.2472(4) 0.2697(3)
C51 C 0.2266(11) -0.2550(5) 0.2277(3)
C52 C 0.2551(11) -0.1990(4) 0.2046(4)
C53 C 0.2695(12) -0.1952(4) 0.1524(4)
C54 C 0.2088(13) -0.1488(5) 0.1260(4)
C55 C 0.1351(12) -0.1033(5) 0.1517(4)
C56 C 0.1242(11) -0.1075(4) 0.2052(4)
C57 C -0.0055(12) -0.0794(4) 0.2229(3)
C58 C 0.1828(13) -0.1541(4) 0.2328(4)
C59 C 0.1134(12) -0.1800(4) 0.2794(4)
C60 C -0.1514(16) -0.1898(5) 0.3680(4)
C61 C -0.4609(12) 0.0405(5) 0.1908(4)
C62 C -0.4586(14) 0.0257(5) 0.1365(4)
H3 H -0.4916 -0.0140 0.1317
H4 H -0.3685 0.0282 0.1241
H5 H -0.5142 0.0530 0.1183
C63 C -0.3933(14) 0.0989(5) 0.2018(4)
H6 H -0.4419 0.1304 0.1858
H7 H -0.3034 0.0980 0.1890
H8 H -0.3913 0.1054 0.2376
C64 C -0.5987(13) 0.0368(5) 0.2118(4)
H9 H -0.6386 -0.0002 0.2022
H10 H -0.6515 0.0690 0.1989
H11 H -0.5948 0.0394 0.2480
C65 C 0.2898(12) -0.0837(5) 0.3569(4)
C66 C 0.3067(15) -0.1110(6) 0.4091(4)
H12 H 0.2245 -0.1074 0.4276
H13 H 0.3768 -0.0908 0.4269
H14 H 0.3295 -0.1522 0.4057
C67 C 0.2659(12) -0.0146(4) 0.3611(4)
H15 H 0.2542 0.0017 0.3279
H16 H 0.3417 0.0036 0.3770
H17 H 0.1871 -0.0072 0.3809
C68 C 0.4108(12) -0.0946(5) 0.3239(5)
H18 H 0.4215 -0.1364 0.3186
H19 H 0.4891 -0.0791 0.3402
H20 H 0.3986 -0.0751 0.2920
C69 C -0.1576(13) -0.0750(5) 0.4448(4)
C70 C -0.3003(12) -0.0857(5) 0.4347(4)
H21 H -0.3130 -0.0930 0.3992
H22 H -0.3514 -0.0516 0.4445
H23 H -0.3297 -0.1196 0.4536
C71 C -0.0963(14) -0.0222(5) 0.4175(4)
H24 H -0.0036 -0.0188 0.4265
H25 H -0.1426 0.0134 0.4271
H26 H -0.1039 -0.0278 0.3817
C72 C -0.1297(14) -0.0685(6) 0.5027(4)
H27 H -0.1623 -0.1029 0.5201
H28 H -0.1745 -0.0338 0.5153
H29 H -0.0351 -0.0646 0.5082
C73 C -0.041(2) -0.3845(11) 0.4017(9)
C74 C -0.064(3) -0.3552(11) 0.4523(10)
H30 H -0.1352 -0.3199 0.4439
H31 H 0.0027 -0.3373 0.4680
H32 H -0.1204 -0.3800 0.4732
C75 C -0.183(2) -0.4094(10) 0.3862(9)
H33 H -0.2391 -0.3796 0.3819
H34 H -0.2031 -0.4394 0.4089
H35 H -0.1623 -0.4293 0.3524
C76 C 0.054(4) -0.4338(10) 0.4065(10)
H36 H 0.0737 -0.4504 0.3718
H37 H 0.0173 -0.4661 0.4254
H38 H 0.1404 -0.4234 0.4202
S1 S -0.3876(4) 0.04948(14) 0.33808(12)
S2 S -0.4264(5) 0.08594(16) 0.44862(14)
C77 C -0.4079(14) 0.0677(5) 0.3935(4)
S3 S -0.7261(6) 0.0180(3) 0.5093(3)
S4 S -0.9742(6) 0.08704(18) 0.53517(15)
C78 C -0.8503(15) 0.0508(7) 0.5205(5)
O12 O -0.4247(11) -0.2973(4) 0.3809(3)
H39 H -0.3457 -0.2991 0.3892
C79 C -0.505(2) -0.2907(13) 0.4243(6)
H40 H -0.5658 -0.2484 0.4193
H41 H -0.5806 -0.3167 0.4290
C80 C -0.440(4) -0.2794(14) 0.4738
H42 H -0.3472 -0.2824 0.4672
H43 H -0.4690 -0.3088 0.4970
H44 H -0.4589 -0.2402 0.4883
O13? O 0.0232(19) -0.2848(7) 0.3820(6)
H45? H -0.4939 -0.2467 0.4408
H46? H -0.5058 -0.3151 0.4515
C81? C -0.657(3) -0.2838(11) 0.4061(10)
H47? H -0.6668 -0.2898 0.3714
H48? H -0.7037 -0.2458 0.4151
H49? H -0.7139 -0.3145 0.4238
C82? C 0.042(2) -0.3189(12) 0.4282(9)
C83? C 0.084(5) -0.3757(16) 0.4140(10)
H50? H 0.1761 -0.3688 0.3961
H51? H 0.0319 -0.3962 0.3945
H52? H 0.1155 -0.3985 0.4446
C84? C 0.145(3) -0.2784(12) 0.4546(8)
H53? H 0.1051 -0.2392 0.4651
H54? H 0.2180 -0.2681 0.4322
H55? H 0.1833 -0.2946 0.4854
C85? C -0.091(2) -0.3229(12) 0.4587(9)
H56? H -0.1200 -0.2811 0.4697
H57? H -0.0769 -0.3425 0.4923
H58? H -0.1606 -0.3401 0.4423
loop_
_geom_bond_atom_site_label_1
_geom_bond_atom_site_label_2
_geom_bond_site_symmetry_1
_geom_bond_site_symmetry_2
Cl1 C57 1_555 1_555
O1 C44 1_555 1_555
O2 H1 1_555 1_555
O3 C27 1_555 1_555
O4 O5 1_555 1_555
O5 C61 1_555 1_555
O6 O7 1_555 1_555
O7 C65 1_555 1_555
O8 O9 1_555 1_555
O9 C73 1_555 1_555
O10 N1 1_555 1_555
O11 C60 1_555 1_555
N1 H2 1_555 1_555
C1 C2 1_555 1_555
C2 C3 1_555 1_555
C3 C4 1_555 1_555
C4 C5 1_555 1_555
C5 C6 1_555 1_555
C6 C1 1_555 1_555
C7 C6 1_555 1_555
C8 C7 1_555 1_555
C9 C1 1_555 1_555
C10 C11 1_555 1_555
C11 C9 1_555 1_555
C12 C2 1_555 1_555
C13 C12 1_555 1_555
C14 C3 1_555 1_555
C15 C14 1_555 1_555
C16 C15 1_555 1_555
C17 C4 1_555 1_555
C18 C17 1_555 1_555
C19 C5 1_555 1_555
C20 C19 1_555 1_555
C21 C7 1_555 1_555
C22 C21 1_555 1_555
C23 C22 1_555 1_555
C24 C8 1_555 1_555
C25 C24 1_555 1_555
C26 C11 1_555 1_555
C27 O2 1_555 1_555
C28 C10 1_555 1_555
C29 C28 1_555 1_555
C30 C13 1_555 1_555
C31 C30 1_555 1_555
C32 C15 1_555 1_555
C33 C32 1_555 1_555
C34 C16 1_555 1_555
C35 C34 1_555 1_555
C36 C18 1_555 1_555
C37 C36 1_555 1_555
C38 C20 1_555 1_555
C39 C22 1_555 1_555
C40 C39 1_555 1_555
C41 C40 1_555 1_555
C42 C23 1_555 1_555
C43 O4 1_555 1_555
C44 C43 1_555 1_555
C45 C44 1_555 1_555
C46 C45 1_555 1_555
C47 O3 1_555 1_555
C48 O8 1_555 1_555
C49 C31 1_555 1_555
C50 C49 1_555 1_555
C51 C33 1_555 1_555
C52 C51 1_555 1_555
C53 C35 1_555 1_555
C54 C37 1_555 1_555
C55 C40 1_555 1_555
C56 C55 1_555 1_555
C57 C41 1_555 1_555
C58 C52 1_555 1_555
C59 O6 1_555 1_555
C60 N1 1_555 1_555
C61 C62 1_555 1_555
C62 H3 1_555 1_555
H4 C62 1_555 1_555
H5 C62 1_555 1_555
C63 C61 1_555 1_555
H6 C63 1_555 1_555
H7 C63 1_555 1_555
H8 C63 1_555 1_555
C64 C61 1_555 1_555
H9 C64 1_555 1_555
H10 C64 1_555 1_555
H11 C64 1_555 1_555
C65 C66 1_555 1_555
C66 H12 1_555 1_555
H13 C66 1_555 1_555
H14 C66 1_555 1_555
C67 C65 1_555 1_555
H15 C67 1_555 1_555
H16 C67 1_555 1_555
H17 C67 1_555 1_555
C68 C65 1_555 1_555
H18 C68 1_555 1_555
H19 C68 1_555 1_555
H20 C68 1_555 1_555
C69 O10 1_555 1_555
C70 C69 1_555 1_555
H21 C70 1_555 1_555
H22 C70 1_555 1_555
H23 C70 1_555 1_555
C71 C69 1_555 1_555
H24 C71 1_555 1_555
H25 C71 1_555 1_555
H26 C71 1_555 1_555
C72 C69 1_555 1_555
H27 C72 1_555 1_555
H28 C72 1_555 1_555
H29 C72 1_555 1_555
C73 C74 1_555 1_555
C74 H30 1_555 1_555
H31 C74 1_555 1_555
H32 C74 1_555 1_555
C75 C73 1_555 1_555
H33 C75 1_555 1_555
H34 C75 1_555 1_555
H35 C75 1_555 1_555
C76 C73 1_555 1_555
H36 C76 1_555 1_555
H37 C76 1_555 1_555
H38 C76 1_555 1_555
S1 C77 1_555 1_555
S2 C77 1_555 1_555
S3 C78 1_555 1_555
S4 C78 1_555 1_555
O12 H39 1_555 1_555
C79 O12 1_555 1_555
H40 C79 1_555 1_555
H41 C79 1_555 1_555
C80 C79 1_555 1_555
H42 C80 1_555 1_555
H43 C80 1_555 1_555
H44 C80 1_555 1_555
C8 C9 1_555 1_555
C10 C12 1_555 1_555
C13 C14 1_555 1_555
C16 C17 1_555 1_555
C18 C19 1_555 1_555
C20 C21 1_555 1_555
C23 C24 1_555 1_555
C25 C26 1_555 1_555
C25 C43 1_555 1_555
C26 C27 1_555 1_555
C27 C28 1_555 1_555
C29 C30 1_555 1_555
C29 C48 1_555 1_555
C31 C32 1_555 1_555
C33 C34 1_555 1_555
C35 C36 1_555 1_555
C37 C38 1_555 1_555
C38 C39 1_555 1_555
C41 C42 1_555 1_555
C42 C43 1_555 1_555
C45 C57 1_555 1_555
C46 C47 1_555 1_555
C46 C59 1_555 1_555
C47 C48 1_555 1_555
C47 C60 1_555 1_555
C48 C49 1_555 1_555
C50 C51 1_555 1_555
C50 C59 1_555 1_555
C52 C53 1_555 1_555
C53 C54 1_555 1_555
C54 C55 1_555 1_555
C56 C57 1_555 1_555
C56 C58 1_555 1_555
C58 C59 1_555 1_555

#END
