
#######################################################################
#
#                 Cambridge Crystallographic Data Centre
#                                CCDC 
#
#######################################################################
#
# If this CIF has been generated from an entry in the Cambridge 
# Structural Database, then it will include bibliographic, chemical, 
# crystal, experimental, refinement or atomic coordinate data resulting 
# from the CCDC's data processing and validation procedures.
#
#######################################################################

data_BOBQUF
_chemical_formula_moiety         'C15 H13 Br1 O3'
_chemical_name_systematic        
(1aS,6aR,7aS)-7a-(4-Bromophenyl)-1a,5,6,6a,7,7a-hexahydro-3H-oxireno(g)isochromen-3-one
_symmetry_cell_setting           orthorhombic
_symmetry_space_group_name_H-M   'P 21 21 21'
_symmetry_Int_Tables_number      19
_space_group_name_Hall           'P 2ac 2ab'
loop_
_symmetry_equiv_pos_site_id
_symmetry_equiv_pos_as_xyz
1 x,y,z
2 1/2-x,-y,1/2+z
3 -x,1/2+y,1/2-z
4 1/2+x,1/2-y,-z
_cell_length_a                   8.6463(9)
_cell_length_b                   14.2450(16)
_cell_length_c                   31.760(3)
_cell_angle_alpha                90
_cell_angle_beta                 90
_cell_angle_gamma                90
_cell_volume                     3911.77
_exptl_crystal_colour            colorless
_exptl_crystal_description       prismatic
_cell_formula_units_Z            12
loop_
_atom_site_label
_atom_site_type_symbol
_atom_site_fract_x
_atom_site_fract_y
_atom_site_fract_z
Br1 Br 0.71694(8) 0.92756(4) 0.17384(2)
O1 O 0.4611(4) 0.4763(3) 0.20156(10)
O2 O 0.6818(5) 0.1514(3) 0.19416(13)
O3 O 0.5890(5) 0.1527(3) 0.13055(12)
C1 C 0.5819(5) 0.5034(4) 0.17280(15)
C2 C 0.6173(6) 0.4446(4) 0.20955(14)
H1 H 0.6725 0.4749 0.2328
C3 C 0.6437(6) 0.3433(4) 0.20372(17)
H2 H 0.6935 0.3094 0.2247
C4 C 0.5980(5) 0.2997(4) 0.16915(16)
C5 C 0.6272(7) 0.1973(4) 0.1659(2)
C6 C 0.4964(7) 0.1990(4) 0.09874(16)
H3 H 0.3883 0.1960 0.1068
H4 H 0.5081 0.1661 0.0722
C7 C 0.5424(7) 0.2992(4) 0.09310(15)
H5 H 0.4800 0.3274 0.0711
H6 H 0.6499 0.3025 0.0845
C8 C 0.5204(6) 0.3530(3) 0.13380(14)
H7 H 0.4094 0.3558 0.1398
C9 C 0.5811(5) 0.4534(3) 0.13095(13)
H8 H 0.6856 0.4522 0.1198
H9 H 0.5174 0.4885 0.1113
C10 C 0.6210(6) 0.6049(3) 0.17294(15)
C11 C 0.7265(6) 0.6451(4) 0.14582(15)
H10 H 0.7772 0.6069 0.1265
C12 C 0.7594(6) 0.7393(4) 0.14625(15)
H11 H 0.8316 0.7641 0.1276
C13 C 0.6849(6) 0.7964(4) 0.17444(16)
C14 C 0.5807(6) 0.7591(4) 0.20202(15)
H12 H 0.5306 0.7984 0.2210
C15 C 0.5482(6) 0.6647(4) 0.20228(16)
H13 H 0.4784 0.6404 0.2217
Br2 Br 0.20602(8) -0.07686(4) 0.171282(19)
O4 O -0.0534(4) 0.3749(2) 0.13798(11)
O5 O 0.2290(5) 0.6865(3) 0.12894(10)
O6 O 0.1443(4) 0.7030(2) 0.19365(11)
C16 C 0.0783(5) 0.3484(4) 0.16394(15)
C17 C 0.1000(6) 0.3987(4) 0.12422(15)
H14 H 0.1417 0.3622 0.1006
C18 C 0.1439(6) 0.4991(4) 0.12591(14)
H15 H 0.1896 0.5266 0.1025
C19 C 0.1198(5) 0.5509(4) 0.15998(15)
C20 C 0.1674(6) 0.6507(4) 0.15889(17)
C21 C 0.0541(6) 0.6674(4) 0.22844(16)
H16 H -0.0551 0.6741 0.2222
H17 H 0.0765 0.7038 0.2535
C22 C 0.0900(5) 0.5664(4) 0.23645(13)
H18 H 0.0321 0.5446 0.2607
H19 H 0.1994 0.5593 0.2425
C23 C 0.0478(6) 0.5084(4) 0.19825(14)
H20 H -0.0647 0.5113 0.1948
C24 C 0.0929(5) 0.4050(3) 0.20369(13)
H21 H 0.1991 0.4017 0.2135
H22 H 0.0277 0.3772 0.2252
C25 C 0.1094(5) 0.2459(4) 0.16588(14)
C26 C 0.0249(7) 0.1827(4) 0.14210(16)
H23 H -0.0546 0.2049 0.1251
C27 C 0.0554(7) 0.0871(4) 0.14299(16)
H24 H -0.0022 0.0458 0.1266
C28 C 0.1703(6) 0.0548(4) 0.16806(17)
C29 C 0.2594(6) 0.1148(4) 0.19208(16)
H25 H 0.3397 0.0920 0.2087
C30 C 0.2265(6) 0.2093(4) 0.19086(15)
H26 H 0.2847 0.2500 0.2074
Br3 Br 0.12967(9) 1.26874(5) 0.01838(2)
O7 O -0.1540(4) 0.8189(2) 0.03256(10)
O8 O 0.0942(5) 0.4974(3) 0.02533(11)
O9 O 0.0167(4) 0.5009(3) -0.03962(10)
C31 C -0.0228(6) 0.8474(4) 0.00785(15)
C32 C -0.0004(6) 0.7869(4) 0.04502(14)
H27 H 0.0454 0.8160 0.0700
C33 C 0.0298(6) 0.6868(4) 0.03839(15)
H28 H 0.0690 0.6513 0.0606
C34 C 0.0029(6) 0.6449(4) 0.00166(14)
C35 C 0.0400(7) 0.5431(4) -0.00262(16)
C36 C -0.0636(6) 0.5483(4) -0.07341(15)
H29 H -0.1743 0.5423 -0.0692
H30 H -0.0380 0.5183 -0.0999
C37 C -0.0217(6) 0.6502(3) -0.07564(14)
H31 H -0.0762 0.6795 -0.0989
H32 H 0.0884 0.6565 -0.0807
C38 C -0.0639(6) 0.6991(3) -0.03504(13)
H33 H -0.1768 0.6989 -0.0324
C39 C -0.0088(6) 0.8004(3) -0.03447(14)
H34 H 0.0987 0.8022 -0.0432
H35 H -0.0683 0.8359 -0.0549
C40 C 0.0163(6) 0.9490(4) 0.01089(15)
C41 C 0.1443(6) 0.9860(4) -0.00885(16)
H36 H 0.2069 0.9464 -0.0247
C42 C 0.1833(7) 1.0803(4) -0.00595(15)
H37 H 0.2721 1.1038 -0.0187
C43 C 0.0851(8) 1.1375(4) 0.01654(19)
C44 C -0.0415(8) 1.1041(4) 0.03580(17)
H38 H -0.1058 1.1446 0.0507
C45 C -0.0764(6) 1.0101(4) 0.03363(15)
H39 H -0.1632 0.9873 0.0476
loop_
_geom_bond_atom_site_label_1
_geom_bond_atom_site_label_2
_geom_bond_site_symmetry_1
_geom_bond_site_symmetry_2
Br1 C13 1_555 1_555
Br2 C28 1_555 1_555
Br3 C43 1_555 1_555
O1 C1 1_555 1_555
O2 C5 1_555 1_555
O3 C5 1_555 1_555
O4 C16 1_555 1_555
O5 C20 1_555 1_555
O6 C20 1_555 1_555
O7 C31 1_555 1_555
O8 C35 1_555 1_555
O9 C35 1_555 1_555
C1 C2 1_555 1_555
C2 O1 1_555 1_555
H1 C2 1_555 1_555
C3 C2 1_555 1_555
H2 C3 1_555 1_555
C4 C3 1_555 1_555
C5 C4 1_555 1_555
C6 O3 1_555 1_555
H3 C6 1_555 1_555
H4 C6 1_555 1_555
C7 C6 1_555 1_555
H5 C7 1_555 1_555
H6 C7 1_555 1_555
C8 C4 1_555 1_555
H7 C8 1_555 1_555
C9 C1 1_555 1_555
H8 C9 1_555 1_555
H9 C9 1_555 1_555
C10 C1 1_555 1_555
C11 C10 1_555 1_555
H10 C11 1_555 1_555
C12 C11 1_555 1_555
H11 C12 1_555 1_555
C13 C12 1_555 1_555
C14 C13 1_555 1_555
H12 C14 1_555 1_555
C15 C10 1_555 1_555
H13 C15 1_555 1_555
C16 C17 1_555 1_555
C17 O4 1_555 1_555
H14 C17 1_555 1_555
C18 C17 1_555 1_555
H15 C18 1_555 1_555
C19 C18 1_555 1_555
C20 C19 1_555 1_555
C21 O6 1_555 1_555
H16 C21 1_555 1_555
H17 C21 1_555 1_555
C22 C21 1_555 1_555
H18 C22 1_555 1_555
H19 C22 1_555 1_555
C23 C19 1_555 1_555
H20 C23 1_555 1_555
C24 C16 1_555 1_555
H21 C24 1_555 1_555
H22 C24 1_555 1_555
C25 C16 1_555 1_555
C26 C25 1_555 1_555
H23 C26 1_555 1_555
C27 C26 1_555 1_555
H24 C27 1_555 1_555
C28 C27 1_555 1_555
C29 C28 1_555 1_555
H25 C29 1_555 1_555
C30 C25 1_555 1_555
H26 C30 1_555 1_555
C31 C32 1_555 1_555
C32 O7 1_555 1_555
H27 C32 1_555 1_555
C33 C32 1_555 1_555
H28 C33 1_555 1_555
C34 C33 1_555 1_555
C35 C34 1_555 1_555
C36 O9 1_555 1_555
H29 C36 1_555 1_555
H30 C36 1_555 1_555
C37 C36 1_555 1_555
H31 C37 1_555 1_555
H32 C37 1_555 1_555
C38 C34 1_555 1_555
H33 C38 1_555 1_555
C39 C31 1_555 1_555
H34 C39 1_555 1_555
H35 C39 1_555 1_555
C40 C31 1_555 1_555
C41 C40 1_555 1_555
H36 C41 1_555 1_555
C42 C41 1_555 1_555
H37 C42 1_555 1_555
C43 C42 1_555 1_555
C44 C43 1_555 1_555
H38 C44 1_555 1_555
C45 C40 1_555 1_555
H39 C45 1_555 1_555
C7 C8 1_555 1_555
C8 C9 1_555 1_555
C14 C15 1_555 1_555
C22 C23 1_555 1_555
C23 C24 1_555 1_555
C29 C30 1_555 1_555
C37 C38 1_555 1_555
C38 C39 1_555 1_555
C44 C45 1_555 1_555

#END
