
#######################################################################
#
#                 Cambridge Crystallographic Data Centre
#                                CCDC 
#
#######################################################################
#
# If this CIF has been generated from an entry in the Cambridge 
# Structural Database, then it will include bibliographic, chemical, 
# crystal, experimental, refinement or atomic coordinate data resulting 
# from the CCDC's data processing and validation procedures.
#
#######################################################################

data_BOBQUG
_chemical_name_common            'PDB Chemical Component code: RMN'
_chemical_formula_moiety         '2(C8 H8 O3),C6 H6 N2 O1'
_chemical_name_systematic        'hydroxy(phenyl)acetic acid nicotinamide'
_symmetry_cell_setting           triclinic
_symmetry_space_group_name_H-M   'P 1'
_symmetry_Int_Tables_number      1
_space_group_name_Hall           'P 1'
loop_
_symmetry_equiv_pos_site_id
_symmetry_equiv_pos_as_xyz
1 x,y,z
_cell_length_a                   6.5020(12)
_cell_length_b                   7.5220(8)
_cell_length_c                   20.6532(17)
_cell_angle_alpha                97.770(5)
_cell_angle_beta                 91.964(4)
_cell_angle_gamma                90.557(5)
_cell_volume                     1000.14
_exptl_crystal_colour            colorless
_exptl_crystal_description       plate
_cell_formula_units_Z            2
loop_
_atom_site_label
_atom_site_type_symbol
_atom_site_fract_x
_atom_site_fract_y
_atom_site_fract_z
O1 O 0.73252(19) 0.04299(16) 0.59572(6)
N1 N 0.5443(2) 0.2723(2) 0.43376(8)
N2 N 0.9132(2) 0.2903(2) 0.63942(8)
H1 H 0.965(4) 0.234(4) 0.6683(14)
H2 H 0.966(4) 0.395(4) 0.6368(13)
C1 C 0.5479(3) 0.4517(3) 0.43700(9)
H3 H 0.4905 0.5045 0.4013
C2 C 0.6322(3) 0.5628(2) 0.49050(9)
H4 H 0.6357 0.6892 0.4909
C3 C 0.7118(3) 0.4870(2) 0.54361(9)
H5 H 0.7698 0.5605 0.5809
C4 C 0.7046(3) 0.3006(2) 0.54101(9)
C5 C 0.6209(3) 0.1993(2) 0.48466(9)
H6 H 0.6183 0.0723 0.4824
C6 C 0.7856(3) 0.2031(2) 0.59469(8)
O2 O 0.23024(19) 0.54651(16) 0.59916(6)
N3 N 0.0466(2) 0.7704(2) 0.43516(8)
N4 N 0.4216(3) 0.7914(2) 0.63924(8)
H7 H 0.473(4) 0.734(4) 0.6702(15)
H8 H 0.480(4) 0.894(4) 0.6352(13)
C7 C 0.0501(3) 0.9497(3) 0.43783(9)
H9 H -0.0070 1.0016 0.4019
C8 C 0.1342(3) 1.0619(2) 0.49120(9)
H10 H 0.1370 1.1882 0.4914
C9 C 0.2142(3) 0.9869(2) 0.54439(9)
H11 H 0.2724 1.0609 0.5815
C10 C 0.2073(3) 0.8006(2) 0.54218(9)
C11 C 0.1233(3) 0.6982(2) 0.48613(9)
H12 H 0.1206 0.5713 0.4841
C12 C 0.2883(3) 0.7045(2) 0.59616(8)
O3 O 0.9616(2) 0.07357(18) 0.29185(7)
H13 H 1.096(5) 0.093(4) 0.3043(14)
O4 O 1.0807(2) 0.34766(18) 0.38288(7)
O5 O 0.8943(2) 0.54789(17) 0.33568(7)
H14 H 0.949(5) 0.632(5) 0.3697(16)
C13 C 0.9916(4) 0.3867(3) 0.09343(10)
H15 H 1.0157 0.4176 0.0512
C14 C 1.1485(4) 0.4060(3) 0.14142(11)
H16 H 1.2799 0.4506 0.1321
C15 C 1.1129(3) 0.3602(3) 0.20295(10)
H17 H 1.2209 0.3715 0.2355
C16 C 0.9197(3) 0.2979(2) 0.21728(9)
C17 C 0.7635(3) 0.2782(3) 0.16902(10)
H18 H 0.6316 0.2345 0.1783
C18 C 0.8002(4) 0.3224(3) 0.10727(10)
H19 H 0.6934 0.3084 0.0744
C19 C 0.8806(3) 0.2443(2) 0.28418(9)
H20 H 0.7281 0.2365 0.2884
C20 C 0.9647(3) 0.3850(2) 0.33981(9)
O6 O 0.9995(2) 0.58433(17) 0.74516(7)
H21 H 0.866(5) 0.594(4) 0.7474(14)
O7 O 1.0782(2) 1.04674(17) 0.72604(6)
O8 O 0.8762(2) 0.82872(18) 0.67313(6)
H22 H 0.839(5) 0.921(5) 0.6512(16)
C21 C 0.9445(4) 0.9402(3) 0.96621(10)
H23 H 0.9167 0.9796 1.0107
C22 C 0.8080(3) 0.9777(3) 0.91671(10)
H24 H 0.6860 1.0421 0.9273
C23 C 0.8501(3) 0.9205(3) 0.85160(9)
H25 H 0.7555 0.9445 0.8179
C24 C 1.0296(3) 0.8288(2) 0.83566(9)
C25 C 1.1651(3) 0.7903(3) 0.88559(9)
H26 H 1.2875 0.7264 0.8752
C26 C 1.1212(3) 0.8453(3) 0.95029(10)
H27 H 1.2133 0.8175 0.9841
C27 C 1.0779(3) 0.7603(2) 0.76541(9)
H28 H 1.2312 0.7533 0.7637
C28 C 1.0101(3) 0.8930(2) 0.71942(8)
O9 O 0.4817(2) 0.57783(18) 0.28847(7)
H29 H 0.604(4) 0.592(4) 0.3049(13)
O10 O 0.5873(2) 0.85272(18) 0.38014(7)
O11 O 0.3957(2) 1.04874(18) 0.33242(7)
H30 H 0.443(5) 1.130(4) 0.3677(16)
C29 C 0.5281(4) 0.8908(3) 0.08941(10)
H31 H 0.5548 0.9206 0.0472
C30 C 0.6765(3) 0.8053(3) 0.12343(10)
H32 H 0.8050 0.7765 0.1044
C31 C 0.6379(3) 0.7613(3) 0.18534(10)
H33 H 0.7407 0.7044 0.2087
C32 C 0.4484(3) 0.8011(2) 0.21285(9)
C33 C 0.3002(3) 0.8871(3) 0.17861(9)
H34 H 0.1709 0.9148 0.1973
C34 C 0.3405(3) 0.9326(3) 0.11736(10)
H35 H 0.2393 0.9926 0.0944
C35 C 0.4002(3) 0.7468(3) 0.27931(9)
H36 H 0.2471 0.7367 0.2811
C36 C 0.4741(3) 0.8882(2) 0.33633(9)
O12 O 0.5123(2) 0.09026(17) 0.74627(7)
H37 H 0.378(5) 0.092(4) 0.7430(15)
O13 O 0.5651(2) 0.55775(17) 0.73255(6)
O14 O 0.3749(2) 0.33467(18) 0.67721(6)
H38 H 0.335(5) 0.423(5) 0.6532(16)
C37 C 0.4323(4) 0.4490(3) 0.96903(10)
H39 H 0.4009 0.4884 1.0132
C38 C 0.2952(3) 0.3386(3) 0.92871(10)
H40 H 0.1694 0.3023 0.9454
C39 C 0.3409(3) 0.2809(3) 0.86409(10)
H41 H 0.2459 0.2062 0.8367
C40 C 0.5254(3) 0.3323(2) 0.83948(9)
C41 C 0.6630(3) 0.4427(3) 0.88021(9)
H42 H 0.7898 0.4779 0.8639
C42 C 0.6156(3) 0.5014(3) 0.94430(10)
H43 H 0.7093 0.5781 0.9716
C43 C 0.5791(3) 0.2676(2) 0.76899(9)
H44 H 0.7327 0.2680 0.7679
C44 C 0.5046(3) 0.4019(2) 0.72424(9)
loop_
_geom_bond_atom_site_label_1
_geom_bond_atom_site_label_2
_geom_bond_site_symmetry_1
_geom_bond_site_symmetry_2
O1 C6 1_555 1_555
N1 C1 1_555 1_555
N2 H1 1_555 1_555
H2 N2 1_555 1_555
C1 H3 1_555 1_555
C2 C1 1_555 1_555
H4 C2 1_555 1_555
C3 C2 1_555 1_555
H5 C3 1_555 1_555
C4 C3 1_555 1_555
C5 N1 1_555 1_555
H6 C5 1_555 1_555
C6 N2 1_555 1_555
O2 C12 1_555 1_555
N3 C7 1_555 1_555
N4 H7 1_555 1_555
H8 N4 1_555 1_555
C7 H9 1_555 1_555
C8 C7 1_555 1_555
H10 C8 1_555 1_555
C9 C8 1_555 1_555
H11 C9 1_555 1_555
C10 C9 1_555 1_555
C11 N3 1_555 1_555
H12 C11 1_555 1_555
C12 N4 1_555 1_555
O3 H13 1_555 1_555
O4 C20 1_555 1_555
O5 H14 1_555 1_555
C13 H15 1_555 1_555
C14 C13 1_555 1_555
H16 C14 1_555 1_555
C15 C14 1_555 1_555
H17 C15 1_555 1_555
C16 C15 1_555 1_555
C17 C16 1_555 1_555
H18 C17 1_555 1_555
C18 C13 1_555 1_555
H19 C18 1_555 1_555
C19 O3 1_555 1_555
H20 C19 1_555 1_555
C20 O5 1_555 1_555
O6 H21 1_555 1_555
O7 C28 1_555 1_555
O8 H22 1_555 1_555
C21 H23 1_555 1_555
C22 C21 1_555 1_555
H24 C22 1_555 1_555
C23 C22 1_555 1_555
H25 C23 1_555 1_555
C24 C23 1_555 1_555
C25 C24 1_555 1_555
H26 C25 1_555 1_555
C26 C21 1_555 1_555
H27 C26 1_555 1_555
C27 O6 1_555 1_555
H28 C27 1_555 1_555
C28 O8 1_555 1_555
O9 H29 1_555 1_555
O10 C36 1_555 1_555
O11 H30 1_555 1_555
C29 H31 1_555 1_555
C30 C29 1_555 1_555
H32 C30 1_555 1_555
C31 C30 1_555 1_555
H33 C31 1_555 1_555
C32 C31 1_555 1_555
C33 C32 1_555 1_555
H34 C33 1_555 1_555
C34 C29 1_555 1_555
H35 C34 1_555 1_555
C35 O9 1_555 1_555
H36 C35 1_555 1_555
C36 O11 1_555 1_555
O12 H37 1_555 1_555
O13 C44 1_555 1_555
O14 H38 1_555 1_555
C37 H39 1_555 1_555
C38 C37 1_555 1_555
H40 C38 1_555 1_555
C39 C38 1_555 1_555
H41 C39 1_555 1_555
C40 C39 1_555 1_555
C41 C40 1_555 1_555
H42 C41 1_555 1_555
C42 C37 1_555 1_555
H43 C42 1_555 1_555
C43 O12 1_555 1_555
H44 C43 1_555 1_555
C44 O14 1_555 1_555
C4 C5 1_555 1_555
C4 C6 1_555 1_555
C10 C11 1_555 1_555
C10 C12 1_555 1_555
C16 C19 1_555 1_555
C17 C18 1_555 1_555
C19 C20 1_555 1_555
C24 C27 1_555 1_555
C25 C26 1_555 1_555
C27 C28 1_555 1_555
C32 C35 1_555 1_555
C33 C34 1_555 1_555
C35 C36 1_555 1_555
C40 C43 1_555 1_555
C41 C42 1_555 1_555
C43 C44 1_555 1_555

#END
