
#######################################################################
#
#                 Cambridge Crystallographic Data Centre
#                                CCDC 
#
#######################################################################
#
# If this CIF has been generated from an entry in the Cambridge 
# Structural Database, then it will include bibliographic, chemical, 
# crystal, experimental, refinement or atomic coordinate data resulting 
# from the CCDC's data processing and validation procedures.
#
#######################################################################

data_BOBQIT
_chemical_formula_moiety         'C19 H19 Br1 O2'
_chemical_name_systematic        
4-(4-Bromophenyl)-2-phenyl-7-oxabicyclo(3.2.1)octan-2-ol
_symmetry_cell_setting           monoclinic
_symmetry_space_group_name_H-M   'C c'
_symmetry_Int_Tables_number      9
_space_group_name_Hall           'C -2yc'
loop_
_symmetry_equiv_pos_site_id
_symmetry_equiv_pos_as_xyz
1 x,y,z
2 x,-y,1/2+z
3 1/2+x,1/2+y,z
4 1/2+x,1/2-y,1/2+z
_cell_length_a                   6.2797(15)
_cell_length_b                   24.896(6)
_cell_length_c                   10.252(2)
_cell_angle_alpha                90
_cell_angle_beta                 93.604(4)
_cell_angle_gamma                90
_cell_volume                     1599.62
_exptl_crystal_colour            colorless
_exptl_crystal_description       prismatic
_cell_formula_units_Z            4
loop_
_atom_site_label
_atom_site_type_symbol
_atom_site_fract_x
_atom_site_fract_y
_atom_site_fract_z
Br1 Br -0.26284(17) 0.52542(3) 0.47967(13)
O1 O 0.1010(8) 0.29537(19) -0.0681(5)
O2 O 0.4953(8) 0.2481(2) 0.1771(6)
H1 H 0.4965 0.2320 0.2470
C1 C 0.0794(13) 0.3520(3) -0.0403(8)
H2 H -0.0497 0.3588 0.0042
H3 H 0.0748 0.3729 -0.1203
C2 C 0.3071(10) 0.2776(3) -0.0121(8)
H4 H 0.3686 0.2508 -0.0688
C3 C 0.4382(13) 0.3274(3) -0.0077(8)
H5 H 0.4762 0.3383 -0.0941
H6 H 0.5665 0.3236 0.0493
C4 C 0.2795(12) 0.3662(3) 0.0485(8)
H7 H 0.3224 0.4036 0.0363
C5 C 0.2480(11) 0.3543(3) 0.1910(7)
H8 H 0.3900 0.3556 0.2363
C6 C 0.1660(11) 0.2955(3) 0.2059(7)
H9 H 0.1817 0.2855 0.2975
H10 H 0.0151 0.2943 0.1793
C7 C 0.2830(11) 0.2540(3) 0.1258(7)
C8 C 0.1641(11) 0.2009(3) 0.1236(7)
C9 C -0.0492(12) 0.1968(3) 0.0801(9)
H11 H -0.1215 0.2275 0.0504
C10 C -0.1567(14) 0.1485(4) 0.0798(9)
H12 H -0.2997 0.1469 0.0506
C11 C -0.0520(19) 0.1027(4) 0.1229(10)
H13 H -0.1242 0.0700 0.1235
C12 C 0.155(2) 0.1053(3) 0.1641(9)
H14 H 0.2260 0.0743 0.1930
C13 C 0.2655(13) 0.1542(3) 0.1641(8)
H15 H 0.4093 0.1551 0.1918
C14 C 0.1151(11) 0.3953(3) 0.2561(7)
C15 C -0.0894(12) 0.3849(3) 0.2954(7)
H16 H -0.1516 0.3516 0.2781
C16 C -0.2018(12) 0.4240(3) 0.3604(8)
H17 H -0.3375 0.4165 0.3871
C17 C -0.1116(13) 0.4733(3) 0.3850(8)
C18 C 0.0861(14) 0.4853(3) 0.3434(9)
H18 H 0.1446 0.5193 0.3573
C19 C 0.1976(12) 0.4461(3) 0.2805(8)
H19 H 0.3327 0.4542 0.2537
loop_
_geom_bond_atom_site_label_1
_geom_bond_atom_site_label_2
_geom_bond_site_symmetry_1
_geom_bond_site_symmetry_2
Br1 C17 1_555 1_555
O1 C1 1_555 1_555
O2 H1 1_555 1_555
C1 H2 1_555 1_555
H3 C1 1_555 1_555
C2 O1 1_555 1_555
H4 C2 1_555 1_555
C3 C2 1_555 1_555
H5 C3 1_555 1_555
H6 C3 1_555 1_555
C4 C1 1_555 1_555
H7 C4 1_555 1_555
C5 C4 1_555 1_555
H8 C5 1_555 1_555
C6 C5 1_555 1_555
H9 C6 1_555 1_555
H10 C6 1_555 1_555
C7 O2 1_555 1_555
C8 C7 1_555 1_555
C9 C8 1_555 1_555
H11 C9 1_555 1_555
C10 C9 1_555 1_555
H12 C10 1_555 1_555
C11 C10 1_555 1_555
H13 C11 1_555 1_555
C12 C11 1_555 1_555
H14 C12 1_555 1_555
C13 C8 1_555 1_555
H15 C13 1_555 1_555
C14 C5 1_555 1_555
C15 C14 1_555 1_555
H16 C15 1_555 1_555
C16 C15 1_555 1_555
H17 C16 1_555 1_555
C17 C16 1_555 1_555
C18 C17 1_555 1_555
H18 C18 1_555 1_555
C19 C14 1_555 1_555
H19 C19 1_555 1_555
C2 C7 1_555 1_555
C3 C4 1_555 1_555
C6 C7 1_555 1_555
C12 C13 1_555 1_555
C18 C19 1_555 1_555

#END
