
#######################################################################
#
#                 Cambridge Crystallographic Data Centre
#                                CCDC 
#
#######################################################################
#
# If this CIF has been generated from an entry in the Cambridge 
# Structural Database, then it will include bibliographic, chemical, 
# crystal, experimental, refinement or atomic coordinate data resulting 
# from the CCDC's data processing and validation procedures.
#
#######################################################################

data_BOBRAN
_chemical_formula_moiety         'C8 H8 O3,4(C6 H6 N2 O1)'
_chemical_name_systematic        'hydroxy(phenyl)acetic acid nicotinamide'
_symmetry_cell_setting           monoclinic
_symmetry_space_group_name_H-M   'P 21'
_symmetry_Int_Tables_number      4
_space_group_name_Hall           'P 2yb'
loop_
_symmetry_equiv_pos_site_id
_symmetry_equiv_pos_as_xyz
1 x,y,z
2 -x,1/2+y,-z
_cell_length_a                   6.0810(7)
_cell_length_b                   34.245(4)
_cell_length_c                   7.4405(9)
_cell_angle_alpha                90
_cell_angle_beta                 99.280(9)
_cell_angle_gamma                90
_cell_volume                     1529.16
_exptl_crystal_colour            colorless
_exptl_crystal_description       block
_cell_formula_units_Z            2
loop_
_atom_site_label
_atom_site_type_symbol
_atom_site_fract_x
_atom_site_fract_y
_atom_site_fract_z
O1 O 0.7019(3) 0.21244(6) 0.5915(3)
N1 N 0.6610(4) 0.34759(7) 0.7428(3)
N2 N 0.4004(4) 0.24700(8) 0.4654(4)
H1 H 0.343(6) 0.2691(11) 0.441(5)
H2 H 0.331(5) 0.2242(10) 0.414(4)
C1 C 0.5764(4) 0.31432(8) 0.6636(4)
H3 H 0.4221 0.3135 0.6149
C2 C 0.7039(5) 0.28100(8) 0.6495(4)
C3 C 0.9288(5) 0.28242(9) 0.7207(4)
H4 H 1.0206 0.2602 0.7145
C4 C 1.0185(5) 0.31655(9) 0.8009(4)
H5 H 1.1727 0.3182 0.8491
C5 C 0.8794(5) 0.34828(9) 0.8097(4)
H6 H 0.9415 0.3716 0.8656
C6 C 0.6015(5) 0.24399(8) 0.5647(4)
O2 O 0.1429(3) 0.18093(6) 0.2775(3)
N3 N 0.1961(4) 0.04624(7) 0.1330(3)
N4 N 0.4461(4) 0.14725(8) 0.4069(4)
H7 H 0.514(6) 0.1683(10) 0.445(5)
H8 H 0.508(5) 0.1239(10) 0.433(4)
C7 C 0.2760(5) 0.07952(8) 0.2091(4)
H9 H 0.4300 0.0808 0.2581
C8 C 0.1470(5) 0.11255(8) 0.2210(4)
C9 C -0.0783(5) 0.11050(9) 0.1486(4)
H10 H -0.1729 0.1324 0.1538
C10 C -0.1625(5) 0.07580(9) 0.0684(4)
H11 H -0.3155 0.0738 0.0172
C11 C -0.0215(5) 0.04429(9) 0.0639(4)
H12 H -0.0805 0.0205 0.0103
C12 C 0.2453(5) 0.14995(8) 0.3060(4)
O3 O 0.4032(3) 0.24956(6) 0.9728(3)
N5 N 1.0724(4) 0.30474(7) 1.3001(3)
N6 N 0.6912(4) 0.20899(8) 1.0674(4)
H13 H 0.620(6) 0.1883(11) 1.014(5)
H14 H 0.822(6) 0.2061(11) 1.123(5)
C13 C 0.9525(5) 0.27555(8) 1.2121(4)
H15 H 1.0278 0.2520 1.1922
C14 C 0.7255(5) 0.27764(8) 1.1486(4)
C15 C 0.6172(5) 0.31233(8) 1.1736(4)
H16 H 0.4621 0.3151 1.1306
C16 C 0.7390(5) 0.34299(9) 1.2624(4)
H17 H 0.6692 0.3672 1.2796
C17 C 0.9641(5) 0.33764(8) 1.3254(4)
H18 H 1.0451 0.3584 1.3897
C18 C 0.5941(5) 0.24410(9) 1.0548(4)
O4 O 0.4391(3) 0.14260(6) 0.8958(3)
N7 N -0.2284(4) 0.08689(7) 0.5722(3)
N8 N 0.1516(4) 0.18356(8) 0.8019(4)
H19 H 0.005(7) 0.1889(11) 0.736(5)
H20 H 0.239(6) 0.2061(12) 0.859(5)
C19 C -0.1102(5) 0.11656(8) 0.6596(4)
H21 H -0.1871 0.1398 0.6821
C20 C 0.1177(4) 0.11486(8) 0.7183(4)
C21 C 0.2299(5) 0.08061(9) 0.6904(4)
H22 H 0.3859 0.0784 0.7302
C22 C 0.1097(5) 0.04994(9) 0.6037(4)
H23 H 0.1820 0.0262 0.5828
C23 C -0.1172(5) 0.05415(9) 0.5474(4)
H24 H -0.1980 0.0327 0.4882
C24 C 0.2493(4) 0.14888(9) 0.8122(4)
O5 O 0.6505(4) -0.10438(6) 0.1315(3)
H25 H 0.553(6) -0.1133(11) 0.181(5)
O6 O 0.2938(3) -0.05376(6) 0.1288(3)
O7 O 0.5289(4) -0.00332(6) 0.1581(3)
H26 H 0.405(8) 0.0115(15) 0.140(7)
C25 C 0.7702(4) -0.06531(8) 0.4057(4)
C26 C 0.6289(5) -0.07550(9) 0.5274(4)
H27 H 0.4794 -0.0828 0.4826
C27 C 0.7042(5) -0.07506(9) 0.7136(4)
H28 H 0.6063 -0.0817 0.7962
C28 C 0.9246(5) -0.06477(9) 0.7789(4)
H29 H 0.9777 -0.0648 0.9062
C29 C 1.0660(5) -0.05456(9) 0.6581(4)
H30 H 1.2158 -0.0474 0.7026
C30 C 0.9885(5) -0.05481(9) 0.4715(4)
H31 H 1.0857 -0.0478 0.3889
C31 C 0.6876(4) -0.06631(8) 0.2013(4)
H32 H 0.8058 -0.0542 0.1402
C32 C 0.4814(5) -0.04109(8) 0.1581(4)
loop_
_geom_bond_atom_site_label_1
_geom_bond_atom_site_label_2
_geom_bond_site_symmetry_1
_geom_bond_site_symmetry_2
O1 C6 1_555 1_555
N1 C1 1_555 1_555
N2 H1 1_555 1_555
H2 N2 1_555 1_555
C1 H3 1_555 1_555
C2 C1 1_555 1_555
C3 C2 1_555 1_555
H4 C3 1_555 1_555
C4 C3 1_555 1_555
H5 C4 1_555 1_555
C5 N1 1_555 1_555
H6 C5 1_555 1_555
C6 N2 1_555 1_555
O2 C12 1_555 1_555
N3 C7 1_555 1_555
N4 H7 1_555 1_555
H8 N4 1_555 1_555
C7 H9 1_555 1_555
C8 C7 1_555 1_555
C9 C8 1_555 1_555
H10 C9 1_555 1_555
C10 C9 1_555 1_555
H11 C10 1_555 1_555
C11 N3 1_555 1_555
H12 C11 1_555 1_555
C12 N4 1_555 1_555
O3 C18 1_555 1_555
N5 C13 1_555 1_555
N6 H13 1_555 1_555
H14 N6 1_555 1_555
C13 H15 1_555 1_555
C14 C13 1_555 1_555
C15 C14 1_555 1_555
H16 C15 1_555 1_555
C16 C15 1_555 1_555
H17 C16 1_555 1_555
C17 N5 1_555 1_555
H18 C17 1_555 1_555
C18 N6 1_555 1_555
O4 C24 1_555 1_555
N7 C19 1_555 1_555
N8 H19 1_555 1_555
H20 N8 1_555 1_555
C19 H21 1_555 1_555
C20 C19 1_555 1_555
C21 C20 1_555 1_555
H22 C21 1_555 1_555
C22 C21 1_555 1_555
H23 C22 1_555 1_555
C23 N7 1_555 1_555
H24 C23 1_555 1_555
C24 N8 1_555 1_555
O5 H25 1_555 1_555
O6 C32 1_555 1_555
O7 H26 1_555 1_555
C25 C26 1_555 1_555
C26 H27 1_555 1_555
C27 C26 1_555 1_555
H28 C27 1_555 1_555
C28 C27 1_555 1_555
H29 C28 1_555 1_555
C29 C28 1_555 1_555
H30 C29 1_555 1_555
C30 C25 1_555 1_555
H31 C30 1_555 1_555
C31 O5 1_555 1_555
H32 C31 1_555 1_555
C32 O7 1_555 1_555
C2 C6 1_555 1_555
C4 C5 1_555 1_555
C8 C12 1_555 1_555
C10 C11 1_555 1_555
C14 C18 1_555 1_555
C16 C17 1_555 1_555
C20 C24 1_555 1_555
C22 C23 1_555 1_555
C25 C31 1_555 1_555
C29 C30 1_555 1_555
C31 C32 1_555 1_555

#END
