
#######################################################################
#
#                 Cambridge Crystallographic Data Centre
#                                CCDC 
#
#######################################################################
#
# If this CIF has been generated from an entry in the Cambridge 
# Structural Database, then it will include bibliographic, chemical, 
# crystal, experimental, refinement or atomic coordinate data resulting 
# from the CCDC's data processing and validation procedures.
#
#######################################################################

data_BOBYAU
_chemical_formula_moiety         'C48 H13 F20 N5 O1,C3 H7 N1 O1'
_chemical_name_systematic        
'(Pentafluorophenyl)(2-(6,11,16-tris(pentafluorophenyl)-1,21,22,23-tetraazapentacyclo[15.2.1.1^2,5^.1^7,10^.1^12,15^]tricosa-2,4,6,8,10(22),11,13,15,17(20),18-decaen-20-yl)-1H-pyrrol-3-yl)methanone N,N-dimethylformamide solvate'
_symmetry_cell_setting           monoclinic
_symmetry_space_group_name_H-M   'P 21/c'
_symmetry_Int_Tables_number      14
_space_group_name_Hall           '-P 2ybc'
loop_
_symmetry_equiv_pos_site_id
_symmetry_equiv_pos_as_xyz
1 x,y,z
2 -x,1/2+y,1/2-z
3 -x,-y,-z
4 x,1/2-y,1/2+z
_cell_length_a                   15.064(3)
_cell_length_b                   9.7487(18)
_cell_length_c                   30.825(6)
_cell_angle_alpha                90
_cell_angle_beta                 92.476(3)
_cell_angle_gamma                90
_cell_volume                     4522.56
_cell_formula_units_Z            4
loop_
_atom_site_label
_atom_site_type_symbol
_atom_site_fract_x
_atom_site_fract_y
_atom_site_fract_z
C1 C 0.56370(17) 0.2122(3) 0.04170(8)
C2 C 0.58389(18) 0.3224(3) 0.01564(9)
H1 H 0.5439 0.3840 0.0026
C3 C 0.67650(19) 0.3228(3) 0.01277(9)
H2 H 0.7092 0.3851 -0.0029
C4 C 0.71141(18) 0.2135(3) 0.03746(9)
C5 C 0.79932(18) 0.1715(3) 0.05051(9)
C6 C 0.81944(17) 0.0871(3) 0.08568(9)
C7 C 0.90553(18) 0.0317(3) 0.09808(9)
H3 H 0.9579 0.0458 0.0838
C8 C 0.89621(18) -0.0439(3) 0.13401(9)
H4 H 0.9409 -0.0906 0.1497
C9 C 0.80267(17) -0.0385(3) 0.14372(8)
C10 C 0.76361(17) -0.1090(3) 0.17911(8)
C11 C 0.67309(17) -0.1247(3) 0.18404(8)
C12 C 0.62787(18) -0.1953(3) 0.21819(9)
H5 H 0.6554 -0.2372 0.2423
C13 C 0.53947(18) -0.1902(3) 0.20921(9)
H6 H 0.4960 -0.2286 0.2260
C14 C 0.52349(17) -0.1155(3) 0.16931(8)
C15 C 0.44569(16) -0.0835(3) 0.14696(8)
C16 C 0.44485(16) 0.0009(3) 0.10790(8)
C17 C 0.40290(17) -0.0278(3) 0.06601(9)
H7 H 0.3633 -0.0990 0.0598
C18 C 0.43048(17) 0.0653(3) 0.03751(8)
H8 H 0.4146 0.0673 0.0080
C19 C 0.49256(16) 0.1202(3) 0.10307(8)
C20 C 0.87229(18) 0.2234(3) 0.02406(10)
C21 C 0.87443(19) 0.1980(3) -0.02050(10)
C22 C 0.9434(2) 0.2407(4) -0.04482(12)
C23 C 1.0124(2) 0.3121(4) -0.02565(14)
C24 C 1.01193(19) 0.3431(4) 0.01751(14)
C25 C 0.9425(2) 0.3000(3) 0.04229(11)
C26 C 0.82488(17) -0.1663(3) 0.21411(9)
C27 C 0.87460(19) -0.2837(3) 0.20900(10)
C28 C 0.9305(2) -0.3347(4) 0.24207(12)
C29 C 0.9374(2) -0.2676(4) 0.28084(11)
C30 C 0.8890(2) -0.1524(4) 0.28718(10)
C31 C 0.83436(18) -0.1018(3) 0.25411(9)
C32 C 0.35989(16) -0.1431(3) 0.16107(9)
C33 C 0.31852(18) -0.0952(3) 0.19741(9)
C34 C 0.2346(2) -0.1402(4) 0.20761(10)
C35 C 0.19143(19) -0.2353(4) 0.18204(12)
C36 C 0.23176(19) -0.2898(3) 0.14706(11)
C37 C 0.31557(18) -0.2445(3) 0.13740(10)
C38 C 0.53071(17) 0.2171(3) 0.13579(8)
C39 C 0.48874(18) 0.3192(3) 0.15902(8)
C40 C 0.5546(2) 0.3808(3) 0.18724(9)
H9 H 0.5455 0.4514 0.2069
C41 C 0.6324(2) 0.3182(3) 0.18035(9)
H10 H 0.6866 0.3380 0.1945
C42 C 0.3976(2) 0.3671(3) 0.15568(9)
C43 C 0.33126(18) 0.3042(3) 0.12292(9)
C44 C 0.32974(19) 0.3396(3) 0.07954(9)
C45 C 0.2669(2) 0.2875(4) 0.05086(10)
C46 C 0.2044(2) 0.1979(4) 0.06484(13)
C47 C 0.2034(2) 0.1633(4) 0.10771(14)
C48 C 0.2662(2) 0.2180(3) 0.13596(10)
F1 F 0.80842(12) 0.1282(2) -0.04063(6)
F2 F 0.94369(14) 0.2108(3) -0.08730(7)
F3 F 1.08021(14) 0.3555(3) -0.04889(9)
F4 F 1.07847(12) 0.4165(2) 0.03686(9)
F5 F 0.94399(13) 0.3336(2) 0.08418(7)
F6 F 0.86941(13) -0.3507(2) 0.17092(7)
F7 F 0.97659(13) -0.4494(2) 0.23559(8)
F8 F 0.99123(14) -0.3164(3) 0.31291(8)
F9 F 0.89472(15) -0.0896(3) 0.32584(6)
F10 F 0.78878(12) 0.0124(2) 0.26124(6)
F11 F 0.35895(12) -0.0012(2) 0.22280(5)
F12 F 0.19640(13) -0.0876(2) 0.24255(6)
F13 F 0.10885(12) -0.2747(2) 0.19112(8)
F14 F 0.19226(12) -0.3874(2) 0.12237(8)
F15 F 0.35305(11) -0.30181(19) 0.10318(6)
F16 F 0.38968(12) 0.42766(19) 0.06493(6)
F17 F 0.26670(16) 0.3251(2) 0.00891(6)
F18 F 0.14369(15) 0.1447(2) 0.03651(9)
F19 F 0.14212(14) 0.0750(3) 0.12164(10)
F20 F 0.26305(15) 0.1838(2) 0.17830(7)
N1 N 0.63985(14) 0.1477(2) 0.05340(7)
H11 H 0.6431 0.0744 0.0689
N2 N 0.75757(14) 0.0411(2) 0.11493(7)
N3 N 0.60717(13) -0.0792(2) 0.15569(7)
H12 H 0.6163 -0.0339 0.1324
N4 N 0.48647(14) 0.1583(2) 0.05913(7)
N5 N 0.61800(15) 0.2204(2) 0.14901(7)
H13 H 0.6585 0.1684 0.1391
O1 O 0.37068(18) 0.4589(3) 0.17860(9)
C49 C 0.6806(2) 0.7687(3) 0.07298(8)
H14 H 0.7405 0.7863 0.0695
C50 C 0.5663(2) 0.6147(4) 0.09554(11)
H15 H 0.5554 0.6171 0.1260
H16 H 0.5538 0.5245 0.0844
H17 H 0.5286 0.6802 0.0805
C51 C 0.7259(2) 0.5499(4) 0.10338(12)
H18 H 0.7835 0.5820 0.0958
H19 H 0.7139 0.4633 0.0895
H20 H 0.7247 0.5388 0.1343
N6 N 0.65898(16) 0.6487(3) 0.08910(7)
O2 O 0.62713(14) 0.8593(2) 0.06213(6)
loop_
_geom_bond_atom_site_label_1
_geom_bond_atom_site_label_2
_geom_bond_site_symmetry_1
_geom_bond_site_symmetry_2
C1 C2 1_555 1_555
C2 H1 1_555 1_555
C3 C2 1_555 1_555
H2 C3 1_555 1_555
C4 C3 1_555 1_555
C5 C4 1_555 1_555
C6 C5 1_555 1_555
C7 C6 1_555 1_555
H3 C7 1_555 1_555
C8 C7 1_555 1_555
H4 C8 1_555 1_555
C9 C8 1_555 1_555
C10 C9 1_555 1_555
C11 C10 1_555 1_555
C12 C11 1_555 1_555
H5 C12 1_555 1_555
C13 C12 1_555 1_555
H6 C13 1_555 1_555
C14 C13 1_555 1_555
C15 C14 1_555 1_555
C16 C15 1_555 1_555
C17 C16 1_555 1_555
H7 C17 1_555 1_555
C18 C17 1_555 1_555
H8 C18 1_555 1_555
C19 C16 1_555 1_555
C20 C5 1_555 1_555
C21 C20 1_555 1_555
C22 C21 1_555 1_555
C23 C22 1_555 1_555
C24 C23 1_555 1_555
C25 C20 1_555 1_555
C26 C10 1_555 1_555
C27 C26 1_555 1_555
C28 C27 1_555 1_555
C29 C28 1_555 1_555
C30 C29 1_555 1_555
C31 C26 1_555 1_555
C32 C15 1_555 1_555
C33 C32 1_555 1_555
C34 C33 1_555 1_555
C35 C34 1_555 1_555
C36 C35 1_555 1_555
C37 C32 1_555 1_555
C38 C19 1_555 1_555
C39 C38 1_555 1_555
C40 C39 1_555 1_555
H9 C40 1_555 1_555
C41 C40 1_555 1_555
H10 C41 1_555 1_555
C42 C39 1_555 1_555
C43 C42 1_555 1_555
C44 C43 1_555 1_555
C45 C44 1_555 1_555
C46 C45 1_555 1_555
C47 C46 1_555 1_555
C48 C43 1_555 1_555
F1 C21 1_555 1_555
F2 C22 1_555 1_555
F3 C23 1_555 1_555
F4 C24 1_555 1_555
F5 C25 1_555 1_555
F6 C27 1_555 1_555
F7 C28 1_555 1_555
F8 C29 1_555 1_555
F9 C30 1_555 1_555
F10 C31 1_555 1_555
F11 C33 1_555 1_555
F12 C34 1_555 1_555
F13 C35 1_555 1_555
F14 C36 1_555 1_555
F15 C37 1_555 1_555
F16 C44 1_555 1_555
F17 C45 1_555 1_555
F18 C46 1_555 1_555
F19 C47 1_555 1_555
F20 C48 1_555 1_555
N1 C1 1_555 1_555
H11 N1 1_555 1_555
N2 C6 1_555 1_555
N3 C11 1_555 1_555
H12 N3 1_555 1_555
N4 C1 1_555 1_555
N5 C38 1_555 1_555
H13 N5 1_555 1_555
O1 C42 1_555 1_555
C49 H14 1_555 1_555
C50 H15 1_555 1_555
H16 C50 1_555 1_555
H17 C50 1_555 1_555
C51 H18 1_555 1_555
H19 C51 1_555 1_555
H20 C51 1_555 1_555
N6 C49 1_555 1_555
O2 C49 1_555 1_555
C4 N1 1_555 1_555
C9 N2 1_555 1_555
C14 N3 1_555 1_555
C18 N4 1_555 1_555
C19 N4 1_555 1_555
C24 C25 1_555 1_555
C30 C31 1_555 1_555
C36 C37 1_555 1_555
C41 N5 1_555 1_555
C47 C48 1_555 1_555
C50 N6 1_555 1_555
C51 N6 1_555 1_555

#END
