
#######################################################################
#
#                 Cambridge Crystallographic Data Centre
#                                CCDC 
#
#######################################################################
#
# If this CIF has been generated from an entry in the Cambridge 
# Structural Database, then it will include bibliographic, chemical, 
# crystal, experimental, refinement or atomic coordinate data resulting 
# from the CCDC's data processing and validation procedures.
#
#######################################################################

data_BOBZEZ
_chemical_formula_moiety         'C19 H22 N2 O3'
_chemical_name_systematic        
1-Acetyl-4a-ethyl-2,3,4,4a,5,6-hexahydro-13H-indolo[1,2-i][1,8]naphthyridine-7,13(1H)-dione
_symmetry_cell_setting           monoclinic
_symmetry_space_group_name_H-M   'P 21/c'
_symmetry_Int_Tables_number      14
_space_group_name_Hall           '-P 2ybc'
loop_
_symmetry_equiv_pos_site_id
_symmetry_equiv_pos_as_xyz
1 x,y,z
2 -x,1/2+y,1/2-z
3 -x,-y,-z
4 x,1/2-y,1/2+z
_cell_length_a                   11.54889(9)
_cell_length_b                   8.77611(7)
_cell_length_c                   16.11647(13)
_cell_angle_alpha                90
_cell_angle_beta                 104.6510(8)
_cell_angle_gamma                90
_cell_volume                     1580.36
_exptl_crystal_colour            colorless
_exptl_crystal_description       prism
_cell_formula_units_Z            4
loop_
_atom_site_label
_atom_site_type_symbol
_atom_site_fract_x
_atom_site_fract_y
_atom_site_fract_z
O1 O 0.44182(7) 0.29648(9) 0.43407(5)
O2 O -0.05701(7) 0.28112(11) 0.44415(6)
O3 O 0.22716(7) 0.06620(9) 0.34560(5)
N1 N 0.27940(8) 0.07588(10) 0.48998(6)
N2 N 0.13952(7) 0.28392(10) 0.44266(6)
C1 C 0.26457(9) 0.24195(12) 0.48597(7)
C2 C 0.29750(9) 0.31385(12) 0.57730(7)
C3 C 0.42350(10) 0.26166(13) 0.62732(7)
H1 H 0.4837 0.3268 0.6104
H2 H 0.4315 0.2777 0.6893
C4 C 0.45166(11) 0.09421(14) 0.61286(8)
H3 H 0.5083 0.0897 0.5759
H4 H 0.4913 0.0473 0.6687
C5 C 0.34112(10) 0.00330(13) 0.57149(7)
H5 H 0.3639 -0.1022 0.5608
H6 H 0.2870 -0.0009 0.6103
C6 C 0.33538(9) 0.31415(12) 0.42553(7)
C7 C 0.24991(9) 0.40488(12) 0.36174(7)
C8 C 0.26913(10) 0.50055(12) 0.29799(7)
H7 H 0.3475 0.5164 0.2911
C9 C 0.17123(11) 0.57254(13) 0.24455(7)
H8 H 0.1823 0.6402 0.2012
C10 C 0.05654(11) 0.54543(13) 0.25457(7)
H9 H -0.0096 0.5946 0.2170
C11 C 0.03568(10) 0.44895(13) 0.31770(7)
H10 H -0.0430 0.4306 0.3234
C12 C 0.13502(9) 0.38022(12) 0.37228(7)
C13 C 0.04728(10) 0.25348(13) 0.47984(7)
C14 C 0.08833(10) 0.18530(14) 0.56797(7)
H11 H 0.1074 0.0763 0.5627
H12 H 0.0223 0.1913 0.5969
C15 C 0.19908(10) 0.26638(13) 0.62363(7)
H13 H 0.2364 0.1985 0.6721
H14 H 0.1720 0.3591 0.6482
C16 C 0.25177(9) -0.00222(13) 0.41411(7)
C17 C 0.24705(12) -0.17372(14) 0.41832(9)
H15 H 0.2053 -0.2140 0.3620
H16 H 0.2041 -0.2041 0.4609
H17 H 0.3287 -0.2145 0.4348
C18 C 0.29659(10) 0.48956(12) 0.56856(7)
H18 H 0.3503 0.5187 0.5321
H19 H 0.2147 0.5228 0.5389
C19 C 0.33574(11) 0.57449(13) 0.65392(7)
H20 H 0.2908 0.5358 0.6936
H21 H 0.3199 0.6836 0.6443
H22 H 0.4215 0.5584 0.6786
loop_
_geom_bond_atom_site_label_1
_geom_bond_atom_site_label_2
_geom_bond_site_symmetry_1
_geom_bond_site_symmetry_2
O1 C6 1_555 1_555
O2 C13 1_555 1_555
O3 C16 1_555 1_555
N1 C1 1_555 1_555
N2 C1 1_555 1_555
C1 C2 1_555 1_555
C2 C3 1_555 1_555
C3 H1 1_555 1_555
H2 C3 1_555 1_555
C4 C3 1_555 1_555
H3 C4 1_555 1_555
H4 C4 1_555 1_555
C5 N1 1_555 1_555
H5 C5 1_555 1_555
H6 C5 1_555 1_555
C6 C1 1_555 1_555
C7 C6 1_555 1_555
C8 C7 1_555 1_555
H7 C8 1_555 1_555
C9 C8 1_555 1_555
H8 C9 1_555 1_555
C10 C9 1_555 1_555
H9 C10 1_555 1_555
C11 C10 1_555 1_555
H10 C11 1_555 1_555
C12 N2 1_555 1_555
C13 N2 1_555 1_555
C14 C13 1_555 1_555
H11 C14 1_555 1_555
H12 C14 1_555 1_555
C15 C2 1_555 1_555
H13 C15 1_555 1_555
H14 C15 1_555 1_555
C16 N1 1_555 1_555
C17 C16 1_555 1_555
H15 C17 1_555 1_555
H16 C17 1_555 1_555
H17 C17 1_555 1_555
C18 C2 1_555 1_555
H18 C18 1_555 1_555
H19 C18 1_555 1_555
C19 C18 1_555 1_555
H20 C19 1_555 1_555
H21 C19 1_555 1_555
H22 C19 1_555 1_555
C4 C5 1_555 1_555
C7 C12 1_555 1_555
C11 C12 1_555 1_555
C14 C15 1_555 1_555

#END
