
#######################################################################
#
#                 Cambridge Crystallographic Data Centre
#                                CCDC 
#
#######################################################################
#
# If this CIF has been generated from an entry in the Cambridge 
# Structural Database, then it will include bibliographic, chemical, 
# crystal, experimental, refinement or atomic coordinate data resulting 
# from the CCDC's data processing and validation procedures.
#
#######################################################################

data_BOCBAY
_chemical_formula_moiety         'C54 H72 N4 O4 P2'
_chemical_name_systematic        
'1,2-bis(1,3-bis(2,6-Di-isopropylphenyl)-1H-imidazol-3-ium-2-yl)diphosphane-1,2-diolate 1,2-dioxide'
_symmetry_cell_setting           monoclinic
_symmetry_space_group_name_H-M   'P 21/n'
_symmetry_Int_Tables_number      14
_space_group_name_Hall           '-P 2yn'
loop_
_symmetry_equiv_pos_site_id
_symmetry_equiv_pos_as_xyz
1 x,y,z
2 1/2-x,1/2+y,1/2-z
3 -x,-y,-z
4 1/2+x,1/2-y,1/2+z
_cell_length_a                   13.842(5)
_cell_length_b                   12.699(5)
_cell_length_c                   15.101(6)
_cell_angle_alpha                90
_cell_angle_beta                 94.131(17)
_cell_angle_gamma                90
_cell_volume                     2647.55
_exptl_crystal_colour            colorless
_exptl_crystal_description       plate
_cell_formula_units_Z            2
loop_
_atom_site_label
_atom_site_type_symbol
_atom_site_fract_x
_atom_site_fract_y
_atom_site_fract_z
P1 P 0.04501(7) 0.49490(8) 0.06730(6)
O1 O 0.1046(2) 0.5902(2) 0.07679(18)
O2 O 0.0803(2) 0.3866(2) 0.08166(18)
N1 N -0.12577(18) 0.45511(19) 0.16926(16)
N2 N -0.05356(19) 0.6016(2) 0.20398(17)
C1 C -0.0505(2) 0.5166(2) 0.1493(2)
C2 C -0.1747(2) 0.5014(3) 0.2353(2)
H1 H -0.2286 0.4744 0.2608
C3 C -0.1299(2) 0.5925(3) 0.2559(2)
H2 H -0.1476 0.6409 0.2981
C4 C 0.0152(3) 0.6890(3) 0.2186(3)
C5 C 0.0850(3) 0.6753(5) 0.2885(4)
C6 C 0.1463(5) 0.7618(8) 0.3088(5)
H3 H 0.1945 0.7577 0.3548
C7 C 0.1338(7) 0.8515(8) 0.2600(7)
H4 H 0.1748 0.9081 0.2738
C8 C 0.0638(6) 0.8628(5) 0.1911(5)
H5 H 0.0586 0.9261 0.1602
C9 C 0.0001(4) 0.7799(3) 0.1671(4)
C10 C -0.0782(4) 0.7875(3) 0.0944(3)
H6 H -0.0925 0.7165 0.0718
C11 C -0.0517(6) 0.8567(4) 0.0169(4)
H7 H 0.0054 0.8292 -0.0074
H8 H -0.0396 0.9273 0.0375
H9 H -0.1043 0.8569 -0.0282
C12 C -0.1693(5) 0.8317(5) 0.1314(4)
H10 H -0.1873 0.7884 0.1797
H11 H -0.2211 0.8324 0.0855
H12 H -0.1572 0.9022 0.1523
C13 C 0.0985(4) 0.5766(6) 0.3413(3)
H13 H 0.0458 0.5289 0.3209
C14 C 0.1932(6) 0.5206(7) 0.3248(5)
H14 H 0.1960 0.5082 0.2624
H15 H 0.1961 0.4546 0.3559
H16 H 0.2469 0.5639 0.3459
C15 C 0.0902(5) 0.5935(7) 0.4418(4)
H17 H 0.0297 0.6272 0.4512
H18 H 0.1426 0.6372 0.4652
H19 H 0.0932 0.5267 0.4716
C16 C -0.1524(2) 0.3498(2) 0.1356(2)
C17 C -0.0995(3) 0.2649(3) 0.1725(2)
C18 C -0.1307(4) 0.1652(3) 0.1417(3)
H20 H -0.0982 0.1055 0.1637
C19 C -0.2067(4) 0.1537(3) 0.0809(3)
H21 H -0.2243 0.0865 0.0612
C20 C -0.2585(3) 0.2388(3) 0.0476(3)
H22 H -0.3107 0.2282 0.0063
C21 C -0.2338(3) 0.3413(3) 0.0750(2)
C22 C -0.2957(3) 0.4342(3) 0.0439(3)
H23 H -0.2579 0.4987 0.0551
C23 C -0.3288(3) 0.4300(4) -0.0555(3)
H24 H -0.2731 0.4278 -0.0899
H25 H -0.3664 0.4916 -0.0714
H26 H -0.3674 0.3682 -0.0674
C24 C -0.3868(3) 0.4400(5) 0.0969(3)
H27 H -0.3678 0.4421 0.1593
H28 H -0.4265 0.3790 0.0841
H29 H -0.4229 0.5023 0.0803
C25 C -0.0176(3) 0.2765(3) 0.2437(3)
H30 H 0.0086 0.3477 0.2383
C26 C 0.0658(4) 0.2000(4) 0.2347(3)
H31 H 0.0896 0.2071 0.1769
H32 H 0.0435 0.1292 0.2425
H33 H 0.1169 0.2154 0.2792
C27 C -0.0558(4) 0.2680(5) 0.3364(3)
H34 H -0.1075 0.3175 0.3415
H35 H -0.0043 0.2832 0.3806
H36 H -0.0793 0.1980 0.3452
P1B P -0.04501(7) 0.50510(8) -0.06730(6)
O1B O -0.1046(2) 0.4098(2) -0.07679(18)
O2B O -0.0803(2) 0.6134(2) -0.08166(18)
N1B N 0.12577(18) 0.54489(19) -0.16926(16)
N2B N 0.05356(19) 0.3984(2) -0.20398(17)
C1B C 0.0505(2) 0.4834(2) -0.1493(2)
C2B C 0.1747(2) 0.4986(3) -0.2353(2)
H1B H 0.2286 0.5256 -0.2608
C3B C 0.1299(2) 0.4075(3) -0.2559(2)
H2B H 0.1476 0.3591 -0.2981
C4B C -0.0152(3) 0.3110(3) -0.2186(3)
C5B C -0.0850(3) 0.3247(5) -0.2885(4)
C6B C -0.1463(5) 0.2382(8) -0.3088(5)
H3B H -0.1945 0.2423 -0.3548
C7B C -0.1338(7) 0.1485(8) -0.2600(7)
H4B H -0.1748 0.0919 -0.2738
C8B C -0.0638(6) 0.1372(5) -0.1911(5)
H5B H -0.0586 0.0739 -0.1602
C9B C -0.0001(4) 0.2201(3) -0.1671(4)
C10B C 0.0782(4) 0.2125(3) -0.0944(3)
H6B H 0.0925 0.2835 -0.0718
C11B C 0.0517(6) 0.1433(4) -0.0169(4)
H7B H -0.0054 0.1708 0.0074
H8B H 0.0396 0.0727 -0.0375
H9B H 0.1043 0.1431 0.0282
C12B C 0.1693(5) 0.1683(5) -0.1314(4)
H10B H 0.1873 0.2116 -0.1797
H11B H 0.2211 0.1676 -0.0855
H12B H 0.1572 0.0978 -0.1523
C13B C -0.0985(4) 0.4234(6) -0.3413(3)
H13B H -0.0458 0.4711 -0.3209
C14B C -0.1932(6) 0.4794(7) -0.3248(5)
H14B H -0.1960 0.4918 -0.2624
H15B H -0.1961 0.5454 -0.3559
H16B H -0.2469 0.4361 -0.3459
C15B C -0.0902(5) 0.4065(7) -0.4418(4)
H17B H -0.0297 0.3728 -0.4512
H18B H -0.1426 0.3628 -0.4652
H19B H -0.0932 0.4733 -0.4716
C16B C 0.1524(2) 0.6502(2) -0.1356(2)
C17B C 0.0995(3) 0.7351(3) -0.1725(2)
C18B C 0.1307(4) 0.8348(3) -0.1417(3)
H20B H 0.0982 0.8945 -0.1637
C19B C 0.2067(4) 0.8463(3) -0.0809(3)
H21B H 0.2243 0.9135 -0.0612
C20B C 0.2585(3) 0.7612(3) -0.0476(3)
H22B H 0.3107 0.7718 -0.0063
C21B C 0.2338(3) 0.6587(3) -0.0750(2)
C22B C 0.2957(3) 0.5658(3) -0.0439(3)
H23B H 0.2579 0.5013 -0.0551
C23B C 0.3288(3) 0.5700(4) 0.0555(3)
H24B H 0.2731 0.5722 0.0899
H25B H 0.3664 0.5084 0.0714
H26B H 0.3674 0.6318 0.0674
C24B C 0.3868(3) 0.5600(5) -0.0969(3)
H27B H 0.3678 0.5579 -0.1593
H28B H 0.4265 0.6210 -0.0841
H29B H 0.4229 0.4977 -0.0803
C25B C 0.0176(3) 0.7235(3) -0.2437(3)
H30B H -0.0086 0.6523 -0.2383
C26B C -0.0658(4) 0.8000(4) -0.2347(3)
H31B H -0.0896 0.7929 -0.1769
H32B H -0.0435 0.8708 -0.2425
H33B H -0.1169 0.7846 -0.2792
C27B C 0.0558(4) 0.7320(5) -0.3364(3)
H34B H 0.1075 0.6825 -0.3415
H35B H 0.0043 0.7168 -0.3806
H36B H 0.0793 0.8020 -0.3452
loop_
_geom_bond_atom_site_label_1
_geom_bond_atom_site_label_2
_geom_bond_site_symmetry_1
_geom_bond_site_symmetry_2
P1 O1 1_555 1_555
O2 P1 1_555 1_555
N1 C1 1_555 1_555
N2 C1 1_555 1_555
C1 P1 1_555 1_555
C2 N1 1_555 1_555
H1 C2 1_555 1_555
C3 N2 1_555 1_555
H2 C3 1_555 1_555
C4 N2 1_555 1_555
C5 C4 1_555 1_555
C6 C5 1_555 1_555
H3 C6 1_555 1_555
C7 C6 1_555 1_555
H4 C7 1_555 1_555
C8 C7 1_555 1_555
H5 C8 1_555 1_555
C9 C4 1_555 1_555
C10 C9 1_555 1_555
H6 C10 1_555 1_555
C11 C10 1_555 1_555
H7 C11 1_555 1_555
H8 C11 1_555 1_555
H9 C11 1_555 1_555
C12 C10 1_555 1_555
H10 C12 1_555 1_555
H11 C12 1_555 1_555
H12 C12 1_555 1_555
C13 C5 1_555 1_555
H13 C13 1_555 1_555
C14 C13 1_555 1_555
H14 C14 1_555 1_555
H15 C14 1_555 1_555
H16 C14 1_555 1_555
C15 C13 1_555 1_555
H17 C15 1_555 1_555
H18 C15 1_555 1_555
H19 C15 1_555 1_555
C16 N1 1_555 1_555
C17 C16 1_555 1_555
C18 C17 1_555 1_555
H20 C18 1_555 1_555
C19 C18 1_555 1_555
H21 C19 1_555 1_555
C20 C19 1_555 1_555
H22 C20 1_555 1_555
C21 C16 1_555 1_555
C22 C21 1_555 1_555
H23 C22 1_555 1_555
C23 C22 1_555 1_555
H24 C23 1_555 1_555
H25 C23 1_555 1_555
H26 C23 1_555 1_555
C24 C22 1_555 1_555
H27 C24 1_555 1_555
H28 C24 1_555 1_555
H29 C24 1_555 1_555
C25 C17 1_555 1_555
H30 C25 1_555 1_555
C26 C25 1_555 1_555
H31 C26 1_555 1_555
H32 C26 1_555 1_555
H33 C26 1_555 1_555
C27 C25 1_555 1_555
H34 C27 1_555 1_555
H35 C27 1_555 1_555
H36 C27 1_555 1_555
P1B P1 1_555 1_555
O1B P1B 1_555 1_555
O2B P1B 1_555 1_555
N1B C1B 1_555 1_555
N2B C1B 1_555 1_555
C1B P1B 1_555 1_555
C2B N1B 1_555 1_555
H1B C2B 1_555 1_555
C3B N2B 1_555 1_555
H2B C3B 1_555 1_555
C4B N2B 1_555 1_555
C5B C4B 1_555 1_555
C6B C5B 1_555 1_555
H3B C6B 1_555 1_555
C7B C6B 1_555 1_555
H4B C7B 1_555 1_555
C8B C7B 1_555 1_555
H5B C8B 1_555 1_555
C9B C4B 1_555 1_555
C10B C9B 1_555 1_555
H6B C10B 1_555 1_555
C11B C10B 1_555 1_555
H7B C11B 1_555 1_555
H8B C11B 1_555 1_555
H9B C11B 1_555 1_555
C12B C10B 1_555 1_555
H10B C12B 1_555 1_555
H11B C12B 1_555 1_555
H12B C12B 1_555 1_555
C13B C5B 1_555 1_555
H13B C13B 1_555 1_555
C14B C13B 1_555 1_555
H14B C14B 1_555 1_555
H15B C14B 1_555 1_555
H16B C14B 1_555 1_555
C15B C13B 1_555 1_555
H17B C15B 1_555 1_555
H18B C15B 1_555 1_555
H19B C15B 1_555 1_555
C16B N1B 1_555 1_555
C17B C16B 1_555 1_555
C18B C17B 1_555 1_555
H20B C18B 1_555 1_555
C19B C18B 1_555 1_555
H21B C19B 1_555 1_555
C20B C19B 1_555 1_555
H22B C20B 1_555 1_555
C21B C16B 1_555 1_555
C22B C21B 1_555 1_555
H23B C22B 1_555 1_555
C23B C22B 1_555 1_555
H24B C23B 1_555 1_555
H25B C23B 1_555 1_555
H26B C23B 1_555 1_555
C24B C22B 1_555 1_555
H27B C24B 1_555 1_555
H28B C24B 1_555 1_555
H29B C24B 1_555 1_555
C25B C17B 1_555 1_555
H30B C25B 1_555 1_555
C26B C25B 1_555 1_555
H31B C26B 1_555 1_555
H32B C26B 1_555 1_555
H33B C26B 1_555 1_555
C27B C25B 1_555 1_555
H34B C27B 1_555 1_555
H35B C27B 1_555 1_555
H36B C27B 1_555 1_555
C2 C3 1_555 1_555
C8 C9 1_555 1_555
C20 C21 1_555 1_555
C2B C3B 1_555 1_555
C8B C9B 1_555 1_555
C20B C21B 1_555 1_555

#END
