
#######################################################################
#
#                 Cambridge Crystallographic Data Centre
#                                CCDC 
#
#######################################################################
#
# If this CIF has been generated from an entry in the Cambridge 
# Structural Database, then it will include bibliographic, chemical, 
# crystal, experimental, refinement or atomic coordinate data resulting 
# from the CCDC's data processing and validation procedures.
#
#######################################################################

data_BOCBAW
_chemical_formula_moiety         'C72 H66 N6 O6,C1 H1 Cl3'
_chemical_name_systematic        
'1,4,13,16,25,28-Hexabenzyl-1,4,13,16,25,28-hexa-aza(6.6.6)cyclophane-5,12,17,24,29,36-hexaone chloroform clathrate'
_symmetry_cell_setting           rhombohedral
_symmetry_space_group_name_H-M   'R -3'
_symmetry_Int_Tables_number      148
_space_group_name_Hall           '-P 3*'
loop_
_symmetry_equiv_pos_site_id
_symmetry_equiv_pos_as_xyz
1 x,y,z
2 z,x,y
3 y,z,x
4 -x,-y,-z
5 -z,-x,-y
6 -y,-z,-x
_cell_length_a                   15.060(3)
_cell_length_b                   15.060(3)
_cell_length_c                   15.060(3)
_cell_angle_alpha                96.80(3)
_cell_angle_beta                 96.80(3)
_cell_angle_gamma                96.80(3)
_cell_volume                     3337.26
_chemical_melting_point          255-7deg.C
_cell_formula_units_Z            2
loop_
_atom_site_label
_atom_site_type_symbol
_atom_site_fract_x
_atom_site_fract_y
_atom_site_fract_z
N1 N -0.01140 0.47260 0.27270
C1 C -0.00250 0.56280 0.24610
C2 C 0.02340 0.55970 0.14550
N2 N 0.11230 0.53590 0.13710
C3 C 0.10530 0.44920 0.09370
O1 O 0.04470 0.39490 0.06850
C4 C 0.19930 0.42260 0.07890
C5 C 0.22010 0.34180 0.09240
C6 C 0.29900 0.31290 0.08120
C7 C 0.36360 0.36880 0.04800
C8 C 0.34320 0.44980 0.02650
C9 C 0.26250 0.47910 0.03590
C10 C 0.04780 0.45770 0.34180
O2 O 0.10100 0.51890 0.38840
C11 C -0.09050 0.41140 0.23620
C12 C -0.17610 0.45150 0.27220
C13 C -0.17180 0.48900 0.36140
C14 C -0.24470 0.52510 0.39380
C15 C -0.32010 0.52150 0.32980
C16 C -0.32450 0.48210 0.24660
C17 C -0.25310 0.44850 0.21210
C18 C 0.18470 0.59770 0.17980
C19 C 0.20560 0.68630 0.14270
C20 C 0.25910 0.75490 0.19230
C21 C 0.27930 0.83800 0.15790
C22 C 0.23480 0.84430 0.08210
C23 C 0.18330 0.77970 0.02910
C24 C 0.16430 0.69290 0.06120
C10B C 0.45770 0.34180 0.04780
C7A C 0.04800 0.36360 0.36880
N1B N 0.47260 0.27270 -0.01140
O2B O 0.51890 0.38840 0.10100
C6A C 0.08120 0.29900 0.31290
C8A C 0.02650 0.34320 0.44980
C1B C 0.56280 0.24610 -0.00250
C11B C 0.41140 0.23620 -0.09050
C5A C 0.09240 0.22010 0.34180
C9A C 0.03590 0.26250 0.47910
C2B C 0.55970 0.14550 0.02340
C12B C 0.45150 0.27220 -0.17610
C4A C 0.07890 0.19930 0.42260
N2B N 0.53590 0.13710 0.11230
C13B C 0.48900 0.36140 -0.17180
C17B C 0.44850 0.21210 -0.25310
C3A C 0.09370 0.10530 0.44920
C3B C 0.44920 0.09370 0.10530
C18B C 0.59770 0.17980 0.18470
C14B C 0.52510 0.39380 -0.24470
C16B C 0.48210 0.24660 -0.32450
N2A N 0.13710 0.11230 0.53590
O1A O 0.06850 0.04470 0.39490
O1B O 0.39490 0.06850 0.04470
C4B C 0.42260 0.07890 0.19930
C19B C 0.68630 0.14270 0.20560
C15B C 0.52150 0.32980 -0.32010
C2A C 0.14550 0.02340 0.55970
C18A C 0.17980 0.18470 0.59770
C5B C 0.34180 0.09240 0.22010
C9B C 0.47910 0.03590 0.26250
C20B C 0.75490 0.19230 0.25910
C24B C 0.69290 0.06120 0.16430
C1A C 0.24610 -0.00250 0.56280
C19A C 0.14270 0.20560 0.68630
C6B C 0.31290 0.08120 0.29900
C8B C 0.44980 0.02650 0.34320
C21B C 0.83800 0.15790 0.27930
C23B C 0.77970 0.02910 0.18330
N1A N 0.27270 -0.01140 0.47260
C20A C 0.19230 0.25910 0.75490
C24A C 0.06120 0.16430 0.69290
C7B C 0.36880 0.04800 0.36360
C22B C 0.84430 0.08210 0.23480
C10A C 0.34180 0.04780 0.45770
C11A C 0.23620 -0.09050 0.41140
C21A C 0.15790 0.27930 0.83800
C23A C 0.02910 0.18330 0.77970
O2A O 0.38840 0.10100 0.51890
C12A C 0.27220 -0.17610 0.45150
C22A C 0.08210 0.23480 0.84430
C13A C 0.36140 -0.17180 0.48900
C17A C 0.21210 -0.25310 0.44850
C14A C 0.39380 -0.24470 0.52510
C16A C 0.24660 -0.32450 0.48210
C15A C 0.32980 -0.32010 0.52150
Cl1 Cl 0.44570 0.35950 0.30610
C25 C 0.33910 0.33910 0.33910
Cl1A Cl 0.30610 0.44570 0.35950
Cl1B Cl 0.35950 0.30610 0.44570
loop_
_geom_bond_atom_site_label_1
_geom_bond_atom_site_label_2
_geom_bond_site_symmetry_1
_geom_bond_site_symmetry_2
N1 C1 1_555 1_555
C1 C2 1_555 1_555
C2 N2 1_555 1_555
N2 C3 1_555 1_555
C3 O1 1_555 1_555
C4 C3 1_555 1_555
C5 C4 1_555 1_555
C6 C5 1_555 1_555
C7 C6 1_555 1_555
C8 C7 1_555 1_555
C9 C4 1_555 1_555
C10 N1 1_555 1_555
O2 C10 1_555 1_555
C11 N1 1_555 1_555
C12 C11 1_555 1_555
C13 C12 1_555 1_555
C14 C13 1_555 1_555
C15 C14 1_555 1_555
C16 C15 1_555 1_555
C17 C12 1_555 1_555
C18 N2 1_555 1_555
C19 C18 1_555 1_555
C20 C19 1_555 1_555
C21 C20 1_555 1_555
C22 C21 1_555 1_555
C23 C22 1_555 1_555
C24 C19 1_555 1_555
Cl1 C25 1_555 1_555
C25 Cl1A 1_555 1_555
C10B C7 1_555 1_555
C7A C10 1_555 1_555
N1B C10B 1_555 1_555
O2B C10B 1_555 1_555
C6A C7A 1_555 1_555
C8A C7A 1_555 1_555
C1B N1B 1_555 1_555
C11B N1B 1_555 1_555
C5A C6A 1_555 1_555
C9A C8A 1_555 1_555
C2B C1B 1_555 1_555
C12B C11B 1_555 1_555
C4A C5A 1_555 1_555
N2B C2B 1_555 1_555
C13B C12B 1_555 1_555
C17B C12B 1_555 1_555
C3A C4A 1_555 1_555
C3B N2B 1_555 1_555
C18B N2B 1_555 1_555
C14B C13B 1_555 1_555
C16B C17B 1_555 1_555
N2A C3A 1_555 1_555
O1A C3A 1_555 1_555
O1B C3B 1_555 1_555
C4B C3B 1_555 1_555
C19B C18B 1_555 1_555
C15B C14B 1_555 1_555
C2A N2A 1_555 1_555
C18A N2A 1_555 1_555
C5B C4B 1_555 1_555
C9B C4B 1_555 1_555
C20B C19B 1_555 1_555
C24B C19B 1_555 1_555
C1A C2A 1_555 1_555
C19A C18A 1_555 1_555
C6B C5B 1_555 1_555
C8B C9B 1_555 1_555
C21B C20B 1_555 1_555
C23B C24B 1_555 1_555
N1A C1A 1_555 1_555
C20A C19A 1_555 1_555
C24A C19A 1_555 1_555
C7B C6B 1_555 1_555
C22B C21B 1_555 1_555
C10A N1A 1_555 1_555
C11A N1A 1_555 1_555
C21A C20A 1_555 1_555
C23A C24A 1_555 1_555
O2A C10A 1_555 1_555
C12A C11A 1_555 1_555
C22A C21A 1_555 1_555
C13A C12A 1_555 1_555
C17A C12A 1_555 1_555
C14A C13A 1_555 1_555
C16A C17A 1_555 1_555
C15A C14A 1_555 1_555
Cl1B C25 1_555 1_555
C8 C9 1_555 1_555
C16 C17 1_555 1_555
C23 C24 1_555 1_555
C9A C4A 1_555 1_555
C16B C15B 1_555 1_555
C8B C7B 1_555 1_555
C23B C22B 1_555 1_555
C7B C10A 1_555 1_555
C23A C22A 1_555 1_555
C16A C15A 1_555 1_555

#END
