
#######################################################################
#
#                 Cambridge Crystallographic Data Centre
#                                CCDC 
#
#######################################################################
#
# If this CIF has been generated from an entry in the Cambridge 
# Structural Database, then it will include bibliographic, chemical, 
# crystal, experimental, refinement or atomic coordinate data resulting 
# from the CCDC's data processing and validation procedures.
#
#######################################################################

data_BOCGIL
_chemical_formula_moiety         'C19 H36 B10 Si1'
_chemical_name_systematic        
E-1,2-(1-phenyl-1-(trimethylsilyl)oct-1-ene-2,4-diyl)-1,2-dicarba-dodecaborane
_symmetry_cell_setting           orthorhombic
_symmetry_space_group_name_H-M   'P 21 21 21'
_symmetry_Int_Tables_number      19
_space_group_name_Hall           'P 2ac 2ab'
loop_
_symmetry_equiv_pos_site_id
_symmetry_equiv_pos_as_xyz
1 x,y,z
2 1/2+x,1/2-y,-z
3 -x,1/2+y,1/2-z
4 1/2-x,-y,1/2+z
_cell_length_a                   8.7189(8)
_cell_length_b                   10.0982(9)
_cell_length_c                   27.516(3)
_cell_angle_alpha                90
_cell_angle_beta                 90
_cell_angle_gamma                90
_cell_volume                     2422.65
_exptl_crystal_colour            colorless
_exptl_crystal_description       PRISM
_cell_formula_units_Z            4
loop_
_atom_site_label
_atom_site_type_symbol
_atom_site_fract_x
_atom_site_fract_y
_atom_site_fract_z
Si1 Si -0.17206(5) 0.53018(4) 0.153556(16)
B1 B 0.1607(2) 0.10029(18) 0.15674(7)
H1 H 0.0763 0.0890 0.1871
B2 B 0.3466(2) 0.03303(19) 0.15941(7)
H2 H 0.3877 -0.0239 0.1918
B3 B 0.4699(2) 0.1396(2) 0.12566(7)
H3 H 0.5931 0.1533 0.1360
B4 B 0.3598(2) 0.27315(19) 0.10198(8)
H4 H 0.4074 0.3751 0.0967
B5 B 0.3200(2) 0.20883(19) 0.16121(7)
H5 H 0.3418 0.2690 0.1947
B6 B 0.2249(2) 0.20289(19) 0.06085(7)
H6 H 0.1826 0.2590 0.0284
B7 B 0.4104(2) 0.1367(2) 0.06357(7)
H7 H 0.4935 0.1484 0.0328
B8 B 0.4030(2) -0.01066(19) 0.09922(7)
H8 H 0.4818 -0.0960 0.0920
B9 B 0.2098(2) -0.03373(19) 0.11845(7)
H9 H 0.1580 -0.1342 0.1238
B10 B 0.2484(2) 0.0283(2) 0.05936(6)
H10 H 0.2222 -0.0314 0.0261
C1 C 0.17591(18) 0.23964(14) 0.12063(5)
C2 C 0.11423(19) 0.09943(15) 0.09568(6)
C3 C -0.0598(2) 0.11377(16) 0.08802(6)
H11 H -0.1124 0.0681 0.1156
C4 C -0.09025(19) 0.26289(16) 0.09302(6)
H12 H -0.0929 0.3042 0.0604
H13 H -0.1912 0.2772 0.1087
C5 C 0.03560(18) 0.32757(15) 0.12361(6)
C6 C 0.01954(18) 0.44034(14) 0.14872(6)
C7 C 0.14532(18) 0.50077(14) 0.17826(6)
C8 C 0.1496(2) 0.48048(18) 0.22858(6)
H14 H 0.0767 0.4236 0.2435
C9 C 0.2600(2) 0.5431(2) 0.25681(7)
H15 H 0.2635 0.5270 0.2908
C10 C 0.3648(2) 0.62871(19) 0.23591(7)
H16 H 0.4394 0.6717 0.2555
C11 C 0.3605(2) 0.65140(18) 0.18637(8)
H17 H 0.4318 0.7106 0.1719
C12 C 0.2515(2) 0.58743(16) 0.15758(6)
H18 H 0.2496 0.6031 0.1235
C13 C -0.1218(2) 0.05554(17) 0.04107(7)
H19 H -0.0548 0.0842 0.0140
H20 H -0.2251 0.0929 0.0351
C14 C -0.1334(2) -0.09463(18) 0.04006(7)
H21 H -0.2052 -0.1234 0.0659
H22 H -0.0314 -0.1325 0.0476
C15 C -0.1880(2) -0.15041(18) -0.00853(7)
H23 H -0.1174 -0.1202 -0.0344
H24 H -0.1826 -0.2483 -0.0073
C16 C -0.3509(2) -0.1096(2) -0.02187(7)
H25 H -0.4199 -0.1289 0.0053
H26 H -0.3843 -0.1590 -0.0506
H27 H -0.3534 -0.0145 -0.0289
C17 C -0.2937(2) 0.4293(2) 0.19500(7)
H28 H -0.2442 0.4229 0.2269
H29 H -0.3068 0.3403 0.1814
H30 H -0.3943 0.4715 0.1986
C18 C -0.2656(2) 0.55577(19) 0.09310(7)
H31 H -0.3143 0.4731 0.0826
H32 H -0.1881 0.5823 0.0692
H33 H -0.3435 0.6254 0.0958
C19 C -0.1382(3) 0.69666(19) 0.18104(8)
H34 H -0.2365 0.7421 0.1854
H35 H -0.0724 0.7490 0.1595
H36 H -0.0878 0.6862 0.2126
loop_
_geom_bond_atom_site_label_1
_geom_bond_atom_site_label_2
_geom_bond_site_symmetry_1
_geom_bond_site_symmetry_2
Si1 C6 1_555 1_555
B1 H1 1_555 1_555
B2 B1 1_555 1_555
H2 B2 1_555 1_555
B3 B2 1_555 1_555
H3 B3 1_555 1_555
B4 B3 1_555 1_555
H4 B4 1_555 1_555
B5 B1 1_555 1_555
H5 B5 1_555 1_555
B6 B4 1_555 1_555
H6 B6 1_555 1_555
B7 B3 1_555 1_555
H7 B7 1_555 1_555
B8 B2 1_555 1_555
H8 B8 1_555 1_555
B9 B1 1_555 1_555
H9 B9 1_555 1_555
B10 B6 1_555 1_555
H10 B10 1_555 1_555
C1 B1 1_555 1_555
C2 B1 1_555 1_555
C3 C2 1_555 1_555
H11 C3 1_555 1_555
C4 C3 1_555 1_555
H12 C4 1_555 1_555
H13 C4 1_555 1_555
C5 C1 1_555 1_555
C6 C5 1_555 1_555
C7 C6 1_555 1_555
C8 C7 1_555 1_555
H14 C8 1_555 1_555
C9 C8 1_555 1_555
H15 C9 1_555 1_555
C10 C9 1_555 1_555
H16 C10 1_555 1_555
C11 C10 1_555 1_555
H17 C11 1_555 1_555
C12 C7 1_555 1_555
H18 C12 1_555 1_555
C13 C3 1_555 1_555
H19 C13 1_555 1_555
H20 C13 1_555 1_555
C14 C13 1_555 1_555
H21 C14 1_555 1_555
H22 C14 1_555 1_555
C15 C14 1_555 1_555
H23 C15 1_555 1_555
H24 C15 1_555 1_555
C16 C15 1_555 1_555
H25 C16 1_555 1_555
H26 C16 1_555 1_555
H27 C16 1_555 1_555
C17 Si1 1_555 1_555
H28 C17 1_555 1_555
H29 C17 1_555 1_555
H30 C17 1_555 1_555
C18 Si1 1_555 1_555
H31 C18 1_555 1_555
H32 C18 1_555 1_555
H33 C18 1_555 1_555
C19 Si1 1_555 1_555
H34 C19 1_555 1_555
H35 C19 1_555 1_555
H36 C19 1_555 1_555
B2 B5 1_555 1_555
B2 B9 1_555 1_555
B3 B5 1_555 1_555
B3 B8 1_555 1_555
B4 B5 1_555 1_555
B4 B7 1_555 1_555
B4 C1 1_555 1_555
B5 C1 1_555 1_555
B6 B7 1_555 1_555
B6 C1 1_555 1_555
B6 C2 1_555 1_555
B7 B8 1_555 1_555
B7 B10 1_555 1_555
B8 B9 1_555 1_555
B8 B10 1_555 1_555
B9 B10 1_555 1_555
B9 C2 1_555 1_555
B10 C2 1_555 1_555
C1 C2 1_555 1_555
C4 C5 1_555 1_555
C11 C12 1_555 1_555

#END
