
#######################################################################
#
#                 Cambridge Crystallographic Data Centre
#                                CCDC 
#
#######################################################################
#
# If this CIF has been generated from an entry in the Cambridge 
# Structural Database, then it will include bibliographic, chemical, 
# crystal, experimental, refinement or atomic coordinate data resulting 
# from the CCDC's data processing and validation procedures.
#
#######################################################################

data_BOCHME
_chemical_formula_moiety         'C25 H38 Br2 O3'
_chemical_name_systematic        
'11\b,12\a-Dibromo-3\a,9-oxidocholanic acid methyl ester'
_symmetry_cell_setting           orthorhombic
_symmetry_space_group_name_H-M   'P 21 21 21'
_symmetry_Int_Tables_number      19
_space_group_name_Hall           'P 2ac 2ab'
loop_
_symmetry_equiv_pos_site_id
_symmetry_equiv_pos_as_xyz
1 x,y,z
2 1/2+x,1/2-y,-z
3 -x,1/2+y,1/2-z
4 1/2-x,-y,1/2+z
_cell_length_a                   14.472(3)
_cell_length_b                   20.587(5)
_cell_length_c                   7.990(1)
_cell_angle_alpha                90
_cell_angle_beta                 90
_cell_angle_gamma                90
_cell_volume                     2380.5
_cell_formula_units_Z            4
loop_
_atom_site_label
_atom_site_type_symbol
_atom_site_fract_x
_atom_site_fract_y
_atom_site_fract_z
Br1 Br 0.36720 0.11590 0.12130
Br2 Br 0.08040 0.19810 0.08580
C1 C 0.40000 0.27980 0.28450
C2 C 0.37530 0.23210 0.42520
C3 C 0.26500 0.17650 0.18450
C4 C 0.17510 0.13010 0.15080
C5 C 0.14170 0.09170 0.30230
C6 C 0.14170 0.13370 0.46720
C7 C 0.09400 0.08700 0.59450
C8 C 0.01520 0.04920 0.48660
C9 C 0.03490 0.06580 0.29970
C10 C 0.20300 0.02670 0.31100
C11 C 0.45080 0.18050 0.46660
C12 C 0.32200 0.32990 0.23960
C13 C 0.01190 0.00890 0.18440
C14 C 0.03850 0.01820 -0.00150
C15 C -0.09770 0.00020 0.18890
C16 C -0.14570 0.05600 0.10050
C17 C -0.24960 0.04780 0.12900
C18 C -0.39520 0.10960 0.09920
C19 C 0.24790 0.32280 0.36850
C20 C 0.28480 0.33120 0.53880
C21 C 0.34950 0.27850 0.58940
C22 C 0.31560 0.22960 0.71980
C23 C 0.22850 0.19180 0.68440
C24 C 0.24250 0.15420 0.52190
C25 C 0.27400 0.20360 0.37420
O1 O 0.20530 0.25620 0.35980
O2 O -0.29460 0.00580 0.20130
O3 O -0.29090 0.10380 0.08240
loop_
_geom_bond_atom_site_label_1
_geom_bond_atom_site_label_2
_geom_bond_site_symmetry_1
_geom_bond_site_symmetry_2
Br1 C3 1_555 1_555
Br2 C4 1_555 1_555
C1 C2 1_555 1_555
C2 C11 1_555 1_555
C3 C4 1_555 1_555
C4 C5 1_555 1_555
C5 C6 1_555 1_555
C6 C7 1_555 1_555
C7 C8 1_555 1_555
C8 C9 1_555 1_555
C9 C5 1_555 1_555
C10 C5 1_555 1_555
C12 C1 1_555 1_555
C13 C9 1_555 1_555
C14 C13 1_555 1_555
C15 C13 1_555 1_555
C16 C15 1_555 1_555
C17 C16 1_555 1_555
C18 O3 1_555 1_555
C19 C12 1_555 1_555
C20 C19 1_555 1_555
C21 C2 1_555 1_555
C22 C21 1_555 1_555
C23 C22 1_555 1_555
C24 C6 1_555 1_555
C25 C2 1_555 1_555
O1 C19 1_555 1_555
O2 C17 1_555 1_555
O3 C17 1_555 1_555
C3 C25 1_555 1_555
C20 C21 1_555 1_555
C23 C24 1_555 1_555
C24 C25 1_555 1_555
C25 O1 1_555 1_555

#END
