
#######################################################################
#
#                 Cambridge Crystallographic Data Centre
#                                CCDC 
#
#######################################################################
#
# If this CIF has been generated from an entry in the Cambridge 
# Structural Database, then it will include bibliographic, chemical, 
# crystal, experimental, refinement or atomic coordinate data resulting 
# from the CCDC's data processing and validation procedures.
#
#######################################################################

data_BOCHOS
_chemical_formula_moiety         'C21 H40 B10 Si1'
_chemical_name_systematic        
Z-1,2-(1-(2,6-dimethylphenyl)-1-(trimethylsilyl)oct-1-ene-2,4-diyl)-1,2-dicarba-dodecaborane
_symmetry_cell_setting           monoclinic
_symmetry_space_group_name_H-M   'P 21/c'
_symmetry_Int_Tables_number      14
_space_group_name_Hall           '-P 2ybc'
loop_
_symmetry_equiv_pos_site_id
_symmetry_equiv_pos_as_xyz
1 x,y,z
2 -x,1/2+y,1/2-z
3 -x,-y,-z
4 x,1/2-y,1/2+z
_cell_length_a                   20.303(3)
_cell_length_b                   10.0272(16)
_cell_length_c                   13.974(2)
_cell_angle_alpha                90
_cell_angle_beta                 100.980(4)
_cell_angle_gamma                90
_cell_volume                     2792.78
_exptl_crystal_colour            colorless
_exptl_crystal_description       block
_cell_formula_units_Z            4
loop_
_atom_site_label
_atom_site_type_symbol
_atom_site_fract_x
_atom_site_fract_y
_atom_site_fract_z
Si1 Si 0.11604(9) 0.3852(2) 0.24652(16)
C1 C 0.3527(3) 0.3499(7) 0.1626(5)
C2 C 0.2809(3) 0.3225(5) 0.1976(4)
C3 C 0.3532(4) 0.4955(9) 0.1399(9)
C4 C 0.4009(4) 0.5472(7) 0.0847(6)
H1 H 0.3949 0.4976 0.0241
H2 H 0.4454 0.5261 0.1208
C5 C 0.4006(4) 0.6920(7) 0.0594(7)
H3 H 0.3546 0.7229 0.0437
H4 H 0.4231 0.7415 0.1159
C6 C 0.4340(5) 0.7210(12) -0.0241(8)
H5 H 0.4804 0.6926 -0.0065
H6 H 0.4129 0.6665 -0.0788
C7 C 0.4332(6) 0.8609(14) -0.0573(10)
H7 H 0.4570 0.8679 -0.1102
H8 H 0.4544 0.9165 -0.0044
H9 H 0.3876 0.8894 -0.0789
C8 C 0.2873(3) 0.5514(6) 0.1394(5)
H10 H 0.2663 0.5743 0.0731
H11 H 0.2917 0.6324 0.1780
C9 C 0.2432(3) 0.4526(5) 0.1806(4)
C10 C 0.1824(3) 0.4818(5) 0.1963(4)
C11 C 0.1577(3) 0.6219(6) 0.1654(5)
C12 C 0.1219(3) 0.6448(7) 0.0725(6)
C13 C 0.0968(4) 0.7741(10) 0.0465(8)
H12 H 0.0738 0.7923 -0.0163
C14 C 0.1075(6) 0.8726(11) 0.1168(12)
H13 H 0.0895 0.9568 0.1007
C15 C 0.1426(5) 0.8524(10) 0.2075(10)
H14 H 0.1493 0.9223 0.2521
C16 C 0.1691(4) 0.7256(8) 0.2346(7)
C17 C 0.2088(4) 0.7058(10) 0.3355(7)
H15 H 0.2236 0.6148 0.3433
H16 H 0.1813 0.7261 0.3823
H17 H 0.2471 0.7638 0.3455
C18 C 0.1106(4) 0.5354(9) -0.0027(5)
H18 H 0.1305 0.4542 0.0257
H19 H 0.1309 0.5600 -0.0569
H20 H 0.0633 0.5223 -0.0248
C19 C 0.0442(3) 0.4989(8) 0.2502(6)
H21 H 0.0102 0.4518 0.2758
H22 H 0.0260 0.5296 0.1855
H23 H 0.0593 0.5739 0.2912
C20 C 0.0807(4) 0.2466(8) 0.1635(11)
H24 H 0.1155 0.1835 0.1587
H25 H 0.0628 0.2820 0.1000
H26 H 0.0456 0.2030 0.1889
C21 C 0.1455(6) 0.331(2) 0.3724(10)
H27 H 0.1823 0.2699 0.3748
H28 H 0.1097 0.2868 0.3958
H29 H 0.1601 0.4067 0.4126
B1 B 0.2958(4) 0.2580(10) 0.0889(6)
H30 H 0.2691 0.2913 0.0169
B2 B 0.3788(5) 0.2142(12) 0.1096(7)
H31 H 0.4073 0.2176 0.0502
B3 B 0.4154(4) 0.2577(10) 0.2277(8)
H32 H 0.4681 0.2897 0.2462
B4 B 0.3529(4) 0.3315(10) 0.2843(6)
H33 H 0.3643 0.4109 0.3393
B5 B 0.2571(4) 0.1640(8) 0.1670(9)
H34 H 0.2043 0.1333 0.1463
B6 B 0.3198(5) 0.0942(11) 0.1121(8)
H35 H 0.3091 0.0170 0.0553
B7 B 0.3953(4) 0.0932(10) 0.2014(6)
H36 H 0.4344 0.0165 0.2047
B8 B 0.3757(5) 0.1642(10) 0.3078(7)
H37 H 0.4016 0.1333 0.3809
B9 B 0.2912(5) 0.2070(9) 0.2854(7)
H38 H 0.2610 0.2044 0.3429
B10 B 0.3172(5) 0.0601(10) 0.2348(9)
H39 H 0.3049 -0.0399 0.2586
loop_
_geom_bond_atom_site_label_1
_geom_bond_atom_site_label_2
_geom_bond_site_symmetry_1
_geom_bond_site_symmetry_2
Si1 C10 1_555 1_555
C1 C2 1_555 1_555
C2 C9 1_555 1_555
C3 C1 1_555 1_555
C4 C3 1_555 1_555
H1 C4 1_555 1_555
H2 C4 1_555 1_555
C5 C4 1_555 1_555
H3 C5 1_555 1_555
H4 C5 1_555 1_555
C6 C5 1_555 1_555
H5 C6 1_555 1_555
H6 C6 1_555 1_555
C7 C6 1_555 1_555
H7 C7 1_555 1_555
H8 C7 1_555 1_555
H9 C7 1_555 1_555
C8 C3 1_555 1_555
H10 C8 1_555 1_555
H11 C8 1_555 1_555
C9 C8 1_555 1_555
C10 C9 1_555 1_555
C11 C10 1_555 1_555
C12 C11 1_555 1_555
C13 C12 1_555 1_555
H12 C13 1_555 1_555
C14 C13 1_555 1_555
H13 C14 1_555 1_555
C15 C14 1_555 1_555
H14 C15 1_555 1_555
C16 C11 1_555 1_555
C17 C16 1_555 1_555
H15 C17 1_555 1_555
H16 C17 1_555 1_555
H17 C17 1_555 1_555
C18 C12 1_555 1_555
H18 C18 1_555 1_555
H19 C18 1_555 1_555
H20 C18 1_555 1_555
C19 Si1 1_555 1_555
H21 C19 1_555 1_555
H22 C19 1_555 1_555
H23 C19 1_555 1_555
C20 Si1 1_555 1_555
H24 C20 1_555 1_555
H25 C20 1_555 1_555
H26 C20 1_555 1_555
C21 Si1 1_555 1_555
H27 C21 1_555 1_555
H28 C21 1_555 1_555
H29 C21 1_555 1_555
B1 C1 1_555 1_555
H30 B1 1_555 1_555
B2 C1 1_555 1_555
H31 B2 1_555 1_555
B3 C1 1_555 1_555
H32 B3 1_555 1_555
B4 C1 1_555 1_555
H33 B4 1_555 1_555
B5 C2 1_555 1_555
H34 B5 1_555 1_555
B6 B1 1_555 1_555
H35 B6 1_555 1_555
B7 B2 1_555 1_555
H36 B7 1_555 1_555
B8 B3 1_555 1_555
H37 B8 1_555 1_555
B9 C2 1_555 1_555
H38 B9 1_555 1_555
B10 B5 1_555 1_555
H39 B10 1_555 1_555
C2 B1 1_555 1_555
C2 B4 1_555 1_555
C15 C16 1_555 1_555
B1 B2 1_555 1_555
B1 B5 1_555 1_555
B2 B3 1_555 1_555
B2 B6 1_555 1_555
B3 B4 1_555 1_555
B3 B7 1_555 1_555
B4 B8 1_555 1_555
B4 B9 1_555 1_555
B5 B6 1_555 1_555
B5 B9 1_555 1_555
B6 B7 1_555 1_555
B6 B10 1_555 1_555
B7 B8 1_555 1_555
B7 B10 1_555 1_555
B8 B9 1_555 1_555
B8 B10 1_555 1_555
B9 B10 1_555 1_555

#END
