
#######################################################################
#
#                 Cambridge Crystallographic Data Centre
#                                CCDC 
#
#######################################################################
#
# If this CIF has been generated from an entry in the Cambridge 
# Structural Database, then it will include bibliographic, chemical, 
# crystal, experimental, refinement or atomic coordinate data resulting 
# from the CCDC's data processing and validation procedures.
#
#######################################################################

data_BOCLAH
_chemical_formula_moiety         'C22 H26 N2 O6'
_chemical_name_systematic        
'(+-)-Di-t-butyl 4-oxo-1a,2,4,9c-tetrahydro-oxireno[5,6]azepino[3,4-b]indole-3,5-dicarboxylate'
_symmetry_cell_setting           triclinic
_symmetry_space_group_name_H-M   'P -1'
_symmetry_Int_Tables_number      2
_space_group_name_Hall           '-P 1'
loop_
_symmetry_equiv_pos_site_id
_symmetry_equiv_pos_as_xyz
1 x,y,z
2 -x,-y,-z
_cell_length_a                   7.7908(16)
_cell_length_b                   9.3544(19)
_cell_length_c                   14.997(3)
_cell_angle_alpha                96.86(3)
_cell_angle_beta                 102.25(3)
_cell_angle_gamma                98.00(3)
_cell_volume                     1045.07
_exptl_crystal_colour            colorless
_exptl_crystal_description       prism
_chemical_melting_point          '164 deg.C'
_cell_formula_units_Z            2
_exptl_crystal_recrystallization_method 'ethyl acetate'
loop_
_atom_site_label
_atom_site_type_symbol
_atom_site_fract_x
_atom_site_fract_y
_atom_site_fract_z
C1 C 0.3570(2) 0.94379(17) 0.15438(11)
C2 C 0.4839(2) 0.90932(17) 0.23517(11)
C3 C 0.3510(2) 0.65104(18) 0.17098(11)
H1 H 0.2342 0.6838 0.1652
H2 H 0.3428 0.5568 0.1950
C4 C 0.3949(3) 0.6306(2) 0.07763(12)
H3 H 0.4878 0.5690 0.0709
C5 C 0.3907(2) 0.75397(18) 0.02619(11)
H4 H 0.4789 0.7654 -0.0133
C6 C 0.3355(2) 0.89001(18) 0.06325(11)
C7 C 0.2588(2) 0.99250(18) 0.00996(11)
C8 C 0.2127(2) 0.9971(2) -0.08494(12)
H5 H 0.2282 0.9199 -0.1282
C9 C 0.1445(2) 1.1160(2) -0.11435(12)
H6 H 0.1144 1.1214 -0.1785
C10 C 0.1192(2) 1.2283(2) -0.05127(13)
H7 H 0.0717 1.3088 -0.0737
C11 C 0.1608(2) 1.22678(19) 0.04304(12)
H8 H 0.1410 1.3029 0.0856
C12 C 0.2330(2) 1.10775(18) 0.07210(11)
C13 C 0.2469(2) 1.14527(18) 0.23978(11)
C14 C 0.2294(2) 1.10374(18) 0.39584(11)
C15 C 0.0532(3) 1.1518(2) 0.39787(13)
H9 H 0.0465 1.2408 0.3698
H10 H 0.0427 1.1714 0.4620
H11 H -0.0442 1.0744 0.3631
C16 C 0.3877(3) 1.2230(2) 0.43840(13)
H12 H 0.3726 1.3104 0.4095
H13 H 0.4969 1.1895 0.4284
H14 H 0.3962 1.2463 0.5048
C17 C 0.2467(3) 0.9669(2) 0.43869(13)
H15 H 0.1425 0.8917 0.4098
H16 H 0.2539 0.9887 0.5051
H17 H 0.3550 0.9315 0.4290
C18 C 0.6447(2) 0.71693(17) 0.28428(11)
C19 C 0.7821(2) 0.49716(17) 0.29329(11)
C20 C 0.7962(4) 0.5003(3) 0.39464(15)
H18 H 0.8436 0.5999 0.4270
H19 H 0.8764 0.4342 0.4179
H20 H 0.6780 0.4688 0.4054
C21 C 0.7118(4) 0.3447(2) 0.24175(17)
H21 H 0.7031 0.3449 0.1756
H22 H 0.5935 0.3111 0.2518
H23 H 0.7929 0.2789 0.2643
C22 C 0.9520(3) 0.5589(3) 0.2709(2)
H24 H 0.9947 0.6579 0.3053
H25 H 0.9314 0.5625 0.2045
H26 H 1.0415 0.4971 0.2883
N1 N 0.29267(18) 1.07641(15) 0.16171(9)
N2 N 0.48963(17) 0.76014(14) 0.23563(9)
O1 O 0.58001(16) 1.00529(12) 0.29159(9)
O2 O 0.76042(19) 0.79406(13) 0.34154(10)
O3 O 0.63958(16) 0.57695(12) 0.25437(8)
O4 O 0.22176(19) 1.26960(13) 0.24645(9)
O5 O 0.23316(15) 1.05233(12) 0.29818(7)
O6 O 0.25286(19) 0.62012(15) -0.00066(10)
loop_
_geom_bond_atom_site_label_1
_geom_bond_atom_site_label_2
_geom_bond_site_symmetry_1
_geom_bond_site_symmetry_2
C1 C2 1_555 1_555
C2 N2 1_555 1_555
C3 H1 1_555 1_555
H2 C3 1_555 1_555
C4 C3 1_555 1_555
H3 C4 1_555 1_555
C5 C4 1_555 1_555
H4 C5 1_555 1_555
C6 C1 1_555 1_555
C7 C6 1_555 1_555
C8 C7 1_555 1_555
H5 C8 1_555 1_555
C9 C8 1_555 1_555
H6 C9 1_555 1_555
C10 C9 1_555 1_555
H7 C10 1_555 1_555
C11 C10 1_555 1_555
H8 C11 1_555 1_555
C12 C7 1_555 1_555
C13 N1 1_555 1_555
C14 C15 1_555 1_555
C15 H9 1_555 1_555
H10 C15 1_555 1_555
H11 C15 1_555 1_555
C16 C14 1_555 1_555
H12 C16 1_555 1_555
H13 C16 1_555 1_555
H14 C16 1_555 1_555
C17 C14 1_555 1_555
H15 C17 1_555 1_555
H16 C17 1_555 1_555
H17 C17 1_555 1_555
C18 N2 1_555 1_555
C19 C20 1_555 1_555
C20 H18 1_555 1_555
H19 C20 1_555 1_555
H20 C20 1_555 1_555
C21 C19 1_555 1_555
H21 C21 1_555 1_555
H22 C21 1_555 1_555
H23 C21 1_555 1_555
C22 C19 1_555 1_555
H24 C22 1_555 1_555
H25 C22 1_555 1_555
H26 C22 1_555 1_555
N1 C1 1_555 1_555
N2 C3 1_555 1_555
O1 C2 1_555 1_555
O2 C18 1_555 1_555
O3 C18 1_555 1_555
O4 C13 1_555 1_555
O5 C13 1_555 1_555
O6 C4 1_555 1_555
C5 C6 1_555 1_555
C5 O6 1_555 1_555
C11 C12 1_555 1_555
C12 N1 1_555 1_555
C14 O5 1_555 1_555
C19 O3 1_555 1_555

#END
