
#######################################################################
#
#                 Cambridge Crystallographic Data Centre
#                                CCDC 
#
#######################################################################
#
# If this CIF has been generated from an entry in the Cambridge 
# Structural Database, then it will include bibliographic, chemical, 
# crystal, experimental, refinement or atomic coordinate data resulting 
# from the CCDC's data processing and validation procedures.
#
#######################################################################

data_BOCLIP
_chemical_formula_moiety         'C16 H11 F3 N2'
_chemical_name_systematic        
5-Phenyl-3-(4-(trifluoromethyl)phenyl)-1H-pyrazole
_symmetry_cell_setting           monoclinic
_symmetry_space_group_name_H-M   'P 21/n'
_symmetry_Int_Tables_number      14
_space_group_name_Hall           '-P 2yn'
loop_
_symmetry_equiv_pos_site_id
_symmetry_equiv_pos_as_xyz
1 x,y,z
2 1/2-x,1/2+y,1/2-z
3 -x,-y,-z
4 1/2+x,1/2-y,1/2+z
_cell_length_a                   14.725(2)
_cell_length_b                   5.8139(9)
_cell_length_c                   15.629(2)
_cell_angle_alpha                90
_cell_angle_beta                 99.054(2)
_cell_angle_gamma                90
_cell_volume                     1321.32
_exptl_crystal_colour            white
_chemical_melting_point          '142-144 deg.C'
_cell_formula_units_Z            4
loop_
_atom_site_label
_atom_site_type_symbol
_atom_site_fract_x
_atom_site_fract_y
_atom_site_fract_z
C1 C 0.19394(16) 0.6900(4) 0.62056(14)
C2 C 0.20007(18) 0.4867(4) 0.57788(16)
H1 H 0.1469 0.4111 0.5525
C3 C 0.28516(17) 0.3939(4) 0.57245(15)
H2 H 0.2886 0.2541 0.5442
C4 C 0.36555(15) 0.5044(4) 0.60817(12)
C5 C 0.35793(17) 0.7119(4) 0.64980(16)
H3 H 0.4109 0.7909 0.6734
C6 C 0.27296(19) 0.8037(4) 0.65690(16)
H4 H 0.2690 0.9418 0.6861
C7 C 0.45652(15) 0.4051(4) 0.60139(12)
C8 C 0.54374(16) 0.4844(4) 0.63678(13)
H5 H 0.5574 0.6148 0.6708
C9 C 0.60560(15) 0.3316(4) 0.61142(12)
C10 C 0.70583(16) 0.3216(4) 0.62673(12)
C11 C 0.75366(17) 0.1348(4) 0.60070(15)
H6 H 0.7210 0.0111 0.5735
C12 C 0.84817(18) 0.1287(5) 0.61416(16)
H7 H 0.8786 0.0019 0.5960
C13 C 0.89797(18) 0.3100(5) 0.65459(16)
H8 H 0.9619 0.3076 0.6631
C14 C 0.85176(18) 0.4945(4) 0.68220(15)
H9 H 0.8849 0.6163 0.7103
C15 C 0.75720(17) 0.5015(4) 0.66883(14)
H10 H 0.7272 0.6276 0.6881
C16 C 0.10220(19) 0.7861(5) 0.62897(19)
N1 N 0.46290(13) 0.2124(3) 0.55653(12)
N2 N 0.55400(13) 0.1710(3) 0.56412(12)
H11 H 0.5768 0.0544 0.5412
F1 F 0.10052(15) 1.0097(4) 0.6302(2)
F2 F 0.07360(13) 0.7207(4) 0.70145(13)
F3 F 0.03556(12) 0.7177(4) 0.56739(12)
loop_
_geom_bond_atom_site_label_1
_geom_bond_atom_site_label_2
_geom_bond_site_symmetry_1
_geom_bond_site_symmetry_2
C1 C2 1_555 1_555
C2 H1 1_555 1_555
C3 C2 1_555 1_555
H2 C3 1_555 1_555
C4 C3 1_555 1_555
C5 C4 1_555 1_555
H3 C5 1_555 1_555
C6 C1 1_555 1_555
H4 C6 1_555 1_555
C7 C4 1_555 1_555
C8 C7 1_555 1_555
H5 C8 1_555 1_555
C9 C8 1_555 1_555
C10 C9 1_555 1_555
C11 C10 1_555 1_555
H6 C11 1_555 1_555
C12 C11 1_555 1_555
H7 C12 1_555 1_555
C13 C12 1_555 1_555
H8 C13 1_555 1_555
C14 C13 1_555 1_555
H9 C14 1_555 1_555
C15 C10 1_555 1_555
H10 C15 1_555 1_555
C16 C1 1_555 1_555
N1 C7 1_555 1_555
N2 C9 1_555 1_555
H11 N2 1_555 1_555
F1 C16 1_555 1_555
F2 C16 1_555 1_555
F3 C16 1_555 1_555
C5 C6 1_555 1_555
C14 C15 1_555 1_555
N1 N2 1_555 1_555

#END
