
#######################################################################
#
#                 Cambridge Crystallographic Data Centre
#                                CCDC 
#
#######################################################################
#
# If this CIF has been generated from an entry in the Cambridge 
# Structural Database, then it will include bibliographic, chemical, 
# crystal, experimental, refinement or atomic coordinate data resulting 
# from the CCDC's data processing and validation procedures.
#
#######################################################################

data_BODCII
_chemical_formula_moiety         'C69 H57 N15'
_chemical_name_systematic        
'2,8,14,20,26,32-Hexabenzyl-2,4,6,8,14,16,18,20,26,28,30,32,37,39,41-pentadeca-azaheptacyclo[31.3.1.1^3,7^.1^9,13^.1^15,19^.1^21,25^.1^27,31^]dotetraconta-1(37),3(42),4,6,9(41),10,12,15(40),16,18,21(39),22,24,27(38),28,30,33,35-octadecaene unknown solvate'
_symmetry_cell_setting           hexagonal
_symmetry_space_group_name_H-M   'P 63'
_symmetry_Int_Tables_number      173
_space_group_name_Hall           'P 6c'
loop_
_symmetry_equiv_pos_site_id
_symmetry_equiv_pos_as_xyz
1 x,y,z
2 x-y,x,1/2+z
3 -y,x-y,z
4 -x,-y,1/2+z
5 -x+y,-x,z
6 y,-x+y,1/2+z
_cell_length_a                   19.986(4)
_cell_length_b                   19.986(4)
_cell_length_c                   8.8105(18)
_cell_angle_alpha                90
_cell_angle_beta                 90
_cell_angle_gamma                120
_cell_volume                     3047.78
_exptl_crystal_colour            colorless
_exptl_crystal_description       rod
_cell_formula_units_Z            2
loop_
_atom_site_label
_atom_site_type_symbol
_atom_site_fract_x
_atom_site_fract_y
_atom_site_fract_z
N1 N 0.5720(3) 0.5056(3) 0.5444(6)
N2 N 0.7059(3) 0.5529(3) 0.5690(6)
N3 N 0.8384(3) 0.6100(3) 0.5757(7)
N4 N 0.9676(3) 0.6509(3) 0.5148(9)
N5 N 1.0096(3) 0.5581(3) 0.5012(8)
C1 C 0.5887(4) 0.5673(3) 0.4348(8)
H1 H 0.5453 0.5484 0.3620
H2 H 0.6355 0.5781 0.3768
C2 C 0.5927(11) 0.6381(7) 0.506(2)
C3 C 0.5363(11) 0.6303(6) 0.609(2)
H3 H 0.4943 0.5804 0.6320
C4 C 0.5412(13) 0.6953(9) 0.6767(15)
H4 H 0.5027 0.6900 0.7466
C5 C 0.6026(12) 0.7683(7) 0.6425(16)
H5 H 0.6060 0.8127 0.6890
C6 C 0.6590(9) 0.7761(6) 0.540(2)
H6 H 0.7010 0.8260 0.5168
C7 C 0.6541(10) 0.7110(8) 0.472(2)
H7 H 0.6926 0.7164 0.4021
C8 C 0.6341(3) 0.5059(4) 0.6237(8)
C9 C 0.6228(3) 0.4662(3) 0.7593(8)
H8 H 0.5721 0.4340 0.7976
C10 C 0.6845(3) 0.4739(3) 0.8361(7)
H9 H 0.6776 0.4482 0.9304
C11 C 0.7620(4) 0.5216(4) 0.7747(8)
H10 H 0.8069 0.5266 0.8225
C12 C 0.7646(3) 0.5591(3) 0.6407(7)
C13 C 0.8519(4) 0.6859(4) 0.5166(9)
H11 H 0.8027 0.6788 0.4750
H12 H 0.8896 0.7025 0.4322
C14 C 0.8815(7) 0.7487(7) 0.6345(15)
C15 C 0.8292(8) 0.7610(8) 0.7133(16)
H13 H 0.7759 0.7300 0.6897
C16 C 0.8510(7) 0.8172(8) 0.8269(16)
H14 H 0.8122 0.8260 0.8686
C17 C 0.9263(7) 0.8612(8) 0.8827(18)
H15 H 0.9404 0.8995 0.9590
C18 C 0.9788(7) 0.8436(7) 0.8158(15)
H16 H 1.0309 0.8685 0.8499
C19 C 0.9555(8) 0.7901(7) 0.7004(15)
H17 H 0.9937 0.7799 0.6607
C20 C 0.8927(4) 0.5904(4) 0.5586(8)
C21 C 0.8801(3) 0.5154(3) 0.5708(8)
H18 H 0.8308 0.4738 0.5986
C22 C 0.9416(4) 0.5032(3) 0.5412(8)
C23 C 1.0175(4) 0.6295(4) 0.4913(10)
H19 H 1.0674 0.6697 0.4626
N1B N 0.4944(3) 0.0664(4) 0.5444(6)
N2B N 0.4471(3) 0.1530(4) 0.5690(6)
N3B N 0.3900(3) 0.2284(4) 0.5757(7)
N4B N 0.3491(3) 0.3167(4) 0.5148(9)
N5B N 0.4419(3) 0.4515(4) 0.5012(8)
C1B C 0.4327(3) 0.0214(5) 0.4348(8)
H1B H 0.4516 -0.0031 0.3620
H2B H 0.4219 0.0574 0.3768
C2B C 0.3619(7) -0.0454(13) 0.506(2)
C3B C 0.3697(6) -0.0940(13) 0.609(2)
H3B H 0.4196 -0.0861 0.6320
C4B C 0.3047(9) -0.1541(16) 0.6767(15)
H4B H 0.3100 -0.1873 0.7466
C5B C 0.2317(7) -0.1657(14) 0.6425(16)
H5B H 0.1873 -0.2067 0.6890
C6B C 0.2239(6) -0.1171(11) 0.540(2)
H6B H 0.1740 -0.1250 0.5168
C7B C 0.2890(8) -0.0569(13) 0.472(2)
H7B H 0.2836 -0.0238 0.4021
C8B C 0.4941(4) 0.1282(5) 0.6237(8)
C9B C 0.5338(3) 0.1566(4) 0.7593(8)
H8B H 0.5660 0.1381 0.7976
C10B C 0.5261(3) 0.2106(4) 0.8361(7)
H9B H 0.5518 0.2294 0.9304
C11B C 0.4784(4) 0.2404(6) 0.7747(8)
H10B H 0.4734 0.2803 0.8225
C12B C 0.4409(3) 0.2055(4) 0.6407(7)
C13B C 0.3141(4) 0.1660(6) 0.5166(9)
H11B H 0.3212 0.1239 0.4750
H12B H 0.2975 0.1871 0.4322
C14B C 0.2513(7) 0.1328(10) 0.6345(15)
C15B C 0.2390(8) 0.0682(11) 0.7133(16)
H13B H 0.2700 0.0459 0.6897
C16B C 0.1828(8) 0.0338(11) 0.8269(16)
H14B H 0.1740 -0.0138 0.8686
C17B C 0.1388(8) 0.0651(11) 0.8827(18)
H15B H 0.1005 0.0409 0.9590
C18B C 0.1564(7) 0.1352(10) 0.8158(15)
H16B H 0.1315 0.1624 0.8499
C19B C 0.2099(7) 0.1654(11) 0.7004(15)
H17B H 0.2201 0.2138 0.6607
C20B C 0.4096(4) 0.3023(6) 0.5586(8)
C21B C 0.4846(3) 0.3647(4) 0.5708(8)
H18B H 0.5262 0.3570 0.5986
C22B C 0.4968(3) 0.4384(5) 0.5412(8)
C23B C 0.3705(4) 0.3880(6) 0.4913(10)
H19B H 0.3303 0.3977 0.4626
N1D N 0.9336(4) 0.4280(3) 0.5444(6)
N2D N 0.8470(4) 0.2941(3) 0.5690(6)
N3D N 0.7716(4) 0.1616(3) 0.5757(7)
N4D N 0.6833(4) 0.0324(3) 0.5148(9)
N5D N 0.5485(4) -0.0096(3) 0.5012(8)
C1D C 0.9786(5) 0.4113(4) 0.4348(8)
H1D H 1.0031 0.4547 0.3620
H2D H 0.9426 0.3645 0.3768
C2D C 1.0454(13) 0.4073(11) 0.506(2)
C3D C 1.0940(13) 0.4637(11) 0.609(2)
H3D H 1.0861 0.5057 0.6320
C4D C 1.1541(16) 0.4588(13) 0.6767(15)
H4D H 1.1873 0.4973 0.7466
C5D C 1.1657(14) 0.3974(12) 0.6425(16)
H5D H 1.2067 0.3940 0.6890
C6D C 1.1171(11) 0.3410(9) 0.540(2)
H6D H 1.1250 0.2990 0.5168
C7D C 1.0569(13) 0.3459(10) 0.472(2)
H7D H 1.0238 0.3074 0.4021
C8D C 0.8718(5) 0.3659(3) 0.6237(8)
C9D C 0.8434(4) 0.3772(3) 0.7593(8)
H8D H 0.8619 0.4279 0.7976
C10D C 0.7894(4) 0.3155(3) 0.8361(7)
H9D H 0.7706 0.3224 0.9304
C11D C 0.7596(6) 0.2380(4) 0.7747(8)
H10D H 0.7197 0.1931 0.8225
C12D C 0.7945(4) 0.2354(3) 0.6407(7)
C13D C 0.8340(6) 0.1481(4) 0.5166(9)
H11D H 0.8761 0.1973 0.4750
H12D H 0.8129 0.1104 0.4322
C14D C 0.8672(10) 0.1185(7) 0.6345(15)
C15D C 0.9318(11) 0.1708(8) 0.7133(16)
H13D H 0.9541 0.2241 0.6897
C16D C 0.9662(11) 0.1490(7) 0.8269(16)
H14D H 1.0138 0.1878 0.8686
C17D C 0.9349(11) 0.0737(7) 0.8827(18)
H15D H 0.9591 0.0596 0.9590
C18D C 0.8648(10) 0.0212(7) 0.8158(15)
H16D H 0.8376 -0.0309 0.8499
C19D C 0.8346(11) 0.0445(8) 0.7004(15)
H17D H 0.7862 0.0063 0.6607
C20D C 0.6977(6) 0.1073(4) 0.5586(8)
C21D C 0.6353(4) 0.1199(3) 0.5708(8)
H18D H 0.6430 0.1692 0.5986
C22D C 0.5616(5) 0.0584(4) 0.5412(8)
C23D C 0.6120(6) -0.0175(4) 0.4913(10)
H19D H 0.6023 -0.0674 0.4626
C24? C 0.6012(13) 0.6409(8) 0.502(3)
C25? C 0.5614(13) 0.6443(10) 0.629(2)
H20? H 0.5215 0.5992 0.6759
C26? C 0.5838(15) 0.7177(10) 0.682(2)
H21? H 0.5604 0.7222 0.7718
C27? C 0.6381(14) 0.7848(10) 0.611(2)
H22? H 0.6453 0.8331 0.6448
C28? C 0.6822(13) 0.7825(10) 0.492(2)
H23? H 0.7235 0.8282 0.4494
C29? C 0.6624(13) 0.7089(10) 0.437(3)
H24? H 0.6906 0.7046 0.3546
C30? C 0.8799(17) 0.7487(16) 0.632(4)
C31? C 0.8307(12) 0.7699(17) 0.701(4)
H25? H 0.7763 0.7371 0.6940
C32? C 0.8611(12) 0.8391(15) 0.781(3)
H26? H 0.8275 0.8536 0.8279
C33? C 0.9406(13) 0.8870(11) 0.792(4)
H27? H 0.9614 0.9343 0.8459
C34? C 0.9898(11) 0.8658(13) 0.723(4)
H28? H 1.0442 0.8985 0.7299
C35? C 0.9594(16) 0.7966(15) 0.643(3)
H29? H 0.9930 0.7821 0.5960
loop_
_geom_bond_atom_site_label_1
_geom_bond_atom_site_label_2
_geom_bond_site_symmetry_1
_geom_bond_site_symmetry_2
N1 C1 1_555 1_555
N2 C8 1_555 1_555
N3 C12 1_555 1_555
N4 C20 1_555 1_555
N5 C22 1_555 1_555
C1 H1 1_555 1_555
H2 C1 1_555 1_555
C2 C1 1_555 1_555
C3 C2 1_555 1_555
H3 C3 1_555 1_555
C4 C3 1_555 1_555
H4 C4 1_555 1_555
C5 C4 1_555 1_555
H5 C5 1_555 1_555
C6 C5 1_555 1_555
H6 C6 1_555 1_555
C7 C2 1_555 1_555
H7 C7 1_555 1_555
C8 N1 1_555 1_555
C9 C8 1_555 1_555
H8 C9 1_555 1_555
C10 C9 1_555 1_555
H9 C10 1_555 1_555
C11 C10 1_555 1_555
H10 C11 1_555 1_555
C12 N2 1_555 1_555
C13 N3 1_555 1_555
H11 C13 1_555 1_555
H12 C13 1_555 1_555
C14 C13 1_555 1_555
C15 C14 1_555 1_555
H13 C15 1_555 1_555
C16 C15 1_555 1_555
H14 C16 1_555 1_555
C17 C16 1_555 1_555
H15 C17 1_555 1_555
C18 C17 1_555 1_555
H16 C18 1_555 1_555
C19 C14 1_555 1_555
H17 C19 1_555 1_555
C20 N3 1_555 1_555
C21 C20 1_555 1_555
H18 C21 1_555 1_555
C22 C21 1_555 1_555
C23 N4 1_555 1_555
H19 C23 1_555 1_555
N1B C1B 1_555 1_555
N2B C8B 1_555 1_555
N3B C12B 1_555 1_555
N4B C20B 1_555 1_555
N5B C22B 1_555 1_555
C1B H1B 1_555 1_555
H2B C1B 1_555 1_555
C2B C1B 1_555 1_555
C3B C2B 1_555 1_555
H3B C3B 1_555 1_555
C4B C3B 1_555 1_555
H4B C4B 1_555 1_555
C5B C4B 1_555 1_555
H5B C5B 1_555 1_555
C6B C5B 1_555 1_555
H6B C6B 1_555 1_555
C7B C2B 1_555 1_555
H7B C7B 1_555 1_555
C8B N1B 1_555 1_555
C9B C8B 1_555 1_555
H8B C9B 1_555 1_555
C10B C9B 1_555 1_555
H9B C10B 1_555 1_555
C11B C10B 1_555 1_555
H10B C11B 1_555 1_555
C12B N2B 1_555 1_555
C13B N3B 1_555 1_555
H11B C13B 1_555 1_555
H12B C13B 1_555 1_555
C14B C13B 1_555 1_555
C15B C14B 1_555 1_555
H13B C15B 1_555 1_555
C16B C15B 1_555 1_555
H14B C16B 1_555 1_555
C17B C16B 1_555 1_555
H15B C17B 1_555 1_555
C18B C17B 1_555 1_555
H16B C18B 1_555 1_555
C19B C14B 1_555 1_555
H17B C19B 1_555 1_555
C20B N3B 1_555 1_555
C21B C20B 1_555 1_555
H18B C21B 1_555 1_555
C22B N1 1_555 1_555
C23B N4B 1_555 1_555
H19B C23B 1_555 1_555
N1D C22 1_555 1_555
N2D C8D 1_555 1_555
N3D C12D 1_555 1_555
N4D C20D 1_555 1_555
N5D C22D 1_555 1_555
C1D N1D 1_555 1_555
H1D C1D 1_555 1_555
H2D C1D 1_555 1_555
C2D C1D 1_555 1_555
C3D C2D 1_555 1_555
H3D C3D 1_555 1_555
C4D C3D 1_555 1_555
H4D C4D 1_555 1_555
C5D C4D 1_555 1_555
H5D C5D 1_555 1_555
C6D C5D 1_555 1_555
H6D C6D 1_555 1_555
C7D C2D 1_555 1_555
H7D C7D 1_555 1_555
C8D N1D 1_555 1_555
C9D C8D 1_555 1_555
H8D C9D 1_555 1_555
C10D C9D 1_555 1_555
H9D C10D 1_555 1_555
C11D C10D 1_555 1_555
H10D C11D 1_555 1_555
C12D N2D 1_555 1_555
C13D N3D 1_555 1_555
H11D C13D 1_555 1_555
H12D C13D 1_555 1_555
C14D C13D 1_555 1_555
C15D C14D 1_555 1_555
H13D C15D 1_555 1_555
C16D C15D 1_555 1_555
H14D C16D 1_555 1_555
C17D C16D 1_555 1_555
H15D C17D 1_555 1_555
C18D C17D 1_555 1_555
H16D C18D 1_555 1_555
C19D C14D 1_555 1_555
H17D C19D 1_555 1_555
C20D N3D 1_555 1_555
C21D C20D 1_555 1_555
H18D C21D 1_555 1_555
C22D N1B 1_555 1_555
C23D N4D 1_555 1_555
H19D C23D 1_555 1_555
N5 C23 1_555 1_555
C6 C7 1_555 1_555
C11 C12 1_555 1_555
C18 C19 1_555 1_555
N5B C23B 1_555 1_555
C6B C7B 1_555 1_555
C11B C12B 1_555 1_555
C18B C19B 1_555 1_555
C21B C22B 1_555 1_555
N5D C23D 1_555 1_555
C6D C7D 1_555 1_555
C11D C12D 1_555 1_555
C18D C19D 1_555 1_555
C21D C22D 1_555 1_555

#END
