
#######################################################################
#
#                 Cambridge Crystallographic Data Centre
#                                CCDC 
#
#######################################################################
#
# If this CIF has been generated from an entry in the Cambridge 
# Structural Database, then it will include bibliographic, chemical, 
# crystal, experimental, refinement or atomic coordinate data resulting 
# from the CCDC's data processing and validation procedures.
#
#######################################################################

data_BODDAB
_chemical_formula_moiety         'C45 H45 N15'
_chemical_name_systematic        
'2,8,14,20,26,32-Hexa-allyl-2,4,6,8,14,16,18,20,26,28,30,32,37,39,41-pentadeca-azaheptacyclo[31.3.1.1^3,7^.1^9,13^.1^15,19^.1^21,25^.1^27,31^]dotetraconta-1(37),3(42),4,6,9(41),10,12,15(40),16,18,21(39),22,24,27(38),28,30,33,35-octadecaene unknown solvate'
_symmetry_cell_setting           triclinic
_symmetry_space_group_name_H-M   'P -1'
_symmetry_Int_Tables_number      2
_space_group_name_Hall           '-P 1'
loop_
_symmetry_equiv_pos_site_id
_symmetry_equiv_pos_as_xyz
1 x,y,z
2 -x,-y,-z
_cell_length_a                   10.491(3)
_cell_length_b                   15.082(3)
_cell_length_c                   15.571(5)
_cell_angle_alpha                62.847(11)
_cell_angle_beta                 89.307(18)
_cell_angle_gamma                77.513(16)
_cell_volume                     2129.69
_exptl_crystal_colour            colorless
_exptl_crystal_description       Plate
_cell_formula_units_Z            2
loop_
_atom_site_label
_atom_site_type_symbol
_atom_site_fract_x
_atom_site_fract_y
_atom_site_fract_z
N1 N 0.0891(3) 0.8558(2) 0.2860(2)
N2 N 0.1109(3) 0.9993(2) 0.2992(2)
N3 N 0.1563(3) 1.1368(2) 0.3126(2)
N4 N 0.2715(3) 1.1136(2) 0.4555(2)
N5 N 0.3449(3) 0.9533(2) 0.5888(2)
N6 N 0.4404(3) 0.7890(2) 0.7084(2)
N7 N 0.5519(3) 0.6309(2) 0.8317(2)
N8 N 0.6777(3) 0.4672(3) 0.9338(2)
N9 N 0.6699(3) 0.3233(2) 0.9087(2)
N10 N 0.5310(3) 0.3386(2) 0.7841(2)
N11 N 0.4074(3) 0.3693(2) 0.6473(2)
N12 N 0.2977(3) 0.3845(2) 0.5115(2)
N13 N 0.2136(3) 0.4080(2) 0.3631(2)
N14 N 0.1034(3) 0.5742(2) 0.2375(2)
N15 N 0.0689(3) 0.7196(2) 0.2587(2)
C1 C 0.0516(3) 0.7673(3) 0.3194(3)
C2 C -0.0067(4) 0.7262(3) 0.4045(3)
H1 H -0.0342 0.6642 0.4249
C3 C -0.0236(3) 0.7781(3) 0.4587(3)
H2 H -0.0620 0.7514 0.5181
C4 C 0.0152(4) 0.8687(3) 0.4264(3)
H3 H 0.0034 0.9056 0.4628
C5 C 0.0720(3) 0.9048(3) 0.3394(3)
C6 C 0.0979(4) 1.0596(3) 0.1918(3)
H4 H 0.1391 1.0140 0.1642
H5 H 0.1459 1.1144 0.1733
C7 C -0.0414(5) 1.1069(3) 0.1491(3)
H6 H -0.0927 1.1517 0.1707
C8 C -0.0975(5) 1.0923(4) 0.0858(3)
H7 H -0.0497 1.0481 0.0623
H8 H -0.1869 1.1255 0.0623
C9 C 0.1619(3) 1.0352(3) 0.3548(3)
C10 C 0.2235(3) 0.9696(3) 0.4476(3)
H9 H 0.2292 0.8980 0.4761
C11 C 0.2766(4) 1.0115(3) 0.4977(3)
C12 C 0.2132(4) 1.1674(3) 0.3663(3)
H10 H 0.2119 1.2384 0.3362
C13 C 0.4390(4) 0.9939(3) 0.6211(3)
H11 H 0.5235 0.9421 0.6401
H12 H 0.4519 1.0552 0.5629
C14 C 0.4202(9) 1.0231(7) 0.6975(6)
H13 H 0.4895 1.0373 0.7242
C15 C 0.3054(8) 1.0292(7) 0.7282(7)
H14 H 0.2374 1.0147 0.7005
H15 H 0.2888 1.0481 0.7784
C16 C 0.3312(4) 0.8537(3) 0.6533(3)
C17 C 0.2110(4) 0.8270(3) 0.6612(3)
H16 H 0.1351 0.8745 0.6203
C18 C 0.2048(4) 0.7303(3) 0.7298(3)
H17 H 0.1238 0.7103 0.7364
C19 C 0.3160(4) 0.6620(3) 0.7891(3)
H18 H 0.3132 0.5954 0.8379
C20 C 0.4328(4) 0.6950(3) 0.7743(3)
C21 C 0.6385(4) 0.6774(3) 0.8635(3)
H19 H 0.6385 0.7460 0.8099
H20 H 0.7293 0.6346 0.8778
C22 C 0.5987(13) 0.6880(9) 0.9508(7)
H21 H 0.5952 0.6289 1.0096
C23 C 0.5679(15) 0.7802(9) 0.9464(10)
H22 H 0.5713 0.8392 0.8875
H23 H 0.5423 0.7872 1.0022
C24 C 0.5878(4) 0.5274(3) 0.8571(3)
C25 C 0.5381(4) 0.4892(3) 0.8026(3)
H24 H 0.4785 0.5331 0.7463
C26 C 0.5783(3) 0.3848(3) 0.8328(3)
C27 C 0.7140(4) 0.3695(3) 0.9524(3)
H25 H 0.7807 0.3271 1.0044
C28 C 0.6164(4) 0.2475(3) 0.7831(3)
H26 H 0.7029 0.2322 0.8180
H27 H 0.6303 0.2634 0.7151
C29 C 0.5618(6) 0.1554(4) 0.8282(4)
H28 H 0.4793 0.1614 0.7989
C30 C 0.6095(7) 0.0720(5) 0.8987(5)
H29 H 0.6918 0.0610 0.9312
H30 H 0.5639 0.0187 0.9205
C31 C 0.4112(3) 0.3844(3) 0.7249(3)
C32 C 0.3037(3) 0.4391(3) 0.7483(3)
H31 H 0.3082 0.4466 0.8055
C33 C 0.1906(4) 0.4819(3) 0.6853(3)
H32 H 0.1163 0.5212 0.6980
C34 C 0.1846(3) 0.4679(3) 0.6039(3)
H33 H 0.1074 0.4969 0.5600
C35 C 0.2963(3) 0.4097(3) 0.5886(3)
C36 C 0.3763(4) 0.2835(3) 0.5290(3)
H34 H 0.3257 0.2544 0.4992
H35 H 0.3897 0.2374 0.5998
C37 C 0.5072(4) 0.2839(4) 0.4904(3)
H36 H 0.5492 0.2242 0.4854
C38 C 0.5696(5) 0.3547(4) 0.4633(4)
H37 H 0.5326 0.4163 0.4665
H38 H 0.6529 0.3457 0.4398
C39 C 0.2318(3) 0.4519(3) 0.4199(3)
C40 C 0.1907(3) 0.5564(3) 0.3865(3)
H39 H 0.2101 0.5871 0.4247
C41 C 0.1206(3) 0.6156(3) 0.2960(3)
C42 C 0.1538(4) 0.4738(3) 0.2755(3)
H40 H 0.1459 0.4449 0.2336
C43 C 0.0281(4) 0.7836(3) 0.1545(3)
H41 H 0.0838 0.7553 0.1168
H42 H 0.0371 0.8543 0.1338
C44 C -0.1110(8) 0.8158(11) 0.1168(9)
H43 H -0.1334 0.8585 0.0491
C45 C -0.2039(12) 0.7892(9) 0.1704(9)
H44 H -0.1843 0.7465 0.2384
H45 H -0.2921 0.8123 0.1422
C46? C 0.3596(15) 1.0252(13) 0.6892(10)
H46? H 0.2830 1.0787 0.6581
C47? C 0.378(2) 0.9917(12) 0.7837(10)
H47? H 0.4517 0.9382 0.8208
H48? H 0.3164 1.0210 0.8147
C48? C 0.572(2) 0.706(2) 0.9358(16)
H49? H 0.4841 0.7003 0.9460
C49? C 0.632(2) 0.7386(18) 0.9862(15)
H50? H 0.7202 0.7446 0.9768
H51? H 0.5872 0.7561 1.0317
C50? C -0.1135(8) 0.7841(11) 0.1371(10)
H52? H -0.1320 0.7183 0.1711
C51? C -0.2144(13) 0.8555(13) 0.0857(11)
H53? H -0.2063 0.9241 0.0489
H54? H -0.2969 0.8395 0.0845
loop_
_geom_bond_atom_site_label_1
_geom_bond_atom_site_label_2
_geom_bond_site_symmetry_1
_geom_bond_site_symmetry_2
N1 C1 1_555 1_555
N2 C5 1_555 1_555
N3 C9 1_555 1_555
N4 C11 1_555 1_555
N5 C11 1_555 1_555
N6 C16 1_555 1_555
N7 C20 1_555 1_555
N8 C24 1_555 1_555
N9 C26 1_555 1_555
N10 C26 1_555 1_555
N11 C31 1_555 1_555
N12 C35 1_555 1_555
N13 C39 1_555 1_555
N14 C41 1_555 1_555
N15 C1 1_555 1_555
C1 C2 1_555 1_555
C2 H1 1_555 1_555
C3 C2 1_555 1_555
H2 C3 1_555 1_555
C4 C3 1_555 1_555
H3 C4 1_555 1_555
C5 N1 1_555 1_555
C6 N2 1_555 1_555
H4 C6 1_555 1_555
H5 C6 1_555 1_555
C7 C6 1_555 1_555
H6 C7 1_555 1_555
C8 C7 1_555 1_555
H7 C8 1_555 1_555
H8 C8 1_555 1_555
C9 N2 1_555 1_555
C10 C9 1_555 1_555
H9 C10 1_555 1_555
C11 C10 1_555 1_555
C12 N3 1_555 1_555
H10 C12 1_555 1_555
C13 N5 1_555 1_555
H11 C13 1_555 1_555
H12 C13 1_555 1_555
C14 C13 1_555 1_555
H13 C14 1_555 1_555
C15 C14 1_555 1_555
H14 C15 1_555 1_555
H15 C15 1_555 1_555
C16 N5 1_555 1_555
C17 C16 1_555 1_555
H16 C17 1_555 1_555
C18 C17 1_555 1_555
H17 C18 1_555 1_555
C19 C18 1_555 1_555
H18 C19 1_555 1_555
C20 N6 1_555 1_555
C21 N7 1_555 1_555
H19 C21 1_555 1_555
H20 C21 1_555 1_555
C22 C21 1_555 1_555
H21 C22 1_555 1_555
C23 C22 1_555 1_555
H22 C23 1_555 1_555
H23 C23 1_555 1_555
C24 N7 1_555 1_555
C25 C24 1_555 1_555
H24 C25 1_555 1_555
C26 C25 1_555 1_555
C27 N8 1_555 1_555
H25 C27 1_555 1_555
C28 N10 1_555 1_555
H26 C28 1_555 1_555
H27 C28 1_555 1_555
C29 C28 1_555 1_555
H28 C29 1_555 1_555
C30 C29 1_555 1_555
H29 C30 1_555 1_555
H30 C30 1_555 1_555
C31 N10 1_555 1_555
C32 C31 1_555 1_555
H31 C32 1_555 1_555
C33 C32 1_555 1_555
H32 C33 1_555 1_555
C34 C33 1_555 1_555
H33 C34 1_555 1_555
C35 N11 1_555 1_555
C36 N12 1_555 1_555
H34 C36 1_555 1_555
H35 C36 1_555 1_555
C37 C36 1_555 1_555
H36 C37 1_555 1_555
C38 C37 1_555 1_555
H37 C38 1_555 1_555
H38 C38 1_555 1_555
C39 N12 1_555 1_555
C40 C39 1_555 1_555
H39 C40 1_555 1_555
C41 N15 1_555 1_555
C42 N13 1_555 1_555
H40 C42 1_555 1_555
C43 N15 1_555 1_555
H41 C43 1_555 1_555
H42 C43 1_555 1_555
C44 C43 1_555 1_555
H43 C44 1_555 1_555
C45 C44 1_555 1_555
H44 C45 1_555 1_555
H45 C45 1_555 1_555
N4 C12 1_555 1_555
N9 C27 1_555 1_555
N14 C42 1_555 1_555
C4 C5 1_555 1_555
C19 C20 1_555 1_555
C34 C35 1_555 1_555
C40 C41 1_555 1_555

#END
