
#######################################################################
#
#                 Cambridge Crystallographic Data Centre
#                                CCDC 
#
#######################################################################
#
# If this CIF has been generated from an entry in the Cambridge 
# Structural Database, then it will include bibliographic, chemical, 
# crystal, experimental, refinement or atomic coordinate data resulting 
# from the CCDC's data processing and validation procedures.
#
#######################################################################

data_BODVUN
_chemical_formula_moiety         'C17 H20 N1 O2 1+,C6 H2 N3 O7 1-'
_chemical_name_systematic        
'4-(2-(3,4-dimethoxyphenyl)vinyl)-1-ethylpyridinium 2,4,6-trinitrophenolate'
_symmetry_cell_setting           monoclinic
_symmetry_space_group_name_H-M   'P 21/c'
_symmetry_Int_Tables_number      14
_space_group_name_Hall           '-P 2ybc'
loop_
_symmetry_equiv_pos_site_id
_symmetry_equiv_pos_as_xyz
1 x,y,z
2 -x,1/2+y,1/2-z
3 -x,-y,-z
4 x,1/2-y,1/2+z
_cell_length_a                   14.2243(10)
_cell_length_b                   14.4190(9)
_cell_length_c                   22.4404(15)
_cell_angle_alpha                90
_cell_angle_beta                 104.933(4)
_cell_angle_gamma                90
_cell_volume                     4447.09
_cell_formula_units_Z            8
loop_
_atom_site_label
_atom_site_type_symbol
_atom_site_fract_x
_atom_site_fract_y
_atom_site_fract_z
O1 O 0.3033(3) 0.9370(2) 0.18079(16)
O2 O 0.4440(2) 0.8325(2) 0.23783(15)
N1 N 0.7545(3) 1.0979(3) 0.62928(18)
C1 C 0.7638(4) 1.0107(4) 0.6114(2)
H1 H 0.8078 0.9699 0.6380
C2 C 0.7113(4) 0.9798(4) 0.5557(3)
H2 H 0.7195 0.9177 0.5439
C3 C 0.6453(4) 1.0375(4) 0.5151(2)
C4 C 0.6376(4) 1.1270(4) 0.5351(2)
H3 H 0.5937 1.1689 0.5094
C5 C 0.6924(4) 1.1562(4) 0.5916(3)
H4 H 0.6866 1.2184 0.6043
C6 C 0.5907(4) 1.0027(4) 0.4552(2)
H5 H 0.6030 0.9408 0.4448
C7 C 0.5255(4) 1.0505(4) 0.4143(2)
H6 H 0.5135 1.1118 0.4260
C8 C 0.4692(4) 1.0209(4) 0.3531(2)
C9 C 0.3955(4) 1.0778(4) 0.3204(2)
H7 H 0.3836 1.1352 0.3378
C10 C 0.3388(4) 1.0529(4) 0.2626(2)
H8 H 0.2880 1.0927 0.2411
C11 C 0.3561(4) 0.9701(4) 0.2362(2)
C12 C 0.4324(4) 0.9119(4) 0.2688(2)
C13 C 0.4869(4) 0.9365(4) 0.3263(2)
H9 H 0.5369 0.8964 0.3483
C14 C 0.2210(5) 0.9921(4) 0.1496(3)
H10 H 0.1882 0.9623 0.1105
H11 H 0.2431 1.0540 0.1414
H12 H 0.1755 0.9975 0.1756
C15 C 0.5317(4) 0.7810(4) 0.2619(2)
H13 H 0.5324 0.7264 0.2360
H14 H 0.5347 0.7611 0.3041
H15 H 0.5880 0.8203 0.2621
C16 C 0.8182(4) 1.1280(4) 0.6902(2)
H16 H 0.8848 1.1383 0.6856
H17 H 0.8218 1.0769 0.7202
C17 C 0.7858(4) 1.2142(4) 0.7165(2)
H18 H 0.8309 1.2280 0.7565
H19 H 0.7203 1.2047 0.7220
H20 H 0.7848 1.2662 0.6882
O3 O 0.8142(2) 0.6941(2) 0.17923(16)
O4 O 0.9365(2) 0.5789(2) 0.24239(14)
N2 N 1.2648(3) 0.8529(3) 0.62832(19)
C18 C 1.2682(4) 0.7624(4) 0.6133(2)
H21 H 1.3087 0.7209 0.6416
C19 C 1.2143(4) 0.7302(4) 0.5582(3)
H22 H 1.2166 0.6661 0.5489
C20 C 1.1549(4) 0.7894(4) 0.5143(2)
C21 C 1.1553(4) 0.8821(4) 0.5315(2)
H23 H 1.1168 0.9253 0.5036
C22 C 1.2097(4) 0.9125(4) 0.5876(3)
H24 H 1.2086 0.9763 0.5979
C23 C 1.0985(4) 0.7542(4) 0.4554(2)
H25 H 1.1092 0.6918 0.4455
C24 C 1.0329(4) 0.8027(4) 0.4143(2)
H26 H 1.0231 0.8648 0.4255
C25 C 0.9740(4) 0.7724(4) 0.3541(2)
C26 C 0.9058(4) 0.8329(4) 0.3199(2)
H27 H 0.8973 0.8918 0.3367
C27 C 0.8492(4) 0.8100(4) 0.2613(3)
H28 H 0.8021 0.8523 0.2387
C28 C 0.8626(4) 0.7251(4) 0.2367(2)
C29 C 0.9305(4) 0.6612(4) 0.2716(2)
C30 C 0.9851(4) 0.6844(4) 0.3291(2)
H29 H 1.0307 0.6413 0.3523
C31 C 0.7536(4) 0.7610(4) 0.1403(3)
H30 H 0.7223 0.7324 0.1005
H31 H 0.7933 0.8137 0.1338
H32 H 0.7036 0.7827 0.1600
C32 C 1.0214(4) 0.5247(4) 0.2669(2)
H33 H 1.0184 0.4678 0.2426
H34 H 1.0251 0.5088 0.3099
H35 H 1.0792 0.5604 0.2650
C33 C 1.3253(4) 0.8843(4) 0.6894(2)
H36 H 1.3882 0.9076 0.6843
H37 H 1.3393 0.8302 0.7175
C34 C 1.2789(4) 0.9587(4) 0.7188(3)
H38 H 1.3224 0.9754 0.7589
H39 H 1.2171 0.9360 0.7248
H40 H 1.2670 1.0135 0.6921
O5 O 0.8860(3) 0.5850(3) -0.01082(17)
O6 O 0.9734(3) 0.5567(3) 0.10838(17)
O7 O 1.0617(3) 0.6693(3) 0.15519(17)
O8 O 0.9971(3) 0.9817(3) 0.09106(18)
O9 O 0.8856(3) 1.0146(3) 0.00822(16)
O10 O 0.7273(3) 0.7813(3) -0.12570(18)
O11 O 0.7347(3) 0.6379(3) -0.10074(17)
N3 N 0.9974(3) 0.6389(4) 0.1125(2)
N4 N 0.9338(3) 0.9576(3) 0.0449(2)
N5 N 0.7622(3) 0.7189(3) -0.0901(2)
C35 C 0.8875(4) 0.6678(4) 0.0058(2)
C36 C 0.9467(4) 0.7032(4) 0.0646(2)
C37 C 0.9630(3) 0.7954(4) 0.0773(2)
H41 H 1.0057 0.8149 0.1152
C38 C 0.9155(4) 0.8605(4) 0.0334(2)
C39 C 0.8503(3) 0.8326(4) -0.0203(2)
H42 H 0.8165 0.8778 -0.0486
C40 C 0.8340(4) 0.7409(4) -0.0333(2)
O12 O 0.6216(3) 0.3298(3) 0.50499(16)
O13 O 0.7101(4) 0.3941(4) 0.6160(2)
O14 O 0.7893(3) 0.5185(3) 0.61589(17)
O15 O 0.6145(3) 0.7608(3) 0.48828(17)
O16 O 0.5094(3) 0.7275(3) 0.40273(18)
O17 O 0.4226(3) 0.4165(3) 0.34915(18)
O18 O 0.5137(3) 0.3024(3) 0.39091(17)
N6 N 0.7268(3) 0.4651(3) 0.5896(2)
N7 N 0.5692(3) 0.7039(3) 0.4500(2)
N8 N 0.4929(3) 0.3850(4) 0.3881(2)
C41 C 0.6130(4) 0.4128(4) 0.4905(2)
C42 C 0.6635(4) 0.4870(4) 0.5302(2)
C43 C 0.6513(3) 0.5789(4) 0.5164(2)
H43 H 0.6863 0.6238 0.5444
C44 C 0.5882(4) 0.6070(4) 0.4616(2)
C45 C 0.5388(3) 0.5413(4) 0.4199(2)
H44 H 0.4962 0.5607 0.3820
C46 C 0.5510(4) 0.4489(4) 0.4330(2)
loop_
_geom_bond_atom_site_label_1
_geom_bond_atom_site_label_2
_geom_bond_site_symmetry_1
_geom_bond_site_symmetry_2
O1 C11 1_555 1_555
O2 C12 1_555 1_555
N1 C1 1_555 1_555
C1 H1 1_555 1_555
C2 C1 1_555 1_555
H2 C2 1_555 1_555
C3 C2 1_555 1_555
C4 C3 1_555 1_555
H3 C4 1_555 1_555
C5 N1 1_555 1_555
H4 C5 1_555 1_555
C6 C3 1_555 1_555
H5 C6 1_555 1_555
C7 C6 1_555 1_555
H6 C7 1_555 1_555
C8 C7 1_555 1_555
C9 C8 1_555 1_555
H7 C9 1_555 1_555
C10 C9 1_555 1_555
H8 C10 1_555 1_555
C11 C10 1_555 1_555
C12 C11 1_555 1_555
C13 C8 1_555 1_555
H9 C13 1_555 1_555
C14 O1 1_555 1_555
H10 C14 1_555 1_555
H11 C14 1_555 1_555
H12 C14 1_555 1_555
C15 O2 1_555 1_555
H13 C15 1_555 1_555
H14 C15 1_555 1_555
H15 C15 1_555 1_555
C16 N1 1_555 1_555
H16 C16 1_555 1_555
H17 C16 1_555 1_555
C17 C16 1_555 1_555
H18 C17 1_555 1_555
H19 C17 1_555 1_555
H20 C17 1_555 1_555
O3 C28 1_555 1_555
O4 C29 1_555 1_555
N2 C18 1_555 1_555
C18 H21 1_555 1_555
C19 C18 1_555 1_555
H22 C19 1_555 1_555
C20 C19 1_555 1_555
C21 C20 1_555 1_555
H23 C21 1_555 1_555
C22 N2 1_555 1_555
H24 C22 1_555 1_555
C23 C20 1_555 1_555
H25 C23 1_555 1_555
C24 C23 1_555 1_555
H26 C24 1_555 1_555
C25 C24 1_555 1_555
C26 C25 1_555 1_555
H27 C26 1_555 1_555
C27 C26 1_555 1_555
H28 C27 1_555 1_555
C28 C27 1_555 1_555
C29 C28 1_555 1_555
C30 C25 1_555 1_555
H29 C30 1_555 1_555
C31 O3 1_555 1_555
H30 C31 1_555 1_555
H31 C31 1_555 1_555
H32 C31 1_555 1_555
C32 O4 1_555 1_555
H33 C32 1_555 1_555
H34 C32 1_555 1_555
H35 C32 1_555 1_555
C33 N2 1_555 1_555
H36 C33 1_555 1_555
H37 C33 1_555 1_555
C34 C33 1_555 1_555
H38 C34 1_555 1_555
H39 C34 1_555 1_555
H40 C34 1_555 1_555
O5 C35 1_555 1_555
O6 N3 1_555 1_555
O7 N3 1_555 1_555
O8 N4 1_555 1_555
O9 N4 1_555 1_555
O10 N5 1_555 1_555
O11 N5 1_555 1_555
N3 C36 1_555 1_555
N4 C38 1_555 1_555
N5 C40 1_555 1_555
C35 C36 1_555 1_555
C36 C37 1_555 1_555
C37 H41 1_555 1_555
C38 C37 1_555 1_555
C39 C38 1_555 1_555
H42 C39 1_555 1_555
C40 C35 1_555 1_555
O12 C41 1_555 1_555
O13 N6 1_555 1_555
O14 N6 1_555 1_555
O15 N7 1_555 1_555
O16 N7 1_555 1_555
O17 N8 1_555 1_555
O18 N8 1_555 1_555
N6 C42 1_555 1_555
N7 C44 1_555 1_555
N8 C46 1_555 1_555
C41 C42 1_555 1_555
C42 C43 1_555 1_555
C43 H43 1_555 1_555
C44 C43 1_555 1_555
C45 C44 1_555 1_555
H44 C45 1_555 1_555
C46 C41 1_555 1_555
C4 C5 1_555 1_555
C12 C13 1_555 1_555
C21 C22 1_555 1_555
C29 C30 1_555 1_555
C39 C40 1_555 1_555
C45 C46 1_555 1_555

#END
