
#######################################################################
#
#                 Cambridge Crystallographic Data Centre
#                                CCDC 
#
#######################################################################
#
# If this CIF has been generated from an entry in the Cambridge 
# Structural Database, then it will include bibliographic, chemical, 
# crystal, experimental, refinement or atomic coordinate data resulting 
# from the CCDC's data processing and validation procedures.
#
#######################################################################

data_BODVIB
_chemical_formula_moiety         
'C17 H20 N1 O2 1+,C7 H7 O3 S1 1-,0.5(C2 H3 N1),1.5(H2 O1)'
_chemical_name_systematic        
'4-(2-(3,4-dimethoxyphenyl)vinyl)-1-ethylpyridinium 4-methylbenzenesulfonate acetonitrile solvate sesquihydrate'
_symmetry_cell_setting           monoclinic
_symmetry_space_group_name_H-M   'P 21/n'
_symmetry_Int_Tables_number      14
_space_group_name_Hall           '-P 2yn'
loop_
_symmetry_equiv_pos_site_id
_symmetry_equiv_pos_as_xyz
1 x,y,z
2 1/2-x,1/2+y,1/2-z
3 -x,-y,-z
4 1/2+x,1/2-y,1/2+z
_cell_length_a                   15.6904(6)
_cell_length_b                   21.8223(8)
_cell_length_c                   15.8024(6)
_cell_angle_alpha                90
_cell_angle_beta                 113.2560(10)
_cell_angle_gamma                90
_cell_volume                     4971.13
_cell_formula_units_Z            8
loop_
_atom_site_label
_atom_site_type_symbol
_atom_site_fract_x
_atom_site_fract_y
_atom_site_fract_z
S1 S 0.22751(8) 0.12460(5) 0.88826(7)
O1 O 0.15526(19) 0.16142(12) 0.90103(19)
O2 O 0.2828(2) 0.15971(13) 0.8507(2)
O3 O 0.1902(2) 0.06800(12) 0.83776(19)
C1 C 0.3027(3) 0.10258(17) 1.0009(3)
C2 C 0.2673(3) 0.07317(17) 1.0575(3)
H1 H 0.2037 0.0618 1.0337
C3 C 0.3229(3) 0.06014(18) 1.1478(3)
H2 H 0.2968 0.0408 1.1859
C4 C 0.4163(3) 0.07480(17) 1.1838(3)
C5 C 0.4513(3) 0.10298(19) 1.1264(3)
H3 H 0.5154 0.1127 1.1496
C6 C 0.3955(3) 0.11764(19) 1.0355(3)
H4 H 0.4212 0.1378 0.9977
C7 C 0.4763(3) 0.0595(2) 1.2829(3)
H5 H 0.4523 0.0806 1.3237
H6 H 0.5401 0.0729 1.2971
H7 H 0.4754 0.0152 1.2923
S2 S 0.23284(8) 0.12533(5) 0.38734(8)
O4 O 0.2179(2) 0.19054(12) 0.3817(2)
O5 O 0.1486(2) 0.08968(15) 0.3543(2)
O6 O 0.2963(2) 0.10636(15) 0.3448(2)
C8 C 0.2910(3) 0.10847(16) 0.5065(3)
C9 C 0.2406(3) 0.09583(17) 0.5598(3)
H8 H 0.1747 0.0953 0.5324
C10 C 0.2871(3) 0.08394(17) 0.6535(3)
H9 H 0.2523 0.0753 0.6895
C11 C 0.3824(3) 0.08451(17) 0.6949(3)
C12 C 0.4318(3) 0.09863(17) 0.6409(3)
H10 H 0.4977 0.0999 0.6688
C13 C 0.3871(3) 0.11089(17) 0.5477(3)
H11 H 0.4219 0.1209 0.5123
C14 C 0.4322(4) 0.0693(2) 0.7960(3)
H12 H 0.4055 0.0933 0.8319
H13 H 0.4982 0.0791 0.8161
H14 H 0.4251 0.0255 0.8055
O7 O 0.1432(2) 0.40709(12) 0.07530(18)
O8 O 0.11109(18) 0.30625(12) 0.13864(18)
N1 N 0.4158(2) 0.28456(14) 0.7882(2)
C15 C 0.3558(3) 0.24468(18) 0.7290(3)
H15 H 0.3380 0.2090 0.7523
C16 C 0.3207(3) 0.25472(18) 0.6371(3)
H16 H 0.2801 0.2252 0.5969
C17 C 0.3426(3) 0.30750(17) 0.5999(3)
C18 C 0.4055(3) 0.34798(18) 0.6637(3)
H17 H 0.4230 0.3846 0.6422
C19 C 0.4417(3) 0.33569(18) 0.7556(3)
H18 H 0.4853 0.3631 0.7972
C20 C 0.3013(3) 0.31753(17) 0.5016(3)
H19 H 0.2607 0.2865 0.4654
C21 C 0.3143(3) 0.36604(17) 0.4563(3)
H20 H 0.3556 0.3968 0.4923
C22 C 0.2714(3) 0.37637(17) 0.3577(3)
C23 C 0.2901(3) 0.42975(17) 0.3208(3)
H21 H 0.3320 0.4587 0.3606
C24 C 0.2491(3) 0.44195(17) 0.2268(3)
H22 H 0.2624 0.4791 0.2032
C25 C 0.1892(3) 0.40011(17) 0.1681(3)
C26 C 0.1705(3) 0.34462(17) 0.2037(3)
C27 C 0.2106(3) 0.33336(17) 0.2966(3)
H23 H 0.1973 0.2962 0.3202
C28 C 0.1542(3) 0.46483(18) 0.0366(3)
H24 H 0.1156 0.4652 -0.0296
H25 H 0.2194 0.4703 0.0463
H26 H 0.1351 0.4982 0.0667
C29 C 0.0822(3) 0.25247(18) 0.1706(3)
H27 H 0.0375 0.2301 0.1181
H28 H 0.0531 0.2639 0.2129
H29 H 0.1362 0.2264 0.2028
C30 C 0.4563(3) 0.27006(19) 0.8880(3)
H30 H 0.4096 0.2485 0.9047
H31 H 0.4733 0.3086 0.9239
C31 C 0.5416(3) 0.2301(2) 0.9121(3)
H32 H 0.5257 0.1933 0.8734
H33 H 0.5641 0.2182 0.9771
H34 H 0.5901 0.2530 0.9013
O9 O 0.15756(19) 0.38937(12) -0.41671(19)
O10 O 0.12451(18) 0.28666(12) -0.35847(18)
N2 N 0.3933(2) 0.25917(15) 0.2920(2)
C32 C 0.3372(3) 0.21848(18) 0.2315(3)
H35 H 0.3232 0.1807 0.2530
C33 C 0.3004(3) 0.23127(18) 0.1397(3)
H36 H 0.2606 0.2024 0.0975
C34 C 0.3208(3) 0.28678(17) 0.1070(3)
C35 C 0.3790(3) 0.32764(18) 0.1715(3)
H37 H 0.3944 0.3657 0.1521
C36 C 0.4139(3) 0.31299(19) 0.2631(3)
H38 H 0.4532 0.3412 0.3070
C37 C 0.2832(3) 0.29756(18) 0.0072(3)
H39 H 0.2512 0.2645 -0.0313
C38 C 0.2897(3) 0.34964(18) -0.0345(3)
H40 H 0.3210 0.3827 0.0044
C39 C 0.2535(3) 0.36103(17) -0.1339(3)
C40 C 0.2673(3) 0.41713(18) -0.1671(3)
H41 H 0.2981 0.4486 -0.1244
C41 C 0.2377(3) 0.42892(18) -0.2601(3)
H42 H 0.2493 0.4677 -0.2808
C42 C 0.1909(3) 0.38387(17) -0.3231(3)
C43 C 0.1740(3) 0.32675(17) -0.2909(3)
C44 C 0.2050(3) 0.31549(17) -0.1983(3)
H43 H 0.1938 0.2767 -0.1773
C45 C 0.1702(3) 0.44676(18) -0.4529(3)
H44 H 0.1440 0.4448 -0.5203
H45 H 0.2366 0.4561 -0.4303
H46 H 0.1387 0.4789 -0.4329
C46 C 0.0975(3) 0.23001(19) -0.3299(3)
H47 H 0.0564 0.2073 -0.3842
H48 H 0.0649 0.2387 -0.2896
H49 H 0.1529 0.2054 -0.2964
C47 C 0.4381(3) 0.24251(19) 0.3913(3)
H50 H 0.3978 0.2138 0.4071
H51 H 0.4467 0.2798 0.4296
C48 C 0.5306(3) 0.21307(19) 0.4111(3)
H52 H 0.5222 0.1772 0.3713
H53 H 0.5583 0.2002 0.4758
H54 H 0.5717 0.2426 0.3993
O11 O 0.0872(2) 0.06851(15) 0.1552(2)
H55 H 0.1141 0.0767 0.2138
H56 H 0.0419 0.0429 0.1458
O12 O 0.0379(2) 0.12448(16) 0.9873(2)
O14 O -0.0248(19) -0.0345(17) 0.139(2)
H59 H -0.0502 -0.0540 0.1712
H60 H -0.0233 -0.0582 0.0954
N3 N 0.5042(4) 0.4128(2) 0.0329(4)
C49 C 0.5119(4) 0.4491(3) 0.0895(5)
C50 C 0.5105(5) 0.4949(3) 0.1525(5)
H61 H 0.5158 0.5354 0.1281
H62 H 0.5626 0.4886 0.2118
H63 H 0.4520 0.4925 0.1610
O13? O -0.0489(18) -0.0101(15) 0.110(2)
H57? H -0.0392 -0.0190 0.0608
H58? H -0.1043 -0.0221 0.1027
loop_
_geom_bond_atom_site_label_1
_geom_bond_atom_site_label_2
_geom_bond_site_symmetry_1
_geom_bond_site_symmetry_2
S1 O1 1_555 1_555
O2 S1 1_555 1_555
O3 S1 1_555 1_555
C1 S1 1_555 1_555
C2 C1 1_555 1_555
H1 C2 1_555 1_555
C3 C2 1_555 1_555
H2 C3 1_555 1_555
C4 C3 1_555 1_555
C5 C4 1_555 1_555
H3 C5 1_555 1_555
C6 C1 1_555 1_555
H4 C6 1_555 1_555
C7 C4 1_555 1_555
H5 C7 1_555 1_555
H6 C7 1_555 1_555
H7 C7 1_555 1_555
S2 O4 1_555 1_555
O5 S2 1_555 1_555
O6 S2 1_555 1_555
C8 S2 1_555 1_555
C9 C8 1_555 1_555
H8 C9 1_555 1_555
C10 C9 1_555 1_555
H9 C10 1_555 1_555
C11 C10 1_555 1_555
C12 C11 1_555 1_555
H10 C12 1_555 1_555
C13 C8 1_555 1_555
H11 C13 1_555 1_555
C14 C11 1_555 1_555
H12 C14 1_555 1_555
H13 C14 1_555 1_555
H14 C14 1_555 1_555
O7 C25 1_555 1_555
O8 C26 1_555 1_555
N1 C15 1_555 1_555
C15 H15 1_555 1_555
C16 C15 1_555 1_555
H16 C16 1_555 1_555
C17 C16 1_555 1_555
C18 C17 1_555 1_555
H17 C18 1_555 1_555
C19 N1 1_555 1_555
H18 C19 1_555 1_555
C20 C17 1_555 1_555
H19 C20 1_555 1_555
C21 C20 1_555 1_555
H20 C21 1_555 1_555
C22 C21 1_555 1_555
C23 C22 1_555 1_555
H21 C23 1_555 1_555
C24 C23 1_555 1_555
H22 C24 1_555 1_555
C25 C24 1_555 1_555
C26 C25 1_555 1_555
C27 C22 1_555 1_555
H23 C27 1_555 1_555
C28 O7 1_555 1_555
H24 C28 1_555 1_555
H25 C28 1_555 1_555
H26 C28 1_555 1_555
C29 O8 1_555 1_555
H27 C29 1_555 1_555
H28 C29 1_555 1_555
H29 C29 1_555 1_555
C30 N1 1_555 1_555
H30 C30 1_555 1_555
H31 C30 1_555 1_555
C31 C30 1_555 1_555
H32 C31 1_555 1_555
H33 C31 1_555 1_555
H34 C31 1_555 1_555
O9 C42 1_555 1_555
O10 C43 1_555 1_555
N2 C32 1_555 1_555
C32 H35 1_555 1_555
C33 C32 1_555 1_555
H36 C33 1_555 1_555
C34 C33 1_555 1_555
C35 C34 1_555 1_555
H37 C35 1_555 1_555
C36 N2 1_555 1_555
H38 C36 1_555 1_555
C37 C34 1_555 1_555
H39 C37 1_555 1_555
C38 C37 1_555 1_555
H40 C38 1_555 1_555
C39 C38 1_555 1_555
C40 C39 1_555 1_555
H41 C40 1_555 1_555
C41 C40 1_555 1_555
H42 C41 1_555 1_555
C42 C41 1_555 1_555
C43 C42 1_555 1_555
C44 C39 1_555 1_555
H43 C44 1_555 1_555
C45 O9 1_555 1_555
H44 C45 1_555 1_555
H45 C45 1_555 1_555
H46 C45 1_555 1_555
C46 O10 1_555 1_555
H47 C46 1_555 1_555
H48 C46 1_555 1_555
H49 C46 1_555 1_555
C47 N2 1_555 1_555
H50 C47 1_555 1_555
H51 C47 1_555 1_555
C48 C47 1_555 1_555
H52 C48 1_555 1_555
H53 C48 1_555 1_555
H54 C48 1_555 1_555
O11 H55 1_555 1_555
H56 O11 1_555 1_555
O14 H59 1_555 1_555
H60 O14 1_555 1_555
N3 C49 1_555 1_555
C49 C50 1_555 1_555
C50 H61 1_555 1_555
H62 C50 1_555 1_555
H63 C50 1_555 1_555
C5 C6 1_555 1_555
C12 C13 1_555 1_555
C18 C19 1_555 1_555
C26 C27 1_555 1_555
C35 C36 1_555 1_555
C43 C44 1_555 1_555

#END
