
#######################################################################
#
#                 Cambridge Crystallographic Data Centre
#                                CCDC 
#
#######################################################################
#
# If this CIF has been generated from an entry in the Cambridge 
# Structural Database, then it will include bibliographic, chemical, 
# crystal, experimental, refinement or atomic coordinate data resulting 
# from the CCDC's data processing and validation procedures.
#
#######################################################################

data_BODZOK
_chemical_compound_source        
'endophytic fungus No. B77 from the mangrove tree on the South China Sea coast'
_chemical_formula_moiety         'C15 H12 O6'
_chemical_name_systematic        Anhydrofusarubin
_chemical_properties_biological  
'strong inhibitory activity against Gram-positive bacterium Staphylococcus aureus (ATCC27154)'
_symmetry_cell_setting           triclinic
_symmetry_space_group_name_H-M   'P -1'
_symmetry_Int_Tables_number      2
_space_group_name_Hall           '-P 1'
loop_
_symmetry_equiv_pos_site_id
_symmetry_equiv_pos_as_xyz
1 x,y,z
2 -x,-y,-z
_cell_length_a                   8.3185(15)
_cell_length_b                   12.397(2)
_cell_length_c                   13.767(3)
_cell_angle_alpha                65.692(3)
_cell_angle_beta                 79.266(3)
_cell_angle_gamma                75.692(3)
_cell_volume                     1247.96
_exptl_crystal_description       plate
_chemical_melting_point          199-202deg.C
_cell_formula_units_Z            4
_exptl_crystal_recrystallization_method methanol
loop_
_atom_site_label
_atom_site_type_symbol
_atom_site_fract_x
_atom_site_fract_y
_atom_site_fract_z
O1 O 0.42994(17) 0.20549(13) 0.31622(11)
O2 O 0.42618(18) 0.43087(13) 0.25674(12)
C1 C 0.6005(2) 0.31544(16) 0.16444(14)
C2 C 0.6047(2) 0.10214(17) 0.21346(15)
C3 C 0.7239(2) 0.31406(17) 0.07843(14)
O3 O 0.75459(19) -0.11682(13) 0.19504(13)
O4 O 0.90053(19) 0.20102(15) -0.01900(12)
O5 O 0.52798(18) 0.63086(12) 0.13437(11)
O6 O 0.8945(2) 0.42407(14) -0.06701(12)
C4 C 0.5431(2) 0.20987(16) 0.23279(14)
C5 C 0.5338(2) 0.42531(17) 0.18272(15)
C6 C 0.7227(2) 0.10259(17) 0.12861(15)
C7 C 0.5987(2) 0.53553(17) 0.10869(15)
C8 C 0.7155(3) 0.53278(18) 0.02783(16)
H1 H 0.7536 0.6032 -0.0172
C9 C 0.7846(2) 0.20723(18) 0.06162(15)
C10 C 0.7841(2) 0.42313(18) 0.00877(15)
C11 C 0.5500(2) -0.00899(17) 0.28130(17)
H2 H 0.4613 -0.0092 0.3336
C12 C 0.6253(2) -0.11129(18) 0.26969(16)
C13 C 0.5906(3) -0.23339(19) 0.3388(2)
H3 H 0.4985 -0.2271 0.3910
H4 H 0.6873 -0.2828 0.3745
H5 H 0.5634 -0.2692 0.2954
C14 C 0.7761(3) -0.00969(19) 0.10541(17)
H6 H 0.7130 -0.0020 0.0495
H7 H 0.8929 -0.0167 0.0781
C15 C 0.5834(3) 0.74190(19) 0.06994(19)
H8 H 0.5241 0.8032 0.0959
H9 H 0.5624 0.7658 -0.0030
H10 H 0.7007 0.7312 0.0737
H22 H 0.402(3) 0.288(3) 0.314(2)
H24 H 0.923(4) 0.288(3) -0.054(2)
O7 O 0.15702(17) 1.22160(12) 0.50805(11)
O8 O -0.18374(19) 0.83498(14) 0.84302(11)
O9 O 0.25600(17) 1.01155(13) 0.49472(11)
O10 O -0.02124(18) 1.36631(12) 0.59838(12)
C16 C 0.1285(2) 0.85314(16) 0.61827(14)
C17 C 0.1448(2) 0.97548(16) 0.57906(14)
O11 O -0.26868(19) 1.04344(14) 0.85136(11)
C18 C -0.0670(2) 1.00457(16) 0.71904(14)
C19 C 0.0462(2) 1.05103(16) 0.62819(14)
C20 C 0.0178(2) 0.80869(16) 0.70600(14)
C21 C -0.1535(2) 1.20808(18) 0.72813(16)
H11 H -0.2194 1.2586 0.7608
O12 O 0.13887(19) 0.60518(12) 0.71103(12)
C22 C -0.0792(2) 0.88395(17) 0.75731(14)
C23 C 0.0604(2) 1.17637(17) 0.58691(15)
C24 C -0.0474(2) 1.25288(17) 0.64309(16)
C25 C -0.0025(3) 0.68134(17) 0.74163(17)
H12 H -0.0243 0.6482 0.8190
H13 H -0.0991 0.6807 0.7119
C26 C -0.1685(2) 1.08306(19) 0.77069(15)
C27 C 0.2266(2) 0.77177(17) 0.56947(16)
H14 H 0.2892 0.8021 0.5042
C28 C 0.2283(3) 0.65429(18) 0.61665(16)
C29 C -0.1167(3) 1.4488(2) 0.6462(2)
H15 H -0.0873 1.5267 0.6075
H16 H -0.0933 1.4197 0.7194
H17 H -0.2334 1.4551 0.6438
C30 C 0.3327(3) 0.5600(2) 0.5792(2)
H18 H 0.3946 0.5975 0.5122
H19 H 0.2623 0.5147 0.5701
H20 H 0.4086 0.5068 0.6314
H21 H 0.244(3) 1.094(3) 0.480(2)
H23 H -0.227(3) 0.899(3) 0.863(2)
loop_
_geom_bond_atom_site_label_1
_geom_bond_atom_site_label_2
_geom_bond_site_symmetry_1
_geom_bond_site_symmetry_2
O1 C4 1_555 1_555
O2 C5 1_555 1_555
C1 C3 1_555 1_555
C2 C4 1_555 1_555
C3 C9 1_555 1_555
O3 C12 1_555 1_555
O4 C9 1_555 1_555
O5 C7 1_555 1_555
O6 C10 1_555 1_555
C4 C1 1_555 1_555
C5 C1 1_555 1_555
C6 C2 1_555 1_555
C7 C5 1_555 1_555
C8 C7 1_555 1_555
H1 C8 1_555 1_555
C9 C6 1_555 1_555
C10 C3 1_555 1_555
C11 C2 1_555 1_555
H2 C11 1_555 1_555
C12 C11 1_555 1_555
C13 C12 1_555 1_555
H3 C13 1_555 1_555
H4 C13 1_555 1_555
H5 C13 1_555 1_555
C14 O3 1_555 1_555
H6 C14 1_555 1_555
H7 C14 1_555 1_555
C15 O5 1_555 1_555
H8 C15 1_555 1_555
H9 C15 1_555 1_555
H10 C15 1_555 1_555
O7 C23 1_555 1_555
O8 C22 1_555 1_555
O9 C17 1_555 1_555
O10 C24 1_555 1_555
C16 C17 1_555 1_555
C17 C19 1_555 1_555
O11 C26 1_555 1_555
C18 C19 1_555 1_555
C19 C23 1_555 1_555
C20 C16 1_555 1_555
C21 H11 1_555 1_555
O12 C25 1_555 1_555
C22 C18 1_555 1_555
C23 C24 1_555 1_555
C24 C21 1_555 1_555
C25 C20 1_555 1_555
H12 C25 1_555 1_555
H13 C25 1_555 1_555
C26 C18 1_555 1_555
C27 C16 1_555 1_555
H14 C27 1_555 1_555
C28 O12 1_555 1_555
C29 O10 1_555 1_555
H15 C29 1_555 1_555
H16 C29 1_555 1_555
H17 C29 1_555 1_555
C30 C28 1_555 1_555
H18 C30 1_555 1_555
H19 C30 1_555 1_555
H20 C30 1_555 1_555
H21 O9 1_555 1_555
H22 O1 1_555 1_555
H23 O8 1_555 1_555
H24 O4 1_555 1_555
C6 C14 1_555 1_555
C8 C10 1_555 1_555
C20 C22 1_555 1_555
C21 C26 1_555 1_555
C27 C28 1_555 1_555

#END
