
#######################################################################
#
#                 Cambridge Crystallographic Data Centre
#                                CCDC 
#
#######################################################################
#
# If this CIF has been generated from an entry in the Cambridge 
# Structural Database, then it will include bibliographic, chemical, 
# crystal, experimental, refinement or atomic coordinate data resulting 
# from the CCDC's data processing and validation procedures.
#
#######################################################################

data_BOFBUU
_chemical_formula_moiety         'C24 H21 N7,C16 H36 N1 1+,F1 1-,2.5(H2 O1)'
_chemical_name_systematic        
'tris((2-Benzimidazolyl)methyl)amine tetra-n-butylammonium fluoride hydrate'
_symmetry_cell_setting           monoclinic
_symmetry_space_group_name_H-M   'P 21/n'
_symmetry_Int_Tables_number      14
_space_group_name_Hall           '-P 2yn'
loop_
_symmetry_equiv_pos_site_id
_symmetry_equiv_pos_as_xyz
1 x,y,z
2 1/2-x,1/2+y,1/2-z
3 -x,-y,-z
4 1/2+x,1/2-y,1/2+z
_cell_length_a                   9.030(4)
_cell_length_b                   24.448(10)
_cell_length_c                   18.932(8)
_cell_angle_alpha                90
_cell_angle_beta                 95.146(7)
_cell_angle_gamma                90
_cell_volume                     4162.69
_exptl_crystal_colour            colorless
_exptl_crystal_description       block
_cell_formula_units_Z            4
loop_
_atom_site_label
_atom_site_type_symbol
_atom_site_fract_x
_atom_site_fract_y
_atom_site_fract_z
N1 N -0.0388(3) 0.05683(11) 0.19395(15)
N2 N 0.1407(4) 0.00872(12) 0.09394(15)
H1 H 0.1774 0.0405 0.1044
N3 N -0.0254(4) -0.05890(14) 0.08112(17)
N4 N 0.0076(3) 0.16277(11) 0.13991(14)
H2 H 0.0858 0.1427 0.1400
N5 N -0.2192(3) 0.18975(13) 0.16347(17)
N6 N 0.1753(4) 0.02622(12) 0.36247(16)
N7 N 0.2467(3) 0.07058(11) 0.26739(16)
H3 H 0.2434 0.0830 0.2248
C1 C -0.1086(4) 0.02818(15) 0.1316(2)
H4 H -0.1465 0.0546 0.0963
H5 H -0.1917 0.0066 0.1450
C2 C 0.0012(5) -0.00803(16) 0.10114(19)
C3 C 0.1069(6) -0.07610(16) 0.05836(19)
C4 C 0.1471(7) -0.12698(18) 0.0315(2)
H6 H 0.0788 -0.1554 0.0247
C5 C 0.2920(9) -0.1331(2) 0.0158(2)
H7 H 0.3216 -0.1665 -0.0016
C6 C 0.3961(7) -0.0911(2) 0.0249(2)
H8 H 0.4930 -0.0968 0.0135
C7 C 0.3560(6) -0.04063(18) 0.0508(2)
H9 H 0.4245 -0.0122 0.0571
C8 C 0.2125(5) -0.03411(16) 0.06691(19)
C9 C -0.1291(4) 0.10180(15) 0.2167(2)
H10 H -0.0974 0.1108 0.2656
H11 H -0.2322 0.0903 0.2144
C10 C -0.1174(4) 0.15129(15) 0.17210(19)
C11 C -0.0153(5) 0.21288(13) 0.10703(18)
C12 C 0.0728(5) 0.24263(15) 0.0653(2)
H12 H 0.1665 0.2306 0.0554
C13 C 0.0131(6) 0.29150(17) 0.0389(2)
H13 H 0.0679 0.3130 0.0102
C14 C -0.1268(7) 0.30915(18) 0.0544(3)
H14 H -0.1629 0.3425 0.0366
C15 C -0.2124(6) 0.27842(17) 0.0954(2)
H15 H -0.3065 0.2902 0.1050
C16 C -0.1551(5) 0.22906(15) 0.1223(2)
C17 C 0.0071(4) 0.01945(14) 0.2521(2)
H16 H 0.0271 -0.0163 0.2329
H17 H -0.0734 0.0155 0.2824
C18 C 0.1420(4) 0.03944(13) 0.2951(2)
C19 C 0.3140(5) 0.05065(14) 0.3794(2)
C20 C 0.4055(6) 0.04974(17) 0.4428(2)
H18 H 0.3780 0.0314 0.4826
C21 C 0.5369(6) 0.07703(19) 0.4436(3)
H19 H 0.6006 0.0768 0.4850
C22 C 0.5794(5) 0.10492(17) 0.3857(3)
H20 H 0.6702 0.1231 0.3895
C23 C 0.4920(5) 0.10678(15) 0.3221(2)
H21 H 0.5207 0.1258 0.2830
C24 C 0.3592(4) 0.07866(14) 0.3202(2)
N8 N 0.8265(3) 0.17327(11) 0.74417(15)
C25 C 0.7389(4) 0.12408(14) 0.7648(2)
H22 H 0.7109 0.1298 0.8125
H23 H 0.8039 0.0924 0.7661
C26 C 0.5999(4) 0.11074(16) 0.7174(2)
H24 H 0.5332 0.1419 0.7153
H25 H 0.6259 0.1033 0.6698
C27 C 0.5225(5) 0.06175(17) 0.7451(3)
H26 H 0.5911 0.0311 0.7486
H27 H 0.4955 0.0698 0.7925
C28 C 0.3864(6) 0.0457(2) 0.6996(3)
H28 H 0.3144 0.0746 0.6994
H29 H 0.3456 0.0130 0.7180
H30 H 0.4116 0.0393 0.6521
C29 C 0.8583(4) 0.17054(14) 0.66670(19)
H31 H 0.7641 0.1712 0.6377
H32 H 0.9124 0.2033 0.6557
C30 C 0.9453(5) 0.12162(15) 0.6454(2)
H33 H 0.9005 0.0885 0.6619
H34 H 1.0464 0.1238 0.6674
C31 C 0.9472(5) 0.11956(17) 0.5657(2)
H35 H 0.8458 0.1163 0.5443
H36 H 0.9875 0.1536 0.5495
C32 C 1.0378(6) 0.07260(18) 0.5408(3)
H37 H 1.1404 0.0777 0.5574
H38 H 1.0279 0.0714 0.4899
H39 H 1.0025 0.0389 0.5591
C33 C 0.9685(4) 0.17343(15) 0.7936(2)
H40 H 0.9418 0.1728 0.8421
H41 H 1.0229 0.1400 0.7860
C34 C 1.0707(5) 0.22154(18) 0.7853(2)
H42 H 1.1081 0.2200 0.7388
H43 H 1.0150 0.2553 0.7882
C35 C 1.2001(6) 0.2217(2) 0.8416(3)
H44 H 1.2524 0.2563 0.8406
H45 H 1.1637 0.2177 0.8880
C36 C 1.2978(7) 0.1787(3) 0.8300(4)
H46 H 1.2438 0.1448 0.8268
H47 H 1.3740 0.1769 0.8687
H48 H 1.3425 0.1850 0.7866
C37 C 0.7392(4) 0.22568(14) 0.75123(19)
H49 H 0.6456 0.2223 0.7222
H50 H 0.7941 0.2554 0.7318
C38 C 0.7055(5) 0.24169(15) 0.8255(2)
H51 H 0.6539 0.2120 0.8468
H52 H 0.7977 0.2484 0.8546
C39 C 0.6102(5) 0.29258(16) 0.8229(2)
H53 H 0.5170 0.2848 0.7952
H54 H 0.6602 0.3212 0.7987
C40 C 0.5766(6) 0.3137(2) 0.8955(2)
H55 H 0.5255 0.2859 0.9196
H56 H 0.5150 0.3457 0.8897
H57 H 0.6680 0.3228 0.9228
F1 F 0.2589(2) 0.10624(7) 0.13364(10)
O1 O 0.2518(5) 0.12650(17) 0.9898(2)
O2 O 0.4548(3) 0.19190(10) 0.15130(17)
H58 H 0.3927 0.1660 0.1436
H59 H 0.5458 0.1827 0.1577
O3 O 0.4154(11) 0.2277(4) 0.0103(5)
loop_
_geom_bond_atom_site_label_1
_geom_bond_atom_site_label_2
_geom_bond_site_symmetry_1
_geom_bond_site_symmetry_2
N1 C1 1_555 1_555
N2 H1 1_555 1_555
N3 C2 1_555 1_555
N4 H2 1_555 1_555
N5 C10 1_555 1_555
N6 C18 1_555 1_555
N7 H3 1_555 1_555
N8 C25 1_555 1_555
C1 H4 1_555 1_555
H5 C1 1_555 1_555
C2 N2 1_555 1_555
C3 N3 1_555 1_555
C4 C3 1_555 1_555
H6 C4 1_555 1_555
C5 C4 1_555 1_555
H7 C5 1_555 1_555
C6 C5 1_555 1_555
H8 C6 1_555 1_555
C7 C6 1_555 1_555
H9 C7 1_555 1_555
C8 N2 1_555 1_555
C9 N1 1_555 1_555
H10 C9 1_555 1_555
H11 C9 1_555 1_555
C10 N4 1_555 1_555
C11 N4 1_555 1_555
C12 C11 1_555 1_555
H12 C12 1_555 1_555
C13 C12 1_555 1_555
H13 C13 1_555 1_555
C14 C13 1_555 1_555
H14 C14 1_555 1_555
C15 C14 1_555 1_555
H15 C15 1_555 1_555
C16 N5 1_555 1_555
C17 N1 1_555 1_555
H16 C17 1_555 1_555
H17 C17 1_555 1_555
C18 N7 1_555 1_555
C19 N6 1_555 1_555
C20 C19 1_555 1_555
H18 C20 1_555 1_555
C21 C20 1_555 1_555
H19 C21 1_555 1_555
C22 C21 1_555 1_555
H20 C22 1_555 1_555
C23 C22 1_555 1_555
H21 C23 1_555 1_555
C24 N7 1_555 1_555
C25 H22 1_555 1_555
H23 C25 1_555 1_555
C26 C25 1_555 1_555
H24 C26 1_555 1_555
H25 C26 1_555 1_555
C27 C26 1_555 1_555
H26 C27 1_555 1_555
H27 C27 1_555 1_555
C28 C27 1_555 1_555
H28 C28 1_555 1_555
H29 C28 1_555 1_555
H30 C28 1_555 1_555
C29 N8 1_555 1_555
H31 C29 1_555 1_555
H32 C29 1_555 1_555
C30 C29 1_555 1_555
H33 C30 1_555 1_555
H34 C30 1_555 1_555
C31 C30 1_555 1_555
H35 C31 1_555 1_555
H36 C31 1_555 1_555
C32 C31 1_555 1_555
H37 C32 1_555 1_555
H38 C32 1_555 1_555
H39 C32 1_555 1_555
C33 N8 1_555 1_555
H40 C33 1_555 1_555
H41 C33 1_555 1_555
C34 C33 1_555 1_555
H42 C34 1_555 1_555
H43 C34 1_555 1_555
C35 C34 1_555 1_555
H44 C35 1_555 1_555
H45 C35 1_555 1_555
C36 C35 1_555 1_555
H46 C36 1_555 1_555
H47 C36 1_555 1_555
H48 C36 1_555 1_555
C37 N8 1_555 1_555
H49 C37 1_555 1_555
H50 C37 1_555 1_555
C38 C37 1_555 1_555
H51 C38 1_555 1_555
H52 C38 1_555 1_555
C39 C38 1_555 1_555
H53 C39 1_555 1_555
H54 C39 1_555 1_555
C40 C39 1_555 1_555
H55 C40 1_555 1_555
H56 C40 1_555 1_555
H57 C40 1_555 1_555
O2 H58 1_555 1_555
H59 O2 1_555 1_555
C1 C2 1_555 1_555
C3 C8 1_555 1_555
C7 C8 1_555 1_555
C9 C10 1_555 1_555
C11 C16 1_555 1_555
C15 C16 1_555 1_555
C17 C18 1_555 1_555
C19 C24 1_555 1_555
C23 C24 1_555 1_555

#END
