
#######################################################################
#
#                 Cambridge Crystallographic Data Centre
#                                CCDC 
#
#######################################################################
#
# If this CIF has been generated from an entry in the Cambridge 
# Structural Database, then it will include bibliographic, chemical, 
# crystal, experimental, refinement or atomic coordinate data resulting 
# from the CCDC's data processing and validation procedures.
#
#######################################################################

data_BOFCOP
_chemical_formula_moiety         'C28 H36 Br4 S4 Si4,C1 H1 Cl3'
_chemical_name_systematic        
'2,5,8,11-tetrakis(Trimethylsilyl)-3,4,9,10-tetrabromocyclo-octatetrathiophene chloroform solvate'
_symmetry_cell_setting           orthorhombic
_symmetry_space_group_name_H-M   'P 21 21 2'
_symmetry_Int_Tables_number      18
_space_group_name_Hall           'P 2 2ab'
loop_
_symmetry_equiv_pos_site_id
_symmetry_equiv_pos_as_xyz
1 x,y,z
2 -x,-y,z
3 1/2-x,1/2+y,-z
4 1/2+x,1/2-y,-z
_cell_length_a                   10.0189(7)
_cell_length_b                   12.0397(8)
_cell_length_c                   18.190(2)
_cell_angle_alpha                90
_cell_angle_beta                 90
_cell_angle_gamma                90
_cell_volume                     2194.16
_exptl_crystal_colour            colorless
_exptl_crystal_description       block
_chemical_melting_point          343-345deg.C
_cell_formula_units_Z            2
loop_
_atom_site_label
_atom_site_type_symbol
_atom_site_fract_x
_atom_site_fract_y
_atom_site_fract_z
Cl1 Cl 0.64176(12) 0.98398(15) 0.74322(6)
Cl2 Cl 0.5000 1.0000 0.60810(10)
C15 C 0.50680(17) 1.0411(6) 0.69879(10)
H19 H 0.5202 1.1234 0.6988
Cl1A Cl 0.35824(12) 1.01602(15) 0.74322(6)
C15A C 0.49320(17) 0.9589(6) 0.69879(10)
H19A H 0.4798 0.8766 0.6988
Br1 Br 0.35408(4) 0.84295(2) 0.236225(19)
Br2 Br 0.71161(4) 0.81595(3) 0.26777(2)
S1 S 0.36673(7) 0.59451(5) 0.41041(4)
S2 S 0.65282(8) 0.57419(6) 0.09242(4)
Si1 Si 0.21612(8) 0.82228(6) 0.42040(5)
Si2 Si 0.85050(11) 0.77670(9) 0.08546(5)
C1 C 0.3245(3) 0.7201(2) 0.37037(16)
C2 C 0.3866(3) 0.7249(2) 0.30314(16)
C3 C 0.4694(3) 0.6335(2) 0.28383(15)
C4 C 0.4661(3) 0.5538(2) 0.33792(15)
C5 C 0.7183(3) 0.6917(2) 0.13336(16)
C6 C 0.6564(3) 0.7060(2) 0.19930(16)
C7 C 0.5547(3) 0.6279(2) 0.21766(15)
C8 C 0.5441(3) 0.5480(2) 0.16393(15)
C9 C 0.0541(4) 0.8382(4) 0.3717(2)
H1 H 0.0705 0.8606 0.3207
H2 H 0.0004 0.8952 0.3963
H3 H 0.0060 0.7674 0.3724
C10 C 0.1919(4) 0.7677(3) 0.5149(2)
H4 H 0.2786 0.7482 0.5361
H5 H 0.1351 0.7015 0.5131
H6 H 0.1490 0.8246 0.5453
C11 C 0.3078(4) 0.9566(3) 0.4232(2)
H7 H 0.3274 0.9810 0.3729
H8 H 0.3915 0.9470 0.4503
H9 H 0.2527 1.0127 0.4478
C12 C 0.7932(7) 0.9230(4) 0.0821(3)
H10 H 0.7137 0.9284 0.0509
H11 H 0.8642 0.9698 0.0619
H12 H 0.7712 0.9482 0.1319
C13 C 0.8697(5) 0.7202(5) -0.0091(2)
H13 H 0.7878 0.7337 -0.0371
H14 H 0.8866 0.6401 -0.0065
H15 H 0.9449 0.7569 -0.0335
C14 C 1.0105(5) 0.7670(5) 0.1363(3)
H16 H 0.9974 0.7926 0.1869
H17 H 1.0776 0.8136 0.1121
H18 H 1.0410 0.6897 0.1367
Br1A Br 0.64592(4) 0.15705(2) 0.236225(19)
Br2A Br 0.28839(4) 0.18405(3) 0.26777(2)
S1A S 0.63327(7) 0.40549(5) 0.41041(4)
S2A S 0.34718(8) 0.42581(6) 0.09242(4)
Si1A Si 0.78388(8) 0.17772(6) 0.42040(5)
Si2A Si 0.14950(11) 0.22330(9) 0.08546(5)
C1A C 0.6755(3) 0.2799(2) 0.37037(16)
C2A C 0.6134(3) 0.2751(2) 0.30314(16)
C3A C 0.5306(3) 0.3665(2) 0.28383(15)
C4A C 0.5339(3) 0.4462(2) 0.33792(15)
C5A C 0.2817(3) 0.3083(2) 0.13336(16)
C6A C 0.3436(3) 0.2940(2) 0.19930(16)
C7A C 0.4453(3) 0.3721(2) 0.21766(15)
C8A C 0.4559(3) 0.4520(2) 0.16393(15)
C9A C 0.9459(4) 0.1618(4) 0.3717(2)
H1A H 0.9295 0.1394 0.3207
H2A H 0.9996 0.1048 0.3963
H3A H 0.9940 0.2326 0.3724
C10A C 0.8081(4) 0.2323(3) 0.5149(2)
H4A H 0.7214 0.2518 0.5361
H5A H 0.8649 0.2985 0.5131
H6A H 0.8510 0.1754 0.5453
C11A C 0.6922(4) 0.0434(3) 0.4232(2)
H7A H 0.6726 0.0190 0.3729
H8A H 0.6085 0.0530 0.4503
H9A H 0.7473 -0.0127 0.4478
C12A C 0.2068(7) 0.0770(4) 0.0821(3)
H10A H 0.2863 0.0716 0.0509
H11A H 0.1358 0.0302 0.0619
H12A H 0.2288 0.0518 0.1319
C13A C 0.1303(5) 0.2798(5) -0.0091(2)
H13A H 0.2122 0.2663 -0.0371
H14A H 0.1134 0.3599 -0.0065
H15A H 0.0551 0.2431 -0.0335
C14A C -0.0105(5) 0.2330(5) 0.1363(3)
H16A H 0.0026 0.2074 0.1869
H17A H -0.0776 0.1864 0.1121
H18A H -0.0410 0.3103 0.1367
loop_
_geom_bond_atom_site_label_1
_geom_bond_atom_site_label_2
_geom_bond_site_symmetry_1
_geom_bond_site_symmetry_2
Br1 C2 1_555 1_555
Br2 C6 1_555 1_555
S1 C1 1_555 1_555
S2 C5 1_555 1_555
Si1 C1 1_555 1_555
Si2 C5 1_555 1_555
C1 C2 1_555 1_555
C2 C3 1_555 1_555
C3 C4 1_555 1_555
C4 S1 1_555 1_555
C5 C6 1_555 1_555
C6 C7 1_555 1_555
C7 C3 1_555 1_555
C8 S2 1_555 1_555
C9 Si1 1_555 1_555
H1 C9 1_555 1_555
H2 C9 1_555 1_555
H3 C9 1_555 1_555
C10 Si1 1_555 1_555
H4 C10 1_555 1_555
H5 C10 1_555 1_555
H6 C10 1_555 1_555
C11 Si1 1_555 1_555
H7 C11 1_555 1_555
H8 C11 1_555 1_555
H9 C11 1_555 1_555
C12 Si2 1_555 1_555
H10 C12 1_555 1_555
H11 C12 1_555 1_555
H12 C12 1_555 1_555
C13 Si2 1_555 1_555
H13 C13 1_555 1_555
H14 C13 1_555 1_555
H15 C13 1_555 1_555
C14 Si2 1_555 1_555
H16 C14 1_555 1_555
H17 C14 1_555 1_555
H18 C14 1_555 1_555
Cl1 C15 1_555 1_555
Cl2 C15 1_555 1_555
C15 H19 1_555 1_555
Br1A C2A 1_555 1_555
Br2A C6A 1_555 1_555
S1A C1A 1_555 1_555
S2A C5A 1_555 1_555
Si1A C1A 1_555 1_555
Si2A C5A 1_555 1_555
C1A C2A 1_555 1_555
C2A C3A 1_555 1_555
C3A C4A 1_555 1_555
C4A C4 1_555 1_555
C5A C6A 1_555 1_555
C6A C7A 1_555 1_555
C7A C3A 1_555 1_555
C8A C8 1_555 1_555
C9A Si1A 1_555 1_555
H1A C9A 1_555 1_555
H2A C9A 1_555 1_555
H3A C9A 1_555 1_555
C10A Si1A 1_555 1_555
H4A C10A 1_555 1_555
H5A C10A 1_555 1_555
H6A C10A 1_555 1_555
C11A Si1A 1_555 1_555
H7A C11A 1_555 1_555
H8A C11A 1_555 1_555
H9A C11A 1_555 1_555
C12A Si2A 1_555 1_555
H10A C12A 1_555 1_555
H11A C12A 1_555 1_555
H12A C12A 1_555 1_555
C13A Si2A 1_555 1_555
H13A C13A 1_555 1_555
H14A C13A 1_555 1_555
H15A C13A 1_555 1_555
C14A Si2A 1_555 1_555
H16A C14A 1_555 1_555
H17A C14A 1_555 1_555
H18A C14A 1_555 1_555
Cl1A C15 1_555 1_555
C15A Cl1 1_555 1_555
H19A C15A 1_555 1_555
C7 C8 1_555 1_555
Cl2 C15A 1_555 1_555
C15 C15A 1_555 1_555
S1A C4A 1_555 1_555
S2A C8A 1_555 1_555
C7A C8A 1_555 1_555
Cl1A C15A 1_555 1_555

#END
