
#######################################################################
#
#                 Cambridge Crystallographic Data Centre
#                                CCDC 
#
#######################################################################
#
# If this CIF has been generated from an entry in the Cambridge 
# Structural Database, then it will include bibliographic, chemical, 
# crystal, experimental, refinement or atomic coordinate data resulting 
# from the CCDC's data processing and validation procedures.
#
#######################################################################

data_BOFCAC
_chemical_formula_moiety         'C27 H22 Cl1 N1 O4 S2'
_chemical_name_systematic        
'methyl 6-(4-chlorophenyl)-4-(1,3-dithiolan-2-ylidene)-2-(4-methylphenyl)-1,3-dioxo-1,2,3,4,5,6-hexahydroisoquinoline-7-carboxylate'
_symmetry_cell_setting           monoclinic
_symmetry_space_group_name_H-M   'P 21/n'
_symmetry_Int_Tables_number      14
_space_group_name_Hall           '-P 2yn'
loop_
_symmetry_equiv_pos_site_id
_symmetry_equiv_pos_as_xyz
1 x,y,z
2 1/2-x,1/2+y,1/2-z
3 -x,-y,-z
4 1/2+x,1/2-y,1/2+z
_cell_length_a                   12.3840(11)
_cell_length_b                   9.8375(8)
_cell_length_c                   23.1860(15)
_cell_angle_alpha                90
_cell_angle_beta                 94.290(7)
_cell_angle_gamma                90
_cell_volume                     2816.78
_exptl_crystal_colour            yellow
_exptl_crystal_description       block
_cell_formula_units_Z            4
loop_
_atom_site_label
_atom_site_type_symbol
_atom_site_fract_x
_atom_site_fract_y
_atom_site_fract_z
S1 S 0.74596(11) 0.17845(13) 0.20480(5)
S2 S 0.71131(11) 0.34062(14) 0.10002(6)
Cl1 Cl 0.07542(13) 0.56260(17) 0.18742(7)
C1 C 0.4688(4) -0.2124(4) 0.16713(18)
C2 C 0.3884(4) -0.2211(5) 0.2039(2)
H1 H 0.3453 -0.1460 0.2103
C3 C 0.3716(5) -0.3426(7) 0.2317(2)
H2 H 0.3155 -0.3486 0.2561
C4 C 0.4348(5) -0.4548(6) 0.2244(2)
C5 C 0.5178(5) -0.4422(5) 0.1882(2)
H3 H 0.5631 -0.5159 0.1831
C6 C 0.5346(5) -0.3220(5) 0.1593(2)
H4 H 0.5904 -0.3155 0.1347
N1 N 0.4831(3) -0.0869(4) 0.13494(15)
C7 C 0.5527(4) 0.0134(5) 0.16032(19)
C8 C 0.5692(4) 0.1361(4) 0.12604(18)
C9 C 0.4945(4) 0.1628(4) 0.07709(18)
C10 C 0.4253(4) 0.0618(4) 0.05464(18)
C11 C 0.4226(4) -0.0727(4) 0.08179(19)
C12 C 0.3537(4) 0.0815(4) 0.00389(18)
H5 H 0.3249 0.0061 -0.0159
C13 C 0.3270(4) 0.2073(5) -0.01585(19)
C14 C 0.3719(4) 0.3296(4) 0.01647(19)
C15 C 0.4863(4) 0.2980(4) 0.04533(19)
H6 H 0.5377 0.2981 0.0157
H7 H 0.5070 0.3701 0.0725
C16 C 0.2491(4) 0.2329(5) -0.0660(2)
C17 C 0.6631(4) 0.2106(4) 0.14242(18)
C18 C 0.2943(4) 0.3846(5) 0.05941(19)
C19 C 0.2886(5) 0.5227(5) 0.0678(2)
H8 H 0.3309 0.5802 0.0470
C20 C 0.2210(5) 0.5783(5) 0.1069(2)
H9 H 0.2179 0.6718 0.1123
C21 C 0.1599(4) 0.4941(5) 0.1368(2)
C22 C 0.1615(5) 0.3574(6) 0.1292(2)
H10 H 0.1177 0.3012 0.1497
C23 C 0.2297(4) 0.3030(5) 0.0902(2)
H11 H 0.2316 0.2093 0.0849
C24 C 0.1420(7) 0.1409(8) -0.1456(3)
H12 H 0.0736 0.1710 -0.1334
H13 H 0.1323 0.0568 -0.1664
H14 H 0.1705 0.2083 -0.1703
C25 C 0.4115(6) -0.5901(7) 0.2522(3)
H15 H 0.3587 -0.6390 0.2278
H16 H 0.3840 -0.5747 0.2892
H17 H 0.4770 -0.6424 0.2570
C26 C 0.8595(5) 0.2795(6) 0.1857(2)
H18 H 0.9022 0.3081 0.2204
H19 H 0.9054 0.2265 0.1622
C27 C 0.8171(5) 0.3999(6) 0.1530(3)
H20 H 0.8746 0.4436 0.1337
H21 H 0.7876 0.4651 0.1790
O1 O 0.3689(3) -0.1670(3) 0.06165(15)
O2 O 0.5963(3) -0.0069(4) 0.20828(14)
O3 O 0.2180(4) 0.3445(4) -0.07993(18)
O4 O 0.2180(4) 0.1203(4) -0.09461(17)
H22 H 0.385(4) 0.407(5) -0.0092(19)
loop_
_geom_bond_atom_site_label_1
_geom_bond_atom_site_label_2
_geom_bond_site_symmetry_1
_geom_bond_site_symmetry_2
S1 C17 1_555 1_555
S2 C17 1_555 1_555
Cl1 C21 1_555 1_555
C1 C2 1_555 1_555
C2 H1 1_555 1_555
C3 C2 1_555 1_555
H2 C3 1_555 1_555
C4 C3 1_555 1_555
C5 C4 1_555 1_555
H3 C5 1_555 1_555
C6 C1 1_555 1_555
H4 C6 1_555 1_555
N1 C1 1_555 1_555
C7 N1 1_555 1_555
C8 C7 1_555 1_555
C9 C8 1_555 1_555
C10 C9 1_555 1_555
C11 N1 1_555 1_555
C12 C10 1_555 1_555
H5 C12 1_555 1_555
C13 C12 1_555 1_555
C14 C13 1_555 1_555
C15 C9 1_555 1_555
H6 C15 1_555 1_555
H7 C15 1_555 1_555
C16 C13 1_555 1_555
C17 C8 1_555 1_555
C18 C14 1_555 1_555
C19 C18 1_555 1_555
H8 C19 1_555 1_555
C20 C19 1_555 1_555
H9 C20 1_555 1_555
C21 C20 1_555 1_555
C22 C21 1_555 1_555
H10 C22 1_555 1_555
C23 C18 1_555 1_555
H11 C23 1_555 1_555
C24 H12 1_555 1_555
H13 C24 1_555 1_555
H14 C24 1_555 1_555
C25 C4 1_555 1_555
H15 C25 1_555 1_555
H16 C25 1_555 1_555
H17 C25 1_555 1_555
C26 S1 1_555 1_555
H18 C26 1_555 1_555
H19 C26 1_555 1_555
C27 S2 1_555 1_555
H20 C27 1_555 1_555
H21 C27 1_555 1_555
O1 C11 1_555 1_555
O2 C7 1_555 1_555
O3 C16 1_555 1_555
O4 C16 1_555 1_555
H22 C14 1_555 1_555
C5 C6 1_555 1_555
C10 C11 1_555 1_555
C14 C15 1_555 1_555
C22 C23 1_555 1_555
C24 O4 1_555 1_555
C26 C27 1_555 1_555

#END
