
#######################################################################
#
#                 Cambridge Crystallographic Data Centre
#                                CCDC 
#
#######################################################################
#
# If this CIF has been generated from an entry in the Cambridge 
# Structural Database, then it will include bibliographic, chemical, 
# crystal, experimental, refinement or atomic coordinate data resulting 
# from the CCDC's data processing and validation procedures.
#
#######################################################################

data_BOFGUA
_chemical_formula_moiety         'C33 H27 Cl2 O1 P2 1+,Cl1 1-,C1 H1 Cl3'
_chemical_name_systematic        
'(2-(2,4-Dichlorophenyl)-2-oxoethyl)((diphenylphosphino)methyl)diphenylphosphonium chloride chloroform solvate'
_symmetry_cell_setting           monoclinic
_symmetry_space_group_name_H-M   'C 2/c'
_symmetry_Int_Tables_number      15
_space_group_name_Hall           '-C 2yn'
loop_
_symmetry_equiv_pos_site_id
_symmetry_equiv_pos_as_xyz
1 x,y,z
2 -x,y,1/2-z
3 1/2+x,1/2+y,z
4 1/2-x,1/2+y,1/2-z
5 -x,-y,-z
6 x,-y,1/2+z
7 1/2-x,1/2-y,-z
8 1/2+x,1/2-y,1/2+z
_cell_length_a                   30.1043(11)
_cell_length_b                   16.1198(4)
_cell_length_c                   16.1617(6)
_cell_angle_alpha                90
_cell_angle_beta                 117.564(5)
_cell_angle_gamma                90
_cell_volume                     6952.66
_cell_formula_units_Z            8
loop_
_atom_site_label
_atom_site_type_symbol
_atom_site_fract_x
_atom_site_fract_y
_atom_site_fract_z
C1 C 0.10795(8) 0.26525(13) -0.03331(14)
C2 C 0.12664(11) 0.18806(15) 0.00679(17)
H1 H 0.1600 0.1831 0.0515
C3 C 0.09598(14) 0.11894(18) -0.0194(2)
H2 H 0.1085 0.0682 0.0093
C4 C 0.04689(13) 0.1249(2) -0.0879(2)
H3 H 0.0265 0.0782 -0.1059
C5 C 0.02823(10) 0.20041(18) -0.12953(19)
H4 H -0.0048 0.2044 -0.1757
C6 C 0.05852(8) 0.27083(15) -0.10293(16)
H5 H 0.0457 0.3215 -0.1316
C7 C 0.11287(8) 0.44260(13) -0.04657(13)
C8 C 0.12349(9) 0.49006(15) -0.10743(16)
H6 H 0.1497 0.4748 -0.1195
C9 C 0.09507(11) 0.56016(18) -0.15018(19)
H7 H 0.1024 0.5915 -0.1906
C10 C 0.05619(10) 0.58315(16) -0.13277(19)
H8 H 0.0375 0.6302 -0.1611
C11 C 0.04482(9) 0.53615(15) -0.07288(17)
H9 H 0.0182 0.5513 -0.0619
C12 C 0.07329(8) 0.46656(13) -0.02957(15)
H10 H 0.0659 0.4357 0.0111
C13 C 0.16610(7) 0.35507(12) 0.12928(13)
H11 H 0.1365 0.3742 0.1329
H12 H 0.1736 0.2995 0.1550
C14 C 0.27283(7) 0.38883(12) 0.19116(13)
C15 C 0.31204(8) 0.44470(13) 0.21219(14)
H13 H 0.3088 0.4998 0.2254
C16 C 0.35601(8) 0.41716(15) 0.21322(16)
H14 H 0.3823 0.4540 0.2272
C17 C 0.36083(9) 0.33490(16) 0.19354(16)
H15 H 0.3902 0.3169 0.1937
C18 C 0.32216(9) 0.27958(15) 0.17372(16)
H16 H 0.3257 0.2244 0.1609
C19 C 0.27811(8) 0.30580(13) 0.17281(15)
H17 H 0.2522 0.2684 0.1601
C20 C 0.23273(7) 0.42035(12) 0.31952(13)
C21 C 0.21510(8) 0.35720(13) 0.35499(15)
H18 H 0.1930 0.3177 0.3153
C22 C 0.23090(9) 0.35377(14) 0.45061(16)
H19 H 0.2191 0.3118 0.4748
C23 C 0.26395(9) 0.41226(16) 0.51004(15)
H20 H 0.2748 0.4088 0.5740
C24 C 0.28086(9) 0.47592(16) 0.47429(15)
H21 H 0.3026 0.5157 0.5142
C25 C 0.26549(9) 0.48064(14) 0.37892(15)
H22 H 0.2768 0.5234 0.3549
C26 C 0.20321(7) 0.52733(11) 0.15524(13)
H23 H 0.2321 0.5626 0.1899
H24 H 0.1956 0.5289 0.0900
C27 C 0.15858(7) 0.55985(12) 0.16563(13)
C28 C 0.13948(7) 0.64404(12) 0.12775(13)
C29 C 0.16927(8) 0.69770(13) 0.10627(14)
H25 H 0.2003 0.6794 0.1145
C30 C 0.15378(8) 0.77723(13) 0.07315(15)
H26 H 0.1742 0.8123 0.0600
C31 C 0.10716(8) 0.80337(13) 0.05998(15)
C32 C 0.07624(8) 0.75213(13) 0.07888(15)
H27 H 0.0447 0.7703 0.0680
C33 C 0.09269(8) 0.67334(13) 0.11423(15)
Cl1 Cl 0.08729(2) 0.90309(4) 0.02135(5)
Cl2 Cl 0.05220(2) 0.61481(4) 0.13915(5)
O1 O 0.14076(6) 0.51719(9) 0.20503(11)
P1 P 0.152525(19) 0.35162(3) 0.00388(3)
P2 P 0.217712(17) 0.42220(3) 0.19817(3)
Cl3 Cl 0.200471(18) 0.16082(3) 0.24336(3)
Cl4 Cl 0.05017(7) 0.72913(12) -0.36310(13)
Cl5 Cl 0.04373(18) 0.90360(18) -0.3363(3)
Cl6 Cl 0.09734(7) 0.79479(18) -0.17628(10)
C34 C 0.08066(17) 0.8153(2) -0.2932(3)
H28 H 0.1117 0.8243 -0.2977
Cl7? Cl 0.0427(4) 0.7416(7) -0.3527(8)
Cl8? Cl 0.0418(10) 0.9182(10) -0.3505(16)
Cl9? Cl 0.0882(4) 0.8345(8) -0.1848(5)
C35? C 0.0767(8) 0.8303(9) -0.3001(8)
H29? H 0.1082 0.8313 -0.3040
loop_
_geom_bond_atom_site_label_1
_geom_bond_atom_site_label_2
_geom_bond_site_symmetry_1
_geom_bond_site_symmetry_2
C1 C2 1_555 1_555
C2 H1 1_555 1_555
C3 C2 1_555 1_555
H2 C3 1_555 1_555
C4 C3 1_555 1_555
H3 C4 1_555 1_555
C5 C4 1_555 1_555
H4 C5 1_555 1_555
C6 C1 1_555 1_555
H5 C6 1_555 1_555
C7 C8 1_555 1_555
C8 H6 1_555 1_555
C9 C8 1_555 1_555
H7 C9 1_555 1_555
C10 C9 1_555 1_555
H8 C10 1_555 1_555
C11 C10 1_555 1_555
H9 C11 1_555 1_555
C12 C7 1_555 1_555
H10 C12 1_555 1_555
C13 H11 1_555 1_555
H12 C13 1_555 1_555
C14 C15 1_555 1_555
C15 H13 1_555 1_555
C16 C15 1_555 1_555
H14 C16 1_555 1_555
C17 C16 1_555 1_555
H15 C17 1_555 1_555
C18 C17 1_555 1_555
H16 C18 1_555 1_555
C19 C14 1_555 1_555
H17 C19 1_555 1_555
C20 C21 1_555 1_555
C21 H18 1_555 1_555
C22 C21 1_555 1_555
H19 C22 1_555 1_555
C23 C22 1_555 1_555
H20 C23 1_555 1_555
C24 C23 1_555 1_555
H21 C24 1_555 1_555
C25 C20 1_555 1_555
H22 C25 1_555 1_555
C26 H23 1_555 1_555
H24 C26 1_555 1_555
C27 C26 1_555 1_555
C28 C27 1_555 1_555
C29 C28 1_555 1_555
H25 C29 1_555 1_555
C30 C29 1_555 1_555
H26 C30 1_555 1_555
C31 C30 1_555 1_555
C32 C31 1_555 1_555
H27 C32 1_555 1_555
C33 C28 1_555 1_555
Cl1 C31 1_555 1_555
Cl2 C33 1_555 1_555
O1 C27 1_555 1_555
P1 C1 1_555 1_555
P2 C13 1_555 1_555
Cl4 C34 1_555 1_555
Cl5 C34 1_555 1_555
Cl6 C34 1_555 1_555
C34 H28 1_555 1_555
C5 C6 1_555 1_555
C7 P1 1_555 1_555
C11 C12 1_555 1_555
C13 P1 1_555 1_555
C14 P2 1_555 1_555
C18 C19 1_555 1_555
C20 P2 1_555 1_555
C24 C25 1_555 1_555
C26 P2 1_555 1_555
C32 C33 1_555 1_555

#END
