
#######################################################################
#
#                 Cambridge Crystallographic Data Centre
#                                CCDC 
#
#######################################################################
#
# If this CIF has been generated from an entry in the Cambridge 
# Structural Database, then it will include bibliographic, chemical, 
# crystal, experimental, refinement or atomic coordinate data resulting 
# from the CCDC's data processing and validation procedures.
#
#######################################################################

data_BOFNAL
_chemical_compound_source        'Iboza riparia'
_chemical_formula_moiety         'C20 H32 O2,0.5(C3 H6 O1)'
_chemical_name_systematic        
'Sandaracopimara-8(14),15-diene-7\a,18-diol acetone solvate'
_symmetry_cell_setting           monoclinic
_symmetry_space_group_name_H-M   'P 21'
_symmetry_Int_Tables_number      4
_space_group_name_Hall           'P 2yb'
loop_
_symmetry_equiv_pos_site_id
_symmetry_equiv_pos_as_xyz
1 x,y,z
2 -x,1/2+y,-z
_cell_length_a                   14.167(5)
_cell_length_b                   22.721(14)
_cell_length_c                   12.965(5)
_cell_angle_alpha                90
_cell_angle_beta                 101.32(3)
_cell_angle_gamma                90
_cell_volume                     4092.1
_exptl_crystal_colour            colorless
_chemical_melting_point          76-81deg.C
_cell_formula_units_Z            8
loop_
_atom_site_label
_atom_site_type_symbol
_atom_site_fract_x
_atom_site_fract_y
_atom_site_fract_z
C1 C 0.41750 0.68660 0.62320
C2 C 0.40620 0.69700 0.73890
C3 C 0.48050 0.74300 0.79590
C4 C 0.47020 0.80240 0.73500
C5 C 0.47440 0.79130 0.61820
C6 C 0.46600 0.85060 0.55680
C7 C 0.48340 0.84120 0.44230
C8 C 0.42660 0.78850 0.39040
C9 C 0.42950 0.73220 0.45090
C10 C 0.40220 0.74620 0.55790
C11 C 0.37250 0.68360 0.38930
C12 C 0.37140 0.68780 0.27370
C13 C 0.32920 0.74440 0.22480
C14 C 0.37780 0.79480 0.29110
C15 C 0.21700 0.74780 0.21840
C16 C 0.34310 0.75280 0.11080
C17 C 0.35500 0.70950 0.04980
C18 C 0.29550 0.76550 0.54090
C19 C 0.38280 0.83650 0.75650
C20 C 0.55850 0.84080 0.78980
O1 O 0.65110 0.81550 0.79260
O2 O 0.58510 0.82890 0.44830
C21 C 0.89970 1.08280 0.68360
C22 C 0.94130 1.06820 0.80040
C23 C 0.85920 1.04990 0.85730
C24 C 0.79350 0.99860 0.80260
C25 C 0.76280 1.01330 0.68290
C26 C 0.70100 0.96400 0.62020
C27 C 0.65220 0.98250 0.50830
C28 C 0.72730 1.01030 0.45250
C29 C 0.79210 1.05510 0.51230
C30 C 0.84180 1.02920 0.62150
C31 C 0.86500 1.07990 0.45340
C32 C 0.81870 1.08670 0.33890
C33 C 0.78660 1.02770 0.28450
C34 C 0.72280 0.99980 0.35280
C35 C 0.87640 0.98910 0.28010
C36 C 0.73010 1.03590 0.17150
C37 C 0.73420 1.08170 0.11130
C38 C 0.91070 0.97750 0.60670
C39 C 0.85110 0.94040 0.83090
C40 C 0.70650 0.99430 0.85640
O3 O 0.64700 1.04500 0.84310
O4 O 0.57930 1.02450 0.51700
C41 C 0.19700 0.95370 0.52310
C42 C 0.18900 0.97940 0.63090
C43 C 0.28640 1.00810 0.68510
C44 C 0.31910 1.05830 0.61690
C45 C 0.31710 1.03560 0.50150
C46 C 0.33950 1.08650 0.43140
C47 C 0.35300 1.06370 0.32230
C48 C 0.27620 1.01910 0.27730
C49 C 0.24790 0.97270 0.34970
C50 C 0.22360 1.00370 0.44910
C51 C 0.16780 0.93300 0.29350
C52 C 0.17100 0.92010 0.17860
C53 C 0.17520 0.97560 0.11360
C54 C 0.24320 1.02220 0.17310
C55 C 0.07020 1.00190 0.08270
C56 C 0.21430 0.95310 0.01700
C57 C 0.18430 0.94040 -0.08110
C58 C 0.13720 1.04560 0.41410
C59 C 0.26070 1.11470 0.62680
C60 C 0.42400 1.07380 0.67270
O5 O 0.48960 1.02640 0.67980
O6 O 0.44390 1.03110 0.33800
C61 C 1.06230 0.80380 0.79900
C62 C 1.08390 0.77520 0.90900
C63 C 0.99680 0.77240 0.96570
C64 C 0.92080 0.73260 0.89400
C65 C 0.89570 0.75830 0.78230
C66 C 0.81690 0.72380 0.70440
C67 C 0.78160 0.75830 0.60090
C68 C 0.86670 0.77490 0.55130
C69 C 0.94820 0.80470 0.62200
C70 C 0.98060 0.76710 0.72520
C71 C 1.02720 0.82450 0.56700
C72 C 1.00600 0.82860 0.45020
C73 C 0.93810 0.78100 0.39260
C74 C 0.86170 0.76490 0.45180
C75 C 0.99750 0.72650 0.36650
C76 C 0.89240 0.81710 0.29460
C77 C 0.91380 0.82440 0.20260
C78 C 1.02470 0.70750 0.69540
C79 C 0.93900 0.66510 0.89490
C80 C 0.83050 0.73960 0.94600
O7 O 0.80230 0.79910 0.95380
O8 O 0.72890 0.81020 0.61940
C81 C 0.52200 0.46750 1.03210
C82 C 0.52590 0.50980 0.94730
C83 C 0.54340 0.57250 0.96900
O9 O 0.52380 0.48800 0.85940
C84 C 0.59220 0.83850 0.16470
C85 C 0.62460 0.77730 0.18350
C86 C 0.63730 0.72860 0.11160
O10 O 0.62190 0.76490 0.27460
loop_
_geom_bond_atom_site_label_1
_geom_bond_atom_site_label_2
_geom_bond_site_symmetry_1
_geom_bond_site_symmetry_2
C1 C2 1_555 1_555
C2 C3 1_555 1_555
C3 C4 1_555 1_555
C4 C5 1_555 1_555
C5 C6 1_555 1_555
C6 C7 1_555 1_555
C7 C8 1_555 1_555
C8 C9 1_555 1_555
C9 C10 1_555 1_555
C10 C1 1_555 1_555
C11 C9 1_555 1_555
C12 C11 1_555 1_555
C13 C12 1_555 1_555
C14 C8 1_555 1_555
C15 C13 1_555 1_555
C16 C13 1_555 1_555
C17 C16 1_555 1_555
C18 C10 1_555 1_555
C19 C4 1_555 1_555
C20 C4 1_555 1_555
O1 C20 1_555 1_555
O2 C7 1_555 1_555
C21 C22 1_555 1_555
C22 C23 1_555 1_555
C23 C24 1_555 1_555
C24 C25 1_555 1_555
C25 C26 1_555 1_555
C26 C27 1_555 1_555
C27 C28 1_555 1_555
C28 C29 1_555 1_555
C29 C30 1_555 1_555
C30 C21 1_555 1_555
C31 C29 1_555 1_555
C32 C31 1_555 1_555
C33 C32 1_555 1_555
C34 C28 1_555 1_555
C35 C33 1_555 1_555
C36 C33 1_555 1_555
C37 C36 1_555 1_555
C38 C30 1_555 1_555
C39 C24 1_555 1_555
C40 C24 1_555 1_555
O3 C40 1_555 1_555
O4 C27 1_555 1_555
C41 C42 1_555 1_555
C42 C43 1_555 1_555
C43 C44 1_555 1_555
C44 C45 1_555 1_555
C45 C46 1_555 1_555
C46 C47 1_555 1_555
C47 C48 1_555 1_555
C48 C49 1_555 1_555
C49 C50 1_555 1_555
C50 C41 1_555 1_555
C51 C49 1_555 1_555
C52 C51 1_555 1_555
C53 C52 1_555 1_555
C54 C48 1_555 1_555
C55 C53 1_555 1_555
C56 C53 1_555 1_555
C57 C56 1_555 1_555
C58 C50 1_555 1_555
C59 C44 1_555 1_555
C60 C44 1_555 1_555
O5 C60 1_555 1_555
O6 C47 1_555 1_555
C61 C62 1_555 1_555
C62 C63 1_555 1_555
C63 C64 1_555 1_555
C64 C65 1_555 1_555
C65 C66 1_555 1_555
C66 C67 1_555 1_555
C67 C68 1_555 1_555
C68 C69 1_555 1_555
C69 C70 1_555 1_555
C70 C61 1_555 1_555
C71 C69 1_555 1_555
C72 C71 1_555 1_555
C73 C72 1_555 1_555
C74 C68 1_555 1_555
C75 C73 1_555 1_555
C76 C73 1_555 1_555
C77 C76 1_555 1_555
C78 C70 1_555 1_555
C79 C64 1_555 1_555
C80 C64 1_555 1_555
O7 C80 1_555 1_555
O8 C67 1_555 1_555
C81 C82 1_555 1_555
C82 C83 1_555 1_555
O9 C82 1_555 1_555
C84 C85 1_555 1_555
C85 C86 1_555 1_555
O10 C85 1_555 1_555
C5 C10 1_555 1_555
C13 C14 1_555 1_555
C25 C30 1_555 1_555
C33 C34 1_555 1_555
C45 C50 1_555 1_555
C53 C54 1_555 1_555
C65 C70 1_555 1_555
C73 C74 1_555 1_555

#END
