
#######################################################################
#
#                 Cambridge Crystallographic Data Centre
#                                CCDC 
#
#######################################################################
#
# If this CIF has been generated from an entry in the Cambridge 
# Structural Database, then it will include bibliographic, chemical, 
# crystal, experimental, refinement or atomic coordinate data resulting 
# from the CCDC's data processing and validation procedures.
#
#######################################################################

data_BOGREW
_chemical_formula_moiety         'C11 H11 N3 O2 S1,0.5(C2 H4 Cl2),H2 O1'
_chemical_name_systematic        
'4-((phenylsulfonyl)methyl)pyridazin-3-amine 1,2-dichloroethane solvate monohydrate'
_symmetry_cell_setting           monoclinic
_symmetry_space_group_name_H-M   'C 2/c'
_symmetry_Int_Tables_number      15
_space_group_name_Hall           '-C 2yn'
loop_
_symmetry_equiv_pos_site_id
_symmetry_equiv_pos_as_xyz
1 x,y,z
2 -x,y,1/2-z
3 1/2+x,1/2+y,z
4 1/2-x,1/2+y,1/2-z
5 -x,-y,-z
6 x,-y,1/2+z
7 1/2-x,1/2-y,-z
8 1/2+x,1/2-y,1/2+z
_cell_length_a                   33.464(4)
_cell_length_b                   5.2123(6)
_cell_length_c                   16.8968(17)
_cell_angle_alpha                90
_cell_angle_beta                 101.711(4)
_cell_angle_gamma                90
_cell_volume                     2885.86
_exptl_crystal_colour            colorless
_exptl_crystal_description       Blade
_cell_formula_units_Z            8
loop_
_atom_site_label
_atom_site_type_symbol
_atom_site_fract_x
_atom_site_fract_y
_atom_site_fract_z
S1 S 0.38281(2) 0.64312(16) 0.89526(5)
O1 O 0.41126(7) 0.7616(5) 0.96028(14)
O2 O 0.37658(8) 0.3717(4) 0.89934(16)
N1 N 0.29585(8) 0.6777(5) 1.11005(15)
N2 N 0.28330(8) 0.5125(5) 1.04904(15)
N3 N 0.28041(8) 0.3736(5) 0.92038(16)
H1 H 0.2836(11) 0.400(7) 0.8711(13)
H2 H 0.2622(8) 0.261(5) 0.9302(19)
C1 C 0.31873(10) 0.8764(7) 1.10051(19)
H3 H 0.3266 0.9927 1.1442
C2 C 0.33177(10) 0.9220(6) 1.02836(19)
H4 H 0.3486 1.0652 1.0234
C3 C 0.31996(9) 0.7581(6) 0.96540(17)
C4 C 0.29456(9) 0.5493(6) 0.97786(17)
C5 C 0.33457(9) 0.7973(6) 0.88767(18)
H5 H 0.3373 0.9830 0.8776
H6 H 0.3146 0.7239 0.8420
C6 C 0.39701(10) 0.7177(6) 0.8029(2)
C7 C 0.38404(11) 0.5619(7) 0.7360(2)
H7 H 0.3672 0.4171 0.7392
C8 C 0.39600(12) 0.6208(8) 0.6644(2)
H8 H 0.3871 0.5163 0.6182
C9 C 0.42062(11) 0.8289(8) 0.6596(2)
H9 H 0.4288 0.8672 0.6103
C10 C 0.43348(11) 0.9838(8) 0.7273(2)
H10 H 0.4505 1.1277 0.7241
C11 C 0.42155(11) 0.9284(7) 0.7990(2)
H11 H 0.4301 1.0340 0.8452
Cl1 Cl 0.49925(3) 0.3928(3) 0.87756(7)
C12 C 0.5071(2) 0.575(2) 0.9680(10)
H12 H 0.5364 0.6164 0.9855
H13 H 0.4917 0.7381 0.9584
Cl1D Cl 0.50075(3) 0.6072(3) 1.12244(7)
C12D C 0.4929(2) 0.425(2) 1.0320(10)
H12D H 0.4636 0.3836 1.0145
H13D H 0.5083 0.2619 1.0416
O3 O 0.26623(8) 0.5672(5) 1.24551(14)
H16 H 0.2785(12) 0.582(8) 1.2033(18)
H17 H 0.267(3) 0.734(6) 1.262(4)
C13? C 0.4940(3) 0.371(2) 0.9813(14)
H14? H 0.4654 0.3302 0.9844
H15? H 0.5120 0.2352 1.0099
H18? H 0.255(3) 0.408(9) 1.238(5)
loop_
_geom_bond_atom_site_label_1
_geom_bond_atom_site_label_2
_geom_bond_site_symmetry_1
_geom_bond_site_symmetry_2
S1 O1 1_555 1_555
O2 S1 1_555 1_555
N1 N2 1_555 1_555
N2 C4 1_555 1_555
N3 H1 1_555 1_555
H2 N3 1_555 1_555
C1 N1 1_555 1_555
H3 C1 1_555 1_555
C2 C1 1_555 1_555
H4 C2 1_555 1_555
C3 C2 1_555 1_555
C4 N3 1_555 1_555
C5 S1 1_555 1_555
H5 C5 1_555 1_555
H6 C5 1_555 1_555
C6 S1 1_555 1_555
C7 C6 1_555 1_555
H7 C7 1_555 1_555
C8 C7 1_555 1_555
H8 C8 1_555 1_555
C9 C8 1_555 1_555
H9 C9 1_555 1_555
C10 C9 1_555 1_555
H10 C10 1_555 1_555
C11 C6 1_555 1_555
H11 C11 1_555 1_555
Cl1 C12 1_555 1_555
C12 H12 1_555 1_555
H13 C12 1_555 1_555
O3 H16 1_555 1_555
H17 O3 1_555 1_555
Cl1D C12D 1_555 1_555
C12D C12 1_555 1_555
H12D C12D 1_555 1_555
H13D C12D 1_555 1_555
C3 C4 1_555 1_555
C3 C5 1_555 1_555
C10 C11 1_555 1_555

#END
