
#######################################################################
#
#                 Cambridge Crystallographic Data Centre
#                                CCDC 
#
#######################################################################
#
# If this CIF has been generated from an entry in the Cambridge 
# Structural Database, then it will include bibliographic, chemical, 
# crystal, experimental, refinement or atomic coordinate data resulting 
# from the CCDC's data processing and validation procedures.
#
#######################################################################

data_BOGTEX
_chemical_formula_moiety         'C17 H15 N1 O2'
_chemical_name_systematic        
2,2-Dimethyl-2,3-dihydropyrano(2,3-a)carbazol-4(11H)-one
_symmetry_cell_setting           monoclinic
_symmetry_space_group_name_H-M   'P 21/n'
_symmetry_Int_Tables_number      14
_space_group_name_Hall           '-P 2yn'
loop_
_symmetry_equiv_pos_site_id
_symmetry_equiv_pos_as_xyz
1 x,y,z
2 1/2-x,1/2+y,1/2-z
3 -x,-y,-z
4 1/2+x,1/2-y,1/2+z
_cell_length_a                   5.9926(5)
_cell_length_b                   14.3368(12)
_cell_length_c                   15.6839(13)
_cell_angle_alpha                90
_cell_angle_beta                 95.2700(10)
_cell_angle_gamma                90
_cell_volume                     1341.78
_exptl_crystal_colour            yellow
_exptl_crystal_description       plate
_chemical_melting_point          '472-474 K'
_cell_formula_units_Z            4
_exptl_crystal_recrystallization_method ethanol
loop_
_atom_site_label
_atom_site_type_symbol
_atom_site_fract_x
_atom_site_fract_y
_atom_site_fract_z
C1 C -0.2845(2) 0.22408(8) 0.34560(7)
C2 C -0.4447(2) 0.29342(9) 0.35331(8)
H1 H -0.4468 0.3487 0.3198
C3 C -0.6002(2) 0.27850(9) 0.41161(8)
H2 H -0.7127 0.3241 0.4176
C4 C -0.5963(2) 0.19767(10) 0.46224(8)
H3 H -0.7037 0.1901 0.5027
C5 C -0.4385(2) 0.12915(9) 0.45400(8)
H4 H -0.4370 0.0745 0.4883
C6 C -0.2805(2) 0.14115(8) 0.39445(8)
C7 C -0.1010(2) 0.08444(8) 0.36710(7)
C8 C -0.0205(2) -0.00614(9) 0.38728(8)
H5 H -0.0852 -0.0427 0.4291
C9 C 0.1525(2) -0.04017(8) 0.34536(8)
H6 H 0.2088 -0.1008 0.3590
C10 C 0.2501(2) 0.01264(8) 0.28208(8)
C11 C 0.1683(2) 0.10152(8) 0.25993(7)
C12 C -0.0055(2) 0.13669(8) 0.30376(7)
C13 C 0.4420(2) -0.02233(9) 0.24051(9)
C14 C 0.5333(2) 0.04206(10) 0.17638(9)
H7 H 0.5983 0.0041 0.1321
H8 H 0.6559 0.0796 0.2058
C15 C 0.3590(2) 0.10787(9) 0.13255(8)
C16 C 0.1830(2) 0.05565(10) 0.07445(8)
H9 H 0.1108 0.0086 0.1079
H10 H 0.2552 0.0250 0.0283
H11 H 0.0701 0.0998 0.0498
C17 C 0.4667(2) 0.18495(10) 0.08453(9)
H12 H 0.3501 0.2262 0.0578
H13 H 0.5513 0.1576 0.0401
H14 H 0.5685 0.2209 0.1245
N1 N -0.11817(17) 0.21994(7) 0.29049(6)
H15 H -0.073(2) 0.2679(9) 0.2619(9)
O1 O 0.53069(18) -0.09781(7) 0.25866(7)
O2 O 0.24499(14) 0.15638(6) 0.19818(5)
loop_
_geom_bond_atom_site_label_1
_geom_bond_atom_site_label_2
_geom_bond_site_symmetry_1
_geom_bond_site_symmetry_2
C1 C2 1_555 1_555
C2 H1 1_555 1_555
C3 C2 1_555 1_555
H2 C3 1_555 1_555
C4 C3 1_555 1_555
H3 C4 1_555 1_555
C5 C4 1_555 1_555
H4 C5 1_555 1_555
C6 C1 1_555 1_555
C7 C6 1_555 1_555
C8 C7 1_555 1_555
H5 C8 1_555 1_555
C9 C8 1_555 1_555
H6 C9 1_555 1_555
C10 C9 1_555 1_555
C11 C10 1_555 1_555
C12 C7 1_555 1_555
C13 C10 1_555 1_555
C14 C13 1_555 1_555
H7 C14 1_555 1_555
H8 C14 1_555 1_555
C15 C14 1_555 1_555
C16 C15 1_555 1_555
H9 C16 1_555 1_555
H10 C16 1_555 1_555
H11 C16 1_555 1_555
C17 C15 1_555 1_555
H12 C17 1_555 1_555
H13 C17 1_555 1_555
H14 C17 1_555 1_555
N1 C1 1_555 1_555
H15 N1 1_555 1_555
O1 C13 1_555 1_555
O2 C11 1_555 1_555
C5 C6 1_555 1_555
C11 C12 1_555 1_555
C12 N1 1_555 1_555
C15 O2 1_555 1_555

#END
