
#######################################################################
#
#                 Cambridge Crystallographic Data Centre
#                                CCDC 
#
#######################################################################
#
# If this CIF has been generated from an entry in the Cambridge 
# Structural Database, then it will include bibliographic, chemical, 
# crystal, experimental, refinement or atomic coordinate data resulting 
# from the CCDC's data processing and validation procedures.
#
#######################################################################

data_BOGWIE
_chemical_formula_moiety         'C8 H11 N7 S2'
_chemical_name_systematic        
5,5'-Diethyl-2,2'-(triazene-1,3-diyl)di-1,3,4-thiadiazole
_symmetry_cell_setting           monoclinic
_symmetry_space_group_name_H-M   'P 21/c'
_symmetry_Int_Tables_number      14
_space_group_name_Hall           '-P 2ybc'
loop_
_symmetry_equiv_pos_site_id
_symmetry_equiv_pos_as_xyz
1 x,y,z
2 -x,1/2+y,1/2-z
3 -x,-y,-z
4 x,1/2-y,1/2+z
_cell_length_a                   12.188(2)
_cell_length_b                   9.1460(18)
_cell_length_c                   12.790(3)
_cell_angle_alpha                90
_cell_angle_beta                 110.99(3)
_cell_angle_gamma                90
_cell_volume                     1331.11
_exptl_crystal_colour            yellow
_exptl_crystal_description       block
_cell_formula_units_Z            4
_exptl_crystal_recrystallization_method ethanol
loop_
_atom_site_label
_atom_site_type_symbol
_atom_site_fract_x
_atom_site_fract_y
_atom_site_fract_z
S1 S 1.26701(14) 0.49714(19) 0.57391(10)
S2 S 0.96258(11) 0.18590(15) 0.56999(10)
N1 N 1.3578(5) 0.6450(6) 0.4508(4)
N2 N 1.2634(4) 0.5731(5) 0.3737(3)
N3 N 0.7840(4) 0.0373(5) 0.4403(3)
N4 N 0.8301(3) 0.1075(5) 0.3694(3)
N5 N 0.9719(4) 0.2610(5) 0.3544(3)
H1 H 0.9482 0.2556 0.2825
N6 N 1.1099(3) 0.4124(5) 0.3558(3)
N7 N 1.0651(3) 0.3422(4) 0.4200(3)
C1 C 1.5073(6) 0.6346(8) 0.7641(5)
H2 H 1.5528 0.7039 0.8189
H3 H 1.5570 0.5558 0.7586
H4 H 1.4453 0.5968 0.7861
C2 C 1.4558(5) 0.7082(7) 0.6535(5)
H5 H 1.5195 0.7411 0.6308
H6 H 1.4135 0.7943 0.6626
C3 C 1.3715(6) 0.6141(9) 0.5586(5)
C4 C 1.2070(4) 0.4920(6) 0.4245(4)
C5 C 0.7047(6) -0.0851(8) 0.6080(5)
H7 H 0.6879 -0.1221 0.6709
H8 H 0.7149 -0.1654 0.5640
H9 H 0.6406 -0.0251 0.5629
C6 C 0.8141(5) 0.0036(7) 0.6486(4)
H10 H 0.8787 -0.0567 0.6950
H11 H 0.8043 0.0837 0.6941
C7 C 0.8436(4) 0.0651(6) 0.5493(4)
C8 C 0.9231(4) 0.1912(6) 0.4186(4)
loop_
_geom_bond_atom_site_label_1
_geom_bond_atom_site_label_2
_geom_bond_site_symmetry_1
_geom_bond_site_symmetry_2
S1 C3 1_555 1_555
S2 C7 1_555 1_555
N1 N2 1_555 1_555
N2 C4 1_555 1_555
N3 N4 1_555 1_555
N4 C8 1_555 1_555
N5 H1 1_555 1_555
N6 N7 1_555 1_555
N7 N5 1_555 1_555
C1 H2 1_555 1_555
H3 C1 1_555 1_555
H4 C1 1_555 1_555
C2 C1 1_555 1_555
H5 C2 1_555 1_555
H6 C2 1_555 1_555
C3 N1 1_555 1_555
C4 S1 1_555 1_555
C5 H7 1_555 1_555
H8 C5 1_555 1_555
H9 C5 1_555 1_555
C6 C5 1_555 1_555
H10 C6 1_555 1_555
H11 C6 1_555 1_555
C7 N3 1_555 1_555
C8 S2 1_555 1_555
N5 C8 1_555 1_555
N6 C4 1_555 1_555
C2 C3 1_555 1_555
C6 C7 1_555 1_555

#END
