
#######################################################################
#
#                 Cambridge Crystallographic Data Centre
#                                CCDC 
#
#######################################################################
#
# If this CIF has been generated from an entry in the Cambridge 
# Structural Database, then it will include bibliographic, chemical, 
# crystal, experimental, refinement or atomic coordinate data resulting 
# from the CCDC's data processing and validation procedures.
#
#######################################################################

data_BOGZON
_chemical_compound_source        'leaves and stems of Schisandra sphenanthera'
_chemical_name_common            'Sphenasin A'
_chemical_formula_moiety         'C27 H38 O4'
_chemical_name_systematic        
7-Hydroxy-4,4,14-trimethyl-16,24-epoxy-9,19-cyclochol-1-ene-3,24-dione
_symmetry_cell_setting           orthorhombic
_symmetry_space_group_name_H-M   'P 21 21 21'
_symmetry_Int_Tables_number      19
_space_group_name_Hall           'P 2ac 2ab'
loop_
_symmetry_equiv_pos_site_id
_symmetry_equiv_pos_as_xyz
1 x,y,z
2 1/2-x,-y,1/2+z
3 1/2+x,1/2-y,-z
4 -x,1/2+y,1/2-z
_cell_length_a                   7.974(1)
_cell_length_b                   11.730(1)
_cell_length_c                   24.646(1)
_cell_angle_alpha                90
_cell_angle_beta                 90
_cell_angle_gamma                90
_cell_volume                     2305.26
_exptl_crystal_colour            colorless
_exptl_crystal_description       block
_chemical_melting_point          '198-199 deg.C'
_cell_formula_units_Z            4
loop_
_atom_site_label
_atom_site_type_symbol
_atom_site_fract_x
_atom_site_fract_y
_atom_site_fract_z
O1 O 0.7707(3) -0.37341(15) 0.28403(10)
O2 O 0.7362(3) 0.60355(16) 0.55384(7)
O3 O 0.6911(2) 0.48493(13) 0.48704(6)
O4 O 0.4284(2) 0.13684(16) 0.40962(8)
H1 H 0.3487 0.0943 0.4154
C1 C 0.9671(3) -0.11602(18) 0.32462(9)
H2 H 1.0747 -0.0900 0.3323
C2 C 0.9453(3) -0.2261(2) 0.31233(9)
H3 H 1.0380 -0.2742 0.3130
C3 C 0.7830(3) -0.27391(19) 0.29797(10)
C4 C 0.6293(3) -0.19535(19) 0.29845(9)
C5 C 0.6628(2) -0.09608(17) 0.33867(7)
H4 H 0.6810 -0.1331 0.3738
C6 C 0.5175(2) -0.01390(19) 0.34810(9)
H5 H 0.4907 0.0259 0.3147
H6 H 0.4188 -0.0556 0.3597
C7 C 0.5690(2) 0.07117(18) 0.39156(8)
H7 H 0.6162 0.0297 0.4225
C8 C 0.7004(2) 0.15415(16) 0.36983(7)
H8 H 0.6471 0.1938 0.3394
C9 C 0.8543(2) 0.08960(15) 0.34532(7)
C10 C 0.8268(2) -0.03466(16) 0.32636(7)
C11 C 1.0278(2) 0.11659(18) 0.36795(9)
H9 H 1.1101 0.0951 0.3408
H10 H 1.0462 0.0683 0.3993
C12 C 1.0635(2) 0.24102(18) 0.38497(9)
H11 H 1.1119 0.2412 0.4211
H12 H 1.1456 0.2734 0.3604
C13 C 0.9069(2) 0.31660(16) 0.38494(7)
C14 C 0.7566(2) 0.24860(16) 0.40986(7)
C15 C 0.6253(3) 0.34371(18) 0.41833(9)
H13 H 0.5583 0.3542 0.3859
H14 H 0.5513 0.3252 0.4483
C16 C 0.7274(3) 0.45125(18) 0.43083(8)
H15 H 0.6948 0.5127 0.4060
C17 C 0.9146(3) 0.42270(17) 0.42298(8)
H16 H 0.9579 0.3968 0.4581
C18 C 0.8710(3) 0.35633(18) 0.32639(8)
H17 H 0.9659 0.3976 0.3128
H18 H 0.7741 0.4049 0.3262
H19 H 0.8504 0.2911 0.3038
C19 C 0.8398(3) 0.06347(16) 0.28574(7)
H20 H 0.9409 0.0684 0.2640
H21 H 0.7381 0.0870 0.2673
C20 C 1.0172(3) 0.52856(18) 0.40635(9)
H22 H 0.9685 0.5597 0.3730
C21 C 1.2022(4) 0.5014(2) 0.39558(12)
H23 H 1.2103 0.4440 0.3679
H24 H 1.2534 0.4739 0.4283
H25 H 1.2589 0.5692 0.3837
C22 C 1.0116(4) 0.6218(2) 0.45016(10)
H26 H 1.0692 0.5932 0.4820
H27 H 1.0751 0.6867 0.4370
C23 C 0.8390(4) 0.6644(2) 0.46781(11)
H28 H 0.8515 0.7380 0.4853
H29 H 0.7695 0.6749 0.4359
C24 C 0.7518(4) 0.58423(19) 0.50621(10)
C25 C 0.7977(3) 0.19705(17) 0.46562(8)
H30 H 0.7018 0.1564 0.4790
H31 H 0.8264 0.2570 0.4905
H32 H 0.8907 0.1455 0.4622
C26 C 0.4760(4) -0.2637(3) 0.31568(14)
H33 H 0.4903 -0.2896 0.3523
H34 H 0.4629 -0.3283 0.2921
H35 H 0.3779 -0.2164 0.3135
C27 C 0.6079(4) -0.1538(2) 0.23973(10)
H36 H 0.5883 -0.2180 0.2164
H37 H 0.7078 -0.1149 0.2284
H38 H 0.5142 -0.1026 0.2377
loop_
_geom_bond_atom_site_label_1
_geom_bond_atom_site_label_2
_geom_bond_site_symmetry_1
_geom_bond_site_symmetry_2
O1 C3 1_555 1_555
O2 C24 1_555 1_555
O3 C16 1_555 1_555
O4 H1 1_555 1_555
C1 H2 1_555 1_555
C2 C1 1_555 1_555
H3 C2 1_555 1_555
C3 C2 1_555 1_555
C4 C3 1_555 1_555
C5 C4 1_555 1_555
H4 C5 1_555 1_555
C6 C5 1_555 1_555
H5 C6 1_555 1_555
H6 C6 1_555 1_555
C7 O4 1_555 1_555
H7 C7 1_555 1_555
C8 C7 1_555 1_555
H8 C8 1_555 1_555
C9 C8 1_555 1_555
C10 C1 1_555 1_555
C11 C9 1_555 1_555
H9 C11 1_555 1_555
H10 C11 1_555 1_555
C12 C11 1_555 1_555
H11 C12 1_555 1_555
H12 C12 1_555 1_555
C13 C12 1_555 1_555
C14 C8 1_555 1_555
C15 C14 1_555 1_555
H13 C15 1_555 1_555
H14 C15 1_555 1_555
C16 C15 1_555 1_555
H15 C16 1_555 1_555
C17 C13 1_555 1_555
H16 C17 1_555 1_555
C18 C13 1_555 1_555
H17 C18 1_555 1_555
H18 C18 1_555 1_555
H19 C18 1_555 1_555
C19 C9 1_555 1_555
H20 C19 1_555 1_555
H21 C19 1_555 1_555
C20 C17 1_555 1_555
H22 C20 1_555 1_555
C21 C20 1_555 1_555
H23 C21 1_555 1_555
H24 C21 1_555 1_555
H25 C21 1_555 1_555
C22 C20 1_555 1_555
H26 C22 1_555 1_555
H27 C22 1_555 1_555
C23 C22 1_555 1_555
H28 C23 1_555 1_555
H29 C23 1_555 1_555
C24 O3 1_555 1_555
C25 C14 1_555 1_555
H30 C25 1_555 1_555
H31 C25 1_555 1_555
H32 C25 1_555 1_555
C26 C4 1_555 1_555
H33 C26 1_555 1_555
H34 C26 1_555 1_555
H35 C26 1_555 1_555
C27 C4 1_555 1_555
H36 C27 1_555 1_555
H37 C27 1_555 1_555
H38 C27 1_555 1_555
C5 C10 1_555 1_555
C6 C7 1_555 1_555
C9 C10 1_555 1_555
C10 C19 1_555 1_555
C13 C14 1_555 1_555
C16 C17 1_555 1_555
C23 C24 1_555 1_555

#END
