
#######################################################################
#
#                 Cambridge Crystallographic Data Centre
#                                CCDC 
#
#######################################################################
#
# If this CIF has been generated from an entry in the Cambridge 
# Structural Database, then it will include bibliographic, chemical, 
# crystal, experimental, refinement or atomic coordinate data resulting 
# from the CCDC's data processing and validation procedures.
#
#######################################################################

data_BOHFIP
_chemical_formula_moiety         'C17 H17 Cl1 N2 O3'
_chemical_name_systematic        
'methyl 9-(4-chlorophenyl)-10-(hydroxyimino)-8-azabicyclo[4.3.1]deca-2,4-diene-7-carboxylate'
_symmetry_cell_setting           orthorhombic
_symmetry_space_group_name_H-M   'P b c n'
_symmetry_Int_Tables_number      60
_space_group_name_Hall           '-P 2n 2ab'
loop_
_symmetry_equiv_pos_site_id
_symmetry_equiv_pos_as_xyz
1 x,y,z
2 1/2+x,1/2-y,-z
3 -x,y,1/2-z
4 1/2-x,1/2-y,1/2+z
5 -x,-y,-z
6 1/2-x,1/2+y,z
7 x,-y,1/2+z
8 1/2+x,1/2+y,1/2-z
_cell_length_a                   23.505(3)
_cell_length_b                   15.5207(17)
_cell_length_c                   20.919(2)
_cell_angle_alpha                90
_cell_angle_beta                 90
_cell_angle_gamma                90
_cell_volume                     7631.55
_cell_formula_units_Z            16
loop_
_atom_site_label
_atom_site_type_symbol
_atom_site_fract_x
_atom_site_fract_y
_atom_site_fract_z
C1 C 0.46230(13) 0.4764(2) 0.33342(14)
C2 C 0.40857(13) 0.49796(19) 0.31499(15)
H1 H 0.4006 0.5541 0.3023
C3 C 0.36583(12) 0.43666(17) 0.31514(14)
H2 H 0.3294 0.4519 0.3021
C4 C 0.37651(13) 0.35366(18) 0.33430(13)
C5 C 0.43124(17) 0.3345(2) 0.3525(2)
H3 H 0.4395 0.2786 0.3658
C6 C 0.47433(17) 0.3945(3) 0.3520(2)
H4 H 0.5110 0.3792 0.3641
C7 C 0.33263(12) 0.28314(17) 0.33512(13)
H5 H 0.3347 0.2556 0.3772
C8 C 0.34624(13) 0.21218(17) 0.28417(14)
H6 H 0.3829 0.1860 0.2951
C9 C 0.30154(13) 0.14382(16) 0.28788(13)
C10 C 0.24110(13) 0.17136(15) 0.28624(14)
H7 H 0.2177 0.1230 0.3010
C11 C 0.23280(12) 0.24807(15) 0.33414(12)
H8 H 0.2360 0.2248 0.3775
C12 C 0.22160(17) 0.1957(2) 0.22097(18)
H9 H 0.1839 0.1837 0.2110
C13 C 0.2526(2) 0.2329(3) 0.17554(18)
H10 H 0.2331 0.2433 0.1377
C14 C 0.3110(3) 0.2597(2) 0.17493(17)
H11 H 0.3225 0.2878 0.1378
C15 C 0.35110(18) 0.25079(18) 0.21896(18)
H12 H 0.3869 0.2712 0.2078
C16 C 0.17420(12) 0.28477(17) 0.32711(13)
C17 C 0.07666(15) 0.2549(2) 0.3342(2)
H13 H 0.0706 0.3032 0.3621
H14 H 0.0516 0.2088 0.3462
H15 H 0.0690 0.2717 0.2909
Cl1 Cl 0.51645(4) 0.55325(7) 0.33460(5)
N1 N 0.27478(10) 0.31618(13) 0.32770(10)
H16 H 0.2709(12) 0.3379(17) 0.2898(7)
N2 N 0.32014(11) 0.06644(13) 0.29303(11)
O1 O 0.27546(8) 0.00585(11) 0.29579(10)
H17 H 0.2887 -0.0430 0.2958
O2 O 0.16309(9) 0.35689(12) 0.31108(11)
O3 O 0.13460(10) 0.22653(13) 0.33955(11)
C18 C 0.95853(13) 0.76069(19) 0.49073(15)
C19 C 0.90190(14) 0.74291(18) 0.48620(16)
H18 H 0.8900 0.6874 0.4762
C20 C 0.86207(12) 0.80704(16) 0.49631(13)
H19 H 0.8235 0.7942 0.4930
C21 C 0.87867(11) 0.88975(15) 0.51129(12)
C22 C 0.93655(12) 0.90581(18) 0.51691(15)
H20 H 0.9488 0.9609 0.5279
C23 C 0.97625(13) 0.8421(2) 0.50666(17)
H21 H 1.0148 0.8542 0.5105
C24 C 0.83701(10) 0.96278(15) 0.52196(13)
H22 H 0.8461 0.9880 0.5637
C25 C 0.84505(11) 1.03604(16) 0.47089(14)
H23 H 0.8831 1.0608 0.4762
C26 C 0.80177(11) 1.10538(15) 0.48423(12)
C27 C 0.74141(11) 1.07951(14) 0.49243(12)
H24 H 0.7205 1.1279 0.5113
C28 C 0.74002(11) 1.00228(14) 0.54053(11)
H25 H 0.7512 1.0250 0.5824
C29 C 0.71350(12) 1.05556(16) 0.43084(14)
H26 H 0.6748 1.0671 0.4281
C30 C 0.73666(14) 1.02004(19) 0.37965(14)
H27 H 0.7115 1.0099 0.3461
C31 C 0.79450(16) 0.99460(18) 0.36747(14)
H28 H 0.8006 0.9702 0.3275
C32 C 0.84035(14) 1.00020(17) 0.40367(15)
H29 H 0.8739 0.9796 0.3857
C33 C 0.68047(11) 0.96797(16) 0.54731(12)
C34 C 0.58743(13) 1.0049(2) 0.5762(2)
H30 H 0.5692 0.9928 0.5361
H31 H 0.5677 1.0509 0.5974
H32 H 0.5866 0.9543 0.6025
Cl2 Cl 1.00848(4) 0.68055(6) 0.47768(6)
N3 N 0.77891(9) 0.93268(12) 0.52540(10)
H33 H 0.7683(10) 0.9092(16) 0.4902(8)
N4 N 0.82210(9) 1.18197(13) 0.48956(11)
O4 O 0.77890(8) 1.24349(10) 0.50153(9)
H34 H 0.7935 1.2906 0.5084
O5 O 0.66585(8) 0.89517(11) 0.53743(10)
O6 O 0.64496(8) 1.02973(11) 0.56501(10)
loop_
_geom_bond_atom_site_label_1
_geom_bond_atom_site_label_2
_geom_bond_site_symmetry_1
_geom_bond_site_symmetry_2
C1 C2 1_555 1_555
C2 H1 1_555 1_555
C3 C2 1_555 1_555
H2 C3 1_555 1_555
C4 C3 1_555 1_555
C5 C4 1_555 1_555
H3 C5 1_555 1_555
C6 C1 1_555 1_555
H4 C6 1_555 1_555
C7 C4 1_555 1_555
H5 C7 1_555 1_555
C8 C7 1_555 1_555
H6 C8 1_555 1_555
C9 C8 1_555 1_555
C10 C9 1_555 1_555
H7 C10 1_555 1_555
C11 C10 1_555 1_555
H8 C11 1_555 1_555
C12 C10 1_555 1_555
H9 C12 1_555 1_555
C13 C12 1_555 1_555
H10 C13 1_555 1_555
C14 C13 1_555 1_555
H11 C14 1_555 1_555
C15 C8 1_555 1_555
H12 C15 1_555 1_555
C16 C11 1_555 1_555
C17 H13 1_555 1_555
H14 C17 1_555 1_555
H15 C17 1_555 1_555
Cl1 C1 1_555 1_555
N1 C7 1_555 1_555
H16 N1 1_555 1_555
N2 C9 1_555 1_555
O1 N2 1_555 1_555
H17 O1 1_555 1_555
O2 C16 1_555 1_555
O3 C16 1_555 1_555
C18 C19 1_555 1_555
C19 H18 1_555 1_555
C20 C19 1_555 1_555
H19 C20 1_555 1_555
C21 C20 1_555 1_555
C22 C21 1_555 1_555
H20 C22 1_555 1_555
C23 C18 1_555 1_555
H21 C23 1_555 1_555
C24 C21 1_555 1_555
H22 C24 1_555 1_555
C25 C24 1_555 1_555
H23 C25 1_555 1_555
C26 C25 1_555 1_555
C27 C26 1_555 1_555
H24 C27 1_555 1_555
C28 C27 1_555 1_555
H25 C28 1_555 1_555
C29 C27 1_555 1_555
H26 C29 1_555 1_555
C30 C29 1_555 1_555
H27 C30 1_555 1_555
C31 C30 1_555 1_555
H28 C31 1_555 1_555
C32 C25 1_555 1_555
H29 C32 1_555 1_555
C33 C28 1_555 1_555
C34 H30 1_555 1_555
H31 C34 1_555 1_555
H32 C34 1_555 1_555
Cl2 C18 1_555 1_555
N3 C24 1_555 1_555
H33 N3 1_555 1_555
N4 C26 1_555 1_555
O4 N4 1_555 1_555
H34 O4 1_555 1_555
O5 C33 1_555 1_555
O6 C33 1_555 1_555
C5 C6 1_555 1_555
C11 N1 1_555 1_555
C14 C15 1_555 1_555
C17 O3 1_555 1_555
C22 C23 1_555 1_555
C28 N3 1_555 1_555
C31 C32 1_555 1_555
C34 O6 1_555 1_555

#END
