
#######################################################################
#
#                 Cambridge Crystallographic Data Centre
#                                CCDC 
#
#######################################################################
#
# If this CIF has been generated from an entry in the Cambridge 
# Structural Database, then it will include bibliographic, chemical, 
# crystal, experimental, refinement or atomic coordinate data resulting 
# from the CCDC's data processing and validation procedures.
#
#######################################################################

data_BOHJIR
_chemical_formula_moiety         'C8 H10 N6 O1,H2 O1'
_chemical_name_systematic        '3-(7-Adeninyl)-propionamide monohydrate'
_symmetry_cell_setting           monoclinic
_symmetry_space_group_name_H-M   'P 21/c'
_symmetry_Int_Tables_number      14
_space_group_name_Hall           '-P 2ybc'
loop_
_symmetry_equiv_pos_site_id
_symmetry_equiv_pos_as_xyz
1 x,y,z
2 -x,1/2+y,1/2-z
3 -x,-y,-z
4 x,1/2-y,1/2+z
_cell_length_a                   9.850(1)
_cell_length_b                   28.326(1)
_cell_length_c                   7.261(1)
_cell_angle_alpha                90
_cell_angle_beta                 96.63(1)
_cell_angle_gamma                90
_cell_volume                     2012.35
_cell_formula_units_Z            8
loop_
_atom_site_label
_atom_site_type_symbol
_atom_site_fract_x
_atom_site_fract_y
_atom_site_fract_z
N1 N 0.59680 0.09308 0.78900
C1 C 0.64730 0.04960 0.83010
N2 N 0.58820 0.00803 0.79940
C2 C 0.45820 0.01219 0.71580
C3 C 0.39420 0.05494 0.66950
C4 C 0.46750 0.09720 0.70590
N3 N 0.42060 0.14048 0.66160
N4 N 0.26510 0.04286 0.58340
C5 C 0.26050 -0.00514 0.58480
N5 N 0.37330 -0.02518 0.66110
C6 C 0.14660 0.07283 0.52450
C7 C 0.08390 0.09297 0.68930
C8 C 0.04550 0.05420 0.81890
N6 N 0.08150 0.06178 1.00000
O1 O -0.01620 0.01817 0.75670
H1 H 0.74400 0.04900 0.89000
H2 H 0.34200 0.14500 0.60500
H3 H 0.47200 0.16500 0.69600
H4 H 0.17700 -0.02100 0.52600
H5 H 0.17500 0.10100 0.43800
H6 H 0.08400 0.05200 0.45500
H7 H 0.14400 0.11500 0.75300
H8 H -0.00700 0.10900 0.63700
H9 H 0.13600 0.09100 1.03800
H10 H 0.05900 0.03900 1.08200
N7 N 0.27090 0.14821 1.07300
C9 C 0.23680 0.19320 1.02510
N8 N 0.30870 0.23207 1.06010
C10 C 0.43370 0.22403 1.15510
C11 C 0.48060 0.17933 1.20810
C12 C 0.39520 0.14021 1.16530
N9 N 0.42710 0.09543 1.21350
N10 N 0.61020 0.18626 1.30020
C13 C 0.63100 0.23370 1.29700
N11 N 0.52920 0.25790 1.21270
C14 C 0.71130 0.15130 1.37770
C15 C 0.77570 0.12551 1.22590
C16 C 0.85300 0.15911 1.11350
N12 N 0.81530 0.16053 0.93270
O2 O 0.94570 0.18377 1.19170
H11 H 0.14500 0.19900 0.95700
H12 H 0.37300 0.07500 1.16700
H13 H 0.51500 0.09000 1.27000
H14 H 0.71300 0.24700 1.35600
H15 H 0.66500 0.12800 1.45400
H16 H 0.78000 0.17000 1.45400
H17 H 0.84300 0.10500 1.28200
H18 H 0.70800 0.10900 1.14600
H19 H 0.74800 0.14400 0.88600
H20 H 0.86600 0.18100 0.85900
O3 O 1.16260 0.18635 0.48790
H21 H 1.21200 0.21100 0.49900
H22 H 1.10400 0.18700 0.39400
O4 O 0.94510 0.21785 0.67720
H23 H 1.01500 0.21000 0.63100
H24 H 0.95000 0.24800 0.68300
loop_
_geom_bond_atom_site_label_1
_geom_bond_atom_site_label_2
_geom_bond_site_symmetry_1
_geom_bond_site_symmetry_2
N1 C1 1_555 1_555
C1 N2 1_555 1_555
N2 C2 1_555 1_555
C2 C3 1_555 1_555
C3 C4 1_555 1_555
C4 N1 1_555 1_555
N3 C4 1_555 1_555
N4 C3 1_555 1_555
C5 N4 1_555 1_555
N5 C2 1_555 1_555
C6 N4 1_555 1_555
C7 C6 1_555 1_555
C8 C7 1_555 1_555
N6 C8 1_555 1_555
O1 C8 1_555 1_555
H1 C1 1_555 1_555
H2 N3 1_555 1_555
H3 N3 1_555 1_555
H4 C5 1_555 1_555
H5 C6 1_555 1_555
H6 C6 1_555 1_555
H7 C7 1_555 1_555
H8 C7 1_555 1_555
H9 N6 1_555 1_555
H10 N6 1_555 1_555
N7 C9 1_555 1_555
C9 N8 1_555 1_555
N8 C10 1_555 1_555
C10 C11 1_555 1_555
C11 C12 1_555 1_555
C12 N7 1_555 1_555
N9 C12 1_555 1_555
N10 C11 1_555 1_555
C13 N10 1_555 1_555
N11 C10 1_555 1_555
C14 N10 1_555 1_555
C15 C14 1_555 1_555
C16 C15 1_555 1_555
N12 C16 1_555 1_555
O2 C16 1_555 1_555
H11 C9 1_555 1_555
H12 N9 1_555 1_555
H13 N9 1_555 1_555
H14 C13 1_555 1_555
H15 C14 1_555 1_555
H16 C14 1_555 1_555
H17 C15 1_555 1_555
H18 C15 1_555 1_555
H19 N12 1_555 1_555
H20 N12 1_555 1_555
O3 H21 1_555 1_555
H22 O3 1_555 1_555
O4 H23 1_555 1_555
H24 O4 1_555 1_555
C5 N5 1_555 1_555
C13 N11 1_555 1_555

#END
