
#######################################################################
#
#                 Cambridge Crystallographic Data Centre
#                                CCDC 
#
#######################################################################
#
# If this CIF has been generated from an entry in the Cambridge 
# Structural Database, then it will include bibliographic, chemical, 
# crystal, experimental, refinement or atomic coordinate data resulting 
# from the CCDC's data processing and validation procedures.
#
#######################################################################

data_BOHKAL
_chemical_formula_moiety         'C26 H42 N4 O6'
_chemical_name_systematic        
2,3,5,6-tetrakis(Morpholinomethyl)hydroquinone
_symmetry_cell_setting           monoclinic
_symmetry_space_group_name_H-M   'C 2/c'
_symmetry_Int_Tables_number      15
_space_group_name_Hall           '-C 2yn'
loop_
_symmetry_equiv_pos_site_id
_symmetry_equiv_pos_as_xyz
1 x,y,z
2 1/2+x,1/2+y,z
3 -x,y,1/2-z
4 1/2-x,1/2+y,1/2-z
5 -x,-y,-z
6 1/2-x,1/2-y,-z
7 x,-y,1/2+z
8 1/2+x,1/2-y,1/2+z
_cell_length_a                   26.763(2)
_cell_length_b                   6.0023(6)
_cell_length_c                   17.875(1)
_cell_angle_alpha                90
_cell_angle_beta                 114.36(1)
_cell_angle_gamma                90
_cell_volume                     2615.79
_exptl_crystal_colour            colorless
_exptl_crystal_description       prism
_cell_formula_units_Z            4
_exptl_crystal_recrystallization_method toluene
loop_
_atom_site_label
_atom_site_type_symbol
_atom_site_fract_x
_atom_site_fract_y
_atom_site_fract_z
O1 O 0.18072(3) 0.4061(1) 0.56748(4)
O2 O -0.00204(3) 0.4191(2) 0.35524(6)
O3 O 0.37998(3) 0.4911(1) 0.86786(4)
N1 N 0.10036(3) 0.2040(1) 0.44335(5)
N2 N 0.32588(3) 0.5518(1) 0.69469(5)
C1 C 0.21474(4) 0.3271(2) 0.53307(6)
C2 C 0.19876(4) 0.1469(2) 0.47858(6)
C3 C 0.26560(4) 0.4312(2) 0.55524(5)
C4 C 0.14386(4) 0.0363(2) 0.45895(6)
C5 C 0.08997(4) 0.3338(2) 0.36926(7)
C6 C 0.04878(5) 0.5128(2) 0.3615(1)
C7 C 0.00755(4) 0.2852(2) 0.42547(8)
C8 C 0.04844(4) 0.1043(2) 0.43526(6)
C9 C 0.28195(4) 0.6208(2) 0.61646(6)
C10 C 0.34845(4) 0.7399(2) 0.75037(6)
C11 C 0.39611(4) 0.6616(2) 0.82669(6)
C12 C 0.35550(4) 0.3089(2) 0.81371(6)
C13 C 0.30751(4) 0.3834(2) 0.73708(6)
H1 H 0.1343(4) -0.067(2) 0.4127(6)
H2 H 0.1461(4) -0.054(2) 0.5058(6)
H3 H 0.0746(5) 0.230(2) 0.3191(7)
H4 H 0.1242(4) 0.405(2) 0.3764(6)
H5 H 0.0629(6) 0.614(3) 0.4097(9)
H6 H 0.0410(6) 0.596(3) 0.3133(8)
H7 H -0.0295(5) 0.222(2) 0.4161(7)
H8 H 0.0216(5) 0.383(2) 0.4752(7)
H9 H 0.0553(5) 0.020(2) 0.4856(6)
H10 H 0.0329(4) 0.003(2) 0.3855(6)
H11 H 0.2496(4) 0.675(2) 0.6252(6)
H12 H 0.2967(4) 0.746(2) 0.5957(6)
H13 H 0.3607(4) 0.856(2) 0.7222(6)
H14 H 0.3211(4) 0.813(2) 0.7656(6)
H15 H 0.4113(4) 0.788(2) 0.8674(6)
H16 H 0.4250(4) 0.604(2) 0.8100(6)
H17 H 0.3831(4) 0.236(2) 0.7981(6)
H18 H 0.3440(4) 0.202(2) 0.8453(6)
H19 H 0.2778(4) 0.445(2) 0.7517(6)
H20 H 0.2916(4) 0.254(2) 0.6995(6)
H21 H 0.1469(5) 0.354(2) 0.5329(8)
O1E O 0.31928(3) 0.0939(1) 0.43252(4)
O2E O 0.50204(3) 0.0809(2) 0.64476(6)
O3E O 0.12002(3) 0.0089(1) 0.13214(4)
N1E N 0.39964(3) 0.2960(1) 0.55665(5)
N2E N 0.17412(3) -0.0518(1) 0.30531(5)
C1E C 0.28526(4) 0.1729(2) 0.46693(6)
C2E C 0.30124(4) 0.3531(2) 0.52142(6)
C3E C 0.23440(4) 0.0688(2) 0.44476(5)
C4E C 0.35614(4) 0.4637(2) 0.54105(6)
C5E C 0.41003(4) 0.1662(2) 0.63074(7)
C6E C 0.45122(5) -0.0128(2) 0.6385(1)
C7E C 0.49245(4) 0.2148(2) 0.57453(8)
C8E C 0.45156(4) 0.3957(2) 0.56474(6)
C9E C 0.21805(4) -0.1208(2) 0.38354(6)
C10E C 0.15155(4) -0.2399(2) 0.24963(6)
C11E C 0.10389(4) -0.1616(2) 0.17331(6)
C12E C 0.14450(4) 0.1911(2) 0.18629(6)
C13E C 0.19249(4) 0.1166(2) 0.26292(6)
H1E H 0.3657(4) 0.567(2) 0.5873(6)
H2E H 0.3539(4) 0.554(2) 0.4942(6)
H3E H 0.4254(5) 0.270(2) 0.6809(7)
H4E H 0.3758(4) 0.095(2) 0.6236(6)
H5E H 0.4371(6) -0.114(3) 0.5903(9)
H6E H 0.4590(6) -0.096(3) 0.6867(8)
H7E H 0.5295(5) 0.278(2) 0.5839(7)
H8E H 0.4784(5) 0.117(2) 0.5248(7)
H9E H 0.4447(5) 0.480(2) 0.5144(6)
H10E H 0.4671(4) 0.497(2) 0.6145(6)
H11E H 0.2504(4) -0.175(2) 0.3748(6)
H12E H 0.2033(4) -0.246(2) 0.4043(6)
H13E H 0.1393(4) -0.356(2) 0.2778(6)
H14E H 0.1789(4) -0.313(2) 0.2344(6)
H15E H 0.0887(4) -0.288(2) 0.1326(6)
H16E H 0.0750(4) -0.104(2) 0.1900(6)
H17E H 0.1169(4) 0.264(2) 0.2019(6)
H18E H 0.1560(4) 0.298(2) 0.1547(6)
H19E H 0.2222(4) 0.055(2) 0.2483(6)
H20E H 0.2084(4) 0.246(2) 0.3005(6)
H21E H 0.3531(5) 0.146(2) 0.4671(8)
loop_
_geom_bond_atom_site_label_1
_geom_bond_atom_site_label_2
_geom_bond_site_symmetry_1
_geom_bond_site_symmetry_2
O1 C1 1_555 1_555
O2 C6 1_555 1_555
O3 C11 1_555 1_555
N1 C4 1_555 1_555
N2 C9 1_555 1_555
C1 C2 1_555 1_555
C2 C4 1_555 1_555
C3 C1 1_555 1_555
C4 H1 1_555 1_555
C5 N1 1_555 1_555
C6 C5 1_555 1_555
C7 O2 1_555 1_555
C8 N1 1_555 1_555
C9 C3 1_555 1_555
C10 N2 1_555 1_555
C11 C10 1_555 1_555
C12 O3 1_555 1_555
C13 N2 1_555 1_555
H2 C4 1_555 1_555
H3 C5 1_555 1_555
H4 C5 1_555 1_555
H5 C6 1_555 1_555
H6 C6 1_555 1_555
H7 C7 1_555 1_555
H8 C7 1_555 1_555
H9 C8 1_555 1_555
H10 C8 1_555 1_555
H11 C9 1_555 1_555
H12 C9 1_555 1_555
H13 C10 1_555 1_555
H14 C10 1_555 1_555
H15 C11 1_555 1_555
H16 C11 1_555 1_555
H17 C12 1_555 1_555
H18 C12 1_555 1_555
H19 C13 1_555 1_555
H20 C13 1_555 1_555
H21 O1 1_555 1_555
O1E C1E 1_555 1_555
O2E C6E 1_555 1_555
O3E C11E 1_555 1_555
N1E C4E 1_555 1_555
N2E C9E 1_555 1_555
C1E C2E 1_555 1_555
C2E C3 1_555 1_555
C3E C2 1_555 1_555
C4E C2E 1_555 1_555
C5E N1E 1_555 1_555
C6E C5E 1_555 1_555
C7E O2E 1_555 1_555
C8E N1E 1_555 1_555
C9E C3E 1_555 1_555
C10E N2E 1_555 1_555
C11E C10E 1_555 1_555
C12E O3E 1_555 1_555
C13E N2E 1_555 1_555
H1E C4E 1_555 1_555
H2E C4E 1_555 1_555
H3E C5E 1_555 1_555
H4E C5E 1_555 1_555
H5E C6E 1_555 1_555
H6E C6E 1_555 1_555
H7E C7E 1_555 1_555
H8E C7E 1_555 1_555
H9E C8E 1_555 1_555
H10E C8E 1_555 1_555
H11E C9E 1_555 1_555
H12E C9E 1_555 1_555
H13E C10E 1_555 1_555
H14E C10E 1_555 1_555
H15E C11E 1_555 1_555
H16E C11E 1_555 1_555
H17E C12E 1_555 1_555
H18E C12E 1_555 1_555
H19E C13E 1_555 1_555
H20E C13E 1_555 1_555
H21E O1E 1_555 1_555
C7 C8 1_555 1_555
C12 C13 1_555 1_555
C1E C3E 1_555 1_555
C7E C8E 1_555 1_555
C12E C13E 1_555 1_555

#END
