
#######################################################################
#
#                 Cambridge Crystallographic Data Centre
#                                CCDC 
#
#######################################################################
#
# If this CIF has been generated from an entry in the Cambridge 
# Structural Database, then it will include bibliographic, chemical, 
# crystal, experimental, refinement or atomic coordinate data resulting 
# from the CCDC's data processing and validation procedures.
#
#######################################################################

data_BOHMUI
_chemical_formula_moiety         'C29 H40 N2 O2 Se1'
_chemical_name_systematic        
1,3-bis(2,6-di-isopropyl-4-methoxyphenyl)-1,3-dihydro-2H-imidazole-2-selenone
_symmetry_cell_setting           monoclinic
_symmetry_space_group_name_H-M   'P 21/n'
_symmetry_Int_Tables_number      14
_space_group_name_Hall           '-P 2yn'
loop_
_symmetry_equiv_pos_site_id
_symmetry_equiv_pos_as_xyz
1 x,y,z
2 1/2-x,1/2+y,1/2-z
3 -x,-y,-z
4 1/2+x,1/2-y,1/2+z
_cell_length_a                   9.514(11)
_cell_length_b                   13.957(15)
_cell_length_c                   21.38(2)
_cell_angle_alpha                90
_cell_angle_beta                 99.962(13)
_cell_angle_gamma                90
_cell_volume                     2796.18
_exptl_crystal_colour            colorless
_exptl_crystal_description       prism
_cell_formula_units_Z            4
loop_
_atom_site_label
_atom_site_type_symbol
_atom_site_fract_x
_atom_site_fract_y
_atom_site_fract_z
Se1 Se 0.42022(5) 0.63283(3) 0.76831(2)
O1 O 0.7702(4) 0.4452(3) 1.02426(15)
O2 O 0.0926(3) 0.6839(3) 0.47940(15)
N1 N 0.6062(4) 0.4724(2) 0.76147(16)
N2 N 0.4861(4) 0.5102(2) 0.66892(16)
C1 C 0.5053(4) 0.5348(3) 0.73157(19)
C2 C 0.6482(5) 0.4110(3) 0.7170(2)
C3 C 0.5757(5) 0.4348(3) 0.6601(2)
C4 C 0.6469(4) 0.4640(3) 0.82967(19)
C5 C 0.5619(4) 0.4087(3) 0.8628(2)
C6 C 0.6016(4) 0.4033(3) 0.9290(2)
C7 C 0.7219(5) 0.4492(3) 0.9597(2)
C8 C 0.8066(5) 0.5031(3) 0.9255(2)
C9 C 0.7718(4) 0.5111(3) 0.8605(2)
C10 C 0.4349(5) 0.3522(3) 0.8289(2)
C11 C 0.4781(6) 0.2479(4) 0.8210(3)
C12 C 0.3084(6) 0.3548(5) 0.8634(4)
C13 C 0.6855(6) 0.3928(4) 1.0614(2)
C14 C 0.8699(5) 0.5643(3) 0.8230(2)
C15 C 0.9105(7) 0.6635(4) 0.8485(3)
C16 C 1.0025(5) 0.5048(4) 0.8211(3)
C17 C 0.3852(4) 0.5553(3) 0.61817(19)
C18 C 0.4364(5) 0.6219(3) 0.5796(2)
C19 C 0.3394(5) 0.6645(3) 0.5311(2)
C20 C 0.1967(5) 0.6420(3) 0.5229(2)
C21 C 0.1480(5) 0.5745(3) 0.5622(2)
C22 C 0.2410(5) 0.5295(3) 0.61101(19)
C23 C 0.5918(5) 0.6537(3) 0.5919(2)
C24 C 0.5997(6) 0.7556(4) 0.6183(3)
C25 C 0.6595(7) 0.6492(5) 0.5313(3)
C26 C 0.1384(6) 0.7497(4) 0.4357(3)
C27 C 0.1870(5) 0.4557(3) 0.6533(2)
C28 C 0.0286(5) 0.4634(4) 0.6559(3)
C29 C 0.2211(6) 0.3535(3) 0.6325(3)
H1 H 0.71653 0.36098 0.72561
H2 H 0.58378 0.40557 0.62075
H3 H 0.54461 0.36751 0.95298
H4 H 0.88923 0.5345 0.94742
H5 H 0.40459 0.38046 0.78567
H6 H 0.50049 0.21737 0.86286
H7 H 0.56233 0.24586 0.80036
H8 H 0.39922 0.21361 0.79482
H9 H 0.28011 0.42142 0.86855
H10 H 0.33487 0.32488 0.90525
H11 H 0.22835 0.31963 0.83863
H12 H 0.5891 0.41999 1.05531
H13 H 0.72888 0.39699 1.10638
H14 H 0.68038 0.32558 1.04807
H15 H 0.81807 0.5715 0.77835
H16 H 0.9786 0.69208 0.82437
H17 H 0.95432 0.659 0.89339
H18 H 0.82485 0.70363 0.84425
H19 H 0.97466 0.44173 0.80291
H20 H 1.05583 0.49696 0.86429
H21 H 1.06272 0.53728 0.7948
H22 H 0.37226 0.70942 0.50347
H23 H 0.04934 0.55872 0.55552
H24 H 0.64671 0.61036 0.62462
H25 H 0.56272 0.75651 0.65837
H26 H 0.54231 0.79829 0.58766
H27 H 0.69919 0.77726 0.62595
H28 H 0.76189 0.6629 0.54227
H29 H 0.61402 0.69686 0.50069
H30 H 0.64564 0.58512 0.51259
H31 H 0.2009 0.71655 0.4108
H32 H 0.19061 0.80268 0.45923
H33 H 0.05493 0.77496 0.40706
H34 H 0.24033 0.46558 0.69744
H35 H -0.02677 0.4545 0.6132
H36 H 0.00822 0.52677 0.67196
H37 H 0.00233 0.41386 0.68428
H38 H 0.3247 0.34597 0.63638
H39 H 0.17581 0.34324 0.58828
H40 H 0.18457 0.30651 0.65977
loop_
_geom_bond_atom_site_label_1
_geom_bond_atom_site_label_2
_geom_bond_site_symmetry_1
_geom_bond_site_symmetry_2
Se1 C1 1_555 1_555
O1 C7 1_555 1_555
O2 C20 1_555 1_555
N1 C1 1_555 1_555
N2 C1 1_555 1_555
C2 N1 1_555 1_555
C3 N2 1_555 1_555
C4 N1 1_555 1_555
C5 C4 1_555 1_555
C6 C5 1_555 1_555
C7 C6 1_555 1_555
C8 C7 1_555 1_555
C9 C4 1_555 1_555
C10 C5 1_555 1_555
C11 C10 1_555 1_555
C12 C10 1_555 1_555
C13 O1 1_555 1_555
C14 C9 1_555 1_555
C15 C14 1_555 1_555
C16 C14 1_555 1_555
C17 N2 1_555 1_555
C18 C17 1_555 1_555
C19 C18 1_555 1_555
C20 C19 1_555 1_555
C21 C20 1_555 1_555
C22 C17 1_555 1_555
C23 C18 1_555 1_555
C24 C23 1_555 1_555
C25 C23 1_555 1_555
C26 O2 1_555 1_555
C27 C22 1_555 1_555
C28 C27 1_555 1_555
C29 C27 1_555 1_555
H1 C2 1_555 1_555
H2 C3 1_555 1_555
H3 C6 1_555 1_555
H4 C8 1_555 1_555
H5 C10 1_555 1_555
H6 C11 1_555 1_555
H7 C11 1_555 1_555
H8 C11 1_555 1_555
H9 C12 1_555 1_555
H10 C12 1_555 1_555
H11 C12 1_555 1_555
H12 C13 1_555 1_555
H13 C13 1_555 1_555
H14 C13 1_555 1_555
H15 C14 1_555 1_555
H16 C15 1_555 1_555
H17 C15 1_555 1_555
H18 C15 1_555 1_555
H19 C16 1_555 1_555
H20 C16 1_555 1_555
H21 C16 1_555 1_555
H22 C19 1_555 1_555
H23 C21 1_555 1_555
H24 C23 1_555 1_555
H25 C24 1_555 1_555
H26 C24 1_555 1_555
H27 C24 1_555 1_555
H28 C25 1_555 1_555
H29 C25 1_555 1_555
H30 C25 1_555 1_555
H31 C26 1_555 1_555
H32 C26 1_555 1_555
H33 C26 1_555 1_555
H34 C27 1_555 1_555
H35 C28 1_555 1_555
H36 C28 1_555 1_555
H37 C28 1_555 1_555
H38 C29 1_555 1_555
H39 C29 1_555 1_555
H40 C29 1_555 1_555
C2 C3 1_555 1_555
C8 C9 1_555 1_555
C21 C22 1_555 1_555

#END
