
#######################################################################
#
#                 Cambridge Crystallographic Data Centre
#                                CCDC 
#
#######################################################################
#
# If this CIF has been generated from an entry in the Cambridge 
# Structural Database, then it will include bibliographic, chemical, 
# crystal, experimental, refinement or atomic coordinate data resulting 
# from the CCDC's data processing and validation procedures.
#
#######################################################################

data_BOHNAP
_chemical_formula_moiety         'C27 H38 N2 Se1'
_chemical_name_systematic        
1,3-bis(2,6-di-isopropylphenyl)imidazolidine-2-selenone
_symmetry_cell_setting           monoclinic
_symmetry_space_group_name_H-M   'P 21/n'
_symmetry_Int_Tables_number      14
_space_group_name_Hall           '-P 2yn'
loop_
_symmetry_equiv_pos_site_id
_symmetry_equiv_pos_as_xyz
1 x,y,z
2 1/2-x,1/2+y,1/2-z
3 -x,-y,-z
4 1/2+x,1/2-y,1/2+z
_cell_length_a                   19.276(6)
_cell_length_b                   6.9627(18)
_cell_length_c                   20.508(7)
_cell_angle_alpha                90
_cell_angle_beta                 106.681(7)
_cell_angle_gamma                90
_cell_volume                     2636.61
_exptl_crystal_colour            colorless
_exptl_crystal_description       platelet
_cell_formula_units_Z            4
loop_
_atom_site_label
_atom_site_type_symbol
_atom_site_fract_x
_atom_site_fract_y
_atom_site_fract_z
Se1 Se 0.55922(5) 0.21635(11) 0.24519(6)
N1 N 0.5297(3) 0.6139(9) 0.2447(4)
N2 N 0.4347(4) 0.4365(8) 0.2384(4)
C1 C 0.5058(4) 0.4330(11) 0.2430(5)
C2 C 0.4692(5) 0.7570(11) 0.2398(6)
C3 C 0.4060(4) 0.6331(11) 0.2387(6)
C4 C 0.6034(5) 0.6708(11) 0.2482(6)
C5 C 0.6192(5) 0.6959(12) 0.1872(6)
C6 C 0.6901(6) 0.7561(13) 0.1912(7)
C7 C 0.7395(5) 0.7892(13) 0.2527(8)
C8 C 0.7212(5) 0.7651(14) 0.3121(6)
C9 C 0.6517(5) 0.7037(13) 0.3092(6)
C10 C 0.5666(6) 0.6614(15) 0.1177(6)
C11 C 0.5488(6) 0.8475(16) 0.0764(6)
C12 C 0.5944(6) 0.5053(18) 0.0801(6)
C13 C 0.6341(5) 0.6789(17) 0.3758(6)
C14 C 0.6528(7) 0.8530(18) 0.4214(7)
C15 C 0.6705(7) 0.4983(17) 0.4137(7)
C16 C 0.3902(4) 0.2767(12) 0.2440(5)
C17 C 0.3463(5) 0.1953(13) 0.1854(5)
C18 C 0.2992(5) 0.0513(13) 0.1956(7)
C19 C 0.2954(6) -0.0002(14) 0.2582(8)
C20 C 0.3407(6) 0.0802(15) 0.3140(7)
C21 C 0.3893(4) 0.2236(13) 0.3079(6)
C22 C 0.3495(5) 0.250(2) 0.1158(6)
C23 C 0.2830(7) 0.367(2) 0.0780(6)
C24 C 0.3563(8) 0.076(3) 0.0733(7)
C25 C 0.4391(5) 0.3052(17) 0.3732(6)
C26 C 0.4003(6) 0.432(2) 0.4112(6)
C27 C 0.4837(7) 0.158(2) 0.4193(7)
H1 H 0.48095 0.84431 0.27954
H2 H 0.45994 0.83435 0.19763
H3 H 0.38933 0.65527 0.27948
H4 H 0.36522 0.65722 0.1974
H5 H 0.70364 0.77396 0.15058
H6 H 0.7871 0.82933 0.25443
H7 H 0.75567 0.79004 0.35479
H8 H 0.52052 0.61357 0.125
H9 H 0.52959 0.94236 0.10205
H10 H 0.5125 0.8212 0.03294
H11 H 0.59283 0.89805 0.06793
H12 H 0.59768 0.38387 0.10494
H13 H 0.6425 0.54088 0.07679
H14 H 0.56108 0.49042 0.03428
H15 H 0.58055 0.65946 0.36479
H16 H 0.62918 0.9667 0.39657
H17 H 0.70537 0.87169 0.43568
H18 H 0.63585 0.83361 0.46171
H19 H 0.72311 0.51738 0.42928
H20 H 0.65932 0.38758 0.38294
H21 H 0.65246 0.47469 0.45303
H22 H 0.26883 -0.01256 0.15692
H23 H 0.26093 -0.0929 0.26267
H24 H 0.33963 0.03928 0.35789
H25 H 0.39338 0.3318 0.12101
H26 H 0.2806 0.48438 0.10391
H27 H 0.23913 0.29097 0.07316
H28 H 0.28668 0.40245 0.03285
H29 H 0.31181 -0.00068 0.06379
H30 H 0.39754 -0.00263 0.09841
H31 H 0.36387 0.11845 0.03033
H32 H 0.47415 0.39028 0.35919
H33 H 0.36417 0.35576 0.42508
H34 H 0.37606 0.53687 0.38145
H35 H 0.43535 0.48513 0.45158
H36 H 0.50992 0.08061 0.39405
H37 H 0.45199 0.07382 0.43642
H38 H 0.51839 0.22123 0.45759
loop_
_geom_bond_atom_site_label_1
_geom_bond_atom_site_label_2
_geom_bond_site_symmetry_1
_geom_bond_site_symmetry_2
Se1 C1 1_555 1_555
N1 C1 1_555 1_555
N2 C1 1_555 1_555
C2 N1 1_555 1_555
C3 N2 1_555 1_555
C4 N1 1_555 1_555
C5 C4 1_555 1_555
C6 C5 1_555 1_555
C7 C6 1_555 1_555
C8 C7 1_555 1_555
C9 C4 1_555 1_555
C10 C5 1_555 1_555
C11 C10 1_555 1_555
C12 C10 1_555 1_555
C13 C9 1_555 1_555
C14 C13 1_555 1_555
C15 C13 1_555 1_555
C16 N2 1_555 1_555
C17 C16 1_555 1_555
C18 C17 1_555 1_555
C19 C18 1_555 1_555
C20 C19 1_555 1_555
C21 C16 1_555 1_555
C22 C17 1_555 1_555
C23 C22 1_555 1_555
C24 C22 1_555 1_555
C25 C21 1_555 1_555
C26 C25 1_555 1_555
C27 C25 1_555 1_555
H1 C2 1_555 1_555
H2 C2 1_555 1_555
H3 C3 1_555 1_555
H4 C3 1_555 1_555
H5 C6 1_555 1_555
H6 C7 1_555 1_555
H7 C8 1_555 1_555
H8 C10 1_555 1_555
H9 C11 1_555 1_555
H10 C11 1_555 1_555
H11 C11 1_555 1_555
H12 C12 1_555 1_555
H13 C12 1_555 1_555
H14 C12 1_555 1_555
H15 C13 1_555 1_555
H16 C14 1_555 1_555
H17 C14 1_555 1_555
H18 C14 1_555 1_555
H19 C15 1_555 1_555
H20 C15 1_555 1_555
H21 C15 1_555 1_555
H22 C18 1_555 1_555
H23 C19 1_555 1_555
H24 C20 1_555 1_555
H25 C22 1_555 1_555
H26 C23 1_555 1_555
H27 C23 1_555 1_555
H28 C23 1_555 1_555
H29 C24 1_555 1_555
H30 C24 1_555 1_555
H31 C24 1_555 1_555
H32 C25 1_555 1_555
H33 C26 1_555 1_555
H34 C26 1_555 1_555
H35 C26 1_555 1_555
H36 C27 1_555 1_555
H37 C27 1_555 1_555
H38 C27 1_555 1_555
C2 C3 1_555 1_555
C8 C9 1_555 1_555
C20 C21 1_555 1_555

#END
