
#######################################################################
#
#                 Cambridge Crystallographic Data Centre
#                                CCDC 
#
#######################################################################
#
# If this CIF has been generated from an entry in the Cambridge 
# Structural Database, then it will include bibliographic, chemical, 
# crystal, experimental, refinement or atomic coordinate data resulting 
# from the CCDC's data processing and validation procedures.
#
#######################################################################

data_BOJTID
_chemical_formula_moiety         'C20 H17 N4 O7'
_chemical_name_systematic        
Naphtho(1,2-e)1,3-oxazine-2,2'-spiro-1',3',5'-trinitrocyclohexa-1'(6'),3'-diene
_symmetry_cell_setting           monoclinic
_symmetry_space_group_name_H-M   'P 21/c'
_symmetry_Int_Tables_number      14
_space_group_name_Hall           '-P 2ybc'
loop_
_symmetry_equiv_pos_site_id
_symmetry_equiv_pos_as_xyz
1 x,y,z
2 -x,1/2+y,1/2-z
3 -x,-y,-z
4 x,1/2-y,1/2+z
_cell_length_a                   8.464(1)
_cell_length_b                   11.849(2)
_cell_length_c                   18.736(3)
_cell_angle_alpha                90
_cell_angle_beta                 97.09(1)
_cell_angle_gamma                90
_cell_volume                     1864.66
_cell_formula_units_Z            4
loop_
_atom_site_label
_atom_site_type_symbol
_atom_site_fract_x
_atom_site_fract_y
_atom_site_fract_z
O1 O 0.36960 0.15550 0.70390
O2 O 0.49610 -0.04560 0.66720
O3 O 0.72620 -0.06400 0.73130
O4 O 0.78210 0.02480 0.98130
O5 O 0.59600 0.12010 1.02590
O6 O 0.09520 0.20520 0.76900
O7 O 0.15510 0.26670 0.87800
N1 N 0.23890 -0.00840 0.74910
N2 N 0.58780 -0.02990 0.72330
N3 N 0.65460 0.07670 0.97540
N4 N 0.18660 0.21060 0.82570
C1 C 0.36550 0.08160 0.76560
C2 C 0.52910 0.03040 0.78120
C3 C 0.62120 0.03250 0.84560
C4 C 0.56760 0.08740 0.90410
C5 C 0.42560 0.14770 0.89550
C6 C 0.33290 0.14850 0.83080
C7 C 0.13010 -0.00380 0.69380
C8 C 0.12610 0.08160 0.64060
C9 C 0.25140 0.15790 0.64730
C10 C 0.26510 0.24360 0.59690
C11 C 0.14510 0.25510 0.54020
C12 C 0.00960 0.18370 0.53320
C13 C -0.00260 0.09490 0.58280
C14 C -0.14090 0.02710 0.57650
C15 C -0.26110 0.04600 0.52100
C16 C -0.24820 0.13350 0.47120
C17 C -0.11650 0.20060 0.47580
C18 C 0.23870 -0.09770 0.80660
C19 C 0.27380 -0.21250 0.77470
C20 C 0.08270 -0.09390 0.83880
loop_
_geom_bond_atom_site_label_1
_geom_bond_atom_site_label_2
_geom_bond_site_symmetry_1
_geom_bond_site_symmetry_2
O1 C1 1_555 1_555
O2 N2 1_555 1_555
O3 N2 1_555 1_555
O4 N3 1_555 1_555
O5 N3 1_555 1_555
O6 N4 1_555 1_555
O7 N4 1_555 1_555
N1 C1 1_555 1_555
N2 C2 1_555 1_555
N3 C4 1_555 1_555
N4 C6 1_555 1_555
C1 C2 1_555 1_555
C2 C3 1_555 1_555
C3 C4 1_555 1_555
C4 C5 1_555 1_555
C5 C6 1_555 1_555
C6 C1 1_555 1_555
C7 N1 1_555 1_555
C8 C7 1_555 1_555
C9 O1 1_555 1_555
C10 C9 1_555 1_555
C11 C10 1_555 1_555
C12 C11 1_555 1_555
C13 C8 1_555 1_555
C14 C13 1_555 1_555
C15 C14 1_555 1_555
C16 C15 1_555 1_555
C17 C12 1_555 1_555
C18 N1 1_555 1_555
C19 C18 1_555 1_555
C20 C18 1_555 1_555
C8 C9 1_555 1_555
C12 C13 1_555 1_555
C16 C17 1_555 1_555

#END
