
#######################################################################
#
#                 Cambridge Crystallographic Data Centre
#                                CCDC 
#
#######################################################################
#
# If this CIF has been generated from an entry in the Cambridge 
# Structural Database, then it will include bibliographic, chemical, 
# crystal, experimental, refinement or atomic coordinate data resulting 
# from the CCDC's data processing and validation procedures.
#
#######################################################################

data_BOKFEO
_chemical_formula_moiety         
'1.5(C48 H48 N32 O16),1.5(C21 H32 N2 2+),29.53(H2 O1),I1 1-,2(Br1 1-)'
_chemical_name_systematic        
"sesquikis(1-decyl-1'-methyl-4,4'-bipyridinium) sesquikis(cucurbit[8]uril) iodide dibromide hydrate"
_symmetry_cell_setting           monoclinic
_symmetry_space_group_name_H-M   'P 21/n'
_symmetry_Int_Tables_number      14
_space_group_name_Hall           '-P 2yn'
loop_
_symmetry_equiv_pos_site_id
_symmetry_equiv_pos_as_xyz
1 x,y,z
2 1/2-x,1/2+y,1/2-z
3 -x,-y,-z
4 1/2+x,1/2-y,1/2+z
_cell_length_a                   18.418(4)
_cell_length_b                   21.412(4)
_cell_length_c                   39.655(8)
_cell_angle_alpha                90
_cell_angle_beta                 99.28(3)
_cell_angle_gamma                90
_cell_volume                     15433.9
_exptl_crystal_colour            colorless
_exptl_crystal_description       plate
_cell_formula_units_Z            4
loop_
_atom_site_label
_atom_site_type_symbol
_atom_site_fract_x
_atom_site_fract_y
_atom_site_fract_z
O1 O 0.0612(2) 0.35345(17) 0.30444(9)
O2 O -0.0095(2) 0.16033(17) 0.19282(8)
O3 O 0.2480(2) 0.29994(16) 0.32203(8)
O4 O 0.1763(2) 0.10804(16) 0.20678(8)
O5 O 0.4366(2) 0.34946(16) 0.29168(9)
O6 O 0.3635(2) 0.16340(18) 0.17076(9)
O7 O 0.5154(2) 0.47014(17) 0.22442(9)
O8 O 0.4590(3) 0.27634(18) 0.10872(9)
O9 O 0.4355(2) 0.59158(16) 0.15824(9)
O10 O 0.3944(3) 0.38727(18) 0.04799(9)
O11 O 0.2504(2) 0.64807(16) 0.13531(9)
O12 O 0.1949(3) 0.43433(18) 0.03178(10)
O13 O 0.0785(2) 0.58910(17) 0.17308(10)
O14 O 0.0193(2) 0.38629(18) 0.06450(10)
O15 O -0.0050(2) 0.47518(18) 0.24289(10)
O16 O -0.0733(2) 0.27030(17) 0.13309(9)
N1 N -0.0346(3) 0.3075(2) 0.26808(11)
N2 N 0.0499(3) 0.2474(2) 0.29784(10)
N3 N -0.0682(3) 0.2263(2) 0.22536(11)
N4 N 0.0281(2) 0.17217(19) 0.25097(9)
N5 N 0.1769(2) 0.2148(2) 0.30241(10)
N6 N 0.2955(2) 0.21440(19) 0.29816(10)
N7 N 0.1519(2) 0.13030(19) 0.26088(10)
N8 N 0.2658(2) 0.1411(2) 0.25072(10)
N9 N 0.4063(2) 0.24745(19) 0.27680(10)
N10 N 0.4836(2) 0.29693(19) 0.24869(10)
N11 N 0.3752(3) 0.1762(2) 0.22901(11)
N12 N 0.4570(3) 0.2215(2) 0.20166(10)
N13 N 0.5356(2) 0.3672(2) 0.21091(10)
N14 N 0.5449(3) 0.4405(2) 0.17216(10)
N15 N 0.5123(3) 0.2914(2) 0.16497(10)
N16 N 0.5283(3) 0.3632(2) 0.12652(11)
N17 N 0.4936(3) 0.5168(2) 0.13034(10)
N18 N 0.4092(3) 0.5770(2) 0.09980(10)
N19 N 0.4834(3) 0.4403(2) 0.08392(11)
N20 N 0.3889(3) 0.4937(2) 0.05787(10)
N21 N 0.2825(3) 0.6125(2) 0.08492(10)
N22 N 0.1660(3) 0.6080(2) 0.09122(11)
N23 N 0.2616(3) 0.5250(2) 0.04516(11)
N24 N 0.1429(3) 0.5238(2) 0.04972(11)
N25 N 0.0572(3) 0.5737(2) 0.11424(12)
N26 N -0.0127(3) 0.5244(2) 0.14646(12)
N27 N 0.0303(3) 0.4938(2) 0.07032(12)
N28 N -0.0356(3) 0.4430(2) 0.10331(12)
N29 N -0.0611(3) 0.4575(2) 0.18705(11)
N30 N -0.0758(3) 0.3878(2) 0.22683(11)
N31 N -0.0841(3) 0.3757(2) 0.14380(11)
N32 N -0.1047(2) 0.3075(2) 0.18347(11)
C1 C 0.0291(3) 0.3076(2) 0.29133(12)
C2 C -0.0628(3) 0.2449(3) 0.26081(12)
H1 H -0.1101 0.2381 0.2696
C3 C -0.0001(3) 0.2024(2) 0.27928(12)
H2 H -0.0184 0.1715 0.2948
C4 C -0.0157(3) 0.1835(2) 0.22007(13)
C5 C 0.1163(3) 0.2297(2) 0.32027(12)
H3 H 0.1058 0.1929 0.3338
H4 H 0.1314 0.2643 0.3364
C6 C 0.0741(3) 0.1169(2) 0.25552(13)
H5 H 0.0625 0.0931 0.2754
H6 H 0.0620 0.0901 0.2351
C7 C 0.2412(3) 0.2486(2) 0.30927(12)
C8 C 0.1913(3) 0.1500(2) 0.29329(12)
H7 H 0.1843 0.1203 0.3120
C9 C 0.2720(3) 0.1522(2) 0.28760(12)
H8 H 0.3026 0.1196 0.3012
C10 C 0.1965(3) 0.1238(2) 0.23606(12)
C11 C 0.3726(3) 0.2327(2) 0.30682(12)
H9 H 0.3762 0.2697 0.3220
H10 H 0.4004 0.1983 0.3196
C12 C 0.3291(3) 0.1228(2) 0.23525(13)
H11 H 0.3117 0.1014 0.2133
H12 H 0.3593 0.0927 0.2505
C13 C 0.4423(3) 0.3023(2) 0.27412(12)
C14 C 0.4315(3) 0.1990(2) 0.25660(12)
H13 H 0.4548 0.1640 0.2712
C15 C 0.4872(3) 0.2322(2) 0.23771(12)
H14 H 0.5378 0.2145 0.2439
C16 C 0.3958(3) 0.1843(2) 0.19791(13)
C17 C 0.5421(3) 0.3411(2) 0.24522(12)
H15 H 0.5410 0.3756 0.2618
H16 H 0.5902 0.3197 0.2509
C18 C 0.5030(3) 0.2270(2) 0.17568(14)
H17 H 0.4811 0.2022 0.1555
H18 H 0.5519 0.2091 0.1845
C19 C 0.5305(3) 0.4299(3) 0.20475(13)
C20 C 0.5640(3) 0.3333(3) 0.18369(13)
H19 H 0.6120 0.3123 0.1922
C21 C 0.5722(3) 0.3850(3) 0.15746(13)
H20 H 0.6247 0.3902 0.1545
C22 C 0.4949(3) 0.3065(3) 0.13076(13)
C23 C 0.5519(3) 0.5025(2) 0.15864(13)
H21 H 0.6001 0.5061 0.1507
H22 H 0.5509 0.5335 0.1771
C24 C 0.5332(4) 0.3875(3) 0.09330(14)
H23 H 0.5213 0.3539 0.0762
H24 H 0.5844 0.4011 0.0928
C25 C 0.4449(3) 0.5650(2) 0.13229(13)
C26 C 0.5016(4) 0.5039(3) 0.09479(13)
H25 H 0.5508 0.5171 0.0897
C27 C 0.4379(3) 0.5418(2) 0.07399(13)
H26 H 0.4556 0.5696 0.0568
C28 C 0.4198(4) 0.4348(3) 0.06224(13)
C29 C 0.3600(3) 0.6297(2) 0.09208(13)
H27 H 0.3730 0.6520 0.0720
H28 H 0.3675 0.6589 0.1117
C30 C 0.3263(4) 0.5062(3) 0.03168(12)
H29 H 0.3148 0.4682 0.0176
H30 H 0.3396 0.5396 0.0165
C31 C 0.2345(3) 0.6253(2) 0.10700(14)
C32 C 0.2470(3) 0.5888(2) 0.05233(13)
H31 H 0.2558 0.6168 0.0332
C33 C 0.1645(3) 0.5884(3) 0.05635(13)
H32 H 0.1348 0.6175 0.0399
C34 C 0.1990(3) 0.4881(3) 0.04129(13)
C35 C 0.1007(3) 0.6266(2) 0.10559(15)
H33 H 0.0693 0.6534 0.0889
H34 H 0.1164 0.6518 0.1264
C36 C 0.0676(4) 0.5049(3) 0.04088(14)
H35 H 0.0656 0.4661 0.0272
H36 H 0.0405 0.5376 0.0263
C37 C 0.0452(3) 0.5651(2) 0.14703(15)
C38 C 0.0025(3) 0.5431(3) 0.08972(15)
H37 H -0.0271 0.5741 0.0743
C39 C -0.0457(3) 0.5080(2) 0.11187(14)
H38 H -0.0985 0.5210 0.1066
C40 C 0.0063(3) 0.4363(3) 0.07779(14)
C41 C -0.0543(4) 0.5208(2) 0.17454(15)
H39 H -0.0299 0.5471 0.1936
H40 H -0.1041 0.5380 0.1669
C42 C -0.0895(3) 0.3954(3) 0.10845(14)
H41 H -0.1395 0.4121 0.1006
H42 H -0.0827 0.3586 0.0942
C43 C -0.0437(3) 0.4438(3) 0.22094(14)
C44 C -0.1136(3) 0.4144(2) 0.16900(14)
H43 H -0.1604 0.4357 0.1589
C45 C -0.1256(3) 0.3670(3) 0.19683(14)
H44 H -0.1778 0.3667 0.2008
C46 C -0.0869(3) 0.3134(2) 0.15142(13)
C47 C -0.0782(4) 0.3633(3) 0.26074(14)
H45 H -0.0601 0.3956 0.2779
H46 H -0.1299 0.3539 0.2629
C48 C -0.1240(3) 0.2480(3) 0.19761(13)
H47 H -0.1308 0.2162 0.1792
H48 H -0.1714 0.2526 0.2061
N33 N 0.2537(4) 0.2907(3) 0.03238(18)
N34 N 0.1340(3) 0.2880(2) 0.18761(15)
C49 C 0.2789(7) 0.2981(5) -0.0013(2)
H49 H 0.2814 0.3427 -0.0067
H50 H 0.2441 0.2773 -0.0191
H51 H 0.3277 0.2793 -0.0002
C50 C 0.1787(6) 0.2943(4) 0.0328(2)
H52 H 0.1460 0.3005 0.0120
C51 C 0.2988(6) 0.2748(4) 0.0594(3)
H53 H 0.3493 0.2673 0.0585
C52 C 0.1517(4) 0.2894(3) 0.06160(19)
H54 H 0.1006 0.2948 0.0619
C53 C 0.2697(6) 0.2689(4) 0.0910(2)
H55 H 0.3028 0.2596 0.1114
C54 C 0.2023(5) 0.2754(3) 0.09283(18)
C55 C 0.1789(4) 0.2754(3) 0.12538(16)
C56 C 0.1150(4) 0.3102(3) 0.12955(19)
H56 H 0.0857 0.3294 0.1104
C57 C 0.2149(4) 0.2446(3) 0.15419(16)
H57 H 0.2555 0.2180 0.1525
C58 C 0.1921(4) 0.2526(3) 0.18472(16)
H58 H 0.2180 0.2326 0.2044
C59 C 0.0964(4) 0.3157(3) 0.16148(19)
H59 H 0.0551 0.3404 0.1645
C60 C 0.1181(5) 0.3003(4) 0.2234(2)
H60 H 0.1217 0.2606 0.2363
H61 H 0.0671 0.3160 0.2219
C61 C 0.1717(5) 0.3482(3) 0.24282(17)
H62 H 0.1629 0.3504 0.2668
H63 H 0.2226 0.3332 0.2432
C62 C 0.1649(4) 0.4132(3) 0.22762(17)
H64 H 0.1142 0.4286 0.2278
H65 H 0.1723 0.4108 0.2035
C63 C 0.2194(4) 0.4604(3) 0.24632(18)
H66 H 0.2111 0.5013 0.2347
H67 H 0.2089 0.4656 0.2699
C64 C 0.3000(4) 0.4427(4) 0.24813(15)
H68 H 0.3305 0.4789 0.2572
H69 H 0.3111 0.4081 0.2648
C65 C 0.3236(5) 0.4228(4) 0.21486(19)
H70 H 0.3748 0.4072 0.2195
H71 H 0.2917 0.3882 0.2047
C66 C 0.3189(5) 0.4758(3) 0.1900(2)
H72 H 0.3540 0.5087 0.1997
H73 H 0.2688 0.4939 0.1875
C67 C 0.3352(5) 0.4585(5) 0.1541(2)
H74 H 0.3399 0.4975 0.1412
H75 H 0.3833 0.4368 0.1568
C68 C 0.2782(5) 0.4177(5) 0.1334(2)
H76 H 0.2954 0.4060 0.1118
H77 H 0.2728 0.3788 0.1462
C69 C 0.2056(4) 0.4486(3) 0.12516(17)
H78 H 0.1876 0.4592 0.1464
H79 H 0.1707 0.4203 0.1116
H80 H 0.2104 0.4868 0.1121
O17 O 0.9771(2) 1.22683(18) 0.05539(9)
O18 O 0.7871(2) 1.00496(19) 0.08949(10)
O19 O 1.1757(2) 1.12968(17) 0.09967(9)
O20 O 0.9820(2) 0.90615(16) 0.12489(9)
O21 O 1.3224(2) 1.02569(17) 0.07919(9)
O22 O 1.1356(2) 0.79466(16) 0.10118(9)
O23 O 1.3306(3) 0.9635(2) -0.00588(10)
O24 O 1.1566(2) 0.72994(17) 0.02284(9)
N35 N 0.8612(3) 1.1994(2) 0.06646(11)
N36 N 0.9598(3) 1.1541(2) 0.09658(10)
N37 N 0.7862(3) 1.1119(2) 0.08031(11)
N38 N 0.8840(3) 1.06806(19) 0.11166(11)
N39 N 1.0717(3) 1.09985(19) 0.12128(10)
N40 N 1.1732(2) 1.04126(19) 0.13294(10)
N41 N 0.9959(2) 1.01214(19) 0.13282(10)
N42 N 1.0953(2) 0.95286(18) 0.14095(10)
N43 N 1.2703(3) 0.97487(19) 0.12075(10)
N44 N 1.3211(3) 0.9186(2) 0.08372(11)
N45 N 1.1896(2) 0.88560(19) 0.12505(10)
N46 N 1.2532(3) 0.8250(2) 0.09550(10)
N47 N 1.3332(3) 0.8766(2) 0.02835(11)
N48 N 1.2944(3) 0.8664(2) -0.02740(11)
N49 N 1.2662(3) 0.7833(2) 0.03986(10)
N50 N 1.2241(3) 0.7742(2) -0.01561(11)
C70 C 0.8221(4) 1.2478(3) 0.04658(13)
H81 H 0.8580 1.2783 0.0402
H82 H 0.7909 1.2700 0.0608
C71 C 0.7116(3) 1.1169(3) 0.06250(14)
H83 H 0.6866 1.0763 0.0641
H84 H 0.6853 1.1485 0.0742
C72 C 0.9378(3) 1.1964(2) 0.07151(13)
C73 C 0.8317(3) 1.1646(2) 0.09262(13)
H85 H 0.8059 1.1929 0.1069
C74 C 0.9000(3) 1.1352(2) 0.11378(13)
H86 H 0.9074 1.1503 0.1380
C75 C 0.8159(3) 1.0564(3) 0.09313(13)
C76 C 1.0343(3) 1.1596(2) 0.11606(13)
H87 H 1.0636 1.1879 0.1037
H88 H 1.0315 1.1786 0.1386
C77 C 0.9200(3) 1.0252(3) 0.13712(13)
H89 H 0.8920 0.9855 0.1356
H90 H 0.9198 1.0431 0.1601
C78 C 1.1433(3) 1.0948(2) 0.11634(12)
C79 C 1.0540(3) 1.0551(2) 0.14643(12)
H91 H 1.0440 1.0761 0.1677
C80 C 1.1232(3) 1.0139(2) 0.15301(12)
H92 H 1.1448 1.0129 0.1778
C81 C 1.0198(3) 0.9527(2) 0.13211(12)
C82 C 1.2509(3) 1.0288(2) 0.13879(13)
H93 H 1.2675 1.0226 0.1636
H94 H 1.2772 1.0656 0.1316
C83 C 1.1373(3) 0.8956(2) 0.14799(12)
H95 H 1.1640 0.8970 0.1717
H96 H 1.1029 0.8598 0.1462
C84 C 1.3069(3) 0.9782(2) 0.09325(12)
C85 C 1.2638(3) 0.9113(2) 0.13234(12)
H97 H 1.2856 0.9063 0.1570
C86 C 1.3059(3) 0.8728(2) 0.10881(12)
H98 H 1.3521 0.8544 0.1217
C87 C 1.1870(3) 0.8319(2) 0.10673(12)
C88 C 1.3701(4) 0.9063(3) 0.05989(14)
H99 H 1.4102 0.8787 0.0708
H100 H 1.3925 0.9460 0.0540
C89 C 1.2710(3) 0.7718(2) 0.07627(12)
H101 H 1.2373 0.7372 0.0796
H102 H 1.3217 0.7581 0.0855
C90 C 1.3205(3) 0.9085(3) -0.00206(14)
C91 C 1.3238(3) 0.8101(2) 0.02442(13)
H103 H 1.3713 0.7875 0.0315
C92 C 1.2959(3) 0.8033(3) -0.01497(13)
H104 H 1.3295 0.7764 -0.0262
C93 C 1.2089(3) 0.7600(3) 0.01626(13)
O17B O 1.0229(2) 0.77317(18) -0.05539(9)
O18B O 1.2129(2) 0.99504(19) -0.08949(10)
O19B O 0.8243(2) 0.87032(17) -0.09967(9)
O20B O 1.0180(2) 1.09385(16) -0.12489(9)
O21B O 0.6776(2) 0.97431(17) -0.07919(9)
O22B O 0.8644(2) 1.20534(16) -0.10118(9)
O23B O 0.6694(3) 1.0365(2) 0.00588(10)
O24B O 0.8434(2) 1.27006(17) -0.02284(9)
N35B N 1.1388(3) 0.8006(2) -0.06646(11)
N36B N 1.0402(3) 0.8459(2) -0.09658(10)
N37B N 1.2138(3) 0.8881(2) -0.08031(11)
N38B N 1.1160(3) 0.93194(19) -0.11166(11)
N39B N 0.9283(3) 0.90015(19) -0.12128(10)
N40B N 0.8268(2) 0.95874(19) -0.13294(10)
N41B N 1.0041(2) 0.98786(19) -0.13282(10)
N42B N 0.9047(2) 1.04714(18) -0.14095(10)
N43B N 0.7297(3) 1.02513(19) -0.12075(10)
N44B N 0.6789(3) 1.0814(2) -0.08372(11)
N45B N 0.8104(2) 1.11440(19) -0.12505(10)
N46B N 0.7468(3) 1.1750(2) -0.09550(10)
N47B N 0.6668(3) 1.1234(2) -0.02835(11)
N48B N 0.7056(3) 1.1336(2) 0.02740(11)
N49B N 0.7338(3) 1.2167(2) -0.03986(10)
N50B N 0.7759(3) 1.2258(2) 0.01561(11)
C70B C 1.1779(4) 0.7522(3) -0.04658(13)
H81B H 1.1420 0.7217 -0.0402
H82B H 1.2091 0.7300 -0.0608
C71B C 1.2884(3) 0.8831(3) -0.06250(14)
H83B H 1.3134 0.9237 -0.0641
H84B H 1.3147 0.8515 -0.0742
C72B C 1.0622(3) 0.8036(2) -0.07151(13)
C73B C 1.1683(3) 0.8354(2) -0.09262(13)
H85B H 1.1941 0.8071 -0.1069
C74B C 1.1000(3) 0.8648(2) -0.11378(13)
H86B H 1.0926 0.8497 -0.1380
C75B C 1.1841(3) 0.9436(3) -0.09313(13)
C76B C 0.9657(3) 0.8404(2) -0.11606(13)
H87B H 0.9364 0.8121 -0.1037
H88B H 0.9685 0.8214 -0.1386
C77B C 1.0800(3) 0.9748(3) -0.13712(13)
H89B H 1.1080 1.0145 -0.1356
H90B H 1.0802 0.9569 -0.1601
C78B C 0.8567(3) 0.9052(2) -0.11634(12)
C79B C 0.9460(3) 0.9449(2) -0.14643(12)
H91B H 0.9560 0.9239 -0.1677
C80B C 0.8768(3) 0.9861(2) -0.15301(12)
H92B H 0.8552 0.9871 -0.1778
C81B C 0.9802(3) 1.0473(2) -0.13211(12)
C82B C 0.7491(3) 0.9712(2) -0.13879(13)
H93B H 0.7325 0.9774 -0.1636
H94B H 0.7228 0.9344 -0.1316
C83B C 0.8627(3) 1.1044(2) -0.14799(12)
H95B H 0.8360 1.1030 -0.1717
H96B H 0.8971 1.1402 -0.1462
C84B C 0.6931(3) 1.0218(2) -0.09325(12)
C85B C 0.7362(3) 1.0887(2) -0.13234(12)
H97B H 0.7144 1.0937 -0.1570
C86B C 0.6941(3) 1.1272(2) -0.10881(12)
H98B H 0.6479 1.1456 -0.1217
C87B C 0.8130(3) 1.1681(2) -0.10673(12)
C88B C 0.6299(4) 1.0937(3) -0.05989(14)
H99B H 0.5898 1.1213 -0.0708
H100B H 0.6075 1.0540 -0.0540
C89B C 0.7290(3) 1.2282(2) -0.07627(12)
H101B H 0.7627 1.2628 -0.0796
H102B H 0.6783 1.2419 -0.0855
C90B C 0.6795(3) 1.0915(3) 0.00206(14)
C91B C 0.6762(3) 1.1899(2) -0.02442(13)
H103B H 0.6287 1.2125 -0.0315
C92B C 0.7041(3) 1.1967(3) 0.01497(13)
H104B H 0.6705 1.2236 0.0262
C93B C 0.7911(3) 1.2400(3) -0.01626(13)
I1 I -0.28421(5) 0.29693(6) 0.12804(2)
Br1 Br 1.42046(14) 0.66108(10) -0.00168(5)
O25 O 0.5080(5) 0.2544(6) 0.3942(3)
O26 O 0.6695(13) 0.1393(10) 0.3958(6)
O27 O 0.4835(3) 0.47471(19) 0.29167(10)
O28 O 0.1615(3) 0.5582(3) -0.02949(9)
O29 O 0.7021(3) 0.4164(3) 0.23323(14)
O30 O 1.3845(5) 1.1369(4) 0.10311(18)
O31 O 1.4265(11) 1.1078(8) 0.1155(5)
O32 O 0.0947(3) 0.4852(3) 0.31488(19)
O33 O 0.6047(3) 0.5841(3) 0.24097(17)
O34 O 0.7228(6) 0.4991(6) 0.1155(4)
O35 O -0.0230(4) 0.3392(3) -0.00346(17)
O36 O 0.7043(5) 0.5962(4) 0.3159(2)
O37 O 0.0012(5) 0.5833(3) 0.2822(2)
O38 O 0.7420(5) 0.2921(4) 0.2477(2)
O39 O 0.8805(5) 0.8582(4) 0.1638(2)
O40 O 0.0338(6) 0.4399(4) 0.3660(2)
O41 O 1.5317(5) 0.9984(4) 0.0803(2)
O42 O 0.2897(6) 0.6152(4) -0.0506(3)
O43 O 0.6585(6) 0.6350(5) 0.1835(3)
O44 O 0.0756(5) 0.3027(5) -0.0460(2)
O45 O 0.5792(8) 0.6416(5) 0.1197(4)
O46 O 0.6750(13) 0.4494(7) 0.2990(3)
O47 O 1.5289(8) 1.1238(7) 0.1011(4)
O48 O -0.0917(8) 0.5742(10) 0.3333(4)
O49 O -0.1493(9) 0.4503(8) 0.3281(4)
O50 O 0.7587(14) 0.2420(11) 0.3090(6)
O51 O 0.7651(9) 0.5031(7) 0.1989(4)
O52 O 0.5806(9) 0.2211(6) 0.0698(4)
O53 O 0.6778(8) 0.1938(8) 0.2267(6)
O54 O 0.7545(8) 0.8183(8) 0.1232(6)
O55 O 0.5325(10) 0.4967(9) 0.0137(4)
O56 O 0.6396(14) 0.1140(11) 0.2686(6)
O57 O 0.7919(13) 0.6546(11) 0.3303(7)
O58 O 0.6160(14) 0.5887(10) 0.0311(6)
O59 O 0.6191(14) 0.6892(11) 0.0640(6)
O60 O 0.749(3) 0.705(2) 0.0906(14)
O61 O 0.1556(11) 0.4458(13) -0.0421(3)
O55B O 0.4675(10) 0.5033(9) -0.0137(4)
O62? O 1.2763(14) 1.0918(7) -0.0485(6)
I2? I -0.26537(16) 0.33333(15) 0.12023(7)
Br2? Br 1.3788(6) 0.6663(4) 0.0051(3)
Br3? Br 0.58439(14) 0.20754(12) 0.32341(6)
Br4? Br 0.5570(8) 0.1751(8) 0.3719(3)
O63? O 0.7333(6) 0.5282(5) 0.1268(3)
O64? O -0.0780(12) 0.3603(9) 0.0133(5)
O65? O 0.0911(13) 0.3751(8) -0.0176(7)
O66? O 0.8178(11) 0.2794(9) 0.3202(4)
O67? O 0.6676(9) 0.9393(7) 0.1024(4)
O68? O 1.5110(10) 0.7507(9) -0.0106(5)
O69? O 1.5441(11) 0.7251(9) -0.0277(5)
O70? O 1.5639(13) 0.8342(12) 0.1471(8)
O71? O 0.7560(17) 0.4906(13) 0.3398(7)
N51? N 1.4273(6) 1.1176(7) -0.0033(3)
N52? N 1.0399(5) 1.1537(4) -0.02237(17)
C94? C 1.5100(6) 1.1284(9) 0.0018(4)
H105? H 1.5230 1.1623 0.0183
H106? H 1.5247 1.1398 -0.0200
H107? H 1.5356 1.0901 0.0105
C95? C 1.3844(7) 1.1453(9) -0.0347(3)
H108? H 1.4070 1.1613 -0.0527
C96? C 1.3849(5) 1.0952(7) 0.0227(3)
H109? H 1.4094 1.0751 0.0427
C97? C 1.3111(7) 1.1458(9) -0.0355(3)
H110? H 1.2826 1.1650 -0.0549
C98? C 1.3120(5) 1.1030(4) 0.0183(2)
H111? H 1.2867 1.0951 0.0369
C99? C 1.2733(6) 1.1219(6) -0.0118(2)
C100? C 1.1896(6) 1.1296(5) -0.0141(2)
C101? C 1.1461(7) 1.1281(5) -0.0464(3)
H112? H 1.1683 1.1176 -0.0657
C102? C 1.1586(6) 1.1427(5) 0.0138(2)
H113? H 1.1882 1.1432 0.0358
C103? C 1.0861(6) 1.1550(5) 0.0106(2)
H114? H 1.0652 1.1647 0.0304
C104? C 1.0785(6) 1.1403(5) -0.0508(2)
H115? H 1.0518 1.1408 -0.0734
C105? C 0.9639(6) 1.1707(5) -0.0264(3)
H116? H 0.9459 1.1814 -0.0506
H117? H 0.9579 1.2079 -0.0123
C106? C 0.9189(9) 1.1163(6) -0.0155(5)
H118? H 0.9380 1.1064 0.0087
H119? H 0.8674 1.1304 -0.0167
C107? C 0.9186(9) 1.0563(6) -0.0361(4)
H120? H 0.9692 1.0398 -0.0346
H121? H 0.8988 1.0643 -0.0604
C108? C 0.8697(10) 1.0091(9) -0.0211(4)
H122? H 0.8189 1.0257 -0.0253
H123? H 0.8694 0.9703 -0.0347
C109? C 0.8865(11) 0.9904(12) 0.0165(4)
H124? H 0.8570 0.9531 0.0202
H125? H 0.8712 1.0247 0.0306
C110? C 0.9681(11) 0.9761(10) 0.0287(6)
H126? H 0.9753 0.9713 0.0539
H127? H 0.9967 1.0132 0.0238
C111? C 1.0023(11) 0.9188(10) 0.0141(6)
H128? H 1.0076 0.9286 -0.0098
H129? H 0.9666 0.8841 0.0132
C112? C 1.0772(11) 0.8946(14) 0.0323(8)
H130? H 1.0756 0.8884 0.0569
H131? H 1.0885 0.8539 0.0225
C113? C 1.1366(14) 0.9420(13) 0.0279(6)
H132? H 1.1261 0.9812 0.0394
H133? H 1.1844 0.9260 0.0397
C114? C 1.1447(17) 0.9575(17) -0.0089(6)
H134? H 1.1747 0.9254 -0.0176
H135? H 1.1687 0.9983 -0.0096
H136? H 1.0960 0.9588 -0.0231
Br5? Br 1.50916(9) 1.22525(8) -0.10275(6)
Br6? Br 1.4702(8) 1.2040(8) -0.0511(4)
O72? O 1.5288(7) 1.2368(6) -0.1145(3)
O73? O 1.1951(13) 1.1536(9) 0.0328(5)
loop_
_geom_bond_atom_site_label_1
_geom_bond_atom_site_label_2
_geom_bond_site_symmetry_1
_geom_bond_site_symmetry_2
O1 C1 1_555 1_555
O2 C4 1_555 1_555
O3 C7 1_555 1_555
O4 C10 1_555 1_555
O5 C13 1_555 1_555
O6 C16 1_555 1_555
O7 C19 1_555 1_555
O8 C22 1_555 1_555
O9 C25 1_555 1_555
O10 C28 1_555 1_555
O11 C31 1_555 1_555
O12 C34 1_555 1_555
O13 C37 1_555 1_555
O14 C40 1_555 1_555
O15 C43 1_555 1_555
O16 C46 1_555 1_555
N1 C1 1_555 1_555
N2 C1 1_555 1_555
N3 C2 1_555 1_555
N4 C3 1_555 1_555
N5 C5 1_555 1_555
N6 C7 1_555 1_555
N7 C6 1_555 1_555
N8 C9 1_555 1_555
N9 C11 1_555 1_555
N10 C13 1_555 1_555
N11 C12 1_555 1_555
N12 C15 1_555 1_555
N13 C17 1_555 1_555
N14 C19 1_555 1_555
N15 C18 1_555 1_555
N16 C21 1_555 1_555
N17 C23 1_555 1_555
N18 C25 1_555 1_555
N19 C24 1_555 1_555
N20 C27 1_555 1_555
N21 C29 1_555 1_555
N22 C31 1_555 1_555
N23 C30 1_555 1_555
N24 C33 1_555 1_555
N25 C35 1_555 1_555
N26 C37 1_555 1_555
N27 C36 1_555 1_555
N28 C39 1_555 1_555
N29 C41 1_555 1_555
N30 C43 1_555 1_555
N31 C42 1_555 1_555
N32 C45 1_555 1_555
C2 N1 1_555 1_555
H1 C2 1_555 1_555
C3 N2 1_555 1_555
H2 C3 1_555 1_555
C4 N3 1_555 1_555
C5 N2 1_555 1_555
H3 C5 1_555 1_555
H4 C5 1_555 1_555
C6 N4 1_555 1_555
H5 C6 1_555 1_555
H6 C6 1_555 1_555
C7 N5 1_555 1_555
C8 N5 1_555 1_555
H7 C8 1_555 1_555
C9 N6 1_555 1_555
H8 C9 1_555 1_555
C10 N7 1_555 1_555
C11 N6 1_555 1_555
H9 C11 1_555 1_555
H10 C11 1_555 1_555
C12 N8 1_555 1_555
H11 C12 1_555 1_555
H12 C12 1_555 1_555
C13 N9 1_555 1_555
C14 N9 1_555 1_555
H13 C14 1_555 1_555
C15 N10 1_555 1_555
H14 C15 1_555 1_555
C16 N11 1_555 1_555
C17 N10 1_555 1_555
H15 C17 1_555 1_555
H16 C17 1_555 1_555
C18 N12 1_555 1_555
H17 C18 1_555 1_555
H18 C18 1_555 1_555
C19 N13 1_555 1_555
C20 N13 1_555 1_555
H19 C20 1_555 1_555
C21 N14 1_555 1_555
H20 C21 1_555 1_555
C22 N15 1_555 1_555
C23 N14 1_555 1_555
H21 C23 1_555 1_555
H22 C23 1_555 1_555
C24 N16 1_555 1_555
H23 C24 1_555 1_555
H24 C24 1_555 1_555
C25 N17 1_555 1_555
C26 N17 1_555 1_555
H25 C26 1_555 1_555
C27 N18 1_555 1_555
H26 C27 1_555 1_555
C28 N19 1_555 1_555
C29 N18 1_555 1_555
H27 C29 1_555 1_555
H28 C29 1_555 1_555
C30 N20 1_555 1_555
H29 C30 1_555 1_555
H30 C30 1_555 1_555
C31 N21 1_555 1_555
C32 N21 1_555 1_555
H31 C32 1_555 1_555
C33 N22 1_555 1_555
H32 C33 1_555 1_555
C34 N23 1_555 1_555
C35 N22 1_555 1_555
H33 C35 1_555 1_555
H34 C35 1_555 1_555
C36 N24 1_555 1_555
H35 C36 1_555 1_555
H36 C36 1_555 1_555
C37 N25 1_555 1_555
C38 N25 1_555 1_555
H37 C38 1_555 1_555
C39 N26 1_555 1_555
H38 C39 1_555 1_555
C40 N27 1_555 1_555
C41 N26 1_555 1_555
H39 C41 1_555 1_555
H40 C41 1_555 1_555
C42 N28 1_555 1_555
H41 C42 1_555 1_555
H42 C42 1_555 1_555
C43 N29 1_555 1_555
C44 N29 1_555 1_555
H43 C44 1_555 1_555
C45 N30 1_555 1_555
H44 C45 1_555 1_555
C46 N31 1_555 1_555
C47 N1 1_555 1_555
H45 C47 1_555 1_555
H46 C47 1_555 1_555
C48 N3 1_555 1_555
H47 C48 1_555 1_555
H48 C48 1_555 1_555
N33 C49 1_555 1_555
N34 C58 1_555 1_555
C49 H49 1_555 1_555
H50 C49 1_555 1_555
H51 C49 1_555 1_555
C50 N33 1_555 1_555
H52 C50 1_555 1_555
C51 N33 1_555 1_555
H53 C51 1_555 1_555
C52 C50 1_555 1_555
H54 C52 1_555 1_555
C53 C51 1_555 1_555
H55 C53 1_555 1_555
C54 C52 1_555 1_555
C55 C54 1_555 1_555
C56 C55 1_555 1_555
H56 C56 1_555 1_555
C57 C55 1_555 1_555
H57 C57 1_555 1_555
C58 C57 1_555 1_555
H58 C58 1_555 1_555
C59 N34 1_555 1_555
H59 C59 1_555 1_555
C60 N34 1_555 1_555
H60 C60 1_555 1_555
H61 C60 1_555 1_555
C61 C60 1_555 1_555
H62 C61 1_555 1_555
H63 C61 1_555 1_555
C62 C61 1_555 1_555
H64 C62 1_555 1_555
H65 C62 1_555 1_555
C63 C62 1_555 1_555
H66 C63 1_555 1_555
H67 C63 1_555 1_555
C64 C63 1_555 1_555
H68 C64 1_555 1_555
H69 C64 1_555 1_555
C65 C64 1_555 1_555
H70 C65 1_555 1_555
H71 C65 1_555 1_555
C66 C65 1_555 1_555
H72 C66 1_555 1_555
H73 C66 1_555 1_555
C67 C66 1_555 1_555
H74 C67 1_555 1_555
H75 C67 1_555 1_555
C68 C67 1_555 1_555
H76 C68 1_555 1_555
H77 C68 1_555 1_555
C69 C68 1_555 1_555
H78 C69 1_555 1_555
H79 C69 1_555 1_555
H80 C69 1_555 1_555
O17 C72 1_555 1_555
O18 C75 1_555 1_555
O19 C78 1_555 1_555
O20 C81 1_555 1_555
O21 C84 1_555 1_555
O22 C87 1_555 1_555
O23 C90 1_555 1_555
O24 C93 1_555 1_555
N35 C70 1_555 1_555
N36 C72 1_555 1_555
N37 C71 1_555 1_555
N38 C74 1_555 1_555
N39 C76 1_555 1_555
N40 C78 1_555 1_555
N41 C77 1_555 1_555
N42 C80 1_555 1_555
N43 C82 1_555 1_555
N44 C84 1_555 1_555
N45 C83 1_555 1_555
N46 C86 1_555 1_555
N47 C88 1_555 1_555
N48 C90 1_555 1_555
N49 C89 1_555 1_555
N50 C92 1_555 1_555
C70 H81 1_555 1_555
H82 C70 1_555 1_555
C71 H83 1_555 1_555
H84 C71 1_555 1_555
C72 N35 1_555 1_555
C73 N35 1_555 1_555
H85 C73 1_555 1_555
C74 N36 1_555 1_555
H86 C74 1_555 1_555
C75 N37 1_555 1_555
C76 N36 1_555 1_555
H87 C76 1_555 1_555
H88 C76 1_555 1_555
C77 N38 1_555 1_555
H89 C77 1_555 1_555
H90 C77 1_555 1_555
C78 N39 1_555 1_555
C79 N39 1_555 1_555
H91 C79 1_555 1_555
C80 N40 1_555 1_555
H92 C80 1_555 1_555
C81 N41 1_555 1_555
C82 N40 1_555 1_555
H93 C82 1_555 1_555
H94 C82 1_555 1_555
C83 N42 1_555 1_555
H95 C83 1_555 1_555
H96 C83 1_555 1_555
C84 N43 1_555 1_555
C85 N43 1_555 1_555
H97 C85 1_555 1_555
C86 N44 1_555 1_555
H98 C86 1_555 1_555
C87 N45 1_555 1_555
C88 N44 1_555 1_555
H99 C88 1_555 1_555
H100 C88 1_555 1_555
C89 N46 1_555 1_555
H101 C89 1_555 1_555
H102 C89 1_555 1_555
C90 N47 1_555 1_555
C91 N47 1_555 1_555
H103 C91 1_555 1_555
C92 N48 1_555 1_555
H104 C92 1_555 1_555
C93 N49 1_555 1_555
O17B C72B 1_555 1_555
O18B C75B 1_555 1_555
O19B C78B 1_555 1_555
O20B C81B 1_555 1_555
O21B C84B 1_555 1_555
O22B C87B 1_555 1_555
O23B C90B 1_555 1_555
O24B C93B 1_555 1_555
N35B C70B 1_555 1_555
N36B C72B 1_555 1_555
N37B C71B 1_555 1_555
N38B C74B 1_555 1_555
N39B C76B 1_555 1_555
N40B C78B 1_555 1_555
N41B C77B 1_555 1_555
N42B C80B 1_555 1_555
N43B C82B 1_555 1_555
N44B C84B 1_555 1_555
N45B C83B 1_555 1_555
N46B C86B 1_555 1_555
N47B C88B 1_555 1_555
N48B C71 1_555 1_555
N49B C89B 1_555 1_555
N50B C70 1_555 1_555
C70B N50 1_555 1_555
H81B C70B 1_555 1_555
H82B C70B 1_555 1_555
C71B N48 1_555 1_555
H83B C71B 1_555 1_555
H84B C71B 1_555 1_555
C72B N35B 1_555 1_555
C73B N35B 1_555 1_555
H85B C73B 1_555 1_555
C74B N36B 1_555 1_555
H86B C74B 1_555 1_555
C75B N37B 1_555 1_555
C76B N36B 1_555 1_555
H87B C76B 1_555 1_555
H88B C76B 1_555 1_555
C77B N38B 1_555 1_555
H89B C77B 1_555 1_555
H90B C77B 1_555 1_555
C78B N39B 1_555 1_555
C79B N39B 1_555 1_555
H91B C79B 1_555 1_555
C80B N40B 1_555 1_555
H92B C80B 1_555 1_555
C81B N41B 1_555 1_555
C82B N40B 1_555 1_555
H93B C82B 1_555 1_555
H94B C82B 1_555 1_555
C83B N42B 1_555 1_555
H95B C83B 1_555 1_555
H96B C83B 1_555 1_555
C84B N43B 1_555 1_555
C85B N43B 1_555 1_555
H97B C85B 1_555 1_555
C86B N44B 1_555 1_555
H98B C86B 1_555 1_555
C87B N45B 1_555 1_555
C88B N44B 1_555 1_555
H99B C88B 1_555 1_555
H100B C88B 1_555 1_555
C89B N46B 1_555 1_555
H101B C89B 1_555 1_555
H102B C89B 1_555 1_555
C90B N47B 1_555 1_555
C91B N47B 1_555 1_555
H103B C91B 1_555 1_555
C92B N48B 1_555 1_555
H104B C92B 1_555 1_555
C93B N49B 1_555 1_555
N4 C4 1_555 1_555
N7 C8 1_555 1_555
N8 C10 1_555 1_555
N11 C14 1_555 1_555
N12 C16 1_555 1_555
N15 C20 1_555 1_555
N16 C22 1_555 1_555
N19 C26 1_555 1_555
N20 C28 1_555 1_555
N23 C32 1_555 1_555
N24 C34 1_555 1_555
N27 C38 1_555 1_555
N28 C40 1_555 1_555
N30 C47 1_555 1_555
N31 C44 1_555 1_555
N32 C46 1_555 1_555
N32 C48 1_555 1_555
C2 C3 1_555 1_555
C8 C9 1_555 1_555
C14 C15 1_555 1_555
C20 C21 1_555 1_555
C26 C27 1_555 1_555
C32 C33 1_555 1_555
C38 C39 1_555 1_555
C44 C45 1_555 1_555
C53 C54 1_555 1_555
C56 C59 1_555 1_555
N37 C73 1_555 1_555
N38 C75 1_555 1_555
N41 C79 1_555 1_555
N42 C81 1_555 1_555
N45 C85 1_555 1_555
N46 C87 1_555 1_555
N49 C91 1_555 1_555
N50 C93 1_555 1_555
C73 C74 1_555 1_555
C79 C80 1_555 1_555
C85 C86 1_555 1_555
C91 C92 1_555 1_555
N37B C73B 1_555 1_555
N38B C75B 1_555 1_555
N41B C79B 1_555 1_555
N42B C81B 1_555 1_555
N45B C85B 1_555 1_555
N46B C87B 1_555 1_555
N48B C90B 1_555 1_555
N49B C91B 1_555 1_555
N50B C92B 1_555 1_555
N50B C93B 1_555 1_555
C73B C74B 1_555 1_555
C79B C80B 1_555 1_555
C85B C86B 1_555 1_555
C91B C92B 1_555 1_555

#END
