
#######################################################################
#
#                 Cambridge Crystallographic Data Centre
#                                CCDC 
#
#######################################################################
#
# If this CIF has been generated from an entry in the Cambridge 
# Structural Database, then it will include bibliographic, chemical, 
# crystal, experimental, refinement or atomic coordinate data resulting 
# from the CCDC's data processing and validation procedures.
#
#######################################################################

data_BOKSOL
_chemical_formula_moiety         'C21 H21 N1'
_chemical_name_systematic        
2-phenyl-2-(1,2,3,4-tetrahydronaphthalen-1-yl)pent-4-enenitrile
_symmetry_cell_setting           monoclinic
_symmetry_space_group_name_H-M   'P 21'
_symmetry_Int_Tables_number      4
_space_group_name_Hall           'P 2yb'
loop_
_symmetry_equiv_pos_site_id
_symmetry_equiv_pos_as_xyz
1 x,y,z
2 -x,1/2+y,-z
_cell_length_a                   6.9040(6)
_cell_length_b                   28.724(2)
_cell_length_c                   8.0911(7)
_cell_angle_alpha                90
_cell_angle_beta                 90.129(2)
_cell_angle_gamma                90
_cell_volume                     1604.55
_exptl_crystal_colour            colorless
_exptl_crystal_description       'rectangular parallelepiped'
_cell_formula_units_Z            4
loop_
_atom_site_label
_atom_site_type_symbol
_atom_site_fract_x
_atom_site_fract_y
_atom_site_fract_z
N1 N -0.1189(3) 0.19231(7) 0.5119(2)
C1 C -0.7476(3) 0.20743(9) 0.7799(3)
H1 H -0.736(4) 0.2196(10) 0.893(3)
H2 H -0.883(4) 0.1916(11) 0.751(4)
C2 C -0.6042(3) 0.21087(8) 0.6746(3)
H3 H -0.474(4) 0.2245(11) 0.714(3)
C3 C -0.6097(3) 0.19400(8) 0.4983(3)
H4 H -0.741(3) 0.1822(9) 0.471(3)
H5 H -0.584(3) 0.2199(9) 0.425(3)
C4 C -0.4610(3) 0.15433(7) 0.4663(2)
C5 C -0.2661(3) 0.17516(7) 0.4925(2)
C6 C -0.4716(3) 0.13485(7) 0.2831(2)
H6 H -0.575(3) 0.1117(8) 0.290(2)
C7 C -0.5215(3) 0.17082(8) 0.1508(2)
H7 H -0.644(4) 0.1869(9) 0.178(3)
H8 H -0.546(3) 0.1538(8) 0.048(3)
C8 C -0.3556(3) 0.20456(8) 0.1199(3)
H9 H -0.325(3) 0.2223(9) 0.220(3)
H10 H -0.400(4) 0.2259(9) 0.034(3)
C9 C -0.1770(3) 0.17835(8) 0.0583(3)
H11 H -0.061(4) 0.1980(9) 0.079(3)
H12 H -0.193(4) 0.1744(10) -0.065(3)
C10 C -0.1481(3) 0.13064(8) 0.1338(2)
C11 C 0.0207(3) 0.10600(9) 0.0946(3)
H13 H 0.112(4) 0.1216(10) 0.022(3)
C12 C 0.0547(3) 0.06204(9) 0.1567(3)
H14 H 0.176(4) 0.0456(11) 0.123(4)
C13 C -0.0806(3) 0.04138(9) 0.2590(3)
H15 H -0.060(4) 0.0102(10) 0.305(3)
C14 C -0.2496(3) 0.06497(8) 0.2980(3)
H16 H -0.344(4) 0.0500(10) 0.370(3)
C15 C -0.2853(3) 0.10957(7) 0.2374(2)
C16 C -0.4936(3) 0.11485(7) 0.5904(2)
C17 C -0.3538(3) 0.10072(8) 0.7036(3)
H17 H -0.222(4) 0.1158(10) 0.706(3)
C18 C -0.3911(4) 0.06545(9) 0.8162(3)
H18 H -0.291(4) 0.0561(12) 0.895(4)
C19 C -0.5688(4) 0.04340(9) 0.8161(3)
H19 H -0.595(4) 0.0191(12) 0.897(4)
C20 C -0.7098(4) 0.05702(9) 0.7046(3)
H20 H -0.839(4) 0.0409(10) 0.705(3)
C21 C -0.6731(3) 0.09249(8) 0.5926(3)
H21 H -0.776(3) 0.1018(9) 0.517(3)
N2 N 0.3819(3) -0.19100(7) 0.5613(2)
C22 C -0.2466(3) -0.20889(9) 0.8297(3)
H22 H -0.237(4) -0.2199(10) 0.940(3)
H23 H -0.376(4) -0.1964(10) 0.798(3)
C23 C -0.1024(3) -0.21173(8) 0.7249(3)
H24 H 0.019(4) -0.2256(10) 0.757(3)
C24 C -0.1095(3) -0.19522(7) 0.5491(3)
H25 H -0.242(3) -0.1843(8) 0.526(2)
H26 H -0.075(3) -0.2214(9) 0.476(3)
C25 C 0.0360(3) -0.15479(7) 0.5169(2)
C26 C 0.2328(3) -0.17451(8) 0.5420(2)
C27 C 0.0217(3) -0.13499(7) 0.3341(2)
H27 H -0.089(3) -0.1119(8) 0.340(2)
C28 C -0.0231(3) -0.17120(8) 0.2007(2)
H28 H -0.053(4) -0.1539(10) 0.097(3)
H29 H -0.144(3) -0.1879(9) 0.229(3)
C29 C 0.1485(3) -0.20345(8) 0.1695(3)
H30 H 0.181(3) -0.2209(9) 0.271(3)
H31 H 0.109(3) -0.2277(9) 0.086(3)
C30 C 0.3244(3) -0.17572(8) 0.1114(3)
H32 H 0.449(4) -0.1933(9) 0.134(3)
H33 H 0.319(4) -0.1722(12) -0.007(4)
C31 C 0.3451(3) -0.12768(8) 0.1867(3)
C32 C 0.5090(3) -0.10139(9) 0.1480(3)
H34 H 0.609(4) -0.1147(9) 0.073(3)
C33 C 0.5338(3) -0.05672(9) 0.2081(3)
H35 H 0.650(4) -0.0379(10) 0.183(3)
C34 C 0.3935(4) -0.03741(9) 0.3106(3)
H36 H 0.411(4) -0.0072(11) 0.354(3)
C35 C 0.2300(3) -0.06306(8) 0.3498(3)
H37 H 0.127(3) -0.0505(9) 0.426(3)
C36 C 0.2032(3) -0.10803(7) 0.2889(2)
C37 C 0.0012(3) -0.11543(7) 0.6413(2)
C38 C 0.1408(3) -0.10044(8) 0.7530(3)
H38 H 0.274(4) -0.1144(9) 0.751(3)
C39 C 0.1000(4) -0.06484(9) 0.8648(3)
H39 H 0.202(4) -0.0541(11) 0.941(3)
C40 C -0.0789(4) -0.04378(9) 0.8644(3)
H40 H -0.108(4) -0.0184(11) 0.943(3)
C41 C -0.2197(4) -0.05841(9) 0.7538(3)
H41 H -0.343(4) -0.0450(10) 0.755(3)
C42 C -0.1810(3) -0.09410(8) 0.6432(3)
H42 H -0.282(4) -0.1058(10) 0.566(3)
loop_
_geom_bond_atom_site_label_1
_geom_bond_atom_site_label_2
_geom_bond_site_symmetry_1
_geom_bond_site_symmetry_2
N1 C5 1_555 1_555
C1 H1 1_555 1_555
H2 C1 1_555 1_555
C2 C1 1_555 1_555
H3 C2 1_555 1_555
C3 C2 1_555 1_555
H4 C3 1_555 1_555
H5 C3 1_555 1_555
C4 C3 1_555 1_555
C5 C4 1_555 1_555
C6 C4 1_555 1_555
H6 C6 1_555 1_555
C7 C6 1_555 1_555
H7 C7 1_555 1_555
H8 C7 1_555 1_555
C8 C7 1_555 1_555
H9 C8 1_555 1_555
H10 C8 1_555 1_555
C9 C8 1_555 1_555
H11 C9 1_555 1_555
H12 C9 1_555 1_555
C10 C9 1_555 1_555
C11 C10 1_555 1_555
H13 C11 1_555 1_555
C12 C11 1_555 1_555
H14 C12 1_555 1_555
C13 C12 1_555 1_555
H15 C13 1_555 1_555
C14 C13 1_555 1_555
H16 C14 1_555 1_555
C15 C6 1_555 1_555
C16 C4 1_555 1_555
C17 C16 1_555 1_555
H17 C17 1_555 1_555
C18 C17 1_555 1_555
H18 C18 1_555 1_555
C19 C18 1_555 1_555
H19 C19 1_555 1_555
C20 C19 1_555 1_555
H20 C20 1_555 1_555
C21 C16 1_555 1_555
H21 C21 1_555 1_555
N2 C26 1_555 1_555
C22 H22 1_555 1_555
H23 C22 1_555 1_555
C23 C22 1_555 1_555
H24 C23 1_555 1_555
C24 C23 1_555 1_555
H25 C24 1_555 1_555
H26 C24 1_555 1_555
C25 C24 1_555 1_555
C26 C25 1_555 1_555
C27 C25 1_555 1_555
H27 C27 1_555 1_555
C28 C27 1_555 1_555
H28 C28 1_555 1_555
H29 C28 1_555 1_555
C29 C28 1_555 1_555
H30 C29 1_555 1_555
H31 C29 1_555 1_555
C30 C29 1_555 1_555
H32 C30 1_555 1_555
H33 C30 1_555 1_555
C31 C30 1_555 1_555
C32 C31 1_555 1_555
H34 C32 1_555 1_555
C33 C32 1_555 1_555
H35 C33 1_555 1_555
C34 C33 1_555 1_555
H36 C34 1_555 1_555
C35 C34 1_555 1_555
H37 C35 1_555 1_555
C36 C27 1_555 1_555
C37 C25 1_555 1_555
C38 C37 1_555 1_555
H38 C38 1_555 1_555
C39 C38 1_555 1_555
H39 C39 1_555 1_555
C40 C39 1_555 1_555
H40 C40 1_555 1_555
C41 C40 1_555 1_555
H41 C41 1_555 1_555
C42 C37 1_555 1_555
H42 C42 1_555 1_555
C10 C15 1_555 1_555
C14 C15 1_555 1_555
C20 C21 1_555 1_555
C31 C36 1_555 1_555
C35 C36 1_555 1_555
C41 C42 1_555 1_555

#END
