
#######################################################################
#
#                 Cambridge Crystallographic Data Centre
#                                CCDC 
#
#######################################################################
#
# If this CIF has been generated from an entry in the Cambridge 
# Structural Database, then it will include bibliographic, chemical, 
# crystal, experimental, refinement or atomic coordinate data resulting 
# from the CCDC's data processing and validation procedures.
#
#######################################################################

data_BOKTUS
_chemical_formula_moiety         'C30 H20 F9 N1 O2 S1'
_chemical_name_systematic        
"2',3',4'-Triphenyl-3,3,3'-tris(trifluoromethyl)-3H-spiro[2,1-benzoxathiole-1,1'-[1,2]thiazetidine] 1-oxide"
_symmetry_cell_setting           triclinic
_symmetry_space_group_name_H-M   'P -1'
_symmetry_Int_Tables_number      2
_space_group_name_Hall           '-P 1'
loop_
_symmetry_equiv_pos_site_id
_symmetry_equiv_pos_as_xyz
1 x,y,z
2 -x,-y,-z
_cell_length_a                   8.838(5)
_cell_length_b                   8.985(6)
_cell_length_c                   16.949(11)
_cell_angle_alpha                99.558(11)
_cell_angle_beta                 93.620(11)
_cell_angle_gamma                90.581(12)
_cell_volume                     1324.29
_exptl_crystal_colour            colorless
_exptl_crystal_description       Platelet
_cell_formula_units_Z            2
loop_
_atom_site_label
_atom_site_type_symbol
_atom_site_fract_x
_atom_site_fract_y
_atom_site_fract_z
S1 S 0.87250(5) 0.20307(5) 0.79374(3)
F1 F 0.59797(16) 0.11857(17) 0.92814(8)
F2 F 0.41553(15) 0.07372(18) 0.83781(9)
F3 F 0.50145(16) -0.10528(17) 0.89640(9)
F4 F 0.70463(16) -0.16124(16) 0.67867(8)
F5 F 0.57558(18) -0.27246(15) 0.75566(9)
F6 F 0.47427(16) -0.10070(17) 0.69715(9)
F7 F 1.29993(14) 0.16995(14) 0.65766(8)
F8 F 1.15676(14) 0.00749(13) 0.69775(7)
F9 F 1.10944(15) 0.06828(14) 0.58160(7)
O1 O 0.68501(15) 0.11278(16) 0.77219(9)
O2 O 0.81417(16) 0.33612(16) 0.84177(8)
N1 N 1.05837(18) 0.26400(18) 0.78188(10)
C1 C 0.8860(2) 0.1745(2) 0.68526(11)
H1 H 0.8959 0.0639 0.6661
C2 C 1.0489(2) 0.2482(2) 0.69460(11)
C3 C 0.9246(2) 0.0432(2) 0.84016(11)
C4 C 1.0703(2) 0.0214(2) 0.87134(12)
H2 H 1.1499 0.0924 0.8695
C5 C 1.0963(2) -0.1073(2) 0.90529(13)
H3 H 1.1948 -0.1244 0.9273
C6 C 0.9800(3) -0.2109(2) 0.90742(13)
H4 H 1.0002 -0.2989 0.9302
C7 C 0.8350(2) -0.1878(2) 0.87669(13)
H5 H 0.7552 -0.2583 0.8790
C8 C 0.8079(2) -0.0598(2) 0.84234(11)
C9 C 0.6600(2) -0.0160(2) 0.80378(12)
C10 C 0.5413(2) 0.0179(2) 0.86691(13)
C11 C 0.6015(2) -0.1393(2) 0.73364(13)
C12 C 1.1599(2) 0.3587(2) 0.83604(12)
C13 C 1.2931(3) 0.4161(3) 0.81128(14)
H6 H 1.3181 0.3902 0.7571
C14 C 1.3887(3) 0.5108(3) 0.86570(16)
H7 H 1.4788 0.5496 0.8483
C15 C 1.3556(3) 0.5497(3) 0.94450(16)
H8 H 1.4204 0.6174 0.9809
C16 C 1.2268(3) 0.4891(3) 0.97006(14)
H9 H 1.2051 0.5126 1.0249
C17 C 1.1289(2) 0.3942(2) 0.91665(13)
H10 H 1.0407 0.3533 0.9350
C18 C 0.7597(2) 0.2301(2) 0.63498(11)
C19 C 0.7161(2) 0.1392(2) 0.56221(12)
H11 H 0.7660 0.0468 0.5466
C20 C 0.6006(3) 0.1822(3) 0.51241(13)
H12 H 0.5731 0.1207 0.4622
C21 C 0.5254(2) 0.3144(3) 0.53553(14)
H13 H 0.4455 0.3435 0.5015
C22 C 0.5664(2) 0.4049(3) 0.60846(14)
H14 H 0.5137 0.4954 0.6246
C23 C 0.6837(2) 0.3637(2) 0.65777(13)
H15 H 0.7125 0.4268 0.7073
C24 C 1.0660(2) 0.3945(2) 0.66147(11)
C25 C 1.1285(2) 0.4008(2) 0.58870(12)
H16 H 1.1597 0.3106 0.5568
C26 C 1.1456(3) 0.5379(2) 0.56238(13)
H17 H 1.1882 0.5410 0.5126
C27 C 1.1008(3) 0.6700(2) 0.60823(14)
H18 H 1.1141 0.7638 0.5905
C28 C 1.0363(3) 0.6650(2) 0.68027(13)
H19 H 1.0039 0.7553 0.7115
C29 C 1.0192(2) 0.5281(2) 0.70659(12)
H20 H 0.9750 0.5254 0.7560
C30 C 1.1563(2) 0.1245(2) 0.65809(12)
loop_
_geom_bond_atom_site_label_1
_geom_bond_atom_site_label_2
_geom_bond_site_symmetry_1
_geom_bond_site_symmetry_2
S1 O1 1_555 1_555
F1 C10 1_555 1_555
F2 C10 1_555 1_555
F3 C10 1_555 1_555
F4 C11 1_555 1_555
F5 C11 1_555 1_555
F6 C11 1_555 1_555
F7 C30 1_555 1_555
F8 C30 1_555 1_555
F9 C30 1_555 1_555
O1 C9 1_555 1_555
O2 S1 1_555 1_555
N1 S1 1_555 1_555
C1 S1 1_555 1_555
H1 C1 1_555 1_555
C2 N1 1_555 1_555
C3 S1 1_555 1_555
C4 C3 1_555 1_555
H2 C4 1_555 1_555
C5 C4 1_555 1_555
H3 C5 1_555 1_555
C6 C5 1_555 1_555
H4 C6 1_555 1_555
C7 C6 1_555 1_555
H5 C7 1_555 1_555
C8 C3 1_555 1_555
C9 C8 1_555 1_555
C10 C9 1_555 1_555
C11 C9 1_555 1_555
C12 N1 1_555 1_555
C13 C12 1_555 1_555
H6 C13 1_555 1_555
C14 C13 1_555 1_555
H7 C14 1_555 1_555
C15 C14 1_555 1_555
H8 C15 1_555 1_555
C16 C15 1_555 1_555
H9 C16 1_555 1_555
C17 C12 1_555 1_555
H10 C17 1_555 1_555
C18 C1 1_555 1_555
C19 C18 1_555 1_555
H11 C19 1_555 1_555
C20 C19 1_555 1_555
H12 C20 1_555 1_555
C21 C20 1_555 1_555
H13 C21 1_555 1_555
C22 C21 1_555 1_555
H14 C22 1_555 1_555
C23 C18 1_555 1_555
H15 C23 1_555 1_555
C24 C2 1_555 1_555
C25 C24 1_555 1_555
H16 C25 1_555 1_555
C26 C25 1_555 1_555
H17 C26 1_555 1_555
C27 C26 1_555 1_555
H18 C27 1_555 1_555
C28 C27 1_555 1_555
H19 C28 1_555 1_555
C29 C24 1_555 1_555
H20 C29 1_555 1_555
C30 C2 1_555 1_555
C1 C2 1_555 1_555
C7 C8 1_555 1_555
C16 C17 1_555 1_555
C22 C23 1_555 1_555
C28 C29 1_555 1_555

#END
