
#######################################################################
#
#                 Cambridge Crystallographic Data Centre
#                                CCDC 
#
#######################################################################
#
# If this CIF has been generated from an entry in the Cambridge 
# Structural Database, then it will include bibliographic, chemical, 
# crystal, experimental, refinement or atomic coordinate data resulting 
# from the CCDC's data processing and validation procedures.
#
#######################################################################

data_BOLDUD
_chemical_compound_source        'ornamental milkweed Asclepias curassavica L.'
_chemical_name_common            14-Hydroxy-3-(lactoyloxy)card-20(22)-enolide
_chemical_formula_moiety         'C26 H38 O6'
_chemical_name_systematic        
"(3R,5S,8R,9S,10S,13R,14S,17R,20Z,2'S)-3-O-Urarigenin lactate"
_chemical_properties_biological  'inhibitory activity'
_symmetry_cell_setting           orthorhombic
_symmetry_space_group_name_H-M   'P 21 21 21'
_symmetry_Int_Tables_number      19
_space_group_name_Hall           'P 2ac 2ab'
loop_
_symmetry_equiv_pos_site_id
_symmetry_equiv_pos_as_xyz
1 x,y,z
2 1/2-x,-y,1/2+z
3 -x,1/2+y,1/2-z
4 1/2+x,1/2-y,-z
_cell_length_a                   11.4718(5)
_cell_length_b                   12.9514(5)
_cell_length_c                   15.8446(8)
_cell_angle_alpha                90
_cell_angle_beta                 90
_cell_angle_gamma                90
_cell_volume                     2354.13
_exptl_crystal_colour            colorless
_exptl_crystal_description       columnar
_cell_formula_units_Z            4
loop_
_atom_site_label
_atom_site_type_symbol
_atom_site_fract_x
_atom_site_fract_y
_atom_site_fract_z
O1 O 0.55576(14) -0.46520(11) 1.06733(11)
O2 O 0.71961(13) -0.38432(10) 1.03044(10)
O3 O 0.81455(12) -0.07886(10) 0.90991(9)
H1 H 0.8842 -0.0667 0.9162
O4 O 0.69872(13) 0.58740(10) 0.77602(9)
O5 O 0.85786(15) 0.64996(12) 0.84090(10)
O6 O 0.84451(15) 0.82777(11) 0.74321(11)
H2 H 0.8294 0.8480 0.7910
C1 C 0.57046(18) 0.35595(15) 0.88327(13)
H3 H 0.4899 0.3334 0.8850
H4 H 0.5958 0.3671 0.9410
C2 C 0.57690(18) 0.45818(15) 0.83565(14)
H5 H 0.5427 0.4499 0.7801
H6 H 0.5325 0.5102 0.8658
C3 C 0.70133(19) 0.49332(14) 0.82690(13)
H7 H 0.7332 0.5091 0.8828
C4 C 0.77673(19) 0.41246(16) 0.78440(14)
H8 H 0.8567 0.4365 0.7818
H9 H 0.7496 0.4011 0.7271
C5 C 0.77103(17) 0.31134(15) 0.83394(13)
H10 H 0.7985 0.3275 0.8910
C6 C 0.85348(18) 0.22964(16) 0.79978(15)
H11 H 0.9308 0.2588 0.7933
H12 H 0.8269 0.2069 0.7447
C7 C 0.85835(18) 0.13769(16) 0.85995(14)
H13 H 0.8945 0.1594 0.9124
H14 H 0.9070 0.0844 0.8353
C8 C 0.73794(16) 0.09212(14) 0.87932(13)
H15 H 0.7086 0.0613 0.8270
C9 C 0.65060(16) 0.17672(14) 0.90592(13)
H16 H 0.6790 0.2043 0.9597
C10 C 0.64509(17) 0.26943(14) 0.84412(12)
C11 C 0.53191(18) 0.12718(16) 0.92446(15)
H17 H 0.4774 0.1801 0.9423
H18 H 0.5017 0.0958 0.8733
C12 C 0.5420(2) 0.04524(16) 0.99326(14)
H19 H 0.4657 0.0154 1.0031
H20 H 0.5669 0.0782 1.0452
C13 C 0.62819(18) -0.04185(15) 0.97154(13)
C14 C 0.74659(17) 0.00497(14) 0.94534(13)
C15 C 0.80162(19) 0.03537(15) 1.02945(13)
H21 H 0.7707 0.1008 1.0490
H22 H 0.8856 0.0413 1.0240
C16 C 0.7697(2) -0.05136(16) 1.09045(14)
H23 H 0.7590 -0.0242 1.1470
H24 H 0.8310 -0.1029 1.0919
C17 C 0.65453(19) -0.09952(15) 1.05756(13)
H25 H 0.5928 -0.0805 1.0974
C18 C 0.5758(2) -0.11122(18) 0.90349(14)
H26 H 0.5621 -0.0714 0.8533
H27 H 0.5034 -0.1394 0.9233
H28 H 0.6289 -0.1664 0.8910
C19 C 0.59284(19) 0.23725(16) 0.75895(13)
H29 H 0.5154 0.2113 0.7675
H30 H 0.6404 0.1844 0.7341
H31 H 0.5901 0.2960 0.7220
C20 C 0.65714(18) -0.21535(15) 1.05271(13)
C21 C 0.75837(19) -0.27872(15) 1.02480(16)
H32 H 0.7800 -0.2617 0.9673
H33 H 0.8251 -0.2671 1.0612
C22 C 0.57130(18) -0.27919(15) 1.07390(13)
H34 H 0.4991 -0.2593 1.0950
C23 C 0.60807(18) -0.38491(16) 1.05887(14)
C24 C 0.78362(19) 0.65661(15) 0.78799(14)
C25 C 0.7734(2) 0.74224(15) 0.72355(14)
H35 H 0.6920 0.7648 0.7203
C26 C 0.8104(2) 0.70045(18) 0.63833(15)
H36 H 0.8042 0.7540 0.5967
H37 H 0.7608 0.6438 0.6229
H38 H 0.8897 0.6771 0.6414
loop_
_geom_bond_atom_site_label_1
_geom_bond_atom_site_label_2
_geom_bond_site_symmetry_1
_geom_bond_site_symmetry_2
O1 C23 1_555 1_555
O2 C21 1_555 1_555
O3 H1 1_555 1_555
O4 C3 1_555 1_555
O5 C24 1_555 1_555
O6 H2 1_555 1_555
C1 H3 1_555 1_555
H4 C1 1_555 1_555
C2 C1 1_555 1_555
H5 C2 1_555 1_555
H6 C2 1_555 1_555
C3 C2 1_555 1_555
H7 C3 1_555 1_555
C4 C3 1_555 1_555
H8 C4 1_555 1_555
H9 C4 1_555 1_555
C5 C4 1_555 1_555
H10 C5 1_555 1_555
C6 C5 1_555 1_555
H11 C6 1_555 1_555
H12 C6 1_555 1_555
C7 C6 1_555 1_555
H13 C7 1_555 1_555
H14 C7 1_555 1_555
C8 C7 1_555 1_555
H15 C8 1_555 1_555
C9 C8 1_555 1_555
H16 C9 1_555 1_555
C10 C1 1_555 1_555
C11 C9 1_555 1_555
H17 C11 1_555 1_555
H18 C11 1_555 1_555
C12 C11 1_555 1_555
H19 C12 1_555 1_555
H20 C12 1_555 1_555
C13 C12 1_555 1_555
C14 O3 1_555 1_555
C15 C14 1_555 1_555
H21 C15 1_555 1_555
H22 C15 1_555 1_555
C16 C15 1_555 1_555
H23 C16 1_555 1_555
H24 C16 1_555 1_555
C17 C13 1_555 1_555
H25 C17 1_555 1_555
C18 C13 1_555 1_555
H26 C18 1_555 1_555
H27 C18 1_555 1_555
H28 C18 1_555 1_555
C19 C10 1_555 1_555
H29 C19 1_555 1_555
H30 C19 1_555 1_555
H31 C19 1_555 1_555
C20 C17 1_555 1_555
C21 C20 1_555 1_555
H32 C21 1_555 1_555
H33 C21 1_555 1_555
C22 C20 1_555 1_555
H34 C22 1_555 1_555
C23 O2 1_555 1_555
C24 O4 1_555 1_555
C25 O6 1_555 1_555
H35 C25 1_555 1_555
C26 C25 1_555 1_555
H36 C26 1_555 1_555
H37 C26 1_555 1_555
H38 C26 1_555 1_555
C5 C10 1_555 1_555
C8 C14 1_555 1_555
C9 C10 1_555 1_555
C13 C14 1_555 1_555
C16 C17 1_555 1_555
C22 C23 1_555 1_555
C24 C25 1_555 1_555

#END
