
#######################################################################
#
#                 Cambridge Crystallographic Data Centre
#                                CCDC 
#
#######################################################################
#
# If this CIF has been generated from an entry in the Cambridge 
# Structural Database, then it will include bibliographic, chemical, 
# crystal, experimental, refinement or atomic coordinate data resulting 
# from the CCDC's data processing and validation procedures.
#
#######################################################################

data_BOLFEP
_chemical_compound_source        'ornamental milkweed Asclepias curassavica L.'
_chemical_name_common            
3,14-Dihydroxy-19-(lactoyloxy)card-20(22)-enolide
_chemical_formula_moiety         'C26 H38 O7'
_chemical_name_systematic        
"(3S,5S,8R,9S,10R,13R,14S,17R,20Z,2''S)-19-O-Coroglaucigenin lactate"
_chemical_properties_biological  'inhibitory activity'
_symmetry_cell_setting           monoclinic
_symmetry_space_group_name_H-M   'P 21'
_symmetry_Int_Tables_number      4
_space_group_name_Hall           'P 2yb'
loop_
_symmetry_equiv_pos_site_id
_symmetry_equiv_pos_as_xyz
1 x,y,z
2 -x,1/2+y,-z
_cell_length_a                   6.3498(3)
_cell_length_b                   19.5019(8)
_cell_length_c                   9.5651(5)
_cell_angle_alpha                90
_cell_angle_beta                 102.297(4)
_cell_angle_gamma                90
_cell_volume                     1157.3
_exptl_crystal_colour            colorless
_exptl_crystal_description       columnar
_cell_formula_units_Z            2
loop_
_atom_site_label
_atom_site_type_symbol
_atom_site_fract_x
_atom_site_fract_y
_atom_site_fract_z
O1 O -0.5540(3) 0.45975(10) 0.0381(2)
O2 O -0.2778(2) 0.41407(10) -0.03785(17)
O3 O -0.0458(2) 0.36370(8) 0.52118(16)
H1 H -0.0414 0.3977 0.5723
O4 O 0.8155(3) 0.06830(9) 1.09344(18)
H2 H 0.7411 0.0356 1.0588
O5 O 0.3468(2) 0.08215(7) 0.59301(16)
O6 O 0.0033(2) 0.09501(9) 0.47231(18)
O7 O 0.0575(2) -0.01522(8) 0.30114(16)
H3 H -0.0092 0.0112 0.2408
C1 C 0.7145(3) 0.15435(12) 0.7294(2)
H4 H 0.7111 0.1344 0.6360
H5 H 0.8217 0.1906 0.7444
C2 C 0.7817(3) 0.09918(12) 0.8438(3)
H6 H 0.9253 0.0832 0.8407
H7 H 0.6842 0.0605 0.8219
C3 C 0.7809(4) 0.12442(13) 0.9945(2)
H8 H 0.9014 0.1565 1.0226
C4 C 0.5747(4) 0.16244(12) 1.0027(2)
H9 H 0.4594 0.1293 0.9981
H10 H 0.5950 0.1855 1.0944
C5 C 0.5062(3) 0.21533(12) 0.8834(2)
H11 H 0.6208 0.2499 0.8975
C6 C 0.3005(3) 0.25340(13) 0.8957(2)
H12 H 0.1820 0.2210 0.8840
H13 H 0.3193 0.2734 0.9903
C7 C 0.2445(4) 0.30982(12) 0.7836(2)
H14 H 0.3526 0.3457 0.8045
H15 H 0.1068 0.3298 0.7896
C8 C 0.2321(3) 0.28372(12) 0.6304(2)
H16 H 0.1152 0.2500 0.6105
C9 C 0.4420(3) 0.24537(11) 0.6210(2)
H17 H 0.5599 0.2785 0.6466
C10 C 0.4924(3) 0.18563(11) 0.7307(2)
C11 C 0.4350(3) 0.22331(12) 0.4659(2)
H18 H 0.5726 0.2033 0.4597
H19 H 0.3249 0.1885 0.4382
C12 C 0.3870(3) 0.28348(12) 0.3632(2)
H20 H 0.3846 0.2673 0.2670
H21 H 0.5027 0.3167 0.3876
C13 C 0.1719(3) 0.31930(11) 0.3648(2)
C14 C 0.1711(3) 0.34143(11) 0.5206(2)
C15 C 0.3180(4) 0.40450(12) 0.5419(2)
H22 H 0.4685 0.3913 0.5579
H23 H 0.2958 0.4318 0.6222
C16 C 0.2492(4) 0.44393(12) 0.4008(3)
H24 H 0.3695 0.4699 0.3804
H25 H 0.1329 0.4754 0.4060
C17 C 0.1732(3) 0.38932(12) 0.2830(2)
H26 H 0.2846 0.3860 0.2265
C18 C -0.0169(3) 0.27179(11) 0.3010(2)
H27 H -0.0079 0.2307 0.3571
H28 H -0.0103 0.2603 0.2044
H29 H -0.1506 0.2947 0.3015
C19 C 0.3163(3) 0.12992(12) 0.7029(2)
H30 H 0.3182 0.1050 0.7910
H31 H 0.1763 0.1516 0.6740
C20 C -0.0343(3) 0.40775(11) 0.1817(2)
C21 C -0.0607(4) 0.39342(15) 0.0255(2)
H32 H 0.0424 0.4196 -0.0143
H33 H -0.0402 0.3450 0.0091
C22 C -0.2165(3) 0.43402(13) 0.2026(3)
H34 H -0.2429 0.4473 0.2906
C23 C -0.3698(3) 0.43902(13) 0.0661(3)
C24 C 0.1769(3) 0.06899(11) 0.4851(2)
C25 C 0.2414(3) 0.01853(12) 0.3817(2)
H35 H 0.3335 -0.0163 0.4382
C26 C 0.3727(4) 0.05370(14) 0.2867(3)
H36 H 0.4116 0.0208 0.2219
H37 H 0.5010 0.0729 0.3450
H38 H 0.2884 0.0896 0.2331
loop_
_geom_bond_atom_site_label_1
_geom_bond_atom_site_label_2
_geom_bond_site_symmetry_1
_geom_bond_site_symmetry_2
O1 C23 1_555 1_555
O2 C21 1_555 1_555
O3 H1 1_555 1_555
O4 H2 1_555 1_555
O5 C19 1_555 1_555
O6 C24 1_555 1_555
O7 H3 1_555 1_555
C1 H4 1_555 1_555
H5 C1 1_555 1_555
C2 C1 1_555 1_555
H6 C2 1_555 1_555
H7 C2 1_555 1_555
C3 O4 1_555 1_555
H8 C3 1_555 1_555
C4 C3 1_555 1_555
H9 C4 1_555 1_555
H10 C4 1_555 1_555
C5 C4 1_555 1_555
H11 C5 1_555 1_555
C6 C5 1_555 1_555
H12 C6 1_555 1_555
H13 C6 1_555 1_555
C7 C6 1_555 1_555
H14 C7 1_555 1_555
H15 C7 1_555 1_555
C8 C7 1_555 1_555
H16 C8 1_555 1_555
C9 C8 1_555 1_555
H17 C9 1_555 1_555
C10 C1 1_555 1_555
C11 C9 1_555 1_555
H18 C11 1_555 1_555
H19 C11 1_555 1_555
C12 C11 1_555 1_555
H20 C12 1_555 1_555
H21 C12 1_555 1_555
C13 C12 1_555 1_555
C14 O3 1_555 1_555
C15 C14 1_555 1_555
H22 C15 1_555 1_555
H23 C15 1_555 1_555
C16 C15 1_555 1_555
H24 C16 1_555 1_555
H25 C16 1_555 1_555
C17 C13 1_555 1_555
H26 C17 1_555 1_555
C18 C13 1_555 1_555
H27 C18 1_555 1_555
H28 C18 1_555 1_555
H29 C18 1_555 1_555
C19 C10 1_555 1_555
H30 C19 1_555 1_555
H31 C19 1_555 1_555
C20 C17 1_555 1_555
C21 C20 1_555 1_555
H32 C21 1_555 1_555
H33 C21 1_555 1_555
C22 C20 1_555 1_555
H34 C22 1_555 1_555
C23 O2 1_555 1_555
C24 O5 1_555 1_555
C25 O7 1_555 1_555
H35 C25 1_555 1_555
C26 C25 1_555 1_555
H36 C26 1_555 1_555
H37 C26 1_555 1_555
H38 C26 1_555 1_555
C2 C3 1_555 1_555
C5 C10 1_555 1_555
C8 C14 1_555 1_555
C9 C10 1_555 1_555
C13 C14 1_555 1_555
C16 C17 1_555 1_555
C22 C23 1_555 1_555
C24 C25 1_555 1_555

#END
