
#######################################################################
#
#                 Cambridge Crystallographic Data Centre
#                                CCDC 
#
#######################################################################
#
# If this CIF has been generated from an entry in the Cambridge 
# Structural Database, then it will include bibliographic, chemical, 
# crystal, experimental, refinement or atomic coordinate data resulting 
# from the CCDC's data processing and validation procedures.
#
#######################################################################

data_BOLKOD
_chemical_formula_moiety         'C25 H25 N1 O1'
_chemical_name_systematic        cis-3,5-Dibenzyl-1-phenylpiperidin-4-one
_symmetry_cell_setting           monoclinic
_symmetry_space_group_name_H-M   'P 21/n'
_symmetry_Int_Tables_number      14
_space_group_name_Hall           '-P 2yn'
loop_
_symmetry_equiv_pos_site_id
_symmetry_equiv_pos_as_xyz
1 x,y,z
2 1/2-x,1/2+y,1/2-z
3 -x,-y,-z
4 1/2+x,1/2-y,1/2+z
_cell_length_a                   15.1125(12)
_cell_length_b                   5.5285(4)
_cell_length_c                   23.3378(18)
_cell_angle_alpha                90
_cell_angle_beta                 91.899(2)
_cell_angle_gamma                90
_cell_volume                     1948.79
_exptl_crystal_colour            colorless
_exptl_crystal_description       needles
_cell_formula_units_Z            4
_exptl_crystal_recrystallization_method 'diethyl ether'
loop_
_atom_site_label
_atom_site_type_symbol
_atom_site_fract_x
_atom_site_fract_y
_atom_site_fract_z
O1 O 0.1631(2) 0.4135(6) 0.23269(11)
N1 N 0.03158(8) 0.0903(3) 0.35766(5)
C1 C -0.01142(10) 0.1448(3) 0.30145(6)
H1 H -0.0354 0.3113 0.3021
H2 H -0.0617 0.0324 0.2947
C2 C 0.05175(13) 0.1225(4) 0.25241(7)
H3 H 0.0701 -0.0510 0.2503
C3 C 0.13452(16) 0.2702(4) 0.26653(10)
C4 C 0.17585(11) 0.2307(4) 0.32560(6)
H4 H 0.1988 0.0612 0.3279
C5 C 0.10303(9) 0.2600(3) 0.37003(6)
H5 H 0.1284 0.2300 0.4090
H6 H 0.0798 0.4274 0.3687
C6 C -0.03237(10) 0.0629(3) 0.40124(7)
C7 C 0.25270(7) 0.4025(2) 0.33668(5)
H7 H 0.2960 0.3815 0.3061
H8 H 0.2305 0.5708 0.3346
C8 C 0.29942(7) 0.3635(2) 0.39441(5)
C9 C 0.35074(8) 0.1607(2) 0.40510(5)
H11 H 0.3562 0.0423 0.3759
C10 C 0.39449(8) 0.1271(3) 0.45780(6)
H12 H 0.4299 -0.0129 0.4644
C11 C 0.38636(10) 0.2980(3) 0.50057(6)
H13 H 0.4160 0.2758 0.5367
C12 C 0.33560(10) 0.4986(3) 0.49062(6)
H14 H 0.3299 0.6160 0.5200
C13 C 0.29244(9) 0.5318(2) 0.43807(5)
H15 H 0.2574 0.6725 0.4318
C14 C 0.00804(8) 0.1886(2) 0.19439(5)
H16 H -0.0042 0.3645 0.1940
H17 H 0.0505 0.1553 0.1640
C15 C -0.07693(8) 0.0557(2) 0.18006(4)
C16 C -0.15743(8) 0.1409(2) 0.19825(5)
H20 H -0.1592 0.2876 0.2194
C17 C -0.23503(9) 0.0169(3) 0.18633(6)
H21 H -0.2893 0.0773 0.1999
C18 C -0.23451(11) -0.1919(3) 0.15513(6)
H22 H -0.2882 -0.2761 0.1467
C19 C -0.15578(11) -0.2786(3) 0.13620(6)
H23 H -0.1549 -0.4239 0.1145
C20 C -0.07747(9) -0.1567(2) 0.14842(5)
H24 H -0.0234 -0.2192 0.1350
C21 C -0.04424(12) 0.2285(3) 0.44452(7)
H25 H -0.0074 0.3674 0.4475
C22 C -0.11020(12) 0.1921(3) 0.48394(7)
H26 H -0.1178 0.3067 0.5137
C23 C -0.16399(13) -0.0060(3) 0.48032(10)
H27 H -0.2097 -0.0268 0.5069
C24 C -0.15193(12) -0.1756(4) 0.43815(13)
H28 H -0.1885 -0.3153 0.4360
C25 C -0.08621(12) -0.1423(4) 0.39880(11)
H29 H -0.0778 -0.2603 0.3699
H9? H 0.2861 0.3158 0.3072
H10? H 0.2549 0.5771 0.3275
H18? H 0.0037 0.3555 0.1792
H19? H 0.0576 0.1070 0.1755
O2? O 0.1473(8) 0.459(2) 0.2363(5)
N2? N 0.0587(3) -0.0520(9) 0.34638(18)
C26? C 0.1437(4) 0.0681(10) 0.3563(2)
H30? H 0.1904 -0.0339 0.3399
H31? H 0.1559 0.0781 0.3981
C27? C 0.1503(4) 0.3153(12) 0.3317(3)
H32? H 0.1144 0.4271 0.3553
C28? C 0.1147(5) 0.3282(15) 0.2702(4)
C29? C 0.0282(4) 0.1982(12) 0.2597(3)
H33? H -0.0197 0.2921 0.2782
C30? C 0.0338(3) -0.0569(9) 0.28775(19)
H34? H -0.0246 -0.1368 0.2832
H35? H 0.0772 -0.1556 0.2671
C31? C -0.0123(3) -0.0121(9) 0.38631(19)
C32? C -0.0819(4) -0.1765(9) 0.3834(2)
H36? H -0.0839 -0.2975 0.3545
C33? C -0.1487(3) -0.1639(11) 0.4229(2)
H37? H -0.1963 -0.2763 0.4209
C34? C -0.1459(3) 0.0130(11) 0.4652(2)
H38? H -0.1915 0.0216 0.4922
C35? C -0.0763(4) 0.1774(9) 0.4681(2)
H39? H -0.0743 0.2984 0.4970
C36? C -0.0095(3) 0.1649(8) 0.4286(2)
H40? H 0.0380 0.2772 0.4306
loop_
_geom_bond_atom_site_label_1
_geom_bond_atom_site_label_2
_geom_bond_site_symmetry_1
_geom_bond_site_symmetry_2
O1 C3 1_555 1_555
N1 C1 1_555 1_555
C1 H1 1_555 1_555
H2 C1 1_555 1_555
C2 C1 1_555 1_555
H3 C2 1_555 1_555
C3 C2 1_555 1_555
C4 C3 1_555 1_555
H4 C4 1_555 1_555
C5 N1 1_555 1_555
H5 C5 1_555 1_555
H6 C5 1_555 1_555
C6 N1 1_555 1_555
C7 C4 1_555 1_555
H7 C7 1_555 1_555
H8 C7 1_555 1_555
C8 C7 1_555 1_555
C9 C8 1_555 1_555
H11 C9 1_555 1_555
C10 C9 1_555 1_555
H12 C10 1_555 1_555
C11 C10 1_555 1_555
H13 C11 1_555 1_555
C12 C11 1_555 1_555
H14 C12 1_555 1_555
C13 C8 1_555 1_555
H15 C13 1_555 1_555
C14 C2 1_555 1_555
H16 C14 1_555 1_555
H17 C14 1_555 1_555
C15 C14 1_555 1_555
C16 C15 1_555 1_555
H20 C16 1_555 1_555
C17 C16 1_555 1_555
H21 C17 1_555 1_555
C18 C17 1_555 1_555
H22 C18 1_555 1_555
C19 C18 1_555 1_555
H23 C19 1_555 1_555
C20 C15 1_555 1_555
H24 C20 1_555 1_555
C21 C6 1_555 1_555
H25 C21 1_555 1_555
C22 C21 1_555 1_555
H26 C22 1_555 1_555
C23 C22 1_555 1_555
H27 C23 1_555 1_555
C24 C23 1_555 1_555
H28 C24 1_555 1_555
C25 C6 1_555 1_555
H29 C25 1_555 1_555
C4 C5 1_555 1_555
C12 C13 1_555 1_555
C19 C20 1_555 1_555
C24 C25 1_555 1_555

#END
