
#######################################################################
#
#                 Cambridge Crystallographic Data Centre
#                                CCDC 
#
#######################################################################
#
# If this CIF has been generated from an entry in the Cambridge 
# Structural Database, then it will include bibliographic, chemical, 
# crystal, experimental, refinement or atomic coordinate data resulting 
# from the CCDC's data processing and validation procedures.
#
#######################################################################

data_BOLMUL
_chemical_name_common            Pyrido(3',4':7,8)naphtho(2,1-h)quinoline
_chemical_formula_moiety         'C20 H12 N2'
_chemical_name_systematic        1,12-Diaza(5)helicene
_symmetry_cell_setting           monoclinic
_symmetry_space_group_name_H-M   'P 21/c'
_symmetry_Int_Tables_number      14
_space_group_name_Hall           '-P 2ybc'
loop_
_symmetry_equiv_pos_site_id
_symmetry_equiv_pos_as_xyz
1 x,y,z
2 -x,1/2+y,1/2-z
3 -x,-y,-z
4 x,1/2-y,1/2+z
_cell_length_a                   9.957(3)
_cell_length_b                   22.606(6)
_cell_length_c                   6.2052(16)
_cell_angle_alpha                90
_cell_angle_beta                 104.210(10)
_cell_angle_gamma                90
_cell_volume                     1353.98
_chemical_melting_point          '160-165 deg.C'
_cell_formula_units_Z            4
loop_
_atom_site_label
_atom_site_type_symbol
_atom_site_fract_x
_atom_site_fract_y
_atom_site_fract_z
C1 C 0.1074(5) -0.4839(2) 0.2912(9)
H1 H 0.0351 -0.4651 0.1912
C2 C 0.1483(6) -0.4621(2) 0.5097(9)
H2 H 0.0998 -0.4314 0.5559
C3 C 0.2571(6) -0.4861(2) 0.6484(9)
H3 H 0.2861 -0.4717 0.7928
C4 C 0.4577(6) -0.5534(3) 0.7068(9)
H4 H 0.4908 -0.5397 0.8515
C5 C 0.5336(5) -0.5924(2) 0.6223(9)
H5 H 0.6221 -0.6027 0.7031
C6 C 0.5649(5) -0.6552(2) 0.3134(10)
H6 H 0.6545 -0.6641 0.3935
C7 C 0.5163(6) -0.6772(2) 0.1073(10)
H7 H 0.5766 -0.6974 0.0402
C8 C 0.3259(6) -0.6971(2) -0.2198(9)
H8 H 0.3889 -0.7148 -0.2884
C9 C 0.1934(6) -0.6982(2) -0.3250(8)
H9 H 0.1655 -0.7123 -0.4699
C10 C -0.0469(7) -0.6878(2) -0.2935(9)
H10 H -0.0748 -0.7036 -0.436
C11 C -0.0973(5) -0.6541(2) 0.0191(8)
H11 H -0.1615 -0.6472 0.1027
C12 C 0.0366(5) -0.63982(17) 0.1129(7)
H12 H 0.0607 -0.6238 0.2553
C13 C 0.2758(5) -0.5557(2) 0.3628(7)
C14 C 0.3295(5) -0.5332(2) 0.5795(8)
C15 C 0.3446(4) -0.60563(19) 0.2868(7)
C16 C 0.4781(5) -0.6178(2) 0.4094(8)
C17 C 0.2835(5) -0.63935(18) 0.0885(7)
C18 C 0.3780(5) -0.67059(19) -0.0084(8)
C19 C 0.1394(5) -0.64908(17) -0.0042(7)
C20 C 0.0934(5) -0.67708(18) -0.2117(8)
N1 N 0.1676(4) -0.53041(17) 0.2205(6)
N2 N -0.1455(5) -0.67767(18) -0.1869(8)
C21? C 0.1676(4) -0.53041(17) 0.2205(6)
H13? H 0.1353 -0.5448 0.0767
C22? C -0.1455(5) -0.67767(18) -0.1869(8)
H14? H -0.2386 -0.6859 -0.2477
N3? N 0.1483(6) -0.4621(2) 0.5097(9)
N4? N 0.0366(5) -0.63982(17) 0.1129(7)
loop_
_geom_bond_atom_site_label_1
_geom_bond_atom_site_label_2
_geom_bond_site_symmetry_1
_geom_bond_site_symmetry_2
C1 H1 1_555 1_555
C2 C1 1_555 1_555
H2 C2 1_555 1_555
C3 C2 1_555 1_555
H3 C3 1_555 1_555
C4 H4 1_555 1_555
C5 C4 1_555 1_555
H5 C5 1_555 1_555
C6 H6 1_555 1_555
C7 C6 1_555 1_555
H7 C7 1_555 1_555
C8 H8 1_555 1_555
C9 C8 1_555 1_555
H9 C9 1_555 1_555
C10 H10 1_555 1_555
C11 H11 1_555 1_555
C12 C11 1_555 1_555
H12 C12 1_555 1_555
C13 C14 1_555 1_555
C14 C3 1_555 1_555
C15 C13 1_555 1_555
C16 C5 1_555 1_555
C17 C15 1_555 1_555
C18 C7 1_555 1_555
C19 C12 1_555 1_555
C20 C9 1_555 1_555
N1 C1 1_555 1_555
N2 C10 1_555 1_555
C4 C14 1_555 1_555
C6 C16 1_555 1_555
C8 C18 1_555 1_555
C10 C20 1_555 1_555
C11 N2 1_555 1_555
C13 N1 1_555 1_555
C15 C16 1_555 1_555
C17 C18 1_555 1_555
C17 C19 1_555 1_555
C19 C20 1_555 1_555

#END
