
#######################################################################
#
#                 Cambridge Crystallographic Data Centre
#                                CCDC 
#
#######################################################################
#
# If this CIF has been generated from an entry in the Cambridge 
# Structural Database, then it will include bibliographic, chemical, 
# crystal, experimental, refinement or atomic coordinate data resulting 
# from the CCDC's data processing and validation procedures.
#
#######################################################################

data_BOLMEV
_chemical_name_common            Pyrido(2',3':7,8)naphtho(1,2-f)quinoline
_chemical_formula_moiety         'C20 H12 N2'
_chemical_name_systematic        4,11-Diaza(5)helicene
_symmetry_cell_setting           orthorhombic
_symmetry_space_group_name_H-M   'P b c a'
_symmetry_Int_Tables_number      61
_space_group_name_Hall           '-P 2ac 2ab'
loop_
_symmetry_equiv_pos_site_id
_symmetry_equiv_pos_as_xyz
1 x,y,z
2 1/2-x,-y,1/2+z
3 1/2+x,1/2-y,-z
4 -x,1/2+y,1/2-z
5 -x,-y,-z
6 1/2+x,y,1/2-z
7 1/2-x,1/2+y,z
8 x,1/2-y,1/2+z
_cell_length_a                   15.7823(7)
_cell_length_b                   8.7508(4)
_cell_length_c                   19.8826(9)
_cell_angle_alpha                90
_cell_angle_beta                 90
_cell_angle_gamma                90
_cell_volume                     2745.94
_cell_formula_units_Z            8
loop_
_atom_site_label
_atom_site_type_symbol
_atom_site_fract_x
_atom_site_fract_y
_atom_site_fract_z
C1 C 0.1672(2) 0.4281(4) -0.06653(17)
C2 C 0.1723(3) 0.3247(5) -0.01476(19)
C3 C 0.1364(3) 0.3621(6) 0.0473(2)
N1 N 0.1036(2) 0.4972(5) 0.06102(17)
C4 C 0.0783(3) 0.7543(6) 0.0283(2)
C5 C 0.0874(3) 0.8675(5) -0.0167(2)
C6 C 0.1272(3) 0.9639(4) -0.1294(2)
C7 C 0.1561(3) 0.9380(5) -0.1920(2)
C8 C 0.1829(2) 0.7630(5) -0.2869(2)
C9 C 0.1766(2) 0.6250(5) -0.31565(18)
N2 N 0.1199(2) 0.3745(4) -0.31641(15)
C10 C 0.0743(2) 0.2679(5) -0.28715(19)
C11 C 0.0412(2) 0.2824(4) -0.22257(19)
C12 C 0.0597(2) 0.4089(4) -0.18545(17)
C13 C 0.1280(2) 0.5702(4) -0.05597(17)
C14 C 0.1022(2) 0.6020(5) 0.01027(18)
C15 C 0.1227(2) 0.6886(4) -0.10724(17)
C16 C 0.1114(2) 0.8402(4) -0.0850(2)
C17 C 0.1342(2) 0.6628(4) -0.17830(17)
C18 C 0.1597(2) 0.7879(4) -0.21825(19)
C19 C 0.1129(2) 0.5225(4) -0.21240(17)
C20 C 0.1370(2) 0.5035(4) -0.28077(18)
H1 H 0.196(2) 0.397(4) -0.1141(9)
H2 H 0.206(2) 0.218(2) -0.022(2)
H3 H 0.139(3) 0.276(4) 0.0860(19)
H4 H 0.060(2) 0.769(5) 0.0802(6)
H5 H 0.075(2) 0.9857(13) -0.0046(19)
H6 H 0.120(3) 1.078(2) -0.110(2)
H7 H 0.175(2) 1.028(3) -0.2260(16)
H8 H 0.206(2) 0.859(3) -0.3156(15)
H9 H 0.195(3) 0.610(5) -0.3676(7)
H10 H 0.060(2) 0.166(3) -0.3159(17)
H11 H -0.0004(17) 0.198(3) -0.2010(15)
H12 H 0.032(2) 0.422(4) -0.1360(8)
loop_
_geom_bond_atom_site_label_1
_geom_bond_atom_site_label_2
_geom_bond_site_symmetry_1
_geom_bond_site_symmetry_2
C1 C2 1_555 1_555
C2 C3 1_555 1_555
C3 N1 1_555 1_555
N1 C14 1_555 1_555
C4 C5 1_555 1_555
C5 C16 1_555 1_555
C6 C7 1_555 1_555
C7 C18 1_555 1_555
C8 C9 1_555 1_555
C9 C20 1_555 1_555
N2 C10 1_555 1_555
C10 C11 1_555 1_555
C11 C12 1_555 1_555
C12 C19 1_555 1_555
C13 C1 1_555 1_555
C14 C4 1_555 1_555
C15 C13 1_555 1_555
C16 C6 1_555 1_555
C17 C15 1_555 1_555
C18 C8 1_555 1_555
C19 C17 1_555 1_555
C20 N2 1_555 1_555
H1 C1 1_555 1_555
H2 C2 1_555 1_555
H3 C3 1_555 1_555
H4 C4 1_555 1_555
H5 C5 1_555 1_555
H6 C6 1_555 1_555
H7 C7 1_555 1_555
H8 C8 1_555 1_555
H9 C9 1_555 1_555
H10 C10 1_555 1_555
H11 C11 1_555 1_555
H12 C12 1_555 1_555
C13 C14 1_555 1_555
C15 C16 1_555 1_555
C17 C18 1_555 1_555
C19 C20 1_555 1_555

#END
