
#######################################################################
#
#                 Cambridge Crystallographic Data Centre
#                                CCDC 
#
#######################################################################
#
# If this CIF has been generated from an entry in the Cambridge 
# Structural Database, then it will include bibliographic, chemical, 
# crystal, experimental, refinement or atomic coordinate data resulting 
# from the CCDC's data processing and validation procedures.
#
#######################################################################

data_BOLMIZ01
_chemical_name_common            Dibenzo(a,k)(3,8)phenanthroline
_chemical_formula_moiety         'C20 H12 N2'
_chemical_name_systematic        5,10-Diaza(5)helicene
_symmetry_cell_setting           monoclinic
_symmetry_space_group_name_H-M   'C 2/c'
_symmetry_Int_Tables_number      15
_space_group_name_Hall           '-C 2yn'
loop_
_symmetry_equiv_pos_site_id
_symmetry_equiv_pos_as_xyz
1 x,y,z
2 1/2+x,1/2+y,z
3 -x,y,1/2-z
4 1/2-x,1/2+y,1/2-z
5 -x,-y,-z
6 1/2-x,1/2-y,-z
7 x,-y,1/2+z
8 1/2+x,1/2-y,1/2+z
_cell_length_a                   20.3520(6)
_cell_length_b                   9.0912(3)
_cell_length_c                   7.5400(2)
_cell_angle_alpha                90
_cell_angle_beta                 92.2800(10)
_cell_angle_gamma                90
_cell_volume                     1393.98
_cell_formula_units_Z            4
_exptl_crystal_recrystallization_method chloroform
loop_
_atom_site_label
_atom_site_type_symbol
_atom_site_fract_x
_atom_site_fract_y
_atom_site_fract_z
C1 C 0.43753(8) 0.3661(2) 0.3458(2)
H1 H 0.4803 0.3785 0.3915
C2 C 0.39238(9) 0.4744(2) 0.3701(3)
H2 H 0.4047 0.5584 0.4334
C3 C 0.32790(10) 0.4607(3) 0.3011(3)
H3 H 0.2979 0.5368 0.3141
C4 C 0.30958(9) 0.3355(3) 0.2150(3)
H4 H 0.2667 0.3261 0.1693
C5 C 0.36699(12) -0.0239(3) 0.1327(3)
H5 H 0.3491 -0.1135 0.0964
C6 C 0.46845(12) -0.1586(2) 0.2176(3)
H6 H 0.4477 -0.2469 0.1883
C7 C 0.42084(8) 0.2362(2) 0.2531(2)
C8 C 0.35410(9) 0.2197(2) 0.1935(3)
C9 C 0.46458(8) 0.11180(19) 0.2342(2)
C10 C 0.43424(11) -0.0241(2) 0.1946(3)
N1 N 0.32885(9) 0.0896(3) 0.1227(3)
C1B C 0.56247(8) 0.3661(2) 0.1542(2)
H1B H 0.5197 0.3785 0.1085
C2B C 0.60762(9) 0.4744(2) 0.1299(3)
H2B H 0.5953 0.5584 0.0666
C3B C 0.67210(10) 0.4607(3) 0.1989(3)
H3B H 0.7021 0.5368 0.1859
C4B C 0.69042(9) 0.3355(3) 0.2850(3)
H4B H 0.7333 0.3261 0.3307
C5B C 0.63301(12) -0.0239(3) 0.3673(3)
H5B H 0.6509 -0.1135 0.4036
C6B C 0.53155(12) -0.1586(2) 0.2824(3)
H6B H 0.5523 -0.2469 0.3117
C7B C 0.57916(8) 0.2362(2) 0.2469(2)
C8B C 0.64590(9) 0.2197(2) 0.3065(3)
C9B C 0.53542(8) 0.11180(19) 0.2658(2)
C10B C 0.56576(11) -0.0241(2) 0.3054(3)
N1B N 0.67115(9) 0.0896(3) 0.3773(3)
loop_
_geom_bond_atom_site_label_1
_geom_bond_atom_site_label_2
_geom_bond_site_symmetry_1
_geom_bond_site_symmetry_2
C1 H1 1_555 1_555
C2 C1 1_555 1_555
H2 C2 1_555 1_555
C3 C2 1_555 1_555
H3 C3 1_555 1_555
C4 C3 1_555 1_555
H4 C4 1_555 1_555
C5 H5 1_555 1_555
C6 H6 1_555 1_555
C7 C1 1_555 1_555
C8 C4 1_555 1_555
C9 C7 1_555 1_555
C10 C5 1_555 1_555
N1 C5 1_555 1_555
C1B H1B 1_555 1_555
C2B C1B 1_555 1_555
H2B C2B 1_555 1_555
C3B C2B 1_555 1_555
H3B C3B 1_555 1_555
C4B C3B 1_555 1_555
H4B C4B 1_555 1_555
C5B H5B 1_555 1_555
C6B C6 1_555 1_555
H6B C6B 1_555 1_555
C7B C1B 1_555 1_555
C8B C4B 1_555 1_555
C9B C9 1_555 1_555
C10B C5B 1_555 1_555
N1B C5B 1_555 1_555
C6 C10 1_555 1_555
C7 C8 1_555 1_555
C8 N1 1_555 1_555
C9 C10 1_555 1_555
C6B C10B 1_555 1_555
C7B C8B 1_555 1_555
C7B C9B 1_555 1_555
C8B N1B 1_555 1_555
C9B C10B 1_555 1_555

#END
