
#######################################################################
#
#                 Cambridge Crystallographic Data Centre
#                                CCDC 
#
#######################################################################
#
# If this CIF has been generated from an entry in the Cambridge 
# Structural Database, then it will include bibliographic, chemical, 
# crystal, experimental, refinement or atomic coordinate data resulting 
# from the CCDC's data processing and validation procedures.
#
#######################################################################

data_BOLPUP
_chemical_formula_moiety         'C52 H68 N2 O2'
_chemical_name_systematic        
N,N'-((2,5-bis(octyloxy)-1,4-phenylene)bis(ethyne-2,1-diyl-4,1-phenylenemethylylidene))dicyclohexanamine
_symmetry_cell_setting           monoclinic
_symmetry_space_group_name_H-M   'P 21/c'
_symmetry_Int_Tables_number      14
_space_group_name_Hall           '-P 2ybc'
loop_
_symmetry_equiv_pos_site_id
_symmetry_equiv_pos_as_xyz
1 x,y,z
2 -x,1/2+y,1/2-z
3 -x,-y,-z
4 x,1/2-y,1/2+z
_cell_length_a                   17.1071(11)
_cell_length_b                   12.5862(7)
_cell_length_c                   10.7583(11)
_cell_angle_alpha                90
_cell_angle_beta                 105.966(8)
_cell_angle_gamma                90
_cell_volume                     2227.05
_exptl_crystal_description       plate
_cell_formula_units_Z            2
loop_
_atom_site_label
_atom_site_type_symbol
_atom_site_fract_x
_atom_site_fract_y
_atom_site_fract_z
O1 O 0.92202(19) 0.6477(3) 0.3186(3)
C1 C 0.9591(3) 0.5757(4) 0.4121(5)
C2 C 0.9334(3) 0.5532(4) 0.5192(4)
C3 C 0.9738(3) 0.4778(3) 0.6099(4)
C4 C 0.9483(3) 0.4562(3) 0.7221(4)
C5 C 0.9257(3) 0.4392(3) 0.8164(4)
C6 C 0.9033(2) 0.4195(3) 0.9331(4)
C7 C 0.9492(2) 0.3536(3) 1.0296(4)
C8 C 0.9262(2) 0.3341(3) 1.1400(4)
C9 C 0.8574(2) 0.3811(3) 1.1595(4)
C10 C 0.8324(2) 0.3577(3) 1.2776(4)
N1 N 0.7666(2) 0.3907(3) 1.2932(3)
C11 C 0.7442(2) 0.3576(3) 1.4089(4)
C12 C 0.6761(3) 0.2787(3) 1.3720(5)
C13 C 0.6419(3) 0.2508(4) 1.4858(5)
C14 C 0.6161(3) 0.3477(4) 1.5430(5)
C15 C 0.6853(3) 0.4249(4) 1.5838(5)
C16 C 0.7185(3) 0.4541(4) 1.4726(5)
H1 H 0.7616 0.5006 1.5011
H2 H 0.6783 0.4891 1.4107
H3 H 0.6696 0.4862 1.6216
H4 H 0.7255 0.3897 1.6453
H5 H 0.5962 0.3298 1.6141
H6 H 0.5764 0.3814 1.4791
H7 H 0.6821 0.2179 1.5496
H8 H 0.5991 0.2035 1.4592
H9 H 0.6355 0.3109 1.3082
H10 H 0.6930 0.2163 1.3381
H11 H 0.7872 0.3248 1.4675
H12 H 0.8655 0.3163 1.3430
C17 C 0.8118(2) 0.4476(3) 1.0646(4)
C18 C 0.8345(2) 0.4671(3) 0.9539(4)
H13 H 0.8043 0.5129 0.8905
H14 H 0.7652 0.4780 1.0770
H15 H 0.9570 0.2899 1.2047
H16 H 0.9954 0.3221 1.0169
H17 H 0.8881 0.5876 0.5316
C19 C 0.8444(3) 0.6860(5) 0.3188(6)
C20 C 0.8113(4) 0.7535(5) 0.1921(8)
C21 C 0.7298(4) 0.7830(6) 0.1732(8)
C22 C 0.6703(5) 0.7030(6) 0.1216(8)
C23 C 0.6464(4) 0.6761(6) -0.0186(7)
C24 C 0.5769(4) 0.5935(8) -0.0593(8)
C25 C 0.5588(5) 0.5532(9) -0.1955(8)
C26 C 0.5004(5) 0.4769(7) -0.2326(8)
H18 H 0.4929 0.4608 -0.3210
H19 H 0.4525 0.5004 -0.2179
H20 H 0.5177 0.4154 -0.1828
H21 H 0.5409 0.6137 -0.2468
H22 H 0.6061 0.5287 -0.2117
H23 H 0.5310 0.6240 -0.0443
H24 H 0.5907 0.5322 -0.0075
H25 H 0.6299 0.7400 -0.0638
H26 H 0.6902 0.6486 -0.0435
H27 H 0.6243 0.7222 0.1460
H28 H 0.6908 0.6393 0.1637
H29 H 0.7250 0.8034 0.2556
H30 H 0.7192 0.8420 0.1169
H31 H 0.8431 0.8139 0.1919
H32 H 0.8124 0.7096 0.1211
H33 H 0.8479 0.7307 0.3908
H34 H 0.8113 0.6277 0.3230
O1B O 1.07798(19) 0.3523(3) 0.6814(3)
C1B C 1.0409(3) 0.4243(4) 0.5879(5)
C2B C 1.0666(3) 0.4468(4) 0.4808(4)
C3B C 1.0262(3) 0.5222(3) 0.3901(4)
C4B C 1.0517(3) 0.5438(3) 0.2779(4)
C5B C 1.0743(3) 0.5608(3) 0.1836(4)
C6B C 1.0967(2) 0.5805(3) 0.0669(4)
C7B C 1.0508(2) 0.6464(3) -0.0296(4)
C8B C 1.0738(2) 0.6659(3) -0.1400(4)
C9B C 1.1426(2) 0.6189(3) -0.1595(4)
C10B C 1.1676(2) 0.6423(3) -0.2776(4)
N1B N 1.2334(2) 0.6093(3) -0.2932(3)
C11B C 1.2558(2) 0.6424(3) -0.4089(4)
C12B C 1.3239(3) 0.7213(3) -0.3720(5)
C13B C 1.3581(3) 0.7492(4) -0.4858(5)
C14B C 1.3839(3) 0.6523(4) -0.5430(5)
C15B C 1.3147(3) 0.5751(4) -0.5838(5)
C16B C 1.2815(3) 0.5459(4) -0.4726(5)
H1B H 1.2384 0.4994 -0.5011
H2B H 1.3217 0.5109 -0.4107
H3B H 1.3304 0.5138 -0.6216
H4B H 1.2745 0.6103 -0.6453
H5B H 1.4038 0.6702 -0.6141
H6B H 1.4236 0.6186 -0.4791
H7B H 1.3179 0.7821 -0.5496
H8B H 1.4009 0.7965 -0.4592
H9B H 1.3645 0.6891 -0.3082
H10B H 1.3070 0.7837 -0.3381
H11B H 1.2128 0.6752 -0.4675
H12B H 1.1345 0.6837 -0.3430
C17B C 1.1882(2) 0.5524(3) -0.0646(4)
C18B C 1.1655(2) 0.5329(3) 0.0461(4)
H13B H 1.1957 0.4871 0.1095
H14B H 1.2348 0.5220 -0.0770
H15B H 1.0430 0.7101 -0.2047
H16B H 1.0046 0.6779 -0.0169
H17B H 1.1119 0.4124 0.4684
C19B C 1.1556(3) 0.3140(5) 0.6812(6)
C20B C 1.1887(4) 0.2465(5) 0.8079(8)
C21B C 1.2702(4) 0.2170(6) 0.8268(8)
C22B C 1.3297(5) 0.2970(6) 0.8784(8)
C23B C 1.3536(4) 0.3239(6) 1.0186(7)
C24B C 1.4231(4) 0.4065(8) 1.0593(8)
C25B C 1.4412(5) 0.4468(9) 1.1955(8)
C26B C 1.4996(5) 0.5231(7) 1.2326(8)
H18B H 1.5071 0.5392 1.3210
H19B H 1.5475 0.4996 1.2179
H20B H 1.4823 0.5846 1.1828
H21B H 1.4591 0.3863 1.2468
H22B H 1.3939 0.4713 1.2117
H23B H 1.4690 0.3760 1.0443
H24B H 1.4093 0.4678 1.0075
H25B H 1.3701 0.2600 1.0638
H26B H 1.3098 0.3514 1.0435
H27B H 1.3757 0.2778 0.8540
H28B H 1.3092 0.3607 0.8363
H29B H 1.2750 0.1966 0.7444
H30B H 1.2808 0.1580 0.8831
H31B H 1.1569 0.1861 0.8081
H32B H 1.1876 0.2904 0.8789
H33B H 1.1521 0.2693 0.6092
H34B H 1.1887 0.3723 0.6770
loop_
_geom_bond_atom_site_label_1
_geom_bond_atom_site_label_2
_geom_bond_site_symmetry_1
_geom_bond_site_symmetry_2
O1 C1 1_555 1_555
C1 C2 1_555 1_555
C2 C3 1_555 1_555
C3 C4 1_555 1_555
C4 C5 1_555 1_555
C5 C6 1_555 1_555
C6 C7 1_555 1_555
C7 C8 1_555 1_555
C8 C9 1_555 1_555
C9 C10 1_555 1_555
C10 N1 1_555 1_555
N1 C11 1_555 1_555
C11 C12 1_555 1_555
C12 C13 1_555 1_555
C13 C14 1_555 1_555
C14 C15 1_555 1_555
C15 C16 1_555 1_555
C16 C11 1_555 1_555
H1 C16 1_555 1_555
H2 C16 1_555 1_555
H3 C15 1_555 1_555
H4 C15 1_555 1_555
H5 C14 1_555 1_555
H6 C14 1_555 1_555
H7 C13 1_555 1_555
H8 C13 1_555 1_555
H9 C12 1_555 1_555
H10 C12 1_555 1_555
H11 C11 1_555 1_555
H12 C10 1_555 1_555
C17 C9 1_555 1_555
C18 C6 1_555 1_555
H13 C18 1_555 1_555
H14 C17 1_555 1_555
H15 C8 1_555 1_555
H16 C7 1_555 1_555
H17 C2 1_555 1_555
C19 O1 1_555 1_555
C20 C19 1_555 1_555
C21 C20 1_555 1_555
C22 C21 1_555 1_555
C23 C22 1_555 1_555
C24 C23 1_555 1_555
C25 C24 1_555 1_555
C26 C25 1_555 1_555
H18 C26 1_555 1_555
H19 C26 1_555 1_555
H20 C26 1_555 1_555
H21 C25 1_555 1_555
H22 C25 1_555 1_555
H23 C24 1_555 1_555
H24 C24 1_555 1_555
H25 C23 1_555 1_555
H26 C23 1_555 1_555
H27 C22 1_555 1_555
H28 C22 1_555 1_555
H29 C21 1_555 1_555
H30 C21 1_555 1_555
H31 C20 1_555 1_555
H32 C20 1_555 1_555
H33 C19 1_555 1_555
H34 C19 1_555 1_555
O1B C1B 1_555 1_555
C1B C3 1_555 1_555
C2B C1B 1_555 1_555
C3B C1 1_555 1_555
C4B C3B 1_555 1_555
C5B C4B 1_555 1_555
C6B C5B 1_555 1_555
C7B C6B 1_555 1_555
C8B C7B 1_555 1_555
C9B C8B 1_555 1_555
C10B C9B 1_555 1_555
N1B C10B 1_555 1_555
C11B N1B 1_555 1_555
C12B C11B 1_555 1_555
C13B C12B 1_555 1_555
C14B C13B 1_555 1_555
C15B C14B 1_555 1_555
C16B C11B 1_555 1_555
H1B C16B 1_555 1_555
H2B C16B 1_555 1_555
H3B C15B 1_555 1_555
H4B C15B 1_555 1_555
H5B C14B 1_555 1_555
H6B C14B 1_555 1_555
H7B C13B 1_555 1_555
H8B C13B 1_555 1_555
H9B C12B 1_555 1_555
H10B C12B 1_555 1_555
H11B C11B 1_555 1_555
H12B C10B 1_555 1_555
C17B C9B 1_555 1_555
C18B C6B 1_555 1_555
H13B C18B 1_555 1_555
H14B C17B 1_555 1_555
H15B C8B 1_555 1_555
H16B C7B 1_555 1_555
H17B C2B 1_555 1_555
C19B O1B 1_555 1_555
C20B C19B 1_555 1_555
C21B C20B 1_555 1_555
C22B C21B 1_555 1_555
C23B C22B 1_555 1_555
C24B C23B 1_555 1_555
C25B C24B 1_555 1_555
C26B C25B 1_555 1_555
H18B C26B 1_555 1_555
H19B C26B 1_555 1_555
H20B C26B 1_555 1_555
H21B C25B 1_555 1_555
H22B C25B 1_555 1_555
H23B C24B 1_555 1_555
H24B C24B 1_555 1_555
H25B C23B 1_555 1_555
H26B C23B 1_555 1_555
H27B C22B 1_555 1_555
H28B C22B 1_555 1_555
H29B C21B 1_555 1_555
H30B C21B 1_555 1_555
H31B C20B 1_555 1_555
H32B C20B 1_555 1_555
H33B C19B 1_555 1_555
H34B C19B 1_555 1_555
C17 C18 1_555 1_555
C2B C3B 1_555 1_555
C15B C16B 1_555 1_555
C17B C18B 1_555 1_555

#END
