
#######################################################################
#
#                 Cambridge Crystallographic Data Centre
#                                CCDC 
#
#######################################################################
#
# If this CIF has been generated from an entry in the Cambridge 
# Structural Database, then it will include bibliographic, chemical, 
# crystal, experimental, refinement or atomic coordinate data resulting 
# from the CCDC's data processing and validation procedures.
#
#######################################################################

data_BOLPOJ
_chemical_formula_moiety         'C38 H46 O2'
_chemical_name_systematic        
1,4-bis(octyloxy)-2,5-bis(phenylethynyl)benzene
_symmetry_cell_setting           monoclinic
_symmetry_space_group_name_H-M   'P 21/c'
_symmetry_Int_Tables_number      14
_space_group_name_Hall           '-P 2ybc'
loop_
_symmetry_equiv_pos_site_id
_symmetry_equiv_pos_as_xyz
1 x,y,z
2 -x,1/2+y,1/2-z
3 -x,-y,-z
4 x,1/2-y,1/2+z
_cell_length_a                   11.5470(11)
_cell_length_b                   8.3239(7)
_cell_length_c                   33.525(4)
_cell_angle_alpha                90
_cell_angle_beta                 96.785(11)
_cell_angle_gamma                90
_cell_volume                     3199.72
_exptl_crystal_description       plate
_cell_formula_units_Z            4
loop_
_atom_site_label
_atom_site_type_symbol
_atom_site_fract_x
_atom_site_fract_y
_atom_site_fract_z
O1 O 0.45343(13) 0.6386(2) 0.72368(5)
C1 C 0.35008(19) 0.6416(3) 0.73997(7)
C2 C 0.2588(2) 0.5544(3) 0.71886(7)
C3 C 0.1497(2) 0.5535(3) 0.73338(7)
C4 C 0.1319(2) 0.6296(3) 0.76841(7)
O2 O 0.03028(14) 0.6304(2) 0.78498(5)
C5 C -0.0618(2) 0.5308(3) 0.76601(7)
C6 C -0.1589(2) 0.5284(4) 0.79173(7)
C7 C -0.1350(2) 0.4376(4) 0.83114(8)
C8 C -0.2469(2) 0.4039(3) 0.85003(7)
C9 C -0.2260(2) 0.3175(3) 0.89033(8)
C10 C -0.3381(2) 0.2809(4) 0.90795(8)
C11 C -0.3226(2) 0.2125(4) 0.95013(8)
C12 C -0.4347(3) 0.1887(4) 0.96764(9)
H1 H -0.4200 0.1658 0.9961
H2 H -0.4803 0.2853 0.9633
H3 H -0.4758 0.0994 0.9541
H4 H -0.2736 0.2873 0.9672
H5 H -0.2829 0.1085 0.9492
H6 H -0.3843 0.3798 0.9079
H7 H -0.3810 0.2005 0.8905
H8 H -0.1773 0.3850 0.9096
H9 H -0.1864 0.2150 0.8862
H10 H -0.2861 0.5047 0.8547
H11 H -0.2972 0.3368 0.8313
H12 H -0.0835 0.5013 0.8502
H13 H -0.0966 0.3367 0.8257
H14 H -0.1782 0.6394 0.7978
H15 H -0.2256 0.4763 0.7764
H16 H -0.0332 0.4204 0.7644
H17 H -0.0892 0.5684 0.7391
C13 C 0.2238(2) 0.7195(3) 0.78929(7)
C14 C 0.3329(2) 0.7228(3) 0.77482(7)
H18 H 0.3954 0.7818 0.7889
C15 C 0.2049(2) 0.8046(3) 0.82504(7)
C16 C 0.1868(2) 0.8729(3) 0.85491(7)
C17 C 0.1620(2) 0.9498(3) 0.89140(7)
C18 C 0.0468(2) 0.9765(3) 0.89837(8)
C19 C 0.0220(2) 1.0413(4) 0.93433(8)
C20 C 0.1107(3) 1.0824(4) 0.96382(8)
C21 C 0.2257(2) 1.0579(4) 0.95696(8)
C22 C 0.2501(2) 0.9948(3) 0.92097(8)
H19 H 0.3271 0.9701 0.9174
H20 H 0.2872 1.0816 0.9770
H21 H 0.0931 1.1275 0.9881
H22 H -0.0559 1.0558 0.9392
H23 H -0.0143 0.9498 0.8785
H24 H 0.0880 0.4962 0.7191
C23 C 0.2775(2) 0.4730(3) 0.68258(7)
C24 C 0.2973(2) 0.4061(3) 0.65284(7)
C25 C 0.3239(2) 0.3282(3) 0.61685(7)
C26 C 0.2352(2) 0.2628(3) 0.58937(7)
C27 C 0.2607(3) 0.1904(3) 0.55440(8)
C28 C 0.3750(3) 0.1787(3) 0.54667(8)
C29 C 0.4638(2) 0.2408(4) 0.57364(8)
C30 C 0.4388(2) 0.3140(3) 0.60850(8)
H25 H 0.4990 0.3517 0.6272
H26 H 0.5415 0.2201 0.5699
H27 H 0.3922 0.1204 0.5240
H28 H 0.2011 0.1420 0.5368
H29 H 0.1569 0.2710 0.5950
C31 C 0.5502(2) 0.7262(4) 0.74393(8)
C32 C 0.6476(2) 0.7212(4) 0.71748(8)
C33 C 0.6208(2) 0.8059(4) 0.67729(8)
C34 C 0.7294(2) 0.8292(3) 0.65658(7)
C35 C 0.7081(2) 0.9172(4) 0.61679(8)
C36 C 0.8189(2) 0.9552(4) 0.59867(8)
C37 C 0.8006(2) 1.0317(4) 0.55761(9)
C38 C 0.9147(2) 1.0744(4) 0.54091(9)
H30 H 0.8997 1.1174 0.5140
H31 H 0.9565 1.1521 0.5584
H32 H 0.9613 0.9782 0.5403
H33 H 0.7562 1.1303 0.5596
H34 H 0.7569 0.9563 0.5395
H35 H 0.8672 1.0271 0.6169
H36 H 0.8600 0.8526 0.5962
H37 H 0.6664 1.0167 0.6204
H38 H 0.6614 0.8477 0.5979
H39 H 0.7852 0.8942 0.6743
H40 H 0.7636 0.7233 0.6521
H41 H 0.5858 0.9107 0.6819
H42 H 0.5659 0.7396 0.6599
H43 H 0.7159 0.7739 0.7319
H44 H 0.6673 0.6093 0.7124
H45 H 0.5746 0.6770 0.7703
H46 H 0.5285 0.8391 0.7477
loop_
_geom_bond_atom_site_label_1
_geom_bond_atom_site_label_2
_geom_bond_site_symmetry_1
_geom_bond_site_symmetry_2
O1 C1 1_555 1_555
C1 C2 1_555 1_555
C2 C3 1_555 1_555
C3 C4 1_555 1_555
C4 O2 1_555 1_555
O2 C5 1_555 1_555
C5 C6 1_555 1_555
C6 C7 1_555 1_555
C7 C8 1_555 1_555
C8 C9 1_555 1_555
C9 C10 1_555 1_555
C10 C11 1_555 1_555
C11 C12 1_555 1_555
C12 H1 1_555 1_555
H2 C12 1_555 1_555
H3 C12 1_555 1_555
H4 C11 1_555 1_555
H5 C11 1_555 1_555
H6 C10 1_555 1_555
H7 C10 1_555 1_555
H8 C9 1_555 1_555
H9 C9 1_555 1_555
H10 C8 1_555 1_555
H11 C8 1_555 1_555
H12 C7 1_555 1_555
H13 C7 1_555 1_555
H14 C6 1_555 1_555
H15 C6 1_555 1_555
H16 C5 1_555 1_555
H17 C5 1_555 1_555
C13 C4 1_555 1_555
C14 C1 1_555 1_555
H18 C14 1_555 1_555
C15 C13 1_555 1_555
C16 C15 1_555 1_555
C17 C16 1_555 1_555
C18 C17 1_555 1_555
C19 C18 1_555 1_555
C20 C19 1_555 1_555
C21 C20 1_555 1_555
C22 C17 1_555 1_555
H19 C22 1_555 1_555
H20 C21 1_555 1_555
H21 C20 1_555 1_555
H22 C19 1_555 1_555
H23 C18 1_555 1_555
H24 C3 1_555 1_555
C23 C2 1_555 1_555
C24 C23 1_555 1_555
C25 C24 1_555 1_555
C26 C25 1_555 1_555
C27 C26 1_555 1_555
C28 C27 1_555 1_555
C29 C28 1_555 1_555
C30 C25 1_555 1_555
H25 C30 1_555 1_555
H26 C29 1_555 1_555
H27 C28 1_555 1_555
H28 C27 1_555 1_555
H29 C26 1_555 1_555
C31 O1 1_555 1_555
C32 C31 1_555 1_555
C33 C32 1_555 1_555
C34 C33 1_555 1_555
C35 C34 1_555 1_555
C36 C35 1_555 1_555
C37 C36 1_555 1_555
C38 C37 1_555 1_555
H30 C38 1_555 1_555
H31 C38 1_555 1_555
H32 C38 1_555 1_555
H33 C37 1_555 1_555
H34 C37 1_555 1_555
H35 C36 1_555 1_555
H36 C36 1_555 1_555
H37 C35 1_555 1_555
H38 C35 1_555 1_555
H39 C34 1_555 1_555
H40 C34 1_555 1_555
H41 C33 1_555 1_555
H42 C33 1_555 1_555
H43 C32 1_555 1_555
H44 C32 1_555 1_555
H45 C31 1_555 1_555
H46 C31 1_555 1_555
C13 C14 1_555 1_555
C21 C22 1_555 1_555
C29 C30 1_555 1_555

#END
