
#######################################################################
#
#                 Cambridge Crystallographic Data Centre
#                                CCDC 
#
#######################################################################
#
# If this CIF has been generated from an entry in the Cambridge 
# Structural Database, then it will include bibliographic, chemical, 
# crystal, experimental, refinement or atomic coordinate data resulting 
# from the CCDC's data processing and validation procedures.
#
#######################################################################

data_BOLYUX
_chemical_formula_moiety         'C80 H116 N4 Na8 O16'
_chemical_name_systematic        
tetrakis(\m~5~-4-(2-oxo-5-methylphenyl)imino-2-pentanonato)-bis(\m~2~-tetrahydrofuran)-hexakis(tetrahydrofuran)-octa-sodium
_symmetry_cell_setting           monoclinic
_symmetry_space_group_name_H-M   'P 21/n'
_symmetry_Int_Tables_number      14
_space_group_name_Hall           '-P 2yn'
loop_
_symmetry_equiv_pos_site_id
_symmetry_equiv_pos_as_xyz
1 x,y,z
2 1/2-x,1/2+y,1/2-z
3 -x,-y,-z
4 1/2+x,1/2-y,1/2+z
_cell_length_a                   22.2790(15)
_cell_length_b                   15.6741(10)
_cell_length_c                   24.1103(17)
_cell_angle_alpha                90
_cell_angle_beta                 94.871(2)
_cell_angle_gamma                90
_cell_volume                     8388.99
_exptl_crystal_colour            orange-yellow
_exptl_crystal_description       block
_chemical_melting_point          '91-93 deg.C'
_cell_formula_units_Z            4
_chemical_properties_physical    'air- and moisture-sensitive'
_exptl_crystal_recrystallization_method tetrahydrofuran
loop_
_atom_site_label
_atom_site_type_symbol
_atom_site_fract_x
_atom_site_fract_y
_atom_site_fract_z
Na1 Na 0.18002(4) 0.77932(6) 0.54320(3)
Na2 Na 0.18197(4) 0.62543(6) 0.44835(3)
Na3 Na 0.31748(4) 0.71934(6) 0.46191(3)
Na4 Na 0.31531(4) 0.87299(6) 0.55731(4)
Na5 Na 0.14588(4) 0.83356(6) 0.42230(3)
Na6 Na 0.28024(4) 0.89417(6) 0.41704(3)
Na7 Na 0.26739(4) 0.70131(6) 0.63105(3)
Na8 Na 0.29976(4) 0.56992(5) 0.54069(3)
O1 O 0.10721(7) 0.72228(10) 0.47046(6)
O2 O 0.22782(7) 0.88951(10) 0.49538(6)
O3 O 0.24452(7) 0.84604(10) 0.62291(6)
O4 O 0.20552(7) 0.63022(10) 0.54784(6)
O5 O 0.28079(7) 0.57152(10) 0.44503(6)
O6 O 0.33010(7) 0.72390(10) 0.56072(6)
O7 O 0.36656(7) 0.86234(10) 0.47548(6)
O8 O 0.22658(7) 0.74539(10) 0.40703(6)
O9 O 0.12398(9) 0.51527(13) 0.39523(8)
O10 O 0.37816(10) 0.97943(13) 0.60706(8)
O11 O 0.18440(8) 0.95002(11) 0.36326(7)
O12 O 0.05907(8) 0.83288(13) 0.35313(7)
O13 O 0.32807(8) 1.01117(12) 0.37386(8)
O14 O 0.31607(7) 0.55608(11) 0.64304(7)
O15 O 0.28813(9) 0.70994(12) 0.73087(7)
O16 O 0.30571(7) 0.41504(11) 0.53714(7)
N1 N 0.10883(8) 0.89803(12) 0.50519(8)
N2 N 0.15976(8) 0.70850(12) 0.63465(7)
N3 N 0.39437(8) 0.61168(12) 0.50619(8)
N4 N 0.33301(8) 0.78662(12) 0.36875(7)
C1 C 0.02177(11) 0.64160(16) 0.49094(12)
H1 H 0.0169 0.6207 0.4525
H2 H -0.0180 0.6520 0.5042
H3 H 0.0433 0.5989 0.5147
C2 C 0.05754(10) 0.72425(15) 0.49311(9)
C3 C 0.03465(10) 0.79343(16) 0.52053(10)
H4 H -0.0034 0.7849 0.5347
C4 C 0.06102(10) 0.87574(15) 0.53009(9)
C5 C 0.03138(11) 0.93181(16) 0.57095(10)
H5 H 0.0625 0.9619 0.5947
H6 H 0.0073 0.8964 0.5941
H7 H 0.0052 0.9735 0.5505
C6 C 0.14194(10) 0.97443(15) 0.51437(9)
C7 C 0.11940(10) 1.05621(15) 0.52287(9)
H8 H 0.0774 1.0628 0.5256
C8 C 0.15595(11) 1.12859(15) 0.52746(10)
C9 C 0.21715(11) 1.11775(15) 0.52289(10)
H9 H 0.2432 1.1657 0.5267
C10 C 0.24087(10) 1.03802(15) 0.51278(9)
H10 H 0.2829 1.0330 0.5096
C11 C 0.20492(10) 0.96445(14) 0.50716(9)
C12 C 0.12952(12) 1.21600(16) 0.53523(12)
H11 H 0.1284 1.2476 0.5001
H12 H 0.1544 1.2469 0.5640
H13 H 0.0885 1.2102 0.5466
C13 C 0.21809(12) 0.97873(16) 0.66160(11)
H14 H 0.2566 0.9839 0.6842
H15 H 0.1858 1.0026 0.6821
H16 H 0.2202 1.0100 0.6266
C14 C 0.20517(11) 0.88534(14) 0.64903(9)
C15 C 0.15203(11) 0.85178(15) 0.66569(9)
H17 H 0.1283 0.8897 0.6855
C16 C 0.12809(10) 0.76735(15) 0.65704(9)
C17 C 0.06493(11) 0.75480(17) 0.67430(12)
H18 H 0.0434 0.7138 0.6492
H19 H 0.0435 0.8095 0.6724
H20 H 0.0670 0.7329 0.7125
C18 C 0.14127(10) 0.62388(14) 0.62296(9)
C19 C 0.10635(10) 0.57286(15) 0.65489(10)
H21 H 0.0913 0.5969 0.6871
C20 C 0.09247(11) 0.48809(16) 0.64181(10)
C21 C 0.11506(10) 0.45425(15) 0.59466(10)
H22 H 0.1052 0.3973 0.5839
C22 C 0.15174(10) 0.50213(15) 0.56310(10)
H23 H 0.1668 0.4767 0.5313
C23 C 0.16747(9) 0.58672(14) 0.57624(9)
C24 C 0.05468(13) 0.43530(18) 0.67818(13)
H24 H 0.0809 0.3969 0.7014
H25 H 0.0255 0.4017 0.6546
H26 H 0.0332 0.4732 0.7021
C25 C 0.28725(11) 0.50260(16) 0.35826(10)
H27 H 0.2555 0.4635 0.3680
H28 H 0.3175 0.4709 0.3393
H29 H 0.2697 0.5473 0.3335
C26 C 0.31688(10) 0.54310(14) 0.41085(9)
C27 C 0.37927(10) 0.54858(15) 0.41633(10)
H30 H 0.3995 0.5231 0.3874
C28 C 0.41701(10) 0.58806(14) 0.46029(9)
C29 C 0.48206(10) 0.60148(17) 0.44869(10)
H31 H 0.4964 0.6560 0.4648
H32 H 0.4851 0.6023 0.4084
H33 H 0.5068 0.5549 0.4654
C30 C 0.42527(10) 0.65607(14) 0.55091(9)
C31 C 0.48438(10) 0.64250(15) 0.57357(10)
H34 H 0.5087 0.6024 0.5562
C32 C 0.50900(11) 0.68574(16) 0.62075(10)
C33 C 0.47320(11) 0.74434(15) 0.64551(10)
H35 H 0.4895 0.7758 0.6769
C34 C 0.41388(10) 0.75772(14) 0.62504(9)
H36 H 0.3903 0.7979 0.6432
C35 C 0.38754(10) 0.71373(14) 0.57834(9)
C36 C 0.57290(12) 0.6675(2) 0.64431(13)
H37 H 0.5921 0.7207 0.6577
H38 H 0.5957 0.6429 0.6152
H39 H 0.5722 0.6271 0.6753
C37 C 0.47166(11) 0.87061(17) 0.50162(10)
H40 H 0.4707 0.9321 0.5090
H41 H 0.5096 0.8558 0.4862
H42 H 0.4685 0.8393 0.5364
C38 C 0.41923(10) 0.84682(15) 0.46027(10)
C39 C 0.43215(10) 0.80907(16) 0.41053(10)
H43 H 0.4737 0.8043 0.4047
C40 C 0.39082(11) 0.77648(15) 0.36691(9)
C41 C 0.41930(12) 0.72845(19) 0.32092(11)
H44 H 0.3925 0.6820 0.3072
H45 H 0.4581 0.7047 0.3356
H46 H 0.4256 0.7677 0.2903
C42 C 0.28734(10) 0.75672(14) 0.32975(9)
C43 C 0.28887(12) 0.75556(15) 0.27187(10)
H47 H 0.3249 0.7721 0.2564
C44 C 0.23921(13) 0.73091(16) 0.23590(10)
C45 C 0.18750(12) 0.70662(16) 0.25931(11)
H48 H 0.1537 0.6879 0.2358
C46 C 0.18370(11) 0.70895(15) 0.31642(10)
H49 H 0.1474 0.6914 0.3310
C47 C 0.23201(10) 0.73658(14) 0.35319(9)
C48 C 0.24209(16) 0.7350(2) 0.17348(11)
H50 H 0.2207 0.6859 0.1561
H51 H 0.2843 0.7338 0.1648
H52 H 0.2231 0.7879 0.1591
C49 C 0.11808(13) 0.50345(18) 0.33645(11)
H53 H 0.1560 0.5191 0.3203
H54 H 0.0851 0.5393 0.3190
C50 C 0.1043(2) 0.4105(2) 0.32703(15)
H55 H 0.0683 0.4031 0.3004
H56 H 0.1388 0.3808 0.3123
C51 C 0.0928(3) 0.3768(3) 0.38322(18)
H57 H 0.0548 0.3439 0.3813
H58 H 0.1262 0.3393 0.3979
C52 C 0.08886(19) 0.4506(2) 0.41782(14)
H59 H 0.0464 0.4693 0.4180
H60 H 0.1046 0.4376 0.4565
C53 C 0.39642(14) 0.98006(19) 0.66486(11)
H61 H 0.4353 0.9498 0.6725
H62 H 0.3658 0.9520 0.6861
C54 C 0.4029(2) 1.0731(2) 0.68092(14)
H63 H 0.3725 1.0896 0.7066
H64 H 0.4436 1.0849 0.6991
C55 C 0.3928(2) 1.1203(2) 0.62642(17)
H65 H 0.3515 1.1439 0.6213
H66 H 0.4222 1.1673 0.6243
C56 C 0.4019(2) 1.0540(2) 0.58481(14)
H67 H 0.3803 1.0685 0.5485
H68 H 0.4453 1.0469 0.5797
C57 C 0.16695(16) 1.03600(19) 0.37569(12)
H69 H 0.2027 1.0736 0.3805
H70 H 0.1459 1.0374 0.4102
C58 C 0.12549(17) 1.0643(2) 0.32661(13)
H71 H 0.0829 1.0545 0.3335
H72 H 0.1312 1.1257 0.3189
C59 C 0.1423(3) 1.0123(3) 0.28040(14)
H73 H 0.1639 1.0475 0.2544
H74 H 0.1058 0.9883 0.2598
C60 C 0.18170(14) 0.94281(19) 0.30368(11)
H75 H 0.1650 0.8866 0.2916
H76 H 0.2225 0.9484 0.2907
C61 C 0.03755(17) 0.7961(3) 0.30169(18)
H77 H 0.0299 0.7343 0.3062
H78 H 0.0673 0.8034 0.2738
C62 C -0.02031(18) 0.8422(4) 0.28338(18)
H79 H -0.0139 0.8832 0.2532
H80 H -0.0520 0.8012 0.2697
C63 C -0.03749(15) 0.8864(3) 0.33209(14)
H81 H -0.0787 0.8702 0.3405
H82 H -0.0358 0.9490 0.3270
C64 C 0.0074(2) 0.8582(5) 0.37646(15)
H83 H 0.0168 0.9055 0.4030
H84 H -0.0089 0.8100 0.3971
C65 C 0.37253(14) 1.05947(19) 0.40702(13)
H85 H 0.3870 1.0271 0.4408
H86 H 0.3553 1.1142 0.4186
C66 C 0.42241(18) 1.0751(3) 0.37208(17)
H87 H 0.4218 1.1351 0.3593
H88 H 0.4615 1.0641 0.3936
C67 C 0.41478(15) 1.0179(3) 0.32464(14)
H89 H 0.4393 0.9656 0.3313
H90 H 0.4265 1.0463 0.2905
C68 C 0.34893(14) 0.99737(19) 0.31974(11)
H91 H 0.3270 1.0349 0.2918
H92 H 0.3423 0.9373 0.3081
C69 C 0.28259(12) 0.48891(17) 0.66658(11)
H93 H 0.2508 0.4672 0.6389
H94 H 0.2634 0.5096 0.6996
C70 C 0.32781(13) 0.41976(18) 0.68282(12)
H95 H 0.3289 0.3767 0.6529
H96 H 0.3181 0.3910 0.7175
C71 C 0.38775(14) 0.4674(2) 0.69150(14)
H97 H 0.4040 0.4644 0.7310
H98 H 0.4177 0.4427 0.6680
C72 C 0.37385(13) 0.55633(19) 0.67514(14)
H99 H 0.3723 0.5926 0.7086
H100 H 0.4053 0.5791 0.6525
C73 C 0.24074(13) 0.69171(18) 0.76540(11)
H101 H 0.2304 0.6303 0.7637
H102 H 0.2043 0.7253 0.7534
C74 C 0.26472(14) 0.71649(18) 0.82372(11)
H103 H 0.2816 0.6663 0.8445
H104 H 0.2325 0.7418 0.8443
C75 C 0.31357(14) 0.7816(2) 0.81520(12)
H105 H 0.3036 0.8376 0.8310
H106 H 0.3530 0.7623 0.8329
C76 C 0.31480(15) 0.7871(2) 0.75286(12)
H107 H 0.2916 0.8372 0.7381
H108 H 0.3568 0.7924 0.7426
C77 C 0.26476(11) 0.37057(16) 0.49788(11)
H109 H 0.2425 0.4115 0.4726
H110 H 0.2353 0.3373 0.5176
C78 C 0.30270(13) 0.31162(17) 0.46532(11)
H111 H 0.2816 0.2571 0.4564
H112 H 0.3131 0.3387 0.4303
C79 C 0.35825(13) 0.29784(18) 0.50506(12)
H113 H 0.3515 0.2534 0.5330
H114 H 0.3936 0.2821 0.4850
C80 C 0.36585(11) 0.38499(18) 0.53149(11)
H115 H 0.3889 0.3810 0.5683
H116 H 0.3873 0.4239 0.5075
loop_
_geom_bond_atom_site_label_1
_geom_bond_atom_site_label_2
_geom_bond_site_symmetry_1
_geom_bond_site_symmetry_2
Na1 O1 1_555 1_555
Na2 O1 1_555 1_555
Na3 O5 1_555 1_555
Na4 O2 1_555 1_555
Na5 O1 1_555 1_555
Na6 O2 1_555 1_555
Na7 O3 1_555 1_555
Na8 O4 1_555 1_555
O1 C2 1_555 1_555
O2 Na1 1_555 1_555
O3 Na1 1_555 1_555
O4 Na1 1_555 1_555
O5 Na2 1_555 1_555
O6 Na3 1_555 1_555
O7 Na3 1_555 1_555
O8 Na2 1_555 1_555
O9 Na2 1_555 1_555
O10 Na4 1_555 1_555
O11 Na5 1_555 1_555
O12 Na5 1_555 1_555
O13 Na6 1_555 1_555
O14 Na7 1_555 1_555
O15 Na7 1_555 1_555
O16 Na8 1_555 1_555
N1 Na1 1_555 1_555
N2 Na1 1_555 1_555
N3 Na3 1_555 1_555
N4 Na3 1_555 1_555
C1 H1 1_555 1_555
H2 C1 1_555 1_555
H3 C1 1_555 1_555
C2 C1 1_555 1_555
C3 C2 1_555 1_555
H4 C3 1_555 1_555
C4 N1 1_555 1_555
C5 C4 1_555 1_555
H5 C5 1_555 1_555
H6 C5 1_555 1_555
H7 C5 1_555 1_555
C6 N1 1_555 1_555
C7 C6 1_555 1_555
H8 C7 1_555 1_555
C8 C7 1_555 1_555
C9 C8 1_555 1_555
H9 C9 1_555 1_555
C10 C9 1_555 1_555
H10 C10 1_555 1_555
C11 O2 1_555 1_555
C12 C8 1_555 1_555
H11 C12 1_555 1_555
H12 C12 1_555 1_555
H13 C12 1_555 1_555
C13 H14 1_555 1_555
H15 C13 1_555 1_555
H16 C13 1_555 1_555
C14 O3 1_555 1_555
C15 C14 1_555 1_555
H17 C15 1_555 1_555
C16 N2 1_555 1_555
C17 C16 1_555 1_555
H18 C17 1_555 1_555
H19 C17 1_555 1_555
H20 C17 1_555 1_555
C18 N2 1_555 1_555
C19 C18 1_555 1_555
H21 C19 1_555 1_555
C20 C19 1_555 1_555
C21 C20 1_555 1_555
H22 C21 1_555 1_555
C22 C21 1_555 1_555
H23 C22 1_555 1_555
C23 O4 1_555 1_555
C24 C20 1_555 1_555
H24 C24 1_555 1_555
H25 C24 1_555 1_555
H26 C24 1_555 1_555
C25 H27 1_555 1_555
H28 C25 1_555 1_555
H29 C25 1_555 1_555
C26 O5 1_555 1_555
C27 C26 1_555 1_555
H30 C27 1_555 1_555
C28 N3 1_555 1_555
C29 C28 1_555 1_555
H31 C29 1_555 1_555
H32 C29 1_555 1_555
H33 C29 1_555 1_555
C30 N3 1_555 1_555
C31 C30 1_555 1_555
H34 C31 1_555 1_555
C32 C31 1_555 1_555
C33 C32 1_555 1_555
H35 C33 1_555 1_555
C34 C33 1_555 1_555
H36 C34 1_555 1_555
C35 O6 1_555 1_555
C36 C32 1_555 1_555
H37 C36 1_555 1_555
H38 C36 1_555 1_555
H39 C36 1_555 1_555
C37 H40 1_555 1_555
H41 C37 1_555 1_555
H42 C37 1_555 1_555
C38 O7 1_555 1_555
C39 C38 1_555 1_555
H43 C39 1_555 1_555
C40 N4 1_555 1_555
C41 C40 1_555 1_555
H44 C41 1_555 1_555
H45 C41 1_555 1_555
H46 C41 1_555 1_555
C42 N4 1_555 1_555
C43 C42 1_555 1_555
H47 C43 1_555 1_555
C44 C43 1_555 1_555
C45 C44 1_555 1_555
H48 C45 1_555 1_555
C46 C45 1_555 1_555
H49 C46 1_555 1_555
C47 O8 1_555 1_555
C48 C44 1_555 1_555
H50 C48 1_555 1_555
H51 C48 1_555 1_555
H52 C48 1_555 1_555
C49 O9 1_555 1_555
H53 C49 1_555 1_555
H54 C49 1_555 1_555
C50 C49 1_555 1_555
H55 C50 1_555 1_555
H56 C50 1_555 1_555
C51 C50 1_555 1_555
H57 C51 1_555 1_555
H58 C51 1_555 1_555
C52 O9 1_555 1_555
H59 C52 1_555 1_555
H60 C52 1_555 1_555
C53 O10 1_555 1_555
H61 C53 1_555 1_555
H62 C53 1_555 1_555
C54 C53 1_555 1_555
H63 C54 1_555 1_555
H64 C54 1_555 1_555
C55 C54 1_555 1_555
H65 C55 1_555 1_555
H66 C55 1_555 1_555
C56 O10 1_555 1_555
H67 C56 1_555 1_555
H68 C56 1_555 1_555
C57 O11 1_555 1_555
H69 C57 1_555 1_555
H70 C57 1_555 1_555
C58 C57 1_555 1_555
H71 C58 1_555 1_555
H72 C58 1_555 1_555
C59 C58 1_555 1_555
H73 C59 1_555 1_555
H74 C59 1_555 1_555
C60 O11 1_555 1_555
H75 C60 1_555 1_555
H76 C60 1_555 1_555
C61 O12 1_555 1_555
H77 C61 1_555 1_555
H78 C61 1_555 1_555
C62 C61 1_555 1_555
H79 C62 1_555 1_555
H80 C62 1_555 1_555
C63 C62 1_555 1_555
H81 C63 1_555 1_555
H82 C63 1_555 1_555
C64 O12 1_555 1_555
H83 C64 1_555 1_555
H84 C64 1_555 1_555
C65 O13 1_555 1_555
H85 C65 1_555 1_555
H86 C65 1_555 1_555
C66 C65 1_555 1_555
H87 C66 1_555 1_555
H88 C66 1_555 1_555
C67 C66 1_555 1_555
H89 C67 1_555 1_555
H90 C67 1_555 1_555
C68 O13 1_555 1_555
H91 C68 1_555 1_555
H92 C68 1_555 1_555
C69 O14 1_555 1_555
H93 C69 1_555 1_555
H94 C69 1_555 1_555
C70 C69 1_555 1_555
H95 C70 1_555 1_555
H96 C70 1_555 1_555
C71 C70 1_555 1_555
H97 C71 1_555 1_555
H98 C71 1_555 1_555
C72 O14 1_555 1_555
H99 C72 1_555 1_555
H100 C72 1_555 1_555
C73 O15 1_555 1_555
H101 C73 1_555 1_555
H102 C73 1_555 1_555
C74 C73 1_555 1_555
H103 C74 1_555 1_555
H104 C74 1_555 1_555
C75 C74 1_555 1_555
H105 C75 1_555 1_555
H106 C75 1_555 1_555
C76 O15 1_555 1_555
H107 C76 1_555 1_555
H108 C76 1_555 1_555
C77 O16 1_555 1_555
H109 C77 1_555 1_555
H110 C77 1_555 1_555
C78 C77 1_555 1_555
H111 C78 1_555 1_555
H112 C78 1_555 1_555
C79 C78 1_555 1_555
H113 C79 1_555 1_555
H114 C79 1_555 1_555
C80 O16 1_555 1_555
H115 C80 1_555 1_555
H116 C80 1_555 1_555
Na2 O4 1_555 1_555
Na3 O8 1_555 1_555
Na4 O3 1_555 1_555
Na4 O6 1_555 1_555
Na4 O7 1_555 1_555
Na5 O2 1_555 1_555
Na5 O8 1_555 1_555
Na5 N1 1_555 1_555
Na6 O7 1_555 1_555
Na6 O8 1_555 1_555
Na6 O11 1_555 1_555
Na6 N4 1_555 1_555
Na7 O4 1_555 1_555
Na7 O6 1_555 1_555
Na7 N2 1_555 1_555
Na8 O5 1_555 1_555
Na8 O6 1_555 1_555
Na8 O14 1_555 1_555
Na8 N3 1_555 1_555
C3 C4 1_555 1_555
C6 C11 1_555 1_555
C10 C11 1_555 1_555
C13 C14 1_555 1_555
C15 C16 1_555 1_555
C18 C23 1_555 1_555
C22 C23 1_555 1_555
C25 C26 1_555 1_555
C27 C28 1_555 1_555
C30 C35 1_555 1_555
C34 C35 1_555 1_555
C37 C38 1_555 1_555
C39 C40 1_555 1_555
C42 C47 1_555 1_555
C46 C47 1_555 1_555
C51 C52 1_555 1_555
C55 C56 1_555 1_555
C59 C60 1_555 1_555
C63 C64 1_555 1_555
C67 C68 1_555 1_555
C71 C72 1_555 1_555
C75 C76 1_555 1_555
C79 C80 1_555 1_555

#END
