
#######################################################################
#
#                 Cambridge Crystallographic Data Centre
#                                CCDC 
#
#######################################################################
#
# If this CIF has been generated from an entry in the Cambridge 
# Structural Database, then it will include bibliographic, chemical, 
# crystal, experimental, refinement or atomic coordinate data resulting 
# from the CCDC's data processing and validation procedures.
#
#######################################################################

data_BOMDAK
_chemical_formula_moiety         'C60 H78 Cl2 Mg4 O12'
_chemical_name_systematic        
hexakis(\m-phenolato)-dichloro-hexakis(tetrahydrofuran)-tetra-magnesium
_symmetry_cell_setting           monoclinic
_symmetry_space_group_name_H-M   'P 21/n'
_symmetry_Int_Tables_number      14
_space_group_name_Hall           '-P 2yn'
loop_
_symmetry_equiv_pos_site_id
_symmetry_equiv_pos_as_xyz
1 x,y,z
2 1/2-x,1/2+y,1/2-z
3 -x,-y,-z
4 1/2+x,1/2-y,1/2+z
_cell_length_a                   12.8707(7)
_cell_length_b                   19.0698(4)
_cell_length_c                   12.8991(7)
_cell_angle_alpha                90
_cell_angle_beta                 102.113(4)
_cell_angle_gamma                90
_cell_volume                     3095.49
_exptl_crystal_colour            colorless
_exptl_crystal_description       block
_cell_formula_units_Z            2
_chemical_properties_physical    'Air-sensitive, Moisture-sensitive'
loop_
_atom_site_label
_atom_site_type_symbol
_atom_site_fract_x
_atom_site_fract_y
_atom_site_fract_z
Cl1 Cl 0.44293(2) 0.263032(16) 0.76624(2)
Mg1 Mg 0.38831(2) 0.199014(17) 0.61059(2)
Mg2 Mg 0.48102(2) 0.052271(16) 0.58500(2)
O1 O 0.3989(3) 0.28236(16) 0.4999(2)
C1 C 0.3528(5) 0.2791(3) 0.3902(4)
H1 H 0.2768 0.2903 0.3770
H2 H 0.3618 0.2325 0.3616
C2 C 0.4130(6) 0.3337(3) 0.3415(4)
H3 H 0.3715 0.3504 0.2734
H4 H 0.4813 0.3155 0.3312
C3 C 0.4280(4) 0.3911(2) 0.4252(3)
H5 H 0.4852 0.4235 0.4177
H6 H 0.3624 0.4176 0.4230
C4 C 0.4572(4) 0.3481(2) 0.5236(4)
H7 H 0.5340 0.3394 0.5412
H8 H 0.4367 0.3720 0.5834
O2 O 0.22282(16) 0.22351(11) 0.56941(19)
C5 C 0.1704(3) 0.27644(19) 0.6005(4)
H9 H 0.1556 0.3113 0.5434
H10 H 0.2159 0.2988 0.6621
C6 C 0.0720(3) 0.2567(3) 0.6281(4)
H11 H 0.0146 0.2883 0.5948
H12 H 0.0784 0.2582 0.7051
C7 C 0.0500(3) 0.1819(3) 0.5866(4)
H13 H 0.0545 0.1487 0.6454
H14 H -0.0208 0.1785 0.5405
C8 C 0.1350(3) 0.16748(19) 0.5255(3)
H15 H 0.1078 0.1736 0.4492
H16 H 0.1628 0.1198 0.5388
O3 O 0.36047(5) 0.09850(4) 0.63757(5)
O4 O 0.51084(5) 0.15233(4) 0.56355(5)
O5 O 0.5420(2) 0.01899(15) 0.7376(2)
C9 C 0.6117(4) 0.0641(3) 0.8094(3)
H17 H 0.6800 0.0675 0.7877
H18 H 0.5808 0.1112 0.8066
C10 C 0.6288(4) 0.0375(3) 0.9177(4)
H19 H 0.6108 0.0729 0.9662
H20 H 0.7026 0.0226 0.9432
C11 C 0.5529(7) -0.0247(3) 0.9066(4)
H21 H 0.5861 -0.0640 0.9502
H22 H 0.4876 -0.0116 0.9296
C12 C 0.5280(5) -0.0450(3) 0.7912(4)
H23 H 0.5769 -0.0813 0.7767
H24 H 0.4549 -0.0622 0.7697
O6 O 0.59944(5) -0.00056(4) 0.54020(5)
C13 C 0.30199(7) 0.06867(5) 0.70009(8)
C14 C 0.28138(9) 0.10386(6) 0.78842(8)
H25 H 0.3096 0.1489 0.8051
C15 C 0.21984(10) 0.07300(8) 0.85155(10)
H26 H 0.2059 0.0976 0.9103
C16 C 0.17883(10) 0.00717(8) 0.82979(10)
H27 H 0.1371 -0.0134 0.8733
C17 C 0.19912(10) -0.02869(7) 0.74374(11)
H28 H 0.1716 -0.0741 0.7288
C18 C 0.26001(9) 0.00169(6) 0.67885(10)
H29 H 0.2730 -0.0232 0.6200
C19 C 0.59672(7) 0.18288(5) 0.53911(8)
C20 C 0.62466(10) 0.17020(7) 0.44259(9)
H30 H 0.5831 0.1398 0.3933
C21 C 0.71356(11) 0.20202(8) 0.41826(11)
H31 H 0.7317 0.1928 0.3527
C22 C 0.77500(10) 0.24655(8) 0.48838(12)
H32 H 0.8343 0.2687 0.4709
C23 C 0.74907(11) 0.25853(8) 0.58427(13)
H33 H 0.7918 0.2884 0.6335
C24 C 0.66066(9) 0.22717(7) 0.61002(10)
H34 H 0.6440 0.2361 0.6763
C25 C 0.69672(7) -0.01740(5) 0.59739(8)
C26 C 0.71578(9) -0.08287(7) 0.64347(10)
H35 H 0.6602 -0.1157 0.6355
C27 C 0.81493(11) -0.10084(8) 0.70090(12)
H36 H 0.8259 -0.1455 0.7322
C28 C 0.89766(10) -0.05441(8) 0.71287(11)
H37 H 0.9655 -0.0670 0.7514
C29 C 0.87992(10) 0.01074(8) 0.66771(12)
H38 H 0.9363 0.0430 0.6755
C30 C 0.78035(9) 0.02991(6) 0.61080(10)
H39 H 0.7695 0.0751 0.5812
Cl1B Cl 0.55707(2) -0.263032(16) 0.23376(2)
Mg1B Mg 0.61169(2) -0.199014(17) 0.38941(2)
Mg2B Mg 0.51898(2) -0.052271(16) 0.41500(2)
O1B O 0.6011(3) -0.28236(16) 0.5001(2)
C1B C 0.6472(5) -0.2791(3) 0.6098(4)
H1B H 0.7232 -0.2903 0.6230
H2B H 0.6382 -0.2325 0.6384
C2B C 0.5870(6) -0.3337(3) 0.6585(4)
H3B H 0.6285 -0.3504 0.7266
H4B H 0.5187 -0.3155 0.6688
C3B C 0.5720(4) -0.3911(2) 0.5748(3)
H5B H 0.5148 -0.4235 0.5823
H6B H 0.6376 -0.4176 0.5770
C4B C 0.5428(4) -0.3481(2) 0.4764(4)
H7B H 0.4660 -0.3394 0.4588
H8B H 0.5633 -0.3720 0.4166
O2B O 0.77718(16) -0.22351(11) 0.43059(19)
C5B C 0.8296(3) -0.27644(19) 0.3995(4)
H9B H 0.8444 -0.3113 0.4566
H10B H 0.7841 -0.2988 0.3379
C6B C 0.9280(3) -0.2567(3) 0.3719(4)
H11B H 0.9854 -0.2883 0.4052
H12B H 0.9216 -0.2582 0.2949
C7B C 0.9500(3) -0.1819(3) 0.4134(4)
H13B H 0.9455 -0.1487 0.3546
H14B H 1.0208 -0.1785 0.4595
C8B C 0.8650(3) -0.16748(19) 0.4745(3)
H15B H 0.8922 -0.1736 0.5508
H16B H 0.8372 -0.1198 0.4612
O3B O 0.63953(5) -0.09850(4) 0.36243(5)
O4B O 0.48916(5) -0.15233(4) 0.43645(5)
O5B O 0.4580(2) -0.01899(15) 0.2624(2)
C9B C 0.3883(4) -0.0641(3) 0.1906(3)
H17B H 0.3200 -0.0675 0.2123
H18B H 0.4192 -0.1112 0.1934
C10B C 0.3712(4) -0.0375(3) 0.0823(4)
H19B H 0.3892 -0.0729 0.0338
H20B H 0.2974 -0.0226 0.0568
C11B C 0.4471(7) 0.0247(3) 0.0934(4)
H21B H 0.4139 0.0640 0.0498
H22B H 0.5124 0.0116 0.0704
C12B C 0.4720(5) 0.0450(3) 0.2088(4)
H23B H 0.4231 0.0813 0.2233
H24B H 0.5451 0.0622 0.2303
O6B O 0.40056(5) 0.00056(4) 0.45980(5)
C13B C 0.69801(7) -0.06867(5) 0.29991(8)
C14B C 0.71862(9) -0.10386(6) 0.21158(8)
H25B H 0.6904 -0.1489 0.1949
C15B C 0.78016(10) -0.07300(8) 0.14845(10)
H26B H 0.7941 -0.0976 0.0897
C16B C 0.82117(10) -0.00717(8) 0.17021(10)
H27B H 0.8629 0.0134 0.1267
C17B C 0.80088(10) 0.02869(7) 0.25626(11)
H28B H 0.8284 0.0741 0.2712
C18B C 0.73999(9) -0.00169(6) 0.32115(10)
H29B H 0.7270 0.0232 0.3800
C19B C 0.40328(7) -0.18288(5) 0.46089(8)
C20B C 0.37534(10) -0.17020(7) 0.55741(9)
H30B H 0.4169 -0.1398 0.6067
C21B C 0.28644(11) -0.20202(8) 0.58174(11)
H31B H 0.2683 -0.1928 0.6473
C22B C 0.22500(10) -0.24655(8) 0.51162(12)
H32B H 0.1657 -0.2687 0.5291
C23B C 0.25093(11) -0.25853(8) 0.41573(13)
H33B H 0.2082 -0.2884 0.3665
C24B C 0.33934(9) -0.22717(7) 0.38998(10)
H34B H 0.3560 -0.2361 0.3237
C25B C 0.30328(7) 0.01740(5) 0.40261(8)
C26B C 0.28422(9) 0.08287(7) 0.35653(10)
H35B H 0.3398 0.1157 0.3645
C27B C 0.18507(11) 0.10084(8) 0.29910(12)
H36B H 0.1741 0.1455 0.2678
C28B C 0.10234(10) 0.05441(8) 0.28713(11)
H37B H 0.0345 0.0670 0.2486
C29B C 0.12008(10) -0.01074(8) 0.33229(12)
H38B H 0.0637 -0.0430 0.3245
C30B C 0.21965(9) -0.02991(6) 0.38920(10)
H39B H 0.2305 -0.0751 0.4188
O7? O 0.3989(2) 0.28140(15) 0.5060(2)
C31? C 0.3762(4) 0.2689(2) 0.3893(3)
H40? H 0.4245 0.2333 0.3714
H41? H 0.3030 0.2527 0.3646
C32? C 0.3926(5) 0.3376(3) 0.3387(4)
H42? H 0.3281 0.3663 0.3253
H43? H 0.4177 0.3313 0.2726
C33? C 0.4780(4) 0.3677(3) 0.4264(4)
H44? H 0.4862 0.4183 0.4177
H45? H 0.5466 0.3446 0.4296
C34? C 0.4335(5) 0.3513(3) 0.5231(4)
H46? H 0.4883 0.3556 0.5882
H47? H 0.3742 0.3826 0.5278
O8? O 0.3953(6) 0.2823(3) 0.5086(6)
C35? C 0.3889(7) 0.2786(4) 0.3980(7)
H48? H 0.3153 0.2857 0.3599
H49? H 0.4125 0.2324 0.3788
C36? C 0.4593(8) 0.3350(4) 0.3692(6)
H50? H 0.4326 0.3520 0.2968
H51? H 0.5324 0.3183 0.3758
C37? C 0.4523(8) 0.3913(4) 0.4505(6)
H52? H 0.5148 0.4220 0.4625
H53? H 0.3880 0.4198 0.4289
C38? C 0.4484(10) 0.3487(4) 0.5464(7)
H54? H 0.5204 0.3398 0.5872
H55? H 0.4084 0.3735 0.5919
O9? O 0.2234(2) 0.20954(18) 0.5675(3)
C39? C 0.1851(4) 0.2862(2) 0.5825(5)
H56? H 0.2290 0.3082 0.6454
H57? H 0.1874 0.3152 0.5203
C40? C 0.0722(4) 0.2764(3) 0.5959(5)
H58? H 0.0214 0.2941 0.5340
H59? H 0.0605 0.3006 0.6595
C41? C 0.0616(3) 0.1977(3) 0.6066(4)
H60? H 0.0821 0.1829 0.6809
H61? H -0.0112 0.1821 0.5773
C42? C 0.1346(4) 0.1715(3) 0.5454(5)
H62? H 0.1508 0.1222 0.5628
H63? H 0.1026 0.1748 0.4696
O10? O 0.2376(5) 0.2192(3) 0.5619(7)
C43? C 0.1931(6) 0.2966(4) 0.5572(8)
H64? H 0.2342 0.3257 0.6140
H65? H 0.1931 0.3186 0.4886
C44? C 0.0813(7) 0.2847(5) 0.5729(10)
H66? H 0.0297 0.3074 0.5161
H67? H 0.0730 0.3042 0.6410
C45? C 0.0638(6) 0.2058(5) 0.5707(9)
H68? H 0.0671 0.1871 0.6421
H69? H -0.0047 0.1932 0.5252
C46? C 0.1514(6) 0.1812(5) 0.5270(9)
H70? H 0.1661 0.1320 0.5469
H71? H 0.1323 0.1838 0.4494
O11? O 0.5370(4) 0.0302(2) 0.7437(3)
C47? C 0.5836(6) 0.0837(3) 0.8172(4)
H72? H 0.5380 0.1253 0.8116
H73? H 0.6540 0.0974 0.8064
C48? C 0.5908(7) 0.0461(3) 0.9240(4)
H74? H 0.5242 0.0501 0.9489
H75? H 0.6492 0.0648 0.9784
C49? C 0.6129(4) -0.0323(3) 0.8947(4)
H76? H 0.6814 -0.0386 0.8741
H77? H 0.6048 -0.0661 0.9497
C50? C 0.5221(6) -0.0313(3) 0.8041(5)
H78? H 0.4550 -0.0283 0.8285
H79? H 0.5211 -0.0737 0.7611
O12? O 0.5457(4) 0.0198(2) 0.7459(3)
C51? C 0.5884(6) 0.0717(3) 0.8247(5)
H80? H 0.5347 0.0892 0.8620
H81? H 0.6207 0.1112 0.7943
C52? C 0.6717(4) 0.0259(3) 0.8959(4)
H82? H 0.6845 0.0431 0.9691
H83? H 0.7388 0.0276 0.8716
C53? C 0.6306(5) -0.0482(3) 0.8907(4)
H84? H 0.6839 -0.0816 0.8768
H85? H 0.6088 -0.0614 0.9564
C54? C 0.5408(6) -0.0444(3) 0.8030(5)
H86? H 0.4747 -0.0460 0.8292
H87? H 0.5417 -0.0845 0.7556
loop_
_geom_bond_atom_site_label_1
_geom_bond_atom_site_label_2
_geom_bond_site_symmetry_1
_geom_bond_site_symmetry_2
Cl1 Mg1 1_555 1_555
Mg1 O1 1_555 1_555
Mg2 O3 1_555 1_555
O1 C1 1_555 1_555
C1 H1 1_555 1_555
H2 C1 1_555 1_555
C2 C1 1_555 1_555
H3 C2 1_555 1_555
H4 C2 1_555 1_555
C3 C2 1_555 1_555
H5 C3 1_555 1_555
H6 C3 1_555 1_555
C4 O1 1_555 1_555
H7 C4 1_555 1_555
H8 C4 1_555 1_555
O2 Mg1 1_555 1_555
C5 O2 1_555 1_555
H9 C5 1_555 1_555
H10 C5 1_555 1_555
C6 C5 1_555 1_555
H11 C6 1_555 1_555
H12 C6 1_555 1_555
C7 C6 1_555 1_555
H13 C7 1_555 1_555
H14 C7 1_555 1_555
C8 O2 1_555 1_555
H15 C8 1_555 1_555
H16 C8 1_555 1_555
O3 Mg1 1_555 1_555
O4 Mg1 1_555 1_555
O5 Mg2 1_555 1_555
C9 O5 1_555 1_555
H17 C9 1_555 1_555
H18 C9 1_555 1_555
C10 C9 1_555 1_555
H19 C10 1_555 1_555
H20 C10 1_555 1_555
C11 C10 1_555 1_555
H21 C11 1_555 1_555
H22 C11 1_555 1_555
C12 O5 1_555 1_555
H23 C12 1_555 1_555
H24 C12 1_555 1_555
O6 Mg2 1_555 1_555
C13 O3 1_555 1_555
C14 C13 1_555 1_555
H25 C14 1_555 1_555
C15 C14 1_555 1_555
H26 C15 1_555 1_555
C16 C15 1_555 1_555
H27 C16 1_555 1_555
C17 C16 1_555 1_555
H28 C17 1_555 1_555
C18 C13 1_555 1_555
H29 C18 1_555 1_555
C19 O4 1_555 1_555
C20 C19 1_555 1_555
H30 C20 1_555 1_555
C21 C20 1_555 1_555
H31 C21 1_555 1_555
C22 C21 1_555 1_555
H32 C22 1_555 1_555
C23 C22 1_555 1_555
H33 C23 1_555 1_555
C24 C19 1_555 1_555
H34 C24 1_555 1_555
C25 O6 1_555 1_555
C26 C25 1_555 1_555
H35 C26 1_555 1_555
C27 C26 1_555 1_555
H36 C27 1_555 1_555
C28 C27 1_555 1_555
H37 C28 1_555 1_555
C29 C28 1_555 1_555
H38 C29 1_555 1_555
C30 C25 1_555 1_555
H39 C30 1_555 1_555
Cl1B Mg1B 1_555 1_555
Mg1B O1B 1_555 1_555
Mg2B O6 1_555 1_555
O1B C1B 1_555 1_555
C1B H1B 1_555 1_555
H2B C1B 1_555 1_555
C2B C1B 1_555 1_555
H3B C2B 1_555 1_555
H4B C2B 1_555 1_555
C3B C2B 1_555 1_555
H5B C3B 1_555 1_555
H6B C3B 1_555 1_555
C4B O1B 1_555 1_555
H7B C4B 1_555 1_555
H8B C4B 1_555 1_555
O2B Mg1B 1_555 1_555
C5B O2B 1_555 1_555
H9B C5B 1_555 1_555
H10B C5B 1_555 1_555
C6B C5B 1_555 1_555
H11B C6B 1_555 1_555
H12B C6B 1_555 1_555
C7B C6B 1_555 1_555
H13B C7B 1_555 1_555
H14B C7B 1_555 1_555
C8B O2B 1_555 1_555
H15B C8B 1_555 1_555
H16B C8B 1_555 1_555
O3B Mg1B 1_555 1_555
O4B Mg1B 1_555 1_555
O5B Mg2B 1_555 1_555
C9B O5B 1_555 1_555
H17B C9B 1_555 1_555
H18B C9B 1_555 1_555
C10B C9B 1_555 1_555
H19B C10B 1_555 1_555
H20B C10B 1_555 1_555
C11B C10B 1_555 1_555
H21B C11B 1_555 1_555
H22B C11B 1_555 1_555
C12B O5B 1_555 1_555
H23B C12B 1_555 1_555
H24B C12B 1_555 1_555
O6B Mg2 1_555 1_555
C13B O3B 1_555 1_555
C14B C13B 1_555 1_555
H25B C14B 1_555 1_555
C15B C14B 1_555 1_555
H26B C15B 1_555 1_555
C16B C15B 1_555 1_555
H27B C16B 1_555 1_555
C17B C16B 1_555 1_555
H28B C17B 1_555 1_555
C18B C13B 1_555 1_555
H29B C18B 1_555 1_555
C19B O4B 1_555 1_555
C20B C19B 1_555 1_555
H30B C20B 1_555 1_555
C21B C20B 1_555 1_555
H31B C21B 1_555 1_555
C22B C21B 1_555 1_555
H32B C22B 1_555 1_555
C23B C22B 1_555 1_555
H33B C23B 1_555 1_555
C24B C19B 1_555 1_555
H34B C24B 1_555 1_555
C25B O6B 1_555 1_555
C26B C25B 1_555 1_555
H35B C26B 1_555 1_555
C27B C26B 1_555 1_555
H36B C27B 1_555 1_555
C28B C27B 1_555 1_555
H37B C28B 1_555 1_555
C29B C28B 1_555 1_555
H38B C29B 1_555 1_555
C30B C25B 1_555 1_555
H39B C30B 1_555 1_555
Mg2 O4 1_555 1_555
C3 C4 1_555 1_555
C7 C8 1_555 1_555
C11 C12 1_555 1_555
C17 C18 1_555 1_555
C23 C24 1_555 1_555
C29 C30 1_555 1_555
Mg2B O3B 1_555 1_555
Mg2B O4B 1_555 1_555
Mg2B O6B 1_555 1_555
C3B C4B 1_555 1_555
C7B C8B 1_555 1_555
C11B C12B 1_555 1_555
C17B C18B 1_555 1_555
C23B C24B 1_555 1_555
C29B C30B 1_555 1_555

#END
