
#######################################################################
#
#                 Cambridge Crystallographic Data Centre
#                                CCDC 
#
#######################################################################
#
# If this CIF has been generated from an entry in the Cambridge 
# Structural Database, then it will include bibliographic, chemical, 
# crystal, experimental, refinement or atomic coordinate data resulting 
# from the CCDC's data processing and validation procedures.
#
#######################################################################

data_BOMGAN
_chemical_formula_moiety         'C16 H12 Br1 N3 O1'
_chemical_name_systematic        
1-(5-(4-bromophenyl)-1-phenyl-1H-1,2,3-triazol-4-yl)ethanone
_symmetry_cell_setting           monoclinic
_symmetry_space_group_name_H-M   'P 21/c'
_symmetry_Int_Tables_number      14
_space_group_name_Hall           '-P 2ybc'
loop_
_symmetry_equiv_pos_site_id
_symmetry_equiv_pos_as_xyz
1 x,y,z
2 -x,1/2+y,1/2-z
3 -x,-y,-z
4 x,1/2-y,1/2+z
_cell_length_a                   8.3830(11)
_cell_length_b                   15.875(2)
_cell_length_c                   11.3654(15)
_cell_angle_alpha                90
_cell_angle_beta                 108.243(2)
_cell_angle_gamma                90
_cell_volume                     1436.49
_exptl_crystal_colour            colorless
_exptl_crystal_description       block
_cell_formula_units_Z            4
loop_
_atom_site_label
_atom_site_type_symbol
_atom_site_fract_x
_atom_site_fract_y
_atom_site_fract_z
Br1 Br 0.256480(18) 1.056308(9) 0.575906(12)
O1 O 0.32543(16) 1.21168(7) 0.04859(11)
N1 N 0.27855(16) 1.03449(8) -0.15206(12)
N2 N 0.27229(17) 0.95422(8) -0.13063(12)
N3 N 0.27180(16) 0.94582(7) -0.01150(11)
C1 C 0.1984(2) 1.21337(10) -0.17130(15)
H1 H 0.1934 1.2744 -0.1602
H2 H 0.0844 1.1914 -0.2088
H3 H 0.2660 1.2011 -0.2256
C2 C 0.27695(19) 1.17214(10) -0.04730(14)
C3 C 0.28483(18) 1.07900(10) -0.04744(13)
C4 C 0.28084(17) 1.02219(9) 0.04456(13)
C5 C 0.27302(18) 1.03314(9) 0.17117(13)
C6 C 0.39978(18) 1.07647(9) 0.25982(13)
H4 H 0.4898 1.1008 0.2376
C7 C 0.39489(19) 1.08412(10) 0.38054(13)
H5 H 0.4817 1.1130 0.4413
C8 C 0.26158(19) 1.04899(9) 0.41087(13)
C9 C 0.13309(19) 1.00669(10) 0.32357(14)
H6 H 0.0419 0.9835 0.3456
C10 C 0.13970(18) 0.99884(10) 0.20384(14)
H7 H 0.0526 0.9698 0.1434
C11 C 0.25501(18) 0.86347(9) 0.03594(14)
C12 C 0.35820(19) 0.84008(10) 0.15258(14)
H8 H 0.4430 0.8771 0.2002
C13 C 0.3350(2) 0.76141(10) 0.19831(15)
H9 H 0.4034 0.7447 0.2785
C14 C 0.2130(2) 0.70713(10) 0.12785(16)
H10 H 0.1981 0.6534 0.1597
C15 C 0.1122(2) 0.73121(10) 0.01042(16)
H11 H 0.0295 0.6936 -0.0381
C16 C 0.1319(2) 0.80997(10) -0.03617(15)
H12 H 0.0624 0.8270 -0.1159
loop_
_geom_bond_atom_site_label_1
_geom_bond_atom_site_label_2
_geom_bond_site_symmetry_1
_geom_bond_site_symmetry_2
Br1 C8 1_555 1_555
O1 C2 1_555 1_555
N1 N2 1_555 1_555
N2 N3 1_555 1_555
N3 C4 1_555 1_555
C1 H1 1_555 1_555
H2 C1 1_555 1_555
H3 C1 1_555 1_555
C2 C1 1_555 1_555
C3 N1 1_555 1_555
C4 C3 1_555 1_555
C5 C4 1_555 1_555
C6 C5 1_555 1_555
H4 C6 1_555 1_555
C7 C6 1_555 1_555
H5 C7 1_555 1_555
C8 C7 1_555 1_555
C9 C8 1_555 1_555
H6 C9 1_555 1_555
C10 C5 1_555 1_555
H7 C10 1_555 1_555
C11 N3 1_555 1_555
C12 C11 1_555 1_555
H8 C12 1_555 1_555
C13 C12 1_555 1_555
H9 C13 1_555 1_555
C14 C13 1_555 1_555
H10 C14 1_555 1_555
C15 C14 1_555 1_555
H11 C15 1_555 1_555
C16 C11 1_555 1_555
H12 C16 1_555 1_555
C2 C3 1_555 1_555
C9 C10 1_555 1_555
C15 C16 1_555 1_555

#END
