
#######################################################################
#
#                 Cambridge Crystallographic Data Centre
#                                CCDC 
#
#######################################################################
#
# If this CIF has been generated from an entry in the Cambridge 
# Structural Database, then it will include bibliographic, chemical, 
# crystal, experimental, refinement or atomic coordinate data resulting 
# from the CCDC's data processing and validation procedures.
#
#######################################################################

data_BOMMIB
_chemical_formula_moiety         'C10 H10 Br1 F1 O1'
_chemical_name_systematic        3-(4-bromophenyl)-2-fluorobut-3-en-1-ol
_symmetry_cell_setting           orthorhombic
_symmetry_space_group_name_H-M   'P 21 21 21'
_symmetry_Int_Tables_number      19
_space_group_name_Hall           'P 2ac 2ab'
loop_
_symmetry_equiv_pos_site_id
_symmetry_equiv_pos_as_xyz
1 x,y,z
2 1/2-x,-y,1/2+z
3 -x,1/2+y,1/2-z
4 1/2+x,1/2-y,-z
_cell_length_a                   4.9777(4)
_cell_length_b                   9.2119(7)
_cell_length_c                   21.6756(18)
_cell_angle_alpha                90
_cell_angle_beta                 90
_cell_angle_gamma                90
_cell_volume                     993.915
_exptl_crystal_colour            colorless
_exptl_crystal_description       needle
_cell_formula_units_Z            4
loop_
_atom_site_label
_atom_site_type_symbol
_atom_site_fract_x
_atom_site_fract_y
_atom_site_fract_z
C1 C 0.392(3) 0.3688(18) 0.3353(7)
C2 C 0.168(4) 0.2789(18) 0.3172(8)
H1 H 0.0870 0.2171 0.3468
C3 C 0.068(5) 0.2806(18) 0.2566(8)
H2 H -0.0735 0.2177 0.2446
C4 C 0.182(4) 0.3762(19) 0.2151(7)
C5 C 0.384(5) 0.4654(18) 0.2304(8)
H3 H 0.4556 0.5302 0.2005
C6 C 0.492(4) 0.4631(17) 0.2917(8)
H4 H 0.6348 0.5271 0.3023
C7 C 0.504(3) 0.3582(16) 0.3987(7)
C8 C 0.532(5) 0.2328(18) 0.4281(8)
H5 H 0.4795 0.1449 0.4086
H6 H 0.6046 0.2309 0.4686
C9 C 0.570(4) 0.4987(19) 0.4309(7)
H7 H 0.6736 0.5623 0.4019
C10 C 0.329(4) 0.5788(19) 0.4527(8)
H8 H 0.2021 0.5916 0.4180
H9 H 0.2373 0.5214 0.4851
O1 O 0.398(3) 0.7125(13) 0.4761(6)
H10 H 0.4490 0.7667 0.4472
F1 F 0.725(3) 0.4743(12) 0.4836(5)
Br1 Br 0.0420(5) 0.3794(2) 0.13296(8)
loop_
_geom_bond_atom_site_label_1
_geom_bond_atom_site_label_2
_geom_bond_site_symmetry_1
_geom_bond_site_symmetry_2
C1 C2 1_555 1_555
C2 H1 1_555 1_555
C3 C2 1_555 1_555
H2 C3 1_555 1_555
C4 C3 1_555 1_555
C5 C4 1_555 1_555
H3 C5 1_555 1_555
C6 C1 1_555 1_555
H4 C6 1_555 1_555
C7 C1 1_555 1_555
C8 C7 1_555 1_555
H5 C8 1_555 1_555
H6 C8 1_555 1_555
C9 C7 1_555 1_555
H7 C9 1_555 1_555
C10 C9 1_555 1_555
H8 C10 1_555 1_555
H9 C10 1_555 1_555
O1 C10 1_555 1_555
H10 O1 1_555 1_555
F1 C9 1_555 1_555
Br1 C4 1_555 1_555
C5 C6 1_555 1_555

#END
