
#######################################################################
#
#                 Cambridge Crystallographic Data Centre
#                                CCDC 
#
#######################################################################
#
# If this CIF has been generated from an entry in the Cambridge 
# Structural Database, then it will include bibliographic, chemical, 
# crystal, experimental, refinement or atomic coordinate data resulting 
# from the CCDC's data processing and validation procedures.
#
#######################################################################

data_BOMWIK
_chemical_formula_moiety         'C21 H15 F9 O4'
_chemical_name_systematic        
syn-(Z)-5-(2,2,2-Trifluoroethylidene)-2,4-bis(2-methoxyphenyl)-2,4-bis(trifluoromethyl)-1,3-dioxolane
_symmetry_cell_setting           monoclinic
_symmetry_space_group_name_H-M   'P 21/c'
_symmetry_Int_Tables_number      14
_space_group_name_Hall           '-P 2ybc'
loop_
_symmetry_equiv_pos_site_id
_symmetry_equiv_pos_as_xyz
1 x,y,z
2 -x,1/2+y,1/2-z
3 -x,-y,-z
4 x,1/2-y,1/2+z
_cell_length_a                   30.5103(5)
_cell_length_b                   8.3358(2)
_cell_length_c                   17.1260(3)
_cell_angle_alpha                90
_cell_angle_beta                 106.1870(10)
_cell_angle_gamma                90
_cell_volume                     4182.95
_exptl_crystal_colour            silver
_exptl_crystal_description       block
_chemical_melting_point          '112-113 deg.C'
_cell_formula_units_Z            8
loop_
_atom_site_label
_atom_site_type_symbol
_atom_site_fract_x
_atom_site_fract_y
_atom_site_fract_z
C1 C 0.34704(13) -0.2285(5) 0.1431(2)
H1 H 0.3635 -0.3216 0.1415
C2 C 0.36910(12) -0.0912(5) 0.1527(2)
O1 O 0.34823(7) 0.0526(3) 0.15479(15)
C3 C 0.37941(11) 0.1804(4) 0.1603(2)
O2 O 0.42351(7) 0.1103(3) 0.17661(14)
C4 C 0.42006(11) -0.0622(4) 0.1672(2)
C5 C 0.29850(16) -0.2439(7) 0.1350(4)
F1 F 0.27226(11) -0.1515(6) 0.0813(4)
F2 F 0.28663(13) -0.1873(7) 0.1966(3)
F3 F 0.28262(10) -0.3835(4) 0.1220(3)
C6 C 0.36963(11) 0.2880(4) 0.0863(2)
C7 C 0.40666(13) 0.3621(5) 0.0686(2)
H2 H 0.4361 0.3412 0.1009
C8 C 0.40021(16) 0.4667(5) 0.0033(3)
H3 H 0.4251 0.5159 -0.0081
C9 C 0.35721(17) 0.4965(6) -0.0440(3)
H4 H 0.3530 0.5644 -0.0886
C10 C 0.31979(15) 0.4284(5) -0.0271(2)
H5 H 0.2906 0.4522 -0.0595
C11 C 0.32564(12) 0.3243(5) 0.0381(2)
O3 O 0.29025(8) 0.2515(4) 0.05798(16)
C12 C 0.24539(13) 0.2714(7) 0.0049(3)
H6 H 0.2240 0.2146 0.0265
H7 H 0.2443 0.2297 -0.0478
H8 H 0.2377 0.3834 0.0005
C13 C 0.37866(13) 0.2781(5) 0.2362(2)
F4 F 0.41229(8) 0.3847(3) 0.25414(15)
F5 F 0.34012(8) 0.3603(3) 0.22413(14)
F6 F 0.38280(10) 0.1905(3) 0.30163(14)
C14 C 0.44063(11) -0.1190(4) 0.1006(2)
C15 C 0.48321(12) -0.1896(5) 0.1163(3)
H9 H 0.4996 -0.2100 0.1699
C16 C 0.50184(14) -0.2304(6) 0.0545(3)
H10 H 0.5303 -0.2796 0.0662
C17 C 0.47801(15) -0.1978(6) -0.0244(3)
H11 H 0.4909 -0.2224 -0.0661
C18 C 0.43563(14) -0.1298(5) -0.0428(2)
H12 H 0.4196 -0.1107 -0.0967
C19 C 0.41674(12) -0.0897(5) 0.0188(2)
O4 O 0.37507(8) -0.0203(3) 0.00668(14)
C20 C 0.34565(16) -0.0056(7) -0.0727(3)
H13 H 0.3179 0.0459 -0.0706
H14 H 0.3388 -0.1103 -0.0964
H15 H 0.3602 0.0575 -0.1052
C21 C 0.44450(13) -0.1294(5) 0.2515(2)
F7 F 0.42281(8) -0.0911(3) 0.30652(13)
F8 F 0.44765(8) -0.2879(3) 0.25147(14)
F9 F 0.48690(7) -0.0712(3) 0.27991(13)
C22 C 0.15408(13) 0.7138(5) 0.2985(2)
H16 H 0.1381 0.8081 0.2808
C23 C 0.13169(12) 0.5760(5) 0.2845(2)
O5 O 0.15185(7) 0.4314(3) 0.30632(14)
C24 C 0.11987(11) 0.3055(4) 0.2797(2)
O6 O 0.07637(7) 0.3790(3) 0.25231(14)
C25 C 0.08093(11) 0.5510(4) 0.2479(2)
C26 C 0.20262(17) 0.7247(7) 0.3404(4)
F10 F 0.22007(12) 0.8603(4) 0.3395(4)
F11 F 0.22811(14) 0.6394(9) 0.3057(5)
F13 F 0.2087(3) 0.739(2) 0.4206(5)
C27 C 0.12974(11) 0.1987(4) 0.2151(2)
C28 C 0.09250(13) 0.1316(5) 0.1577(2)
H17 H 0.0630 0.1554 0.1596
C29 C 0.09898(16) 0.0296(5) 0.0976(3)
H18 H 0.0740 -0.0153 0.0597
C30 C 0.14219(17) -0.0040(6) 0.0948(3)
H19 H 0.1465 -0.0706 0.0540
C31 C 0.17945(15) 0.0588(5) 0.1512(3)
H20 H 0.2087 0.0339 0.1485
C32 C 0.17363(12) 0.1595(5) 0.2122(2)
O7 O 0.20905(8) 0.2249(4) 0.26975(17)
C33 C 0.25382(13) 0.2159(8) 0.2599(3)
H21 H 0.2750 0.2664 0.3054
H22 H 0.2544 0.2698 0.2107
H23 H 0.2622 0.1055 0.2571
C34 C 0.11963(13) 0.2060(5) 0.3551(2)
F14 F 0.15738(8) 0.1188(3) 0.38147(14)
F15 F 0.08514(8) 0.1022(3) 0.33808(15)
F16 F 0.11572(11) 0.2928(3) 0.41705(14)
C35 C 0.06056(12) 0.6099(4) 0.1603(2)
C36 C 0.01829(13) 0.6818(5) 0.1332(3)
H24 H 0.0016 0.7019 0.1700
C37 C 0.00031(15) 0.7241(6) 0.0532(3)
H25 H -0.0281 0.7737 0.0365
C38 C 0.02425(15) 0.6934(6) -0.0021(3)
H26 H 0.0117 0.7191 -0.0566
C39 C 0.06670(15) 0.6245(5) 0.0231(2)
H27 H 0.0831 0.6058 -0.0143
C40 C 0.08525(13) 0.5826(5) 0.1039(2)
O8 O 0.12664(9) 0.5113(4) 0.13298(15)
C41 C 0.15668(17) 0.4992(7) 0.0842(3)
H28 H 0.1840 0.4450 0.1138
H29 H 0.1642 0.6047 0.0695
H30 H 0.1423 0.4397 0.0358
C42 C 0.05535(14) 0.6183(5) 0.3074(2)
F17 F 0.07733(9) 0.5791(3) 0.38378(14)
F18 F 0.01330(8) 0.5627(3) 0.29277(15)
F19 F 0.05356(9) 0.7766(3) 0.30477(15)
F12? F 0.2204(2) 0.6227(8) 0.3925(7)
loop_
_geom_bond_atom_site_label_1
_geom_bond_atom_site_label_2
_geom_bond_site_symmetry_1
_geom_bond_site_symmetry_2
C1 H1 1_555 1_555
C2 C1 1_555 1_555
O1 C2 1_555 1_555
C3 O1 1_555 1_555
O2 C3 1_555 1_555
C4 C2 1_555 1_555
C5 C1 1_555 1_555
F1 C5 1_555 1_555
F2 C5 1_555 1_555
F3 C5 1_555 1_555
C6 C3 1_555 1_555
C7 C6 1_555 1_555
H2 C7 1_555 1_555
C8 C7 1_555 1_555
H3 C8 1_555 1_555
C9 C8 1_555 1_555
H4 C9 1_555 1_555
C10 C9 1_555 1_555
H5 C10 1_555 1_555
C11 C6 1_555 1_555
O3 C11 1_555 1_555
C12 O3 1_555 1_555
H6 C12 1_555 1_555
H7 C12 1_555 1_555
H8 C12 1_555 1_555
C13 C3 1_555 1_555
F4 C13 1_555 1_555
F5 C13 1_555 1_555
F6 C13 1_555 1_555
C14 C4 1_555 1_555
C15 C14 1_555 1_555
H9 C15 1_555 1_555
C16 C15 1_555 1_555
H10 C16 1_555 1_555
C17 C16 1_555 1_555
H11 C17 1_555 1_555
C18 C17 1_555 1_555
H12 C18 1_555 1_555
C19 C14 1_555 1_555
O4 C19 1_555 1_555
C20 O4 1_555 1_555
H13 C20 1_555 1_555
H14 C20 1_555 1_555
H15 C20 1_555 1_555
C21 C4 1_555 1_555
F7 C21 1_555 1_555
F8 C21 1_555 1_555
F9 C21 1_555 1_555
C22 H16 1_555 1_555
C23 C22 1_555 1_555
O5 C23 1_555 1_555
C24 O5 1_555 1_555
O6 C24 1_555 1_555
C25 C23 1_555 1_555
C26 C22 1_555 1_555
F10 C26 1_555 1_555
F11 C26 1_555 1_555
F13 C26 1_555 1_555
C27 C24 1_555 1_555
C28 C27 1_555 1_555
H17 C28 1_555 1_555
C29 C28 1_555 1_555
H18 C29 1_555 1_555
C30 C29 1_555 1_555
H19 C30 1_555 1_555
C31 C30 1_555 1_555
H20 C31 1_555 1_555
C32 C27 1_555 1_555
O7 C32 1_555 1_555
C33 O7 1_555 1_555
H21 C33 1_555 1_555
H22 C33 1_555 1_555
H23 C33 1_555 1_555
C34 C24 1_555 1_555
F14 C34 1_555 1_555
F15 C34 1_555 1_555
F16 C34 1_555 1_555
C35 C25 1_555 1_555
C36 C35 1_555 1_555
H24 C36 1_555 1_555
C37 C36 1_555 1_555
H25 C37 1_555 1_555
C38 C37 1_555 1_555
H26 C38 1_555 1_555
C39 C38 1_555 1_555
H27 C39 1_555 1_555
C40 C35 1_555 1_555
O8 C40 1_555 1_555
C41 O8 1_555 1_555
H28 C41 1_555 1_555
H29 C41 1_555 1_555
H30 C41 1_555 1_555
C42 C25 1_555 1_555
F17 C42 1_555 1_555
F18 C42 1_555 1_555
F19 C42 1_555 1_555
O2 C4 1_555 1_555
C10 C11 1_555 1_555
C18 C19 1_555 1_555
O6 C25 1_555 1_555
C31 C32 1_555 1_555
C39 C40 1_555 1_555

#END
