
#######################################################################
#
#                 Cambridge Crystallographic Data Centre
#                                CCDC 
#
#######################################################################
#
# If this CIF has been generated from an entry in the Cambridge 
# Structural Database, then it will include bibliographic, chemical, 
# crystal, experimental, refinement or atomic coordinate data resulting 
# from the CCDC's data processing and validation procedures.
#
#######################################################################

data_BONFIU
_chemical_name_common            
'(4-(Dibutylamino)benzyl)(triphenyl)phosphonium iodide'
_chemical_formula_moiety         'C33 H39 N1 P1 1+,I1 1-'
_chemical_name_systematic        
'Dibutyl-4-((triphenylphosphonium)methyl)benzenamine iodide'
_symmetry_cell_setting           monoclinic
_symmetry_space_group_name_H-M   'C 2/c'
_symmetry_Int_Tables_number      15
_space_group_name_Hall           '-C 2yn'
loop_
_symmetry_equiv_pos_site_id
_symmetry_equiv_pos_as_xyz
1 x,y,z
2 -x,y,1/2-z
3 1/2+x,1/2+y,z
4 1/2-x,1/2+y,1/2-z
5 -x,-y,-z
6 x,-y,1/2+z
7 1/2-x,1/2-y,-z
8 1/2+x,1/2-y,1/2+z
_cell_length_a                   27.616(3)
_cell_length_b                   37.221(3)
_cell_length_c                   23.909(3)
_cell_angle_alpha                90
_cell_angle_beta                 90.356(2)
_cell_angle_gamma                90
_cell_volume                     24575.5
_exptl_crystal_colour            colorless
_exptl_crystal_description       plate
_chemical_melting_point          211-215deg.C
_cell_formula_units_Z            32
_exptl_crystal_recrystallization_method ethanol
loop_
_atom_site_label
_atom_site_type_symbol
_atom_site_fract_x
_atom_site_fract_y
_atom_site_fract_z
I1 I 0.299898(17) 0.066809(10) 0.602424(18)
I2 I -0.045132(18) 0.316274(11) 0.596663(19)
I3 I 0.201628(17) -0.066086(10) 0.418564(19)
I4 I -0.055199(16) -0.184958(11) 0.588205(19)
P1 P 0.15712(5) -0.01171(4) 0.59124(6)
C1 C 0.21912(19) -0.02224(14) 0.5736(3)
H1 H 0.2208 -0.0271 0.5334
H2 H 0.2393 -0.0011 0.5814
C2 C 0.24015(13) -0.05438(8) 0.60520(14)
C3 C 0.24129(14) -0.08772(9) 0.57905(12)
H3 H 0.2287 -0.0904 0.5427
C4 C 0.26110(15) -0.11716(7) 0.60669(16)
H4 H 0.2619 -0.1397 0.5890
C5 C 0.27976(15) -0.11326(9) 0.66048(16)
C6 C 0.27861(15) -0.07992(10) 0.68663(13)
H5 H 0.2912 -0.0773 0.7230
C7 C 0.25880(14) -0.05048(8) 0.65899(15)
H6 H 0.2580 -0.0279 0.6767
N1 N 0.3011(2) -0.14295(16) 0.6881(3)
C8 C 0.32311(12) -0.13960(19) 0.7417(3)
H7 H 0.3246 -0.1634 0.7593
H8 H 0.3029 -0.1242 0.7651
C9 C 0.37421(16) -0.1238(2) 0.7394(2)
H9 H 0.3953 -0.1401 0.7185
H10 H 0.3733 -0.1008 0.7195
C10 C 0.39532(13) -0.1180(2) 0.7980(2)
H11 H 0.3951 -0.1409 0.8183
H12 H 0.3748 -0.1011 0.8184
C11 C 0.4471(2) -0.1035(3) 0.7966(5)
H13 H 0.4588 -0.1000 0.8346
H14 H 0.4475 -0.0807 0.7769
H15 H 0.4678 -0.1205 0.7775
C12 C 0.31359(16) -0.17574(17) 0.6568(4)
H16 H 0.3447 -0.1850 0.6705
H17 H 0.3172 -0.1698 0.6171
C13 C 0.2749(2) -0.20485(14) 0.6630(4)
H18 H 0.2439 -0.1964 0.6477
H19 H 0.2704 -0.2108 0.7026
C14 C 0.2921(2) -0.23801(17) 0.6309(4)
H20 H 0.2855 -0.2348 0.5909
H21 H 0.3271 -0.2410 0.6360
C15 C 0.2658(5) -0.2715(3) 0.6521(6)
H22 H 0.2621 -0.2885 0.6217
H23 H 0.2341 -0.2647 0.6659
H24 H 0.2845 -0.2824 0.6821
C16 C 0.15416(15) 0.00206(11) 0.66351(14)
C17 C 0.18953(14) 0.02471(11) 0.68536(17)
H25 H 0.2138 0.0339 0.6620
C18 C 0.18904(15) 0.03371(12) 0.74178(19)
H26 H 0.2130 0.0490 0.7566
C19 C 0.15318(18) 0.02007(13) 0.77634(14)
H27 H 0.1528 0.0262 0.8145
C20 C 0.11780(16) -0.00258(13) 0.75448(17)
H28 H 0.0935 -0.0118 0.7779
C21 C 0.11829(14) -0.01159(11) 0.69807(18)
H29 H 0.0944 -0.0269 0.6833
C22 C 0.13754(14) 0.02435(9) 0.54702(16)
C23 C 0.15093(14) 0.02526(9) 0.49109(16)
H30 H 0.1703 0.0069 0.4763
C24 C 0.13563(17) 0.05338(11) 0.45704(14)
H31 H 0.1447 0.0540 0.4192
C25 C 0.10694(17) 0.08058(10) 0.47892(18)
H32 H 0.0966 0.0996 0.4559
C26 C 0.09354(16) 0.07967(9) 0.53485(19)
H33 H 0.0741 0.0981 0.5496
C27 C 0.10884(15) 0.05155(10) 0.56890(15)
H34 H 0.0998 0.0509 0.6067
C28 C 0.11896(14) -0.05014(9) 0.58207(18)
C29 C 0.12519(14) -0.08015(11) 0.61596(17)
H35 H 0.1504 -0.0807 0.6425
C30 C 0.09410(17) -0.10933(9) 0.61058(19)
H36 H 0.0983 -0.1296 0.6335
C31 C 0.05679(16) -0.10851(11) 0.5713(2)
H37 H 0.0358 -0.1282 0.5677
C32 C 0.05056(16) -0.07849(13) 0.5374(2)
H38 H 0.0253 -0.0779 0.5109
C33 C 0.08165(17) -0.04931(10) 0.54280(18)
H39 H 0.0774 -0.0290 0.5199
P2 P 0.09975(5) 0.24078(4) 0.58067(7)
C34 C 0.03848(19) 0.22846(14) 0.5618(3)
H40 H 0.0178 0.2496 0.5667
H41 H 0.0379 0.2223 0.5219
C35 C 0.01624(13) 0.19712(8) 0.59446(14)
C36 C -0.00151(14) 0.20209(8) 0.64818(15)
H42 H 0.0011 0.2247 0.6655
C37 C -0.02313(15) 0.17366(10) 0.67626(13)
H43 H -0.0351 0.1770 0.7126
C38 C -0.02700(15) 0.14026(9) 0.65061(16)
C39 C -0.00925(16) 0.13529(7) 0.59689(16)
H44 H -0.0119 0.1127 0.5795
C40 C 0.01237(14) 0.16372(9) 0.56881(13)
H45 H 0.0244 0.1604 0.5325
N2 N -0.0483(3) 0.11037(17) 0.6784(3)
C41 C -0.06827(12) 0.1135(3) 0.7335(4)
H46 H -0.0494 0.1309 0.7553
H47 H -0.0664 0.0902 0.7526
C42 C -0.12111(17) 0.1257(3) 0.7300(2)
H48 H -0.1231 0.1496 0.7132
H49 H -0.1398 0.1090 0.7067
C43 C -0.14155(13) 0.1265(3) 0.7893(2)
H50 H -0.1235 0.1436 0.8127
H51 H -0.1398 0.1027 0.8066
C44 C -0.1943(2) 0.1385(4) 0.7824(6)
H52 H -0.1992 0.1609 0.8023
H53 H -0.2155 0.1202 0.7975
H54 H -0.2015 0.1419 0.7430
C45 C -0.05829(16) 0.0768(2) 0.6498(6)
H55 H -0.0664 0.0820 0.6106
H56 H -0.0866 0.0655 0.6668
C46 C -0.0157(2) 0.05061(16) 0.6519(5)
H57 H -0.0067 0.0449 0.6906
H58 H 0.0126 0.0605 0.6326
C47 C -0.0352(3) 0.0174(2) 0.6215(5)
H59 H -0.0384 -0.0009 0.6507
H60 H -0.0684 0.0238 0.6106
C48 C -0.0151(7) -0.0028(4) 0.5710(6)
H61 H -0.0416 -0.0128 0.5493
H62 H 0.0059 -0.0221 0.5839
H63 H 0.0033 0.0136 0.5479
C49 C 0.10106(16) 0.25181(12) 0.65349(15)
C50 C 0.12717(16) 0.23098(11) 0.6913(2)
H64 H 0.1475 0.2126 0.6784
C51 C 0.12320(19) 0.23736(13) 0.74841(18)
H65 H 0.1409 0.2233 0.7740
C52 C 0.09311(19) 0.26458(14) 0.76763(15)
H66 H 0.0904 0.2689 0.8062
C53 C 0.06699(16) 0.28540(12) 0.7298(2)
H67 H 0.0466 0.3038 0.7428
C54 C 0.07097(15) 0.27902(11) 0.67271(18)
H68 H 0.0533 0.2931 0.6471
C55 C 0.14356(17) 0.20658(12) 0.5657(3)
C56 C 0.1864(2) 0.21597(12) 0.5392(3)
H69 H 0.1909 0.2396 0.5263
C57 C 0.22250(19) 0.19044(16) 0.5317(3)
H70 H 0.2515 0.1968 0.5138
C58 C 0.21581(19) 0.15552(14) 0.5508(3)
H71 H 0.2402 0.1383 0.5457
C59 C 0.1730(2) 0.14613(11) 0.5773(3)
H72 H 0.1685 0.1225 0.5902
C60 C 0.13687(18) 0.17166(13) 0.5848(3)
H73 H 0.1079 0.1653 0.6027
C61 C 0.11623(14) 0.27901(9) 0.53995(18)
C62 C 0.10199(15) 0.28065(10) 0.48414(19)
H74 H 0.0829 0.2622 0.4687
C63 C 0.11604(17) 0.30954(12) 0.45117(17)
H75 H 0.1064 0.3106 0.4134
C64 C 0.14433(17) 0.33679(10) 0.4740(2)
H76 H 0.1538 0.3563 0.4517
C65 C 0.15857(15) 0.33516(9) 0.5298(2)
H77 H 0.1777 0.3536 0.5452
C66 C 0.14452(15) 0.30627(11) 0.56278(17)
H78 H 0.1542 0.3052 0.6005
P3 P 0.35119(5) 0.00449(3) 0.43723(6)
C67 C 0.29009(18) 0.01885(13) 0.4541(2)
H79 H 0.2690 -0.0023 0.4528
H80 H 0.2902 0.0276 0.4927
C68 C 0.26726(12) 0.04793(7) 0.41710(13)
C69 C 0.24930(14) 0.03971(8) 0.36419(14)
H81 H 0.2525 0.0163 0.3499
C70 C 0.22656(15) 0.06611(10) 0.33237(12)
H82 H 0.2144 0.0606 0.2966
C71 C 0.22179(14) 0.10072(9) 0.35347(15)
C72 C 0.23976(14) 0.10894(7) 0.40638(16)
H83 H 0.2365 0.1323 0.4206
C73 C 0.26249(13) 0.08254(8) 0.43819(12)
H84 H 0.2746 0.0881 0.4740
N3 N 0.1984(2) 0.12778(18) 0.3213(3)
C74 C 0.18720(16) 0.1627(2) 0.3466(6)
H85 H 0.1799 0.1592 0.3862
H86 H 0.1582 0.1726 0.3284
C75 C 0.2284(2) 0.18996(14) 0.3415(5)
H87 H 0.2368 0.1935 0.3021
H88 H 0.2572 0.1813 0.3615
C76 C 0.2109(3) 0.22530(19) 0.3671(5)
H89 H 0.1759 0.2275 0.3610
H90 H 0.2168 0.2248 0.4075
C77 C 0.2361(6) 0.2582(3) 0.3422(7)
H91 H 0.2160 0.2793 0.3477
H92 H 0.2411 0.2544 0.3025
H93 H 0.2671 0.2617 0.3607
C78 C 0.17398(12) 0.1199(3) 0.2709(5)
H94 H 0.1872 0.0973 0.2565
H95 H 0.1821 0.1387 0.2439
C79 C 0.11881(13) 0.1163(2) 0.2716(4)
H96 H 0.1045 0.1403 0.2731
H97 H 0.1082 0.1050 0.2366
C80 C 0.09950(13) 0.0942(4) 0.3207(4)
H98 H 0.1075 0.1060 0.3562
H99 H 0.1141 0.0702 0.3208
C81 C 0.04454(16) 0.0915(4) 0.3134(6)
H100 H 0.0348 0.0665 0.3153
H101 H 0.0352 0.1013 0.2774
H102 H 0.0287 0.1049 0.3429
C82 C 0.39643(12) 0.03852(9) 0.4486(2)
C83 C 0.44211(15) 0.02757(9) 0.4664(3)
H103 H 0.4479 0.0032 0.4745
C84 C 0.47919(12) 0.05259(12) 0.4720(3)
H104 H 0.5101 0.0452 0.4841
C85 C 0.47057(14) 0.08856(11) 0.4599(3)
H105 H 0.4956 0.1055 0.4638
C86 C 0.42489(16) 0.09951(8) 0.4421(3)
H106 H 0.4191 0.1238 0.4339
C87 C 0.38781(13) 0.07450(11) 0.4365(3)
H107 H 0.3569 0.0819 0.4244
C88 C 0.35140(15) -0.00881(12) 0.36583(14)
C89 C 0.37506(16) 0.01208(11) 0.32629(19)
H108 H 0.3939 0.0318 0.3378
C90 C 0.37086(18) 0.00377(13) 0.26978(17)
H109 H 0.3869 0.0179 0.2430
C91 C 0.34301(18) -0.02541(14) 0.25282(14)
H110 H 0.3402 -0.0310 0.2146
C92 C 0.31936(16) -0.04629(12) 0.29236(19)
H111 H 0.3005 -0.0660 0.2809
C93 C 0.32355(15) -0.03799(11) 0.34886(17)
H112 H 0.3076 -0.0521 0.3756
C94 C 0.36583(14) -0.03293(8) 0.48231(17)
C95 C 0.38709(15) -0.06411(10) 0.46196(16)
H113 H 0.3938 -0.0663 0.4236
C96 C 0.39838(16) -0.09208(8) 0.4983(2)
H114 H 0.4128 -0.1132 0.4845
C97 C 0.38841(17) -0.08887(10) 0.5550(2)
H115 H 0.3960 -0.1078 0.5796
C98 C 0.36715(16) -0.05768(11) 0.57534(16)
H116 H 0.3604 -0.0555 0.6137
C99 C 0.35586(15) -0.02972(9) 0.53901(18)
H117 H 0.3415 -0.0086 0.5528
P4 P -0.09823(5) 0.25522(4) 0.42926(7)
C100 C -0.03694(19) 0.26903(15) 0.4467(3)
H118 H -0.0361 0.2764 0.4861
H119 H -0.0156 0.2481 0.4429
C101 C -0.01651(13) 0.29943(8) 0.41179(15)
C102 C -0.01494(15) 0.33384(9) 0.43431(13)
H120 H -0.0277 0.3382 0.4700
C103 C 0.00548(17) 0.36181(7) 0.40400(17)
H121 H 0.0065 0.3851 0.4192
C104 C 0.02433(17) 0.35537(10) 0.35117(16)
C105 C 0.02276(16) 0.32096(12) 0.32865(14)
H122 H 0.0355 0.3166 0.2929
C106 C 0.00234(15) 0.29299(8) 0.35896(16)
H123 H 0.0013 0.2697 0.3437
N4 N 0.0461(3) 0.3843(2) 0.3221(3)
C107 C 0.06805(13) 0.3797(3) 0.2685(7)
H124 H 0.0688 0.4027 0.2485
H125 H 0.0494 0.3625 0.2461
C108 C 0.1196(2) 0.3657(3) 0.2777(3)
H126 H 0.1393 0.3838 0.2971
H127 H 0.1192 0.3438 0.3004
C109 C 0.14039(15) 0.3579(4) 0.2198(4)
H128 H 0.1434 0.3797 0.1972
H129 H 0.1213 0.3399 0.1994
C110 C 0.1897(4) 0.3433(4) 0.2385(8)
H130 H 0.2006 0.3254 0.2119
H131 H 0.1868 0.3324 0.2751
H132 H 0.2130 0.3628 0.2402
C111 C 0.05931(18) 0.4179(2) 0.3493(5)
H133 H 0.0917 0.4252 0.3371
H134 H 0.0605 0.4143 0.3899
C112 C 0.0230(2) 0.44770(15) 0.3354(4)
H135 H -0.0083 0.4428 0.3528
H136 H 0.0183 0.4496 0.2948
C113 C 0.0449(2) 0.48237(17) 0.3588(5)
H137 H 0.0426 0.4820 0.3997
H138 H 0.0793 0.4833 0.3491
C114 C 0.0198(5) 0.5161(3) 0.3366(6)
H139 H 0.0300 0.5368 0.3585
H140 H -0.0150 0.5133 0.3394
H141 H 0.0285 0.5198 0.2977
C115 C -0.09812(16) 0.23982(12) 0.35839(15)
C116 C -0.12430(17) 0.25672(12) 0.3161(2)
H142 H -0.1458 0.2754 0.3248
C117 C -0.1186(2) 0.24596(14) 0.26084(17)
H143 H -0.1363 0.2574 0.2322
C118 C -0.0868(2) 0.21830(15) 0.24790(15)
H144 H -0.0830 0.2110 0.2105
C119 C -0.06064(17) 0.20139(12) 0.2902(2)
H145 H -0.0391 0.1827 0.2814
C120 C -0.06629(16) 0.21216(11) 0.34544(18)
H146 H -0.0486 0.2007 0.3740
C121 C -0.11494(14) 0.21892(9) 0.47466(17)
C122 C -0.10191(14) 0.22056(9) 0.53085(18)
H147 H -0.0843 0.2404 0.5445
C123 C -0.11490(16) 0.19293(12) 0.56687(15)
H148 H -0.1061 0.1940 0.6049
C124 C -0.14092(16) 0.16365(10) 0.54670(19)
H149 H -0.1497 0.1450 0.5711
C125 C -0.15395(15) 0.16201(9) 0.4905(2)
H150 H -0.1716 0.1422 0.4769
C126 C -0.14096(15) 0.18964(11) 0.45449(15)
H151 H -0.1498 0.1885 0.4165
C127 C -0.14121(16) 0.29091(12) 0.4368(2)
C128 C -0.13599(17) 0.32269(13) 0.4069(2)
H152 H -0.1094 0.3258 0.3831
C129 C -0.1701(2) 0.34992(11) 0.4123(3)
H153 H -0.1666 0.3714 0.3921
C130 C -0.20942(19) 0.34536(13) 0.4476(3)
H154 H -0.2325 0.3638 0.4513
C131 C -0.21464(17) 0.31358(16) 0.4775(2)
H155 H -0.2412 0.3105 0.5014
C132 C -0.18054(19) 0.28636(12) 0.4721(2)
H156 H -0.1841 0.2649 0.4923
loop_
_geom_bond_atom_site_label_1
_geom_bond_atom_site_label_2
_geom_bond_site_symmetry_1
_geom_bond_site_symmetry_2
P1 C1 1_555 1_555
C1 H1 1_555 1_555
H2 C1 1_555 1_555
C2 C1 1_555 1_555
C3 C2 1_555 1_555
H3 C3 1_555 1_555
C4 C3 1_555 1_555
H4 C4 1_555 1_555
C5 C4 1_555 1_555
C6 C5 1_555 1_555
H5 C6 1_555 1_555
C7 C2 1_555 1_555
H6 C7 1_555 1_555
N1 C5 1_555 1_555
C8 N1 1_555 1_555
H7 C8 1_555 1_555
H8 C8 1_555 1_555
C9 C8 1_555 1_555
H9 C9 1_555 1_555
H10 C9 1_555 1_555
C10 C9 1_555 1_555
H11 C10 1_555 1_555
H12 C10 1_555 1_555
C11 C10 1_555 1_555
H13 C11 1_555 1_555
H14 C11 1_555 1_555
H15 C11 1_555 1_555
C12 N1 1_555 1_555
H16 C12 1_555 1_555
H17 C12 1_555 1_555
C13 C12 1_555 1_555
H18 C13 1_555 1_555
H19 C13 1_555 1_555
C14 C13 1_555 1_555
H20 C14 1_555 1_555
H21 C14 1_555 1_555
C15 C14 1_555 1_555
H22 C15 1_555 1_555
H23 C15 1_555 1_555
H24 C15 1_555 1_555
C16 P1 1_555 1_555
C17 C16 1_555 1_555
H25 C17 1_555 1_555
C18 C17 1_555 1_555
H26 C18 1_555 1_555
C19 C18 1_555 1_555
H27 C19 1_555 1_555
C20 C19 1_555 1_555
H28 C20 1_555 1_555
C21 C16 1_555 1_555
H29 C21 1_555 1_555
C22 P1 1_555 1_555
C23 C22 1_555 1_555
H30 C23 1_555 1_555
C24 C23 1_555 1_555
H31 C24 1_555 1_555
C25 C24 1_555 1_555
H32 C25 1_555 1_555
C26 C25 1_555 1_555
H33 C26 1_555 1_555
C27 C22 1_555 1_555
H34 C27 1_555 1_555
C28 P1 1_555 1_555
C29 C28 1_555 1_555
H35 C29 1_555 1_555
C30 C29 1_555 1_555
H36 C30 1_555 1_555
C31 C30 1_555 1_555
H37 C31 1_555 1_555
C32 C31 1_555 1_555
H38 C32 1_555 1_555
C33 C28 1_555 1_555
H39 C33 1_555 1_555
P2 C34 1_555 1_555
C34 H40 1_555 1_555
H41 C34 1_555 1_555
C35 C34 1_555 1_555
C36 C35 1_555 1_555
H42 C36 1_555 1_555
C37 C36 1_555 1_555
H43 C37 1_555 1_555
C38 C37 1_555 1_555
C39 C38 1_555 1_555
H44 C39 1_555 1_555
C40 C35 1_555 1_555
H45 C40 1_555 1_555
N2 C38 1_555 1_555
C41 N2 1_555 1_555
H46 C41 1_555 1_555
H47 C41 1_555 1_555
C42 C41 1_555 1_555
H48 C42 1_555 1_555
H49 C42 1_555 1_555
C43 C42 1_555 1_555
H50 C43 1_555 1_555
H51 C43 1_555 1_555
C44 C43 1_555 1_555
H52 C44 1_555 1_555
H53 C44 1_555 1_555
H54 C44 1_555 1_555
C45 N2 1_555 1_555
H55 C45 1_555 1_555
H56 C45 1_555 1_555
C46 C45 1_555 1_555
H57 C46 1_555 1_555
H58 C46 1_555 1_555
C47 C46 1_555 1_555
H59 C47 1_555 1_555
H60 C47 1_555 1_555
C48 C47 1_555 1_555
H61 C48 1_555 1_555
H62 C48 1_555 1_555
H63 C48 1_555 1_555
C49 P2 1_555 1_555
C50 C49 1_555 1_555
H64 C50 1_555 1_555
C51 C50 1_555 1_555
H65 C51 1_555 1_555
C52 C51 1_555 1_555
H66 C52 1_555 1_555
C53 C52 1_555 1_555
H67 C53 1_555 1_555
C54 C49 1_555 1_555
H68 C54 1_555 1_555
C55 P2 1_555 1_555
C56 C55 1_555 1_555
H69 C56 1_555 1_555
C57 C56 1_555 1_555
H70 C57 1_555 1_555
C58 C57 1_555 1_555
H71 C58 1_555 1_555
C59 C58 1_555 1_555
H72 C59 1_555 1_555
C60 C55 1_555 1_555
H73 C60 1_555 1_555
C61 P2 1_555 1_555
C62 C61 1_555 1_555
H74 C62 1_555 1_555
C63 C62 1_555 1_555
H75 C63 1_555 1_555
C64 C63 1_555 1_555
H76 C64 1_555 1_555
C65 C64 1_555 1_555
H77 C65 1_555 1_555
C66 C61 1_555 1_555
H78 C66 1_555 1_555
P3 C67 1_555 1_555
C67 H79 1_555 1_555
H80 C67 1_555 1_555
C68 C67 1_555 1_555
C69 C68 1_555 1_555
H81 C69 1_555 1_555
C70 C69 1_555 1_555
H82 C70 1_555 1_555
C71 C70 1_555 1_555
C72 C71 1_555 1_555
H83 C72 1_555 1_555
C73 C68 1_555 1_555
H84 C73 1_555 1_555
N3 C71 1_555 1_555
C74 N3 1_555 1_555
H85 C74 1_555 1_555
H86 C74 1_555 1_555
C75 C74 1_555 1_555
H87 C75 1_555 1_555
H88 C75 1_555 1_555
C76 C75 1_555 1_555
H89 C76 1_555 1_555
H90 C76 1_555 1_555
C77 C76 1_555 1_555
H91 C77 1_555 1_555
H92 C77 1_555 1_555
H93 C77 1_555 1_555
C78 N3 1_555 1_555
H94 C78 1_555 1_555
H95 C78 1_555 1_555
C79 C78 1_555 1_555
H96 C79 1_555 1_555
H97 C79 1_555 1_555
C80 C79 1_555 1_555
H98 C80 1_555 1_555
H99 C80 1_555 1_555
C81 C80 1_555 1_555
H100 C81 1_555 1_555
H101 C81 1_555 1_555
H102 C81 1_555 1_555
C82 P3 1_555 1_555
C83 C82 1_555 1_555
H103 C83 1_555 1_555
C84 C83 1_555 1_555
H104 C84 1_555 1_555
C85 C84 1_555 1_555
H105 C85 1_555 1_555
C86 C85 1_555 1_555
H106 C86 1_555 1_555
C87 C82 1_555 1_555
H107 C87 1_555 1_555
C88 P3 1_555 1_555
C89 C88 1_555 1_555
H108 C89 1_555 1_555
C90 C89 1_555 1_555
H109 C90 1_555 1_555
C91 C90 1_555 1_555
H110 C91 1_555 1_555
C92 C91 1_555 1_555
H111 C92 1_555 1_555
C93 C88 1_555 1_555
H112 C93 1_555 1_555
C94 P3 1_555 1_555
C95 C94 1_555 1_555
H113 C95 1_555 1_555
C96 C95 1_555 1_555
H114 C96 1_555 1_555
C97 C96 1_555 1_555
H115 C97 1_555 1_555
C98 C97 1_555 1_555
H116 C98 1_555 1_555
C99 C94 1_555 1_555
H117 C99 1_555 1_555
P4 C100 1_555 1_555
C100 H118 1_555 1_555
H119 C100 1_555 1_555
C101 C100 1_555 1_555
C102 C101 1_555 1_555
H120 C102 1_555 1_555
C103 C102 1_555 1_555
H121 C103 1_555 1_555
C104 C103 1_555 1_555
C105 C104 1_555 1_555
H122 C105 1_555 1_555
C106 C101 1_555 1_555
H123 C106 1_555 1_555
N4 C104 1_555 1_555
C107 N4 1_555 1_555
H124 C107 1_555 1_555
H125 C107 1_555 1_555
C108 C107 1_555 1_555
H126 C108 1_555 1_555
H127 C108 1_555 1_555
C109 C108 1_555 1_555
H128 C109 1_555 1_555
H129 C109 1_555 1_555
C110 C109 1_555 1_555
H130 C110 1_555 1_555
H131 C110 1_555 1_555
H132 C110 1_555 1_555
C111 N4 1_555 1_555
H133 C111 1_555 1_555
H134 C111 1_555 1_555
C112 C111 1_555 1_555
H135 C112 1_555 1_555
H136 C112 1_555 1_555
C113 C112 1_555 1_555
H137 C113 1_555 1_555
H138 C113 1_555 1_555
C114 C113 1_555 1_555
H139 C114 1_555 1_555
H140 C114 1_555 1_555
H141 C114 1_555 1_555
C115 P4 1_555 1_555
C116 C115 1_555 1_555
H142 C116 1_555 1_555
C117 C116 1_555 1_555
H143 C117 1_555 1_555
C118 C117 1_555 1_555
H144 C118 1_555 1_555
C119 C118 1_555 1_555
H145 C119 1_555 1_555
C120 C115 1_555 1_555
H146 C120 1_555 1_555
C121 P4 1_555 1_555
C122 C121 1_555 1_555
H147 C122 1_555 1_555
C123 C122 1_555 1_555
H148 C123 1_555 1_555
C124 C123 1_555 1_555
H149 C124 1_555 1_555
C125 C124 1_555 1_555
H150 C125 1_555 1_555
C126 C121 1_555 1_555
H151 C126 1_555 1_555
C127 P4 1_555 1_555
C128 C127 1_555 1_555
H152 C128 1_555 1_555
C129 C128 1_555 1_555
H153 C129 1_555 1_555
C130 C129 1_555 1_555
H154 C130 1_555 1_555
C131 C130 1_555 1_555
H155 C131 1_555 1_555
C132 C127 1_555 1_555
H156 C132 1_555 1_555
C6 C7 1_555 1_555
C20 C21 1_555 1_555
C26 C27 1_555 1_555
C32 C33 1_555 1_555
C39 C40 1_555 1_555
C53 C54 1_555 1_555
C59 C60 1_555 1_555
C65 C66 1_555 1_555
C72 C73 1_555 1_555
C86 C87 1_555 1_555
C92 C93 1_555 1_555
C98 C99 1_555 1_555
C105 C106 1_555 1_555
C119 C120 1_555 1_555
C125 C126 1_555 1_555
C131 C132 1_555 1_555

#END
