
#######################################################################
#
#                 Cambridge Crystallographic Data Centre
#                                CCDC 
#
#######################################################################
#
# If this CIF has been generated from an entry in the Cambridge 
# Structural Database, then it will include bibliographic, chemical, 
# crystal, experimental, refinement or atomic coordinate data resulting 
# from the CCDC's data processing and validation procedures.
#
#######################################################################

data_BONNID
_chemical_compound_source        'roots of Syringa pinnatifolia'
_chemical_name_common            'Pinnatifone A'
_chemical_formula_moiety         'C15 H20 O3'
_chemical_name_systematic        
6-Hydroxy-4a,5-dimethyl-3-(prop-1-en-2-yl)-2,3,4,4a,8,8a-hexahydronaphthalene-1,7-dione
_symmetry_cell_setting           monoclinic
_symmetry_space_group_name_H-M   'P 21'
_symmetry_Int_Tables_number      4
_space_group_name_Hall           'P 2yb'
loop_
_symmetry_equiv_pos_site_id
_symmetry_equiv_pos_as_xyz
1 x,y,z
2 -x,1/2+y,-z
_cell_length_a                   6.9718(4)
_cell_length_b                   20.7946(13)
_cell_length_c                   9.4636(5)
_cell_angle_alpha                90
_cell_angle_beta                 90.744(6)
_cell_angle_gamma                90
_cell_volume                     1371.88
_exptl_crystal_colour            colorless
_exptl_crystal_description       block
_chemical_melting_point          '114.0-115.8 deg.C'
_cell_formula_units_Z            4
loop_
_atom_site_label
_atom_site_type_symbol
_atom_site_fract_x
_atom_site_fract_y
_atom_site_fract_z
O1 O 0.8908(6) 0.1900(3) 0.3169(5)
H1 H 0.9046 0.2278 0.2943
O2 O 0.4719(8) 0.2887(2) 0.5928(5)
O3 O 0.6025(8) 0.2637(3) 0.2211(5)
C1 C 0.4327(9) 0.2350(3) 0.6233(7)
C2 C 0.5616(9) 0.2252(4) 0.3143(6)
C3 C 0.7137(8) 0.1815(3) 0.3698(6)
C4 C 0.5680(10) 0.1505(3) 0.7820(6)
H2 H 0.6962 0.1623 0.7496
C5 C 0.3602(9) 0.1854(3) 0.5144(6)
H3 H 0.2272 0.1744 0.5360
C6 C 0.4890(10) 0.1005(3) 0.6788(6)
H4 H 0.3600 0.0891 0.7065
H5 H 0.5673 0.0621 0.6854
C7 C 0.4836(9) 0.1234(3) 0.5232(6)
C8 C 0.3654(9) 0.2152(4) 0.3672(6)
H6 H 0.2961 0.1875 0.3018
H7 H 0.2996 0.2563 0.3692
C9 C 0.3869(11) 0.0689(4) 0.4369(7)
H8 H 0.2577 0.0631 0.4684
H9 H 0.4575 0.0297 0.4503
H10 H 0.3854 0.0801 0.3385
C10 C 0.4446(11) 0.2108(3) 0.7736(6)
H11 H 0.3167 0.2012 0.8069
H12 H 0.4995 0.2439 0.8340
C11 C 0.8403(10) 0.0904(4) 0.5052(8)
H13 H 0.9310 0.0882 0.4299
H14 H 0.7885 0.0484 0.5224
H15 H 0.9034 0.1059 0.5894
C12 C 0.6808(8) 0.1356(3) 0.4646(6)
C13 C 0.5908(13) 0.1250(4) 0.9294(7)
C14 C 0.420(3) 0.1092(8) 1.0049(11)
H16 H 0.3311 0.1445 0.9990
H17 H 0.4515 0.1010 1.1022
H18 H 0.3616 0.0716 0.9640
C15 C 0.766(2) 0.1201(7) 0.9874(12)
H19 H 0.7806 0.1060 1.0802
H20 H 0.8733 0.1307 0.9350
O4 O 1.3891(6) 0.3406(3) 1.0161(5)
H21 H 1.3921 0.3088 1.0673
O5 O 1.1001(8) 0.2658(3) 1.1061(5)
O6 O 0.9760(8) 0.2397(3) 0.7331(5)
C16 C 0.9333(9) 0.2941(3) 0.7013(6)
C17 C 1.0641(10) 0.3044(3) 1.0118(6)
C18 C 1.2050(9) 0.3483(3) 0.9604(6)
C19 C 0.8603(9) 0.3125(4) 0.9564(6)
H22 H 0.7894 0.3396 1.0208
H23 H 0.7979 0.2708 0.9531
C20 C 1.1734(8) 0.3957(3) 0.8649(6)
C21 C 0.9700(8) 0.4056(3) 0.8041(6)
C22 C 0.8550(9) 0.3423(3) 0.8096(6)
H24 H 0.7211 0.3518 0.7845
C23 C 1.3250(10) 0.4429(4) 0.8336(8)
H25 H 1.4034 0.4496 0.9164
H26 H 1.2673 0.4829 0.8055
H27 H 1.4030 0.4270 0.7584
C24 C 0.9797(10) 0.4281(3) 0.6490(6)
H28 H 0.8510 0.4387 0.6165
H29 H 1.0557 0.4672 0.6453
C25 C 0.8725(12) 0.4591(4) 0.8869(7)
H30 H 0.8662 0.4472 0.9848
H31 H 0.7450 0.4657 0.8501
H32 H 0.9449 0.4982 0.8781
C26 C 0.9429(10) 0.3181(3) 0.5508(6)
H33 H 0.8147 0.3270 0.5149
H34 H 1.0003 0.2856 0.4912
C27 C 1.0641(9) 0.3795(4) 0.5488(6)
H35 H 1.1924 0.3685 0.5847
C28 C 1.0861(17) 0.4054(4) 0.4008(7)
C29 C 0.909(2) 0.4245(7) 0.3222(9)
H36 H 0.8384 0.3868 0.2954
H37 H 0.9434 0.4481 0.2390
H38 H 0.8315 0.4511 0.3814
C30 C 1.263(3) 0.4098(6) 0.3455(11)
H39 H 1.2786 0.4254 0.2542
H40 H 1.3700 0.3972 0.3986
loop_
_geom_bond_atom_site_label_1
_geom_bond_atom_site_label_2
_geom_bond_site_symmetry_1
_geom_bond_site_symmetry_2
O1 H1 1_555 1_555
O2 C1 1_555 1_555
O3 C2 1_555 1_555
C1 C5 1_555 1_555
C2 C3 1_555 1_555
C3 O1 1_555 1_555
C4 H2 1_555 1_555
C5 H3 1_555 1_555
C6 C4 1_555 1_555
H4 C6 1_555 1_555
H5 C6 1_555 1_555
C7 C5 1_555 1_555
C8 C2 1_555 1_555
H6 C8 1_555 1_555
H7 C8 1_555 1_555
C9 C7 1_555 1_555
H8 C9 1_555 1_555
H9 C9 1_555 1_555
H10 C9 1_555 1_555
C10 C1 1_555 1_555
H11 C10 1_555 1_555
H12 C10 1_555 1_555
C11 H13 1_555 1_555
H14 C11 1_555 1_555
H15 C11 1_555 1_555
C12 C3 1_555 1_555
C13 C4 1_555 1_555
C14 C13 1_555 1_555
H16 C14 1_555 1_555
H17 C14 1_555 1_555
H18 C14 1_555 1_555
C15 C13 1_555 1_555
H19 C15 1_555 1_555
H20 C15 1_555 1_555
O4 H21 1_555 1_555
O5 C17 1_555 1_555
O6 C16 1_555 1_555
C16 C22 1_555 1_555
C17 C18 1_555 1_555
C18 O4 1_555 1_555
C19 C17 1_555 1_555
H22 C19 1_555 1_555
H23 C19 1_555 1_555
C20 C18 1_555 1_555
C21 C20 1_555 1_555
C22 C19 1_555 1_555
H24 C22 1_555 1_555
C23 C20 1_555 1_555
H25 C23 1_555 1_555
H26 C23 1_555 1_555
H27 C23 1_555 1_555
C24 C21 1_555 1_555
H28 C24 1_555 1_555
H29 C24 1_555 1_555
C25 C21 1_555 1_555
H30 C25 1_555 1_555
H31 C25 1_555 1_555
H32 C25 1_555 1_555
C26 C16 1_555 1_555
H33 C26 1_555 1_555
H34 C26 1_555 1_555
C27 C24 1_555 1_555
H35 C27 1_555 1_555
C28 C27 1_555 1_555
C29 C28 1_555 1_555
H36 C29 1_555 1_555
H37 C29 1_555 1_555
H38 C29 1_555 1_555
C30 C28 1_555 1_555
H39 C30 1_555 1_555
H40 C30 1_555 1_555
C4 C10 1_555 1_555
C5 C8 1_555 1_555
C6 C7 1_555 1_555
C7 C12 1_555 1_555
C11 C12 1_555 1_555
C21 C22 1_555 1_555
C26 C27 1_555 1_555

#END
