
#######################################################################
#
#                 Cambridge Crystallographic Data Centre
#                                CCDC 
#
#######################################################################
#
# If this CIF has been generated from an entry in the Cambridge 
# Structural Database, then it will include bibliographic, chemical, 
# crystal, experimental, refinement or atomic coordinate data resulting 
# from the CCDC's data processing and validation procedures.
#
#######################################################################

data_BONPUR
_chemical_formula_moiety         'C22 H17 Br1 F3 N1 O6 S1'
_chemical_name_systematic        
'Dimethyl 2-(4-bromophenyl)-1-((4-methylphenyl)sulfonyl)-5-(trifluoromethyl)-1H-pyrrole-3,4-dicarboxylate'
_symmetry_cell_setting           triclinic
_symmetry_space_group_name_H-M   'P -1'
_symmetry_Int_Tables_number      2
_space_group_name_Hall           '-P 1'
loop_
_symmetry_equiv_pos_site_id
_symmetry_equiv_pos_as_xyz
1 x,y,z
2 -x,-y,-z
_cell_length_a                   9.4020(17)
_cell_length_b                   10.9464(10)
_cell_length_c                   13.4463(17)
_cell_angle_alpha                66.682(10)
_cell_angle_beta                 72.634(14)
_cell_angle_gamma                64.960(13)
_cell_volume                     1137.05
_cell_formula_units_Z            2
loop_
_atom_site_label
_atom_site_type_symbol
_atom_site_fract_x
_atom_site_fract_y
_atom_site_fract_z
Br1 Br 0.27953(6) 0.52445(4) 0.37363(3)
S1 S 0.54391(12) -0.15119(9) 0.74085(7)
F1 F 0.5050(4) -0.2947(2) 1.12056(18)
F2 F 0.6916(3) -0.2776(2) 0.9825(2)
F3 F 0.5468(3) -0.3962(2) 1.0028(2)
O1 O -0.0098(3) 0.1608(3) 1.0331(2)
O2 O 0.0601(3) 0.3055(3) 0.8706(2)
O3 O 0.2423(3) -0.0202(3) 1.1688(2)
O4 O 0.1514(4) -0.1774(3) 1.1668(2)
O5 O 0.6592(3) -0.2793(3) 0.7924(2)
O6 O 0.5910(3) -0.0480(3) 0.6475(2)
N1 N 0.4452(4) -0.0704(3) 0.8409(2)
C1 C 0.3204(4) 0.0619(3) 0.8223(3)
C2 C 0.2251(4) 0.0675(3) 0.9206(3)
C3 C 0.2915(5) -0.0621(3) 1.0029(3)
C4 C 0.4244(5) -0.1449(3) 0.9542(3)
C5 C 0.3099(4) 0.1714(3) 0.7128(3)
C6 C 0.1865(5) 0.2145(4) 0.6572(3)
H1 H 0.1085 0.1733 0.6880
C7 C 0.1776(5) 0.3189(4) 0.5557(3)
H2 H 0.0946 0.3472 0.5183
C8 C 0.2925(5) 0.3797(4) 0.5114(3)
C9 C 0.4147(5) 0.3408(4) 0.5673(3)
H3 H 0.4906 0.3845 0.5375
C10 C 0.4226(5) 0.2369(4) 0.6675(3)
H4 H 0.5046 0.2103 0.7053
C11 C 0.0784(5) 0.1814(4) 0.9484(3)
C12 C -0.0855(6) 0.4190(4) 0.8905(4)
H5 H -0.1055 0.4948 0.8230
H6 H -0.0753 0.4535 0.9426
H7 H -0.1723 0.3839 0.9192
C13 C 0.2203(5) -0.0954(4) 1.1218(3)
C14 C 0.1485(6) -0.0238(5) 1.2765(3)
H8 H 0.0378 0.0100 1.2713
H9 H 0.1667 0.0358 1.3044
H10 H 0.1787 -0.1194 1.3251
C15 C 0.5433(5) -0.2775(4) 1.0127(3)
C16 C 0.3998(5) -0.1888(4) 0.7120(3)
C17 C 0.3436(5) -0.1131(4) 0.6131(3)
H11 H 0.3741 -0.0366 0.5650
C18 C 0.2422(6) -0.1521(5) 0.5869(4)
H12 H 0.2056 -0.1019 0.5199
C19 C 0.1929(6) -0.2637(5) 0.6570(4)
C20 C 0.2489(6) -0.3361(5) 0.7565(4)
H13 H 0.2162 -0.4109 0.8055
C21 C 0.3511(6) -0.3000(4) 0.7842(4)
H14 H 0.3876 -0.3500 0.8512
C22 C 0.0811(7) -0.3054(6) 0.6257(5)
H15 H -0.0248 -0.2695 0.6628
H16 H 0.1154 -0.4069 0.6466
H17 H 0.0820 -0.2660 0.5478
loop_
_geom_bond_atom_site_label_1
_geom_bond_atom_site_label_2
_geom_bond_site_symmetry_1
_geom_bond_site_symmetry_2
Br1 C8 1_555 1_555
S1 O5 1_555 1_555
F1 C15 1_555 1_555
F2 C15 1_555 1_555
F3 C15 1_555 1_555
O1 C11 1_555 1_555
O2 C11 1_555 1_555
O3 C13 1_555 1_555
O4 C13 1_555 1_555
O6 S1 1_555 1_555
N1 S1 1_555 1_555
C1 N1 1_555 1_555
C2 C1 1_555 1_555
C3 C2 1_555 1_555
C4 N1 1_555 1_555
C5 C1 1_555 1_555
C6 C5 1_555 1_555
H1 C6 1_555 1_555
C7 C6 1_555 1_555
H2 C7 1_555 1_555
C8 C7 1_555 1_555
C9 C8 1_555 1_555
H3 C9 1_555 1_555
C10 C5 1_555 1_555
H4 C10 1_555 1_555
C11 C2 1_555 1_555
C12 O2 1_555 1_555
H5 C12 1_555 1_555
H6 C12 1_555 1_555
H7 C12 1_555 1_555
C13 C3 1_555 1_555
C14 O3 1_555 1_555
H8 C14 1_555 1_555
H9 C14 1_555 1_555
H10 C14 1_555 1_555
C15 C4 1_555 1_555
C16 S1 1_555 1_555
C17 C16 1_555 1_555
H11 C17 1_555 1_555
C18 C17 1_555 1_555
H12 C18 1_555 1_555
C19 C18 1_555 1_555
C20 C19 1_555 1_555
H13 C20 1_555 1_555
C21 C16 1_555 1_555
H14 C21 1_555 1_555
C22 C19 1_555 1_555
H15 C22 1_555 1_555
H16 C22 1_555 1_555
H17 C22 1_555 1_555
C3 C4 1_555 1_555
C9 C10 1_555 1_555
C20 C21 1_555 1_555

#END
