
#######################################################################
#
#                 Cambridge Crystallographic Data Centre
#                                CCDC 
#
#######################################################################
#
# If this CIF has been generated from an entry in the Cambridge 
# Structural Database, then it will include bibliographic, chemical, 
# crystal, experimental, refinement or atomic coordinate data resulting 
# from the CCDC's data processing and validation procedures.
#
#######################################################################

data_BONSAY10
_chemical_formula_moiety         
'C24 H44 K1 N4 O10 1+,C24 H46 K1 N4 O11 1+,3(Br1 1-),6(H2 O1),K1 1+'
_chemical_name_systematic        
'Potassium aqua-(2,3,11,12-tetrakis(N,N-dimethylcarboxamide)-1,4,7,10,13,16-hexaoxacyclo-octadecane)-(2,3,11,12-tetrakis(N,N-dimethylcarboxamide)-1,4,7,10,13,16-hexaoxacyclo-octadecane) tribromide hexahydrate'
_symmetry_cell_setting           triclinic
_symmetry_space_group_name_H-M   'P 1'
_symmetry_Int_Tables_number      1
_space_group_name_Hall           'P 1'
loop_
_symmetry_equiv_pos_site_id
_symmetry_equiv_pos_as_xyz
1 x,y,z
_cell_length_a                   10.734(2)
_cell_length_b                   11.272(2)
_cell_length_c                   15.781(4)
_cell_angle_alpha                109.85(2)
_cell_angle_beta                 99.35(2)
_cell_angle_gamma                92.18(2)
_cell_volume                     1763.13
_cell_formula_units_Z            1
loop_
_atom_site_label
_atom_site_type_symbol
_atom_site_fract_x
_atom_site_fract_y
_atom_site_fract_z
Br1 Br -0.25200 -0.46430 -0.08001
Br2 Br 0.00000 0.00000 0.00000
Br3 Br 0.28600 0.24510 -0.16024
K1 K 0.38610 -0.22300 0.44820
O1 O 0.55290 -0.26190 0.59340
O2 O 0.62880 -0.30660 0.42750
O3 O 0.45430 -0.30000 0.27840
O4 O 0.19470 -0.26030 0.30200
O5 O 0.14230 -0.14840 0.47790
O6 O 0.30760 -0.19700 0.61310
O7 O 0.33880 -0.42690 0.61310
O8 O 0.52200 -0.02640 0.59660
O9 O 0.32230 -0.48560 0.30180
O10 O 0.35240 -0.05700 0.32590
N1 N 0.41600 -0.36620 0.76110
N2 N 0.57230 0.06400 0.74810
N3 N 0.21370 -0.56090 0.15740
N4 N 0.33110 -0.09290 0.17420
C1 C 0.39870 -0.20230 0.68920
C2 C 0.53050 -0.17170 0.67620
C3 C 0.68270 -0.27690 0.58520
C4 C 0.71430 -0.25470 0.50490
C5 C 0.66590 -0.29750 0.34710
C6 C 0.56420 -0.36620 0.26910
C7 C 0.34390 -0.35660 0.21170
C8 C 0.24610 -0.25820 0.22470
C9 C 0.09440 -0.18070 0.32060
C10 C 0.04260 -0.19800 0.39950
C11 C 0.10260 -0.15730 0.55750
C12 C 0.21700 -0.11200 0.63690
C13 C 0.38150 -0.34490 0.68390
C14 C 0.45990 -0.26990 0.85250
C15 C 0.40830 -0.49950 0.75830
C16 C 0.54280 -0.03700 0.67100
C17 C 0.60130 0.05850 0.84240
C18 C 0.57910 0.18970 0.74010
C19 C 0.29310 -0.47520 0.22710
C20 C 0.17800 -0.55430 0.06520
C21 C 0.16530 -0.67550 0.17230
C22 C 0.31690 -0.12610 0.24750
C23 C 0.28870 -0.17160 0.07840
C24 C 0.39720 0.03080 0.19330
H1 H 0.38770 -0.14420 0.74400
H2 H 0.59220 -0.17540 0.72530
H3 H 0.73670 -0.22590 0.63790
H4 H 0.69580 -0.36600 0.57540
H5 H 0.72240 -0.16230 0.51780
H6 H 0.79610 -0.28140 0.49320
H7 H 0.67550 -0.21100 0.35030
H8 H 0.74280 -0.33380 0.33640
H9 H 0.58920 -0.37230 0.21040
H10 H 0.54440 -0.45040 0.26600
H11 H 0.36160 -0.37950 0.14920
H12 H 0.18140 -0.27420 0.16910
H13 H 0.12670 -0.09480 0.33330
H14 H 0.02950 -0.20410 0.26490
H15 H -0.02910 -0.15170 0.40700
H16 H 0.01920 -0.28490 0.38440
H17 H 0.03630 -0.10070 0.57000
H18 H 0.06980 -0.23960 0.54590
H19 H 0.25060 -0.02790 0.64510
H20 H 0.19240 -0.11290 0.69100
K2 K -0.16710 0.16730 0.45090
O11 O 0.04880 0.29240 0.59650
O12 O 0.10720 0.15570 0.43050
O13 O -0.05850 0.19130 0.28640
O14 O -0.30080 0.25430 0.31230
O15 O -0.34920 0.37450 0.48760
O16 O -0.20050 0.31730 0.62280
O17 O -0.13530 0.09030 0.60990
O18 O 0.00270 0.53260 0.62810
O19 O -0.20100 -0.01110 0.28230
O20 O -0.14570 0.45460 0.31800
O21 O -0.40400 0.04440 0.44670
N5 N -0.08070 0.14440 0.76290
N6 N 0.06430 0.58540 0.77980
N7 N -0.29820 -0.06110 0.13690
N8 N -0.17680 0.39980 0.16460
C25 C -0.10520 0.31250 0.69530
C26 C 0.02410 0.35780 0.68640
C27 C 0.14870 0.21350 0.59060
C28 C 0.20090 0.19770 0.50760
C29 C 0.14860 0.17060 0.35370
C30 C 0.04720 0.11710 0.27070
C31 C -0.16660 0.14440 0.21370
C32 C -0.25560 0.24710 0.23010
C33 C -0.39930 0.33710 0.32890
C34 C -0.45070 0.32940 0.40900
C35 C -0.39540 0.38110 0.56920
C36 C -0.28100 0.41580 0.64590
C37 C -0.10880 0.16860 0.68540
C38 C -0.05260 0.23280 0.85490
C39 C -0.07250 0.01040 0.75320
C40 C 0.03180 0.49950 0.69760
C41 C 0.09870 0.56280 0.86620
C42 C 0.07140 0.72210 0.78740
C43 C -0.22410 0.01900 0.21370
C44 C -0.32740 -0.03460 0.05020
C45 C -0.34940 -0.18170 0.13770
C46 C -0.18850 0.37340 0.24130
C47 C -0.21990 0.30870 0.07010
C48 C -0.11120 0.51990 0.17440
H21 H -0.11840 0.36540 0.75160
H22 H 0.08720 0.34580 0.73070
H23 H 0.21330 0.25110 0.64150
H24 H 0.11750 0.13280 0.58650
H25 H 0.23740 0.28220 0.50940
H26 H 0.26380 0.14400 0.49890
H27 H 0.17010 0.25910 0.36310
H28 H 0.22240 0.12770 0.34160
H29 H 0.07500 0.12270 0.21560
H30 H 0.02070 0.03170 0.25860
H31 H -0.14500 0.12920 0.15340
H32 H -0.32490 0.22810 0.17720
H33 H -0.36540 0.42270 0.33860
H34 H -0.46500 0.31310 0.27350
H35 H -0.51960 0.38250 0.41730
H36 H -0.48190 0.24540 0.39640
H37 H -0.45220 0.44670 0.57920
H38 H -0.43600 0.30440 0.56040
H39 H -0.23900 0.49800 0.65130
H40 H -0.30980 0.42670 0.70080
K3 K 0.44860 0.24770 0.06060
O22 O -0.01620 0.42110 0.45910
O23 O 0.19680 0.52960 0.44470
O24 O -0.02440 -0.24860 0.07950
O25 O -0.22620 -0.22170 -0.16120
O26 O 0.27420 0.01400 -0.08270
O27 O 0.47060 -0.50960 -0.00090
loop_
_geom_bond_atom_site_label_1
_geom_bond_atom_site_label_2
_geom_bond_site_symmetry_1
_geom_bond_site_symmetry_2
K1 O1 1_555 1_555
O1 C2 1_555 1_555
O2 K1 1_555 1_555
O3 K1 1_555 1_555
O4 K1 1_555 1_555
O5 K1 1_555 1_555
O6 K1 1_555 1_555
O7 C13 1_555 1_555
O8 K1 1_555 1_555
O9 K1 1_555 1_555
O10 C22 1_555 1_555
N1 C13 1_555 1_555
N2 C16 1_555 1_555
N3 C19 1_555 1_555
N4 C22 1_555 1_555
C1 O6 1_555 1_555
C2 C1 1_555 1_555
C3 O1 1_555 1_555
C4 O2 1_555 1_555
C5 O2 1_555 1_555
C6 O3 1_555 1_555
C7 O3 1_555 1_555
C8 O4 1_555 1_555
C9 O4 1_555 1_555
C10 O5 1_555 1_555
C11 O5 1_555 1_555
C12 O6 1_555 1_555
C13 C1 1_555 1_555
C14 N1 1_555 1_555
C15 N1 1_555 1_555
C16 O8 1_555 1_555
C17 N2 1_555 1_555
C18 N2 1_555 1_555
C19 O9 1_555 1_555
C20 N3 1_555 1_555
C21 N3 1_555 1_555
C22 C8 1_555 1_555
C23 N4 1_555 1_555
C24 N4 1_555 1_555
H1 C1 1_555 1_555
H2 C2 1_555 1_555
H3 C3 1_555 1_555
H4 C3 1_555 1_555
H5 C4 1_555 1_555
H6 C4 1_555 1_555
H7 C5 1_555 1_555
H8 C5 1_555 1_555
H9 C6 1_555 1_555
H10 C6 1_555 1_555
H11 C7 1_555 1_555
H12 C8 1_555 1_555
H13 C9 1_555 1_555
H14 C9 1_555 1_555
H15 C10 1_555 1_555
H16 C10 1_555 1_555
H17 C11 1_555 1_555
H18 C11 1_555 1_555
H19 C12 1_555 1_555
H20 C12 1_555 1_555
K2 O11 1_555 1_555
O11 C26 1_555 1_555
O12 K2 1_555 1_555
O13 K2 1_555 1_555
O14 K2 1_555 1_555
O15 K2 1_555 1_555
O16 K2 1_555 1_555
O17 K2 1_555 1_555
O18 C40 1_555 1_555
O19 K2 1_555 1_555
O20 C46 1_555 1_555
O21 K2 1_555 1_555
N5 C37 1_555 1_555
N6 C40 1_555 1_555
N7 C43 1_555 1_555
N8 C46 1_555 1_555
C25 O16 1_555 1_555
C26 C25 1_555 1_555
C27 O11 1_555 1_555
C28 O12 1_555 1_555
C29 O12 1_555 1_555
C30 O13 1_555 1_555
C31 O13 1_555 1_555
C32 O14 1_555 1_555
C33 O14 1_555 1_555
C34 O15 1_555 1_555
C35 O15 1_555 1_555
C36 O16 1_555 1_555
C37 O17 1_555 1_555
C38 N5 1_555 1_555
C39 N5 1_555 1_555
C40 C26 1_555 1_555
C41 N6 1_555 1_555
C42 N6 1_555 1_555
C43 O19 1_555 1_555
C44 N7 1_555 1_555
C45 N7 1_555 1_555
C46 C32 1_555 1_555
C47 N8 1_555 1_555
C48 N8 1_555 1_555
H21 C25 1_555 1_555
H22 C26 1_555 1_555
H23 C27 1_555 1_555
H24 C27 1_555 1_555
H25 C28 1_555 1_555
H26 C28 1_555 1_555
H27 C29 1_555 1_555
H28 C29 1_555 1_555
H29 C30 1_555 1_555
H30 C30 1_555 1_555
H31 C31 1_555 1_555
H32 C32 1_555 1_555
H33 C33 1_555 1_555
H34 C33 1_555 1_555
H35 C34 1_555 1_555
H36 C34 1_555 1_555
H37 C35 1_555 1_555
H38 C35 1_555 1_555
H39 C36 1_555 1_555
H40 C36 1_555 1_555
C2 C16 1_555 1_555
C3 C4 1_555 1_555
C5 C6 1_555 1_555
C7 C8 1_555 1_555
C7 C19 1_555 1_555
C9 C10 1_555 1_555
C11 C12 1_555 1_555
C25 C37 1_555 1_555
C27 C28 1_555 1_555
C29 C30 1_555 1_555
C31 C32 1_555 1_555
C31 C43 1_555 1_555
C33 C34 1_555 1_555
C35 C36 1_555 1_555

#END
