
#######################################################################
#
#                 Cambridge Crystallographic Data Centre
#                                CCDC 
#
#######################################################################
#
# If this CIF has been generated from an entry in the Cambridge 
# Structural Database, then it will include bibliographic, chemical, 
# crystal, experimental, refinement or atomic coordinate data resulting 
# from the CCDC's data processing and validation procedures.
#
#######################################################################

data_BONWIM
_chemical_formula_moiety         'C20 H22 O6'
_chemical_name_systematic        
5-(3-Furyl)-2a'-(hydroxymethyl)-7'-methyl-3',4,4',5,5',7',8',8a'-octahydrospiro[furan-3,6'-naphtho[1,8-bc]furan]-2,2'(2a'H)-dione
_symmetry_cell_setting           monoclinic
_symmetry_space_group_name_H-M   'P 21'
_symmetry_Int_Tables_number      4
_space_group_name_Hall           'P 2yb'
loop_
_symmetry_equiv_pos_site_id
_symmetry_equiv_pos_as_xyz
1 x,y,z
2 -x,1/2+y,-z
_cell_length_a                   15.1870(6)
_cell_length_b                   6.7319(2)
_cell_length_c                   17.4007(7)
_cell_angle_alpha                90
_cell_angle_beta                 101.540(4)
_cell_angle_gamma                90
_cell_volume                     1743.04
_exptl_crystal_colour            colorless
_exptl_crystal_description       block
_cell_formula_units_Z            4
loop_
_atom_site_label
_atom_site_type_symbol
_atom_site_fract_x
_atom_site_fract_y
_atom_site_fract_z
O1 O 0.42355(10) 0.8824(3) 0.26625(9)
O2 O 0.44650(12) 1.0988(3) 0.36412(10)
O3 O 0.03969(10) 0.4275(3) 0.18639(10)
O4 O 0.14745(12) 0.2235(3) 0.24223(10)
C1 C 0.31785(14) 0.6797(4) 0.30556(11)
C2 C 0.37823(14) 0.6898(4) 0.24695(12)
H1 H 0.4222 0.5815 0.2561
C3 C 0.36546(15) 0.7878(4) 0.37713(12)
C4 C 0.12669(15) 0.3835(4) 0.21409(13)
C5 C 0.41595(15) 0.9418(4) 0.33859(13)
C6 C -0.04113(15) 0.6522(4) 0.09193(15)
C7 C 0.23145(14) 0.6320(4) 0.28879(12)
C8 C 0.18760(13) 0.5607(4) 0.20697(13)
O5 O 0.49013(19) 0.7639(4) 0.48586(12)
H2 H 0.5122 0.6916 0.5226
C9 C -0.13137(17) 0.5822(5) 0.08165(16)
H3 H -0.1574 0.5199 0.1193
C10 C 0.32620(15) 0.6830(5) 0.16394(12)
H4 H 0.3667 0.6638 0.1280
H5 H 0.2940 0.8067 0.1507
C11 C 0.12078(15) 0.7175(4) 0.16317(15)
H6 H 0.1303 0.8455 0.1891
H7 H 0.1281 0.7322 0.1093
C12 C 0.25983(15) 0.5089(4) 0.15776(13)
H8 H 0.2286 0.5013 0.1028
C13 C 0.30864(18) 0.3120(5) 0.17733(16)
H9 H 0.3346 0.3078 0.2323
H10 H 0.3553 0.2997 0.1476
H11 H 0.2668 0.2045 0.1643
C14 C 0.29886(17) 0.8792(5) 0.42250(14)
H12 H 0.3299 0.9159 0.4748
H13 H 0.2725 0.9981 0.3960
C15 C 0.02731(15) 0.6369(4) 0.16599(14)
H14 H 0.0047 0.7055 0.2078
C16 C -0.1712(2) 0.6224(6) 0.00851(18)
H15 H -0.2307 0.5923 -0.0133
O6 O -0.11388(15) 0.7127(5) -0.02987(13)
C17 C 0.17213(17) 0.6709(5) 0.34735(14)
H16 H 0.1373 0.5524 0.3522
H17 H 0.1304 0.7768 0.3277
C18 C 0.43474(19) 0.6514(5) 0.42807(15)
H18 H 0.4040 0.5503 0.4525
H19 H 0.4708 0.5856 0.3956
C19 C 0.22496(19) 0.7281(5) 0.42769(14)
H20 H 0.2519 0.6100 0.4545
H21 H 0.1843 0.7841 0.4584
C20 C -0.0339(2) 0.7303(7) 0.02327(18)
H22 H 0.0179 0.7886 0.0126
O7 O -0.06915(10) 0.8791(3) 0.30904(9)
O8 O -0.43604(10) 1.4019(3) 0.23388(9)
O9 O -0.46562(12) 1.5738(3) 0.12298(10)
C21 C -0.34828(14) 1.1524(3) 0.19764(11)
O10 O -0.18761(13) 0.6887(3) 0.27091(12)
O11 O -0.54770(13) 1.1945(4) 0.03114(10)
H23 H -0.5339 1.1731 -0.0113
C22 C -0.39480(15) 1.2103(4) 0.26229(12)
H24 H -0.4417 1.1132 0.2665
C23 C -0.21019(14) 1.0446(4) 0.28887(13)
C24 C -0.04495(15) 1.0869(4) 0.32360(14)
H25 H -0.0107 1.1314 0.2847
C25 C 0.01219(16) 1.1057(4) 0.40275(14)
C26 C -0.26501(14) 1.0841(4) 0.20717(13)
C27 C -0.43793(14) 1.4233(4) 0.15657(13)
C28 C -0.15856(17) 0.8510(4) 0.28817(14)
C29 C -0.40306(15) 1.2370(4) 0.12358(12)
C30 C -0.13415(16) 1.2008(4) 0.31093(17)
H26 H -0.1370 1.2972 0.2691
H27 H -0.1400 1.2705 0.3584
O12 O 0.13217(17) 1.1628(4) 0.49747(15)
C31 C -0.27096(16) 1.0426(5) 0.35146(13)
H28 H -0.2310 1.0556 0.4029
C32 C 0.09908(19) 1.1641(5) 0.41887(17)
H29 H 0.1318 1.2004 0.3813
C33 C -0.33038(17) 1.2291(5) 0.33945(13)
H30 H -0.3632 1.2412 0.3817
H31 H -0.2934 1.3466 0.3395
C34 C 0.0632(3) 1.0993(5) 0.53054(18)
H32 H 0.0672 1.0824 0.5842
C35 C -0.21995(18) 1.0617(5) 0.13809(14)
H33 H -0.1968 0.9275 0.1376
H34 H -0.1693 1.1521 0.1444
C36 C -0.0105(2) 1.0647(5) 0.47672(15)
H35 H -0.0658 1.0220 0.4856
C37 C -0.48440(17) 1.1009(4) 0.09177(15)
H36 H -0.4632 0.9794 0.0716
H37 H -0.5139 1.0656 0.1344
C38 C -0.3260(2) 0.8537(5) 0.35397(18)
H38 H -0.3598 0.8252 0.3024
H39 H -0.3664 0.8723 0.3893
H40 H -0.2863 0.7448 0.3718
C39 C -0.34506(17) 1.2800(5) 0.06312(14)
H41 H -0.3098 1.3992 0.0778
H42 H -0.3831 1.3016 0.0120
C40 C -0.2825(2) 1.1033(6) 0.05947(15)
H43 H -0.3184 0.9860 0.0431
H44 H -0.2466 1.1298 0.0203
loop_
_geom_bond_atom_site_label_1
_geom_bond_atom_site_label_2
_geom_bond_site_symmetry_1
_geom_bond_site_symmetry_2
O1 C2 1_555 1_555
O2 C5 1_555 1_555
O3 C4 1_555 1_555
O4 C4 1_555 1_555
C1 C2 1_555 1_555
C2 H1 1_555 1_555
C3 C1 1_555 1_555
C4 C8 1_555 1_555
C5 O1 1_555 1_555
C6 C9 1_555 1_555
C7 C1 1_555 1_555
C8 C7 1_555 1_555
O5 H2 1_555 1_555
C9 H3 1_555 1_555
C10 C2 1_555 1_555
H4 C10 1_555 1_555
H5 C10 1_555 1_555
C11 C8 1_555 1_555
H6 C11 1_555 1_555
H7 C11 1_555 1_555
C12 C8 1_555 1_555
H8 C12 1_555 1_555
C13 C12 1_555 1_555
H9 C13 1_555 1_555
H10 C13 1_555 1_555
H11 C13 1_555 1_555
C14 C3 1_555 1_555
H12 C14 1_555 1_555
H13 C14 1_555 1_555
C15 O3 1_555 1_555
H14 C15 1_555 1_555
C16 C9 1_555 1_555
H15 C16 1_555 1_555
O6 C16 1_555 1_555
C17 C7 1_555 1_555
H16 C17 1_555 1_555
H17 C17 1_555 1_555
C18 C3 1_555 1_555
H18 C18 1_555 1_555
H19 C18 1_555 1_555
C19 C14 1_555 1_555
H20 C19 1_555 1_555
H21 C19 1_555 1_555
C20 C6 1_555 1_555
H22 C20 1_555 1_555
O7 C24 1_555 1_555
O8 C22 1_555 1_555
O9 C27 1_555 1_555
C21 C22 1_555 1_555
O10 C28 1_555 1_555
O11 H23 1_555 1_555
C22 H24 1_555 1_555
C23 C26 1_555 1_555
C24 H25 1_555 1_555
C25 C24 1_555 1_555
C26 C21 1_555 1_555
C27 O8 1_555 1_555
C28 O7 1_555 1_555
C29 C21 1_555 1_555
C30 C23 1_555 1_555
H26 C30 1_555 1_555
H27 C30 1_555 1_555
O12 C32 1_555 1_555
C31 C23 1_555 1_555
H28 C31 1_555 1_555
C32 C25 1_555 1_555
H29 C32 1_555 1_555
C33 C22 1_555 1_555
H30 C33 1_555 1_555
H31 C33 1_555 1_555
C34 O12 1_555 1_555
H32 C34 1_555 1_555
C35 C26 1_555 1_555
H33 C35 1_555 1_555
H34 C35 1_555 1_555
C36 C25 1_555 1_555
H35 C36 1_555 1_555
C37 O11 1_555 1_555
H36 C37 1_555 1_555
H37 C37 1_555 1_555
C38 C31 1_555 1_555
H38 C38 1_555 1_555
H39 C38 1_555 1_555
H40 C38 1_555 1_555
C39 C29 1_555 1_555
H41 C39 1_555 1_555
H42 C39 1_555 1_555
C40 C35 1_555 1_555
H43 C40 1_555 1_555
H44 C40 1_555 1_555
C3 C5 1_555 1_555
C6 C15 1_555 1_555
O5 C18 1_555 1_555
C10 C12 1_555 1_555
C11 C15 1_555 1_555
O6 C20 1_555 1_555
C17 C19 1_555 1_555
C23 C28 1_555 1_555
C24 C30 1_555 1_555
C27 C29 1_555 1_555
C29 C37 1_555 1_555
C31 C33 1_555 1_555
C34 C36 1_555 1_555
C39 C40 1_555 1_555

#END
