
#######################################################################
#
#                 Cambridge Crystallographic Data Centre
#                                CCDC 
#
#######################################################################
#
# If this CIF has been generated from an entry in the Cambridge 
# Structural Database, then it will include bibliographic, chemical, 
# crystal, experimental, refinement or atomic coordinate data resulting 
# from the CCDC's data processing and validation procedures.
#
#######################################################################

data_BONXOT
_chemical_formula_moiety         'C20 H21 N3 O3'
_chemical_name_systematic        
2-Allyl-3-((1-benzyl-1H-1,2,3-triazol-4-yl)methoxy)-4-methoxyphenol
_symmetry_cell_setting           monoclinic
_symmetry_space_group_name_H-M   'C 2/c'
_symmetry_Int_Tables_number      15
_space_group_name_Hall           '-C 2yn'
loop_
_symmetry_equiv_pos_site_id
_symmetry_equiv_pos_as_xyz
1 x,y,z
2 -x,y,1/2-z
3 1/2+x,1/2+y,z
4 1/2-x,1/2+y,1/2-z
5 -x,-y,-z
6 x,-y,1/2+z
7 1/2-x,1/2-y,-z
8 1/2+x,1/2-y,1/2+z
_cell_length_a                   30.00(4)
_cell_length_b                   6.608(8)
_cell_length_c                   18.39(2)
_cell_angle_alpha                90
_cell_angle_beta                 91.67(2)
_cell_angle_gamma                90
_cell_volume                     3644.09
_exptl_crystal_colour            colorless
_exptl_crystal_description       Columnar
_cell_formula_units_Z            8
loop_
_atom_site_label
_atom_site_type_symbol
_atom_site_fract_x
_atom_site_fract_y
_atom_site_fract_z
C1 C 0.21646(18) -0.1270(11) 0.8359(3)
C2 C 0.22919(17) -0.2383(11) 0.7748(3)
H1 H 0.2547 -0.3234 0.7778
C3 C 0.20408(17) -0.2236(10) 0.7088(3)
H2 H 0.2127 -0.2989 0.6675
C4 C 0.16685(18) -0.0989(11) 0.7044(3)
C5 C 0.15271(18) 0.0118(11) 0.7661(3)
C6 C 0.17807(19) -0.0036(11) 0.8307(3)
C7 C 0.27558(19) -0.2641(11) 0.9102(3)
H3 H 0.2660 -0.4038 0.9012
H4 H 0.2887 -0.2533 0.9595
H5 H 0.2979 -0.2256 0.8748
C8 C 0.10997(19) 0.1374(13) 0.7612(4)
H6 H 0.0894 0.0732 0.7250
H7 H 0.0956 0.1309 0.8089
C9 C 0.1150(2) 0.3532(14) 0.7413(3)
H8 H 0.1355 0.3833 0.7045
C10 C 0.0933(3) 0.5101(14) 0.7701(5)
H9 H 0.0724 0.4878 0.8070
H10 H 0.0989 0.6437 0.7535
C11 C 0.1909(2) 0.2637(11) 0.9178(3)
H11 H 0.2036 0.3364 0.8760
H12 H 0.2158 0.2116 0.9489
C12 C 0.16242(19) 0.4028(12) 0.9602(3)
C13 C 0.1447(2) 0.5842(12) 0.9402(3)
H13 H 0.1476 0.6505 0.8947
C14 C 0.0957(2) 0.8411(11) 1.0061(3)
H14 H 0.1147 0.9583 0.9944
H15 H 0.0865 0.8556 1.0571
C15 C 0.0542(2) 0.8426(13) 0.9558(3)
C16 C 0.0294(2) 0.6625(12) 0.9419(3)
H16 H 0.0387 0.5375 0.9630
C17 C -0.0084(2) 0.6732(16) 0.8971(4)
H17 H -0.0256 0.5549 0.8875
C18 C -0.0210(3) 0.8533(17) 0.8666(4)
H18 H -0.0472 0.8578 0.8363
C19 C 0.0031(3) 1.0301(17) 0.8783(4)
H19 H -0.0061 1.1531 0.8558
C20 C 0.0410(2) 1.0240(12) 0.9237(3)
H20 H 0.0578 1.1437 0.9327
N1 N 0.15004(17) 0.3608(10) 1.0307(2)
N2 N 0.12470(18) 0.5177(10) 1.0531(2)
N3 N 0.12190(16) 0.6518(10) 0.9988(2)
O1 O 0.23810(12) -0.1325(7) 0.90321(17)
O2 O 0.16273(13) 0.0967(8) 0.8919(2)
O3 O 0.14126(13) -0.0797(8) 0.6409(2)
H21 H 0.1501 -0.1629 0.6099
loop_
_geom_bond_atom_site_label_1
_geom_bond_atom_site_label_2
_geom_bond_site_symmetry_1
_geom_bond_site_symmetry_2
C1 C2 1_555 1_555
C2 H1 1_555 1_555
C3 C2 1_555 1_555
H2 C3 1_555 1_555
C4 C3 1_555 1_555
C5 C4 1_555 1_555
C6 C1 1_555 1_555
C7 H3 1_555 1_555
H4 C7 1_555 1_555
H5 C7 1_555 1_555
C8 C5 1_555 1_555
H6 C8 1_555 1_555
H7 C8 1_555 1_555
C9 C8 1_555 1_555
H8 C9 1_555 1_555
C10 C9 1_555 1_555
H9 C10 1_555 1_555
H10 C10 1_555 1_555
C11 H11 1_555 1_555
H12 C11 1_555 1_555
C12 C11 1_555 1_555
C13 C12 1_555 1_555
H13 C13 1_555 1_555
C14 H14 1_555 1_555
H15 C14 1_555 1_555
C15 C14 1_555 1_555
C16 C15 1_555 1_555
H16 C16 1_555 1_555
C17 C16 1_555 1_555
H17 C17 1_555 1_555
C18 C17 1_555 1_555
H18 C18 1_555 1_555
C19 C18 1_555 1_555
H19 C19 1_555 1_555
C20 C15 1_555 1_555
H20 C20 1_555 1_555
N1 C12 1_555 1_555
N2 N1 1_555 1_555
N3 C13 1_555 1_555
O1 C1 1_555 1_555
O2 C6 1_555 1_555
O3 C4 1_555 1_555
H21 O3 1_555 1_555
C5 C6 1_555 1_555
C7 O1 1_555 1_555
C11 O2 1_555 1_555
C14 N3 1_555 1_555
C19 C20 1_555 1_555
N2 N3 1_555 1_555

#END
