
#######################################################################
#
#                 Cambridge Crystallographic Data Centre
#                                CCDC 
#
#######################################################################
#
# If this CIF has been generated from an entry in the Cambridge 
# Structural Database, then it will include bibliographic, chemical, 
# crystal, experimental, refinement or atomic coordinate data resulting 
# from the CCDC's data processing and validation procedures.
#
#######################################################################

data_BONXEJ
_chemical_formula_moiety         'C20 H20 N2 O2'
_chemical_name_systematic        
15-Vinyl-19-oxa-3,13-diazahexacyclo[14.3.1.0^2,10^.0^4,9^.0^10,15^.0^12,17^]icosa-2,4,6,8-tetraene-13-carbaldehyde
_symmetry_cell_setting           monoclinic
_symmetry_space_group_name_H-M   'P 21'
_symmetry_Int_Tables_number      4
_space_group_name_Hall           'P 2yb'
loop_
_symmetry_equiv_pos_site_id
_symmetry_equiv_pos_as_xyz
1 x,y,z
2 -x,1/2+y,-z
_cell_length_a                   7.6859(2)
_cell_length_b                   7.71266(16)
_cell_length_c                   13.5130(3)
_cell_angle_alpha                90
_cell_angle_beta                 105.195(3)
_cell_angle_gamma                90
_cell_volume                     773.029
_cell_formula_units_Z            2
loop_
_atom_site_label
_atom_site_type_symbol
_atom_site_fract_x
_atom_site_fract_y
_atom_site_fract_z
N1 N -0.30071(19) 0.60258(19) 0.43369(10)
N2 N -0.01700(18) 0.58664(17) 0.11518(9)
O1 O 0.11987(16) 0.46036(15) 0.44734(8)
O2 O -0.04617(18) 0.6361(2) -0.05340(9)
C1 C -0.1869(2) 0.5408(2) 0.38804(11)
C2 C -0.0609(2) 0.3944(2) 0.42893(11)
H1 H -0.0816 0.3525 0.4934
C3 C 0.0886(2) 0.5936(2) 0.22256(11)
H2 H 0.2078 0.6432 0.2271
C4 C -0.0151(2) 0.7097(2) 0.27862(11)
H3 H -0.0417 0.8196 0.2430
H4 H 0.0580 0.7324 0.3476
C5 C -0.1944(2) 0.6192(2) 0.28331(11)
C6 C -0.3473(2) 0.7446(2) 0.27600(12)
C7 C -0.4307(2) 0.8633(2) 0.20162(13)
H5 H -0.3932 0.8764 0.1420
C8 C -0.5723(3) 0.9626(2) 0.21815(16)
H6 H -0.6333 1.0391 0.1677
C9 C -0.6229(2) 0.9485(2) 0.30894(16)
H7 H -0.7161 1.0173 0.3190
C10 C -0.5375(2) 0.8341(2) 0.38488(14)
H8 H -0.5705 0.8264 0.4462
C11 C -0.4016(2) 0.7314(2) 0.36678(12)
C12 C -0.0994(2) 0.2495(2) 0.34952(12)
H9 H -0.2196 0.2037 0.3422
H10 H -0.0134 0.1559 0.3710
C13 C -0.0837(2) 0.3247(2) 0.24711(11)
H11 H -0.0960 0.2303 0.1972
C14 C 0.1083(2) 0.4081(2) 0.26426(11)
H12 H 0.1738 0.3413 0.2239
C15 C 0.2175(2) 0.4002(2) 0.37686(12)
H13 H 0.2549 0.2813 0.3938
H14 H 0.3255 0.4698 0.3853
C16 C -0.5445(3) 0.3875(3) 0.10061(13)
H15 H -0.666(3) 0.341(3) 0.0954(15)
H16 H -0.524(3) 0.430(3) 0.0341(16)
C17 C -0.4187(2) 0.3965(2) 0.18725(12)
H17 H -0.4493 0.3559 0.2453
C18 C -0.2300(2) 0.4653(2) 0.20301(11)
C19 C -0.2024(2) 0.5269(2) 0.10012(11)
H18 H -0.2267 0.4324 0.0511
H19 H -0.2853 0.6207 0.0731
C20 C 0.0433(2) 0.6371(2) 0.03632(13)
H20 H 0.1618 0.6760 0.0500
loop_
_geom_bond_atom_site_label_1
_geom_bond_atom_site_label_2
_geom_bond_site_symmetry_1
_geom_bond_site_symmetry_2
N1 C1 1_555 1_555
N2 C3 1_555 1_555
O1 C2 1_555 1_555
O2 C20 1_555 1_555
C1 C2 1_555 1_555
C2 H1 1_555 1_555
C3 H2 1_555 1_555
C4 C3 1_555 1_555
H3 C4 1_555 1_555
H4 C4 1_555 1_555
C5 C1 1_555 1_555
C6 C5 1_555 1_555
C7 C6 1_555 1_555
H5 C7 1_555 1_555
C8 C7 1_555 1_555
H6 C8 1_555 1_555
C9 C8 1_555 1_555
H7 C9 1_555 1_555
C10 C9 1_555 1_555
H8 C10 1_555 1_555
C11 N1 1_555 1_555
C12 C2 1_555 1_555
H9 C12 1_555 1_555
H10 C12 1_555 1_555
C13 C12 1_555 1_555
H11 C13 1_555 1_555
C14 C3 1_555 1_555
H12 C14 1_555 1_555
C15 O1 1_555 1_555
H13 C15 1_555 1_555
H14 C15 1_555 1_555
C16 H15 1_555 1_555
H16 C16 1_555 1_555
C17 C16 1_555 1_555
H17 C17 1_555 1_555
C18 C5 1_555 1_555
C19 N2 1_555 1_555
H18 C19 1_555 1_555
H19 C19 1_555 1_555
C20 N2 1_555 1_555
H20 C20 1_555 1_555
C4 C5 1_555 1_555
C6 C11 1_555 1_555
C10 C11 1_555 1_555
C13 C14 1_555 1_555
C13 C18 1_555 1_555
C14 C15 1_555 1_555
C17 C18 1_555 1_555
C18 C19 1_555 1_555

#END
