
#######################################################################
#
#                 Cambridge Crystallographic Data Centre
#                                CCDC 
#
#######################################################################
#
# If this CIF has been generated from an entry in the Cambridge 
# Structural Database, then it will include bibliographic, chemical, 
# crystal, experimental, refinement or atomic coordinate data resulting 
# from the CCDC's data processing and validation procedures.
#
#######################################################################

data_BONXAF
_chemical_formula_moiety         'C20 H22 N2 O2'
_chemical_name_systematic        
15-Ethyl-13-methyl-19-oxa-3,13-diazahexacyclo[14.3.1.0^2,10^.0^4,9^.0^10,15^.0^12,17^]icosa-2,4,6,8-tetraen-14-one
_symmetry_cell_setting           triclinic
_symmetry_space_group_name_H-M   'P 1'
_symmetry_Int_Tables_number      1
_space_group_name_Hall           'P 1'
loop_
_symmetry_equiv_pos_site_id
_symmetry_equiv_pos_as_xyz
1 x,y,z
_cell_length_a                   7.5745(3)
_cell_length_b                   8.1556(3)
_cell_length_c                   14.9064(5)
_cell_angle_alpha                74.991(3)
_cell_angle_beta                 84.522(3)
_cell_angle_gamma                71.324(3)
_cell_volume                     842.51
_cell_formula_units_Z            2
loop_
_atom_site_label
_atom_site_type_symbol
_atom_site_fract_x
_atom_site_fract_y
_atom_site_fract_z
O1 O -0.1787(2) -0.6539(2) -0.22237(12)
N1 N 0.0287(3) -0.5388(3) -0.18039(13)
C1 C -0.1256(3) -0.5886(3) -0.16803(17)
C2 C -0.0901(3) -0.6331(3) 0.00331(17)
H1 H -0.0390 -0.7623 0.0106
N2 N -0.5338(3) -0.2029(3) 0.00731(14)
C3 C -0.1325(3) -0.2732(3) -0.12829(16)
H2 H -0.1524 -0.2102 -0.1931
H3 H -0.1224 -0.1908 -0.0938
O2 O -0.0843(2) -0.3314(2) 0.07299(12)
C4 C 0.0464(3) -0.4315(3) -0.11849(16)
H4 H 0.1544 -0.3885 -0.1374
C5 C -0.2978(3) -0.3452(3) -0.08981(16)
C6 C -0.3637(3) -0.3066(3) 0.00400(16)
C7 C 0.0726(3) -0.5503(3) -0.02034(17)
H5 H 0.1887 -0.6483 -0.0200
C8 C -0.4757(3) -0.2422(3) -0.14376(17)
C9 C -0.7806(4) -0.0473(3) -0.1138(2)
H6 H -0.8646 0.0103 -0.0737
C10 C -0.3970(3) -0.6284(3) -0.06123(18)
H7 H -0.4779 -0.5783 -0.0141
H8 H -0.4677 -0.5881 -0.1180
C11 C -0.6051(4) -0.1578(3) -0.08510(18)
C12 C -0.2443(4) -0.3968(3) 0.08743(17)
H9 H -0.3140 -0.3694 0.1434
C13 C -0.6986(4) -0.1121(3) -0.26434(19)
H10 H -0.7324 -0.0977 -0.3249
C14 C -0.5220(4) -0.2188(3) -0.23419(18)
H11 H -0.4359 -0.2738 -0.2745
C15 C -0.1851(4) -0.5968(3) 0.09475(17)
H12 H -0.2934 -0.6388 0.1067
H13 H -0.0996 -0.6599 0.1458
C16 C -0.3456(4) -0.8321(4) -0.0303(2)
H14 H -0.4571 -0.8666 -0.0221
H15 H -0.2802 -0.8736 0.0274
H16 H -0.2673 -0.8836 -0.0768
C17 C 0.0895(4) -0.4541(4) 0.05227(18)
H17 H 0.1376 -0.5422 0.1090
H18 H 0.1787 -0.3894 0.0300
C18 C 0.1409(4) -0.5403(4) -0.26560(18)
H19 H 0.1133 -0.6166 -0.2980
H20 H 0.2708 -0.5840 -0.2504
H21 H 0.1125 -0.4214 -0.3044
C19 C -0.2311(3) -0.5539(3) -0.07830(16)
C20 C -0.8267(4) -0.0258(3) -0.2046(2)
H22 H -0.9442 0.0469 -0.2261
N3 N 0.1526(3) -0.9771(3) -0.50640(14)
O3 O -0.0587(2) -1.1214(2) -0.44073(12)
O4 O -0.0411(2) -0.3878(2) -0.60428(11)
C21 C -0.4368(3) -0.6119(3) -0.69366(16)
C22 C -0.2158(3) -0.4860(3) -0.46491(16)
H23 H -0.3396 -0.4870 -0.4417
H24 H -0.1714 -0.4197 -0.4315
C23 C -0.2218(3) -0.3992(3) -0.56774(16)
H25 H -0.3127 -0.2796 -0.5794
N4 N -0.4251(3) -0.4583(2) -0.66713(13)
C24 C -0.2792(3) -0.5128(3) -0.61690(15)
C25 C -0.1629(3) -0.7957(3) -0.49340(15)
C26 C -0.1722(3) -0.7108(3) -0.60215(16)
C27 C -0.3530(3) -0.8059(3) -0.45353(16)
H26 H -0.3807 -0.8996 -0.4730
H27 H -0.4463 -0.6943 -0.4802
C28 C 0.1649(3) -0.8024(3) -0.56043(16)
H28 H 0.2925 -0.8134 -0.5839
C29 C 0.0317(3) -0.7422(3) -0.64115(16)
H29 H 0.0616 -0.8327 -0.6763
H30 H 0.0439 -0.6327 -0.6823
C30 C -0.0191(3) -0.9831(3) -0.47709(16)
C31 C 0.1102(3) -0.6765(3) -0.49501(17)
H31 H 0.2017 -0.7241 -0.4451
C32 C 0.3062(4) -1.1367(3) -0.5100(2)
H32 H 0.2770 -1.2392 -0.4717
H33 H 0.4170 -1.1282 -0.4878
H34 H 0.3263 -1.1482 -0.5730
C33 C -0.3715(4) -0.8418(4) -0.34740(18)
H35 H -0.4950 -0.8465 -0.3287
H36 H -0.3489 -0.7478 -0.3272
H37 H -0.2822 -0.9536 -0.3199
C34 C -0.4091(4) -0.9315(3) -0.73131(17)
H38 H -0.4019 -1.0393 -0.7440
C35 C -0.2759(4) -0.9257(3) -0.67440(17)
H39 H -0.1796 -1.0279 -0.6496
C36 C -0.2910(3) -0.7648(3) -0.65597(15)
C37 C -0.0824(3) -0.6794(3) -0.44999(16)
H40 H -0.0665 -0.7324 -0.3832
C38 C -0.5671(3) -0.6173(3) -0.75075(17)
H41 H -0.6626 -0.5150 -0.7762
C39 C 0.1111(4) -0.4864(3) -0.54197(18)
H42 H 0.1059 -0.4231 -0.4944
H43 H 0.2274 -0.4915 -0.5763
C40 C -0.5512(4) -0.7797(4) -0.76903(17)
H44 H -0.6375 -0.7865 -0.8072
loop_
_geom_bond_atom_site_label_1
_geom_bond_atom_site_label_2
_geom_bond_site_symmetry_1
_geom_bond_site_symmetry_2
O1 C1 1_555 1_555
N1 C1 1_555 1_555
C1 C19 1_555 1_555
C2 H1 1_555 1_555
N2 C6 1_555 1_555
C3 H2 1_555 1_555
H3 C3 1_555 1_555
O2 C12 1_555 1_555
C4 N1 1_555 1_555
H4 C4 1_555 1_555
C5 C3 1_555 1_555
C6 C5 1_555 1_555
C7 C2 1_555 1_555
H5 C7 1_555 1_555
C8 C5 1_555 1_555
C9 H6 1_555 1_555
C10 H7 1_555 1_555
H8 C10 1_555 1_555
C11 N2 1_555 1_555
C12 C6 1_555 1_555
H9 C12 1_555 1_555
C13 H10 1_555 1_555
C14 C8 1_555 1_555
H11 C14 1_555 1_555
C15 C2 1_555 1_555
H12 C15 1_555 1_555
H13 C15 1_555 1_555
C16 C10 1_555 1_555
H14 C16 1_555 1_555
H15 C16 1_555 1_555
H16 C16 1_555 1_555
C17 O2 1_555 1_555
H17 C17 1_555 1_555
H18 C17 1_555 1_555
C18 N1 1_555 1_555
H19 C18 1_555 1_555
H20 C18 1_555 1_555
H21 C18 1_555 1_555
C19 C2 1_555 1_555
C20 C9 1_555 1_555
H22 C20 1_555 1_555
N3 C28 1_555 1_555
O3 C30 1_555 1_555
O4 C23 1_555 1_555
C21 N4 1_555 1_555
C22 H23 1_555 1_555
H24 C22 1_555 1_555
C23 C22 1_555 1_555
H25 C23 1_555 1_555
N4 C24 1_555 1_555
C24 C23 1_555 1_555
C25 C26 1_555 1_555
C26 C24 1_555 1_555
C27 C25 1_555 1_555
H26 C27 1_555 1_555
H27 C27 1_555 1_555
C28 H28 1_555 1_555
C29 C26 1_555 1_555
H29 C29 1_555 1_555
H30 C29 1_555 1_555
C30 N3 1_555 1_555
C31 C28 1_555 1_555
H31 C31 1_555 1_555
C32 N3 1_555 1_555
H32 C32 1_555 1_555
H33 C32 1_555 1_555
H34 C32 1_555 1_555
C33 C27 1_555 1_555
H35 C33 1_555 1_555
H36 C33 1_555 1_555
H37 C33 1_555 1_555
C34 H38 1_555 1_555
C35 C34 1_555 1_555
H39 C35 1_555 1_555
C36 C21 1_555 1_555
C37 C22 1_555 1_555
H40 C37 1_555 1_555
C38 C21 1_555 1_555
H41 C38 1_555 1_555
C39 O4 1_555 1_555
H42 C39 1_555 1_555
H43 C39 1_555 1_555
C40 C34 1_555 1_555
H44 C40 1_555 1_555
C3 C4 1_555 1_555
C4 C7 1_555 1_555
C5 C19 1_555 1_555
C7 C17 1_555 1_555
C8 C11 1_555 1_555
C9 C11 1_555 1_555
C10 C19 1_555 1_555
C12 C15 1_555 1_555
C13 C14 1_555 1_555
C13 C20 1_555 1_555
C25 C30 1_555 1_555
C25 C37 1_555 1_555
C26 C36 1_555 1_555
C28 C29 1_555 1_555
C31 C37 1_555 1_555
C31 C39 1_555 1_555
C35 C36 1_555 1_555
C38 C40 1_555 1_555

#END
