
#######################################################################
#
#                 Cambridge Crystallographic Data Centre
#                                CCDC 
#
#######################################################################
#
# If this CIF has been generated from an entry in the Cambridge 
# Structural Database, then it will include bibliographic, chemical, 
# crystal, experimental, refinement or atomic coordinate data resulting 
# from the CCDC's data processing and validation procedures.
#
#######################################################################

data_BONYUA
_chemical_formula_moiety         'C16 H19 N1 O4 S1'
_chemical_name_systematic        
N-(3-Hydroxy-4-methoxy-2-propylphenyl)benzenesulfonamide
_symmetry_cell_setting           orthorhombic
_symmetry_space_group_name_H-M   'P b c a'
_symmetry_Int_Tables_number      61
_space_group_name_Hall           '-P 2ac 2ab'
loop_
_symmetry_equiv_pos_site_id
_symmetry_equiv_pos_as_xyz
1 x,y,z
2 1/2-x,-y,1/2+z
3 -x,1/2+y,1/2-z
4 1/2+x,1/2-y,-z
5 -x,-y,-z
6 1/2+x,y,1/2-z
7 x,1/2-y,1/2+z
8 1/2-x,1/2+y,z
_cell_length_a                   14.0992(8)
_cell_length_b                   14.5823(9)
_cell_length_c                   15.0416(9)
_cell_angle_alpha                90
_cell_angle_beta                 90
_cell_angle_gamma                90
_cell_volume                     3092.53
_exptl_crystal_colour            colorless
_cell_formula_units_Z            8
loop_
_atom_site_label
_atom_site_type_symbol
_atom_site_fract_x
_atom_site_fract_y
_atom_site_fract_z
S1 S 0.58313(2) 0.10725(2) 0.58074(2)
N1 N 0.59622(9) -0.00218(8) 0.60103(8)
H1 H 0.5880 -0.0432 0.5588
O1 O 0.83135(7) -0.09181(9) 0.81901(7)
O2 O 0.69877(8) -0.12264(8) 0.93960(7)
O3 O 0.66836(7) 0.15333(7) 0.60713(7)
O4 O 0.55269(8) 0.11221(7) 0.48875(7)
C1 C 0.73863(10) -0.07474(10) 0.79693(10)
C2 C 0.66651(10) -0.09077(10) 0.85946(10)
C3 C 0.57238(10) -0.07589(11) 0.83734(10)
H2 H 0.5236 -0.0864 0.8797
C4 C 0.55031(10) -0.04522(10) 0.75198(10)
C5 C 0.62177(10) -0.02993(10) 0.69045(9)
C6 C 0.71799(10) -0.04358(10) 0.71162(9)
C7 C 0.79689(10) -0.02963(10) 0.64471(10)
H3 H 0.7758 0.0147 0.5989
H4 H 0.8528 -0.0032 0.6752
C8 C 0.82492(11) -0.11815(11) 0.60029(11)
H5 H 0.8392 -0.1692 0.6372
C9 C 0.83089(14) -0.12942(13) 0.51318(12)
H6 H 0.8509 -0.1924 0.5001
H7 H 0.8774 -0.0863 0.4888
H8 H 0.7688 -0.1180 0.4861
C10 C 0.62859(12) -0.15417(13) 1.00114(10)
H9 H 0.6597 -0.1757 1.0555
H10 H 0.5927 -0.2047 0.9744
H11 H 0.5853 -0.1038 1.0156
C11 C 0.49082(10) 0.14845(10) 0.64901(10)
C12 C 0.51439(11) 0.19386(11) 0.72755(10)
H12 H 0.5789 0.2045 0.7426
C13 C 0.44212(13) 0.22337(11) 0.78350(11)
H13 H 0.4571 0.2543 0.8373
C14 C 0.34788(12) 0.20759(12) 0.76084(12)
H14 H 0.2987 0.2283 0.7990
C15 C 0.32528(12) 0.16172(12) 0.68279(12)
H15 H 0.2607 0.1509 0.6681
C16 C 0.39653(11) 0.13150(11) 0.62592(11)
H16 H 0.3813 0.1000 0.5725
H17 H 0.4843 -0.0367 0.7349
H18 H 0.8329 -0.1096 0.8742
loop_
_geom_bond_atom_site_label_1
_geom_bond_atom_site_label_2
_geom_bond_site_symmetry_1
_geom_bond_site_symmetry_2
S1 N1 1_555 1_555
N1 H1 1_555 1_555
O1 C1 1_555 1_555
O2 C2 1_555 1_555
O3 S1 1_555 1_555
O4 S1 1_555 1_555
C1 C2 1_555 1_555
C2 C3 1_555 1_555
C3 H2 1_555 1_555
C4 C3 1_555 1_555
C5 N1 1_555 1_555
C6 C1 1_555 1_555
C7 C6 1_555 1_555
H3 C7 1_555 1_555
H4 C7 1_555 1_555
C8 C7 1_555 1_555
H5 C8 1_555 1_555
C9 C8 1_555 1_555
H6 C9 1_555 1_555
H7 C9 1_555 1_555
H8 C9 1_555 1_555
C10 O2 1_555 1_555
H9 C10 1_555 1_555
H10 C10 1_555 1_555
H11 C10 1_555 1_555
C11 S1 1_555 1_555
C12 C11 1_555 1_555
H12 C12 1_555 1_555
C13 C12 1_555 1_555
H13 C13 1_555 1_555
C14 C13 1_555 1_555
H14 C14 1_555 1_555
C15 C14 1_555 1_555
H15 C15 1_555 1_555
C16 C11 1_555 1_555
H16 C16 1_555 1_555
H17 C4 1_555 1_555
H18 O1 1_555 1_555
C4 C5 1_555 1_555
C5 C6 1_555 1_555
C15 C16 1_555 1_555

#END
