
#######################################################################
#
#                 Cambridge Crystallographic Data Centre
#                                CCDC 
#
#######################################################################
#
# If this CIF has been generated from an entry in the Cambridge 
# Structural Database, then it will include bibliographic, chemical, 
# crystal, experimental, refinement or atomic coordinate data resulting 
# from the CCDC's data processing and validation procedures.
#
#######################################################################

data_BOPCAM
_chemical_formula_moiety         'C18 H12 Cl1 N3 O1'
_chemical_name_systematic        
4-(4-Chlorophenyl)-6-phenyl[1,2]oxazolo[3,4-b]pyridin-3-amine
_symmetry_cell_setting           triclinic
_symmetry_space_group_name_H-M   'P -1'
_symmetry_Int_Tables_number      2
_space_group_name_Hall           '-P 1'
loop_
_symmetry_equiv_pos_site_id
_symmetry_equiv_pos_as_xyz
1 x,y,z
2 -x,-y,-z
_cell_length_a                   8.0860(18)
_cell_length_b                   9.066(2)
_cell_length_c                   10.859(3)
_cell_angle_alpha                83.482(5)
_cell_angle_beta                 79.116(5)
_cell_angle_gamma                88.696(5)
_cell_volume                     776.675
_exptl_crystal_colour            yellow
_exptl_crystal_description       block
_cell_formula_units_Z            2
loop_
_atom_site_label
_atom_site_type_symbol
_atom_site_fract_x
_atom_site_fract_y
_atom_site_fract_z
Cl1 Cl 0.25551(17) 1.02670(19) 0.76737(15)
N1 N 1.2273(3) 0.5156(3) 0.7217(2)
N2 N 1.2292(4) 0.5904(3) 0.5103(3)
N3 N 0.8715(4) 0.6551(4) 0.9099(3)
O1 O 1.1209(4) 0.5352(4) 0.8404(3)
C1 C 0.9184(4) 0.7374(4) 0.5967(3)
C2 C 1.1432(4) 0.6680(4) 0.4295(3)
C3 C 1.0093(4) 0.6589(4) 0.6818(3)
C4 C 1.2213(5) 0.6735(4) 0.2933(3)
C5 C 0.7558(4) 0.8126(4) 0.6376(3)
C6 C 1.1579(5) 0.5907(4) 0.6309(3)
C7 C 0.4500(5) 0.9458(5) 0.7150(4)
C8 C 0.9896(5) 0.7389(4) 0.4707(3)
H1 H 0.9339 0.7888 0.4108
C9 C 0.6172(5) 0.7866(5) 0.5841(4)
H2 H 0.6275 0.7230 0.5217
C10 C 1.3846(5) 0.6228(5) 0.2591(4)
H3 H 1.4429 0.5834 0.3213
C11 C 1.1394(5) 0.7325(5) 0.1987(4)
H4 H 1.0297 0.7671 0.2200
C12 C 0.5831(6) 0.9760(5) 0.7693(4)
H5 H 0.5707 1.0401 0.8316
C13 C 1.3775(6) 0.6899(5) 0.0397(4)
H6 H 1.4297 0.6951 -0.0447
C14 C 0.7381(5) 0.9087(4) 0.7295(4)
H7 H 0.8301 0.9285 0.7651
C15 C 1.2159(6) 0.7417(5) 0.0726(4)
H8 H 1.1582 0.7828 0.0105
C16 C 0.9939(5) 0.6177(4) 0.8151(3)
C17 C 1.4619(6) 0.6299(5) 0.1339(4)
H9 H 1.5711 0.5942 0.1125
C18 C 0.4658(5) 0.8539(5) 0.6228(5)
H10 H 0.3740 0.8368 0.5861
H11? H 1.2354 0.4186 0.7106
H12? H 1.3313 0.5504 0.7195
H13? H 0.7715 0.6486 0.8880
H14? H 0.8878 0.7478 0.9246
H15? H 0.8748 0.5936 0.9794
loop_
_geom_bond_atom_site_label_1
_geom_bond_atom_site_label_2
_geom_bond_site_symmetry_1
_geom_bond_site_symmetry_2
Cl1 C7 1_555 1_555
N1 O1 1_555 1_555
N2 C2 1_555 1_555
N3 C16 1_555 1_555
O1 C16 1_555 1_555
C1 C3 1_555 1_555
C2 C4 1_555 1_555
C3 C6 1_555 1_555
C4 C10 1_555 1_555
C5 C1 1_555 1_555
C6 N1 1_555 1_555
C7 C12 1_555 1_555
C8 C1 1_555 1_555
H1 C8 1_555 1_555
C9 C5 1_555 1_555
H2 C9 1_555 1_555
C10 H3 1_555 1_555
C11 C4 1_555 1_555
H4 C11 1_555 1_555
C12 H5 1_555 1_555
C13 H6 1_555 1_555
C14 C5 1_555 1_555
H7 C14 1_555 1_555
C15 C11 1_555 1_555
H8 C15 1_555 1_555
C16 C3 1_555 1_555
C17 C10 1_555 1_555
H9 C17 1_555 1_555
C18 C7 1_555 1_555
H10 C18 1_555 1_555
N2 C6 1_555 1_555
C2 C8 1_555 1_555
C9 C18 1_555 1_555
C12 C14 1_555 1_555
C13 C15 1_555 1_555
C13 C17 1_555 1_555

#END
