
#######################################################################
#
#                 Cambridge Crystallographic Data Centre
#                                CCDC 
#
#######################################################################
#
# If this CIF has been generated from an entry in the Cambridge 
# Structural Database, then it will include bibliographic, chemical, 
# crystal, experimental, refinement or atomic coordinate data resulting 
# from the CCDC's data processing and validation procedures.
#
#######################################################################

data_BOPDUG
_chemical_name_common            
5-Anilino-4-phenyl-2,4-dihydro-3H-1,2,4-triazole-3-thione
_chemical_formula_moiety         'C14 H12 N4 S1'
_chemical_name_systematic        
3-Phenylamino-4-phenyl-1,4-dihydro-1,2,4-triazole-5-thione
_symmetry_cell_setting           monoclinic
_symmetry_space_group_name_H-M   'C c'
_symmetry_Int_Tables_number      9
_space_group_name_Hall           'C -2yc'
loop_
_symmetry_equiv_pos_site_id
_symmetry_equiv_pos_as_xyz
1 x,y,z
2 x,-y,1/2+z
3 1/2+x,1/2+y,z
4 1/2+x,1/2-y,1/2+z
_cell_length_a                   15.232(3)
_cell_length_b                   11.758(2)
_cell_length_c                   8.6025(17)
_cell_angle_alpha                90
_cell_angle_beta                 121.66(3)
_cell_angle_gamma                90
_cell_volume                     1311.4
_exptl_crystal_colour            white
_exptl_crystal_description       block
_chemical_melting_point          '178-179 deg.C'
_cell_formula_units_Z            4
_exptl_crystal_recrystallization_method dimethylformamide/ethanol
loop_
_atom_site_label
_atom_site_type_symbol
_atom_site_fract_x
_atom_site_fract_y
_atom_site_fract_z
S1 S 0.15259(6) 0.11146(8) 0.09397(9)
N1 N -0.1891(2) 0.1901(3) -0.4915(3)
H1 H -0.2110 0.2370 -0.4425
N2 N -0.0604(2) 0.0505(2) -0.4148(4)
N3 N -0.03829(19) 0.1692(2) -0.1970(3)
N4 N 0.0304(2) 0.0311(2) -0.2503(3)
H2 H 0.0726 -0.0224 -0.2355
C1 C -0.3205(3) 0.2640(3) -0.7792(4)
H3 H -0.3256 0.3253 -0.7159
C2 C -0.3832(3) 0.2593(4) -0.9660(5)
H4 H -0.4313 0.3166 -1.0281
C3 C -0.3755(3) 0.1708(4) -1.0612(5)
H5 H -0.4182 0.1673 -1.1876
C4 C -0.3043(3) 0.0879(3) -0.9680(5)
H6 H -0.2978 0.0284 -1.0325
C5 C -0.2414(3) 0.0901(3) -0.7793(4)
H7 H -0.1939 0.0323 -0.7176
C6 C -0.2502(3) 0.1792(3) -0.6850(4)
C7 C -0.0224(3) 0.3667(3) -0.1092(5)
H8 H 0.0215 0.3781 -0.1524
C8 C -0.0498(4) 0.4562(3) -0.0406(5)
H9 H -0.0249 0.5288 -0.0380
C9 C -0.1143(3) 0.4379(3) 0.0243(5)
H10 H -0.1339 0.4988 0.0684
C10 C -0.1492(3) 0.3324(4) 0.0242(5)
H11 H -0.1919 0.3207 0.0700
C11 C -0.1218(3) 0.2419(3) -0.0437(5)
H12 H -0.1448 0.1689 -0.0423
C12 C -0.0602(2) 0.2612(3) -0.1132(4)
C13 C 0.0469(2) 0.1010(3) -0.1186(4)
C14 C -0.1011(3) 0.1353(3) -0.3776(4)
loop_
_geom_bond_atom_site_label_1
_geom_bond_atom_site_label_2
_geom_bond_site_symmetry_1
_geom_bond_site_symmetry_2
S1 C13 1_555 1_555
N1 H1 1_555 1_555
N2 N4 1_555 1_555
N3 C12 1_555 1_555
N4 H2 1_555 1_555
C1 H3 1_555 1_555
C2 C1 1_555 1_555
H4 C2 1_555 1_555
C3 C2 1_555 1_555
H5 C3 1_555 1_555
C4 C3 1_555 1_555
H6 C4 1_555 1_555
C5 C4 1_555 1_555
H7 C5 1_555 1_555
C6 N1 1_555 1_555
C7 H8 1_555 1_555
C8 C7 1_555 1_555
H9 C8 1_555 1_555
C9 C8 1_555 1_555
H10 C9 1_555 1_555
C10 C9 1_555 1_555
H11 C10 1_555 1_555
C11 C10 1_555 1_555
H12 C11 1_555 1_555
C12 C7 1_555 1_555
C13 N3 1_555 1_555
C14 N1 1_555 1_555
N2 C14 1_555 1_555
N3 C14 1_555 1_555
N4 C13 1_555 1_555
C1 C6 1_555 1_555
C5 C6 1_555 1_555
C11 C12 1_555 1_555

#END
