
#######################################################################
#
#                 Cambridge Crystallographic Data Centre
#                                CCDC 
#
#######################################################################
#
# If this CIF has been generated from an entry in the Cambridge 
# Structural Database, then it will include bibliographic, chemical, 
# crystal, experimental, refinement or atomic coordinate data resulting 
# from the CCDC's data processing and validation procedures.
#
#######################################################################

data_BOPHUK
_chemical_formula_moiety         'C23 H36 O3'
_chemical_name_systematic        
'Ethyl 13-formyl-13-methyl-8-vinylpodocarpan-15-oate'
_chemical_properties_biological  'alpha-glucosidase inhibitor'
_symmetry_cell_setting           orthorhombic
_symmetry_space_group_name_H-M   'P 21 21 21'
_symmetry_Int_Tables_number      19
_space_group_name_Hall           'P 2ac 2ab'
loop_
_symmetry_equiv_pos_site_id
_symmetry_equiv_pos_as_xyz
1 x,y,z
2 1/2-x,-y,1/2+z
3 -x,1/2+y,1/2-z
4 1/2+x,1/2-y,-z
_cell_length_a                   8.1921(16)
_cell_length_b                   12.507(3)
_cell_length_c                   20.728(4)
_cell_angle_alpha                90
_cell_angle_beta                 90
_cell_angle_gamma                90
_cell_volume                     2123.76
_exptl_crystal_colour            colorless
_exptl_crystal_description       prismatic
_cell_formula_units_Z            4
loop_
_atom_site_label
_atom_site_type_symbol
_atom_site_fract_x
_atom_site_fract_y
_atom_site_fract_z
C1 C 0.5336(4) 0.4518(2) 0.92024(11)
H1 H 0.5626 0.3797 0.9072
H2 H 0.6332 0.4936 0.9218
C2 C 0.4591(4) 0.4478(3) 0.98801(11)
H3 H 0.5334 0.4106 1.0167
H4 H 0.4458 0.5201 1.0041
C3 C 0.2950(4) 0.3917(2) 0.98874(12)
H5 H 0.2500 0.3959 1.0319
H6 H 0.3114 0.3168 0.9786
C4 C 0.1713(3) 0.4385(2) 0.94119(10)
C5 C 0.2521(3) 0.43997(19) 0.87244(9)
H7 H 0.2812 0.3651 0.8646
C6 C 0.1390(3) 0.4682(2) 0.81610(9)
H8 H 0.0370 0.4295 0.8203
H9 H 0.1149 0.5441 0.8168
C7 C 0.2205(3) 0.4392(2) 0.75258(10)
H10 H 0.1463 0.4552 0.7174
H11 H 0.2418 0.3629 0.7519
C8 C 0.3811(3) 0.49929(18) 0.74172(10)
C9 C 0.4937(3) 0.47702(18) 0.80056(9)
H12 H 0.5107 0.3995 0.8000
C10 C 0.4186(3) 0.50049(18) 0.86852(9)
C11 C 0.6642(3) 0.5245(2) 0.78930(11)
H13 H 0.6554 0.6015 0.7848
H14 H 0.7326 0.5097 0.8264
C12 C 0.7436(3) 0.4779(2) 0.72889(11)
H15 H 0.8477 0.5130 0.7220
H16 H 0.7649 0.4026 0.7360
C13 C 0.6403(3) 0.4901(2) 0.66851(11)
C14 C 0.4662(3) 0.4515(2) 0.68106(10)
H17 H 0.4682 0.3743 0.6854
H18 H 0.4003 0.4683 0.6435
C15 C 0.3523(4) 0.6173(2) 0.72917(10)
H19 H 0.4304 0.6642 0.7453
C16 C 0.2300(5) 0.6606(3) 0.69826(14)
H20 H 0.1483 0.6175 0.6811
H21 H 0.2247 0.7344 0.6934
C17 C 0.6439(4) 0.6028(3) 0.64295(13)
H22 H 0.5623 0.6226 0.6141
C18 C 0.7138(4) 0.4233(2) 0.61274(12)
H23 H 0.8232 0.4470 0.6043
H24 H 0.6486 0.4324 0.5747
H25 H 0.7152 0.3492 0.6247
C19 C 0.0190(4) 0.3657(2) 0.94046(12)
H26 H -0.0301 0.3652 0.9825
H27 H 0.0506 0.2943 0.9289
H28 H -0.0581 0.3923 0.9095
C20 C 0.1135(3) 0.5475(2) 0.96543(11)
C21 C 0.4016(3) 0.6213(2) 0.88071(11)
H29 H 0.3548 0.6329 0.9226
H30 H 0.3321 0.6521 0.8484
H31 H 0.5073 0.6542 0.8788
C22 C -0.0449(5) 0.7023(2) 0.94249(12)
H32 H -0.1306 0.6961 0.9745
H33 H 0.0437 0.7436 0.9610
C23 C -0.1074(4) 0.7563(3) 0.88549(13)
H34 H -0.1443 0.8266 0.8970
H35 H -0.1970 0.7161 0.8680
H36 H -0.0224 0.7617 0.8538
O1 O 0.1461(3) 0.58487(17) 1.01738(8)
O2 O 0.0134(3) 0.59649(14) 0.92454(7)
O3 O 0.7432(4) 0.6686(2) 0.65680(14)
loop_
_geom_bond_atom_site_label_1
_geom_bond_atom_site_label_2
_geom_bond_site_symmetry_1
_geom_bond_site_symmetry_2
C1 H1 1_555 1_555
H2 C1 1_555 1_555
C2 C1 1_555 1_555
H3 C2 1_555 1_555
H4 C2 1_555 1_555
C3 C2 1_555 1_555
H5 C3 1_555 1_555
H6 C3 1_555 1_555
C4 C3 1_555 1_555
C5 C4 1_555 1_555
H7 C5 1_555 1_555
C6 C5 1_555 1_555
H8 C6 1_555 1_555
H9 C6 1_555 1_555
C7 C6 1_555 1_555
H10 C7 1_555 1_555
H11 C7 1_555 1_555
C8 C7 1_555 1_555
C9 C8 1_555 1_555
H12 C9 1_555 1_555
C10 C1 1_555 1_555
C11 C9 1_555 1_555
H13 C11 1_555 1_555
H14 C11 1_555 1_555
C12 C11 1_555 1_555
H15 C12 1_555 1_555
H16 C12 1_555 1_555
C13 C12 1_555 1_555
C14 C8 1_555 1_555
H17 C14 1_555 1_555
H18 C14 1_555 1_555
C15 C8 1_555 1_555
H19 C15 1_555 1_555
C16 C15 1_555 1_555
H20 C16 1_555 1_555
H21 C16 1_555 1_555
C17 C13 1_555 1_555
H22 C17 1_555 1_555
C18 C13 1_555 1_555
H23 C18 1_555 1_555
H24 C18 1_555 1_555
H25 C18 1_555 1_555
C19 C4 1_555 1_555
H26 C19 1_555 1_555
H27 C19 1_555 1_555
H28 C19 1_555 1_555
C20 C4 1_555 1_555
C21 C10 1_555 1_555
H29 C21 1_555 1_555
H30 C21 1_555 1_555
H31 C21 1_555 1_555
C22 H32 1_555 1_555
H33 C22 1_555 1_555
C23 C22 1_555 1_555
H34 C23 1_555 1_555
H35 C23 1_555 1_555
H36 C23 1_555 1_555
O1 C20 1_555 1_555
O2 C20 1_555 1_555
O3 C17 1_555 1_555
C5 C10 1_555 1_555
C9 C10 1_555 1_555
C13 C14 1_555 1_555
C22 O2 1_555 1_555

#END
