
#######################################################################
#
#                 Cambridge Crystallographic Data Centre
#                                CCDC 
#
#######################################################################
#
# If this CIF has been generated from an entry in the Cambridge 
# Structural Database, then it will include bibliographic, chemical, 
# crystal, experimental, refinement or atomic coordinate data resulting 
# from the CCDC's data processing and validation procedures.
#
#######################################################################

data_BOPJIA
_chemical_name_common            (2',4'-bis(Benzobenzoy)-(4-nitrostilbene))
_chemical_formula_moiety         'C42 H31 N1 O6'
_chemical_name_systematic        
((4-(2-(4-Nitrophenyl)vinyl)-1,3-phenylene)-bis(oxymethylene-4,1-phenylene))-bis(phenylmethanone)
_symmetry_cell_setting           triclinic
_symmetry_space_group_name_H-M   'P -1'
_symmetry_Int_Tables_number      2
_space_group_name_Hall           '-P 1'
loop_
_symmetry_equiv_pos_site_id
_symmetry_equiv_pos_as_xyz
1 x,y,z
2 -x,-y,-z
_cell_length_a                   7.6682(12)
_cell_length_b                   13.139(2)
_cell_length_c                   17.666(2)
_cell_angle_alpha                71.579(2)
_cell_angle_beta                 82.682(3)
_cell_angle_gamma                75.611(2)
_cell_volume                     1633.41
_exptl_crystal_colour            yellow
_exptl_crystal_description       platelike
_chemical_melting_point          128-130deg.C
_cell_formula_units_Z            2
_exptl_crystal_recrystallization_method benzene
loop_
_atom_site_label
_atom_site_type_symbol
_atom_site_fract_x
_atom_site_fract_y
_atom_site_fract_z
N1 N 1.6270(15) -0.3602(9) 0.4435(6)
O1 O 1.0534(7) 0.2292(4) 0.5324(3)
O2 O 0.6690(7) 0.3298(4) 0.7407(3)
O3 O 1.2733(7) 0.3853(4) 0.1102(3)
O4 O 0.1165(7) 0.7873(4) 0.8125(3)
O5 O 1.6573(13) -0.3337(8) 0.3752(5)
O6 O 1.6670(10) -0.4508(6) 0.4972(5)
C1 C 0.9739(10) 0.2017(7) 0.6065(5)
C2 C 0.8574(9) 0.2801(6) 0.6389(4)
H1 H 0.8335 0.3543 0.6099
C3 C 0.7793(10) 0.2451(7) 0.7144(5)
C4 C 0.8124(10) 0.1380(6) 0.7592(4)
H2 H 0.7581 0.1167 0.8101
C5 C 0.9288(10) 0.0613(6) 0.7274(5)
H3 H 0.9506 -0.0123 0.7576
C6 C 1.0129(10) 0.0894(7) 0.6532(5)
C7 C 1.1307(12) -0.0012(8) 0.6253(5)
H4 H 1.1394 -0.0695 0.6635
C8 C 1.2155(12) -0.0063(9) 0.5658(6)
H5 H 1.2172 0.0613 0.5280
C9 C 1.3219(12) -0.1046(9) 0.5408(7)
C10 C 1.3759(11) -0.2080(9) 0.5901(5)
H6 H 1.3490 -0.2222 0.6448
C11 C 1.4697(12) -0.2918(8) 0.5605(7)
H7 H 1.5004 -0.3622 0.5958
C12 C 1.5192(13) -0.2767(9) 0.4825(7)
C13 C 1.4676(11) -0.1709(9) 0.4306(5)
H8 H 1.4993 -0.1567 0.3763
C14 C 1.3691(11) -0.0875(7) 0.4604(6)
H9 H 1.3334 -0.0175 0.4252
C15 C 0.9864(9) 0.3325(5) 0.4776(4)
H10 H 1.0204 0.3905 0.4914
H11 H 0.8560 0.3474 0.4779
C16 C 1.0688(9) 0.3265(6) 0.3963(4)
C17 C 1.0879(9) 0.2301(6) 0.3759(4)
H12 H 1.0456 0.1715 0.4118
C18 C 1.1682(8) 0.2199(6) 0.3035(4)
H13 H 1.1820 0.1547 0.2908
C19 C 1.2293(9) 0.3101(6) 0.2489(4)
C20 C 1.2035(9) 0.4065(6) 0.2673(4)
H14 H 1.2385 0.4666 0.2297
C21 C 1.1272(9) 0.4167(6) 0.3399(5)
H15 H 1.1140 0.4823 0.3519
C22 C 1.2949(10) 0.3038(7) 0.1670(5)
C23 C 1.3953(10) 0.1963(7) 0.1524(5)
C24 C 1.5052(10) 0.1140(8) 0.2102(5)
H16 H 1.5171 0.1246 0.2588
C25 C 1.5951(10) 0.0175(7) 0.1940(5)
H17 H 1.6690 -0.0364 0.2317
C26 C 1.5771(12) 0.0002(8) 0.1237(6)
H18 H 1.6350 -0.0657 0.1136
C27 C 1.4721(14) 0.0816(9) 0.0684(5)
H19 H 1.4615 0.0714 0.0196
C28 C 1.3823(10) 0.1777(7) 0.0828(5)
H20 H 1.3108 0.2312 0.0440
C29 C 0.5545(10) 0.3015(6) 0.8104(4)
H21 H 0.6260 0.2560 0.8555
H22 H 0.4732 0.2603 0.8023
C30 C 0.4497(9) 0.4045(6) 0.8266(5)
C31 C 0.3419(9) 0.4861(6) 0.7685(4)
H23 H 0.3337 0.4753 0.7196
C32 C 0.2484(9) 0.5818(6) 0.7836(4)
H24 H 0.1787 0.6358 0.7444
C33 C 0.2562(9) 0.5995(6) 0.8569(5)
C34 C 0.3623(9) 0.5170(6) 0.9152(4)
H25 H 0.3661 0.5254 0.9652
C35 C 0.4612(8) 0.4230(6) 0.8976(4)
H26 H 0.5378 0.3709 0.9351
C36 C 0.1564(10) 0.7052(7) 0.8709(5)
C37 C 0.1069(9) 0.7190(7) 0.9519(5)
C38 C 0.0894(9) 0.8189(6) 0.9637(5)
H27 H 0.1117 0.8776 0.9206
C39 C 0.0399(11) 0.8355(6) 1.0372(5)
H28 H 0.0383 0.9027 1.0447
C40 C -0.0079(10) 0.7499(8) 1.1005(5)
H29 H -0.0454 0.7597 1.1504
C41 C 0.0019(10) 0.6514(7) 1.0874(5)
H30 H -0.0294 0.5941 1.1293
C42 C 0.0564(9) 0.6341(6) 1.0143(5)
H31 H 0.0595 0.5668 1.0067
loop_
_geom_bond_atom_site_label_1
_geom_bond_atom_site_label_2
_geom_bond_site_symmetry_1
_geom_bond_site_symmetry_2
N1 O5 1_555 1_555
O1 C1 1_555 1_555
O2 C3 1_555 1_555
O3 C22 1_555 1_555
O4 C36 1_555 1_555
O6 N1 1_555 1_555
C1 C2 1_555 1_555
C2 H1 1_555 1_555
C3 C2 1_555 1_555
C4 C3 1_555 1_555
H2 C4 1_555 1_555
C5 C4 1_555 1_555
H3 C5 1_555 1_555
C6 C1 1_555 1_555
C7 C6 1_555 1_555
H4 C7 1_555 1_555
C8 C7 1_555 1_555
H5 C8 1_555 1_555
C9 C8 1_555 1_555
C10 C9 1_555 1_555
H6 C10 1_555 1_555
C11 C10 1_555 1_555
H7 C11 1_555 1_555
C12 N1 1_555 1_555
C13 C12 1_555 1_555
H8 C13 1_555 1_555
C14 C9 1_555 1_555
H9 C14 1_555 1_555
C15 O1 1_555 1_555
H10 C15 1_555 1_555
H11 C15 1_555 1_555
C16 C15 1_555 1_555
C17 C16 1_555 1_555
H12 C17 1_555 1_555
C18 C17 1_555 1_555
H13 C18 1_555 1_555
C19 C18 1_555 1_555
C20 C19 1_555 1_555
H14 C20 1_555 1_555
C21 C16 1_555 1_555
H15 C21 1_555 1_555
C22 C19 1_555 1_555
C23 C22 1_555 1_555
C24 C23 1_555 1_555
H16 C24 1_555 1_555
C25 C24 1_555 1_555
H17 C25 1_555 1_555
C26 C25 1_555 1_555
H18 C26 1_555 1_555
C27 C26 1_555 1_555
H19 C27 1_555 1_555
C28 C23 1_555 1_555
H20 C28 1_555 1_555
C29 O2 1_555 1_555
H21 C29 1_555 1_555
H22 C29 1_555 1_555
C30 C29 1_555 1_555
C31 C30 1_555 1_555
H23 C31 1_555 1_555
C32 C31 1_555 1_555
H24 C32 1_555 1_555
C33 C32 1_555 1_555
C34 C33 1_555 1_555
H25 C34 1_555 1_555
C35 C30 1_555 1_555
H26 C35 1_555 1_555
C36 C33 1_555 1_555
C37 C36 1_555 1_555
C38 C37 1_555 1_555
H27 C38 1_555 1_555
C39 C38 1_555 1_555
H28 C39 1_555 1_555
C40 C39 1_555 1_555
H29 C40 1_555 1_555
C41 C40 1_555 1_555
H30 C41 1_555 1_555
C42 C37 1_555 1_555
H31 C42 1_555 1_555
C5 C6 1_555 1_555
C11 C12 1_555 1_555
C13 C14 1_555 1_555
C20 C21 1_555 1_555
C27 C28 1_555 1_555
C34 C35 1_555 1_555
C41 C42 1_555 1_555

#END
