
#######################################################################
#
#                 Cambridge Crystallographic Data Centre
#                                CCDC 
#
#######################################################################
#
# If this CIF has been generated from an entry in the Cambridge 
# Structural Database, then it will include bibliographic, chemical, 
# crystal, experimental, refinement or atomic coordinate data resulting 
# from the CCDC's data processing and validation procedures.
#
#######################################################################

data_BOPJOG
_chemical_name_common            (4'-Benzobenzoy)-(4-nitrostilbene)
_chemical_formula_moiety         'C28 H21 N1 O4'
_chemical_name_systematic        
(4-((4-(2-(4-Nitrophenyl)vinyl)phenoxy)methyl)phenyl)(phenyl)methanone
_symmetry_cell_setting           monoclinic
_symmetry_space_group_name_H-M   'P 21/c'
_symmetry_Int_Tables_number      14
_space_group_name_Hall           '-P 2ybc'
loop_
_symmetry_equiv_pos_site_id
_symmetry_equiv_pos_as_xyz
1 x,y,z
2 -x,1/2+y,1/2-z
3 -x,-y,-z
4 x,1/2-y,1/2+z
_cell_length_a                   20.200(2)
_cell_length_b                   7.6580(13)
_cell_length_c                   14.490(2)
_cell_angle_alpha                90
_cell_angle_beta                 103.800(2)
_cell_angle_gamma                90
_cell_volume                     2176.78
_exptl_crystal_colour            yellow
_exptl_crystal_description       block
_cell_formula_units_Z            4
_exptl_crystal_recrystallization_method benzene
loop_
_atom_site_label
_atom_site_type_symbol
_atom_site_fract_x
_atom_site_fract_y
_atom_site_fract_z
N1 N -0.2792(3) 0.6843(8) -0.3735(4)
O1 O 0.15188(19) 0.6834(6) 0.3713(3)
O2 O 0.3434(2) 0.5275(6) 0.8208(3)
O3 O -0.3330(2) 0.6056(6) -0.3855(3)
O4 O -0.2629(2) 0.7765(6) -0.4345(3)
C1 C 0.2167(3) 0.7601(8) 0.3880(4)
H1 H 0.2121 0.8856 0.3799
H2 H 0.2408 0.7160 0.3424
C2 C 0.2572(3) 0.7191(9) 0.4881(4)
C3 C 0.3161(3) 0.8110(7) 0.5263(4)
H3 H 0.3296 0.8998 0.4910
C4 C 0.3553(3) 0.7733(8) 0.6158(4)
H4 H 0.3946 0.8374 0.6408
C5 C 0.3362(3) 0.6401(8) 0.6684(4)
C6 C 0.2774(3) 0.5493(8) 0.6310(4)
H5 H 0.2634 0.4624 0.6671
C7 C 0.2387(3) 0.5845(8) 0.5416(5)
H6 H 0.2001 0.5181 0.5166
C8 C 0.3744(3) 0.5983(9) 0.7694(4)
C9 C 0.4466(3) 0.6460(8) 0.8029(5)
C10 C 0.4913(3) 0.6443(8) 0.7459(5)
H7 H 0.4758 0.6169 0.6819
C11 C 0.5589(4) 0.6826(9) 0.7821(5)
H8 H 0.5892 0.6771 0.7429
C12 C 0.5821(4) 0.7291(10) 0.8758(7)
H9 H 0.6274 0.7607 0.8999
C13 C 0.5377(4) 0.7279(11) 0.9320(5)
H10 H 0.5534 0.7529 0.9963
C14 C 0.4704(3) 0.6910(10) 0.8971(5)
H11 H 0.4405 0.6961 0.9369
C15 C 0.1094(3) 0.6961(8) 0.2849(4)
C16 C 0.0500(3) 0.6084(8) 0.2700(4)
H12 H 0.0410 0.5417 0.3192
C17 C 0.0021(3) 0.6138(8) 0.1847(4)
H13 H -0.0391 0.5555 0.1779
C18 C 0.0157(3) 0.7077(8) 0.1078(4)
C19 C 0.0762(3) 0.7921(8) 0.1245(4)
H14 H 0.0859 0.8566 0.0750
C20 C 0.1246(3) 0.7890(8) 0.2103(4)
H15 H 0.1659 0.8473 0.2176
C21 C -0.0309(3) 0.7199(8) 0.0159(4)
H16 H -0.0159 0.7846 -0.0294
C22 C -0.0912(3) 0.6522(8) -0.0117(4)
H17 H -0.1062 0.5898 0.0345
C23 C -0.1393(3) 0.6593(7) -0.1052(4)
C24 C -0.2030(3) 0.5838(8) -0.1215(4)
H18 H -0.2156 0.5270 -0.0717
C25 C -0.2487(3) 0.5896(8) -0.2095(4)
H19 H -0.2912 0.5360 -0.2195
C26 C -0.2291(3) 0.6775(8) -0.2814(4)
C27 C -0.1679(3) 0.7496(8) -0.2684(4)
H20 H -0.1558 0.8063 -0.3187
C28 C -0.1230(3) 0.7414(8) -0.1829(4)
H21 H -0.0801 0.7916 -0.1757
loop_
_geom_bond_atom_site_label_1
_geom_bond_atom_site_label_2
_geom_bond_site_symmetry_1
_geom_bond_site_symmetry_2
N1 O3 1_555 1_555
O1 C1 1_555 1_555
O2 C8 1_555 1_555
O4 N1 1_555 1_555
C1 H1 1_555 1_555
H2 C1 1_555 1_555
C2 C1 1_555 1_555
C3 C2 1_555 1_555
H3 C3 1_555 1_555
C4 C3 1_555 1_555
H4 C4 1_555 1_555
C5 C4 1_555 1_555
C6 C5 1_555 1_555
H5 C6 1_555 1_555
C7 C2 1_555 1_555
H6 C7 1_555 1_555
C8 C5 1_555 1_555
C9 C8 1_555 1_555
C10 C9 1_555 1_555
H7 C10 1_555 1_555
C11 C10 1_555 1_555
H8 C11 1_555 1_555
C12 C11 1_555 1_555
H9 C12 1_555 1_555
C13 C12 1_555 1_555
H10 C13 1_555 1_555
C14 C9 1_555 1_555
H11 C14 1_555 1_555
C15 O1 1_555 1_555
C16 C15 1_555 1_555
H12 C16 1_555 1_555
C17 C16 1_555 1_555
H13 C17 1_555 1_555
C18 C17 1_555 1_555
C19 C18 1_555 1_555
H14 C19 1_555 1_555
C20 C15 1_555 1_555
H15 C20 1_555 1_555
C21 C18 1_555 1_555
H16 C21 1_555 1_555
C22 C21 1_555 1_555
H17 C22 1_555 1_555
C23 C22 1_555 1_555
C24 C23 1_555 1_555
H18 C24 1_555 1_555
C25 C24 1_555 1_555
H19 C25 1_555 1_555
C26 N1 1_555 1_555
C27 C26 1_555 1_555
H20 C27 1_555 1_555
C28 C23 1_555 1_555
H21 C28 1_555 1_555
C6 C7 1_555 1_555
C13 C14 1_555 1_555
C19 C20 1_555 1_555
C25 C26 1_555 1_555
C27 C28 1_555 1_555

#END
