
#######################################################################
#
#                 Cambridge Crystallographic Data Centre
#                                CCDC 
#
#######################################################################
#
# If this CIF has been generated from an entry in the Cambridge 
# Structural Database, then it will include bibliographic, chemical, 
# crystal, experimental, refinement or atomic coordinate data resulting 
# from the CCDC's data processing and validation procedures.
#
#######################################################################

data_BOPKEW01
_chemical_formula_moiety         'C17 H32 Cl1 N2 O5 S1 1+,Cl1 1-,C2 H6 O1'
_chemical_name_systematic        'Pirlimycin hydrochloride ethanol solvate'
_chemical_properties_biological  
'antibacterial activity against mastitis causing organisms including various Staphylococcus (S. aureus) and Streptococcus (S. agalactiae, S. dysgalactiae and S. uberis) species'
_symmetry_cell_setting           monoclinic
_symmetry_space_group_name_H-M   'P 21'
_symmetry_Int_Tables_number      4
_space_group_name_Hall           'P 2yb'
loop_
_symmetry_equiv_pos_site_id
_symmetry_equiv_pos_as_xyz
1 x,y,z
2 -x,1/2+y,-z
_cell_length_a                   9.052(1)
_cell_length_b                   10.438(1)
_cell_length_c                   13.220(1)
_cell_angle_alpha                90
_cell_angle_beta                 94.42(1)
_cell_angle_gamma                90
_cell_volume                     1245.37
_exptl_crystal_description       plate
_cell_formula_units_Z            2
loop_
_atom_site_label
_atom_site_type_symbol
_atom_site_fract_x
_atom_site_fract_y
_atom_site_fract_z
Cl1 Cl 1.2202(1) 0.5640(1) 0.6339(1)
Cl2 Cl 0.7614(1) 0.1901 0.8927(1)
S1 S 1.1359(1) 0.0018(2) 0.7578(1)
O1 O 0.8839(2) 0.0715(3) 0.6469(2)
C1 C 1.0248(3) 0.0136(4) 0.6370(2)
C2 C 1.0277(6) -0.1158(7) 0.8172(4)
C3 C 1.1077(3) 0.0869(4) 0.5575(2)
O2 O 1.2526(3) 0.0382(3) 0.5477(2)
C4 C 1.1198(4) 0.2278(4) 0.5847(2)
O3 O 1.1952(3) 0.2911(3) 0.5088(2)
C5 C 0.9657(4) 0.2839(4) 0.5971(2)
O4 O 0.8744(3) 0.2945(3) 0.5052(2)
C6 C 0.8934(3) 0.2038(4) 0.6771(2)
C7 C 0.7350(3) 0.2447(4) 0.6898(2)
N1 N 0.7312(3) 0.3806(3) 0.7090(2)
C8 C 0.6606(4) 0.1671(5) 0.7699(3)
C9 C 0.4997(4) 0.2026(5) 0.7766(3)
C10 C 0.6349(3) 0.4580(4) 0.6555(2)
O5 O 0.5398(3) 0.4205(3) 0.5920(2)
C11 C 0.6476(3) 0.5973(4) 0.6853(2)
C12 C 0.5855(4) 0.6192(4) 0.7892(3)
C13 C 0.5677(4) 0.7587(4) 0.8165(2)
C14 C 0.4777(4) 0.8265(5) 0.7308(3)
N2 N 0.5594(3) 0.6727(4) 0.6052(2)
C15 C 0.5475(4) 0.8123(4) 0.6312(2)
C16 C 0.4983(5) 0.7693(5) 0.9183(3)
C17 C 0.4706(5) 0.9058(5) 0.9533(3)
C18 C 1.1418(7) 0.3968(8) 0.9080(5)
O6 O 0.9805(3) 0.5278(4) 0.7931(2)
C19 C 1.0553(5) 0.5196(6) 0.8920(4)
loop_
_geom_bond_atom_site_label_1
_geom_bond_atom_site_label_2
_geom_bond_site_symmetry_1
_geom_bond_site_symmetry_2
Cl2 C8 1_555 1_555
S1 C1 1_555 1_555
O1 C1 1_555 1_555
C1 C3 1_555 1_555
C2 S1 1_555 1_555
C3 O2 1_555 1_555
C4 C3 1_555 1_555
O3 C4 1_555 1_555
C5 C4 1_555 1_555
O4 C5 1_555 1_555
C6 O1 1_555 1_555
C7 C6 1_555 1_555
N1 C7 1_555 1_555
C8 C7 1_555 1_555
C9 C8 1_555 1_555
C10 N1 1_555 1_555
O5 C10 1_555 1_555
C11 C10 1_555 1_555
C12 C11 1_555 1_555
C13 C12 1_555 1_555
C14 C13 1_555 1_555
N2 C11 1_555 1_555
C15 C14 1_555 1_555
C16 C13 1_555 1_555
C17 C16 1_555 1_555
C18 C19 1_555 1_555
O6 C19 1_555 1_555
C5 C6 1_555 1_555
N2 C15 1_555 1_555

#END
