
#######################################################################
#
#                 Cambridge Crystallographic Data Centre
#                                CCDC 
#
#######################################################################
#
# If this CIF has been generated from an entry in the Cambridge 
# Structural Database, then it will include bibliographic, chemical, 
# crystal, experimental, refinement or atomic coordinate data resulting 
# from the CCDC's data processing and validation procedures.
#
#######################################################################

data_BOPKUM
_chemical_formula_moiety         'C27 H31 N2 O6 S1 1+,Br1 1-'
_chemical_name_systematic        
'11-Carboxylatomethyl-15-carboxymethyl-11,15-diazonia-3,23-dioxa-28-thiatetracyclo(23.2.1.0^4,9^.0^17,22^)octacosa-4,6,8,17,19,21,25,27-octaene bromide'
_symmetry_cell_setting           orthorhombic
_symmetry_space_group_name_H-M   'P b c m'
_symmetry_Int_Tables_number      57
_space_group_name_Hall           '-P 2c 2b'
loop_
_symmetry_equiv_pos_site_id
_symmetry_equiv_pos_as_xyz
1 x,y,z
2 -x,-y,1/2+z
3 -x,1/2+y,1/2-z
4 x,1/2-y,-z
5 -x,-y,-z
6 x,y,1/2-z
7 x,1/2-y,1/2+z
8 -x,1/2+y,z
_cell_length_a                   10.9776(1)
_cell_length_b                   14.0734(2)
_cell_length_c                   17.3262(2)
_cell_angle_alpha                90
_cell_angle_beta                 90
_cell_angle_gamma                90
_cell_volume                     2676.76
_exptl_crystal_colour            white
_exptl_crystal_description       slab
_cell_formula_units_Z            4
loop_
_atom_site_label
_atom_site_type_symbol
_atom_site_fract_x
_atom_site_fract_y
_atom_site_fract_z
Br1 Br 0.01467(5) 0.19148(4) 0.7500
S1 S 0.4959(4) -0.0963(5) 0.7500
C1 C 0.6826(6) -0.1891(6) 0.7090(3)
H1 H 0.7416 -0.2192 0.6793
C2 C 0.5864(3) -0.1400(3) 0.67856(19)
O1 O 0.4289(2) -0.1181(2) 0.58783(13)
O2 O 0.0878(3) 0.0938(2) 0.49400(16)
O3 O 0.2335(3) 0.18374(19) 0.54464(18)
N1 N 0.1113(2) -0.04397(18) 0.60584(14)
H2 H 0.0572 -0.0326 0.5679
C3 C 0.5583(3) -0.1298(3) 0.5957(2)
H3 H 0.6003 -0.0750 0.5746
H4 H 0.5849 -0.1858 0.5678
C4 C 0.3801(3) -0.1213(2) 0.51534(18)
C5 C 0.4502(4) -0.1225(3) 0.4479(2)
H5 H 0.5348 -0.1213 0.4509
C6 C 0.3928(4) -0.1254(3) 0.3769(2)
H6 H 0.4392 -0.1264 0.3320
C7 C 0.2673(4) -0.1268(3) 0.3720(2)
H7 H 0.2291 -0.1274 0.3241
C8 C 0.1992(4) -0.1273(3) 0.4387(2)
H8 H 0.1147 -0.1295 0.4351
C9 C 0.2534(3) -0.1247(3) 0.51157(19)
C10 C 0.1785(3) -0.1338(2) 0.58410(19)
H9 H 0.2318 -0.1516 0.6264
H10 H 0.1198 -0.1846 0.5772
C11 C 0.1901(3) 0.0439(2) 0.60958(19)
H11 H 0.2752 0.0254 0.6090
H12 H 0.1745 0.0772 0.6576
C12 C 0.1652(3) 0.1108(3) 0.5417(2)
C13 C 0.0365(3) -0.0576(2) 0.67833(17)
H13 H -0.0159 -0.1125 0.6718
H14 H -0.0152 -0.0025 0.6857
C14 C 0.1143(4) -0.0716(3) 0.7500
H15 H 0.1487 -0.1352 0.7500
H16 H 0.1809 -0.0263 0.7500
C1E C 0.6826(6) -0.1891(6) 0.7910(3)
H1E H 0.7416 -0.2192 0.8207
C2E C 0.5864(3) -0.1400(3) 0.82144(19)
C3E C 0.5583(3) -0.1298(3) 0.9043(2)
O1E O 0.4289(2) -0.1181(2) 0.91217(13)
C4E C 0.3801(3) -0.1213(2) 0.98466(18)
C5E C 0.4502(4) -0.1225(3) 1.0521(2)
H5E H 0.5348 -0.1213 1.0491
C6E C 0.3928(4) -0.1254(3) 1.1231(2)
H6E H 0.4392 -0.1264 1.1680
C7E C 0.2673(4) -0.1268(3) 1.1280(2)
H7E H 0.2291 -0.1274 1.1759
C8E C 0.1992(4) -0.1273(3) 1.0613(2)
H8E H 0.1147 -0.1295 1.0649
C9E C 0.2534(3) -0.1247(3) 0.98843(19)
C10E C 0.1785(3) -0.1338(2) 0.91590(19)
N1E N 0.1113(2) -0.04397(18) 0.89416(14)
H2E H 0.0572 -0.0326 0.9321
C11E C 0.1901(3) 0.0439(2) 0.89042(19)
H11E H 0.2752 0.0254 0.8910
H12E H 0.1745 0.0772 0.8424
C12E C 0.1652(3) 0.1108(3) 0.9583(2)
O2E O 0.0878(3) 0.0938(2) 1.00600(16)
O3E O 0.2335(3) 0.18374(19) 0.95536(18)
C13E C 0.0365(3) -0.0576(2) 0.82167(17)
H13E H -0.0159 -0.1125 0.8282
H14E H -0.0152 -0.0025 0.8143
H9E H 0.2318 -0.1516 0.8736
H10E H 0.1198 -0.1846 0.9228
H3E H 0.6003 -0.0750 0.9254
H4E H 0.5849 -0.1858 0.9322
S2? S 0.4800(3) -0.1387(14) 0.7500
C15? C 0.6935(11) -0.108(2) 0.7092(10)
H17? H 0.7593 -0.0878 0.6795
H18? H 0.2174 0.2500 0.5000
loop_
_geom_bond_atom_site_label_1
_geom_bond_atom_site_label_2
_geom_bond_site_symmetry_1
_geom_bond_site_symmetry_2
S1 C2 1_555 1_555
C1 H1 1_555 1_555
C2 C1 1_555 1_555
O1 C3 1_555 1_555
O2 C12 1_555 1_555
O3 C12 1_555 1_555
N1 H2 1_555 1_555
C3 C2 1_555 1_555
H3 C3 1_555 1_555
H4 C3 1_555 1_555
C4 O1 1_555 1_555
C5 C4 1_555 1_555
H5 C5 1_555 1_555
C6 C5 1_555 1_555
H6 C6 1_555 1_555
C7 C6 1_555 1_555
H7 C7 1_555 1_555
C8 C7 1_555 1_555
H8 C8 1_555 1_555
C9 C4 1_555 1_555
C10 N1 1_555 1_555
H9 C10 1_555 1_555
H10 C10 1_555 1_555
C11 N1 1_555 1_555
H11 C11 1_555 1_555
H12 C11 1_555 1_555
C12 C11 1_555 1_555
C13 N1 1_555 1_555
H13 C13 1_555 1_555
H14 C13 1_555 1_555
C14 C13 1_555 1_555
H15 C14 1_555 1_555
H16 C14 1_555 1_555
C1E C1 1_555 1_555
H1E C1E 1_555 1_555
C2E S1 1_555 1_555
C3E C2E 1_555 1_555
O1E C3E 1_555 1_555
C4E O1E 1_555 1_555
C5E C4E 1_555 1_555
H5E C5E 1_555 1_555
C6E C5E 1_555 1_555
H6E C6E 1_555 1_555
C7E C6E 1_555 1_555
H7E C7E 1_555 1_555
C8E C7E 1_555 1_555
H8E C8E 1_555 1_555
C9E C4E 1_555 1_555
C10E C9E 1_555 1_555
N1E C10E 1_555 1_555
H2E N1E 1_555 1_555
C11E N1E 1_555 1_555
H11E C11E 1_555 1_555
H12E C11E 1_555 1_555
C12E C11E 1_555 1_555
O2E C12E 1_555 1_555
O3E C12E 1_555 1_555
C13E C14 1_555 1_555
H13E C13E 1_555 1_555
H14E C13E 1_555 1_555
H9E C10E 1_555 1_555
H10E C10E 1_555 1_555
H3E C3E 1_555 1_555
H4E C3E 1_555 1_555
C8 C9 1_555 1_555
C9 C10 1_555 1_555
C1E C2E 1_555 1_555
C8E C9E 1_555 1_555
N1E C13E 1_555 1_555

#END
