
#######################################################################
#
#                 Cambridge Crystallographic Data Centre
#                                CCDC 
#
#######################################################################
#
# If this CIF has been generated from an entry in the Cambridge 
# Structural Database, then it will include bibliographic, chemical, 
# crystal, experimental, refinement or atomic coordinate data resulting 
# from the CCDC's data processing and validation procedures.
#
#######################################################################

data_BOPLAU
_chemical_formula_moiety         'C33 H31 N1 O2'
_chemical_name_systematic        
N-(2-Benzylidene-1,4-diphenyl-3-butyn-1-yl)-7,7-dimethyl-2-oxobicyclo[2.2.1]heptane-1-carboxamide
_symmetry_cell_setting           orthorhombic
_symmetry_space_group_name_H-M   'P 21 21 21'
_symmetry_Int_Tables_number      19
_space_group_name_Hall           'P 2ac 2ab'
loop_
_symmetry_equiv_pos_site_id
_symmetry_equiv_pos_as_xyz
1 x,y,z
2 1/2-x,-y,1/2+z
3 -x,1/2+y,1/2-z
4 1/2+x,1/2-y,-z
_cell_length_a                   11.2764(7)
_cell_length_b                   11.5209(8)
_cell_length_c                   20.6115(14)
_cell_angle_alpha                90
_cell_angle_beta                 90
_cell_angle_gamma                90
_cell_volume                     2677.73
_exptl_crystal_colour            colorless
_exptl_crystal_description       block
_chemical_melting_point          114-115deg.C
_cell_formula_units_Z            4
loop_
_atom_site_label
_atom_site_type_symbol
_atom_site_fract_x
_atom_site_fract_y
_atom_site_fract_z
C1 C 0.7484(2) 0.4241(2) -0.06885(11)
C2 C 0.8325(3) 0.4012(3) -0.11615(13)
H1 H 0.8576 0.3253 -0.1229
C3 C 0.8797(3) 0.4895(3) -0.15341(15)
H2 H 0.9375 0.4728 -0.1842
C4 C 0.8421(4) 0.6014(3) -0.14535(19)
H3 H 0.8728 0.6603 -0.1712
C5 C 0.7602(4) 0.6256(3) -0.09965(19)
H4 H 0.7352 0.7018 -0.0937
C6 C 0.7133(3) 0.5387(2) -0.06164(14)
H5 H 0.6568 0.5573 -0.0304
C7 C 0.97473(19) 0.02612(19) -0.10445(10)
C8 C 0.9805(2) -0.0916(2) -0.09163(13)
H6 H 0.9275 -0.1256 -0.0627
C9 C 1.0667(3) -0.1591(2) -0.12256(17)
H7 H 1.0718 -0.2383 -0.1143
C10 C 1.1433(3) -0.1074(3) -0.16504(16)
H8 H 1.1995 -0.1527 -0.1862
C11 C 1.1398(2) 0.0078(3) -0.17713(13)
H9 H 1.1936 0.0413 -0.2057
C12 C 1.0557(2) 0.0748(2) -0.14679(11)
H10 H 1.0533 0.1542 -0.1549
C13 C 0.5764(2) 0.0614(2) -0.00569(10)
C14 C 0.5902(3) -0.0565(2) -0.00198(13)
H11 H 0.6508 -0.0873 0.0233
C15 C 0.5151(3) -0.1306(3) -0.03545(16)
H12 H 0.5260 -0.2104 -0.0323
C16 C 0.4264(3) -0.0886(3) -0.07254(15)
H13 H 0.3758 -0.1388 -0.0945
C17 C 0.4117(3) 0.0296(3) -0.07751(13)
H14 H 0.3515 0.0597 -0.1034
C18 C 0.4858(2) 0.1030(2) -0.04442(11)
H15 H 0.4748 0.1827 -0.0481
C19 C 0.8864(2) 0.0970(2) -0.07436(11)
C20 C 0.8137(2) 0.1615(2) -0.05201(10)
C21 C 0.6967(2) 0.3368(2) -0.02622(11)
H16 H 0.6354 0.3638 -0.0001
C22 C 0.7229(2) 0.2238(2) -0.01832(10)
C23 C 0.6546(2) 0.14813(19) 0.02967(10)
H17 H 0.6033 0.1988 0.0556
C24 C 0.7520(2) 0.11468(19) 0.13432(11)
C25 C 0.8498(2) 0.05152(17) 0.16987(10)
C26 C 0.9617(2) 0.1267(2) 0.18152(13)
H18 H 0.9402 0.2051 0.1942
H19 H 1.0106 0.1301 0.1429
C27 C 1.0272(3) 0.0628(3) 0.23759(14)
H20 H 1.1061 0.0391 0.2245
H21 H 1.0330 0.1116 0.2758
C28 C 0.9490(2) -0.0406(2) 0.24990(12)
H22 H 0.9613 -0.0773 0.2922
C29 C 0.9660(3) -0.1221(2) 0.19222(12)
H23 H 1.0493 -0.1321 0.1819
H24 H 0.9306 -0.1975 0.2003
C30 C 0.9017(2) -0.0580(2) 0.13943(12)
C31 C 0.8227(2) 0.0070(2) 0.23942(11)
C32 C 0.7248(3) -0.0852(3) 0.24017(15)
H25 H 0.7233 -0.1226 0.2818
H26 H 0.7403 -0.1419 0.2071
H27 H 0.6496 -0.0490 0.2321
C33 C 0.7901(3) 0.1007(2) 0.28914(11)
H28 H 0.7089 0.1232 0.2831
H29 H 0.8405 0.1670 0.2832
H30 H 0.8005 0.0705 0.3322
O1 O 0.6906(3) 0.1838(2) 0.16161(9)
O2 O 0.8956(2) -0.08849(17) 0.08335(9)
N1 N 0.73775(18) 0.09098(17) 0.07342(8)
H31 H 0.7812 0.0368 0.0574
loop_
_geom_bond_atom_site_label_1
_geom_bond_atom_site_label_2
_geom_bond_site_symmetry_1
_geom_bond_site_symmetry_2
C1 C2 1_555 1_555
C2 H1 1_555 1_555
C3 C2 1_555 1_555
H2 C3 1_555 1_555
C4 C3 1_555 1_555
H3 C4 1_555 1_555
C5 C4 1_555 1_555
H4 C5 1_555 1_555
C6 C1 1_555 1_555
H5 C6 1_555 1_555
C7 C8 1_555 1_555
C8 H6 1_555 1_555
C9 C8 1_555 1_555
H7 C9 1_555 1_555
C10 C9 1_555 1_555
H8 C10 1_555 1_555
C11 C10 1_555 1_555
H9 C11 1_555 1_555
C12 C7 1_555 1_555
H10 C12 1_555 1_555
C13 C14 1_555 1_555
C14 H11 1_555 1_555
C15 C14 1_555 1_555
H12 C15 1_555 1_555
C16 C15 1_555 1_555
H13 C16 1_555 1_555
C17 C16 1_555 1_555
H14 C17 1_555 1_555
C18 C13 1_555 1_555
H15 C18 1_555 1_555
C19 C7 1_555 1_555
C20 C19 1_555 1_555
C21 C1 1_555 1_555
H16 C21 1_555 1_555
C22 C20 1_555 1_555
C23 C13 1_555 1_555
H17 C23 1_555 1_555
C24 C25 1_555 1_555
C25 C26 1_555 1_555
C26 H18 1_555 1_555
H19 C26 1_555 1_555
C27 C26 1_555 1_555
H20 C27 1_555 1_555
H21 C27 1_555 1_555
C28 C27 1_555 1_555
H22 C28 1_555 1_555
C29 C28 1_555 1_555
H23 C29 1_555 1_555
H24 C29 1_555 1_555
C30 C25 1_555 1_555
C31 C25 1_555 1_555
C32 C31 1_555 1_555
H25 C32 1_555 1_555
H26 C32 1_555 1_555
H27 C32 1_555 1_555
C33 C31 1_555 1_555
H28 C33 1_555 1_555
H29 C33 1_555 1_555
H30 C33 1_555 1_555
O1 C24 1_555 1_555
O2 C30 1_555 1_555
N1 C23 1_555 1_555
H31 N1 1_555 1_555
C5 C6 1_555 1_555
C11 C12 1_555 1_555
C17 C18 1_555 1_555
C21 C22 1_555 1_555
C22 C23 1_555 1_555
C24 N1 1_555 1_555
C28 C31 1_555 1_555
C29 C30 1_555 1_555

#END
