
#######################################################################
#
#                 Cambridge Crystallographic Data Centre
#                                CCDC 
#
#######################################################################
#
# If this CIF has been generated from an entry in the Cambridge 
# Structural Database, then it will include bibliographic, chemical, 
# crystal, experimental, refinement or atomic coordinate data resulting 
# from the CCDC's data processing and validation procedures.
#
#######################################################################

data_BOPNEZ10
_chemical_formula_moiety         'C22 H14 Br2 N2 O1 S1'
_chemical_name_systematic        
(Z)-2-Benzoylmethylidene-3-(2,4-dibromophenyl)-5-phenyl-2,3-dihydro-1,3,4-thiadiazole
_symmetry_cell_setting           monoclinic
_symmetry_space_group_name_H-M   'P 21/c'
_symmetry_Int_Tables_number      14
_space_group_name_Hall           '-P 2ybc'
loop_
_symmetry_equiv_pos_site_id
_symmetry_equiv_pos_as_xyz
1 x,y,z
2 -x,1/2+y,1/2-z
3 -x,-y,-z
4 x,1/2-y,1/2+z
_cell_length_a                   10.512(1)
_cell_length_b                   12.084(2)
_cell_length_c                   16.268(4)
_cell_angle_alpha                90
_cell_angle_beta                 96.91(1)
_cell_angle_gamma                90
_cell_volume                     2051.47
_cell_formula_units_Z            4
loop_
_atom_site_label
_atom_site_type_symbol
_atom_site_fract_x
_atom_site_fract_y
_atom_site_fract_z
Br1 Br 0.47093(9) 0.29353(7) -0.00406(7)
Br2 Br 0.16454(7) 0.64116(6) 0.08684(7)
S1 S 0.2522(2) -0.0544(1) 0.0165(1)
O1 O 0.0794(5) -0.0855(4) -0.1123(3)
N1 N 0.3458(5) 0.1121(4) 0.1036(4)
N2 N 0.2492(5) 0.1503(4) 0.0445(3)
C1 C 0.4577(7) -0.0558(5) 0.1477(4)
C2 C 0.4318(8) -0.1608(6) 0.1754(5)
C3 C 0.5285(10) -0.2183(7) 0.2241(5)
C4 C 0.6452(9) -0.1717(8) 0.2451(5)
C5 C 0.6694(7) -0.0650(8) 0.2187(5)
C6 C 0.5755(7) -0.0075(6) 0.1690(4)
C7 C 0.3582(6) 0.0065(5) 0.0947(4)
C8 C 0.2232(6) 0.2668(5) 0.0473(4)
C9 C 0.3168(6) 0.3424(5) 0.0330(4)
C10 C 0.3009(7) 0.4533(5) 0.0433(4)
C11 C 0.1864(7) 0.4882(5) 0.0682(4)
C12 C 0.0889(6) 0.4147(5) 0.0819(4)
C13 C 0.1101(7) 0.3029(5) 0.0718(4)
C14 C 0.1905(6) 0.0760(5) -0.0088(4)
C15 C 0.0964(6) 0.0994(5) -0.0725(4)
C16 C 0.0460(6) 0.0118(5) -0.1260(4)
C17 C -0.0500(6) 0.0391(6) -0.1990(4)
C18 C -0.1201(8) -0.0471(7) -0.2375(5)
C19 C -0.2138(9) -0.0234(8) -0.3055(6)
C20 C -0.2313(8) 0.0793(9) -0.3340(6)
C21 C -0.1623(8) 0.1668(8) -0.2972(5)
C22 C -0.0694(7) 0.1464(6) -0.2300(5)
H1 H 0.3389 -0.1979 0.1598
H2 H 0.5099 -0.3008 0.2453
H3 H 0.7189 -0.2174 0.2820
H4 H 0.7609 -0.0268 0.2369
H5 H 0.5949 0.0746 0.1471
H6 H 0.3751 0.5115 0.0323
H7 H -0.0010 0.4443 0.1000
H8 H 0.0370 0.2439 0.0834
H9 H 0.0610 0.1828 -0.0818
H10 H -0.1041 -0.1312 -0.2163
H11 H -0.2712 -0.0898 -0.3343
H12 H -0.3006 0.0946 -0.3867
H13 H -0.1794 0.2501 -0.3198
H14 H -0.0129 0.2140 -0.2022
loop_
_geom_bond_atom_site_label_1
_geom_bond_atom_site_label_2
_geom_bond_site_symmetry_1
_geom_bond_site_symmetry_2
Br1 C9 1_555 1_555
Br2 C11 1_555 1_555
S1 C7 1_555 1_555
O1 C16 1_555 1_555
N1 N2 1_555 1_555
N2 C8 1_555 1_555
C1 C2 1_555 1_555
C2 C3 1_555 1_555
C3 C4 1_555 1_555
C4 C5 1_555 1_555
C5 C6 1_555 1_555
C6 C1 1_555 1_555
C7 N1 1_555 1_555
C8 C9 1_555 1_555
C9 C10 1_555 1_555
C10 C11 1_555 1_555
C11 C12 1_555 1_555
C12 C13 1_555 1_555
C13 C8 1_555 1_555
C14 S1 1_555 1_555
C15 C14 1_555 1_555
C16 C15 1_555 1_555
C17 C16 1_555 1_555
C18 C17 1_555 1_555
C19 C18 1_555 1_555
C20 C19 1_555 1_555
C21 C20 1_555 1_555
C22 C17 1_555 1_555
H1 C2 1_555 1_555
H2 C3 1_555 1_555
H3 C4 1_555 1_555
H4 C5 1_555 1_555
H5 C6 1_555 1_555
H6 C10 1_555 1_555
H7 C12 1_555 1_555
H8 C13 1_555 1_555
H9 C15 1_555 1_555
H10 C18 1_555 1_555
H11 C19 1_555 1_555
H12 C20 1_555 1_555
H13 C21 1_555 1_555
H14 C22 1_555 1_555
N2 C14 1_555 1_555
C1 C7 1_555 1_555
C21 C22 1_555 1_555

#END
