
#######################################################################
#
#                 Cambridge Crystallographic Data Centre
#                                CCDC 
#
#######################################################################
#
# If this CIF has been generated from an entry in the Cambridge 
# Structural Database, then it will include bibliographic, chemical, 
# crystal, experimental, refinement or atomic coordinate data resulting 
# from the CCDC's data processing and validation procedures.
#
#######################################################################

data_BOPNUP01
_chemical_formula_moiety         'C21 H21 N1 O1'
_chemical_name_systematic        
(4S,5R)-3,4-Dimethyl-2-(2-naphthyl)-5-phenyl-1,3-oxazolidine
_symmetry_cell_setting           monoclinic
_symmetry_space_group_name_H-M   'P 21'
_symmetry_Int_Tables_number      4
_space_group_name_Hall           'P 2yb'
loop_
_symmetry_equiv_pos_site_id
_symmetry_equiv_pos_as_xyz
1 x,y,z
2 -x,1/2+y,-z
_cell_length_a                   5.6900(9)
_cell_length_b                   8.6607(15)
_cell_length_c                   17.2606(17)
_cell_angle_alpha                90
_cell_angle_beta                 95.556(14)
_cell_angle_gamma                90
_cell_volume                     846.596
_exptl_crystal_colour            colorless
_exptl_crystal_description       plate
_chemical_melting_point          '127-129 deg.C'
_cell_formula_units_Z            2
loop_
_atom_site_label
_atom_site_type_symbol
_atom_site_fract_x
_atom_site_fract_y
_atom_site_fract_z
O1 O 0.9791(3) -0.03748(18) 0.20027(8)
C1 C 0.8279(4) 0.1446(2) 0.36759(11)
H1 H 0.9749 0.126 0.3944
C2 C 0.4576(3) 0.2888(2) 0.35306(10)
N1 N 0.7897(3) -0.2157(2) 0.26682(10)
C3 C 0.6808(4) 0.2604(2) 0.39493(11)
C4 C 0.7580(4) 0.0590(2) 0.30218(11)
C5 C 0.9109(4) -0.0685(3) 0.27598(12)
H2 H 1.052 -0.0795 0.3129
C6 C 0.7441(4) 0.3474(3) 0.46378(11)
H3 H 0.8911 0.3321 0.4912
C7 C 0.3067(4) 0.4008(3) 0.38166(13)
H4 H 0.1611 0.4213 0.3543
C8 C 0.3907(4) 0.2000(3) 0.28559(11)
H5 H 0.2458 0.2183 0.2574
C9 C 0.5356(4) 0.0885(3) 0.26147(11)
H6 H 0.487 0.0308 0.2174
C10 C 0.9442(4) -0.3056(3) 0.22102(13)
H7 H 1.0843 -0.3359 0.2551
C11 C 0.8870(4) -0.1855(3) 0.08182(11)
C12 C 0.3723(4) 0.4791(3) 0.44880(13)
H8 H 0.2696 0.5507 0.4674
C13 C 1.0188(4) -0.1834(3) 0.16287(12)
H9 H 1.1882 -0.1946 0.158
C14 C 0.6787(4) -0.1054(3) 0.06461(13)
H10 H 0.6179 -0.0463 0.103
C15 C 0.5925(4) 0.4526(3) 0.49000(13)
H11 H 0.6357 0.5072 0.5356
C16 C 0.9756(5) -0.2708(3) 0.02351(13)
H12 H 1.117 -0.3242 0.0337
C17 C 0.8272(6) -0.4508(3) 0.18648(16)
H13 H 0.7968 -0.5204 0.2276
H14 H 0.9298 -0.4996 0.1529
H15 H 0.6809 -0.4241 0.1571
C18 C 0.8537(6) -0.2773(3) -0.05058(14)
H16 H 0.9135 -0.3357 -0.0894
C19 C 0.7509(6) -0.2859(3) 0.34138(15)
H17 H 0.6787 -0.3853 0.3326
H18 H 0.649 -0.2209 0.3683
H19 H 0.8994 -0.2976 0.3723
C20 C 0.5592(5) -0.1123(4) -0.00917(14)
H20 H 0.4186 -0.0582 -0.0199
C21 C 0.6472(5) -0.1981(4) -0.06626(14)
H21 H 0.5663 -0.2026 -0.1157
loop_
_geom_bond_atom_site_label_1
_geom_bond_atom_site_label_2
_geom_bond_site_symmetry_1
_geom_bond_site_symmetry_2
O1 C5 1_555 1_555
C1 H1 1_555 1_555
C2 C3 1_555 1_555
N1 C5 1_555 1_555
C3 C1 1_555 1_555
C4 C1 1_555 1_555
C5 C4 1_555 1_555
H2 C5 1_555 1_555
C6 C3 1_555 1_555
H3 C6 1_555 1_555
C7 C2 1_555 1_555
H4 C7 1_555 1_555
C8 C2 1_555 1_555
H5 C8 1_555 1_555
C9 C4 1_555 1_555
H6 C9 1_555 1_555
C10 N1 1_555 1_555
H7 C10 1_555 1_555
C11 C13 1_555 1_555
C12 C7 1_555 1_555
H8 C12 1_555 1_555
C13 O1 1_555 1_555
H9 C13 1_555 1_555
C14 C11 1_555 1_555
H10 C14 1_555 1_555
C15 C6 1_555 1_555
H11 C15 1_555 1_555
C16 C11 1_555 1_555
H12 C16 1_555 1_555
C17 C10 1_555 1_555
H13 C17 1_555 1_555
H14 C17 1_555 1_555
H15 C17 1_555 1_555
C18 C16 1_555 1_555
H16 C18 1_555 1_555
C19 N1 1_555 1_555
H17 C19 1_555 1_555
H18 C19 1_555 1_555
H19 C19 1_555 1_555
C20 C14 1_555 1_555
H20 C20 1_555 1_555
C21 C18 1_555 1_555
H21 C21 1_555 1_555
C8 C9 1_555 1_555
C10 C13 1_555 1_555
C12 C15 1_555 1_555
C20 C21 1_555 1_555

#END
