
#######################################################################
#
#                 Cambridge Crystallographic Data Centre
#                                CCDC 
#
#######################################################################
#
# If this CIF has been generated from an entry in the Cambridge 
# Structural Database, then it will include bibliographic, chemical, 
# crystal, experimental, refinement or atomic coordinate data resulting 
# from the CCDC's data processing and validation procedures.
#
#######################################################################

data_BOPQIG
_chemical_formula_moiety         'C14 H12 O1 S1'
_chemical_name_systematic        7-Methoxy-2-methylnaphtho(1,2-b)thiophene
_symmetry_cell_setting           monoclinic
_symmetry_space_group_name_H-M   'P 21/n'
_symmetry_Int_Tables_number      14
_space_group_name_Hall           '-P 2yn'
loop_
_symmetry_equiv_pos_site_id
_symmetry_equiv_pos_as_xyz
1 x,y,z
2 1/2-x,1/2+y,1/2-z
3 -x,-y,-z
4 1/2+x,1/2-y,1/2+z
_cell_length_a                   7.5611(2)
_cell_length_b                   8.1393(1)
_cell_length_c                   18.9671(4)
_cell_angle_alpha                90
_cell_angle_beta                 94.798(1)
_cell_angle_gamma                90
_cell_volume                     1163.18
_exptl_crystal_colour            colorless
_exptl_crystal_description       slab
_cell_formula_units_Z            4
_exptl_crystal_recrystallization_method 'petroleum ether/chloroform'
loop_
_atom_site_label
_atom_site_type_symbol
_atom_site_fract_x
_atom_site_fract_y
_atom_site_fract_z
S1 S 0.48062(6) 0.90574(5) 0.12587(2)
O1 O 1.23560(17) 0.78197(15) 0.33888(6)
C1 C 0.4054(2) 0.8284(2) 0.04326(9)
C2 C 0.5225(2) 0.7224(2) 0.01894(9)
H1 H 0.5034 0.6692 -0.0244
C3 C 0.6789(2) 0.69880(17) 0.06566(8)
C4 C 0.8298(2) 0.59966(19) 0.05755(8)
H2 H 0.8346 0.5359 0.0171
C5 C 0.9676(2) 0.59682(18) 0.10843(8)
H3 H 1.0654 0.5308 0.1020
C6 C 0.96606(19) 0.69251(16) 0.17126(7)
C7 C 1.1095(2) 0.68781(17) 0.22392(8)
H4 H 1.2080 0.6229 0.2173
C8 C 1.1046(2) 0.77824(18) 0.28471(8)
C9 C 0.9566(2) 0.8778(2) 0.29487(8)
H5 H 0.9543 0.9394 0.3361
C10 C 0.8161(2) 0.88483(18) 0.24465(8)
H6 H 0.7193 0.9512 0.2521
C11 C 0.81630(19) 0.79228(15) 0.18143(7)
C12 C 0.67533(19) 0.79287(16) 0.12733(7)
C13 C 0.2293(3) 0.8867(3) 0.00833(11)
H7 H 0.2098 0.8384 -0.0378
H8 H 0.2308 1.0042 0.0041
H9 H 0.1356 0.8545 0.0366
C14 C 1.3925(3) 0.6884(3) 0.32979(11)
H10 H 1.4774 0.7059 0.3696
H11 H 1.4423 0.7228 0.2873
H12 H 1.3628 0.5738 0.3264
loop_
_geom_bond_atom_site_label_1
_geom_bond_atom_site_label_2
_geom_bond_site_symmetry_1
_geom_bond_site_symmetry_2
S1 C1 1_555 1_555
O1 C8 1_555 1_555
C1 C2 1_555 1_555
C2 H1 1_555 1_555
C3 C2 1_555 1_555
C4 C3 1_555 1_555
H2 C4 1_555 1_555
C5 C4 1_555 1_555
H3 C5 1_555 1_555
C6 C5 1_555 1_555
C7 C6 1_555 1_555
H4 C7 1_555 1_555
C8 C7 1_555 1_555
C9 C8 1_555 1_555
H5 C9 1_555 1_555
C10 C9 1_555 1_555
H6 C10 1_555 1_555
C11 C6 1_555 1_555
C12 S1 1_555 1_555
C13 C1 1_555 1_555
H7 C13 1_555 1_555
H8 C13 1_555 1_555
H9 C13 1_555 1_555
C14 O1 1_555 1_555
H10 C14 1_555 1_555
H11 C14 1_555 1_555
H12 C14 1_555 1_555
C3 C12 1_555 1_555
C10 C11 1_555 1_555
C11 C12 1_555 1_555

#END
