
#######################################################################
#
#                 Cambridge Crystallographic Data Centre
#                                CCDC 
#
#######################################################################
#
# If this CIF has been generated from an entry in the Cambridge 
# Structural Database, then it will include bibliographic, chemical, 
# crystal, experimental, refinement or atomic coordinate data resulting 
# from the CCDC's data processing and validation procedures.
#
#######################################################################

data_BOPYUC
_chemical_formula_moiety         'C28 H22 N2 O3 S1'
_chemical_name_systematic        
4-Methyl-N-(1-oxo-3-phenyl-1,2-dihydroisoquinolin-4-yl)-N-phenylbenzenesulfonamide
_symmetry_cell_setting           monoclinic
_symmetry_space_group_name_H-M   'P 21/n'
_symmetry_Int_Tables_number      14
_space_group_name_Hall           '-P 2yn'
loop_
_symmetry_equiv_pos_site_id
_symmetry_equiv_pos_as_xyz
1 x,y,z
2 1/2-x,1/2+y,1/2-z
3 -x,-y,-z
4 1/2+x,1/2-y,1/2+z
_cell_length_a                   11.8493(6)
_cell_length_b                   11.0311(5)
_cell_length_c                   18.2794(7)
_cell_angle_alpha                90
_cell_angle_beta                 104.175(5)
_cell_angle_gamma                90
_cell_volume                     2316.57
_cell_formula_units_Z            4
loop_
_atom_site_label
_atom_site_type_symbol
_atom_site_fract_x
_atom_site_fract_y
_atom_site_fract_z
C1 C 0.56282(19) 0.4131(2) 0.10004(11)
C2 C 0.61433(18) 0.34245(19) 0.16712(11)
C3 C 0.7282(2) 0.3688(2) 0.20766(13)
H1 H 0.7692 0.4315 0.1921
C4 C 0.7786(2) 0.3025(2) 0.26990(14)
H2 H 0.8540 0.3202 0.2969
C5 C 0.7175(2) 0.2086(2) 0.29321(13)
H3 H 0.7523 0.1642 0.3361
C6 C 0.60633(19) 0.1803(2) 0.25373(12)
H4 H 0.5669 0.1168 0.2699
C7 C 0.55192(17) 0.24663(19) 0.18920(11)
C8 C 0.43450(17) 0.22129(18) 0.14542(11)
C9 C 0.38585(17) 0.28980(18) 0.08411(11)
C10 C 0.26508(18) 0.2812(2) 0.03573(11)
C11 C 0.2031(2) 0.3870(2) 0.01180(13)
H5 H 0.2370 0.4620 0.0267
C12 C 0.0913(2) 0.3814(3) -0.03404(15)
H6 H 0.0509 0.4526 -0.0502
C13 C 0.0397(2) 0.2714(3) -0.05583(15)
H7 H -0.0355 0.2681 -0.0865
C14 C 0.0992(2) 0.1672(3) -0.03215(13)
H8 H 0.0637 0.0926 -0.0460
C15 C 0.2122(2) 0.1712(2) 0.01236(12)
H9 H 0.2528 0.0994 0.0266
C16 C 0.39076(17) 0.00102(19) 0.13907(10)
C17 C 0.47742(18) -0.0155(2) 0.10058(11)
H10 H 0.5253 0.0489 0.0951
C18 C 0.4923(2) -0.1278(2) 0.07050(12)
H11 H 0.5501 -0.1380 0.0446
C19 C 0.4231(2) -0.2246(2) 0.07832(13)
H12 H 0.4343 -0.3000 0.0585
C20 C 0.3370(3) -0.2078(2) 0.11591(14)
H13 H 0.2894 -0.2725 0.1213
C21 C 0.3203(2) -0.0960(2) 0.14583(13)
H14 H 0.2612 -0.0861 0.1707
C22 C 0.16161(18) 0.13803(19) 0.20537(11)
C23 C 0.1058(2) 0.2362(2) 0.16558(13)
H15 H 0.1472 0.3054 0.1591
C24 C -0.0133(2) 0.2297(3) 0.13545(14)
H16 H -0.0517 0.2953 0.1084
C25 C -0.0768(2) 0.1274(3) 0.14466(14)
C26 C -0.0194(2) 0.0341(2) 0.18827(14)
H17 H -0.0615 -0.0329 0.1975
C27 C 0.0997(2) 0.0378(2) 0.21885(12)
H18 H 0.1373 -0.0262 0.2480
C28 C -0.2059(2) 0.1180(3) 0.10753(18)
H19 H -0.2194 0.0506 0.0733
H20 H -0.2318 0.1913 0.0803
H21 H -0.2482 0.1061 0.1455
N1 N 0.45116(15) 0.38231(16) 0.06400(9)
H22 H 0.4184 0.4246 0.0251
N2 N 0.37333(14) 0.11966(15) 0.16737(9)
O1 O 0.61461(14) 0.49454(16) 0.07500(8)
O2 O 0.34689(13) 0.26125(14) 0.26534(8)
O3 O 0.34664(13) 0.04232(14) 0.29189(7)
S1 S 0.31387(5) 0.14087(5) 0.24056(3)
loop_
_geom_bond_atom_site_label_1
_geom_bond_atom_site_label_2
_geom_bond_site_symmetry_1
_geom_bond_site_symmetry_2
C1 C2 1_555 1_555
C2 C3 1_555 1_555
C3 H1 1_555 1_555
C4 C3 1_555 1_555
H2 C4 1_555 1_555
C5 C4 1_555 1_555
H3 C5 1_555 1_555
C6 C5 1_555 1_555
H4 C6 1_555 1_555
C7 C2 1_555 1_555
C8 C7 1_555 1_555
C9 C8 1_555 1_555
C10 C9 1_555 1_555
C11 C10 1_555 1_555
H5 C11 1_555 1_555
C12 C11 1_555 1_555
H6 C12 1_555 1_555
C13 C12 1_555 1_555
H7 C13 1_555 1_555
C14 C13 1_555 1_555
H8 C14 1_555 1_555
C15 C10 1_555 1_555
H9 C15 1_555 1_555
C16 C17 1_555 1_555
C17 H10 1_555 1_555
C18 C17 1_555 1_555
H11 C18 1_555 1_555
C19 C18 1_555 1_555
H12 C19 1_555 1_555
C20 C19 1_555 1_555
H13 C20 1_555 1_555
C21 C16 1_555 1_555
H14 C21 1_555 1_555
C22 C23 1_555 1_555
C23 H15 1_555 1_555
C24 C23 1_555 1_555
H16 C24 1_555 1_555
C25 C24 1_555 1_555
C26 C25 1_555 1_555
H17 C26 1_555 1_555
C27 C22 1_555 1_555
H18 C27 1_555 1_555
C28 C25 1_555 1_555
H19 C28 1_555 1_555
H20 C28 1_555 1_555
H21 C28 1_555 1_555
N1 C1 1_555 1_555
H22 N1 1_555 1_555
N2 C8 1_555 1_555
O1 C1 1_555 1_555
O2 S1 1_555 1_555
O3 S1 1_555 1_555
S1 C22 1_555 1_555
C6 C7 1_555 1_555
C9 N1 1_555 1_555
C14 C15 1_555 1_555
C16 N2 1_555 1_555
C20 C21 1_555 1_555
C26 C27 1_555 1_555
N2 S1 1_555 1_555

#END
