
#######################################################################
#
#                 Cambridge Crystallographic Data Centre
#                                CCDC 
#
#######################################################################
#
# If this CIF has been generated from an entry in the Cambridge 
# Structural Database, then it will include bibliographic, chemical, 
# crystal, experimental, refinement or atomic coordinate data resulting 
# from the CCDC's data processing and validation procedures.
#
#######################################################################

data_BOQBIT
_chemical_formula_moiety         'C30 H35 N3 O4 S1'
_chemical_name_systematic        
'2-sec-butylphenyl ((1,2-dibenzoyl-2-(t-butyl)hydrazino)sulfanyl)methylcarbamate'
_chemical_properties_biological  'excellent larvicidal activity'
_symmetry_cell_setting           monoclinic
_symmetry_space_group_name_H-M   'P 21/c'
_symmetry_Int_Tables_number      14
_space_group_name_Hall           '-P 2ybc'
loop_
_symmetry_equiv_pos_site_id
_symmetry_equiv_pos_as_xyz
1 x,y,z
2 -x,1/2+y,1/2-z
3 -x,-y,-z
4 x,1/2-y,1/2+z
_cell_length_a                   10.105(3)
_cell_length_b                   23.717(6)
_cell_length_c                   14.430(4)
_cell_angle_alpha                90
_cell_angle_beta                 122.389(5)
_cell_angle_gamma                90
_cell_volume                     2920.29
_chemical_melting_point          '129-130 deg.C'
_cell_formula_units_Z            4
_exptl_crystal_recrystallization_method 'isopropyl alcohol'
loop_
_atom_site_label
_atom_site_type_symbol
_atom_site_fract_x
_atom_site_fract_y
_atom_site_fract_z
S1 S -0.0082(1) 0.2263(1) 0.1562(1)
N1 N -0.0357(4) 0.1754(1) 0.2287(3)
N2 N -0.0251(4) 0.1902(1) 0.3261(3)
N3 N 0.1851(4) 0.2321(1) 0.2199(3)
O1 O -0.1631(4) 0.0958(1) 0.2234(3)
O2 O 0.1389(5) 0.2021(2) 0.5082(3)
O3 O 0.4054(4) 0.2844(1) 0.3264(3)
O4 O 0.1748(3) 0.3119(1) 0.3006(3)
C1 C -0.1180(5) 0.1252(2) 0.1774(4)
C2 C -0.1473(6) 0.1112(2) 0.0686(4)
C3 C -0.0370(7) 0.0849(2) 0.0542(5)
C4 C -0.0756(9) 0.0687(2) -0.0499(7)
C5 C -0.2236(11) 0.0778(3) -0.1375(6)
C6 C -0.3311(8) 0.1038(3) -0.1247(5)
C7 C -0.2950(6) 0.1200(2) -0.0234(5)
C8 C 0.1148(7) 0.1819(2) 0.4225(5)
C9 C 0.2406(6) 0.1477(2) 0.4233(4)
C10 C 0.3899(8) 0.1702(3) 0.4777(5)
C11 C 0.5124(9) 0.1406(4) 0.4899(6)
C12 C 0.4913(9) 0.0873(4) 0.4510(7)
C13 C 0.3465(10) 0.0634(3) 0.3988(6)
C14 C 0.2201(7) 0.0938(2) 0.3851(5)
C15 C -0.1599(6) 0.2218(2) 0.3207(4)
C16 C -0.2075(7) 0.1913(2) 0.3907(5)
C17 C -0.3002(6) 0.2224(2) 0.2030(5)
C18 C -0.1099(7) 0.2819(2) 0.3581(5)
C19 C 0.2684(6) 0.2777(2) 0.2874(4)
C20 C 0.2720(6) 0.1932(2) 0.1929(5)
C21 C 0.2434(5) 0.3604(2) 0.3663(4)
C22 C 0.2171(6) 0.4116(2) 0.3145(4)
C23 C 0.2741(6) 0.4584(2) 0.3841(5)
C24 C 0.3514(6) 0.4533(2) 0.4951(5)
C25 C 0.3768(6) 0.4018(2) 0.5430(4)
C26 C 0.3208(5) 0.3545(2) 0.4777(4)
C27 C 0.1121(11) 0.4142(5) 0.1885(7)
C28 C 0.1475(13) 0.4638(5) 0.1383(11)
C29 C 0.3117(12) 0.4695(5) 0.1708(11)
C30 C -0.0636(11) 0.4123(5) 0.1439(10)
H1 H 0.0633 0.0782 0.1145
H2 H -0.0010 0.0517 -0.0598
H3 H -0.2506 0.0660 -0.2069
H4 H -0.4308 0.1106 -0.1855
H5 H -0.3712 0.1373 -0.0158
H6 H 0.4063 0.2064 0.5065
H7 H 0.6115 0.1569 0.5251
H8 H 0.5761 0.0669 0.4599
H9 H 0.3323 0.0267 0.3724
H10 H 0.1211 0.0775 0.3497
H11 H -0.2906 0.2116 0.3895
H12 H -0.1192 0.1888 0.4648
H13 H -0.2430 0.1540 0.3622
H14 H -0.3311 0.1844 0.1777
H15 H -0.2723 0.2414 0.1570
H16 H -0.3857 0.2419 0.1999
H17 H -0.0893 0.3006 0.3081
H18 H -0.0167 0.2819 0.4303
H19 H -0.1921 0.3013 0.3596
H20 H 0.3430 0.2142 0.1811
H21 H 0.1999 0.1727 0.1275
H22 H 0.3302 0.1673 0.2525
H23 H 0.2588 0.4941 0.3535
H24 H 0.3872 0.4855 0.5388
H25 H 0.4313 0.3985 0.6190
H26 H 0.3355 0.3189 0.5089
H28 H 0.0830 0.4603 0.0590
H29 H 0.1165 0.4982 0.1580
H30 H 0.3222 0.5019 0.1351
H31 H 0.3434 0.4363 0.1495
H32 H 0.3770 0.4742 0.2489
H33 H -0.1216 0.4122 0.0652
H34 H -0.0921 0.4448 0.1691
H36 H 0.1399 0.3790 0.1619
H41 H -0.1156 0.3704 0.1333
C31? C 0.1600(20) 0.4173(10) 0.1920(10)
C32? C -0.0030(20) 0.4449(9) 0.1482(19)
C33? C -0.1030(30) 0.4058(15) 0.1690(30)
C34? C 0.2450(30) 0.4483(12) 0.1470(20)
H27? H 0.1352 0.3801 0.1613
H35? H -0.0871 0.3787 0.1695
H37? H 0.0109 0.4807 0.1848
H38? H -0.0541 0.4520 0.0701
H39? H -0.2041 0.4227 0.1411
H40? H -0.0530 0.3997 0.2468
H42? H 0.3471 0.4319 0.1760
H43? H 0.2563 0.4874 0.1671
H44? H 0.1861 0.4452 0.0680
loop_
_geom_bond_atom_site_label_1
_geom_bond_atom_site_label_2
_geom_bond_site_symmetry_1
_geom_bond_site_symmetry_2
S1 N1 1_555 1_555
N1 N2 1_555 1_555
N2 C8 1_555 1_555
N3 S1 1_555 1_555
O1 C1 1_555 1_555
O2 C8 1_555 1_555
O3 C19 1_555 1_555
O4 C19 1_555 1_555
C1 N1 1_555 1_555
C2 C1 1_555 1_555
C3 C2 1_555 1_555
C4 C3 1_555 1_555
C5 C4 1_555 1_555
C6 C5 1_555 1_555
C7 C2 1_555 1_555
C8 C9 1_555 1_555
C9 C10 1_555 1_555
C10 C11 1_555 1_555
C11 C12 1_555 1_555
C12 C13 1_555 1_555
C13 C14 1_555 1_555
C14 C9 1_555 1_555
C15 N2 1_555 1_555
C16 C15 1_555 1_555
C17 C15 1_555 1_555
C18 C15 1_555 1_555
C19 N3 1_555 1_555
C20 N3 1_555 1_555
C21 O4 1_555 1_555
C22 C21 1_555 1_555
C23 C22 1_555 1_555
C24 C23 1_555 1_555
C25 C24 1_555 1_555
C26 C21 1_555 1_555
C27 C22 1_555 1_555
C28 C27 1_555 1_555
C29 C28 1_555 1_555
C30 C27 1_555 1_555
H1 C3 1_555 1_555
H2 C4 1_555 1_555
H3 C5 1_555 1_555
H4 C6 1_555 1_555
H5 C7 1_555 1_555
H6 C10 1_555 1_555
H7 C11 1_555 1_555
H8 C12 1_555 1_555
H9 C13 1_555 1_555
H10 C14 1_555 1_555
H11 C16 1_555 1_555
H12 C16 1_555 1_555
H13 C16 1_555 1_555
H14 C17 1_555 1_555
H15 C17 1_555 1_555
H16 C17 1_555 1_555
H17 C18 1_555 1_555
H18 C18 1_555 1_555
H19 C18 1_555 1_555
H20 C20 1_555 1_555
H21 C20 1_555 1_555
H22 C20 1_555 1_555
H23 C23 1_555 1_555
H24 C24 1_555 1_555
H25 C25 1_555 1_555
H26 C26 1_555 1_555
H28 C28 1_555 1_555
H29 C28 1_555 1_555
H30 C29 1_555 1_555
H31 C29 1_555 1_555
H32 C29 1_555 1_555
H33 C30 1_555 1_555
H34 C30 1_555 1_555
H36 C27 1_555 1_555
H41 C30 1_555 1_555
C6 C7 1_555 1_555
C25 C26 1_555 1_555

#END
