
#######################################################################
#
#                 Cambridge Crystallographic Data Centre
#                                CCDC 
#
#######################################################################
#
# If this CIF has been generated from an entry in the Cambridge 
# Structural Database, then it will include bibliographic, chemical, 
# crystal, experimental, refinement or atomic coordinate data resulting 
# from the CCDC's data processing and validation procedures.
#
#######################################################################

data_BOQBUG
_chemical_formula_moiety         'C51 H54 O6'
_chemical_name_systematic        
5,9,16,20,27,31-hexaethoxyheptacyclo[28.3.1.1^2,6^.1^8,12^.1^13,17^.1^19,23^.1^24,28^]nonatriaconta-1(34),2(39),3,5,8(38),9,11,13(37),14,16,19(36),20,22,24(35),25,27,30,32-octadecaene
_symmetry_cell_setting           triclinic
_symmetry_space_group_name_H-M   'P -1'
_symmetry_Int_Tables_number      2
_space_group_name_Hall           '-P 1'
loop_
_symmetry_equiv_pos_site_id
_symmetry_equiv_pos_as_xyz
1 x,y,z
2 -x,-y,-z
_cell_length_a                   13.7149(12)
_cell_length_b                   15.9855(13)
_cell_length_c                   20.8687(17)
_cell_angle_alpha                103.4550(10)
_cell_angle_beta                 105.8790(10)
_cell_angle_gamma                93.251(2)
_cell_volume                     4244.29
_exptl_crystal_colour            colorless
_exptl_crystal_description       cubic
_cell_formula_units_Z            4
loop_
_atom_site_label
_atom_site_type_symbol
_atom_site_fract_x
_atom_site_fract_y
_atom_site_fract_z
O1 O -0.2285(2) 0.60917(18) -0.01632(13)
O2 O 0.3186(2) 0.48491(15) -0.23263(12)
O3 O 0.2631(2) 0.77067(15) -0.19670(11)
O4 O 0.41882(18) 0.85752(14) 0.30241(10)
O5 O 0.31435(18) 0.68481(15) 0.34135(10)
O6 O -0.2502(2) 0.8576(2) 0.01228(14)
C1 C -0.1541(3) 0.5862(3) -0.04599(18)
C2 C -0.0963(3) 0.6542(2) -0.05738(16)
C3 C -0.0212(3) 0.6357(2) -0.08866(16)
H1 H 0.0156 0.6819 -0.0974
C4 C 0.0038(3) 0.5507(2) -0.10844(16)
C5 C -0.0534(3) 0.4856(2) -0.09479(19)
H2 H -0.0394 0.4275 -0.1074
C6 C -0.1295(3) 0.5025(3) -0.06363(19)
H3 H -0.1653 0.4564 -0.0542
C7 C 0.2398(3) 0.4960(2) -0.20537(17)
C8 C 0.2485(3) 0.5760(2) -0.15738(16)
C9 C 0.1713(3) 0.5920(2) -0.12734(16)
H4 H 0.1772 0.6462 -0.0951
C10 C 0.0846(3) 0.5320(2) -0.14216(17)
C11 C 0.0785(3) 0.4540(2) -0.19015(19)
H5 H 0.0203 0.4119 -0.2021
C12 C 0.1556(3) 0.4359(2) -0.22118(19)
H6 H 0.1499 0.3816 -0.2534
C13 C 0.3431(3) 0.6404(2) -0.14057(17)
H7 H 0.4034 0.6166 -0.1163
H8 H 0.3535 0.6479 -0.1841
C14 C 0.2942(3) 0.7918(2) -0.12544(15)
C15 C 0.3363(3) 0.7277(2) -0.09628(16)
C16 C 0.3663(3) 0.7438(2) -0.02540(15)
H9 H 0.3976 0.7009 -0.0051
C17 C 0.3529(2) 0.8205(2) 0.01779(15)
C18 C 0.3106(3) 0.8820(2) -0.01265(16)
H10 H 0.3013 0.9351 0.0154
C19 C 0.2804(3) 0.8683(2) -0.08460(16)
H11 H 0.2507 0.9117 -0.1049
C20 C 0.4095(2) 0.8530(2) 0.23493(14)
C21 C 0.3719(2) 0.77134(19) 0.18900(15)
C22 C 0.3581(2) 0.7626(2) 0.11952(15)
H12 H 0.3335 0.7071 0.0883
C23 C 0.3788(2) 0.8322(2) 0.09336(15)
C24 C 0.4198(3) 0.9125(2) 0.14067(16)
H13 H 0.4378 0.9605 0.1247
C25 C 0.4342(3) 0.9227(2) 0.21065(16)
H14 H 0.4612 0.9776 0.2421
C26 C 0.3369(2) 0.6982(2) 0.21536(15)
H15 H 0.3237 0.6429 0.1791
H16 H 0.3913 0.6925 0.2560
C27 C 0.2337(2) 0.7124(2) 0.30059(15)
C28 C 0.2409(2) 0.71593(19) 0.23508(15)
C29 C 0.1599(2) 0.7421(2) 0.19101(15)
H17 H 0.1643 0.7442 0.1467
C30 C 0.0731(2) 0.76531(19) 0.20856(15)
C31 C 0.0683(3) 0.7628(2) 0.27386(16)
H18 H 0.0102 0.7792 0.2877
C32 C 0.1481(3) 0.7362(2) 0.31900(16)
H19 H 0.1434 0.7345 0.3633
C33 C -0.1726(3) 0.8369(3) 0.06183(18)
C34 C -0.1069(3) 0.7817(2) 0.03831(17)
C35 C -0.0297(3) 0.7593(2) 0.08684(16)
H20 H 0.0139 0.7207 0.0711
C36 C -0.0120(2) 0.7904(2) 0.15840(16)
C37 C -0.0774(3) 0.8463(3) 0.17953(19)
H21 H -0.0672 0.8697 0.2274
C38 C -0.1573(3) 0.8687(3) 0.1322(2)
H22 H -0.2020 0.9061 0.1480
C39 C -0.1245(3) 0.7454(2) -0.03846(17)
H23 H -0.0838 0.7843 -0.0548
H24 H -0.1976 0.7449 -0.0628
C40 C -0.2789(4) 0.5471(3) 0.0060(3)
H25 H -0.2284 0.5221 0.0376
H26 H -0.3185 0.4996 -0.0341
C41 C -0.3484(5) 0.5920(5) 0.0421(4)
H27 H -0.3081 0.6375 0.0826
H28 H -0.3863 0.5500 0.0569
H29 H -0.3967 0.6180 0.0108
C42 C 0.3071(3) 0.4107(2) -0.28960(18)
H30 H 0.2492 0.4138 -0.3292
H31 H 0.2931 0.3568 -0.2762
C43 C 0.4040(4) 0.4106(3) -0.3091(2)
H32 H 0.4211 0.4667 -0.3175
H33 H 0.3952 0.3643 -0.3511
H34 H 0.4594 0.4008 -0.2715
C44 C 0.2456(3) 0.8393(2) -0.23020(17)
H35 H 0.1988 0.8758 -0.2114
H36 H 0.2120 0.8143 -0.2801
C45 C 0.3439(3) 0.8952(3) -0.2204(2)
H37 H 0.3739 0.9247 -0.1714
H38 H 0.3295 0.9385 -0.2470
H39 H 0.3920 0.8587 -0.2363
C46 C 0.4211(4) 0.9370(3) 0.34739(18)
H40 H 0.3665 0.9682 0.3254
H41 H 0.4876 0.9725 0.3573
C47 C 0.4065(3) 0.9262(2) 0.41255(16)
H42 H 0.3384 0.8951 0.4033
H43 H 0.4128 0.9833 0.4444
H44 H 0.4586 0.8930 0.4333
C48 C 0.3180(3) 0.6943(2) 0.41215(15)
H45 H 0.2654 0.6521 0.4158
H46 H 0.3064 0.7536 0.4333
C49 C 0.4245(3) 0.6769(3) 0.44753(18)
H47 H 0.4348 0.6181 0.4257
H48 H 0.4319 0.6822 0.4964
H49 H 0.4755 0.7190 0.4433
C50 C -0.3422(3) 0.8743(3) 0.0259(2)
H50 H -0.3316 0.9299 0.0614
H51 H -0.3669 0.8277 0.0438
C51 C -0.4178(3) 0.8789(3) -0.0372(2)
H52 H -0.3893 0.9195 -0.0581
H53 H -0.4791 0.8990 -0.0264
H54 H -0.4359 0.8212 -0.0696
O7 O -0.22227(15) 0.61896(14) 0.76291(11)
O8 O 0.30063(17) 0.49348(14) 0.52428(11)
O9 O 0.53726(15) 0.72272(13) 0.68531(11)
O10 O -0.04801(16) 0.92002(13) 0.39113(11)
O11 O -0.26080(15) 0.79584(14) 0.33482(10)
O12 O -0.0921(2) 0.91880(14) 0.83713(11)
C52 C -0.1495(2) 0.5954(2) 0.73102(15)
C53 C -0.0737(2) 0.66243(19) 0.73517(14)
C54 C -0.0010(2) 0.6407(2) 0.70246(15)
H55 H 0.0497 0.6855 0.7052
C55 C 0.0028(2) 0.55674(19) 0.66536(15)
C56 C -0.0697(2) 0.4925(2) 0.66455(17)
H56 H -0.0678 0.4342 0.6415
C57 C -0.1458(2) 0.5113(2) 0.69678(17)
H57 H -0.1950 0.4659 0.6951
C58 C 0.2267(2) 0.50357(19) 0.55694(15)
C59 C 0.2511(2) 0.57044(18) 0.61833(15)
C60 C 0.1788(2) 0.58503(19) 0.65331(15)
H58 H 0.1959 0.6292 0.6953
C61 C 0.0822(2) 0.53743(19) 0.62921(16)
C62 C 0.0614(2) 0.47079(19) 0.56930(16)
H59 H -0.0034 0.4362 0.5525
C63 C 0.1326(2) 0.4533(2) 0.53325(16)
H60 H 0.1166 0.4071 0.4926
C64 C 0.3546(2) 0.62363(18) 0.64698(15)
H61 H 0.4051 0.5876 0.6325
H62 H 0.3736 0.6379 0.6979
C65 C 0.4603(2) 0.75700(19) 0.64747(14)
C66 C 0.3629(2) 0.70734(18) 0.62527(13)
C67 C 0.2810(2) 0.73746(18) 0.58635(14)
H63 H 0.2156 0.7043 0.5725
C68 C 0.2893(2) 0.81449(19) 0.56617(14)
C69 C 0.3865(2) 0.8604(2) 0.58727(16)
H64 H 0.3956 0.9125 0.5738
C70 C 0.4711(2) 0.8329(2) 0.62758(17)
H65 H 0.5364 0.8664 0.6414
C71 C 0.0349(2) 0.89956(19) 0.43492(15)
C72 C 0.0250(2) 0.81625(18) 0.44584(14)
C73 C 0.1084(2) 0.79047(18) 0.48843(14)
H66 H 0.1023 0.7337 0.4948
C74 C 0.2009(2) 0.84451(19) 0.52229(14)
C75 C 0.2062(2) 0.9267(2) 0.51135(15)
H67 H 0.2675 0.9655 0.5341
C76 C 0.1255(2) 0.95408(19) 0.46860(15)
H68 H 0.1324 1.0108 0.4623
C77 C -0.0762(2) 0.75789(18) 0.41060(14)
H69 H -0.0986 0.7577 0.3613
H70 H -0.0662 0.6978 0.4133
C78 C -0.2506(2) 0.80656(18) 0.40343(14)
C79 C -0.1584(2) 0.78673(17) 0.44273(14)
C80 C -0.1433(2) 0.79871(17) 0.51298(14)
H71 H -0.0813 0.7849 0.5398
C81 C -0.2146(2) 0.83005(18) 0.54605(15)
C82 C -0.3049(2) 0.84614(19) 0.50507(15)
H72 H -0.3560 0.8658 0.5256
C83 C -0.3236(2) 0.83462(19) 0.43458(15)
H73 H -0.3870 0.8461 0.4077
C84 C -0.1268(3) 0.9004(2) 0.76613(15)
C85 C -0.1159(2) 0.81651(19) 0.73184(14)
C86 C -0.1459(2) 0.79432(19) 0.66036(14)
H74 H -0.1372 0.7383 0.6364
C87 C -0.1887(2) 0.85164(19) 0.62241(15)
C88 C -0.2007(2) 0.9326(2) 0.65863(16)
H75 H -0.2312 0.9721 0.6340
C89 C -0.1689(3) 0.9575(2) 0.73044(16)
H76 H -0.1766 1.0138 0.7544
C90 C -0.0728(2) 0.7550(2) 0.77502(15)
H77 H -0.0014 0.7789 0.8023
H78 H -0.1124 0.7538 0.8080
C91 C -0.2908(3) 0.5513(2) 0.76796(17)
H79 H -0.2517 0.5132 0.7938
H80 H -0.3297 0.5156 0.7213
C92 C -0.3626(3) 0.5921(3) 0.80469(18)
H81 H -0.3233 0.6304 0.8495
H82 H -0.4067 0.5468 0.8117
H83 H -0.4048 0.6260 0.7770
C93 C 0.2822(3) 0.4200(2) 0.46480(17)
H84 H 0.2179 0.4225 0.4296
H85 H 0.2753 0.3652 0.4786
C94 C 0.3685(3) 0.4227(3) 0.4360(2)
H86 H 0.3725 0.4755 0.4201
H87 H 0.3586 0.3717 0.3971
H88 H 0.4322 0.4226 0.4717
C95 C 0.6333(2) 0.7753(2) 0.72028(16)
H89 H 0.6501 0.8097 0.6901
H90 H 0.6872 0.7374 0.7297
C96 C 0.6323(3) 0.8353(2) 0.78676(19)
H91 H 0.5836 0.8767 0.7773
H92 H 0.7008 0.8670 0.8108
H93 H 0.6118 0.8017 0.8157
C97 C -0.0418(3) 1.0049(2) 0.37981(17)
H94 H 0.0141 1.0133 0.3594
H95 H -0.0277 1.0496 0.4240
C98 C -0.1420(3) 1.0127(2) 0.33163(18)
H96 H -0.1530 0.9707 0.2870
H97 H -0.1414 1.0715 0.3253
H98 H -0.1972 1.0008 0.3510
C99 C -0.3536(2) 0.8162(2) 0.29179(16)
H99 H -0.3615 0.8781 0.3079
H100 H -0.4140 0.7801 0.2927
C100 C -0.3427(3) 0.7970(3) 0.21994(17)
H101 H -0.2784 0.8282 0.2210
H102 H -0.4001 0.8159 0.1893
H103 H -0.3424 0.7346 0.2028
C101 C -0.1150(8) 1.0048(6) 0.8734(5)
H104 H -0.0796 1.0530 0.8625
H105 H -0.1894 1.0082 0.8597
C102 C -0.0764(7) 1.0089(6) 0.9481(3)
H106 H -0.1099 0.9592 0.9574
H107 H -0.0914 1.0628 0.9751
H108 H -0.0023 1.0075 0.9610
C103? C -0.0619(7) 1.0060(6) 0.8793(5)
H109? H -0.0453 1.0451 0.8522
H110? H -0.0012 1.0089 0.9189
C104? C -0.1513(7) 1.0310(6) 0.9036(5)
H111? H -0.2103 1.0286 0.8637
H112? H -0.1347 1.0901 0.9337
H113? H -0.1677 0.9908 0.9292
loop_
_geom_bond_atom_site_label_1
_geom_bond_atom_site_label_2
_geom_bond_site_symmetry_1
_geom_bond_site_symmetry_2
O1 C1 1_555 1_555
O2 C7 1_555 1_555
O3 C14 1_555 1_555
O4 C20 1_555 1_555
O5 C27 1_555 1_555
O6 C33 1_555 1_555
C1 C2 1_555 1_555
C2 C3 1_555 1_555
C3 H1 1_555 1_555
C4 C3 1_555 1_555
C5 C4 1_555 1_555
H2 C5 1_555 1_555
C6 C1 1_555 1_555
H3 C6 1_555 1_555
C7 C8 1_555 1_555
C8 C9 1_555 1_555
C9 H4 1_555 1_555
C10 C4 1_555 1_555
C11 C10 1_555 1_555
H5 C11 1_555 1_555
C12 C7 1_555 1_555
H6 C12 1_555 1_555
C13 C8 1_555 1_555
H7 C13 1_555 1_555
H8 C13 1_555 1_555
C14 C15 1_555 1_555
C15 C13 1_555 1_555
C16 C15 1_555 1_555
H9 C16 1_555 1_555
C17 C16 1_555 1_555
C18 C17 1_555 1_555
H10 C18 1_555 1_555
C19 C14 1_555 1_555
H11 C19 1_555 1_555
C20 C21 1_555 1_555
C21 C22 1_555 1_555
C22 H12 1_555 1_555
C23 C17 1_555 1_555
C24 C23 1_555 1_555
H13 C24 1_555 1_555
C25 C20 1_555 1_555
H14 C25 1_555 1_555
C26 C21 1_555 1_555
H15 C26 1_555 1_555
H16 C26 1_555 1_555
C27 C28 1_555 1_555
C28 C26 1_555 1_555
C29 C28 1_555 1_555
H17 C29 1_555 1_555
C30 C29 1_555 1_555
C31 C30 1_555 1_555
H18 C31 1_555 1_555
C32 C27 1_555 1_555
H19 C32 1_555 1_555
C33 C34 1_555 1_555
C34 C35 1_555 1_555
C35 H20 1_555 1_555
C36 C30 1_555 1_555
C37 C36 1_555 1_555
H21 C37 1_555 1_555
C38 C33 1_555 1_555
H22 C38 1_555 1_555
C39 C2 1_555 1_555
H23 C39 1_555 1_555
H24 C39 1_555 1_555
C40 O1 1_555 1_555
H25 C40 1_555 1_555
H26 C40 1_555 1_555
C41 C40 1_555 1_555
H27 C41 1_555 1_555
H28 C41 1_555 1_555
H29 C41 1_555 1_555
C42 O2 1_555 1_555
H30 C42 1_555 1_555
H31 C42 1_555 1_555
C43 C42 1_555 1_555
H32 C43 1_555 1_555
H33 C43 1_555 1_555
H34 C43 1_555 1_555
C44 O3 1_555 1_555
H35 C44 1_555 1_555
H36 C44 1_555 1_555
C45 C44 1_555 1_555
H37 C45 1_555 1_555
H38 C45 1_555 1_555
H39 C45 1_555 1_555
C46 O4 1_555 1_555
H40 C46 1_555 1_555
H41 C46 1_555 1_555
C47 C46 1_555 1_555
H42 C47 1_555 1_555
H43 C47 1_555 1_555
H44 C47 1_555 1_555
C48 O5 1_555 1_555
H45 C48 1_555 1_555
H46 C48 1_555 1_555
C49 C48 1_555 1_555
H47 C49 1_555 1_555
H48 C49 1_555 1_555
H49 C49 1_555 1_555
C50 O6 1_555 1_555
H50 C50 1_555 1_555
H51 C50 1_555 1_555
C51 C50 1_555 1_555
H52 C51 1_555 1_555
H53 C51 1_555 1_555
H54 C51 1_555 1_555
O7 C52 1_555 1_555
O8 C58 1_555 1_555
O9 C65 1_555 1_555
O10 C71 1_555 1_555
O11 C78 1_555 1_555
O12 C84 1_555 1_555
C52 C53 1_555 1_555
C53 C54 1_555 1_555
C54 H55 1_555 1_555
C55 C54 1_555 1_555
C56 C55 1_555 1_555
H56 C56 1_555 1_555
C57 C52 1_555 1_555
H57 C57 1_555 1_555
C58 C59 1_555 1_555
C59 C60 1_555 1_555
C60 H58 1_555 1_555
C61 C55 1_555 1_555
C62 C61 1_555 1_555
H59 C62 1_555 1_555
C63 C58 1_555 1_555
H60 C63 1_555 1_555
C64 C59 1_555 1_555
H61 C64 1_555 1_555
H62 C64 1_555 1_555
C65 C66 1_555 1_555
C66 C64 1_555 1_555
C67 C66 1_555 1_555
H63 C67 1_555 1_555
C68 C67 1_555 1_555
C69 C68 1_555 1_555
H64 C69 1_555 1_555
C70 C65 1_555 1_555
H65 C70 1_555 1_555
C71 C72 1_555 1_555
C72 C73 1_555 1_555
C73 H66 1_555 1_555
C74 C68 1_555 1_555
C75 C74 1_555 1_555
H67 C75 1_555 1_555
C76 C71 1_555 1_555
H68 C76 1_555 1_555
C77 C72 1_555 1_555
H69 C77 1_555 1_555
H70 C77 1_555 1_555
C78 C79 1_555 1_555
C79 C77 1_555 1_555
C80 C79 1_555 1_555
H71 C80 1_555 1_555
C81 C80 1_555 1_555
C82 C81 1_555 1_555
H72 C82 1_555 1_555
C83 C78 1_555 1_555
H73 C83 1_555 1_555
C84 C85 1_555 1_555
C85 C86 1_555 1_555
C86 H74 1_555 1_555
C87 C81 1_555 1_555
C88 C87 1_555 1_555
H75 C88 1_555 1_555
C89 C84 1_555 1_555
H76 C89 1_555 1_555
C90 C53 1_555 1_555
H77 C90 1_555 1_555
H78 C90 1_555 1_555
C91 O7 1_555 1_555
H79 C91 1_555 1_555
H80 C91 1_555 1_555
C92 C91 1_555 1_555
H81 C92 1_555 1_555
H82 C92 1_555 1_555
H83 C92 1_555 1_555
C93 O8 1_555 1_555
H84 C93 1_555 1_555
H85 C93 1_555 1_555
C94 C93 1_555 1_555
H86 C94 1_555 1_555
H87 C94 1_555 1_555
H88 C94 1_555 1_555
C95 O9 1_555 1_555
H89 C95 1_555 1_555
H90 C95 1_555 1_555
C96 C95 1_555 1_555
H91 C96 1_555 1_555
H92 C96 1_555 1_555
H93 C96 1_555 1_555
C97 O10 1_555 1_555
H94 C97 1_555 1_555
H95 C97 1_555 1_555
C98 C97 1_555 1_555
H96 C98 1_555 1_555
H97 C98 1_555 1_555
H98 C98 1_555 1_555
C99 O11 1_555 1_555
H99 C99 1_555 1_555
H100 C99 1_555 1_555
C100 C99 1_555 1_555
H101 C100 1_555 1_555
H102 C100 1_555 1_555
H103 C100 1_555 1_555
C101 O12 1_555 1_555
H104 C101 1_555 1_555
H105 C101 1_555 1_555
C102 C101 1_555 1_555
H106 C102 1_555 1_555
H107 C102 1_555 1_555
H108 C102 1_555 1_555
C5 C6 1_555 1_555
C9 C10 1_555 1_555
C11 C12 1_555 1_555
C18 C19 1_555 1_555
C22 C23 1_555 1_555
C24 C25 1_555 1_555
C31 C32 1_555 1_555
C34 C39 1_555 1_555
C35 C36 1_555 1_555
C37 C38 1_555 1_555
C56 C57 1_555 1_555
C60 C61 1_555 1_555
C62 C63 1_555 1_555
C69 C70 1_555 1_555
C73 C74 1_555 1_555
C75 C76 1_555 1_555
C82 C83 1_555 1_555
C85 C90 1_555 1_555
C86 C87 1_555 1_555
C88 C89 1_555 1_555

#END
