
#######################################################################
#
#                 Cambridge Crystallographic Data Centre
#                                CCDC 
#
#######################################################################
#
# If this CIF has been generated from an entry in the Cambridge 
# Structural Database, then it will include bibliographic, chemical, 
# crystal, experimental, refinement or atomic coordinate data resulting 
# from the CCDC's data processing and validation procedures.
#
#######################################################################

data_BOQJEW
_chemical_formula_moiety         'C12 H10 N3 O1 1+,H2 O4 P1 1-,H2 O1'
_chemical_name_systematic        
'4-(1H,3H-1,3-Benzimidazol-2-ylio)-pyridinium N-oxide dihydrogenphosphate monohydrate'
_symmetry_cell_setting           triclinic
_symmetry_space_group_name_H-M   'P -1'
_symmetry_Int_Tables_number      2
_space_group_name_Hall           '-P 1'
loop_
_symmetry_equiv_pos_site_id
_symmetry_equiv_pos_as_xyz
1 x,y,z
2 -x,-y,-z
_cell_length_a                   7.503(8)
_cell_length_b                   9.702(5)
_cell_length_c                   10.501(3)
_cell_angle_alpha                93.93(4)
_cell_angle_beta                 103.99(3)
_cell_angle_gamma                107.26(7)
_cell_volume                     700.173
_exptl_crystal_colour            colorless
_exptl_crystal_description       block
_cell_formula_units_Z            2
loop_
_atom_site_label
_atom_site_type_symbol
_atom_site_fract_x
_atom_site_fract_y
_atom_site_fract_z
P1 P 0.46739(7) 0.81777(5) 0.86294(4)
O2 O 0.4803(2) 0.6800(2) 0.92621(14)
H3 H 0.5536(44) 0.6355(32) 0.8964(30)
O3 O 0.3082(2) 0.8625(2) 0.89747(14)
O4 O 0.6663(2) 0.9402(2) 0.9172(2)
H4 H 0.6647(42) 0.9954(31) 0.9729(29)
O5 O 0.4390(2) 0.78147(15) 0.71361(13)
O1 O 0.0663(2) 0.2429(2) 0.2615(2)
H1 H -0.0440(43) 0.2110(29) 0.2083(28)
H2 H 0.1327(43) 0.3004(32) 0.2231(28)
H5 H 0.3284(44) -0.1285(35) 0.6049(22)
O6 O 0.6977(2) 0.54977(13) 0.85197(13)
N1 N 0.5927(2) 0.42658(15) 0.76908(14)
N2 N 0.1553(2) 0.0252(2) 0.38502(15)
H6 H 0.1364(31) 0.0930(24) 0.3452(22)
N3 N 0.2650(2) -0.0982(2) 0.53733(14)
C1 C 0.4677(3) 0.4305(2) 0.6547(2)
H7 H 0.4573(31) 0.5214(25) 0.6441(21)
C2 C 0.3611(3) 0.3044(2) 0.5675(2)
H8 H 0.2719(35) 0.3113(24) 0.4858(24)
C3 C 0.3816(2) 0.1712(2) 0.5974(2)
C4 C 0.5118(3) 0.1720(2) 0.7170(2)
H9 H 0.5306(31) 0.0896(24) 0.7422(21)
C5 C 0.6156(3) 0.2994(2) 0.8017(2)
H10 H 0.7024(30) 0.3065(21) 0.8846(22)
C6 C 0.2693(2) 0.0344(2) 0.5078(2)
C7 C 0.0726(3) -0.1205(2) 0.3306(2)
C8 C -0.0519(3) -0.1909(2) 0.2069(2)
H11 H -0.0942(31) -0.1351(23) 0.1387(22)
C9 C -0.1035(3) -0.3413(2) 0.1861(2)
H12 H -0.1923(36) -0.3901(26) 0.1011(26)
C10 C -0.0347(3) -0.4193(2) 0.2841(2)
H13 H -0.0752(31) -0.5185(24) 0.2632(21)
C11 C 0.0883(3) -0.3501(2) 0.4056(2)
H14 H 0.1391(30) -0.4041(22) 0.4771(21)
C12 C 0.1421(2) -0.1976(2) 0.4280(2)
loop_
_geom_bond_atom_site_label_1
_geom_bond_atom_site_label_2
_geom_bond_site_symmetry_1
_geom_bond_site_symmetry_2
P1 O2 1_555 1_555
O1 H1 1_555 1_555
H2 O1 1_555 1_555
O2 H3 1_555 1_555
O3 P1 1_555 1_555
O4 P1 1_555 1_555
H4 O4 1_555 1_555
O5 P1 1_555 1_555
H5 N3 1_555 1_555
O6 N1 1_555 1_555
N1 C1 1_555 1_555
N2 H6 1_555 1_555
N3 C6 1_555 1_555
C1 H7 1_555 1_555
C2 C1 1_555 1_555
H8 C2 1_555 1_555
C3 C2 1_555 1_555
C4 C3 1_555 1_555
H9 C4 1_555 1_555
C5 N1 1_555 1_555
H10 C5 1_555 1_555
C6 N2 1_555 1_555
C7 N2 1_555 1_555
C8 C7 1_555 1_555
H11 C8 1_555 1_555
C9 C8 1_555 1_555
H12 C9 1_555 1_555
C10 C9 1_555 1_555
H13 C10 1_555 1_555
C11 C10 1_555 1_555
H14 C11 1_555 1_555
C12 N3 1_555 1_555
C3 C6 1_555 1_555
C4 C5 1_555 1_555
C7 C12 1_555 1_555
C11 C12 1_555 1_555

#END
