
#######################################################################
#
#                 Cambridge Crystallographic Data Centre
#                                CCDC 
#
#######################################################################
#
# If this CIF has been generated from an entry in the Cambridge 
# Structural Database, then it will include bibliographic, chemical, 
# crystal, experimental, refinement or atomic coordinate data resulting 
# from the CCDC's data processing and validation procedures.
#
#######################################################################

data_BOQSUV
_chemical_compound_source        'Solanum nigrum L'
_chemical_formula_moiety         'C27 H44 O8,H2 O1'
_chemical_name_systematic        
'(2\a,3\a,5\a,20S,22S)-2,3,5,14,20,22,25-Heptahydroxycholest-7-en-6-one monohydrate'
_symmetry_cell_setting           orthorhombic
_symmetry_space_group_name_H-M   'P 21 21 21'
_symmetry_Int_Tables_number      19
_space_group_name_Hall           'P 2ac 2ab'
loop_
_symmetry_equiv_pos_site_id
_symmetry_equiv_pos_as_xyz
1 x,y,z
2 1/2-x,-y,1/2+z
3 -x,1/2+y,1/2-z
4 1/2+x,1/2-y,-z
_cell_length_a                   7.1530(10)
_cell_length_b                   10.290(2)
_cell_length_c                   37.220(8)
_cell_angle_alpha                90
_cell_angle_beta                 90
_cell_angle_gamma                90
_cell_volume                     2739.55
_exptl_crystal_colour            colorless
_exptl_crystal_description       prism
_chemical_melting_point          504K
_cell_formula_units_Z            4
_exptl_crystal_recrystallization_method methanol
loop_
_atom_site_label
_atom_site_type_symbol
_atom_site_fract_x
_atom_site_fract_y
_atom_site_fract_z
O1 O 0.6536(3) 0.4277(3) 0.28174(7)
H1 H 0.7521 0.4176 0.2708
O2 O 0.2587(3) 0.4215(3) 0.30614(7)
H2 H 0.3367 0.4646 0.3170
O3 O 0.0187(3) 0.4542(3) 0.25196(7)
H3 H 0.0725 0.4735 0.2707
O4 O -0.1803(3) 0.2792(3) 0.21821(7)
O5 O 0.4460(3) 0.0530(2) 0.16004(5)
H4 H 0.3921 0.0182 0.1769
O6 O 0.4750(3) 0.16987(19) 0.02590(6)
H5 H 0.3810 0.1274 0.0213
O7 O 0.7219(3) -0.0198(2) 0.00104(5)
H6 H 0.6427 -0.0120 -0.0147
O8 O 0.9100(3) -0.4731(2) 0.04515(7)
H7 H 0.8106 -0.4998 0.0370
C1 C 0.4275(5) 0.4755(3) 0.23506(9)
H8 H 0.5297 0.5095 0.2207
H9 H 0.3741 0.5472 0.2485
C2 C 0.5032(4) 0.3757(4) 0.26104(10)
H10 H 0.5522 0.3028 0.2469
C3 C 0.3513(5) 0.3238(4) 0.28517(9)
H11 H 0.4037 0.2576 0.3012
C4 C 0.2036(4) 0.2619(3) 0.26101(8)
H12 H 0.2589 0.1887 0.2485
H13 H 0.1027 0.2290 0.2759
C5 C 0.1233(4) 0.3563(3) 0.23346(9)
C6 C -0.0156(5) 0.2832(4) 0.21013(10)
C7 C 0.0562(5) 0.2092(4) 0.17967(8)
H14 H -0.0222 0.1504 0.1681
C8 C 0.2313(4) 0.2235(3) 0.16795(8)
C9 C 0.3682(4) 0.3156(3) 0.18465(8)
H15 H 0.4483 0.2623 0.2001
C10 C 0.2772(5) 0.4188(3) 0.20982(9)
C11 C 0.5003(5) 0.3781(3) 0.15648(9)
H16 H 0.4318 0.4440 0.1433
H17 H 0.6024 0.4209 0.1689
C12 C 0.5814(4) 0.2796(3) 0.12976(8)
H18 H 0.6555 0.3251 0.1119
H19 H 0.6631 0.2199 0.1424
C13 C 0.4273(4) 0.2027(3) 0.11091(8)
C14 C 0.3146(4) 0.1319(3) 0.14012(8)
C15 C 0.1874(4) 0.0414(3) 0.11942(8)
H20 H 0.0759 0.0863 0.1113
H21 H 0.1510 -0.0327 0.1339
C16 C 0.3109(4) -0.0009(3) 0.08733(9)
H22 H 0.3434 -0.0921 0.0895
H23 H 0.2443 0.0117 0.0649
C17 C 0.4890(4) 0.0836(3) 0.08815(8)
H24 H 0.5779 0.0361 0.1033
C18 C 0.2960(5) 0.2947(3) 0.09004(8)
H25 H 0.2183 0.3412 0.1067
H26 H 0.2188 0.2447 0.0741
H27 H 0.3691 0.3553 0.0764
C19 C 0.1888(6) 0.5303(3) 0.18797(10)
H28 H 0.1230 0.5877 0.2039
H29 H 0.1030 0.4950 0.1707
H30 H 0.2853 0.5776 0.1757
C20 C 0.5876(5) 0.1006(3) 0.05161(8)
C21 C 0.7649(4) 0.1815(3) 0.05492(8)
H31 H 0.8318 0.1795 0.0326
H32 H 0.8423 0.1464 0.0736
H33 H 0.7325 0.2696 0.0607
C22 C 0.6310(5) -0.0355(3) 0.03529(8)
H34 H 0.5125 -0.0812 0.0315
C23 C 0.7574(5) -0.1216(3) 0.05791(9)
H35 H 0.7036 -0.1308 0.0817
H36 H 0.8782 -0.0799 0.0605
C24 C 0.7853(5) -0.2576(3) 0.04143(9)
H37 H 0.6642 -0.2909 0.0342
H38 H 0.8609 -0.2489 0.0199
C25 C 0.8771(5) -0.3566(3) 0.06596(10)
C26 C 1.0694(5) -0.3148(3) 0.07772(10)
H39 H 1.1289 -0.3847 0.0904
H40 H 1.0593 -0.2406 0.0932
H41 H 1.1426 -0.2923 0.0570
C27 C 0.7571(6) -0.3909(3) 0.09787(10)
H42 H 0.6340 -0.4140 0.0898
H43 H 0.7491 -0.3175 0.1137
H44 H 0.8116 -0.4630 0.1104
O9 O 0.0976(4) 0.0705(3) -0.00769(8)
H45 H -0.003(3) 0.034(3) -0.0047(10)
H46 H 0.062(6) 0.144(2) -0.0129(12)
loop_
_geom_bond_atom_site_label_1
_geom_bond_atom_site_label_2
_geom_bond_site_symmetry_1
_geom_bond_site_symmetry_2
O1 H1 1_555 1_555
O2 H2 1_555 1_555
O3 H3 1_555 1_555
O4 C6 1_555 1_555
O5 H4 1_555 1_555
O6 H5 1_555 1_555
O7 H6 1_555 1_555
O8 H7 1_555 1_555
O9 H45 1_555 1_555
C1 H8 1_555 1_555
H9 C1 1_555 1_555
C2 O1 1_555 1_555
H10 C2 1_555 1_555
C3 O2 1_555 1_555
H11 C3 1_555 1_555
C4 C3 1_555 1_555
H12 C4 1_555 1_555
H13 C4 1_555 1_555
C5 O3 1_555 1_555
C6 C5 1_555 1_555
C7 C6 1_555 1_555
H14 C7 1_555 1_555
C8 C7 1_555 1_555
C9 C8 1_555 1_555
H15 C9 1_555 1_555
C10 C1 1_555 1_555
C11 C9 1_555 1_555
H16 C11 1_555 1_555
H17 C11 1_555 1_555
C12 C11 1_555 1_555
H18 C12 1_555 1_555
H19 C12 1_555 1_555
C13 C12 1_555 1_555
C14 O5 1_555 1_555
C15 C14 1_555 1_555
H20 C15 1_555 1_555
H21 C15 1_555 1_555
C16 C15 1_555 1_555
H22 C16 1_555 1_555
H23 C16 1_555 1_555
C17 C13 1_555 1_555
H24 C17 1_555 1_555
C18 C13 1_555 1_555
H25 C18 1_555 1_555
H26 C18 1_555 1_555
H27 C18 1_555 1_555
C19 C10 1_555 1_555
H28 C19 1_555 1_555
H29 C19 1_555 1_555
H30 C19 1_555 1_555
C20 O6 1_555 1_555
C21 C20 1_555 1_555
H31 C21 1_555 1_555
H32 C21 1_555 1_555
H33 C21 1_555 1_555
C22 O7 1_555 1_555
H34 C22 1_555 1_555
C23 C22 1_555 1_555
H35 C23 1_555 1_555
H36 C23 1_555 1_555
C24 C23 1_555 1_555
H37 C24 1_555 1_555
H38 C24 1_555 1_555
C25 O8 1_555 1_555
C26 C25 1_555 1_555
H39 C26 1_555 1_555
H40 C26 1_555 1_555
H41 C26 1_555 1_555
C27 C25 1_555 1_555
H42 C27 1_555 1_555
H43 C27 1_555 1_555
H44 C27 1_555 1_555
H46 O9 1_555 1_555
C1 C2 1_555 1_555
C2 C3 1_555 1_555
C4 C5 1_555 1_555
C5 C10 1_555 1_555
C8 C14 1_555 1_555
C9 C10 1_555 1_555
C13 C14 1_555 1_555
C16 C17 1_555 1_555
C17 C20 1_555 1_555
C20 C22 1_555 1_555
C24 C25 1_555 1_555

#END
