
#######################################################################
#
#                 Cambridge Crystallographic Data Centre
#                                CCDC 
#
#######################################################################
#
# If this CIF has been generated from an entry in the Cambridge 
# Structural Database, then it will include bibliographic, chemical, 
# crystal, experimental, refinement or atomic coordinate data resulting 
# from the CCDC's data processing and validation procedures.
#
#######################################################################

data_BOQXEM
_chemical_formula_moiety         'C15 H29 P3'
_chemical_name_systematic        
2,4,6-tri-t-butyl-1,3,5-triphosphabicyclo[3.1.0]hex-2-ene
_symmetry_cell_setting           monoclinic
_symmetry_space_group_name_H-M   'P 21/c'
_symmetry_Int_Tables_number      14
_space_group_name_Hall           '-P 2ybc'
loop_
_symmetry_equiv_pos_site_id
_symmetry_equiv_pos_as_xyz
1 x,y,z
2 -x,1/2+y,1/2-z
3 -x,-y,-z
4 x,1/2-y,1/2+z
_cell_length_a                   9.5404(7)
_cell_length_b                   11.9679(10)
_cell_length_c                   18.6011(11)
_cell_angle_alpha                90
_cell_angle_beta                 120.857(3)
_cell_angle_gamma                90
_cell_volume                     1823.22
_cell_formula_units_Z            4
loop_
_atom_site_label
_atom_site_type_symbol
_atom_site_fract_x
_atom_site_fract_y
_atom_site_fract_z
P1 P -0.48283(11) 0.30052(7) -0.42142(6)
P2 P -0.64124(11) 0.18864(8) -0.40077(6)
P3 P -0.34376(12) 0.06020(8) -0.38896(6)
C1 C -0.3316(4) 0.1960(3) -0.4095(2)
C2 C -0.5214(4) 0.0561(3) -0.3747(2)
H1 H -0.5962 0.0019 -0.4161
C3 C -0.6684(4) 0.2258(3) -0.5027(2)
H2 H -0.6424 0.1639 -0.5285
C4 C -0.8196(4) 0.2905(3) -0.5657(2)
C5 C -0.4840(4) 0.0084(3) -0.2885(2)
C6 C -0.9618(5) 0.2079(3) -0.6071(3)
H3 H -0.9348 0.1486 -0.6326
H4 H -1.0578 0.2459 -0.6491
H5 H -0.9821 0.1775 -0.5655
C7 C -0.1908(4) 0.2394(3) -0.4198(2)
C8 C -0.8621(5) 0.3855(3) -0.5243(3)
H6 H -0.7728 0.4373 -0.4985
H7 H -0.8817 0.3549 -0.4826
H8 H -0.9583 0.4235 -0.5661
C9 C -0.7876(5) 0.3408(4) -0.6320(3)
H9 H -0.7640 0.2819 -0.6592
H10 H -0.6962 0.3909 -0.6054
H11 H -0.8825 0.3810 -0.6727
C10 C -0.6416(6) -0.0140(5) -0.2900(3)
H12 H -0.6969 0.0553 -0.2956
H13 H -0.6177 -0.0500 -0.2388
H14 H -0.7102 -0.0617 -0.3365
C11 C -0.0983(5) 0.3304(4) -0.3548(3)
H15 H -0.1708 0.3913 -0.3636
H16 H -0.0092 0.3566 -0.3603
H17 H -0.0566 0.3003 -0.2997
C12 C -0.2642(5) 0.2899(4) -0.5079(3)
H18 H -0.3395 0.3481 -0.5151
H19 H -0.3204 0.2327 -0.5491
H20 H -0.1783 0.3203 -0.5145
C13 C -0.3924(5) -0.1031(4) -0.2721(3)
H21 H -0.3690 -0.1327 -0.2192
H22 H -0.2920 -0.0910 -0.2712
H23 H -0.4590 -0.1551 -0.3158
C14 C -0.0722(5) 0.1464(4) -0.4093(3)
H24 H 0.0158 0.1771 -0.4139
H25 H -0.1286 0.0911 -0.4521
H26 H -0.0293 0.1124 -0.3552
C15 C -0.3743(6) 0.0891(4) -0.2185(3)
H27 H -0.4333 0.1567 -0.2241
H28 H -0.2797 0.1061 -0.2220
H29 H -0.3410 0.0553 -0.1652
loop_
_geom_bond_atom_site_label_1
_geom_bond_atom_site_label_2
_geom_bond_site_symmetry_1
_geom_bond_site_symmetry_2
P1 P2 1_555 1_555
P2 C2 1_555 1_555
P3 C1 1_555 1_555
C1 P1 1_555 1_555
C2 P3 1_555 1_555
H1 C2 1_555 1_555
C3 P1 1_555 1_555
H2 C3 1_555 1_555
C4 C3 1_555 1_555
C5 C2 1_555 1_555
C6 C4 1_555 1_555
H3 C6 1_555 1_555
H4 C6 1_555 1_555
H5 C6 1_555 1_555
C7 C1 1_555 1_555
C8 C4 1_555 1_555
H6 C8 1_555 1_555
H7 C8 1_555 1_555
H8 C8 1_555 1_555
C9 C4 1_555 1_555
H9 C9 1_555 1_555
H10 C9 1_555 1_555
H11 C9 1_555 1_555
C10 C5 1_555 1_555
H12 C10 1_555 1_555
H13 C10 1_555 1_555
H14 C10 1_555 1_555
C11 C7 1_555 1_555
H15 C11 1_555 1_555
H16 C11 1_555 1_555
H17 C11 1_555 1_555
C12 C7 1_555 1_555
H18 C12 1_555 1_555
H19 C12 1_555 1_555
H20 C12 1_555 1_555
C13 C5 1_555 1_555
H21 C13 1_555 1_555
H22 C13 1_555 1_555
H23 C13 1_555 1_555
C14 C7 1_555 1_555
H24 C14 1_555 1_555
H25 C14 1_555 1_555
H26 C14 1_555 1_555
C15 C5 1_555 1_555
H27 C15 1_555 1_555
H28 C15 1_555 1_555
H29 C15 1_555 1_555
P2 C3 1_555 1_555

#END
