
#######################################################################
#
#                 Cambridge Crystallographic Data Centre
#                                CCDC 
#
#######################################################################
#
# If this CIF has been generated from an entry in the Cambridge 
# Structural Database, then it will include bibliographic, chemical, 
# crystal, experimental, refinement or atomic coordinate data resulting 
# from the CCDC's data processing and validation procedures.
#
#######################################################################

data_BOQYEN
_chemical_formula_moiety         'C12 H11 N3 O2 S1'
_chemical_name_systematic        
N-methyl-2-((4-oxo-4H-chromen-3-yl)methylene)hydrazinecarbothioamide
_symmetry_cell_setting           monoclinic
_symmetry_space_group_name_H-M   'P 21/n'
_symmetry_Int_Tables_number      14
_space_group_name_Hall           '-P 2yn'
loop_
_symmetry_equiv_pos_site_id
_symmetry_equiv_pos_as_xyz
1 x,y,z
2 1/2-x,1/2+y,1/2-z
3 -x,-y,-z
4 1/2+x,1/2-y,1/2+z
_cell_length_a                   6.3702(7)
_cell_length_b                   20.647(2)
_cell_length_c                   9.2717(10)
_cell_angle_alpha                90
_cell_angle_beta                 98.365(3)
_cell_angle_gamma                90
_cell_volume                     1206.49
_exptl_crystal_colour            colorless
_exptl_crystal_description       Block
_cell_formula_units_Z            4
loop_
_atom_site_label
_atom_site_type_symbol
_atom_site_fract_x
_atom_site_fract_y
_atom_site_fract_z
C1 C 1.1216(3) -0.01086(8) -0.30947(18)
C2 C 1.2628(3) -0.03414(11) -0.3973(2)
H1 H 1.3795 -0.0097 -0.4138
C3 C 1.2268(4) -0.09395(12) -0.4591(2)
H2 H 1.3198 -0.1102 -0.5187
C4 C 1.0550(4) -0.13046(11) -0.4344(2)
H3 H 1.0321 -0.1708 -0.4784
C5 C 0.9167(3) -0.10774(9) -0.3453(2)
H4 H 0.8020 -0.1329 -0.3279
C6 C 0.9493(3) -0.04658(8) -0.28081(17)
C7 C 0.8095(3) -0.02066(8) -0.18335(17)
C8 C 0.8552(3) 0.04523(7) -0.13502(17)
C9 C 1.0264(3) 0.07560(8) -0.1711(2)
H5 H 1.0518 0.1177 -0.1376
C10 C 0.7153(3) 0.07618(8) -0.04415(18)
H6 H 0.5918 0.0552 -0.0274
C11 C 0.6662(3) 0.21399(7) 0.16614(18)
C12 C 0.9249(4) 0.30201(10) 0.2112(3)
H7 H 0.8427 0.3380 0.1689
H8 H 1.0703 0.3075 0.1976
H9 H 0.9158 0.2998 0.3136
N1 N 0.7607(2) 0.13156(6) 0.01244(15)
N2 N 0.6206(2) 0.15691(6) 0.09629(16)
H10 H 0.5048 0.1368 0.1046
N3 N 0.8432(3) 0.24283(7) 0.14142(18)
H11 H 0.9141 0.2252 0.0797
O1 O 1.1633(2) 0.04988(6) -0.25169(15)
O2 O 0.6644(2) -0.05230(6) -0.14399(16)
S1 S 0.49924(9) 0.24309(2) 0.27366(6)
loop_
_geom_bond_atom_site_label_1
_geom_bond_atom_site_label_2
_geom_bond_site_symmetry_1
_geom_bond_site_symmetry_2
C1 C2 1_555 1_555
C2 H1 1_555 1_555
C3 C2 1_555 1_555
H2 C3 1_555 1_555
C4 C3 1_555 1_555
H3 C4 1_555 1_555
C5 C4 1_555 1_555
H4 C5 1_555 1_555
C6 C1 1_555 1_555
C7 C6 1_555 1_555
C8 C7 1_555 1_555
C9 C8 1_555 1_555
H5 C9 1_555 1_555
C10 C8 1_555 1_555
H6 C10 1_555 1_555
C11 N2 1_555 1_555
C12 H7 1_555 1_555
H8 C12 1_555 1_555
H9 C12 1_555 1_555
N1 C10 1_555 1_555
N2 N1 1_555 1_555
H10 N2 1_555 1_555
N3 C11 1_555 1_555
H11 N3 1_555 1_555
O1 C1 1_555 1_555
O2 C7 1_555 1_555
S1 C11 1_555 1_555
C5 C6 1_555 1_555
C9 O1 1_555 1_555
C12 N3 1_555 1_555

#END
