
#######################################################################
#
#                 Cambridge Crystallographic Data Centre
#                                CCDC 
#
#######################################################################
#
# If this CIF has been generated from an entry in the Cambridge 
# Structural Database, then it will include bibliographic, chemical, 
# crystal, experimental, refinement or atomic coordinate data resulting 
# from the CCDC's data processing and validation procedures.
#
#######################################################################

data_BORBUH
_chemical_formula_moiety         'C13 H16 N2 O4'
_chemical_name_systematic        
'Ethyl N-(((4-methylphenyl)amino)(oxo)acetyl)glycinate'
_symmetry_cell_setting           triclinic
_symmetry_space_group_name_H-M   'P -1'
_symmetry_Int_Tables_number      2
_space_group_name_Hall           '-P 1'
loop_
_symmetry_equiv_pos_site_id
_symmetry_equiv_pos_as_xyz
1 x,y,z
2 -x,-y,-z
_cell_length_a                   6.6672(4)
_cell_length_b                   10.3996(6)
_cell_length_c                   10.4679(6)
_cell_angle_alpha                113.809(6)
_cell_angle_beta                 90.094(5)
_cell_angle_gamma                91.544(5)
_cell_volume                     663.733
_exptl_crystal_colour            'light colorless'
_exptl_crystal_description       block
_cell_formula_units_Z            2
loop_
_atom_site_label
_atom_site_type_symbol
_atom_site_fract_x
_atom_site_fract_y
_atom_site_fract_z
O1 O 0.2400(3) 0.7124(2) 0.2737(3)
O2 O -0.0933(2) 0.63623(14) 0.49183(16)
O3 O -0.0842(2) 0.97544(16) 0.68823(16)
O4 O -0.4202(2) 0.98115(14) 0.69360(14)
N1 N 0.2533(2) 0.53676(16) 0.34996(17)
H1 H 0.1900 0.5020 0.4008
N2 N -0.1006(3) 0.80213(17) 0.40372(18)
H2 H -0.0432 0.8348 0.3491
C1 C 0.5385(3) 0.5014(2) 0.1899(2)
H3 H 0.4940 0.5700 0.1616
C2 C 0.7126(3) 0.4300(2) 0.1349(2)
H4 H 0.7836 0.4522 0.0698
C3 C 0.7838(3) 0.3274(2) 0.1734(2)
C4 C 0.6743(3) 0.2961(2) 0.2702(2)
H5 H 0.7183 0.2270 0.2978
C5 C 0.5012(3) 0.3656(2) 0.3263(2)
H6 H 0.4301 0.3427 0.3910
C6 C 0.4324(3) 0.46911(18) 0.28720(19)
C7 C 0.9741(3) 0.2507(3) 0.1126(3)
H7 H 0.9398 0.1598 0.0413
H8 H 1.0508 0.2397 0.1851
H9 H 1.0521 0.3040 0.0730
C8 C 0.1727(3) 0.6474(2) 0.3390(2)
C9 C -0.0225(3) 0.6936(2) 0.4198(2)
C10 C -0.2798(3) 0.8668(2) 0.4758(2)
H10 H -0.3835 0.7946 0.4599
H11 H -0.3274 0.9313 0.4374
C11 C -0.2449(3) 0.94526(19) 0.6300(2)
C12 C -0.4125(4) 1.0653(2) 0.8438(2)
H12 H -0.3129 1.1412 0.8657
H13 H -0.3759 1.0074 0.8927
C13 C -0.6150(4) 1.1238(3) 0.8880(3)
H14 H -0.6451 1.1872 0.8451
H15 H -0.6162 1.1736 0.9877
H16 H -0.7139 1.0484 0.8597
loop_
_geom_bond_atom_site_label_1
_geom_bond_atom_site_label_2
_geom_bond_site_symmetry_1
_geom_bond_site_symmetry_2
O1 C8 1_555 1_555
O2 C9 1_555 1_555
O3 C11 1_555 1_555
O4 C11 1_555 1_555
N1 H1 1_555 1_555
N2 H2 1_555 1_555
C1 H3 1_555 1_555
C2 C1 1_555 1_555
H4 C2 1_555 1_555
C3 C2 1_555 1_555
C4 C3 1_555 1_555
H5 C4 1_555 1_555
C5 C4 1_555 1_555
H6 C5 1_555 1_555
C6 N1 1_555 1_555
C7 C3 1_555 1_555
H7 C7 1_555 1_555
H8 C7 1_555 1_555
H9 C7 1_555 1_555
C8 N1 1_555 1_555
C9 N2 1_555 1_555
C10 N2 1_555 1_555
H10 C10 1_555 1_555
H11 C10 1_555 1_555
C11 C10 1_555 1_555
C12 O4 1_555 1_555
H12 C12 1_555 1_555
H13 C12 1_555 1_555
C13 C12 1_555 1_555
H14 C13 1_555 1_555
H15 C13 1_555 1_555
H16 C13 1_555 1_555
C1 C6 1_555 1_555
C5 C6 1_555 1_555
C8 C9 1_555 1_555

#END
