
#######################################################################
#
#                 Cambridge Crystallographic Data Centre
#                                CCDC 
#
#######################################################################
#
# If this CIF has been generated from an entry in the Cambridge 
# Structural Database, then it will include bibliographic, chemical, 
# crystal, experimental, refinement or atomic coordinate data resulting 
# from the CCDC's data processing and validation procedures.
#
#######################################################################

data_BORGUM
_chemical_formula_moiety         'C26 H14 O2,C1 H1 Cl3'
_chemical_name_systematic        'hexahelicene-1,2-dione chloroform solvate'
_symmetry_cell_setting           monoclinic
_symmetry_space_group_name_H-M   'P 21/c'
_symmetry_Int_Tables_number      14
_space_group_name_Hall           '-P 2ybc'
loop_
_symmetry_equiv_pos_site_id
_symmetry_equiv_pos_as_xyz
1 x,y,z
2 -x,1/2+y,1/2-z
3 -x,-y,-z
4 x,1/2-y,1/2+z
_cell_length_a                   8.1039(3)
_cell_length_b                   19.8611(6)
_cell_length_c                   14.8094(5)
_cell_angle_alpha                90
_cell_angle_beta                 119.708(2)
_cell_angle_gamma                90
_cell_volume                     2070.31
_exptl_crystal_colour            'metallic black'
_exptl_crystal_description       block
_cell_formula_units_Z            4
loop_
_atom_site_label
_atom_site_type_symbol
_atom_site_fract_x
_atom_site_fract_y
_atom_site_fract_z
O1 O 0.55499(16) 0.30517(6) 0.25197(9)
O2 O 0.6332(2) 0.17235(6) 0.29002(9)
C1 C 0.5238(2) 0.27829(8) 0.31531(11)
C2 C 0.5958(2) 0.20472(8) 0.34688(12)
C3 C 0.6200(2) 0.18001(8) 0.44525(12)
H1 H 0.6707 0.1374 0.4691
C4 C 0.5694(2) 0.21856(8) 0.50101(12)
H2 H 0.5905 0.2022 0.5647
C5 C 0.4824(2) 0.28512(8) 0.46794(12)
C6 C 0.4386(2) 0.31249(8) 0.37144(11)
C7 C 0.4454(2) 0.32205(9) 0.53709(12)
H3 H 0.4669 0.3027 0.5992
C8 C 0.3779(2) 0.38639(9) 0.51281(12)
H4 H 0.3624 0.4116 0.5610
C9 C 0.3312(2) 0.41534(8) 0.41595(12)
C10 C 0.3427(2) 0.37572(8) 0.33929(12)
C11 C 0.2844(2) 0.48520(8) 0.39729(13)
H5 H 0.2679 0.5104 0.4452
C12 C 0.2643(2) 0.51467(8) 0.31028(13)
H6 H 0.2561 0.5613 0.3041
C13 C 0.2553(2) 0.47506(8) 0.22774(13)
C14 C 0.2648(2) 0.40398(8) 0.23540(12)
C15 C 0.2330(2) 0.50689(8) 0.13647(13)
H7 H 0.2303 0.5536 0.1321
C16 C 0.2155(2) 0.46953(9) 0.05581(13)
H8 H 0.2217 0.4903 0.0012
C17 C 0.1879(2) 0.39861(8) 0.05404(12)
C18 C 0.1959(2) 0.36586(8) 0.14091(12)
C19 C 0.1428(2) 0.36129(9) -0.03787(13)
H9 H 0.1460 0.3827 -0.0929
C20 C 0.0959(2) 0.29566(9) -0.04617(12)
H10 H 0.0772 0.2714 -0.1042
C21 C 0.0745(2) 0.26301(8) 0.03306(12)
C22 C 0.1195(2) 0.29809(8) 0.12606(11)
C23 C -0.0014(2) 0.19728(8) 0.01677(12)
H11 H -0.0242 0.1738 -0.0426
C24 C -0.0419(2) 0.16759(9) 0.08670(13)
H12 H -0.0886 0.1238 0.0760
C25 C -0.0124(2) 0.20374(8) 0.17493(12)
H13 H -0.0467 0.1848 0.2207
C26 C 0.0665(2) 0.26689(8) 0.19404(12)
H14 H 0.0858 0.2899 0.2532
Cl1 Cl 0.81799(8) 0.45930(3) 0.38300(3)
Cl2 Cl 0.82710(6) 0.41308(3) 0.20066(4)
Cl3 Cl 0.69553(7) 0.54690(3) 0.20755(5)
C27 C 0.7061(2) 0.46271(8) 0.24682(13)
H15 H 0.5763 0.4455 0.2179
loop_
_geom_bond_atom_site_label_1
_geom_bond_atom_site_label_2
_geom_bond_site_symmetry_1
_geom_bond_site_symmetry_2
O1 C1 1_555 1_555
O2 C2 1_555 1_555
C1 C2 1_555 1_555
C2 C3 1_555 1_555
C3 H1 1_555 1_555
C4 C3 1_555 1_555
H2 C4 1_555 1_555
C5 C4 1_555 1_555
C6 C1 1_555 1_555
C7 C5 1_555 1_555
H3 C7 1_555 1_555
C8 C7 1_555 1_555
H4 C8 1_555 1_555
C9 C8 1_555 1_555
C10 C6 1_555 1_555
C11 C9 1_555 1_555
H5 C11 1_555 1_555
C12 C11 1_555 1_555
H6 C12 1_555 1_555
C13 C12 1_555 1_555
C14 C10 1_555 1_555
C15 C13 1_555 1_555
H7 C15 1_555 1_555
C16 C15 1_555 1_555
H8 C16 1_555 1_555
C17 C16 1_555 1_555
C18 C14 1_555 1_555
C19 C17 1_555 1_555
H9 C19 1_555 1_555
C20 C19 1_555 1_555
H10 C20 1_555 1_555
C21 C20 1_555 1_555
C22 C18 1_555 1_555
C23 C21 1_555 1_555
H11 C23 1_555 1_555
C24 C23 1_555 1_555
H12 C24 1_555 1_555
C25 C24 1_555 1_555
H13 C25 1_555 1_555
C26 C22 1_555 1_555
H14 C26 1_555 1_555
Cl1 C27 1_555 1_555
Cl2 C27 1_555 1_555
Cl3 C27 1_555 1_555
C27 H15 1_555 1_555
C5 C6 1_555 1_555
C9 C10 1_555 1_555
C13 C14 1_555 1_555
C17 C18 1_555 1_555
C21 C22 1_555 1_555
C25 C26 1_555 1_555

#END
